# Generated by pormake.
# Topology pcl, (4)-cn, num edge types: 1
# Building blocks:
#     Node 0, Type 0, BuildingBlock: QUQFOY_clean_sbu_1, # of connection points: 4
#     Node 1, Type 0, BuildingBlock: QUQFOY_clean_sbu_1, # of connection points: 4
#     Node 2, Type 0, BuildingBlock: QUQFOY_clean_sbu_1, # of connection points: 4
#     Node 3, Type 0, BuildingBlock: QUQFOY_clean_sbu_1, # of connection points: 4
#     Node 4, Type 0, BuildingBlock: QUQFOY_clean_sbu_1, # of connection points: 4
#     Node 5, Type 0, BuildingBlock: QUQFOY_clean_sbu_1, # of connection points: 4
#     Node 6, Type 0, BuildingBlock: QUQFOY_clean_sbu_1, # of connection points: 4
#     Node 7, Type 0, BuildingBlock: QUQFOY_clean_sbu_1, # of connection points: 4
#     Node 8, Type 0, BuildingBlock: QUQFOY_clean_sbu_1, # of connection points: 4
#     Node 9, Type 0, BuildingBlock: QUQFOY_clean_sbu_1, # of connection points: 4
#     Node 10, Type 0, BuildingBlock: QUQFOY_clean_sbu_1, # of connection points: 4
#     Node 11, Type 0, BuildingBlock: QUQFOY_clean_sbu_1, # of connection points: 4
#     Node 12, Type 0, BuildingBlock: QUQFOY_clean_sbu_1, # of connection points: 4
#     Node 13, Type 0, BuildingBlock: QUQFOY_clean_sbu_1, # of connection points: 4
#     Node 14, Type 0, BuildingBlock: QUQFOY_clean_sbu_1, # of connection points: 4
#     Node 15, Type 0, BuildingBlock: QUQFOY_clean_sbu_1, # of connection points: 4
#     Edge 16, Type (0, 0), BuildingBlock: UVAHIK_clean_linker_0, # of connection points: 2
#     Edge 17, Type (0, 0), BuildingBlock: UVAHIK_clean_linker_0, # of connection points: 2
#     Edge 18, Type (0, 0), BuildingBlock: UVAHIK_clean_linker_0, # of connection points: 2
#     Edge 19, Type (0, 0), BuildingBlock: UVAHIK_clean_linker_0, # of connection points: 2
#     Edge 20, Type (0, 0), BuildingBlock: UVAHIK_clean_linker_0, # of connection points: 2
#     Edge 21, Type (0, 0), BuildingBlock: UVAHIK_clean_linker_0, # of connection points: 2
#     Edge 22, Type (0, 0), BuildingBlock: UVAHIK_clean_linker_0, # of connection points: 2
#     Edge 23, Type (0, 0), BuildingBlock: UVAHIK_clean_linker_0, # of connection points: 2
#     Edge 24, Type (0, 0), BuildingBlock: UVAHIK_clean_linker_0, # of connection points: 2
#     Edge 25, Type (0, 0), BuildingBlock: UVAHIK_clean_linker_0, # of connection points: 2
#     Edge 26, Type (0, 0), BuildingBlock: UVAHIK_clean_linker_0, # of connection points: 2
#     Edge 27, Type (0, 0), BuildingBlock: UVAHIK_clean_linker_0, # of connection points: 2
#     Edge 28, Type (0, 0), BuildingBlock: UVAHIK_clean_linker_0, # of connection points: 2
#     Edge 29, Type (0, 0), BuildingBlock: UVAHIK_clean_linker_0, # of connection points: 2
#     Edge 30, Type (0, 0), BuildingBlock: UVAHIK_clean_linker_0, # of connection points: 2
#     Edge 31, Type (0, 0), BuildingBlock: UVAHIK_clean_linker_0, # of connection points: 2
#     Edge 32, Type (0, 0), BuildingBlock: UVAHIK_clean_linker_0, # of connection points: 2
#     Edge 33, Type (0, 0), BuildingBlock: UVAHIK_clean_linker_0, # of connection points: 2
#     Edge 34, Type (0, 0), BuildingBlock: UVAHIK_clean_linker_0, # of connection points: 2
#     Edge 35, Type (0, 0), BuildingBlock: UVAHIK_clean_linker_0, # of connection points: 2
#     Edge 36, Type (0, 0), BuildingBlock: UVAHIK_clean_linker_0, # of connection points: 2
#     Edge 37, Type (0, 0), BuildingBlock: UVAHIK_clean_linker_0, # of connection points: 2
#     Edge 38, Type (0, 0), BuildingBlock: UVAHIK_clean_linker_0, # of connection points: 2
#     Edge 39, Type (0, 0), BuildingBlock: UVAHIK_clean_linker_0, # of connection points: 2
#     Edge 40, Type (0, 0), BuildingBlock: UVAHIK_clean_linker_0, # of connection points: 2
#     Edge 41, Type (0, 0), BuildingBlock: UVAHIK_clean_linker_0, # of connection points: 2
#     Edge 42, Type (0, 0), BuildingBlock: UVAHIK_clean_linker_0, # of connection points: 2
#     Edge 43, Type (0, 0), BuildingBlock: UVAHIK_clean_linker_0, # of connection points: 2
#     Edge 44, Type (0, 0), BuildingBlock: UVAHIK_clean_linker_0, # of connection points: 2
#     Edge 45, Type (0, 0), BuildingBlock: UVAHIK_clean_linker_0, # of connection points: 2
#     Edge 46, Type (0, 0), BuildingBlock: UVAHIK_clean_linker_0, # of connection points: 2
#     Edge 47, Type (0, 0), BuildingBlock: UVAHIK_clean_linker_0, # of connection points: 2
# Relax obj value: 0.089
# Max RMSD: 0.137
# Mean RMSD: 0.119
data_MOF--net-pcl--node1-QUQFOY_clean_sbu_1--edge1-UVAHIK_clean_linker_0
_symmetry_space_group_name_H-M    P1
_symmetry_Int_Tables_number       1
_symmetry_cell_setting            triclinic
loop_
_symmetry_equiv_pos_as_xyz
'x, y, z'
_cell_length_a     68.518002
_cell_length_b     56.770828
_cell_length_c     59.179577
_cell_angle_alpha  90.025551
_cell_angle_beta   89.963913
_cell_angle_gamma 89.972706
loop_
_atom_site_label
_atom_site_type_symbol
_atom_site_fract_x
_atom_site_fract_y
_atom_site_fract_z
_atom_type_partial_charge
O0 O 0.15235 0.32023 0.12176 0.0
Cd1 Cd 0.14439 0.31745 0.0881 0.0
Cd2 Cd 0.14091 0.36464 0.09029 0.0
O3 O 0.15305 0.35905 0.12169 0.0
O4 O 0.1572 0.28923 0.07451 0.0
O5 O 0.16429 0.32589 0.06465 0.0
C6 C 0.16746 0.30356 0.06241 0.0
C7 C 0.1518 0.39694 0.0692 0.0
C8 C 0.15568 0.33959 0.13187 0.0
C9 C 0.10425 0.33621 0.08165 0.0
O10 O 0.11186 0.35611 0.08606 0.0
O11 O 0.11488 0.31788 0.08045 0.0
O12 O 0.14144 0.39963 0.08717 0.0
O13 O 0.15636 0.37575 0.06327 0.0
O14 O 0.85536 0.68266 0.61967 0.0
Cd15 Cd 0.86357 0.68549 0.58606 0.0
Cd16 Cd 0.86823 0.63863 0.58875 0.0
O17 O 0.85547 0.64385 0.61988 0.0
O18 O 0.85054 0.71358 0.57258 0.0
O19 O 0.84397 0.67689 0.56233 0.0
C20 C 0.84055 0.69918 0.56026 0.0
C21 C 0.85801 0.60641 0.56713 0.0
C22 C 0.85233 0.6633 0.62989 0.0
C23 C 0.9043 0.66815 0.58083 0.0
O24 O 0.89718 0.64805 0.58545 0.0
O25 O 0.89318 0.68598 0.57887 0.0
O26 O 0.86818 0.60367 0.58523 0.0
O27 O 0.85334 0.62759 0.56132 0.0
O28 O 0.14964 0.68368 0.88514 0.0
Cd29 Cd 0.14181 0.68596 0.91889 0.0
Cd30 Cd 0.13855 0.63872 0.91641 0.0
O31 O 0.15057 0.64488 0.88504 0.0
O32 O 0.15468 0.71393 0.93277 0.0
O33 O 0.16187 0.6771 0.94199 0.0
C34 C 0.16505 0.6994 0.94451 0.0
C35 C 0.14946 0.60549 0.93614 0.0
C36 C 0.15307 0.6644 0.87494 0.0
C37 C 0.1018 0.66692 0.9256 0.0
O38 O 0.10949 0.6471 0.92101 0.0
O39 O 0.11235 0.68531 0.9268 0.0
O40 O 0.13899 0.60365 0.91817 0.0
O41 O 0.15402 0.62637 0.94297 0.0
O42 O 0.85605 0.3202 0.38139 0.0
Cd43 Cd 0.86399 0.31792 0.41508 0.0
Cd44 Cd 0.86737 0.36513 0.4125 0.0
O45 O 0.85504 0.359 0.38129 0.0
O46 O 0.85122 0.28992 0.42899 0.0
O47 O 0.84403 0.32672 0.43835 0.0
C48 C 0.8409 0.30441 0.44086 0.0
C49 C 0.85688 0.3984 0.43249 0.0
C50 C 0.85252 0.33946 0.37121 0.0
C51 C 0.90407 0.33678 0.42134 0.0
O52 O 0.89643 0.35661 0.41669 0.0
O53 O 0.89346 0.31847 0.42277 0.0
O54 O 0.86711 0.40019 0.41432 0.0
O55 O 0.85226 0.37755 0.43933 0.0
O56 O 0.84601 0.63028 0.96027 0.0
Cd57 Cd 0.85234 0.66417 0.9497 0.0
Cd58 Cd 0.85619 0.64255 0.9087 0.0
O59 O 0.84407 0.61479 0.9262 0.0
O60 O 0.84146 0.68547 0.97329 0.0
O61 O 0.83017 0.68413 0.93827 0.0
C62 C 0.82895 0.6926 0.95851 0.0
C63 C 0.84699 0.64692 0.8708 0.0
C64 C 0.84233 0.61284 0.94749 0.0
C65 C 0.89235 0.66357 0.93029 0.0
O66 O 0.88508 0.65027 0.9152 0.0
O67 O 0.88145 0.67285 0.94524 0.0
O68 O 0.85733 0.62939 0.87758 0.0
O69 O 0.84147 0.66217 0.88568 0.0
O70 O 0.15878 0.37049 0.46257 0.0
Cd71 Cd 0.15299 0.33732 0.44971 0.0
Cd72 Cd 0.15059 0.36047 0.41014 0.0
O73 O 0.16274 0.38707 0.42923 0.0
O74 O 0.16369 0.31372 0.47125 0.0
O75 O 0.17584 0.31956 0.43695 0.0
C76 C 0.17668 0.30878 0.45617 0.0
C77 C 0.16096 0.35643 0.37263 0.0
C78 C 0.16342 0.38826 0.45066 0.0
C79 C 0.11362 0.33919 0.42901 0.0
O80 O 0.12135 0.35347 0.41511 0.0
O81 O 0.12411 0.32874 0.4436 0.0
O82 O 0.15099 0.37435 0.37929 0.0
O83 O 0.16554 0.3407 0.38746 0.0
O84 O 0.84895 0.36824 0.04077 0.0
Cd85 Cd 0.85506 0.33558 0.05454 0.0
Cd86 Cd 0.85772 0.36008 0.09315 0.0
O87 O 0.84543 0.38616 0.07355 0.0
O88 O 0.84437 0.3113 0.03367 0.0
O89 O 0.83232 0.31808 0.06785 0.0
C90 C 0.83142 0.30679 0.0489 0.0
C91 C 0.84716 0.35607 0.13056 0.0
C92 C 0.84445 0.38649 0.05211 0.0
C93 C 0.89464 0.3384 0.07473 0.0
O94 O 0.88697 0.35316 0.08823 0.0
O95 O 0.88406 0.32737 0.06062 0.0
O96 O 0.85699 0.37411 0.12394 0.0
O97 O 0.84281 0.34023 0.11573 0.0
O98 O 0.15924 0.63263 0.54471 0.0
Cd99 Cd 0.15314 0.66609 0.55658 0.0
Cd100 Cd 0.1499 0.64306 0.59675 0.0
O101 O 0.16118 0.61556 0.57807 0.0
O102 O 0.16395 0.68823 0.53372 0.0
O103 O 0.1755 0.68536 0.56854 0.0
C104 C 0.17662 0.69462 0.54862 0.0
C105 C 0.16019 0.64703 0.63428 0.0
C106 C 0.16277 0.61455 0.5567 0.0
C107 C 0.11351 0.66548 0.57709 0.0
O108 O 0.12101 0.65167 0.59159 0.0
O109 O 0.12414 0.67486 0.56195 0.0
O110 O 0.14964 0.62957 0.62775 0.0
O111 O 0.16542 0.66231 0.6193 0.0
O112 O 0.65142 0.82121 0.12396 0.0
Cd113 Cd 0.64349 0.81878 0.09025 0.0
Cd114 Cd 0.63879 0.86583 0.09369 0.0
O115 O 0.65076 0.86001 0.12518 0.0
O116 O 0.65639 0.79056 0.07678 0.0
O117 O 0.66349 0.82718 0.06685 0.0
C118 C 0.66667 0.80485 0.06467 0.0
C119 C 0.64959 0.89803 0.07244 0.0
C120 C 0.65405 0.84034 0.13472 0.0
C121 C 0.60294 0.83649 0.08373 0.0
O122 O 0.61 0.85652 0.08878 0.0
O123 O 0.61403 0.81857 0.08232 0.0
O124 O 0.63906 0.9008 0.09029 0.0
O125 O 0.65443 0.87684 0.06681 0.0
O126 O 0.35737 0.18444 0.61857 0.0
Cd127 Cd 0.36423 0.18554 0.58462 0.0
Cd128 Cd 0.36835 0.13846 0.58883 0.0
O129 O 0.35708 0.14562 0.62061 0.0
O130 O 0.35094 0.2127 0.5698 0.0
O131 O 0.34356 0.17535 0.56283 0.0
C132 C 0.34032 0.19747 0.55923 0.0
C133 C 0.35736 0.10479 0.56978 0.0
C134 C 0.3545 0.16565 0.62979 0.0
C135 C 0.40429 0.1674 0.577 0.0
O136 O 0.39707 0.14748 0.58216 0.0
O137 O 0.39343 0.18553 0.57611 0.0
O138 O 0.36887 0.10338 0.58692 0.0
O139 O 0.35158 0.12548 0.56367 0.0
O140 O 0.6511 0.18443 0.88679 0.0
Cd141 Cd 0.64366 0.1846 0.92071 0.0
Cd142 Cd 0.64012 0.1381 0.91521 0.0
O143 O 0.65457 0.14583 0.88547 0.0
O144 O 0.65643 0.21162 0.93642 0.0
O145 O 0.66428 0.17424 0.94246 0.0
C146 C 0.66722 0.1963 0.94664 0.0
C147 C 0.6498 0.10482 0.93568 0.0
C148 C 0.65617 0.16593 0.87618 0.0
C149 C 0.60342 0.16603 0.92447 0.0
O150 O 0.61082 0.14678 0.91755 0.0
O151 O 0.61433 0.18356 0.92876 0.0
O152 O 0.64073 0.10297 0.9167 0.0
O153 O 0.6537 0.12571 0.94302 0.0
O154 O 0.35633 0.81896 0.3852 0.0
Cd155 Cd 0.36359 0.81869 0.41913 0.0
Cd156 Cd 0.36672 0.86542 0.41318 0.0
O157 O 0.35448 0.85762 0.38216 0.0
O158 O 0.35107 0.79084 0.43363 0.0
O159 O 0.34309 0.82772 0.44172 0.0
C160 C 0.34031 0.80543 0.44485 0.0
C161 C 0.35589 0.89881 0.43278 0.0
C162 C 0.35251 0.83722 0.37357 0.0
C163 C 0.40348 0.83782 0.42439 0.0
O164 O 0.39581 0.85713 0.41807 0.0
O165 O 0.3929 0.8197 0.4273 0.0
O166 O 0.36659 0.9005 0.41495 0.0
O167 O 0.35079 0.87798 0.43926 0.0
O168 O 0.34828 0.13117 0.95907 0.0
Cd169 Cd 0.35422 0.16479 0.94758 0.0
Cd170 Cd 0.35828 0.14085 0.90738 0.0
O171 O 0.34727 0.11317 0.92604 0.0
O172 O 0.34329 0.18639 0.97089 0.0
O173 O 0.33173 0.1842 0.93604 0.0
C174 C 0.33056 0.19302 0.95614 0.0
C175 C 0.34953 0.14468 0.8693 0.0
C176 C 0.34528 0.11271 0.9474 0.0
C177 C 0.39405 0.1645 0.92795 0.0
O178 O 0.38677 0.15057 0.91343 0.0
O179 O 0.38324 0.17388 0.94292 0.0
O180 O 0.36073 0.12798 0.87623 0.0
O181 O 0.3424 0.15886 0.88425 0.0
O182 O 0.65879 0.87053 0.46283 0.0
Cd183 Cd 0.65284 0.83765 0.44951 0.0
Cd184 Cd 0.64979 0.8624 0.41084 0.0
O185 O 0.66153 0.88905 0.43028 0.0
O186 O 0.66349 0.81461 0.47165 0.0
O187 O 0.67536 0.81891 0.4371 0.0
C188 C 0.67636 0.8089 0.45669 0.0
C189 C 0.66081 0.8573 0.37371 0.0
C190 C 0.66274 0.88908 0.45171 0.0
C191 C 0.61314 0.84011 0.42963 0.0
O192 O 0.62069 0.85473 0.41591 0.0
O193 O 0.62381 0.82935 0.44386 0.0
O194 O 0.65054 0.8753 0.37957 0.0
O195 O 0.66534 0.84221 0.38917 0.0
O196 O 0.34802 0.87042 0.04487 0.0
Cd197 Cd 0.35397 0.8365 0.05567 0.0
Cd198 Cd 0.35843 0.85919 0.09604 0.0
O199 O 0.34677 0.88719 0.07846 0.0
O200 O 0.34248 0.8153 0.03242 0.0
O201 O 0.33165 0.8171 0.06763 0.0
C202 C 0.33005 0.80855 0.04746 0.0
C203 C 0.35013 0.85426 0.13415 0.0
C204 C 0.34482 0.88842 0.05713 0.0
C205 C 0.39409 0.83671 0.07412 0.0
O206 O 0.38699 0.85042 0.08897 0.0
O207 O 0.38303 0.8272 0.0595 0.0
O208 O 0.36116 0.87122 0.12746 0.0
O209 O 0.34302 0.84034 0.11899 0.0
O210 O 0.65961 0.13223 0.54634 0.0
Cd211 Cd 0.65368 0.16648 0.55563 0.0
Cd212 Cd 0.64875 0.14599 0.59801 0.0
O213 O 0.65839 0.11664 0.58045 0.0
O214 O 0.66524 0.18669 0.53163 0.0
O215 O 0.67587 0.18648 0.56695 0.0
C216 C 0.67753 0.1942 0.54648 0.0
C217 C 0.65777 0.14901 0.63618 0.0
C218 C 0.66132 0.11453 0.55932 0.0
C219 C 0.61383 0.16979 0.57538 0.0
O220 O 0.62083 0.15804 0.59176 0.0
O221 O 0.62465 0.17585 0.55894 0.0
O222 O 0.64552 0.13347 0.6292 0.0
O223 O 0.66551 0.16275 0.62129 0.0
C224 C 0.07094 0.35402 0.0839 0.0
C225 C 0.0828 0.3346 0.07858 0.0
C226 C 0.05071 0.35272 0.0816 0.0
C227 C 0.00962 0.31046 0.07714 0.0
H228 H 0.9815 0.36689 0.05966 0.0
C229 C 0.92504 0.31661 0.06295 0.0
C230 C 0.91612 0.33531 0.07469 0.0
C231 C 0.94544 0.3147 0.06215 0.0
C232 C 0.98917 0.351 0.06457 0.0
H233 H 0.08264 0.29855 0.06645 0.0
H234 H 0.0472 0.29645 0.06186 0.0
H235 H 0.01702 0.36697 0.05947 0.0
H236 H 0.92167 0.36647 0.09499 0.0
H237 H 0.95705 0.36331 0.0932 0.0
H238 H 0.98146 0.29455 0.08191 0.0
C239 C 0.05358 0.31258 0.06824 0.0
C240 C 0.00953 0.35105 0.0646 0.0
C241 C 0.07391 0.31382 0.07074 0.0
C242 C 0.92801 0.35183 0.08581 0.0
C243 C 0.9483 0.35013 0.0847 0.0
C244 C 0.98916 0.31033 0.0768 0.0
C245 C 0.04172 0.33205 0.07364 0.0
C246 C 0.02006 0.33099 0.07144 0.0
C247 C 0.95722 0.3317 0.07272 0.0
C248 C 0.97879 0.3308 0.07102 0.0
H249 H 0.07723 0.37024 0.0902 0.0
H250 H 0.0421 0.36789 0.08648 0.0
H251 H 0.01719 0.29474 0.08266 0.0
H252 H 0.91629 0.30357 0.05426 0.0
H253 H 0.952 0.30033 0.0528 0.0
C254 C 0.93805 0.65329 0.58794 0.0
C255 C 0.92576 0.6708 0.57901 0.0
C256 C 0.95828 0.65601 0.58747 0.0
C257 C 0.99864 0.6829 0.5579 0.0
H258 H 0.02636 0.67379 0.61434 0.0
C259 C 0.08336 0.68664 0.56349 0.0
C260 C 0.09216 0.66976 0.57759 0.0
C261 C 0.06307 0.68991 0.56378 0.0
C262 C 0.01891 0.67615 0.59837 0.0
H263 H 0.92513 0.70465 0.56203 0.0
H264 H 0.96079 0.70905 0.56069 0.0
H265 H 0.99083 0.67311 0.61399 0.0
H266 H 0.08645 0.643 0.60293 0.0
H267 H 0.0514 0.64818 0.60298 0.0
H268 H 0.02671 0.68482 0.54204 0.0
C269 C 0.95457 0.6934 0.56827 0.0
C270 C 0.99855 0.67591 0.59823 0.0
C271 C 0.93422 0.69088 0.5691 0.0
C272 C 0.08024 0.65632 0.59198 0.0
C273 C 0.06006 0.65943 0.59213 0.0
C274 C 0.0191 0.68281 0.55795 0.0
C275 C 0.96673 0.67611 0.57776 0.0
C276 C 0.98823 0.67883 0.57796 0.0
C277 C 0.05115 0.67628 0.57808 0.0
C278 C 0.02949 0.67892 0.57815 0.0
H279 H 0.93205 0.63763 0.59574 0.0
H280 H 0.96736 0.64232 0.5947 0.0
H281 H 0.99098 0.68512 0.54203 0.0
H282 H 0.09213 0.69733 0.55223 0.0
H283 H 0.05676 0.7032 0.55289 0.0
C284 C 0.92602 0.65128 0.91919 0.0
C285 C 0.9138 0.66687 0.93108 0.0
C286 C 0.94626 0.6531 0.92086 0.0
C287 C 0.98667 0.69244 0.9312 0.0
H288 H 0.01458 0.63539 0.94716 0.0
C289 C 0.07143 0.68898 0.93712 0.0
C290 C 0.08036 0.6684 0.92883 0.0
C291 C 0.05111 0.69011 0.93973 0.0
C292 C 0.00709 0.65144 0.94243 0.0
H293 H 0.91332 0.6971 0.9535 0.0
H294 H 0.94901 0.70064 0.95589 0.0
H295 H 0.97906 0.63536 0.94663 0.0
H296 H 0.07487 0.63301 0.91652 0.0
H297 H 0.03974 0.63519 0.92038 0.0
H298 H 0.01468 0.70829 0.92596 0.0
C299 C 0.94272 0.68687 0.94553 0.0
C300 C 0.98673 0.65142 0.94229 0.0
C301 C 0.92235 0.68479 0.94419 0.0
C302 C 0.06854 0.64907 0.92317 0.0
C303 C 0.04832 0.65027 0.92556 0.0
C304 C 0.00713 0.69239 0.93101 0.0
C305 C 0.95481 0.67077 0.93415 0.0
C306 C 0.97633 0.67177 0.9363 0.0
C307 C 0.03928 0.67074 0.93397 0.0
C308 C 0.0176 0.67171 0.93619 0.0
H309 H 0.91996 0.63724 0.90897 0.0
H310 H 0.95529 0.64061 0.91175 0.0
H311 H 0.97894 0.70834 0.92646 0.0
H312 H 0.08013 0.70418 0.94168 0.0
H313 H 0.0447 0.70608 0.94645 0.0
C314 C 0.08321 0.31769 0.44115 0.0
C315 C 0.09215 0.33602 0.42894 0.0
C316 C 0.06281 0.31577 0.44186 0.0
C317 C 0.01909 0.35192 0.43833 0.0
H318 H 0.99115 0.29523 0.42138 0.0
C319 C 0.93737 0.3545 0.41872 0.0
C320 C 0.92551 0.33522 0.42444 0.0
C321 C 0.95759 0.35324 0.42108 0.0
C322 C 0.9987 0.31108 0.42658 0.0
H323 H 0.08666 0.3665 0.40771 0.0
H324 H 0.05126 0.36334 0.40935 0.0
H325 H 0.02688 0.29504 0.42227 0.0
H326 H 0.92567 0.29946 0.43732 0.0
H327 H 0.96109 0.29745 0.44201 0.0
H328 H 0.99122 0.36802 0.44297 0.0
C329 C 0.06001 0.35045 0.41829 0.0
C330 C 0.01915 0.31095 0.427 0.0
C331 C 0.08029 0.35215 0.41726 0.0
C332 C 0.9344 0.31462 0.43271 0.0
C333 C 0.95472 0.31343 0.43528 0.0
C334 C 0.99873 0.35197 0.43822 0.0
C335 C 0.05106 0.3324 0.43074 0.0
C336 C 0.0295 0.33155 0.43237 0.0
C337 C 0.96658 0.33276 0.4295 0.0
C338 C 0.98823 0.33175 0.43179 0.0
H339 H 0.09194 0.30496 0.45028 0.0
H340 H 0.05623 0.3017 0.45159 0.0
H341 H 0.02674 0.36792 0.44291 0.0
H342 H 0.93108 0.37057 0.41207 0.0
H343 H 0.9662 0.36829 0.4159 0.0
C344 C 0.42409 0.81524 0.06031 0.0
C345 C 0.41553 0.83331 0.07325 0.0
C346 C 0.44447 0.81313 0.05902 0.0
C347 C 0.48838 0.84866 0.0619 0.0
H348 H 0.51654 0.79285 0.08093 0.0
C349 C 0.56923 0.85329 0.08483 0.0
C350 C 0.58163 0.83425 0.07988 0.0
C351 C 0.54914 0.85149 0.08156 0.0
C352 C 0.50893 0.80843 0.07512 0.0
H353 H 0.42169 0.86319 0.09506 0.0
H354 H 0.45697 0.85975 0.09235 0.0
H355 H 0.4808 0.79221 0.0793 0.0
H356 H 0.58253 0.79831 0.06748 0.0
H357 H 0.54731 0.79531 0.06129 0.0
H358 H 0.51617 0.86501 0.05757 0.0
C359 C 0.44797 0.84717 0.08335 0.0
C360 C 0.48848 0.80803 0.07426 0.0
C361 C 0.42774 0.84903 0.08497 0.0
C362 C 0.57338 0.8133 0.0715 0.0
C363 C 0.55319 0.81155 0.06805 0.0
C364 C 0.50872 0.84898 0.06246 0.0
C365 C 0.45654 0.82935 0.07026 0.0
C366 C 0.47806 0.82838 0.06824 0.0
C367 C 0.54082 0.83068 0.073 0.0
C368 C 0.51928 0.82913 0.06976 0.0
H369 H 0.41507 0.80283 0.05114 0.0
H370 H 0.4508 0.79923 0.04883 0.0
H371 H 0.48064 0.86448 0.05689 0.0
H372 H 0.57501 0.86963 0.09152 0.0
H373 H 0.54009 0.8664 0.08612 0.0
C374 C 0.58146 0.17179 0.59476 0.0
C375 C 0.5926 0.17481 0.57503 0.0
C376 C 0.56116 0.1736 0.59413 0.0
C377 C 0.51957 0.15992 0.58489 0.0
H378 H 0.49068 0.20448 0.54822 0.0
C379 C 0.43724 0.14915 0.57168 0.0
C380 C 0.42562 0.16949 0.57326 0.0
C381 C 0.45752 0.15088 0.57014 0.0
C382 C 0.49854 0.19201 0.55865 0.0
H383 H 0.59117 0.18318 0.53932 0.0
H384 H 0.55558 0.18593 0.53812 0.0
H385 H 0.5263 0.20701 0.55003 0.0
H386 H 0.42624 0.2077 0.57366 0.0
H387 H 0.46174 0.21071 0.57138 0.0
H388 H 0.49201 0.14522 0.59399 0.0
C389 C 0.5626 0.18241 0.55416 0.0
C390 C 0.51896 0.19332 0.55952 0.0
C391 C 0.58301 0.18078 0.55483 0.0
C392 C 0.43475 0.19167 0.57246 0.0
C393 C 0.45511 0.1934 0.57106 0.0
C394 C 0.49926 0.15864 0.58406 0.0
C395 C 0.55142 0.17825 0.57371 0.0
C396 C 0.52971 0.17731 0.57272 0.0
C397 C 0.46676 0.173 0.57032 0.0
C398 C 0.48846 0.17458 0.57089 0.0
H399 H 0.58839 0.16749 0.61068 0.0
H400 H 0.55305 0.1709 0.60963 0.0
H401 H 0.52734 0.14703 0.59493 0.0
H402 H 0.4307 0.13179 0.57198 0.0
H403 H 0.46599 0.13481 0.56907 0.0
C404 C 0.56973 0.15173 0.91579 0.0
C405 C 0.58193 0.16825 0.92643 0.0
C406 C 0.54948 0.15433 0.91643 0.0
C407 C 0.509 0.17902 0.94821 0.0
H408 H 0.48129 0.17426 0.89128 0.0
C409 C 0.42431 0.18477 0.9426 0.0
C410 C 0.41542 0.16876 0.92766 0.0
C411 C 0.44463 0.18778 0.94253 0.0
C412 C 0.48874 0.17541 0.90738 0.0
H413 H 0.58236 0.20014 0.94664 0.0
H414 H 0.54675 0.20433 0.94818 0.0
H415 H 0.5168 0.17294 0.89162 0.0
H416 H 0.42103 0.14337 0.90097 0.0
H417 H 0.45607 0.14814 0.90125 0.0
H418 H 0.48091 0.18047 0.96411 0.0
C419 C 0.55301 0.18953 0.93917 0.0
C420 C 0.50909 0.17476 0.90752 0.0
C421 C 0.57336 0.18715 0.93822 0.0
C422 C 0.42728 0.156 0.91261 0.0
C423 C 0.44748 0.15888 0.91265 0.0
C424 C 0.48855 0.17936 0.94812 0.0
C425 C 0.54092 0.17331 0.92799 0.0
C426 C 0.51941 0.17611 0.92795 0.0
C427 C 0.45647 0.17479 0.92757 0.0
C428 C 0.47815 0.17705 0.92771 0.0
H429 H 0.57582 0.13698 0.90654 0.0
H430 H 0.54047 0.14143 0.90788 0.0
H431 H 0.51664 0.18005 0.9642 0.0
H432 H 0.41559 0.1949 0.95439 0.0
H433 H 0.45104 0.20034 0.95413 0.0
C434 C 0.43676 0.85553 0.42094 0.0
C435 C 0.42493 0.83654 0.42759 0.0
C436 C 0.457 0.85437 0.42318 0.0
C437 C 0.49807 0.81238 0.42979 0.0
H438 H 0.52644 0.86972 0.44353 0.0
C439 C 0.58277 0.8189 0.44247 0.0
C440 C 0.59165 0.83697 0.42985 0.0
C441 C 0.56238 0.81712 0.44353 0.0
C442 C 0.5187 0.85358 0.43965 0.0
H443 H 0.42519 0.80145 0.44208 0.0
H444 H 0.46064 0.79965 0.44652 0.0
H445 H 0.49092 0.86999 0.44409 0.0
H446 H 0.58601 0.86709 0.40819 0.0
H447 H 0.55065 0.86414 0.41038 0.0
H448 H 0.52614 0.79606 0.42562 0.0
C449 C 0.45421 0.8153 0.43917 0.0
C450 C 0.49834 0.85372 0.43985 0.0
C451 C 0.43388 0.81638 0.43675 0.0
C452 C 0.57971 0.85294 0.41807 0.0
C453 C 0.55943 0.85137 0.41942 0.0
C454 C 0.51852 0.81219 0.42987 0.0
C455 C 0.46604 0.8343 0.43238 0.0
C456 C 0.48772 0.8333 0.43437 0.0
C457 C 0.55055 0.83362 0.43232 0.0
C458 C 0.52899 0.83294 0.4343 0.0
H459 H 0.43042 0.87126 0.41363 0.0
H460 H 0.46558 0.86915 0.41727 0.0
H461 H 0.49041 0.79637 0.42532 0.0
H462 H 0.59156 0.80629 0.45169 0.0
H463 H 0.55585 0.80327 0.4536 0.0
C464 C 0.16411 0.36145 0.16723 0.0
C465 C 0.1612 0.33984 0.1561 0.0
C466 C 0.16703 0.36219 0.19054 0.0
C467 C 0.1802 0.3279 0.24106 0.0
H468 H 0.14685 0.37318 0.27138 0.0
C469 C 0.1691 0.3315 0.33881 0.0
C470 C 0.16586 0.35379 0.34844 0.0
C471 C 0.17087 0.32904 0.31532 0.0
C472 C 0.15655 0.36071 0.26325 0.0
H473 H 0.16016 0.30194 0.16069 0.0
H474 H 0.16531 0.30332 0.20162 0.0
H475 H 0.14605 0.37019 0.23052 0.0
H476 H 0.16342 0.39112 0.34132 0.0
H477 H 0.16723 0.38701 0.30071 0.0
H478 H 0.19078 0.31855 0.27399 0.0
C479 C 0.1653 0.31964 0.19215 0.0
C480 C 0.15602 0.35896 0.23977 0.0
C481 C 0.16228 0.31888 0.16874 0.0
C482 C 0.16562 0.37366 0.33435 0.0
C483 C 0.16765 0.37126 0.31103 0.0
C484 C 0.18086 0.3298 0.26468 0.0
C485 C 0.16718 0.34137 0.20334 0.0
C486 C 0.16791 0.34268 0.22838 0.0
C487 C 0.16962 0.34887 0.3011 0.0
C488 C 0.16914 0.34639 0.27604 0.0
H489 H 0.16357 0.37794 0.15806 0.0
H490 H 0.16877 0.37917 0.19865 0.0
H491 H 0.18955 0.31522 0.23269 0.0
H492 H 0.1693 0.31586 0.3493 0.0
H493 H 0.17232 0.31152 0.30827 0.0
C494 C 0.84439 0.6415 0.66542 0.0
C495 C 0.84672 0.66309 0.6541 0.0
C496 C 0.84158 0.64088 0.68875 0.0
C497 C 0.82765 0.67487 0.73913 0.0
H498 H 0.86278 0.63162 0.76938 0.0
C499 C 0.83857 0.67172 0.83697 0.0
C500 C 0.84251 0.64956 0.8465 0.0
C501 C 0.83695 0.67423 0.81346 0.0
C502 C 0.8526 0.64351 0.76127 0.0
H503 H 0.84678 0.70106 0.65837 0.0
H504 H 0.84176 0.69989 0.69935 0.0
H505 H 0.86331 0.63445 0.7285 0.0
H506 H 0.84641 0.61244 0.83917 0.0
H507 H 0.84288 0.61659 0.79857 0.0
H508 H 0.81682 0.68375 0.7721 0.0
C509 C 0.84217 0.68349 0.69001 0.0
C510 C 0.85298 0.64518 0.73779 0.0
C511 C 0.84511 0.68413 0.66657 0.0
C512 C 0.84368 0.62982 0.83229 0.0
C513 C 0.84179 0.63224 0.80896 0.0
C514 C 0.82713 0.67305 0.76277 0.0
C515 C 0.84093 0.66181 0.70138 0.0
C516 C 0.84041 0.6607 0.72643 0.0
C517 C 0.83905 0.65455 0.79915 0.0
C518 C 0.8395 0.65715 0.7741 0.0
H519 H 0.84536 0.62494 0.65639 0.0
H520 H 0.84033 0.62392 0.69702 0.0
H521 H 0.8178 0.68698 0.73077 0.0
H522 H 0.83764 0.68725 0.84756 0.0
H523 H 0.83488 0.69168 0.8065 0.0
C524 C 0.15979 0.68527 0.83815 0.0
C525 C 0.15864 0.66426 0.85071 0.0
C526 C 0.16293 0.68459 0.81474 0.0
C527 C 0.15373 0.64558 0.76698 0.0
H528 H 0.18945 0.68507 0.7331 0.0
C529 C 0.16426 0.63 0.6727 0.0
C530 C 0.16498 0.64975 0.65848 0.0
C531 C 0.16606 0.63254 0.69604 0.0
C532 C 0.17926 0.67409 0.74231 0.0
H533 H 0.16097 0.62616 0.84862 0.0
H534 H 0.16634 0.62507 0.80806 0.0
H535 H 0.18777 0.68862 0.77438 0.0
H536 H 0.16905 0.68756 0.65737 0.0
H537 H 0.17165 0.69219 0.69841 0.0
H538 H 0.14473 0.63141 0.73531 0.0
C539 C 0.16459 0.64203 0.81622 0.0
C540 C 0.17835 0.67611 0.76592 0.0
C541 C 0.16157 0.64269 0.83951 0.0
C542 C 0.16848 0.67203 0.66797 0.0
C543 C 0.17001 0.67465 0.69148 0.0
C544 C 0.1545 0.64371 0.74353 0.0
C545 C 0.16484 0.66289 0.8035 0.0
C546 C 0.16573 0.66162 0.77847 0.0
C547 C 0.16826 0.65497 0.70582 0.0
C548 C 0.16746 0.65767 0.73086 0.0
H549 H 0.15766 0.70219 0.84625 0.0
H550 H 0.16303 0.70094 0.80532 0.0
H551 H 0.14352 0.63457 0.77615 0.0
H552 H 0.16185 0.61255 0.66583 0.0
H553 H 0.16527 0.6169 0.70646 0.0
C554 C 0.84216 0.37327 0.16881 0.0
C555 C 0.84219 0.35339 0.15472 0.0
C556 C 0.84009 0.37085 0.19213 0.0
C557 C 0.82734 0.32913 0.23842 0.0
H558 H 0.86158 0.37013 0.27268 0.0
C559 C 0.84616 0.31855 0.33436 0.0
C560 C 0.84691 0.33954 0.347 0.0
C561 C 0.84309 0.31923 0.31095 0.0
C562 C 0.85177 0.35872 0.26339 0.0
H563 H 0.8392 0.31541 0.15383 0.0
H564 H 0.83613 0.31103 0.19484 0.0
H565 H 0.86077 0.37314 0.23182 0.0
H566 H 0.84389 0.37757 0.34506 0.0
H567 H 0.83861 0.37866 0.30449 0.0
H568 H 0.81884 0.31435 0.27039 0.0
C569 C 0.83738 0.32857 0.18781 0.0
C570 C 0.85123 0.36049 0.23992 0.0
C571 C 0.83918 0.33105 0.16432 0.0
C572 C 0.84361 0.36106 0.33589 0.0
C573 C 0.84065 0.36173 0.31259 0.0
C574 C 0.82802 0.32722 0.26204 0.0
C575 C 0.83836 0.34843 0.20204 0.0
C576 C 0.83885 0.34595 0.2271 0.0
C577 C 0.84084 0.34091 0.29978 0.0
C578 C 0.8401 0.34222 0.27475 0.0
H579 H 0.84417 0.39075 0.16186 0.0
H580 H 0.8403 0.3866 0.20246 0.0
H581 H 0.81758 0.31771 0.22909 0.0
H582 H 0.84859 0.30167 0.3424 0.0
H583 H 0.84335 0.30291 0.30147 0.0
C584 C 0.67145 0.83144 0.34149 0.0
C585 C 0.66621 0.85379 0.34973 0.0
C586 C 0.67436 0.82788 0.31829 0.0
C587 C 0.68375 0.85905 0.26447 0.0
H588 H 0.65366 0.80883 0.23698 0.0
C589 C 0.66157 0.86108 0.17104 0.0
C590 C 0.66001 0.83992 0.15883 0.0
C591 C 0.6658 0.86086 0.19411 0.0
C592 C 0.6625 0.82265 0.24434 0.0
H593 H 0.66079 0.89012 0.34031 0.0
H594 H 0.6661 0.884 0.30008 0.0
H595 H 0.65548 0.81174 0.27805 0.0
H596 H 0.6623 0.80189 0.16127 0.0
H597 H 0.66999 0.80154 0.20158 0.0
H598 H 0.69056 0.87023 0.23088 0.0
C599 C 0.66793 0.8692 0.31143 0.0
C600 C 0.66351 0.82431 0.26791 0.0
C601 C 0.66476 0.87268 0.33449 0.0
C602 C 0.66332 0.81852 0.17017 0.0
C603 C 0.66762 0.81831 0.19332 0.0
C604 C 0.68286 0.85729 0.24094 0.0
C605 C 0.6724 0.8467 0.303 0.0
C606 C 0.67372 0.84291 0.27821 0.0
C607 C 0.6687 0.83948 0.20563 0.0
C608 C 0.67177 0.83947 0.23056 0.0
H609 H 0.67261 0.81654 0.35283 0.0
H610 H 0.67789 0.81037 0.31226 0.0
H611 H 0.69197 0.87336 0.27195 0.0
H612 H 0.65907 0.87791 0.16291 0.0
H613 H 0.66617 0.87751 0.20305 0.0
C614 C 0.33155 0.16316 0.83666 0.0
C615 C 0.34635 0.14823 0.8448 0.0
C616 C 0.32962 0.16725 0.81338 0.0
C617 C 0.35823 0.1711 0.76247 0.0
H618 H 0.31241 0.15356 0.72787 0.0
C619 C 0.35292 0.18757 0.66655 0.0
C620 C 0.34926 0.16697 0.65404 0.0
C621 C 0.34994 0.18795 0.68993 0.0
C622 C 0.32521 0.15872 0.73739 0.0
H623 H 0.37062 0.12584 0.83496 0.0
H624 H 0.36751 0.13353 0.79464 0.0
H625 H 0.31228 0.14918 0.76922 0.0
H626 H 0.3386 0.13106 0.65609 0.0
H627 H 0.33306 0.13194 0.69688 0.0
H628 H 0.37131 0.18037 0.73084 0.0
C629 C 0.35733 0.14182 0.80619 0.0
C630 C 0.32509 0.15633 0.76096 0.0
C631 C 0.35901 0.13736 0.82927 0.0
C632 C 0.34165 0.14716 0.66526 0.0
C633 C 0.33836 0.14769 0.68857 0.0
C634 C 0.35822 0.17392 0.73903 0.0
C635 C 0.34273 0.1569 0.79805 0.0
C636 C 0.34177 0.16202 0.77359 0.0
C637 C 0.34289 0.16791 0.7012 0.0
C638 C 0.34186 0.16732 0.72622 0.0
H639 H 0.32159 0.17176 0.84824 0.0
H640 H 0.31825 0.17895 0.80741 0.0
H641 H 0.37125 0.1756 0.77191 0.0
H642 H 0.35881 0.20312 0.65842 0.0
H643 H 0.35349 0.20379 0.69929 0.0
C644 C 0.67362 0.14894 0.84285 0.0
C645 C 0.66255 0.16728 0.85233 0.0
C646 C 0.67757 0.14851 0.8197 0.0
C647 C 0.6735 0.18352 0.76613 0.0
H648 H 0.66885 0.12133 0.73966 0.0
C649 C 0.67556 0.16772 0.66888 0.0
C650 C 0.66198 0.15126 0.66064 0.0
C651 C 0.67869 0.1701 0.69221 0.0
C652 C 0.67009 0.13887 0.74671 0.0
H653 H 0.64764 0.20009 0.84515 0.0
H654 H 0.6538 0.19891 0.8046 0.0
H655 H 0.66872 0.12557 0.78032 0.0
H656 H 0.64104 0.12447 0.67045 0.0
H657 H 0.64611 0.12893 0.71067 0.0
H658 H 0.67361 0.19681 0.73223 0.0
C659 C 0.65991 0.18511 0.81505 0.0
C660 C 0.67036 0.1413 0.77016 0.0
C661 C 0.65627 0.18576 0.83833 0.0
C662 C 0.65173 0.1372 0.67615 0.0
C663 C 0.65475 0.13965 0.69931 0.0
C664 C 0.67302 0.18109 0.74257 0.0
C665 C 0.67019 0.16614 0.80533 0.0
C666 C 0.67177 0.16368 0.78026 0.0
C667 C 0.66827 0.1561 0.70771 0.0
C668 C 0.67091 0.15874 0.73258 0.0
H669 H 0.67889 0.13461 0.85328 0.0
H670 H 0.68604 0.13398 0.81302 0.0
H671 H 0.67492 0.20101 0.77324 0.0
H672 H 0.68369 0.17882 0.65735 0.0
H673 H 0.68931 0.18282 0.69807 0.0
C674 C 0.35963 0.86084 0.17427 0.0
C675 C 0.34692 0.85034 0.15859 0.0
C676 C 0.35768 0.85637 0.19732 0.0
C677 C 0.32435 0.84256 0.24189 0.0
H678 H 0.37013 0.81948 0.27352 0.0
C679 C 0.3392 0.85417 0.33763 0.0
C680 C 0.34714 0.83492 0.34942 0.0
C681 C 0.33609 0.85287 0.31431 0.0
C682 C 0.35715 0.82564 0.26491 0.0
H683 H 0.32186 0.82738 0.15482 0.0
H684 H 0.31805 0.82016 0.1956 0.0
H685 H 0.37083 0.82346 0.23241 0.0
H686 H 0.35738 0.79891 0.3461 0.0
H687 H 0.35234 0.79689 0.30525 0.0
H688 H 0.31101 0.84584 0.27461 0.0
C689 C 0.32967 0.83158 0.18978 0.0
C690 C 0.3576 0.82802 0.24144 0.0
C691 C 0.33188 0.83568 0.16653 0.0
C692 C 0.35123 0.81405 0.33752 0.0
C693 C 0.34842 0.81289 0.31414 0.0
C694 C 0.32402 0.84059 0.26549 0.0
C695 C 0.34276 0.84165 0.20528 0.0
C696 C 0.34131 0.8368 0.22977 0.0
C697 C 0.34114 0.83243 0.30226 0.0
C698 C 0.34052 0.83236 0.27722 0.0
H699 H 0.37143 0.87215 0.16872 0.0
H700 H 0.36785 0.86447 0.20898 0.0
H701 H 0.31167 0.84948 0.23322 0.0
H702 H 0.33581 0.87046 0.34632 0.0
H703 H 0.3306 0.86825 0.30554 0.0
C704 C 0.29827 0.21252 0.94854 0.0
C705 C 0.31445 0.20905 0.96275 0.0
C706 C 0.28215 0.22559 0.95601 0.0
C707 C 0.26598 0.26818 0.99991 0.0
H708 H 0.21513 0.23968 0.99106 0.0
C709 C 0.18568 0.27023 0.04435 0.0
C710 C 0.1829 0.29459 0.04709 0.0
C711 C 0.20098 0.26163 0.03106 0.0
C712 C 0.22923 0.24788 0.99366 0.0
H713 H 0.32671 0.21737 0.99559 0.0
H714 H 0.29874 0.24006 0.00853 0.0
H715 H 0.24382 0.22206 0.97338 0.0
H716 H 0.19374 0.32907 0.03753 0.0
H717 H 0.22048 0.31403 0.01428 0.0
H718 H 0.2515 0.29349 0.02086 0.0
C719 C 0.29848 0.23283 0.9916 0.0
C720 C 0.24564 0.23793 0.98332 0.0
C721 C 0.31449 0.21968 0.98421 0.0
C722 C 0.19551 0.31019 0.03581 0.0
C723 C 0.21089 0.30158 0.02258 0.0
C724 C 0.24956 0.27818 0.01017 0.0
C725 C 0.28196 0.2356 0.97777 0.0
C726 C 0.26428 0.2477 0.98668 0.0
C727 C 0.21392 0.27719 0.02024 0.0
C728 C 0.23103 0.26789 0.00752 0.0
H729 H 0.29779 0.20456 0.93192 0.0
H730 H 0.26973 0.22761 0.94486 0.0
H731 H 0.2801 0.27627 0.00264 0.0
H732 H 0.17624 0.25772 0.0528 0.0
H733 H 0.20303 0.24276 0.02986 0.0
C734 C 0.81281 0.69231 0.5333 0.0
C735 C 0.82509 0.70802 0.54493 0.0
C736 C 0.79737 0.70076 0.52011 0.0
C737 C 0.77821 0.75461 0.49217 0.0
H738 H 0.72782 0.72472 0.50033 0.0
C739 C 0.69257 0.78114 0.4836 0.0
C740 C 0.69253 0.79269 0.4626 0.0
C741 C 0.70872 0.76798 0.4905 0.0
C742 C 0.7418 0.73324 0.49782 0.0
H743 H 0.83109 0.74494 0.55129 0.0
H744 H 0.80418 0.75963 0.52845 0.0
H745 H 0.75666 0.70777 0.51819 0.0
H746 H 0.70919 0.7987 0.43197 0.0
H747 H 0.73746 0.77559 0.44403 0.0
H748 H 0.76322 0.78061 0.47256 0.0
C749 C 0.80655 0.74079 0.52933 0.0
C750 C 0.75837 0.72339 0.50788 0.0
C751 C 0.82192 0.73235 0.54256 0.0
C752 C 0.70876 0.79004 0.44826 0.0
C753 C 0.72501 0.77693 0.45523 0.0
C754 C 0.76164 0.76442 0.48206 0.0
C755 C 0.79393 0.72511 0.51817 0.0
C756 C 0.77671 0.73422 0.50555 0.0
C757 C 0.7253 0.76608 0.47661 0.0
C758 C 0.74317 0.75412 0.48514 0.0
H759 H 0.81489 0.67345 0.53472 0.0
H760 H 0.78804 0.68823 0.51154 0.0
H761 H 0.79216 0.76323 0.48982 0.0
H762 H 0.68031 0.78281 0.49506 0.0
H763 H 0.70852 0.76009 0.50716 0.0
C764 C 0.31334 0.78229 0.0196 0.0
C765 C 0.31378 0.79265 0.04116 0.0
C766 C 0.29717 0.76922 0.01257 0.0
C767 C 0.24456 0.76394 0.02247 0.0
H768 H 0.24968 0.70886 0.98412 0.0
C769 C 0.19348 0.69237 0.97045 0.0
C770 C 0.18067 0.70813 0.95969 0.0
C771 C 0.20907 0.70079 0.98343 0.0
C772 C 0.24794 0.72403 0.99505 0.0
H773 H 0.29782 0.79675 0.07257 0.0
H774 H 0.2695 0.77385 0.06026 0.0
H775 H 0.27863 0.72589 1.00165 0.0
H776 H 0.17387 0.74509 0.95468 0.0
H777 H 0.20102 0.75971 0.97718 0.0
H778 H 0.21389 0.76224 0.01564 0.0
C779 C 0.28166 0.77602 0.04874 0.0
C780 C 0.26457 0.73393 0.00492 0.0
C781 C 0.29793 0.789 0.05584 0.0
C782 C 0.18346 0.73245 0.96273 0.0
C783 C 0.19897 0.74085 0.97577 0.0
C784 C 0.22794 0.75409 0.01252 0.0
C785 C 0.28099 0.76626 0.02689 0.0
C786 C 0.26313 0.75424 0.01842 0.0
C787 C 0.21212 0.72514 0.98603 0.0
C788 C 0.22947 0.73426 0.99838 0.0
H789 H 0.3253 0.78474 0.00785 0.0
H790 H 0.29707 0.7622 0.99555 0.0
H791 H 0.24294 0.77969 0.03263 0.0
H792 H 0.19171 0.67352 0.96849 0.0
H793 H 0.21882 0.68822 0.99131 0.0
C794 C 0.70945 0.21445 0.55428 0.0
C795 C 0.69365 0.2101 0.53972 0.0
C796 C 0.72556 0.22752 0.54683 0.0
C797 C 0.742 0.26893 0.50217 0.0
H798 H 0.79309 0.24183 0.5131 0.0
C799 C 0.82291 0.27129 0.45949 0.0
C800 C 0.82543 0.29562 0.4562 0.0
C801 C 0.80755 0.2628 0.47273 0.0
C802 C 0.77893 0.24964 0.50993 0.0
H803 H 0.68205 0.21685 0.50624 0.0
H804 H 0.70999 0.23959 0.49334 0.0
H805 H 0.76432 0.22413 0.53054 0.0
H806 H 0.81406 0.33016 0.46475 0.0
H807 H 0.78719 0.3153 0.48789 0.0
H808 H 0.75651 0.29392 0.48093 0.0
C809 C 0.70997 0.23302 0.51053 0.0
C810 C 0.76246 0.23965 0.52012 0.0
C811 C 0.69398 0.21984 0.51789 0.0
C812 C 0.8125 0.3113 0.46691 0.0
C813 C 0.79705 0.3028 0.48007 0.0
C814 C 0.75847 0.27898 0.49208 0.0
C815 C 0.72609 0.2367 0.52476 0.0
C816 C 0.74376 0.2489 0.516 0.0
C817 C 0.79427 0.27843 0.48293 0.0
C818 C 0.77708 0.26918 0.49549 0.0
H819 H 0.70965 0.20718 0.57119 0.0
H820 H 0.73768 0.23025 0.55827 0.0
H821 H 0.72782 0.27661 0.49884 0.0
H822 H 0.8326 0.25872 0.4515 0.0
H823 H 0.80571 0.24393 0.47435 0.0
C824 C 0.68468 0.77144 0.04649 0.0
C825 C 0.6821 0.79582 0.04939 0.0
C826 C 0.69995 0.76276 0.03321 0.0
C827 C 0.74876 0.77871 0.01276 0.0
H828 H 0.74253 0.72311 0.97535 0.0
C829 C 0.797 0.71286 0.95084 0.0
C830 C 0.81301 0.70884 0.96518 0.0
C831 C 0.78101 0.72616 0.95832 0.0
C832 C 0.74449 0.73884 0.98546 0.0
H833 H 0.69329 0.83023 0.04013 0.0
H834 H 0.72 0.81502 0.01692 0.0
H835 H 0.71396 0.74107 0.993 0.0
H836 H 0.82513 0.71644 0.99824 0.0
H837 H 0.7974 0.73955 0.01119 0.0
H838 H 0.77932 0.7763 0.00546 0.0
C839 C 0.71026 0.80263 0.02508 0.0
C840 C 0.72814 0.74897 0.99578 0.0
C841 C 0.6949 0.81134 0.03829 0.0
C842 C 0.81303 0.71917 0.98677 0.0
C843 C 0.79716 0.73256 0.99416 0.0
C844 C 0.76512 0.76851 0.00253 0.0
C845 C 0.71307 0.77823 0.02257 0.0
C846 C 0.73013 0.76879 0.00986 0.0
C847 C 0.7808 0.73588 0.98019 0.0
C848 C 0.76322 0.74821 0.98907 0.0
H849 H 0.6751 0.75899 0.05479 0.0
H850 H 0.70183 0.74386 0.03187 0.0
H851 H 0.75083 0.79386 0.02362 0.0
H852 H 0.79653 0.70514 0.93411 0.0
H853 H 0.76871 0.72859 0.94707 0.0
C854 C 0.32474 0.22783 0.53447 0.0
C855 C 0.32433 0.20527 0.54425 0.0
C856 C 0.30896 0.23592 0.52165 0.0
C857 C 0.25753 0.23434 0.51981 0.0
H858 H 0.26021 0.25421 0.45722 0.0
C859 C 0.18992 0.27419 0.47716 0.0
C860 C 0.19281 0.2925 0.46162 0.0
C861 C 0.20564 0.2605 0.48451 0.0
C862 C 0.2592 0.24909 0.47479 0.0
H863 H 0.30726 0.17337 0.54804 0.0
H864 H 0.27929 0.18799 0.52632 0.0
H865 H 0.28885 0.23668 0.47519 0.0
H866 H 0.21425 0.31066 0.4412 0.0
H867 H 0.24189 0.28785 0.45491 0.0
H868 H 0.22859 0.24802 0.52034 0.0
C869 C 0.29202 0.19912 0.52827 0.0
C870 C 0.27559 0.23885 0.48496 0.0
C871 C 0.308 0.19079 0.54062 0.0
C872 C 0.21161 0.29647 0.45305 0.0
C873 C 0.22746 0.28324 0.46089 0.0
C874 C 0.24132 0.24509 0.50989 0.0
C875 C 0.29234 0.2218 0.51884 0.0
C876 C 0.27485 0.23144 0.50754 0.0
C877 C 0.22478 0.26531 0.4771 0.0
C878 C 0.24188 0.25271 0.48721 0.0
H879 H 0.33717 0.23933 0.53695 0.0
H880 H 0.30943 0.25353 0.51463 0.0
H881 H 0.25675 0.22901 0.53737 0.0
H882 H 0.1755 0.27062 0.48386 0.0
H883 H 0.20273 0.24642 0.49636 0.0
C884 C 0.81797 0.27183 0.02866 0.0
C885 C 0.81521 0.29051 0.04383 0.0
C886 C 0.80215 0.25822 0.02151 0.0
C887 C 0.74842 0.24787 0.0311 0.0
H888 H 0.75092 0.2267 0.96885 0.0
C889 C 0.68268 0.22639 0.97185 0.0
C890 C 0.68316 0.20397 0.96178 0.0
C891 C 0.69847 0.23439 0.98471 0.0
C892 C 0.75012 0.23233 0.98632 0.0
H893 H 0.79389 0.30939 0.06386 0.0
H894 H 0.76608 0.28668 0.05049 0.0
H895 H 0.7792 0.2455 0.98576 0.0
H896 H 0.70036 0.17221 0.95752 0.0
H897 H 0.72832 0.18666 0.97932 0.0
H898 H 0.71864 0.23595 0.03072 0.0
C899 C 0.78047 0.28173 0.04465 0.0
C900 C 0.7664 0.24296 0.99618 0.0
C901 C 0.79643 0.29491 0.0523 0.0
C902 C 0.69955 0.18952 0.96517 0.0
C903 C 0.71554 0.19776 0.97756 0.0
C904 C 0.73196 0.23774 0.02099 0.0
C905 C 0.78303 0.26346 0.02875 0.0
C906 C 0.76584 0.25098 0.01874 0.0
C907 C 0.71517 0.22033 0.98726 0.0
C908 C 0.73271 0.22993 0.99852 0.0
H909 H 0.83237 0.26794 0.02205 0.0
H910 H 0.80495 0.24386 0.00991 0.0
H911 H 0.74739 0.25331 0.04859 0.0
H912 H 0.6702 0.23787 0.96956 0.0
H913 H 0.69795 0.25192 0.99192 0.0
C914 C 0.20854 0.71462 0.55698 0.0
C915 C 0.19266 0.71088 0.54238 0.0
C916 C 0.22464 0.72793 0.54989 0.0
C917 C 0.26151 0.74074 0.52361 0.0
H918 H 0.25581 0.79554 0.48506 0.0
C919 C 0.32223 0.77243 0.46352 0.0
C920 C 0.32476 0.79674 0.46013 0.0
C921 C 0.30682 0.76401 0.4767 0.0
C922 C 0.25771 0.78046 0.49605 0.0
H923 H 0.18089 0.71897 0.50926 0.0
H924 H 0.20883 0.74201 0.49694 0.0
H925 H 0.22706 0.77827 0.50282 0.0
H926 H 0.31336 0.83132 0.46846 0.0
H927 H 0.28644 0.81658 0.49157 0.0
H928 H 0.29214 0.7428 0.51666 0.0
C929 C 0.20888 0.73485 0.51391 0.0
C930 C 0.24119 0.77041 0.50605 0.0
C931 C 0.19288 0.72149 0.52093 0.0
C932 C 0.31179 0.81247 0.47068 0.0
C933 C 0.2963 0.80403 0.48383 0.0
C934 C 0.27802 0.75076 0.51356 0.0
C935 C 0.22511 0.7379 0.52812 0.0
C936 C 0.24285 0.75016 0.5196 0.0
C937 C 0.29351 0.77968 0.48679 0.0
C938 C 0.27628 0.77047 0.49932 0.0
H939 H 0.20882 0.7067 0.57362 0.0
H940 H 0.23682 0.73017 0.56134 0.0
H941 H 0.2633 0.72505 0.5338 0.0
H942 H 0.33195 0.75981 0.45564 0.0
H943 H 0.30497 0.74514 0.47836 0.0
C944 C 0.15566 0.56225 0.93783 0.0
C945 C 0.15524 0.58418 0.94878 0.0
C946 C 0.15929 0.54164 0.94998 0.0
C947 C 0.1754 0.51884 0.00636 0.0
H948 H 0.14463 0.46467 0.98836 0.0
C949 C 0.15616 0.44035 0.06459 0.0
C950 C 0.15731 0.41757 0.05537 0.0
C951 C 0.15945 0.46012 0.05108 0.0
C952 C 0.15354 0.47953 0.99339 0.0
H953 H 0.15877 0.60188 0.98093 0.0
H954 H 0.16427 0.56584 1.00244 0.0
H955 H 0.14343 0.50039 0.96584 0.0
H956 H 0.16339 0.39758 0.02495 0.0
H957 H 0.16874 0.4323 1.00115 0.0
H958 H 0.18457 0.49802 0.0347 0.0
C959 C 0.16236 0.56449 0.98433 0.0
C960 C 0.15294 0.50006 0.98044 0.0
C961 C 0.15911 0.5852 0.97204 0.0
C962 C 0.16243 0.41492 0.03252 0.0
C963 C 0.16541 0.43475 0.0189 0.0
C964 C 0.17575 0.49836 0.01952 0.0
C965 C 0.16215 0.54236 0.97352 0.0
C966 C 0.16376 0.52009 0.98679 0.0
C967 C 0.16367 0.45754 0.028 0.0
C968 C 0.16471 0.47858 0.01323 0.0
H969 H 0.15297 0.56097 0.91983 0.0
H970 H 0.15956 0.52509 0.94089 0.0
H971 H 0.1842 0.53369 0.01161 0.0
H972 H 0.1523 0.44294 0.08217 0.0
H973 H 0.15787 0.47748 0.05849 0.0
C974 C 0.84744 0.58861 0.53034 0.0
C975 C 0.85266 0.58582 0.55313 0.0
C976 C 0.84431 0.56886 0.51664 0.0
C977 C 0.83335 0.50544 0.51718 0.0
H978 H 0.86482 0.50312 0.4628 0.0
C979 C 0.84801 0.41862 0.46873 0.0
C980 C 0.85152 0.41973 0.44539 0.0
C981 C 0.84525 0.4393 0.48124 0.0
C982 C 0.85555 0.50355 0.4776 0.0
H983 H 0.85779 0.56029 0.57973 0.0
H984 H 0.85198 0.5259 0.55591 0.0
H985 H 0.86445 0.53873 0.48556 0.0
H986 H 0.85364 0.44309 0.41655 0.0
H987 H 0.84791 0.47895 0.43802 0.0
H988 H 0.82429 0.47035 0.50922 0.0
C989 C 0.85042 0.5433 0.54861 0.0
C990 C 0.85543 0.52401 0.4907 0.0
C991 C 0.85386 0.56299 0.5622 0.0
C992 C 0.85122 0.44174 0.4346 0.0
C993 C 0.84809 0.46233 0.44698 0.0
C994 C 0.83322 0.48505 0.50388 0.0
C995 C 0.846 0.54602 0.5256 0.0
C996 C 0.84456 0.52505 0.51077 0.0
C997 C 0.84561 0.46149 0.47058 0.0
C998 C 0.84454 0.4837 0.48405 0.0
H999 H 0.84643 0.60599 0.52289 0.0
H1000 H 0.84083 0.57142 0.49895 0.0
H1001 H 0.82474 0.50587 0.53254 0.0
H1002 H 0.84826 0.40187 0.47749 0.0
H1003 H 0.84362 0.43786 0.49938 0.0
C1004 C 0.83794 0.40961 0.01672 0.0
C1005 C 0.83924 0.4087 0.0404 0.0
C1006 C 0.8347 0.43105 0.00569 0.0
C1007 C 0.81935 0.49331 0.01515 0.0
H1008 H 0.85158 0.50521 0.96252 0.0
C1009 C 0.8362 0.58662 0.98094 0.0
C1010 C 0.83733 0.58962 0.95739 0.0
C1011 C 0.8334 0.56423 0.99024 0.0
C1012 C 0.84224 0.50207 0.97698 0.0
H1013 H 0.8375 0.42956 0.0711 0.0
H1014 H 0.83224 0.46685 0.05191 0.0
H1015 H 0.85207 0.4665 0.98008 0.0
H1016 H 0.83551 0.57149 0.92514 0.0
H1017 H 0.83057 0.53254 0.94139 0.0
H1018 H 0.81001 0.52924 0.01234 0.0
C1019 C 0.83342 0.451 0.04181 0.0
C1020 C 0.84248 0.47983 0.98704 0.0
C1021 C 0.83658 0.42958 0.05282 0.0
C1022 C 0.83484 0.56984 0.94336 0.0
C1023 C 0.83211 0.54747 0.95266 0.0
C1024 C 0.81918 0.51563 0.00513 0.0
C1025 C 0.83276 0.45208 0.01809 0.0
C1026 C 0.83121 0.47523 0.00641 0.0
C1027 C 0.83172 0.54435 0.9762 0.0
C1028 C 0.83078 0.52031 0.98606 0.0
H1029 H 0.83978 0.39384 0.00663 0.0
H1030 H 0.83393 0.43118 0.98741 0.0
H1031 H 0.81026 0.49028 0.02983 0.0
H1032 H 0.83803 0.60147 0.99224 0.0
H1033 H 0.83331 0.56238 0.00846 0.0
C1034 C 0.17243 0.43095 0.44832 0.0
C1035 C 0.16832 0.41101 0.4616 0.0
C1036 C 0.17508 0.45298 0.45835 0.0
C1037 C 0.18491 0.48335 0.51247 0.0
H1038 H 0.15584 0.53436 0.48482 0.0
C1039 C 0.16843 0.57095 0.55848 0.0
C1040 C 0.16758 0.59181 0.5457 0.0
C1041 C 0.17119 0.54918 0.54792 0.0
C1042 C 0.16436 0.52048 0.49257 0.0
H1043 H 0.16462 0.39848 0.49597 0.0
H1044 H 0.1692 0.43704 0.51348 0.0
H1045 H 0.15609 0.49576 0.46706 0.0
H1046 H 0.16991 0.60621 0.51186 0.0
H1047 H 0.17513 0.5683 0.49348 0.0
H1048 H 0.19304 0.50809 0.53812 0.0
C1049 C 0.17045 0.43554 0.49529 0.0
C1050 C 0.16447 0.4983 0.48238 0.0
C1051 C 0.16774 0.41347 0.48524 0.0
C1052 C 0.17032 0.59047 0.5222 0.0
C1053 C 0.17319 0.56871 0.51164 0.0
C1054 C 0.18489 0.50561 0.52263 0.0
C1055 C 0.17374 0.45562 0.48191 0.0
C1056 C 0.17461 0.47943 0.4923 0.0
C1057 C 0.17329 0.54774 0.52432 0.0
C1058 C 0.17446 0.52441 0.5129 0.0
H1059 H 0.17313 0.4297 0.43007 0.0
H1060 H 0.17792 0.46804 0.44762 0.0
H1061 H 0.19303 0.46921 0.52038 0.0
H1062 H 0.16635 0.57131 0.57663 0.0
H1063 H 0.17096 0.53342 0.5582 0.0
C1064 C 0.65527 0.06141 0.93832 0.0
C1065 C 0.65472 0.08355 0.9489 0.0
C1066 C 0.65833 0.04097 0.95096 0.0
C1067 C 0.67306 0.0192 0.00821 0.0
H1068 H 0.64288 0.96455 0.9902 0.0
C1069 C 0.6534 0.94147 0.06721 0.0
C1070 C 0.65496 0.91856 0.05838 0.0
C1071 C 0.65662 0.96107 0.05345 0.0
C1072 C 0.65161 0.97956 0.99526 0.0
H1073 H 0.65736 0.10173 0.98093 0.0
H1074 H 0.66191 0.06603 0.0032 0.0
H1075 H 0.64208 0.99989 0.96705 0.0
H1076 H 0.66164 0.89819 0.02836 0.0
H1077 H 0.66688 0.93258 0.00412 0.0
H1078 H 0.6817 0.99893 0.03713 0.0
C1079 C 0.66053 0.06439 0.98505 0.0
C1080 C 0.65124 0.99986 0.98195 0.0
C1081 C 0.65781 0.0849 0.97231 0.0
C1082 C 0.66037 0.91563 0.03564 0.0
C1083 C 0.66328 0.93528 0.02176 0.0
C1084 C 0.67318 0.99897 0.02172 0.0
C1085 C 0.66054 0.04208 0.97458 0.0
C1086 C 0.66185 0.02005 0.98828 0.0
C1087 C 0.66118 0.95818 0.03048 0.0
C1088 C 0.66236 0.97901 0.01543 0.0
H1089 H 0.65316 0.05985 0.92024 0.0
H1090 H 0.65876 0.02426 0.94216 0.0
H1091 H 0.68172 0.03418 0.01347 0.0
H1092 H 0.64931 0.94428 0.08469 0.0
H1093 H 0.65477 0.97852 0.06056 0.0
C1094 C 0.35857 0.94205 0.43991 0.0
C1095 C 0.3506 0.92012 0.44587 0.0
C1096 C 0.35503 0.96197 0.45312 0.0
C1097 C 0.33997 0.00437 0.47836 0.0
H1098 H 0.34166 0.9962 0.54333 0.0
C1099 C 0.33881 0.08445 0.53875 0.0
C1100 C 0.35189 0.08336 0.55699 0.0
C1101 C 0.33486 0.06432 0.52583 0.0
C1102 C 0.34122 0.99884 0.52522 0.0
H1103 H 0.33205 0.90207 0.46996 0.0
H1104 H 0.32545 0.93705 0.49281 0.0
H1105 H 0.34203 0.96178 0.5189 0.0
H1106 H 0.37079 0.06018 0.57625 0.0
H1107 H 0.36438 0.0255 0.55354 0.0
H1108 H 0.34042 0.04145 0.48463 0.0
C1109 C 0.3348 0.93874 0.47815 0.0
C1110 C 0.34114 0.97903 0.51117 0.0
C1111 C 0.33847 0.9187 0.46498 0.0
C1112 C 0.36057 0.06164 0.56236 0.0
C1113 C 0.35676 0.04163 0.5494 0.0
C1114 C 0.34024 0.02418 0.4924 0.0
C1115 C 0.34328 0.96057 0.47257 0.0
C1116 C 0.34096 0.98153 0.48753 0.0
C1117 C 0.34402 0.04272 0.5308 0.0
C1118 C 0.34133 0.02169 0.51601 0.0
H1119 H 0.36805 0.94377 0.42535 0.0
H1120 H 0.36212 0.9783 0.44846 0.0
H1121 H 0.33942 0.00701 0.46025 0.0
H1122 H 0.33181 0.1009 0.53425 0.0
H1123 H 0.32475 0.06576 0.51184 0.0
C1124 C 0.33927 0.91343 0.02277 0.0
C1125 C 0.34003 0.91131 0.04643 0.0
C1126 C 0.33656 0.93544 0.01264 0.0
C1127 C 0.34436 0.99834 0.02416 0.0
H1128 H 0.31411 0.00741 0.9695 0.0
C1129 C 0.33809 0.08953 0.9825 0.0
C1130 C 0.34055 0.09023 0.95892 0.0
C1131 C 0.33529 0.06809 0.99362 0.0
C1132 C 0.3227 0.00512 0.98469 0.0
H1133 H 0.33768 0.93059 0.078 0.0
H1134 H 0.33278 0.96889 0.06032 0.0
H1135 H 0.31396 0.96907 0.98824 0.0
H1136 H 0.34132 0.06893 0.92847 0.0
H1137 H 0.33671 0.03154 0.9479 0.0
H1138 H 0.35345 0.03413 0.02045 0.0
C1139 C 0.3346 0.95358 0.0496 0.0
C1140 C 0.32261 0.98316 0.99542 0.0
C1141 C 0.3373 0.93158 0.05972 0.0
C1142 C 0.33948 0.06906 0.94665 0.0
C1143 C 0.33672 0.0476 0.95779 0.0
C1144 C 0.34447 0.02024 0.01344 0.0
C1145 C 0.33456 0.95583 0.02594 0.0
C1146 C 0.33358 0.97947 0.01519 0.0
C1147 C 0.33493 0.04682 0.98145 0.0
C1148 C 0.33378 0.02386 0.99347 0.0
H1149 H 0.3413 0.89819 0.012 0.0
H1150 H 0.33678 0.93658 0.99438 0.0
H1151 H 0.35326 0.996 0.03912 0.0
H1152 H 0.33868 0.10552 0.99248 0.0
H1153 H 0.33362 0.06816 0.01182 0.0
C1154 C 0.6667 0.07099 0.5635 0.0
C1155 C 0.66581 0.09106 0.5496 0.0
C1156 C 0.66952 0.04864 0.55411 0.0
C1157 C 0.6855 0.01758 0.50206 0.0
H1158 H 0.65147 0.96802 0.52391 0.0
C1159 C 0.67014 0.93236 0.4518 0.0
C1160 C 0.66744 0.91124 0.46381 0.0
C1161 C 0.6727 0.95366 0.46327 0.0
C1162 C 0.66134 0.98151 0.51784 0.0
H1163 H 0.6678 0.10335 0.51495 0.0
H1164 H 0.67252 0.06441 0.49862 0.0
H1165 H 0.651 0.0064 0.5422 0.0
H1166 H 0.66621 0.89586 0.49735 0.0
H1167 H 0.67091 0.93299 0.51732 0.0
H1168 H 0.69556 0.99274 0.4774 0.0
C1169 C 0.67123 0.06596 0.5168 0.0
C1170 C 0.66106 0.00355 0.52834 0.0
C1171 C 0.6684 0.0883 0.52617 0.0
C1172 C 0.66811 0.91181 0.48755 0.0
C1173 C 0.67069 0.93312 0.49902 0.0
C1174 C 0.68579 0.99551 0.49155 0.0
C1175 C 0.67154 0.04583 0.53062 0.0
C1176 C 0.67296 0.02194 0.52041 0.0
C1177 C 0.67266 0.95436 0.48702 0.0
C1178 C 0.67353 0.97729 0.49915 0.0
H1179 H 0.66487 0.07246 0.58163 0.0
H1180 H 0.66997 0.03352 0.56525 0.0
H1181 H 0.69505 0.03128 0.49575 0.0
H1182 H 0.6697 0.93259 0.43351 0.0
H1183 H 0.67398 0.96971 0.45349 0.0
loop_
_geom_bond_atom_site_label_1
_geom_bond_atom_site_label_2
_geom_bond_distance
_geom_bond_site_symmetry_2
_ccdc_geom_bond_type
O0 Cd1 2.223 . S
O0 C8 1.315 . S
Cd1 O0 2.223 . S
Cd1 O4 2.297 . S
Cd1 O5 2.439 . S
Cd1 O11 2.240 . S
Cd2 O3 2.240 . S
Cd2 O10 2.223 . S
Cd2 O12 2.297 . S
Cd2 O13 2.439 . S
O3 Cd2 2.240 . S
O3 C8 1.279 . S
O4 Cd1 2.297 . S
O4 C6 1.247 . S
O5 Cd1 2.439 . S
O5 C6 1.208 . S
C6 O4 1.247 . S
C6 O5 1.208 . S
C7 O12 1.247 . S
C7 O13 1.208 . S
C8 O0 1.315 . S
C8 O3 1.279 . S
C9 O10 1.315 . S
C9 O11 1.279 . S
O10 Cd2 2.223 . S
O10 C9 1.315 . S
O11 Cd1 2.240 . S
O11 C9 1.279 . S
O12 Cd2 2.297 . S
O12 C7 1.247 . S
O13 Cd2 2.439 . S
O13 C7 1.208 . S
O14 Cd15 2.223 . S
O14 C22 1.315 . S
Cd15 O14 2.223 . S
Cd15 O18 2.297 . S
Cd15 O19 2.439 . S
Cd15 O25 2.240 . S
Cd16 O17 2.240 . S
Cd16 O24 2.223 . S
Cd16 O26 2.297 . S
Cd16 O27 2.439 . S
O17 Cd16 2.240 . S
O17 C22 1.279 . S
O18 Cd15 2.297 . S
O18 C20 1.247 . S
O19 Cd15 2.439 . S
O19 C20 1.208 . S
C20 O18 1.247 . S
C20 O19 1.208 . S
C21 O26 1.247 . S
C21 O27 1.208 . S
C22 O14 1.315 . S
C22 O17 1.279 . S
C23 O24 1.315 . S
C23 O25 1.279 . S
O24 Cd16 2.223 . S
O24 C23 1.315 . S
O25 Cd15 2.240 . S
O25 C23 1.279 . S
O26 Cd16 2.297 . S
O26 C21 1.247 . S
O27 Cd16 2.439 . S
O27 C21 1.208 . S
O28 Cd29 2.223 . S
O28 C36 1.315 . S
Cd29 O28 2.223 . S
Cd29 O32 2.297 . S
Cd29 O33 2.439 . S
Cd29 O39 2.240 . S
Cd30 O31 2.240 . S
Cd30 O38 2.223 . S
Cd30 O40 2.297 . S
Cd30 O41 2.439 . S
O31 Cd30 2.240 . S
O31 C36 1.279 . S
O32 Cd29 2.297 . S
O32 C34 1.247 . S
O33 Cd29 2.439 . S
O33 C34 1.208 . S
C34 O32 1.247 . S
C34 O33 1.208 . S
C35 O40 1.247 . S
C35 O41 1.208 . S
C36 O28 1.315 . S
C36 O31 1.279 . S
C37 O38 1.315 . S
C37 O39 1.279 . S
O38 Cd30 2.223 . S
O38 C37 1.315 . S
O39 Cd29 2.240 . S
O39 C37 1.279 . S
O40 Cd30 2.297 . S
O40 C35 1.247 . S
O41 Cd30 2.439 . S
O41 C35 1.208 . S
O42 Cd43 2.223 . S
O42 C50 1.315 . S
Cd43 O42 2.223 . S
Cd43 O46 2.297 . S
Cd43 O47 2.439 . S
Cd43 O53 2.240 . S
Cd44 O45 2.240 . S
Cd44 O52 2.223 . S
Cd44 O54 2.297 . S
Cd44 O55 2.439 . S
O45 Cd44 2.240 . S
O45 C50 1.279 . S
O46 Cd43 2.297 . S
O46 C48 1.247 . S
O47 Cd43 2.439 . S
O47 C48 1.208 . S
C48 O46 1.247 . S
C48 O47 1.208 . S
C49 O54 1.247 . S
C49 O55 1.208 . S
C50 O42 1.315 . S
C50 O45 1.279 . S
C51 O52 1.315 . S
C51 O53 1.279 . S
O52 Cd44 2.223 . S
O52 C51 1.315 . S
O53 Cd43 2.240 . S
O53 C51 1.279 . S
O54 Cd44 2.297 . S
O54 C49 1.247 . S
O55 Cd44 2.439 . S
O55 C49 1.208 . S
O56 Cd57 2.223 . S
O56 C64 1.315 . S
Cd57 O56 2.223 . S
Cd57 O60 2.297 . S
Cd57 O61 2.439 . S
Cd57 O67 2.240 . S
Cd58 O59 2.240 . S
Cd58 O66 2.223 . S
Cd58 O68 2.297 . S
Cd58 O69 2.439 . S
O59 Cd58 2.240 . S
O59 C64 1.279 . S
O60 Cd57 2.297 . S
O60 C62 1.247 . S
O61 Cd57 2.439 . S
O61 C62 1.208 . S
C62 O60 1.247 . S
C62 O61 1.208 . S
C63 O68 1.247 . S
C63 O69 1.208 . S
C64 O56 1.315 . S
C64 O59 1.279 . S
C65 O66 1.315 . S
C65 O67 1.279 . S
O66 Cd58 2.223 . S
O66 C65 1.315 . S
O67 Cd57 2.240 . S
O67 C65 1.279 . S
O68 Cd58 2.297 . S
O68 C63 1.247 . S
O69 Cd58 2.439 . S
O69 C63 1.208 . S
O70 Cd71 2.223 . S
O70 C78 1.315 . S
Cd71 O70 2.223 . S
Cd71 O74 2.297 . S
Cd71 O75 2.439 . S
Cd71 O81 2.240 . S
Cd72 O73 2.240 . S
Cd72 O80 2.223 . S
Cd72 O82 2.297 . S
Cd72 O83 2.439 . S
O73 Cd72 2.240 . S
O73 C78 1.279 . S
O74 Cd71 2.297 . S
O74 C76 1.247 . S
O75 Cd71 2.439 . S
O75 C76 1.208 . S
C76 O74 1.247 . S
C76 O75 1.208 . S
C77 O82 1.247 . S
C77 O83 1.208 . S
C78 O70 1.315 . S
C78 O73 1.279 . S
C79 O80 1.315 . S
C79 O81 1.279 . S
O80 Cd72 2.223 . S
O80 C79 1.315 . S
O81 Cd71 2.240 . S
O81 C79 1.279 . S
O82 Cd72 2.297 . S
O82 C77 1.247 . S
O83 Cd72 2.439 . S
O83 C77 1.208 . S
O84 Cd85 2.223 . S
O84 C92 1.315 . S
Cd85 O84 2.223 . S
Cd85 O88 2.297 . S
Cd85 O89 2.439 . S
Cd85 O95 2.240 . S
Cd86 O87 2.240 . S
Cd86 O94 2.223 . S
Cd86 O96 2.297 . S
Cd86 O97 2.439 . S
O87 Cd86 2.240 . S
O87 C92 1.279 . S
O88 Cd85 2.297 . S
O88 C90 1.247 . S
O89 Cd85 2.439 . S
O89 C90 1.208 . S
C90 O88 1.247 . S
C90 O89 1.208 . S
C91 O96 1.247 . S
C91 O97 1.208 . S
C92 O84 1.315 . S
C92 O87 1.279 . S
C93 O94 1.315 . S
C93 O95 1.279 . S
O94 Cd86 2.223 . S
O94 C93 1.315 . S
O95 Cd85 2.240 . S
O95 C93 1.279 . S
O96 Cd86 2.297 . S
O96 C91 1.247 . S
O97 Cd86 2.439 . S
O97 C91 1.208 . S
O98 Cd99 2.223 . S
O98 C106 1.315 . S
Cd99 O98 2.223 . S
Cd99 O102 2.297 . S
Cd99 O103 2.439 . S
Cd99 O109 2.240 . S
Cd100 O101 2.240 . S
Cd100 O108 2.223 . S
Cd100 O110 2.297 . S
Cd100 O111 2.439 . S
O101 Cd100 2.240 . S
O101 C106 1.279 . S
O102 Cd99 2.297 . S
O102 C104 1.247 . S
O103 Cd99 2.439 . S
O103 C104 1.208 . S
C104 O102 1.247 . S
C104 O103 1.208 . S
C105 O110 1.247 . S
C105 O111 1.208 . S
C106 O98 1.315 . S
C106 O101 1.279 . S
C107 O108 1.315 . S
C107 O109 1.279 . S
O108 Cd100 2.223 . S
O108 C107 1.315 . S
O109 Cd99 2.240 . S
O109 C107 1.279 . S
O110 Cd100 2.297 . S
O110 C105 1.247 . S
O111 Cd100 2.439 . S
O111 C105 1.208 . S
O112 Cd113 2.223 . S
O112 C120 1.315 . S
Cd113 O112 2.223 . S
Cd113 O116 2.297 . S
Cd113 O117 2.439 . S
Cd113 O123 2.240 . S
Cd114 O115 2.240 . S
Cd114 O122 2.223 . S
Cd114 O124 2.297 . S
Cd114 O125 2.439 . S
O115 Cd114 2.240 . S
O115 C120 1.279 . S
O116 Cd113 2.297 . S
O116 C118 1.247 . S
O117 Cd113 2.439 . S
O117 C118 1.208 . S
C118 O116 1.247 . S
C118 O117 1.208 . S
C119 O124 1.247 . S
C119 O125 1.208 . S
C120 O112 1.315 . S
C120 O115 1.279 . S
C121 O122 1.315 . S
C121 O123 1.279 . S
O122 Cd114 2.223 . S
O122 C121 1.315 . S
O123 Cd113 2.240 . S
O123 C121 1.279 . S
O124 Cd114 2.297 . S
O124 C119 1.247 . S
O125 Cd114 2.439 . S
O125 C119 1.208 . S
O126 Cd127 2.223 . S
O126 C134 1.315 . S
Cd127 O126 2.223 . S
Cd127 O130 2.297 . S
Cd127 O131 2.439 . S
Cd127 O137 2.240 . S
Cd128 O129 2.240 . S
Cd128 O136 2.223 . S
Cd128 O138 2.297 . S
Cd128 O139 2.439 . S
O129 Cd128 2.240 . S
O129 C134 1.279 . S
O130 Cd127 2.297 . S
O130 C132 1.247 . S
O131 Cd127 2.439 . S
O131 C132 1.208 . S
C132 O130 1.247 . S
C132 O131 1.208 . S
C133 O138 1.247 . S
C133 O139 1.208 . S
C134 O126 1.315 . S
C134 O129 1.279 . S
C135 O136 1.315 . S
C135 O137 1.279 . S
O136 Cd128 2.223 . S
O136 C135 1.315 . S
O137 Cd127 2.240 . S
O137 C135 1.279 . S
O138 Cd128 2.297 . S
O138 C133 1.247 . S
O139 Cd128 2.439 . S
O139 C133 1.208 . S
O140 Cd141 2.223 . S
O140 C148 1.315 . S
Cd141 O140 2.223 . S
Cd141 O144 2.297 . S
Cd141 O145 2.439 . S
Cd141 O151 2.240 . S
Cd142 O143 2.240 . S
Cd142 O150 2.223 . S
Cd142 O152 2.297 . S
Cd142 O153 2.439 . S
O143 Cd142 2.240 . S
O143 C148 1.279 . S
O144 Cd141 2.297 . S
O144 C146 1.247 . S
O145 Cd141 2.439 . S
O145 C146 1.208 . S
C146 O144 1.247 . S
C146 O145 1.208 . S
C147 O152 1.247 . S
C147 O153 1.208 . S
C148 O140 1.315 . S
C148 O143 1.279 . S
C149 O150 1.315 . S
C149 O151 1.279 . S
O150 Cd142 2.223 . S
O150 C149 1.315 . S
O151 Cd141 2.240 . S
O151 C149 1.279 . S
O152 Cd142 2.297 . S
O152 C147 1.247 . S
O153 Cd142 2.439 . S
O153 C147 1.208 . S
O154 Cd155 2.223 . S
O154 C162 1.315 . S
Cd155 O154 2.223 . S
Cd155 O158 2.297 . S
Cd155 O159 2.439 . S
Cd155 O165 2.240 . S
Cd156 O157 2.240 . S
Cd156 O164 2.223 . S
Cd156 O166 2.297 . S
Cd156 O167 2.439 . S
O157 Cd156 2.240 . S
O157 C162 1.279 . S
O158 Cd155 2.297 . S
O158 C160 1.247 . S
O159 Cd155 2.439 . S
O159 C160 1.208 . S
C160 O158 1.247 . S
C160 O159 1.208 . S
C161 O166 1.247 . S
C161 O167 1.208 . S
C162 O154 1.315 . S
C162 O157 1.279 . S
C163 O164 1.315 . S
C163 O165 1.279 . S
O164 Cd156 2.223 . S
O164 C163 1.315 . S
O165 Cd155 2.240 . S
O165 C163 1.279 . S
O166 Cd156 2.297 . S
O166 C161 1.247 . S
O167 Cd156 2.439 . S
O167 C161 1.208 . S
O168 Cd169 2.223 . S
O168 C176 1.315 . S
Cd169 O168 2.223 . S
Cd169 O172 2.297 . S
Cd169 O173 2.439 . S
Cd169 O179 2.240 . S
Cd170 O171 2.240 . S
Cd170 O178 2.223 . S
Cd170 O180 2.297 . S
Cd170 O181 2.439 . S
O171 Cd170 2.240 . S
O171 C176 1.279 . S
O172 Cd169 2.297 . S
O172 C174 1.247 . S
O173 Cd169 2.439 . S
O173 C174 1.208 . S
C174 O172 1.247 . S
C174 O173 1.208 . S
C175 O180 1.247 . S
C175 O181 1.208 . S
C176 O168 1.315 . S
C176 O171 1.279 . S
C177 O178 1.315 . S
C177 O179 1.279 . S
O178 Cd170 2.223 . S
O178 C177 1.315 . S
O179 Cd169 2.240 . S
O179 C177 1.279 . S
O180 Cd170 2.297 . S
O180 C175 1.247 . S
O181 Cd170 2.439 . S
O181 C175 1.208 . S
O182 Cd183 2.223 . S
O182 C190 1.315 . S
Cd183 O182 2.223 . S
Cd183 O186 2.297 . S
Cd183 O187 2.439 . S
Cd183 O193 2.240 . S
Cd184 O185 2.240 . S
Cd184 O192 2.223 . S
Cd184 O194 2.297 . S
Cd184 O195 2.439 . S
O185 Cd184 2.240 . S
O185 C190 1.279 . S
O186 Cd183 2.297 . S
O186 C188 1.247 . S
O187 Cd183 2.439 . S
O187 C188 1.208 . S
C188 O186 1.247 . S
C188 O187 1.208 . S
C189 O194 1.247 . S
C189 O195 1.208 . S
C190 O182 1.315 . S
C190 O185 1.279 . S
C191 O192 1.315 . S
C191 O193 1.279 . S
O192 Cd184 2.223 . S
O192 C191 1.315 . S
O193 Cd183 2.240 . S
O193 C191 1.279 . S
O194 Cd184 2.297 . S
O194 C189 1.247 . S
O195 Cd184 2.439 . S
O195 C189 1.208 . S
O196 Cd197 2.223 . S
O196 C204 1.315 . S
Cd197 O196 2.223 . S
Cd197 O200 2.297 . S
Cd197 O201 2.439 . S
Cd197 O207 2.240 . S
Cd198 O199 2.240 . S
Cd198 O206 2.223 . S
Cd198 O208 2.297 . S
Cd198 O209 2.439 . S
O199 Cd198 2.240 . S
O199 C204 1.279 . S
O200 Cd197 2.297 . S
O200 C202 1.247 . S
O201 Cd197 2.439 . S
O201 C202 1.208 . S
C202 O200 1.247 . S
C202 O201 1.208 . S
C203 O208 1.247 . S
C203 O209 1.208 . S
C204 O196 1.315 . S
C204 O199 1.279 . S
C205 O206 1.315 . S
C205 O207 1.279 . S
O206 Cd198 2.223 . S
O206 C205 1.315 . S
O207 Cd197 2.240 . S
O207 C205 1.279 . S
O208 Cd198 2.297 . S
O208 C203 1.247 . S
O209 Cd198 2.439 . S
O209 C203 1.208 . S
O210 Cd211 2.223 . S
O210 C218 1.315 . S
Cd211 O210 2.223 . S
Cd211 O214 2.297 . S
Cd211 O215 2.439 . S
Cd211 O221 2.240 . S
Cd212 O213 2.240 . S
Cd212 O220 2.223 . S
Cd212 O222 2.297 . S
Cd212 O223 2.439 . S
O213 Cd212 2.240 . S
O213 C218 1.279 . S
O214 Cd211 2.297 . S
O214 C216 1.247 . S
O215 Cd211 2.439 . S
O215 C216 1.208 . S
C216 O214 1.247 . S
C216 O215 1.208 . S
C217 O222 1.247 . S
C217 O223 1.208 . S
C218 O210 1.315 . S
C218 O213 1.279 . S
C219 O220 1.315 . S
C219 O221 1.279 . S
O220 Cd212 2.223 . S
O220 C219 1.315 . S
O221 Cd211 2.240 . S
O221 C219 1.279 . S
O222 Cd212 2.297 . S
O222 C217 1.247 . S
O223 Cd212 2.439 . S
O223 C217 1.208 . S
C224 C225 1.349 . S
C224 C226 1.327 . S
C224 H249 0.950 . S
C225 C224 1.349 . S
C225 C241 1.349 . S
C226 C224 1.327 . S
C226 C245 1.429 . S
C226 H250 0.950 . S
C227 C244 1.542 1_455 S
C227 C246 1.382 . S
C227 H251 0.966 . S
H228 C232 0.949 . S
C229 C230 1.349 . S
C229 C231 1.327 . S
C229 H252 0.950 . S
C230 C229 1.349 . S
C230 C242 1.349 . S
C231 C229 1.327 . S
C231 C247 1.429 . S
C231 H253 0.950 . S
C232 H228 0.949 . S
C232 C240 1.574 1_655 S
C232 C248 1.368 . S
H233 C241 0.950 . S
H234 C239 0.950 . S
H235 C240 0.949 . S
H236 C242 0.950 . S
H237 C243 0.950 . S
H238 C244 0.949 . S
C239 H234 0.950 . S
C239 C241 1.327 . S
C239 C245 1.429 . S
C240 C232 1.574 1_455 S
C240 H235 0.949 . S
C240 C246 1.368 . S
C241 C225 1.349 . S
C241 H233 0.950 . S
C241 C239 1.327 . S
C242 C230 1.349 . S
C242 H236 0.950 . S
C242 C243 1.327 . S
C243 H237 0.950 . S
C243 C242 1.327 . S
C243 C247 1.429 . S
C244 C227 1.542 1_655 S
C244 H238 0.949 . S
C244 C248 1.368 . S
C245 C226 1.429 . S
C245 C239 1.429 . S
C245 C246 1.523 . S
C246 C227 1.382 . S
C246 C240 1.368 . S
C246 C245 1.523 . S
C247 C231 1.429 . S
C247 C243 1.429 . S
C247 C248 1.523 . S
C248 C232 1.368 . S
C248 C244 1.368 . S
C248 C247 1.523 . S
H249 C224 0.950 . S
H250 C226 0.950 . S
H251 C227 0.966 . S
H252 C229 0.950 . S
H253 C231 0.950 . S
C254 C255 1.349 . S
C254 C256 1.327 . S
C254 H279 0.950 . S
C255 C254 1.349 . S
C255 C271 1.349 . S
C256 C254 1.327 . S
C256 C275 1.429 . S
C256 H280 0.950 . S
C257 C274 1.519 1_655 S
C257 C276 1.392 . S
C257 H281 0.979 . S
H258 C262 0.949 . S
C259 C260 1.349 . S
C259 C261 1.327 . S
C259 H282 0.950 . S
C260 C259 1.349 . S
C260 C272 1.349 . S
C261 C259 1.327 . S
C261 C277 1.429 . S
C261 H283 0.950 . S
C262 H258 0.949 . S
C262 C270 1.574 1_455 S
C262 C278 1.368 . S
H263 C271 0.950 . S
H264 C269 0.950 . S
H265 C270 0.949 . S
H266 C272 0.950 . S
H267 C273 0.950 . S
H268 C274 0.949 . S
C269 H264 0.950 . S
C269 C271 1.327 . S
C269 C275 1.429 . S
C270 C262 1.574 1_655 S
C270 H265 0.949 . S
C270 C276 1.368 . S
C271 C255 1.349 . S
C271 H263 0.950 . S
C271 C269 1.327 . S
C272 C260 1.349 . S
C272 H266 0.950 . S
C272 C273 1.327 . S
C273 H267 0.950 . S
C273 C272 1.327 . S
C273 C277 1.429 . S
C274 C257 1.519 1_455 S
C274 H268 0.949 . S
C274 C278 1.368 . S
C275 C256 1.429 . S
C275 C269 1.429 . S
C275 C276 1.523 . S
C276 C257 1.392 . S
C276 C270 1.368 . S
C276 C275 1.523 . S
C277 C261 1.429 . S
C277 C273 1.429 . S
C277 C278 1.523 . S
C278 C262 1.368 . S
C278 C274 1.368 . S
C278 C277 1.523 . S
H279 C254 0.950 . S
H280 C256 0.950 . S
H281 C257 0.979 . S
H282 C259 0.950 . S
H283 C261 0.950 . S
C284 C285 1.349 . S
C284 C286 1.327 . S
C284 H309 0.950 . S
C285 C284 1.349 . S
C285 C301 1.349 . S
C286 C284 1.327 . S
C286 C305 1.429 . S
C286 H310 0.950 . S
C287 C304 1.529 1_655 S
C287 C306 1.368 . S
C287 H311 0.949 . S
H288 C292 0.949 . S
C289 C290 1.349 . S
C289 C291 1.327 . S
C289 H312 0.950 . S
C290 C289 1.349 . S
C290 C302 1.349 . S
C291 C289 1.327 . S
C291 C307 1.429 . S
C291 H313 0.950 . S
C292 H288 0.949 . S
C292 C300 1.574 1_455 S
C292 C308 1.368 . S
H293 C301 0.950 . S
H294 C299 0.950 . S
H295 C300 0.949 . S
H296 C302 0.950 . S
H297 C303 0.950 . S
H298 C304 0.973 . S
C299 H294 0.950 . S
C299 C301 1.327 . S
C299 C305 1.429 . S
C300 C292 1.574 1_655 S
C300 H295 0.949 . S
C300 C306 1.368 . S
C301 C285 1.349 . S
C301 H293 0.950 . S
C301 C299 1.327 . S
C302 C290 1.349 . S
C302 H296 0.950 . S
C302 C303 1.327 . S
C303 H297 0.950 . S
C303 C302 1.327 . S
C303 C307 1.429 . S
C304 C287 1.529 1_455 S
C304 H298 0.973 . S
C304 C308 1.388 . S
C305 C286 1.429 . S
C305 C299 1.429 . S
C305 C306 1.523 . S
C306 C287 1.368 . S
C306 C300 1.368 . S
C306 C305 1.523 . S
C307 C291 1.429 . S
C307 C303 1.429 . S
C307 C308 1.523 . S
C308 C292 1.368 . S
C308 C304 1.388 . S
C308 C307 1.523 . S
H309 C284 0.950 . S
H310 C286 0.950 . S
H311 C287 0.949 . S
H312 C289 0.950 . S
H313 C291 0.950 . S
C314 C315 1.349 . S
C314 C316 1.327 . S
C314 H339 0.950 . S
C315 C314 1.349 . S
C315 C331 1.349 . S
C316 C314 1.327 . S
C316 C335 1.429 . S
C316 H340 0.950 . S
C317 C334 1.574 1_455 S
C317 C336 1.368 . S
C317 H341 0.949 . S
H318 C322 0.976 . S
C319 C320 1.349 . S
C319 C321 1.327 . S
C319 H342 0.950 . S
C320 C319 1.349 . S
C320 C332 1.349 . S
C321 C319 1.327 . S
C321 C337 1.429 . S
C321 H343 0.950 . S
C322 H318 0.976 . S
C322 C330 1.523 1_655 S
C322 C338 1.390 . S
H323 C331 0.950 . S
H324 C329 0.950 . S
H325 C330 0.949 . S
H326 C332 0.950 . S
H327 C333 0.950 . S
H328 C334 0.949 . S
C329 H324 0.950 . S
C329 C331 1.327 . S
C329 C335 1.429 . S
C330 C322 1.523 1_455 S
C330 H325 0.949 . S
C330 C336 1.368 . S
C331 C315 1.349 . S
C331 H323 0.950 . S
C331 C329 1.327 . S
C332 C320 1.349 . S
C332 H326 0.950 . S
C332 C333 1.327 . S
C333 H327 0.950 . S
C333 C332 1.327 . S
C333 C337 1.429 . S
C334 C317 1.574 1_655 S
C334 H328 0.949 . S
C334 C338 1.368 . S
C335 C316 1.429 . S
C335 C329 1.429 . S
C335 C336 1.523 . S
C336 C317 1.368 . S
C336 C330 1.368 . S
C336 C335 1.523 . S
C337 C321 1.429 . S
C337 C333 1.429 . S
C337 C338 1.523 . S
C338 C322 1.390 . S
C338 C334 1.368 . S
C338 C337 1.523 . S
H339 C314 0.950 . S
H340 C316 0.950 . S
H341 C317 0.949 . S
H342 C319 0.950 . S
H343 C321 0.950 . S
C344 C345 1.349 . S
C344 C346 1.327 . S
C344 H369 0.950 . S
C345 C344 1.349 . S
C345 C361 1.349 . S
C346 C344 1.327 . S
C346 C365 1.429 . S
C346 H370 0.950 . S
C347 C364 1.574 . S
C347 C366 1.368 . S
C347 H371 0.949 . S
H348 C352 0.949 . S
C349 C350 1.349 . S
C349 C351 1.327 . S
C349 H372 0.950 . S
C350 C349 1.349 . S
C350 C362 1.349 . S
C351 C349 1.327 . S
C351 C367 1.429 . S
C351 H373 0.950 . S
C352 H348 0.949 . S
C352 C360 1.574 . S
C352 C368 1.368 . S
H353 C361 0.950 . S
H354 C359 0.950 . S
H355 C360 0.949 . S
H356 C362 0.950 . S
H357 C363 0.950 . S
H358 C364 0.949 . S
C359 H354 0.950 . S
C359 C361 1.327 . S
C359 C365 1.429 . S
C360 C352 1.574 . S
C360 H355 0.949 . S
C360 C366 1.368 . S
C361 C345 1.349 . S
C361 H353 0.950 . S
C361 C359 1.327 . S
C362 C350 1.349 . S
C362 H356 0.950 . S
C362 C363 1.327 . S
C363 H357 0.950 . S
C363 C362 1.327 . S
C363 C367 1.429 . S
C364 C347 1.574 . S
C364 H358 0.949 . S
C364 C368 1.368 . S
C365 C346 1.429 . S
C365 C359 1.429 . S
C365 C366 1.523 . S
C366 C347 1.368 . S
C366 C360 1.368 . S
C366 C365 1.523 . S
C367 C351 1.429 . S
C367 C363 1.429 . S
C367 C368 1.523 . S
C368 C352 1.368 . S
C368 C364 1.368 . S
C368 C367 1.523 . S
H369 C344 0.950 . S
H370 C346 0.950 . S
H371 C347 0.949 . S
H372 C349 0.950 . S
H373 C351 0.950 . S
C374 C375 1.349 . S
C374 C376 1.327 . S
C374 H399 0.950 . S
C375 C374 1.349 . S
C375 C391 1.349 . S
C376 C374 1.327 . S
C376 C395 1.429 . S
C376 H400 0.950 . S
C377 C394 1.574 . S
C377 C396 1.368 . S
C377 H401 0.949 . S
H378 C382 0.949 . S
C379 C380 1.349 . S
C379 C381 1.327 . S
C379 H402 0.950 . S
C380 C379 1.349 . S
C380 C392 1.349 . S
C381 C379 1.327 . S
C381 C397 1.429 . S
C381 H403 0.950 . S
C382 H378 0.949 . S
C382 C390 1.574 . S
C382 C398 1.368 . S
H383 C391 0.950 . S
H384 C389 0.950 . S
H385 C390 0.949 . S
H386 C392 0.950 . S
H387 C393 0.950 . S
H388 C394 0.949 . S
C389 H384 0.950 . S
C389 C391 1.327 . S
C389 C395 1.429 . S
C390 C382 1.574 . S
C390 H385 0.949 . S
C390 C396 1.368 . S
C391 C375 1.349 . S
C391 H383 0.950 . S
C391 C389 1.327 . S
C392 C380 1.349 . S
C392 H386 0.950 . S
C392 C393 1.327 . S
C393 H387 0.950 . S
C393 C392 1.327 . S
C393 C397 1.429 . S
C394 C377 1.574 . S
C394 H388 0.949 . S
C394 C398 1.368 . S
C395 C376 1.429 . S
C395 C389 1.429 . S
C395 C396 1.523 . S
C396 C377 1.368 . S
C396 C390 1.368 . S
C396 C395 1.523 . S
C397 C381 1.429 . S
C397 C393 1.429 . S
C397 C398 1.523 . S
C398 C382 1.368 . S
C398 C394 1.368 . S
C398 C397 1.523 . S
H399 C374 0.950 . S
H400 C376 0.950 . S
H401 C377 0.949 . S
H402 C379 0.950 . S
H403 C381 0.950 . S
C404 C405 1.349 . S
C404 C406 1.327 . S
C404 H429 0.950 . S
C405 C404 1.349 . S
C405 C421 1.349 . S
C406 C404 1.327 . S
C406 C425 1.429 . S
C406 H430 0.950 . S
C407 C424 1.574 . S
C407 C426 1.368 . S
C407 H431 0.949 . S
H408 C412 0.949 . S
C409 C410 1.349 . S
C409 C411 1.327 . S
C409 H432 0.950 . S
C410 C409 1.349 . S
C410 C422 1.349 . S
C411 C409 1.327 . S
C411 C427 1.429 . S
C411 H433 0.950 . S
C412 H408 0.949 . S
C412 C420 1.574 . S
C412 C428 1.368 . S
H413 C421 0.950 . S
H414 C419 0.950 . S
H415 C420 0.949 . S
H416 C422 0.950 . S
H417 C423 0.950 . S
H418 C424 0.949 . S
C419 H414 0.950 . S
C419 C421 1.327 . S
C419 C425 1.429 . S
C420 C412 1.574 . S
C420 H415 0.949 . S
C420 C426 1.368 . S
C421 C405 1.349 . S
C421 H413 0.950 . S
C421 C419 1.327 . S
C422 C410 1.349 . S
C422 H416 0.950 . S
C422 C423 1.327 . S
C423 H417 0.950 . S
C423 C422 1.327 . S
C423 C427 1.429 . S
C424 C407 1.574 . S
C424 H418 0.949 . S
C424 C428 1.368 . S
C425 C406 1.429 . S
C425 C419 1.429 . S
C425 C426 1.523 . S
C426 C407 1.368 . S
C426 C420 1.368 . S
C426 C425 1.523 . S
C427 C411 1.429 . S
C427 C423 1.429 . S
C427 C428 1.523 . S
C428 C412 1.368 . S
C428 C424 1.368 . S
C428 C427 1.523 . S
H429 C404 0.950 . S
H430 C406 0.950 . S
H431 C407 0.949 . S
H432 C409 0.950 . S
H433 C411 0.950 . S
C434 C435 1.349 . S
C434 C436 1.327 . S
C434 H459 0.950 . S
C435 C434 1.349 . S
C435 C451 1.349 . S
C436 C434 1.327 . S
C436 C455 1.429 . S
C436 H460 0.950 . S
C437 C454 1.574 . S
C437 C456 1.368 . S
C437 H461 0.949 . S
H438 C442 0.949 . S
C439 C440 1.349 . S
C439 C441 1.327 . S
C439 H462 0.950 . S
C440 C439 1.349 . S
C440 C452 1.349 . S
C441 C439 1.327 . S
C441 C457 1.429 . S
C441 H463 0.950 . S
C442 H438 0.949 . S
C442 C450 1.574 . S
C442 C458 1.368 . S
H443 C451 0.950 . S
H444 C449 0.950 . S
H445 C450 0.949 . S
H446 C452 0.950 . S
H447 C453 0.950 . S
H448 C454 0.949 . S
C449 H444 0.950 . S
C449 C451 1.327 . S
C449 C455 1.429 . S
C450 C442 1.574 . S
C450 H445 0.949 . S
C450 C456 1.368 . S
C451 C435 1.349 . S
C451 H443 0.950 . S
C451 C449 1.327 . S
C452 C440 1.349 . S
C452 H446 0.950 . S
C452 C453 1.327 . S
C453 H447 0.950 . S
C453 C452 1.327 . S
C453 C457 1.429 . S
C454 C437 1.574 . S
C454 H448 0.949 . S
C454 C458 1.368 . S
C455 C436 1.429 . S
C455 C449 1.429 . S
C455 C456 1.523 . S
C456 C437 1.368 . S
C456 C450 1.368 . S
C456 C455 1.523 . S
C457 C441 1.429 . S
C457 C453 1.429 . S
C457 C458 1.523 . S
C458 C442 1.368 . S
C458 C454 1.368 . S
C458 C457 1.523 . S
H459 C434 0.950 . S
H460 C436 0.950 . S
H461 C437 0.949 . S
H462 C439 0.950 . S
H463 C441 0.950 . S
C464 C465 1.349 . S
C464 C466 1.327 . S
C464 H489 0.950 . S
C465 C464 1.349 . S
C465 C481 1.349 . S
C466 C464 1.327 . S
C466 C485 1.429 . S
C466 H490 0.950 . S
C467 C484 1.574 . S
C467 C486 1.368 . S
C467 H491 0.949 . S
H468 C472 0.949 . S
C469 C470 1.349 . S
C469 C471 1.327 . S
C469 H492 0.950 . S
C470 C469 1.349 . S
C470 C482 1.349 . S
C471 C469 1.327 . S
C471 C487 1.429 . S
C471 H493 0.950 . S
C472 H468 0.949 . S
C472 C480 1.574 . S
C472 C488 1.368 . S
H473 C481 0.950 . S
H474 C479 0.950 . S
H475 C480 0.949 . S
H476 C482 0.950 . S
H477 C483 0.950 . S
H478 C484 0.949 . S
C479 H474 0.950 . S
C479 C481 1.327 . S
C479 C485 1.429 . S
C480 C472 1.574 . S
C480 H475 0.949 . S
C480 C486 1.368 . S
C481 C465 1.349 . S
C481 H473 0.950 . S
C481 C479 1.327 . S
C482 C470 1.349 . S
C482 H476 0.950 . S
C482 C483 1.327 . S
C483 H477 0.950 . S
C483 C482 1.327 . S
C483 C487 1.429 . S
C484 C467 1.574 . S
C484 H478 0.949 . S
C484 C488 1.368 . S
C485 C466 1.429 . S
C485 C479 1.429 . S
C485 C486 1.523 . S
C486 C467 1.368 . S
C486 C480 1.368 . S
C486 C485 1.523 . S
C487 C471 1.429 . S
C487 C483 1.429 . S
C487 C488 1.523 . S
C488 C472 1.368 . S
C488 C484 1.368 . S
C488 C487 1.523 . S
H489 C464 0.950 . S
H490 C466 0.950 . S
H491 C467 0.949 . S
H492 C469 0.950 . S
H493 C471 0.950 . S
C494 C495 1.349 . S
C494 C496 1.327 . S
C494 H519 0.950 . S
C495 C494 1.349 . S
C495 C511 1.349 . S
C496 C494 1.327 . S
C496 C515 1.429 . S
C496 H520 0.950 . S
C497 C514 1.574 . S
C497 C516 1.368 . S
C497 H521 0.949 . S
H498 C502 0.949 . S
C499 C500 1.349 . S
C499 C501 1.327 . S
C499 H522 0.950 . S
C500 C499 1.349 . S
C500 C512 1.349 . S
C501 C499 1.327 . S
C501 C517 1.429 . S
C501 H523 0.950 . S
C502 H498 0.949 . S
C502 C510 1.574 . S
C502 C518 1.368 . S
H503 C511 0.950 . S
H504 C509 0.950 . S
H505 C510 0.949 . S
H506 C512 0.950 . S
H507 C513 0.950 . S
H508 C514 0.949 . S
C509 H504 0.950 . S
C509 C511 1.327 . S
C509 C515 1.429 . S
C510 C502 1.574 . S
C510 H505 0.949 . S
C510 C516 1.368 . S
C511 C495 1.349 . S
C511 H503 0.950 . S
C511 C509 1.327 . S
C512 C500 1.349 . S
C512 H506 0.950 . S
C512 C513 1.327 . S
C513 H507 0.950 . S
C513 C512 1.327 . S
C513 C517 1.429 . S
C514 C497 1.574 . S
C514 H508 0.949 . S
C514 C518 1.368 . S
C515 C496 1.429 . S
C515 C509 1.429 . S
C515 C516 1.523 . S
C516 C497 1.368 . S
C516 C510 1.368 . S
C516 C515 1.523 . S
C517 C501 1.429 . S
C517 C513 1.429 . S
C517 C518 1.523 . S
C518 C502 1.368 . S
C518 C514 1.368 . S
C518 C517 1.523 . S
H519 C494 0.950 . S
H520 C496 0.950 . S
H521 C497 0.949 . S
H522 C499 0.950 . S
H523 C501 0.950 . S
C524 C525 1.349 . S
C524 C526 1.327 . S
C524 H549 0.950 . S
C525 C524 1.349 . S
C525 C541 1.349 . S
C526 C524 1.327 . S
C526 C545 1.429 . S
C526 H550 0.950 . S
C527 C544 1.574 . S
C527 C546 1.368 . S
C527 H551 0.949 . S
H528 C532 0.949 . S
C529 C530 1.349 . S
C529 C531 1.327 . S
C529 H552 0.950 . S
C530 C529 1.349 . S
C530 C542 1.349 . S
C531 C529 1.327 . S
C531 C547 1.429 . S
C531 H553 0.950 . S
C532 H528 0.949 . S
C532 C540 1.574 . S
C532 C548 1.368 . S
H533 C541 0.950 . S
H534 C539 0.950 . S
H535 C540 0.949 . S
H536 C542 0.950 . S
H537 C543 0.950 . S
H538 C544 0.949 . S
C539 H534 0.950 . S
C539 C541 1.327 . S
C539 C545 1.429 . S
C540 C532 1.574 . S
C540 H535 0.949 . S
C540 C546 1.368 . S
C541 C525 1.349 . S
C541 H533 0.950 . S
C541 C539 1.327 . S
C542 C530 1.349 . S
C542 H536 0.950 . S
C542 C543 1.327 . S
C543 H537 0.950 . S
C543 C542 1.327 . S
C543 C547 1.429 . S
C544 C527 1.574 . S
C544 H538 0.949 . S
C544 C548 1.368 . S
C545 C526 1.429 . S
C545 C539 1.429 . S
C545 C546 1.523 . S
C546 C527 1.368 . S
C546 C540 1.368 . S
C546 C545 1.523 . S
C547 C531 1.429 . S
C547 C543 1.429 . S
C547 C548 1.523 . S
C548 C532 1.368 . S
C548 C544 1.368 . S
C548 C547 1.523 . S
H549 C524 0.950 . S
H550 C526 0.950 . S
H551 C527 0.949 . S
H552 C529 0.950 . S
H553 C531 0.950 . S
C554 C555 1.349 . S
C554 C556 1.327 . S
C554 H579 0.950 . S
C555 C554 1.349 . S
C555 C571 1.349 . S
C556 C554 1.327 . S
C556 C575 1.429 . S
C556 H580 0.950 . S
C557 C574 1.574 . S
C557 C576 1.368 . S
C557 H581 0.949 . S
H558 C562 0.949 . S
C559 C560 1.349 . S
C559 C561 1.327 . S
C559 H582 0.950 . S
C560 C559 1.349 . S
C560 C572 1.349 . S
C561 C559 1.327 . S
C561 C577 1.429 . S
C561 H583 0.950 . S
C562 H558 0.949 . S
C562 C570 1.574 . S
C562 C578 1.368 . S
H563 C571 0.950 . S
H564 C569 0.950 . S
H565 C570 0.949 . S
H566 C572 0.950 . S
H567 C573 0.950 . S
H568 C574 0.949 . S
C569 H564 0.950 . S
C569 C571 1.327 . S
C569 C575 1.429 . S
C570 C562 1.574 . S
C570 H565 0.949 . S
C570 C576 1.368 . S
C571 C555 1.349 . S
C571 H563 0.950 . S
C571 C569 1.327 . S
C572 C560 1.349 . S
C572 H566 0.950 . S
C572 C573 1.327 . S
C573 H567 0.950 . S
C573 C572 1.327 . S
C573 C577 1.429 . S
C574 C557 1.574 . S
C574 H568 0.949 . S
C574 C578 1.368 . S
C575 C556 1.429 . S
C575 C569 1.429 . S
C575 C576 1.523 . S
C576 C557 1.368 . S
C576 C570 1.368 . S
C576 C575 1.523 . S
C577 C561 1.429 . S
C577 C573 1.429 . S
C577 C578 1.523 . S
C578 C562 1.368 . S
C578 C574 1.368 . S
C578 C577 1.523 . S
H579 C554 0.950 . S
H580 C556 0.950 . S
H581 C557 0.949 . S
H582 C559 0.950 . S
H583 C561 0.950 . S
C584 C585 1.349 . S
C584 C586 1.327 . S
C584 H609 0.950 . S
C585 C584 1.349 . S
C585 C601 1.349 . S
C586 C584 1.327 . S
C586 C605 1.429 . S
C586 H610 0.950 . S
C587 C604 1.574 . S
C587 C606 1.368 . S
C587 H611 0.949 . S
H588 C592 0.949 . S
C589 C590 1.349 . S
C589 C591 1.327 . S
C589 H612 0.950 . S
C590 C589 1.349 . S
C590 C602 1.349 . S
C591 C589 1.327 . S
C591 C607 1.429 . S
C591 H613 0.950 . S
C592 H588 0.949 . S
C592 C600 1.574 . S
C592 C608 1.368 . S
H593 C601 0.950 . S
H594 C599 0.950 . S
H595 C600 0.949 . S
H596 C602 0.950 . S
H597 C603 0.950 . S
H598 C604 0.949 . S
C599 H594 0.950 . S
C599 C601 1.327 . S
C599 C605 1.429 . S
C600 C592 1.574 . S
C600 H595 0.949 . S
C600 C606 1.368 . S
C601 C585 1.349 . S
C601 H593 0.950 . S
C601 C599 1.327 . S
C602 C590 1.349 . S
C602 H596 0.950 . S
C602 C603 1.327 . S
C603 H597 0.950 . S
C603 C602 1.327 . S
C603 C607 1.429 . S
C604 C587 1.574 . S
C604 H598 0.949 . S
C604 C608 1.368 . S
C605 C586 1.429 . S
C605 C599 1.429 . S
C605 C606 1.523 . S
C606 C587 1.368 . S
C606 C600 1.368 . S
C606 C605 1.523 . S
C607 C591 1.429 . S
C607 C603 1.429 . S
C607 C608 1.523 . S
C608 C592 1.368 . S
C608 C604 1.368 . S
C608 C607 1.523 . S
H609 C584 0.950 . S
H610 C586 0.950 . S
H611 C587 0.949 . S
H612 C589 0.950 . S
H613 C591 0.950 . S
C614 C615 1.349 . S
C614 C616 1.327 . S
C614 H639 0.950 . S
C615 C614 1.349 . S
C615 C631 1.349 . S
C616 C614 1.327 . S
C616 C635 1.429 . S
C616 H640 0.950 . S
C617 C634 1.574 . S
C617 C636 1.368 . S
C617 H641 0.949 . S
H618 C622 0.949 . S
C619 C620 1.349 . S
C619 C621 1.327 . S
C619 H642 0.950 . S
C620 C619 1.349 . S
C620 C632 1.349 . S
C621 C619 1.327 . S
C621 C637 1.429 . S
C621 H643 0.950 . S
C622 H618 0.949 . S
C622 C630 1.574 . S
C622 C638 1.368 . S
H623 C631 0.950 . S
H624 C629 0.950 . S
H625 C630 0.949 . S
H626 C632 0.950 . S
H627 C633 0.950 . S
H628 C634 0.949 . S
C629 H624 0.950 . S
C629 C631 1.327 . S
C629 C635 1.429 . S
C630 C622 1.574 . S
C630 H625 0.949 . S
C630 C636 1.368 . S
C631 C615 1.349 . S
C631 H623 0.950 . S
C631 C629 1.327 . S
C632 C620 1.349 . S
C632 H626 0.950 . S
C632 C633 1.327 . S
C633 H627 0.950 . S
C633 C632 1.327 . S
C633 C637 1.429 . S
C634 C617 1.574 . S
C634 H628 0.949 . S
C634 C638 1.368 . S
C635 C616 1.429 . S
C635 C629 1.429 . S
C635 C636 1.523 . S
C636 C617 1.368 . S
C636 C630 1.368 . S
C636 C635 1.523 . S
C637 C621 1.429 . S
C637 C633 1.429 . S
C637 C638 1.523 . S
C638 C622 1.368 . S
C638 C634 1.368 . S
C638 C637 1.523 . S
H639 C614 0.950 . S
H640 C616 0.950 . S
H641 C617 0.949 . S
H642 C619 0.950 . S
H643 C621 0.950 . S
C644 C645 1.349 . S
C644 C646 1.327 . S
C644 H669 0.950 . S
C645 C644 1.349 . S
C645 C661 1.349 . S
C646 C644 1.327 . S
C646 C665 1.429 . S
C646 H670 0.950 . S
C647 C664 1.574 . S
C647 C666 1.368 . S
C647 H671 0.949 . S
H648 C652 0.949 . S
C649 C650 1.349 . S
C649 C651 1.327 . S
C649 H672 0.950 . S
C650 C649 1.349 . S
C650 C662 1.349 . S
C651 C649 1.327 . S
C651 C667 1.429 . S
C651 H673 0.950 . S
C652 H648 0.949 . S
C652 C660 1.574 . S
C652 C668 1.368 . S
H653 C661 0.950 . S
H654 C659 0.950 . S
H655 C660 0.949 . S
H656 C662 0.950 . S
H657 C663 0.950 . S
H658 C664 0.949 . S
C659 H654 0.950 . S
C659 C661 1.327 . S
C659 C665 1.429 . S
C660 C652 1.574 . S
C660 H655 0.949 . S
C660 C666 1.368 . S
C661 C645 1.349 . S
C661 H653 0.950 . S
C661 C659 1.327 . S
C662 C650 1.349 . S
C662 H656 0.950 . S
C662 C663 1.327 . S
C663 H657 0.950 . S
C663 C662 1.327 . S
C663 C667 1.429 . S
C664 C647 1.574 . S
C664 H658 0.949 . S
C664 C668 1.368 . S
C665 C646 1.429 . S
C665 C659 1.429 . S
C665 C666 1.523 . S
C666 C647 1.368 . S
C666 C660 1.368 . S
C666 C665 1.523 . S
C667 C651 1.429 . S
C667 C663 1.429 . S
C667 C668 1.523 . S
C668 C652 1.368 . S
C668 C664 1.368 . S
C668 C667 1.523 . S
H669 C644 0.950 . S
H670 C646 0.950 . S
H671 C647 0.949 . S
H672 C649 0.950 . S
H673 C651 0.950 . S
C674 C675 1.349 . S
C674 C676 1.327 . S
C674 H699 0.950 . S
C675 C674 1.349 . S
C675 C691 1.349 . S
C676 C674 1.327 . S
C676 C695 1.429 . S
C676 H700 0.950 . S
C677 C694 1.574 . S
C677 C696 1.368 . S
C677 H701 0.949 . S
H678 C682 0.949 . S
C679 C680 1.349 . S
C679 C681 1.327 . S
C679 H702 0.950 . S
C680 C679 1.349 . S
C680 C692 1.349 . S
C681 C679 1.327 . S
C681 C697 1.429 . S
C681 H703 0.950 . S
C682 H678 0.949 . S
C682 C690 1.574 . S
C682 C698 1.368 . S
H683 C691 0.950 . S
H684 C689 0.950 . S
H685 C690 0.949 . S
H686 C692 0.950 . S
H687 C693 0.950 . S
H688 C694 0.949 . S
C689 H684 0.950 . S
C689 C691 1.327 . S
C689 C695 1.429 . S
C690 C682 1.574 . S
C690 H685 0.949 . S
C690 C696 1.368 . S
C691 C675 1.349 . S
C691 H683 0.950 . S
C691 C689 1.327 . S
C692 C680 1.349 . S
C692 H686 0.950 . S
C692 C693 1.327 . S
C693 H687 0.950 . S
C693 C692 1.327 . S
C693 C697 1.429 . S
C694 C677 1.574 . S
C694 H688 0.949 . S
C694 C698 1.368 . S
C695 C676 1.429 . S
C695 C689 1.429 . S
C695 C696 1.523 . S
C696 C677 1.368 . S
C696 C690 1.368 . S
C696 C695 1.523 . S
C697 C681 1.429 . S
C697 C693 1.429 . S
C697 C698 1.523 . S
C698 C682 1.368 . S
C698 C694 1.368 . S
C698 C697 1.523 . S
H699 C674 0.950 . S
H700 C676 0.950 . S
H701 C677 0.949 . S
H702 C679 0.950 . S
H703 C681 0.950 . S
C704 C705 1.349 . S
C704 C706 1.327 . S
C704 H729 0.950 . S
C705 C704 1.349 . S
C705 C721 1.349 . S
C706 C704 1.327 . S
C706 C725 1.429 . S
C706 H730 0.950 . S
C707 C724 1.574 . S
C707 C726 1.368 1_554 S
C707 H731 0.949 . S
H708 C712 0.949 . S
C709 C710 1.349 . S
C709 C711 1.327 . S
C709 H732 0.950 . S
C710 C709 1.349 . S
C710 C722 1.349 . S
C711 C709 1.327 . S
C711 C727 1.429 . S
C711 H733 0.950 . S
C712 H708 0.949 . S
C712 C720 1.574 . S
C712 C728 1.368 1_556 S
H713 C721 0.950 . S
H714 C719 0.915 1_554 S
H715 C720 0.949 . S
H716 C722 0.950 . S
H717 C723 0.950 1_556 S
H718 C724 0.949 . S
C719 H714 0.915 1_556 S
C719 C721 1.327 . S
C719 C725 1.429 . S
C720 C712 1.574 . S
C720 H715 0.949 . S
C720 C726 1.368 . S
C721 C705 1.349 . S
C721 H713 0.950 . S
C721 C719 1.327 . S
C722 C710 1.349 . S
C722 H716 0.950 . S
C722 C723 1.327 . S
C723 H717 0.950 1_554 S
C723 C722 1.327 . S
C723 C727 1.429 . S
C724 C707 1.574 . S
C724 H718 0.949 . S
C724 C728 1.368 . S
C725 C706 1.429 . S
C725 C719 1.429 . S
C725 C726 1.523 . S
C726 C707 1.368 1_556 S
C726 C720 1.368 . S
C726 C725 1.523 . S
C727 C711 1.429 . S
C727 C723 1.429 . S
C727 C728 1.523 . S
C728 C712 1.368 1_554 S
C728 C724 1.368 . S
C728 C727 1.523 . S
H729 C704 0.950 . S
H730 C706 0.950 . S
H731 C707 0.949 . S
H732 C709 0.950 . S
H733 C711 0.950 . S
C734 C735 1.349 . S
C734 C736 1.327 . S
C734 H759 0.950 . S
C735 C734 1.349 . S
C735 C751 1.349 . S
C736 C734 1.327 . S
C736 C755 1.429 . S
C736 H760 0.950 . S
C737 C754 1.574 . S
C737 C756 1.368 . S
C737 H761 0.949 . S
H738 C742 0.949 . S
C739 C740 1.349 . S
C739 C741 1.327 . S
C739 H762 0.950 . S
C740 C739 1.349 . S
C740 C752 1.349 . S
C741 C739 1.327 . S
C741 C757 1.429 . S
C741 H763 0.950 . S
C742 H738 0.949 . S
C742 C750 1.574 . S
C742 C758 1.368 . S
H743 C751 0.950 . S
H744 C749 0.950 . S
H745 C750 0.949 . S
H746 C752 0.950 . S
H747 C753 0.950 . S
H748 C754 0.949 . S
C749 H744 0.950 . S
C749 C751 1.327 . S
C749 C755 1.429 . S
C750 C742 1.574 . S
C750 H745 0.949 . S
C750 C756 1.368 . S
C751 C735 1.349 . S
C751 H743 0.950 . S
C751 C749 1.327 . S
C752 C740 1.349 . S
C752 H746 0.950 . S
C752 C753 1.327 . S
C753 H747 0.950 . S
C753 C752 1.327 . S
C753 C757 1.429 . S
C754 C737 1.574 . S
C754 H748 0.949 . S
C754 C758 1.368 . S
C755 C736 1.429 . S
C755 C749 1.429 . S
C755 C756 1.523 . S
C756 C737 1.368 . S
C756 C750 1.368 . S
C756 C755 1.523 . S
C757 C741 1.429 . S
C757 C753 1.429 . S
C757 C758 1.523 . S
C758 C742 1.368 . S
C758 C754 1.368 . S
C758 C757 1.523 . S
H759 C734 0.950 . S
H760 C736 0.950 . S
H761 C737 0.949 . S
H762 C739 0.950 . S
H763 C741 0.950 . S
C764 C765 1.349 . S
C764 C766 1.327 . S
C764 H789 0.950 . S
C765 C764 1.349 . S
C765 C781 1.349 . S
C766 C764 1.327 . S
C766 C785 1.429 . S
C766 H790 0.950 . S
C767 C784 1.574 . S
C767 C786 1.368 . S
C767 H791 0.949 . S
H768 C772 0.949 . S
C769 C770 1.349 . S
C769 C771 1.327 . S
C769 H792 0.950 . S
C770 C769 1.349 . S
C770 C782 1.349 . S
C771 C769 1.327 . S
C771 C787 1.429 . S
C771 H793 0.959 . S
C772 H768 0.949 . S
C772 C780 1.574 . S
C772 C788 1.368 . S
H773 C781 0.950 . S
H774 C779 0.950 . S
H775 C780 0.949 . S
H776 C782 0.950 . S
H777 C783 0.950 . S
H778 C784 0.949 . S
C779 H774 0.950 . S
C779 C781 1.327 . S
C779 C785 1.429 . S
C780 C772 1.574 . S
C780 H775 0.949 . S
C780 C786 1.368 1_556 S
C781 C765 1.349 . S
C781 H773 0.950 . S
C781 C779 1.327 . S
C782 C770 1.349 . S
C782 H776 0.950 . S
C782 C783 1.327 . S
C783 H777 0.950 . S
C783 C782 1.327 . S
C783 C787 1.429 . S
C784 C767 1.574 . S
C784 H778 0.949 . S
C784 C788 1.368 1_554 S
C785 C766 1.429 . S
C785 C779 1.429 . S
C785 C786 1.523 . S
C786 C767 1.368 . S
C786 C780 1.368 1_554 S
C786 C785 1.523 . S
C787 C771 1.429 . S
C787 C783 1.429 . S
C787 C788 1.523 . S
C788 C772 1.368 . S
C788 C784 1.368 1_556 S
C788 C787 1.523 . S
H789 C764 0.950 . S
H790 C766 0.950 . S
H791 C767 0.949 . S
H792 C769 0.950 . S
H793 C771 0.959 . S
C794 C795 1.349 . S
C794 C796 1.327 . S
C794 H819 0.950 . S
C795 C794 1.349 . S
C795 C811 1.349 . S
C796 C794 1.327 . S
C796 C815 1.429 . S
C796 H820 0.950 . S
C797 C814 1.574 . S
C797 C816 1.368 . S
C797 H821 0.949 . S
H798 C802 0.949 . S
C799 C800 1.349 . S
C799 C801 1.327 . S
C799 H822 0.950 . S
C800 C799 1.349 . S
C800 C812 1.349 . S
C801 C799 1.327 . S
C801 C817 1.429 . S
C801 H823 0.950 . S
C802 H798 0.949 . S
C802 C810 1.574 . S
C802 C818 1.368 . S
H803 C811 0.950 . S
H804 C809 0.950 . S
H805 C810 0.949 . S
H806 C812 0.950 . S
H807 C813 0.950 . S
H808 C814 0.949 . S
C809 H804 0.950 . S
C809 C811 1.327 . S
C809 C815 1.429 . S
C810 C802 1.574 . S
C810 H805 0.949 . S
C810 C816 1.368 . S
C811 C795 1.349 . S
C811 H803 0.950 . S
C811 C809 1.327 . S
C812 C800 1.349 . S
C812 H806 0.950 . S
C812 C813 1.327 . S
C813 H807 0.950 . S
C813 C812 1.327 . S
C813 C817 1.429 . S
C814 C797 1.574 . S
C814 H808 0.949 . S
C814 C818 1.368 . S
C815 C796 1.429 . S
C815 C809 1.429 . S
C815 C816 1.523 . S
C816 C797 1.368 . S
C816 C810 1.368 . S
C816 C815 1.523 . S
C817 C801 1.429 . S
C817 C813 1.429 . S
C817 C818 1.523 . S
C818 C802 1.368 . S
C818 C814 1.368 . S
C818 C817 1.523 . S
H819 C794 0.950 . S
H820 C796 0.950 . S
H821 C797 0.949 . S
H822 C799 0.950 . S
H823 C801 0.950 . S
C824 C825 1.349 . S
C824 C826 1.327 . S
C824 H849 0.950 . S
C825 C824 1.349 . S
C825 C841 1.349 . S
C826 C824 1.327 . S
C826 C845 1.429 . S
C826 H850 0.950 . S
C827 C844 1.574 . S
C827 C846 1.368 1_556 S
C827 H851 0.949 . S
H828 C832 0.949 . S
C829 C830 1.349 . S
C829 C831 1.327 . S
C829 H852 0.950 . S
C830 C829 1.349 . S
C830 C842 1.349 . S
C831 C829 1.327 . S
C831 C847 1.429 . S
C831 H853 0.950 . S
C832 H828 0.949 . S
C832 C840 1.574 . S
C832 C848 1.368 1_554 S
H833 C841 0.950 . S
H834 C839 0.950 . S
H835 C840 0.949 . S
H836 C842 0.950 . S
H837 C843 0.950 . S
H838 C844 0.949 . S
C839 H834 0.950 . S
C839 C841 1.327 . S
C839 C845 1.429 . S
C840 C832 1.574 . S
C840 H835 0.949 . S
C840 C846 1.368 . S
C841 C825 1.349 . S
C841 H833 0.950 . S
C841 C839 1.327 . S
C842 C830 1.349 . S
C842 H836 0.950 . S
C842 C843 1.327 . S
C843 H837 0.950 . S
C843 C842 1.327 . S
C843 C847 1.429 . S
C844 C827 1.574 . S
C844 H838 0.949 . S
C844 C848 1.368 . S
C845 C826 1.429 . S
C845 C839 1.429 . S
C845 C846 1.523 . S
C846 C827 1.368 1_554 S
C846 C840 1.368 . S
C846 C845 1.523 . S
C847 C831 1.429 . S
C847 C843 1.429 . S
C847 C848 1.523 . S
C848 C832 1.368 1_556 S
C848 C844 1.368 . S
C848 C847 1.523 . S
H849 C824 0.950 . S
H850 C826 0.950 . S
H851 C827 0.949 . S
H852 C829 0.950 . S
H853 C831 0.950 . S
C854 C855 1.349 . S
C854 C856 1.327 . S
C854 H879 0.950 . S
C855 C854 1.349 . S
C855 C871 1.349 . S
C856 C854 1.327 . S
C856 C875 1.429 . S
C856 H880 0.950 . S
C857 C874 1.574 . S
C857 C876 1.368 . S
C857 H881 0.949 . S
H858 C862 0.949 . S
C859 C860 1.349 . S
C859 C861 1.327 . S
C859 H882 0.950 . S
C860 C859 1.349 . S
C860 C872 1.349 . S
C861 C859 1.327 . S
C861 C877 1.429 . S
C861 H883 0.950 . S
C862 H858 0.949 . S
C862 C870 1.574 . S
C862 C878 1.368 . S
H863 C871 0.950 . S
H864 C869 0.950 . S
H865 C870 0.949 . S
H866 C872 0.950 . S
H867 C873 0.950 . S
H868 C874 0.949 . S
C869 H864 0.950 . S
C869 C871 1.327 . S
C869 C875 1.429 . S
C870 C862 1.574 . S
C870 H865 0.949 . S
C870 C876 1.368 . S
C871 C855 1.349 . S
C871 H863 0.950 . S
C871 C869 1.327 . S
C872 C860 1.349 . S
C872 H866 0.950 . S
C872 C873 1.327 . S
C873 H867 0.950 . S
C873 C872 1.327 . S
C873 C877 1.429 . S
C874 C857 1.574 . S
C874 H868 0.949 . S
C874 C878 1.368 . S
C875 C856 1.429 . S
C875 C869 1.429 . S
C875 C876 1.523 . S
C876 C857 1.368 . S
C876 C870 1.368 . S
C876 C875 1.523 . S
C877 C861 1.429 . S
C877 C873 1.429 . S
C877 C878 1.523 . S
C878 C862 1.368 . S
C878 C874 1.368 . S
C878 C877 1.523 . S
H879 C854 0.950 . S
H880 C856 0.950 . S
H881 C857 0.949 . S
H882 C859 0.950 . S
H883 C861 0.950 . S
C884 C885 1.349 . S
C884 C886 1.327 . S
C884 H909 0.950 . S
C885 C884 1.349 . S
C885 C901 1.349 . S
C886 C884 1.327 . S
C886 C905 1.429 . S
C886 H910 0.950 . S
C887 C904 1.574 . S
C887 C906 1.368 . S
C887 H911 0.949 . S
H888 C892 0.949 . S
C889 C890 1.349 . S
C889 C891 1.327 . S
C889 H912 0.950 . S
C890 C889 1.349 . S
C890 C902 1.349 . S
C891 C889 1.327 . S
C891 C907 1.429 . S
C891 H913 0.950 . S
C892 H888 0.949 . S
C892 C900 1.574 . S
C892 C908 1.368 . S
H893 C901 0.950 . S
H894 C899 0.950 . S
H895 C900 0.949 . S
H896 C902 0.950 . S
H897 C903 0.950 . S
H898 C904 0.949 . S
C899 H894 0.950 . S
C899 C901 1.327 . S
C899 C905 1.429 . S
C900 C892 1.574 . S
C900 H895 0.949 . S
C900 C906 1.368 1_556 S
C901 C885 1.349 . S
C901 H893 0.950 . S
C901 C899 1.327 . S
C902 C890 1.349 . S
C902 H896 0.950 . S
C902 C903 1.327 . S
C903 H897 0.950 . S
C903 C902 1.327 . S
C903 C907 1.429 . S
C904 C887 1.574 . S
C904 H898 0.949 . S
C904 C908 1.368 1_554 S
C905 C886 1.429 . S
C905 C899 1.429 . S
C905 C906 1.523 . S
C906 C887 1.368 . S
C906 C900 1.368 1_554 S
C906 C905 1.523 . S
C907 C891 1.429 . S
C907 C903 1.429 . S
C907 C908 1.523 . S
C908 C892 1.368 . S
C908 C904 1.368 1_556 S
C908 C907 1.523 . S
H909 C884 0.950 . S
H910 C886 0.950 . S
H911 C887 0.949 . S
H912 C889 0.950 . S
H913 C891 0.950 . S
C914 C915 1.349 . S
C914 C916 1.327 . S
C914 H939 0.950 . S
C915 C914 1.349 . S
C915 C931 1.349 . S
C916 C914 1.327 . S
C916 C935 1.429 . S
C916 H940 0.950 . S
C917 C934 1.574 . S
C917 C936 1.368 . S
C917 H941 0.949 . S
H918 C922 0.949 . S
C919 C920 1.349 . S
C919 C921 1.327 . S
C919 H942 0.950 . S
C920 C919 1.349 . S
C920 C932 1.349 . S
C921 C919 1.327 . S
C921 C937 1.429 . S
C921 H943 0.950 . S
C922 H918 0.949 . S
C922 C930 1.574 . S
C922 C938 1.368 . S
H923 C931 0.950 . S
H924 C929 0.950 . S
H925 C930 0.949 . S
H926 C932 0.950 . S
H927 C933 0.950 . S
H928 C934 0.949 . S
C929 H924 0.950 . S
C929 C931 1.327 . S
C929 C935 1.429 . S
C930 C922 1.574 . S
C930 H925 0.949 . S
C930 C936 1.368 . S
C931 C915 1.349 . S
C931 H923 0.950 . S
C931 C929 1.327 . S
C932 C920 1.349 . S
C932 H926 0.950 . S
C932 C933 1.327 . S
C933 H927 0.950 . S
C933 C932 1.327 . S
C933 C937 1.429 . S
C934 C917 1.574 . S
C934 H928 0.949 . S
C934 C938 1.368 . S
C935 C916 1.429 . S
C935 C929 1.429 . S
C935 C936 1.523 . S
C936 C917 1.368 . S
C936 C930 1.368 . S
C936 C935 1.523 . S
C937 C921 1.429 . S
C937 C933 1.429 . S
C937 C938 1.523 . S
C938 C922 1.368 . S
C938 C934 1.368 . S
C938 C937 1.523 . S
H939 C914 0.950 . S
H940 C916 0.950 . S
H941 C917 0.949 . S
H942 C919 0.950 . S
H943 C921 0.950 . S
C944 C945 1.349 . S
C944 C946 1.327 . S
C944 H969 0.950 . S
C945 C944 1.349 . S
C945 C961 1.349 . S
C946 C944 1.327 . S
C946 C965 1.429 . S
C946 H970 0.950 . S
C947 C964 1.574 . S
C947 C966 1.368 1_554 S
C947 H971 0.949 . S
H948 C952 0.949 . S
C949 C950 1.349 . S
C949 C951 1.327 . S
C949 H972 0.950 . S
C950 C949 1.349 . S
C950 C962 1.349 . S
C951 C949 1.327 . S
C951 C967 1.429 . S
C951 H973 0.950 . S
C952 H948 0.949 . S
C952 C960 1.574 . S
C952 C968 1.368 1_556 S
H953 C961 0.950 . S
H954 C959 0.950 1_554 S
H955 C960 0.949 . S
H956 C962 0.950 . S
H957 C963 0.950 1_556 S
H958 C964 0.949 . S
C959 H954 0.950 1_556 S
C959 C961 1.327 . S
C959 C965 1.429 . S
C960 C952 1.574 . S
C960 H955 0.949 . S
C960 C966 1.368 . S
C961 C945 1.349 . S
C961 H953 0.950 . S
C961 C959 1.327 . S
C962 C950 1.349 . S
C962 H956 0.950 . S
C962 C963 1.327 . S
C963 H957 0.950 1_554 S
C963 C962 1.327 . S
C963 C967 1.429 . S
C964 C947 1.574 . S
C964 H958 0.949 . S
C964 C968 1.368 . S
C965 C946 1.429 . S
C965 C959 1.429 . S
C965 C966 1.523 . S
C966 C947 1.368 1_556 S
C966 C960 1.368 . S
C966 C965 1.523 . S
C967 C951 1.429 . S
C967 C963 1.429 . S
C967 C968 1.523 . S
C968 C952 1.368 1_554 S
C968 C964 1.368 . S
C968 C967 1.523 . S
H969 C944 0.950 . S
H970 C946 0.950 . S
H971 C947 0.949 . S
H972 C949 0.950 . S
H973 C951 0.950 . S
C974 C975 1.349 . S
C974 C976 1.327 . S
C974 H999 0.950 . S
C975 C974 1.349 . S
C975 C991 1.349 . S
C976 C974 1.327 . S
C976 C995 1.429 . S
C976 H1000 0.950 . S
C977 C994 1.574 . S
C977 C996 1.368 . S
C977 H1001 0.949 . S
H978 C982 0.949 . S
C979 C980 1.349 . S
C979 C981 1.327 . S
C979 H1002 0.950 . S
C980 C979 1.349 . S
C980 C992 1.349 . S
C981 C979 1.327 . S
C981 C997 1.429 . S
C981 H1003 0.950 . S
C982 H978 0.949 . S
C982 C990 1.574 . S
C982 C998 1.368 . S
H983 C991 0.950 . S
H984 C989 0.950 . S
H985 C990 0.949 . S
H986 C992 0.950 . S
H987 C993 0.950 . S
H988 C994 0.949 . S
C989 H984 0.950 . S
C989 C991 1.327 . S
C989 C995 1.429 . S
C990 C982 1.574 . S
C990 H985 0.949 . S
C990 C996 1.368 . S
C991 C975 1.349 . S
C991 H983 0.950 . S
C991 C989 1.327 . S
C992 C980 1.349 . S
C992 H986 0.950 . S
C992 C993 1.327 . S
C993 H987 0.950 . S
C993 C992 1.327 . S
C993 C997 1.429 . S
C994 C977 1.574 . S
C994 H988 0.949 . S
C994 C998 1.368 . S
C995 C976 1.429 . S
C995 C989 1.429 . S
C995 C996 1.523 . S
C996 C977 1.368 . S
C996 C990 1.368 . S
C996 C995 1.523 . S
C997 C981 1.429 . S
C997 C993 1.429 . S
C997 C998 1.523 . S
C998 C982 1.368 . S
C998 C994 1.368 . S
C998 C997 1.523 . S
H999 C974 0.950 . S
H1000 C976 0.950 . S
H1001 C977 0.949 . S
H1002 C979 0.950 . S
H1003 C981 0.950 . S
C1004 C1005 1.349 . S
C1004 C1006 1.327 . S
C1004 H1029 0.950 . S
C1005 C1004 1.349 . S
C1005 C1021 1.349 . S
C1006 C1004 1.327 . S
C1006 C1025 1.429 . S
C1006 H1030 0.950 . S
C1007 C1024 1.574 1_554 S
C1007 C1026 1.368 . S
C1007 H1031 0.949 . S
H1008 C1012 0.949 . S
C1009 C1010 1.349 . S
C1009 C1011 1.327 . S
C1009 H1032 0.950 . S
C1010 C1009 1.349 . S
C1010 C1022 1.349 . S
C1011 C1009 1.327 . S
C1011 C1027 1.429 . S
C1011 H1033 0.950 . S
C1012 H1008 0.949 . S
C1012 C1020 1.574 1_556 S
C1012 C1028 1.368 . S
H1013 C1021 0.950 . S
H1014 C1019 0.950 . S
H1015 C1020 0.949 . S
H1016 C1022 0.950 . S
H1017 C1023 0.950 . S
H1018 C1024 0.949 . S
C1019 H1014 0.950 . S
C1019 C1021 1.327 . S
C1019 C1025 1.429 . S
C1020 C1012 1.574 1_554 S
C1020 H1015 0.949 . S
C1020 C1026 1.368 . S
C1021 C1005 1.349 . S
C1021 H1013 0.950 . S
C1021 C1019 1.327 . S
C1022 C1010 1.349 . S
C1022 H1016 0.950 . S
C1022 C1023 1.327 . S
C1023 H1017 0.950 . S
C1023 C1022 1.327 . S
C1023 C1027 1.429 . S
C1024 C1007 1.574 1_556 S
C1024 H1018 0.949 . S
C1024 C1028 1.368 . S
C1025 C1006 1.429 . S
C1025 C1019 1.429 . S
C1025 C1026 1.523 . S
C1026 C1007 1.368 . S
C1026 C1020 1.368 . S
C1026 C1025 1.523 . S
C1027 C1011 1.429 . S
C1027 C1023 1.429 . S
C1027 C1028 1.523 . S
C1028 C1012 1.368 . S
C1028 C1024 1.368 . S
C1028 C1027 1.523 . S
H1029 C1004 0.950 . S
H1030 C1006 0.950 . S
H1031 C1007 0.949 . S
H1032 C1009 0.950 . S
H1033 C1011 0.950 . S
C1034 C1035 1.349 . S
C1034 C1036 1.327 . S
C1034 H1059 0.950 . S
C1035 C1034 1.349 . S
C1035 C1051 1.349 . S
C1036 C1034 1.327 . S
C1036 C1055 1.429 . S
C1036 H1060 0.950 . S
C1037 C1054 1.574 . S
C1037 C1056 1.368 . S
C1037 H1061 0.949 . S
H1038 C1042 0.949 . S
C1039 C1040 1.349 . S
C1039 C1041 1.327 . S
C1039 H1062 0.950 . S
C1040 C1039 1.349 . S
C1040 C1052 1.349 . S
C1041 C1039 1.327 . S
C1041 C1057 1.429 . S
C1041 H1063 0.950 . S
C1042 H1038 0.949 . S
C1042 C1050 1.574 . S
C1042 C1058 1.368 . S
H1043 C1051 0.950 . S
H1044 C1049 0.950 . S
H1045 C1050 0.949 . S
H1046 C1052 0.950 . S
H1047 C1053 0.950 . S
H1048 C1054 0.949 . S
C1049 H1044 0.950 . S
C1049 C1051 1.327 . S
C1049 C1055 1.429 . S
C1050 C1042 1.574 . S
C1050 H1045 0.949 . S
C1050 C1056 1.368 . S
C1051 C1035 1.349 . S
C1051 H1043 0.950 . S
C1051 C1049 1.327 . S
C1052 C1040 1.349 . S
C1052 H1046 0.950 . S
C1052 C1053 1.327 . S
C1053 H1047 0.950 . S
C1053 C1052 1.327 . S
C1053 C1057 1.429 . S
C1054 C1037 1.574 . S
C1054 H1048 0.949 . S
C1054 C1058 1.368 . S
C1055 C1036 1.429 . S
C1055 C1049 1.429 . S
C1055 C1056 1.523 . S
C1056 C1037 1.368 . S
C1056 C1050 1.368 . S
C1056 C1055 1.523 . S
C1057 C1041 1.429 . S
C1057 C1053 1.429 . S
C1057 C1058 1.523 . S
C1058 C1042 1.368 . S
C1058 C1054 1.368 . S
C1058 C1057 1.523 . S
H1059 C1034 0.950 . S
H1060 C1036 0.950 . S
H1061 C1037 0.949 . S
H1062 C1039 0.950 . S
H1063 C1041 0.950 . S
C1064 C1065 1.349 . S
C1064 C1066 1.327 . S
C1064 H1089 0.950 . S
C1065 C1064 1.349 . S
C1065 C1081 1.349 . S
C1066 C1064 1.327 . S
C1066 C1085 1.429 . S
C1066 H1090 0.950 . S
C1067 C1084 1.574 1_545 S
C1067 C1086 1.368 1_554 S
C1067 H1091 0.949 . S
H1068 C1072 0.949 . S
C1069 C1070 1.349 . S
C1069 C1071 1.327 . S
C1069 H1092 0.950 . S
C1070 C1069 1.349 . S
C1070 C1082 1.349 . S
C1071 C1069 1.327 . S
C1071 C1087 1.429 . S
C1071 H1093 0.950 . S
C1072 H1068 0.949 . S
C1072 C1080 1.574 1_565 S
C1072 C1088 1.368 1_556 S
H1073 C1081 0.950 . S
H1074 C1079 0.950 1_554 S
H1075 C1080 0.949 . S
H1076 C1082 0.950 . S
H1077 C1083 0.950 1_556 S
H1078 C1084 0.949 . S
C1079 H1074 0.950 1_556 S
C1079 C1081 1.327 . S
C1079 C1085 1.429 . S
C1080 C1072 1.574 1_545 S
C1080 H1075 0.949 . S
C1080 C1086 1.368 . S
C1081 C1065 1.349 . S
C1081 H1073 0.950 . S
C1081 C1079 1.327 . S
C1082 C1070 1.349 . S
C1082 H1076 0.950 . S
C1082 C1083 1.327 . S
C1083 H1077 0.950 1_554 S
C1083 C1082 1.327 . S
C1083 C1087 1.429 . S
C1084 C1067 1.574 1_565 S
C1084 H1078 0.949 . S
C1084 C1088 1.368 . S
C1085 C1066 1.429 . S
C1085 C1079 1.429 . S
C1085 C1086 1.523 . S
C1086 C1067 1.368 1_556 S
C1086 C1080 1.368 . S
C1086 C1085 1.523 . S
C1087 C1071 1.429 . S
C1087 C1083 1.429 . S
C1087 C1088 1.523 . S
C1088 C1072 1.368 1_554 S
C1088 C1084 1.368 . S
C1088 C1087 1.523 . S
H1089 C1064 0.950 . S
H1090 C1066 0.950 . S
H1091 C1067 0.949 . S
H1092 C1069 0.950 . S
H1093 C1071 0.950 . S
C1094 C1095 1.349 . S
C1094 C1096 1.327 . S
C1094 H1119 0.950 . S
C1095 C1094 1.349 . S
C1095 C1111 1.349 . S
C1096 C1094 1.327 . S
C1096 C1115 1.429 . S
C1096 H1120 0.950 . S
C1097 C1114 1.574 1_565 S
C1097 C1116 1.368 . S
C1097 H1121 0.949 . S
H1098 C1102 0.949 . S
C1099 C1100 1.349 . S
C1099 C1101 1.327 . S
C1099 H1122 0.950 . S
C1100 C1099 1.349 . S
C1100 C1112 1.349 . S
C1101 C1099 1.327 . S
C1101 C1117 1.429 . S
C1101 H1123 0.950 . S
C1102 H1098 0.949 . S
C1102 C1110 1.574 1_545 S
C1102 C1118 1.368 . S
H1103 C1111 0.950 . S
H1104 C1109 0.950 . S
H1105 C1110 0.949 . S
H1106 C1112 0.950 . S
H1107 C1113 0.950 . S
H1108 C1114 0.949 . S
C1109 H1104 0.950 . S
C1109 C1111 1.327 . S
C1109 C1115 1.429 . S
C1110 C1102 1.574 1_565 S
C1110 H1105 0.949 . S
C1110 C1116 1.368 . S
C1111 C1095 1.349 . S
C1111 H1103 0.950 . S
C1111 C1109 1.327 . S
C1112 C1100 1.349 . S
C1112 H1106 0.950 . S
C1112 C1113 1.327 . S
C1113 H1107 0.950 . S
C1113 C1112 1.327 . S
C1113 C1117 1.429 . S
C1114 C1097 1.574 1_545 S
C1114 H1108 0.949 . S
C1114 C1118 1.368 . S
C1115 C1096 1.429 . S
C1115 C1109 1.429 . S
C1115 C1116 1.523 . S
C1116 C1097 1.368 . S
C1116 C1110 1.368 . S
C1116 C1115 1.523 . S
C1117 C1101 1.429 . S
C1117 C1113 1.429 . S
C1117 C1118 1.523 . S
C1118 C1102 1.368 . S
C1118 C1114 1.368 . S
C1118 C1117 1.523 . S
H1119 C1094 0.950 . S
H1120 C1096 0.950 . S
H1121 C1097 0.949 . S
H1122 C1099 0.950 . S
H1123 C1101 0.950 . S
C1124 C1125 1.349 . S
C1124 C1126 1.327 . S
C1124 H1149 0.950 . S
C1125 C1124 1.349 . S
C1125 C1141 1.349 . S
C1126 C1124 1.327 . S
C1126 C1145 1.429 . S
C1126 H1150 0.950 1_554 S
C1127 C1144 1.574 1_565 S
C1127 C1146 1.368 . S
C1127 H1151 0.949 . S
H1128 C1132 0.949 . S
C1129 C1130 1.349 . S
C1129 C1131 1.327 . S
C1129 H1152 0.950 . S
C1130 C1129 1.349 . S
C1130 C1142 1.349 . S
C1131 C1129 1.327 . S
C1131 C1147 1.429 . S
C1131 H1153 0.950 1_556 S
C1132 H1128 0.949 . S
C1132 C1140 1.574 1_545 S
C1132 C1148 1.368 . S
H1133 C1141 0.950 . S
H1134 C1139 0.950 . S
H1135 C1140 0.949 . S
H1136 C1142 0.950 . S
H1137 C1143 0.950 . S
H1138 C1144 0.949 . S
C1139 H1134 0.950 . S
C1139 C1141 1.327 . S
C1139 C1145 1.429 . S
C1140 C1132 1.574 1_565 S
C1140 H1135 0.949 . S
C1140 C1146 1.368 1_556 S
C1141 C1125 1.349 . S
C1141 H1133 0.950 . S
C1141 C1139 1.327 . S
C1142 C1130 1.349 . S
C1142 H1136 0.950 . S
C1142 C1143 1.327 . S
C1143 H1137 0.950 . S
C1143 C1142 1.327 . S
C1143 C1147 1.429 . S
C1144 C1127 1.574 1_545 S
C1144 H1138 0.949 . S
C1144 C1148 1.368 1_554 S
C1145 C1126 1.429 . S
C1145 C1139 1.429 . S
C1145 C1146 1.523 . S
C1146 C1127 1.368 . S
C1146 C1140 1.368 1_554 S
C1146 C1145 1.523 . S
C1147 C1131 1.429 . S
C1147 C1143 1.429 . S
C1147 C1148 1.523 . S
C1148 C1132 1.368 . S
C1148 C1144 1.368 1_556 S
C1148 C1147 1.523 . S
H1149 C1124 0.950 . S
H1150 C1126 0.950 1_556 S
H1151 C1127 0.949 . S
H1152 C1129 0.950 . S
H1153 C1131 0.950 1_554 S
C1154 C1155 1.349 . S
C1154 C1156 1.327 . S
C1154 H1179 0.950 . S
C1155 C1154 1.349 . S
C1155 C1171 1.349 . S
C1156 C1154 1.327 . S
C1156 C1175 1.429 . S
C1156 H1180 0.950 . S
C1157 C1174 1.574 1_545 S
C1157 C1176 1.368 . S
C1157 H1181 0.949 . S
H1158 C1162 0.949 . S
C1159 C1160 1.349 . S
C1159 C1161 1.327 . S
C1159 H1182 0.950 . S
C1160 C1159 1.349 . S
C1160 C1172 1.349 . S
C1161 C1159 1.327 . S
C1161 C1177 1.429 . S
C1161 H1183 0.950 . S
C1162 H1158 0.949 . S
C1162 C1170 1.574 1_565 S
C1162 C1178 1.368 . S
H1163 C1171 0.950 . S
H1164 C1169 0.950 . S
H1165 C1170 0.949 . S
H1166 C1172 0.950 . S
H1167 C1173 0.950 . S
H1168 C1174 0.949 . S
C1169 H1164 0.950 . S
C1169 C1171 1.327 . S
C1169 C1175 1.429 . S
C1170 C1162 1.574 1_545 S
C1170 H1165 0.949 . S
C1170 C1176 1.368 . S
C1171 C1155 1.349 . S
C1171 H1163 0.950 . S
C1171 C1169 1.327 . S
C1172 C1160 1.349 . S
C1172 H1166 0.950 . S
C1172 C1173 1.327 . S
C1173 H1167 0.950 . S
C1173 C1172 1.327 . S
C1173 C1177 1.429 . S
C1174 C1157 1.574 1_565 S
C1174 H1168 0.949 . S
C1174 C1178 1.368 . S
C1175 C1156 1.429 . S
C1175 C1169 1.429 . S
C1175 C1176 1.523 . S
C1176 C1157 1.368 . S
C1176 C1170 1.368 . S
C1176 C1175 1.523 . S
C1177 C1161 1.429 . S
C1177 C1173 1.429 . S
C1177 C1178 1.523 . S
C1178 C1162 1.368 . S
C1178 C1174 1.368 . S
C1178 C1177 1.523 . S
H1179 C1154 0.950 . S
H1180 C1156 0.950 . S
H1181 C1157 0.949 . S
H1182 C1159 0.950 . S
H1183 C1161 0.950 . S
C225 C9 1.463 . S
C230 C93 1.475 . S
C255 C23 1.463 . S
C260 C107 1.475 . S
C285 C65 1.475 . S
C290 C37 1.463 . S
C315 C79 1.475 . S
C320 C51 1.463 . S
C345 C205 1.475 . S
C350 C121 1.463 . S
C375 C219 1.475 . S
C380 C135 1.463 . S
C405 C149 1.463 . S
C410 C177 1.475 . S
C435 C163 1.463 . S
C440 C191 1.475 . S
C465 C8 1.597 . S
C470 C77 1.549 . S
C495 C22 1.597 . S
C500 C63 1.549 . S
C525 C36 1.597 . S
C530 C105 1.549 . S
C555 C91 1.549 . S
C560 C50 1.597 . S
C585 C189 1.549 . S
C590 C120 1.597 . S
C615 C175 1.549 . S
C620 C134 1.597 . S
C645 C148 1.597 . S
C650 C217 1.549 . S
C675 C203 1.549 . S
C680 C162 1.597 . S
C705 C174 1.540 . S
C710 C6 1.560 . S
C735 C20 1.560 . S
C740 C188 1.540 . S
C765 C202 1.540 . S
C770 C34 1.560 . S
C795 C216 1.540 . S
C800 C48 1.560 . S
C825 C118 1.560 . S
C830 C62 1.540 . S
C855 C132 1.560 . S
C860 C76 1.540 . S
C885 C90 1.540 . S
C890 C146 1.560 . S
C915 C104 1.540 . S
C920 C160 1.560 . S
C945 C35 1.076 . S
C950 C7 1.076 . S
C975 C21 1.076 . S
C980 C49 1.076 . S
C1005 C92 2.023 . S
C1010 C64 2.023 . S
C1035 C78 2.023 . S
C1040 C106 2.023 . S
C1065 C147 1.076 . S
C1070 C119 1.076 . S
C1095 C161 1.076 . S
C1100 C133 1.076 . S
C1125 C204 2.023 . S
C1130 C176 2.023 . S
C1155 C218 2.023 . S
C1160 C190 2.023 . S
