# Generated by pormake.
# Topology umd, (4)-cn, num edge types: 1
# Building blocks:
#     Node 0, Type 0, BuildingBlock: ESEHIV_clean_sbu_0, # of connection points: 4
#     Node 1, Type 0, BuildingBlock: ESEHIV_clean_sbu_0, # of connection points: 4
#     Node 2, Type 0, BuildingBlock: ESEHIV_clean_sbu_0, # of connection points: 4
#     Node 3, Type 0, BuildingBlock: ESEHIV_clean_sbu_0, # of connection points: 4
#     Node 4, Type 0, BuildingBlock: ESEHIV_clean_sbu_0, # of connection points: 4
#     Node 5, Type 0, BuildingBlock: ESEHIV_clean_sbu_0, # of connection points: 4
#     Node 6, Type 0, BuildingBlock: ESEHIV_clean_sbu_0, # of connection points: 4
#     Node 7, Type 0, BuildingBlock: ESEHIV_clean_sbu_0, # of connection points: 4
#     Node 8, Type 0, BuildingBlock: ESEHIV_clean_sbu_0, # of connection points: 4
#     Node 9, Type 0, BuildingBlock: ESEHIV_clean_sbu_0, # of connection points: 4
#     Node 10, Type 0, BuildingBlock: ESEHIV_clean_sbu_0, # of connection points: 4
#     Node 11, Type 0, BuildingBlock: ESEHIV_clean_sbu_0, # of connection points: 4
#     Node 12, Type 0, BuildingBlock: ESEHIV_clean_sbu_0, # of connection points: 4
#     Node 13, Type 0, BuildingBlock: ESEHIV_clean_sbu_0, # of connection points: 4
#     Node 14, Type 0, BuildingBlock: ESEHIV_clean_sbu_0, # of connection points: 4
#     Node 15, Type 0, BuildingBlock: ESEHIV_clean_sbu_0, # of connection points: 4
#     Edge 16, Type (0, 0), BuildingBlock: XUDNAN_clean_linker_2, # of connection points: 2
#     Edge 17, Type (0, 0), BuildingBlock: XUDNAN_clean_linker_2, # of connection points: 2
#     Edge 18, Type (0, 0), BuildingBlock: XUDNAN_clean_linker_2, # of connection points: 2
#     Edge 19, Type (0, 0), BuildingBlock: XUDNAN_clean_linker_2, # of connection points: 2
#     Edge 20, Type (0, 0), BuildingBlock: XUDNAN_clean_linker_2, # of connection points: 2
#     Edge 21, Type (0, 0), BuildingBlock: XUDNAN_clean_linker_2, # of connection points: 2
#     Edge 22, Type (0, 0), BuildingBlock: XUDNAN_clean_linker_2, # of connection points: 2
#     Edge 23, Type (0, 0), BuildingBlock: XUDNAN_clean_linker_2, # of connection points: 2
#     Edge 24, Type (0, 0), BuildingBlock: XUDNAN_clean_linker_2, # of connection points: 2
#     Edge 25, Type (0, 0), BuildingBlock: XUDNAN_clean_linker_2, # of connection points: 2
#     Edge 26, Type (0, 0), BuildingBlock: XUDNAN_clean_linker_2, # of connection points: 2
#     Edge 27, Type (0, 0), BuildingBlock: XUDNAN_clean_linker_2, # of connection points: 2
#     Edge 28, Type (0, 0), BuildingBlock: XUDNAN_clean_linker_2, # of connection points: 2
#     Edge 29, Type (0, 0), BuildingBlock: XUDNAN_clean_linker_2, # of connection points: 2
#     Edge 30, Type (0, 0), BuildingBlock: XUDNAN_clean_linker_2, # of connection points: 2
#     Edge 31, Type (0, 0), BuildingBlock: XUDNAN_clean_linker_2, # of connection points: 2
#     Edge 32, Type (0, 0), BuildingBlock: XUDNAN_clean_linker_2, # of connection points: 2
#     Edge 33, Type (0, 0), BuildingBlock: XUDNAN_clean_linker_2, # of connection points: 2
#     Edge 34, Type (0, 0), BuildingBlock: XUDNAN_clean_linker_2, # of connection points: 2
#     Edge 35, Type (0, 0), BuildingBlock: XUDNAN_clean_linker_2, # of connection points: 2
#     Edge 36, Type (0, 0), BuildingBlock: XUDNAN_clean_linker_2, # of connection points: 2
#     Edge 37, Type (0, 0), BuildingBlock: XUDNAN_clean_linker_2, # of connection points: 2
#     Edge 38, Type (0, 0), BuildingBlock: XUDNAN_clean_linker_2, # of connection points: 2
#     Edge 39, Type (0, 0), BuildingBlock: XUDNAN_clean_linker_2, # of connection points: 2
#     Edge 40, Type (0, 0), BuildingBlock: XUDNAN_clean_linker_2, # of connection points: 2
#     Edge 41, Type (0, 0), BuildingBlock: XUDNAN_clean_linker_2, # of connection points: 2
#     Edge 42, Type (0, 0), BuildingBlock: XUDNAN_clean_linker_2, # of connection points: 2
#     Edge 43, Type (0, 0), BuildingBlock: XUDNAN_clean_linker_2, # of connection points: 2
#     Edge 44, Type (0, 0), BuildingBlock: XUDNAN_clean_linker_2, # of connection points: 2
#     Edge 45, Type (0, 0), BuildingBlock: XUDNAN_clean_linker_2, # of connection points: 2
#     Edge 46, Type (0, 0), BuildingBlock: XUDNAN_clean_linker_2, # of connection points: 2
#     Edge 47, Type (0, 0), BuildingBlock: XUDNAN_clean_linker_2, # of connection points: 2
# Relax obj value: 0.041
# Max RMSD: 0.125
# Mean RMSD: 0.125
data_MOF--net-umd--node1-ESEHIV_clean_sbu_0--edge1-XUDNAN_clean_linker_2
_symmetry_space_group_name_H-M    P1
_symmetry_Int_Tables_number       1
_symmetry_cell_setting            triclinic
loop_
_symmetry_equiv_pos_as_xyz
'x, y, z'
_cell_length_a     47.748493
_cell_length_b     47.483274
_cell_length_c     55.714214
_cell_angle_alpha  89.945115
_cell_angle_beta   90.153728
_cell_angle_gamma 90.006631
loop_
_atom_site_label
_atom_site_type_symbol
_atom_site_fract_x
_atom_site_fract_y
_atom_site_fract_z
_atom_type_partial_charge
Cu0 Cu 0.18077 0.45367 0.15568 0.0
N1 N 0.14177 0.45551 0.15578 0.0
N2 N 0.09908 0.47443 0.15284 0.0
C3 C 0.12692 0.47935 0.15317 0.0
C4 C 0.09635 0.44629 0.15545 0.0
C5 C 0.12278 0.43464 0.15717 0.0
O6 O 0.19483 0.48055 0.17927 0.0
C7 C 0.18364 0.44378 0.10723 0.0
O8 O 0.16833 0.42248 0.1146 0.0
H9 H 0.13653 0.49991 0.15158 0.0
H10 H 0.12777 0.41252 0.15882 0.0
N11 N 0.19326 0.41789 0.16451 0.0
N12 N 0.22088 0.3799 0.16688 0.0
C13 C 0.21609 0.40483 0.15584 0.0
C14 C 0.1831 0.40074 0.18161 0.0
C15 C 0.20003 0.3773 0.1831 0.0
C16 C 0.184 0.47945 0.20015 0.0
O17 O 0.16415 0.46091 0.20423 0.0
H18 H 0.22892 0.41373 0.14179 0.0
H19 H 0.165 0.40521 0.19259 0.0
O20 O 0.19265 0.46122 0.12281 0.0
H21 H 0.07676 0.43483 0.15548 0.0
H22 H 0.19752 0.36015 0.1957 0.0
Cu23 Cu 0.60263 0.18768 0.65592 0.0
N24 N 0.60608 0.1485 0.6551 0.0
N25 N 0.59521 0.10289 0.65167 0.0
C26 C 0.5853 0.12953 0.65257 0.0
C27 C 0.62329 0.10532 0.65376 0.0
C28 C 0.62991 0.13343 0.65583 0.0
O29 O 0.57484 0.19814 0.6797 0.0
C30 C 0.61039 0.19388 0.60739 0.0
O31 O 0.63378 0.18121 0.61361 0.0
H32 H 0.56346 0.13528 0.65085 0.0
H33 H 0.6507 0.14228 0.65741 0.0
N34 N 0.63674 0.20378 0.66503 0.0
N35 N 0.67377 0.23251 0.66709 0.0
C36 C 0.64963 0.2264 0.65546 0.0
C37 C 0.65318 0.19536 0.68331 0.0
C38 C 0.67602 0.21295 0.6846 0.0
C39 C 0.57525 0.1855 0.69987 0.0
O40 O 0.59364 0.16534 0.70342 0.0
H41 H 0.6412 0.23837 0.64057 0.0
H42 H 0.64885 0.17761 0.69489 0.0
O43 O 0.59278 0.1999 0.6237 0.0
H44 H 0.63807 0.08804 0.65386 0.0
H45 H 0.6931 0.21123 0.69732 0.0
Cu46 Cu 0.8478 0.59551 0.15727 0.0
N47 N 0.88655 0.60097 0.15717 0.0
N48 N 0.93247 0.59321 0.15386 0.0
C49 C 0.90671 0.58145 0.15423 0.0
C50 C 0.9283 0.6211 0.15676 0.0
C51 C 0.89999 0.62581 0.15883 0.0
O52 O 0.83815 0.56718 0.18125 0.0
C53 C 0.8469 0.59859 0.10727 0.0
O54 O 0.86574 0.61803 0.11179 0.0
H55 H 0.9025 0.55923 0.15179 0.0
H56 H 0.88986 0.64601 0.16093 0.0
N57 N 0.83059 0.62903 0.16641 0.0
N58 N 0.80147 0.66583 0.16766 0.0
C59 C 0.80925 0.64248 0.15549 0.0
C60 C 0.8365 0.64427 0.18611 0.0
C61 C 0.81865 0.66696 0.18692 0.0
C62 C 0.85074 0.56757 0.20147 0.0
O63 O 0.87083 0.58602 0.20497 0.0
H64 H 0.7997 0.63522 0.13898 0.0
H65 H 0.85254 0.63908 0.19911 0.0
O66 O 0.8356 0.58561 0.1248 0.0
H67 H 0.94456 0.63697 0.15736 0.0
H68 H 0.81796 0.68264 0.20099 0.0
Cu69 Cu 0.4326 0.86737 0.64879 0.0
N70 N 0.43834 0.90629 0.64789 0.0
N71 N 0.46185 0.94695 0.64601 0.0
C72 C 0.46369 0.9186 0.64717 0.0
C73 C 0.43415 0.95267 0.64609 0.0
C74 C 0.41968 0.92752 0.64717 0.0
O75 O 0.45275 0.85275 0.67644 0.0
C76 C 0.43689 0.86392 0.59951 0.0
O77 O 0.42047 0.88597 0.60162 0.0
H78 H 0.48309 0.90684 0.64759 0.0
H79 H 0.39719 0.92492 0.64699 0.0
N80 N 0.39496 0.85783 0.65243 0.0
N81 N 0.35678 0.83063 0.65246 0.0
C82 C 0.38325 0.8338 0.64447 0.0
C83 C 0.37522 0.87041 0.66587 0.0
C84 C 0.35161 0.85367 0.66592 0.0
C85 C 0.4479 0.86445 0.69658 0.0
O86 O 0.43007 0.88549 0.69738 0.0
H87 H 0.39452 0.81822 0.63412 0.0
H88 H 0.37813 0.88978 0.67575 0.0
O89 O 0.44542 0.8516 0.61849 0.0
H90 H 0.42497 0.97346 0.64484 0.0
H91 H 0.33237 0.85783 0.67552 0.0
Cu92 Cu 0.18361 0.60118 0.39324 0.0
N93 N 0.14565 0.59604 0.39983 0.0
N94 N 0.10254 0.57789 0.39997 0.0
C95 C 0.12722 0.57935 0.38825 0.0
C96 C 0.10553 0.59437 0.41952 0.0
C97 C 0.13212 0.6056 0.41934 0.0
O98 O 0.19239 0.58049 0.36397 0.0
C99 C 0.19569 0.56818 0.43427 0.0
O100 O 0.17477 0.5527 0.42645 0.0
H101 H 0.13227 0.56738 0.37231 0.0
H102 H 0.14139 0.61892 0.43295 0.0
N103 N 0.19029 0.63974 0.38971 0.0
N104 N 0.21168 0.68152 0.39112 0.0
C105 C 0.215 0.65331 0.39166 0.0
C106 C 0.17078 0.6601 0.3879 0.0
C107 C 0.18392 0.68593 0.38884 0.0
C108 C 0.21144 0.58735 0.34911 0.0
O109 O 0.22795 0.60869 0.35404 0.0
H110 H 0.23487 0.64278 0.3944 0.0
H111 H 0.14847 0.65641 0.38673 0.0
O112 O 0.20434 0.58856 0.4214 0.0
H113 H 0.08979 0.59761 0.43319 0.0
H114 H 0.17389 0.70637 0.38812 0.0
Cu115 Cu 0.44242 0.17345 0.88523 0.0
N116 N 0.44455 0.13416 0.88777 0.0
N117 N 0.46285 0.09082 0.88603 0.0
C118 C 0.46386 0.1174 0.87738 0.0
C119 C 0.44205 0.09081 0.90236 0.0
C120 C 0.43076 0.11753 0.90334 0.0
O121 O 0.46767 0.18436 0.85954 0.0
C122 C 0.43447 0.18883 0.93271 0.0
O123 O 0.40938 0.17923 0.92752 0.0
H124 H 0.47942 0.12491 0.86481 0.0
H125 H 0.41447 0.12461 0.91535 0.0
N126 N 0.40599 0.18554 0.87762 0.0
N127 N 0.36876 0.21396 0.87384 0.0
C128 C 0.39575 0.21171 0.88093 0.0
C129 C 0.38467 0.17058 0.86826 0.0
C130 C 0.36166 0.18804 0.86594 0.0
C131 C 0.46595 0.20729 0.84777 0.0
O132 O 0.44783 0.22653 0.85439 0.0
H133 H 0.40785 0.22869 0.88873 0.0
H134 H 0.38582 0.14856 0.86343 0.0
O135 O 0.4531 0.18892 0.91638 0.0
H136 H 0.43591 0.07293 0.9132 0.0
H137 H 0.34147 0.18223 0.85858 0.0
Cu138 Cu 0.85408 0.44327 0.39324 0.0
N139 N 0.89298 0.44292 0.39647 0.0
N140 N 0.93741 0.45743 0.39543 0.0
C141 C 0.91142 0.46073 0.38625 0.0
C142 C 0.93527 0.43668 0.41187 0.0
C143 C 0.90783 0.42768 0.41239 0.0
O144 O 0.84484 0.46767 0.3662 0.0
C145 C 0.85163 0.47193 0.43762 0.0
O146 O 0.87457 0.48392 0.42961 0.0
H147 H 0.90557 0.47697 0.37354 0.0
H148 H 0.89899 0.41212 0.42437 0.0
N149 N 0.8422 0.40664 0.38664 0.0
N150 N 0.81608 0.36756 0.38499 0.0
C151 C 0.81834 0.39404 0.39375 0.0
C152 C 0.85559 0.38756 0.37305 0.0
C153 C 0.83956 0.36346 0.37198 0.0
C154 C 0.82393 0.46331 0.35246 0.0
O155 O 0.80599 0.44337 0.35796 0.0
H156 H 0.80269 0.40442 0.40462 0.0
H157 H 0.87556 0.39105 0.36442 0.0
O158 O 0.83817 0.45521 0.42392 0.0
H159 H 0.95215 0.42916 0.42319 0.0
H160 H 0.84496 0.34435 0.3625 0.0
Cu161 Cu 0.58584 0.84125 0.8841 0.0
N162 N 0.59438 0.87981 0.88481 0.0
N163 N 0.58496 0.92597 0.883 0.0
C164 C 0.58027 0.9004 0.8732 0.0
C165 C 0.60302 0.92144 0.90124 0.0
C166 C 0.60889 0.89301 0.90223 0.0
O167 O 0.55906 0.83415 0.8586 0.0
C168 C 0.58874 0.82613 0.9325 0.0
O169 O 0.61555 0.827 0.92755 0.0
H170 H 0.56482 0.89651 0.85938 0.0
H171 H 0.62087 0.88246 0.91606 0.0
N172 N 0.61624 0.81796 0.87593 0.0
N173 N 0.65662 0.79396 0.87428 0.0
C174 C 0.64356 0.81741 0.88248 0.0
C175 C 0.61238 0.79459 0.86271 0.0
C176 C 0.63703 0.77986 0.86163 0.0
C177 C 0.53485 0.84452 0.85517 0.0
O178 O 0.52408 0.86181 0.87106 0.0
H179 H 0.65327 0.83303 0.89393 0.0
H180 H 0.59257 0.78821 0.85499 0.0
O181 O 0.57122 0.83101 0.91573 0.0
H182 H 0.61 0.93727 0.91389 0.0
H183 H 0.64013 0.76001 0.85249 0.0
Cu184 Cu 0.86904 0.61376 0.89223 0.0
N185 N 0.90803 0.61231 0.89494 0.0
N186 N 0.95105 0.59459 0.8999 0.0
C187 C 0.92472 0.58964 0.89198 0.0
C188 C 0.95089 0.62135 0.90801 0.0
C189 C 0.92437 0.63216 0.905 0.0
O190 O 0.85831 0.59196 0.86408 0.0
C191 C 0.8315 0.59669 0.93168 0.0
O192 O 0.80952 0.59943 0.91765 0.0
H193 H 0.91725 0.56938 0.88575 0.0
H194 H 0.9171 0.65253 0.91103 0.0
N195 N 0.85793 0.65121 0.88731 0.0
N196 N 0.83272 0.69096 0.88589 0.0
C197 C 0.83316 0.66349 0.89242 0.0
C198 C 0.87347 0.6715 0.87698 0.0
C199 C 0.85809 0.696 0.8762 0.0
C200 C 0.84353 0.56971 0.86297 0.0
O201 O 0.83328 0.55876 0.88273 0.0
H202 H 0.81585 0.65256 0.90075 0.0
H203 H 0.89445 0.66855 0.87017 0.0
O204 O 0.85597 0.60066 0.92335 0.0
H205 H 0.96845 0.63198 0.91635 0.0
H206 H 0.86481 0.71579 0.86846 0.0
Cu207 Cu 0.43621 0.86106 0.38254 0.0
N208 N 0.42856 0.89934 0.38 0.0
N209 N 0.43669 0.94569 0.37914 0.0
C210 C 0.44796 0.91979 0.38174 0.0
C211 C 0.40901 0.94124 0.37565 0.0
C212 C 0.40407 0.91257 0.37615 0.0
O213 O 0.46568 0.85419 0.35948 0.0
C214 C 0.44965 0.83085 0.42635 0.0
O215 O 0.44775 0.80736 0.41403 0.0
H216 H 0.46988 0.91562 0.38521 0.0
H217 H 0.38412 0.90212 0.37382 0.0
N218 N 0.40518 0.83967 0.37335 0.0
N219 N 0.36792 0.81127 0.37369 0.0
C220 C 0.38536 0.82737 0.38703 0.0
C221 C 0.39986 0.8313 0.35073 0.0
C222 C 0.37698 0.81371 0.35089 0.0
C223 C 0.47315 0.83008 0.35197 0.0
O224 O 0.46358 0.80731 0.36254 0.0
H225 H 0.38431 0.82942 0.40635 0.0
H226 H 0.41221 0.83714 0.33526 0.0
O227 O 0.4464 0.85439 0.4158 0.0
H228 H 0.39346 0.95745 0.37266 0.0
H229 H 0.36769 0.80348 0.33544 0.0
Cu230 Cu 0.18362 0.43497 0.88185 0.0
N231 N 0.14455 0.43808 0.87942 0.0
N232 N 0.10188 0.457 0.88391 0.0
C233 C 0.12866 0.45636 0.89187 0.0
C234 C 0.10094 0.43809 0.86582 0.0
C235 C 0.12728 0.42658 0.86303 0.0
O236 O 0.20072 0.45723 0.85618 0.0
C237 C 0.18438 0.43227 0.93109 0.0
O238 O 0.16871 0.41044 0.9256 0.0
H239 H 0.13721 0.47027 0.9054 0.0
H240 H 0.13367 0.41188 0.84928 0.0
N241 N 0.19533 0.39752 0.8781 0.0
N242 N 0.22375 0.35996 0.87574 0.0
C243 C 0.222 0.38823 0.87878 0.0
C244 C 0.17954 0.37443 0.87464 0.0
C245 C 0.19693 0.35132 0.87311 0.0
C246 C 0.18774 0.47726 0.8457 0.0
O247 O 0.16332 0.48535 0.85397 0.0
H248 H 0.23964 0.40206 0.88181 0.0
H249 H 0.15695 0.3743 0.87345 0.0
O250 O 0.19423 0.44716 0.91404 0.0
H251 H 0.08279 0.43342 0.85486 0.0
H252 H 0.19016 0.32988 0.87007 0.0
Cu253 Cu 0.59727 0.18349 0.38347 0.0
N254 N 0.59156 0.14459 0.38289 0.0
N255 N 0.56753 0.10411 0.38303 0.0
C256 C 0.56616 0.13246 0.38134 0.0
C257 C 0.59507 0.09823 0.38562 0.0
C258 C 0.60983 0.12326 0.38561 0.0
O259 O 0.57439 0.19942 0.35801 0.0
C260 C 0.6038 0.18758 0.43191 0.0
O261 O 0.62494 0.17139 0.42582 0.0
H262 H 0.54703 0.14443 0.37922 0.0
H263 H 0.63216 0.12575 0.38811 0.0
N264 N 0.63457 0.19372 0.37808 0.0
N265 N 0.67338 0.22008 0.37915 0.0
C266 C 0.64633 0.2178 0.38587 0.0
C267 C 0.65483 0.18019 0.36593 0.0
C268 C 0.67881 0.19645 0.36651 0.0
C269 C 0.58012 0.19082 0.33693 0.0
O270 O 0.60083 0.17291 0.33419 0.0
H271 H 0.63501 0.23354 0.39599 0.0
H272 H 0.65233 0.16003 0.35717 0.0
O273 O 0.58738 0.19633 0.41547 0.0
H274 H 0.60389 0.07745 0.38817 0.0
H275 H 0.69873 0.19112 0.35849 0.0
Cu276 Cu 0.85486 0.4541 0.66216 0.0
N277 N 0.894 0.45801 0.66309 0.0
N278 N 0.93659 0.4767 0.65783 0.0
C279 C 0.90875 0.47993 0.65439 0.0
C280 C 0.93946 0.45161 0.66895 0.0
C281 C 0.91322 0.44011 0.67207 0.0
O282 O 0.83863 0.47504 0.6889 0.0
C283 C 0.85601 0.45815 0.61233 0.0
O284 O 0.879 0.44352 0.61586 0.0
H285 H 0.89911 0.49806 0.64597 0.0
H286 H 0.90869 0.41996 0.68015 0.0
N287 N 0.84462 0.41667 0.66741 0.0
N288 N 0.819 0.3772 0.66732 0.0
C289 C 0.82404 0.40213 0.65636 0.0
C290 C 0.85275 0.4005 0.68599 0.0
C291 C 0.83726 0.3761 0.68585 0.0
C292 C 0.84892 0.49749 0.6978 0.0
O293 O 0.8697 0.51007 0.68675 0.0
H294 H 0.81183 0.41051 0.6416 0.0
H295 H 0.86772 0.40672 0.69957 0.0
O296 O 0.84134 0.46543 0.63039 0.0
H297 H 0.95911 0.44201 0.67416 0.0
H298 H 0.83875 0.35929 0.69892 0.0
Cu299 Cu 0.58913 0.85681 0.15324 0.0
N300 N 0.58793 0.8961 0.15099 0.0
N301 N 0.57349 0.9407 0.15369 0.0
C302 C 0.57267 0.91479 0.16366 0.0
C303 C 0.59019 0.93837 0.13434 0.0
C304 C 0.59916 0.91093 0.1328 0.0
O305 O 0.56943 0.84275 0.18122 0.0
C306 C 0.59129 0.83968 0.1054 0.0
O307 O 0.61759 0.84697 0.10839 0.0
H308 H 0.55987 0.90931 0.17893 0.0
H309 H 0.61179 0.90203 0.11864 0.0
N310 N 0.62615 0.84515 0.15701 0.0
N311 N 0.66353 0.8169 0.15743 0.0
C312 C 0.63544 0.81853 0.155 0.0
C313 C 0.649 0.861 0.16111 0.0
C314 C 0.67214 0.8436 0.16141 0.0
C315 C 0.5448 0.84911 0.18788 0.0
O316 O 0.5293 0.86585 0.17459 0.0
H317 H 0.62176 0.8008 0.15158 0.0
H318 H 0.64888 0.88363 0.16326 0.0
O319 O 0.57447 0.84177 0.12304 0.0
H320 H 0.59457 0.95507 0.12164 0.0
H321 H 0.69366 0.85025 0.1637 0.0
Cu322 Cu 0.18665 0.59803 0.65227 0.0
N323 N 0.14862 0.60304 0.64602 0.0
N324 N 0.10296 0.59462 0.64084 0.0
C325 C 0.12777 0.58415 0.64846 0.0
C326 C 0.1085 0.62117 0.63357 0.0
C327 C 0.13665 0.62628 0.63678 0.0
O328 O 0.19092 0.57175 0.67873 0.0
C329 C 0.19385 0.56836 0.60863 0.0
O330 O 0.17136 0.55475 0.61564 0.0
H331 H 0.13098 0.56288 0.65491 0.0
H332 H 0.14775 0.64545 0.63239 0.0
N333 N 0.20132 0.63265 0.66165 0.0
N334 N 0.22708 0.672 0.66262 0.0
C335 C 0.2231 0.64665 0.65204 0.0
C336 C 0.19112 0.64951 0.67889 0.0
C337 C 0.20691 0.67376 0.67954 0.0
C338 C 0.21463 0.56451 0.68718 0.0
O339 O 0.23754 0.57325 0.67651 0.0
H340 H 0.23564 0.6383 0.63756 0.0
H341 H 0.1731 0.64468 0.68987 0.0
O342 O 0.20481 0.58647 0.62264 0.0
H343 H 0.09334 0.6359 0.6264 0.0
H344 H 0.20322 0.69157 0.69121 0.0
Cu345 Cu 0.43125 0.18539 0.15488 0.0
N346 N 0.43206 0.14607 0.1544 0.0
N347 N 0.44787 0.10198 0.15744 0.0
C348 C 0.45064 0.12876 0.16516 0.0
C349 C 0.42668 0.10237 0.14141 0.0
C350 C 0.4169 0.12956 0.13965 0.0
O351 O 0.45318 0.19945 0.18158 0.0
C352 C 0.42699 0.1982 0.10636 0.0
O353 O 0.40108 0.19044 0.11066 0.0
H354 H 0.467 0.13585 0.17719 0.0
H355 H 0.40078 0.13703 0.12757 0.0
N356 N 0.3947 0.19802 0.15958 0.0
N357 N 0.35804 0.22727 0.16056 0.0
C358 C 0.38599 0.22483 0.15742 0.0
C359 C 0.37163 0.18285 0.16446 0.0
C360 C 0.34896 0.20083 0.16508 0.0
C361 C 0.47945 0.19636 0.18411 0.0
O362 O 0.49391 0.18403 0.16706 0.0
H363 H 0.40004 0.24208 0.15347 0.0
H364 H 0.37125 0.16027 0.16694 0.0
O365 O 0.44451 0.19842 0.12366 0.0
H366 H 0.41951 0.08446 0.13108 0.0
H367 H 0.32742 0.19469 0.16799 0.0
H368 H 0.04486 0.47054 0.16784 0.0
H369 H 0.1033 0.52507 0.13042 0.0
H370 H 0.06647 0.56096 0.12606 0.0
H371 H 0.98383 0.48859 0.13163 0.0
H372 H 0.96008 0.4873 0.1567 0.0
H373 H 0.99095 0.46549 0.15661 0.0
H374 H 1.00623 0.48676 0.19741 0.0
H375 H 0.97544 0.50865 0.19761 0.0
H376 H 1.00964 0.52442 0.2003 0.0
H377 H 0.02407 0.59154 0.12672 0.0
H378 H 0.9782 0.61464 0.13182 0.0
H379 H 0.94667 0.54023 0.16802 0.0
C380 C 0.04984 0.48986 0.15848 0.0
C381 C 0.07713 0.49498 0.14964 0.0
C382 C 0.08279 0.52078 0.13776 0.0
C383 C 0.06193 0.54125 0.13501 0.0
C384 C 0.0354 0.53563 0.14412 0.0
C385 C 0.02921 0.51055 0.15552 0.0
C386 C 0.99906 0.51007 0.16398 0.0
C387 C 0.98251 0.48646 0.15148 0.0
C388 C 0.99752 0.50732 0.19146 0.0
C389 C 0.98938 0.53887 0.15566 0.0
C390 C 1.01071 0.55323 0.14425 0.0
C391 C 1.00716 0.58049 0.13555 0.0
C392 C 0.9811 0.5935 0.13867 0.0
C393 C 0.9589 0.57925 0.15033 0.0
C394 C 0.96314 0.55148 0.15877 0.0
H395 H 0.46237 1.00179 0.66059 0.0
H396 H 0.51344 0.93703 0.62746 0.0
H397 H 0.553 0.97019 0.62524 0.0
H398 H 0.48912 0.06007 0.62541 0.0
H399 H 0.48824 0.08459 0.65008 0.0
H400 H 0.46372 0.05578 0.64902 0.0
H401 H 0.48017 0.03943 0.69115 0.0
H402 H 0.50475 0.06817 0.69233 0.0
H403 H 0.51682 0.03251 0.69633 0.0
H404 H 0.58713 1.01003 0.62676 0.0
H405 H 0.61367 0.05411 0.63184 0.0
H406 H 0.54074 0.09335 0.664 0.0
C407 C 0.48177 0.99466 0.65266 0.0
C408 C 0.48476 0.96668 0.64432 0.0
C409 C 0.51069 0.95814 0.63435 0.0
C410 C 0.53327 0.9769 0.63285 0.0
C411 C 0.52965 1.0042 0.64136 0.0
C412 C 0.50458 1.01313 0.65105 0.0
C413 C 0.50641 0.04357 0.65912 0.0
C414 C 0.48564 0.06209 0.64507 0.0
C415 C 0.50177 0.04605 0.68635 0.0
C416 C 0.53643 0.05031 0.65245 0.0
C417 C 0.54942 0.02728 0.64223 0.0
C418 C 0.57721 0.0282 0.63478 0.0
C419 C 0.59218 0.05332 0.6379 0.0
C420 C 0.5794 0.07726 0.64841 0.0
C421 C 0.55107 0.0756 0.65568 0.0
H422 H 0.07006 0.549 0.43116 0.0
H423 H 0.08175 0.56708 0.35564 0.0
H424 H 0.04027 0.53774 0.34579 0.0
H425 H 0.04968 0.4765 0.4233 0.0
H426 H 0.02474 0.47717 0.44752 0.0
H427 H 0.0549 0.49993 0.44836 0.0
H428 H 0.0225 0.54334 0.45325 0.0
H429 H 0.99224 0.52071 0.45245 0.0
H430 H 0.99512 0.54956 0.43154 0.0
H431 H 0.9957 0.50821 0.34482 0.0
H432 H 0.9544 0.47776 0.35246 0.0
H433 H 0.97425 0.47707 0.42835 0.0
C434 C 0.06374 0.5469 0.41258 0.0
C435 C 0.07882 0.56047 0.39413 0.0
C436 C 0.07039 0.55678 0.36996 0.0
C437 C 0.04686 0.54028 0.36426 0.0
C438 C 0.03233 0.52728 0.38294 0.0
C439 C 0.04069 0.53015 0.40658 0.0
C440 C 0.02208 0.51344 0.4233 0.0
C441 C 0.03886 0.49039 0.43638 0.0
C442 C 1.0071 0.53293 0.44118 0.0
C443 C 1.00172 0.50088 0.40543 0.0
C444 C 1.00775 0.5093 0.38225 0.0
C445 C 0.991 0.50126 0.36287 0.0
C446 C 0.9676 0.48409 0.36734 0.0
C447 C 0.96148 0.47484 0.3909 0.0
C448 C 0.97884 0.48337 0.4101 0.0
H449 H 0.55963 0.95892 0.9161 0.0
H450 H 0.57327 0.94918 0.83979 0.0
H451 H 0.54442 0.99177 0.83196 0.0
H452 H 0.48774 0.97888 0.91091 0.0
H453 H 0.48885 1.00322 0.9357 0.0
H454 H 0.51219 0.97345 0.93519 0.0
H455 H 0.55481 1.00686 0.93963 0.0
H456 H 0.53158 0.03674 0.94023 0.0
H457 H 0.55941 0.03523 0.91847 0.0
H458 H 0.5146 0.0364 0.83299 0.0
H459 H 0.48286 0.07629 0.84234 0.0
H460 H 0.48579 0.05402 0.91769 0.0
C461 C 0.55688 0.96609 0.89779 0.0
C462 C 0.56905 0.95122 0.87851 0.0
C463 C 0.56428 0.96057 0.85473 0.0
C464 C 0.548 0.98469 0.85018 0.0
C465 C 0.5362 0.99889 0.86963 0.0
C466 C 0.54017 0.98969 0.89295 0.0
C467 C 0.5238 1.00752 0.91057 0.0
C468 C 0.50185 0.9897 0.92387 0.0
C469 C 0.54359 0.02247 0.92827 0.0
C470 C 0.51007 0.0283 0.89358 0.0
C471 C 0.51776 0.02327 0.87007 0.0
C472 C 0.50829 0.04035 0.85132 0.0
C473 C 0.49037 0.06296 0.85676 0.0
C474 C 0.48168 0.06796 0.88065 0.0
C475 C 0.49174 0.05035 0.89922 0.0
H476 H 0.96605 0.5537 0.86822 0.0
H477 H 0.98708 0.59036 0.93717 0.0
H478 H 0.02648 0.55708 0.94145 0.0
H479 H 0.98418 0.48088 0.88311 0.0
H480 H 0.99901 0.47368 0.85404 0.0
H481 H 0.9713 0.4992 0.85696 0.0
H482 H 1.00244 0.53692 0.83659 0.0
H483 H 0.03019 0.51151 0.83356 0.0
H484 H 0.03666 0.54436 0.84879 0.0
H485 H 0.06387 0.52051 0.93813 0.0
H486 H 0.09868 0.48491 0.92645 0.0
H487 H 0.0552 0.47315 0.85859 0.0
C488 C 0.97882 0.55441 0.8843 0.0
C489 C 0.97356 0.57458 0.90239 0.0
C490 C 0.99093 0.57525 0.92303 0.0
C491 C 1.01322 0.55631 0.92569 0.0
C492 C 0.01804 0.53686 0.90747 0.0
C493 C 1.00148 0.53584 0.88709 0.0
C494 C 1.01224 0.51384 0.86965 0.0
C495 C 0.99038 0.49052 0.86572 0.0
C496 C 0.0209 0.52748 0.84574 0.0
C497 C 0.0375 0.50286 0.88337 0.0
C498 C 0.04023 0.51623 0.90524 0.0
C499 C 0.06203 0.50996 0.921 0.0
C500 C 0.08186 0.48977 0.91409 0.0
C501 C 0.08006 0.47621 0.89147 0.0
C502 C 0.05724 0.48275 0.87609 0.0
H503 H 0.56862 0.048 0.37224 0.0
H504 H 0.51339 0.11556 0.39484 0.0
H505 H 0.47372 0.08252 0.39527 0.0
H506 H 0.51915 1.01248 0.33386 0.0
H507 H 0.53082 0.9777 0.34217 0.0
H508 H 0.55494 1.00685 0.34308 0.0
H509 H 0.5659 0.99601 0.38772 0.0
H510 H 0.54182 0.96683 0.38694 0.0
H511 H 0.53759 0.99421 0.40902 0.0
H512 H 0.4399 0.04195 0.39383 0.0
H513 H 0.41478 0.99664 0.39115 0.0
H514 H 0.49191 0.95543 0.36973 0.0
C515 C 0.54826 0.05588 0.3774 0.0
C516 C 0.54428 0.08458 0.38333 0.0
C517 C 0.51708 0.09391 0.38977 0.0
C518 C 0.49435 0.07522 0.39023 0.0
C519 C 0.49903 0.04716 0.38425 0.0
C520 C 0.52531 0.03749 0.37799 0.0
C521 C 0.52471 1.00621 0.37259 0.0
C522 C 0.53289 1.00049 0.34636 0.0
C523 C 0.54362 0.98986 0.39012 0.0
C524 C 0.49403 0.99983 0.37693 0.0
C525 C 0.47957 0.02375 0.38356 0.0
C526 C 0.45099 0.02308 0.38857 0.0
C527 C 0.43685 0.99724 0.38687 0.0
C528 C 0.45126 0.97234 0.38025 0.0
C529 C 0.48026 0.97389 0.37514 0.0
H530 H 0.98802 0.48184 0.6787 0.0
H531 H 0.93512 0.51589 0.62221 0.0
H532 H 0.97214 0.54997 0.61181 0.0
H533 H 0.01813 0.54707 0.69742 0.0
H534 H 0.0524 0.53248 0.70296 0.0
H535 H 0.0218 0.5106 0.70589 0.0
H536 H 0.04264 0.4751 0.67549 0.0
H537 H 0.07334 0.49686 0.6725 0.0
H538 H 0.05333 0.48732 0.64626 0.0
H539 H 1.01476 0.58058 0.60772 0.0
H540 H 0.06015 0.60516 0.60989 0.0
H541 H 0.08544 0.55101 0.6689 0.0
C542 C 0.98428 0.49621 0.66396 0.0
C543 C 0.95853 0.49617 0.65134 0.0
C544 C 0.95443 0.51573 0.63241 0.0
C545 C 0.97542 0.53507 0.62625 0.0
C546 C 1.00044 0.5346 0.63916 0.0
C547 C 1.005 0.51565 0.65758 0.0
C548 C 0.03371 0.51967 0.66872 0.0
C549 C 0.03135 0.52795 0.69532 0.0
C550 C 0.05182 0.49316 0.66554 0.0
C551 C 0.04458 0.54389 0.65368 0.0
C552 C 0.02505 0.55219 0.63676 0.0
C553 C 0.0302 0.57429 0.62093 0.0
C554 C 0.05601 0.58826 0.62242 0.0
C555 C 0.07643 0.58013 0.63961 0.0
C556 C 0.07048 0.55757 0.65539 0.0
H557 H 0.46916 0.06593 0.12488 0.0
H558 H 0.46922 0.0865 0.20055 0.0
H559 H 0.50149 0.04646 0.20852 0.0
H560 H 0.47184 0.99066 0.13038 0.0
H561 H 0.49515 0.98632 0.10526 0.0
H562 H 0.47142 1.01577 0.10608 0.0
H563 H 0.5132 0.05012 0.10095 0.0
H564 H 0.53706 0.02078 0.10016 0.0
H565 H 0.54212 0.04854 0.12178 0.0
H566 H 0.5324 1.00236 0.20782 0.0
H567 H 0.56262 0.9613 0.19804 0.0
H568 H 0.54438 0.97287 0.12253 0.0
C569 C 0.47576 0.06177 0.14314 0.0
C570 C 0.4665 0.07886 0.16221 0.0
C571 C 0.47611 0.07341 0.18581 0.0
C572 C 0.4943 0.05074 0.19044 0.0
C573 C 0.50301 0.03417 0.17117 0.0
C574 C 0.4943 0.03972 0.14795 0.0
C575 C 0.50756 1.01974 0.13019 0.0
C576 C 0.48515 1.00208 0.11722 0.0
C577 C 0.52609 0.03576 0.11222 0.0
C578 C 0.52495 1.00186 0.147 0.0
C579 C 0.52187 1.01019 0.17062 0.0
C580 C 0.53519 0.99589 0.18936 0.0
C581 C 0.5522 0.97265 0.18372 0.0
C582 C 0.55607 0.96438 0.15957 0.0
C583 C 0.54222 0.97921 0.14109 0.0
H584 H 0.17852 0.5443 0.33202 0.0
H585 H 0.24858 0.59791 0.31265 0.0
H586 H 0.24993 0.57588 0.2725 0.0
H587 H 0.20214 0.48189 0.30028 0.0
H588 H 0.1672 0.47194 0.29135 0.0
H589 H 0.17265 0.49126 0.31878 0.0
H590 H 0.13802 0.52965 0.30408 0.0
H591 H 0.13259 0.51055 0.27656 0.0
H592 H 0.14399 0.54672 0.27563 0.0
H593 H 0.24221 0.54891 0.23351 0.0
H594 H 0.2269 0.5184 0.19987 0.0
H595 H 0.1622 0.48285 0.24534 0.0
C596 C 0.19435 0.55126 0.31946 0.0
C597 C 0.21348 0.57284 0.32557 0.0
C598 C 0.23373 0.58138 0.30846 0.0
C599 C 0.23465 0.56901 0.28557 0.0
C600 C 0.21523 0.54806 0.28004 0.0
C601 C 0.19558 0.53916 0.29657 0.0
C602 C 0.17672 0.51665 0.28611 0.0
C603 C 0.17988 0.48879 0.29995 0.0
C604 C 0.14602 0.52649 0.28556 0.0
C605 C 0.18867 0.51441 0.26104 0.0
C606 C 0.21089 0.53263 0.25781 0.0
C607 C 0.22491 0.53446 0.2359 0.0
C608 C 0.21604 0.51711 0.21687 0.0
C609 C 0.19339 0.49818 0.21991 0.0
C610 C 0.17965 0.49699 0.24235 0.0
H611 H 0.56708 0.1581 0.7424 0.0
H612 H 0.54103 0.23202 0.70225 0.0
H613 H 0.51147 0.2468 0.73645 0.0
H614 H 0.50047 0.14424 0.76976 0.0
H615 H 0.51565 0.13261 0.79772 0.0
H616 H 0.53473 0.1283 0.77014 0.0
H617 H 0.57657 0.15583 0.78838 0.0
H618 H 0.5575 0.16044 0.81594 0.0
H619 H 0.57096 0.1907 0.80019 0.0
H620 H 0.48527 0.25364 0.77558 0.0
H621 H 0.46209 0.25037 0.81507 0.0
H622 H 0.50522 0.17148 0.82892 0.0
C623 C 0.55517 0.17741 0.74072 0.0
C624 C 0.55643 0.19397 0.71966 0.0
C625 C 0.54034 0.21898 0.71819 0.0
C626 C 0.5236 0.22759 0.73756 0.0
C627 C 0.52311 0.21088 0.75816 0.0
C628 C 0.5383 0.18619 0.75975 0.0
C629 C 0.53379 0.17165 0.78362 0.0
C630 C 0.52035 0.14248 0.78009 0.0
C631 C 0.56135 0.16954 0.79787 0.0
C632 C 0.51365 0.19201 0.79529 0.0
C633 C 0.50786 0.2146 0.78042 0.0
C634 C 0.48965 0.23602 0.78734 0.0
C635 C 0.47666 0.23402 0.80986 0.0
C636 C 0.48182 0.21068 0.82514 0.0
C637 C 0.50085 0.18964 0.81774 0.0
H638 H 0.87623 0.56156 0.24522 0.0
H639 H 0.80539 0.53181 0.20334 0.0
H640 H 0.78986 0.50304 0.23792 0.0
H641 H 0.89031 0.49613 0.27564 0.0
H642 H 0.89995 0.51299 0.30343 0.0
H643 H 0.90525 0.531 0.27536 0.0
H644 H 0.87588 0.57309 0.29086 0.0
H645 H 0.87029 0.55509 0.31892 0.0
H646 H 0.84075 0.56705 0.30146 0.0
H647 H 0.78184 0.47805 0.27757 0.0
H648 H 0.78338 0.45672 0.31798 0.0
H649 H 0.85979 0.50289 0.33357 0.0
C650 C 0.85748 0.54895 0.24322 0.0
C651 C 0.84199 0.54899 0.22153 0.0
C652 C 0.81763 0.53208 0.21973 0.0
C653 C 0.8086 0.51576 0.23931 0.0
C654 C 0.82421 0.51651 0.26052 0.0
C655 C 0.84825 0.53253 0.26249 0.0
C656 C 0.8615 0.52947 0.28711 0.0
C657 C 0.89099 0.51662 0.28527 0.0
C658 C 0.86213 0.55787 0.30036 0.0
C659 C 0.84116 0.50921 0.29875 0.0
C660 C 0.81972 0.50207 0.28317 0.0
C661 C 0.79855 0.48349 0.28988 0.0
C662 C 0.79958 0.47154 0.31294 0.0
C663 C 0.82168 0.47812 0.32904 0.0
C664 C 0.84253 0.49749 0.3218 0.0
H665 H 0.49247 0.87538 0.83434 0.0
H666 H 0.54708 0.8037 0.82238 0.0
H667 H 0.52894 0.79928 0.78109 0.0
H668 H 0.43308 0.84991 0.79746 0.0
H669 H 0.42525 0.8847 0.78635 0.0
H670 H 0.44039 0.88033 0.81578 0.0
H671 H 0.48097 0.91382 0.80403 0.0
H672 H 0.46614 0.91808 0.77452 0.0
H673 H 0.50173 0.90601 0.77788 0.0
H674 H 0.50794 0.80512 0.73993 0.0
H675 H 0.48421 0.81998 0.70247 0.0
H676 H 0.44356 0.88782 0.74128 0.0
C677 C 0.50009 0.85833 0.82324 0.0
C678 C 0.52108 0.83981 0.83166 0.0
C679 C 0.53094 0.81812 0.81636 0.0
C680 C 0.52077 0.81541 0.79286 0.0
C681 C 0.50066 0.83448 0.78488 0.0
C682 C 0.49024 0.85539 0.79965 0.0
C683 C 0.46989 0.87415 0.78622 0.0
C684 C 0.4404 0.87214 0.7971 0.0
C685 C 0.48032 0.90482 0.78563 0.0
C686 C 0.47091 0.86084 0.76153 0.0
C687 C 0.48865 0.83789 0.76113 0.0
C688 C 0.49375 0.82288 0.74008 0.0
C689 C 0.48026 0.83152 0.71887 0.0
C690 C 0.46196 0.85499 0.71891 0.0
C691 C 0.45726 0.86967 0.74062 0.0
H692 H 0.86788 0.5828 0.81984 0.0
H693 H 0.80784 0.52589 0.85247 0.0
H694 H 0.80001 0.5033 0.81301 0.0
H695 H 0.8322 0.59137 0.76265 0.0
H696 H 0.86431 0.59182 0.74572 0.0
H697 H 0.86397 0.6044 0.77622 0.0
H698 H 0.90356 0.56936 0.78735 0.0
H699 H 0.90412 0.55679 0.7569 0.0
H700 H 0.89889 0.53237 0.78127 0.0
H701 H 0.80003 0.48591 0.76988 0.0
H702 H 0.80964 0.4737 0.72759 0.0
H703 H 0.86999 0.54193 0.72365 0.0
C704 C 0.85287 0.56575 0.81872 0.0
C705 C 0.83837 0.55622 0.8393 0.0
C706 C 0.81918 0.5336 0.837 0.0
C707 C 0.81452 0.5207 0.81462 0.0
C708 C 0.82922 0.53062 0.79472 0.0
C709 C 0.84809 0.55258 0.79662 0.0
C710 C 0.86223 0.55847 0.77282 0.0
C711 C 0.85525 0.58829 0.76383 0.0
C712 C 0.89408 0.55397 0.77471 0.0
C713 C 0.84859 0.53623 0.75723 0.0
C714 C 0.82944 0.52051 0.7701 0.0
C715 C 0.81487 0.4982 0.75963 0.0
C716 C 0.82044 0.49147 0.73554 0.0
C717 C 0.84051 0.50689 0.72218 0.0
C718 C 0.85436 0.52984 0.73321 0.0
H719 H 0.47334 0.86867 0.31572 0.0
H720 H 0.50513 0.78622 0.3354 0.0
H721 H 0.52675 0.78171 0.29517 0.0
H722 H 0.45451 0.85025 0.25592 0.0
H723 H 0.46376 0.884 0.24339 0.0
H724 H 0.45256 0.88152 0.27416 0.0
H725 H 0.49839 0.90574 0.28824 0.0
H726 H 0.5096 0.90859 0.2575 0.0
H727 H 0.53167 0.89129 0.27928 0.0
H728 H 0.54557 0.78698 0.25287 0.0
H729 H 0.55847 0.8006 0.21145 0.0
H730 H 0.51071 0.87778 0.21873 0.0
C731 C 0.48526 0.84984 0.31174 0.0
C732 C 0.48799 0.82794 0.32878 0.0
C733 C 0.50304 0.80332 0.32264 0.0
C734 C 0.51533 0.80059 0.29986 0.0
C735 C 0.5119 0.82246 0.28336 0.0
C736 C 0.49707 0.84654 0.289 0.0
C737 C 0.49529 0.86644 0.2678 0.0
C738 C 0.46471 0.8708 0.25985 0.0
C739 C 0.5096 0.89468 0.27355 0.0
C740 C 0.51159 0.84992 0.2493 0.0
C741 C 0.52124 0.82473 0.25868 0.0
C742 C 0.53788 0.80651 0.24528 0.0
C743 C 0.54507 0.81439 0.2218 0.0
C744 C 0.53521 0.84 0.21184 0.0
C745 C 0.51801 0.85778 0.22573 0.0
H746 H 0.15819 0.50805 0.81286 0.0
H747 H 0.2406 0.47283 0.82638 0.0
H748 H 0.25671 0.49104 0.78706 0.0
H749 H 0.15573 0.49091 0.75055 0.0
H750 H 0.13722 0.52251 0.74214 0.0
H751 H 0.13273 0.50785 0.7717 0.0
H752 H 0.14747 0.55539 0.79074 0.0
H753 H 0.1518 0.57027 0.76124 0.0
H754 H 0.18041 0.57112 0.7824 0.0
H755 H 0.26361 0.51376 0.74597 0.0
H756 H 0.26046 0.53799 0.7067 0.0
H757 H 0.17271 0.55587 0.71988 0.0
C758 C 0.17974 0.50439 0.80773 0.0
C759 C 0.19823 0.48922 0.82282 0.0
C760 C 0.22611 0.4845 0.81517 0.0
C761 C 0.23542 0.49474 0.79287 0.0
C762 C 0.21651 0.50938 0.77834 0.0
C763 C 0.18922 0.51408 0.78548 0.0
C764 C 0.17272 0.52963 0.76638 0.0
C765 C 0.14815 0.51164 0.75715 0.0
C766 C 0.16251 0.5583 0.77575 0.0
C767 C 0.19499 0.53314 0.74735 0.0
C768 C 0.22017 0.52147 0.75457 0.0
C769 C 0.24394 0.52282 0.74012 0.0
C770 C 0.24195 0.53661 0.71783 0.0
C771 C 0.2163 0.54865 0.7101 0.0
C772 C 0.19255 0.54661 0.72509 0.0
H773 H 0.58868 0.17579 0.29028 0.0
H774 H 0.53274 0.22393 0.33581 0.0
H775 H 0.50285 0.23436 0.30052 0.0
H776 H 0.58233 0.22021 0.23656 0.0
H777 H 0.58343 0.19037 0.2166 0.0
H778 H 0.6016 0.18906 0.24498 0.0
H779 H 0.57462 0.14355 0.2562 0.0
H780 H 0.5564 0.14472 0.22792 0.0
H781 H 0.53687 0.14366 0.25555 0.0
H782 H 0.47706 0.23583 0.26084 0.0
H783 H 0.45744 0.22835 0.2203 0.0
H784 H 0.53084 0.17957 0.20095 0.0
C785 C 0.57037 0.18889 0.29286 0.0
C786 C 0.56307 0.19911 0.31583 0.0
C787 C 0.53881 0.21598 0.31838 0.0
C788 C 0.52175 0.22203 0.29842 0.0
C789 C 0.52939 0.21123 0.27609 0.0
C790 C 0.55322 0.19513 0.27322 0.0
C791 C 0.55605 0.18464 0.24768 0.0
C792 C 0.58242 0.19681 0.23575 0.0
C793 C 0.55597 0.15223 0.2468 0.0
C794 C 0.52971 0.19679 0.23667 0.0
C795 C 0.5147 0.21224 0.25328 0.0
C796 C 0.48882 0.22409 0.24763 0.0
C797 C 0.47783 0.21967 0.22455 0.0
C798 C 0.49269 0.20352 0.20738 0.0
C799 C 0.51918 0.19239 0.2135 0.0
H800 H 0.16674 0.40253 0.96999 0.0
H801 H 0.21301 0.47771 0.95037 0.0
H802 H 0.21943 0.48892 0.99358 0.0
H803 H 0.13012 0.43197 1.01914 0.0
H804 H 0.13165 0.40019 0.03681 0.0
H805 H 0.13183 0.39813 1.00457 0.0
H806 H 0.1781 0.36958 1.00609 0.0
H807 H 0.17806 0.37155 0.03837 0.0
H808 H 0.20798 0.38389 0.02173 0.0
H809 H 0.21926 0.49196 0.04006 0.0
H810 H 0.21252 0.48642 0.08401 0.0
H811 H 0.16651 0.40904 0.07125 0.0
C812 C 0.17838 0.42134 0.97463 0.0
C813 C 0.1894 0.43924 0.95673 0.0
C814 C 0.20442 0.46363 0.96377 0.0
C815 C 0.20815 0.47015 0.98826 0.0
C816 C 0.1968 0.45201 1.00545 0.0
C817 C 0.18227 0.42807 0.99879 0.0
C818 C 0.17159 0.41207 1.02036 0.0
C819 C 0.13939 0.41052 1.0202 0.0
C820 C 0.18473 0.38253 0.02171 0.0
C821 C 0.18218 0.43075 0.04035 0.0
C822 C 0.19674 0.4537 0.03158 0.0
C823 C 0.20798 0.47397 0.04703 0.0
C824 C 0.20407 0.47066 0.07197 0.0
C825 C 0.18902 0.4473 0.08115 0.0
C826 C 0.17818 0.42715 0.06496 0.0
H827 H 0.6403 0.17812 0.46843 0.0
H828 H 0.5579 0.21249 0.45345 0.0
H829 H 0.551 0.22079 0.49705 0.0
H830 H 0.62243 0.14115 0.52052 0.0
H831 H 0.65514 0.14808 0.53562 0.0
H832 H 0.65388 0.14697 0.50337 0.0
H833 H 0.67517 0.19718 0.50134 0.0
H834 H 0.67655 0.19843 0.53364 0.0
H835 H 0.65839 0.2256 0.5172 0.0
H836 H 0.55263 0.22208 0.54336 0.0
H837 H 0.5628 0.21683 0.58684 0.0
H838 H 0.64433 0.18206 0.5696 0.0
C839 C 0.62083 0.18764 0.47418 0.0
C840 C 0.5996 0.19461 0.45754 0.0
C841 C 0.5745 0.20706 0.46591 0.0
C842 C 0.57041 0.21183 0.49062 0.0
C843 C 0.59175 0.20425 0.50658 0.0
C844 C 0.61653 0.19259 0.49854 0.0
C845 C 0.63597 0.18531 0.51904 0.0
C846 C 0.6422 0.1535 0.51967 0.0
C847 C 0.66312 0.20267 0.51772 0.0
C848 C 0.61816 0.19417 0.54005 0.0
C849 C 0.59276 0.20519 0.53268 0.0
C850 C 0.57258 0.21372 0.54925 0.0
C851 C 0.57852 0.21066 0.5739 0.0
C852 C 0.60439 0.1991 0.58165 0.0
C853 C 0.62441 0.19111 0.56437 0.0
H854 H 0.87917 0.60762 0.06798 0.0
H855 H 0.79778 0.57606 0.08939 0.0
H856 H 0.78487 0.56996 0.04647 0.0
H857 H 0.85734 0.64678 1.01795 0.0
H858 H 0.88751 0.63831 0.99997 0.0
H859 H 0.89034 0.63869 0.03217 0.0
H860 H 0.90868 0.58729 0.03169 0.0
H861 H 0.90599 0.5868 0.99944 0.0
H862 H 0.88835 0.56032 1.017 0.0
H863 H 0.78001 0.57163 1.00026 0.0
H864 H 0.78497 0.57752 0.95619 0.0
H865 H 0.87064 0.60553 0.96656 0.0
C866 C 0.85867 0.5992 0.06369 0.0
C867 C 0.8394 0.59244 0.08198 0.0
C868 C 0.81289 0.58127 0.07562 0.0
C869 C 0.80539 0.57783 0.05131 0.0
C870 C 0.82484 0.58518 0.03367 0.0
C871 C 0.8511 0.59524 0.0397 0.0
C872 C 0.86829 0.60189 1.01766 0.0
C873 C 0.87632 0.63328 1.0169 0.0
C874 C 0.89436 0.58294 1.01638 0.0
C875 C 0.84747 0.59462 0.99816 0.0
C876 C 0.82245 0.58509 1.00758 0.0
C877 C 0.79968 0.57868 0.99275 0.0
C878 C 0.80265 0.58214 0.96775 0.0
C879 C 0.82827 0.59169 0.95785 0.0
C880 C 0.8509 0.59773 0.97342 0.0
H881 H 0.43334 0.89317 0.55767 0.0
H882 H 0.45688 0.81162 0.58645 0.0
H883 H 0.46537 0.79431 0.54508 0.0
H884 H 0.39655 0.86891 0.50736 0.0
H885 H 0.40818 0.89676 0.48777 0.0
H886 H 0.40585 0.9028 0.51957 0.0
H887 H 0.45803 0.91787 0.52061 0.0
H888 H 0.46051 0.91195 0.48875 0.0
H889 H 0.48436 0.8944 0.50895 0.0
H890 H 0.46712 0.7852 0.49964 0.0
H891 H 0.46443 0.78598 0.45519 0.0
H892 H 0.44148 0.87435 0.45752 0.0
C893 C 0.44054 0.87172 0.55536 0.0
C894 C 0.44436 0.85369 0.57526 0.0
C895 C 0.45393 0.82582 0.57143 0.0
C896 C 0.45874 0.81582 0.54801 0.0
C897 C 0.45428 0.83411 0.52872 0.0
C898 C 0.44572 0.86159 0.53227 0.0
C899 C 0.44178 0.87702 0.50876 0.0
C900 C 0.41128 0.88694 0.5057 0.0
C901 C 0.46241 0.90177 0.50665 0.0
C902 C 0.44887 0.85381 0.49127 0.0
C903 C 0.45604 0.82917 0.503 0.0
C904 C 0.4619 0.80452 0.49032 0.0
C905 C 0.46027 0.80513 0.46509 0.0
C906 C 0.45299 0.83026 0.45283 0.0
C907 C 0.44752 0.85487 0.46625 0.0
H908 H 0.17109 0.53764 0.47017 0.0
H909 H 0.24059 0.59407 0.45592 0.0
H910 H 0.25157 0.59535 0.4993 0.0
H911 H 0.14754 0.57214 0.52037 0.0
H912 H 0.13703 0.54108 0.53666 0.0
H913 H 0.13765 0.54064 0.5044 0.0
H914 H 0.1708 0.49745 0.50514 0.0
H915 H 0.17016 0.49763 0.53749 0.0
H916 H 0.20313 0.49921 0.52187 0.0
H917 H 0.25115 0.59527 0.54461 0.0
H918 H 0.23918 0.59415 0.58772 0.0
H919 H 0.1696 0.53818 0.57216 0.0
C920 C 0.18919 0.54956 0.47603 0.0
C921 C 0.20516 0.56553 0.45957 0.0
C922 C 0.22819 0.58148 0.46815 0.0
C923 C 0.23461 0.5823 0.49277 0.0
C924 C 0.21787 0.567 0.5086 0.0
C925 C 0.19572 0.55079 0.50052 0.0
C926 C 0.1792 0.53863 0.52128 0.0
C927 C 0.14856 0.54874 0.52063 0.0
C928 C 0.18094 0.50631 0.52145 0.0
C929 C 0.19498 0.55119 0.54231 0.0
C930 C 0.21745 0.56718 0.53467 0.0
C931 C 0.23389 0.58242 0.5508 0.0
C932 C 0.22691 0.58168 0.57528 0.0
C933 C 0.20355 0.56594 0.58342 0.0
C934 C 0.18783 0.55008 0.56665 0.0
H935 H 0.39677 0.20098 0.96746 0.0
H936 H 0.48609 0.19469 0.95473 0.0
H937 H 0.49495 0.20231 0.99818 0.0
H938 H 0.4002 0.25426 1.01605 0.0
H939 H 0.37161 0.23791 0.03188 0.0
H940 H 0.3731 0.23616 0.99959 0.0
H941 H 0.37004 0.18168 1.0017 0.0
H942 H 0.36868 0.18324 0.03388 0.0
H943 H 0.39535 0.16253 1.01938 0.0
H944 H 0.49297 0.20462 0.04434 0.0
H945 H 0.48041 0.20162 0.08748 0.0
H946 H 0.39245 0.20663 0.06831 0.0
C947 C 0.41828 0.20178 0.97365 0.0
C948 C 0.44075 0.19724 0.95774 0.0
C949 C 0.46856 0.19835 0.96662 0.0
C950 C 0.47375 0.20264 0.99126 0.0
C951 C 0.45093 0.20619 1.00661 0.0
C952 C 0.42375 0.20612 0.99797 0.0
C953 C 0.40262 0.20817 1.01801 0.0
C954 C 0.3859 0.23577 1.01628 0.0
C955 C 0.38304 0.18237 1.01825 0.0
C956 C 0.42199 0.2083 0.03946 0.0
C957 C 0.44982 0.20756 0.0327 0.0
C958 C 0.47125 0.20567 0.04976 0.0
C959 C 0.46395 0.204 0.07422 0.0
C960 C 0.43546 0.20391 0.08126 0.0
C961 C 0.41444 0.20675 0.06358 0.0
H962 H 0.88788 0.4816 0.47433 0.0
H963 H 0.80028 0.46511 0.4594 0.0
H964 H 0.79046 0.46497 0.50315 0.0
H965 H 0.89271 0.43448 0.52221 0.0
H966 H 0.91721 0.45538 0.53924 0.0
H967 H 0.9162 0.45828 0.50707 0.0
H968 H 0.9082 0.5121 0.51059 0.0
H969 H 0.90917 0.50937 0.54284 0.0
H970 H 0.87934 0.52512 0.52818 0.0
H971 H 0.79115 0.46491 0.54939 0.0
H972 H 0.80312 0.45949 0.5926 0.0
H973 H 0.89079 0.47198 0.57586 0.0
C974 C 0.86647 0.47868 0.4802 0.0
C975 C 0.84471 0.47394 0.46348 0.0
C976 C 0.81718 0.46912 0.47194 0.0
C977 C 0.81143 0.4691 0.49674 0.0
C978 C 0.83353 0.47352 0.51279 0.0
C979 C 0.86056 0.47793 0.50475 0.0
C980 C 0.88122 0.47908 0.52536 0.0
C981 C 0.90311 0.45539 0.52334 0.0
C982 C 0.89531 0.50815 0.52682 0.0
C983 C 0.86175 0.47431 0.54633 0.0
C984 C 0.83421 0.47177 0.5389 0.0
C985 C 0.81265 0.46694 0.55533 0.0
C986 C 0.81957 0.46403 0.57982 0.0
C987 C 0.84783 0.46531 0.58745 0.0
C988 C 0.869 0.47089 0.57048 0.0
H989 H 0.62325 0.81745 0.07025 0.0
H990 H 0.53844 0.84436 0.08552 0.0
H991 H 0.52595 0.83789 0.04257 0.0
H992 H 0.63102 0.85327 1.01789 0.0
H993 H 0.65154 0.82679 1.00286 0.0
H994 H 0.65203 0.8289 0.03504 0.0
H995 H 0.63658 0.77666 0.03803 0.0
H996 H 0.63625 0.77429 1.00575 0.0
H997 H 0.60537 0.76518 0.02261 0.0
H998 H 0.52546 0.83516 0.99636 0.0
H999 H 0.5367 0.83532 0.95287 0.0
H1000 H 0.62166 0.80946 0.96958 0.0
C1001 C 0.60182 0.8213 0.06471 0.0
C1002 C 0.58179 0.83137 0.08114 0.0
C1003 C 0.55402 0.83633 0.07321 0.0
C1004 C 0.5468 0.83276 0.04885 0.0
C1005 C 0.56747 0.82374 0.03289 0.0
C1006 C 0.59432 0.81767 0.04071 0.0
C1007 C 0.61352 0.81057 1.02009 0.0
C1008 C 0.63847 0.83111 1.01891 0.0
C1009 C 0.62351 0.77985 0.02172 0.0
C1010 C 0.59371 0.81473 0.99923 0.0
C1011 C 0.56712 0.82197 1.00678 0.0
C1012 C 0.54608 0.82897 0.99032 0.0
C1013 C 0.55262 0.829 0.96566 0.0
C1014 C 0.58003 0.82234 0.95781 0.0
C1015 C 0.60045 0.8145 0.97491 0.0
H1016 H 0.22492 0.32487 0.18116 0.0
H1017 H 0.27007 0.39119 0.1438 0.0
H1018 H 0.30942 0.35884 0.13736 0.0
H1019 H 0.28474 0.29692 0.2121 0.0
H1020 H 0.27318 0.26087 0.20984 0.0
H1021 H 0.24785 0.28894 0.2107 0.0
H1022 H 0.22629 0.27121 0.17073 0.0
H1023 H 0.25161 0.24311 0.16972 0.0
H1024 H 0.24842 0.26714 0.1448 0.0
H1025 H 0.3442 0.31945 0.13509 0.0
H1026 H 0.3722 0.27612 0.13783 0.0
H1027 H 0.30566 0.23626 0.17868 0.0
C1028 C 0.24303 0.33281 0.17173 0.0
C1029 C 0.24401 0.36079 0.16292 0.0
C1030 C 0.26828 0.36988 0.15045 0.0
C1031 C 0.29095 0.35166 0.14678 0.0
C1032 C 0.28923 0.32437 0.15577 0.0
C1033 C 0.26596 0.31498 0.16806 0.0
C1034 C 0.26968 0.28479 0.17633 0.0
C1035 C 0.26882 0.28278 0.20388 0.0
C1036 C 0.24769 0.26543 0.1647 0.0
C1037 C 0.29875 0.27874 0.16681 0.0
C1038 C 0.30957 0.30181 0.15492 0.0
C1039 C 0.33602 0.30128 0.14449 0.0
C1040 C 0.35188 0.27654 0.14632 0.0
C1041 C 0.34139 0.2526 0.15865 0.0
C1042 C 0.31435 0.25392 0.16896 0.0
H1043 H 0.79397 0.3414 0.69881 0.0
H1044 H 0.79313 0.36825 0.62435 0.0
H1045 H 0.75471 0.33462 0.61599 0.0
H1046 H 0.78217 0.26816 0.68781 0.0
H1047 H 0.7604 0.26359 0.7139 0.0
H1048 H 0.78732 0.29014 0.71382 0.0
H1049 H 0.75035 0.32822 0.72413 0.0
H1050 H 0.7233 0.30179 0.7242 0.0
H1051 H 0.71999 0.3323 0.70514 0.0
H1052 H 0.7164 0.29707 0.61602 0.0
H1053 H 0.68238 0.259 0.62432 0.0
H1054 H 0.70917 0.25761 0.69878 0.0
C1055 C 0.78605 0.3401 0.68065 0.0
C1056 C 0.79677 0.35746 0.66221 0.0
C1057 C 0.78516 0.35536 0.63882 0.0
C1058 C 0.7634 0.33624 0.6339 0.0
C1059 C 0.75342 0.31943 0.65256 0.0
C1060 C 0.76442 0.32124 0.67546 0.0
C1061 C 0.75022 0.30091 0.69243 0.0
C1062 C 0.77129 0.27943 0.70258 0.0
C1063 C 0.73507 0.31676 0.71267 0.0
C1064 C 0.72963 0.2871 0.67549 0.0
C1065 C 0.73163 0.29808 0.65258 0.0
C1066 C 0.71464 0.28841 0.63393 0.0
C1067 C 0.69526 0.26687 0.63884 0.0
C1068 C 0.6931 0.25517 0.66219 0.0
C1069 C 0.7105 0.2657 0.68067 0.0
H1070 H 0.79622 0.72031 0.18218 0.0
H1071 H 0.75517 0.65495 0.1405 0.0
H1072 H 0.71588 0.68726 0.13222 0.0
H1073 H 0.73454 0.74666 0.20996 0.0
H1074 H 0.74575 0.7829 0.20921 0.0
H1075 H 0.77134 0.75511 0.21072 0.0
H1076 H 0.79526 0.77447 0.17239 0.0
H1077 H 0.76973 0.80234 0.17075 0.0
H1078 H 0.77481 0.77929 0.14545 0.0
H1079 H 0.68023 0.72626 0.1297 0.0
H1080 H 0.65124 0.76905 0.13272 0.0
H1081 H 0.71499 0.80819 0.17727 0.0
C1082 C 0.77899 0.71266 0.17137 0.0
C1083 C 0.77891 0.68498 0.16201 0.0
C1084 C 0.75601 0.67611 0.14764 0.0
C1085 C 0.73348 0.69428 0.14293 0.0
C1086 C 0.73416 0.72128 0.15268 0.0
C1087 C 0.75636 0.73046 0.16655 0.0
C1088 C 0.75175 0.76026 0.17536 0.0
C1089 C 0.75078 0.76127 0.20295 0.0
C1090 C 0.77422 0.78027 0.16539 0.0
C1091 C 0.72332 0.76633 0.16447 0.0
C1092 C 0.71358 0.74363 0.15139 0.0
C1093 C 0.68764 0.74416 0.13992 0.0
C1094 C 0.67122 0.76852 0.1419 0.0
C1095 C 0.68071 0.79204 0.15534 0.0
C1096 C 0.70721 0.79078 0.16666 0.0
H1097 H 0.24397 0.71632 0.69037 0.0
H1098 H 0.25747 0.67625 0.62127 0.0
H1099 H 0.29231 0.71256 0.61121 0.0
H1100 H 0.24807 0.78747 0.6688 0.0
H1101 H 0.26563 0.80035 0.69528 0.0
H1102 H 0.24229 0.77065 0.69739 0.0
H1103 H 0.28195 0.7408 0.71651 0.0
H1104 H 0.30539 0.77041 0.71452 0.0
H1105 H 0.31488 0.73728 0.70103 0.0
H1106 H 0.32594 0.7535 0.60863 0.0
H1107 H 0.35521 0.79607 0.61378 0.0
H1108 H 0.31836 0.80999 0.68383 0.0
C1109 C 0.25396 0.71514 0.67302 0.0
C1110 C 0.24777 0.69314 0.6567 0.0
C1111 C 0.26192 0.69247 0.63433 0.0
C1112 C 0.2817 0.71318 0.62834 0.0
C1113 C 0.28707 0.73456 0.64481 0.0
C1114 C 0.27357 0.73571 0.66667 0.0
C1115 C 0.28293 0.76102 0.68114 0.0
C1116 C 0.25826 0.78105 0.68592 0.0
C1117 C 0.29713 0.75182 0.70469 0.0
C1118 C 0.30379 0.77399 0.66397 0.0
C1119 C 0.30599 0.75836 0.64316 0.0
C1120 C 0.32434 0.76593 0.62484 0.0
C1121 C 0.34094 0.79006 0.62795 0.0
C1122 C 0.33898 0.80642 0.64914 0.0
C1123 C 0.32002 0.79822 0.66727 0.0
H1124 H 0.35299 0.75976 0.35733 0.0
H1125 H 0.33031 0.82489 0.40806 0.0
H1126 H 0.28811 0.79758 0.41949 0.0
H1127 H 0.28505 0.74366 0.33677 0.0
H1128 H 0.29086 0.70625 0.33452 0.0
H1129 H 0.31978 0.73027 0.33132 0.0
H1130 H 0.34638 0.70464 0.36555 0.0
H1131 H 0.31757 0.68043 0.3688 0.0
H1132 H 0.32976 0.70028 0.39434 0.0
H1133 H 0.24602 0.76527 0.42208 0.0
H1134 H 0.20968 0.72818 0.41871 0.0
H1135 H 0.26159 0.68271 0.36832 0.0
C1136 C 0.33919 0.76813 0.37095 0.0
C1137 C 0.34469 0.79446 0.38176 0.0
C1138 C 0.32644 0.80468 0.39971 0.0
C1139 C 0.30243 0.78937 0.40621 0.0
C1140 C 0.29735 0.76366 0.39488 0.0
C1141 C 0.31549 0.7529 0.37792 0.0
C1142 C 0.30528 0.72485 0.36835 0.0
C1143 C 0.29992 0.72637 0.34113 0.0
C1144 C 0.32598 0.70115 0.37465 0.0
C1145 C 0.27819 0.72177 0.38215 0.0
C1146 C 0.27389 0.74446 0.39725 0.0
C1147 C 0.2494 0.74721 0.41063 0.0
C1148 C 0.22885 0.7262 0.40853 0.0
C1149 C 0.2331 0.70261 0.39347 0.0
C1150 C 0.25818 0.70031 0.3803 0.0
H1151 H 0.31191 0.21699 0.87808 0.0
H1152 H 0.38663 0.26802 0.86977 0.0
H1153 H 0.35763 0.31102 0.8698 0.0
H1154 H 0.26711 0.25848 0.83996 0.0
H1155 H 0.23656 0.25408 0.85852 0.0
H1156 H 0.26323 0.22726 0.85809 0.0
H1157 H 0.26829 0.23094 0.9043 0.0
H1158 H 0.24161 0.25775 0.90487 0.0
H1159 H 0.27558 0.26468 0.91776 0.0
H1160 H 0.32032 0.34851 0.86965 0.0
H1161 H 0.27785 0.37773 0.87032 0.0
H1162 H 0.22727 0.30245 0.87994 0.0
C1163 C 0.32215 0.23719 0.87614 0.0
C1164 C 0.35162 0.23906 0.87397 0.0
C1165 C 0.36419 0.266 0.87178 0.0
C1166 C 0.34785 0.29057 0.87164 0.0
C1167 C 0.31891 0.28796 0.87382 0.0
C1168 C 0.30615 0.26198 0.87614 0.0
C1169 C 0.27465 0.26508 0.8784 0.0
C1170 C 0.2595 0.25035 0.8575 0.0
C1171 C 0.26444 0.25395 0.90279 0.0
C1172 C 0.27169 0.29684 0.87677 0.0
C1173 C 0.29746 0.30962 0.87411 0.0
C1174 C 0.30002 0.33873 0.87191 0.0
C1175 C 0.27563 0.35523 0.87245 0.0
C1176 C 0.24883 0.34271 0.8753 0.0
C1177 C 0.24712 0.31299 0.87753 0.0
H1178 H 0.71828 0.23706 0.35269 0.0
H1179 H 0.67141 0.25538 0.41745 0.0
H1180 H 0.70289 0.29535 0.42597 0.0
H1181 H 0.7867 0.25325 0.37683 0.0
H1182 H 0.79918 0.2688 0.34934 0.0
H1183 H 0.77294 0.24156 0.34837 0.0
H1184 H 0.74015 0.2745 0.32407 0.0
H1185 H 0.76627 0.30184 0.32498 0.0
H1186 H 0.73145 0.3087 0.33594 0.0
H1187 H 0.73956 0.33347 0.42745 0.0
H1188 H 0.77869 0.36671 0.4218 0.0
H1189 H 0.80138 0.32373 0.35591 0.0
C1190 C 0.71478 0.24928 0.36878 0.0
C1191 C 0.69225 0.24305 0.38435 0.0
C1192 C 0.68823 0.25991 0.40505 0.0
C1193 C 0.70611 0.28259 0.41013 0.0
C1194 C 0.72798 0.28821 0.39435 0.0
C1195 C 0.73239 0.27204 0.3741 0.0
C1196 C 0.75727 0.28273 0.35992 0.0
C1197 C 0.78039 0.26024 0.35855 0.0
C1198 C 0.74823 0.29253 0.33474 0.0
C1199 C 0.7662 0.30738 0.37541 0.0
C1200 C 0.74904 0.31019 0.39517 0.0
C1201 C 0.75311 0.3315 0.412 0.0
C1202 C 0.77533 0.35042 0.40855 0.0
C1203 C 0.79325 0.34798 0.3884 0.0
C1204 C 0.78843 0.32607 0.37167 0.0
H1205 H 0.77698 0.6791 0.88385 0.0
H1206 H 0.83636 0.74763 0.89138 0.0
H1207 H 0.79734 0.78181 0.89157 0.0
H1208 H 0.73156 0.71361 0.84374 0.0
H1209 H 0.69988 0.699 0.85611 0.0
H1210 H 0.73228 0.67985 0.85857 0.0
H1211 H 0.7266 0.67751 0.90478 0.0
H1212 H 0.69406 0.69655 0.90245 0.0
H1213 H 0.72171 0.70961 0.92151 0.0
H1214 H 0.75143 0.80885 0.88903 0.0
H1215 H 0.7029 0.82602 0.88283 0.0
H1216 H 0.67416 0.73963 0.87711 0.0
C1217 C 0.78175 0.70123 0.88603 0.0
C1218 C 0.80976 0.71065 0.88764 0.0
C1219 C 0.8151 0.73992 0.88991 0.0
C1220 C 0.79305 0.75949 0.89018 0.0
C1221 C 0.7657 0.74953 0.88818 0.0
C1222 C 0.76 0.72106 0.88618 0.0
C1223 C 0.72893 0.71588 0.88301 0.0
C1224 C 0.72282 0.70123 0.85892 0.0
C1225 C 0.71713 0.69888 0.9042 0.0
C1226 C 0.71811 0.74586 0.88312 0.0
C1227 C 0.73952 0.76502 0.88637 0.0
C1228 C 0.73448 0.79399 0.8866 0.0
C1229 C 0.70686 0.80358 0.88314 0.0
C1230 C 0.68472 0.78426 0.87927 0.0
C1231 C 0.69059 0.75504 0.87961 0.0
loop_
_geom_bond_atom_site_label_1
_geom_bond_atom_site_label_2
_geom_bond_distance
_geom_bond_site_symmetry_2
_ccdc_geom_bond_type
Cu0 N1 1.999 . S
Cu0 O6 1.974 . S
Cu0 N11 1.985 . S
Cu0 O20 1.959 . S
N1 Cu0 1.999 . S
N1 C3 1.263 . S
N1 C5 1.389 . S
N2 C3 1.358 . S
N2 C4 1.400 . S
C3 N1 1.263 . S
C3 N2 1.358 . S
C3 H9 0.930 . S
C4 N2 1.400 . S
C4 C5 1.351 . S
C4 H21 0.930 . S
C5 N1 1.389 . S
C5 C4 1.351 . S
C5 H10 0.930 . S
O6 Cu0 1.974 . S
O6 C16 1.282 . S
C7 O8 1.261 . S
C7 O20 1.251 . S
O8 C7 1.261 . S
H9 C3 0.930 . S
H10 C5 0.930 . S
N11 Cu0 1.985 . S
N11 C13 1.335 . S
N11 C14 1.390 . S
N12 C13 1.345 . S
N12 C15 1.336 . S
C13 N11 1.335 . S
C13 N12 1.345 . S
C13 H18 0.930 . S
C14 N11 1.390 . S
C14 C15 1.346 . S
C14 H19 0.930 . S
C15 N12 1.336 . S
C15 C14 1.346 . S
C15 H22 0.929 . S
C16 O6 1.282 . S
C16 O17 1.216 . S
O17 C16 1.216 . S
H18 C13 0.930 . S
H19 C14 0.930 . S
O20 Cu0 1.959 . S
O20 C7 1.251 . S
H21 C4 0.930 . S
H22 C15 0.929 . S
Cu23 N24 1.999 . S
Cu23 O29 1.974 . S
Cu23 N34 1.985 . S
Cu23 O43 1.959 . S
N24 Cu23 1.999 . S
N24 C26 1.263 . S
N24 C28 1.389 . S
N25 C26 1.358 . S
N25 C27 1.400 . S
C26 N24 1.263 . S
C26 N25 1.358 . S
C26 H32 0.930 . S
C27 N25 1.400 . S
C27 C28 1.351 . S
C27 H44 0.930 . S
C28 N24 1.389 . S
C28 C27 1.351 . S
C28 H33 0.930 . S
O29 Cu23 1.974 . S
O29 C39 1.282 . S
C30 O31 1.261 . S
C30 O43 1.251 . S
O31 C30 1.261 . S
H32 C26 0.930 . S
H33 C28 0.930 . S
N34 Cu23 1.985 . S
N34 C36 1.335 . S
N34 C37 1.390 . S
N35 C36 1.345 . S
N35 C38 1.336 . S
C36 N34 1.335 . S
C36 N35 1.345 . S
C36 H41 0.930 . S
C37 N34 1.390 . S
C37 C38 1.346 . S
C37 H42 0.930 . S
C38 N35 1.336 . S
C38 C37 1.346 . S
C38 H45 0.929 . S
C39 O29 1.282 . S
C39 O40 1.216 . S
O40 C39 1.216 . S
H41 C36 0.930 . S
H42 C37 0.930 . S
O43 Cu23 1.959 . S
O43 C30 1.251 . S
H44 C27 0.930 . S
H45 C38 0.929 . S
Cu46 N47 1.999 . S
Cu46 O52 1.974 . S
Cu46 N57 1.985 . S
Cu46 O66 1.959 . S
N47 Cu46 1.999 . S
N47 C49 1.263 . S
N47 C51 1.389 . S
N48 C49 1.358 . S
N48 C50 1.400 . S
C49 N47 1.263 . S
C49 N48 1.358 . S
C49 H55 0.930 . S
C50 N48 1.400 . S
C50 C51 1.351 . S
C50 H67 0.930 . S
C51 N47 1.389 . S
C51 C50 1.351 . S
C51 H56 0.930 . S
O52 Cu46 1.974 . S
O52 C62 1.282 . S
C53 O54 1.261 . S
C53 O66 1.251 . S
O54 C53 1.261 . S
H55 C49 0.930 . S
H56 C51 0.930 . S
N57 Cu46 1.985 . S
N57 C59 1.335 . S
N57 C60 1.390 . S
N58 C59 1.345 . S
N58 C61 1.336 . S
C59 N57 1.335 . S
C59 N58 1.345 . S
C59 H64 0.930 . S
C60 N57 1.390 . S
C60 C61 1.346 . S
C60 H65 0.930 . S
C61 N58 1.336 . S
C61 C60 1.346 . S
C61 H68 0.929 . S
C62 O52 1.282 . S
C62 O63 1.216 . S
O63 C62 1.216 . S
H64 C59 0.930 . S
H65 C60 0.930 . S
O66 Cu46 1.959 . S
O66 C53 1.251 . S
H67 C50 0.930 . S
H68 C61 0.929 . S
Cu69 N70 1.999 . S
Cu69 O75 1.974 . S
Cu69 N80 1.985 . S
Cu69 O89 1.959 . S
N70 Cu69 1.999 . S
N70 C72 1.263 . S
N70 C74 1.389 . S
N71 C72 1.358 . S
N71 C73 1.400 . S
C72 N70 1.263 . S
C72 N71 1.358 . S
C72 H78 0.930 . S
C73 N71 1.400 . S
C73 C74 1.351 . S
C73 H90 0.930 . S
C74 N70 1.389 . S
C74 C73 1.351 . S
C74 H79 0.930 . S
O75 Cu69 1.974 . S
O75 C85 1.282 . S
C76 O77 1.261 . S
C76 O89 1.251 . S
O77 C76 1.261 . S
H78 C72 0.930 . S
H79 C74 0.930 . S
N80 Cu69 1.985 . S
N80 C82 1.335 . S
N80 C83 1.390 . S
N81 C82 1.345 . S
N81 C84 1.336 . S
C82 N80 1.335 . S
C82 N81 1.345 . S
C82 H87 0.930 . S
C83 N80 1.390 . S
C83 C84 1.346 . S
C83 H88 0.930 . S
C84 N81 1.336 . S
C84 C83 1.346 . S
C84 H91 0.929 . S
C85 O75 1.282 . S
C85 O86 1.216 . S
O86 C85 1.216 . S
H87 C82 0.930 . S
H88 C83 0.930 . S
O89 Cu69 1.959 . S
O89 C76 1.251 . S
H90 C73 0.930 . S
H91 C84 0.929 . S
Cu92 N93 1.999 . S
Cu92 O98 1.974 . S
Cu92 N103 1.985 . S
Cu92 O112 1.959 . S
N93 Cu92 1.999 . S
N93 C95 1.263 . S
N93 C97 1.389 . S
N94 C95 1.358 . S
N94 C96 1.400 . S
C95 N93 1.263 . S
C95 N94 1.358 . S
C95 H101 0.930 . S
C96 N94 1.400 . S
C96 C97 1.351 . S
C96 H113 0.930 . S
C97 N93 1.389 . S
C97 C96 1.351 . S
C97 H102 0.930 . S
O98 Cu92 1.974 . S
O98 C108 1.282 . S
C99 O100 1.261 . S
C99 O112 1.251 . S
O100 C99 1.261 . S
H101 C95 0.930 . S
H102 C97 0.930 . S
N103 Cu92 1.985 . S
N103 C105 1.335 . S
N103 C106 1.390 . S
N104 C105 1.345 . S
N104 C107 1.336 . S
C105 N103 1.335 . S
C105 N104 1.345 . S
C105 H110 0.930 . S
C106 N103 1.390 . S
C106 C107 1.346 . S
C106 H111 0.930 . S
C107 N104 1.336 . S
C107 C106 1.346 . S
C107 H114 0.929 . S
C108 O98 1.282 . S
C108 O109 1.216 . S
O109 C108 1.216 . S
H110 C105 0.930 . S
H111 C106 0.930 . S
O112 Cu92 1.959 . S
O112 C99 1.251 . S
H113 C96 0.930 . S
H114 C107 0.929 . S
Cu115 N116 1.999 . S
Cu115 O121 1.974 . S
Cu115 N126 1.985 . S
Cu115 O135 1.959 . S
N116 Cu115 1.999 . S
N116 C118 1.263 . S
N116 C120 1.389 . S
N117 C118 1.358 . S
N117 C119 1.400 . S
C118 N116 1.263 . S
C118 N117 1.358 . S
C118 H124 0.930 . S
C119 N117 1.400 . S
C119 C120 1.351 . S
C119 H136 0.930 . S
C120 N116 1.389 . S
C120 C119 1.351 . S
C120 H125 0.930 . S
O121 Cu115 1.974 . S
O121 C131 1.282 . S
C122 O123 1.261 . S
C122 O135 1.251 . S
O123 C122 1.261 . S
H124 C118 0.930 . S
H125 C120 0.930 . S
N126 Cu115 1.985 . S
N126 C128 1.335 . S
N126 C129 1.390 . S
N127 C128 1.345 . S
N127 C130 1.336 . S
C128 N126 1.335 . S
C128 N127 1.345 . S
C128 H133 0.930 . S
C129 N126 1.390 . S
C129 C130 1.346 . S
C129 H134 0.930 . S
C130 N127 1.336 . S
C130 C129 1.346 . S
C130 H137 0.929 . S
C131 O121 1.282 . S
C131 O132 1.216 . S
O132 C131 1.216 . S
H133 C128 0.930 . S
H134 C129 0.930 . S
O135 Cu115 1.959 . S
O135 C122 1.251 . S
H136 C119 0.930 . S
H137 C130 0.929 . S
Cu138 N139 1.999 . S
Cu138 O144 1.974 . S
Cu138 N149 1.985 . S
Cu138 O158 1.959 . S
N139 Cu138 1.999 . S
N139 C141 1.263 . S
N139 C143 1.389 . S
N140 C141 1.358 . S
N140 C142 1.400 . S
C141 N139 1.263 . S
C141 N140 1.358 . S
C141 H147 0.930 . S
C142 N140 1.400 . S
C142 C143 1.351 . S
C142 H159 0.930 . S
C143 N139 1.389 . S
C143 C142 1.351 . S
C143 H148 0.930 . S
O144 Cu138 1.974 . S
O144 C154 1.282 . S
C145 O146 1.261 . S
C145 O158 1.251 . S
O146 C145 1.261 . S
H147 C141 0.930 . S
H148 C143 0.930 . S
N149 Cu138 1.985 . S
N149 C151 1.335 . S
N149 C152 1.390 . S
N150 C151 1.345 . S
N150 C153 1.336 . S
C151 N149 1.335 . S
C151 N150 1.345 . S
C151 H156 0.930 . S
C152 N149 1.390 . S
C152 C153 1.346 . S
C152 H157 0.930 . S
C153 N150 1.336 . S
C153 C152 1.346 . S
C153 H160 0.929 . S
C154 O144 1.282 . S
C154 O155 1.216 . S
O155 C154 1.216 . S
H156 C151 0.930 . S
H157 C152 0.930 . S
O158 Cu138 1.959 . S
O158 C145 1.251 . S
H159 C142 0.930 . S
H160 C153 0.929 . S
Cu161 N162 1.999 . S
Cu161 O167 1.974 . S
Cu161 N172 1.985 . S
Cu161 O181 1.959 . S
N162 Cu161 1.999 . S
N162 C164 1.263 . S
N162 C166 1.389 . S
N163 C164 1.358 . S
N163 C165 1.400 . S
C164 N162 1.263 . S
C164 N163 1.358 . S
C164 H170 0.930 . S
C165 N163 1.400 . S
C165 C166 1.351 . S
C165 H182 0.930 . S
C166 N162 1.389 . S
C166 C165 1.351 . S
C166 H171 0.930 . S
O167 Cu161 1.974 . S
O167 C177 1.282 . S
C168 O169 1.261 . S
C168 O181 1.251 . S
O169 C168 1.261 . S
H170 C164 0.930 . S
H171 C166 0.930 . S
N172 Cu161 1.985 . S
N172 C174 1.335 . S
N172 C175 1.390 . S
N173 C174 1.345 . S
N173 C176 1.336 . S
C174 N172 1.335 . S
C174 N173 1.345 . S
C174 H179 0.930 . S
C175 N172 1.390 . S
C175 C176 1.346 . S
C175 H180 0.930 . S
C176 N173 1.336 . S
C176 C175 1.346 . S
C176 H183 0.929 . S
C177 O167 1.282 . S
C177 O178 1.216 . S
O178 C177 1.216 . S
H179 C174 0.930 . S
H180 C175 0.930 . S
O181 Cu161 1.959 . S
O181 C168 1.251 . S
H182 C165 0.930 . S
H183 C176 0.929 . S
Cu184 N185 1.999 . S
Cu184 O190 1.974 . S
Cu184 N195 1.985 . S
Cu184 O204 1.959 . S
N185 Cu184 1.999 . S
N185 C187 1.263 . S
N185 C189 1.389 . S
N186 C187 1.358 . S
N186 C188 1.400 . S
C187 N185 1.263 . S
C187 N186 1.358 . S
C187 H193 0.930 . S
C188 N186 1.400 . S
C188 C189 1.351 . S
C188 H205 0.930 . S
C189 N185 1.389 . S
C189 C188 1.351 . S
C189 H194 0.930 . S
O190 Cu184 1.974 . S
O190 C200 1.282 . S
C191 O192 1.261 . S
C191 O204 1.251 . S
O192 C191 1.261 . S
H193 C187 0.930 . S
H194 C189 0.930 . S
N195 Cu184 1.985 . S
N195 C197 1.335 . S
N195 C198 1.390 . S
N196 C197 1.345 . S
N196 C199 1.336 . S
C197 N195 1.335 . S
C197 N196 1.345 . S
C197 H202 0.930 . S
C198 N195 1.390 . S
C198 C199 1.346 . S
C198 H203 0.930 . S
C199 N196 1.336 . S
C199 C198 1.346 . S
C199 H206 0.929 . S
C200 O190 1.282 . S
C200 O201 1.216 . S
O201 C200 1.216 . S
H202 C197 0.930 . S
H203 C198 0.930 . S
O204 Cu184 1.959 . S
O204 C191 1.251 . S
H205 C188 0.930 . S
H206 C199 0.929 . S
Cu207 N208 1.999 . S
Cu207 O213 1.974 . S
Cu207 N218 1.985 . S
Cu207 O227 1.959 . S
N208 Cu207 1.999 . S
N208 C210 1.263 . S
N208 C212 1.389 . S
N209 C210 1.358 . S
N209 C211 1.400 . S
C210 N208 1.263 . S
C210 N209 1.358 . S
C210 H216 0.930 . S
C211 N209 1.400 . S
C211 C212 1.351 . S
C211 H228 0.930 . S
C212 N208 1.389 . S
C212 C211 1.351 . S
C212 H217 0.930 . S
O213 Cu207 1.974 . S
O213 C223 1.282 . S
C214 O215 1.261 . S
C214 O227 1.251 . S
O215 C214 1.261 . S
H216 C210 0.930 . S
H217 C212 0.930 . S
N218 Cu207 1.985 . S
N218 C220 1.335 . S
N218 C221 1.390 . S
N219 C220 1.345 . S
N219 C222 1.336 . S
C220 N218 1.335 . S
C220 N219 1.345 . S
C220 H225 0.930 . S
C221 N218 1.390 . S
C221 C222 1.346 . S
C221 H226 0.930 . S
C222 N219 1.336 . S
C222 C221 1.346 . S
C222 H229 0.929 . S
C223 O213 1.282 . S
C223 O224 1.216 . S
O224 C223 1.216 . S
H225 C220 0.930 . S
H226 C221 0.930 . S
O227 Cu207 1.959 . S
O227 C214 1.251 . S
H228 C211 0.930 . S
H229 C222 0.929 . S
Cu230 N231 1.999 . S
Cu230 O236 1.974 . S
Cu230 N241 1.985 . S
Cu230 O250 1.959 . S
N231 Cu230 1.999 . S
N231 C233 1.263 . S
N231 C235 1.389 . S
N232 C233 1.358 . S
N232 C234 1.400 . S
C233 N231 1.263 . S
C233 N232 1.358 . S
C233 H239 0.930 . S
C234 N232 1.400 . S
C234 C235 1.351 . S
C234 H251 0.930 . S
C235 N231 1.389 . S
C235 C234 1.351 . S
C235 H240 0.930 . S
O236 Cu230 1.974 . S
O236 C246 1.282 . S
C237 O238 1.261 . S
C237 O250 1.251 . S
O238 C237 1.261 . S
H239 C233 0.930 . S
H240 C235 0.930 . S
N241 Cu230 1.985 . S
N241 C243 1.335 . S
N241 C244 1.390 . S
N242 C243 1.345 . S
N242 C245 1.336 . S
C243 N241 1.335 . S
C243 N242 1.345 . S
C243 H248 0.930 . S
C244 N241 1.390 . S
C244 C245 1.346 . S
C244 H249 0.930 . S
C245 N242 1.336 . S
C245 C244 1.346 . S
C245 H252 0.929 . S
C246 O236 1.282 . S
C246 O247 1.216 . S
O247 C246 1.216 . S
H248 C243 0.930 . S
H249 C244 0.930 . S
O250 Cu230 1.959 . S
O250 C237 1.251 . S
H251 C234 0.930 . S
H252 C245 0.929 . S
Cu253 N254 1.999 . S
Cu253 O259 1.974 . S
Cu253 N264 1.985 . S
Cu253 O273 1.959 . S
N254 Cu253 1.999 . S
N254 C256 1.263 . S
N254 C258 1.389 . S
N255 C256 1.358 . S
N255 C257 1.400 . S
C256 N254 1.263 . S
C256 N255 1.358 . S
C256 H262 0.930 . S
C257 N255 1.400 . S
C257 C258 1.351 . S
C257 H274 0.930 . S
C258 N254 1.389 . S
C258 C257 1.351 . S
C258 H263 0.930 . S
O259 Cu253 1.974 . S
O259 C269 1.282 . S
C260 O261 1.261 . S
C260 O273 1.251 . S
O261 C260 1.261 . S
H262 C256 0.930 . S
H263 C258 0.930 . S
N264 Cu253 1.985 . S
N264 C266 1.335 . S
N264 C267 1.390 . S
N265 C266 1.345 . S
N265 C268 1.336 . S
C266 N264 1.335 . S
C266 N265 1.345 . S
C266 H271 0.930 . S
C267 N264 1.390 . S
C267 C268 1.346 . S
C267 H272 0.930 . S
C268 N265 1.336 . S
C268 C267 1.346 . S
C268 H275 0.929 . S
C269 O259 1.282 . S
C269 O270 1.216 . S
O270 C269 1.216 . S
H271 C266 0.930 . S
H272 C267 0.930 . S
O273 Cu253 1.959 . S
O273 C260 1.251 . S
H274 C257 0.930 . S
H275 C268 0.929 . S
Cu276 N277 1.999 . S
Cu276 O282 1.974 . S
Cu276 N287 1.985 . S
Cu276 O296 1.959 . S
N277 Cu276 1.999 . S
N277 C279 1.263 . S
N277 C281 1.389 . S
N278 C279 1.358 . S
N278 C280 1.400 . S
C279 N277 1.263 . S
C279 N278 1.358 . S
C279 H285 0.930 . S
C280 N278 1.400 . S
C280 C281 1.351 . S
C280 H297 0.930 . S
C281 N277 1.389 . S
C281 C280 1.351 . S
C281 H286 0.930 . S
O282 Cu276 1.974 . S
O282 C292 1.282 . S
C283 O284 1.261 . S
C283 O296 1.251 . S
O284 C283 1.261 . S
H285 C279 0.930 . S
H286 C281 0.930 . S
N287 Cu276 1.985 . S
N287 C289 1.335 . S
N287 C290 1.390 . S
N288 C289 1.345 . S
N288 C291 1.336 . S
C289 N287 1.335 . S
C289 N288 1.345 . S
C289 H294 0.930 . S
C290 N287 1.390 . S
C290 C291 1.346 . S
C290 H295 0.930 . S
C291 N288 1.336 . S
C291 C290 1.346 . S
C291 H298 0.929 . S
C292 O282 1.282 . S
C292 O293 1.216 . S
O293 C292 1.216 . S
H294 C289 0.930 . S
H295 C290 0.930 . S
O296 Cu276 1.959 . S
O296 C283 1.251 . S
H297 C280 0.930 . S
H298 C291 0.929 . S
Cu299 N300 1.999 . S
Cu299 O305 1.974 . S
Cu299 N310 1.985 . S
Cu299 O319 1.959 . S
N300 Cu299 1.999 . S
N300 C302 1.263 . S
N300 C304 1.389 . S
N301 C302 1.358 . S
N301 C303 1.400 . S
C302 N300 1.263 . S
C302 N301 1.358 . S
C302 H308 0.930 . S
C303 N301 1.400 . S
C303 C304 1.351 . S
C303 H320 0.930 . S
C304 N300 1.389 . S
C304 C303 1.351 . S
C304 H309 0.930 . S
O305 Cu299 1.974 . S
O305 C315 1.282 . S
C306 O307 1.261 . S
C306 O319 1.251 . S
O307 C306 1.261 . S
H308 C302 0.930 . S
H309 C304 0.930 . S
N310 Cu299 1.985 . S
N310 C312 1.335 . S
N310 C313 1.390 . S
N311 C312 1.345 . S
N311 C314 1.336 . S
C312 N310 1.335 . S
C312 N311 1.345 . S
C312 H317 0.930 . S
C313 N310 1.390 . S
C313 C314 1.346 . S
C313 H318 0.930 . S
C314 N311 1.336 . S
C314 C313 1.346 . S
C314 H321 0.929 . S
C315 O305 1.282 . S
C315 O316 1.216 . S
O316 C315 1.216 . S
H317 C312 0.930 . S
H318 C313 0.930 . S
O319 Cu299 1.959 . S
O319 C306 1.251 . S
H320 C303 0.930 . S
H321 C314 0.929 . S
Cu322 N323 1.999 . S
Cu322 O328 1.974 . S
Cu322 N333 1.985 . S
Cu322 O342 1.959 . S
N323 Cu322 1.999 . S
N323 C325 1.263 . S
N323 C327 1.389 . S
N324 C325 1.358 . S
N324 C326 1.400 . S
C325 N323 1.263 . S
C325 N324 1.358 . S
C325 H331 0.930 . S
C326 N324 1.400 . S
C326 C327 1.351 . S
C326 H343 0.930 . S
C327 N323 1.389 . S
C327 C326 1.351 . S
C327 H332 0.930 . S
O328 Cu322 1.974 . S
O328 C338 1.282 . S
C329 O330 1.261 . S
C329 O342 1.251 . S
O330 C329 1.261 . S
H331 C325 0.930 . S
H332 C327 0.930 . S
N333 Cu322 1.985 . S
N333 C335 1.335 . S
N333 C336 1.390 . S
N334 C335 1.345 . S
N334 C337 1.336 . S
C335 N333 1.335 . S
C335 N334 1.345 . S
C335 H340 0.930 . S
C336 N333 1.390 . S
C336 C337 1.346 . S
C336 H341 0.930 . S
C337 N334 1.336 . S
C337 C336 1.346 . S
C337 H344 0.929 . S
C338 O328 1.282 . S
C338 O339 1.216 . S
O339 C338 1.216 . S
H340 C335 0.930 . S
H341 C336 0.930 . S
O342 Cu322 1.959 . S
O342 C329 1.251 . S
H343 C326 0.930 . S
H344 C337 0.929 . S
Cu345 N346 1.999 . S
Cu345 O351 1.974 . S
Cu345 N356 1.985 . S
Cu345 O365 1.959 . S
N346 Cu345 1.999 . S
N346 C348 1.263 . S
N346 C350 1.389 . S
N347 C348 1.358 . S
N347 C349 1.400 . S
C348 N346 1.263 . S
C348 N347 1.358 . S
C348 H354 0.930 . S
C349 N347 1.400 . S
C349 C350 1.351 . S
C349 H366 0.930 . S
C350 N346 1.389 . S
C350 C349 1.351 . S
C350 H355 0.930 . S
O351 Cu345 1.974 . S
O351 C361 1.282 . S
C352 O353 1.261 . S
C352 O365 1.251 . S
O353 C352 1.261 . S
H354 C348 0.930 . S
H355 C350 0.930 . S
N356 Cu345 1.985 . S
N356 C358 1.335 . S
N356 C359 1.390 . S
N357 C358 1.345 . S
N357 C360 1.336 . S
C358 N356 1.335 . S
C358 N357 1.345 . S
C358 H363 0.930 . S
C359 N356 1.390 . S
C359 C360 1.346 . S
C359 H364 0.930 . S
C360 N357 1.336 . S
C360 C359 1.346 . S
C360 H367 0.929 . S
C361 O351 1.282 . S
C361 O362 1.216 . S
O362 C361 1.216 . S
H363 C358 0.930 . S
H364 C359 0.930 . S
O365 Cu345 1.959 . S
O365 C352 1.251 . S
H366 C349 0.930 . S
H367 C360 0.929 . S
H368 C380 0.930 . S
H369 C382 0.930 . S
H370 C383 0.930 . S
H371 C387 0.959 . S
H372 C387 0.959 . S
H373 C387 0.961 1_455 S
H374 C388 0.994 . S
H375 C388 0.925 1_655 S
H376 C388 0.968 . S
H377 C391 0.929 . S
H378 C392 0.931 . S
H379 C394 0.930 . S
C380 H368 0.930 . S
C380 C381 1.399 . S
C380 C385 1.399 . S
C381 C380 1.399 . S
C381 C382 1.376 . S
C382 H369 0.930 . S
C382 C381 1.376 . S
C382 C383 1.388 . S
C383 H370 0.930 . S
C383 C382 1.388 . S
C383 C384 1.390 . S
C384 C383 1.390 . S
C384 C385 1.394 . S
C384 C390 1.465 1_455 S
C385 C380 1.399 . S
C385 C384 1.394 . S
C385 C386 1.516 1_455 S
C386 C385 1.516 1_655 S
C386 C387 1.502 . S
C386 C388 1.555 1_655 S
C386 C389 1.526 . S
C387 H371 0.959 . S
C387 H372 0.959 . S
C387 H373 0.961 1_655 S
C387 C386 1.502 . S
C388 H374 0.994 . S
C388 H375 0.925 1_455 S
C388 H376 0.968 . S
C388 C386 1.555 1_455 S
C389 C386 1.526 . S
C389 C390 1.396 . S
C389 C394 1.390 . S
C390 C384 1.465 1_655 S
C390 C389 1.396 . S
C390 C391 1.399 . S
C391 H377 0.929 . S
C391 C390 1.399 . S
C391 C392 1.385 . S
C392 H378 0.931 . S
C392 C391 1.385 . S
C392 C393 1.389 . S
C393 C392 1.389 . S
C393 C394 1.387 . S
C394 H379 0.930 . S
C394 C389 1.390 . S
C394 C393 1.387 . S
H395 C407 0.930 . S
H396 C409 0.930 . S
H397 C410 0.930 . S
H398 C414 0.959 . S
H399 C414 0.959 . S
H400 C414 0.961 1_565 S
H401 C415 0.960 1_565 S
H402 C415 0.961 . S
H403 C415 0.959 1_565 S
H404 C418 0.929 . S
H405 C419 0.931 . S
H406 C421 0.930 . S
C407 H395 0.930 . S
C407 C408 1.399 . S
C407 C412 1.399 . S
C408 C407 1.399 . S
C408 C409 1.376 . S
C409 H396 0.930 . S
C409 C408 1.376 . S
C409 C410 1.388 . S
C410 H397 0.930 . S
C410 C409 1.388 . S
C410 C411 1.390 . S
C411 C410 1.390 . S
C411 C412 1.394 . S
C411 C417 1.465 1_565 S
C412 C407 1.399 . S
C412 C411 1.394 . S
C412 C413 1.516 1_565 S
C413 C412 1.516 1_545 S
C413 C414 1.502 . S
C413 C415 1.561 . S
C413 C416 1.526 . S
C414 H398 0.959 . S
C414 H399 0.959 . S
C414 H400 0.961 1_545 S
C414 C413 1.502 . S
C415 H401 0.960 1_545 S
C415 H402 0.961 . S
C415 H403 0.959 1_545 S
C415 C413 1.561 . S
C416 C413 1.526 . S
C416 C417 1.396 . S
C416 C421 1.390 . S
C417 C411 1.465 1_545 S
C417 C416 1.396 . S
C417 C418 1.399 . S
C418 H404 0.929 . S
C418 C417 1.399 . S
C418 C419 1.385 . S
C419 H405 0.931 . S
C419 C418 1.385 . S
C419 C420 1.389 . S
C420 C419 1.389 . S
C420 C421 1.387 . S
C421 H406 0.930 . S
C421 C416 1.390 . S
C421 C420 1.387 . S
H422 C434 0.930 . S
H423 C436 0.930 . S
H424 C437 0.930 . S
H425 C441 0.959 . S
H426 C441 0.959 1_655 S
H427 C441 0.961 . S
H428 C442 0.960 1_455 S
H429 C442 0.961 . S
H430 C442 0.959 . S
H431 C445 0.929 . S
H432 C446 0.931 . S
H433 C448 0.930 . S
C434 H422 0.930 . S
C434 C435 1.399 . S
C434 C439 1.399 . S
C435 C434 1.399 . S
C435 C436 1.376 . S
C436 H423 0.930 . S
C436 C435 1.376 . S
C436 C437 1.388 . S
C437 H424 0.930 . S
C437 C436 1.388 . S
C437 C438 1.390 . S
C438 C437 1.390 . S
C438 C439 1.394 . S
C438 C444 1.465 1_455 S
C439 C434 1.399 . S
C439 C438 1.394 . S
C439 C440 1.516 . S
C440 C439 1.516 . S
C440 C441 1.502 . S
C440 C442 1.561 1_455 S
C440 C443 1.526 1_455 S
C441 H425 0.959 . S
C441 H426 0.959 1_455 S
C441 H427 0.961 . S
C441 C440 1.502 . S
C442 H428 0.960 1_655 S
C442 H429 0.961 . S
C442 H430 0.959 . S
C442 C440 1.561 1_655 S
C443 C440 1.526 1_655 S
C443 C444 1.396 . S
C443 C448 1.390 . S
C444 C438 1.465 1_655 S
C444 C443 1.396 . S
C444 C445 1.399 . S
C445 H431 0.929 . S
C445 C444 1.399 . S
C445 C446 1.385 . S
C446 H432 0.931 . S
C446 C445 1.385 . S
C446 C447 1.389 . S
C447 C446 1.389 . S
C447 C448 1.387 . S
C448 H433 0.930 . S
C448 C443 1.390 . S
C448 C447 1.387 . S
H449 C461 0.930 . S
H450 C463 0.930 . S
H451 C464 0.930 . S
H452 C468 0.959 . S
H453 C468 0.959 1_545 S
H454 C468 0.961 . S
H455 C469 0.960 1_565 S
H456 C469 0.961 . S
H457 C469 0.959 . S
H458 C472 0.929 . S
H459 C473 0.931 . S
H460 C475 0.930 . S
C461 H449 0.930 . S
C461 C462 1.399 . S
C461 C466 1.399 . S
C462 C461 1.399 . S
C462 C463 1.376 . S
C463 H450 0.930 . S
C463 C462 1.376 . S
C463 C464 1.388 . S
C464 H451 0.930 . S
C464 C463 1.388 . S
C464 C465 1.390 . S
C465 C464 1.390 . S
C465 C466 1.394 . S
C465 C471 1.465 1_565 S
C466 C461 1.399 . S
C466 C465 1.394 . S
C466 C467 1.516 . S
C467 C466 1.516 . S
C467 C468 1.502 . S
C467 C469 1.561 1_565 S
C467 C470 1.526 1_565 S
C468 H452 0.959 . S
C468 H453 0.959 1_565 S
C468 H454 0.961 . S
C468 C467 1.502 . S
C469 H455 0.960 1_545 S
C469 H456 0.961 . S
C469 H457 0.959 . S
C469 C467 1.561 1_545 S
C470 C467 1.526 1_545 S
C470 C471 1.396 . S
C470 C475 1.390 . S
C471 C465 1.465 1_545 S
C471 C470 1.396 . S
C471 C472 1.399 . S
C472 H458 0.929 . S
C472 C471 1.399 . S
C472 C473 1.385 . S
C473 H459 0.931 . S
C473 C472 1.385 . S
C473 C474 1.389 . S
C474 C473 1.389 . S
C474 C475 1.387 . S
C475 H460 0.930 . S
C475 C470 1.390 . S
C475 C474 1.387 . S
H476 C488 0.930 . S
H477 C490 0.930 . S
H478 C491 0.930 . S
H479 C495 0.959 . S
H480 C495 0.959 1_455 S
H481 C495 0.961 . S
H482 C496 0.960 1_655 S
H483 C496 0.961 . S
H484 C496 0.959 . S
H485 C499 0.929 . S
H486 C500 0.931 . S
H487 C502 0.930 . S
C488 H476 0.930 . S
C488 C489 1.399 . S
C488 C493 1.399 . S
C489 C488 1.399 . S
C489 C490 1.376 . S
C490 H477 0.930 . S
C490 C489 1.376 . S
C490 C491 1.388 . S
C491 H478 0.930 . S
C491 C490 1.388 . S
C491 C492 1.390 . S
C492 C491 1.390 . S
C492 C493 1.394 . S
C492 C498 1.465 1_655 S
C493 C488 1.399 . S
C493 C492 1.394 . S
C493 C494 1.516 . S
C494 C493 1.516 . S
C494 C495 1.502 . S
C494 C496 1.561 1_655 S
C494 C497 1.526 1_655 S
C495 H479 0.959 . S
C495 H480 0.959 1_655 S
C495 H481 0.961 . S
C495 C494 1.502 . S
C496 H482 0.960 1_455 S
C496 H483 0.961 . S
C496 H484 0.959 . S
C496 C494 1.561 1_455 S
C497 C494 1.526 1_455 S
C497 C498 1.396 . S
C497 C502 1.390 . S
C498 C492 1.465 1_455 S
C498 C497 1.396 . S
C498 C499 1.399 . S
C499 H485 0.929 . S
C499 C498 1.399 . S
C499 C500 1.385 . S
C500 H486 0.931 . S
C500 C499 1.385 . S
C500 C501 1.389 . S
C501 C500 1.389 . S
C501 C502 1.387 . S
C502 H487 0.930 . S
C502 C497 1.390 . S
C502 C501 1.387 . S
H503 C515 0.930 . S
H504 C517 0.930 . S
H505 C518 0.930 . S
H506 C522 0.959 . S
H507 C522 0.959 1_565 S
H508 C522 0.961 . S
H509 C523 0.960 1_545 S
H510 C523 0.961 . S
H511 C523 0.959 . S
H512 C526 0.929 . S
H513 C527 0.931 . S
H514 C529 0.930 . S
C515 H503 0.930 . S
C515 C516 1.399 . S
C515 C520 1.399 . S
C516 C515 1.399 . S
C516 C517 1.376 . S
C517 H504 0.930 . S
C517 C516 1.376 . S
C517 C518 1.388 . S
C518 H505 0.930 . S
C518 C517 1.388 . S
C518 C519 1.390 . S
C519 C518 1.390 . S
C519 C520 1.394 . S
C519 C525 1.465 1_545 S
C520 C515 1.399 . S
C520 C519 1.394 . S
C520 C521 1.510 1_545 S
C521 C520 1.510 1_565 S
C521 C522 1.500 1_565 S
C521 C523 1.563 . S
C521 C524 1.532 . S
C522 H506 0.959 . S
C522 H507 0.959 1_545 S
C522 H508 0.961 . S
C522 C521 1.500 1_545 S
C523 H509 0.960 1_565 S
C523 H510 0.961 . S
C523 H511 0.959 . S
C523 C521 1.563 . S
C524 C521 1.532 . S
C524 C525 1.396 . S
C524 C529 1.390 . S
C525 C519 1.465 1_565 S
C525 C524 1.396 . S
C525 C526 1.399 . S
C526 H512 0.929 . S
C526 C525 1.399 . S
C526 C527 1.385 . S
C527 H513 0.931 . S
C527 C526 1.385 . S
C527 C528 1.389 . S
C528 C527 1.389 . S
C528 C529 1.387 . S
C529 H514 0.930 . S
C529 C524 1.390 . S
C529 C528 1.387 . S
H530 C542 0.930 . S
H531 C544 0.930 . S
H532 C545 0.930 . S
H533 C549 0.959 . S
H534 C549 0.959 1_455 S
H535 C549 0.961 . S
H536 C550 0.960 1_655 S
H537 C550 0.961 . S
H538 C550 0.959 . S
H539 C553 0.929 . S
H540 C554 0.931 . S
H541 C556 0.930 . S
C542 H530 0.930 . S
C542 C543 1.399 . S
C542 C547 1.399 . S
C543 C542 1.399 . S
C543 C544 1.376 . S
C544 H531 0.930 . S
C544 C543 1.376 . S
C544 C545 1.388 . S
C545 H532 0.930 . S
C545 C544 1.388 . S
C545 C546 1.390 . S
C546 C545 1.390 . S
C546 C547 1.394 . S
C546 C552 1.465 1_655 S
C547 C542 1.399 . S
C547 C546 1.394 . S
C547 C548 1.516 1_655 S
C548 C547 1.516 1_455 S
C548 C549 1.502 1_455 S
C548 C550 1.561 . S
C548 C551 1.526 . S
C549 H533 0.959 . S
C549 H534 0.959 1_655 S
C549 H535 0.961 . S
C549 C548 1.502 1_655 S
C550 H536 0.960 1_455 S
C550 H537 0.961 . S
C550 H538 0.959 . S
C550 C548 1.561 . S
C551 C548 1.526 . S
C551 C552 1.396 . S
C551 C556 1.390 . S
C552 C546 1.465 1_455 S
C552 C551 1.396 . S
C552 C553 1.399 . S
C553 H539 0.929 . S
C553 C552 1.399 . S
C553 C554 1.385 . S
C554 H540 0.931 . S
C554 C553 1.385 . S
C554 C555 1.389 . S
C555 C554 1.389 . S
C555 C556 1.387 . S
C556 H541 0.930 . S
C556 C551 1.390 . S
C556 C555 1.387 . S
H557 C569 0.930 . S
H558 C571 0.930 . S
H559 C572 0.930 . S
H560 C576 0.959 . S
H561 C576 0.959 . S
H562 C576 0.961 1_545 S
H563 C577 0.960 . S
H564 C577 0.961 1_565 S
H565 C577 0.959 . S
H566 C580 0.929 . S
H567 C581 0.931 . S
H568 C583 0.930 . S
C569 H557 0.930 . S
C569 C570 1.399 . S
C569 C574 1.399 . S
C570 C569 1.399 . S
C570 C571 1.376 . S
C571 H558 0.930 . S
C571 C570 1.376 . S
C571 C572 1.388 . S
C572 H559 0.930 . S
C572 C571 1.388 . S
C572 C573 1.390 . S
C573 C572 1.390 . S
C573 C574 1.394 . S
C573 C579 1.465 1_545 S
C574 C569 1.399 . S
C574 C573 1.394 . S
C574 C575 1.516 1_545 S
C575 C574 1.516 1_565 S
C575 C576 1.502 . S
C575 C577 1.561 1_565 S
C575 C578 1.526 . S
C576 H560 0.959 . S
C576 H561 0.959 . S
C576 H562 0.961 1_565 S
C576 C575 1.502 . S
C577 H563 0.960 . S
C577 H564 0.961 1_545 S
C577 H565 0.959 . S
C577 C575 1.561 1_545 S
C578 C575 1.526 . S
C578 C579 1.396 . S
C578 C583 1.390 . S
C579 C573 1.465 1_565 S
C579 C578 1.396 . S
C579 C580 1.399 . S
C580 H566 0.929 . S
C580 C579 1.399 . S
C580 C581 1.385 . S
C581 H567 0.931 . S
C581 C580 1.385 . S
C581 C582 1.389 . S
C582 C581 1.389 . S
C582 C583 1.387 . S
C583 H568 0.930 . S
C583 C578 1.390 . S
C583 C582 1.387 . S
H584 C596 0.930 . S
H585 C598 0.930 . S
H586 C599 0.930 . S
H587 C603 0.959 . S
H588 C603 0.959 . S
H589 C603 0.961 . S
H590 C604 0.960 . S
H591 C604 0.961 . S
H592 C604 0.959 . S
H593 C607 0.929 . S
H594 C608 0.931 . S
H595 C610 0.930 . S
C596 H584 0.930 . S
C596 C597 1.399 . S
C596 C601 1.399 . S
C597 C596 1.399 . S
C597 C598 1.376 . S
C598 H585 0.930 . S
C598 C597 1.376 . S
C598 C599 1.388 . S
C599 H586 0.930 . S
C599 C598 1.388 . S
C599 C600 1.390 . S
C600 C599 1.390 . S
C600 C601 1.394 . S
C600 C606 1.465 . S
C601 C596 1.399 . S
C601 C600 1.394 . S
C601 C602 1.516 . S
C602 C601 1.516 . S
C602 C603 1.502 . S
C602 C604 1.561 . S
C602 C605 1.526 . S
C603 H587 0.959 . S
C603 H588 0.959 . S
C603 H589 0.961 . S
C603 C602 1.502 . S
C604 H590 0.960 . S
C604 H591 0.961 . S
C604 H592 0.959 . S
C604 C602 1.561 . S
C605 C602 1.526 . S
C605 C606 1.396 . S
C605 C610 1.390 . S
C606 C600 1.465 . S
C606 C605 1.396 . S
C606 C607 1.399 . S
C607 H593 0.929 . S
C607 C606 1.399 . S
C607 C608 1.385 . S
C608 H594 0.931 . S
C608 C607 1.385 . S
C608 C609 1.389 . S
C609 C608 1.389 . S
C609 C610 1.387 . S
C610 H595 0.930 . S
C610 C605 1.390 . S
C610 C609 1.387 . S
H611 C623 0.930 . S
H612 C625 0.930 . S
H613 C626 0.930 . S
H614 C630 0.959 . S
H615 C630 0.959 . S
H616 C630 0.961 . S
H617 C631 0.960 . S
H618 C631 0.961 . S
H619 C631 0.959 . S
H620 C634 0.929 . S
H621 C635 0.931 . S
H622 C637 0.930 . S
C623 H611 0.930 . S
C623 C624 1.399 . S
C623 C628 1.399 . S
C624 C623 1.399 . S
C624 C625 1.376 . S
C625 H612 0.930 . S
C625 C624 1.376 . S
C625 C626 1.388 . S
C626 H613 0.930 . S
C626 C625 1.388 . S
C626 C627 1.390 . S
C627 C626 1.390 . S
C627 C628 1.394 . S
C627 C633 1.465 . S
C628 C623 1.399 . S
C628 C627 1.394 . S
C628 C629 1.516 . S
C629 C628 1.516 . S
C629 C630 1.502 . S
C629 C631 1.561 . S
C629 C632 1.526 . S
C630 H614 0.959 . S
C630 H615 0.959 . S
C630 H616 0.961 . S
C630 C629 1.502 . S
C631 H617 0.960 . S
C631 H618 0.961 . S
C631 H619 0.959 . S
C631 C629 1.561 . S
C632 C629 1.526 . S
C632 C633 1.396 . S
C632 C637 1.390 . S
C633 C627 1.465 . S
C633 C632 1.396 . S
C633 C634 1.399 . S
C634 H620 0.929 . S
C634 C633 1.399 . S
C634 C635 1.385 . S
C635 H621 0.931 . S
C635 C634 1.385 . S
C635 C636 1.389 . S
C636 C635 1.389 . S
C636 C637 1.387 . S
C637 H622 0.930 . S
C637 C632 1.390 . S
C637 C636 1.387 . S
H638 C650 0.930 . S
H639 C652 0.930 . S
H640 C653 0.930 . S
H641 C657 0.959 . S
H642 C657 0.959 . S
H643 C657 0.961 . S
H644 C658 0.960 . S
H645 C658 0.961 . S
H646 C658 0.959 . S
H647 C661 0.929 . S
H648 C662 0.931 . S
H649 C664 0.930 . S
C650 H638 0.930 . S
C650 C651 1.399 . S
C650 C655 1.399 . S
C651 C650 1.399 . S
C651 C652 1.376 . S
C652 H639 0.930 . S
C652 C651 1.376 . S
C652 C653 1.388 . S
C653 H640 0.930 . S
C653 C652 1.388 . S
C653 C654 1.390 . S
C654 C653 1.390 . S
C654 C655 1.394 . S
C654 C660 1.465 . S
C655 C650 1.399 . S
C655 C654 1.394 . S
C655 C656 1.516 . S
C656 C655 1.516 . S
C656 C657 1.502 . S
C656 C658 1.561 . S
C656 C659 1.526 . S
C657 H641 0.959 . S
C657 H642 0.959 . S
C657 H643 0.961 . S
C657 C656 1.502 . S
C658 H644 0.960 . S
C658 H645 0.961 . S
C658 H646 0.959 . S
C658 C656 1.561 . S
C659 C656 1.526 . S
C659 C660 1.396 . S
C659 C664 1.390 . S
C660 C654 1.465 . S
C660 C659 1.396 . S
C660 C661 1.399 . S
C661 H647 0.929 . S
C661 C660 1.399 . S
C661 C662 1.385 . S
C662 H648 0.931 . S
C662 C661 1.385 . S
C662 C663 1.389 . S
C663 C662 1.389 . S
C663 C664 1.387 . S
C664 H649 0.930 . S
C664 C659 1.390 . S
C664 C663 1.387 . S
H665 C677 0.930 . S
H666 C679 0.930 . S
H667 C680 0.930 . S
H668 C684 0.959 . S
H669 C684 0.959 . S
H670 C684 0.961 . S
H671 C685 0.960 . S
H672 C685 0.961 . S
H673 C685 0.959 . S
H674 C688 0.929 . S
H675 C689 0.931 . S
H676 C691 0.930 . S
C677 H665 0.930 . S
C677 C678 1.399 . S
C677 C682 1.399 . S
C678 C677 1.399 . S
C678 C679 1.376 . S
C679 H666 0.930 . S
C679 C678 1.376 . S
C679 C680 1.388 . S
C680 H667 0.930 . S
C680 C679 1.388 . S
C680 C681 1.390 . S
C681 C680 1.390 . S
C681 C682 1.394 . S
C681 C687 1.465 . S
C682 C677 1.399 . S
C682 C681 1.394 . S
C682 C683 1.516 . S
C683 C682 1.516 . S
C683 C684 1.502 . S
C683 C685 1.561 . S
C683 C686 1.526 . S
C684 H668 0.959 . S
C684 H669 0.959 . S
C684 H670 0.961 . S
C684 C683 1.502 . S
C685 H671 0.960 . S
C685 H672 0.961 . S
C685 H673 0.959 . S
C685 C683 1.561 . S
C686 C683 1.526 . S
C686 C687 1.396 . S
C686 C691 1.390 . S
C687 C681 1.465 . S
C687 C686 1.396 . S
C687 C688 1.399 . S
C688 H674 0.929 . S
C688 C687 1.399 . S
C688 C689 1.385 . S
C689 H675 0.931 . S
C689 C688 1.385 . S
C689 C690 1.389 . S
C690 C689 1.389 . S
C690 C691 1.387 . S
C691 H676 0.930 . S
C691 C686 1.390 . S
C691 C690 1.387 . S
H692 C704 0.930 . S
H693 C706 0.930 . S
H694 C707 0.930 . S
H695 C711 0.959 . S
H696 C711 0.959 . S
H697 C711 0.961 . S
H698 C712 0.960 . S
H699 C712 0.961 . S
H700 C712 0.959 . S
H701 C715 0.929 . S
H702 C716 0.931 . S
H703 C718 0.930 . S
C704 H692 0.930 . S
C704 C705 1.399 . S
C704 C709 1.399 . S
C705 C704 1.399 . S
C705 C706 1.376 . S
C706 H693 0.930 . S
C706 C705 1.376 . S
C706 C707 1.388 . S
C707 H694 0.930 . S
C707 C706 1.388 . S
C707 C708 1.390 . S
C708 C707 1.390 . S
C708 C709 1.394 . S
C708 C714 1.465 . S
C709 C704 1.399 . S
C709 C708 1.394 . S
C709 C710 1.516 . S
C710 C709 1.516 . S
C710 C711 1.502 . S
C710 C712 1.561 . S
C710 C713 1.526 . S
C711 H695 0.959 . S
C711 H696 0.959 . S
C711 H697 0.961 . S
C711 C710 1.502 . S
C712 H698 0.960 . S
C712 H699 0.961 . S
C712 H700 0.959 . S
C712 C710 1.561 . S
C713 C710 1.526 . S
C713 C714 1.396 . S
C713 C718 1.390 . S
C714 C708 1.465 . S
C714 C713 1.396 . S
C714 C715 1.399 . S
C715 H701 0.929 . S
C715 C714 1.399 . S
C715 C716 1.385 . S
C716 H702 0.931 . S
C716 C715 1.385 . S
C716 C717 1.389 . S
C717 C716 1.389 . S
C717 C718 1.387 . S
C718 H703 0.930 . S
C718 C713 1.390 . S
C718 C717 1.387 . S
H719 C731 0.930 . S
H720 C733 0.930 . S
H721 C734 0.930 . S
H722 C738 0.959 . S
H723 C738 0.959 . S
H724 C738 0.961 . S
H725 C739 0.960 . S
H726 C739 0.961 . S
H727 C739 0.959 . S
H728 C742 0.929 . S
H729 C743 0.931 . S
H730 C745 0.930 . S
C731 H719 0.930 . S
C731 C732 1.399 . S
C731 C736 1.399 . S
C732 C731 1.399 . S
C732 C733 1.376 . S
C733 H720 0.930 . S
C733 C732 1.376 . S
C733 C734 1.388 . S
C734 H721 0.930 . S
C734 C733 1.388 . S
C734 C735 1.390 . S
C735 C734 1.390 . S
C735 C736 1.394 . S
C735 C741 1.465 . S
C736 C731 1.399 . S
C736 C735 1.394 . S
C736 C737 1.516 . S
C737 C736 1.516 . S
C737 C738 1.502 . S
C737 C739 1.561 . S
C737 C740 1.526 . S
C738 H722 0.959 . S
C738 H723 0.959 . S
C738 H724 0.961 . S
C738 C737 1.502 . S
C739 H725 0.960 . S
C739 H726 0.961 . S
C739 H727 0.959 . S
C739 C737 1.561 . S
C740 C737 1.526 . S
C740 C741 1.396 . S
C740 C745 1.390 . S
C741 C735 1.465 . S
C741 C740 1.396 . S
C741 C742 1.399 . S
C742 H728 0.929 . S
C742 C741 1.399 . S
C742 C743 1.385 . S
C743 H729 0.931 . S
C743 C742 1.385 . S
C743 C744 1.389 . S
C744 C743 1.389 . S
C744 C745 1.387 . S
C745 H730 0.930 . S
C745 C740 1.390 . S
C745 C744 1.387 . S
H746 C758 0.930 . S
H747 C760 0.930 . S
H748 C761 0.930 . S
H749 C765 0.959 . S
H750 C765 0.959 . S
H751 C765 0.961 . S
H752 C766 0.960 . S
H753 C766 0.961 . S
H754 C766 0.959 . S
H755 C769 0.929 . S
H756 C770 0.931 . S
H757 C772 0.930 . S
C758 H746 0.930 . S
C758 C759 1.399 . S
C758 C763 1.399 . S
C759 C758 1.399 . S
C759 C760 1.376 . S
C760 H747 0.930 . S
C760 C759 1.376 . S
C760 C761 1.388 . S
C761 H748 0.930 . S
C761 C760 1.388 . S
C761 C762 1.390 . S
C762 C761 1.390 . S
C762 C763 1.394 . S
C762 C768 1.465 . S
C763 C758 1.399 . S
C763 C762 1.394 . S
C763 C764 1.516 . S
C764 C763 1.516 . S
C764 C765 1.502 . S
C764 C766 1.561 . S
C764 C767 1.526 . S
C765 H749 0.959 . S
C765 H750 0.959 . S
C765 H751 0.961 . S
C765 C764 1.502 . S
C766 H752 0.960 . S
C766 H753 0.961 . S
C766 H754 0.959 . S
C766 C764 1.561 . S
C767 C764 1.526 . S
C767 C768 1.396 . S
C767 C772 1.390 . S
C768 C762 1.465 . S
C768 C767 1.396 . S
C768 C769 1.399 . S
C769 H755 0.929 . S
C769 C768 1.399 . S
C769 C770 1.385 . S
C770 H756 0.931 . S
C770 C769 1.385 . S
C770 C771 1.389 . S
C771 C770 1.389 . S
C771 C772 1.387 . S
C772 H757 0.930 . S
C772 C767 1.390 . S
C772 C771 1.387 . S
H773 C785 0.930 . S
H774 C787 0.930 . S
H775 C788 0.930 . S
H776 C792 0.959 . S
H777 C792 0.959 . S
H778 C792 0.961 . S
H779 C793 0.960 . S
H780 C793 0.961 . S
H781 C793 0.959 . S
H782 C796 0.929 . S
H783 C797 0.931 . S
H784 C799 0.930 . S
C785 H773 0.930 . S
C785 C786 1.399 . S
C785 C790 1.399 . S
C786 C785 1.399 . S
C786 C787 1.376 . S
C787 H774 0.930 . S
C787 C786 1.376 . S
C787 C788 1.388 . S
C788 H775 0.930 . S
C788 C787 1.388 . S
C788 C789 1.390 . S
C789 C788 1.390 . S
C789 C790 1.394 . S
C789 C795 1.465 . S
C790 C785 1.399 . S
C790 C789 1.394 . S
C790 C791 1.516 . S
C791 C790 1.516 . S
C791 C792 1.502 . S
C791 C793 1.561 . S
C791 C794 1.526 . S
C792 H776 0.959 . S
C792 H777 0.959 . S
C792 H778 0.961 . S
C792 C791 1.502 . S
C793 H779 0.960 . S
C793 H780 0.961 . S
C793 H781 0.959 . S
C793 C791 1.561 . S
C794 C791 1.526 . S
C794 C795 1.396 . S
C794 C799 1.390 . S
C795 C789 1.465 . S
C795 C794 1.396 . S
C795 C796 1.399 . S
C796 H782 0.929 . S
C796 C795 1.399 . S
C796 C797 1.385 . S
C797 H783 0.931 . S
C797 C796 1.385 . S
C797 C798 1.389 . S
C798 C797 1.389 . S
C798 C799 1.387 . S
C799 H784 0.930 . S
C799 C794 1.390 . S
C799 C798 1.387 . S
H800 C812 0.930 . S
H801 C814 0.930 . S
H802 C815 0.930 . S
H803 C819 0.962 . S
H804 C819 0.979 . S
H805 C819 0.940 1_556 S
H806 C820 0.958 1_556 S
H807 C820 0.963 . S
H808 C820 0.959 . S
H809 C823 0.929 . S
H810 C824 0.931 . S
H811 C826 0.930 . S
C812 H800 0.930 . S
C812 C813 1.399 . S
C812 C817 1.399 . S
C813 C812 1.399 . S
C813 C814 1.376 . S
C814 H801 0.930 . S
C814 C813 1.376 . S
C814 C815 1.388 . S
C815 H802 0.930 . S
C815 C814 1.388 . S
C815 C816 1.390 . S
C816 C815 1.390 . S
C816 C817 1.394 . S
C816 C822 1.465 1_556 S
C817 C812 1.399 . S
C817 C816 1.394 . S
C817 C818 1.517 1_556 S
C818 C817 1.517 1_554 S
C818 C819 1.502 . S
C818 C820 1.561 . S
C818 C821 1.525 . S
C819 H803 0.962 . S
C819 H804 0.979 . S
C819 H805 0.940 1_554 S
C819 C818 1.502 . S
C820 H806 0.958 1_554 S
C820 H807 0.963 . S
C820 H808 0.959 . S
C820 C818 1.561 . S
C821 C818 1.525 . S
C821 C822 1.396 . S
C821 C826 1.390 . S
C822 C816 1.465 1_554 S
C822 C821 1.396 . S
C822 C823 1.399 . S
C823 H809 0.929 . S
C823 C822 1.399 . S
C823 C824 1.385 . S
C824 H810 0.931 . S
C824 C823 1.385 . S
C824 C825 1.389 . S
C825 C824 1.389 . S
C825 C826 1.387 . S
C826 H811 0.930 . S
C826 C821 1.390 . S
C826 C825 1.387 . S
H827 C839 0.930 . S
H828 C841 0.930 . S
H829 C842 0.930 . S
H830 C846 0.959 . S
H831 C846 0.959 . S
H832 C846 0.961 . S
H833 C847 0.960 . S
H834 C847 0.961 . S
H835 C847 0.959 . S
H836 C850 0.929 . S
H837 C851 0.931 . S
H838 C853 0.930 . S
C839 H827 0.930 . S
C839 C840 1.399 . S
C839 C844 1.399 . S
C840 C839 1.399 . S
C840 C841 1.376 . S
C841 H828 0.930 . S
C841 C840 1.376 . S
C841 C842 1.388 . S
C842 H829 0.930 . S
C842 C841 1.388 . S
C842 C843 1.390 . S
C843 C842 1.390 . S
C843 C844 1.394 . S
C843 C849 1.465 . S
C844 C839 1.399 . S
C844 C843 1.394 . S
C844 C845 1.516 . S
C845 C844 1.516 . S
C845 C846 1.502 . S
C845 C847 1.561 . S
C845 C848 1.526 . S
C846 H830 0.959 . S
C846 H831 0.959 . S
C846 H832 0.961 . S
C846 C845 1.502 . S
C847 H833 0.960 . S
C847 H834 0.961 . S
C847 H835 0.959 . S
C847 C845 1.561 . S
C848 C845 1.526 . S
C848 C849 1.396 . S
C848 C853 1.390 . S
C849 C843 1.465 . S
C849 C848 1.396 . S
C849 C850 1.399 . S
C850 H836 0.929 . S
C850 C849 1.399 . S
C850 C851 1.385 . S
C851 H837 0.931 . S
C851 C850 1.385 . S
C851 C852 1.389 . S
C852 C851 1.389 . S
C852 C853 1.387 . S
C853 H838 0.930 . S
C853 C848 1.390 . S
C853 C852 1.387 . S
H854 C866 0.930 . S
H855 C868 0.930 . S
H856 C869 0.930 . S
H857 C873 0.962 . S
H858 C873 0.979 . S
H859 C873 0.940 1_554 S
H860 C874 0.958 1_554 S
H861 C874 0.963 . S
H862 C874 0.959 . S
H863 C877 0.929 . S
H864 C878 0.931 . S
H865 C880 0.930 . S
C866 H854 0.930 . S
C866 C867 1.399 . S
C866 C871 1.399 . S
C867 C866 1.399 . S
C867 C868 1.376 . S
C868 H855 0.930 . S
C868 C867 1.376 . S
C868 C869 1.388 . S
C869 H856 0.930 . S
C869 C868 1.388 . S
C869 C870 1.390 . S
C870 C869 1.390 . S
C870 C871 1.394 . S
C870 C876 1.465 1_554 S
C871 C866 1.399 . S
C871 C870 1.394 . S
C871 C872 1.517 1_554 S
C872 C871 1.517 1_556 S
C872 C873 1.502 . S
C872 C874 1.561 . S
C872 C875 1.525 . S
C873 H857 0.962 . S
C873 H858 0.979 . S
C873 H859 0.940 1_556 S
C873 C872 1.502 . S
C874 H860 0.958 1_556 S
C874 H861 0.963 . S
C874 H862 0.959 . S
C874 C872 1.561 . S
C875 C872 1.525 . S
C875 C876 1.396 . S
C875 C880 1.390 . S
C876 C870 1.465 1_556 S
C876 C875 1.396 . S
C876 C877 1.399 . S
C877 H863 0.929 . S
C877 C876 1.399 . S
C877 C878 1.385 . S
C878 H864 0.931 . S
C878 C877 1.385 . S
C878 C879 1.389 . S
C879 C878 1.389 . S
C879 C880 1.387 . S
C880 H865 0.930 . S
C880 C875 1.390 . S
C880 C879 1.387 . S
H881 C893 0.930 . S
H882 C895 0.930 . S
H883 C896 0.930 . S
H884 C900 0.959 . S
H885 C900 0.959 . S
H886 C900 0.961 . S
H887 C901 0.960 . S
H888 C901 0.961 . S
H889 C901 0.959 . S
H890 C904 0.929 . S
H891 C905 0.931 . S
H892 C907 0.930 . S
C893 H881 0.930 . S
C893 C894 1.399 . S
C893 C898 1.399 . S
C894 C893 1.399 . S
C894 C895 1.376 . S
C895 H882 0.930 . S
C895 C894 1.376 . S
C895 C896 1.388 . S
C896 H883 0.930 . S
C896 C895 1.388 . S
C896 C897 1.390 . S
C897 C896 1.390 . S
C897 C898 1.394 . S
C897 C903 1.465 . S
C898 C893 1.399 . S
C898 C897 1.394 . S
C898 C899 1.516 . S
C899 C898 1.516 . S
C899 C900 1.502 . S
C899 C901 1.561 . S
C899 C902 1.526 . S
C900 H884 0.959 . S
C900 H885 0.959 . S
C900 H886 0.961 . S
C900 C899 1.502 . S
C901 H887 0.960 . S
C901 H888 0.961 . S
C901 H889 0.959 . S
C901 C899 1.561 . S
C902 C899 1.526 . S
C902 C903 1.396 . S
C902 C907 1.390 . S
C903 C897 1.465 . S
C903 C902 1.396 . S
C903 C904 1.399 . S
C904 H890 0.929 . S
C904 C903 1.399 . S
C904 C905 1.385 . S
C905 H891 0.931 . S
C905 C904 1.385 . S
C905 C906 1.389 . S
C906 C905 1.389 . S
C906 C907 1.387 . S
C907 H892 0.930 . S
C907 C902 1.390 . S
C907 C906 1.387 . S
H908 C920 0.930 . S
H909 C922 0.930 . S
H910 C923 0.930 . S
H911 C927 0.959 . S
H912 C927 0.959 . S
H913 C927 0.961 . S
H914 C928 0.960 . S
H915 C928 0.961 . S
H916 C928 0.959 . S
H917 C931 0.929 . S
H918 C932 0.931 . S
H919 C934 0.930 . S
C920 H908 0.930 . S
C920 C921 1.399 . S
C920 C925 1.399 . S
C921 C920 1.399 . S
C921 C922 1.376 . S
C922 H909 0.930 . S
C922 C921 1.376 . S
C922 C923 1.388 . S
C923 H910 0.930 . S
C923 C922 1.388 . S
C923 C924 1.390 . S
C924 C923 1.390 . S
C924 C925 1.394 . S
C924 C930 1.465 . S
C925 C920 1.399 . S
C925 C924 1.394 . S
C925 C926 1.516 . S
C926 C925 1.516 . S
C926 C927 1.502 . S
C926 C928 1.561 . S
C926 C929 1.526 . S
C927 H911 0.959 . S
C927 H912 0.959 . S
C927 H913 0.961 . S
C927 C926 1.502 . S
C928 H914 0.960 . S
C928 H915 0.961 . S
C928 H916 0.959 . S
C928 C926 1.561 . S
C929 C926 1.526 . S
C929 C930 1.396 . S
C929 C934 1.390 . S
C930 C924 1.465 . S
C930 C929 1.396 . S
C930 C931 1.399 . S
C931 H917 0.929 . S
C931 C930 1.399 . S
C931 C932 1.385 . S
C932 H918 0.931 . S
C932 C931 1.385 . S
C932 C933 1.389 . S
C933 C932 1.389 . S
C933 C934 1.387 . S
C934 H919 0.930 . S
C934 C929 1.390 . S
C934 C933 1.387 . S
H935 C947 0.930 . S
H936 C949 0.930 . S
H937 C950 0.930 . S
H938 C954 0.962 . S
H939 C954 0.979 . S
H940 C954 0.940 1_556 S
H941 C955 0.958 1_556 S
H942 C955 0.963 . S
H943 C955 0.959 . S
H944 C958 0.929 . S
H945 C959 0.931 . S
H946 C961 0.930 . S
C947 H935 0.930 . S
C947 C948 1.399 . S
C947 C952 1.399 . S
C948 C947 1.399 . S
C948 C949 1.376 . S
C949 H936 0.930 . S
C949 C948 1.376 . S
C949 C950 1.388 . S
C950 H937 0.930 . S
C950 C949 1.388 . S
C950 C951 1.390 . S
C951 C950 1.390 . S
C951 C952 1.394 . S
C951 C957 1.465 1_556 S
C952 C947 1.399 . S
C952 C951 1.394 . S
C952 C953 1.517 1_556 S
C953 C952 1.517 1_554 S
C953 C954 1.502 . S
C953 C955 1.561 . S
C953 C956 1.525 . S
C954 H938 0.962 . S
C954 H939 0.979 . S
C954 H940 0.940 1_554 S
C954 C953 1.502 . S
C955 H941 0.958 1_554 S
C955 H942 0.963 . S
C955 H943 0.959 . S
C955 C953 1.561 . S
C956 C953 1.525 . S
C956 C957 1.396 . S
C956 C961 1.390 . S
C957 C951 1.465 1_554 S
C957 C956 1.396 . S
C957 C958 1.399 . S
C958 H944 0.929 . S
C958 C957 1.399 . S
C958 C959 1.385 . S
C959 H945 0.931 . S
C959 C958 1.385 . S
C959 C960 1.389 . S
C960 C959 1.389 . S
C960 C961 1.387 . S
C961 H946 0.930 . S
C961 C956 1.390 . S
C961 C960 1.387 . S
H962 C974 0.930 . S
H963 C976 0.930 . S
H964 C977 0.930 . S
H965 C981 0.959 . S
H966 C981 0.959 . S
H967 C981 0.961 . S
H968 C982 0.960 . S
H969 C982 0.961 . S
H970 C982 0.959 . S
H971 C985 0.929 . S
H972 C986 0.931 . S
H973 C988 0.930 . S
C974 H962 0.930 . S
C974 C975 1.399 . S
C974 C979 1.399 . S
C975 C974 1.399 . S
C975 C976 1.376 . S
C976 H963 0.930 . S
C976 C975 1.376 . S
C976 C977 1.388 . S
C977 H964 0.930 . S
C977 C976 1.388 . S
C977 C978 1.390 . S
C978 C977 1.390 . S
C978 C979 1.394 . S
C978 C984 1.465 . S
C979 C974 1.399 . S
C979 C978 1.394 . S
C979 C980 1.516 . S
C980 C979 1.516 . S
C980 C981 1.502 . S
C980 C982 1.561 . S
C980 C983 1.526 . S
C981 H965 0.959 . S
C981 H966 0.959 . S
C981 H967 0.961 . S
C981 C980 1.502 . S
C982 H968 0.960 . S
C982 H969 0.961 . S
C982 H970 0.959 . S
C982 C980 1.561 . S
C983 C980 1.526 . S
C983 C984 1.396 . S
C983 C988 1.390 . S
C984 C978 1.465 . S
C984 C983 1.396 . S
C984 C985 1.399 . S
C985 H971 0.929 . S
C985 C984 1.399 . S
C985 C986 1.385 . S
C986 H972 0.931 . S
C986 C985 1.385 . S
C986 C987 1.389 . S
C987 C986 1.389 . S
C987 C988 1.387 . S
C988 H973 0.930 . S
C988 C983 1.390 . S
C988 C987 1.387 . S
H989 C1001 0.930 . S
H990 C1003 0.930 . S
H991 C1004 0.930 . S
H992 C1008 0.962 . S
H993 C1008 0.979 . S
H994 C1008 0.940 1_554 S
H995 C1009 0.958 1_554 S
H996 C1009 0.963 . S
H997 C1009 0.959 . S
H998 C1012 0.929 . S
H999 C1013 0.931 . S
H1000 C1015 0.930 . S
C1001 H989 0.930 . S
C1001 C1002 1.399 . S
C1001 C1006 1.399 . S
C1002 C1001 1.399 . S
C1002 C1003 1.376 . S
C1003 H990 0.930 . S
C1003 C1002 1.376 . S
C1003 C1004 1.388 . S
C1004 H991 0.930 . S
C1004 C1003 1.388 . S
C1004 C1005 1.390 . S
C1005 C1004 1.390 . S
C1005 C1006 1.394 . S
C1005 C1011 1.465 1_554 S
C1006 C1001 1.399 . S
C1006 C1005 1.394 . S
C1006 C1007 1.517 1_554 S
C1007 C1006 1.517 1_556 S
C1007 C1008 1.502 . S
C1007 C1009 1.561 . S
C1007 C1010 1.525 . S
C1008 H992 0.962 . S
C1008 H993 0.979 . S
C1008 H994 0.940 1_556 S
C1008 C1007 1.502 . S
C1009 H995 0.958 1_556 S
C1009 H996 0.963 . S
C1009 H997 0.959 . S
C1009 C1007 1.561 . S
C1010 C1007 1.525 . S
C1010 C1011 1.396 . S
C1010 C1015 1.390 . S
C1011 C1005 1.465 1_556 S
C1011 C1010 1.396 . S
C1011 C1012 1.399 . S
C1012 H998 0.929 . S
C1012 C1011 1.399 . S
C1012 C1013 1.385 . S
C1013 H999 0.931 . S
C1013 C1012 1.385 . S
C1013 C1014 1.389 . S
C1014 C1013 1.389 . S
C1014 C1015 1.387 . S
C1015 H1000 0.930 . S
C1015 C1010 1.390 . S
C1015 C1014 1.387 . S
H1016 C1028 0.930 . S
H1017 C1030 0.930 . S
H1018 C1031 0.930 . S
H1019 C1035 0.959 . S
H1020 C1035 0.959 . S
H1021 C1035 0.961 . S
H1022 C1036 0.960 . S
H1023 C1036 0.961 . S
H1024 C1036 0.959 . S
H1025 C1039 0.929 . S
H1026 C1040 0.931 . S
H1027 C1042 0.930 . S
C1028 H1016 0.930 . S
C1028 C1029 1.399 . S
C1028 C1033 1.399 . S
C1029 C1028 1.399 . S
C1029 C1030 1.376 . S
C1030 H1017 0.930 . S
C1030 C1029 1.376 . S
C1030 C1031 1.388 . S
C1031 H1018 0.930 . S
C1031 C1030 1.388 . S
C1031 C1032 1.390 . S
C1032 C1031 1.390 . S
C1032 C1033 1.394 . S
C1032 C1038 1.465 . S
C1033 C1028 1.399 . S
C1033 C1032 1.394 . S
C1033 C1034 1.516 . S
C1034 C1033 1.516 . S
C1034 C1035 1.502 . S
C1034 C1036 1.561 . S
C1034 C1037 1.526 . S
C1035 H1019 0.959 . S
C1035 H1020 0.959 . S
C1035 H1021 0.961 . S
C1035 C1034 1.502 . S
C1036 H1022 0.960 . S
C1036 H1023 0.961 . S
C1036 H1024 0.959 . S
C1036 C1034 1.561 . S
C1037 C1034 1.526 . S
C1037 C1038 1.396 . S
C1037 C1042 1.390 . S
C1038 C1032 1.465 . S
C1038 C1037 1.396 . S
C1038 C1039 1.399 . S
C1039 H1025 0.929 . S
C1039 C1038 1.399 . S
C1039 C1040 1.385 . S
C1040 H1026 0.931 . S
C1040 C1039 1.385 . S
C1040 C1041 1.389 . S
C1041 C1040 1.389 . S
C1041 C1042 1.387 . S
C1042 H1027 0.930 . S
C1042 C1037 1.390 . S
C1042 C1041 1.387 . S
H1043 C1055 0.930 . S
H1044 C1057 0.930 . S
H1045 C1058 0.930 . S
H1046 C1062 0.959 . S
H1047 C1062 0.959 . S
H1048 C1062 0.961 . S
H1049 C1063 0.960 . S
H1050 C1063 0.961 . S
H1051 C1063 0.959 . S
H1052 C1066 0.929 . S
H1053 C1067 0.931 . S
H1054 C1069 0.930 . S
C1055 H1043 0.930 . S
C1055 C1056 1.399 . S
C1055 C1060 1.399 . S
C1056 C1055 1.399 . S
C1056 C1057 1.376 . S
C1057 H1044 0.930 . S
C1057 C1056 1.376 . S
C1057 C1058 1.388 . S
C1058 H1045 0.930 . S
C1058 C1057 1.388 . S
C1058 C1059 1.390 . S
C1059 C1058 1.390 . S
C1059 C1060 1.394 . S
C1059 C1065 1.465 . S
C1060 C1055 1.399 . S
C1060 C1059 1.394 . S
C1060 C1061 1.516 . S
C1061 C1060 1.516 . S
C1061 C1062 1.502 . S
C1061 C1063 1.561 . S
C1061 C1064 1.526 . S
C1062 H1046 0.959 . S
C1062 H1047 0.959 . S
C1062 H1048 0.961 . S
C1062 C1061 1.502 . S
C1063 H1049 0.960 . S
C1063 H1050 0.961 . S
C1063 H1051 0.959 . S
C1063 C1061 1.561 . S
C1064 C1061 1.526 . S
C1064 C1065 1.396 . S
C1064 C1069 1.390 . S
C1065 C1059 1.465 . S
C1065 C1064 1.396 . S
C1065 C1066 1.399 . S
C1066 H1052 0.929 . S
C1066 C1065 1.399 . S
C1066 C1067 1.385 . S
C1067 H1053 0.931 . S
C1067 C1066 1.385 . S
C1067 C1068 1.389 . S
C1068 C1067 1.389 . S
C1068 C1069 1.387 . S
C1069 H1054 0.930 . S
C1069 C1064 1.390 . S
C1069 C1068 1.387 . S
H1070 C1082 0.930 . S
H1071 C1084 0.930 . S
H1072 C1085 0.930 . S
H1073 C1089 0.959 . S
H1074 C1089 0.959 . S
H1075 C1089 0.961 . S
H1076 C1090 0.960 . S
H1077 C1090 0.961 . S
H1078 C1090 0.959 . S
H1079 C1093 0.929 . S
H1080 C1094 0.931 . S
H1081 C1096 0.930 . S
C1082 H1070 0.930 . S
C1082 C1083 1.399 . S
C1082 C1087 1.399 . S
C1083 C1082 1.399 . S
C1083 C1084 1.376 . S
C1084 H1071 0.930 . S
C1084 C1083 1.376 . S
C1084 C1085 1.388 . S
C1085 H1072 0.930 . S
C1085 C1084 1.388 . S
C1085 C1086 1.390 . S
C1086 C1085 1.390 . S
C1086 C1087 1.394 . S
C1086 C1092 1.465 . S
C1087 C1082 1.399 . S
C1087 C1086 1.394 . S
C1087 C1088 1.516 . S
C1088 C1087 1.516 . S
C1088 C1089 1.502 . S
C1088 C1090 1.561 . S
C1088 C1091 1.526 . S
C1089 H1073 0.959 . S
C1089 H1074 0.959 . S
C1089 H1075 0.961 . S
C1089 C1088 1.502 . S
C1090 H1076 0.960 . S
C1090 H1077 0.961 . S
C1090 H1078 0.959 . S
C1090 C1088 1.561 . S
C1091 C1088 1.526 . S
C1091 C1092 1.396 . S
C1091 C1096 1.390 . S
C1092 C1086 1.465 . S
C1092 C1091 1.396 . S
C1092 C1093 1.399 . S
C1093 H1079 0.929 . S
C1093 C1092 1.399 . S
C1093 C1094 1.385 . S
C1094 H1080 0.931 . S
C1094 C1093 1.385 . S
C1094 C1095 1.389 . S
C1095 C1094 1.389 . S
C1095 C1096 1.387 . S
C1096 H1081 0.930 . S
C1096 C1091 1.390 . S
C1096 C1095 1.387 . S
H1097 C1109 0.930 . S
H1098 C1111 0.930 . S
H1099 C1112 0.930 . S
H1100 C1116 0.959 . S
H1101 C1116 0.959 . S
H1102 C1116 0.961 . S
H1103 C1117 0.960 . S
H1104 C1117 0.961 . S
H1105 C1117 0.959 . S
H1106 C1120 0.929 . S
H1107 C1121 0.931 . S
H1108 C1123 0.930 . S
C1109 H1097 0.930 . S
C1109 C1110 1.399 . S
C1109 C1114 1.399 . S
C1110 C1109 1.399 . S
C1110 C1111 1.376 . S
C1111 H1098 0.930 . S
C1111 C1110 1.376 . S
C1111 C1112 1.388 . S
C1112 H1099 0.930 . S
C1112 C1111 1.388 . S
C1112 C1113 1.390 . S
C1113 C1112 1.390 . S
C1113 C1114 1.394 . S
C1113 C1119 1.465 . S
C1114 C1109 1.399 . S
C1114 C1113 1.394 . S
C1114 C1115 1.516 . S
C1115 C1114 1.516 . S
C1115 C1116 1.502 . S
C1115 C1117 1.561 . S
C1115 C1118 1.526 . S
C1116 H1100 0.959 . S
C1116 H1101 0.959 . S
C1116 H1102 0.961 . S
C1116 C1115 1.502 . S
C1117 H1103 0.960 . S
C1117 H1104 0.961 . S
C1117 H1105 0.959 . S
C1117 C1115 1.561 . S
C1118 C1115 1.526 . S
C1118 C1119 1.396 . S
C1118 C1123 1.390 . S
C1119 C1113 1.465 . S
C1119 C1118 1.396 . S
C1119 C1120 1.399 . S
C1120 H1106 0.929 . S
C1120 C1119 1.399 . S
C1120 C1121 1.385 . S
C1121 H1107 0.931 . S
C1121 C1120 1.385 . S
C1121 C1122 1.389 . S
C1122 C1121 1.389 . S
C1122 C1123 1.387 . S
C1123 H1108 0.930 . S
C1123 C1118 1.390 . S
C1123 C1122 1.387 . S
H1124 C1136 0.930 . S
H1125 C1138 0.930 . S
H1126 C1139 0.930 . S
H1127 C1143 0.959 . S
H1128 C1143 0.959 . S
H1129 C1143 0.961 . S
H1130 C1144 0.960 . S
H1131 C1144 0.961 . S
H1132 C1144 0.959 . S
H1133 C1147 0.929 . S
H1134 C1148 0.931 . S
H1135 C1150 0.930 . S
C1136 H1124 0.930 . S
C1136 C1137 1.399 . S
C1136 C1141 1.399 . S
C1137 C1136 1.399 . S
C1137 C1138 1.376 . S
C1138 H1125 0.930 . S
C1138 C1137 1.376 . S
C1138 C1139 1.388 . S
C1139 H1126 0.930 . S
C1139 C1138 1.388 . S
C1139 C1140 1.390 . S
C1140 C1139 1.390 . S
C1140 C1141 1.394 . S
C1140 C1146 1.465 . S
C1141 C1136 1.399 . S
C1141 C1140 1.394 . S
C1141 C1142 1.516 . S
C1142 C1141 1.516 . S
C1142 C1143 1.502 . S
C1142 C1144 1.561 . S
C1142 C1145 1.526 . S
C1143 H1127 0.959 . S
C1143 H1128 0.959 . S
C1143 H1129 0.961 . S
C1143 C1142 1.502 . S
C1144 H1130 0.960 . S
C1144 H1131 0.961 . S
C1144 H1132 0.959 . S
C1144 C1142 1.561 . S
C1145 C1142 1.526 . S
C1145 C1146 1.396 . S
C1145 C1150 1.390 . S
C1146 C1140 1.465 . S
C1146 C1145 1.396 . S
C1146 C1147 1.399 . S
C1147 H1133 0.929 . S
C1147 C1146 1.399 . S
C1147 C1148 1.385 . S
C1148 H1134 0.931 . S
C1148 C1147 1.385 . S
C1148 C1149 1.389 . S
C1149 C1148 1.389 . S
C1149 C1150 1.387 . S
C1150 H1135 0.930 . S
C1150 C1145 1.390 . S
C1150 C1149 1.387 . S
H1151 C1163 0.930 . S
H1152 C1165 0.930 . S
H1153 C1166 0.930 . S
H1154 C1170 0.959 . S
H1155 C1170 0.959 . S
H1156 C1170 0.961 . S
H1157 C1171 0.960 . S
H1158 C1171 0.961 . S
H1159 C1171 0.959 . S
H1160 C1174 0.929 . S
H1161 C1175 0.931 . S
H1162 C1177 0.930 . S
C1163 H1151 0.930 . S
C1163 C1164 1.399 . S
C1163 C1168 1.399 . S
C1164 C1163 1.399 . S
C1164 C1165 1.376 . S
C1165 H1152 0.930 . S
C1165 C1164 1.376 . S
C1165 C1166 1.388 . S
C1166 H1153 0.930 . S
C1166 C1165 1.388 . S
C1166 C1167 1.390 . S
C1167 C1166 1.390 . S
C1167 C1168 1.394 . S
C1167 C1173 1.465 . S
C1168 C1163 1.399 . S
C1168 C1167 1.394 . S
C1168 C1169 1.516 . S
C1169 C1168 1.516 . S
C1169 C1170 1.502 . S
C1169 C1171 1.561 . S
C1169 C1172 1.526 . S
C1170 H1154 0.959 . S
C1170 H1155 0.959 . S
C1170 H1156 0.961 . S
C1170 C1169 1.502 . S
C1171 H1157 0.960 . S
C1171 H1158 0.961 . S
C1171 H1159 0.959 . S
C1171 C1169 1.561 . S
C1172 C1169 1.526 . S
C1172 C1173 1.396 . S
C1172 C1177 1.390 . S
C1173 C1167 1.465 . S
C1173 C1172 1.396 . S
C1173 C1174 1.399 . S
C1174 H1160 0.929 . S
C1174 C1173 1.399 . S
C1174 C1175 1.385 . S
C1175 H1161 0.931 . S
C1175 C1174 1.385 . S
C1175 C1176 1.389 . S
C1176 C1175 1.389 . S
C1176 C1177 1.387 . S
C1177 H1162 0.930 . S
C1177 C1172 1.390 . S
C1177 C1176 1.387 . S
H1178 C1190 0.930 . S
H1179 C1192 0.930 . S
H1180 C1193 0.930 . S
H1181 C1197 0.959 . S
H1182 C1197 0.959 . S
H1183 C1197 0.961 . S
H1184 C1198 0.960 . S
H1185 C1198 0.961 . S
H1186 C1198 0.959 . S
H1187 C1201 0.929 . S
H1188 C1202 0.931 . S
H1189 C1204 0.930 . S
C1190 H1178 0.930 . S
C1190 C1191 1.399 . S
C1190 C1195 1.399 . S
C1191 C1190 1.399 . S
C1191 C1192 1.376 . S
C1192 H1179 0.930 . S
C1192 C1191 1.376 . S
C1192 C1193 1.388 . S
C1193 H1180 0.930 . S
C1193 C1192 1.388 . S
C1193 C1194 1.390 . S
C1194 C1193 1.390 . S
C1194 C1195 1.394 . S
C1194 C1200 1.465 . S
C1195 C1190 1.399 . S
C1195 C1194 1.394 . S
C1195 C1196 1.516 . S
C1196 C1195 1.516 . S
C1196 C1197 1.502 . S
C1196 C1198 1.561 . S
C1196 C1199 1.526 . S
C1197 H1181 0.959 . S
C1197 H1182 0.959 . S
C1197 H1183 0.961 . S
C1197 C1196 1.502 . S
C1198 H1184 0.960 . S
C1198 H1185 0.961 . S
C1198 H1186 0.959 . S
C1198 C1196 1.561 . S
C1199 C1196 1.526 . S
C1199 C1200 1.396 . S
C1199 C1204 1.390 . S
C1200 C1194 1.465 . S
C1200 C1199 1.396 . S
C1200 C1201 1.399 . S
C1201 H1187 0.929 . S
C1201 C1200 1.399 . S
C1201 C1202 1.385 . S
C1202 H1188 0.931 . S
C1202 C1201 1.385 . S
C1202 C1203 1.389 . S
C1203 C1202 1.389 . S
C1203 C1204 1.387 . S
C1204 H1189 0.930 . S
C1204 C1199 1.390 . S
C1204 C1203 1.387 . S
H1205 C1217 0.930 . S
H1206 C1219 0.930 . S
H1207 C1220 0.930 . S
H1208 C1224 0.959 . S
H1209 C1224 0.959 . S
H1210 C1224 0.961 . S
H1211 C1225 0.960 . S
H1212 C1225 0.961 . S
H1213 C1225 0.959 . S
H1214 C1228 0.929 . S
H1215 C1229 0.931 . S
H1216 C1231 0.930 . S
C1217 H1205 0.930 . S
C1217 C1218 1.399 . S
C1217 C1222 1.399 . S
C1218 C1217 1.399 . S
C1218 C1219 1.376 . S
C1219 H1206 0.930 . S
C1219 C1218 1.376 . S
C1219 C1220 1.388 . S
C1220 H1207 0.930 . S
C1220 C1219 1.388 . S
C1220 C1221 1.390 . S
C1221 C1220 1.390 . S
C1221 C1222 1.394 . S
C1221 C1227 1.465 . S
C1222 C1217 1.399 . S
C1222 C1221 1.394 . S
C1222 C1223 1.516 . S
C1223 C1222 1.516 . S
C1223 C1224 1.502 . S
C1223 C1225 1.561 . S
C1223 C1226 1.526 . S
C1224 H1208 0.959 . S
C1224 H1209 0.959 . S
C1224 H1210 0.961 . S
C1224 C1223 1.502 . S
C1225 H1211 0.960 . S
C1225 H1212 0.961 . S
C1225 H1213 0.959 . S
C1225 C1223 1.561 . S
C1226 C1223 1.526 . S
C1226 C1227 1.396 . S
C1226 C1231 1.390 . S
C1227 C1221 1.465 . S
C1227 C1226 1.396 . S
C1227 C1228 1.399 . S
C1228 H1214 0.929 . S
C1228 C1227 1.399 . S
C1228 C1229 1.385 . S
C1229 H1215 0.931 . S
C1229 C1228 1.385 . S
C1229 C1230 1.389 . S
C1230 C1229 1.389 . S
C1230 C1231 1.387 . S
C1231 H1216 0.930 . S
C1231 C1226 1.390 . S
C1231 C1230 1.387 . S
C381 N2 1.552 . S
C393 N48 1.486 . S
C408 N71 1.558 . S
C420 N25 1.483 . S
C435 N94 1.505 . S
C447 N140 1.570 . S
C462 N163 1.507 . S
C474 N117 1.569 . S
C489 N186 1.481 . S
C501 N232 1.532 . S
C516 N255 1.487 . S
C528 N209 1.518 . S
C543 N278 1.496 . S
C555 N324 1.507 . S
C570 N347 1.571 . S
C582 N301 1.533 . S
C597 C108 1.588 . S
C609 C16 1.627 . S
C624 C39 1.643 . S
C636 C131 1.589 . S
C651 C62 1.646 . S
C663 C154 1.599 . S
C678 C177 1.620 . S
C690 C85 1.593 . S
C705 C200 1.609 . S
C717 C292 1.646 . S
C732 C223 1.586 . S
C744 C315 1.618 . S
C759 C246 1.625 . S
C771 C338 1.587 . S
C786 C269 1.587 . S
C798 C361 1.614 . S
C813 C237 1.636 . S
C825 C7 1.631 . S
C840 C260 1.623 . S
C852 C30 1.627 . S
C867 C53 1.665 . S
C879 C191 1.665 . S
C894 C76 1.631 . S
C906 C214 1.637 . S
C921 C99 1.663 . S
C933 C329 1.665 . S
C948 C122 1.654 . S
C960 C352 1.648 . S
C975 C145 1.664 . S
C987 C283 1.665 . S
C1002 C306 1.624 . S
C1014 C168 1.628 . S
C1029 N12 1.576 . S
C1041 N357 1.581 . S
C1056 N288 1.537 . S
C1068 N35 1.531 . S
C1083 N58 1.562 . S
C1095 N311 1.571 . S
C1110 N334 1.573 . S
C1122 N81 1.579 . S
C1137 N219 1.526 . S
C1149 N104 1.526 . S
C1164 N127 1.532 . S
C1176 N242 1.528 . S
C1191 N265 1.579 . S
C1203 N150 1.583 . S
C1218 N196 1.529 . S
C1230 N173 1.527 . S
