# Generated by pormake.
# Topology ukb, (4)-cn, num edge types: 1
# Building blocks:
#     Node 0, Type 0, BuildingBlock: CEKHIL_clean_sbu_0, # of connection points: 4
#     Node 1, Type 0, BuildingBlock: CEKHIL_clean_sbu_0, # of connection points: 4
#     Node 2, Type 0, BuildingBlock: CEKHIL_clean_sbu_0, # of connection points: 4
#     Node 3, Type 0, BuildingBlock: CEKHIL_clean_sbu_0, # of connection points: 4
#     Node 4, Type 0, BuildingBlock: CEKHIL_clean_sbu_0, # of connection points: 4
#     Node 5, Type 0, BuildingBlock: CEKHIL_clean_sbu_0, # of connection points: 4
#     Node 6, Type 0, BuildingBlock: CEKHIL_clean_sbu_0, # of connection points: 4
#     Node 7, Type 0, BuildingBlock: CEKHIL_clean_sbu_0, # of connection points: 4
#     Node 8, Type 0, BuildingBlock: CEKHIL_clean_sbu_0, # of connection points: 4
#     Node 9, Type 0, BuildingBlock: CEKHIL_clean_sbu_0, # of connection points: 4
#     Node 10, Type 0, BuildingBlock: CEKHIL_clean_sbu_0, # of connection points: 4
#     Node 11, Type 0, BuildingBlock: CEKHIL_clean_sbu_0, # of connection points: 4
#     Node 12, Type 0, BuildingBlock: CEKHIL_clean_sbu_0, # of connection points: 4
#     Node 13, Type 0, BuildingBlock: CEKHIL_clean_sbu_0, # of connection points: 4
#     Node 14, Type 0, BuildingBlock: CEKHIL_clean_sbu_0, # of connection points: 4
#     Node 15, Type 0, BuildingBlock: CEKHIL_clean_sbu_0, # of connection points: 4
#     Edge 16, Type (0, 0), BuildingBlock: OJICUG_clean_linker_0, # of connection points: 2
#     Edge 17, Type (0, 0), BuildingBlock: OJICUG_clean_linker_0, # of connection points: 2
#     Edge 18, Type (0, 0), BuildingBlock: OJICUG_clean_linker_0, # of connection points: 2
#     Edge 19, Type (0, 0), BuildingBlock: OJICUG_clean_linker_0, # of connection points: 2
#     Edge 20, Type (0, 0), BuildingBlock: OJICUG_clean_linker_0, # of connection points: 2
#     Edge 21, Type (0, 0), BuildingBlock: OJICUG_clean_linker_0, # of connection points: 2
#     Edge 22, Type (0, 0), BuildingBlock: OJICUG_clean_linker_0, # of connection points: 2
#     Edge 23, Type (0, 0), BuildingBlock: OJICUG_clean_linker_0, # of connection points: 2
#     Edge 24, Type (0, 0), BuildingBlock: OJICUG_clean_linker_0, # of connection points: 2
#     Edge 25, Type (0, 0), BuildingBlock: OJICUG_clean_linker_0, # of connection points: 2
#     Edge 26, Type (0, 0), BuildingBlock: OJICUG_clean_linker_0, # of connection points: 2
#     Edge 27, Type (0, 0), BuildingBlock: OJICUG_clean_linker_0, # of connection points: 2
#     Edge 28, Type (0, 0), BuildingBlock: OJICUG_clean_linker_0, # of connection points: 2
#     Edge 29, Type (0, 0), BuildingBlock: OJICUG_clean_linker_0, # of connection points: 2
#     Edge 30, Type (0, 0), BuildingBlock: OJICUG_clean_linker_0, # of connection points: 2
#     Edge 31, Type (0, 0), BuildingBlock: OJICUG_clean_linker_0, # of connection points: 2
#     Edge 32, Type (0, 0), BuildingBlock: OJICUG_clean_linker_0, # of connection points: 2
#     Edge 33, Type (0, 0), BuildingBlock: OJICUG_clean_linker_0, # of connection points: 2
#     Edge 34, Type (0, 0), BuildingBlock: OJICUG_clean_linker_0, # of connection points: 2
#     Edge 35, Type (0, 0), BuildingBlock: OJICUG_clean_linker_0, # of connection points: 2
#     Edge 36, Type (0, 0), BuildingBlock: OJICUG_clean_linker_0, # of connection points: 2
#     Edge 37, Type (0, 0), BuildingBlock: OJICUG_clean_linker_0, # of connection points: 2
#     Edge 38, Type (0, 0), BuildingBlock: OJICUG_clean_linker_0, # of connection points: 2
#     Edge 39, Type (0, 0), BuildingBlock: OJICUG_clean_linker_0, # of connection points: 2
#     Edge 40, Type (0, 0), BuildingBlock: OJICUG_clean_linker_0, # of connection points: 2
#     Edge 41, Type (0, 0), BuildingBlock: OJICUG_clean_linker_0, # of connection points: 2
#     Edge 42, Type (0, 0), BuildingBlock: OJICUG_clean_linker_0, # of connection points: 2
#     Edge 43, Type (0, 0), BuildingBlock: OJICUG_clean_linker_0, # of connection points: 2
#     Edge 44, Type (0, 0), BuildingBlock: OJICUG_clean_linker_0, # of connection points: 2
#     Edge 45, Type (0, 0), BuildingBlock: OJICUG_clean_linker_0, # of connection points: 2
#     Edge 46, Type (0, 0), BuildingBlock: OJICUG_clean_linker_0, # of connection points: 2
#     Edge 47, Type (0, 0), BuildingBlock: OJICUG_clean_linker_0, # of connection points: 2
# Relax obj value: 0.091
# Max RMSD: 0.050
# Mean RMSD: 0.050
data_MOF--net-ukb--node1-CEKHIL_clean_sbu_0--edge1-OJICUG_clean_linker_0
_symmetry_space_group_name_H-M    P1
_symmetry_Int_Tables_number       1
_symmetry_cell_setting            triclinic
loop_
_symmetry_equiv_pos_as_xyz
'x, y, z'
_cell_length_a     31.850703
_cell_length_b     31.848739
_cell_length_c     27.092353
_cell_angle_alpha  90.005215
_cell_angle_beta   89.996959
_cell_angle_gamma 89.994142
loop_
_atom_site_label
_atom_site_type_symbol
_atom_site_fract_x
_atom_site_fract_y
_atom_site_fract_z
_atom_type_partial_charge
Co0 Co 0.52561 0.18612 0.17321 0.0
O1 O 0.49413 0.13502 0.16444 0.0
O2 O 0.48962 0.17718 0.22943 0.0
C3 C 0.51574 0.21136 0.09625 0.0
O4 O 0.5513 0.24157 0.19503 0.0
Co5 Co 0.60582 0.20537 0.11194 0.0
O6 O 0.60183 0.26204 0.14242 0.0
C7 C 0.60971 0.14427 0.19364 0.0
C8 C 0.47739 0.14319 0.2071 0.0
C9 C 0.57848 0.26853 0.17986 0.0
O10 O 0.57239 0.15459 0.20726 0.0
O11 O 0.62687 0.15784 0.15397 0.0
O12 O 0.48661 0.21598 0.12943 0.0
O13 O 0.54749 0.18882 0.10931 0.0
Co14 Co 0.31843 0.5258 0.673 0.0
O15 O 0.36948 0.49422 0.66427 0.0
O16 O 0.32731 0.48988 0.72927 0.0
C17 C 0.29317 0.5159 0.59605 0.0
O18 O 0.26303 0.55161 0.69483 0.0
Co19 Co 0.29925 0.60599 0.61168 0.0
O20 O 0.24259 0.60218 0.64223 0.0
C21 C 0.36047 0.60983 0.69326 0.0
C22 C 0.36128 0.47756 0.70697 0.0
C23 C 0.2361 0.57885 0.67969 0.0
O24 O 0.35006 0.57256 0.70696 0.0
O25 O 0.34689 0.62698 0.65358 0.0
O26 O 0.2885 0.48682 0.62927 0.0
O27 O 0.31575 0.54763 0.60907 0.0
Co28 Co 0.97857 0.31857 0.173 0.0
O29 O 0.01004 0.36969 0.16435 0.0
O30 O 0.01445 0.32748 0.2293 0.0
C31 C 0.98859 0.29341 0.09602 0.0
O32 O 0.95287 0.26309 0.19472 0.0
Co33 Co 0.89848 0.29927 0.11155 0.0
O34 O 0.90238 0.24261 0.14206 0.0
C35 C 0.8944 0.36034 0.1933 0.0
C36 C 0.02671 0.36149 0.20703 0.0
C37 C 0.92569 0.23613 0.17954 0.0
O38 O 0.93172 0.35005 0.20697 0.0
O39 O 0.87731 0.34675 0.1536 0.0
O40 O 0.01766 0.28876 0.12927 0.0
O41 O 0.9568 0.3159 0.10904 0.0
Co42 Co 0.18625 0.97849 0.67311 0.0
O43 O 0.13517 0.01003 0.66448 0.0
O44 O 0.17744 0.01447 0.72937 0.0
C45 C 0.21135 0.98837 0.59608 0.0
O46 O 0.24172 0.95274 0.69478 0.0
Co47 Co 0.20538 0.89829 0.61176 0.0
O48 O 0.2621 0.9022 0.64211 0.0
C49 C 0.14435 0.89442 0.69356 0.0
C50 C 0.14344 0.02676 0.70712 0.0
C51 C 0.26865 0.92554 0.67955 0.0
O52 O 0.15473 0.93172 0.70719 0.0
O53 O 0.15787 0.87727 0.65386 0.0
O54 O 0.21607 0.01748 0.62929 0.0
O55 O 0.18883 0.95663 0.60918 0.0
Co56 Co 0.52601 0.31865 0.82949 0.0
O57 O 0.49446 0.36974 0.83804 0.0
O58 O 0.49013 0.32744 0.77316 0.0
C59 C 0.51599 0.29355 0.9065 0.0
O60 O 0.55178 0.26317 0.80788 0.0
Co61 Co 0.60611 0.29953 0.89099 0.0
O62 O 0.60228 0.2428 0.8606 0.0
C63 C 0.61013 0.36048 0.80913 0.0
C64 C 0.4778 0.36145 0.79536 0.0
C65 C 0.57897 0.23625 0.82313 0.0
O66 O 0.57283 0.35014 0.79549 0.0
O67 O 0.62724 0.34696 0.84886 0.0
O68 O 0.48694 0.28885 0.87323 0.0
O69 O 0.54776 0.31608 0.89347 0.0
Co70 Co 0.18597 0.52603 0.32921 0.0
O71 O 0.13486 0.49456 0.33792 0.0
O72 O 0.17705 0.49012 0.27294 0.0
C73 C 0.21117 0.51606 0.40618 0.0
O74 O 0.24144 0.55171 0.30743 0.0
Co75 Co 0.20531 0.60617 0.39056 0.0
O76 O 0.26197 0.60221 0.36005 0.0
C77 C 0.14416 0.61017 0.30892 0.0
C78 C 0.14305 0.47786 0.29523 0.0
C79 C 0.26842 0.57887 0.32258 0.0
O80 O 0.15446 0.57286 0.29524 0.0
O81 O 0.15777 0.62729 0.34859 0.0
O82 O 0.2158 0.48697 0.37295 0.0
O83 O 0.18867 0.54785 0.39316 0.0
Co84 Co 0.979 0.18628 0.8291 0.0
O85 O 0.0105 0.13519 0.83785 0.0
O86 O 0.01497 0.17735 0.77287 0.0
C87 C 0.98888 0.2115 0.90608 0.0
O88 O 0.95328 0.24173 0.80729 0.0
Co89 Co 0.89881 0.20557 0.89041 0.0
O90 O 0.90277 0.26224 0.85992 0.0
C91 C 0.89492 0.14438 0.80878 0.0
C92 C 0.02722 0.14337 0.79519 0.0
C93 C 0.9261 0.26871 0.82246 0.0
O94 O 0.93221 0.15474 0.79509 0.0
O95 O 0.87779 0.15797 0.84847 0.0
O96 O 0.018 0.21615 0.87289 0.0
O97 O 0.95713 0.18898 0.89301 0.0
Co98 Co 0.31815 0.97847 0.32901 0.0
O99 O 0.36928 0.00991 0.33769 0.0
O100 O 0.32704 0.01445 0.27279 0.0
C101 C 0.29304 0.98837 0.40603 0.0
O102 O 0.26265 0.95284 0.3073 0.0
Co103 Co 0.29886 0.89828 0.39029 0.0
O104 O 0.24214 0.90235 0.35994 0.0
C105 C 0.35993 0.89434 0.30854 0.0
C106 C 0.36106 0.02667 0.29506 0.0
C107 C 0.23565 0.92571 0.32251 0.0
O108 O 0.34961 0.93166 0.29491 0.0
O109 O 0.34637 0.8772 0.34822 0.0
O110 O 0.28839 0.0175 0.37286 0.0
O111 O 0.31552 0.95659 0.39292 0.0
Co112 Co 0.47889 0.81825 0.829 0.0
O113 O 0.51027 0.86941 0.83778 0.0
O114 O 0.51489 0.82724 0.77281 0.0
C115 C 0.48877 0.79307 0.906 0.0
O116 O 0.45331 0.76274 0.80718 0.0
Co117 Co 0.3987 0.79884 0.89024 0.0
O118 O 0.40284 0.74216 0.85983 0.0
C119 C 0.39472 0.85996 0.80856 0.0
C120 C 0.52706 0.86125 0.79514 0.0
C121 C 0.4262 0.73571 0.82237 0.0
O122 O 0.43206 0.84969 0.79493 0.0
O123 O 0.37759 0.84635 0.84823 0.0
O124 O 0.51792 0.78847 0.87283 0.0
O125 O 0.45699 0.81553 0.89289 0.0
Co126 Co 0.68598 0.47862 0.32923 0.0
O127 O 0.63486 0.5101 0.33793 0.0
O128 O 0.67705 0.51452 0.27296 0.0
C129 C 0.71119 0.48859 0.4062 0.0
O130 O 0.74145 0.45295 0.30744 0.0
Co131 Co 0.70535 0.3985 0.39058 0.0
O132 O 0.76201 0.40246 0.36007 0.0
C133 C 0.64418 0.39448 0.30896 0.0
C134 C 0.64305 0.52678 0.29525 0.0
C135 C 0.76845 0.42579 0.3226 0.0
O136 O 0.65448 0.43178 0.29527 0.0
O137 O 0.65779 0.37737 0.34864 0.0
O138 O 0.71581 0.51769 0.37297 0.0
O139 O 0.68869 0.45681 0.39317 0.0
Co140 Co 0.02592 0.68609 0.82928 0.0
O141 O 0.9945 0.63494 0.83787 0.0
O142 O 0.99006 0.67718 0.77296 0.0
C143 C 0.01586 0.7112 0.90628 0.0
O144 O 0.05156 0.74161 0.80761 0.0
Co145 Co 0.10598 0.70545 0.89075 0.0
O146 O 0.102 0.76214 0.86031 0.0
C147 C 0.11014 0.64443 0.80895 0.0
C148 C 0.97782 0.64315 0.7952 0.0
C149 C 0.07869 0.7686 0.82283 0.0
O150 O 0.07282 0.65468 0.79529 0.0
O151 O 0.12722 0.65802 0.84867 0.0
O152 O 0.98679 0.71584 0.87302 0.0
O153 O 0.04768 0.68875 0.89325 0.0
Co154 Co 0.81825 0.02619 0.32935 0.0
O155 O 0.8694 0.99475 0.33797 0.0
O156 O 0.82711 0.99022 0.27311 0.0
C157 C 0.79317 0.01628 0.40638 0.0
O158 O 0.76273 0.0518 0.30766 0.0
Co159 Co 0.79891 0.10637 0.39064 0.0
O160 O 0.7422 0.10231 0.36029 0.0
C161 C 0.85995 0.11035 0.30886 0.0
C162 C 0.86115 0.978 0.29534 0.0
C163 C 0.73572 0.07894 0.32286 0.0
O164 O 0.84967 0.07301 0.29525 0.0
O165 O 0.84637 0.12749 0.34854 0.0
O166 O 0.78852 0.98715 0.3732 0.0
O167 O 0.81562 0.04807 0.39327 0.0
Co168 Co 0.47854 0.68601 0.1729 0.0
O169 O 0.51 0.63487 0.16429 0.0
O170 O 0.51442 0.67712 0.2292 0.0
C171 C 0.48855 0.71111 0.09589 0.0
O172 O 0.45285 0.74151 0.19456 0.0
Co173 Co 0.39844 0.70528 0.11145 0.0
O174 O 0.40238 0.76198 0.14187 0.0
C175 C 0.39436 0.64428 0.19325 0.0
C176 C 0.52668 0.6431 0.20696 0.0
C177 C 0.42569 0.76848 0.17934 0.0
O178 O 0.43168 0.65456 0.2069 0.0
O179 O 0.37726 0.65784 0.15354 0.0
O180 O 0.51763 0.71577 0.12914 0.0
O181 O 0.45676 0.68863 0.10893 0.0
Co182 Co 0.81847 0.47869 0.673 0.0
O183 O 0.86959 0.51016 0.66426 0.0
O184 O 0.82742 0.51462 0.72925 0.0
C185 C 0.79325 0.48862 0.59603 0.0
O186 O 0.76302 0.45303 0.69482 0.0
Co187 Co 0.79911 0.39853 0.6117 0.0
O188 O 0.74246 0.4025 0.64225 0.0
C189 C 0.86031 0.39456 0.6933 0.0
C190 C 0.86141 0.52686 0.70695 0.0
C191 C 0.73602 0.42586 0.6797 0.0
O192 O 0.85 0.43187 0.70698 0.0
O193 O 0.84668 0.37743 0.65364 0.0
O194 O 0.78863 0.51773 0.62925 0.0
O195 O 0.81575 0.45685 0.60907 0.0
Co196 Co 0.02546 0.81844 0.17314 0.0
O197 O 0.99397 0.86955 0.16443 0.0
O198 O 0.98952 0.82737 0.2294 0.0
C199 C 0.01555 0.79323 0.09616 0.0
O200 O 0.05117 0.76299 0.19492 0.0
Co201 Co 0.10563 0.79917 0.1118 0.0
O202 O 0.10169 0.7425 0.14229 0.0
C203 C 0.10956 0.8603 0.19347 0.0
C204 C 0.97727 0.86138 0.20712 0.0
C205 C 0.07836 0.73602 0.17975 0.0
O206 O 0.07226 0.84997 0.20715 0.0
O207 O 0.12668 0.84673 0.15377 0.0
O208 O 0.98643 0.78859 0.12936 0.0
O209 O 0.0473 0.81575 0.10922 0.0
Co210 Co 0.68629 0.0261 0.67343 0.0
O211 O 0.63515 0.99469 0.66475 0.0
O212 O 0.6774 0.99009 0.72964 0.0
C213 C 0.71137 0.01622 0.59639 0.0
O214 O 0.74182 0.05171 0.69512 0.0
Co215 Co 0.70557 0.1063 0.61215 0.0
O216 O 0.7623 0.1022 0.64244 0.0
C217 C 0.64457 0.11025 0.69398 0.0
C218 C 0.64338 0.97789 0.70737 0.0
C219 C 0.76881 0.07884 0.67987 0.0
O220 O 0.65488 0.07292 0.70758 0.0
O221 O 0.65811 0.1274 0.65429 0.0
O222 O 0.71603 0.98708 0.62955 0.0
O223 O 0.68891 0.048 0.60953 0.0
C224 C 0.42108 0.08906 0.1997 0.0
C225 C 0.44651 0.11457 0.22959 0.0
H226 H 0.37319 0.0418 0.19722 0.0
C227 C 0.44288 0.11178 0.28112 0.0
H228 H 0.42321 0.09078 0.15984 0.0
C229 C 0.4151 0.08307 0.30245 0.0
C230 C 0.38964 0.05759 0.27257 0.0
H231 H 0.46227 0.13104 0.30494 0.0
H232 H 0.41338 0.08094 0.34231 0.0
C233 C 0.39241 0.06122 0.22103 0.0
C234 C 0.41544 0.42123 0.69977 0.0
C235 C 0.38989 0.44672 0.72956 0.0
H236 H 0.46274 0.37336 0.69747 0.0
C237 C 0.39264 0.4432 0.78111 0.0
H238 H 0.41374 0.42327 0.6599 0.0
C239 C 0.42136 0.41548 0.80254 0.0
C240 C 0.44688 0.38997 0.77276 0.0
H241 H 0.37336 0.46263 0.80485 0.0
H242 H 0.42346 0.41384 0.84241 0.0
C243 C 0.44328 0.39263 0.72121 0.0
C244 C 0.08306 0.41559 0.19976 0.0
C245 C 0.05757 0.39009 0.22959 0.0
H246 H 0.131 0.4628 0.19737 0.0
C247 C 0.06113 0.39285 0.28113 0.0
H248 H 0.08098 0.41388 0.1599 0.0
C249 C 0.08892 0.42153 0.30252 0.0
C250 C 0.11445 0.447 0.27269 0.0
H251 H 0.0417 0.3736 0.3049 0.0
H252 H 0.0906 0.42365 0.34238 0.0
C253 C 0.11173 0.44339 0.22115 0.0
C254 C 0.08947 0.08324 0.69978 0.0
C255 C 0.11491 0.05771 0.72964 0.0
H256 H 0.04234 0.13126 0.69734 0.0
C257 C 0.11215 0.06133 0.78118 0.0
H258 H 0.09119 0.08112 0.65992 0.0
C259 C 0.08351 0.08919 0.80254 0.0
C260 C 0.05809 0.11474 0.77267 0.0
H261 H 0.13136 0.04187 0.80497 0.0
H262 H 0.08139 0.0909 0.8424 0.0
C263 C 0.06172 0.11198 0.72114 0.0
C264 C 0.56158 0.89273 0.72117 0.0
C265 C 0.55793 0.88991 0.7727 0.0
H266 H 0.59111 0.92363 0.66004 0.0
C267 C 0.58334 0.91542 0.80263 0.0
H268 H 0.54222 0.87347 0.69733 0.0
C269 C 0.612 0.94329 0.78135 0.0
C270 C 0.6148 0.94695 0.72982 0.0
H271 H 0.58119 0.91367 0.84249 0.0
H272 H 0.6312 0.9627 0.80519 0.0
C273 C 0.58937 0.92148 0.69989 0.0
C274 C 0.58301 0.58897 0.19973 0.0
C275 C 0.55754 0.6145 0.22954 0.0
H276 H 0.63095 0.54175 0.19738 0.0
C277 C 0.56112 0.61179 0.28109 0.0
H278 H 0.58092 0.59064 0.15987 0.0
C279 C 0.58892 0.58312 0.3025 0.0
C280 C 0.61443 0.55763 0.27268 0.0
H281 H 0.5417 0.63107 0.30485 0.0
H282 H 0.59061 0.58105 0.34236 0.0
C283 C 0.61169 0.56118 0.22114 0.0
C284 C 0.92148 0.58905 0.80244 0.0
C285 C 0.94696 0.61455 0.77262 0.0
H286 H 0.87352 0.54186 0.80481 0.0
C287 C 0.94338 0.61182 0.72108 0.0
H288 H 0.92357 0.59073 0.84231 0.0
C289 C 0.91557 0.58317 0.69968 0.0
C290 C 0.89004 0.5577 0.7295 0.0
H291 H 0.96281 0.63108 0.69732 0.0
H292 H 0.91388 0.58108 0.65981 0.0
C293 C 0.89279 0.56127 0.78104 0.0
C294 C 0.89229 0.94333 0.22125 0.0
C295 C 0.88971 0.94708 0.27279 0.0
H296 H 0.92287 0.91364 0.15999 0.0
C297 C 0.91531 0.92169 0.30262 0.0
H298 H 0.87295 0.96267 0.19748 0.0
C299 C 0.94304 0.89293 0.28123 0.0
C300 C 0.94646 0.89003 0.22968 0.0
H301 H 0.91374 0.9239 0.34248 0.0
H302 H 0.96253 0.87375 0.30499 0.0
C303 C 0.92089 0.91546 0.19986 0.0
C304 C 0.57873 0.30426 0.26197 0.0
C305 C 0.58739 0.30564 0.2111 0.0
H306 H 0.59015 0.33145 0.333 0.0
C307 C 0.60951 0.34025 0.19204 0.0
H308 H 0.5618 0.27805 0.27789 0.0
C309 C 0.62508 0.37133 0.22366 0.0
C310 C 0.61958 0.36781 0.27496 0.0
H311 H 0.61644 0.34233 0.15297 0.0
H312 H 0.64395 0.39641 0.20826 0.0
C313 C 0.59508 0.33477 0.29362 0.0
C314 C 0.16442 0.60998 0.69196 0.0
C315 C 0.19902 0.58781 0.71097 0.0
H316 H 0.10826 0.64441 0.70824 0.0
C317 C 0.20041 0.57909 0.76183 0.0
H318 H 0.16235 0.61696 0.6529 0.0
C319 C 0.16991 0.59541 0.79351 0.0
C320 C 0.13686 0.61993 0.7749 0.0
H321 H 0.22661 0.56213 0.77772 0.0
H322 H 0.17322 0.59042 0.83288 0.0
C323 C 0.13335 0.62551 0.72361 0.0
C324 C 0.87892 0.13345 0.2235 0.0
C325 C 0.8845 0.13699 0.27479 0.0
H326 H 0.88753 0.16239 0.15277 0.0
C327 C 0.90907 0.17001 0.29338 0.0
H328 H 0.86 0.10838 0.20815 0.0
C329 C 0.92544 0.20046 0.26168 0.0
C330 C 0.91673 0.19906 0.21082 0.0
H331 H 0.91406 0.17334 0.33275 0.0
H332 H 0.94243 0.22665 0.27756 0.0
C333 C 0.89452 0.16448 0.19183 0.0
C334 C 0.34033 0.89434 0.69164 0.0
C335 C 0.30581 0.91662 0.71071 0.0
H336 H 0.39644 0.85982 0.70785 0.0
C337 C 0.30456 0.92546 0.76154 0.0
H338 H 0.34229 0.88727 0.6526 0.0
C339 C 0.33511 0.90915 0.79318 0.0
C340 C 0.36805 0.88451 0.77452 0.0
H341 H 0.27844 0.94251 0.77748 0.0
H342 H 0.33189 0.91423 0.83254 0.0
C343 C 0.37144 0.87881 0.72324 0.0
C344 C 0.61031 0.16464 0.81097 0.0
C345 C 0.58793 0.1991 0.79195 0.0
H346 H 0.64492 0.10858 0.79469 0.0
C347 C 0.579 0.20032 0.74114 0.0
H348 H 0.61746 0.16269 0.85 0.0
C349 C 0.59532 0.16979 0.70948 0.0
C350 C 0.62005 0.1369 0.72808 0.0
H351 H 0.56187 0.2264 0.72524 0.0
H352 H 0.59016 0.17298 0.67012 0.0
C353 C 0.62585 0.13354 0.77934 0.0
C354 C 0.33463 0.59526 0.20875 0.0
C355 C 0.36768 0.61979 0.22733 0.0
H356 H 0.27792 0.56202 0.22458 0.0
C357 C 0.3712 0.62542 0.27862 0.0
H358 H 0.33131 0.59023 0.16939 0.0
C359 C 0.34012 0.60992 0.31029 0.0
C360 C 0.30552 0.58775 0.2913 0.0
H361 H 0.39629 0.64432 0.29396 0.0
H362 H 0.3422 0.61694 0.34934 0.0
C363 C 0.30413 0.57898 0.24046 0.0
C364 C 0.90942 0.33486 0.70865 0.0
C365 C 0.88492 0.36791 0.72731 0.0
H366 H 0.94273 0.27816 0.7244 0.0
C367 C 0.87945 0.37147 0.77861 0.0
H368 H 0.91433 0.33151 0.66927 0.0
C369 C 0.89505 0.34042 0.81025 0.0
C370 C 0.91717 0.3058 0.79119 0.0
H371 H 0.86059 0.39657 0.79401 0.0
H372 H 0.88814 0.34252 0.84932 0.0
C373 C 0.9258 0.30438 0.74032 0.0
C374 C 0.1692 0.90945 0.20887 0.0
C375 C 0.13622 0.88486 0.22751 0.0
H376 H 0.22591 0.94272 0.22458 0.0
C377 C 0.1328 0.87919 0.27879 0.0
H378 H 0.17244 0.91451 0.1695 0.0
C379 C 0.16392 0.89468 0.3104 0.0
C380 C 0.19848 0.91689 0.29134 0.0
H381 H 0.10776 0.86024 0.29417 0.0
H382 H 0.16193 0.88762 0.34944 0.0
C383 C 0.19975 0.92572 0.24051 0.0
C384 C 0.40965 0.66947 0.70861 0.0
C385 C 0.38512 0.63645 0.72726 0.0
H386 H 0.44295 0.72617 0.72435 0.0
C387 C 0.37964 0.63291 0.77856 0.0
H388 H 0.41458 0.6728 0.66923 0.0
C389 C 0.39523 0.66397 0.81019 0.0
C390 C 0.41735 0.69858 0.79114 0.0
H391 H 0.36076 0.60783 0.79396 0.0
H392 H 0.38829 0.66189 0.84926 0.0
C393 C 0.42602 0.69997 0.74027 0.0
C394 C 0.87124 0.37927 0.27865 0.0
C395 C 0.86771 0.38485 0.22736 0.0
H396 H 0.84226 0.38779 0.34937 0.0
C397 C 0.83464 0.40936 0.20877 0.0
H398 H 0.89635 0.3604 0.294 0.0
C399 C 0.80413 0.42564 0.24047 0.0
C400 C 0.80554 0.41691 0.29132 0.0
H401 H 0.83132 0.41435 0.1694 0.0
H402 H 0.77792 0.44258 0.22459 0.0
C403 C 0.84017 0.39478 0.31032 0.0
C404 C 0.10985 0.84027 0.81059 0.0
C405 C 0.0876 0.80571 0.79159 0.0
H406 H 0.14439 0.89634 0.79427 0.0
C407 C 0.0788 0.80437 0.74075 0.0
H408 H 0.11689 0.84231 0.84963 0.0
C409 C 0.09515 0.83484 0.70905 0.0
C410 C 0.11978 0.86782 0.72764 0.0
H411 H 0.06176 0.77822 0.72487 0.0
H412 H 0.0901 0.83155 0.66969 0.0
C413 C 0.12542 0.87131 0.77892 0.0
C414 C 0.66934 0.09512 0.20914 0.0
C415 C 0.63635 0.11974 0.22773 0.0
H416 H 0.72603 0.06184 0.22494 0.0
C417 C 0.6329 0.12546 0.27901 0.0
H418 H 0.6726 0.09002 0.16979 0.0
C419 C 0.664 0.10998 0.31066 0.0
C420 C 0.69857 0.08775 0.29165 0.0
H421 H 0.60785 0.14443 0.29434 0.0
H422 H 0.66199 0.11709 0.34969 0.0
C423 C 0.69987 0.07887 0.24083 0.0
C424 C 0.42549 0.80424 0.26143 0.0
C425 C 0.41675 0.80559 0.21058 0.0
H426 H 0.41414 0.83144 0.33247 0.0
C427 C 0.39451 0.84014 0.19155 0.0
H428 H 0.44251 0.77809 0.27733 0.0
C429 C 0.37891 0.8712 0.2232 0.0
C430 C 0.38452 0.86771 0.27449 0.0
H431 H 0.3875 0.84219 0.1525 0.0
H432 H 0.35996 0.89624 0.20783 0.0
C433 C 0.40913 0.83473 0.29311 0.0
C434 C 0.70034 0.42579 0.76184 0.0
C435 C 0.69894 0.41699 0.71101 0.0
H436 H 0.67318 0.41457 0.83293 0.0
C437 C 0.66433 0.3948 0.69205 0.0
H438 H 0.72654 0.44278 0.77769 0.0
C439 C 0.63327 0.37931 0.72375 0.0
C440 C 0.6368 0.38497 0.77503 0.0
H441 H 0.66224 0.38776 0.65301 0.0
H442 H 0.60818 0.3604 0.70843 0.0
C443 C 0.66985 0.40952 0.79358 0.0
C444 C 0.12505 0.63328 0.22361 0.0
C445 C 0.11956 0.63683 0.27491 0.0
H446 H 0.11637 0.66223 0.1529 0.0
C447 C 0.09504 0.66987 0.29356 0.0
H448 H 0.14393 0.60819 0.20822 0.0
C449 C 0.07866 0.70035 0.26188 0.0
C450 C 0.0873 0.69894 0.21101 0.0
H451 H 0.09011 0.67321 0.33293 0.0
H452 H 0.06171 0.72656 0.2778 0.0
C453 C 0.10945 0.66433 0.19197 0.0
C454 C 0.83532 0.09517 0.79346 0.0
C455 C 0.86827 0.11978 0.77477 0.0
H456 H 0.77862 0.06186 0.7778 0.0
C457 C 0.87166 0.12542 0.72349 0.0
H458 H 0.8321 0.09013 0.83283 0.0
C459 C 0.84054 0.10989 0.69191 0.0
C460 C 0.806 0.08768 0.71101 0.0
H461 H 0.89668 0.14438 0.70808 0.0
H462 H 0.84251 0.11693 0.65286 0.0
C463 C 0.80476 0.07886 0.76184 0.0
C464 C 0.55271 0.24267 0.02441 0.0
C465 C 0.51478 0.23284 0.04803 0.0
H466 H 0.58267 0.27013 0.96194 0.0
C467 C 0.47669 0.24289 0.02464 0.0
H468 H 0.58256 0.2354 0.04142 0.0
C469 C 0.47676 0.26188 0.97788 0.0
C470 C 0.51491 0.27218 0.95478 0.0
H471 H 0.44701 0.2354 0.04204 0.0
H472 H 0.44712 0.26914 0.96024 0.0
C473 C 0.55277 0.26265 0.97872 0.0
C474 C 0.24265 0.47685 0.47771 0.0
C475 C 0.23254 0.51499 0.45446 0.0
H476 H 0.26891 0.44713 0.54202 0.0
C477 C 0.24222 0.55287 0.47829 0.0
H478 H 0.23527 0.4472 0.46015 0.0
C479 C 0.26214 0.55283 0.52402 0.0
C480 C 0.27176 0.51491 0.54779 0.0
H481 H 0.2349 0.58276 0.4614 0.0
H482 H 0.26951 0.58269 0.54094 0.0
C483 C 0.26158 0.47681 0.5245 0.0
C484 C 0.02786 0.26194 0.02451 0.0
C485 C 0.98971 0.27207 0.04771 0.0
H486 H 0.05762 0.23568 0.96022 0.0
C487 C 0.95184 0.26245 0.02382 0.0
H488 H 0.0575 0.26928 0.04212 0.0
C489 C 0.95192 0.24256 0.97808 0.0
C490 C 0.98985 0.23291 0.95435 0.0
H491 H 0.92195 0.2698 0.04068 0.0
H492 H 0.92207 0.23523 0.96111 0.0
C493 C 0.02793 0.24303 0.9777 0.0
C494 C 0.26203 0.95149 0.47812 0.0
C495 C 0.27171 0.9894 0.45435 0.0
H496 H 0.23481 0.92162 0.54078 0.0
C497 C 0.26167 0.02752 0.47768 0.0
H498 H 0.26931 0.92162 0.46116 0.0
C499 C 0.24281 0.02752 0.52451 0.0
C500 C 0.23265 0.9894 0.54775 0.0
H501 H 0.26905 0.05718 0.46016 0.0
H502 H 0.23554 0.05718 0.5421 0.0
C503 C 0.24219 0.95149 0.52389 0.0
C504 C 0.45183 0.76198 0.97799 0.0
C505 C 0.48976 0.77166 0.95426 0.0
H506 H 0.42188 0.73471 0.04057 0.0
C507 C 0.52785 0.76154 0.9776 0.0
H508 H 0.42197 0.76931 0.96103 0.0
C509 C 0.52779 0.74261 0.0244 0.0
C510 C 0.48965 0.73246 0.04759 0.0
H511 H 0.55753 0.76891 0.96012 0.0
H512 H 0.55744 0.73528 0.042 0.0
C513 C 0.45178 0.74207 0.02372 0.0
C514 C 0.76169 0.52778 0.5245 0.0
C515 C 0.77184 0.48966 0.54777 0.0
H516 H 0.73538 0.55743 0.46018 0.0
C517 C 0.76218 0.45175 0.52398 0.0
H518 H 0.76905 0.55744 0.54203 0.0
C519 C 0.74226 0.45174 0.47826 0.0
C520 C 0.7326 0.48964 0.45446 0.0
H521 H 0.76954 0.42188 0.54089 0.0
H522 H 0.7349 0.42187 0.46137 0.0
C523 C 0.74274 0.52777 0.47772 0.0
C524 C 0.05252 0.76209 0.02421 0.0
C525 C 0.01458 0.77179 0.04791 0.0
H526 H 0.0825 0.73479 0.96166 0.0
C527 C 0.9765 0.76167 0.02455 0.0
H528 H 0.08236 0.76942 0.04119 0.0
C529 C 0.97658 0.74272 0.97775 0.0
C530 C 0.01474 0.73256 0.95458 0.0
H531 H 0.94681 0.76906 0.042 0.0
H532 H 0.94694 0.7354 0.96013 0.0
C533 C 0.05259 0.74217 0.97849 0.0
C534 C 0.74289 0.9771 0.52481 0.0
C535 C 0.7327 0.01521 0.54807 0.0
H536 H 0.76918 0.94745 0.46046 0.0
C537 C 0.74226 0.05312 0.52424 0.0
H538 H 0.73561 0.94743 0.54237 0.0
C539 C 0.76214 0.05313 0.47848 0.0
C540 C 0.77183 0.01524 0.4547 0.0
H541 H 0.73487 0.08299 0.54114 0.0
H542 H 0.76942 0.08301 0.46155 0.0
C543 C 0.76179 0.97711 0.47799 0.0
loop_
_geom_bond_atom_site_label_1
_geom_bond_atom_site_label_2
_geom_bond_distance
_geom_bond_site_symmetry_2
_ccdc_geom_bond_type
Co0 O1 2.216 . S
Co0 O2 2.091 . S
Co0 O4 2.004 . S
Co0 O10 2.021 . S
Co0 O12 2.137 . S
Co0 O13 2.244 . S
O1 Co0 2.216 . S
O1 C8 1.247 . S
O2 Co0 2.091 . S
O2 C8 1.261 . S
C3 O12 1.247 . S
C3 O13 1.272 . S
O4 Co0 2.004 . S
O4 C9 1.259 . S
Co5 O6 2.061 . S
Co5 O11 2.052 . S
Co5 O13 2.135 . S
O6 Co5 2.061 . S
O6 C9 1.235 . S
C7 O10 1.238 . S
C7 O11 1.241 . S
C8 O1 1.247 . S
C8 O2 1.261 . S
C9 O4 1.259 . S
C9 O6 1.235 . S
O10 Co0 2.021 . S
O10 C7 1.238 . S
O11 Co5 2.052 . S
O11 C7 1.241 . S
O12 Co0 2.137 . S
O12 C3 1.247 . S
O13 Co0 2.244 . S
O13 C3 1.272 . S
O13 Co5 2.135 . S
Co14 O15 2.216 . S
Co14 O16 2.091 . S
Co14 O18 2.004 . S
Co14 O24 2.021 . S
Co14 O26 2.137 . S
Co14 O27 2.244 . S
O15 Co14 2.216 . S
O15 C22 1.247 . S
O16 Co14 2.091 . S
O16 C22 1.261 . S
C17 O26 1.247 . S
C17 O27 1.272 . S
O18 Co14 2.004 . S
O18 C23 1.259 . S
Co19 O20 2.061 . S
Co19 O25 2.052 . S
Co19 O27 2.135 . S
O20 Co19 2.061 . S
O20 C23 1.235 . S
C21 O24 1.238 . S
C21 O25 1.241 . S
C22 O15 1.247 . S
C22 O16 1.261 . S
C23 O18 1.259 . S
C23 O20 1.235 . S
O24 Co14 2.021 . S
O24 C21 1.238 . S
O25 Co19 2.052 . S
O25 C21 1.241 . S
O26 Co14 2.137 . S
O26 C17 1.247 . S
O27 Co14 2.244 . S
O27 C17 1.272 . S
O27 Co19 2.135 . S
Co28 O29 2.216 1_655 S
Co28 O30 2.091 1_655 S
Co28 O32 2.004 . S
Co28 O38 2.021 . S
Co28 O40 2.137 1_655 S
Co28 O41 2.244 . S
O29 Co28 2.216 1_455 S
O29 C36 1.247 . S
O30 Co28 2.091 1_455 S
O30 C36 1.261 . S
C31 O40 1.247 1_655 S
C31 O41 1.272 . S
O32 Co28 2.004 . S
O32 C37 1.259 . S
Co33 O34 2.061 . S
Co33 O39 2.052 . S
Co33 O41 2.135 . S
O34 Co33 2.061 . S
O34 C37 1.235 . S
C35 O38 1.238 . S
C35 O39 1.241 . S
C36 O29 1.247 . S
C36 O30 1.261 . S
C37 O32 1.259 . S
C37 O34 1.235 . S
O38 Co28 2.021 . S
O38 C35 1.238 . S
O39 Co33 2.052 . S
O39 C35 1.241 . S
O40 Co28 2.137 1_455 S
O40 C31 1.247 1_455 S
O41 Co28 2.244 . S
O41 C31 1.272 . S
O41 Co33 2.135 . S
Co42 O43 2.216 1_565 S
Co42 O44 2.091 1_565 S
Co42 O46 2.004 . S
Co42 O52 2.021 . S
Co42 O54 2.137 1_565 S
Co42 O55 2.244 . S
O43 Co42 2.216 1_545 S
O43 C50 1.247 . S
O44 Co42 2.091 1_545 S
O44 C50 1.261 . S
C45 O54 1.247 1_565 S
C45 O55 1.272 . S
O46 Co42 2.004 . S
O46 C51 1.259 . S
Co47 O48 2.061 . S
Co47 O53 2.052 . S
Co47 O55 2.135 . S
O48 Co47 2.061 . S
O48 C51 1.235 . S
C49 O52 1.238 . S
C49 O53 1.241 . S
C50 O43 1.247 . S
C50 O44 1.261 . S
C51 O46 1.259 . S
C51 O48 1.235 . S
O52 Co42 2.021 . S
O52 C49 1.238 . S
O53 Co47 2.052 . S
O53 C49 1.241 . S
O54 Co42 2.137 1_545 S
O54 C45 1.247 1_545 S
O55 Co42 2.244 . S
O55 C45 1.272 . S
O55 Co47 2.135 . S
Co56 O57 2.216 . S
Co56 O58 2.091 . S
Co56 O60 2.004 . S
Co56 O66 2.021 . S
Co56 O68 2.137 . S
Co56 O69 2.244 . S
O57 Co56 2.216 . S
O57 C64 1.247 . S
O58 Co56 2.091 . S
O58 C64 1.261 . S
C59 O68 1.247 . S
C59 O69 1.272 . S
O60 Co56 2.004 . S
O60 C65 1.259 . S
Co61 O62 2.061 . S
Co61 O67 2.052 . S
Co61 O69 2.135 . S
O62 Co61 2.061 . S
O62 C65 1.235 . S
C63 O66 1.238 . S
C63 O67 1.241 . S
C64 O57 1.247 . S
C64 O58 1.261 . S
C65 O60 1.259 . S
C65 O62 1.235 . S
O66 Co56 2.021 . S
O66 C63 1.238 . S
O67 Co61 2.052 . S
O67 C63 1.241 . S
O68 Co56 2.137 . S
O68 C59 1.247 . S
O69 Co56 2.244 . S
O69 C59 1.272 . S
O69 Co61 2.135 . S
Co70 O71 2.216 . S
Co70 O72 2.091 . S
Co70 O74 2.004 . S
Co70 O80 2.021 . S
Co70 O82 2.137 . S
Co70 O83 2.244 . S
O71 Co70 2.216 . S
O71 C78 1.247 . S
O72 Co70 2.091 . S
O72 C78 1.261 . S
C73 O82 1.247 . S
C73 O83 1.272 . S
O74 Co70 2.004 . S
O74 C79 1.259 . S
Co75 O76 2.061 . S
Co75 O81 2.052 . S
Co75 O83 2.135 . S
O76 Co75 2.061 . S
O76 C79 1.235 . S
C77 O80 1.238 . S
C77 O81 1.241 . S
C78 O71 1.247 . S
C78 O72 1.261 . S
C79 O74 1.259 . S
C79 O76 1.235 . S
O80 Co70 2.021 . S
O80 C77 1.238 . S
O81 Co75 2.052 . S
O81 C77 1.241 . S
O82 Co70 2.137 . S
O82 C73 1.247 . S
O83 Co70 2.244 . S
O83 C73 1.272 . S
O83 Co75 2.135 . S
Co84 O85 2.216 1_655 S
Co84 O86 2.091 1_655 S
Co84 O88 2.004 . S
Co84 O94 2.021 . S
Co84 O96 2.137 1_655 S
Co84 O97 2.244 . S
O85 Co84 2.216 1_455 S
O85 C92 1.247 . S
O86 Co84 2.091 1_455 S
O86 C92 1.261 . S
C87 O96 1.247 1_655 S
C87 O97 1.272 . S
O88 Co84 2.004 . S
O88 C93 1.259 . S
Co89 O90 2.061 . S
Co89 O95 2.052 . S
Co89 O97 2.135 . S
O90 Co89 2.061 . S
O90 C93 1.235 . S
C91 O94 1.238 . S
C91 O95 1.241 . S
C92 O85 1.247 . S
C92 O86 1.261 . S
C93 O88 1.259 . S
C93 O90 1.235 . S
O94 Co84 2.021 . S
O94 C91 1.238 . S
O95 Co89 2.052 . S
O95 C91 1.241 . S
O96 Co84 2.137 1_455 S
O96 C87 1.247 1_455 S
O97 Co84 2.244 . S
O97 C87 1.272 . S
O97 Co89 2.135 . S
Co98 O99 2.216 1_565 S
Co98 O100 2.091 1_565 S
Co98 O102 2.004 . S
Co98 O108 2.021 . S
Co98 O110 2.137 1_565 S
Co98 O111 2.244 . S
O99 Co98 2.216 1_545 S
O99 C106 1.247 . S
O100 Co98 2.091 1_545 S
O100 C106 1.261 . S
C101 O110 1.247 1_565 S
C101 O111 1.272 . S
O102 Co98 2.004 . S
O102 C107 1.259 . S
Co103 O104 2.061 . S
Co103 O109 2.052 . S
Co103 O111 2.135 . S
O104 Co103 2.061 . S
O104 C107 1.235 . S
C105 O108 1.238 . S
C105 O109 1.241 . S
C106 O99 1.247 . S
C106 O100 1.261 . S
C107 O102 1.259 . S
C107 O104 1.235 . S
O108 Co98 2.021 . S
O108 C105 1.238 . S
O109 Co103 2.052 . S
O109 C105 1.241 . S
O110 Co98 2.137 1_545 S
O110 C101 1.247 1_545 S
O111 Co98 2.244 . S
O111 C101 1.272 . S
O111 Co103 2.135 . S
Co112 O113 2.216 . S
Co112 O114 2.091 . S
Co112 O116 2.004 . S
Co112 O122 2.021 . S
Co112 O124 2.137 . S
Co112 O125 2.244 . S
O113 Co112 2.216 . S
O113 C120 1.247 . S
O114 Co112 2.091 . S
O114 C120 1.261 . S
C115 O124 1.247 . S
C115 O125 1.272 . S
O116 Co112 2.004 . S
O116 C121 1.259 . S
Co117 O118 2.061 . S
Co117 O123 2.052 . S
Co117 O125 2.135 . S
O118 Co117 2.061 . S
O118 C121 1.235 . S
C119 O122 1.238 . S
C119 O123 1.241 . S
C120 O113 1.247 . S
C120 O114 1.261 . S
C121 O116 1.259 . S
C121 O118 1.235 . S
O122 Co112 2.021 . S
O122 C119 1.238 . S
O123 Co117 2.052 . S
O123 C119 1.241 . S
O124 Co112 2.137 . S
O124 C115 1.247 . S
O125 Co112 2.244 . S
O125 C115 1.272 . S
O125 Co117 2.135 . S
Co126 O127 2.216 . S
Co126 O128 2.091 . S
Co126 O130 2.004 . S
Co126 O136 2.021 . S
Co126 O138 2.137 . S
Co126 O139 2.244 . S
O127 Co126 2.216 . S
O127 C134 1.247 . S
O128 Co126 2.091 . S
O128 C134 1.261 . S
C129 O138 1.247 . S
C129 O139 1.272 . S
O130 Co126 2.004 . S
O130 C135 1.259 . S
Co131 O132 2.061 . S
Co131 O137 2.052 . S
Co131 O139 2.135 . S
O132 Co131 2.061 . S
O132 C135 1.235 . S
C133 O136 1.238 . S
C133 O137 1.241 . S
C134 O127 1.247 . S
C134 O128 1.261 . S
C135 O130 1.259 . S
C135 O132 1.235 . S
O136 Co126 2.021 . S
O136 C133 1.238 . S
O137 Co131 2.052 . S
O137 C133 1.241 . S
O138 Co126 2.137 . S
O138 C129 1.247 . S
O139 Co126 2.244 . S
O139 C129 1.272 . S
O139 Co131 2.135 . S
Co140 O141 2.216 1_455 S
Co140 O142 2.091 1_455 S
Co140 O144 2.004 . S
Co140 O150 2.021 . S
Co140 O152 2.137 1_455 S
Co140 O153 2.244 . S
O141 Co140 2.216 1_655 S
O141 C148 1.247 . S
O142 Co140 2.091 1_655 S
O142 C148 1.261 . S
C143 O152 1.247 1_455 S
C143 O153 1.272 . S
O144 Co140 2.004 . S
O144 C149 1.259 . S
Co145 O146 2.061 . S
Co145 O151 2.052 . S
Co145 O153 2.135 . S
O146 Co145 2.061 . S
O146 C149 1.235 . S
C147 O150 1.238 . S
C147 O151 1.241 . S
C148 O141 1.247 . S
C148 O142 1.261 . S
C149 O144 1.259 . S
C149 O146 1.235 . S
O150 Co140 2.021 . S
O150 C147 1.238 . S
O151 Co145 2.052 . S
O151 C147 1.241 . S
O152 Co140 2.137 1_655 S
O152 C143 1.247 1_655 S
O153 Co140 2.244 . S
O153 C143 1.272 . S
O153 Co145 2.135 . S
Co154 O155 2.216 1_545 S
Co154 O156 2.091 1_545 S
Co154 O158 2.004 . S
Co154 O164 2.021 . S
Co154 O166 2.137 1_545 S
Co154 O167 2.244 . S
O155 Co154 2.216 1_565 S
O155 C162 1.247 . S
O156 Co154 2.091 1_565 S
O156 C162 1.261 . S
C157 O166 1.247 1_545 S
C157 O167 1.272 . S
O158 Co154 2.004 . S
O158 C163 1.259 . S
Co159 O160 2.061 . S
Co159 O165 2.052 . S
Co159 O167 2.135 . S
O160 Co159 2.061 . S
O160 C163 1.235 . S
C161 O164 1.238 . S
C161 O165 1.241 . S
C162 O155 1.247 . S
C162 O156 1.261 . S
C163 O158 1.259 . S
C163 O160 1.235 . S
O164 Co154 2.021 . S
O164 C161 1.238 . S
O165 Co159 2.052 . S
O165 C161 1.241 . S
O166 Co154 2.137 1_565 S
O166 C157 1.247 1_565 S
O167 Co154 2.244 . S
O167 C157 1.272 . S
O167 Co159 2.135 . S
Co168 O169 2.216 . S
Co168 O170 2.091 . S
Co168 O172 2.004 . S
Co168 O178 2.021 . S
Co168 O180 2.137 . S
Co168 O181 2.244 . S
O169 Co168 2.216 . S
O169 C176 1.247 . S
O170 Co168 2.091 . S
O170 C176 1.261 . S
C171 O180 1.247 . S
C171 O181 1.272 . S
O172 Co168 2.004 . S
O172 C177 1.259 . S
Co173 O174 2.061 . S
Co173 O179 2.052 . S
Co173 O181 2.135 . S
O174 Co173 2.061 . S
O174 C177 1.235 . S
C175 O178 1.238 . S
C175 O179 1.241 . S
C176 O169 1.247 . S
C176 O170 1.261 . S
C177 O172 1.259 . S
C177 O174 1.235 . S
O178 Co168 2.021 . S
O178 C175 1.238 . S
O179 Co173 2.052 . S
O179 C175 1.241 . S
O180 Co168 2.137 . S
O180 C171 1.247 . S
O181 Co168 2.244 . S
O181 C171 1.272 . S
O181 Co173 2.135 . S
Co182 O183 2.216 . S
Co182 O184 2.091 . S
Co182 O186 2.004 . S
Co182 O192 2.021 . S
Co182 O194 2.137 . S
Co182 O195 2.244 . S
O183 Co182 2.216 . S
O183 C190 1.247 . S
O184 Co182 2.091 . S
O184 C190 1.261 . S
C185 O194 1.247 . S
C185 O195 1.272 . S
O186 Co182 2.004 . S
O186 C191 1.259 . S
Co187 O188 2.061 . S
Co187 O193 2.052 . S
Co187 O195 2.135 . S
O188 Co187 2.061 . S
O188 C191 1.235 . S
C189 O192 1.238 . S
C189 O193 1.241 . S
C190 O183 1.247 . S
C190 O184 1.261 . S
C191 O186 1.259 . S
C191 O188 1.235 . S
O192 Co182 2.021 . S
O192 C189 1.238 . S
O193 Co187 2.052 . S
O193 C189 1.241 . S
O194 Co182 2.137 . S
O194 C185 1.247 . S
O195 Co182 2.244 . S
O195 C185 1.272 . S
O195 Co187 2.135 . S
Co196 O197 2.216 1_455 S
Co196 O198 2.091 1_455 S
Co196 O200 2.004 . S
Co196 O206 2.021 . S
Co196 O208 2.137 1_455 S
Co196 O209 2.244 . S
O197 Co196 2.216 1_655 S
O197 C204 1.247 . S
O198 Co196 2.091 1_655 S
O198 C204 1.261 . S
C199 O208 1.247 1_455 S
C199 O209 1.272 . S
O200 Co196 2.004 . S
O200 C205 1.259 . S
Co201 O202 2.061 . S
Co201 O207 2.052 . S
Co201 O209 2.135 . S
O202 Co201 2.061 . S
O202 C205 1.235 . S
C203 O206 1.238 . S
C203 O207 1.241 . S
C204 O197 1.247 . S
C204 O198 1.261 . S
C205 O200 1.259 . S
C205 O202 1.235 . S
O206 Co196 2.021 . S
O206 C203 1.238 . S
O207 Co201 2.052 . S
O207 C203 1.241 . S
O208 Co196 2.137 1_655 S
O208 C199 1.247 1_655 S
O209 Co196 2.244 . S
O209 C199 1.272 . S
O209 Co201 2.135 . S
Co210 O211 2.216 1_545 S
Co210 O212 2.091 1_545 S
Co210 O214 2.004 . S
Co210 O220 2.021 . S
Co210 O222 2.137 1_545 S
Co210 O223 2.244 . S
O211 Co210 2.216 1_565 S
O211 C218 1.247 . S
O212 Co210 2.091 1_565 S
O212 C218 1.261 . S
C213 O222 1.247 1_545 S
C213 O223 1.272 . S
O214 Co210 2.004 . S
O214 C219 1.259 . S
Co215 O216 2.061 . S
Co215 O221 2.052 . S
Co215 O223 2.135 . S
O216 Co215 2.061 . S
O216 C219 1.235 . S
C217 O220 1.238 . S
C217 O221 1.241 . S
C218 O211 1.247 . S
C218 O212 1.261 . S
C219 O214 1.259 . S
C219 O216 1.235 . S
O220 Co210 2.021 . S
O220 C217 1.238 . S
O221 Co215 2.052 . S
O221 C217 1.241 . S
O222 Co210 2.137 1_565 S
O222 C213 1.247 1_565 S
O223 Co210 2.244 . S
O223 C213 1.272 . S
O223 Co215 2.135 . S
C224 C225 1.387 . S
C224 H228 0.950 . S
C224 C233 1.390 . S
C225 C224 1.387 . S
C225 C227 1.387 . S
H226 C233 0.950 . S
C227 C225 1.387 . S
C227 C229 1.390 . S
C227 H231 0.950 . S
H228 C224 0.950 . S
C229 C227 1.390 . S
C229 C230 1.387 . S
C229 H232 0.950 . S
C230 C229 1.387 . S
C230 C233 1.387 . S
H231 C227 0.950 . S
H232 C229 0.950 . S
C233 C224 1.390 . S
C233 H226 0.950 . S
C233 C230 1.387 . S
C234 C235 1.387 . S
C234 H238 0.950 . S
C234 C243 1.390 . S
C235 C234 1.387 . S
C235 C237 1.387 . S
H236 C243 0.950 . S
C237 C235 1.387 . S
C237 C239 1.390 . S
C237 H241 0.950 . S
H238 C234 0.950 . S
C239 C237 1.390 . S
C239 C240 1.387 . S
C239 H242 0.950 . S
C240 C239 1.387 . S
C240 C243 1.387 . S
H241 C237 0.950 . S
H242 C239 0.950 . S
C243 C234 1.390 . S
C243 H236 0.950 . S
C243 C240 1.387 . S
C244 C245 1.387 . S
C244 H248 0.950 . S
C244 C253 1.390 . S
C245 C244 1.387 . S
C245 C247 1.387 . S
H246 C253 0.950 . S
C247 C245 1.387 . S
C247 C249 1.390 . S
C247 H251 0.950 . S
H248 C244 0.950 . S
C249 C247 1.390 . S
C249 C250 1.387 . S
C249 H252 0.950 . S
C250 C249 1.387 . S
C250 C253 1.387 . S
H251 C247 0.950 . S
H252 C249 0.950 . S
C253 C244 1.390 . S
C253 H246 0.950 . S
C253 C250 1.387 . S
C254 C255 1.387 . S
C254 H258 0.950 . S
C254 C263 1.390 . S
C255 C254 1.387 . S
C255 C257 1.387 . S
H256 C263 0.950 . S
C257 C255 1.387 . S
C257 C259 1.390 . S
C257 H261 0.950 . S
H258 C254 0.950 . S
C259 C257 1.390 . S
C259 C260 1.387 . S
C259 H262 0.950 . S
C260 C259 1.387 . S
C260 C263 1.387 . S
H261 C257 0.950 . S
H262 C259 0.950 . S
C263 C254 1.390 . S
C263 H256 0.950 . S
C263 C260 1.387 . S
C264 C265 1.387 . S
C264 H268 0.950 . S
C264 C273 1.390 . S
C265 C264 1.387 . S
C265 C267 1.387 . S
H266 C273 0.950 . S
C267 C265 1.387 . S
C267 C269 1.390 . S
C267 H271 0.950 . S
H268 C264 0.950 . S
C269 C267 1.390 . S
C269 C270 1.387 . S
C269 H272 0.950 . S
C270 C269 1.387 . S
C270 C273 1.387 . S
H271 C267 0.950 . S
H272 C269 0.950 . S
C273 C264 1.390 . S
C273 H266 0.950 . S
C273 C270 1.387 . S
C274 C275 1.387 . S
C274 H278 0.950 . S
C274 C283 1.390 . S
C275 C274 1.387 . S
C275 C277 1.387 . S
H276 C283 0.950 . S
C277 C275 1.387 . S
C277 C279 1.390 . S
C277 H281 0.950 . S
H278 C274 0.950 . S
C279 C277 1.390 . S
C279 C280 1.387 . S
C279 H282 0.950 . S
C280 C279 1.387 . S
C280 C283 1.387 . S
H281 C277 0.950 . S
H282 C279 0.950 . S
C283 C274 1.390 . S
C283 H276 0.950 . S
C283 C280 1.387 . S
C284 C285 1.387 . S
C284 H288 0.950 . S
C284 C293 1.390 . S
C285 C284 1.387 . S
C285 C287 1.387 . S
H286 C293 0.950 . S
C287 C285 1.387 . S
C287 C289 1.390 . S
C287 H291 0.950 . S
H288 C284 0.950 . S
C289 C287 1.390 . S
C289 C290 1.387 . S
C289 H292 0.950 . S
C290 C289 1.387 . S
C290 C293 1.387 . S
H291 C287 0.950 . S
H292 C289 0.950 . S
C293 C284 1.390 . S
C293 H286 0.950 . S
C293 C290 1.387 . S
C294 C295 1.387 . S
C294 H298 0.950 . S
C294 C303 1.390 . S
C295 C294 1.387 . S
C295 C297 1.387 . S
H296 C303 0.950 . S
C297 C295 1.387 . S
C297 C299 1.390 . S
C297 H301 0.950 . S
H298 C294 0.950 . S
C299 C297 1.390 . S
C299 C300 1.387 . S
C299 H302 0.950 . S
C300 C299 1.387 . S
C300 C303 1.387 . S
H301 C297 0.950 . S
H302 C299 0.950 . S
C303 C294 1.390 . S
C303 H296 0.950 . S
C303 C300 1.387 . S
C304 C305 1.387 . S
C304 H308 0.950 . S
C304 C313 1.390 . S
C305 C304 1.387 . S
C305 C307 1.387 . S
H306 C313 0.950 . S
C307 C305 1.387 . S
C307 C309 1.390 . S
C307 H311 0.950 . S
H308 C304 0.950 . S
C309 C307 1.390 . S
C309 C310 1.387 . S
C309 H312 0.950 . S
C310 C309 1.387 . S
C310 C313 1.387 . S
H311 C307 0.950 . S
H312 C309 0.950 . S
C313 C304 1.390 . S
C313 H306 0.950 . S
C313 C310 1.387 . S
C314 C315 1.387 . S
C314 H318 0.950 . S
C314 C323 1.390 . S
C315 C314 1.387 . S
C315 C317 1.387 . S
H316 C323 0.950 . S
C317 C315 1.387 . S
C317 C319 1.390 . S
C317 H321 0.950 . S
H318 C314 0.950 . S
C319 C317 1.390 . S
C319 C320 1.387 . S
C319 H322 0.950 . S
C320 C319 1.387 . S
C320 C323 1.387 . S
H321 C317 0.950 . S
H322 C319 0.950 . S
C323 C314 1.390 . S
C323 H316 0.950 . S
C323 C320 1.387 . S
C324 C325 1.387 . S
C324 H328 0.950 . S
C324 C333 1.390 . S
C325 C324 1.387 . S
C325 C327 1.387 . S
H326 C333 0.950 . S
C327 C325 1.387 . S
C327 C329 1.390 . S
C327 H331 0.950 . S
H328 C324 0.950 . S
C329 C327 1.390 . S
C329 C330 1.387 . S
C329 H332 0.950 . S
C330 C329 1.387 . S
C330 C333 1.387 . S
H331 C327 0.950 . S
H332 C329 0.950 . S
C333 C324 1.390 . S
C333 H326 0.950 . S
C333 C330 1.387 . S
C334 C335 1.387 . S
C334 H338 0.950 . S
C334 C343 1.390 . S
C335 C334 1.387 . S
C335 C337 1.387 . S
H336 C343 0.950 . S
C337 C335 1.387 . S
C337 C339 1.390 . S
C337 H341 0.950 . S
H338 C334 0.950 . S
C339 C337 1.390 . S
C339 C340 1.387 . S
C339 H342 0.950 . S
C340 C339 1.387 . S
C340 C343 1.387 . S
H341 C337 0.950 . S
H342 C339 0.950 . S
C343 C334 1.390 . S
C343 H336 0.950 . S
C343 C340 1.387 . S
C344 C345 1.387 . S
C344 H348 0.950 . S
C344 C353 1.390 . S
C345 C344 1.387 . S
C345 C347 1.387 . S
H346 C353 0.950 . S
C347 C345 1.387 . S
C347 C349 1.390 . S
C347 H351 0.950 . S
H348 C344 0.950 . S
C349 C347 1.390 . S
C349 C350 1.387 . S
C349 H352 0.950 . S
C350 C349 1.387 . S
C350 C353 1.387 . S
H351 C347 0.950 . S
H352 C349 0.950 . S
C353 C344 1.390 . S
C353 H346 0.950 . S
C353 C350 1.387 . S
C354 C355 1.387 . S
C354 H358 0.950 . S
C354 C363 1.390 . S
C355 C354 1.387 . S
C355 C357 1.387 . S
H356 C363 0.950 . S
C357 C355 1.387 . S
C357 C359 1.390 . S
C357 H361 0.950 . S
H358 C354 0.950 . S
C359 C357 1.390 . S
C359 C360 1.387 . S
C359 H362 0.950 . S
C360 C359 1.387 . S
C360 C363 1.387 . S
H361 C357 0.950 . S
H362 C359 0.950 . S
C363 C354 1.390 . S
C363 H356 0.950 . S
C363 C360 1.387 . S
C364 C365 1.387 . S
C364 H368 0.950 . S
C364 C373 1.390 . S
C365 C364 1.387 . S
C365 C367 1.387 . S
H366 C373 0.950 . S
C367 C365 1.387 . S
C367 C369 1.390 . S
C367 H371 0.950 . S
H368 C364 0.950 . S
C369 C367 1.390 . S
C369 C370 1.387 . S
C369 H372 0.950 . S
C370 C369 1.387 . S
C370 C373 1.387 . S
H371 C367 0.950 . S
H372 C369 0.950 . S
C373 C364 1.390 . S
C373 H366 0.950 . S
C373 C370 1.387 . S
C374 C375 1.387 . S
C374 H378 0.950 . S
C374 C383 1.390 . S
C375 C374 1.387 . S
C375 C377 1.387 . S
H376 C383 0.950 . S
C377 C375 1.387 . S
C377 C379 1.390 . S
C377 H381 0.950 . S
H378 C374 0.950 . S
C379 C377 1.390 . S
C379 C380 1.387 . S
C379 H382 0.950 . S
C380 C379 1.387 . S
C380 C383 1.387 . S
H381 C377 0.950 . S
H382 C379 0.950 . S
C383 C374 1.390 . S
C383 H376 0.950 . S
C383 C380 1.387 . S
C384 C385 1.387 . S
C384 H388 0.950 . S
C384 C393 1.390 . S
C385 C384 1.387 . S
C385 C387 1.387 . S
H386 C393 0.950 . S
C387 C385 1.387 . S
C387 C389 1.390 . S
C387 H391 0.950 . S
H388 C384 0.950 . S
C389 C387 1.390 . S
C389 C390 1.387 . S
C389 H392 0.950 . S
C390 C389 1.387 . S
C390 C393 1.387 . S
H391 C387 0.950 . S
H392 C389 0.950 . S
C393 C384 1.390 . S
C393 H386 0.950 . S
C393 C390 1.387 . S
C394 C395 1.387 . S
C394 H398 0.950 . S
C394 C403 1.390 . S
C395 C394 1.387 . S
C395 C397 1.387 . S
H396 C403 0.950 . S
C397 C395 1.387 . S
C397 C399 1.390 . S
C397 H401 0.950 . S
H398 C394 0.950 . S
C399 C397 1.390 . S
C399 C400 1.387 . S
C399 H402 0.950 . S
C400 C399 1.387 . S
C400 C403 1.387 . S
H401 C397 0.950 . S
H402 C399 0.950 . S
C403 C394 1.390 . S
C403 H396 0.950 . S
C403 C400 1.387 . S
C404 C405 1.387 . S
C404 H408 0.950 . S
C404 C413 1.390 . S
C405 C404 1.387 . S
C405 C407 1.387 . S
H406 C413 0.950 . S
C407 C405 1.387 . S
C407 C409 1.390 . S
C407 H411 0.950 . S
H408 C404 0.950 . S
C409 C407 1.390 . S
C409 C410 1.387 . S
C409 H412 0.950 . S
C410 C409 1.387 . S
C410 C413 1.387 . S
H411 C407 0.950 . S
H412 C409 0.950 . S
C413 C404 1.390 . S
C413 H406 0.950 . S
C413 C410 1.387 . S
C414 C415 1.387 . S
C414 H418 0.950 . S
C414 C423 1.390 . S
C415 C414 1.387 . S
C415 C417 1.387 . S
H416 C423 0.950 . S
C417 C415 1.387 . S
C417 C419 1.390 . S
C417 H421 0.950 . S
H418 C414 0.950 . S
C419 C417 1.390 . S
C419 C420 1.387 . S
C419 H422 0.950 . S
C420 C419 1.387 . S
C420 C423 1.387 . S
H421 C417 0.950 . S
H422 C419 0.950 . S
C423 C414 1.390 . S
C423 H416 0.950 . S
C423 C420 1.387 . S
C424 C425 1.387 . S
C424 H428 0.950 . S
C424 C433 1.390 . S
C425 C424 1.387 . S
C425 C427 1.387 . S
H426 C433 0.950 . S
C427 C425 1.387 . S
C427 C429 1.390 . S
C427 H431 0.950 . S
H428 C424 0.950 . S
C429 C427 1.390 . S
C429 C430 1.387 . S
C429 H432 0.950 . S
C430 C429 1.387 . S
C430 C433 1.387 . S
H431 C427 0.950 . S
H432 C429 0.950 . S
C433 C424 1.390 . S
C433 H426 0.950 . S
C433 C430 1.387 . S
C434 C435 1.387 . S
C434 H438 0.950 . S
C434 C443 1.390 . S
C435 C434 1.387 . S
C435 C437 1.387 . S
H436 C443 0.950 . S
C437 C435 1.387 . S
C437 C439 1.390 . S
C437 H441 0.950 . S
H438 C434 0.950 . S
C439 C437 1.390 . S
C439 C440 1.387 . S
C439 H442 0.950 . S
C440 C439 1.387 . S
C440 C443 1.387 . S
H441 C437 0.950 . S
H442 C439 0.950 . S
C443 C434 1.390 . S
C443 H436 0.950 . S
C443 C440 1.387 . S
C444 C445 1.387 . S
C444 H448 0.950 . S
C444 C453 1.390 . S
C445 C444 1.387 . S
C445 C447 1.387 . S
H446 C453 0.950 . S
C447 C445 1.387 . S
C447 C449 1.390 . S
C447 H451 0.950 . S
H448 C444 0.950 . S
C449 C447 1.390 . S
C449 C450 1.387 . S
C449 H452 0.950 . S
C450 C449 1.387 . S
C450 C453 1.387 . S
H451 C447 0.950 . S
H452 C449 0.950 . S
C453 C444 1.390 . S
C453 H446 0.950 . S
C453 C450 1.387 . S
C454 C455 1.387 . S
C454 H458 0.950 . S
C454 C463 1.390 . S
C455 C454 1.387 . S
C455 C457 1.387 . S
H456 C463 0.950 . S
C457 C455 1.387 . S
C457 C459 1.390 . S
C457 H461 0.950 . S
H458 C454 0.950 . S
C459 C457 1.390 . S
C459 C460 1.387 . S
C459 H462 0.950 . S
C460 C459 1.387 . S
C460 C463 1.387 . S
H461 C457 0.950 . S
H462 C459 0.950 . S
C463 C454 1.390 . S
C463 H456 0.950 . S
C463 C460 1.387 . S
C464 C465 1.387 . S
C464 H468 0.950 . S
C464 C473 1.390 1_554 S
C465 C464 1.387 . S
C465 C467 1.387 . S
H466 C473 0.950 . S
C467 C465 1.387 . S
C467 C469 1.390 1_554 S
C467 H471 0.950 . S
H468 C464 0.950 . S
C469 C467 1.390 1_556 S
C469 C470 1.387 . S
C469 H472 0.950 . S
C470 C469 1.387 . S
C470 C473 1.387 . S
H471 C467 0.950 . S
H472 C469 0.950 . S
C473 C464 1.390 1_556 S
C473 H466 0.950 . S
C473 C470 1.387 . S
C474 C475 1.387 . S
C474 H478 0.950 . S
C474 C483 1.390 . S
C475 C474 1.387 . S
C475 C477 1.387 . S
H476 C483 0.950 . S
C477 C475 1.387 . S
C477 C479 1.390 . S
C477 H481 0.950 . S
H478 C474 0.950 . S
C479 C477 1.390 . S
C479 C480 1.387 . S
C479 H482 0.950 . S
C480 C479 1.387 . S
C480 C483 1.387 . S
H481 C477 0.950 . S
H482 C479 0.950 . S
C483 C474 1.390 . S
C483 H476 0.950 . S
C483 C480 1.387 . S
C484 C485 1.387 1_455 S
C484 H488 0.950 . S
C484 C493 1.390 1_554 S
C485 C484 1.387 1_655 S
C485 C487 1.387 . S
H486 C493 0.950 . S
C487 C485 1.387 . S
C487 C489 1.390 1_554 S
C487 H491 0.950 . S
H488 C484 0.950 . S
C489 C487 1.390 1_556 S
C489 C490 1.387 . S
C489 H492 0.950 . S
C490 C489 1.387 . S
C490 C493 1.387 1_655 S
H491 C487 0.950 . S
H492 C489 0.950 . S
C493 C484 1.390 1_556 S
C493 H486 0.950 . S
C493 C490 1.387 1_455 S
C494 C495 1.387 . S
C494 H498 0.950 . S
C494 C503 1.390 . S
C495 C494 1.387 . S
C495 C497 1.387 1_565 S
H496 C503 0.950 . S
C497 C495 1.387 1_545 S
C497 C499 1.390 . S
C497 H501 0.950 . S
H498 C494 0.950 . S
C499 C497 1.390 . S
C499 C500 1.387 1_545 S
C499 H502 0.950 . S
C500 C499 1.387 1_565 S
C500 C503 1.387 . S
H501 C497 0.950 . S
H502 C499 0.950 . S
C503 C494 1.390 . S
C503 H496 0.950 . S
C503 C500 1.387 . S
C504 C505 1.387 . S
C504 H508 0.950 . S
C504 C513 1.390 1_556 S
C505 C504 1.387 . S
C505 C507 1.387 . S
H506 C513 0.950 . S
C507 C505 1.387 . S
C507 C509 1.390 1_556 S
C507 H511 0.950 . S
H508 C504 0.950 . S
C509 C507 1.390 1_554 S
C509 C510 1.387 . S
C509 H512 0.950 . S
C510 C509 1.387 . S
C510 C513 1.387 . S
H511 C507 0.950 . S
H512 C509 0.950 . S
C513 C504 1.390 1_554 S
C513 H506 0.950 . S
C513 C510 1.387 . S
C514 C515 1.387 . S
C514 H518 0.950 . S
C514 C523 1.390 . S
C515 C514 1.387 . S
C515 C517 1.387 . S
H516 C523 0.950 . S
C517 C515 1.387 . S
C517 C519 1.390 . S
C517 H521 0.950 . S
H518 C514 0.950 . S
C519 C517 1.390 . S
C519 C520 1.387 . S
C519 H522 0.950 . S
C520 C519 1.387 . S
C520 C523 1.387 . S
H521 C517 0.950 . S
H522 C519 0.950 . S
C523 C514 1.390 . S
C523 H516 0.950 . S
C523 C520 1.387 . S
C524 C525 1.387 . S
C524 H528 0.950 . S
C524 C533 1.390 1_554 S
C525 C524 1.387 . S
C525 C527 1.387 1_455 S
H526 C533 0.950 . S
C527 C525 1.387 1_655 S
C527 C529 1.390 1_554 S
C527 H531 0.950 . S
H528 C524 0.950 . S
C529 C527 1.390 1_556 S
C529 C530 1.387 1_655 S
C529 H532 0.950 . S
C530 C529 1.387 1_455 S
C530 C533 1.387 . S
H531 C527 0.950 . S
H532 C529 0.950 . S
C533 C524 1.390 1_556 S
C533 H526 0.950 . S
C533 C530 1.387 . S
C534 C535 1.387 1_565 S
C534 H538 0.950 . S
C534 C543 1.390 . S
C535 C534 1.387 1_545 S
C535 C537 1.387 . S
H536 C543 0.950 . S
C537 C535 1.387 . S
C537 C539 1.390 . S
C537 H541 0.950 . S
H538 C534 0.950 . S
C539 C537 1.390 . S
C539 C540 1.387 . S
C539 H542 0.950 . S
C540 C539 1.387 . S
C540 C543 1.387 1_545 S
H541 C537 0.950 . S
H542 C539 0.950 . S
C543 C534 1.390 . S
C543 H536 0.950 . S
C543 C540 1.387 1_565 S
C225 C8 1.386 . S
C230 C106 1.385 . S
C235 C22 1.386 . S
C240 C64 1.385 . S
C245 C36 1.386 . S
C250 C78 1.385 . S
C255 C50 1.386 . S
C260 C92 1.385 . S
C265 C120 1.386 . S
C270 C218 1.385 . S
C275 C176 1.385 . S
C280 C134 1.386 . S
C285 C148 1.385 . S
C290 C190 1.386 . S
C295 C162 1.386 . S
C300 C204 1.386 . S
C305 C9 1.444 . S
C310 C133 1.475 . S
C315 C23 1.441 . S
C320 C147 1.476 . S
C325 C161 1.476 . S
C330 C37 1.440 . S
C335 C51 1.441 . S
C340 C119 1.477 . S
C345 C65 1.442 . S
C350 C217 1.477 . S
C355 C175 1.474 . S
C360 C79 1.443 . S
C365 C189 1.475 . S
C370 C93 1.444 . S
C375 C203 1.474 . S
C380 C107 1.443 . S
C385 C21 1.476 . S
C390 C121 1.440 . S
C395 C35 1.474 . S
C400 C135 1.443 . S
C405 C149 1.443 . S
C410 C49 1.475 . S
C415 C7 1.477 . S
C420 C163 1.441 . S
C425 C177 1.440 . S
C430 C105 1.476 . S
C435 C191 1.441 . S
C440 C63 1.476 . S
C445 C77 1.475 . S
C450 C205 1.444 . S
C455 C91 1.476 . S
C460 C219 1.441 . S
C465 C3 1.599 . S
C470 C59 1.599 . S
C475 C73 1.598 . S
C480 C17 1.598 . S
C485 C31 1.598 . S
C490 C87 1.598 . S
C495 C101 1.599 . S
C500 C45 1.599 . S
C505 C115 1.598 . S
C510 C171 1.598 . S
C515 C185 1.599 . S
C520 C129 1.599 . S
C525 C199 1.598 . S
C530 C143 1.598 . S
C535 C213 1.599 . S
C540 C157 1.599 . S
