# Generated by pormake.
# Topology umn, (4)-cn, num edge types: 1
# Building blocks:
#     Node 0, Type 0, BuildingBlock: GALJAG_clean_sbu_0, # of connection points: 4
#     Node 1, Type 0, BuildingBlock: GALJAG_clean_sbu_0, # of connection points: 4
#     Node 2, Type 0, BuildingBlock: GALJAG_clean_sbu_0, # of connection points: 4
#     Node 3, Type 0, BuildingBlock: GALJAG_clean_sbu_0, # of connection points: 4
#     Node 4, Type 0, BuildingBlock: GALJAG_clean_sbu_0, # of connection points: 4
#     Node 5, Type 0, BuildingBlock: GALJAG_clean_sbu_0, # of connection points: 4
#     Node 6, Type 0, BuildingBlock: GALJAG_clean_sbu_0, # of connection points: 4
#     Node 7, Type 0, BuildingBlock: GALJAG_clean_sbu_0, # of connection points: 4
#     Node 8, Type 0, BuildingBlock: GALJAG_clean_sbu_0, # of connection points: 4
#     Node 9, Type 0, BuildingBlock: GALJAG_clean_sbu_0, # of connection points: 4
#     Node 10, Type 0, BuildingBlock: GALJAG_clean_sbu_0, # of connection points: 4
#     Node 11, Type 0, BuildingBlock: GALJAG_clean_sbu_0, # of connection points: 4
#     Node 12, Type 0, BuildingBlock: GALJAG_clean_sbu_0, # of connection points: 4
#     Node 13, Type 0, BuildingBlock: GALJAG_clean_sbu_0, # of connection points: 4
#     Node 14, Type 0, BuildingBlock: GALJAG_clean_sbu_0, # of connection points: 4
#     Node 15, Type 0, BuildingBlock: GALJAG_clean_sbu_0, # of connection points: 4
#     Node 16, Type 0, BuildingBlock: GALJAG_clean_sbu_0, # of connection points: 4
#     Node 17, Type 0, BuildingBlock: GALJAG_clean_sbu_0, # of connection points: 4
#     Node 18, Type 0, BuildingBlock: GALJAG_clean_sbu_0, # of connection points: 4
#     Node 19, Type 0, BuildingBlock: GALJAG_clean_sbu_0, # of connection points: 4
#     Node 20, Type 0, BuildingBlock: GALJAG_clean_sbu_0, # of connection points: 4
#     Node 21, Type 0, BuildingBlock: GALJAG_clean_sbu_0, # of connection points: 4
#     Node 22, Type 0, BuildingBlock: GALJAG_clean_sbu_0, # of connection points: 4
#     Node 23, Type 0, BuildingBlock: GALJAG_clean_sbu_0, # of connection points: 4
#     Node 24, Type 0, BuildingBlock: GALJAG_clean_sbu_0, # of connection points: 4
#     Node 25, Type 0, BuildingBlock: GALJAG_clean_sbu_0, # of connection points: 4
#     Node 26, Type 0, BuildingBlock: GALJAG_clean_sbu_0, # of connection points: 4
#     Node 27, Type 0, BuildingBlock: GALJAG_clean_sbu_0, # of connection points: 4
#     Node 28, Type 0, BuildingBlock: GALJAG_clean_sbu_0, # of connection points: 4
#     Node 29, Type 0, BuildingBlock: GALJAG_clean_sbu_0, # of connection points: 4
#     Node 30, Type 0, BuildingBlock: GALJAG_clean_sbu_0, # of connection points: 4
#     Node 31, Type 0, BuildingBlock: GALJAG_clean_sbu_0, # of connection points: 4
#     Node 32, Type 0, BuildingBlock: GALJAG_clean_sbu_0, # of connection points: 4
#     Node 33, Type 0, BuildingBlock: GALJAG_clean_sbu_0, # of connection points: 4
#     Node 34, Type 0, BuildingBlock: GALJAG_clean_sbu_0, # of connection points: 4
#     Node 35, Type 0, BuildingBlock: GALJAG_clean_sbu_0, # of connection points: 4
#     Edge 36, Type (0, 0), BuildingBlock: UVAHIK_clean_linker_0, # of connection points: 2
#     Edge 37, Type (0, 0), BuildingBlock: UVAHIK_clean_linker_0, # of connection points: 2
#     Edge 38, Type (0, 0), BuildingBlock: UVAHIK_clean_linker_0, # of connection points: 2
#     Edge 39, Type (0, 0), BuildingBlock: UVAHIK_clean_linker_0, # of connection points: 2
#     Edge 40, Type (0, 0), BuildingBlock: UVAHIK_clean_linker_0, # of connection points: 2
#     Edge 41, Type (0, 0), BuildingBlock: UVAHIK_clean_linker_0, # of connection points: 2
#     Edge 42, Type (0, 0), BuildingBlock: UVAHIK_clean_linker_0, # of connection points: 2
#     Edge 43, Type (0, 0), BuildingBlock: UVAHIK_clean_linker_0, # of connection points: 2
#     Edge 44, Type (0, 0), BuildingBlock: UVAHIK_clean_linker_0, # of connection points: 2
#     Edge 45, Type (0, 0), BuildingBlock: UVAHIK_clean_linker_0, # of connection points: 2
#     Edge 46, Type (0, 0), BuildingBlock: UVAHIK_clean_linker_0, # of connection points: 2
#     Edge 47, Type (0, 0), BuildingBlock: UVAHIK_clean_linker_0, # of connection points: 2
#     Edge 48, Type (0, 0), BuildingBlock: UVAHIK_clean_linker_0, # of connection points: 2
#     Edge 49, Type (0, 0), BuildingBlock: UVAHIK_clean_linker_0, # of connection points: 2
#     Edge 50, Type (0, 0), BuildingBlock: UVAHIK_clean_linker_0, # of connection points: 2
#     Edge 51, Type (0, 0), BuildingBlock: UVAHIK_clean_linker_0, # of connection points: 2
#     Edge 52, Type (0, 0), BuildingBlock: UVAHIK_clean_linker_0, # of connection points: 2
#     Edge 53, Type (0, 0), BuildingBlock: UVAHIK_clean_linker_0, # of connection points: 2
#     Edge 54, Type (0, 0), BuildingBlock: UVAHIK_clean_linker_0, # of connection points: 2
#     Edge 55, Type (0, 0), BuildingBlock: UVAHIK_clean_linker_0, # of connection points: 2
#     Edge 56, Type (0, 0), BuildingBlock: UVAHIK_clean_linker_0, # of connection points: 2
#     Edge 57, Type (0, 0), BuildingBlock: UVAHIK_clean_linker_0, # of connection points: 2
#     Edge 58, Type (0, 0), BuildingBlock: UVAHIK_clean_linker_0, # of connection points: 2
#     Edge 59, Type (0, 0), BuildingBlock: UVAHIK_clean_linker_0, # of connection points: 2
#     Edge 60, Type (0, 0), BuildingBlock: UVAHIK_clean_linker_0, # of connection points: 2
#     Edge 61, Type (0, 0), BuildingBlock: UVAHIK_clean_linker_0, # of connection points: 2
#     Edge 62, Type (0, 0), BuildingBlock: UVAHIK_clean_linker_0, # of connection points: 2
#     Edge 63, Type (0, 0), BuildingBlock: UVAHIK_clean_linker_0, # of connection points: 2
#     Edge 64, Type (0, 0), BuildingBlock: UVAHIK_clean_linker_0, # of connection points: 2
#     Edge 65, Type (0, 0), BuildingBlock: UVAHIK_clean_linker_0, # of connection points: 2
#     Edge 66, Type (0, 0), BuildingBlock: UVAHIK_clean_linker_0, # of connection points: 2
#     Edge 67, Type (0, 0), BuildingBlock: UVAHIK_clean_linker_0, # of connection points: 2
#     Edge 68, Type (0, 0), BuildingBlock: UVAHIK_clean_linker_0, # of connection points: 2
#     Edge 69, Type (0, 0), BuildingBlock: UVAHIK_clean_linker_0, # of connection points: 2
#     Edge 70, Type (0, 0), BuildingBlock: UVAHIK_clean_linker_0, # of connection points: 2
#     Edge 71, Type (0, 0), BuildingBlock: UVAHIK_clean_linker_0, # of connection points: 2
#     Edge 72, Type (0, 0), BuildingBlock: UVAHIK_clean_linker_0, # of connection points: 2
#     Edge 73, Type (0, 0), BuildingBlock: UVAHIK_clean_linker_0, # of connection points: 2
#     Edge 74, Type (0, 0), BuildingBlock: UVAHIK_clean_linker_0, # of connection points: 2
#     Edge 75, Type (0, 0), BuildingBlock: UVAHIK_clean_linker_0, # of connection points: 2
#     Edge 76, Type (0, 0), BuildingBlock: UVAHIK_clean_linker_0, # of connection points: 2
#     Edge 77, Type (0, 0), BuildingBlock: UVAHIK_clean_linker_0, # of connection points: 2
#     Edge 78, Type (0, 0), BuildingBlock: UVAHIK_clean_linker_0, # of connection points: 2
#     Edge 79, Type (0, 0), BuildingBlock: UVAHIK_clean_linker_0, # of connection points: 2
#     Edge 80, Type (0, 0), BuildingBlock: UVAHIK_clean_linker_0, # of connection points: 2
#     Edge 81, Type (0, 0), BuildingBlock: UVAHIK_clean_linker_0, # of connection points: 2
#     Edge 82, Type (0, 0), BuildingBlock: UVAHIK_clean_linker_0, # of connection points: 2
#     Edge 83, Type (0, 0), BuildingBlock: UVAHIK_clean_linker_0, # of connection points: 2
#     Edge 84, Type (0, 0), BuildingBlock: UVAHIK_clean_linker_0, # of connection points: 2
#     Edge 85, Type (0, 0), BuildingBlock: UVAHIK_clean_linker_0, # of connection points: 2
#     Edge 86, Type (0, 0), BuildingBlock: UVAHIK_clean_linker_0, # of connection points: 2
#     Edge 87, Type (0, 0), BuildingBlock: UVAHIK_clean_linker_0, # of connection points: 2
#     Edge 88, Type (0, 0), BuildingBlock: UVAHIK_clean_linker_0, # of connection points: 2
#     Edge 89, Type (0, 0), BuildingBlock: UVAHIK_clean_linker_0, # of connection points: 2
#     Edge 90, Type (0, 0), BuildingBlock: UVAHIK_clean_linker_0, # of connection points: 2
#     Edge 91, Type (0, 0), BuildingBlock: UVAHIK_clean_linker_0, # of connection points: 2
#     Edge 92, Type (0, 0), BuildingBlock: UVAHIK_clean_linker_0, # of connection points: 2
#     Edge 93, Type (0, 0), BuildingBlock: UVAHIK_clean_linker_0, # of connection points: 2
#     Edge 94, Type (0, 0), BuildingBlock: UVAHIK_clean_linker_0, # of connection points: 2
#     Edge 95, Type (0, 0), BuildingBlock: UVAHIK_clean_linker_0, # of connection points: 2
#     Edge 96, Type (0, 0), BuildingBlock: UVAHIK_clean_linker_0, # of connection points: 2
#     Edge 97, Type (0, 0), BuildingBlock: UVAHIK_clean_linker_0, # of connection points: 2
#     Edge 98, Type (0, 0), BuildingBlock: UVAHIK_clean_linker_0, # of connection points: 2
#     Edge 99, Type (0, 0), BuildingBlock: UVAHIK_clean_linker_0, # of connection points: 2
#     Edge 100, Type (0, 0), BuildingBlock: UVAHIK_clean_linker_0, # of connection points: 2
#     Edge 101, Type (0, 0), BuildingBlock: UVAHIK_clean_linker_0, # of connection points: 2
#     Edge 102, Type (0, 0), BuildingBlock: UVAHIK_clean_linker_0, # of connection points: 2
#     Edge 103, Type (0, 0), BuildingBlock: UVAHIK_clean_linker_0, # of connection points: 2
#     Edge 104, Type (0, 0), BuildingBlock: UVAHIK_clean_linker_0, # of connection points: 2
#     Edge 105, Type (0, 0), BuildingBlock: UVAHIK_clean_linker_0, # of connection points: 2
#     Edge 106, Type (0, 0), BuildingBlock: UVAHIK_clean_linker_0, # of connection points: 2
#     Edge 107, Type (0, 0), BuildingBlock: UVAHIK_clean_linker_0, # of connection points: 2
# Relax obj value: 0.191
# Max RMSD: 0.184
# Mean RMSD: 0.184
data_MOF--net-umn--node1-GALJAG_clean_sbu_0--edge1-UVAHIK_clean_linker_0
_symmetry_space_group_name_H-M    P1
_symmetry_Int_Tables_number       1
_symmetry_cell_setting            triclinic
loop_
_symmetry_equiv_pos_as_xyz
'x, y, z'
_cell_length_a     107.8982
_cell_length_b     108.04844
_cell_length_c     47.395847
_cell_angle_alpha  89.966052
_cell_angle_beta   90.022738
_cell_angle_gamma 120.02407
loop_
_atom_site_label
_atom_site_type_symbol
_atom_site_fract_x
_atom_site_fract_y
_atom_site_fract_z
_atom_type_partial_charge
In0 In 0.35837 0.09519 0.22202 0.0
O1 O 0.36532 0.10184 0.26833 0.0
O2 O 0.34331 0.09253 0.25706 0.0
C3 C 0.38034 0.10013 0.18794 0.0
C4 C 0.352 0.11419 0.20074 0.0
C5 C 0.34421 0.06661 0.22256 0.0
O6 O 0.38204 0.10184 0.21443 0.0
O7 O 0.36785 0.09618 0.17931 0.0
O8 O 0.3393 0.07363 0.21022 0.0
O9 O 0.35645 0.07404 0.23344 0.0
C10 C 0.35256 0.09751 0.27638 0.0
O11 O 0.34464 0.10097 0.19537 0.0
O12 O 0.36272 0.11782 0.2166 0.0
In13 In 0.89463 0.25909 0.23036 0.0
O14 O 0.88894 0.26127 0.27648 0.0
O15 O 0.89114 0.24342 0.26489 0.0
C16 C 0.89136 0.27674 0.19486 0.0
C17 C 0.8765 0.23465 0.20475 0.0
C18 C 0.92309 0.27181 0.23648 0.0
O19 O 0.88735 0.27545 0.22038 0.0
O20 O 0.89693 0.26933 0.18799 0.0
O21 O 0.91602 0.26012 0.22344 0.0
O22 O 0.91585 0.27725 0.24531 0.0
C23 C 0.88895 0.25004 0.28431 0.0
O24 O 0.88995 0.24028 0.2027 0.0
O25 O 0.87218 0.24149 0.21962 0.0
In26 In 0.72863 0.62284 0.23395 0.0
O27 O 0.74841 0.63927 0.21115 0.0
O28 O 0.74668 0.61908 0.22047 0.0
C29 C 0.71894 0.641 0.24306 0.0
C30 C 0.73386 0.62158 0.28939 0.0
C31 C 0.7107 0.60375 0.19546 0.0
O32 O 0.7302 0.64461 0.22901 0.0
O33 O 0.7125 0.62824 0.25155 0.0
O34 O 0.71377 0.59963 0.21809 0.0
O35 O 0.71652 0.6171 0.19294 0.0
C36 C 0.75401 0.63143 0.20978 0.0
O37 O 0.72143 0.61442 0.27907 0.0
O38 O 0.74359 0.62811 0.27142 0.0
In39 In 0.09761 0.36714 0.28145 0.0
O40 O 0.10796 0.3703 0.2376 0.0
O41 O 0.08607 0.36416 0.23944 0.0
C42 C 0.10461 0.39075 0.31282 0.0
C43 C 0.11558 0.3581 0.29721 0.0
C44 C 0.07084 0.34701 0.29542 0.0
O45 O 0.10004 0.38948 0.28783 0.0
O46 O 0.10612 0.38053 0.32108 0.0
O47 O 0.07986 0.344 0.28553 0.0
O48 O 0.07547 0.36018 0.29904 0.0
C49 C 0.0965 0.36635 0.22417 0.0
O50 O 0.10252 0.35167 0.30405 0.0
O51 O 0.11964 0.36922 0.28242 0.0
In52 In 0.63026 0.73065 0.28634 0.0
O53 O 0.62402 0.72994 0.23937 0.0
O54 O 0.64595 0.742 0.25152 0.0
C55 C 0.60759 0.71389 0.31933 0.0
C56 C 0.63696 0.75665 0.30441 0.0
C57 C 0.64461 0.71649 0.29085 0.0
O58 O 0.60662 0.71314 0.29264 0.0
O59 O 0.61964 0.72317 0.32864 0.0
O60 O 0.64861 0.72819 0.30348 0.0
O61 O 0.63316 0.71181 0.27689 0.0
C62 C 0.63695 0.73783 0.23174 0.0
O63 O 0.64406 0.7507 0.31126 0.0
O64 O 0.62621 0.7493 0.28877 0.0
In65 In 0.26284 0.89158 0.27819 0.0
O66 O 0.27231 0.90169 0.23543 0.0
O67 O 0.25382 0.88118 0.23512 0.0
C68 C 0.27976 0.88493 0.3095 0.0
C69 C 0.23605 0.87407 0.29594 0.0
C70 C 0.2702 0.91889 0.28846 0.0
O71 O 0.28174 0.8874 0.28333 0.0
O72 O 0.26906 0.88524 0.31913 0.0
O73 O 0.25804 0.90983 0.27913 0.0
O74 O 0.27844 0.91404 0.29353 0.0
C75 C 0.26263 0.89184 0.2209 0.0
O76 O 0.2429 0.88722 0.30196 0.0
O77 O 0.24282 0.86967 0.28113 0.0
In78 In 0.62884 0.8964 0.78671 0.0
O79 O 0.62294 0.89057 0.73965 0.0
O80 O 0.64486 0.90254 0.75178 0.0
C81 C 0.60563 0.89004 0.81833 0.0
C82 C 0.63567 0.87714 0.80468 0.0
C83 C 0.64259 0.92482 0.79284 0.0
O84 O 0.60529 0.89062 0.79164 0.0
O85 O 0.61735 0.89214 0.8284 0.0
O86 O 0.64742 0.91728 0.80314 0.0
O87 O 0.63066 0.91792 0.78051 0.0
C88 C 0.63597 0.8969 0.73201 0.0
O89 O 0.64237 0.89006 0.81255 0.0
O90 O 0.62529 0.87388 0.78809 0.0
In91 In 0.09533 0.73248 0.78121 0.0
O92 O 0.10086 0.7519 0.80768 0.0
O93 O 0.11807 0.75035 0.78884 0.0
C94 C 0.06674 0.71825 0.77824 0.0
C95 C 0.09878 0.74148 0.72726 0.0
C96 C 0.09915 0.71484 0.81579 0.0
O97 O 0.07352 0.72974 0.7921 0.0
O98 O 0.07439 0.71382 0.76696 0.0
O99 O 0.10168 0.7153 0.78954 0.0
O100 O 0.09503 0.72329 0.824 0.0
C101 C 0.11422 0.75755 0.80378 0.0
O102 O 0.10188 0.73206 0.73484 0.0
O103 O 0.09452 0.74631 0.74686 0.0
In104 In 0.26147 0.36822 0.77039 0.0
O105 O 0.26733 0.37717 0.72527 0.0
O106 O 0.24579 0.36153 0.73391 0.0
C107 C 0.28286 0.38927 0.80119 0.0
C108 C 0.23739 0.36027 0.79978 0.0
C109 C 0.26824 0.34776 0.76224 0.0
O110 O 0.27356 0.39116 0.78893 0.0
O111 O 0.28149 0.37715 0.79732 0.0
O112 O 0.26018 0.3471 0.78227 0.0
O113 O 0.27297 0.35878 0.74699 0.0
C114 C 0.25493 0.36903 0.71557 0.0
O115 O 0.24336 0.35277 0.79877 0.0
O116 O 0.24381 0.37198 0.78653 0.0
In117 In 0.89033 0.62555 0.73797 0.0
O118 O 0.88549 0.6413 0.71612 0.0
O119 O 0.86805 0.62275 0.73462 0.0
C120 C 0.91714 0.64594 0.72449 0.0
C121 C 0.89086 0.62566 0.79529 0.0
C122 C 0.88409 0.60173 0.70792 0.0
O123 O 0.91162 0.63328 0.71565 0.0
O124 O 0.90893 0.64847 0.7392 0.0
O125 O 0.88148 0.61123 0.69942 0.0
O126 O 0.88919 0.60375 0.73258 0.0
C127 C 0.87223 0.63431 0.72126 0.0
O128 O 0.90075 0.62612 0.7804 0.0
O129 O 0.88006 0.62368 0.78138 0.0
In130 In 0.36085 0.26181 0.72832 0.0
O131 O 0.36855 0.26561 0.77469 0.0
O132 O 0.3477 0.24849 0.765 0.0
C133 C 0.38333 0.27858 0.69475 0.0
C134 C 0.35469 0.23607 0.70964 0.0
C135 C 0.34422 0.27376 0.72452 0.0
O136 O 0.38411 0.28003 0.72129 0.0
O137 O 0.37151 0.26874 0.68571 0.0
O138 O 0.34075 0.26187 0.71334 0.0
O139 O 0.35623 0.27975 0.73661 0.0
C140 C 0.35683 0.25539 0.78378 0.0
O141 O 0.34733 0.24181 0.70328 0.0
O142 O 0.36547 0.24351 0.72518 0.0
In143 In 0.72766 0.10181 0.73404 0.0
O144 O 0.74833 0.1047 0.71587 0.0
O145 O 0.7476 0.12343 0.72749 0.0
C146 C 0.71816 0.07364 0.73164 0.0
C147 C 0.7272 0.10401 0.79107 0.0
C148 C 0.71303 0.10758 0.69467 0.0
O149 O 0.73116 0.08268 0.73601 0.0
O150 O 0.71015 0.07887 0.72778 0.0
O151 O 0.71242 0.11011 0.72057 0.0
O152 O 0.72115 0.10267 0.68923 0.0
C153 C 0.7549 0.11818 0.71776 0.0
O154 O 0.71645 0.09516 0.77711 0.0
O155 O 0.73752 0.11273 0.77607 0.0
In156 In 0.02655 0.43012 0.55588 0.0
O157 O 0.01437 0.43833 0.53088 0.0
O158 O 0.03136 0.45314 0.55741 0.0
C159 C 0.01178 0.4021 0.54449 0.0
C160 C 0.01888 0.42787 0.61064 0.0
C161 C 0.04988 0.43702 0.52434 0.0
O162 O 0.0072 0.41042 0.53778 0.0
O163 O 0.02389 0.408 0.55627 0.0
O164 O 0.05013 0.43592 0.55097 0.0
O165 O 0.03818 0.43503 0.51443 0.0
C166 C 0.02149 0.45095 0.54021 0.0
O167 O 0.03192 0.43309 0.60368 0.0
O168 O 0.01029 0.42419 0.59023 0.0
In169 In 0.55978 0.59407 0.56337 0.0
O170 O 0.55453 0.57321 0.54224 0.0
O171 O 0.53728 0.57504 0.55963 0.0
C172 C 0.58659 0.59994 0.5516 0.0
C173 C 0.55905 0.59394 0.6207 0.0
C174 C 0.55409 0.6113 0.53081 0.0
O175 O 0.57734 0.58821 0.56225 0.0
O176 O 0.5822 0.60855 0.54634 0.0
O177 O 0.55803 0.61433 0.55622 0.0
O178 O 0.55259 0.59956 0.52263 0.0
C179 C 0.54124 0.56734 0.54689 0.0
O180 O 0.56982 0.60274 0.60677 0.0
O181 O 0.54825 0.58612 0.6058 0.0
In182 In 0.39637 0.9581 0.56269 0.0
O183 O 0.39257 0.94957 0.60844 0.0
O184 O 0.41078 0.96983 0.59935 0.0
C185 C 0.38048 0.93731 0.52531 0.0
C186 C 0.42211 0.9661 0.5411 0.0
C187 C 0.38249 0.97284 0.56607 0.0
O188 O 0.38043 0.93451 0.5513 0.0
O189 O 0.38837 0.95026 0.51881 0.0
O190 O 0.39421 0.97765 0.55303 0.0
O191 O 0.37767 0.96052 0.57636 0.0
C192 C 0.40342 0.96071 0.61782 0.0
O193 O 0.4162 0.97365 0.53899 0.0
O194 O 0.41491 0.95434 0.55409 0.0
In195 In 0.76217 0.69414 0.60735 0.0
O196 O 0.76225 0.70205 0.5622 0.0
O197 O 0.77272 0.69019 0.56955 0.0
C198 C 0.76354 0.71334 0.64571 0.0
C199 C 0.77937 0.68619 0.63194 0.0
C200 C 0.73436 0.67516 0.59898 0.0
O201 O 0.77046 0.71736 0.62276 0.0
O202 O 0.75611 0.7 0.6486 0.0
O203 O 0.74279 0.67158 0.6099 0.0
O204 O 0.7399 0.68828 0.59335 0.0
C205 C 0.76853 0.69591 0.5517 0.0
O206 O 0.76591 0.67816 0.63105 0.0
O207 O 0.78414 0.69834 0.62054 0.0
In208 In 0.2941 0.0634 0.61658 0.0
O209 O 0.28812 0.06438 0.57002 0.0
O210 O 0.31008 0.0748 0.58222 0.0
C211 C 0.27099 0.04654 0.64846 0.0
C212 C 0.30189 0.08924 0.63726 0.0
C213 C 0.30708 0.04784 0.61881 0.0
O214 O 0.27035 0.04606 0.62173 0.0
O215 O 0.28294 0.05569 0.65842 0.0
O216 O 0.31168 0.05935 0.63253 0.0
O217 O 0.29576 0.04407 0.60494 0.0
C218 C 0.30115 0.07172 0.56255 0.0
O219 O 0.30852 0.08266 0.6431 0.0
O220 O 0.29111 0.0826 0.62132 0.0
In221 In 0.92659 0.22588 0.61579 0.0
O222 O 0.90738 0.22139 0.64221 0.0
O223 O 0.90922 0.20357 0.628 0.0
C224 C 0.939 0.25417 0.60784 0.0
C225 C 0.91847 0.21941 0.56146 0.0
C226 C 0.94432 0.22385 0.65315 0.0
O227 O 0.92677 0.24704 0.619 0.0
O228 O 0.94502 0.24709 0.60167 0.0
O229 O 0.94262 0.21857 0.62858 0.0
O230 O 0.93717 0.22993 0.65822 0.0
C231 C 0.90201 0.20796 0.64143 0.0
O232 O 0.93002 0.22039 0.57031 0.0
O233 O 0.91107 0.22096 0.58013 0.0
In234 In 0.2948 0.23086 0.1197 0.0
O235 O 0.30943 0.22435 0.14096 0.0
O236 O 0.29262 0.20884 0.11536 0.0
C237 C 0.31254 0.25722 0.13939 0.0
C238 C 0.29837 0.23473 0.063 0.0
C239 C 0.27073 0.22338 0.14982 0.0
O240 O 0.31652 0.24817 0.13544 0.0
O241 O 0.29953 0.25284 0.13387 0.0
O242 O 0.2722 0.22788 0.12473 0.0
O243 O 0.28101 0.22212 0.15885 0.0
C244 C 0.30326 0.21187 0.13096 0.0
O245 O 0.28896 0.22302 0.07351 0.0
O246 O 0.30519 0.24438 0.08083 0.0
In247 In 0.76258 0.06251 0.10957 0.0
O248 O 0.75085 0.05293 0.06803 0.0
O249 O 0.77242 0.06942 0.06533 0.0
C250 C 0.76938 0.04604 0.14198 0.0
C251 C 0.78123 0.08967 0.12311 0.0
C252 C 0.73605 0.05662 0.12382 0.0
O253 O 0.765 0.04266 0.1169 0.0
O254 O 0.77084 0.05781 0.14986 0.0
O255 O 0.74513 0.0684 0.11309 0.0
O256 O 0.74052 0.04799 0.1281 0.0
C257 C 0.76099 0.06134 0.05231 0.0
O258 O 0.76821 0.08354 0.13022 0.0
O259 O 0.78493 0.082 0.10942 0.0
In260 In 0.92849 0.70201 0.11337 0.0
O261 O 0.90812 0.68487 0.13383 0.0
O262 O 0.90823 0.70334 0.11739 0.0
C263 C 0.93738 0.68303 0.12125 0.0
C264 C 0.92865 0.703 0.05603 0.0
C265 C 0.94383 0.72465 0.14795 0.0
O266 O 0.92487 0.67934 0.11313 0.0
O267 O 0.94513 0.69616 0.12658 0.0
O268 O 0.94644 0.72527 0.12182 0.0
O269 O 0.93337 0.71299 0.15597 0.0
C270 C 0.90125 0.69134 0.12954 0.0
O271 O 0.93863 0.70325 0.07023 0.0
O272 O 0.91935 0.70379 0.07073 0.0
In273 In 0.56017 0.9641 0.0662 0.0
O274 O 0.55906 0.9565 0.11218 0.0
O275 O 0.553 0.972 0.10365 0.0
C276 C 0.55615 0.94331 0.02947 0.0
C277 C 0.54199 0.971 0.04277 0.0
C278 C 0.5886 0.98183 0.0697 0.0
O279 O 0.55294 0.94054 0.05529 0.0
O280 O 0.5613 0.95624 0.02279 0.0
O281 O 0.58028 0.98595 0.06052 0.0
O282 O 0.58262 0.96875 0.0758 0.0
C283 C 0.55529 0.96499 0.12203 0.0
O284 O 0.55544 0.97886 0.04078 0.0
O285 O 0.53768 0.95953 0.05667 0.0
In286 In 0.02472 0.59343 0.05844 0.0
O287 O 0.01085 0.57356 0.03299 0.0
O288 O 0.02865 0.57473 0.05537 0.0
C289 C 0.01108 0.60833 0.05457 0.0
C290 C 0.01842 0.58632 0.11326 0.0
C291 C 0.04718 0.60989 0.02471 0.0
O292 O 0.00594 0.59597 0.04405 0.0
O293 O 0.02318 0.61318 0.06607 0.0
O294 O 0.04817 0.61117 0.05135 0.0
O295 O 0.03522 0.60021 0.01575 0.0
C296 C 0.01794 0.56753 0.03952 0.0
O297 O 0.03131 0.59404 0.10522 0.0
O298 O 0.00927 0.58229 0.09378 0.0
In299 In 0.39186 0.43011 0.07144 0.0
O300 O 0.38245 0.42966 0.11521 0.0
O301 O 0.40493 0.44183 0.11019 0.0
C302 C 0.37551 0.43181 0.03002 0.0
C303 C 0.41782 0.4467 0.04937 0.0
C304 C 0.38304 0.4025 0.08188 0.0
O305 O 0.3771 0.43809 0.05341 0.0
O306 O 0.38193 0.42481 0.02817 0.0
O307 O 0.39576 0.41123 0.07472 0.0
O308 O 0.37477 0.40759 0.0824 0.0
C309 C 0.3945 0.43683 0.12697 0.0
O310 O 0.41193 0.43322 0.05001 0.0
O311 O 0.41048 0.4518 0.05966 0.0
In312 In 0.69451 0.76247 0.89012 0.0
O313 O 0.68026 0.7681 0.86481 0.0
O314 O 0.6978 0.78484 0.88738 0.0
C315 C 0.68159 0.73399 0.88669 0.0
C316 C 0.68829 0.76281 0.94506 0.0
C317 C 0.71664 0.76877 0.85543 0.0
O318 O 0.67581 0.74088 0.87743 0.0
O319 O 0.694 0.74154 0.89682 0.0
O320 O 0.71832 0.76992 0.88201 0.0
O321 O 0.70413 0.7649 0.84706 0.0
C322 C 0.68705 0.78117 0.87159 0.0
O323 O 0.70121 0.76847 0.93682 0.0
O324 O 0.67909 0.75741 0.92572 0.0
In325 In 0.22697 0.9298 0.90178 0.0
O326 O 0.22297 0.90928 0.88107 0.0
O327 O 0.20487 0.91084 0.89461 0.0
C328 C 0.25506 0.93843 0.90331 0.0
C329 C 0.22319 0.92823 0.95864 0.0
C330 C 0.22224 0.94545 0.86308 0.0
O331 O 0.24562 0.9254 0.90145 0.0
O332 O 0.25032 0.94697 0.90286 0.0
O333 O 0.22038 0.94644 0.88915 0.0
O334 O 0.22628 0.93669 0.85702 0.0
C335 C 0.20949 0.90332 0.88327 0.0
O336 O 0.2318 0.93967 0.94622 0.0
O337 O 0.21549 0.91811 0.94223 0.0
In338 In 0.06521 0.29647 0.90222 0.0
O339 O 0.08562 0.31232 0.88028 0.0
O340 O 0.08323 0.29211 0.89195 0.0
C341 C 0.05515 0.31454 0.90895 0.0
C342 C 0.06955 0.29528 0.95815 0.0
C343 C 0.04822 0.2772 0.86309 0.0
O344 O 0.06713 0.31843 0.89756 0.0
O345 O 0.04819 0.30154 0.91582 0.0
O346 O 0.05009 0.27327 0.88713 0.0
O347 O 0.05482 0.29053 0.85935 0.0
C348 C 0.09104 0.3043 0.88097 0.0
O349 O 0.05743 0.28747 0.94696 0.0
O350 O 0.0794 0.30259 0.9409 0.0
In351 In 0.42769 0.02882 0.94587 0.0
O352 O 0.43727 0.03362 0.90088 0.0
O353 O 0.41478 0.02237 0.9051 0.0
C354 C 0.43458 0.05253 0.97679 0.0
C355 C 0.44634 0.02015 0.95891 0.0
C356 C 0.40121 0.00941 0.96289 0.0
O357 O 0.42966 0.05093 0.95204 0.0
O358 O 0.43657 0.04259 0.98507 0.0
O359 O 0.41029 0.00596 0.95527 0.0
O360 O 0.40567 0.02267 0.96265 0.0
C361 C 0.4253 0.02696 0.88868 0.0
O362 O 0.43351 0.01367 0.96722 0.0
O363 O 0.44986 0.03118 0.9442 0.0
In364 In 0.96077 0.3947 0.94851 0.0
O365 O 0.97607 0.41533 0.97086 0.0
O366 O 0.95784 0.41409 0.95048 0.0
C367 C 0.98196 0.38921 0.96034 0.0
C368 C 0.95989 0.39409 0.89122 0.0
C369 C 0.93749 0.37729 0.98018 0.0
O370 O 0.98417 0.4005 0.94807 0.0
O371 O 0.96912 0.3809 0.96734 0.0
O372 O 0.93901 0.37411 0.95528 0.0
O373 O 0.94729 0.38932 0.98832 0.0
C374 C 0.96913 0.42152 0.96463 0.0
O375 O 0.96184 0.38544 0.90569 0.0
O376 O 0.95715 0.40223 0.9056 0.0
In377 In 0.59087 0.55696 0.95292 0.0
O378 O 0.59187 0.55197 0.9056 0.0
O379 O 0.57922 0.56106 0.91855 0.0
C380 C 0.6068 0.55078 0.98756 0.0
C381 C 0.56483 0.53825 0.97216 0.0
C382 C 0.60663 0.58544 0.95561 0.0
O383 O 0.60676 0.54892 0.96109 0.0
O384 O 0.59867 0.5553 0.99585 0.0
O385 O 0.59414 0.57865 0.96583 0.0
O386 O 0.61123 0.5778 0.94491 0.0
C387 C 0.58368 0.55673 0.89842 0.0
O388 O 0.57107 0.55141 0.97824 0.0
O389 O 0.57193 0.53445 0.95675 0.0
In390 In 0.96237 0.56524 0.45585 0.0
O391 O 0.97781 0.561 0.48053 0.0
O392 O 0.96048 0.54349 0.45896 0.0
C393 C 0.97358 0.59355 0.45722 0.0
C394 C 0.96837 0.56457 0.40086 0.0
C395 C 0.94057 0.55816 0.49198 0.0
O396 O 0.98015 0.58756 0.46714 0.0
O397 O 0.96122 0.58519 0.44763 0.0
O398 O 0.9385 0.5568 0.4655 0.0
O399 O 0.95333 0.56264 0.49957 0.0
C400 C 0.97156 0.54787 0.47411 0.0
O401 O 0.95549 0.5582 0.40954 0.0
O402 O 0.97764 0.57086 0.4198 0.0
In403 In 0.42807 0.39592 0.44508 0.0
O404 O 0.43221 0.41605 0.46768 0.0
O405 O 0.45025 0.41454 0.45348 0.0
C406 C 0.39993 0.38703 0.44472 0.0
C407 C 0.43135 0.39832 0.38818 0.0
C408 C 0.43288 0.37948 0.48147 0.0
O409 O 0.40927 0.40007 0.44709 0.0
O410 O 0.40482 0.37861 0.44401 0.0
O411 O 0.43543 0.37966 0.45537 0.0
O412 O 0.42813 0.38753 0.48869 0.0
C413 C 0.44569 0.4219 0.46574 0.0
O414 O 0.42308 0.38665 0.40024 0.0
O415 O 0.439 0.40833 0.40486 0.0
In416 In 0.59646 0.03612 0.44467 0.0
O417 O 0.57587 0.01853 0.46345 0.0
O418 O 0.5762 0.03748 0.4496 0.0
C419 C 0.60533 0.01713 0.45139 0.0
C420 C 0.59701 0.03756 0.3874 0.0
C421 C 0.61164 0.05762 0.48172 0.0
O422 O 0.59254 0.01338 0.44533 0.0
O423 O 0.61351 0.0304 0.45466 0.0
O424 O 0.61307 0.0597 0.45535 0.0
O425 O 0.60241 0.04511 0.48872 0.0
C426 C 0.56909 0.02516 0.46039 0.0
O427 O 0.60652 0.03698 0.40173 0.0
O428 O 0.58804 0.039 0.40199 0.0
In429 In 0.22614 0.29566 0.39529 0.0
O430 O 0.23718 0.29803 0.43762 0.0
O431 O 0.21535 0.29217 0.43874 0.0
C432 C 0.21905 0.27235 0.36291 0.0
C433 C 0.20845 0.30505 0.37963 0.0
C434 C 0.25321 0.31568 0.38296 0.0
O435 O 0.22303 0.27308 0.38823 0.0
O436 O 0.21825 0.283 0.35473 0.0
O437 O 0.24408 0.31879 0.39178 0.0
O438 O 0.24855 0.30249 0.37958 0.0
C439 C 0.22664 0.29582 0.45257 0.0
O440 O 0.22155 0.31146 0.37309 0.0
O441 O 0.20422 0.2938 0.39408 0.0
In442 In 0.69477 0.92936 0.39187 0.0
O443 O 0.70158 0.93026 0.43855 0.0
O444 O 0.6797 0.917 0.42691 0.0
C445 C 0.71675 0.94601 0.35742 0.0
C446 C 0.68807 0.90372 0.37173 0.0
C447 C 0.68048 0.94367 0.39097 0.0
O448 O 0.71845 0.94631 0.38396 0.0
O449 O 0.70429 0.93731 0.34895 0.0
O450 O 0.67568 0.93164 0.37916 0.0
O451 O 0.69268 0.94862 0.40211 0.0
C452 C 0.68884 0.92164 0.44644 0.0
O453 O 0.68091 0.90974 0.36584 0.0
O454 O 0.69884 0.91082 0.38747 0.0
In455 In 0.06157 0.76871 0.39026 0.0
O456 O 0.06276 0.77517 0.43737 0.0
O457 O 0.06918 0.76023 0.42533 0.0
C458 C 0.04601 0.77693 0.35913 0.0
C459 C 0.08818 0.78617 0.37188 0.0
C460 C 0.04499 0.74061 0.3818 0.0
O461 O 0.0447 0.77575 0.38574 0.0
O462 O 0.05549 0.77465 0.34903 0.0
O463 O 0.05785 0.74742 0.37355 0.0
O464 O 0.04047 0.74808 0.39355 0.0
C465 C 0.06756 0.7671 0.44504 0.0
O466 O 0.08088 0.77328 0.36408 0.0
O467 O 0.08192 0.79034 0.38869 0.0
C468 C 0.28911 0.94398 0.29829 0.0
C469 C 0.27515 0.93429 0.28927 0.0
C470 C 0.29481 0.95862 0.29424 0.0
C471 C 0.29145 0.98277 0.24534 0.0
H472 H 0.31844 0.01199 0.29605 0.0
C473 C 0.32115 0.04343 0.21954 0.0
C474 C 0.33566 0.05108 0.22721 0.0
C475 C 0.31261 0.02916 0.22766 0.0
C476 C 0.31098 0.00392 0.28162 0.0
H477 H 0.25584 0.93228 0.27077 0.0
H478 H 0.2658 0.95794 0.26384 0.0
H479 H 0.30482 0.98727 0.31217 0.0
H480 H 0.35281 0.04968 0.24811 0.0
H481 H 0.33799 0.02476 0.26183 0.0
H482 H 0.29786 -0.00061 0.21458 0.0
C483 C 0.27238 0.95419 0.27368 0.0
C484 C 0.30315 0.9898 0.29088 0.0
C485 C 0.26666 0.93953 0.27782 0.0
C486 C 0.34163 0.04407 0.24203 0.0
C487 C 0.33312 0.02985 0.25013 0.0
C488 C 0.29928 -0.0031 0.23607 0.0
C489 C 0.28666 0.96383 0.28105 0.0
C490 C 0.29352 0.97904 0.27265 0.0
C491 C 0.31846 0.02235 0.2436 0.0
C492 C 0.30934 0.00756 0.25393 0.0
H493 H 0.29589 0.94023 0.30721 0.0
H494 H 0.30588 0.96577 0.29995 0.0
H495 H 0.28425 0.97466 0.23067 0.0
H496 H 0.31627 0.04861 0.2082 0.0
H497 H 0.30133 0.02362 0.22235 0.0
C498 C 0.0505 0.32216 0.28928 0.0
C499 C 0.05561 0.33623 0.29863 0.0
C500 C 0.0358 0.31266 0.28726 0.0
C501 C 0.00012 0.30718 0.30656 0.0
H502 H 0.98932 0.29045 0.23185 0.0
C503 C 0.94545 0.29089 0.25853 0.0
C504 C 0.93837 0.27804 0.24333 0.0
C505 C 0.95952 0.29622 0.26742 0.0
C506 C 0.99212 0.29482 0.25297 0.0
H507 H 0.04949 0.35109 0.31525 0.0
H508 H 0.02386 0.33455 0.31167 0.0
H509 H 0.01433 0.30223 0.24622 0.0
H510 H 0.94047 0.26079 0.22504 0.0
H511 H 0.96519 0.27016 0.24061 0.0
H512 H 0.97794 0.30011 0.31298 0.0
C513 C 0.03115 0.33081 0.30596 0.0
C514 C 0.00644 0.30153 0.26124 0.0
C515 C 0.04583 0.34032 0.30788 0.0
C516 C 0.94572 0.27077 0.23662 0.0
C517 C 0.95984 0.27612 0.24554 0.0
C518 C 0.98579 0.30045 0.2983 0.0
C519 C 0.026 0.31706 0.2947 0.0
C520 C 0.01062 0.30808 0.28786 0.0
C521 C 0.96681 0.28881 0.26133 0.0
C522 C 0.98172 0.29453 0.27115 0.0
H523 H 0.05782 0.3187 0.28214 0.0
H524 H 0.03211 0.30205 0.27889 0.0
H525 H 0.00302 0.31197 0.32733 0.0
H526 H 0.94005 0.29674 0.26395 0.0
H527 H 0.96472 0.3062 0.279 0.0
C528 C 0.71948 0.66424 0.23643 0.0
C529 C 0.7138 0.65093 0.24994 0.0
C530 C 0.71422 0.67339 0.2428 0.0
C531 C 0.69401 0.68091 0.29608 0.0
H532 H 0.68066 0.69369 0.23254 0.0
C533 C 0.66603 0.71489 0.30563 0.0
C534 C 0.65335 0.70954 0.28984 0.0
C535 C 0.67496 0.70909 0.30231 0.0
C536 C 0.68442 0.69025 0.25045 0.0
H537 H 0.69858 0.63692 0.28129 0.0
H538 H 0.68945 0.65287 0.29239 0.0
H539 H 0.6943 0.6816 0.22407 0.0
H540 H 0.63987 0.69375 0.2588 0.0
H541 H 0.65548 0.6837 0.25298 0.0
H542 H 0.68373 0.68921 0.32242 0.0
C543 C 0.69796 0.65627 0.27699 0.0
C544 C 0.69233 0.68347 0.24563 0.0
C545 C 0.70308 0.64708 0.2704 0.0
C546 C 0.64958 0.6981 0.27124 0.0
C547 C 0.65856 0.69242 0.26771 0.0
C548 C 0.68622 0.68783 0.30092 0.0
C549 C 0.70336 0.66943 0.26305 0.0
C550 C 0.69687 0.67842 0.26838 0.0
C551 C 0.67141 0.698 0.28289 0.0
C552 C 0.68104 0.6922 0.2781 0.0
H553 H 0.7278 0.66747 0.22066 0.0
H554 H 0.71856 0.68352 0.23182 0.0
H555 H 0.69751 0.67718 0.31397 0.0
H556 H 0.66917 0.72373 0.32009 0.0
H557 H 0.68483 0.71353 0.31427 0.0
C558 C 0.6449 0.94813 0.77966 0.0
C559 C 0.65101 0.94052 0.79153 0.0
C560 C 0.65336 0.96262 0.77362 0.0
C561 C 0.68768 0.99505 0.78754 0.0
H562 H 0.68124 0.00574 0.71308 0.0
C563 C 0.7208 0.05265 0.74464 0.0
C564 C 0.7124 0.05813 0.73371 0.0
C565 C 0.71468 0.03803 0.74998 0.0
C566 C 0.68314 0.00292 0.73394 0.0
H567 H 0.67056 0.94222 0.808 0.0
H568 H 0.68543 0.96771 0.79742 0.0
H569 H 0.66753 0.9809 0.72821 0.0
H570 H 0.69129 0.05264 0.71861 0.0
H571 H 0.68065 0.0272 0.72783 0.0
H572 H 0.70312 0.01719 0.7934 0.0
C573 C 0.67408 0.96241 0.79279 0.0
C574 C 0.67527 0.98873 0.74264 0.0
C575 C 0.66558 0.94785 0.79886 0.0
C576 C 0.69801 0.04871 0.72704 0.0
C577 C 0.69193 0.03412 0.73219 0.0
C578 C 0.69557 0.0093 0.77882 0.0
C579 C 0.66811 0.96979 0.77929 0.0
C580 C 0.67723 0.98472 0.76973 0.0
C581 C 0.70012 0.02867 0.74422 0.0
C582 C 0.69314 0.0134 0.75215 0.0
H583 H 0.63366 0.94277 0.774 0.0
H584 H 0.64843 0.96815 0.76383 0.0
H585 H 0.68939 0.99223 0.80853 0.0
H586 H 0.73193 0.05972 0.75 0.0
H587 H 0.72125 0.03407 0.75901 0.0
C588 C 0.04299 0.71681 0.78406 0.0
C589 C 0.0512 0.71111 0.77326 0.0
C590 C 0.0285 0.7106 0.77714 0.0
C591 C -0.00193 0.67715 0.75005 0.0
H592 H 0.98208 0.70121 0.73071 0.0
C593 C 0.94139 0.6523 0.70721 0.0
C594 C 0.93257 0.65618 0.72193 0.0
C595 C 0.95623 0.66043 0.70988 0.0
C596 C 0.98643 0.69439 0.73612 0.0
H597 H 0.05072 0.69441 0.74708 0.0
H598 H 0.02558 0.68371 0.73483 0.0
H599 H 0.00723 0.71221 0.74475 0.0
H600 H 0.93227 0.67222 0.74896 0.0
H601 H 0.95824 0.68641 0.75375 0.0
H602 H 0.97735 0.65936 0.74156 0.0
C603 C 0.03021 0.69282 0.74892 0.0
C604 C 0.00077 0.70066 0.74431 0.0
C605 C 0.04464 0.69899 0.75588 0.0
C606 C 0.93884 0.66897 0.73744 0.0
C607 C 0.9537 0.67711 0.74014 0.0
C608 C 0.98381 0.67091 0.74177 0.0
C609 C 0.022 0.6986 0.75932 0.0
C610 C 0.00673 0.69209 0.75131 0.0
C611 C 0.96248 0.67257 0.72734 0.0
C612 C 0.97785 0.67945 0.73465 0.0
H613 H 0.04781 0.72618 0.79747 0.0
H614 H 0.02238 0.71517 0.78576 0.0
H615 H 0.00226 0.67025 0.75583 0.0
H616 H 0.93684 0.64256 0.69489 0.0
H617 H 0.96279 0.65687 0.69931 0.0
C618 C 0.32081 0.27227 0.71361 0.0
C619 C 0.33451 0.27962 0.7258 0.0
C620 C 0.31123 0.27729 0.71714 0.0
C621 C 0.30384 0.29979 0.76445 0.0
H622 H 0.28351 0.30375 0.70079 0.0
C623 C 0.26888 0.3258 0.77672 0.0
C624 C 0.27222 0.33677 0.7571 0.0
C625 C 0.27368 0.31609 0.77245 0.0
C626 C 0.28905 0.3026 0.71879 0.0
H627 H 0.34907 0.29813 0.75061 0.0
H628 H 0.33242 0.30693 0.75655 0.0
H629 H 0.29801 0.29239 0.69413 0.0
H630 H 0.28254 0.3458 0.71705 0.0
H631 H 0.29097 0.32899 0.70975 0.0
H632 H 0.29545 0.31055 0.78885 0.0
C633 C 0.329 0.29718 0.74466 0.0
C634 C 0.29726 0.29603 0.71501 0.0
C635 C 0.33857 0.29222 0.74102 0.0
C636 C 0.27989 0.33751 0.73263 0.0
C637 C 0.2846 0.32778 0.7283 0.0
C638 C 0.29561 0.3063 0.76824 0.0
C639 C 0.31518 0.28968 0.73309 0.0
C640 C 0.30506 0.29496 0.73765 0.0
C641 C 0.28178 0.31714 0.74839 0.0
C642 C 0.28846 0.30814 0.74528 0.0
H643 H 0.31741 0.2625 0.70183 0.0
H644 H 0.30063 0.27132 0.708 0.0
H645 H 0.30958 0.29888 0.78236 0.0
H646 H 0.26291 0.32496 0.79569 0.0
H647 H 0.27128 0.30791 0.78818 0.0
C648 C 0.0095 0.37804 0.54457 0.0
C649 C 0.00305 0.38648 0.54183 0.0
C650 C 0.0011 0.36321 0.54632 0.0
C651 C 0.96704 0.33646 0.57355 0.0
H652 H 0.97577 0.30975 0.53647 0.0
C653 C 0.93705 0.27598 0.59966 0.0
C654 C 0.9454 0.26936 0.60034 0.0
C655 C 0.94288 0.29 0.58979 0.0
C656 C 0.97328 0.31709 0.54719 0.0
H657 H 0.98287 0.38614 0.53755 0.0
H658 H 0.96811 0.36009 0.5412 0.0
H659 H 0.98807 0.33475 0.52179 0.0
H660 H 0.96647 0.27226 0.59228 0.0
H661 H 0.97679 0.29681 0.57612 0.0
H662 H 0.95279 0.31906 0.59993 0.0
C663 C 0.97966 0.36499 0.5418 0.0
C664 C 0.98024 0.33135 0.5386 0.0
C665 C 0.98809 0.37984 0.53957 0.0
C666 C 0.95976 0.27709 0.59181 0.0
C667 C 0.96562 0.29111 0.58225 0.0
C668 C 0.96019 0.32223 0.58239 0.0
C669 C 0.98611 0.3566 0.54578 0.0
C670 C 0.97736 0.34119 0.55205 0.0
C671 C 0.9572 0.29765 0.58066 0.0
C672 C 0.96346 0.31245 0.5697 0.0
H673 H 0.02102 0.38292 0.54632 0.0
H674 H 0.00631 0.35697 0.5496 0.0
H675 H 0.96478 0.34391 0.58448 0.0
H676 H 0.9259 0.2702 0.60593 0.0
H677 H 0.93607 0.29469 0.58867 0.0
C678 C 0.61156 0.61726 0.53697 0.0
C679 C 0.6017 0.60391 0.54835 0.0
C680 C 0.62617 0.62197 0.53757 0.0
C681 C 0.65185 0.61795 0.58059 0.0
H682 H 0.67858 0.64297 0.52392 0.0
C683 C 0.71327 0.65029 0.59865 0.0
C684 C 0.71942 0.66482 0.59159 0.0
C685 C 0.69923 0.64054 0.59051 0.0
C686 C 0.67123 0.63595 0.53988 0.0
H687 H 0.59924 0.58462 0.56775 0.0
H688 H 0.62487 0.59287 0.56874 0.0
H689 H 0.65307 0.62936 0.51297 0.0
H690 H 0.7158 0.68056 0.57049 0.0
H691 H 0.69138 0.66364 0.55651 0.0
H692 H 0.66999 0.62496 0.60783 0.0
C693 C 0.62129 0.59974 0.55963 0.0
C694 C 0.65666 0.62818 0.53362 0.0
C695 C 0.60664 0.595 0.55894 0.0
C696 C 0.71134 0.66943 0.57628 0.0
C697 C 0.6974 0.65972 0.568 0.0
C698 C 0.66645 0.62571 0.58683 0.0
C699 C 0.63122 0.61343 0.54961 0.0
C700 C 0.64677 0.61948 0.55424 0.0
C701 C 0.69121 0.64518 0.57494 0.0
C702 C 0.6762 0.63516 0.56685 0.0
H703 H 0.60805 0.62434 0.52864 0.0
H704 H 0.63355 0.63264 0.52999 0.0
H705 H 0.64449 0.61144 0.59702 0.0
H706 H 0.71931 0.64646 0.61036 0.0
H707 H 0.69468 0.62938 0.59612 0.0
C708 C 0.32763 0.04445 0.63212 0.0
C709 C 0.31503 0.0401 0.61657 0.0
C710 C 0.33582 0.0379 0.62767 0.0
C711 C 0.34365 0.01887 0.57337 0.0
H712 H 0.3564 0.00427 0.63485 0.0
C713 C 0.38035 0.99456 0.55768 0.0
C714 C 0.37541 0.98127 0.5709 0.0
C715 C 0.37395 0.00275 0.56359 0.0
C716 C 0.35293 0.00835 0.61752 0.0
H717 H 0.30089 0.0253 0.58481 0.0
H718 H 0.31521 0.01395 0.57704 0.0
H719 H 0.34311 0.01661 0.64523 0.0
H720 H 0.35996 0.96611 0.6006 0.0
H721 H 0.34885 0.98043 0.61092 0.0
H722 H 0.35326 0.01043 0.54564 0.0
C723 C 0.31881 0.02246 0.59245 0.0
C724 C 0.34544 0.01547 0.62346 0.0
C725 C 0.31057 0.02888 0.59708 0.0
C726 C 0.36396 0.9763 0.59002 0.0
C727 C 0.35769 0.98453 0.59614 0.0
C728 C 0.35127 0.0119 0.56745 0.0
C729 C 0.3316 0.02704 0.60739 0.0
C730 C 0.34051 0.02054 0.6014 0.0
C731 C 0.36265 -0.00216 0.58307 0.0
C732 C 0.35575 0.00636 0.58945 0.0
H733 H 0.33131 0.05309 0.64724 0.0
H734 H 0.34566 0.04159 0.63944 0.0
H735 H 0.34007 0.02284 0.55602 0.0
H736 H 0.3892 -0.00135 0.54293 0.0
H737 H 0.37796 0.01301 0.55329 0.0
C738 C 0.38795 0.38262 0.09234 0.0
C739 C 0.37839 0.38787 0.09162 0.0
C740 C 0.38366 0.36911 0.10366 0.0
C741 C 0.35649 0.34175 0.15079 0.0
H742 H 0.36201 0.31472 0.1066 0.0
C743 C 0.31762 0.2818 0.15069 0.0
C744 C 0.32269 0.2723 0.14593 0.0
C745 C 0.32712 0.29648 0.15165 0.0
C746 C 0.36069 0.32221 0.11962 0.0
H747 H 0.35685 0.38312 0.10187 0.0
H748 H 0.34935 0.35959 0.12123 0.0
H749 H 0.3738 0.33973 0.09228 0.0
H750 H 0.34171 0.27053 0.14056 0.0
H751 H 0.35836 0.29629 0.14212 0.0
H752 H 0.34284 0.3241 0.17737 0.0
C753 C 0.36021 0.36595 0.11352 0.0
C754 C 0.36741 0.33653 0.11135 0.0
C755 C 0.36446 0.37936 0.10211 0.0
C756 C 0.33751 0.27765 0.14414 0.0
C757 C 0.34703 0.29237 0.1449 0.0
C758 C 0.34978 0.32745 0.15906 0.0
C759 C 0.36978 0.36072 0.11464 0.0
C760 C 0.36491 0.34629 0.12622 0.0
C761 C 0.34187 0.30194 0.14773 0.0
C762 C 0.35137 0.31744 0.14293 0.0
H763 H 0.39879 0.38902 0.08452 0.0
H764 H 0.39123 0.36531 0.10423 0.0
H765 H 0.35464 0.34915 0.16298 0.0
H766 H 0.30625 0.27796 0.15225 0.0
H767 H 0.32279 0.30358 0.15359 0.0
C768 C 0.61012 0.0064 0.07035 0.0
C769 C 0.60382 0.99169 0.07582 0.0
C770 C 0.62419 0.0158 0.07884 0.0
C771 C 0.65122 0.01875 0.12979 0.0
H772 H 0.67905 0.04568 0.0769 0.0
C773 C 0.71108 0.03882 0.13747 0.0
C774 C 0.72092 0.05249 0.1274 0.0
C775 C 0.69643 0.03385 0.1361 0.0
C776 C 0.67137 0.03848 0.0922 0.0
H777 H 0.60733 0.97522 0.09381 0.0
H778 H 0.63182 0.99157 0.10841 0.0
H779 H 0.65389 0.03209 0.06342 0.0
H780 H 0.72327 0.07212 0.10997 0.0
H781 H 0.6976 0.06345 0.10778 0.0
H782 H 0.66871 0.02479 0.15827 0.0
C783 C 0.62586 0.99588 0.09796 0.0
C784 C 0.65697 0.03066 0.0844 0.0
C785 C 0.6119 0.98651 0.08933 0.0
C786 C 0.7159 0.06149 0.11773 0.0
C787 C 0.70122 0.05651 0.11633 0.0
C788 C 0.66559 0.02659 0.13763 0.0
C789 C 0.63208 0.01062 0.09315 0.0
C790 C 0.64687 0.02039 0.10279 0.0
C791 C 0.69134 0.04247 0.12465 0.0
C792 C 0.67587 0.03619 0.11857 0.0
H793 H 0.60409 0.01066 0.06005 0.0
H794 H 0.62878 0.02713 0.07484 0.0
H795 H 0.64357 0.01108 0.14457 0.0
H796 H 0.71466 0.03166 0.14508 0.0
H797 H 0.6891 0.02293 0.14243 0.0
C798 C 0.93517 0.65962 0.10819 0.0
C799 C 0.94327 0.67335 0.11989 0.0
C800 C 0.94167 0.65161 0.1015 0.0
C801 C 0.97686 0.65773 0.08108 0.0
H802 H 0.96083 0.61703 0.09284 0.0
C803 C 0.0097 0.62987 0.0675 0.0
C804 C 0.00305 0.616 0.0563 0.0
C805 C 0.00179 0.63658 0.07285 0.0
C806 C 0.96531 0.62835 0.08899 0.0
H807 H 0.96417 0.689 0.13589 0.0
H808 H 0.97546 0.67494 0.12453 0.0
H809 H 0.94793 0.62878 0.11 0.0
H810 H 0.98304 0.59843 0.0408 0.0
H811 H 0.96915 0.61028 0.04994 0.0
H812 H 0.99421 0.65739 0.06011 0.0
C813 C 0.96418 0.6705 0.11997 0.0
C814 C 0.95797 0.63507 0.09896 0.0
C815 C 0.95769 0.67849 0.12667 0.0
C816 C 0.98843 0.60915 0.04943 0.0
C817 C 0.98047 0.61587 0.05488 0.0
C818 C 0.98414 0.65103 0.07105 0.0
C819 C 0.95637 0.65723 0.1064 0.0
C820 C 0.96381 0.64987 0.09549 0.0
C821 C 0.98705 0.62956 0.0671 0.0
C822 C 0.97857 0.63632 0.07527 0.0
H823 H 0.92401 0.6554 0.10275 0.0
H824 H 0.9354 0.6414 0.09107 0.0
H825 H 0.98143 0.66909 0.07747 0.0
H826 H 0.02095 0.6354 0.07304 0.0
H827 H 0.00714 0.64706 0.08257 0.0
C828 C 0.62934 0.60816 0.94675 0.0
C829 C 0.61468 0.6011 0.95329 0.0
C830 C 0.63663 0.62275 0.94075 0.0
C831 C 0.63075 0.64992 0.91021 0.0
H832 H 0.66733 0.67686 0.94336 0.0
C833 C 0.65888 0.7106 0.88855 0.0
C834 C 0.6739 0.71833 0.88887 0.0
C835 C 0.65155 0.69607 0.89527 0.0
C836 C 0.65725 0.66944 0.9335 0.0
H837 H 0.59622 0.60371 0.95953 0.0
H838 H 0.60899 0.62929 0.94851 0.0
H839 H 0.65477 0.65214 0.95959 0.0
H840 H 0.69306 0.71689 0.89449 0.0
H841 H 0.68031 0.6914 0.90492 0.0
H842 H 0.63335 0.66699 0.88346 0.0
C843 C 0.61478 0.6235 0.9482 0.0
C844 C 0.65002 0.65534 0.94302 0.0
C845 C 0.60754 0.60894 0.95469 0.0
C846 C 0.68147 0.71116 0.89435 0.0
C847 C 0.67415 0.6966 0.90062 0.0
C848 C 0.63807 0.66398 0.90036 0.0
C849 C 0.62932 0.63044 0.94075 0.0
C850 C 0.63672 0.64549 0.93149 0.0
C851 C 0.65911 0.68898 0.90203 0.0
C852 C 0.65141 0.67391 0.91189 0.0
H853 H 0.63507 0.60233 0.94554 0.0
H854 H 0.64784 0.62789 0.93495 0.0
H855 H 0.62057 0.64242 0.90073 0.0
H856 H 0.65281 0.71592 0.88457 0.0
H857 H 0.63998 0.69058 0.89639 0.0
C858 C 0.38089 0.98423 0.96201 0.0
C859 C 0.38603 -0.00122 0.96752 0.0
C860 C 0.36617 0.97461 0.96105 0.0
C861 C 0.3306 0.97103 0.97587 0.0
H862 H 0.3193 0.94902 0.90649 0.0
C863 C 0.2793 0.95754 0.91765 0.0
C864 C 0.27016 0.94326 0.90974 0.0
C865 C 0.293 0.96188 0.92769 0.0
C866 C 0.32228 0.9549 0.92617 0.0
H867 H 0.37995 0.0145 0.97847 0.0
H868 H 0.35439 -0.00214 0.9765 0.0
H869 H 0.34424 0.96064 0.92181 0.0
H870 H 0.26834 0.92245 0.90497 0.0
H871 H 0.29268 0.93026 0.92189 0.0
H872 H 0.30878 0.96599 0.97919 0.0
C873 C 0.36161 0.99376 0.97313 0.0
C874 C 0.33653 0.9615 0.93507 0.0
C875 C 0.37628 0.00335 0.97408 0.0
C876 C 0.2752 0.93353 0.91089 0.0
C877 C 0.28905 0.93796 0.92062 0.0
C878 C 0.31642 0.96456 0.96683 0.0
C879 C 0.35638 0.97939 0.96565 0.0
C880 C 0.34093 0.97006 0.9595 0.0
C881 C 0.2979 0.95209 0.92973 0.0
C882 C 0.31227 0.95686 0.94143 0.0
H883 H 0.38819 0.98042 0.95701 0.0
H884 H 0.36245 0.96356 0.95564 0.0
H885 H 0.33359 0.9773 0.99508 0.0
H886 H 0.27572 0.96528 0.91702 0.0
H887 H 0.29975 0.97291 0.93409 0.0
C888 C 0.05798 0.33901 0.90821 0.0
C889 C 0.05003 0.32452 0.9158 0.0
C890 C 0.05335 0.34849 0.91629 0.0
C891 C 0.0302 0.35266 0.96806 0.0
H892 H 0.02713 0.37697 0.91163 0.0
C893 C 0.98971 0.37197 0.9749 0.0
C894 C 0.9931 0.38521 0.96312 0.0
C895 C -0.00054 0.36709 0.97345 0.0
C896 C 0.02822 0.37052 0.92786 0.0
H897 H 0.03103 0.30853 0.93758 0.0
H898 H 0.02294 0.32499 0.95144 0.0
H899 H 0.03897 0.36348 0.89975 0.0
H900 H 0.00967 0.40419 0.9423 0.0
H901 H 0.02679 0.39569 0.93998 0.0
H902 H 0.01907 0.35934 0.99592 0.0
C903 C 0.03282 0.3291 0.9396 0.0
C904 C 0.03496 0.36276 0.92099 0.0
C905 C 0.03737 0.31965 0.9314 0.0
C906 C 0.00675 0.39389 0.95141 0.0
C907 C 0.01651 0.389 0.94994 0.0
C908 C 0.0235 0.36045 0.97495 0.0
C909 C 0.04079 0.34362 0.9323 0.0
C910 C 0.03561 0.35342 0.94076 0.0
C911 C 0.0128 0.37537 0.96021 0.0
C912 C 0.02204 0.36911 0.95465 0.0
H913 H 0.06781 0.34305 0.89627 0.0
H914 H 0.05968 0.35965 0.91039 0.0
H915 H 0.0308 0.34574 0.98386 0.0
H916 H 0.97927 0.36507 0.98407 0.0
H917 H -0.0038 0.35648 0.98129 0.0
C918 C 0.0434 0.71685 0.38058 0.0
C919 C 0.03652 0.72493 0.38179 0.0
C920 C 0.0358 0.70223 0.38638 0.0
C921 C 0.00353 0.67629 0.42534 0.0
H922 H 0.01308 0.6489 0.39434 0.0
C923 C 0.97211 0.61531 0.44647 0.0
C924 C 0.98043 0.60909 0.4534 0.0
C925 C 0.97867 0.62964 0.43844 0.0
C926 C 0.01041 0.6565 0.40325 0.0
H927 H 0.01616 0.72404 0.3875 0.0
H928 H 0.00271 0.69838 0.39629 0.0
H929 H 0.02428 0.67302 0.37483 0.0
H930 H 0.00207 0.61296 0.45842 0.0
H931 H 0.01355 0.63804 0.44395 0.0
H932 H 0.9894 0.65956 0.45331 0.0
C933 C 0.01407 0.70337 0.39205 0.0
C934 C 0.0168 0.6703 0.39213 0.0
C935 C 0.02173 0.71802 0.38673 0.0
C936 C -0.00458 0.61754 0.4533 0.0
C937 C 0.00197 0.63181 0.44481 0.0
C938 C -0.00302 0.66243 0.43614 0.0
C939 C 0.02113 0.69541 0.39306 0.0
C940 C 0.01355 0.68041 0.40323 0.0
C941 C 0.99364 0.63786 0.4368 0.0
C942 C 0.0005 0.6525 0.42539 0.0
H943 H 0.05483 0.72196 0.37697 0.0
H944 H 0.04163 0.69649 0.38719 0.0
H945 H 0.001 0.68386 0.43486 0.0
H946 H 0.96053 0.609 0.44638 0.0
H947 H 0.97205 0.63411 0.43231 0.0
C948 C 0.27357 0.34067 0.38825 0.0
C949 C 0.26852 0.32639 0.38045 0.0
C950 C 0.28827 0.35023 0.39045 0.0
C951 C 0.324 0.35451 0.37442 0.0
H952 H 0.33503 0.375 0.44559 0.0
C953 C 0.37566 0.36782 0.43085 0.0
C954 C 0.38472 0.38206 0.43911 0.0
C955 C 0.36182 0.36337 0.42153 0.0
C956 C 0.3321 0.36954 0.42545 0.0
H957 H 0.27479 0.31112 0.36713 0.0
H958 H 0.30031 0.32764 0.3713 0.0
H959 H 0.31004 0.3633 0.43043 0.0
H960 H 0.38626 0.40266 0.44532 0.0
H961 H 0.36168 0.39466 0.42966 0.0
H962 H 0.34593 0.36005 0.37037 0.0
C963 C 0.29304 0.33159 0.37544 0.0
C964 C 0.31784 0.36289 0.41666 0.0
C965 C 0.27838 0.32206 0.37321 0.0
C966 C 0.37947 0.39162 0.4391 0.0
C967 C 0.36548 0.38708 0.4301 0.0
C968 C 0.33819 0.36101 0.38335 0.0
C969 C 0.29814 0.34567 0.38486 0.0
C970 C 0.31356 0.35491 0.39148 0.0
C971 C 0.35671 0.37301 0.42058 0.0
C972 C 0.34225 0.36818 0.40934 0.0
H973 H 0.26618 0.34431 0.39384 0.0
H974 H 0.29188 0.36107 0.39736 0.0
H975 H 0.3211 0.34872 0.35464 0.0
H976 H 0.3794 0.3602 0.43063 0.0
H977 H 0.35514 0.35239 0.41477 0.0
C978 C 0.67778 0.96385 0.40859 0.0
C979 C 0.67186 0.95063 0.39472 0.0
C980 C 0.6692 0.9696 0.41585 0.0
C981 C 0.63512 0.96812 0.40085 0.0
H982 H 0.64097 0.98478 0.47562 0.0
C983 C 0.60225 0.9931 0.44106 0.0
C984 C 0.61075 0.00706 0.4514 0.0
C985 C 0.60815 0.9843 0.43708 0.0
C986 C 0.63922 0.98015 0.45471 0.0
H987 H 0.65249 0.9333 0.37649 0.0
H988 H 0.63743 0.94342 0.38923 0.0
H989 H 0.65463 0.97349 0.46091 0.0
H990 H 0.63176 0.0225 0.46727 0.0
H991 H 0.64203 0.00716 0.46042 0.0
H992 H 0.61991 0.97506 0.39448 0.0
C993 C 0.64872 0.94932 0.39442 0.0
C994 C 0.64707 0.97376 0.44624 0.0
C995 C 0.65733 0.94355 0.38711 0.0
C996 C 0.62498 0.01179 0.45921 0.0
C997 C 0.63083 0.00298 0.45542 0.0
C998 C 0.62725 0.97451 0.40935 0.0
C999 C 0.65452 0.96224 0.40944 0.0
C1000 C 0.64534 0.96798 0.419 0.0
C1001 C 0.62258 0.98929 0.44364 0.0
C1002 C 0.62946 0.98086 0.43614 0.0
H1003 H 0.68897 0.96958 0.41458 0.0
H1004 H 0.67403 0.97975 0.42683 0.0
H1005 H 0.63362 0.9638 0.37971 0.0
H1006 H 0.59124 0.98919 0.43491 0.0
H1007 H 0.60153 0.97373 0.42825 0.0
C1008 C 0.32084 0.08412 0.52766 0.0
C1009 C 0.30606 0.07602 0.53312 0.0
C1010 C 0.32596 0.08755 0.50012 0.0
C1011 C 0.31624 0.09106 0.42745 0.0
H1012 H 0.34807 0.08557 0.40772 0.0
C1013 C 0.33365 0.09184 0.31236 0.0
C1014 C 0.34821 0.09731 0.30611 0.0
C1015 C 0.32896 0.09047 0.34019 0.0
C1016 C 0.33936 0.08742 0.41294 0.0
H1017 H 0.28503 0.06549 0.51387 0.0
H1018 H 0.29405 0.07157 0.46529 0.0
H1019 H 0.33855 0.08049 0.45554 0.0
H1020 H 0.36937 0.10601 0.32426 0.0
H1021 H 0.36122 0.10388 0.37325 0.0
H1022 H 0.31708 0.09807 0.3849 0.0
C1023 C 0.30163 0.07526 0.48257 0.0
C1024 C 0.33385 0.08443 0.44035 0.0
C1025 C 0.29647 0.07174 0.51032 0.0
C1026 C 0.35808 0.10174 0.32842 0.0
C1027 C 0.35338 0.10041 0.35646 0.0
C1028 C 0.32182 0.09415 0.40004 0.0
C1029 C 0.31647 0.08301 0.4772 0.0
C1030 C 0.32219 0.08616 0.44791 0.0
C1031 C 0.33871 0.09461 0.36268 0.0
C1032 C 0.3334 0.09227 0.39236 0.0
H1033 H 0.32855 0.08768 0.54472 0.0
H1034 H 0.33742 0.09375 0.49677 0.0
H1035 H 0.3074 0.09269 0.43272 0.0
H1036 H 0.32572 0.08827 0.2957 0.0
H1037 H 0.31759 0.08573 0.34404 0.0
C1038 C 0.90033 0.21448 0.52429 0.0
C1039 C 0.91454 0.21864 0.53138 0.0
C1040 C 0.89679 0.21649 0.49702 0.0
C1041 C 0.9128 0.23997 0.43589 0.0
H1042 H 0.87718 0.21328 0.39907 0.0
C1043 C 0.89271 0.25559 0.33614 0.0
C1044 C 0.88836 0.24563 0.31404 0.0
C1045 C 0.89486 0.25183 0.36331 0.0
C1046 C 0.88718 0.22085 0.40905 0.0
H1047 H 0.93609 0.22758 0.51515 0.0
H1048 H 0.92989 0.23105 0.46709 0.0
H1049 H 0.88379 0.2066 0.44339 0.0
H1050 H 0.88206 0.22376 0.30329 0.0
H1051 H 0.8856 0.21719 0.35042 0.0
H1052 H 0.91625 0.25415 0.40135 0.0
C1053 C 0.92151 0.22631 0.48283 0.0
C1054 C 0.89094 0.21704 0.4345 0.0
C1055 C 0.92504 0.22416 0.5102 0.0
C1056 C 0.8854 0.23166 0.31993 0.0
C1057 C 0.8874 0.22788 0.34699 0.0
C1058 C 0.909 0.2438 0.41048 0.0
C1059 C 0.9074 0.22283 0.47615 0.0
C1060 C 0.9038 0.22654 0.44824 0.0
C1061 C 0.89253 0.23801 0.36886 0.0
C1062 C 0.89615 0.23428 0.39673 0.0
H1063 H 0.89201 0.21024 0.54023 0.0
H1064 H 0.88586 0.21377 0.49271 0.0
H1065 H 0.92268 0.24762 0.44612 0.0
H1066 H 0.89517 0.26646 0.33213 0.0
H1067 H 0.89864 0.25983 0.37982 0.0
C1068 C 0.77674 0.68759 0.51039 0.0
C1069 C 0.76771 0.69228 0.52144 0.0
C1070 C 0.77372 0.68061 0.48431 0.0
C1071 C 0.74313 0.65658 0.44238 0.0
H1072 H 0.77011 0.66434 0.38173 0.0
C1073 C 0.72621 0.62631 0.33585 0.0
C1074 C 0.73657 0.62535 0.3196 0.0
C1075 C 0.72996 0.63372 0.36151 0.0
C1076 C 0.76249 0.66178 0.39867 0.0
H1077 H 0.74884 0.69395 0.5133 0.0
H1078 H 0.74344 0.68154 0.46787 0.0
H1079 H 0.77738 0.68012 0.4226 0.0
H1080 H 0.75864 0.63032 0.31842 0.0
H1081 H 0.76498 0.64236 0.36399 0.0
H1082 H 0.72838 0.63796 0.41933 0.0
C1083 C 0.7529 0.68337 0.47934 0.0
C1084 C 0.76665 0.67096 0.42195 0.0
C1085 C 0.75609 0.69062 0.50515 0.0
C1086 C 0.75044 0.6309 0.33056 0.0
C1087 C 0.75412 0.63804 0.35648 0.0
C1088 C 0.73904 0.64722 0.41938 0.0
C1089 C 0.76145 0.67794 0.46909 0.0
C1090 C 0.75698 0.66851 0.44392 0.0
C1091 C 0.74411 0.64013 0.37175 0.0
C1092 C 0.74863 0.6497 0.39707 0.0
H1093 H 0.7857 0.68862 0.52262 0.0
H1094 H 0.78048 0.67652 0.47689 0.0
H1095 H 0.73554 0.6543 0.45931 0.0
H1096 H 0.71549 0.62235 0.3277 0.0
H1097 H 0.72192 0.63514 0.37234 0.0
C1098 C 0.10584 0.36164 0.17942 0.0
C1099 C 0.09457 0.36158 0.19439 0.0
C1100 C 0.10325 0.3544 0.15366 0.0
C1101 C 0.07409 0.32408 0.11574 0.0
H1102 H 0.09973 0.33856 0.05162 0.0
C1103 C 0.06035 0.29683 0.00569 0.0
C1104 C 0.0717 0.29838 0.98869 0.0
C1105 C 0.06309 0.30341 0.03222 0.0
C1106 C 0.09257 0.33421 0.0695 0.0
H1107 H 0.0719 0.35457 0.19328 0.0
H1108 H 0.06743 0.3421 0.1483 0.0
H1109 H 0.10478 0.3534 0.09345 0.0
H1110 H 0.09463 0.3069 0.98704 0.0
H1111 H 0.09934 0.31782 0.03365 0.0
H1112 H 0.06193 0.30484 0.09192 0.0
C1113 C 0.07822 0.34753 0.15667 0.0
C1114 C 0.09544 0.34279 0.09344 0.0
C1115 C 0.08082 0.35482 0.18229 0.0
C1116 C 0.08567 0.30558 0.99965 0.0
C1117 C 0.08839 0.31201 0.02622 0.0
C1118 C 0.07126 0.31545 0.09186 0.0
C1119 C 0.08931 0.34689 0.14245 0.0
C1120 C 0.08621 0.33786 0.1168 0.0
C1121 C 0.07722 0.31155 0.04233 0.0
C1122 C 0.08045 0.32041 0.06838 0.0
H1123 H 0.11653 0.36667 0.18826 0.0
H1124 H 0.11202 0.35409 0.14327 0.0
H1125 H 0.0669 0.31985 0.1336 0.0
H1126 H 0.0495 0.29148 0.99765 0.0
H1127 H 0.05421 0.30284 0.04395 0.0
C1128 C 0.65642 0.75045 0.19649 0.0
C1129 C 0.64173 0.74163 0.2021 0.0
C1130 C 0.66147 0.75355 0.16886 0.0
C1131 C 0.65098 0.75454 0.09545 0.0
H1132 H 0.68482 0.75213 0.07767 0.0
C1133 C 0.66907 0.75502 0.98116 0.0
C1134 C 0.68378 0.76194 0.97486 0.0
C1135 C 0.66432 0.75348 0.00896 0.0
C1136 C 0.67552 0.7531 0.08233 0.0
H1137 H 0.62076 0.72943 0.18299 0.0
H1138 H 0.62965 0.73491 0.13425 0.0
H1139 H 0.67535 0.7473 0.12557 0.0
H1140 H 0.70506 0.77287 0.99292 0.0
H1141 H 0.69674 0.77036 0.0419 0.0
H1142 H 0.65117 0.7604 0.05226 0.0
C1143 C 0.63722 0.73943 0.15147 0.0
C1144 C 0.67004 0.75026 0.10979 0.0
C1145 C 0.63213 0.73626 0.17932 0.0
C1146 C 0.69367 0.76747 0.99712 0.0
C1147 C 0.68889 0.76595 0.02514 0.0
C1148 C 0.65651 0.75746 0.06801 0.0
C1149 C 0.65199 0.74796 0.14599 0.0
C1150 C 0.65768 0.75089 0.11665 0.0
C1151 C 0.67412 0.75888 0.03138 0.0
C1152 C 0.66879 0.75667 0.06102 0.0
H1153 H 0.66412 0.75486 0.21352 0.0
H1154 H 0.67286 0.76036 0.16541 0.0
H1155 H 0.64158 0.75533 0.10015 0.0
H1156 H 0.66112 0.75056 0.96456 0.0
H1157 H 0.6529 0.74774 0.01286 0.0
C1158 C 0.2688 0.90735 0.17807 0.0
C1159 C 0.25998 0.8941 0.19116 0.0
C1160 C 0.26467 0.91082 0.15267 0.0
C1161 C 0.23978 0.89598 0.092 0.0
H1162 H 0.2439 0.93376 0.08977 0.0
C1163 C 0.21562 0.91224 1.00092 0.0
C1164 C 0.22459 0.92575 0.98893 0.0
C1165 C 0.21901 0.90858 0.02697 0.0
C1166 C 0.24277 0.92322 0.08991 0.0
H1167 H 0.24033 0.87377 0.18696 0.0
H1168 H 0.23318 0.87978 0.14248 0.0
H1169 H 0.25263 0.9266 0.13053 0.0
H1170 H 0.24362 0.94633 0.99574 0.0
H1171 H 0.24956 0.93997 0.04105 0.0
H1172 H 0.23005 0.89263 0.05129 0.0
C1173 C 0.24329 0.8875 0.15186 0.0
C1174 C 0.24782 0.91912 0.11326 0.0
C1175 C 0.2474 0.88404 0.17735 0.0
C1176 C 0.23644 0.93586 1.00448 0.0
C1177 C 0.23986 0.93219 0.03049 0.0
C1178 C 0.23477 0.90009 0.0686 0.0
C1179 C 0.25164 0.90112 0.13971 0.0
C1180 C 0.24644 0.90547 0.11456 0.0
C1181 C 0.23146 0.91833 0.0416 0.0
C1182 C 0.23621 0.91378 0.0672 0.0
H1183 H 0.27856 0.91534 0.18815 0.0
H1184 H 0.2715 0.92128 0.14356 0.0
H1185 H 0.23866 0.88544 0.0922 0.0
H1186 H 0.2064 0.90421 0.98949 0.0
H1187 H 0.2121 0.89794 0.03521 0.0
C1188 C 0.63134 0.89144 0.67998 0.0
C1189 C 0.64089 0.89816 0.70241 0.0
C1190 C 0.63647 0.89304 0.65221 0.0
C1191 C 0.67004 0.90428 0.61123 0.0
H1192 H 0.64912 0.90959 0.55049 0.0
C1193 C 0.69369 0.92443 0.49888 0.0
C1194 C 0.68433 0.91769 0.47617 0.0
C1195 C 0.68861 0.92137 0.52675 0.0
C1196 C 0.65504 0.90799 0.56718 0.0
H1197 H 0.66329 0.9119 0.71327 0.0
H1198 H 0.67207 0.91489 0.66534 0.0
H1199 H 0.63939 0.90514 0.59817 0.0
H1200 H 0.66246 0.90203 0.46494 0.0
H1201 H 0.65375 0.8967 0.51309 0.0
H1202 H 0.6858 0.9074 0.58017 0.0
C1203 C 0.66069 0.90812 0.66896 0.0
C1204 C 0.64942 0.90538 0.59453 0.0
C1205 C 0.65561 0.90647 0.69653 0.0
C1206 C 0.66996 0.90752 0.48191 0.0
C1207 C 0.66491 0.90451 0.50955 0.0
C1208 C 0.6757 0.90699 0.58389 0.0
C1209 C 0.65123 0.90142 0.64638 0.0
C1210 C 0.65687 0.90353 0.61696 0.0
C1211 C 0.67408 0.91156 0.53231 0.0
C1212 C 0.66826 0.90887 0.56154 0.0
H1213 H 0.61996 0.88495 0.68387 0.0
H1214 H 0.62887 0.88762 0.63535 0.0
H1215 H 0.67598 0.90269 0.62788 0.0
H1216 H 0.7048 0.93233 0.49511 0.0
H1217 H 0.69593 0.927 0.54389 0.0
C1218 C 0.07517 0.75519 0.48042 0.0
C1219 C 0.07126 0.76554 0.47446 0.0
C1220 C 0.07911 0.7536 0.5076 0.0
C1221 C 0.07635 0.76122 0.58253 0.0
H1222 H 0.10699 0.75259 0.59164 0.0
C1223 C 0.09683 0.75764 0.69237 0.0
C1224 C 0.09878 0.74592 0.69768 0.0
C1225 C 0.09474 0.76095 0.66497 0.0
C1226 C 0.09834 0.75487 0.58944 0.0
H1227 H 0.06834 0.78229 0.49255 0.0
H1228 H 0.07542 0.77963 0.54042 0.0
H1229 H 0.10083 0.75701 0.54461 0.0
H1230 H 0.10066 0.72881 0.6782 0.0
H1231 H 0.09697 0.73459 0.62994 0.0
H1232 H 0.07385 0.75905 0.62735 0.0
C1233 C 0.07528 0.77264 0.52391 0.0
C1234 C 0.09479 0.75741 0.56248 0.0
C1235 C 0.07127 0.77421 0.49651 0.0
C1236 C 0.09925 0.73794 0.67474 0.0
C1237 C 0.09713 0.74126 0.64714 0.0
C1238 C 0.07993 0.75873 0.60949 0.0
C1239 C 0.07935 0.76236 0.52971 0.0
C1240 C 0.08366 0.7605 0.55863 0.0
C1241 C 0.0945 0.75261 0.64205 0.0
C1242 C 0.09093 0.75546 0.61328 0.0
H1243 H 0.07518 0.74822 0.464 0.0
H1244 H 0.08183 0.74535 0.51131 0.0
H1245 H 0.06759 0.76333 0.58038 0.0
H1246 H 0.09654 0.7641 0.70955 0.0
H1247 H 0.09309 0.76995 0.66178 0.0
C1248 C 0.21692 0.3 0.49736 0.0
C1249 C 0.22835 0.30036 0.48245 0.0
C1250 C 0.21933 0.30716 0.52317 0.0
C1251 C 0.24679 0.32575 0.57958 0.0
H1252 H 0.22654 0.3466 0.59052 0.0
C1253 C 0.26326 0.36789 0.667 0.0
C1254 C 0.25203 0.36552 0.68528 0.0
C1255 C 0.26031 0.36098 0.64083 0.0
C1256 C 0.23225 0.34082 0.58774 0.0
H1257 H 0.2511 0.30781 0.48369 0.0
H1258 H 0.25535 0.32041 0.52815 0.0
H1259 H 0.22101 0.33097 0.54964 0.0
H1260 H 0.22897 0.3551 0.68958 0.0
H1261 H 0.22384 0.34337 0.64361 0.0
H1262 H 0.25821 0.33585 0.61745 0.0
C1263 C 0.24448 0.3145 0.52032 0.0
C1264 C 0.229 0.33174 0.56447 0.0
C1265 C 0.24205 0.30726 0.4947 0.0
C1266 C 0.23784 0.35715 0.67587 0.0
C1267 C 0.2349 0.35041 0.64958 0.0
C1268 C 0.25015 0.33495 0.60263 0.0
C1269 C 0.23324 0.31491 0.53452 0.0
C1270 C 0.23623 0.32407 0.56005 0.0
C1271 C 0.24609 0.35177 0.63232 0.0
C1272 C 0.24293 0.3426 0.60696 0.0
H1273 H 0.20624 0.29477 0.48847 0.0
H1274 H 0.21035 0.30694 0.53382 0.0
H1275 H 0.25241 0.31986 0.57724 0.0
H1276 H 0.2743 0.37419 0.67374 0.0
H1277 H 0.26915 0.36238 0.62775 0.0
C1278 C 0.93582 0.69541 0.01202 0.0
C1279 C 0.92623 0.69854 0.02603 0.0
C1280 C 0.93206 0.68806 0.98632 0.0
C1281 C 0.89983 0.66253 0.94686 0.0
H1282 H 0.92679 0.66932 0.88664 0.0
C1283 C 0.88337 0.63337 0.83881 0.0
C1284 C 0.89319 0.63046 0.82509 0.0
C1285 C 0.88701 0.64096 0.86427 0.0
C1286 C 0.91916 0.66713 0.90345 0.0
H1287 H 0.90555 0.69722 0.0231 0.0
H1288 H 0.8991 0.68463 0.97798 0.0
H1289 H 0.93432 0.68535 0.92713 0.0
H1290 H 0.91411 0.63236 0.82835 0.0
H1291 H 0.92031 0.64526 0.87304 0.0
H1292 H 0.88468 0.64428 0.92322 0.0
C1293 C 0.90942 0.6876 0.98716 0.0
C1294 C 0.92348 0.67638 0.92662 0.0
C1295 C 0.91319 0.69499 0.01285 0.0
C1296 C 0.90632 0.63445 0.83834 0.0
C1297 C 0.90994 0.64201 0.8638 0.0
C1298 C 0.89551 0.65327 0.92369 0.0
C1299 C 0.91861 0.68364 0.97402 0.0
C1300 C 0.91388 0.6742 0.94867 0.0
C1301 C 0.90053 0.64579 0.87661 0.0
C1302 C 0.90514 0.65541 0.9017 0.0
H1303 H 0.94592 0.69792 0.02168 0.0
H1304 H 0.93939 0.68515 0.9769 0.0
H1305 H 0.89222 0.66035 0.9637 0.0
H1306 H 0.87321 0.63052 0.82907 0.0
H1307 H 0.87951 0.64369 0.87344 0.0
C1308 C 0.2972 0.22511 0.01416 0.0
C1309 C 0.30264 0.23672 0.03294 0.0
C1310 C 0.303 0.22682 0.98701 0.0
C1311 C 0.33643 0.24966 0.94813 0.0
H1312 H 0.31322 0.23311 0.88135 0.0
C1313 C 0.35952 0.26312 0.83441 0.0
C1314 C 0.3531 0.25236 0.81394 0.0
C1315 C 0.35394 0.26078 0.86187 0.0
C1316 C 0.3199 0.23762 0.89983 0.0
H1317 H 0.3179 0.25935 0.03755 0.0
H1318 H 0.32785 0.26232 0.99035 0.0
H1319 H 0.30165 0.22985 0.92705 0.0
H1320 H 0.33655 0.23042 0.80648 0.0
H1321 H 0.32722 0.22615 0.85435 0.0
H1322 H 0.35469 0.25735 0.92104 0.0
C1323 C 0.31932 0.25186 0.99666 0.0
C1324 C 0.31323 0.23577 0.92601 0.0
C1325 C 0.31352 0.25017 0.02364 0.0
C1326 C 0.34163 0.23896 0.8218 0.0
C1327 C 0.33618 0.23657 0.84919 0.0
C1328 C 0.34311 0.25143 0.92197 0.0
C1329 C 0.31437 0.24015 0.97826 0.0
C1330 C 0.32141 0.24185 0.95043 0.0
C1331 C 0.34194 0.24758 0.86935 0.0
C1332 C 0.33494 0.24546 0.89744 0.0
H1333 H 0.28888 0.21461 0.0208 0.0
H1334 H 0.29898 0.21759 0.97329 0.0
H1335 H 0.34304 0.25428 0.96665 0.0
H1336 H 0.3683 0.27358 0.82883 0.0
H1337 H 0.35862 0.26953 0.87678 0.0
C1338 C 0.71849 0.08978 0.83567 0.0
C1339 C 0.72903 0.10189 0.82135 0.0
C1340 C 0.72158 0.08567 0.86155 0.0
C1341 C 0.7482 0.09752 0.92008 0.0
H1342 H 0.73523 0.05703 0.92597 0.0
C1343 C 0.76912 0.07578 0.00785 0.0
C1344 C 0.75863 0.06379 0.02251 0.0
C1345 C 0.76578 0.08001 0.98237 0.0
C1346 C 0.73886 0.06835 0.92477 0.0
H1347 H 0.75073 0.11974 0.82396 0.0
H1348 H 0.75611 0.11262 0.86898 0.0
H1349 H 0.72804 0.06594 0.88557 0.0
H1350 H 0.7367 0.0463 0.02103 0.0
H1351 H 0.73092 0.05359 0.97657 0.0
H1352 H 0.75908 0.09992 0.95922 0.0
C1353 C 0.74544 0.10627 0.86035 0.0
C1354 C 0.73466 0.07346 0.90167 0.0
C1355 C 0.74235 0.11038 0.83449 0.0
C1356 C 0.74504 0.05556 0.0102 0.0
C1357 C 0.74172 0.05976 0.98469 0.0
C1358 C 0.75242 0.0924 0.94315 0.0
C1359 C 0.73527 0.09358 0.8737 0.0
C1360 C 0.73927 0.08812 0.89901 0.0
C1361 C 0.75191 0.0723 0.97093 0.0
C1362 C 0.74781 0.07775 0.94578 0.0
H1363 H 0.70811 0.083 0.82613 0.0
H1364 H 0.71337 0.07602 0.87157 0.0
H1365 H 0.75182 0.10884 0.91891 0.0
H1366 H 0.77968 0.08236 0.01679 0.0
H1367 H 0.77397 0.08956 0.97201 0.0
C1368 C -0.00121 0.4198 0.64475 0.0
C1369 C 0.01355 0.42567 0.64007 0.0
C1370 C 0.99321 0.41704 0.67199 0.0
C1371 C 0.00072 0.41062 0.74472 0.0
H1372 H 0.96869 0.41619 0.76188 0.0
C1373 C 0.96741 0.38764 0.84619 0.0
C1374 C 0.96335 0.39638 0.86076 0.0
C1375 C 0.97318 0.39129 0.81901 0.0
C1376 C 0.97769 0.41466 0.75761 0.0
H1377 H 0.03408 0.43337 0.66048 0.0
H1378 H 0.02429 0.42867 0.7086 0.0
H1379 H 0.98054 0.4237 0.71636 0.0
H1380 H 0.96167 0.41551 0.85783 0.0
H1381 H 0.97183 0.42194 0.81062 0.0
H1382 H -0.00193 0.40188 0.78629 0.0
C1383 C 0.01704 0.42608 0.69094 0.0
C1384 C 0.98442 0.41885 0.73133 0.0
C1385 C 0.02266 0.42885 0.66344 0.0
C1386 C 0.96458 0.40848 0.84708 0.0
C1387 C 0.97043 0.41218 0.81996 0.0
C1388 C 0.99402 0.40648 0.7711 0.0
C1389 C 0.00221 0.42011 0.69549 0.0
C1390 C -0.0041 0.41671 0.72438 0.0
C1391 C 0.97511 0.4038 0.80581 0.0
C1392 C 0.98232 0.40832 0.77779 0.0
H1393 H 0.99142 0.41714 0.62725 0.0
H1394 H 0.98173 0.41218 0.67454 0.0
H1395 H 0.00945 0.40871 0.74005 0.0
H1396 H 0.96659 0.37824 0.85617 0.0
H1397 H 0.97635 0.3844 0.80852 0.0
C1398 C 0.57002 0.56275 0.86428 0.0
C1399 C 0.57993 0.55813 0.86895 0.0
C1400 C 0.56711 0.56552 0.83711 0.0
C1401 C 0.58248 0.57467 0.76552 0.0
H1402 H 0.54452 0.56776 0.74708 0.0
C1403 C 0.57256 0.59951 0.6663 0.0
C1404 C 0.55997 0.59098 0.65091 0.0
C1405 C 0.57449 0.59523 0.69305 0.0
C1406 C 0.55516 0.56967 0.75165 0.0
H1407 H 0.59431 0.55241 0.84855 0.0
H1408 H 0.58902 0.55702 0.8005 0.0
H1409 H 0.54852 0.5592 0.79159 0.0
H1410 H 0.53932 0.57152 0.65194 0.0
H1411 H 0.54274 0.56395 0.69821 0.0
H1412 H 0.58901 0.58477 0.72514 0.0
C1413 C 0.58365 0.5587 0.81814 0.0
C1414 C 0.55751 0.56488 0.77741 0.0
C1415 C 0.58661 0.55593 0.84559 0.0
C1416 C 0.5491 0.57841 0.66336 0.0
C1417 C 0.55108 0.57406 0.68997 0.0
C1418 C 0.58011 0.57937 0.73959 0.0
C1419 C 0.57395 0.56366 0.81363 0.0
C1420 C 0.57124 0.56751 0.78493 0.0
C1421 C 0.56393 0.58225 0.70495 0.0
C1422 C 0.56644 0.57709 0.73244 0.0
H1423 H 0.56468 0.5646 0.88176 0.0
H1424 H 0.5598 0.56957 0.83468 0.0
H1425 H 0.59322 0.577 0.77062 0.0
H1426 H 0.58114 0.60925 0.65726 0.0
H1427 H 0.58438 0.60201 0.70419 0.0
C1428 C 0.43547 0.02531 0.84208 0.0
C1429 C 0.42355 0.0224 0.85879 0.0
C1430 C 0.43361 0.01868 0.81578 0.0
C1431 C 0.40801 0.98592 0.77851 0.0
H1432 H 0.42943 0.00546 0.71151 0.0
C1433 C 0.39508 0.95967 0.66751 0.0
C1434 C 0.40634 0.96425 0.64806 0.0
C1435 C 0.39755 0.96595 0.69432 0.0
C1436 C 0.42354 -0.00026 0.73013 0.0
H1437 H 0.40034 0.01085 0.86035 0.0
H1438 H 0.39714 -0.00062 0.81458 0.0
H1439 H 0.43306 0.01891 0.75493 0.0
H1440 H 0.42914 0.97808 0.64201 0.0
H1441 H 0.43359 0.98847 0.68904 0.0
H1442 H 0.3986 0.96672 0.75396 0.0
C1443 C 0.40791 0.00662 0.82192 0.0
C1444 C 0.42558 0.00751 0.75498 0.0
C1445 C 0.40976 0.01331 0.84803 0.0
C1446 C 0.42025 0.9744 0.65659 0.0
C1447 C 0.42276 0.9805 0.68343 0.0
C1448 C 0.40606 0.97812 0.75373 0.0
C1449 C 0.4198 0.00893 0.80583 0.0
C1450 C 0.41777 0.00071 0.7794 0.0
C1451 C 0.41136 0.97681 0.70227 0.0
C1452 C 0.41376 0.98492 0.72914 0.0
H1453 H 0.44624 0.0322 0.84986 0.0
H1454 H 0.44299 0.02067 0.80384 0.0
H1455 H 0.40199 0.98033 0.79714 0.0
H1456 H 0.38422 0.952 0.66132 0.0
H1457 H 0.38847 0.96285 0.70814 0.0
C1458 C 0.56618 0.96771 0.16987 0.0
C1459 C 0.55639 0.9689 0.15218 0.0
C1460 C 0.56996 0.97473 0.19598 0.0
C1461 C 0.5703 0.00554 0.23197 0.0
H1462 H 0.58246 0.9923 0.29656 0.0
C1463 C 0.58269 0.0323 0.34282 0.0
C1464 C 0.59452 0.03326 0.35732 0.0
C1465 C 0.57843 0.0252 0.31683 0.0
C1466 C 0.57922 -0.00381 0.27857 0.0
H1467 H 0.54202 0.97737 0.14882 0.0
H1468 H 0.54798 0.98895 0.19483 0.0
H1469 H 0.57288 0.97701 0.25514 0.0
H1470 H 0.61162 0.02825 0.35512 0.0
H1471 H 0.60417 0.01591 0.30988 0.0
H1472 H 0.57641 0.02461 0.25582 0.0
C1473 C 0.55323 0.98313 0.18823 0.0
C1474 C 0.57372 0.98743 0.25478 0.0
C1475 C 0.54964 0.97631 0.162 0.0
C1476 C 0.60248 0.02773 0.34449 0.0
C1477 C 0.59812 0.02051 0.31872 0.0
C1478 C 0.57564 0.01422 0.2559 0.0
C1479 C 0.56387 0.98294 0.2051 0.0
C1480 C 0.56922 0.99198 0.23106 0.0
C1481 C 0.58581 0.01881 0.30501 0.0
C1482 C 0.58025 0.00969 0.27939 0.0
H1483 H 0.5717 0.96223 0.16268 0.0
H1484 H 0.57824 0.97436 0.2082 0.0
H1485 H 0.56728 0.00962 0.21396 0.0
H1486 H 0.57629 0.03637 0.35221 0.0
H1487 H 0.5689 0.02406 0.30677 0.0
C1488 C 0.96281 0.55848 0.34917 0.0
C1489 C 0.97277 0.56517 0.37102 0.0
C1490 C 0.96748 0.55961 0.32112 0.0
C1491 C 0.00012 0.56913 0.27828 0.0
H1492 H 0.97958 0.57596 0.21891 0.0
C1493 C 0.02347 0.58863 0.16564 0.0
C1494 C 0.01385 0.58259 0.14304 0.0
C1495 C 0.01849 0.58569 0.1936 0.0
C1496 C 0.98537 0.57391 0.23519 0.0
H1497 H -0.00457 0.57826 0.38052 0.0
H1498 H 0.00342 0.58038 0.33217 0.0
H1499 H 0.97033 0.5718 0.26697 0.0
H1500 H 0.99157 0.56833 0.13207 0.0
H1501 H 0.98304 0.56316 0.18035 0.0
H1502 H 0.01527 0.57146 0.24647 0.0
C1503 C 0.99206 0.57403 0.33645 0.0
C1504 C 0.98003 0.57147 0.26276 0.0
C1505 C 0.98743 0.5729 0.36427 0.0
C1506 C -0.00072 0.57328 0.14896 0.0
C1507 C 0.99434 0.57037 0.1767 0.0
C1508 C 0.00549 0.57162 0.25071 0.0
C1509 C 0.98219 0.56744 0.31444 0.0
C1510 C 0.98737 0.56914 0.28473 0.0
C1511 C 0.00381 0.57669 0.19939 0.0
C1512 C -0.0018 0.57408 0.22883 0.0
H1513 H 0.95146 0.55245 0.35372 0.0
H1514 H 0.95958 0.5543 0.30469 0.0
H1515 H 0.00596 0.56715 0.29456 0.0
H1516 H 0.03474 0.59587 0.16174 0.0
H1517 H 0.02607 0.59079 0.21064 0.0
C1518 C 0.41029 0.44465 0.16944 0.0
C1519 C 0.39668 0.43596 0.15755 0.0
C1520 C 0.41374 0.44127 0.1957 0.0
C1521 C 0.40483 0.40966 0.23739 0.0
H1522 H 0.42704 0.43638 0.29651 0.0
C1523 C 0.41707 0.39158 0.34366 0.0
C1524 C 0.4296 0.40108 0.35828 0.0
C1525 C 0.4135 0.3957 0.31834 0.0
C1526 C 0.42107 0.4288 0.27998 0.0
H1527 H 0.3757 0.41749 0.16472 0.0
H1528 H 0.38176 0.41158 0.21057 0.0
H1529 H 0.41907 0.44461 0.25616 0.0
H1530 H 0.44879 0.4219 0.35674 0.0
H1531 H 0.44296 0.42886 0.31189 0.0
H1532 H 0.40712 0.39393 0.26056 0.0
C1533 C 0.38977 0.42096 0.19948 0.0
C1534 C 0.41639 0.43352 0.257 0.0
C1535 C 0.38625 0.42446 0.1734 0.0
C1536 C 0.43903 0.41436 0.34598 0.0
C1537 C 0.43557 0.41842 0.32046 0.0
C1538 C 0.40966 0.40497 0.26018 0.0
C1539 C 0.40371 0.42902 0.21039 0.0
C1540 C 0.40817 0.42398 0.23552 0.0
C1541 C 0.42249 0.40937 0.30685 0.0
C1542 C 0.41782 0.41446 0.28186 0.0
H1543 H 0.41857 0.45354 0.15763 0.0
H1544 H 0.42457 0.44768 0.20356 0.0
H1545 H 0.39876 0.40212 0.22085 0.0
H1546 H 0.40949 0.38133 0.35273 0.0
H1547 H 0.4033 0.38845 0.3087 0.0
C1548 C 0.32058 0.20606 0.15345 0.0
C1549 C 0.30828 0.20173 0.13694 0.0
C1550 C 0.32548 0.19659 0.15914 0.0
C1551 C 0.32355 0.16342 0.13408 0.0
H1552 H 0.3369 0.1626 0.20968 0.0
C1553 C 0.33578 0.11997 0.17334 0.0
C1554 C 0.34792 0.12453 0.19048 0.0
C1555 C 0.33133 0.12956 0.16528 0.0
C1556 C 0.33337 0.16283 0.18838 0.0
H1557 H 0.29146 0.18416 0.11335 0.0
H1558 H 0.29995 0.16748 0.12365 0.0
H1559 H 0.328 0.17879 0.19894 0.0
H1560 H 0.36519 0.14272 0.21192 0.0
H1561 H 0.35744 0.15949 0.19771 0.0
H1562 H 0.32884 0.14732 0.12368 0.0
C1563 C 0.30589 0.17826 0.13188 0.0
C1564 C 0.32827 0.17209 0.18223 0.0
C1565 C 0.30098 0.18777 0.12613 0.0
C1566 C 0.35575 0.1389 0.1988 0.0
C1567 C 0.35128 0.14848 0.19081 0.0
C1568 C 0.32864 0.15411 0.14026 0.0
C1569 C 0.31817 0.18258 0.14851 0.0
C1570 C 0.32335 0.17253 0.155 0.0
C1571 C 0.33891 0.14385 0.1743 0.0
C1572 C 0.33364 0.15378 0.16746 0.0
H1573 H 0.32647 0.21679 0.16192 0.0
H1574 H 0.33511 0.2003 0.17164 0.0
H1575 H 0.32 0.16365 0.11281 0.0
H1576 H 0.32955 0.10894 0.16662 0.0
H1577 H 0.3217 0.12568 0.15273 0.0
C1578 C 0.78638 0.11288 0.14428 0.0
C1579 C 0.79123 0.10478 0.12977 0.0
C1580 C 0.79572 0.12727 0.15016 0.0
C1581 C 0.83383 0.15352 0.15845 0.0
H1582 H 0.82116 0.18115 0.14939 0.0
C1583 C 0.872 0.21353 0.17586 0.0
C1584 C 0.86663 0.22066 0.19211 0.0
C1585 C 0.86283 0.19979 0.16571 0.0
C1586 C 0.82481 0.17353 0.15219 0.0
H1587 H 0.80962 0.10534 0.10998 0.0
H1588 H 0.82598 0.13057 0.12021 0.0
H1589 H 0.8051 0.15618 0.1368 0.0
H1590 H 0.84743 0.21925 0.20983 0.0
H1591 H 0.8314 0.19515 0.19235 0.0
H1592 H 0.85345 0.17078 0.17421 0.0
C1593 C 0.81497 0.12574 0.12723 0.0
C1594 C 0.81562 0.15926 0.14501 0.0
C1595 C 0.80561 0.11133 0.1213 0.0
C1596 C 0.85186 0.21399 0.19732 0.0
C1597 C 0.84268 0.20023 0.18719 0.0
C1598 C 0.843 0.16778 0.16566 0.0
C1599 C 0.8101 0.13385 0.14167 0.0
C1600 C 0.82002 0.14909 0.14825 0.0
C1601 C 0.84811 0.19291 0.17165 0.0
C1602 C 0.83856 0.17792 0.16277 0.0
H1603 H 0.77534 0.1081 0.15109 0.0
H1604 H 0.79171 0.1332 0.16168 0.0
H1605 H 0.83744 0.14588 0.16156 0.0
H1606 H 0.88334 0.21846 0.17138 0.0
H1607 H 0.86728 0.1945 0.1534 0.0
C1608 C 0.77529 0.6286 0.20067 0.0
C1609 C 0.76849 0.63674 0.19823 0.0
C1610 C 0.78944 0.63421 0.19175 0.0
C1611 C 0.82208 0.66876 0.17889 0.0
H1612 H 0.83532 0.64565 0.14122 0.0
C1613 C 0.87889 0.69277 0.13259 0.0
C1614 C 0.88608 0.68515 0.13743 0.0
C1615 C 0.86443 0.68674 0.13946 0.0
C1616 C 0.83179 0.65219 0.15196 0.0
H1617 H 0.77089 0.65686 0.18364 0.0
H1618 H 0.79548 0.66653 0.16765 0.0
H1619 H 0.81003 0.63513 0.15329 0.0
H1620 H 0.88385 0.6653 0.15331 0.0
H1621 H 0.8586 0.65481 0.16547 0.0
H1622 H 0.84382 0.68581 0.17757 0.0
C1623 C 0.79002 0.65596 0.17697 0.0
C1624 C 0.81732 0.64617 0.15886 0.0
C1625 C 0.77591 0.65038 0.18595 0.0
C1626 C 0.87857 0.67142 0.14933 0.0
C1627 C 0.8641 0.66537 0.15612 0.0
C1628 C 0.83652 0.67478 0.17193 0.0
C1629 C 0.79702 0.64804 0.18019 0.0
C1630 C 0.81232 0.6544 0.17241 0.0
C1631 C 0.85688 0.67296 0.15121 0.0
C1632 C 0.84153 0.66656 0.15843 0.0
H1633 H 0.76982 0.61806 0.21013 0.0
H1634 H 0.79459 0.62789 0.19474 0.0
H1635 H 0.81862 0.6753 0.18982 0.0
H1636 H 0.88441 0.70335 0.12334 0.0
H1637 H 0.8591 0.69278 0.13518 0.0
C1638 C 0.12004 0.34034 0.32187 0.0
C1639 C 0.12527 0.35289 0.3058 0.0
C1640 C 0.12912 0.33526 0.32993 0.0
C1641 C 0.16306 0.33714 0.31125 0.0
H1642 H 0.16067 0.32262 0.38712 0.0
C1643 C 0.20421 0.32302 0.35517 0.0
C1644 C 0.19887 0.31041 0.37108 0.0
C1645 C 0.19521 0.3282 0.34715 0.0
C1646 C 0.16134 0.32649 0.36577 0.0
H1647 H 0.14407 0.37002 0.28558 0.0
H1648 H 0.16002 0.36121 0.2999 0.0
H1649 H 0.14508 0.3319 0.37332 0.0
H1650 H 0.17997 0.29327 0.39104 0.0
H1651 H 0.16417 0.30228 0.3768 0.0
H1652 H 0.17933 0.33173 0.30371 0.0
C1653 C 0.14885 0.35522 0.30599 0.0
C1654 C 0.15244 0.33181 0.35788 0.0
C1655 C 0.13975 0.3603 0.29793 0.0
C1656 C 0.18436 0.30304 0.37882 0.0
C1657 C 0.17536 0.30824 0.3708 0.0
C1658 C 0.17197 0.33182 0.31914 0.0
C1659 C 0.14362 0.34264 0.32206 0.0
C1660 C 0.1532 0.33717 0.33053 0.0
C1661 C 0.1807 0.32087 0.3549 0.0
C1662 C 0.17119 0.32644 0.34648 0.0
H1663 H 0.1089 0.33437 0.32815 0.0
H1664 H 0.12474 0.32544 0.34198 0.0
H1665 H 0.16373 0.341 0.28989 0.0
H1666 H 0.21536 0.32894 0.34899 0.0
H1667 H 0.19966 0.33806 0.33521 0.0
C1668 C 0.69102 0.88223 0.37138 0.0
C1669 C 0.6836 0.8891 0.36231 0.0
C1670 C 0.68608 0.86799 0.36421 0.0
C1671 C 0.65318 0.83531 0.34354 0.0
H1672 H 0.67922 0.82194 0.32255 0.0
C1673 C 0.63402 0.77816 0.30283 0.0
C1674 C 0.64145 0.77144 0.3127 0.0
C1675 C 0.63897 0.79251 0.30906 0.0
C1676 C 0.67184 0.8255 0.32868 0.0
H1677 H 0.6655 0.88667 0.33792 0.0
H1678 H 0.65698 0.86185 0.3251 0.0
H1679 H 0.68861 0.84728 0.33194 0.0
H1680 H 0.65961 0.77427 0.33744 0.0
H1681 H 0.66814 0.79926 0.34859 0.0
H1682 H 0.63641 0.81352 0.34033 0.0
C1683 C 0.66646 0.86739 0.33814 0.0
C1684 C 0.67721 0.84 0.33401 0.0
C1685 C 0.67139 0.88161 0.34532 0.0
C1686 C 0.6537 0.7792 0.32945 0.0
C1687 C 0.65864 0.79353 0.33567 0.0
C1688 C 0.6478 0.82081 0.3382 0.0
C1689 C 0.67365 0.86037 0.34783 0.0
C1690 C 0.66794 0.84504 0.34155 0.0
C1691 C 0.65143 0.80038 0.32525 0.0
C1692 C 0.65708 0.81576 0.33081 0.0
H1693 H 0.70045 0.88775 0.38457 0.0
H1694 H 0.69177 0.86282 0.37219 0.0
H1695 H 0.6458 0.83886 0.34976 0.0
H1696 H 0.62457 0.77242 0.2898 0.0
H1697 H 0.63325 0.79755 0.30058 0.0
C1698 C 0.11101 0.80962 0.37236 0.0
C1699 C 0.10312 0.79544 0.36284 0.0
C1700 C 0.12537 0.81816 0.36479 0.0
C1701 C 0.15652 0.81572 0.34128 0.0
H1702 H 0.17159 0.85525 0.31914 0.0
C1703 C 0.21338 0.85046 0.29575 0.0
C1704 C 0.22108 0.86474 0.30473 0.0
C1705 C 0.19899 0.84187 0.30307 0.0
C1706 C 0.16758 0.84428 0.3256 0.0
H1707 H 0.10393 0.77912 0.33759 0.0
H1708 H 0.12897 0.79407 0.32422 0.0
H1709 H 0.14631 0.84061 0.33106 0.0
H1710 H 0.21993 0.88119 0.32884 0.0
H1711 H 0.19489 0.86616 0.34197 0.0
H1712 H 0.17779 0.8194 0.33595 0.0
C1713 C 0.12412 0.79853 0.33779 0.0
C1714 C 0.1531 0.8359 0.33238 0.0
C1715 C 0.10977 0.79001 0.3453 0.0
C1716 C 0.21423 0.87023 0.32152 0.0
C1717 C 0.19987 0.86165 0.32887 0.0
C1718 C 0.171 0.82411 0.33455 0.0
C1719 C 0.13209 0.81265 0.34762 0.0
C1720 C 0.14743 0.82154 0.34028 0.0
C1721 C 0.19206 0.84742 0.31954 0.0
C1722 C 0.17668 0.83848 0.32666 0.0
H1723 H 0.10616 0.81407 0.38597 0.0
H1724 H 0.13129 0.82897 0.37288 0.0
H1725 H 0.15248 0.80474 0.34771 0.0
H1726 H 0.2184 0.84598 0.2827 0.0
H1727 H 0.19321 0.83099 0.29533 0.0
C1728 C 0.63298 0.85282 0.80262 0.0
C1729 C 0.64018 0.86686 0.81303 0.0
C1730 C 0.63788 0.84339 0.80906 0.0
C1731 C 0.67049 0.84316 0.83039 0.0
H1732 H 0.64426 0.80356 0.84972 0.0
C1733 C 0.68952 0.8054 0.87258 0.0
C1734 C 0.68231 0.79123 0.86287 0.0
C1735 C 0.68449 0.81468 0.86574 0.0
C1736 C 0.6517 0.81455 0.844 0.0
H1737 H 0.65792 0.88199 0.83888 0.0
H1738 H 0.6664 0.86549 0.85034 0.0
H1739 H 0.63493 0.81956 0.84009 0.0
H1740 H 0.66442 0.7757 0.83786 0.0
H1741 H 0.65574 0.79196 0.82559 0.0
H1742 H 0.68725 0.83816 0.83427 0.0
C1743 C 0.65709 0.86182 0.83688 0.0
C1744 C 0.64636 0.8237 0.83854 0.0
C1745 C 0.65218 0.87123 0.83048 0.0
C1746 C 0.67016 0.78657 0.84572 0.0
C1747 C 0.66514 0.79584 0.83886 0.0
C1748 C 0.67582 0.83401 0.83582 0.0
C1749 C 0.65009 0.84786 0.82598 0.0
C1750 C 0.65571 0.83811 0.83177 0.0
C1751 C 0.67216 0.80995 0.84903 0.0
C1752 C 0.66649 0.81961 0.84273 0.0
H1753 H 0.62371 0.84918 0.78906 0.0
H1754 H 0.63234 0.83273 0.80018 0.0
H1755 H 0.67793 0.85416 0.82474 0.0
H1756 H 0.69889 0.80926 0.88592 0.0
H1757 H 0.69004 0.82544 0.87413 0.0
C1758 C 0.13913 0.77819 0.80864 0.0
C1759 C 0.12444 0.77195 0.81438 0.0
C1760 C 0.14861 0.79226 0.81681 0.0
C1761 C 0.14929 0.82579 0.83268 0.0
H1762 H 0.18634 0.83726 0.8659 0.0
C1763 C 0.18509 0.88192 0.87907 0.0
C1764 C 0.19988 0.88845 0.87426 0.0
C1765 C 0.17604 0.86767 0.87152 0.0
C1766 C 0.1761 0.83424 0.85631 0.0
H1767 H 0.10818 0.77532 0.83388 0.0
H1768 H 0.12474 0.79983 0.84826 0.0
H1769 H 0.17028 0.81219 0.85399 0.0
H1770 H 0.21681 0.88534 0.85746 0.0
H1771 H 0.20096 0.8605 0.84384 0.0
H1772 H 0.15509 0.8478 0.83477 0.0
C1773 C 0.1289 0.79393 0.83714 0.0
C1774 C 0.16691 0.8199 0.84957 0.0
C1775 C 0.11944 0.77987 0.82908 0.0
C1776 C 0.20545 0.88055 0.86148 0.0
C1777 C 0.19638 0.8663 0.85386 0.0
C1778 C 0.15849 0.84012 0.83933 0.0
C1779 C 0.14354 0.80033 0.83074 0.0
C1780 C 0.15338 0.81553 0.83783 0.0
C1781 C 0.18159 0.85969 0.85893 0.0
C1782 C 0.17197 0.8445 0.85133 0.0
H1783 H 0.14326 0.77232 0.79732 0.0
H1784 H 0.15983 0.79695 0.81145 0.0
H1785 H 0.13903 0.82276 0.82316 0.0
H1786 H 0.18051 0.88774 0.88901 0.0
H1787 H 0.16471 0.86284 0.87604 0.0
C1788 C 0.1121 0.30073 0.87553 0.0
C1789 C 0.10586 0.30933 0.87178 0.0
C1790 C 0.12652 0.30603 0.86902 0.0
C1791 C 0.16039 0.34003 0.86072 0.0
H1792 H 0.17316 0.31681 0.822 0.0
C1793 C 0.21651 0.36329 0.81151 0.0
C1794 C 0.22329 0.3551 0.81304 0.0
C1795 C 0.2025 0.35773 0.82121 0.0
C1796 C 0.16979 0.32336 0.83322 0.0
H1797 H 0.10965 0.33001 0.85752 0.0
H1798 H 0.13473 0.33918 0.8458 0.0
H1799 H 0.14782 0.30677 0.83276 0.0
H1800 H 0.221 0.33493 0.82694 0.0
H1801 H 0.19657 0.32528 0.8442 0.0
H1802 H 0.18233 0.35666 0.86096 0.0
C1803 C 0.12858 0.32845 0.85424 0.0
C1804 C 0.15527 0.31761 0.83932 0.0
C1805 C 0.11419 0.32316 0.86073 0.0
C1806 C 0.21601 0.34147 0.82541 0.0
C1807 C 0.202 0.3359 0.8351 0.0
C1808 C 0.1749 0.34577 0.85464 0.0
C1809 C 0.13495 0.32002 0.85867 0.0
C1810 C 0.1504 0.32593 0.85289 0.0
C1811 C 0.19501 0.34387 0.83263 0.0
C1812 C 0.17974 0.33754 0.84062 0.0
H1813 H 0.10594 0.29004 0.88411 0.0
H1814 H 0.13116 0.29931 0.87282 0.0
H1815 H 0.15699 0.34662 0.8717 0.0
H1816 H 0.22185 0.37383 0.80202 0.0
H1817 H 0.19737 0.36409 0.81878 0.0
C1818 C 0.86788 0.65286 0.6997 0.0
C1819 C 0.86247 0.63947 0.71282 0.0
C1820 C 0.85874 0.65796 0.69225 0.0
C1821 C 0.82117 0.64618 0.67648 0.0
H1822 H 0.83251 0.68574 0.69158 0.0
C1823 C 0.78295 0.66793 0.65708 0.0
C1824 C 0.78882 0.68138 0.64407 0.0
C1825 C 0.79184 0.66296 0.6671 0.0
C1826 C 0.82926 0.67471 0.68699 0.0
H1827 H 0.84327 0.62089 0.72833 0.0
H1828 H 0.82724 0.62982 0.71525 0.0
H1829 H 0.84823 0.67663 0.70552 0.0
H1830 H 0.80856 0.7003 0.63175 0.0
H1831 H 0.8241 0.69156 0.64888 0.0
H1832 H 0.8023 0.64427 0.6576 0.0
C1833 C 0.83856 0.63631 0.71061 0.0
C1834 C 0.83825 0.6695 0.69498 0.0
C1835 C 0.84772 0.63123 0.71818 0.0
C1836 C 0.80375 0.6899 0.64177 0.0
C1837 C 0.81264 0.68492 0.6517 0.0
C1838 C 0.8122 0.6514 0.66839 0.0
C1839 C 0.84399 0.64975 0.69767 0.0
C1840 C 0.83432 0.6552 0.68971 0.0
C1841 C 0.80677 0.67133 0.66421 0.0
C1842 C 0.81616 0.66573 0.67349 0.0
H1843 H 0.87921 0.65944 0.69528 0.0
H1844 H 0.8632 0.66827 0.68197 0.0
H1845 H 0.81796 0.63516 0.67181 0.0
H1846 H 0.77147 0.66115 0.65927 0.0
H1847 H 0.787 0.65255 0.67705 0.0
C1848 C 0.35778 0.21461 0.71075 0.0
C1849 C 0.35036 0.22137 0.70096 0.0
C1850 C 0.35285 0.20028 0.70426 0.0
C1851 C 0.31989 0.16746 0.68424 0.0
H1852 H 0.34557 0.15383 0.66216 0.0
C1853 C 0.29981 0.11122 0.6386 0.0
C1854 C 0.30687 0.10391 0.64713 0.0
C1855 C 0.3051 0.12543 0.64647 0.0
C1856 C 0.33829 0.15745 0.66867 0.0
H1857 H 0.33231 0.21864 0.67598 0.0
H1858 H 0.32384 0.19373 0.66442 0.0
H1859 H 0.35526 0.17914 0.67265 0.0
H1860 H 0.32478 0.10556 0.67108 0.0
H1861 H 0.33391 0.13035 0.6851 0.0
H1862 H 0.30292 0.14582 0.6802 0.0
C1863 C 0.33328 0.1994 0.6775 0.0
C1864 C 0.34384 0.17193 0.67462 0.0
C1865 C 0.3382 0.21369 0.68395 0.0
C1866 C 0.31914 0.11096 0.66413 0.0
C1867 C 0.32442 0.12517 0.672 0.0
C1868 C 0.31435 0.153 0.67832 0.0
C1869 C 0.34043 0.19248 0.68793 0.0
C1870 C 0.33467 0.17709 0.68225 0.0
C1871 C 0.31754 0.1326 0.66302 0.0
C1872 C 0.32348 0.14786 0.67029 0.0
H1873 H 0.36717 0.22029 0.72395 0.0
H1874 H 0.35852 0.19519 0.71271 0.0
H1875 H 0.3126 0.17109 0.69059 0.0
H1876 H 0.29036 0.10606 0.6254 0.0
H1877 H 0.29964 0.13093 0.63897 0.0
C1878 C 0.8799 0.20355 0.66671 0.0
C1879 C 0.88783 0.19812 0.6535 0.0
C1880 C 0.86594 0.19434 0.67585 0.0
C1881 C 0.83533 0.15881 0.66121 0.0
H1882 H 0.82014 0.16541 0.73013 0.0
C1883 C 0.77779 0.12065 0.69992 0.0
C1884 C 0.77015 0.12704 0.71035 0.0
C1885 C 0.79237 0.12895 0.69392 0.0
C1886 C 0.82421 0.16351 0.7107 0.0
H1887 H 0.88762 0.17879 0.64043 0.0
H1888 H 0.86325 0.16265 0.65671 0.0
H1889 H 0.84553 0.18037 0.71923 0.0
H1890 H 0.77167 0.14711 0.72247 0.0
H1891 H 0.79714 0.16165 0.71172 0.0
H1892 H 0.814 0.14204 0.65255 0.0
C1893 C 0.86775 0.17405 0.6596 0.0
C1894 C 0.83874 0.17206 0.70449 0.0
C1895 C 0.88172 0.18327 0.65045 0.0
C1896 C 0.77731 0.1419 0.71447 0.0
C1897 C 0.7919 0.1502 0.70853 0.0
C1898 C 0.82081 0.15026 0.66744 0.0
C1899 C 0.85964 0.17951 0.67198 0.0
C1900 C 0.84443 0.16988 0.67956 0.0
C1901 C 0.79959 0.1438 0.6983 0.0
C1902 C 0.81508 0.1526 0.69212 0.0
H1903 H 0.88433 0.21496 0.66932 0.0
H1904 H 0.85992 0.19889 0.68503 0.0
H1905 H 0.83934 0.15702 0.6416 0.0
H1906 H 0.77255 0.1092 0.69664 0.0
H1907 H 0.79804 0.12371 0.68631 0.0
C1908 C 0.00683 0.45887 0.51348 0.0
C1909 C 0.01814 0.46212 0.53218 0.0
C1910 C 0.00312 0.46915 0.50672 0.0
C1911 C 0.00538 0.50203 0.53368 0.0
H1912 H 0.99344 0.5045 0.45768 0.0
C1913 C 0.98956 0.54375 0.4992 0.0
C1914 C 0.97724 0.53851 0.48234 0.0
C1915 C -0.0046 0.5351 0.50553 0.0
C1916 C -0.00334 0.50385 0.47904 0.0
H1917 H 0.03464 0.47871 0.55811 0.0
H1918 H 0.02822 0.49681 0.54604 0.0
H1919 H 0.00275 0.48852 0.46747 0.0
H1920 H 0.9612 0.52008 0.45931 0.0
H1921 H 0.97136 0.50496 0.47048 0.0
H1922 H -0.00082 0.51733 0.5452 0.0
C1923 C 0.02213 0.48624 0.53689 0.0
C1924 C 0.00199 0.49473 0.48464 0.0
C1925 C 0.02584 0.47592 0.54367 0.0
C1926 C 0.97072 0.52441 0.47232 0.0
C1927 C 0.97659 0.5158 0.47852 0.0
C1928 C 8e-05 0.51121 0.52804 0.0
C1929 C 0.01066 0.48292 0.51847 0.0
C1930 C 0.00619 0.49353 0.51211 0.0
C1931 C 0.98907 0.5211 0.49496 0.0
C1932 C -0.00455 0.51203 0.50075 0.0
H1933 H 0.00067 0.4483 0.50436 0.0
H1934 H 0.99409 0.46619 0.4928 0.0
H1935 H 0.00838 0.50122 0.55512 0.0
H1936 H -0.00519 0.5546 0.50717 0.0
H1937 H 0.00506 0.53948 0.51813 0.0
C1938 C 0.53627 0.5442 0.52561 0.0
C1939 C 0.53119 0.55246 0.53866 0.0
C1940 C 0.52684 0.52997 0.51852 0.0
C1941 C 0.48892 0.50454 0.50445 0.0
H1942 H 0.49988 0.47604 0.51975 0.0
C1943 C 0.44985 0.44432 0.4893 0.0
C1944 C 0.45538 0.43649 0.47611 0.0
C1945 C 0.45898 0.45835 0.49809 0.0
C1946 C 0.49673 0.4839 0.51512 0.0
H1947 H 0.5123 0.55242 0.5544 0.0
H1948 H 0.4958 0.5275 0.54207 0.0
H1949 H 0.51607 0.50093 0.53249 0.0
H1950 H 0.47478 0.43706 0.46202 0.0
H1951 H 0.49074 0.46161 0.47712 0.0
H1952 H 0.46963 0.48754 0.48688 0.0
C1953 C 0.50705 0.53206 0.53713 0.0
C1954 C 0.50599 0.49814 0.5224 0.0
C1955 C 0.51649 0.54629 0.54428 0.0
C1956 C 0.47023 0.44284 0.47221 0.0
C1957 C 0.47937 0.45687 0.48098 0.0
C1958 C 0.47966 0.4903 0.49713 0.0
C1959 C 0.51215 0.52375 0.52431 0.0
C1960 C 0.5022 0.50861 0.51703 0.0
C1961 C 0.47383 0.4648 0.49385 0.0
C1962 C 0.4835 0.47984 0.50229 0.0
H1963 H 0.54754 0.54869 0.52098 0.0
H1964 H 0.53104 0.52388 0.5083 0.0
H1965 H 0.4858 0.51241 0.49974 0.0
H1966 H 0.43844 0.43966 0.49266 0.0
H1967 H 0.45443 0.46413 0.50829 0.0
C1968 C 0.54652 0.02621 0.46358 0.0
C1969 C 0.5539 0.01876 0.46821 0.0
C1970 C 0.53203 0.01994 0.47044 0.0
C1971 C 0.50414 0.99195 0.51487 0.0
H1972 H 0.47813 0.99557 0.46353 0.0
C1973 C 0.44324 0.96279 0.53415 0.0
C1974 C 0.43663 0.97103 0.53023 0.0
C1975 C 0.45731 0.96792 0.52514 0.0
C1976 C 0.48529 0.99456 0.47816 0.0
H1977 H 0.55198 -0.00103 0.48364 0.0
H1978 H 0.52667 0.98801 0.49549 0.0
H1979 H 0.50336 0.00618 0.45106 0.0
H1980 H 0.43939 0.99093 0.51339 0.0
H1981 H 0.46394 -8e-05 0.49795 0.0
H1982 H 0.48611 0.98046 0.5421 0.0
C1983 C 0.5321 -0.00127 0.48684 0.0
C1984 C 0.49972 0.00065 0.47104 0.0
C1985 C 0.54657 0.00498 0.47994 0.0
C1986 C 0.44421 0.98433 0.51666 0.0
C1987 C 0.45824 0.98945 0.50766 0.0
C1988 C 0.48971 0.98588 0.522 0.0
C1989 C 0.52467 0.00613 0.48211 0.0
C1990 C 0.50931 -0.00053 0.48941 0.0
C1991 C 0.46499 0.98136 0.51204 0.0
C1992 C 0.48015 0.9872 0.5038 0.0
H1993 H 0.55192 0.03686 0.45458 0.0
H1994 H 0.52662 0.02597 0.4669 0.0
H1995 H 0.51131 0.99103 0.52961 0.0
H1996 H 0.43762 0.95248 0.54448 0.0
H1997 H 0.46218 0.96137 0.52849 0.0
C1998 C 0.45158 0.00229 0.98079 0.0
C1999 C 0.45635 0.01505 0.96564 0.0
C2000 C 0.46096 -0.00269 0.98701 0.0
C2001 C 0.49905 0.00936 0.99565 0.0
H2002 H 0.48662 0.96905 0.98803 0.0
C2003 C 0.53746 0.98787 0.01475 0.0
C2004 C 0.53211 0.97528 0.03074 0.0
C2005 C 0.52827 0.99242 1.00463 0.0
C2006 C 0.4902 0.98031 0.99048 0.0
H2007 H 0.47463 0.03263 0.94504 0.0
H2008 H 0.49108 0.02392 0.95596 0.0
H2009 H 0.47048 0.97774 0.97454 0.0
H2010 H 0.51293 0.95741 0.04826 0.0
H2011 H 0.49685 0.96547 0.03092 0.0
H2012 H 0.51866 0.01193 0.012 0.0
C2013 C 0.48009 0.01782 0.96315 0.0
C2014 C 0.48097 0.98528 0.98274 0.0
C2015 C 0.47069 0.02277 0.95682 0.0
C2016 C 0.51734 0.96715 0.03593 0.0
C2017 C 0.50813 0.97173 0.02588 0.0
C2018 C 0.50826 0.00439 1.00346 0.0
C2019 C 0.47531 0.00503 0.97829 0.0
C2020 C 0.48528 -0.00016 0.98542 0.0
C2021 C 0.51353 0.9845 0.01039 0.0
C2022 C 0.5039 0.9898 1.0011 0.0
H2023 H 0.44058 -0.00388 0.98787 0.0
H2024 H 0.45702 0.98752 0.99904 0.0
H2025 H 0.50258 0.0206 0.99831 0.0
H2026 H 0.5488 0.99431 0.01027 0.0
H2027 H 0.53271 0.00218 0.99236 0.0
C2028 C 0.00134 0.54522 0.01354 0.0
C2029 C 0.01363 0.55292 0.03021 0.0
C2030 C -0.00323 0.53111 0.00593 0.0
C2031 C 0.0088 0.50484 0.99882 0.0
H2032 H 0.9683 0.47719 1.00524 0.0
C2033 C 0.98667 0.44421 0.98844 0.0
C2034 C 0.97405 0.43643 0.97271 0.0
C2035 C 0.99156 0.45846 0.9955 0.0
C2036 C 0.97962 0.48481 1.00304 0.0
H2037 H 0.03094 0.55204 0.0516 0.0
H2038 H 0.02291 0.52731 0.03837 0.0
H2039 H 0.97695 0.50217 0.0169 0.0
H2040 H 0.9566 0.43738 0.95207 0.0
H2041 H 0.96521 0.46232 0.96417 0.0
H2042 H 0.01147 0.48748 0.98492 0.0
C2043 C 0.01687 0.53223 0.03102 0.0
C2044 C 0.98457 0.49911 0.0097 0.0
C2045 C 0.02143 0.54635 0.03869 0.0
C2046 C 0.96634 0.44311 0.96431 0.0
C2047 C 0.97124 0.45737 0.97135 0.0
C2048 C 0.00385 0.49054 0.99211 0.0
C2049 C 0.00441 0.52443 0.01481 0.0
C2050 C -0.00079 0.50927 0.00763 0.0
C2051 C 0.98392 0.4652 0.98694 0.0
C2052 C 0.9892 0.48038 0.99414 0.0
H2053 H -0.00487 0.55003 0.00662 0.0
H2054 H 0.98724 0.52543 0.99306 0.0
H2055 H 0.02012 0.51247 0.9967 0.0
H2056 H 0.99281 0.43932 0.99526 0.0
H2057 H 0.00126 0.46416 0.00786 0.0
C2058 C 0.44002 0.44972 0.02656 0.0
C2059 C 0.43251 0.45585 0.03882 0.0
C2060 C 0.45422 0.45833 0.01802 0.0
C2061 C 0.4813 0.49579 1.00132 0.0
H2062 H 0.50832 0.483 0.01789 0.0
C2063 C 0.54209 0.53344 0.99519 0.0
C2064 C 0.55001 0.52827 0.98103 0.0
C2065 C 0.52774 0.52426 1.00188 0.0
C2066 C 0.50086 0.48664 0.0129 0.0
H2067 H 0.43382 0.47575 0.05149 0.0
H2068 H 0.45866 0.49077 0.03705 0.0
H2069 H 0.48306 0.46763 0.02943 0.0
H2070 H 0.54929 0.50941 0.96335 0.0
H2071 H 0.52415 0.4933 0.97527 0.0
H2072 H 0.49916 0.51491 0.98525 0.0
C2073 C 0.45355 0.47935 0.03357 0.0
C2074 C 0.48639 0.47783 0.01942 0.0
C2075 C 0.43934 0.47075 0.04197 0.0
C2076 C 0.54343 0.51367 0.9743 0.0
C2077 C 0.52907 0.50446 0.98117 0.0
C2078 C 0.49576 0.50462 0.99498 0.0
C2079 C 0.46119 0.47323 0.0217 0.0
C2080 C 0.47646 0.48235 0.01383 0.0
C2081 C 0.52106 0.50972 0.99468 0.0
C2082 C 0.50569 0.50017 1.00087 0.0
H2083 H 0.43498 0.43826 0.02378 0.0
H2084 H 0.45972 0.45331 0.00854 0.0
H2085 H 0.47389 0.49948 0.99628 0.0
H2086 H 0.54689 0.54464 1.00069 0.0
H2087 H 0.52186 0.52855 0.01267 0.0
C2088 C 0.44255 0.06553 0.02264 0.0
C2089 C 0.43575 0.06371 0.99643 0.0
C2090 C 0.44121 0.0738 0.04376 0.0
C2091 C 0.42757 0.09881 0.05939 0.0
H2092 H 0.41753 0.07902 0.13132 0.0
C2093 C 0.38966 0.10257 0.13905 0.0
C2094 C 0.39156 0.10154 0.16811 0.0
C2095 C 0.39884 0.10173 0.11945 0.0
C2096 C 0.42061 0.08491 0.11164 0.0
H2097 H 0.42301 0.06988 0.97113 0.0
H2098 H 0.42041 0.08411 0.00812 0.0
H2099 H 0.42685 0.07072 0.09376 0.0
H2100 H 0.40503 0.09957 0.19956 0.0
H2101 H 0.42117 0.09798 0.1651 0.0
H2102 H 0.42063 0.11258 0.07707 0.0
C2103 C 0.42696 0.07933 0.01233 0.0
C2104 C 0.42598 0.08014 0.08999 0.0
C2105 C 0.42842 0.07114 0.99108 0.0
C2106 C 0.40333 0.1004 0.17728 0.0
C2107 C 0.41249 0.0994 0.15756 0.0
C2108 C 0.42215 0.10355 0.08105 0.0
C2109 C 0.43291 0.08033 0.03929 0.0
C2110 C 0.42918 0.08679 0.06332 0.0
C2111 C 0.41012 0.09971 0.12838 0.0
C2112 C 0.41824 0.09641 0.10718 0.0
H2113 H 0.44839 0.06003 0.02729 0.0
H2114 H 0.44623 0.07462 0.06399 0.0
H2115 H 0.43016 0.10435 0.03932 0.0
H2116 H 0.38071 0.10351 0.13133 0.0
H2117 H 0.39658 0.10185 0.09721 0.0
C2118 C 0.89054 0.28368 0.14522 0.0
C2119 C 0.89018 0.28633 0.17414 0.0
C2120 C 0.8912 0.29339 0.12506 0.0
C2121 C 0.90548 0.33143 0.11629 0.0
H2122 H 0.8871 0.32021 0.04304 0.0
C2123 C 0.92433 0.37206 0.02589 0.0
C2124 C 0.92651 0.36713 0.99998 0.0
C2125 C 0.91619 0.36243 0.04713 0.0
C2126 C 0.89236 0.32354 0.06334 0.0
H2127 H 0.88966 0.30095 0.20468 0.0
H2128 H 0.8911 0.31824 0.16918 0.0
H2129 H 0.8793 0.3027 0.08121 0.0
H2130 H 0.92117 0.34824 0.97533 0.0
H2131 H 0.90726 0.33139 0.01256 0.0
H2132 H 0.91908 0.35199 0.09825 0.0
C2133 C 0.89079 0.30854 0.16223 0.0
C2134 C 0.88784 0.31351 0.08525 0.0
C2135 C 0.8899 0.29865 0.18251 0.0
C2136 C 0.91962 0.35235 0.99505 0.0
C2137 C 0.9116 0.34269 0.01645 0.0
C2138 C 0.91008 0.34142 0.09436 0.0
C2139 C 0.89169 0.30611 0.1333 0.0
C2140 C 0.89462 0.31725 0.11174 0.0
C2141 C 0.91019 0.34762 0.04312 0.0
C2142 C 0.90384 0.33752 0.06735 0.0
H2143 H 0.8907 0.27423 0.13813 0.0
H2144 H 0.89205 0.29125 0.10303 0.0
H2145 H 0.91106 0.33461 0.13631 0.0
H2146 H 0.92942 0.38342 0.03019 0.0
H2147 H 0.91504 0.36663 0.06708 0.0
C2148 C 0.61454 0.55016 0.03674 0.0
C2149 C 0.61649 0.54929 0.00765 0.0
C2150 C 0.62479 0.55131 0.05609 0.0
C2151 C 0.64651 0.55115 0.09575 0.0
H2152 H 0.68501 0.57913 0.0729 0.0
C2153 C 0.69307 0.57919 0.17672 0.0
C2154 C 0.70108 0.5941 0.17319 0.0
C2155 C 0.68357 0.57051 0.15552 0.0
C2156 C 0.67433 0.57126 0.07964 0.0
H2157 H 0.6303 0.54794 0.97615 0.0
H2158 H 0.64829 0.54978 0.01015 0.0
H2159 H 0.6661 0.56889 0.03779 0.0
H2160 H 0.70564 0.61153 0.14447 0.0
H2161 H 0.6892 0.59663 0.10819 0.0
H2162 H 0.65461 0.55439 0.138 0.0
C2163 C 0.63887 0.5498 0.01792 0.0
C2164 C 0.66348 0.56521 0.05938 0.0
C2165 C 0.62852 0.54864 0.99844 0.0
C2166 C 0.69965 0.60008 0.14793 0.0
C2167 C 0.69029 0.59149 0.12689 0.0
C2168 C 0.65736 0.55729 0.11608 0.0
C2169 C 0.63733 0.5516 0.04695 0.0
C2170 C 0.6493 0.55551 0.06732 0.0
C2171 C 0.68204 0.5766 0.13037 0.0
C2172 C 0.67127 0.56788 0.10842 0.0
H2173 H 0.60534 0.55062 0.04456 0.0
H2174 H 0.62325 0.55286 0.0781 0.0
H2175 H 0.63578 0.54346 0.10257 0.0
H2176 H 0.69396 0.57428 0.19595 0.0
H2177 H 0.67739 0.55907 0.15885 0.0
C2178 C 0.09894 0.40968 0.32747 0.0
C2179 C 0.10594 0.4019 0.33268 0.0
C2180 C 0.09753 0.41777 0.34902 0.0
C2181 C 0.09536 0.41717 0.42633 0.0
H2182 H 0.0923 0.45112 0.41604 0.0
C2183 C 0.07242 0.43628 0.51466 0.0
C2184 C 0.06156 0.43886 0.50534 0.0
C2185 C 0.08176 0.43545 0.49517 0.0
C2186 C 0.09313 0.44164 0.41928 0.0
H2187 H 0.11809 0.39754 0.36357 0.0
H2188 H 0.11594 0.41188 0.4008 0.0
H2189 H 0.10167 0.44297 0.37781 0.0
H2190 H 0.05264 0.44365 0.46872 0.0
H2191 H 0.06869 0.4421 0.435 0.0
H2192 H 0.08628 0.41541 0.46719 0.0
C2193 C 0.11118 0.41144 0.38043 0.0
C2194 C 0.09849 0.43697 0.39735 0.0
C2195 C 0.1125 0.4033 0.35902 0.0
C2196 C 0.06085 0.44157 0.47656 0.0
C2197 C 0.07017 0.44079 0.45718 0.0
C2198 C 0.08999 0.42181 0.44818 0.0
C2199 C 0.10317 0.41829 0.37609 0.0
C2200 C 0.09935 0.42448 0.40038 0.0
C2201 C 0.08044 0.43725 0.46607 0.0
C2202 C 0.08845 0.43389 0.44469 0.0
H2203 H 0.09373 0.40875 0.30741 0.0
H2204 H 0.09123 0.42284 0.34495 0.0
H2205 H 0.09564 0.40737 0.42931 0.0
H2206 H 0.07323 0.43417 0.53673 0.0
H2207 H 0.08969 0.4329 0.50278 0.0
C2208 C 0.547 0.61638 0.48405 0.0
C2209 C 0.5532 0.62133 0.51073 0.0
C2210 C 0.54846 0.626 0.46283 0.0
C2211 C 0.56081 0.66434 0.44735 0.0
H2212 H 0.57262 0.65561 0.37637 0.0
C2213 C 0.59749 0.70711 0.36775 0.0
C2214 C 0.59626 0.70391 0.3388 0.0
C2215 C 0.58852 0.69689 0.38732 0.0
C2216 C 0.56903 0.65812 0.39575 0.0
H2217 H 0.56504 0.64017 0.53668 0.0
H2218 H 0.56785 0.65705 0.49946 0.0
H2219 H 0.56372 0.63797 0.41391 0.0
H2220 H 0.58407 0.68776 0.30743 0.0
H2221 H 0.56826 0.66977 0.34177 0.0
H2222 H 0.56672 0.68476 0.42934 0.0
C2223 C 0.56168 0.64572 0.49498 0.0
C2224 C 0.56392 0.64797 0.4174 0.0
C2225 C 0.5601 0.63605 0.51635 0.0
C2226 C 0.58526 0.69052 0.32962 0.0
C2227 C 0.5763 0.6802 0.34931 0.0
C2228 C 0.56595 0.67451 0.42564 0.0
C2229 C 0.55629 0.64082 0.46766 0.0
C2230 C 0.56004 0.65105 0.44372 0.0
C2231 C 0.57812 0.68315 0.37847 0.0
C2232 C 0.57045 0.67165 0.39981 0.0
H2233 H 0.5415 0.60507 0.47917 0.0
H2234 H 0.54388 0.62182 0.44229 0.0
H2235 H 0.5577 0.66699 0.46715 0.0
H2236 H 0.60583 0.71736 0.37547 0.0
H2237 H 0.59036 0.69952 0.40953 0.0
C2238 C 0.37673 0.92867 0.4759 0.0
C2239 C 0.3716 0.92676 0.50368 0.0
C2240 C 0.36771 0.92061 0.4539 0.0
C2241 C 0.33123 0.89022 0.43633 0.0
H2242 H 0.33629 0.91367 0.37055 0.0
C2243 C 0.28652 0.88018 0.35693 0.0
C2244 C 0.29017 0.88406 0.32854 0.0
C2245 C 0.297 0.8822 0.37667 0.0
C2246 C 0.33486 0.90683 0.38843 0.0
H2247 H 0.35326 0.91448 0.53061 0.0
H2248 H 0.3372 0.90067 0.49194 0.0
H2249 H 0.35353 0.92321 0.40859 0.0
H2250 H 0.30747 0.89211 0.29813 0.0
H2251 H 0.32583 0.89565 0.33266 0.0
H2252 H 0.31203 0.8741 0.41635 0.0
C2253 C 0.34831 0.90815 0.48714 0.0
C2254 C 0.3448 0.91231 0.41039 0.0
C2255 C 0.35748 0.91606 0.50935 0.0
C2256 C 0.30434 0.88903 0.31986 0.0
C2257 C 0.31486 0.89116 0.33968 0.0
C2258 C 0.32118 0.88477 0.41435 0.0
C2259 C 0.3532 0.91069 0.45898 0.0
C2260 C 0.34307 0.90417 0.43481 0.0
C2261 C 0.31139 0.88824 0.36848 0.0
C2262 C 0.32281 0.89309 0.3903 0.0
H2263 H 0.38764 0.93677 0.47104 0.0
H2264 H 0.37203 0.92256 0.4327 0.0
H2265 H 0.32962 0.88357 0.4546 0.0
H2266 H 0.27567 0.87628 0.36424 0.0
H2267 H 0.29395 0.87992 0.39865 0.0
C2268 C 0.59435 0.88596 0.86583 0.0
C2269 C 0.59419 0.88902 0.83705 0.0
C2270 C 0.58565 0.88789 0.88505 0.0
C2271 C 0.57118 0.91149 0.89413 0.0
H2272 H 0.55387 0.88922 0.96172 0.0
C2273 C 0.55145 0.93433 0.98026 0.0
C2274 C 0.55467 0.93268 0.0082 0.0
C2275 C 0.55238 0.92606 0.95867 0.0
C2276 C 0.55872 0.89561 0.94306 0.0
H2277 H 0.58409 0.89555 0.80549 0.0
H2278 H 0.56889 0.89904 0.83919 0.0
H2279 H 0.56217 0.87948 0.9244 0.0
H2280 H 0.56074 0.9207 0.03588 0.0
H2281 H 0.56306 0.9066 0.99797 0.0
H2282 H 0.56863 0.92796 0.91302 0.0
C2283 C 0.5758 0.89518 0.84686 0.0
C2284 C 0.5634 0.88998 0.9216 0.0
C2285 C 0.58442 0.89309 0.82754 0.0
C2286 C 0.55812 0.92208 0.01447 0.0
C2287 C 0.5594 0.91399 0.99269 0.0
C2288 C 0.56667 0.91717 0.91561 0.0
C2289 C 0.57669 0.89307 0.87596 0.0
C2290 C 0.56986 0.89796 0.89707 0.0
C2291 C 0.557 0.91622 0.96434 0.0
C2292 C 0.56055 0.90942 0.94058 0.0
H2293 H 0.60175 0.88276 0.87376 0.0
H2294 H 0.58667 0.88624 0.90728 0.0
H2295 H 0.57639 0.91806 0.87581 0.0
H2296 H 0.54859 0.94234 0.97495 0.0
H2297 H 0.54995 0.92777 0.93735 0.0
C2298 C 0.0586 0.61525 0.97729 0.0
C2299 C 0.05825 0.61984 1.00483 0.0
C2300 C 0.06685 0.62507 0.95641 0.0
C2301 C 0.09394 0.66363 0.94314 0.0
H2302 H 0.07371 0.65609 0.87191 0.0
C2303 C 0.10053 0.7073 0.86479 0.0
C2304 C 0.09973 0.70457 0.83566 0.0
C2305 C 0.09882 0.69687 0.8843 0.0
C2306 C 0.07968 0.65827 0.89142 0.0
H2307 H 0.0668 0.63819 0.03257 0.0
H2308 H 0.08087 0.65549 0.99595 0.0
H2309 H 0.06451 0.63801 0.90857 0.0
H2310 H 0.09716 0.689 0.80405 0.0
H2311 H 0.09394 0.67056 0.83831 0.0
H2312 H 0.10866 0.6843 0.92616 0.0
C2313 C 0.07506 0.64426 0.99047 0.0
C2314 C 0.07442 0.64785 0.91257 0.0
C2315 C 0.06699 0.63435 0.01154 0.0
C2316 C 0.09788 0.69141 0.82637 0.0
C2317 C 0.09595 0.68084 0.84598 0.0
C2318 C 0.09913 0.67412 0.92202 0.0
C2319 C 0.07471 0.6398 0.96236 0.0
C2320 C 0.08132 0.65044 0.93895 0.0
C2321 C 0.09608 0.68337 0.87517 0.0
C2322 C 0.0919 0.67164 0.89609 0.0
H2323 H 0.05204 0.60409 0.97161 0.0
H2324 H 0.06663 0.62112 0.93532 0.0
H2325 H 0.09972 0.66596 0.96291 0.0
H2326 H 0.10198 0.71736 0.87259 0.0
H2327 H 0.09886 0.69913 0.90657 0.0
C2328 C 0.30654 0.3992 0.82452 0.0
C2329 C 0.29394 0.39972 0.82036 0.0
C2330 C 0.31624 0.40741 0.8455 0.0
C2331 C 0.31728 0.42128 0.91512 0.0
H2332 H 0.35831 0.43889 0.90461 0.0
C2333 C 0.35753 0.43771 0.00912 0.0
C2334 C 0.36701 0.43244 0.0061 0.0
C2335 C 0.34918 0.4375 0.98613 0.0
C2336 C 0.34688 0.43408 0.90792 0.0
H2337 H 0.28172 0.4095 0.83431 0.0
H2338 H 0.29867 0.42375 0.87184 0.0
H2339 H 0.34261 0.43198 0.86354 0.0
H2340 H 0.37543 0.42315 0.97656 0.0
H2341 H 0.36107 0.42279 0.937 0.0
H2342 H 0.32153 0.4226 0.95958 0.0
C2343 C 0.30106 0.41707 0.85849 0.0
C2344 C 0.33791 0.43017 0.8844 0.0
C2345 C 0.29144 0.40903 0.83696 0.0
C2346 C 0.36822 0.42728 0.97965 0.0
C2347 C 0.36006 0.4272 0.95682 0.0
C2348 C 0.32629 0.42514 0.93875 0.0
C2349 C 0.31347 0.41617 0.86318 0.0
C2350 C 0.32299 0.42321 0.88774 0.0
C2351 C 0.35038 0.43222 0.95972 0.0
C2352 C 0.34114 0.43103 0.93535 0.0
H2353 H 0.3087 0.39208 0.81206 0.0
H2354 H 0.3256 0.40634 0.84879 0.0
H2355 H 0.30581 0.41586 0.91833 0.0
H2356 H 0.35637 0.44174 0.02928 0.0
H2357 H 0.34179 0.44143 0.989 0.0
C2358 C 0.8765 0.58838 0.66238 0.0
C2359 C 0.88359 0.5908 0.6884 0.0
C2360 C 0.87848 0.58054 0.64118 0.0
C2361 C 0.8947 0.55778 0.625 0.0
H2362 H 0.9023 0.57683 0.55244 0.0
C2363 C 0.93218 0.55548 0.54173 0.0
C2364 C 0.92953 0.55615 0.5129 0.0
C2365 C 0.9232 0.55601 0.56225 0.0
C2366 C 0.89992 0.57114 0.57232 0.0
H2367 H 0.8976 0.58613 0.71327 0.0
H2368 H 0.9013 0.57267 0.67615 0.0
H2369 H 0.89264 0.58442 0.59061 0.0
H2370 H 0.91491 0.55714 0.4829 0.0
H2371 H 0.89909 0.55811 0.51892 0.0
H2372 H 0.90262 0.54491 0.60682 0.0
C2373 C 0.89403 0.57664 0.67215 0.0
C2374 C 0.89436 0.5755 0.59433 0.0
C2375 C 0.89193 0.58438 0.69349 0.0
C2376 C 0.91721 0.55658 0.50496 0.0
C2377 C 0.90823 0.55724 0.52559 0.0
C2378 C 0.90031 0.55344 0.60297 0.0
C2379 C 0.88774 0.57507 0.64535 0.0
C2380 C 0.89195 0.5691 0.62117 0.0
C2381 C 0.91134 0.55734 0.55451 0.0
C2382 C 0.90331 0.5603 0.57654 0.0
H2383 H 0.86991 0.59311 0.65791 0.0
H2384 H 0.87316 0.57925 0.62111 0.0
H2385 H 0.89276 0.55243 0.6452 0.0
H2386 H 0.94158 0.5551 0.54853 0.0
H2387 H 0.92603 0.55621 0.58424 0.0
C2388 C 0.40294 0.30298 0.68099 0.0
C2389 C 0.39456 0.28835 0.67502 0.0
C2390 C 0.41123 0.3126 0.65972 0.0
C2391 C 0.41144 0.31473 0.58162 0.0
H2392 H 0.44454 0.35212 0.59457 0.0
C2393 C 0.43348 0.35717 0.49372 0.0
C2394 C 0.43419 0.36996 0.50215 0.0
C2395 C 0.43228 0.34716 0.51398 0.0
C2396 C 0.43535 0.34167 0.59061 0.0
H2397 H 0.38923 0.27207 0.64322 0.0
H2398 H 0.40424 0.28864 0.60668 0.0
H2399 H 0.43593 0.3343 0.6323 0.0
H2400 H 0.43527 0.38282 0.53818 0.0
H2401 H 0.43336 0.36552 0.57334 0.0
H2402 H 0.41071 0.32218 0.54018 0.0
C2403 C 0.404 0.29288 0.62723 0.0
C2404 C 0.43035 0.33148 0.61227 0.0
C2405 C 0.3955 0.28335 0.64824 0.0
C2406 C 0.43466 0.373 0.53108 0.0
C2407 C 0.43367 0.36313 0.55125 0.0
C2408 C 0.41653 0.32484 0.55994 0.0
C2409 C 0.41145 0.30771 0.63224 0.0
C2410 C 0.41809 0.31798 0.60831 0.0
C2411 C 0.43201 0.34991 0.54295 0.0
C2412 C 0.4283 0.33854 0.5644 0.0
H2413 H 0.40231 0.3071 0.70145 0.0
H2414 H 0.41672 0.32392 0.66445 0.0
H2415 H 0.4018 0.30462 0.57776 0.0
H2416 H 0.43308 0.35456 0.47155 0.0
H2417 H 0.43109 0.33708 0.50699 0.0
C2418 C 0.61902 0.0642 0.53174 0.0
C2419 C 0.62095 0.06818 0.50316 0.0
C2420 C 0.62881 0.07298 0.55208 0.0
C2421 C 0.66675 0.10124 0.5583 0.0
H2422 H 0.65628 0.09748 0.63737 0.0
C2423 C 0.69369 0.11262 0.6784 0.0
C2424 C 0.70411 0.10884 0.67232 0.0
C2425 C 0.68427 0.112 0.65725 0.0
C2426 C 0.65949 0.09898 0.61543 0.0
H2427 H 0.63422 0.08498 0.47373 0.0
H2428 H 0.65121 0.10066 0.50952 0.0
H2429 H 0.63775 0.08912 0.60157 0.0
H2430 H 0.71322 0.10207 0.63906 0.0
H2431 H 0.69677 0.10056 0.60294 0.0
H2432 H 0.6885 0.11141 0.57213 0.0
C2433 C 0.64228 0.09051 0.51611 0.0
C2434 C 0.64879 0.09393 0.59478 0.0
C2435 C 0.63249 0.08159 0.49559 0.0
C2436 C 0.70531 0.10506 0.64453 0.0
C2437 C 0.6959 0.10433 0.6236 0.0
C2438 C 0.67746 0.10654 0.57892 0.0
C2439 C 0.64078 0.08614 0.54458 0.0
C2440 C 0.65221 0.09434 0.56597 0.0
C2441 C 0.68505 0.10753 0.62966 0.0
C2442 C 0.67396 0.10484 0.60783 0.0
H2443 H 0.61024 0.05394 0.53836 0.0
H2444 H 0.62731 0.069 0.5735 0.0
H2445 H 0.66992 0.10183 0.53646 0.0
H2446 H 0.69253 0.11562 0.69962 0.0
H2447 H 0.67619 0.11475 0.66269 0.0
C2448 C 0.77131 0.73806 0.66458 0.0
C2449 C 0.76387 0.72313 0.66797 0.0
C2450 C 0.77099 0.74692 0.68593 0.0
C2451 C 0.7593 0.76109 0.72601 0.0
H2452 H 0.75599 0.74896 0.80402 0.0
C2453 C 0.72507 0.76982 0.80618 0.0
C2454 C 0.72775 0.77016 0.83526 0.0
C2455 C 0.73395 0.76843 0.78663 0.0
C2456 C 0.75721 0.7528 0.78252 0.0
H2457 H 0.75047 0.70583 0.69654 0.0
H2458 H 0.74974 0.72105 0.73307 0.0
H2459 H 0.76373 0.73813 0.76847 0.0
H2460 H 0.74248 0.7704 0.86659 0.0
H2461 H 0.75824 0.76818 0.83228 0.0
H2462 H 0.75267 0.7757 0.74008 0.0
C2463 C 0.75605 0.72607 0.71438 0.0
C2464 C 0.76146 0.7464 0.76199 0.0
C2465 C 0.75634 0.71729 0.69319 0.0
C2466 C 0.74012 0.77011 0.84431 0.0
C2467 C 0.74907 0.76872 0.82463 0.0
C2468 C 0.75517 0.76759 0.74662 0.0
C2469 C 0.76331 0.74099 0.71109 0.0
C2470 C 0.7619 0.74998 0.73331 0.0
C2471 C 0.74581 0.76737 0.79558 0.0
C2472 C 0.75342 0.76305 0.77496 0.0
H2473 H 0.77723 0.74286 0.64538 0.0
H2474 H 0.77673 0.75838 0.68274 0.0
H2475 H 0.75958 0.76416 0.70417 0.0
H2476 H 0.71566 0.76992 0.79848 0.0
H2477 H 0.73091 0.76726 0.7646 0.0
C2478 C 0.24979 0.0223 0.65788 0.0
C2479 C 0.25954 0.03618 0.66721 0.0
C2480 C 0.24125 0.01164 0.67736 0.0
C2481 C 0.22887 0.0047 0.75209 0.0
H2482 H 0.23459 0.97219 0.74486 0.0
C2483 C 0.22423 0.96845 0.84652 0.0
C2484 C 0.22086 0.95435 0.84102 0.0
C2485 C 0.22543 0.97755 0.82425 0.0
C2486 C 0.23251 0.98096 0.74707 0.0
H2487 H 0.26713 0.0501 0.70372 0.0
H2488 H 0.25213 0.03164 0.73749 0.0
H2489 H 0.24211 0.98956 0.70705 0.0
H2490 H 0.2149 0.93829 0.80848 0.0
H2491 H 0.21619 0.95378 0.77 0.0
H2492 H 0.21945 -0.00382 0.79239 0.0
C2493 C 0.25108 0.0289 0.7153 0.0
C2494 C 0.23686 0.99097 0.72525 0.0
C2495 C 0.25974 0.03947 0.69594 0.0
C2496 C 0.2177 0.9492 0.81325 0.0
C2497 C 0.21858 0.95814 0.79114 0.0
C2498 C 0.22434 0.99457 0.77387 0.0
C2499 C 0.24216 0.01474 0.7064 0.0
C2500 C 0.23539 0.00311 0.72773 0.0
C2501 C 0.22304 0.97262 0.79611 0.0
C2502 C 0.22637 0.9827 0.77191 0.0
H2503 H 0.24947 0.01946 0.63587 0.0
H2504 H 0.23437 0.00083 0.66986 0.0
H2505 H 0.22752 0.01392 0.75452 0.0
H2506 H 0.22681 0.9727 0.86776 0.0
H2507 H 0.22899 0.98863 0.82901 0.0
C2508 C 0.96489 0.22036 0.66759 0.0
C2509 C 0.95418 0.22361 0.67459 0.0
C2510 C 0.97501 0.22175 0.68786 0.0
C2511 C 0.00051 0.23718 0.72815 0.0
H2512 H 0.99083 0.23097 0.80768 0.0
C2513 C 0.03886 0.27277 0.81393 0.0
C2514 C 0.03878 0.26733 0.8409 0.0
C2515 C 0.02931 0.26408 0.79318 0.0
C2516 C 0.99377 0.23254 0.78558 0.0
H2517 H 0.94524 0.23013 0.70858 0.0
H2518 H 0.96273 0.23262 0.74346 0.0
H2519 H 0.97188 0.22075 0.77244 0.0
H2520 H 0.02892 0.24831 0.86697 0.0
H2521 H 0.01205 0.23298 0.83047 0.0
H2522 H 0.02239 0.24919 0.74131 0.0
C2523 C 0.96337 0.2289 0.7226 0.0
C2524 C 0.98288 0.22681 0.76534 0.0
C2525 C 0.95339 0.2276 0.70244 0.0
C2526 C 0.02921 0.25281 0.84639 0.0
C2527 C 0.01953 0.24406 0.82553 0.0
C2528 C 0.01141 0.24287 0.74839 0.0
C2529 C 0.97449 0.22626 0.71553 0.0
C2530 C 0.98607 0.22958 0.73643 0.0
C2531 C 0.01935 0.24967 0.79876 0.0
C2532 C 0.00814 0.24113 0.77739 0.0
H2533 H 0.96574 0.21724 0.64629 0.0
H2534 H 0.98339 0.21955 0.68177 0.0
H2535 H 0.00339 0.23955 0.70612 0.0
H2536 H 0.04612 0.28391 0.80895 0.0
H2537 H 0.02936 0.26888 0.77308 0.0
C2538 C 0.24934 0.22602 0.1601 0.0
C2539 C 0.25918 0.22189 0.16884 0.0
C2540 C 0.24034 0.22725 0.17978 0.0
C2541 C 0.2283 0.22034 0.25535 0.0
H2542 H 0.22874 0.25624 0.24709 0.0
C2543 C 0.22376 0.25278 0.34816 0.0
C2544 C 0.21745 0.26119 0.34281 0.0
C2545 C 0.22493 0.24457 0.32654 0.0
C2546 C 0.22822 0.24602 0.24957 0.0
H2547 H 0.26655 0.21478 0.2046 0.0
H2548 H 0.25116 0.21717 0.2388 0.0
H2549 H 0.23757 0.24779 0.20905 0.0
H2550 H 0.20623 0.26658 0.31158 0.0
H2551 H 0.20799 0.25209 0.2742 0.0
H2552 H 0.21953 0.21903 0.29661 0.0
C2553 C 0.25019 0.21933 0.21684 0.0
C2554 C 0.23327 0.24114 0.22762 0.0
C2555 C 0.25912 0.21804 0.19719 0.0
C2556 C 0.21131 0.26033 0.31623 0.0
C2557 C 0.21239 0.25209 0.29476 0.0
C2558 C 0.22329 0.22529 0.27744 0.0
C2559 C 0.24105 0.22444 0.2086 0.0
C2560 C 0.23366 0.22838 0.23039 0.0
C2561 C 0.21975 0.2446 0.29927 0.0
C2562 C 0.22344 0.23833 0.27498 0.0
H2563 H 0.24909 0.22898 0.13836 0.0
H2564 H 0.23321 0.23093 0.17257 0.0
H2565 H 0.22825 0.21037 0.25807 0.0
H2566 H 0.22863 0.25327 0.36844 0.0
H2567 H 0.23071 0.23897 0.33071 0.0
C2568 C 0.77718 0.04152 0.18852 0.0
C2569 C 0.7706 0.03627 0.16224 0.0
C2570 C 0.77592 0.03214 0.2101 0.0
C2571 C 0.76304 0.99379 0.22718 0.0
H2572 H 0.75257 0.00377 0.29834 0.0
C2573 C 0.72604 0.95241 0.30841 0.0
C2574 C 0.72789 0.9557 0.33733 0.0
C2575 C 0.73501 0.96234 0.28843 0.0
C2576 C 0.75578 0.00091 0.27889 0.0
H2577 H 0.75829 0.01713 0.13734 0.0
H2578 H 0.75581 0.00068 0.17515 0.0
H2579 H 0.76149 0.02103 0.2601 0.0
H2580 H 0.74108 0.9717 0.36815 0.0
H2581 H 0.75684 0.98924 0.33303 0.0
H2582 H 0.75666 0.97337 0.24579 0.0
C2583 C 0.76214 0.01206 0.17906 0.0
C2584 C 0.76091 0.01084 0.25684 0.0
C2585 C 0.76354 0.02148 0.15734 0.0
C2586 C 0.73943 0.96888 0.346 0.0
C2587 C 0.74837 0.97893 0.32588 0.0
C2588 C 0.75786 0.98383 0.24924 0.0
C2589 C 0.76789 0.01726 0.20604 0.0
C2590 C 0.76429 0.0073 0.23045 0.0
C2591 C 0.74601 0.97589 0.29682 0.0
C2592 C 0.75382 0.98715 0.27513 0.0
H2593 H 0.78282 0.05289 0.19284 0.0
H2594 H 0.78079 0.03656 0.23033 0.0
H2595 H 0.76578 0.99078 0.20734 0.0
H2596 H 0.71726 0.94231 0.30109 0.0
H2597 H 0.73276 0.95966 0.26629 0.0
C2598 C 0.02217 0.77492 0.34967 0.0
C2599 C 0.03592 0.7785 0.34033 0.0
C2600 C 0.01162 0.77316 0.3302 0.0
C2601 C 0.00513 0.77813 0.25452 0.0
H2602 H 0.97058 0.74156 0.26489 0.0
C2603 C 0.96769 0.74507 0.16268 0.0
C2604 C 0.95317 0.73567 0.16857 0.0
C2605 C 0.97708 0.75335 0.18428 0.0
C2606 C 0.97997 0.75196 0.26179 0.0
H2607 H 0.04975 0.78422 0.30372 0.0
H2608 H 0.03149 0.78121 0.26996 0.0
H2609 H 0.98824 0.75115 0.30228 0.0
H2610 H 0.93684 0.72847 0.20094 0.0
H2611 H 0.95301 0.74324 0.2382 0.0
H2612 H -0.00303 0.77868 0.21356 0.0
C2613 C 0.02875 0.77975 0.29217 0.0
C2614 C 0.99014 0.75748 0.28337 0.0
C2615 C 0.03923 0.78141 0.31155 0.0
C2616 C 0.94802 0.73552 0.19585 0.0
C2617 C 0.95733 0.7439 0.21728 0.0
C2618 C -0.0051 0.77262 0.2329 0.0
C2619 C 0.01466 0.77505 0.30108 0.0
C2620 C 0.003 0.77047 0.27981 0.0
C2621 C 0.97209 0.75249 0.2121 0.0
C2622 C 0.98231 0.75931 0.23602 0.0
H2623 H 0.0193 0.77258 0.37172 0.0
H2624 H 0.00091 0.76972 0.3378 0.0
H2625 H 0.01486 0.78824 0.2512 0.0
H2626 H 0.97197 0.74534 0.14187 0.0
H2627 H 0.98838 0.75975 0.17945 0.0
loop_
_geom_bond_atom_site_label_1
_geom_bond_atom_site_label_2
_geom_bond_distance
_geom_bond_site_symmetry_2
_ccdc_geom_bond_type
In0 O1 2.294 . S
In0 O2 2.326 . S
In0 O6 2.266 . S
In0 O7 2.326 . S
In0 O8 2.266 . S
In0 O9 2.326 . S
In0 O11 2.294 . S
In0 O12 2.326 . S
O1 In0 2.294 . S
O1 C10 1.240 . S
O2 In0 2.326 . S
O2 C10 1.252 . S
C3 O6 1.252 . S
C3 O7 1.260 . S
C4 O11 1.240 . S
C4 O12 1.252 . S
C5 O8 1.252 . S
C5 O9 1.260 . S
O6 In0 2.266 . S
O6 C3 1.252 . S
O7 In0 2.326 . S
O7 C3 1.260 . S
O8 In0 2.266 . S
O8 C5 1.252 . S
O9 In0 2.326 . S
O9 C5 1.260 . S
C10 O1 1.240 . S
C10 O2 1.252 . S
O11 In0 2.294 . S
O11 C4 1.240 . S
O12 In0 2.326 . S
O12 C4 1.252 . S
In13 O14 2.294 . S
In13 O15 2.326 . S
In13 O19 2.266 . S
In13 O20 2.326 . S
In13 O21 2.266 . S
In13 O22 2.326 . S
In13 O24 2.294 . S
In13 O25 2.326 . S
O14 In13 2.294 . S
O14 C23 1.240 . S
O15 In13 2.326 . S
O15 C23 1.252 . S
C16 O19 1.252 . S
C16 O20 1.260 . S
C17 O24 1.240 . S
C17 O25 1.252 . S
C18 O21 1.252 . S
C18 O22 1.260 . S
O19 In13 2.266 . S
O19 C16 1.252 . S
O20 In13 2.326 . S
O20 C16 1.260 . S
O21 In13 2.266 . S
O21 C18 1.252 . S
O22 In13 2.326 . S
O22 C18 1.260 . S
C23 O14 1.240 . S
C23 O15 1.252 . S
O24 In13 2.294 . S
O24 C17 1.240 . S
O25 In13 2.326 . S
O25 C17 1.252 . S
In26 O27 2.294 . S
In26 O28 2.326 . S
In26 O32 2.266 . S
In26 O33 2.326 . S
In26 O34 2.266 . S
In26 O35 2.326 . S
In26 O37 2.294 . S
In26 O38 2.326 . S
O27 In26 2.294 . S
O27 C36 1.240 . S
O28 In26 2.326 . S
O28 C36 1.252 . S
C29 O32 1.252 . S
C29 O33 1.260 . S
C30 O37 1.240 . S
C30 O38 1.252 . S
C31 O34 1.252 . S
C31 O35 1.260 . S
O32 In26 2.266 . S
O32 C29 1.252 . S
O33 In26 2.326 . S
O33 C29 1.260 . S
O34 In26 2.266 . S
O34 C31 1.252 . S
O35 In26 2.326 . S
O35 C31 1.260 . S
C36 O27 1.240 . S
C36 O28 1.252 . S
O37 In26 2.294 . S
O37 C30 1.240 . S
O38 In26 2.326 . S
O38 C30 1.252 . S
In39 O40 2.294 . S
In39 O41 2.326 . S
In39 O45 2.266 . S
In39 O46 2.326 . S
In39 O47 2.266 . S
In39 O48 2.326 . S
In39 O50 2.294 . S
In39 O51 2.326 . S
O40 In39 2.294 . S
O40 C49 1.240 . S
O41 In39 2.326 . S
O41 C49 1.252 . S
C42 O45 1.252 . S
C42 O46 1.260 . S
C43 O50 1.240 . S
C43 O51 1.252 . S
C44 O47 1.252 . S
C44 O48 1.260 . S
O45 In39 2.266 . S
O45 C42 1.252 . S
O46 In39 2.326 . S
O46 C42 1.260 . S
O47 In39 2.266 . S
O47 C44 1.252 . S
O48 In39 2.326 . S
O48 C44 1.260 . S
C49 O40 1.240 . S
C49 O41 1.252 . S
O50 In39 2.294 . S
O50 C43 1.240 . S
O51 In39 2.326 . S
O51 C43 1.252 . S
In52 O53 2.294 . S
In52 O54 2.326 . S
In52 O58 2.266 . S
In52 O59 2.326 . S
In52 O60 2.266 . S
In52 O61 2.326 . S
In52 O63 2.294 . S
In52 O64 2.326 . S
O53 In52 2.294 . S
O53 C62 1.240 . S
O54 In52 2.326 . S
O54 C62 1.252 . S
C55 O58 1.252 . S
C55 O59 1.260 . S
C56 O63 1.240 . S
C56 O64 1.252 . S
C57 O60 1.252 . S
C57 O61 1.260 . S
O58 In52 2.266 . S
O58 C55 1.252 . S
O59 In52 2.326 . S
O59 C55 1.260 . S
O60 In52 2.266 . S
O60 C57 1.252 . S
O61 In52 2.326 . S
O61 C57 1.260 . S
C62 O53 1.240 . S
C62 O54 1.252 . S
O63 In52 2.294 . S
O63 C56 1.240 . S
O64 In52 2.326 . S
O64 C56 1.252 . S
In65 O66 2.294 . S
In65 O67 2.326 . S
In65 O71 2.266 . S
In65 O72 2.326 . S
In65 O73 2.266 . S
In65 O74 2.326 . S
In65 O76 2.294 . S
In65 O77 2.326 . S
O66 In65 2.294 . S
O66 C75 1.240 . S
O67 In65 2.326 . S
O67 C75 1.252 . S
C68 O71 1.252 . S
C68 O72 1.260 . S
C69 O76 1.240 . S
C69 O77 1.252 . S
C70 O73 1.252 . S
C70 O74 1.260 . S
O71 In65 2.266 . S
O71 C68 1.252 . S
O72 In65 2.326 . S
O72 C68 1.260 . S
O73 In65 2.266 . S
O73 C70 1.252 . S
O74 In65 2.326 . S
O74 C70 1.260 . S
C75 O66 1.240 . S
C75 O67 1.252 . S
O76 In65 2.294 . S
O76 C69 1.240 . S
O77 In65 2.326 . S
O77 C69 1.252 . S
In78 O79 2.294 . S
In78 O80 2.326 . S
In78 O84 2.266 . S
In78 O85 2.326 . S
In78 O86 2.266 . S
In78 O87 2.326 . S
In78 O89 2.294 . S
In78 O90 2.326 . S
O79 In78 2.294 . S
O79 C88 1.240 . S
O80 In78 2.326 . S
O80 C88 1.252 . S
C81 O84 1.252 . S
C81 O85 1.260 . S
C82 O89 1.240 . S
C82 O90 1.252 . S
C83 O86 1.252 . S
C83 O87 1.260 . S
O84 In78 2.266 . S
O84 C81 1.252 . S
O85 In78 2.326 . S
O85 C81 1.260 . S
O86 In78 2.266 . S
O86 C83 1.252 . S
O87 In78 2.326 . S
O87 C83 1.260 . S
C88 O79 1.240 . S
C88 O80 1.252 . S
O89 In78 2.294 . S
O89 C82 1.240 . S
O90 In78 2.326 . S
O90 C82 1.252 . S
In91 O92 2.294 . S
In91 O93 2.326 . S
In91 O97 2.266 . S
In91 O98 2.326 . S
In91 O99 2.266 . S
In91 O100 2.326 . S
In91 O102 2.294 . S
In91 O103 2.326 . S
O92 In91 2.294 . S
O92 C101 1.240 . S
O93 In91 2.326 . S
O93 C101 1.252 . S
C94 O97 1.252 . S
C94 O98 1.260 . S
C95 O102 1.240 . S
C95 O103 1.252 . S
C96 O99 1.252 . S
C96 O100 1.260 . S
O97 In91 2.266 . S
O97 C94 1.252 . S
O98 In91 2.326 . S
O98 C94 1.260 . S
O99 In91 2.266 . S
O99 C96 1.252 . S
O100 In91 2.326 . S
O100 C96 1.260 . S
C101 O92 1.240 . S
C101 O93 1.252 . S
O102 In91 2.294 . S
O102 C95 1.240 . S
O103 In91 2.326 . S
O103 C95 1.252 . S
In104 O105 2.294 . S
In104 O106 2.326 . S
In104 O110 2.266 . S
In104 O111 2.326 . S
In104 O112 2.266 . S
In104 O113 2.326 . S
In104 O115 2.294 . S
In104 O116 2.326 . S
O105 In104 2.294 . S
O105 C114 1.240 . S
O106 In104 2.326 . S
O106 C114 1.252 . S
C107 O110 1.252 . S
C107 O111 1.260 . S
C108 O115 1.240 . S
C108 O116 1.252 . S
C109 O112 1.252 . S
C109 O113 1.260 . S
O110 In104 2.266 . S
O110 C107 1.252 . S
O111 In104 2.326 . S
O111 C107 1.260 . S
O112 In104 2.266 . S
O112 C109 1.252 . S
O113 In104 2.326 . S
O113 C109 1.260 . S
C114 O105 1.240 . S
C114 O106 1.252 . S
O115 In104 2.294 . S
O115 C108 1.240 . S
O116 In104 2.326 . S
O116 C108 1.252 . S
In117 O118 2.294 . S
In117 O119 2.326 . S
In117 O123 2.266 . S
In117 O124 2.326 . S
In117 O125 2.266 . S
In117 O126 2.326 . S
In117 O128 2.294 . S
In117 O129 2.326 . S
O118 In117 2.294 . S
O118 C127 1.240 . S
O119 In117 2.326 . S
O119 C127 1.252 . S
C120 O123 1.252 . S
C120 O124 1.260 . S
C121 O128 1.240 . S
C121 O129 1.252 . S
C122 O125 1.252 . S
C122 O126 1.260 . S
O123 In117 2.266 . S
O123 C120 1.252 . S
O124 In117 2.326 . S
O124 C120 1.260 . S
O125 In117 2.266 . S
O125 C122 1.252 . S
O126 In117 2.326 . S
O126 C122 1.260 . S
C127 O118 1.240 . S
C127 O119 1.252 . S
O128 In117 2.294 . S
O128 C121 1.240 . S
O129 In117 2.326 . S
O129 C121 1.252 . S
In130 O131 2.294 . S
In130 O132 2.326 . S
In130 O136 2.266 . S
In130 O137 2.326 . S
In130 O138 2.266 . S
In130 O139 2.326 . S
In130 O141 2.294 . S
In130 O142 2.326 . S
O131 In130 2.294 . S
O131 C140 1.240 . S
O132 In130 2.326 . S
O132 C140 1.252 . S
C133 O136 1.252 . S
C133 O137 1.260 . S
C134 O141 1.240 . S
C134 O142 1.252 . S
C135 O138 1.252 . S
C135 O139 1.260 . S
O136 In130 2.266 . S
O136 C133 1.252 . S
O137 In130 2.326 . S
O137 C133 1.260 . S
O138 In130 2.266 . S
O138 C135 1.252 . S
O139 In130 2.326 . S
O139 C135 1.260 . S
C140 O131 1.240 . S
C140 O132 1.252 . S
O141 In130 2.294 . S
O141 C134 1.240 . S
O142 In130 2.326 . S
O142 C134 1.252 . S
In143 O144 2.294 . S
In143 O145 2.326 . S
In143 O149 2.266 . S
In143 O150 2.326 . S
In143 O151 2.266 . S
In143 O152 2.326 . S
In143 O154 2.294 . S
In143 O155 2.326 . S
O144 In143 2.294 . S
O144 C153 1.240 . S
O145 In143 2.326 . S
O145 C153 1.252 . S
C146 O149 1.252 . S
C146 O150 1.260 . S
C147 O154 1.240 . S
C147 O155 1.252 . S
C148 O151 1.252 . S
C148 O152 1.260 . S
O149 In143 2.266 . S
O149 C146 1.252 . S
O150 In143 2.326 . S
O150 C146 1.260 . S
O151 In143 2.266 . S
O151 C148 1.252 . S
O152 In143 2.326 . S
O152 C148 1.260 . S
C153 O144 1.240 . S
C153 O145 1.252 . S
O154 In143 2.294 . S
O154 C147 1.240 . S
O155 In143 2.326 . S
O155 C147 1.252 . S
In156 O157 2.294 . S
In156 O158 2.326 . S
In156 O162 2.266 . S
In156 O163 2.326 . S
In156 O164 2.266 . S
In156 O165 2.326 . S
In156 O167 2.294 . S
In156 O168 2.326 . S
O157 In156 2.294 . S
O157 C166 1.240 . S
O158 In156 2.326 . S
O158 C166 1.252 . S
C159 O162 1.252 . S
C159 O163 1.260 . S
C160 O167 1.240 . S
C160 O168 1.252 . S
C161 O164 1.252 . S
C161 O165 1.260 . S
O162 In156 2.266 . S
O162 C159 1.252 . S
O163 In156 2.326 . S
O163 C159 1.260 . S
O164 In156 2.266 . S
O164 C161 1.252 . S
O165 In156 2.326 . S
O165 C161 1.260 . S
C166 O157 1.240 . S
C166 O158 1.252 . S
O167 In156 2.294 . S
O167 C160 1.240 . S
O168 In156 2.326 . S
O168 C160 1.252 . S
In169 O170 2.294 . S
In169 O171 2.326 . S
In169 O175 2.266 . S
In169 O176 2.326 . S
In169 O177 2.266 . S
In169 O178 2.326 . S
In169 O180 2.294 . S
In169 O181 2.326 . S
O170 In169 2.294 . S
O170 C179 1.240 . S
O171 In169 2.326 . S
O171 C179 1.252 . S
C172 O175 1.252 . S
C172 O176 1.260 . S
C173 O180 1.240 . S
C173 O181 1.252 . S
C174 O177 1.252 . S
C174 O178 1.260 . S
O175 In169 2.266 . S
O175 C172 1.252 . S
O176 In169 2.326 . S
O176 C172 1.260 . S
O177 In169 2.266 . S
O177 C174 1.252 . S
O178 In169 2.326 . S
O178 C174 1.260 . S
C179 O170 1.240 . S
C179 O171 1.252 . S
O180 In169 2.294 . S
O180 C173 1.240 . S
O181 In169 2.326 . S
O181 C173 1.252 . S
In182 O183 2.294 . S
In182 O184 2.326 . S
In182 O188 2.266 . S
In182 O189 2.326 . S
In182 O190 2.266 . S
In182 O191 2.326 . S
In182 O193 2.294 . S
In182 O194 2.326 . S
O183 In182 2.294 . S
O183 C192 1.240 . S
O184 In182 2.326 . S
O184 C192 1.252 . S
C185 O188 1.252 . S
C185 O189 1.260 . S
C186 O193 1.240 . S
C186 O194 1.252 . S
C187 O190 1.252 . S
C187 O191 1.260 . S
O188 In182 2.266 . S
O188 C185 1.252 . S
O189 In182 2.326 . S
O189 C185 1.260 . S
O190 In182 2.266 . S
O190 C187 1.252 . S
O191 In182 2.326 . S
O191 C187 1.260 . S
C192 O183 1.240 . S
C192 O184 1.252 . S
O193 In182 2.294 . S
O193 C186 1.240 . S
O194 In182 2.326 . S
O194 C186 1.252 . S
In195 O196 2.294 . S
In195 O197 2.326 . S
In195 O201 2.266 . S
In195 O202 2.326 . S
In195 O203 2.266 . S
In195 O204 2.326 . S
In195 O206 2.294 . S
In195 O207 2.326 . S
O196 In195 2.294 . S
O196 C205 1.240 . S
O197 In195 2.326 . S
O197 C205 1.252 . S
C198 O201 1.252 . S
C198 O202 1.260 . S
C199 O206 1.240 . S
C199 O207 1.252 . S
C200 O203 1.252 . S
C200 O204 1.260 . S
O201 In195 2.266 . S
O201 C198 1.252 . S
O202 In195 2.326 . S
O202 C198 1.260 . S
O203 In195 2.266 . S
O203 C200 1.252 . S
O204 In195 2.326 . S
O204 C200 1.260 . S
C205 O196 1.240 . S
C205 O197 1.252 . S
O206 In195 2.294 . S
O206 C199 1.240 . S
O207 In195 2.326 . S
O207 C199 1.252 . S
In208 O209 2.294 . S
In208 O210 2.326 . S
In208 O214 2.266 . S
In208 O215 2.326 . S
In208 O216 2.266 . S
In208 O217 2.326 . S
In208 O219 2.294 . S
In208 O220 2.326 . S
O209 In208 2.294 . S
O209 C218 1.240 . S
O210 In208 2.326 . S
O210 C218 1.252 . S
C211 O214 1.252 . S
C211 O215 1.260 . S
C212 O219 1.240 . S
C212 O220 1.252 . S
C213 O216 1.252 . S
C213 O217 1.260 . S
O214 In208 2.266 . S
O214 C211 1.252 . S
O215 In208 2.326 . S
O215 C211 1.260 . S
O216 In208 2.266 . S
O216 C213 1.252 . S
O217 In208 2.326 . S
O217 C213 1.260 . S
C218 O209 1.240 . S
C218 O210 1.252 . S
O219 In208 2.294 . S
O219 C212 1.240 . S
O220 In208 2.326 . S
O220 C212 1.252 . S
In221 O222 2.294 . S
In221 O223 2.326 . S
In221 O227 2.266 . S
In221 O228 2.326 . S
In221 O229 2.266 . S
In221 O230 2.326 . S
In221 O232 2.294 . S
In221 O233 2.326 . S
O222 In221 2.294 . S
O222 C231 1.240 . S
O223 In221 2.326 . S
O223 C231 1.252 . S
C224 O227 1.252 . S
C224 O228 1.260 . S
C225 O232 1.240 . S
C225 O233 1.252 . S
C226 O229 1.252 . S
C226 O230 1.260 . S
O227 In221 2.266 . S
O227 C224 1.252 . S
O228 In221 2.326 . S
O228 C224 1.260 . S
O229 In221 2.266 . S
O229 C226 1.252 . S
O230 In221 2.326 . S
O230 C226 1.260 . S
C231 O222 1.240 . S
C231 O223 1.252 . S
O232 In221 2.294 . S
O232 C225 1.240 . S
O233 In221 2.326 . S
O233 C225 1.252 . S
In234 O235 2.294 . S
In234 O236 2.326 . S
In234 O240 2.266 . S
In234 O241 2.326 . S
In234 O242 2.266 . S
In234 O243 2.326 . S
In234 O245 2.294 . S
In234 O246 2.326 . S
O235 In234 2.294 . S
O235 C244 1.240 . S
O236 In234 2.326 . S
O236 C244 1.252 . S
C237 O240 1.252 . S
C237 O241 1.260 . S
C238 O245 1.240 . S
C238 O246 1.252 . S
C239 O242 1.252 . S
C239 O243 1.260 . S
O240 In234 2.266 . S
O240 C237 1.252 . S
O241 In234 2.326 . S
O241 C237 1.260 . S
O242 In234 2.266 . S
O242 C239 1.252 . S
O243 In234 2.326 . S
O243 C239 1.260 . S
C244 O235 1.240 . S
C244 O236 1.252 . S
O245 In234 2.294 . S
O245 C238 1.240 . S
O246 In234 2.326 . S
O246 C238 1.252 . S
In247 O248 2.294 . S
In247 O249 2.326 . S
In247 O253 2.266 . S
In247 O254 2.326 . S
In247 O255 2.266 . S
In247 O256 2.326 . S
In247 O258 2.294 . S
In247 O259 2.326 . S
O248 In247 2.294 . S
O248 C257 1.240 . S
O249 In247 2.326 . S
O249 C257 1.252 . S
C250 O253 1.252 . S
C250 O254 1.260 . S
C251 O258 1.240 . S
C251 O259 1.252 . S
C252 O255 1.252 . S
C252 O256 1.260 . S
O253 In247 2.266 . S
O253 C250 1.252 . S
O254 In247 2.326 . S
O254 C250 1.260 . S
O255 In247 2.266 . S
O255 C252 1.252 . S
O256 In247 2.326 . S
O256 C252 1.260 . S
C257 O248 1.240 . S
C257 O249 1.252 . S
O258 In247 2.294 . S
O258 C251 1.240 . S
O259 In247 2.326 . S
O259 C251 1.252 . S
In260 O261 2.294 . S
In260 O262 2.326 . S
In260 O266 2.266 . S
In260 O267 2.326 . S
In260 O268 2.266 . S
In260 O269 2.326 . S
In260 O271 2.294 . S
In260 O272 2.326 . S
O261 In260 2.294 . S
O261 C270 1.240 . S
O262 In260 2.326 . S
O262 C270 1.252 . S
C263 O266 1.252 . S
C263 O267 1.260 . S
C264 O271 1.240 . S
C264 O272 1.252 . S
C265 O268 1.252 . S
C265 O269 1.260 . S
O266 In260 2.266 . S
O266 C263 1.252 . S
O267 In260 2.326 . S
O267 C263 1.260 . S
O268 In260 2.266 . S
O268 C265 1.252 . S
O269 In260 2.326 . S
O269 C265 1.260 . S
C270 O261 1.240 . S
C270 O262 1.252 . S
O271 In260 2.294 . S
O271 C264 1.240 . S
O272 In260 2.326 . S
O272 C264 1.252 . S
In273 O274 2.294 . S
In273 O275 2.326 . S
In273 O279 2.266 . S
In273 O280 2.326 . S
In273 O281 2.266 . S
In273 O282 2.326 . S
In273 O284 2.294 . S
In273 O285 2.326 . S
O274 In273 2.294 . S
O274 C283 1.240 . S
O275 In273 2.326 . S
O275 C283 1.252 . S
C276 O279 1.252 . S
C276 O280 1.260 . S
C277 O284 1.240 . S
C277 O285 1.252 . S
C278 O281 1.252 . S
C278 O282 1.260 . S
O279 In273 2.266 . S
O279 C276 1.252 . S
O280 In273 2.326 . S
O280 C276 1.260 . S
O281 In273 2.266 . S
O281 C278 1.252 . S
O282 In273 2.326 . S
O282 C278 1.260 . S
C283 O274 1.240 . S
C283 O275 1.252 . S
O284 In273 2.294 . S
O284 C277 1.240 . S
O285 In273 2.326 . S
O285 C277 1.252 . S
In286 O287 2.294 . S
In286 O288 2.326 . S
In286 O292 2.266 . S
In286 O293 2.326 . S
In286 O294 2.266 . S
In286 O295 2.326 . S
In286 O297 2.294 . S
In286 O298 2.326 . S
O287 In286 2.294 . S
O287 C296 1.240 . S
O288 In286 2.326 . S
O288 C296 1.252 . S
C289 O292 1.252 . S
C289 O293 1.260 . S
C290 O297 1.240 . S
C290 O298 1.252 . S
C291 O294 1.252 . S
C291 O295 1.260 . S
O292 In286 2.266 . S
O292 C289 1.252 . S
O293 In286 2.326 . S
O293 C289 1.260 . S
O294 In286 2.266 . S
O294 C291 1.252 . S
O295 In286 2.326 . S
O295 C291 1.260 . S
C296 O287 1.240 . S
C296 O288 1.252 . S
O297 In286 2.294 . S
O297 C290 1.240 . S
O298 In286 2.326 . S
O298 C290 1.252 . S
In299 O300 2.294 . S
In299 O301 2.326 . S
In299 O305 2.266 . S
In299 O306 2.326 . S
In299 O307 2.266 . S
In299 O308 2.326 . S
In299 O310 2.294 . S
In299 O311 2.326 . S
O300 In299 2.294 . S
O300 C309 1.240 . S
O301 In299 2.326 . S
O301 C309 1.252 . S
C302 O305 1.252 . S
C302 O306 1.260 . S
C303 O310 1.240 . S
C303 O311 1.252 . S
C304 O307 1.252 . S
C304 O308 1.260 . S
O305 In299 2.266 . S
O305 C302 1.252 . S
O306 In299 2.326 . S
O306 C302 1.260 . S
O307 In299 2.266 . S
O307 C304 1.252 . S
O308 In299 2.326 . S
O308 C304 1.260 . S
C309 O300 1.240 . S
C309 O301 1.252 . S
O310 In299 2.294 . S
O310 C303 1.240 . S
O311 In299 2.326 . S
O311 C303 1.252 . S
In312 O313 2.294 . S
In312 O314 2.326 . S
In312 O318 2.266 . S
In312 O319 2.326 . S
In312 O320 2.266 . S
In312 O321 2.326 . S
In312 O323 2.294 . S
In312 O324 2.326 . S
O313 In312 2.294 . S
O313 C322 1.240 . S
O314 In312 2.326 . S
O314 C322 1.252 . S
C315 O318 1.252 . S
C315 O319 1.260 . S
C316 O323 1.240 . S
C316 O324 1.252 . S
C317 O320 1.252 . S
C317 O321 1.260 . S
O318 In312 2.266 . S
O318 C315 1.252 . S
O319 In312 2.326 . S
O319 C315 1.260 . S
O320 In312 2.266 . S
O320 C317 1.252 . S
O321 In312 2.326 . S
O321 C317 1.260 . S
C322 O313 1.240 . S
C322 O314 1.252 . S
O323 In312 2.294 . S
O323 C316 1.240 . S
O324 In312 2.326 . S
O324 C316 1.252 . S
In325 O326 2.294 . S
In325 O327 2.326 . S
In325 O331 2.266 . S
In325 O332 2.326 . S
In325 O333 2.266 . S
In325 O334 2.326 . S
In325 O336 2.294 . S
In325 O337 2.326 . S
O326 In325 2.294 . S
O326 C335 1.240 . S
O327 In325 2.326 . S
O327 C335 1.252 . S
C328 O331 1.252 . S
C328 O332 1.260 . S
C329 O336 1.240 . S
C329 O337 1.252 . S
C330 O333 1.252 . S
C330 O334 1.260 . S
O331 In325 2.266 . S
O331 C328 1.252 . S
O332 In325 2.326 . S
O332 C328 1.260 . S
O333 In325 2.266 . S
O333 C330 1.252 . S
O334 In325 2.326 . S
O334 C330 1.260 . S
C335 O326 1.240 . S
C335 O327 1.252 . S
O336 In325 2.294 . S
O336 C329 1.240 . S
O337 In325 2.326 . S
O337 C329 1.252 . S
In338 O339 2.294 . S
In338 O340 2.326 . S
In338 O344 2.266 . S
In338 O345 2.326 . S
In338 O346 2.266 . S
In338 O347 2.326 . S
In338 O349 2.294 . S
In338 O350 2.326 . S
O339 In338 2.294 . S
O339 C348 1.240 . S
O340 In338 2.326 . S
O340 C348 1.252 . S
C341 O344 1.252 . S
C341 O345 1.260 . S
C342 O349 1.240 . S
C342 O350 1.252 . S
C343 O346 1.252 . S
C343 O347 1.260 . S
O344 In338 2.266 . S
O344 C341 1.252 . S
O345 In338 2.326 . S
O345 C341 1.260 . S
O346 In338 2.266 . S
O346 C343 1.252 . S
O347 In338 2.326 . S
O347 C343 1.260 . S
C348 O339 1.240 . S
C348 O340 1.252 . S
O349 In338 2.294 . S
O349 C342 1.240 . S
O350 In338 2.326 . S
O350 C342 1.252 . S
In351 O352 2.294 . S
In351 O353 2.326 . S
In351 O357 2.266 . S
In351 O358 2.326 . S
In351 O359 2.266 . S
In351 O360 2.326 . S
In351 O362 2.294 . S
In351 O363 2.326 . S
O352 In351 2.294 . S
O352 C361 1.240 . S
O353 In351 2.326 . S
O353 C361 1.252 . S
C354 O357 1.252 . S
C354 O358 1.260 . S
C355 O362 1.240 . S
C355 O363 1.252 . S
C356 O359 1.252 . S
C356 O360 1.260 . S
O357 In351 2.266 . S
O357 C354 1.252 . S
O358 In351 2.326 . S
O358 C354 1.260 . S
O359 In351 2.266 . S
O359 C356 1.252 . S
O360 In351 2.326 . S
O360 C356 1.260 . S
C361 O352 1.240 . S
C361 O353 1.252 . S
O362 In351 2.294 . S
O362 C355 1.240 . S
O363 In351 2.326 . S
O363 C355 1.252 . S
In364 O365 2.294 . S
In364 O366 2.326 . S
In364 O370 2.266 . S
In364 O371 2.326 . S
In364 O372 2.266 . S
In364 O373 2.326 . S
In364 O375 2.294 . S
In364 O376 2.326 . S
O365 In364 2.294 . S
O365 C374 1.240 . S
O366 In364 2.326 . S
O366 C374 1.252 . S
C367 O370 1.252 . S
C367 O371 1.260 . S
C368 O375 1.240 . S
C368 O376 1.252 . S
C369 O372 1.252 . S
C369 O373 1.260 . S
O370 In364 2.266 . S
O370 C367 1.252 . S
O371 In364 2.326 . S
O371 C367 1.260 . S
O372 In364 2.266 . S
O372 C369 1.252 . S
O373 In364 2.326 . S
O373 C369 1.260 . S
C374 O365 1.240 . S
C374 O366 1.252 . S
O375 In364 2.294 . S
O375 C368 1.240 . S
O376 In364 2.326 . S
O376 C368 1.252 . S
In377 O378 2.294 . S
In377 O379 2.326 . S
In377 O383 2.266 . S
In377 O384 2.326 . S
In377 O385 2.266 . S
In377 O386 2.326 . S
In377 O388 2.294 . S
In377 O389 2.326 . S
O378 In377 2.294 . S
O378 C387 1.240 . S
O379 In377 2.326 . S
O379 C387 1.252 . S
C380 O383 1.252 . S
C380 O384 1.260 . S
C381 O388 1.240 . S
C381 O389 1.252 . S
C382 O385 1.252 . S
C382 O386 1.260 . S
O383 In377 2.266 . S
O383 C380 1.252 . S
O384 In377 2.326 . S
O384 C380 1.260 . S
O385 In377 2.266 . S
O385 C382 1.252 . S
O386 In377 2.326 . S
O386 C382 1.260 . S
C387 O378 1.240 . S
C387 O379 1.252 . S
O388 In377 2.294 . S
O388 C381 1.240 . S
O389 In377 2.326 . S
O389 C381 1.252 . S
In390 O391 2.294 . S
In390 O392 2.326 . S
In390 O396 2.266 . S
In390 O397 2.326 . S
In390 O398 2.266 . S
In390 O399 2.326 . S
In390 O401 2.294 . S
In390 O402 2.326 . S
O391 In390 2.294 . S
O391 C400 1.240 . S
O392 In390 2.326 . S
O392 C400 1.252 . S
C393 O396 1.252 . S
C393 O397 1.260 . S
C394 O401 1.240 . S
C394 O402 1.252 . S
C395 O398 1.252 . S
C395 O399 1.260 . S
O396 In390 2.266 . S
O396 C393 1.252 . S
O397 In390 2.326 . S
O397 C393 1.260 . S
O398 In390 2.266 . S
O398 C395 1.252 . S
O399 In390 2.326 . S
O399 C395 1.260 . S
C400 O391 1.240 . S
C400 O392 1.252 . S
O401 In390 2.294 . S
O401 C394 1.240 . S
O402 In390 2.326 . S
O402 C394 1.252 . S
In403 O404 2.294 . S
In403 O405 2.326 . S
In403 O409 2.266 . S
In403 O410 2.326 . S
In403 O411 2.266 . S
In403 O412 2.326 . S
In403 O414 2.294 . S
In403 O415 2.326 . S
O404 In403 2.294 . S
O404 C413 1.240 . S
O405 In403 2.326 . S
O405 C413 1.252 . S
C406 O409 1.252 . S
C406 O410 1.260 . S
C407 O414 1.240 . S
C407 O415 1.252 . S
C408 O411 1.252 . S
C408 O412 1.260 . S
O409 In403 2.266 . S
O409 C406 1.252 . S
O410 In403 2.326 . S
O410 C406 1.260 . S
O411 In403 2.266 . S
O411 C408 1.252 . S
O412 In403 2.326 . S
O412 C408 1.260 . S
C413 O404 1.240 . S
C413 O405 1.252 . S
O414 In403 2.294 . S
O414 C407 1.240 . S
O415 In403 2.326 . S
O415 C407 1.252 . S
In416 O417 2.294 . S
In416 O418 2.326 . S
In416 O422 2.266 . S
In416 O423 2.326 . S
In416 O424 2.266 . S
In416 O425 2.326 . S
In416 O427 2.294 . S
In416 O428 2.326 . S
O417 In416 2.294 . S
O417 C426 1.240 . S
O418 In416 2.326 . S
O418 C426 1.252 . S
C419 O422 1.252 . S
C419 O423 1.260 . S
C420 O427 1.240 . S
C420 O428 1.252 . S
C421 O424 1.252 . S
C421 O425 1.260 . S
O422 In416 2.266 . S
O422 C419 1.252 . S
O423 In416 2.326 . S
O423 C419 1.260 . S
O424 In416 2.266 . S
O424 C421 1.252 . S
O425 In416 2.326 . S
O425 C421 1.260 . S
C426 O417 1.240 . S
C426 O418 1.252 . S
O427 In416 2.294 . S
O427 C420 1.240 . S
O428 In416 2.326 . S
O428 C420 1.252 . S
In429 O430 2.294 . S
In429 O431 2.326 . S
In429 O435 2.266 . S
In429 O436 2.326 . S
In429 O437 2.266 . S
In429 O438 2.326 . S
In429 O440 2.294 . S
In429 O441 2.326 . S
O430 In429 2.294 . S
O430 C439 1.240 . S
O431 In429 2.326 . S
O431 C439 1.252 . S
C432 O435 1.252 . S
C432 O436 1.260 . S
C433 O440 1.240 . S
C433 O441 1.252 . S
C434 O437 1.252 . S
C434 O438 1.260 . S
O435 In429 2.266 . S
O435 C432 1.252 . S
O436 In429 2.326 . S
O436 C432 1.260 . S
O437 In429 2.266 . S
O437 C434 1.252 . S
O438 In429 2.326 . S
O438 C434 1.260 . S
C439 O430 1.240 . S
C439 O431 1.252 . S
O440 In429 2.294 . S
O440 C433 1.240 . S
O441 In429 2.326 . S
O441 C433 1.252 . S
In442 O443 2.294 . S
In442 O444 2.326 . S
In442 O448 2.266 . S
In442 O449 2.326 . S
In442 O450 2.266 . S
In442 O451 2.326 . S
In442 O453 2.294 . S
In442 O454 2.326 . S
O443 In442 2.294 . S
O443 C452 1.240 . S
O444 In442 2.326 . S
O444 C452 1.252 . S
C445 O448 1.252 . S
C445 O449 1.260 . S
C446 O453 1.240 . S
C446 O454 1.252 . S
C447 O450 1.252 . S
C447 O451 1.260 . S
O448 In442 2.266 . S
O448 C445 1.252 . S
O449 In442 2.326 . S
O449 C445 1.260 . S
O450 In442 2.266 . S
O450 C447 1.252 . S
O451 In442 2.326 . S
O451 C447 1.260 . S
C452 O443 1.240 . S
C452 O444 1.252 . S
O453 In442 2.294 . S
O453 C446 1.240 . S
O454 In442 2.326 . S
O454 C446 1.252 . S
In455 O456 2.294 . S
In455 O457 2.326 . S
In455 O461 2.266 . S
In455 O462 2.326 . S
In455 O463 2.266 . S
In455 O464 2.326 . S
In455 O466 2.294 . S
In455 O467 2.326 . S
O456 In455 2.294 . S
O456 C465 1.240 . S
O457 In455 2.326 . S
O457 C465 1.252 . S
C458 O461 1.252 . S
C458 O462 1.260 . S
C459 O466 1.240 . S
C459 O467 1.252 . S
C460 O463 1.252 . S
C460 O464 1.260 . S
O461 In455 2.266 . S
O461 C458 1.252 . S
O462 In455 2.326 . S
O462 C458 1.260 . S
O463 In455 2.266 . S
O463 C460 1.252 . S
O464 In455 2.326 . S
O464 C460 1.260 . S
C465 O456 1.240 . S
C465 O457 1.252 . S
O466 In455 2.294 . S
O466 C459 1.240 . S
O467 In455 2.326 . S
O467 C459 1.252 . S
C468 C469 1.349 . S
C468 C470 1.327 . S
C468 H493 0.950 . S
C469 C468 1.349 . S
C469 C485 1.349 . S
C470 C468 1.327 . S
C470 C489 1.429 . S
C470 H494 0.950 . S
C471 C488 1.574 1_565 S
C471 C490 1.368 . S
C471 H495 0.949 . S
H472 C476 0.949 . S
C473 C474 1.349 . S
C473 C475 1.327 . S
C473 H496 0.950 . S
C474 C473 1.349 . S
C474 C486 1.349 . S
C475 C473 1.327 . S
C475 C491 1.429 . S
C475 H497 0.950 . S
C476 H472 0.949 . S
C476 C484 1.574 1_545 S
C476 C492 1.368 . S
H477 C485 0.950 . S
H478 C483 0.950 . S
H479 C484 0.949 . S
H480 C486 0.950 . S
H481 C487 0.950 . S
H482 C488 0.949 . S
C483 H478 0.950 . S
C483 C485 1.327 . S
C483 C489 1.429 . S
C484 C476 1.574 1_565 S
C484 H479 0.949 . S
C484 C490 1.368 . S
C485 C469 1.349 . S
C485 H477 0.950 . S
C485 C483 1.327 . S
C486 C474 1.349 . S
C486 H480 0.950 . S
C486 C487 1.327 . S
C487 H481 0.950 . S
C487 C486 1.327 . S
C487 C491 1.429 . S
C488 C471 1.574 1_545 S
C488 H482 0.949 . S
C488 C492 1.368 . S
C489 C470 1.429 . S
C489 C483 1.429 . S
C489 C490 1.523 . S
C490 C471 1.368 . S
C490 C484 1.368 . S
C490 C489 1.523 . S
C491 C475 1.429 . S
C491 C487 1.429 . S
C491 C492 1.523 . S
C492 C476 1.368 . S
C492 C488 1.368 . S
C492 C491 1.523 . S
H493 C468 0.950 . S
H494 C470 0.950 . S
H495 C471 0.949 . S
H496 C473 0.950 . S
H497 C475 0.950 . S
C498 C499 1.349 . S
C498 C500 1.327 . S
C498 H523 0.950 . S
C499 C498 1.349 . S
C499 C515 1.349 . S
C500 C498 1.327 . S
C500 C519 1.429 . S
C500 H524 0.950 . S
C501 C518 1.574 1_455 S
C501 C520 1.368 . S
C501 H525 0.949 . S
H502 C506 0.949 . S
C503 C504 1.349 . S
C503 C505 1.327 . S
C503 H526 0.950 . S
C504 C503 1.349 . S
C504 C516 1.349 . S
C505 C503 1.327 . S
C505 C521 1.429 . S
C505 H527 0.950 . S
C506 H502 0.949 . S
C506 C514 1.574 1_655 S
C506 C522 1.368 . S
H507 C515 0.950 . S
H508 C513 0.950 . S
H509 C514 0.949 . S
H510 C516 0.950 . S
H511 C517 0.950 . S
H512 C518 0.949 . S
C513 H508 0.950 . S
C513 C515 1.327 . S
C513 C519 1.429 . S
C514 C506 1.574 1_455 S
C514 H509 0.949 . S
C514 C520 1.368 . S
C515 C499 1.349 . S
C515 H507 0.950 . S
C515 C513 1.327 . S
C516 C504 1.349 . S
C516 H510 0.950 . S
C516 C517 1.327 . S
C517 H511 0.950 . S
C517 C516 1.327 . S
C517 C521 1.429 . S
C518 C501 1.574 1_655 S
C518 H512 0.949 . S
C518 C522 1.368 . S
C519 C500 1.429 . S
C519 C513 1.429 . S
C519 C520 1.523 . S
C520 C501 1.368 . S
C520 C514 1.368 . S
C520 C519 1.523 . S
C521 C505 1.429 . S
C521 C517 1.429 . S
C521 C522 1.523 . S
C522 C506 1.368 . S
C522 C518 1.368 . S
C522 C521 1.523 . S
H523 C498 0.950 . S
H524 C500 0.950 . S
H525 C501 0.949 . S
H526 C503 0.950 . S
H527 C505 0.950 . S
C528 C529 1.349 . S
C528 C530 1.327 . S
C528 H553 0.950 . S
C529 C528 1.349 . S
C529 C545 1.349 . S
C530 C528 1.327 . S
C530 C549 1.429 . S
C530 H554 0.950 . S
C531 C548 1.574 . S
C531 C550 1.368 . S
C531 H555 0.949 . S
H532 C536 0.949 . S
C533 C534 1.349 . S
C533 C535 1.327 . S
C533 H556 0.950 . S
C534 C533 1.349 . S
C534 C546 1.349 . S
C535 C533 1.327 . S
C535 C551 1.429 . S
C535 H557 0.950 . S
C536 H532 0.949 . S
C536 C544 1.574 . S
C536 C552 1.368 . S
H537 C545 0.950 . S
H538 C543 0.950 . S
H539 C544 0.949 . S
H540 C546 0.950 . S
H541 C547 0.950 . S
H542 C548 0.949 . S
C543 H538 0.950 . S
C543 C545 1.327 . S
C543 C549 1.429 . S
C544 C536 1.574 . S
C544 H539 0.949 . S
C544 C550 1.368 . S
C545 C529 1.349 . S
C545 H537 0.950 . S
C545 C543 1.327 . S
C546 C534 1.349 . S
C546 H540 0.950 . S
C546 C547 1.327 . S
C547 H541 0.950 . S
C547 C546 1.327 . S
C547 C551 1.429 . S
C548 C531 1.574 . S
C548 H542 0.949 . S
C548 C552 1.368 . S
C549 C530 1.429 . S
C549 C543 1.429 . S
C549 C550 1.523 . S
C550 C531 1.368 . S
C550 C544 1.368 . S
C550 C549 1.523 . S
C551 C535 1.429 . S
C551 C547 1.429 . S
C551 C552 1.523 . S
C552 C536 1.368 . S
C552 C548 1.368 . S
C552 C551 1.523 . S
H553 C528 0.950 . S
H554 C530 0.950 . S
H555 C531 0.949 . S
H556 C533 0.950 . S
H557 C535 0.950 . S
C558 C559 1.349 . S
C558 C560 1.327 . S
C558 H583 0.950 . S
C559 C558 1.349 . S
C559 C575 1.349 . S
C560 C558 1.327 . S
C560 C579 1.429 . S
C560 H584 0.950 . S
C561 C578 1.574 1_565 S
C561 C580 1.368 . S
C561 H585 0.949 . S
H562 C566 0.949 . S
C563 C564 1.349 . S
C563 C565 1.327 . S
C563 H586 0.950 . S
C564 C563 1.349 . S
C564 C576 1.349 . S
C565 C563 1.327 . S
C565 C581 1.429 . S
C565 H587 0.950 . S
C566 H562 0.949 . S
C566 C574 1.574 1_545 S
C566 C582 1.368 . S
H567 C575 0.950 . S
H568 C573 0.950 . S
H569 C574 0.949 . S
H570 C576 0.950 . S
H571 C577 0.950 . S
H572 C578 0.949 . S
C573 H568 0.950 . S
C573 C575 1.327 . S
C573 C579 1.429 . S
C574 C566 1.574 1_565 S
C574 H569 0.949 . S
C574 C580 1.368 . S
C575 C559 1.349 . S
C575 H567 0.950 . S
C575 C573 1.327 . S
C576 C564 1.349 . S
C576 H570 0.950 . S
C576 C577 1.327 . S
C577 H571 0.950 . S
C577 C576 1.327 . S
C577 C581 1.429 . S
C578 C561 1.574 1_545 S
C578 H572 0.949 . S
C578 C582 1.368 . S
C579 C560 1.429 . S
C579 C573 1.429 . S
C579 C580 1.523 . S
C580 C561 1.368 . S
C580 C574 1.368 . S
C580 C579 1.523 . S
C581 C565 1.429 . S
C581 C577 1.429 . S
C581 C582 1.523 . S
C582 C566 1.368 . S
C582 C578 1.368 . S
C582 C581 1.523 . S
H583 C558 0.950 . S
H584 C560 0.950 . S
H585 C561 0.949 . S
H586 C563 0.950 . S
H587 C565 0.950 . S
C588 C589 1.349 . S
C588 C590 1.327 . S
C588 H613 0.950 . S
C589 C588 1.349 . S
C589 C605 1.349 . S
C590 C588 1.327 . S
C590 C609 1.429 . S
C590 H614 0.950 . S
C591 C608 1.574 1_455 S
C591 C610 1.368 . S
C591 H615 0.949 . S
H592 C596 0.949 . S
C593 C594 1.349 . S
C593 C595 1.327 . S
C593 H616 0.950 . S
C594 C593 1.349 . S
C594 C606 1.349 . S
C595 C593 1.327 . S
C595 C611 1.429 . S
C595 H617 0.950 . S
C596 H592 0.949 . S
C596 C604 1.574 1_655 S
C596 C612 1.368 . S
H597 C605 0.950 . S
H598 C603 0.950 . S
H599 C604 0.949 . S
H600 C606 0.950 . S
H601 C607 0.950 . S
H602 C608 0.949 . S
C603 H598 0.950 . S
C603 C605 1.327 . S
C603 C609 1.429 . S
C604 C596 1.574 1_455 S
C604 H599 0.949 . S
C604 C610 1.368 . S
C605 C589 1.349 . S
C605 H597 0.950 . S
C605 C603 1.327 . S
C606 C594 1.349 . S
C606 H600 0.950 . S
C606 C607 1.327 . S
C607 H601 0.950 . S
C607 C606 1.327 . S
C607 C611 1.429 . S
C608 C591 1.574 1_655 S
C608 H602 0.949 . S
C608 C612 1.368 . S
C609 C590 1.429 . S
C609 C603 1.429 . S
C609 C610 1.523 . S
C610 C591 1.368 . S
C610 C604 1.368 . S
C610 C609 1.523 . S
C611 C595 1.429 . S
C611 C607 1.429 . S
C611 C612 1.523 . S
C612 C596 1.368 . S
C612 C608 1.368 . S
C612 C611 1.523 . S
H613 C588 0.950 . S
H614 C590 0.950 . S
H615 C591 0.949 . S
H616 C593 0.950 . S
H617 C595 0.950 . S
C618 C619 1.349 . S
C618 C620 1.327 . S
C618 H643 0.950 . S
C619 C618 1.349 . S
C619 C635 1.349 . S
C620 C618 1.327 . S
C620 C639 1.429 . S
C620 H644 0.950 . S
C621 C638 1.574 . S
C621 C640 1.368 . S
C621 H645 0.949 . S
H622 C626 0.949 . S
C623 C624 1.349 . S
C623 C625 1.327 . S
C623 H646 0.950 . S
C624 C623 1.349 . S
C624 C636 1.349 . S
C625 C623 1.327 . S
C625 C641 1.429 . S
C625 H647 0.950 . S
C626 H622 0.949 . S
C626 C634 1.574 . S
C626 C642 1.368 . S
H627 C635 0.950 . S
H628 C633 0.950 . S
H629 C634 0.949 . S
H630 C636 0.950 . S
H631 C637 0.950 . S
H632 C638 0.949 . S
C633 H628 0.950 . S
C633 C635 1.327 . S
C633 C639 1.429 . S
C634 C626 1.574 . S
C634 H629 0.949 . S
C634 C640 1.368 . S
C635 C619 1.349 . S
C635 H627 0.950 . S
C635 C633 1.327 . S
C636 C624 1.349 . S
C636 H630 0.950 . S
C636 C637 1.327 . S
C637 H631 0.950 . S
C637 C636 1.327 . S
C637 C641 1.429 . S
C638 C621 1.574 . S
C638 H632 0.949 . S
C638 C642 1.368 . S
C639 C620 1.429 . S
C639 C633 1.429 . S
C639 C640 1.523 . S
C640 C621 1.368 . S
C640 C634 1.368 . S
C640 C639 1.523 . S
C641 C625 1.429 . S
C641 C637 1.429 . S
C641 C642 1.523 . S
C642 C626 1.368 . S
C642 C638 1.368 . S
C642 C641 1.523 . S
H643 C618 0.950 . S
H644 C620 0.950 . S
H645 C621 0.949 . S
H646 C623 0.950 . S
H647 C625 0.950 . S
C648 C649 1.349 . S
C648 C650 1.327 . S
C648 H673 0.950 . S
C649 C648 1.349 . S
C649 C665 1.349 . S
C650 C648 1.327 . S
C650 C669 1.429 1_455 S
C650 H674 0.950 . S
C651 C668 1.574 . S
C651 C670 1.368 . S
C651 H675 0.949 . S
H652 C656 0.949 . S
C653 C654 1.349 . S
C653 C655 1.327 . S
C653 H676 0.950 . S
C654 C653 1.349 . S
C654 C666 1.349 . S
C655 C653 1.327 . S
C655 C671 1.429 . S
C655 H677 0.950 . S
C656 H652 0.949 . S
C656 C664 1.574 . S
C656 C672 1.368 . S
H657 C665 0.950 . S
H658 C663 0.950 . S
H659 C664 0.949 . S
H660 C666 0.950 . S
H661 C667 0.950 . S
H662 C668 0.949 . S
C663 H658 0.950 . S
C663 C665 1.327 1_655 S
C663 C669 1.429 . S
C664 C656 1.574 . S
C664 H659 0.949 . S
C664 C670 1.368 . S
C665 C649 1.349 . S
C665 H657 0.950 . S
C665 C663 1.327 1_455 S
C666 C654 1.349 . S
C666 H660 0.950 . S
C666 C667 1.327 . S
C667 H661 0.950 . S
C667 C666 1.327 . S
C667 C671 1.429 . S
C668 C651 1.574 . S
C668 H662 0.949 . S
C668 C672 1.368 . S
C669 C650 1.429 1_655 S
C669 C663 1.429 . S
C669 C670 1.523 . S
C670 C651 1.368 . S
C670 C664 1.368 . S
C670 C669 1.523 . S
C671 C655 1.429 . S
C671 C667 1.429 . S
C671 C672 1.523 . S
C672 C656 1.368 . S
C672 C668 1.368 . S
C672 C671 1.523 . S
H673 C648 0.950 . S
H674 C650 0.950 . S
H675 C651 0.949 . S
H676 C653 0.950 . S
H677 C655 0.950 . S
C678 C679 1.349 . S
C678 C680 1.327 . S
C678 H703 0.950 . S
C679 C678 1.349 . S
C679 C695 1.349 . S
C680 C678 1.327 . S
C680 C699 1.429 . S
C680 H704 0.950 . S
C681 C698 1.574 . S
C681 C700 1.368 . S
C681 H705 0.949 . S
H682 C686 0.949 . S
C683 C684 1.349 . S
C683 C685 1.327 . S
C683 H706 0.950 . S
C684 C683 1.349 . S
C684 C696 1.349 . S
C685 C683 1.327 . S
C685 C701 1.429 . S
C685 H707 0.950 . S
C686 H682 0.949 . S
C686 C694 1.574 . S
C686 C702 1.368 . S
H687 C695 0.950 . S
H688 C693 0.950 . S
H689 C694 0.949 . S
H690 C696 0.950 . S
H691 C697 0.950 . S
H692 C698 0.949 . S
C693 H688 0.950 . S
C693 C695 1.327 . S
C693 C699 1.429 . S
C694 C686 1.574 . S
C694 H689 0.949 . S
C694 C700 1.368 . S
C695 C679 1.349 . S
C695 H687 0.950 . S
C695 C693 1.327 . S
C696 C684 1.349 . S
C696 H690 0.950 . S
C696 C697 1.327 . S
C697 H691 0.950 . S
C697 C696 1.327 . S
C697 C701 1.429 . S
C698 C681 1.574 . S
C698 H692 0.949 . S
C698 C702 1.368 . S
C699 C680 1.429 . S
C699 C693 1.429 . S
C699 C700 1.523 . S
C700 C681 1.368 . S
C700 C694 1.368 . S
C700 C699 1.523 . S
C701 C685 1.429 . S
C701 C697 1.429 . S
C701 C702 1.523 . S
C702 C686 1.368 . S
C702 C698 1.368 . S
C702 C701 1.523 . S
H703 C678 0.950 . S
H704 C680 0.950 . S
H705 C681 0.949 . S
H706 C683 0.950 . S
H707 C685 0.950 . S
C708 C709 1.349 . S
C708 C710 1.327 . S
C708 H733 0.950 . S
C709 C708 1.349 . S
C709 C725 1.349 . S
C710 C708 1.327 . S
C710 C729 1.429 . S
C710 H734 0.950 . S
C711 C728 1.574 . S
C711 C730 1.368 . S
C711 H735 0.949 . S
H712 C716 0.949 . S
C713 C714 1.349 . S
C713 C715 1.327 1_565 S
C713 H736 0.950 . S
C714 C713 1.349 . S
C714 C726 1.349 . S
C715 C713 1.327 1_545 S
C715 C731 1.429 . S
C715 H737 0.950 . S
C716 H712 0.949 . S
C716 C724 1.574 . S
C716 C732 1.368 . S
H717 C725 0.950 . S
H718 C723 0.950 . S
H719 C724 0.949 . S
H720 C726 0.950 . S
H721 C727 0.950 . S
H722 C728 0.949 . S
C723 H718 0.950 . S
C723 C725 1.327 . S
C723 C729 1.429 . S
C724 C716 1.574 . S
C724 H719 0.949 . S
C724 C730 1.368 . S
C725 C709 1.349 . S
C725 H717 0.950 . S
C725 C723 1.327 . S
C726 C714 1.349 . S
C726 H720 0.950 . S
C726 C727 1.327 . S
C727 H721 0.950 . S
C727 C726 1.327 . S
C727 C731 1.429 1_565 S
C728 C711 1.574 . S
C728 H722 0.949 . S
C728 C732 1.368 . S
C729 C710 1.429 . S
C729 C723 1.429 . S
C729 C730 1.523 . S
C730 C711 1.368 . S
C730 C724 1.368 . S
C730 C729 1.523 . S
C731 C715 1.429 . S
C731 C727 1.429 1_545 S
C731 C732 1.523 . S
C732 C716 1.368 . S
C732 C728 1.368 . S
C732 C731 1.523 . S
H733 C708 0.950 . S
H734 C710 0.950 . S
H735 C711 0.949 . S
H736 C713 0.950 . S
H737 C715 0.950 . S
C738 C739 1.349 . S
C738 C740 1.327 . S
C738 H763 0.950 . S
C739 C738 1.349 . S
C739 C755 1.349 . S
C740 C738 1.327 . S
C740 C759 1.429 . S
C740 H764 0.950 . S
C741 C758 1.574 . S
C741 C760 1.368 . S
C741 H765 0.949 . S
H742 C746 0.949 . S
C743 C744 1.349 . S
C743 C745 1.327 . S
C743 H766 0.950 . S
C744 C743 1.349 . S
C744 C756 1.349 . S
C745 C743 1.327 . S
C745 C761 1.429 . S
C745 H767 0.950 . S
C746 H742 0.949 . S
C746 C754 1.574 . S
C746 C762 1.368 . S
H747 C755 0.950 . S
H748 C753 0.950 . S
H749 C754 0.949 . S
H750 C756 0.950 . S
H751 C757 0.950 . S
H752 C758 0.949 . S
C753 H748 0.950 . S
C753 C755 1.327 . S
C753 C759 1.429 . S
C754 C746 1.574 . S
C754 H749 0.949 . S
C754 C760 1.368 . S
C755 C739 1.349 . S
C755 H747 0.950 . S
C755 C753 1.327 . S
C756 C744 1.349 . S
C756 H750 0.950 . S
C756 C757 1.327 . S
C757 H751 0.950 . S
C757 C756 1.327 . S
C757 C761 1.429 . S
C758 C741 1.574 . S
C758 H752 0.949 . S
C758 C762 1.368 . S
C759 C740 1.429 . S
C759 C753 1.429 . S
C759 C760 1.523 . S
C760 C741 1.368 . S
C760 C754 1.368 . S
C760 C759 1.523 . S
C761 C745 1.429 . S
C761 C757 1.429 . S
C761 C762 1.523 . S
C762 C746 1.368 . S
C762 C758 1.368 . S
C762 C761 1.523 . S
H763 C738 0.950 . S
H764 C740 0.950 . S
H765 C741 0.949 . S
H766 C743 0.950 . S
H767 C745 0.950 . S
C768 C769 1.373 . S
C768 C770 1.327 1_565 S
C768 H793 0.927 1_565 S
C769 C768 1.373 . S
C769 C785 1.349 . S
C770 C768 1.327 1_545 S
C770 C789 1.429 . S
C770 H794 0.950 . S
C771 C788 1.574 . S
C771 C790 1.368 . S
C771 H795 0.949 1_545 S
H772 C776 0.949 . S
C773 C774 1.349 . S
C773 C775 1.327 . S
C773 H796 0.950 . S
C774 C773 1.349 . S
C774 C786 1.349 . S
C775 C773 1.327 . S
C775 C791 1.429 . S
C775 H797 0.950 . S
C776 H772 0.949 . S
C776 C784 1.574 . S
C776 C792 1.368 . S
H777 C785 0.950 . S
H778 C783 0.950 . S
H779 C784 0.949 . S
H780 C786 0.950 . S
H781 C787 0.950 . S
H782 C788 0.949 . S
C783 H778 0.950 . S
C783 C785 1.327 . S
C783 C789 1.429 1_565 S
C784 C776 1.574 . S
C784 H779 0.949 . S
C784 C790 1.368 . S
C785 C769 1.349 . S
C785 H777 0.950 . S
C785 C783 1.327 . S
C786 C774 1.349 . S
C786 H780 0.950 . S
C786 C787 1.327 . S
C787 H781 0.950 . S
C787 C786 1.327 . S
C787 C791 1.429 . S
C788 C771 1.574 . S
C788 H782 0.949 . S
C788 C792 1.368 . S
C789 C770 1.429 . S
C789 C783 1.429 1_545 S
C789 C790 1.523 . S
C790 C771 1.368 . S
C790 C784 1.368 . S
C790 C789 1.523 . S
C791 C775 1.429 . S
C791 C787 1.429 . S
C791 C792 1.523 . S
C792 C776 1.368 . S
C792 C788 1.368 . S
C792 C791 1.523 . S
H793 C768 0.927 1_545 S
H794 C770 0.950 . S
H795 C771 0.949 1_565 S
H796 C773 0.950 . S
H797 C775 0.950 . S
C798 C799 1.349 . S
C798 C800 1.327 . S
C798 H823 0.950 . S
C799 C798 1.349 . S
C799 C815 1.349 . S
C800 C798 1.327 . S
C800 C819 1.429 . S
C800 H824 0.950 . S
C801 C818 1.574 . S
C801 C820 1.368 . S
C801 H825 0.949 . S
H802 C806 0.949 . S
C803 C804 1.349 . S
C803 C805 1.327 . S
C803 H826 0.950 . S
C804 C803 1.349 . S
C804 C816 1.353 . S
C805 C803 1.327 . S
C805 C821 1.429 1_455 S
C805 H827 0.950 . S
C806 H802 0.949 . S
C806 C814 1.574 . S
C806 C822 1.368 . S
H807 C815 0.950 . S
H808 C813 0.950 . S
H809 C814 0.949 . S
H810 C816 0.951 1_655 S
H811 C817 0.950 . S
H812 C818 0.949 1_455 S
C813 H808 0.950 . S
C813 C815 1.327 . S
C813 C819 1.429 . S
C814 C806 1.574 . S
C814 H809 0.949 . S
C814 C820 1.368 . S
C815 C799 1.349 . S
C815 H807 0.950 . S
C815 C813 1.327 . S
C816 C804 1.353 . S
C816 H810 0.951 1_455 S
C816 C817 1.322 1_455 S
C817 H811 0.950 . S
C817 C816 1.322 1_655 S
C817 C821 1.429 . S
C818 C801 1.574 . S
C818 H812 0.949 1_655 S
C818 C822 1.368 . S
C819 C800 1.429 . S
C819 C813 1.429 . S
C819 C820 1.523 . S
C820 C801 1.368 . S
C820 C814 1.368 . S
C820 C819 1.523 . S
C821 C805 1.429 1_655 S
C821 C817 1.429 . S
C821 C822 1.523 . S
C822 C806 1.368 . S
C822 C818 1.368 . S
C822 C821 1.523 . S
H823 C798 0.950 . S
H824 C800 0.950 . S
H825 C801 0.949 . S
H826 C803 0.950 . S
H827 C805 0.950 . S
C828 C829 1.349 . S
C828 C830 1.327 . S
C828 H853 0.950 . S
C829 C828 1.349 . S
C829 C845 1.349 . S
C830 C828 1.327 . S
C830 C849 1.429 . S
C830 H854 0.950 . S
C831 C848 1.574 . S
C831 C850 1.368 . S
C831 H855 0.949 . S
H832 C836 0.949 . S
C833 C834 1.349 . S
C833 C835 1.327 . S
C833 H856 0.950 . S
C834 C833 1.349 . S
C834 C846 1.349 . S
C835 C833 1.327 . S
C835 C851 1.429 . S
C835 H857 0.950 . S
C836 H832 0.949 . S
C836 C844 1.574 . S
C836 C852 1.368 . S
H837 C845 0.950 . S
H838 C843 0.950 . S
H839 C844 0.949 . S
H840 C846 0.950 . S
H841 C847 0.950 . S
H842 C848 0.949 . S
C843 H838 0.950 . S
C843 C845 1.327 . S
C843 C849 1.429 . S
C844 C836 1.574 . S
C844 H839 0.949 . S
C844 C850 1.368 . S
C845 C829 1.349 . S
C845 H837 0.950 . S
C845 C843 1.327 . S
C846 C834 1.349 . S
C846 H840 0.950 . S
C846 C847 1.327 . S
C847 H841 0.950 . S
C847 C846 1.327 . S
C847 C851 1.429 . S
C848 C831 1.574 . S
C848 H842 0.949 . S
C848 C852 1.368 . S
C849 C830 1.429 . S
C849 C843 1.429 . S
C849 C850 1.523 . S
C850 C831 1.368 . S
C850 C844 1.368 . S
C850 C849 1.523 . S
C851 C835 1.429 . S
C851 C847 1.429 . S
C851 C852 1.523 . S
C852 C836 1.368 . S
C852 C848 1.368 . S
C852 C851 1.523 . S
H853 C828 0.950 . S
H854 C830 0.950 . S
H855 C831 0.949 . S
H856 C833 0.950 . S
H857 C835 0.950 . S
C858 C859 1.349 . S
C858 C860 1.327 1_545 S
C858 H883 0.950 . S
C859 C858 1.349 . S
C859 C875 1.349 . S
C860 C858 1.327 1_565 S
C860 C879 1.429 . S
C860 H884 0.950 . S
C861 C878 1.574 . S
C861 C880 1.368 . S
C861 H885 0.949 . S
H862 C866 0.949 . S
C863 C864 1.349 . S
C863 C865 1.327 . S
C863 H886 0.950 . S
C864 C863 1.349 . S
C864 C876 1.349 . S
C865 C863 1.327 . S
C865 C881 1.429 . S
C865 H887 0.950 . S
C866 H862 0.949 . S
C866 C874 1.574 . S
C866 C882 1.368 . S
H867 C875 0.950 . S
H868 C873 0.950 . S
H869 C874 0.949 . S
H870 C876 0.950 . S
H871 C877 0.950 . S
H872 C878 0.949 . S
C873 H868 0.950 . S
C873 C875 1.327 . S
C873 C879 1.429 1_545 S
C874 C866 1.574 . S
C874 H869 0.949 . S
C874 C880 1.368 . S
C875 C859 1.349 . S
C875 H867 0.950 . S
C875 C873 1.327 . S
C876 C864 1.349 . S
C876 H870 0.950 . S
C876 C877 1.327 . S
C877 H871 0.950 . S
C877 C876 1.327 . S
C877 C881 1.429 . S
C878 C861 1.574 . S
C878 H872 0.949 . S
C878 C882 1.368 . S
C879 C860 1.429 . S
C879 C873 1.429 1_565 S
C879 C880 1.523 . S
C880 C861 1.368 . S
C880 C874 1.368 . S
C880 C879 1.523 . S
C881 C865 1.429 . S
C881 C877 1.429 . S
C881 C882 1.523 . S
C882 C866 1.368 . S
C882 C878 1.368 . S
C882 C881 1.523 . S
H883 C858 0.950 . S
H884 C860 0.950 . S
H885 C861 0.949 . S
H886 C863 0.950 . S
H887 C865 0.950 . S
C888 C889 1.349 . S
C888 C890 1.327 . S
C888 H913 0.950 . S
C889 C888 1.349 . S
C889 C905 1.349 . S
C890 C888 1.327 . S
C890 C909 1.429 . S
C890 H914 0.950 . S
C891 C908 1.574 . S
C891 C910 1.368 . S
C891 H915 0.949 . S
H892 C896 0.949 . S
C893 C894 1.349 . S
C893 C895 1.327 . S
C893 H916 0.950 . S
C894 C893 1.349 . S
C894 C906 1.349 1_655 S
C895 C893 1.327 . S
C895 C911 1.429 1_655 S
C895 H917 0.950 . S
C896 H892 0.949 . S
C896 C904 1.574 . S
C896 C912 1.368 . S
H897 C905 0.950 . S
H898 C903 0.950 . S
H899 C904 0.949 . S
H900 C906 0.950 . S
H901 C907 0.950 . S
H902 C908 0.949 1_655 S
C903 H898 0.950 . S
C903 C905 1.327 . S
C903 C909 1.429 . S
C904 C896 1.574 . S
C904 H899 0.949 . S
C904 C910 1.368 . S
C905 C889 1.349 . S
C905 H897 0.950 . S
C905 C903 1.327 . S
C906 C894 1.349 1_455 S
C906 H900 0.950 . S
C906 C907 1.327 . S
C907 H901 0.950 . S
C907 C906 1.327 . S
C907 C911 1.429 . S
C908 C891 1.574 . S
C908 H902 0.949 1_455 S
C908 C912 1.368 . S
C909 C890 1.429 . S
C909 C903 1.429 . S
C909 C910 1.523 . S
C910 C891 1.368 . S
C910 C904 1.368 . S
C910 C909 1.523 . S
C911 C895 1.429 1_455 S
C911 C907 1.429 . S
C911 C912 1.523 . S
C912 C896 1.368 . S
C912 C908 1.368 . S
C912 C911 1.523 . S
H913 C888 0.950 . S
H914 C890 0.950 . S
H915 C891 0.949 . S
H916 C893 0.950 . S
H917 C895 0.950 . S
C918 C919 1.349 . S
C918 C920 1.327 . S
C918 H943 0.950 . S
C919 C918 1.349 . S
C919 C935 1.349 . S
C920 C918 1.327 . S
C920 C939 1.429 . S
C920 H944 0.950 . S
C921 C938 1.574 . S
C921 C940 1.368 . S
C921 H945 0.949 . S
H922 C926 0.949 . S
C923 C924 1.349 . S
C923 C925 1.327 . S
C923 H946 0.950 . S
C924 C923 1.349 . S
C924 C936 1.349 . S
C925 C923 1.327 . S
C925 C941 1.429 1_655 S
C925 H947 0.950 . S
C926 H922 0.949 . S
C926 C934 1.574 . S
C926 C942 1.368 . S
H927 C935 0.950 . S
H928 C933 0.950 . S
H929 C934 0.949 . S
H930 C936 0.996 . S
H931 C937 0.950 . S
H932 C938 0.992 . S
C933 H928 0.950 . S
C933 C935 1.327 . S
C933 C939 1.429 . S
C934 C926 1.574 . S
C934 H929 0.949 . S
C934 C940 1.368 . S
C935 C919 1.349 . S
C935 H927 0.950 . S
C935 C933 1.327 . S
C936 C924 1.349 . S
C936 H930 0.996 . S
C936 C937 1.327 1_655 S
C937 H931 0.950 . S
C937 C936 1.327 1_455 S
C937 C941 1.429 . S
C938 C921 1.574 . S
C938 H932 0.992 . S
C938 C942 1.368 . S
C939 C920 1.429 . S
C939 C933 1.429 . S
C939 C940 1.523 . S
C940 C921 1.368 . S
C940 C934 1.368 . S
C940 C939 1.523 . S
C941 C925 1.429 1_455 S
C941 C937 1.429 . S
C941 C942 1.523 . S
C942 C926 1.368 . S
C942 C938 1.368 . S
C942 C941 1.523 . S
H943 C918 0.950 . S
H944 C920 0.950 . S
H945 C921 0.949 . S
H946 C923 0.950 . S
H947 C925 0.950 . S
C948 C949 1.349 . S
C948 C950 1.327 . S
C948 H973 0.950 . S
C949 C948 1.349 . S
C949 C965 1.349 . S
C950 C948 1.327 . S
C950 C969 1.429 . S
C950 H974 0.950 . S
C951 C968 1.574 . S
C951 C970 1.368 . S
C951 H975 0.949 . S
H952 C956 0.949 . S
C953 C954 1.349 . S
C953 C955 1.327 . S
C953 H976 0.950 . S
C954 C953 1.349 . S
C954 C966 1.349 . S
C955 C953 1.327 . S
C955 C971 1.429 . S
C955 H977 0.950 . S
C956 H952 0.949 . S
C956 C964 1.574 . S
C956 C972 1.368 . S
H957 C965 0.950 . S
H958 C963 0.950 . S
H959 C964 0.949 . S
H960 C966 0.950 . S
H961 C967 0.950 . S
H962 C968 0.949 . S
C963 H958 0.950 . S
C963 C965 1.327 . S
C963 C969 1.429 . S
C964 C956 1.574 . S
C964 H959 0.949 . S
C964 C970 1.368 . S
C965 C949 1.349 . S
C965 H957 0.950 . S
C965 C963 1.327 . S
C966 C954 1.349 . S
C966 H960 0.950 . S
C966 C967 1.327 . S
C967 H961 0.950 . S
C967 C966 1.327 . S
C967 C971 1.429 . S
C968 C951 1.574 . S
C968 H962 0.949 . S
C968 C972 1.368 . S
C969 C950 1.429 . S
C969 C963 1.429 . S
C969 C970 1.523 . S
C970 C951 1.368 . S
C970 C964 1.368 . S
C970 C969 1.523 . S
C971 C955 1.429 . S
C971 C967 1.429 . S
C971 C972 1.523 . S
C972 C956 1.368 . S
C972 C968 1.368 . S
C972 C971 1.523 . S
H973 C948 0.950 . S
H974 C950 0.950 . S
H975 C951 0.949 . S
H976 C953 0.950 . S
H977 C955 0.950 . S
C978 C979 1.349 . S
C978 C980 1.327 . S
C978 H1003 0.950 . S
C979 C978 1.349 . S
C979 C995 1.349 . S
C980 C978 1.327 . S
C980 C999 1.429 . S
C980 H1004 0.950 . S
C981 C998 1.574 . S
C981 C1000 1.368 . S
C981 H1005 0.949 . S
H982 C986 0.949 . S
C983 C984 1.349 . S
C983 C985 1.327 1_545 S
C983 H1006 0.950 . S
C984 C983 1.349 . S
C984 C996 1.349 . S
C985 C983 1.327 1_565 S
C985 C1001 1.429 . S
C985 H1007 0.950 . S
C986 H982 0.949 . S
C986 C994 1.574 . S
C986 C1002 1.368 . S
H987 C995 0.950 . S
H988 C993 0.950 . S
H989 C994 0.949 . S
H990 C996 0.950 . S
H991 C997 0.950 . S
H992 C998 0.949 . S
C993 H988 0.950 . S
C993 C995 1.327 . S
C993 C999 1.429 . S
C994 C986 1.574 . S
C994 H989 0.949 . S
C994 C1000 1.368 . S
C995 C979 1.349 . S
C995 H987 0.950 . S
C995 C993 1.327 . S
C996 C984 1.349 . S
C996 H990 0.950 . S
C996 C997 1.327 . S
C997 H991 0.950 . S
C997 C996 1.327 . S
C997 C1001 1.429 1_545 S
C998 C981 1.574 . S
C998 H992 0.949 . S
C998 C1002 1.368 . S
C999 C980 1.429 . S
C999 C993 1.429 . S
C999 C1000 1.523 . S
C1000 C981 1.368 . S
C1000 C994 1.368 . S
C1000 C999 1.523 . S
C1001 C985 1.429 . S
C1001 C997 1.429 1_565 S
C1001 C1002 1.523 . S
C1002 C986 1.368 . S
C1002 C998 1.368 . S
C1002 C1001 1.523 . S
H1003 C978 0.950 . S
H1004 C980 0.950 . S
H1005 C981 0.949 . S
H1006 C983 0.950 . S
H1007 C985 0.950 . S
C1008 C1009 1.349 . S
C1008 C1010 1.327 . S
C1008 H1033 0.950 . S
C1009 C1008 1.349 . S
C1009 C1025 1.349 . S
C1010 C1008 1.327 . S
C1010 C1029 1.429 . S
C1010 H1034 0.950 . S
C1011 C1028 1.574 . S
C1011 C1030 1.368 . S
C1011 H1035 0.949 . S
H1012 C1016 0.949 . S
C1013 C1014 1.349 . S
C1013 C1015 1.327 . S
C1013 H1036 0.950 . S
C1014 C1013 1.349 . S
C1014 C1026 1.349 . S
C1015 C1013 1.327 . S
C1015 C1031 1.429 . S
C1015 H1037 0.950 . S
C1016 H1012 0.949 . S
C1016 C1024 1.574 . S
C1016 C1032 1.368 . S
H1017 C1025 0.950 . S
H1018 C1023 0.950 . S
H1019 C1024 0.949 . S
H1020 C1026 0.950 . S
H1021 C1027 0.950 . S
H1022 C1028 0.949 . S
C1023 H1018 0.950 . S
C1023 C1025 1.327 . S
C1023 C1029 1.429 . S
C1024 C1016 1.574 . S
C1024 H1019 0.949 . S
C1024 C1030 1.368 . S
C1025 C1009 1.349 . S
C1025 H1017 0.950 . S
C1025 C1023 1.327 . S
C1026 C1014 1.349 . S
C1026 H1020 0.950 . S
C1026 C1027 1.327 . S
C1027 H1021 0.950 . S
C1027 C1026 1.327 . S
C1027 C1031 1.429 . S
C1028 C1011 1.574 . S
C1028 H1022 0.949 . S
C1028 C1032 1.368 . S
C1029 C1010 1.429 . S
C1029 C1023 1.429 . S
C1029 C1030 1.523 . S
C1030 C1011 1.368 . S
C1030 C1024 1.368 . S
C1030 C1029 1.523 . S
C1031 C1015 1.429 . S
C1031 C1027 1.429 . S
C1031 C1032 1.523 . S
C1032 C1016 1.368 . S
C1032 C1028 1.368 . S
C1032 C1031 1.523 . S
H1033 C1008 0.950 . S
H1034 C1010 0.950 . S
H1035 C1011 0.949 . S
H1036 C1013 0.950 . S
H1037 C1015 0.950 . S
C1038 C1039 1.349 . S
C1038 C1040 1.327 . S
C1038 H1063 0.950 . S
C1039 C1038 1.349 . S
C1039 C1055 1.349 . S
C1040 C1038 1.327 . S
C1040 C1059 1.429 . S
C1040 H1064 0.950 . S
C1041 C1058 1.574 . S
C1041 C1060 1.368 . S
C1041 H1065 0.949 . S
H1042 C1046 0.949 . S
C1043 C1044 1.349 . S
C1043 C1045 1.327 . S
C1043 H1066 0.950 . S
C1044 C1043 1.349 . S
C1044 C1056 1.349 . S
C1045 C1043 1.327 . S
C1045 C1061 1.429 . S
C1045 H1067 0.950 . S
C1046 H1042 0.949 . S
C1046 C1054 1.574 . S
C1046 C1062 1.368 . S
H1047 C1055 0.950 . S
H1048 C1053 0.950 . S
H1049 C1054 0.949 . S
H1050 C1056 0.950 . S
H1051 C1057 0.950 . S
H1052 C1058 0.949 . S
C1053 H1048 0.950 . S
C1053 C1055 1.327 . S
C1053 C1059 1.429 . S
C1054 C1046 1.574 . S
C1054 H1049 0.949 . S
C1054 C1060 1.368 . S
C1055 C1039 1.349 . S
C1055 H1047 0.950 . S
C1055 C1053 1.327 . S
C1056 C1044 1.349 . S
C1056 H1050 0.950 . S
C1056 C1057 1.327 . S
C1057 H1051 0.950 . S
C1057 C1056 1.327 . S
C1057 C1061 1.429 . S
C1058 C1041 1.574 . S
C1058 H1052 0.949 . S
C1058 C1062 1.368 . S
C1059 C1040 1.429 . S
C1059 C1053 1.429 . S
C1059 C1060 1.523 . S
C1060 C1041 1.368 . S
C1060 C1054 1.368 . S
C1060 C1059 1.523 . S
C1061 C1045 1.429 . S
C1061 C1057 1.429 . S
C1061 C1062 1.523 . S
C1062 C1046 1.368 . S
C1062 C1058 1.368 . S
C1062 C1061 1.523 . S
H1063 C1038 0.950 . S
H1064 C1040 0.950 . S
H1065 C1041 0.949 . S
H1066 C1043 0.950 . S
H1067 C1045 0.950 . S
C1068 C1069 1.349 . S
C1068 C1070 1.327 . S
C1068 H1093 0.950 . S
C1069 C1068 1.349 . S
C1069 C1085 1.349 . S
C1070 C1068 1.327 . S
C1070 C1089 1.429 . S
C1070 H1094 0.950 . S
C1071 C1088 1.574 . S
C1071 C1090 1.368 . S
C1071 H1095 0.949 . S
H1072 C1076 0.949 . S
C1073 C1074 1.349 . S
C1073 C1075 1.327 . S
C1073 H1096 0.950 . S
C1074 C1073 1.349 . S
C1074 C1086 1.349 . S
C1075 C1073 1.327 . S
C1075 C1091 1.429 . S
C1075 H1097 0.950 . S
C1076 H1072 0.949 . S
C1076 C1084 1.574 . S
C1076 C1092 1.368 . S
H1077 C1085 0.950 . S
H1078 C1083 0.950 . S
H1079 C1084 0.949 . S
H1080 C1086 0.950 . S
H1081 C1087 0.950 . S
H1082 C1088 0.949 . S
C1083 H1078 0.950 . S
C1083 C1085 1.327 . S
C1083 C1089 1.429 . S
C1084 C1076 1.574 . S
C1084 H1079 0.949 . S
C1084 C1090 1.368 . S
C1085 C1069 1.349 . S
C1085 H1077 0.950 . S
C1085 C1083 1.327 . S
C1086 C1074 1.349 . S
C1086 H1080 0.950 . S
C1086 C1087 1.327 . S
C1087 H1081 0.950 . S
C1087 C1086 1.327 . S
C1087 C1091 1.429 . S
C1088 C1071 1.574 . S
C1088 H1082 0.949 . S
C1088 C1092 1.368 . S
C1089 C1070 1.429 . S
C1089 C1083 1.429 . S
C1089 C1090 1.523 . S
C1090 C1071 1.368 . S
C1090 C1084 1.368 . S
C1090 C1089 1.523 . S
C1091 C1075 1.429 . S
C1091 C1087 1.429 . S
C1091 C1092 1.523 . S
C1092 C1076 1.368 . S
C1092 C1088 1.368 . S
C1092 C1091 1.523 . S
H1093 C1068 0.950 . S
H1094 C1070 0.950 . S
H1095 C1071 0.949 . S
H1096 C1073 0.950 . S
H1097 C1075 0.950 . S
C1098 C1099 1.349 . S
C1098 C1100 1.327 . S
C1098 H1123 0.950 . S
C1099 C1098 1.349 . S
C1099 C1115 1.349 . S
C1100 C1098 1.327 . S
C1100 C1119 1.429 . S
C1100 H1124 0.950 . S
C1101 C1118 1.574 . S
C1101 C1120 1.368 . S
C1101 H1125 0.949 . S
H1102 C1106 0.949 . S
C1103 C1104 1.349 1_554 S
C1103 C1105 1.327 . S
C1103 H1126 0.952 . S
C1104 C1103 1.349 1_556 S
C1104 C1116 1.349 . S
C1105 C1103 1.327 . S
C1105 C1121 1.429 . S
C1105 H1127 0.950 . S
C1106 H1102 0.949 . S
C1106 C1114 1.574 . S
C1106 C1122 1.368 . S
H1107 C1115 0.950 . S
H1108 C1113 0.950 . S
H1109 C1114 0.949 . S
H1110 C1116 0.950 . S
H1111 C1117 0.950 . S
H1112 C1118 0.949 . S
C1113 H1108 0.950 . S
C1113 C1115 1.327 . S
C1113 C1119 1.429 . S
C1114 C1106 1.574 . S
C1114 H1109 0.949 . S
C1114 C1120 1.368 . S
C1115 C1099 1.349 . S
C1115 H1107 0.950 . S
C1115 C1113 1.327 . S
C1116 C1104 1.349 . S
C1116 H1110 0.950 . S
C1116 C1117 1.327 1_556 S
C1117 H1111 0.950 . S
C1117 C1116 1.327 1_554 S
C1117 C1121 1.429 . S
C1118 C1101 1.574 . S
C1118 H1112 0.949 . S
C1118 C1122 1.368 . S
C1119 C1100 1.429 . S
C1119 C1113 1.429 . S
C1119 C1120 1.523 . S
C1120 C1101 1.368 . S
C1120 C1114 1.368 . S
C1120 C1119 1.523 . S
C1121 C1105 1.429 . S
C1121 C1117 1.429 . S
C1121 C1122 1.523 . S
C1122 C1106 1.368 . S
C1122 C1118 1.368 . S
C1122 C1121 1.523 . S
H1123 C1098 0.950 . S
H1124 C1100 0.950 . S
H1125 C1101 0.949 . S
H1126 C1103 0.952 . S
H1127 C1105 0.950 . S
C1128 C1129 1.349 . S
C1128 C1130 1.327 . S
C1128 H1153 0.950 . S
C1129 C1128 1.349 . S
C1129 C1145 1.349 . S
C1130 C1128 1.327 . S
C1130 C1149 1.429 . S
C1130 H1154 0.950 . S
C1131 C1148 1.574 . S
C1131 C1150 1.368 . S
C1131 H1155 0.949 . S
H1132 C1136 0.949 . S
C1133 C1134 1.349 . S
C1133 C1135 1.327 1_556 S
C1133 H1156 0.950 . S
C1134 C1133 1.349 . S
C1134 C1146 1.349 1_556 S
C1135 C1133 1.327 1_554 S
C1135 C1151 1.429 . S
C1135 H1157 0.950 . S
C1136 H1132 0.949 . S
C1136 C1144 1.574 . S
C1136 C1152 1.368 . S
H1137 C1145 0.950 . S
H1138 C1143 0.950 . S
H1139 C1144 0.949 . S
H1140 C1146 0.950 . S
H1141 C1147 0.950 . S
H1142 C1148 0.949 . S
C1143 H1138 0.950 . S
C1143 C1145 1.327 . S
C1143 C1149 1.429 . S
C1144 C1136 1.574 . S
C1144 H1139 0.949 . S
C1144 C1150 1.368 . S
C1145 C1129 1.349 . S
C1145 H1137 0.950 . S
C1145 C1143 1.327 . S
C1146 C1134 1.349 1_554 S
C1146 H1140 0.950 . S
C1146 C1147 1.327 . S
C1147 H1141 0.950 . S
C1147 C1146 1.327 . S
C1147 C1151 1.429 . S
C1148 C1131 1.574 . S
C1148 H1142 0.949 . S
C1148 C1152 1.368 . S
C1149 C1130 1.429 . S
C1149 C1143 1.429 . S
C1149 C1150 1.523 . S
C1150 C1131 1.368 . S
C1150 C1144 1.368 . S
C1150 C1149 1.523 . S
C1151 C1135 1.429 . S
C1151 C1147 1.429 . S
C1151 C1152 1.523 . S
C1152 C1136 1.368 . S
C1152 C1148 1.368 . S
C1152 C1151 1.523 . S
H1153 C1128 0.950 . S
H1154 C1130 0.950 . S
H1155 C1131 0.949 . S
H1156 C1133 0.950 . S
H1157 C1135 0.950 . S
C1158 C1159 1.349 . S
C1158 C1160 1.327 . S
C1158 H1183 0.950 . S
C1159 C1158 1.349 . S
C1159 C1175 1.349 . S
C1160 C1158 1.327 . S
C1160 C1179 1.429 . S
C1160 H1184 0.950 . S
C1161 C1178 1.574 . S
C1161 C1180 1.368 . S
C1161 H1185 0.949 . S
H1162 C1166 0.949 . S
C1163 C1164 1.349 . S
C1163 C1165 1.327 1_556 S
C1163 H1186 0.950 . S
C1164 C1163 1.349 . S
C1164 C1176 1.349 1_556 S
C1165 C1163 1.327 1_554 S
C1165 C1181 1.429 . S
C1165 H1187 0.950 . S
C1166 H1162 0.949 . S
C1166 C1174 1.574 . S
C1166 C1182 1.368 . S
H1167 C1175 0.950 . S
H1168 C1173 0.950 . S
H1169 C1174 0.949 . S
H1170 C1176 0.950 1_556 S
H1171 C1177 0.950 . S
H1172 C1178 0.949 . S
C1173 H1168 0.950 . S
C1173 C1175 1.327 . S
C1173 C1179 1.429 . S
C1174 C1166 1.574 . S
C1174 H1169 0.949 . S
C1174 C1180 1.368 . S
C1175 C1159 1.349 . S
C1175 H1167 0.950 . S
C1175 C1173 1.327 . S
C1176 C1164 1.349 1_554 S
C1176 H1170 0.950 1_554 S
C1176 C1177 1.327 . S
C1177 H1171 0.950 . S
C1177 C1176 1.327 . S
C1177 C1181 1.429 . S
C1178 C1161 1.574 . S
C1178 H1172 0.949 . S
C1178 C1182 1.368 . S
C1179 C1160 1.429 . S
C1179 C1173 1.429 . S
C1179 C1180 1.523 . S
C1180 C1161 1.368 . S
C1180 C1174 1.368 . S
C1180 C1179 1.523 . S
C1181 C1165 1.429 . S
C1181 C1177 1.429 . S
C1181 C1182 1.523 . S
C1182 C1166 1.368 . S
C1182 C1178 1.368 . S
C1182 C1181 1.523 . S
H1183 C1158 0.950 . S
H1184 C1160 0.950 . S
H1185 C1161 0.949 . S
H1186 C1163 0.950 . S
H1187 C1165 0.950 . S
C1188 C1189 1.349 . S
C1188 C1190 1.327 . S
C1188 H1213 0.950 . S
C1189 C1188 1.349 . S
C1189 C1205 1.349 . S
C1190 C1188 1.327 . S
C1190 C1209 1.429 . S
C1190 H1214 0.950 . S
C1191 C1208 1.574 . S
C1191 C1210 1.368 . S
C1191 H1215 0.949 . S
H1192 C1196 0.949 . S
C1193 C1194 1.349 . S
C1193 C1195 1.327 . S
C1193 H1216 0.950 . S
C1194 C1193 1.349 . S
C1194 C1206 1.349 . S
C1195 C1193 1.327 . S
C1195 C1211 1.429 . S
C1195 H1217 0.950 . S
C1196 H1192 0.949 . S
C1196 C1204 1.574 . S
C1196 C1212 1.368 . S
H1197 C1205 0.950 . S
H1198 C1203 0.950 . S
H1199 C1204 0.949 . S
H1200 C1206 0.950 . S
H1201 C1207 0.950 . S
H1202 C1208 0.949 . S
C1203 H1198 0.950 . S
C1203 C1205 1.327 . S
C1203 C1209 1.429 . S
C1204 C1196 1.574 . S
C1204 H1199 0.949 . S
C1204 C1210 1.368 . S
C1205 C1189 1.349 . S
C1205 H1197 0.950 . S
C1205 C1203 1.327 . S
C1206 C1194 1.349 . S
C1206 H1200 0.950 . S
C1206 C1207 1.327 . S
C1207 H1201 0.950 . S
C1207 C1206 1.327 . S
C1207 C1211 1.429 . S
C1208 C1191 1.574 . S
C1208 H1202 0.949 . S
C1208 C1212 1.368 . S
C1209 C1190 1.429 . S
C1209 C1203 1.429 . S
C1209 C1210 1.523 . S
C1210 C1191 1.368 . S
C1210 C1204 1.368 . S
C1210 C1209 1.523 . S
C1211 C1195 1.429 . S
C1211 C1207 1.429 . S
C1211 C1212 1.523 . S
C1212 C1196 1.368 . S
C1212 C1208 1.368 . S
C1212 C1211 1.523 . S
H1213 C1188 0.950 . S
H1214 C1190 0.950 . S
H1215 C1191 0.949 . S
H1216 C1193 0.950 . S
H1217 C1195 0.950 . S
C1218 C1219 1.349 . S
C1218 C1220 1.327 . S
C1218 H1243 0.950 . S
C1219 C1218 1.349 . S
C1219 C1235 1.349 . S
C1220 C1218 1.327 . S
C1220 C1239 1.429 . S
C1220 H1244 0.950 . S
C1221 C1238 1.574 . S
C1221 C1240 1.368 . S
C1221 H1245 0.949 . S
H1222 C1226 0.949 . S
C1223 C1224 1.349 . S
C1223 C1225 1.327 . S
C1223 H1246 0.950 . S
C1224 C1223 1.349 . S
C1224 C1236 1.349 . S
C1225 C1223 1.327 . S
C1225 C1241 1.429 . S
C1225 H1247 0.950 . S
C1226 H1222 0.949 . S
C1226 C1234 1.574 . S
C1226 C1242 1.368 . S
H1227 C1235 0.950 . S
H1228 C1233 0.950 . S
H1229 C1234 0.949 . S
H1230 C1236 0.950 . S
H1231 C1237 0.950 . S
H1232 C1238 0.949 . S
C1233 H1228 0.950 . S
C1233 C1235 1.327 . S
C1233 C1239 1.429 . S
C1234 C1226 1.574 . S
C1234 H1229 0.949 . S
C1234 C1240 1.368 . S
C1235 C1219 1.349 . S
C1235 H1227 0.950 . S
C1235 C1233 1.327 . S
C1236 C1224 1.349 . S
C1236 H1230 0.950 . S
C1236 C1237 1.327 . S
C1237 H1231 0.950 . S
C1237 C1236 1.327 . S
C1237 C1241 1.429 . S
C1238 C1221 1.574 . S
C1238 H1232 0.949 . S
C1238 C1242 1.368 . S
C1239 C1220 1.429 . S
C1239 C1233 1.429 . S
C1239 C1240 1.523 . S
C1240 C1221 1.368 . S
C1240 C1234 1.368 . S
C1240 C1239 1.523 . S
C1241 C1225 1.429 . S
C1241 C1237 1.429 . S
C1241 C1242 1.523 . S
C1242 C1226 1.368 . S
C1242 C1238 1.368 . S
C1242 C1241 1.523 . S
H1243 C1218 0.950 . S
H1244 C1220 0.950 . S
H1245 C1221 0.949 . S
H1246 C1223 0.950 . S
H1247 C1225 0.950 . S
C1248 C1249 1.349 . S
C1248 C1250 1.327 . S
C1248 H1273 0.950 . S
C1249 C1248 1.349 . S
C1249 C1265 1.349 . S
C1250 C1248 1.327 . S
C1250 C1269 1.429 . S
C1250 H1274 0.950 . S
C1251 C1268 1.574 . S
C1251 C1270 1.368 . S
C1251 H1275 0.949 . S
H1252 C1256 0.949 . S
C1253 C1254 1.349 . S
C1253 C1255 1.327 . S
C1253 H1276 0.950 . S
C1254 C1253 1.349 . S
C1254 C1266 1.349 . S
C1255 C1253 1.327 . S
C1255 C1271 1.429 . S
C1255 H1277 0.950 . S
C1256 H1252 0.949 . S
C1256 C1264 1.574 . S
C1256 C1272 1.368 . S
H1257 C1265 0.950 . S
H1258 C1263 0.950 . S
H1259 C1264 0.949 . S
H1260 C1266 0.950 . S
H1261 C1267 0.950 . S
H1262 C1268 0.949 . S
C1263 H1258 0.950 . S
C1263 C1265 1.327 . S
C1263 C1269 1.429 . S
C1264 C1256 1.574 . S
C1264 H1259 0.949 . S
C1264 C1270 1.368 . S
C1265 C1249 1.349 . S
C1265 H1257 0.950 . S
C1265 C1263 1.327 . S
C1266 C1254 1.349 . S
C1266 H1260 0.950 . S
C1266 C1267 1.327 . S
C1267 H1261 0.950 . S
C1267 C1266 1.327 . S
C1267 C1271 1.429 . S
C1268 C1251 1.574 . S
C1268 H1262 0.949 . S
C1268 C1272 1.368 . S
C1269 C1250 1.429 . S
C1269 C1263 1.429 . S
C1269 C1270 1.523 . S
C1270 C1251 1.368 . S
C1270 C1264 1.368 . S
C1270 C1269 1.523 . S
C1271 C1255 1.429 . S
C1271 C1267 1.429 . S
C1271 C1272 1.523 . S
C1272 C1256 1.368 . S
C1272 C1268 1.368 . S
C1272 C1271 1.523 . S
H1273 C1248 0.950 . S
H1274 C1250 0.950 . S
H1275 C1251 0.949 . S
H1276 C1253 0.950 . S
H1277 C1255 0.950 . S
C1278 C1279 1.349 1_556 S
C1278 C1280 1.327 . S
C1278 H1303 0.950 . S
C1279 C1278 1.349 1_554 S
C1279 C1295 1.349 . S
C1280 C1278 1.327 . S
C1280 C1299 1.429 . S
C1280 H1304 0.950 . S
C1281 C1298 1.574 . S
C1281 C1300 1.368 . S
C1281 H1305 0.949 . S
H1282 C1286 0.949 . S
C1283 C1284 1.349 . S
C1283 C1285 1.327 . S
C1283 H1306 0.950 . S
C1284 C1283 1.349 . S
C1284 C1296 1.349 . S
C1285 C1283 1.327 . S
C1285 C1301 1.429 . S
C1285 H1307 0.950 . S
C1286 H1282 0.949 . S
C1286 C1294 1.574 . S
C1286 C1302 1.368 . S
H1287 C1295 0.950 . S
H1288 C1293 0.950 . S
H1289 C1294 0.949 . S
H1290 C1296 0.950 . S
H1291 C1297 0.950 . S
H1292 C1298 0.949 . S
C1293 H1288 0.950 . S
C1293 C1295 1.327 1_556 S
C1293 C1299 1.429 . S
C1294 C1286 1.574 . S
C1294 H1289 0.949 . S
C1294 C1300 1.368 . S
C1295 C1279 1.349 . S
C1295 H1287 0.950 . S
C1295 C1293 1.327 1_554 S
C1296 C1284 1.349 . S
C1296 H1290 0.950 . S
C1296 C1297 1.327 . S
C1297 H1291 0.950 . S
C1297 C1296 1.327 . S
C1297 C1301 1.429 . S
C1298 C1281 1.574 . S
C1298 H1292 0.949 . S
C1298 C1302 1.368 . S
C1299 C1280 1.429 . S
C1299 C1293 1.429 . S
C1299 C1300 1.523 . S
C1300 C1281 1.368 . S
C1300 C1294 1.368 . S
C1300 C1299 1.523 . S
C1301 C1285 1.429 . S
C1301 C1297 1.429 . S
C1301 C1302 1.523 . S
C1302 C1286 1.368 . S
C1302 C1298 1.368 . S
C1302 C1301 1.523 . S
H1303 C1278 0.950 . S
H1304 C1280 0.950 . S
H1305 C1281 0.949 . S
H1306 C1283 0.950 . S
H1307 C1285 0.950 . S
C1308 C1309 1.349 1_556 S
C1308 C1310 1.327 . S
C1308 H1333 0.950 . S
C1309 C1308 1.349 1_554 S
C1309 C1325 1.349 . S
C1310 C1308 1.327 . S
C1310 C1329 1.429 . S
C1310 H1334 0.950 . S
C1311 C1328 1.574 . S
C1311 C1330 1.368 . S
C1311 H1335 0.949 . S
H1312 C1316 0.949 . S
C1313 C1314 1.349 . S
C1313 C1315 1.327 . S
C1313 H1336 0.950 . S
C1314 C1313 1.349 . S
C1314 C1326 1.349 . S
C1315 C1313 1.327 . S
C1315 C1331 1.429 . S
C1315 H1337 0.950 . S
C1316 H1312 0.949 . S
C1316 C1324 1.574 . S
C1316 C1332 1.368 . S
H1317 C1325 0.950 . S
H1318 C1323 0.950 . S
H1319 C1324 0.949 . S
H1320 C1326 0.950 . S
H1321 C1327 0.950 . S
H1322 C1328 0.949 . S
C1323 H1318 0.950 . S
C1323 C1325 1.327 1_556 S
C1323 C1329 1.429 . S
C1324 C1316 1.574 . S
C1324 H1319 0.949 . S
C1324 C1330 1.368 . S
C1325 C1309 1.349 . S
C1325 H1317 0.950 . S
C1325 C1323 1.327 1_554 S
C1326 C1314 1.349 . S
C1326 H1320 0.950 . S
C1326 C1327 1.327 . S
C1327 H1321 0.950 . S
C1327 C1326 1.327 . S
C1327 C1331 1.429 . S
C1328 C1311 1.574 . S
C1328 H1322 0.949 . S
C1328 C1332 1.368 . S
C1329 C1310 1.429 . S
C1329 C1323 1.429 . S
C1329 C1330 1.523 . S
C1330 C1311 1.368 . S
C1330 C1324 1.368 . S
C1330 C1329 1.523 . S
C1331 C1315 1.429 . S
C1331 C1327 1.429 . S
C1331 C1332 1.523 . S
C1332 C1316 1.368 . S
C1332 C1328 1.368 . S
C1332 C1331 1.523 . S
H1333 C1308 0.950 . S
H1334 C1310 0.950 . S
H1335 C1311 0.949 . S
H1336 C1313 0.950 . S
H1337 C1315 0.950 . S
C1338 C1339 1.349 . S
C1338 C1340 1.327 . S
C1338 H1363 0.950 . S
C1339 C1338 1.349 . S
C1339 C1355 1.349 . S
C1340 C1338 1.327 . S
C1340 C1359 1.429 . S
C1340 H1364 0.950 . S
C1341 C1358 1.574 . S
C1341 C1360 1.368 . S
C1341 H1365 0.949 . S
H1342 C1346 0.949 . S
C1343 C1344 1.349 . S
C1343 C1345 1.327 1_554 S
C1343 H1366 0.950 . S
C1344 C1343 1.349 . S
C1344 C1356 1.349 1_554 S
C1345 C1343 1.327 1_556 S
C1345 C1361 1.429 . S
C1345 H1367 0.950 . S
C1346 H1342 0.949 . S
C1346 C1354 1.574 . S
C1346 C1362 1.368 . S
H1347 C1355 0.950 . S
H1348 C1353 0.950 . S
H1349 C1354 0.949 . S
H1350 C1356 0.950 . S
H1351 C1357 0.950 . S
H1352 C1358 0.949 . S
C1353 H1348 0.950 . S
C1353 C1355 1.327 . S
C1353 C1359 1.429 . S
C1354 C1346 1.574 . S
C1354 H1349 0.949 . S
C1354 C1360 1.368 . S
C1355 C1339 1.349 . S
C1355 H1347 0.950 . S
C1355 C1353 1.327 . S
C1356 C1344 1.349 1_556 S
C1356 H1350 0.950 . S
C1356 C1357 1.327 . S
C1357 H1351 0.950 . S
C1357 C1356 1.327 . S
C1357 C1361 1.429 . S
C1358 C1341 1.574 . S
C1358 H1352 0.949 . S
C1358 C1362 1.368 . S
C1359 C1340 1.429 . S
C1359 C1353 1.429 . S
C1359 C1360 1.523 . S
C1360 C1341 1.368 . S
C1360 C1354 1.368 . S
C1360 C1359 1.523 . S
C1361 C1345 1.429 . S
C1361 C1357 1.429 . S
C1361 C1362 1.523 . S
C1362 C1346 1.368 . S
C1362 C1358 1.368 . S
C1362 C1361 1.523 . S
H1363 C1338 0.950 . S
H1364 C1340 0.950 . S
H1365 C1341 0.949 . S
H1366 C1343 0.950 . S
H1367 C1345 0.950 . S
C1368 C1369 1.349 . S
C1368 C1370 1.327 . S
C1368 H1393 0.950 . S
C1369 C1368 1.349 . S
C1369 C1385 1.349 . S
C1370 C1368 1.327 . S
C1370 C1389 1.429 . S
C1370 H1394 0.950 . S
C1371 C1388 1.574 1_455 S
C1371 C1390 1.368 . S
C1371 H1395 0.949 . S
H1372 C1376 0.949 . S
C1373 C1374 1.349 . S
C1373 C1375 1.327 . S
C1373 H1396 0.950 . S
C1374 C1373 1.349 . S
C1374 C1386 1.349 . S
C1375 C1373 1.327 . S
C1375 C1391 1.429 . S
C1375 H1397 0.950 . S
C1376 H1372 0.949 . S
C1376 C1384 1.574 1_655 S
C1376 C1392 1.368 . S
H1377 C1385 0.950 . S
H1378 C1383 0.950 . S
H1379 C1384 0.949 . S
H1380 C1386 0.950 . S
H1381 C1387 0.950 . S
H1382 C1388 0.949 . S
C1383 H1378 0.950 . S
C1383 C1385 1.327 . S
C1383 C1389 1.429 . S
C1384 C1376 1.574 1_455 S
C1384 H1379 0.949 . S
C1384 C1390 1.368 . S
C1385 C1369 1.349 . S
C1385 H1377 0.950 . S
C1385 C1383 1.327 . S
C1386 C1374 1.349 . S
C1386 H1380 0.950 . S
C1386 C1387 1.327 . S
C1387 H1381 0.950 . S
C1387 C1386 1.327 . S
C1387 C1391 1.429 . S
C1388 C1371 1.574 1_655 S
C1388 H1382 0.949 . S
C1388 C1392 1.368 . S
C1389 C1370 1.429 . S
C1389 C1383 1.429 . S
C1389 C1390 1.523 . S
C1390 C1371 1.368 . S
C1390 C1384 1.368 . S
C1390 C1389 1.523 . S
C1391 C1375 1.429 . S
C1391 C1387 1.429 . S
C1391 C1392 1.523 . S
C1392 C1376 1.368 . S
C1392 C1388 1.368 . S
C1392 C1391 1.523 . S
H1393 C1368 0.950 . S
H1394 C1370 0.950 . S
H1395 C1371 0.949 . S
H1396 C1373 0.950 . S
H1397 C1375 0.950 . S
C1398 C1399 1.349 . S
C1398 C1400 1.327 . S
C1398 H1423 0.950 . S
C1399 C1398 1.349 . S
C1399 C1415 1.349 . S
C1400 C1398 1.327 . S
C1400 C1419 1.429 . S
C1400 H1424 0.950 . S
C1401 C1418 1.574 . S
C1401 C1420 1.368 . S
C1401 H1425 0.949 . S
H1402 C1406 0.949 . S
C1403 C1404 1.349 . S
C1403 C1405 1.327 . S
C1403 H1426 0.950 . S
C1404 C1403 1.349 . S
C1404 C1416 1.349 . S
C1405 C1403 1.327 . S
C1405 C1421 1.429 . S
C1405 H1427 0.950 . S
C1406 H1402 0.949 . S
C1406 C1414 1.574 . S
C1406 C1422 1.368 . S
H1407 C1415 0.950 . S
H1408 C1413 0.950 . S
H1409 C1414 0.949 . S
H1410 C1416 0.950 . S
H1411 C1417 0.950 . S
H1412 C1418 0.949 . S
C1413 H1408 0.950 . S
C1413 C1415 1.327 . S
C1413 C1419 1.429 . S
C1414 C1406 1.574 . S
C1414 H1409 0.949 . S
C1414 C1420 1.368 . S
C1415 C1399 1.349 . S
C1415 H1407 0.950 . S
C1415 C1413 1.327 . S
C1416 C1404 1.349 . S
C1416 H1410 0.950 . S
C1416 C1417 1.327 . S
C1417 H1411 0.950 . S
C1417 C1416 1.327 . S
C1417 C1421 1.429 . S
C1418 C1401 1.574 . S
C1418 H1412 0.949 . S
C1418 C1422 1.368 . S
C1419 C1400 1.429 . S
C1419 C1413 1.429 . S
C1419 C1420 1.523 . S
C1420 C1401 1.368 . S
C1420 C1414 1.368 . S
C1420 C1419 1.523 . S
C1421 C1405 1.429 . S
C1421 C1417 1.429 . S
C1421 C1422 1.523 . S
C1422 C1406 1.368 . S
C1422 C1418 1.368 . S
C1422 C1421 1.523 . S
H1423 C1398 0.950 . S
H1424 C1400 0.950 . S
H1425 C1401 0.949 . S
H1426 C1403 0.950 . S
H1427 C1405 0.950 . S
C1428 C1429 1.349 . S
C1428 C1430 1.327 . S
C1428 H1453 0.950 . S
C1429 C1428 1.349 . S
C1429 C1445 1.349 . S
C1430 C1428 1.327 . S
C1430 C1449 1.429 . S
C1430 H1454 0.950 . S
C1431 C1448 1.574 . S
C1431 C1450 1.368 1_565 S
C1431 H1455 0.949 . S
H1432 C1436 0.949 . S
C1433 C1434 1.349 . S
C1433 C1435 1.327 . S
C1433 H1456 0.950 . S
C1434 C1433 1.349 . S
C1434 C1446 1.349 . S
C1435 C1433 1.327 . S
C1435 C1451 1.429 . S
C1435 H1457 0.950 . S
C1436 H1432 0.949 . S
C1436 C1444 1.574 . S
C1436 C1452 1.368 1_545 S
H1437 C1445 0.950 . S
H1438 C1443 0.950 . S
H1439 C1444 0.949 . S
H1440 C1446 0.950 . S
H1441 C1447 0.950 . S
H1442 C1448 0.949 . S
C1443 H1438 0.950 . S
C1443 C1445 1.327 . S
C1443 C1449 1.429 . S
C1444 C1436 1.574 . S
C1444 H1439 0.949 . S
C1444 C1450 1.368 . S
C1445 C1429 1.349 . S
C1445 H1437 0.950 . S
C1445 C1443 1.327 . S
C1446 C1434 1.349 . S
C1446 H1440 0.950 . S
C1446 C1447 1.327 . S
C1447 H1441 0.950 . S
C1447 C1446 1.327 . S
C1447 C1451 1.429 . S
C1448 C1431 1.574 . S
C1448 H1442 0.949 . S
C1448 C1452 1.368 . S
C1449 C1430 1.429 . S
C1449 C1443 1.429 . S
C1449 C1450 1.523 . S
C1450 C1431 1.368 1_545 S
C1450 C1444 1.368 . S
C1450 C1449 1.523 . S
C1451 C1435 1.429 . S
C1451 C1447 1.429 . S
C1451 C1452 1.523 . S
C1452 C1436 1.368 1_565 S
C1452 C1448 1.368 . S
C1452 C1451 1.523 . S
H1453 C1428 0.950 . S
H1454 C1430 0.950 . S
H1455 C1431 0.949 . S
H1456 C1433 0.950 . S
H1457 C1435 0.950 . S
C1458 C1459 1.349 . S
C1458 C1460 1.327 . S
C1458 H1483 0.950 . S
C1459 C1458 1.349 . S
C1459 C1475 1.349 . S
C1460 C1458 1.327 . S
C1460 C1479 1.429 . S
C1460 H1484 0.950 . S
C1461 C1478 1.574 . S
C1461 C1480 1.368 1_545 S
C1461 H1485 0.949 . S
H1462 C1466 0.949 . S
C1463 C1464 1.349 . S
C1463 C1465 1.327 . S
C1463 H1486 0.950 . S
C1464 C1463 1.349 . S
C1464 C1476 1.349 . S
C1465 C1463 1.327 . S
C1465 C1481 1.429 . S
C1465 H1487 0.950 . S
C1466 H1462 0.949 . S
C1466 C1474 1.574 . S
C1466 C1482 1.368 1_565 S
H1467 C1475 0.950 . S
H1468 C1473 0.957 . S
H1469 C1474 0.949 . S
H1470 C1476 0.950 . S
H1471 C1477 0.961 . S
H1472 C1478 0.949 . S
C1473 H1468 0.957 . S
C1473 C1475 1.327 . S
C1473 C1479 1.429 . S
C1474 C1466 1.574 . S
C1474 H1469 0.949 . S
C1474 C1480 1.368 . S
C1475 C1459 1.349 . S
C1475 H1467 0.950 . S
C1475 C1473 1.327 . S
C1476 C1464 1.349 . S
C1476 H1470 0.950 . S
C1476 C1477 1.327 . S
C1477 H1471 0.961 . S
C1477 C1476 1.327 . S
C1477 C1481 1.429 . S
C1478 C1461 1.574 . S
C1478 H1472 0.949 . S
C1478 C1482 1.368 . S
C1479 C1460 1.429 . S
C1479 C1473 1.429 . S
C1479 C1480 1.523 . S
C1480 C1461 1.368 1_565 S
C1480 C1474 1.368 . S
C1480 C1479 1.523 . S
C1481 C1465 1.429 . S
C1481 C1477 1.429 . S
C1481 C1482 1.523 . S
C1482 C1466 1.368 1_545 S
C1482 C1478 1.368 . S
C1482 C1481 1.523 . S
H1483 C1458 0.950 . S
H1484 C1460 0.950 . S
H1485 C1461 0.949 . S
H1486 C1463 0.950 . S
H1487 C1465 0.950 . S
C1488 C1489 1.349 . S
C1488 C1490 1.327 . S
C1488 H1513 0.950 . S
C1489 C1488 1.349 . S
C1489 C1505 1.349 . S
C1490 C1488 1.327 . S
C1490 C1509 1.429 . S
C1490 H1514 0.950 . S
C1491 C1508 1.574 . S
C1491 C1510 1.368 1_455 S
C1491 H1515 0.949 . S
H1492 C1496 0.949 . S
C1493 C1494 1.349 . S
C1493 C1495 1.327 . S
C1493 H1516 0.950 . S
C1494 C1493 1.349 . S
C1494 C1506 1.349 . S
C1495 C1493 1.327 . S
C1495 C1511 1.429 . S
C1495 H1517 0.950 . S
C1496 H1492 0.949 . S
C1496 C1504 1.574 . S
C1496 C1512 1.368 1_655 S
H1497 C1505 0.950 . S
H1498 C1503 0.950 1_455 S
H1499 C1504 0.949 . S
H1500 C1506 0.950 . S
H1501 C1507 0.950 1_655 S
H1502 C1508 0.949 . S
C1503 H1498 0.950 1_655 S
C1503 C1505 1.327 . S
C1503 C1509 1.429 . S
C1504 C1496 1.574 . S
C1504 H1499 0.949 . S
C1504 C1510 1.368 . S
C1505 C1489 1.349 . S
C1505 H1497 0.950 . S
C1505 C1503 1.327 . S
C1506 C1494 1.349 . S
C1506 H1500 0.950 . S
C1506 C1507 1.327 . S
C1507 H1501 0.950 1_455 S
C1507 C1506 1.327 . S
C1507 C1511 1.429 . S
C1508 C1491 1.574 . S
C1508 H1502 0.949 . S
C1508 C1512 1.368 . S
C1509 C1490 1.429 . S
C1509 C1503 1.429 . S
C1509 C1510 1.523 . S
C1510 C1491 1.368 1_655 S
C1510 C1504 1.368 . S
C1510 C1509 1.523 . S
C1511 C1495 1.429 . S
C1511 C1507 1.429 . S
C1511 C1512 1.523 . S
C1512 C1496 1.368 1_455 S
C1512 C1508 1.368 . S
C1512 C1511 1.523 . S
H1513 C1488 0.950 . S
H1514 C1490 0.950 . S
H1515 C1491 0.949 . S
H1516 C1493 0.950 . S
H1517 C1495 0.950 . S
C1518 C1519 1.349 . S
C1518 C1520 1.327 . S
C1518 H1543 0.950 . S
C1519 C1518 1.349 . S
C1519 C1535 1.349 . S
C1520 C1518 1.327 . S
C1520 C1539 1.429 . S
C1520 H1544 0.950 . S
C1521 C1538 1.574 . S
C1521 C1540 1.368 . S
C1521 H1545 0.949 . S
H1522 C1526 0.949 . S
C1523 C1524 1.349 . S
C1523 C1525 1.327 . S
C1523 H1546 0.950 . S
C1524 C1523 1.349 . S
C1524 C1536 1.349 . S
C1525 C1523 1.327 . S
C1525 C1541 1.429 . S
C1525 H1547 0.950 . S
C1526 H1522 0.949 . S
C1526 C1534 1.574 . S
C1526 C1542 1.368 . S
H1527 C1535 0.950 . S
H1528 C1533 0.950 . S
H1529 C1534 0.949 . S
H1530 C1536 0.950 . S
H1531 C1537 0.950 . S
H1532 C1538 0.949 . S
C1533 H1528 0.950 . S
C1533 C1535 1.327 . S
C1533 C1539 1.429 . S
C1534 C1526 1.574 . S
C1534 H1529 0.949 . S
C1534 C1540 1.368 . S
C1535 C1519 1.349 . S
C1535 H1527 0.950 . S
C1535 C1533 1.327 . S
C1536 C1524 1.349 . S
C1536 H1530 0.950 . S
C1536 C1537 1.327 . S
C1537 H1531 0.950 . S
C1537 C1536 1.327 . S
C1537 C1541 1.429 . S
C1538 C1521 1.574 . S
C1538 H1532 0.949 . S
C1538 C1542 1.368 . S
C1539 C1520 1.429 . S
C1539 C1533 1.429 . S
C1539 C1540 1.523 . S
C1540 C1521 1.368 . S
C1540 C1534 1.368 . S
C1540 C1539 1.523 . S
C1541 C1525 1.429 . S
C1541 C1537 1.429 . S
C1541 C1542 1.523 . S
C1542 C1526 1.368 . S
C1542 C1538 1.368 . S
C1542 C1541 1.523 . S
H1543 C1518 0.950 . S
H1544 C1520 0.950 . S
H1545 C1521 0.949 . S
H1546 C1523 0.950 . S
H1547 C1525 0.950 . S
C1548 C1549 1.349 . S
C1548 C1550 1.327 . S
C1548 H1573 0.950 . S
C1549 C1548 1.349 . S
C1549 C1565 1.349 . S
C1550 C1548 1.327 . S
C1550 C1569 1.429 . S
C1550 H1574 0.950 . S
C1551 C1568 1.574 . S
C1551 C1570 1.368 . S
C1551 H1575 0.949 . S
H1552 C1556 0.949 . S
C1553 C1554 1.349 . S
C1553 C1555 1.327 . S
C1553 H1576 0.950 . S
C1554 C1553 1.349 . S
C1554 C1566 1.349 . S
C1555 C1553 1.327 . S
C1555 C1571 1.429 . S
C1555 H1577 0.950 . S
C1556 H1552 0.949 . S
C1556 C1564 1.574 . S
C1556 C1572 1.368 . S
H1557 C1565 0.950 . S
H1558 C1563 0.950 . S
H1559 C1564 0.949 . S
H1560 C1566 0.950 . S
H1561 C1567 0.950 . S
H1562 C1568 0.949 . S
C1563 H1558 0.950 . S
C1563 C1565 1.327 . S
C1563 C1569 1.429 . S
C1564 C1556 1.574 . S
C1564 H1559 0.949 . S
C1564 C1570 1.368 . S
C1565 C1549 1.349 . S
C1565 H1557 0.950 . S
C1565 C1563 1.327 . S
C1566 C1554 1.349 . S
C1566 H1560 0.950 . S
C1566 C1567 1.327 . S
C1567 H1561 0.950 . S
C1567 C1566 1.327 . S
C1567 C1571 1.429 . S
C1568 C1551 1.574 . S
C1568 H1562 0.949 . S
C1568 C1572 1.368 . S
C1569 C1550 1.429 . S
C1569 C1563 1.429 . S
C1569 C1570 1.523 . S
C1570 C1551 1.368 . S
C1570 C1564 1.368 . S
C1570 C1569 1.523 . S
C1571 C1555 1.429 . S
C1571 C1567 1.429 . S
C1571 C1572 1.523 . S
C1572 C1556 1.368 . S
C1572 C1568 1.368 . S
C1572 C1571 1.523 . S
H1573 C1548 0.950 . S
H1574 C1550 0.950 . S
H1575 C1551 0.949 . S
H1576 C1553 0.950 . S
H1577 C1555 0.950 . S
C1578 C1579 1.349 . S
C1578 C1580 1.327 . S
C1578 H1603 0.950 . S
C1579 C1578 1.349 . S
C1579 C1595 1.349 . S
C1580 C1578 1.327 . S
C1580 C1599 1.429 . S
C1580 H1604 0.950 . S
C1581 C1598 1.574 . S
C1581 C1600 1.368 . S
C1581 H1605 0.949 . S
H1582 C1586 0.949 . S
C1583 C1584 1.349 . S
C1583 C1585 1.327 . S
C1583 H1606 0.950 . S
C1584 C1583 1.349 . S
C1584 C1596 1.349 . S
C1585 C1583 1.327 . S
C1585 C1601 1.429 . S
C1585 H1607 0.950 . S
C1586 H1582 0.949 . S
C1586 C1594 1.574 . S
C1586 C1602 1.368 . S
H1587 C1595 0.950 . S
H1588 C1593 0.950 . S
H1589 C1594 0.949 . S
H1590 C1596 0.950 . S
H1591 C1597 0.950 . S
H1592 C1598 0.949 . S
C1593 H1588 0.950 . S
C1593 C1595 1.327 . S
C1593 C1599 1.429 . S
C1594 C1586 1.574 . S
C1594 H1589 0.949 . S
C1594 C1600 1.368 . S
C1595 C1579 1.349 . S
C1595 H1587 0.950 . S
C1595 C1593 1.327 . S
C1596 C1584 1.349 . S
C1596 H1590 0.950 . S
C1596 C1597 1.327 . S
C1597 H1591 0.950 . S
C1597 C1596 1.327 . S
C1597 C1601 1.429 . S
C1598 C1581 1.574 . S
C1598 H1592 0.949 . S
C1598 C1602 1.368 . S
C1599 C1580 1.429 . S
C1599 C1593 1.429 . S
C1599 C1600 1.523 . S
C1600 C1581 1.368 . S
C1600 C1594 1.368 . S
C1600 C1599 1.523 . S
C1601 C1585 1.429 . S
C1601 C1597 1.429 . S
C1601 C1602 1.523 . S
C1602 C1586 1.368 . S
C1602 C1598 1.368 . S
C1602 C1601 1.523 . S
H1603 C1578 0.950 . S
H1604 C1580 0.950 . S
H1605 C1581 0.949 . S
H1606 C1583 0.950 . S
H1607 C1585 0.950 . S
C1608 C1609 1.349 . S
C1608 C1610 1.327 . S
C1608 H1633 0.950 . S
C1609 C1608 1.349 . S
C1609 C1625 1.349 . S
C1610 C1608 1.327 . S
C1610 C1629 1.429 . S
C1610 H1634 0.950 . S
C1611 C1628 1.574 . S
C1611 C1630 1.368 . S
C1611 H1635 0.949 . S
H1612 C1616 0.949 . S
C1613 C1614 1.349 . S
C1613 C1615 1.327 . S
C1613 H1636 0.950 . S
C1614 C1613 1.349 . S
C1614 C1626 1.349 . S
C1615 C1613 1.327 . S
C1615 C1631 1.429 . S
C1615 H1637 0.950 . S
C1616 H1612 0.949 . S
C1616 C1624 1.574 . S
C1616 C1632 1.368 . S
H1617 C1625 0.950 . S
H1618 C1623 0.950 . S
H1619 C1624 0.949 . S
H1620 C1626 0.950 . S
H1621 C1627 0.950 . S
H1622 C1628 0.949 . S
C1623 H1618 0.950 . S
C1623 C1625 1.327 . S
C1623 C1629 1.429 . S
C1624 C1616 1.574 . S
C1624 H1619 0.949 . S
C1624 C1630 1.368 . S
C1625 C1609 1.349 . S
C1625 H1617 0.950 . S
C1625 C1623 1.327 . S
C1626 C1614 1.349 . S
C1626 H1620 0.950 . S
C1626 C1627 1.327 . S
C1627 H1621 0.950 . S
C1627 C1626 1.327 . S
C1627 C1631 1.429 . S
C1628 C1611 1.574 . S
C1628 H1622 0.949 . S
C1628 C1632 1.368 . S
C1629 C1610 1.429 . S
C1629 C1623 1.429 . S
C1629 C1630 1.523 . S
C1630 C1611 1.368 . S
C1630 C1624 1.368 . S
C1630 C1629 1.523 . S
C1631 C1615 1.429 . S
C1631 C1627 1.429 . S
C1631 C1632 1.523 . S
C1632 C1616 1.368 . S
C1632 C1628 1.368 . S
C1632 C1631 1.523 . S
H1633 C1608 0.950 . S
H1634 C1610 0.950 . S
H1635 C1611 0.949 . S
H1636 C1613 0.950 . S
H1637 C1615 0.950 . S
C1638 C1639 1.349 . S
C1638 C1640 1.327 . S
C1638 H1663 0.950 . S
C1639 C1638 1.349 . S
C1639 C1655 1.349 . S
C1640 C1638 1.327 . S
C1640 C1659 1.429 . S
C1640 H1664 0.950 . S
C1641 C1658 1.574 . S
C1641 C1660 1.368 . S
C1641 H1665 0.949 . S
H1642 C1646 0.949 . S
C1643 C1644 1.349 . S
C1643 C1645 1.327 . S
C1643 H1666 0.950 . S
C1644 C1643 1.349 . S
C1644 C1656 1.349 . S
C1645 C1643 1.327 . S
C1645 C1661 1.429 . S
C1645 H1667 0.950 . S
C1646 H1642 0.949 . S
C1646 C1654 1.574 . S
C1646 C1662 1.368 . S
H1647 C1655 0.950 . S
H1648 C1653 0.950 . S
H1649 C1654 0.949 . S
H1650 C1656 0.950 . S
H1651 C1657 0.950 . S
H1652 C1658 0.949 . S
C1653 H1648 0.950 . S
C1653 C1655 1.327 . S
C1653 C1659 1.429 . S
C1654 C1646 1.574 . S
C1654 H1649 0.949 . S
C1654 C1660 1.368 . S
C1655 C1639 1.349 . S
C1655 H1647 0.950 . S
C1655 C1653 1.327 . S
C1656 C1644 1.349 . S
C1656 H1650 0.950 . S
C1656 C1657 1.327 . S
C1657 H1651 0.950 . S
C1657 C1656 1.327 . S
C1657 C1661 1.429 . S
C1658 C1641 1.574 . S
C1658 H1652 0.949 . S
C1658 C1662 1.368 . S
C1659 C1640 1.429 . S
C1659 C1653 1.429 . S
C1659 C1660 1.523 . S
C1660 C1641 1.368 . S
C1660 C1654 1.368 . S
C1660 C1659 1.523 . S
C1661 C1645 1.429 . S
C1661 C1657 1.429 . S
C1661 C1662 1.523 . S
C1662 C1646 1.368 . S
C1662 C1658 1.368 . S
C1662 C1661 1.523 . S
H1663 C1638 0.950 . S
H1664 C1640 0.950 . S
H1665 C1641 0.949 . S
H1666 C1643 0.950 . S
H1667 C1645 0.950 . S
C1668 C1669 1.349 . S
C1668 C1670 1.327 . S
C1668 H1693 0.950 . S
C1669 C1668 1.349 . S
C1669 C1685 1.349 . S
C1670 C1668 1.327 . S
C1670 C1689 1.429 . S
C1670 H1694 0.950 . S
C1671 C1688 1.574 . S
C1671 C1690 1.368 . S
C1671 H1695 0.949 . S
H1672 C1676 0.949 . S
C1673 C1674 1.349 . S
C1673 C1675 1.327 . S
C1673 H1696 0.950 . S
C1674 C1673 1.349 . S
C1674 C1686 1.349 . S
C1675 C1673 1.327 . S
C1675 C1691 1.429 . S
C1675 H1697 0.950 . S
C1676 H1672 0.949 . S
C1676 C1684 1.574 . S
C1676 C1692 1.368 . S
H1677 C1685 0.950 . S
H1678 C1683 0.950 . S
H1679 C1684 0.949 . S
H1680 C1686 0.950 . S
H1681 C1687 0.950 . S
H1682 C1688 0.949 . S
C1683 H1678 0.950 . S
C1683 C1685 1.327 . S
C1683 C1689 1.429 . S
C1684 C1676 1.574 . S
C1684 H1679 0.949 . S
C1684 C1690 1.368 . S
C1685 C1669 1.349 . S
C1685 H1677 0.950 . S
C1685 C1683 1.327 . S
C1686 C1674 1.349 . S
C1686 H1680 0.950 . S
C1686 C1687 1.327 . S
C1687 H1681 0.950 . S
C1687 C1686 1.327 . S
C1687 C1691 1.429 . S
C1688 C1671 1.574 . S
C1688 H1682 0.949 . S
C1688 C1692 1.368 . S
C1689 C1670 1.429 . S
C1689 C1683 1.429 . S
C1689 C1690 1.523 . S
C1690 C1671 1.368 . S
C1690 C1684 1.368 . S
C1690 C1689 1.523 . S
C1691 C1675 1.429 . S
C1691 C1687 1.429 . S
C1691 C1692 1.523 . S
C1692 C1676 1.368 . S
C1692 C1688 1.368 . S
C1692 C1691 1.523 . S
H1693 C1668 0.950 . S
H1694 C1670 0.950 . S
H1695 C1671 0.949 . S
H1696 C1673 0.950 . S
H1697 C1675 0.950 . S
C1698 C1699 1.349 . S
C1698 C1700 1.327 . S
C1698 H1723 0.950 . S
C1699 C1698 1.349 . S
C1699 C1715 1.349 . S
C1700 C1698 1.327 . S
C1700 C1719 1.429 . S
C1700 H1724 0.950 . S
C1701 C1718 1.574 . S
C1701 C1720 1.368 . S
C1701 H1725 0.949 . S
H1702 C1706 0.949 . S
C1703 C1704 1.349 . S
C1703 C1705 1.327 . S
C1703 H1726 0.950 . S
C1704 C1703 1.349 . S
C1704 C1716 1.349 . S
C1705 C1703 1.327 . S
C1705 C1721 1.429 . S
C1705 H1727 0.950 . S
C1706 H1702 0.949 . S
C1706 C1714 1.574 . S
C1706 C1722 1.368 . S
H1707 C1715 0.950 . S
H1708 C1713 0.950 . S
H1709 C1714 0.949 . S
H1710 C1716 0.950 . S
H1711 C1717 0.950 . S
H1712 C1718 0.949 . S
C1713 H1708 0.950 . S
C1713 C1715 1.327 . S
C1713 C1719 1.429 . S
C1714 C1706 1.574 . S
C1714 H1709 0.949 . S
C1714 C1720 1.368 . S
C1715 C1699 1.349 . S
C1715 H1707 0.950 . S
C1715 C1713 1.327 . S
C1716 C1704 1.349 . S
C1716 H1710 0.950 . S
C1716 C1717 1.327 . S
C1717 H1711 0.950 . S
C1717 C1716 1.327 . S
C1717 C1721 1.429 . S
C1718 C1701 1.574 . S
C1718 H1712 0.949 . S
C1718 C1722 1.368 . S
C1719 C1700 1.429 . S
C1719 C1713 1.429 . S
C1719 C1720 1.523 . S
C1720 C1701 1.368 . S
C1720 C1714 1.368 . S
C1720 C1719 1.523 . S
C1721 C1705 1.429 . S
C1721 C1717 1.429 . S
C1721 C1722 1.523 . S
C1722 C1706 1.368 . S
C1722 C1718 1.368 . S
C1722 C1721 1.523 . S
H1723 C1698 0.950 . S
H1724 C1700 0.950 . S
H1725 C1701 0.949 . S
H1726 C1703 0.950 . S
H1727 C1705 0.950 . S
C1728 C1729 1.349 . S
C1728 C1730 1.327 . S
C1728 H1753 0.950 . S
C1729 C1728 1.349 . S
C1729 C1745 1.349 . S
C1730 C1728 1.327 . S
C1730 C1749 1.429 . S
C1730 H1754 0.950 . S
C1731 C1748 1.574 . S
C1731 C1750 1.368 . S
C1731 H1755 0.949 . S
H1732 C1736 0.949 . S
C1733 C1734 1.349 . S
C1733 C1735 1.327 . S
C1733 H1756 0.950 . S
C1734 C1733 1.349 . S
C1734 C1746 1.349 . S
C1735 C1733 1.327 . S
C1735 C1751 1.429 . S
C1735 H1757 0.950 . S
C1736 H1732 0.949 . S
C1736 C1744 1.574 . S
C1736 C1752 1.368 . S
H1737 C1745 0.950 . S
H1738 C1743 0.950 . S
H1739 C1744 0.949 . S
H1740 C1746 0.950 . S
H1741 C1747 0.950 . S
H1742 C1748 0.949 . S
C1743 H1738 0.950 . S
C1743 C1745 1.327 . S
C1743 C1749 1.429 . S
C1744 C1736 1.574 . S
C1744 H1739 0.949 . S
C1744 C1750 1.368 . S
C1745 C1729 1.349 . S
C1745 H1737 0.950 . S
C1745 C1743 1.327 . S
C1746 C1734 1.349 . S
C1746 H1740 0.950 . S
C1746 C1747 1.327 . S
C1747 H1741 0.950 . S
C1747 C1746 1.327 . S
C1747 C1751 1.429 . S
C1748 C1731 1.574 . S
C1748 H1742 0.949 . S
C1748 C1752 1.368 . S
C1749 C1730 1.429 . S
C1749 C1743 1.429 . S
C1749 C1750 1.523 . S
C1750 C1731 1.368 . S
C1750 C1744 1.368 . S
C1750 C1749 1.523 . S
C1751 C1735 1.429 . S
C1751 C1747 1.429 . S
C1751 C1752 1.523 . S
C1752 C1736 1.368 . S
C1752 C1748 1.368 . S
C1752 C1751 1.523 . S
H1753 C1728 0.950 . S
H1754 C1730 0.950 . S
H1755 C1731 0.949 . S
H1756 C1733 0.950 . S
H1757 C1735 0.950 . S
C1758 C1759 1.349 . S
C1758 C1760 1.327 . S
C1758 H1783 0.950 . S
C1759 C1758 1.349 . S
C1759 C1775 1.349 . S
C1760 C1758 1.327 . S
C1760 C1779 1.429 . S
C1760 H1784 0.950 . S
C1761 C1778 1.574 . S
C1761 C1780 1.368 . S
C1761 H1785 0.949 . S
H1762 C1766 0.949 . S
C1763 C1764 1.349 . S
C1763 C1765 1.327 . S
C1763 H1786 0.950 . S
C1764 C1763 1.349 . S
C1764 C1776 1.349 . S
C1765 C1763 1.327 . S
C1765 C1781 1.429 . S
C1765 H1787 0.950 . S
C1766 H1762 0.949 . S
C1766 C1774 1.574 . S
C1766 C1782 1.368 . S
H1767 C1775 0.950 . S
H1768 C1773 0.950 . S
H1769 C1774 0.949 . S
H1770 C1776 0.950 . S
H1771 C1777 0.950 . S
H1772 C1778 0.949 . S
C1773 H1768 0.950 . S
C1773 C1775 1.327 . S
C1773 C1779 1.429 . S
C1774 C1766 1.574 . S
C1774 H1769 0.949 . S
C1774 C1780 1.368 . S
C1775 C1759 1.349 . S
C1775 H1767 0.950 . S
C1775 C1773 1.327 . S
C1776 C1764 1.349 . S
C1776 H1770 0.950 . S
C1776 C1777 1.327 . S
C1777 H1771 0.950 . S
C1777 C1776 1.327 . S
C1777 C1781 1.429 . S
C1778 C1761 1.574 . S
C1778 H1772 0.949 . S
C1778 C1782 1.368 . S
C1779 C1760 1.429 . S
C1779 C1773 1.429 . S
C1779 C1780 1.523 . S
C1780 C1761 1.368 . S
C1780 C1774 1.368 . S
C1780 C1779 1.523 . S
C1781 C1765 1.429 . S
C1781 C1777 1.429 . S
C1781 C1782 1.523 . S
C1782 C1766 1.368 . S
C1782 C1778 1.368 . S
C1782 C1781 1.523 . S
H1783 C1758 0.950 . S
H1784 C1760 0.950 . S
H1785 C1761 0.949 . S
H1786 C1763 0.950 . S
H1787 C1765 0.950 . S
C1788 C1789 1.349 . S
C1788 C1790 1.327 . S
C1788 H1813 0.950 . S
C1789 C1788 1.349 . S
C1789 C1805 1.349 . S
C1790 C1788 1.327 . S
C1790 C1809 1.429 . S
C1790 H1814 0.950 . S
C1791 C1808 1.574 . S
C1791 C1810 1.368 . S
C1791 H1815 0.949 . S
H1792 C1796 0.949 . S
C1793 C1794 1.349 . S
C1793 C1795 1.327 . S
C1793 H1816 0.950 . S
C1794 C1793 1.349 . S
C1794 C1806 1.349 . S
C1795 C1793 1.327 . S
C1795 C1811 1.429 . S
C1795 H1817 0.950 . S
C1796 H1792 0.949 . S
C1796 C1804 1.574 . S
C1796 C1812 1.368 . S
H1797 C1805 0.950 . S
H1798 C1803 0.950 . S
H1799 C1804 0.949 . S
H1800 C1806 0.950 . S
H1801 C1807 0.950 . S
H1802 C1808 0.949 . S
C1803 H1798 0.950 . S
C1803 C1805 1.327 . S
C1803 C1809 1.429 . S
C1804 C1796 1.574 . S
C1804 H1799 0.949 . S
C1804 C1810 1.368 . S
C1805 C1789 1.349 . S
C1805 H1797 0.950 . S
C1805 C1803 1.327 . S
C1806 C1794 1.349 . S
C1806 H1800 0.950 . S
C1806 C1807 1.327 . S
C1807 H1801 0.950 . S
C1807 C1806 1.327 . S
C1807 C1811 1.429 . S
C1808 C1791 1.574 . S
C1808 H1802 0.949 . S
C1808 C1812 1.368 . S
C1809 C1790 1.429 . S
C1809 C1803 1.429 . S
C1809 C1810 1.523 . S
C1810 C1791 1.368 . S
C1810 C1804 1.368 . S
C1810 C1809 1.523 . S
C1811 C1795 1.429 . S
C1811 C1807 1.429 . S
C1811 C1812 1.523 . S
C1812 C1796 1.368 . S
C1812 C1808 1.368 . S
C1812 C1811 1.523 . S
H1813 C1788 0.950 . S
H1814 C1790 0.950 . S
H1815 C1791 0.949 . S
H1816 C1793 0.950 . S
H1817 C1795 0.950 . S
C1818 C1819 1.349 . S
C1818 C1820 1.327 . S
C1818 H1843 0.950 . S
C1819 C1818 1.349 . S
C1819 C1835 1.349 . S
C1820 C1818 1.327 . S
C1820 C1839 1.429 . S
C1820 H1844 0.950 . S
C1821 C1838 1.574 . S
C1821 C1840 1.368 . S
C1821 H1845 0.949 . S
H1822 C1826 0.949 . S
C1823 C1824 1.349 . S
C1823 C1825 1.327 . S
C1823 H1846 0.950 . S
C1824 C1823 1.349 . S
C1824 C1836 1.349 . S
C1825 C1823 1.327 . S
C1825 C1841 1.429 . S
C1825 H1847 0.950 . S
C1826 H1822 0.949 . S
C1826 C1834 1.574 . S
C1826 C1842 1.368 . S
H1827 C1835 0.950 . S
H1828 C1833 0.950 . S
H1829 C1834 0.949 . S
H1830 C1836 0.950 . S
H1831 C1837 0.950 . S
H1832 C1838 0.949 . S
C1833 H1828 0.950 . S
C1833 C1835 1.327 . S
C1833 C1839 1.429 . S
C1834 C1826 1.574 . S
C1834 H1829 0.949 . S
C1834 C1840 1.368 . S
C1835 C1819 1.349 . S
C1835 H1827 0.950 . S
C1835 C1833 1.327 . S
C1836 C1824 1.349 . S
C1836 H1830 0.950 . S
C1836 C1837 1.327 . S
C1837 H1831 0.950 . S
C1837 C1836 1.327 . S
C1837 C1841 1.429 . S
C1838 C1821 1.574 . S
C1838 H1832 0.949 . S
C1838 C1842 1.368 . S
C1839 C1820 1.429 . S
C1839 C1833 1.429 . S
C1839 C1840 1.523 . S
C1840 C1821 1.368 . S
C1840 C1834 1.368 . S
C1840 C1839 1.523 . S
C1841 C1825 1.429 . S
C1841 C1837 1.429 . S
C1841 C1842 1.523 . S
C1842 C1826 1.368 . S
C1842 C1838 1.368 . S
C1842 C1841 1.523 . S
H1843 C1818 0.950 . S
H1844 C1820 0.950 . S
H1845 C1821 0.949 . S
H1846 C1823 0.950 . S
H1847 C1825 0.950 . S
C1848 C1849 1.349 . S
C1848 C1850 1.327 . S
C1848 H1873 0.950 . S
C1849 C1848 1.349 . S
C1849 C1865 1.349 . S
C1850 C1848 1.327 . S
C1850 C1869 1.429 . S
C1850 H1874 0.950 . S
C1851 C1868 1.574 . S
C1851 C1870 1.368 . S
C1851 H1875 0.949 . S
H1852 C1856 0.949 . S
C1853 C1854 1.349 . S
C1853 C1855 1.327 . S
C1853 H1876 0.950 . S
C1854 C1853 1.349 . S
C1854 C1866 1.349 . S
C1855 C1853 1.327 . S
C1855 C1871 1.429 . S
C1855 H1877 0.950 . S
C1856 H1852 0.949 . S
C1856 C1864 1.574 . S
C1856 C1872 1.368 . S
H1857 C1865 0.950 . S
H1858 C1863 0.950 . S
H1859 C1864 0.949 . S
H1860 C1866 0.950 . S
H1861 C1867 0.950 . S
H1862 C1868 0.949 . S
C1863 H1858 0.950 . S
C1863 C1865 1.327 . S
C1863 C1869 1.429 . S
C1864 C1856 1.574 . S
C1864 H1859 0.949 . S
C1864 C1870 1.368 . S
C1865 C1849 1.349 . S
C1865 H1857 0.950 . S
C1865 C1863 1.327 . S
C1866 C1854 1.349 . S
C1866 H1860 0.950 . S
C1866 C1867 1.327 . S
C1867 H1861 0.950 . S
C1867 C1866 1.327 . S
C1867 C1871 1.429 . S
C1868 C1851 1.574 . S
C1868 H1862 0.949 . S
C1868 C1872 1.368 . S
C1869 C1850 1.429 . S
C1869 C1863 1.429 . S
C1869 C1870 1.523 . S
C1870 C1851 1.368 . S
C1870 C1864 1.368 . S
C1870 C1869 1.523 . S
C1871 C1855 1.429 . S
C1871 C1867 1.429 . S
C1871 C1872 1.523 . S
C1872 C1856 1.368 . S
C1872 C1868 1.368 . S
C1872 C1871 1.523 . S
H1873 C1848 0.950 . S
H1874 C1850 0.950 . S
H1875 C1851 0.949 . S
H1876 C1853 0.950 . S
H1877 C1855 0.950 . S
C1878 C1879 1.349 . S
C1878 C1880 1.327 . S
C1878 H1903 0.950 . S
C1879 C1878 1.349 . S
C1879 C1895 1.349 . S
C1880 C1878 1.327 . S
C1880 C1899 1.429 . S
C1880 H1904 0.950 . S
C1881 C1898 1.574 . S
C1881 C1900 1.368 . S
C1881 H1905 0.949 . S
H1882 C1886 0.949 . S
C1883 C1884 1.349 . S
C1883 C1885 1.327 . S
C1883 H1906 0.950 . S
C1884 C1883 1.349 . S
C1884 C1896 1.349 . S
C1885 C1883 1.327 . S
C1885 C1901 1.429 . S
C1885 H1907 0.950 . S
C1886 H1882 0.949 . S
C1886 C1894 1.574 . S
C1886 C1902 1.368 . S
H1887 C1895 0.950 . S
H1888 C1893 0.950 . S
H1889 C1894 0.949 . S
H1890 C1896 0.950 . S
H1891 C1897 0.950 . S
H1892 C1898 0.949 . S
C1893 H1888 0.950 . S
C1893 C1895 1.327 . S
C1893 C1899 1.429 . S
C1894 C1886 1.574 . S
C1894 H1889 0.949 . S
C1894 C1900 1.368 . S
C1895 C1879 1.349 . S
C1895 H1887 0.950 . S
C1895 C1893 1.327 . S
C1896 C1884 1.349 . S
C1896 H1890 0.950 . S
C1896 C1897 1.327 . S
C1897 H1891 0.950 . S
C1897 C1896 1.327 . S
C1897 C1901 1.429 . S
C1898 C1881 1.574 . S
C1898 H1892 0.949 . S
C1898 C1902 1.368 . S
C1899 C1880 1.429 . S
C1899 C1893 1.429 . S
C1899 C1900 1.523 . S
C1900 C1881 1.368 . S
C1900 C1894 1.368 . S
C1900 C1899 1.523 . S
C1901 C1885 1.429 . S
C1901 C1897 1.429 . S
C1901 C1902 1.523 . S
C1902 C1886 1.368 . S
C1902 C1898 1.368 . S
C1902 C1901 1.523 . S
H1903 C1878 0.950 . S
H1904 C1880 0.950 . S
H1905 C1881 0.949 . S
H1906 C1883 0.950 . S
H1907 C1885 0.950 . S
C1908 C1909 1.349 . S
C1908 C1910 1.327 . S
C1908 H1933 0.950 . S
C1909 C1908 1.349 . S
C1909 C1925 1.349 . S
C1910 C1908 1.327 . S
C1910 C1929 1.429 . S
C1910 H1934 0.950 1_455 S
C1911 C1928 1.574 . S
C1911 C1930 1.368 . S
C1911 H1935 0.949 . S
H1912 C1916 0.949 . S
C1913 C1914 1.349 . S
C1913 C1915 1.327 . S
C1913 H1936 0.950 . S
C1914 C1913 1.349 . S
C1914 C1926 1.349 . S
C1915 C1913 1.327 . S
C1915 C1931 1.429 . S
C1915 H1937 0.950 1_655 S
C1916 H1912 0.949 . S
C1916 C1924 1.574 . S
C1916 C1932 1.368 . S
H1917 C1925 0.950 . S
H1918 C1923 0.950 . S
H1919 C1924 0.949 . S
H1920 C1926 0.950 . S
H1921 C1927 0.950 . S
H1922 C1928 0.949 . S
C1923 H1918 0.950 . S
C1923 C1925 1.327 . S
C1923 C1929 1.429 . S
C1924 C1916 1.574 . S
C1924 H1919 0.949 . S
C1924 C1930 1.368 1_655 S
C1925 C1909 1.349 . S
C1925 H1917 0.950 . S
C1925 C1923 1.327 . S
C1926 C1914 1.349 . S
C1926 H1920 0.950 . S
C1926 C1927 1.327 . S
C1927 H1921 0.950 . S
C1927 C1926 1.327 . S
C1927 C1931 1.429 . S
C1928 C1911 1.574 . S
C1928 H1922 0.949 . S
C1928 C1932 1.368 1_455 S
C1929 C1910 1.429 . S
C1929 C1923 1.429 . S
C1929 C1930 1.523 . S
C1930 C1911 1.368 . S
C1930 C1924 1.368 1_455 S
C1930 C1929 1.523 . S
C1931 C1915 1.429 . S
C1931 C1927 1.429 . S
C1931 C1932 1.523 . S
C1932 C1916 1.368 . S
C1932 C1928 1.368 1_655 S
C1932 C1931 1.523 . S
H1933 C1908 0.950 . S
H1934 C1910 0.950 1_655 S
H1935 C1911 0.949 . S
H1936 C1913 0.950 . S
H1937 C1915 0.950 1_455 S
C1938 C1939 1.349 . S
C1938 C1940 1.327 . S
C1938 H1963 0.950 . S
C1939 C1938 1.349 . S
C1939 C1955 1.349 . S
C1940 C1938 1.327 . S
C1940 C1959 1.429 . S
C1940 H1964 0.950 . S
C1941 C1958 1.574 . S
C1941 C1960 1.368 . S
C1941 H1965 0.949 . S
H1942 C1946 0.949 . S
C1943 C1944 1.349 . S
C1943 C1945 1.327 . S
C1943 H1966 0.950 . S
C1944 C1943 1.349 . S
C1944 C1956 1.349 . S
C1945 C1943 1.327 . S
C1945 C1961 1.429 . S
C1945 H1967 0.950 . S
C1946 H1942 0.949 . S
C1946 C1954 1.574 . S
C1946 C1962 1.368 . S
H1947 C1955 0.950 . S
H1948 C1953 0.950 . S
H1949 C1954 0.949 . S
H1950 C1956 0.950 . S
H1951 C1957 0.950 . S
H1952 C1958 0.949 . S
C1953 H1948 0.950 . S
C1953 C1955 1.327 . S
C1953 C1959 1.429 . S
C1954 C1946 1.574 . S
C1954 H1949 0.949 . S
C1954 C1960 1.368 . S
C1955 C1939 1.349 . S
C1955 H1947 0.950 . S
C1955 C1953 1.327 . S
C1956 C1944 1.349 . S
C1956 H1950 0.950 . S
C1956 C1957 1.327 . S
C1957 H1951 0.950 . S
C1957 C1956 1.327 . S
C1957 C1961 1.429 . S
C1958 C1941 1.574 . S
C1958 H1952 0.949 . S
C1958 C1962 1.368 . S
C1959 C1940 1.429 . S
C1959 C1953 1.429 . S
C1959 C1960 1.523 . S
C1960 C1941 1.368 . S
C1960 C1954 1.368 . S
C1960 C1959 1.523 . S
C1961 C1945 1.429 . S
C1961 C1957 1.429 . S
C1961 C1962 1.523 . S
C1962 C1946 1.368 . S
C1962 C1958 1.368 . S
C1962 C1961 1.523 . S
H1963 C1938 0.950 . S
H1964 C1940 0.950 . S
H1965 C1941 0.949 . S
H1966 C1943 0.950 . S
H1967 C1945 0.950 . S
C1968 C1969 1.349 . S
C1968 C1970 1.327 . S
C1968 H1993 0.950 . S
C1969 C1968 1.349 . S
C1969 C1985 1.349 . S
C1970 C1968 1.327 . S
C1970 C1989 1.429 . S
C1970 H1994 0.950 . S
C1971 C1988 1.581 1_545 S
C1971 C1990 1.384 . S
C1971 H1995 0.931 . S
H1972 C1976 0.931 . S
C1973 C1974 1.349 . S
C1973 C1975 1.327 . S
C1973 H1996 0.950 . S
C1974 C1973 1.349 . S
C1974 C1986 1.349 . S
C1975 C1973 1.327 . S
C1975 C1991 1.429 . S
C1975 H1997 0.950 . S
C1976 H1972 0.931 . S
C1976 C1984 1.581 1_565 S
C1976 C1992 1.384 . S
H1977 C1985 0.950 . S
H1978 C1983 0.950 . S
H1979 C1984 0.949 . S
H1980 C1986 0.950 . S
H1981 C1987 0.950 . S
H1982 C1988 0.949 . S
C1983 H1978 0.950 . S
C1983 C1985 1.327 . S
C1983 C1989 1.429 . S
C1984 C1976 1.581 1_545 S
C1984 H1979 0.949 . S
C1984 C1990 1.368 . S
C1985 C1969 1.349 . S
C1985 H1977 0.950 . S
C1985 C1983 1.327 . S
C1986 C1974 1.349 . S
C1986 H1980 0.950 . S
C1986 C1987 1.327 . S
C1987 H1981 0.950 . S
C1987 C1986 1.327 . S
C1987 C1991 1.429 . S
C1988 C1971 1.581 1_565 S
C1988 H1982 0.949 . S
C1988 C1992 1.368 . S
C1989 C1970 1.429 . S
C1989 C1983 1.429 . S
C1989 C1990 1.523 . S
C1990 C1971 1.384 . S
C1990 C1984 1.368 . S
C1990 C1989 1.523 . S
C1991 C1975 1.429 . S
C1991 C1987 1.429 . S
C1991 C1992 1.523 . S
C1992 C1976 1.384 . S
C1992 C1988 1.368 . S
C1992 C1991 1.523 . S
H1993 C1968 0.950 . S
H1994 C1970 0.950 . S
H1995 C1971 0.931 . S
H1996 C1973 0.950 . S
H1997 C1975 0.950 . S
C1998 C1999 1.349 . S
C1998 C2000 1.327 . S
C1998 H2023 0.951 1_545 S
C1999 C1998 1.349 . S
C1999 C2015 1.349 . S
C2000 C1998 1.327 . S
C2000 C2019 1.429 . S
C2000 H2024 0.950 1_545 S
C2001 C2018 1.574 1_556 S
C2001 C2020 1.368 . S
C2001 H2025 0.949 . S
H2002 C2006 0.949 . S
C2003 C2004 1.349 . S
C2003 C2005 1.327 . S
C2003 H2026 0.951 1_565 S
C2004 C2003 1.349 . S
C2004 C2016 1.349 . S
C2005 C2003 1.327 . S
C2005 C2021 1.429 . S
C2005 H2027 0.950 1_565 S
C2006 H2002 0.949 . S
C2006 C2014 1.574 1_554 S
C2006 C2022 1.368 . S
H2007 C2015 0.950 . S
H2008 C2013 0.950 . S
H2009 C2014 0.949 . S
H2010 C2016 0.950 . S
H2011 C2017 0.950 . S
H2012 C2018 0.949 . S
C2013 H2008 0.950 . S
C2013 C2015 1.327 . S
C2013 C2019 1.429 . S
C2014 C2006 1.574 1_556 S
C2014 H2009 0.949 . S
C2014 C2020 1.368 1_565 S
C2015 C1999 1.349 . S
C2015 H2007 0.950 . S
C2015 C2013 1.327 . S
C2016 C2004 1.349 . S
C2016 H2010 0.950 . S
C2016 C2017 1.327 . S
C2017 H2011 0.950 . S
C2017 C2016 1.327 . S
C2017 C2021 1.429 . S
C2018 C2001 1.574 1_554 S
C2018 H2012 0.949 . S
C2018 C2022 1.368 1_545 S
C2019 C2000 1.429 . S
C2019 C2013 1.429 . S
C2019 C2020 1.523 . S
C2020 C2001 1.368 . S
C2020 C2014 1.368 1_545 S
C2020 C2019 1.523 . S
C2021 C2005 1.429 . S
C2021 C2017 1.429 . S
C2021 C2022 1.523 . S
C2022 C2006 1.368 . S
C2022 C2018 1.368 1_565 S
C2022 C2021 1.523 . S
H2023 C1998 0.951 1_565 S
H2024 C2000 0.950 1_565 S
H2025 C2001 0.949 . S
H2026 C2003 0.951 1_545 S
H2027 C2005 0.950 1_545 S
C2028 C2029 1.349 . S
C2028 C2030 1.327 . S
C2028 H2053 0.950 . S
C2029 C2028 1.349 . S
C2029 C2045 1.349 . S
C2030 C2028 1.327 . S
C2030 C2049 1.429 . S
C2030 H2054 0.950 1_455 S
C2031 C2048 1.574 . S
C2031 C2050 1.368 1_556 S
C2031 H2055 0.949 . S
H2032 C2036 0.949 . S
C2033 C2034 1.349 . S
C2033 C2035 1.327 . S
C2033 H2056 0.950 . S
C2034 C2033 1.349 . S
C2034 C2046 1.349 . S
C2035 C2033 1.327 . S
C2035 C2051 1.429 . S
C2035 H2057 0.950 1_655 S
C2036 H2032 0.949 . S
C2036 C2044 1.574 . S
C2036 C2052 1.368 1_554 S
H2037 C2045 0.950 . S
H2038 C2043 0.950 1_556 S
H2039 C2044 0.949 . S
H2040 C2046 0.950 . S
H2041 C2047 0.950 1_554 S
H2042 C2048 0.949 . S
C2043 H2038 0.950 1_554 S
C2043 C2045 1.327 . S
C2043 C2049 1.429 . S
C2044 C2036 1.574 . S
C2044 H2039 0.949 . S
C2044 C2050 1.368 1_655 S
C2045 C2029 1.349 . S
C2045 H2037 0.950 . S
C2045 C2043 1.327 . S
C2046 C2034 1.349 . S
C2046 H2040 0.950 . S
C2046 C2047 1.327 . S
C2047 H2041 0.950 1_556 S
C2047 C2046 1.327 . S
C2047 C2051 1.429 . S
C2048 C2031 1.574 . S
C2048 H2042 0.949 . S
C2048 C2052 1.368 1_455 S
C2049 C2030 1.429 . S
C2049 C2043 1.429 . S
C2049 C2050 1.523 . S
C2050 C2031 1.368 1_554 S
C2050 C2044 1.368 1_455 S
C2050 C2049 1.523 . S
C2051 C2035 1.429 . S
C2051 C2047 1.429 . S
C2051 C2052 1.523 . S
C2052 C2036 1.368 1_556 S
C2052 C2048 1.368 1_655 S
C2052 C2051 1.523 . S
H2053 C2028 0.950 . S
H2054 C2030 0.950 1_655 S
H2055 C2031 0.949 . S
H2056 C2033 0.950 . S
H2057 C2035 0.950 1_455 S
C2058 C2059 1.349 . S
C2058 C2060 1.327 . S
C2058 H2083 0.950 . S
C2059 C2058 1.349 . S
C2059 C2075 1.349 . S
C2060 C2058 1.327 . S
C2060 C2079 1.429 . S
C2060 H2084 0.950 . S
C2061 C2078 1.574 . S
C2061 C2080 1.368 1_556 S
C2061 H2085 0.949 . S
H2062 C2066 0.949 . S
C2063 C2064 1.349 . S
C2063 C2065 1.327 . S
C2063 H2086 0.950 . S
C2064 C2063 1.349 . S
C2064 C2076 1.349 . S
C2065 C2063 1.327 . S
C2065 C2081 1.429 . S
C2065 H2087 0.950 . S
C2066 H2062 0.949 . S
C2066 C2074 1.574 . S
C2066 C2082 1.368 1_554 S
H2067 C2075 0.950 . S
H2068 C2073 0.950 . S
H2069 C2074 0.949 . S
H2070 C2076 0.950 . S
H2071 C2077 0.950 . S
H2072 C2078 0.949 . S
C2073 H2068 0.950 . S
C2073 C2075 1.327 . S
C2073 C2079 1.429 . S
C2074 C2066 1.574 . S
C2074 H2069 0.949 . S
C2074 C2080 1.368 . S
C2075 C2059 1.349 . S
C2075 H2067 0.950 . S
C2075 C2073 1.327 . S
C2076 C2064 1.349 . S
C2076 H2070 0.950 . S
C2076 C2077 1.327 . S
C2077 H2071 0.950 . S
C2077 C2076 1.327 . S
C2077 C2081 1.429 . S
C2078 C2061 1.574 . S
C2078 H2072 0.949 . S
C2078 C2082 1.368 . S
C2079 C2060 1.429 . S
C2079 C2073 1.429 . S
C2079 C2080 1.523 . S
C2080 C2061 1.368 1_554 S
C2080 C2074 1.368 . S
C2080 C2079 1.523 . S
C2081 C2065 1.429 . S
C2081 C2077 1.429 . S
C2081 C2082 1.523 . S
C2082 C2066 1.368 1_556 S
C2082 C2078 1.368 . S
C2082 C2081 1.523 . S
H2083 C2058 0.950 . S
H2084 C2060 0.950 . S
H2085 C2061 0.949 . S
H2086 C2063 0.950 . S
H2087 C2065 0.950 . S
C2088 C2089 1.349 1_554 S
C2088 C2090 1.327 . S
C2088 H2113 0.950 . S
C2089 C2088 1.349 1_556 S
C2089 C2105 1.349 . S
C2090 C2088 1.327 . S
C2090 C2109 1.429 . S
C2090 H2114 0.950 . S
C2091 C2108 1.574 . S
C2091 C2110 1.368 . S
C2091 H2115 0.949 . S
H2092 C2096 0.949 . S
C2093 C2094 1.349 . S
C2093 C2095 1.327 . S
C2093 H2116 0.950 . S
C2094 C2093 1.349 . S
C2094 C2106 1.349 . S
C2095 C2093 1.327 . S
C2095 C2111 1.429 . S
C2095 H2117 0.950 . S
C2096 H2092 0.949 . S
C2096 C2104 1.574 . S
C2096 C2112 1.368 . S
H2097 C2105 0.950 . S
H2098 C2103 0.950 . S
H2099 C2104 0.949 . S
H2100 C2106 0.950 . S
H2101 C2107 0.950 . S
H2102 C2108 0.949 . S
C2103 H2098 0.950 . S
C2103 C2105 1.327 1_554 S
C2103 C2109 1.429 . S
C2104 C2096 1.574 . S
C2104 H2099 0.949 . S
C2104 C2110 1.368 . S
C2105 C2089 1.349 . S
C2105 H2097 0.950 . S
C2105 C2103 1.327 1_556 S
C2106 C2094 1.349 . S
C2106 H2100 0.950 . S
C2106 C2107 1.327 . S
C2107 H2101 0.950 . S
C2107 C2106 1.327 . S
C2107 C2111 1.429 . S
C2108 C2091 1.574 . S
C2108 H2102 0.949 . S
C2108 C2112 1.368 . S
C2109 C2090 1.429 . S
C2109 C2103 1.429 . S
C2109 C2110 1.523 . S
C2110 C2091 1.368 . S
C2110 C2104 1.368 . S
C2110 C2109 1.523 . S
C2111 C2095 1.429 . S
C2111 C2107 1.429 . S
C2111 C2112 1.523 . S
C2112 C2096 1.368 . S
C2112 C2108 1.368 . S
C2112 C2111 1.523 . S
H2113 C2088 0.950 . S
H2114 C2090 0.950 . S
H2115 C2091 0.949 . S
H2116 C2093 0.950 . S
H2117 C2095 0.950 . S
C2118 C2119 1.349 . S
C2118 C2120 1.327 . S
C2118 H2143 0.950 . S
C2119 C2118 1.349 . S
C2119 C2135 1.349 . S
C2120 C2118 1.327 . S
C2120 C2139 1.429 . S
C2120 H2144 0.950 . S
C2121 C2138 1.574 . S
C2121 C2140 1.368 . S
C2121 H2145 0.949 . S
H2122 C2126 0.949 . S
C2123 C2124 1.349 1_554 S
C2123 C2125 1.327 . S
C2123 H2146 0.950 . S
C2124 C2123 1.349 1_556 S
C2124 C2136 1.349 . S
C2125 C2123 1.327 . S
C2125 C2141 1.429 . S
C2125 H2147 0.950 . S
C2126 H2122 0.949 . S
C2126 C2134 1.574 . S
C2126 C2142 1.368 . S
H2127 C2135 0.950 . S
H2128 C2133 0.950 . S
H2129 C2134 0.949 . S
H2130 C2136 0.950 . S
H2131 C2137 0.950 . S
H2132 C2138 0.949 . S
C2133 H2128 0.950 . S
C2133 C2135 1.327 . S
C2133 C2139 1.429 . S
C2134 C2126 1.574 . S
C2134 H2129 0.949 . S
C2134 C2140 1.368 . S
C2135 C2119 1.349 . S
C2135 H2127 0.950 . S
C2135 C2133 1.327 . S
C2136 C2124 1.349 . S
C2136 H2130 0.950 . S
C2136 C2137 1.327 1_556 S
C2137 H2131 0.950 . S
C2137 C2136 1.327 1_554 S
C2137 C2141 1.429 . S
C2138 C2121 1.574 . S
C2138 H2132 0.949 . S
C2138 C2142 1.368 . S
C2139 C2120 1.429 . S
C2139 C2133 1.429 . S
C2139 C2140 1.523 . S
C2140 C2121 1.368 . S
C2140 C2134 1.368 . S
C2140 C2139 1.523 . S
C2141 C2125 1.429 . S
C2141 C2137 1.429 . S
C2141 C2142 1.523 . S
C2142 C2126 1.368 . S
C2142 C2138 1.368 . S
C2142 C2141 1.523 . S
H2143 C2118 0.950 . S
H2144 C2120 0.950 . S
H2145 C2121 0.949 . S
H2146 C2123 0.950 . S
H2147 C2125 0.950 . S
C2148 C2149 1.350 . S
C2148 C2150 1.324 1_556 S
C2148 H2173 0.952 . S
C2149 C2148 1.350 . S
C2149 C2165 1.349 1_556 S
C2150 C2148 1.324 1_554 S
C2150 C2169 1.429 . S
C2150 H2174 0.950 . S
C2151 C2168 1.574 . S
C2151 C2170 1.368 . S
C2151 H2175 0.949 . S
H2152 C2156 0.949 . S
C2153 C2154 1.349 . S
C2153 C2155 1.327 . S
C2153 H2176 0.950 . S
C2154 C2153 1.349 . S
C2154 C2166 1.349 . S
C2155 C2153 1.327 . S
C2155 C2171 1.429 . S
C2155 H2177 0.950 . S
C2156 H2152 0.949 . S
C2156 C2164 1.574 . S
C2156 C2172 1.368 . S
H2157 C2165 0.950 . S
H2158 C2163 0.950 . S
H2159 C2164 0.949 . S
H2160 C2166 0.950 . S
H2161 C2167 0.950 . S
H2162 C2168 0.949 . S
C2163 H2158 0.950 . S
C2163 C2165 1.327 . S
C2163 C2169 1.429 . S
C2164 C2156 1.574 . S
C2164 H2159 0.949 . S
C2164 C2170 1.368 . S
C2165 C2149 1.349 1_554 S
C2165 H2157 0.950 . S
C2165 C2163 1.327 . S
C2166 C2154 1.349 . S
C2166 H2160 0.950 . S
C2166 C2167 1.327 . S
C2167 H2161 0.950 . S
C2167 C2166 1.327 . S
C2167 C2171 1.429 . S
C2168 C2151 1.574 . S
C2168 H2162 0.949 . S
C2168 C2172 1.368 . S
C2169 C2150 1.429 . S
C2169 C2163 1.429 . S
C2169 C2170 1.523 . S
C2170 C2151 1.368 . S
C2170 C2164 1.368 . S
C2170 C2169 1.523 . S
C2171 C2155 1.429 . S
C2171 C2167 1.429 . S
C2171 C2172 1.523 . S
C2172 C2156 1.368 . S
C2172 C2168 1.368 . S
C2172 C2171 1.523 . S
H2173 C2148 0.952 . S
H2174 C2150 0.950 . S
H2175 C2151 0.949 . S
H2176 C2153 0.950 . S
H2177 C2155 0.950 . S
C2178 C2179 1.349 . S
C2178 C2180 1.327 . S
C2178 H2203 0.950 . S
C2179 C2178 1.349 . S
C2179 C2195 1.349 . S
C2180 C2178 1.327 . S
C2180 C2199 1.429 . S
C2180 H2204 0.950 . S
C2181 C2198 1.574 . S
C2181 C2200 1.368 . S
C2181 H2205 0.949 . S
H2182 C2186 0.949 . S
C2183 C2184 1.349 . S
C2183 C2185 1.327 . S
C2183 H2206 0.950 . S
C2184 C2183 1.349 . S
C2184 C2196 1.349 . S
C2185 C2183 1.327 . S
C2185 C2201 1.429 . S
C2185 H2207 0.950 . S
C2186 H2182 0.949 . S
C2186 C2194 1.574 . S
C2186 C2202 1.368 . S
H2187 C2195 0.950 . S
H2188 C2193 0.950 . S
H2189 C2194 0.949 . S
H2190 C2196 0.950 . S
H2191 C2197 0.950 . S
H2192 C2198 0.949 . S
C2193 H2188 0.950 . S
C2193 C2195 1.327 . S
C2193 C2199 1.429 . S
C2194 C2186 1.574 . S
C2194 H2189 0.949 . S
C2194 C2200 1.368 . S
C2195 C2179 1.349 . S
C2195 H2187 0.950 . S
C2195 C2193 1.327 . S
C2196 C2184 1.349 . S
C2196 H2190 0.950 . S
C2196 C2197 1.327 . S
C2197 H2191 0.950 . S
C2197 C2196 1.327 . S
C2197 C2201 1.429 . S
C2198 C2181 1.574 . S
C2198 H2192 0.949 . S
C2198 C2202 1.368 . S
C2199 C2180 1.429 . S
C2199 C2193 1.429 . S
C2199 C2200 1.523 . S
C2200 C2181 1.368 . S
C2200 C2194 1.368 . S
C2200 C2199 1.523 . S
C2201 C2185 1.429 . S
C2201 C2197 1.429 . S
C2201 C2202 1.523 . S
C2202 C2186 1.368 . S
C2202 C2198 1.368 . S
C2202 C2201 1.523 . S
H2203 C2178 0.950 . S
H2204 C2180 0.950 . S
H2205 C2181 0.949 . S
H2206 C2183 0.950 . S
H2207 C2185 0.950 . S
C2208 C2209 1.349 . S
C2208 C2210 1.327 . S
C2208 H2233 0.950 . S
C2209 C2208 1.349 . S
C2209 C2225 1.349 . S
C2210 C2208 1.327 . S
C2210 C2229 1.429 . S
C2210 H2234 0.950 . S
C2211 C2228 1.574 . S
C2211 C2230 1.368 . S
C2211 H2235 0.949 . S
H2212 C2216 0.949 . S
C2213 C2214 1.349 . S
C2213 C2215 1.327 . S
C2213 H2236 0.950 . S
C2214 C2213 1.349 . S
C2214 C2226 1.349 . S
C2215 C2213 1.327 . S
C2215 C2231 1.429 . S
C2215 H2237 0.950 . S
C2216 H2212 0.949 . S
C2216 C2224 1.574 . S
C2216 C2232 1.368 . S
H2217 C2225 0.950 . S
H2218 C2223 0.950 . S
H2219 C2224 0.949 . S
H2220 C2226 0.950 . S
H2221 C2227 0.950 . S
H2222 C2228 0.949 . S
C2223 H2218 0.950 . S
C2223 C2225 1.327 . S
C2223 C2229 1.429 . S
C2224 C2216 1.574 . S
C2224 H2219 0.949 . S
C2224 C2230 1.368 . S
C2225 C2209 1.349 . S
C2225 H2217 0.950 . S
C2225 C2223 1.327 . S
C2226 C2214 1.349 . S
C2226 H2220 0.950 . S
C2226 C2227 1.327 . S
C2227 H2221 0.950 . S
C2227 C2226 1.327 . S
C2227 C2231 1.429 . S
C2228 C2211 1.574 . S
C2228 H2222 0.949 . S
C2228 C2232 1.368 . S
C2229 C2210 1.429 . S
C2229 C2223 1.429 . S
C2229 C2230 1.523 . S
C2230 C2211 1.368 . S
C2230 C2224 1.368 . S
C2230 C2229 1.523 . S
C2231 C2215 1.429 . S
C2231 C2227 1.429 . S
C2231 C2232 1.523 . S
C2232 C2216 1.368 . S
C2232 C2228 1.368 . S
C2232 C2231 1.523 . S
H2233 C2208 0.950 . S
H2234 C2210 0.950 . S
H2235 C2211 0.949 . S
H2236 C2213 0.950 . S
H2237 C2215 0.950 . S
C2238 C2239 1.349 . S
C2238 C2240 1.327 . S
C2238 H2263 0.950 . S
C2239 C2238 1.349 . S
C2239 C2255 1.349 . S
C2240 C2238 1.327 . S
C2240 C2259 1.429 . S
C2240 H2264 0.950 . S
C2241 C2258 1.574 . S
C2241 C2260 1.368 . S
C2241 H2265 0.949 . S
H2242 C2246 0.949 . S
C2243 C2244 1.349 . S
C2243 C2245 1.327 . S
C2243 H2266 0.950 . S
C2244 C2243 1.349 . S
C2244 C2256 1.349 . S
C2245 C2243 1.327 . S
C2245 C2261 1.429 . S
C2245 H2267 0.950 . S
C2246 H2242 0.949 . S
C2246 C2254 1.574 . S
C2246 C2262 1.368 . S
H2247 C2255 0.950 . S
H2248 C2253 0.950 . S
H2249 C2254 0.949 . S
H2250 C2256 0.950 . S
H2251 C2257 0.950 . S
H2252 C2258 0.949 . S
C2253 H2248 0.950 . S
C2253 C2255 1.327 . S
C2253 C2259 1.429 . S
C2254 C2246 1.574 . S
C2254 H2249 0.949 . S
C2254 C2260 1.368 . S
C2255 C2239 1.349 . S
C2255 H2247 0.950 . S
C2255 C2253 1.327 . S
C2256 C2244 1.349 . S
C2256 H2250 0.950 . S
C2256 C2257 1.327 . S
C2257 H2251 0.950 . S
C2257 C2256 1.327 . S
C2257 C2261 1.429 . S
C2258 C2241 1.574 . S
C2258 H2252 0.949 . S
C2258 C2262 1.368 . S
C2259 C2240 1.429 . S
C2259 C2253 1.429 . S
C2259 C2260 1.523 . S
C2260 C2241 1.368 . S
C2260 C2254 1.368 . S
C2260 C2259 1.523 . S
C2261 C2245 1.429 . S
C2261 C2257 1.429 . S
C2261 C2262 1.523 . S
C2262 C2246 1.368 . S
C2262 C2258 1.368 . S
C2262 C2261 1.523 . S
H2263 C2238 0.950 . S
H2264 C2240 0.950 . S
H2265 C2241 0.949 . S
H2266 C2243 0.950 . S
H2267 C2245 0.950 . S
C2268 C2269 1.349 . S
C2268 C2270 1.327 . S
C2268 H2293 0.950 . S
C2269 C2268 1.349 . S
C2269 C2285 1.349 . S
C2270 C2268 1.327 . S
C2270 C2289 1.429 . S
C2270 H2294 0.950 . S
C2271 C2288 1.574 . S
C2271 C2290 1.368 . S
C2271 H2295 0.949 . S
H2272 C2276 0.949 . S
C2273 C2274 1.349 1_556 S
C2273 C2275 1.327 . S
C2273 H2296 0.950 . S
C2274 C2273 1.349 1_554 S
C2274 C2286 1.349 . S
C2275 C2273 1.327 . S
C2275 C2291 1.429 . S
C2275 H2297 0.950 . S
C2276 H2272 0.949 . S
C2276 C2284 1.574 . S
C2276 C2292 1.368 . S
H2277 C2285 0.950 . S
H2278 C2283 0.950 . S
H2279 C2284 0.949 . S
H2280 C2286 0.950 . S
H2281 C2287 0.950 . S
H2282 C2288 0.949 . S
C2283 H2278 0.950 . S
C2283 C2285 1.327 . S
C2283 C2289 1.429 . S
C2284 C2276 1.574 . S
C2284 H2279 0.949 . S
C2284 C2290 1.368 . S
C2285 C2269 1.349 . S
C2285 H2277 0.950 . S
C2285 C2283 1.327 . S
C2286 C2274 1.349 . S
C2286 H2280 0.950 . S
C2286 C2287 1.327 1_554 S
C2287 H2281 0.950 . S
C2287 C2286 1.327 1_556 S
C2287 C2291 1.429 . S
C2288 C2271 1.574 . S
C2288 H2282 0.949 . S
C2288 C2292 1.368 . S
C2289 C2270 1.429 . S
C2289 C2283 1.429 . S
C2289 C2290 1.523 . S
C2290 C2271 1.368 . S
C2290 C2284 1.368 . S
C2290 C2289 1.523 . S
C2291 C2275 1.429 . S
C2291 C2287 1.429 . S
C2291 C2292 1.523 . S
C2292 C2276 1.368 . S
C2292 C2288 1.368 . S
C2292 C2291 1.523 . S
H2293 C2268 0.950 . S
H2294 C2270 0.950 . S
H2295 C2271 0.949 . S
H2296 C2273 0.950 . S
H2297 C2275 0.950 . S
C2298 C2299 1.349 1_556 S
C2298 C2300 1.327 . S
C2298 H2323 0.950 . S
C2299 C2298 1.349 1_554 S
C2299 C2315 1.349 . S
C2300 C2298 1.327 . S
C2300 C2319 1.429 . S
C2300 H2324 0.950 . S
C2301 C2318 1.574 . S
C2301 C2320 1.368 . S
C2301 H2325 0.949 . S
H2302 C2306 0.949 . S
C2303 C2304 1.349 . S
C2303 C2305 1.327 . S
C2303 H2326 0.950 . S
C2304 C2303 1.349 . S
C2304 C2316 1.349 . S
C2305 C2303 1.327 . S
C2305 C2321 1.429 . S
C2305 H2327 0.950 . S
C2306 H2302 0.949 . S
C2306 C2314 1.574 . S
C2306 C2322 1.368 . S
H2307 C2315 0.950 . S
H2308 C2313 0.950 . S
H2309 C2314 0.949 . S
H2310 C2316 0.950 . S
H2311 C2317 0.950 . S
H2312 C2318 0.949 . S
C2313 H2308 0.950 . S
C2313 C2315 1.327 1_556 S
C2313 C2319 1.429 . S
C2314 C2306 1.574 . S
C2314 H2309 0.949 . S
C2314 C2320 1.368 . S
C2315 C2299 1.349 . S
C2315 H2307 0.950 . S
C2315 C2313 1.327 1_554 S
C2316 C2304 1.349 . S
C2316 H2310 0.950 . S
C2316 C2317 1.327 . S
C2317 H2311 0.950 . S
C2317 C2316 1.327 . S
C2317 C2321 1.429 . S
C2318 C2301 1.574 . S
C2318 H2312 0.949 . S
C2318 C2322 1.368 . S
C2319 C2300 1.429 . S
C2319 C2313 1.429 . S
C2319 C2320 1.523 . S
C2320 C2301 1.368 . S
C2320 C2314 1.368 . S
C2320 C2319 1.523 . S
C2321 C2305 1.429 . S
C2321 C2317 1.429 . S
C2321 C2322 1.523 . S
C2322 C2306 1.368 . S
C2322 C2318 1.368 . S
C2322 C2321 1.523 . S
H2323 C2298 0.950 . S
H2324 C2300 0.950 . S
H2325 C2301 0.949 . S
H2326 C2303 0.950 . S
H2327 C2305 0.950 . S
C2328 C2329 1.349 . S
C2328 C2330 1.327 . S
C2328 H2353 0.950 . S
C2329 C2328 1.349 . S
C2329 C2345 1.349 . S
C2330 C2328 1.327 . S
C2330 C2349 1.429 . S
C2330 H2354 0.950 . S
C2331 C2348 1.574 . S
C2331 C2350 1.368 . S
C2331 H2355 0.949 . S
H2332 C2336 0.949 . S
C2333 C2334 1.349 . S
C2333 C2335 1.327 1_554 S
C2333 H2356 0.950 . S
C2334 C2333 1.349 . S
C2334 C2346 1.349 1_554 S
C2335 C2333 1.327 1_556 S
C2335 C2351 1.429 . S
C2335 H2357 0.950 . S
C2336 H2332 0.949 . S
C2336 C2344 1.574 . S
C2336 C2352 1.368 . S
H2337 C2345 0.950 . S
H2338 C2343 0.950 . S
H2339 C2344 0.949 . S
H2340 C2346 0.950 . S
H2341 C2347 0.950 . S
H2342 C2348 0.949 . S
C2343 H2338 0.950 . S
C2343 C2345 1.327 . S
C2343 C2349 1.429 . S
C2344 C2336 1.574 . S
C2344 H2339 0.949 . S
C2344 C2350 1.368 . S
C2345 C2329 1.349 . S
C2345 H2337 0.950 . S
C2345 C2343 1.327 . S
C2346 C2334 1.349 1_556 S
C2346 H2340 0.950 . S
C2346 C2347 1.327 . S
C2347 H2341 0.950 . S
C2347 C2346 1.327 . S
C2347 C2351 1.429 . S
C2348 C2331 1.574 . S
C2348 H2342 0.949 . S
C2348 C2352 1.368 . S
C2349 C2330 1.429 . S
C2349 C2343 1.429 . S
C2349 C2350 1.523 . S
C2350 C2331 1.368 . S
C2350 C2344 1.368 . S
C2350 C2349 1.523 . S
C2351 C2335 1.429 . S
C2351 C2347 1.429 . S
C2351 C2352 1.523 . S
C2352 C2336 1.368 . S
C2352 C2348 1.368 . S
C2352 C2351 1.523 . S
H2353 C2328 0.950 . S
H2354 C2330 0.950 . S
H2355 C2331 0.949 . S
H2356 C2333 0.950 . S
H2357 C2335 0.950 . S
C2358 C2359 1.349 . S
C2358 C2360 1.327 . S
C2358 H2383 0.950 . S
C2359 C2358 1.349 . S
C2359 C2375 1.349 . S
C2360 C2358 1.327 . S
C2360 C2379 1.429 . S
C2360 H2384 0.950 . S
C2361 C2378 1.574 . S
C2361 C2380 1.368 . S
C2361 H2385 0.949 . S
H2362 C2366 0.949 . S
C2363 C2364 1.349 . S
C2363 C2365 1.327 . S
C2363 H2386 0.950 . S
C2364 C2363 1.349 . S
C2364 C2376 1.349 . S
C2365 C2363 1.327 . S
C2365 C2381 1.429 . S
C2365 H2387 0.950 . S
C2366 H2362 0.949 . S
C2366 C2374 1.574 . S
C2366 C2382 1.368 . S
H2367 C2375 0.950 . S
H2368 C2373 0.950 . S
H2369 C2374 0.949 . S
H2370 C2376 0.950 . S
H2371 C2377 0.950 . S
H2372 C2378 0.949 . S
C2373 H2368 0.950 . S
C2373 C2375 1.327 . S
C2373 C2379 1.429 . S
C2374 C2366 1.574 . S
C2374 H2369 0.949 . S
C2374 C2380 1.368 . S
C2375 C2359 1.349 . S
C2375 H2367 0.950 . S
C2375 C2373 1.327 . S
C2376 C2364 1.349 . S
C2376 H2370 0.950 . S
C2376 C2377 1.327 . S
C2377 H2371 0.950 . S
C2377 C2376 1.327 . S
C2377 C2381 1.429 . S
C2378 C2361 1.574 . S
C2378 H2372 0.949 . S
C2378 C2382 1.368 . S
C2379 C2360 1.429 . S
C2379 C2373 1.429 . S
C2379 C2380 1.523 . S
C2380 C2361 1.368 . S
C2380 C2374 1.368 . S
C2380 C2379 1.523 . S
C2381 C2365 1.429 . S
C2381 C2377 1.429 . S
C2381 C2382 1.523 . S
C2382 C2366 1.368 . S
C2382 C2378 1.368 . S
C2382 C2381 1.523 . S
H2383 C2358 0.950 . S
H2384 C2360 0.950 . S
H2385 C2361 0.949 . S
H2386 C2363 0.950 . S
H2387 C2365 0.950 . S
C2388 C2389 1.349 . S
C2388 C2390 1.327 . S
C2388 H2413 0.950 . S
C2389 C2388 1.349 . S
C2389 C2405 1.349 . S
C2390 C2388 1.327 . S
C2390 C2409 1.429 . S
C2390 H2414 0.950 . S
C2391 C2408 1.574 . S
C2391 C2410 1.368 . S
C2391 H2415 0.949 . S
H2392 C2396 0.949 . S
C2393 C2394 1.349 . S
C2393 C2395 1.327 . S
C2393 H2416 0.950 . S
C2394 C2393 1.349 . S
C2394 C2406 1.349 . S
C2395 C2393 1.327 . S
C2395 C2411 1.429 . S
C2395 H2417 0.950 . S
C2396 H2392 0.949 . S
C2396 C2404 1.574 . S
C2396 C2412 1.368 . S
H2397 C2405 0.950 . S
H2398 C2403 0.950 . S
H2399 C2404 0.949 . S
H2400 C2406 0.950 . S
H2401 C2407 0.950 . S
H2402 C2408 0.949 . S
C2403 H2398 0.950 . S
C2403 C2405 1.327 . S
C2403 C2409 1.429 . S
C2404 C2396 1.574 . S
C2404 H2399 0.949 . S
C2404 C2410 1.368 . S
C2405 C2389 1.349 . S
C2405 H2397 0.950 . S
C2405 C2403 1.327 . S
C2406 C2394 1.349 . S
C2406 H2400 0.950 . S
C2406 C2407 1.327 . S
C2407 H2401 0.950 . S
C2407 C2406 1.327 . S
C2407 C2411 1.429 . S
C2408 C2391 1.574 . S
C2408 H2402 0.949 . S
C2408 C2412 1.368 . S
C2409 C2390 1.429 . S
C2409 C2403 1.429 . S
C2409 C2410 1.523 . S
C2410 C2391 1.368 . S
C2410 C2404 1.368 . S
C2410 C2409 1.523 . S
C2411 C2395 1.429 . S
C2411 C2407 1.429 . S
C2411 C2412 1.523 . S
C2412 C2396 1.368 . S
C2412 C2408 1.368 . S
C2412 C2411 1.523 . S
H2413 C2388 0.950 . S
H2414 C2390 0.950 . S
H2415 C2391 0.949 . S
H2416 C2393 0.950 . S
H2417 C2395 0.950 . S
C2418 C2419 1.349 . S
C2418 C2420 1.327 . S
C2418 H2443 0.950 . S
C2419 C2418 1.349 . S
C2419 C2435 1.349 . S
C2420 C2418 1.327 . S
C2420 C2439 1.429 . S
C2420 H2444 0.950 . S
C2421 C2438 1.574 . S
C2421 C2440 1.368 . S
C2421 H2445 0.949 . S
H2422 C2426 0.949 . S
C2423 C2424 1.349 . S
C2423 C2425 1.327 . S
C2423 H2446 0.950 . S
C2424 C2423 1.349 . S
C2424 C2436 1.349 . S
C2425 C2423 1.327 . S
C2425 C2441 1.429 . S
C2425 H2447 0.950 . S
C2426 H2422 0.949 . S
C2426 C2434 1.574 . S
C2426 C2442 1.368 . S
H2427 C2435 0.950 . S
H2428 C2433 0.950 . S
H2429 C2434 0.949 . S
H2430 C2436 0.950 . S
H2431 C2437 0.950 . S
H2432 C2438 0.949 . S
C2433 H2428 0.950 . S
C2433 C2435 1.327 . S
C2433 C2439 1.429 . S
C2434 C2426 1.574 . S
C2434 H2429 0.949 . S
C2434 C2440 1.368 . S
C2435 C2419 1.349 . S
C2435 H2427 0.950 . S
C2435 C2433 1.327 . S
C2436 C2424 1.349 . S
C2436 H2430 0.950 . S
C2436 C2437 1.327 . S
C2437 H2431 0.950 . S
C2437 C2436 1.327 . S
C2437 C2441 1.429 . S
C2438 C2421 1.574 . S
C2438 H2432 0.949 . S
C2438 C2442 1.368 . S
C2439 C2420 1.429 . S
C2439 C2433 1.429 . S
C2439 C2440 1.523 . S
C2440 C2421 1.368 . S
C2440 C2434 1.368 . S
C2440 C2439 1.523 . S
C2441 C2425 1.429 . S
C2441 C2437 1.429 . S
C2441 C2442 1.523 . S
C2442 C2426 1.368 . S
C2442 C2438 1.368 . S
C2442 C2441 1.523 . S
H2443 C2418 0.950 . S
H2444 C2420 0.950 . S
H2445 C2421 0.949 . S
H2446 C2423 0.950 . S
H2447 C2425 0.950 . S
C2448 C2449 1.349 . S
C2448 C2450 1.327 . S
C2448 H2473 0.950 . S
C2449 C2448 1.349 . S
C2449 C2465 1.349 . S
C2450 C2448 1.327 . S
C2450 C2469 1.429 . S
C2450 H2474 0.950 . S
C2451 C2468 1.574 . S
C2451 C2470 1.368 . S
C2451 H2475 0.949 . S
H2452 C2456 0.949 . S
C2453 C2454 1.349 . S
C2453 C2455 1.327 . S
C2453 H2476 0.950 . S
C2454 C2453 1.349 . S
C2454 C2466 1.349 . S
C2455 C2453 1.327 . S
C2455 C2471 1.429 . S
C2455 H2477 0.950 . S
C2456 H2452 0.949 . S
C2456 C2464 1.574 . S
C2456 C2472 1.368 . S
H2457 C2465 0.950 . S
H2458 C2463 0.950 . S
H2459 C2464 0.949 . S
H2460 C2466 0.950 . S
H2461 C2467 0.950 . S
H2462 C2468 0.949 . S
C2463 H2458 0.950 . S
C2463 C2465 1.327 . S
C2463 C2469 1.429 . S
C2464 C2456 1.574 . S
C2464 H2459 0.949 . S
C2464 C2470 1.368 . S
C2465 C2449 1.349 . S
C2465 H2457 0.950 . S
C2465 C2463 1.327 . S
C2466 C2454 1.349 . S
C2466 H2460 0.950 . S
C2466 C2467 1.327 . S
C2467 H2461 0.950 . S
C2467 C2466 1.327 . S
C2467 C2471 1.429 . S
C2468 C2451 1.574 . S
C2468 H2462 0.949 . S
C2468 C2472 1.368 . S
C2469 C2450 1.429 . S
C2469 C2463 1.429 . S
C2469 C2470 1.523 . S
C2470 C2451 1.368 . S
C2470 C2464 1.368 . S
C2470 C2469 1.523 . S
C2471 C2455 1.429 . S
C2471 C2467 1.429 . S
C2471 C2472 1.523 . S
C2472 C2456 1.368 . S
C2472 C2468 1.368 . S
C2472 C2471 1.523 . S
H2473 C2448 0.950 . S
H2474 C2450 0.950 . S
H2475 C2451 0.949 . S
H2476 C2453 0.950 . S
H2477 C2455 0.950 . S
C2478 C2479 1.349 . S
C2478 C2480 1.327 . S
C2478 H2503 0.950 . S
C2479 C2478 1.349 . S
C2479 C2495 1.349 . S
C2480 C2478 1.327 . S
C2480 C2499 1.429 . S
C2480 H2504 0.950 . S
C2481 C2498 1.574 . S
C2481 C2500 1.368 . S
C2481 H2505 0.949 . S
H2482 C2486 0.949 . S
C2483 C2484 1.349 . S
C2483 C2485 1.327 . S
C2483 H2506 0.950 . S
C2484 C2483 1.349 . S
C2484 C2496 1.349 . S
C2485 C2483 1.327 . S
C2485 C2501 1.429 . S
C2485 H2507 0.950 . S
C2486 H2482 0.949 . S
C2486 C2494 1.574 . S
C2486 C2502 1.368 . S
H2487 C2495 0.950 . S
H2488 C2493 0.950 . S
H2489 C2494 0.949 . S
H2490 C2496 0.950 . S
H2491 C2497 0.950 . S
H2492 C2498 0.949 . S
C2493 H2488 0.950 . S
C2493 C2495 1.327 . S
C2493 C2499 1.429 . S
C2494 C2486 1.574 . S
C2494 H2489 0.949 . S
C2494 C2500 1.368 1_565 S
C2495 C2479 1.349 . S
C2495 H2487 0.950 . S
C2495 C2493 1.327 . S
C2496 C2484 1.349 . S
C2496 H2490 0.950 . S
C2496 C2497 1.327 . S
C2497 H2491 0.950 . S
C2497 C2496 1.327 . S
C2497 C2501 1.429 . S
C2498 C2481 1.574 . S
C2498 H2492 0.949 . S
C2498 C2502 1.368 1_545 S
C2499 C2480 1.429 . S
C2499 C2493 1.429 . S
C2499 C2500 1.523 . S
C2500 C2481 1.368 . S
C2500 C2494 1.368 1_545 S
C2500 C2499 1.523 . S
C2501 C2485 1.429 . S
C2501 C2497 1.429 . S
C2501 C2502 1.523 . S
C2502 C2486 1.368 . S
C2502 C2498 1.368 1_565 S
C2502 C2501 1.523 . S
H2503 C2478 0.950 . S
H2504 C2480 0.950 . S
H2505 C2481 0.949 . S
H2506 C2483 0.950 . S
H2507 C2485 0.950 . S
C2508 C2509 1.349 . S
C2508 C2510 1.327 . S
C2508 H2533 0.950 . S
C2509 C2508 1.349 . S
C2509 C2525 1.349 . S
C2510 C2508 1.327 . S
C2510 C2529 1.429 . S
C2510 H2534 0.950 . S
C2511 C2528 1.574 1_655 S
C2511 C2530 1.368 . S
C2511 H2535 0.949 . S
H2512 C2516 0.949 . S
C2513 C2514 1.349 . S
C2513 C2515 1.327 . S
C2513 H2536 0.950 . S
C2514 C2513 1.349 . S
C2514 C2526 1.349 . S
C2515 C2513 1.327 . S
C2515 C2531 1.429 . S
C2515 H2537 0.950 . S
C2516 H2512 0.949 . S
C2516 C2524 1.574 1_455 S
C2516 C2532 1.368 . S
H2517 C2525 0.950 . S
H2518 C2523 0.950 . S
H2519 C2524 0.949 . S
H2520 C2526 0.950 . S
H2521 C2527 0.950 . S
H2522 C2528 0.949 . S
C2523 H2518 0.950 . S
C2523 C2525 1.327 . S
C2523 C2529 1.429 . S
C2524 C2516 1.574 1_655 S
C2524 H2519 0.949 . S
C2524 C2530 1.368 . S
C2525 C2509 1.349 . S
C2525 H2517 0.950 . S
C2525 C2523 1.327 . S
C2526 C2514 1.349 . S
C2526 H2520 0.950 . S
C2526 C2527 1.327 . S
C2527 H2521 0.950 . S
C2527 C2526 1.327 . S
C2527 C2531 1.429 . S
C2528 C2511 1.574 1_455 S
C2528 H2522 0.949 . S
C2528 C2532 1.368 . S
C2529 C2510 1.429 . S
C2529 C2523 1.429 . S
C2529 C2530 1.523 . S
C2530 C2511 1.368 . S
C2530 C2524 1.368 . S
C2530 C2529 1.523 . S
C2531 C2515 1.429 . S
C2531 C2527 1.429 . S
C2531 C2532 1.523 . S
C2532 C2516 1.368 . S
C2532 C2528 1.368 . S
C2532 C2531 1.523 . S
H2533 C2508 0.950 . S
H2534 C2510 0.950 . S
H2535 C2511 0.949 . S
H2536 C2513 0.950 . S
H2537 C2515 0.950 . S
C2538 C2539 1.349 . S
C2538 C2540 1.327 . S
C2538 H2563 0.950 . S
C2539 C2538 1.349 . S
C2539 C2555 1.349 . S
C2540 C2538 1.327 . S
C2540 C2559 1.429 . S
C2540 H2564 0.950 . S
C2541 C2558 1.574 . S
C2541 C2560 1.368 . S
C2541 H2565 0.949 . S
H2542 C2546 0.949 . S
C2543 C2544 1.349 . S
C2543 C2545 1.327 . S
C2543 H2566 0.950 . S
C2544 C2543 1.349 . S
C2544 C2556 1.349 . S
C2545 C2543 1.327 . S
C2545 C2561 1.429 . S
C2545 H2567 0.950 . S
C2546 H2542 0.949 . S
C2546 C2554 1.574 . S
C2546 C2562 1.368 . S
H2547 C2555 0.950 . S
H2548 C2553 0.950 . S
H2549 C2554 0.949 . S
H2550 C2556 0.950 . S
H2551 C2557 0.950 . S
H2552 C2558 0.949 . S
C2553 H2548 0.950 . S
C2553 C2555 1.327 . S
C2553 C2559 1.429 . S
C2554 C2546 1.574 . S
C2554 H2549 0.949 . S
C2554 C2560 1.368 . S
C2555 C2539 1.349 . S
C2555 H2547 0.950 . S
C2555 C2553 1.327 . S
C2556 C2544 1.349 . S
C2556 H2550 0.950 . S
C2556 C2557 1.327 . S
C2557 H2551 0.950 . S
C2557 C2556 1.327 . S
C2557 C2561 1.429 . S
C2558 C2541 1.574 . S
C2558 H2552 0.949 . S
C2558 C2562 1.368 . S
C2559 C2540 1.429 . S
C2559 C2553 1.429 . S
C2559 C2560 1.523 . S
C2560 C2541 1.368 . S
C2560 C2554 1.368 . S
C2560 C2559 1.523 . S
C2561 C2545 1.429 . S
C2561 C2557 1.429 . S
C2561 C2562 1.523 . S
C2562 C2546 1.368 . S
C2562 C2558 1.368 . S
C2562 C2561 1.523 . S
H2563 C2538 0.950 . S
H2564 C2540 0.950 . S
H2565 C2541 0.949 . S
H2566 C2543 0.950 . S
H2567 C2545 0.950 . S
C2568 C2569 1.349 . S
C2568 C2570 1.327 . S
C2568 H2593 0.950 . S
C2569 C2568 1.349 . S
C2569 C2585 1.349 . S
C2570 C2568 1.327 . S
C2570 C2589 1.429 . S
C2570 H2594 0.950 . S
C2571 C2588 1.574 . S
C2571 C2590 1.368 1_565 S
C2571 H2595 0.949 . S
H2572 C2576 0.949 . S
C2573 C2574 1.349 . S
C2573 C2575 1.327 . S
C2573 H2596 0.950 . S
C2574 C2573 1.349 . S
C2574 C2586 1.349 . S
C2575 C2573 1.327 . S
C2575 C2591 1.429 . S
C2575 H2597 0.950 . S
C2576 H2572 0.949 . S
C2576 C2584 1.574 . S
C2576 C2592 1.368 1_545 S
H2577 C2585 0.950 . S
H2578 C2583 0.950 . S
H2579 C2584 0.949 . S
H2580 C2586 0.950 . S
H2581 C2587 0.950 . S
H2582 C2588 0.949 . S
C2583 H2578 0.950 . S
C2583 C2585 1.327 . S
C2583 C2589 1.429 . S
C2584 C2576 1.574 . S
C2584 H2579 0.949 . S
C2584 C2590 1.368 . S
C2585 C2569 1.349 . S
C2585 H2577 0.950 . S
C2585 C2583 1.327 . S
C2586 C2574 1.349 . S
C2586 H2580 0.950 . S
C2586 C2587 1.327 . S
C2587 H2581 0.950 . S
C2587 C2586 1.327 . S
C2587 C2591 1.429 . S
C2588 C2571 1.574 . S
C2588 H2582 0.949 . S
C2588 C2592 1.368 . S
C2589 C2570 1.429 . S
C2589 C2583 1.429 . S
C2589 C2590 1.523 . S
C2590 C2571 1.368 1_545 S
C2590 C2584 1.368 . S
C2590 C2589 1.523 . S
C2591 C2575 1.429 . S
C2591 C2587 1.429 . S
C2591 C2592 1.523 . S
C2592 C2576 1.368 1_565 S
C2592 C2588 1.368 . S
C2592 C2591 1.523 . S
H2593 C2568 0.950 . S
H2594 C2570 0.950 . S
H2595 C2571 0.949 . S
H2596 C2573 0.950 . S
H2597 C2575 0.950 . S
C2598 C2599 1.349 . S
C2598 C2600 1.327 . S
C2598 H2623 0.950 . S
C2599 C2598 1.349 . S
C2599 C2615 1.349 . S
C2600 C2598 1.327 . S
C2600 C2619 1.429 . S
C2600 H2624 0.950 . S
C2601 C2618 1.574 . S
C2601 C2620 1.368 . S
C2601 H2625 0.949 . S
H2602 C2606 0.949 . S
C2603 C2604 1.349 . S
C2603 C2605 1.327 . S
C2603 H2626 0.950 . S
C2604 C2603 1.349 . S
C2604 C2616 1.349 . S
C2605 C2603 1.327 . S
C2605 C2621 1.429 . S
C2605 H2627 0.950 . S
C2606 H2602 0.949 . S
C2606 C2614 1.574 . S
C2606 C2622 1.368 . S
H2607 C2615 0.950 . S
H2608 C2613 0.950 . S
H2609 C2614 0.949 . S
H2610 C2616 0.950 . S
H2611 C2617 0.950 . S
H2612 C2618 0.949 . S
C2613 H2608 0.950 . S
C2613 C2615 1.327 . S
C2613 C2619 1.429 . S
C2614 C2606 1.574 . S
C2614 H2609 0.949 . S
C2614 C2620 1.368 1_655 S
C2615 C2599 1.349 . S
C2615 H2607 0.950 . S
C2615 C2613 1.327 . S
C2616 C2604 1.349 . S
C2616 H2610 0.950 . S
C2616 C2617 1.327 . S
C2617 H2611 0.950 . S
C2617 C2616 1.327 . S
C2617 C2621 1.429 . S
C2618 C2601 1.574 . S
C2618 H2612 0.949 . S
C2618 C2622 1.368 1_455 S
C2619 C2600 1.429 . S
C2619 C2613 1.429 . S
C2619 C2620 1.523 . S
C2620 C2601 1.368 . S
C2620 C2614 1.368 1_455 S
C2620 C2619 1.523 . S
C2621 C2605 1.429 . S
C2621 C2617 1.429 . S
C2621 C2622 1.523 . S
C2622 C2606 1.368 . S
C2622 C2618 1.368 1_655 S
C2622 C2621 1.523 . S
H2623 C2598 0.950 . S
H2624 C2600 0.950 . S
H2625 C2601 0.949 . S
H2626 C2603 0.950 . S
H2627 C2605 0.950 . S
C469 C70 1.003 . S
C474 C5 1.003 . S
C499 C44 1.003 . S
C504 C18 1.003 . S
C529 C29 1.003 . S
C534 C57 1.003 . S
C559 C83 1.003 . S
C564 C146 1.003 . S
C589 C94 1.003 . S
C594 C120 1.003 . S
C619 C135 1.003 . S
C624 C109 1.003 . S
C649 C159 1.003 . S
C654 C224 1.003 . S
C679 C172 1.003 . S
C684 C200 1.003 . S
C709 C213 1.003 . S
C714 C187 1.003 . S
C739 C304 1.003 . S
C744 C237 1.003 . S
C769 C278 1.003 . S
C774 C252 1.003 . S
C799 C263 1.003 . S
C804 C289 1.003 . S
C829 C382 1.003 . S
C834 C315 1.003 . S
C859 C356 1.003 . S
C864 C328 1.003 . S
C889 C341 1.003 . S
C894 C367 1.003 . S
C919 C460 1.003 . S
C924 C393 1.003 . S
C949 C434 1.003 . S
C954 C406 1.003 . S
C979 C447 1.003 . S
C984 C419 1.003 . S
C1009 C218 1.304 . S
C1014 C10 1.304 . S
C1039 C225 1.304 . S
C1044 C23 1.304 . S
C1069 C205 1.304 . S
C1074 C30 1.304 . S
C1099 C49 1.304 . S
C1104 C342 1.304 . S
C1129 C62 1.304 . S
C1134 C316 1.304 . S
C1159 C75 1.304 . S
C1164 C329 1.304 . S
C1189 C88 1.304 . S
C1194 C452 1.304 . S
C1219 C465 1.304 . S
C1224 C95 1.304 . S
C1249 C439 1.304 . S
C1254 C114 1.304 . S
C1279 C264 1.304 . S
C1284 C121 1.304 . S
C1309 C238 1.304 . S
C1314 C140 1.304 . S
C1339 C147 1.304 . S
C1344 C257 1.304 . S
C1369 C160 1.304 . S
C1374 C368 1.304 . S
C1399 C387 1.304 . S
C1404 C173 1.304 . S
C1429 C361 1.304 . S
C1434 C192 1.304 . S
C1459 C283 1.304 . S
C1464 C420 1.304 . S
C1489 C394 1.304 . S
C1494 C290 1.304 . S
C1519 C309 1.304 . S
C1524 C407 1.304 . S
C1549 C244 1.689 . S
C1554 C4 1.689 . S
C1579 C251 1.690 . S
C1584 C17 1.690 . S
C1609 C36 1.691 . S
C1614 C270 1.691 . S
C1639 C43 1.689 . S
C1644 C433 1.689 . S
C1669 C446 1.691 . S
C1674 C56 1.691 . S
C1699 C459 1.690 . S
C1704 C69 1.690 . S
C1729 C82 1.689 . S
C1734 C322 1.689 . S
C1759 C101 1.690 . S
C1764 C335 1.690 . S
C1789 C348 1.690 . S
C1794 C108 1.690 . S
C1819 C127 1.689 . S
C1824 C199 1.689 . S
C1849 C134 1.690 . S
C1854 C212 1.690 . S
C1879 C231 1.690 . S
C1884 C153 1.690 . S
C1909 C166 1.689 . S
C1914 C400 1.689 . S
C1939 C179 1.690 . S
C1944 C413 1.690 . S
C1969 C426 1.690 . S
C1974 C186 1.690 . S
C1999 C355 1.689 . S
C2004 C277 1.689 . S
C2029 C296 1.690 . S
C2034 C374 1.690 . S
C2059 C303 1.690 . S
C2064 C381 1.690 . S
C2089 C354 1.590 . S
C2094 C3 1.590 . S
C2119 C16 1.591 . S
C2124 C369 1.591 . S
C2149 C380 1.591 . S
C2154 C31 1.591 . S
C2179 C42 1.590 . S
C2184 C161 1.590 . S
C2209 C174 1.591 . S
C2214 C55 1.591 . S
C2239 C185 1.591 . S
C2244 C68 1.591 . S
C2269 C81 1.590 . S
C2274 C276 1.590 . S
C2299 C291 1.591 . S
C2304 C96 1.591 . S
C2329 C107 1.591 . S
C2334 C302 1.591 . S
C2359 C122 1.590 . S
C2364 C395 1.590 . S
C2389 C133 1.591 . S
C2394 C408 1.591 . S
C2419 C421 1.591 . S
C2424 C148 1.591 . S
C2449 C198 1.591 . S
C2454 C317 1.591 . S
C2479 C211 1.591 . S
C2484 C330 1.591 . S
C2509 C226 1.591 . S
C2514 C343 1.591 . S
C2539 C239 1.591 . S
C2544 C432 1.591 . S
C2569 C250 1.591 . S
C2574 C445 1.591 . S
C2599 C458 1.591 . S
C2604 C265 1.591 . S
