# Generated by pormake.
# Topology snz, (6)-cn, num edge types: 1
# Building blocks:
#     Node 0, Type 0, BuildingBlock: BETFAJ_clean_sbu_0, # of connection points: 6
#     Node 1, Type 0, BuildingBlock: BETFAJ_clean_sbu_0, # of connection points: 6
#     Node 2, Type 0, BuildingBlock: BETFAJ_clean_sbu_0, # of connection points: 6
#     Node 3, Type 0, BuildingBlock: BETFAJ_clean_sbu_0, # of connection points: 6
#     Node 4, Type 0, BuildingBlock: BETFAJ_clean_sbu_0, # of connection points: 6
#     Node 5, Type 0, BuildingBlock: BETFAJ_clean_sbu_0, # of connection points: 6
#     Node 6, Type 0, BuildingBlock: BETFAJ_clean_sbu_0, # of connection points: 6
#     Node 7, Type 0, BuildingBlock: BETFAJ_clean_sbu_0, # of connection points: 6
#     Node 8, Type 0, BuildingBlock: BETFAJ_clean_sbu_0, # of connection points: 6
#     Edge 9, Type (0, 0), BuildingBlock: TEMPAE_clean_linker_10, # of connection points: 2
#     Edge 10, Type (0, 0), BuildingBlock: TEMPAE_clean_linker_10, # of connection points: 2
#     Edge 11, Type (0, 0), BuildingBlock: TEMPAE_clean_linker_10, # of connection points: 2
#     Edge 12, Type (0, 0), BuildingBlock: TEMPAE_clean_linker_10, # of connection points: 2
#     Edge 13, Type (0, 0), BuildingBlock: TEMPAE_clean_linker_10, # of connection points: 2
#     Edge 14, Type (0, 0), BuildingBlock: TEMPAE_clean_linker_10, # of connection points: 2
#     Edge 15, Type (0, 0), BuildingBlock: TEMPAE_clean_linker_10, # of connection points: 2
#     Edge 16, Type (0, 0), BuildingBlock: TEMPAE_clean_linker_10, # of connection points: 2
#     Edge 17, Type (0, 0), BuildingBlock: TEMPAE_clean_linker_10, # of connection points: 2
#     Edge 18, Type (0, 0), BuildingBlock: TEMPAE_clean_linker_10, # of connection points: 2
#     Edge 19, Type (0, 0), BuildingBlock: TEMPAE_clean_linker_10, # of connection points: 2
#     Edge 20, Type (0, 0), BuildingBlock: TEMPAE_clean_linker_10, # of connection points: 2
#     Edge 21, Type (0, 0), BuildingBlock: TEMPAE_clean_linker_10, # of connection points: 2
#     Edge 22, Type (0, 0), BuildingBlock: TEMPAE_clean_linker_10, # of connection points: 2
#     Edge 23, Type (0, 0), BuildingBlock: TEMPAE_clean_linker_10, # of connection points: 2
#     Edge 24, Type (0, 0), BuildingBlock: TEMPAE_clean_linker_10, # of connection points: 2
#     Edge 25, Type (0, 0), BuildingBlock: TEMPAE_clean_linker_10, # of connection points: 2
#     Edge 26, Type (0, 0), BuildingBlock: TEMPAE_clean_linker_10, # of connection points: 2
#     Edge 27, Type (0, 0), BuildingBlock: TEMPAE_clean_linker_10, # of connection points: 2
#     Edge 28, Type (0, 0), BuildingBlock: TEMPAE_clean_linker_10, # of connection points: 2
#     Edge 29, Type (0, 0), BuildingBlock: TEMPAE_clean_linker_10, # of connection points: 2
#     Edge 30, Type (0, 0), BuildingBlock: TEMPAE_clean_linker_10, # of connection points: 2
#     Edge 31, Type (0, 0), BuildingBlock: TEMPAE_clean_linker_10, # of connection points: 2
#     Edge 32, Type (0, 0), BuildingBlock: TEMPAE_clean_linker_10, # of connection points: 2
#     Edge 33, Type (0, 0), BuildingBlock: TEMPAE_clean_linker_10, # of connection points: 2
#     Edge 34, Type (0, 0), BuildingBlock: TEMPAE_clean_linker_10, # of connection points: 2
#     Edge 35, Type (0, 0), BuildingBlock: TEMPAE_clean_linker_10, # of connection points: 2
# Relax obj value: 0.430
# Max RMSD: 0.270
# Mean RMSD: 0.177
data_MOF--net-snz--node1-BETFAJ_clean_sbu_0--edge1-TEMPAE_clean_linker_10
_symmetry_space_group_name_H-M    P1
_symmetry_Int_Tables_number       1
_symmetry_cell_setting            triclinic
loop_
_symmetry_equiv_pos_as_xyz
'x, y, z'
_cell_length_a     68.963633
_cell_length_b     55.558832
_cell_length_c     16.156724
_cell_angle_alpha  96.484742
_cell_angle_beta   96.897007
_cell_angle_gamma 120.97232
loop_
_atom_site_label
_atom_site_type_symbol
_atom_site_fract_x
_atom_site_fract_y
_atom_site_fract_z
_atom_type_partial_charge
Sm0 Sm 0.13038 0.50349 0.24995 0.0
Sm1 Sm 0.09569 0.51069 0.2482 0.0
C2 C 0.16145 0.48832 0.27555 0.0
C3 C 0.1674 0.46931 0.31423 0.0
C4 C 0.16042 0.45973 0.38856 0.0
C5 C 0.16752 0.44299 0.42546 0.0
C6 C 0.18173 0.43543 0.38878 0.0
C7 C 0.18842 0.44495 0.31387 0.0
C8 C 0.18134 0.4616 0.27723 0.0
C9 C 0.12162 0.5136 0.08347 0.0
C10 C 0.07917 0.44607 0.1898 0.0
C11 C 0.06528 0.52698 0.24377 0.0
C12 C 0.0575 0.54465 0.20653 0.0
C13 C 0.07127 0.57484 0.22636 0.0
C14 C 0.06243 0.59114 0.19981 0.0
C15 C 0.03967 0.57769 0.15262 0.0
C16 C 0.02617 0.54751 0.13103 0.0
C17 C 0.03495 0.53123 0.15794 0.0
C18 C 0.10608 0.49997 0.41259 0.0
C19 C 0.14532 0.56892 0.27899 0.0
O20 O 0.14454 0.47677 0.20925 0.0
O21 O 0.16204 0.50877 0.32612 0.0
O22 O 0.1061 0.49881 0.12471 0.0
O23 O 0.1417 0.52416 0.13242 0.0
O24 O 0.09951 0.4563 0.23921 0.0
O25 O 0.07371 0.46445 0.1711 0.0
O26 O 0.06112 0.50363 0.19587 0.0
O27 O 0.08515 0.54027 0.29699 0.0
O28 O 0.12054 0.51679 0.37193 0.0
O29 O 0.08595 0.48626 0.36169 0.0
O30 O 0.12396 0.55622 0.23635 0.0
O31 O 0.15248 0.55259 0.3041 0.0
H32 H 0.14964 0.46535 0.41841 0.0
H33 H 0.16178 0.43586 0.48251 0.0
H34 H 0.19965 0.44014 0.28432 0.0
H35 H 0.1871 0.46889 0.2203 0.0
H36 H 0.08871 0.58595 0.26403 0.0
H37 H 0.07341 0.61432 0.21664 0.0
H38 H 1.00849 0.53639 0.09561 0.0
H39 H 0.02381 0.50805 0.14277 0.0
Sm40 Sm 0.6369 0.51754 1.05798 0.0
Sm41 Sm 0.59988 0.51867 1.02968 0.0
C42 C 0.67901 0.52582 1.06872 0.0
C43 C 0.70129 0.54326 1.04304 0.0
C44 C 0.70493 0.56371 0.99285 0.0
C45 C 0.72659 0.58037 0.97157 0.0
C46 C 0.745 0.577 1.00067 0.0
C47 C 0.74104 0.55628 1.05039 0.0
C48 C 0.71948 0.53967 1.07127 0.0
C49 C 0.62048 0.51101 0.21401 0.0
C50 C 0.64415 0.58037 0.08674 0.0
C51 C 0.55802 0.51057 1.02005 0.0
C52 C 0.54102 0.50025 0.07503 0.0
C53 C 0.54464 0.48937 0.14561 0.0
C54 C 0.5282 0.47887 0.1966 0.0
C55 C 0.50784 0.47913 0.17805 0.0
C56 C 0.50445 0.49037 0.1077 0.0
C57 C 0.5209 0.50079 1.05658 0.0
C58 C 0.61662 0.52429 0.87397 0.0
C59 C 0.59136 0.45531 1.01505 0.0
O60 O 0.66116 0.50694 1.00935 0.0
O61 O 0.67372 0.53905 0.12454 0.0
O62 O 0.62058 0.52797 0.16608 0.0
O63 O 0.62815 0.49658 0.17717 0.0
O64 O 0.65212 0.56571 1.05093 0.0
O65 O 0.62319 0.5657 0.10052 0.0
O66 O 0.57715 0.53524 1.0511 0.0
O67 O 0.56174 0.49166 0.98327 0.0
O68 O 0.61528 0.50684 0.92175 0.0
O69 O 0.61046 0.54032 0.91186 0.0
O70 O 0.5837 0.47124 1.04371 0.0
O71 O 0.61271 0.46862 1.00363 0.0
H72 H 0.69112 0.5669 0.97068 0.0
H73 H 0.72904 0.59621 0.9336 0.0
H74 H 0.7546 0.55266 1.07264 0.0
H75 H 0.71702 0.52398 0.10991 0.0
H76 H 0.56015 0.48887 0.16098 0.0
H77 H 0.53149 0.47073 0.25091 0.0
H78 H 0.48887 0.49062 0.09122 0.0
H79 H 0.51781 0.50906 1.00224 0.0
Sm80 Sm 0.59656 0.05033 0.87701 0.0
Sm81 Sm 0.63774 0.09723 0.92609 0.0
C82 C 0.55194 1.00908 0.848 0.0
C83 C 0.53467 0.99707 0.90141 0.0
C84 C 0.53847 0.01229 0.98335 0.0
C85 C 0.52184 1.0009 1.0333 0.0
C86 C 0.5012 0.97399 1.00245 0.0
C87 C 0.49763 0.95872 0.92065 0.0
C88 C 0.51422 0.97021 0.87055 0.0
C89 C 0.61439 0.06547 0.72649 0.0
C90 C 0.59644 0.10813 0.91443 0.0
C91 C 0.6825 0.13519 0.92962 0.0
C92 C 0.70506 0.13692 0.93669 0.0
C93 C 0.70631 0.11358 0.90065 0.0
C94 C 0.72783 0.11662 0.8987 0.0
C95 C 0.7488 0.1431 0.93262 0.0
C96 C 0.74739 0.16612 0.97115 0.0
C97 C 0.72588 0.16306 0.97294 0.0
C98 C 0.62146 0.085 0.07961 0.0
C99 C 0.63414 0.03589 0.92827 0.0
O100 O 0.55942 0.03541 0.84068 0.0
O101 O 0.56857 1.00429 0.85954 0.0
O102 O 0.615 0.08233 0.78923 0.0
O103 O 0.60602 0.04066 0.74711 0.0
O104 O 0.58663 0.082 0.9285 0.0
O105 O 0.61769 0.12017 0.90091 0.0
O106 O 0.66692 0.11916 0.86053 0.0
O107 O 0.67335 0.13318 0.99669 0.0
O108 O 0.6183 0.0662 1.01597 0.0
O109 O 0.63276 0.11025 1.06059 0.0
O110 O 0.64744 0.0626 0.92037 0.0
O111 O 0.6121 0.02539 0.9229 0.0
H112 H 0.55427 0.033 1.00859 0.0
H113 H 0.52523 0.01301 0.09643 0.0
H114 H 0.48183 0.93807 0.89483 0.0
H115 H 0.51102 0.95816 0.80751 0.0
H116 H 0.69064 0.09314 0.87166 0.0
H117 H 0.72793 0.09837 0.86771 0.0
H118 H 0.76296 0.18672 0.99961 0.0
H119 H 0.72553 0.18146 1.001 0.0
Sm120 Sm 0.79422 0.8576 0.31484 0.0
Sm121 Sm 0.7594 0.86455 0.31426 0.0
C122 C 0.82434 0.84083 0.32251 0.0
C123 C 0.8298 0.81974 0.34679 0.0
C124 C 0.82294 0.80681 0.41657 0.0
C125 C 0.83009 0.78866 0.44134 0.0
C126 C 0.84425 0.78311 0.39687 0.0
C127 C 0.85046 0.79557 0.32561 0.0
C128 C 0.84331 0.81361 0.30099 0.0
C129 C 0.78332 0.86756 0.15062 0.0
C130 C 0.74357 0.79956 0.27163 0.0
C131 C 0.73411 0.88712 0.2829 0.0
C132 C 0.71891 0.89551 0.24041 0.0
C133 C 0.7114 0.88885 0.15157 0.0
C134 C 0.70035 0.90129 0.11246 0.0
C135 C 0.69706 0.9212 0.16122 0.0
C136 C 0.70434 0.92722 0.25054 0.0
C137 C 0.71493 0.9144 0.28936 0.0
C138 C 0.76811 0.85514 0.48052 0.0
C139 C 0.81186 0.92286 0.38494 0.0
O140 O 0.82501 0.85907 0.38295 0.0
O141 O 0.80773 0.83222 0.25695 0.0
O142 O 0.76897 0.85071 0.19176 0.0
O143 O 0.80352 0.88181 0.20129 0.0
O144 O 0.76453 0.81151 0.31778 0.0
O145 O 0.73715 0.81665 0.24722 0.0
O146 O 0.7545 0.89699 0.26491 0.0
O147 O 0.7262 0.86357 0.31289 0.0
O148 O 0.78377 0.86953 0.43879 0.0
O149 O 0.74792 0.84515 0.43269 0.0
O150 O 0.78947 0.91193 0.36875 0.0
O151 O 0.81951 0.90595 0.36915 0.0
H152 H 0.81241 0.8111 0.4527 0.0
H153 H 0.82469 0.77919 0.49582 0.0
H154 H 0.8616 0.79225 0.29046 0.0
H155 H 0.84887 0.82343 0.24711 0.0
H156 H 0.71459 0.87464 0.11234 0.0
H157 H 0.69471 0.89554 1.04385 0.0
H158 H 0.7028 0.94279 0.29096 0.0
H159 H 0.72106 0.92038 0.35789 0.0
Sm160 Sm 0.28586 0.85037 0.50409 0.0
Sm161 Sm 0.2487 0.85121 0.47497 0.0
C162 C 0.32785 0.85909 0.51146 0.0
C163 C 0.34511 0.87001 0.45762 0.0
C164 C 0.34331 0.8847 0.39485 0.0
C165 C 0.36005 0.8956 0.34514 0.0
C166 C 0.37884 0.89189 0.35688 0.0
C167 C 0.38035 0.87683 0.41936 0.0
C168 C 0.36365 0.86604 0.4693 0.0
C169 C 0.26975 0.84436 0.66093 0.0
C170 C 0.29417 0.91353 0.52112 0.0
C171 C 0.20647 0.8428 0.45931 0.0
C172 C 0.18407 0.82635 0.48595 0.0
C173 C 0.17299 0.79673 0.48377 0.0
C174 C 0.15097 0.78145 0.50323 0.0
C175 C 0.13952 0.79543 0.52518 0.0
C176 C 0.15098 0.8252 0.52897 0.0
C177 C 0.17291 0.8404 0.50945 0.0
C178 C 0.26598 0.85758 0.32065 0.0
C179 C 0.24174 0.78845 0.4504 0.0
O180 O 0.30883 0.83441 0.47911 0.0
O181 O 0.32398 0.87766 0.54969 0.0
O182 O 0.26943 0.86086 0.61198 0.0
O183 O 0.27784 0.83035 0.62506 0.0
O184 O 0.30181 0.89778 0.49094 0.0
O185 O 0.27284 0.9 0.53284 0.0
O186 O 0.22429 0.86295 0.51656 0.0
O187 O 0.21196 0.82875 0.40716 0.0
O188 O 0.26449 0.83989 0.36776 0.0
O189 O 0.25987 0.87365 0.35889 0.0
O190 O 0.23361 0.80319 0.48455 0.0
O191 O 0.26271 0.80304 0.43668 0.0
H192 H 0.32907 0.88793 0.38478 0.0
H193 H 0.35844 0.90736 0.29848 0.0
H194 H 0.39436 0.87316 0.42925 0.0
H195 H 0.36523 0.85463 0.51718 0.0
H196 H 0.18117 0.78528 0.46576 0.0
H197 H 0.1427 0.75855 0.49913 0.0
H198 H 0.14301 0.83688 0.54731 0.0
H199 H 0.18107 0.8632 0.51164 0.0
Sm200 Sm 0.25203 0.27063 0.62299 0.0
Sm201 Sm 0.29285 0.3186 0.67205 0.0
C202 C 0.20726 0.23019 0.60855 0.0
C203 C 0.18534 0.22824 0.62053 0.0
C204 C 0.17819 0.24529 0.58607 0.0
C205 C 0.15732 0.24269 0.5978 0.0
C206 C 0.14291 0.22286 0.64394 0.0
C207 C 0.15026 0.20597 0.67857 0.0
C208 C 0.17111 0.20864 0.66703 0.0
C209 C 0.26944 0.28431 0.47161 0.0
C210 C 0.25342 0.33009 0.62462 0.0
C211 C 0.33688 0.3612 0.69577 0.0
C212 C 0.35359 0.37379 0.64051 0.0
C213 C 0.35145 0.35729 0.56341 0.0
C214 C 0.36784 0.36911 0.51279 0.0
C215 C 0.38664 0.39777 0.53785 0.0
C216 C 0.38844 0.41433 0.61457 0.0
C217 C 0.3721 0.40242 0.6654 0.0
C218 C 0.27554 0.30427 0.82423 0.0
C219 C 0.29428 0.2613 0.63824 0.0
O220 O 0.2231 0.23854 0.67671 0.0
O221 O 0.2162 0.24084 0.54505 0.0
O222 O 0.27069 0.30205 0.53366 0.0
O223 O 0.26024 0.25927 0.49235 0.0
O224 O 0.24176 0.3046 0.6435 0.0
O225 O 0.27491 0.34022 0.61911 0.0
O226 O 0.31972 0.3651 0.68714 0.0
O227 O 0.33034 0.33511 0.70326 0.0
O228 O 0.2741 0.28683 0.76098 0.0
O229 O 0.28544 0.32935 0.80487 0.0
O230 O 0.30416 0.28774 0.6267 0.0
O231 O 0.27265 0.24844 0.64778 0.0
H232 H 0.18866 0.26055 0.5496 0.0
H233 H 0.15229 0.25591 0.56932 0.0
H234 H 0.14001 0.19081 0.71569 0.0
H235 H 0.17614 0.19526 0.6946 0.0
H236 H 0.33723 0.33513 0.54279 0.0
H237 H 0.366 0.35559 0.45481 0.0
H238 H 0.40243 0.43658 0.63522 0.0
H239 H 0.37397 0.41554 0.72443 0.0
Sm240 Sm 0.44639 0.18434 0.69512 0.0
Sm241 Sm 0.44257 0.18213 0.85628 0.0
C242 C 0.44255 0.1742 0.53005 0.0
C243 C 0.42091 0.16574 0.47093 0.0
C244 C 0.40435 0.13655 0.43701 0.0
C245 C 0.38157 0.12753 0.40178 0.0
C246 C 0.37488 0.14749 0.3994 0.0
C247 C 0.39169 0.17678 0.42913 0.0
C248 C 0.41444 0.18581 0.46411 0.0
C249 C 0.47335 0.2401 0.79337 0.0
C250 C 0.4075 0.19476 0.74198 0.0
C251 C 0.43246 0.18306 1.00849 0.0
C252 C 0.40933 0.16675 1.02736 0.0
C253 C 0.40664 0.16143 0.10902 0.0
C254 C 0.38456 0.14352 0.12402 0.0
C255 C 0.36486 0.13059 1.05742 0.0
C256 C 0.36761 0.13641 0.97598 0.0
C257 C 0.38971 0.15417 0.96093 0.0
C258 C 0.41456 0.12706 0.75391 0.0
C259 C 0.48342 0.17515 0.81296 0.0
O260 O 0.44089 0.15543 0.57551 0.0
O261 O 0.45409 0.2003 0.57559 0.0
O262 O 0.47281 0.21847 0.81461 0.0
O263 O 0.45911 0.23234 0.72155 0.0
O264 O 0.41203 0.18277 0.67892 0.0
O265 O 0.41989 0.20097 0.81879 0.0
O266 O 0.44007 0.16739 0.97903 0.0
O267 O 0.4359 0.20294 0.96545 0.0
O268 O 0.41569 0.14941 0.73739 0.0
O269 O 0.42922 0.13382 0.82332 0.0
O270 O 0.47794 0.18598 0.87623 0.0
O271 O 0.47157 0.16922 0.73496 0.0
H272 H 0.4087 0.12052 0.44168 0.0
H273 H 0.36915 0.10487 0.37683 0.0
H274 H 0.38714 0.19274 0.42826 0.0
H275 H 0.42659 0.20846 0.49015 0.0
H276 H 0.42158 0.17074 0.16069 0.0
H277 H 0.38287 0.13981 0.18794 0.0
H278 H 0.35279 0.12669 0.92362 0.0
H279 H 0.39151 0.15762 0.89691 0.0
Sm280 Sm 0.94985 0.17153 0.85469 0.0
Sm281 Sm 0.94289 0.19529 0.73342 0.0
C282 C 0.95047 0.14602 0.98237 0.0
C283 C 0.93247 0.11787 0.99417 0.0
C284 C 0.9317 0.112 0.07562 0.0
C285 C 0.91221 0.08793 0.0898 0.0
C286 C 0.89283 0.0692 1.02255 0.0
C287 C 0.8949 0.07375 0.93924 0.0
C288 C 0.91445 0.09804 0.92535 0.0
C289 C 0.92608 0.12955 0.70506 0.0
C290 C 0.9024 0.17112 0.8322 0.0
C291 C 0.9349 0.21078 0.59076 0.0
C292 C 0.91528 0.19614 0.51742 0.0
C293 C 0.91986 0.19417 0.43604 0.0
C294 C 0.90202 0.17569 0.36668 0.0
C295 C 0.87887 0.15901 0.37633 0.0
C296 C 0.87417 0.16254 0.45774 0.0
C297 C 0.89225 0.18074 0.52784 0.0
C298 C 0.96713 0.23753 0.8831 0.0
C299 C 0.99104 0.19638 0.76003 0.0
O300 O 0.94504 0.16538 0.98608 0.0
O301 O 0.96034 0.14553 0.91892 0.0
O302 O 0.92114 0.14754 0.73241 0.0
O303 O 0.94498 0.13536 0.75228 0.0
O304 O 0.91965 0.17584 0.89092 0.0
O305 O 0.90559 0.17166 0.75398 0.0
O306 O 0.93123 0.2192 0.66262 0.0
O307 O 0.94683 0.19876 0.60025 0.0
O308 O 0.97178 0.21934 0.85509 0.0
O309 O 0.94861 0.23262 0.83488 0.0
O310 O 0.97426 0.19286 0.70119 0.0
O311 O 0.98741 0.19464 0.83762 0.0
H312 H 0.94549 0.12703 0.1293 0.0
H313 H 0.91182 0.08592 0.15544 0.0
H314 H 0.88086 0.05973 0.88533 0.0
H315 H 0.91486 0.10218 0.86148 0.0
H316 H 0.9375 0.20554 0.42684 0.0
H317 H 0.90693 0.17328 0.30666 0.0
H318 H 0.85672 0.15052 0.46824 0.0
H319 H 0.88828 0.18176 0.59053 0.0
Sm320 Sm 0.93728 0.65853 0.7499 0.0
Sm321 Sm 0.95505 0.71553 0.83135 0.0
C322 C 0.9252 0.60843 0.65711 0.0
C323 C 0.92662 0.59992 0.56996 0.0
C324 C 0.94594 0.61845 0.53832 0.0
C325 C 0.94328 0.61981 0.45262 0.0
C326 C 0.92122 0.60288 0.39886 0.0
C327 C 0.90359 0.57984 0.42663 0.0
C328 C 0.90621 0.57858 0.51269 0.0
C329 C 0.95827 0.6691 0.91823 0.0
C330 C 0.98714 0.70797 0.72028 0.0
C331 C 0.96913 0.76465 0.93516 0.0
C332 C 0.95873 0.77182 1.00038 0.0
C333 C 0.97032 0.78001 0.08561 0.0
C334 C 0.95759 0.77195 0.14918 0.0
C335 C 0.93325 0.75559 0.12704 0.0
C336 C 0.92251 0.75497 1.04636 0.0
C337 C 0.93513 0.76226 0.98213 0.0
C338 C 0.93424 0.70617 0.66423 0.0
C339 C 0.90185 0.6659 0.84187 0.0
O340 O 0.91112 0.61741 0.66168 0.0
O341 O 0.94471 0.62478 0.71232 0.0
O342 O 0.96629 0.68548 0.86661 0.0
O343 O 0.93736 0.64833 0.88383 0.0
O344 O 0.96743 0.68419 0.68145 0.0
O345 O 0.98795 0.72289 0.79115 0.0
O346 O 0.97549 0.74701 0.95261 0.0
O347 O 0.9585 0.75799 0.8559 0.0
O348 O 0.92614 0.68874 0.71346 0.0
O349 O 0.9548 0.72764 0.7008 0.0
O350 O 0.92034 0.69135 0.87884 0.0
O351 O 0.90313 0.64915 0.78173 0.0
H352 H 0.96212 0.63462 0.58109 0.0
H353 H 0.9575 0.63737 0.433 0.0
H354 H 0.88665 0.5658 0.38541 0.0
H355 H 0.89126 0.56366 0.53593 0.0
H356 H 0.98867 0.7883 0.10138 0.0
H357 H 0.96674 0.77405 0.21155 0.0
H358 H 0.90385 0.74396 1.02879 0.0
H359 H 0.92581 0.75667 0.91707 0.0
C360 C 0.09912 0.50765 0.93126 0.0
C361 C 0.11848 0.51078 0.98453 0.0
C362 C 0.09725 0.50675 0.84076 0.0
C363 C 0.11458 0.50755 0.79753 0.0
C364 C 0.13379 0.50982 0.85125 0.0
C365 C 0.13571 0.51212 0.94185 0.0
C366 C 0.07643 0.50528 0.79269 0.0
C367 C 0.15276 0.5097 0.81392 0.0
C368 C 0.09462 0.47859 0.54684 0.0
C369 C 0.10926 0.50207 0.51117 0.0
C370 C 0.09647 0.47983 0.63717 0.0
C371 C 0.11269 0.5058 0.69811 0.0
C372 C 0.12727 0.52983 0.66203 0.0
C373 C 0.12575 0.5275 0.57127 0.0
C374 C 0.08073 0.45268 0.66624 0.0
C375 C 0.14463 0.55876 0.71829 0.0
H376 H 0.0855 0.50673 0.9607 0.0
H377 H 0.15089 0.51445 0.97958 0.0
H378 H 0.07914 0.51254 0.73154 0.0
H379 H 0.06142 0.48283 0.77942 0.0
H380 H 0.07185 0.51861 0.83202 0.0
H381 H 0.1607 0.5004 0.85239 0.0
H382 H 0.14641 0.49737 0.74728 0.0
H383 H 0.16657 0.5321 0.81479 0.0
H384 H 0.08164 0.45862 0.50349 0.0
H385 H 0.13721 0.54623 0.54735 0.0
H386 H 0.06435 0.45144 0.67124 0.0
H387 H 0.08859 0.45191 0.72918 0.0
H388 H 0.07629 0.43343 0.61942 0.0
H389 H 0.14069 0.56109 0.78221 0.0
H390 H 0.14535 0.57611 0.68797 0.0
H391 H 0.16206 0.56198 0.72594 0.0
C392 C 0.62536 0.54597 0.73887 0.0
C393 C 0.6178 0.52187 0.77764 0.0
C394 C 0.62616 0.5447 0.64998 0.0
C395 C 0.61805 0.51822 0.59279 0.0
C396 C 0.60994 0.4936 0.63159 0.0
C397 C 0.61042 0.49583 0.72179 0.0
C398 C 0.63595 0.57234 0.61816 0.0
C399 C 0.60023 0.46419 0.57862 0.0
C400 C 0.6043 0.51898 0.3466 0.0
C401 C 0.61993 0.51386 0.3109 0.0
C402 C 0.60301 0.51963 0.43528 0.0
C403 C 0.6185 0.51658 0.49473 0.0
C404 C 0.63474 0.51224 0.45881 0.0
C405 C 0.63478 0.51018 0.36929 0.0
C406 C 0.58442 0.52319 0.46345 0.0
C407 C 0.65255 0.50979 0.51461 0.0
H408 H 0.63114 0.56642 0.77895 0.0
H409 H 0.60421 0.47665 0.74804 0.0
H410 H 0.64495 0.57234 0.56564 0.0
H411 H 0.62165 0.57515 0.59409 0.0
H412 H 0.6483 0.5911 0.67015 0.0
H413 H 0.58516 0.44783 0.60129 0.0
H414 H 0.59471 0.46274 0.50992 0.0
H415 H 0.61357 0.45863 0.5865 0.0
H416 H 0.59237 0.52161 0.30445 0.0
H417 H 0.64707 0.50618 0.34513 0.0
H418 H 0.59004 0.54611 0.47149 0.0
H419 H 0.5805 0.51613 0.52415 0.0
H420 H 0.56822 0.51083 0.41372 0.0
H421 H 0.65779 0.52263 0.58012 0.0
H422 H 0.66826 0.51695 0.48746 0.0
H423 H 0.64519 0.487 0.51851 0.0
C424 C 0.62102 0.05289 0.5768 0.0
C425 C 0.61614 0.06969 0.63285 0.0
C426 C 0.62213 0.05524 0.48941 0.0
C427 C 0.6171 0.07398 0.45108 0.0
C428 C 0.61172 0.09069 0.5073 0.0
C429 C 0.61182 0.08883 0.59584 0.0
C430 C 0.62888 0.03729 0.43851 0.0
C431 C 0.60536 0.11066 0.47506 0.0
C432 C 0.63675 0.10316 0.24344 0.0
C433 C 0.62021 0.08113 0.17375 0.0
C434 C 0.63624 0.10086 0.33111 0.0
C435 C 0.61795 0.07635 0.35459 0.0
C436 C 0.60083 0.05419 0.28409 0.0
C437 C 0.60246 0.05653 0.19665 0.0
C438 C 0.6558 0.1252 0.39859 0.0
C439 C 0.58015 0.02761 0.29912 0.0
H440 H 0.62438 0.03781 0.6019 0.0
H441 H 0.60771 0.10196 0.63556 0.0
H442 H 0.61301 0.01687 0.40395 0.0
H443 H 0.6388 0.04838 0.39114 0.0
H444 H 0.63945 0.03189 0.48051 0.0
H445 H 0.62052 0.13299 0.49535 0.0
H446 H 0.59979 0.10562 0.40472 0.0
H447 H 0.59121 0.10979 0.50372 0.0
H448 H 0.65072 0.1225 0.22949 0.0
H449 H 0.58919 0.03915 0.14584 0.0
H450 H 0.65972 0.11755 0.45504 0.0
H451 H 0.6509 0.14069 0.41947 0.0
H452 H 0.67179 0.13689 0.37342 0.0
H453 H 0.58299 1.00966 0.28986 0.0
H454 H 0.5644 0.02127 0.25172 0.0
H455 H 0.57683 0.03041 0.36392 0.0
C456 C 0.75427 0.85695 0.62241 0.0
C457 C 0.77135 0.85792 0.57945 0.0
C458 C 0.75612 0.85899 0.71289 0.0
C459 C 0.77509 0.86065 0.76616 0.0
C460 C 0.79229 0.86114 0.72275 0.0
C461 C 0.79049 0.86044 0.63234 0.0
C462 C 0.73736 0.85948 0.75081 0.0
C463 C 0.81288 0.86203 0.77053 0.0
C464 C 0.79467 0.88919 1.01683 0.0
C465 C 0.78009 0.86556 1.0521 0.0
C466 C 0.79292 0.8881 0.92662 0.0
C467 C 0.77687 0.86216 0.86541 0.0
C468 C 0.76232 0.83798 0.90101 0.0
C469 C 0.76373 0.84013 0.9917 0.0
C470 C 0.80857 0.91533 0.89773 0.0
C471 C 0.7451 0.80909 0.8443 0.0
H472 H 0.73924 0.85506 0.58498 0.0
H473 H 0.80397 0.86103 0.60268 0.0
H474 H 0.72394 0.83729 0.75388 0.0
H475 H 0.74419 0.87283 0.8162 0.0
H476 H 0.72883 0.86784 0.71093 0.0
H477 H 0.81719 0.84846 0.73087 0.0
H478 H 0.8281 0.88434 0.78403 0.0
H479 H 0.81004 0.85471 0.83154 0.0
H480 H 0.80755 0.90915 1.06045 0.0
H481 H 0.75234 0.82129 1.01531 0.0
H482 H 0.80018 0.91655 0.83664 0.0
H483 H 0.82452 0.91604 0.88853 0.0
H484 H 0.8138 0.93459 0.94621 0.0
H485 H 0.72759 0.80561 0.83702 0.0
H486 H 0.74457 0.79174 0.87409 0.0
H487 H 0.74902 0.80701 0.78024 0.0
C488 C 0.25389 0.85282 0.79398 0.0
C489 C 0.2694 0.84754 0.75799 0.0
C490 C 0.25274 0.85363 0.88282 0.0
C491 C 0.26823 0.85051 0.94202 0.0
C492 C 0.28442 0.84613 0.9059 0.0
C493 C 0.28433 0.84395 0.8163 0.0
C494 C 0.23434 0.85749 0.91157 0.0
C495 C 0.30231 0.84378 0.96155 0.0
C496 C 0.27504 0.87962 0.18631 0.0
C497 C 0.26732 0.85539 0.22455 0.0
C498 C 0.27594 0.87849 0.09754 0.0
C499 C 0.26778 0.85206 1.04001 0.0
C500 C 0.25955 0.82733 0.07833 0.0
C501 C 0.25993 0.82941 0.16841 0.0
C502 C 0.28589 0.90624 1.0663 0.0
C503 C 0.24982 0.79798 1.02493 0.0
H504 H 0.24192 0.85544 0.75194 0.0
H505 H 0.29657 0.83987 0.79197 0.0
H506 H 0.23025 0.85009 0.97174 0.0
H507 H 0.24031 0.88054 0.92104 0.0
H508 H 0.21818 0.84564 0.86169 0.0
H509 H 0.31804 0.85111 0.93439 0.0
H510 H 0.30751 0.85653 1.02717 0.0
H511 H 0.29507 0.82099 0.96514 0.0
H512 H 0.28086 0.90003 0.22669 0.0
H513 H 0.25363 0.81016 0.19432 0.0
H514 H 0.27173 0.90949 1.0439 0.0
H515 H 0.29458 0.90615 1.01284 0.0
H516 H 0.29856 0.92482 0.1183 0.0
H517 H 0.24412 0.7966 0.95644 0.0
H518 H 0.23489 0.78151 1.04789 0.0
H519 H 0.26324 0.79254 1.03183 0.0
C520 C 0.25749 0.27529 0.94166 0.0
C521 C 0.27478 0.30022 0.91848 0.0
C522 C 0.25609 0.27285 1.0292 0.0
C523 C 0.27302 0.29525 0.0996 0.0
C524 C 0.29094 0.32007 0.07582 0.0
C525 C 0.29116 0.32245 0.98806 0.0
C526 C 0.23584 0.24587 1.04451 0.0
C527 C 0.31042 0.34471 0.14281 0.0
C528 C 0.267 0.30763 0.34103 0.0
C529 C 0.27117 0.28833 0.37783 0.0
C530 C 0.26692 0.30956 0.25258 0.0
C531 C 0.27225 0.29282 0.19617 0.0
C532 C 0.27718 0.27396 0.23438 0.0
C533 C 0.27598 0.27149 0.3217 0.0
C534 C 0.26065 0.32963 0.22063 0.0
C535 C 0.28395 0.25598 0.18375 0.0
H536 H 0.24436 0.25774 0.89098 0.0
H537 H 0.30479 0.34204 0.97396 0.0
H538 H 0.23227 0.24863 0.1089 0.0
H539 H 0.21999 0.23867 0.9964 0.0
H540 H 0.23943 0.22853 1.03687 0.0
H541 H 0.30587 0.36083 0.15958 0.0
H542 H 0.31388 0.33773 0.20155 0.0
H543 H 0.32662 0.35551 0.1183 0.0
H544 H 0.26299 0.32083 0.3809 0.0
H545 H 0.27928 0.25634 0.34668 0.0
H546 H 0.25466 0.32429 0.15043 0.0
H547 H 0.276 0.35186 0.2395 0.0
H548 H 0.24685 0.32928 0.25061 0.0
H549 H 0.26821 0.23472 0.1543 0.0
H550 H 0.29575 0.25227 0.22566 0.0
H551 H 0.29259 0.26604 0.13256 0.0
C552 C 0.34636 0.15304 0.30587 0.0
C553 C 0.35078 0.13772 0.36029 0.0
C554 C 0.32443 0.1403 0.25375 0.0
C555 C 0.30869 0.1103 0.24446 0.0
C556 C 0.31004 0.09964 0.31892 0.0
C557 C 0.3318 0.11242 0.37379 0.0
C558 C 0.31887 0.15862 0.20693 0.0
C559 C 0.28936 0.07346 0.33505 0.0
C560 C 0.32286 0.1142 1.04681 0.0
C561 C 0.34171 0.11166 0.0752 0.0
C562 C 0.30369 0.10239 0.08626 0.0
C563 C 0.30548 0.09194 0.16085 0.0
C564 C 0.31904 0.07947 0.16247 0.0
C565 C 0.33852 0.09164 0.12605 0.0
C566 C 0.28298 0.10385 1.05495 0.0
C567 C 0.31407 0.05488 0.20567 0.0
H568 H 0.35991 0.17431 0.30142 0.0
H569 H 0.3341 0.10212 0.42388 0.0
H570 H 0.32632 0.16167 0.14903 0.0
H571 H 0.29993 0.14899 0.18957 0.0
H572 H 0.32685 0.1803 0.24745 0.0
H573 H 0.28299 0.08024 0.38719 0.0
H574 H 0.27508 0.06213 0.27774 0.0
H575 H 0.29417 0.05863 0.35696 0.0
H576 H 0.32366 0.12681 0.99933 0.0
H577 H 0.35133 0.08599 0.13867 0.0
H578 H 0.27245 0.08702 0.99645 0.0
H579 H 0.28834 0.1248 1.03706 0.0
H580 H 0.27196 0.09999 0.1029 0.0
H581 H 0.32518 0.06301 0.27043 0.0
H582 H 0.31832 0.04052 0.16984 0.0
H583 H 0.29558 0.04208 0.20928 0.0
C584 C 0.84336 0.1091 0.31708 0.0
C585 C 0.86099 0.13558 0.30391 0.0
C586 C 0.83274 0.08426 0.25236 0.0
C587 C 0.84175 0.08561 0.17746 0.0
C588 C 0.85633 0.11316 0.15882 0.0
C589 C 0.86435 0.13773 0.22076 0.0
C590 C 0.81317 0.05661 0.26755 0.0
C591 C 0.86628 0.11748 0.07935 0.0
C592 C 0.86888 0.04532 0.12595 0.0
C593 C 0.86961 0.05055 1.04332 0.0
C594 C 0.85622 0.05241 0.17377 0.0
C595 C 0.84157 0.06036 0.13243 0.0
C596 C 0.83514 0.05255 1.04252 0.0
C597 C 0.84998 0.04874 0.99773 0.0
C598 C 0.86151 0.05555 0.26905 0.0
C599 C 0.815 0.05247 0.99427 0.0
H600 H 0.83894 0.107 0.37903 0.0
H601 H 0.87583 0.15859 0.20716 0.0
H602 H 0.80756 0.03789 0.21631 0.0
H603 H 0.81811 0.05258 0.33002 0.0
H604 H 0.79816 0.0588 0.27111 0.0
H605 H 0.87832 0.14046 0.07888 0.0
H606 H 0.87619 0.107 0.07466 0.0
H607 H 0.85228 0.10838 1.022 0.0
H608 H 0.88175 0.04196 0.1582 0.0
H609 H 0.84798 0.04877 0.93029 0.0
H610 H 0.84536 0.04155 0.29028 0.0
H611 H 0.86908 0.07811 0.30144 0.0
H612 H 0.87393 0.04928 0.28978 0.0
H613 H 0.80783 0.06177 1.03606 0.0
H614 H 0.80109 0.02995 0.96491 0.0
H615 H 0.81999 0.06407 0.94131 0.0
C616 C 0.89631 0.61929 0.33865 0.0
C617 C 0.91506 0.61595 0.33399 0.0
C618 C 0.89463 0.64005 0.30281 0.0
C619 C 0.91214 0.65787 0.26182 0.0
C620 C 0.92986 0.65284 0.24961 0.0
C621 C 0.93095 0.63161 0.28515 0.0
C622 C 0.87508 0.64426 0.31435 0.0
C623 C 0.94858 0.67121 0.20437 0.0
C624 C 0.90647 0.70346 0.1181 0.0
C625 C 0.92085 0.7311 0.16961 0.0
C626 C 0.90224 0.67911 0.149 0.0
C627 C 0.9124 0.68238 0.23366 0.0
C628 C 0.92475 0.70966 0.28891 0.0
C629 C 0.92846 0.73375 0.25654 0.0
C630 C 0.88929 0.65049 0.0877 0.0
C631 C 0.93595 0.71374 0.37972 0.0
H632 H 0.884 0.60757 0.37691 0.0
H633 H 0.94528 0.62886 0.28068 0.0
H634 H 0.86787 0.64751 0.25449 0.0
H635 H 0.86089 0.62573 0.33425 0.0
H636 H 0.88172 0.66375 0.36405 0.0
H637 H 0.94078 0.66977 0.13842 0.0
H638 H 0.95793 0.69402 0.23753 0.0
H639 H 0.96133 0.66476 0.20167 0.0
H640 H 0.90066 0.70082 1.05081 0.0
H641 H 0.93917 0.7549 0.29728 0.0
H642 H 0.88052 0.63222 0.1199 0.0
H643 H 0.90156 0.64794 1.05489 0.0
H644 H 0.87614 0.64941 1.03851 0.0
H645 H 0.9227 0.69976 0.41383 0.0
H646 H 0.94501 0.73637 0.4143 0.0
H647 H 0.94873 0.70726 0.3808 0.0
C648 C 0.25501 0.37286 0.57985 0.0
C649 C 0.24209 0.34592 0.60141 0.0
C650 C 0.24445 0.3871 0.55007 0.0
C651 C 0.22023 0.37419 0.54093 0.0
C652 C 0.20714 0.34734 0.56479 0.0
C653 C 0.21821 0.33361 0.59488 0.0
C654 C 0.25919 0.41571 0.5261 0.0
C655 C 0.18131 0.33269 0.55616 0.0
C656 C 0.19693 0.42311 0.51755 0.0
C657 C 0.19004 0.41826 0.42865 0.0
C658 C 0.20615 0.40841 0.55509 0.0
C659 C 0.20866 0.38829 0.50285 0.0
C660 C 0.20119 0.38276 0.41333 0.0
C661 C 0.19198 0.39768 0.37755 0.0
C662 C 0.21384 0.41502 0.65071 0.0
C663 C 0.20341 0.36148 0.35492 0.0
H664 H 0.27346 0.38269 0.58466 0.0
H665 H 0.20802 0.31289 0.61144 0.0
H666 H 0.25393 0.41382 0.45685 0.0
H667 H 0.25656 0.43195 0.56019 0.0
H668 H 0.27791 0.42363 0.54113 0.0
H669 H 0.17387 0.31308 0.58355 0.0
H670 H 0.17704 0.34757 0.58831 0.0
H671 H 0.17286 0.32659 0.48783 0.0
H672 H 0.19578 0.43909 0.55795 0.0
H673 H 0.18636 0.39324 0.30902 0.0
H674 H 0.23285 0.42512 0.66804 0.0
H675 H 0.20575 0.39494 0.67548 0.0
H676 H 0.20937 0.42972 0.68288 0.0
H677 H 0.22192 0.36882 0.36089 0.0
H678 H 0.19592 0.35864 0.28709 0.0
H679 H 0.19461 0.34033 0.37361 0.0
C680 C 0.65204 0.62717 0.16832 0.0
C681 C 0.65842 0.61258 0.11186 0.0
C682 C 0.66547 0.65737 0.19474 0.0
C683 C 0.68571 0.67388 0.16291 0.0
C684 C 0.69207 0.65929 0.10491 0.0
C685 C 0.67857 0.62897 0.08094 0.0
C686 C 0.65814 0.67161 0.25797 0.0
C687 C 0.71318 0.67575 1.06787 0.0
C688 C 0.70914 0.75424 0.17637 0.0
C689 C 0.72811 0.76743 0.24562 0.0
C690 C 0.69543 0.72404 0.14834 0.0
C691 C 0.70035 0.70624 0.19139 0.0
C692 C 0.71924 0.71949 0.26231 0.0
C693 C 0.73294 0.74971 0.28777 0.0
C694 C 0.67585 0.71118 1.07161 0.0
C695 C 0.72499 0.70169 0.31169 0.0
H696 H 0.63666 0.61489 0.19332 0.0
H697 H 0.68371 0.61808 1.03721 0.0
H698 H 0.67218 0.68403 0.31561 0.0
H699 H 0.65506 0.687 0.23009 0.0
H700 H 0.64216 0.65588 0.2776 0.0
H701 H 0.7154 0.66149 1.02135 0.0
H702 H 0.7119 0.69163 1.03556 0.0
H703 H 0.72889 0.68789 0.11958 0.0
H704 H 0.70531 0.76757 0.1426 0.0
H705 H 0.74748 0.75951 0.34136 0.0
H706 H 0.65923 0.69652 0.08936 0.0
H707 H 0.67841 0.6982 1.02185 0.0
H708 H 0.67445 0.72778 1.04399 0.0
H709 H 0.70971 0.68639 0.33561 0.0
H710 H 0.73976 0.71506 0.3667 0.0
H711 H 0.72935 0.68882 0.26932 0.0
C712 C 0.47257 0.93308 1.06159 0.0
C713 C 0.48337 0.96197 1.0551 0.0
C714 C 0.45562 0.92141 0.11068 0.0
C715 C 0.44917 0.93898 0.15388 0.0
C716 C 0.45999 0.96816 0.14747 0.0
C717 C 0.47701 0.97932 0.09846 0.0
C718 C 0.44468 0.89029 0.1166 0.0
C719 C 0.45346 0.98754 0.19191 0.0
C720 C 0.39067 0.90268 0.21757 0.0
C721 C 0.39686 0.90384 0.30464 0.0
C722 C 0.4075 0.9141 0.16788 0.0
C723 C 0.43112 0.92685 0.20586 0.0
C724 C 0.43749 0.928 0.29353 0.0
C725 C 0.42032 0.91659 0.34184 0.0
C726 C 0.39998 0.9125 0.07464 0.0
C727 C 0.46248 0.94136 0.3364 0.0
H728 H 0.4776 0.91965 1.02905 0.0
H729 H 0.48509 1.00157 0.09288 0.0
H730 H 0.44765 0.88858 0.18413 0.0
H731 H 0.4257 0.87856 0.09277 0.0
H732 H 0.45167 0.87954 0.07945 0.0
H733 H 0.46347 1.0097 0.18046 0.0
H734 H 0.43476 0.97872 0.16951 0.0
H735 H 0.45646 0.9885 0.26155 0.0
H736 H 0.37259 0.89252 0.18786 0.0
H737 H 0.42535 0.91802 0.40926 0.0
H738 H 0.4053 0.90013 1.0351 0.0
H739 H 0.40864 0.93437 1.06073 0.0
H740 H 0.38097 0.90221 1.05501 0.0
H741 H 0.46995 0.9304 0.30375 0.0
H742 H 0.46454 0.94016 0.40479 0.0
H743 H 0.47268 0.96421 0.33142 0.0
C744 C 0.59033 0.14826 0.88312 0.0
C745 C 0.58225 0.12169 0.90736 0.0
C746 C 0.57583 0.15923 0.8697 0.0
C747 C 0.5525 0.14329 0.87982 0.0
C748 C 0.54448 0.11674 0.90566 0.0
C749 C 0.55931 0.10646 0.91928 0.0
C750 C 0.58537 0.18774 0.8432 0.0
C751 C 0.5199 0.09866 0.91708 0.0
C752 C 0.5162 0.17695 0.91075 0.0
C753 C 0.50216 0.16866 0.82923 0.0
C754 C 0.5331 0.16981 0.92735 0.0
C755 C 0.53614 0.15362 0.86136 0.0
C756 C 0.52226 0.1456 0.77867 0.0
C757 C 0.50566 0.15327 0.76365 0.0
C758 C 0.54745 0.17916 1.01632 0.0
C759 C 0.52446 0.12813 0.70613 0.0
H760 H 0.60786 0.16029 0.87318 0.0
H761 H 0.55259 0.0859 0.93776 0.0
H762 H 0.57588 0.18464 0.77846 0.0
H763 H 0.58277 0.20222 0.88702 0.0
H764 H 0.60409 0.19838 0.84275 0.0
H765 H 0.51635 0.07878 0.93887 0.0
H766 H 0.51628 0.11117 0.9642 0.0
H767 H 0.5077 0.09257 0.85591 0.0
H768 H 0.51388 0.1889 0.96221 0.0
H769 H 0.49503 0.14659 0.70039 0.0
H770 H 0.56611 0.19062 1.01467 0.0
H771 H 0.54327 0.16006 1.04386 0.0
H772 H 0.54438 0.19342 1.05912 0.0
H773 H 0.54267 0.13896 0.69851 0.0
H774 H 0.5133 0.12467 0.64478 0.0
H775 H 0.5196 0.1069 0.72059 0.0
C776 C 0.97698 0.28157 0.98657 0.0
C777 C 0.9844 0.2664 0.93838 0.0
C778 C 0.99272 0.30984 1.03353 0.0
C779 C 1.0165 0.32402 1.02983 0.0
C780 C 0.0241 0.30862 0.98166 0.0
C781 C 1.00809 0.27994 0.93796 0.0
C782 C 0.98376 0.32473 0.08597 0.0
C783 C 0.04898 0.32289 0.97287 0.0
C784 C 0.04939 0.40623 1.06874 0.0
C785 C 0.06329 0.41477 0.15047 0.0
C786 C 0.03469 0.37704 1.0284 0.0
C787 C 0.03298 0.35537 1.07166 0.0
C788 C 0.04676 0.36386 0.15488 0.0
C789 C 0.06205 0.39337 0.19247 0.0
C790 C 0.02113 0.36941 0.93877 0.0
C791 C 0.04504 0.34175 0.20495 0.0
H792 H 0.95874 0.27129 0.98734 0.0
H793 H 1.01397 0.26856 0.90006 0.0
H794 H 0.99459 0.33431 0.15138 0.0
H795 H 0.98484 0.34247 1.05723 0.0
H796 H 0.96551 0.30988 0.09021 0.0
H797 H 0.05238 0.30786 0.93574 0.0
H798 H 0.05341 0.34111 0.94046 0.0
H799 H 0.06068 0.3318 1.03655 0.0
H800 H 0.05041 0.42254 1.03514 0.0
H801 H 0.07264 0.39968 0.25564 0.0
H802 H 1.00234 0.35721 0.93799 0.0
H803 H 0.02458 0.35541 0.89677 0.0
H804 H 0.02549 0.38868 0.91168 0.0
H805 H 0.0269 0.32771 0.21164 0.0
H806 H 0.0564 0.35167 0.26948 0.0
H807 H 0.04984 0.32783 0.17041 0.0
C808 C 0.87266 0.67473 0.89481 0.0
C809 C 0.87917 0.65563 0.86648 0.0
C810 C 0.85102 0.66474 0.91752 0.0
C811 C 0.83548 0.63491 0.91154 0.0
C812 C 0.84192 0.61557 0.88156 0.0
C813 C 0.86351 0.62612 0.85883 0.0
C814 C 0.84494 0.68613 0.94893 0.0
C815 C 0.82615 0.58368 0.87495 0.0
C816 C 0.78845 0.60529 1.04144 0.0
C817 C 0.76828 0.59467 0.97955 0.0
C818 C 0.81047 0.61965 1.02138 0.0
C819 C 0.81256 0.62357 0.93698 0.0
C820 C 0.79235 0.61417 0.87513 0.0
C821 C 0.77049 0.59985 0.89707 0.0
C822 C 0.83132 0.62937 0.09004 0.0
C823 C 0.79372 0.61821 0.78474 0.0
H824 H 0.88449 0.6975 0.89913 0.0
H825 H 0.86836 0.6112 0.83659 0.0
H826 H 0.82783 0.68 0.91231 0.0
H827 H 0.84363 0.68612 1.01669 0.0
H828 H 0.85803 0.70826 0.94361 0.0
H829 H 0.8336 0.57148 0.84989 0.0
H830 H 0.82276 0.57922 0.93866 0.0
H831 H 0.80925 0.57561 0.83249 0.0
H832 H 0.78701 0.60198 0.10583 0.0
H833 H 0.75505 0.59173 0.84866 0.0
H834 H 0.84518 0.65175 0.09094 0.0
H835 H 0.83814 0.61542 0.07669 0.0
H836 H 0.82713 0.62818 0.15432 0.0
H837 H 0.80682 0.64083 0.78421 0.0
H838 H 0.77685 0.61238 0.74656 0.0
H839 H 0.7993 0.60464 0.75338 0.0
C840 C 0.96273 0.64224 1.02523 0.0
C841 C 0.97301 0.66348 0.97744 0.0
C842 C 0.97498 0.63135 1.06509 0.0
C843 C 0.99799 0.64164 1.05594 0.0
C844 C 1.00902 0.66466 1.01338 0.0
C845 C 0.99644 0.67544 0.9751 0.0
C846 C 0.96267 0.60737 0.11167 0.0
C847 C 0.03353 0.67643 1.00239 0.0
C848 C 0.0334 0.61842 0.18537 0.0
C849 C 0.02976 0.59488 0.12746 0.0
C850 C 0.02332 0.63398 0.16326 0.0
C851 C 1.00936 0.62597 0.08107 0.0
C852 C 1.0059 0.6025 1.02207 0.0
C853 C 1.01607 0.58728 1.04597 0.0
C854 C 0.02734 0.65872 0.22822 0.0
C855 C 0.99127 0.59327 0.93355 0.0
H856 H 0.94467 0.63302 1.0277 0.0
H857 H 1.00454 0.69185 0.93827 0.0
H858 H 0.95895 0.587 1.0736 0.0
H859 H 0.97376 0.61156 0.17392 0.0
H860 H 0.94608 0.60447 0.12287 0.0
H861 H 0.04062 0.69665 0.97814 0.0
H862 H 0.04496 0.6805 1.06363 0.0
H863 H 0.03398 0.66038 0.95643 0.0
H864 H 0.04371 0.62427 0.24884 0.0
H865 H 1.0134 0.56941 1.00043 0.0
H866 H 1.01062 0.65425 0.24287 0.0
H867 H 0.03481 0.67854 0.20205 0.0
H868 H 0.03914 0.66277 0.28854 0.0
H869 H 0.97336 0.58697 0.93755 0.0
H870 H 0.99058 0.57492 0.89477 0.0
H871 H 0.99824 0.61144 0.89997 0.0
C872 C 0.58131 0.40598 0.9432 0.0
C873 C 0.57557 0.42306 0.9923 0.0
C874 C 0.56562 0.37597 0.91516 0.0
C875 C 0.54355 0.36223 0.93722 0.0
C876 C 0.53801 0.37927 0.9892 0.0
C877 C 0.55388 0.40925 1.01536 0.0
C878 C 0.57239 0.35908 0.85924 0.0
C879 C 0.51498 0.36592 1.01564 0.0
C880 C 0.4929 0.29272 0.7904 0.0
C881 C 0.49146 0.27111 0.83206 0.0
C882 C 0.50975 0.32206 0.82334 0.0
C883 C 0.52571 0.33062 0.90119 0.0
C884 C 0.52428 0.30893 0.94411 0.0
C885 C 0.50735 0.27956 0.90898 0.0
C886 C 0.51047 0.34399 0.77428 0.0
C887 C 0.5406 0.31678 1.02761 0.0
H888 H 0.59786 0.4162 0.92434 0.0
H889 H 0.54911 0.42199 1.05333 0.0
H890 H 0.57033 0.34063 0.88642 0.0
H891 H 0.56075 0.35023 0.79535 0.0
H892 H 0.59053 0.37238 0.85145 0.0
H893 H 0.51392 0.38147 1.06154 0.0
H894 H 0.50089 0.35756 0.95868 0.0
H895 H 0.51185 0.34747 1.04511 0.0
H896 H 0.48083 0.28668 0.73098 0.0
H897 H 0.50646 0.26321 0.94205 0.0
H898 H 0.52782 0.3569 0.75922 0.0
H899 H 0.50751 0.359 0.81376 0.0
H900 H 0.49728 0.33397 0.71382 0.0
H901 H 0.55874 0.32867 1.01916 0.0
H902 H 0.53731 0.29764 1.05357 0.0
H903 H 0.53884 0.33123 0.0751 0.0
C904 C 0.86054 0.15489 0.78615 0.0
C905 C 0.87992 0.16557 0.8523 0.0
C906 C 0.83939 0.15042 0.80239 0.0
C907 C 0.83734 0.15715 0.88699 0.0
C908 C 0.85679 0.16775 0.95427 0.0
C909 C 0.8777 0.17159 0.93626 0.0
C910 C 0.81921 0.13869 0.72847 0.0
C911 C 0.85563 0.17544 1.04536 0.0
C912 C 0.78995 0.17293 0.9103 0.0
C913 C 0.7719 0.14701 0.92504 0.0
C914 C 0.81135 0.17668 0.90014 0.0
C915 C 0.8151 0.15397 0.90394 0.0
C916 C 0.79715 0.12789 0.91997 0.0
C917 C 0.77593 0.12476 0.93044 0.0
C918 C 0.82988 0.20497 0.88388 0.0
C919 C 0.80028 0.10313 0.92542 0.0
H920 H 0.86188 0.14998 0.72101 0.0
H921 H 0.89249 0.17991 0.98794 0.0
H922 H 0.80402 0.119 0.73925 0.0
H923 H 0.81419 0.15459 0.72351 0.0
H924 H 0.82322 0.13346 0.66689 0.0
H925 H 0.87265 0.1855 0.08957 0.0
H926 H 0.84955 0.19044 1.05086 0.0
H927 H 0.84298 0.15585 1.06591 0.0
H928 H 0.78721 0.19024 0.90454 0.0
H929 H 0.76249 0.10478 0.94326 0.0
H930 H 0.83342 0.20168 0.81973 0.0
H931 H 0.84624 0.21376 0.93093 0.0
H932 H 0.8249 0.22109 0.88757 0.0
H933 H 0.81482 0.10963 0.97886 0.0
H934 H 0.80482 0.09715 0.86618 0.0
H935 H 0.78451 0.08394 0.93546 0.0
C936 C 0.66721 0.03215 0.99405 0.0
C937 C 0.64411 0.01866 0.95097 0.0
C938 C 0.67605 0.01615 1.02455 0.0
C939 C 0.66167 0.9858 1.0097 0.0
C940 C 0.63865 0.97204 0.96275 0.0
C941 C 0.63008 0.98861 0.93517 0.0
C942 C 0.7005 0.03185 0.07585 0.0
C943 C 0.62289 0.93977 0.943 0.0
C944 C 0.6908 0.9435 1.03981 0.0
C945 C 0.68703 0.93657 0.11996 0.0
C946 C 0.68234 0.95898 1.00253 0.0
C947 C 0.67026 0.96858 1.047 0.0
C948 C 0.66633 0.96167 0.12759 0.0
C949 C 0.67436 0.94545 0.16219 0.0
C950 C 0.68646 0.96521 0.91559 0.0
C951 C 0.65383 0.97173 0.17807 0.0
H952 H 0.67813 0.05537 1.00715 0.0
H953 H 0.61225 0.97798 0.90152 0.0
H954 H 0.70023 0.02799 0.14175 0.0
H955 H 0.71041 0.02358 1.04809 0.0
H956 H 0.70976 0.05535 0.07889 0.0
H957 H 0.60627 0.93226 0.89927 0.0
H958 H 0.63153 0.92986 0.91359 0.0
H959 H 0.61906 0.93196 1.00281 0.0
H960 H 0.7008 0.93737 1.00646 0.0
H961 H 0.67065 0.93979 0.22286 0.0
H962 H 0.69759 0.98869 0.92019 0.0
H963 H 0.66981 0.95761 0.87201 0.0
H964 H 0.69489 0.95483 0.88697 0.0
H965 H 0.66273 0.99542 0.18807 0.0
H966 H 0.65292 0.96556 0.2412 0.0
H967 H 0.63596 0.9625 0.14206 0.0
C968 C 0.23421 0.74167 0.37063 0.0
C969 C 0.22768 0.75622 0.42652 0.0
C970 C 0.22112 0.71145 0.34562 0.0
C971 C 0.2011 0.69486 0.37843 0.0
C972 C 0.19453 0.70941 0.43566 0.0
C973 C 0.20768 0.73977 0.45812 0.0
C974 C 0.22862 0.69725 0.28298 0.0
C975 C 0.17365 0.69286 0.47373 0.0
C976 C 0.15473 0.61797 0.25841 0.0
C977 C 0.16036 0.60112 0.3019 0.0
C978 C 0.1679 0.64826 0.28182 0.0
C979 C 0.18699 0.66243 0.35215 0.0
C980 C 0.1927 0.6455 0.39655 0.0
C981 C 0.17955 0.61524 0.37042 0.0
C982 C 0.16136 0.66513 0.23092 0.0
C983 C 0.2125 0.65935 0.47284 0.0
H984 H 0.24947 0.75401 0.34501 0.0
H985 H 0.20241 0.75063 0.50136 0.0
H986 H 0.23235 0.68255 0.31216 0.0
H987 H 0.21443 0.68411 0.22615 0.0
H988 H 0.24427 0.71307 0.26182 0.0
H989 H 0.17115 0.70713 0.51905 0.0
H990 H 0.15787 0.67999 0.42247 0.0
H991 H 0.17547 0.67762 0.50769 0.0
H992 H 0.13998 0.60745 0.20546 0.0
H993 H 0.18396 0.60257 0.40532 0.0
H994 H 0.17636 0.68054 0.20598 0.0
H995 H 0.15669 0.67781 0.2725 0.0
H996 H 0.14655 0.6511 0.17649 0.0
H997 H 0.22891 0.67417 0.45408 0.0
H998 H 0.21447 0.64333 0.50188 0.0
H999 H 0.20972 0.67233 0.5218 0.0
C1000 C 0.48367 0.4415 0.25709 0.0
C1001 C 0.4901 0.46744 0.23129 0.0
C1002 C 0.4668 0.43005 0.3066 0.0
C1003 C 0.45616 0.44494 0.33141 0.0
C1004 C 0.46263 0.47119 0.30587 0.0
C1005 C 0.47946 0.48207 0.25596 0.0
C1006 C 0.46027 0.4019 0.33193 0.0
C1007 C 0.45185 0.48786 0.33162 0.0
C1008 C 0.39797 0.40342 0.39549 0.0
C1009 C 0.40442 0.41019 0.48481 0.0
C1010 C 0.4146 0.41454 0.34485 0.0
C1011 C 0.43829 0.43309 0.3843 0.0
C1012 C 0.44492 0.44021 0.47431 0.0
C1013 C 0.42795 0.4286 0.52338 0.0
C1014 C 0.40681 0.40635 0.24907 0.0
C1015 C 0.46999 0.45996 0.51886 0.0
H1016 H 0.49159 0.42988 0.23736 0.0
H1017 H 0.48454 0.50229 0.23714 0.0
H1018 H 0.46348 0.40482 0.40235 0.0
H1019 H 0.44153 0.38598 0.30732 0.0
H1020 H 0.47014 0.39296 0.30738 0.0
H1021 H 0.45877 0.50792 0.30658 0.0
H1022 H 0.43283 0.47445 0.3079 0.0
H1023 H 0.45506 0.49348 0.4021 0.0
H1024 H 0.37985 0.38959 0.36494 0.0
H1025 H 0.43321 0.43362 0.59219 0.0
H1026 H 0.41526 0.39586 0.22154 0.0
H1027 H 0.41214 0.42587 0.22235 0.0
H1028 H 0.38776 0.39154 0.22827 0.0
H1029 H 0.48008 0.45059 0.5006 0.0
H1030 H 0.47225 0.4639 0.58933 0.0
H1031 H 0.47742 0.48086 0.49865 0.0
C1032 C 0.895 0.69267 0.58669 0.0
C1033 C 0.91918 0.71087 0.60316 0.0
C1034 C 0.88063 0.7004 0.5437 0.0
C1035 C 0.89067 0.7269 0.5165 0.0
C1036 C 0.91503 0.74425 0.52749 0.0
C1037 C 0.92893 0.73612 0.57095 0.0
C1038 C 0.85476 0.68105 0.53218 0.0
C1039 C 0.92652 0.77222 0.49721 0.0
C1040 C 0.85652 0.74762 0.36929 0.0
C1041 C 0.8538 0.76602 0.4273 0.0
C1042 C 0.8677 0.73382 0.39717 0.0
C1043 C 0.87623 0.73827 0.48536 0.0
C1044 C 0.8727 0.75584 0.54434 0.0
C1045 C 0.86162 0.76949 0.51471 0.0
C1046 C 0.87072 0.7149 0.33213 0.0
C1047 C 0.88156 0.7613 0.63894 0.0
H1048 H 0.88729 0.6731 0.61127 0.0
H1049 H 0.94758 0.75021 0.58256 0.0
H1050 H 0.8484 0.69123 0.57504 0.0
H1051 H 0.84611 0.67792 0.46592 0.0
H1052 H 0.84956 0.65973 0.5469 0.0
H1053 H 0.94549 0.78215 0.50481 0.0
H1054 H 0.91898 0.76875 0.42906 0.0
H1055 H 0.92337 0.78756 0.53387 0.0
H1056 H 0.85014 0.74425 0.30172 0.0
H1057 H 0.85995 0.78386 0.56021 0.0
H1058 H 0.8602 0.69231 0.33924 0.0
H1059 H 0.88901 0.72101 0.34274 0.0
H1060 H 0.86537 0.71604 0.26577 0.0
H1061 H 0.87535 0.74069 0.66012 0.0
H1062 H 0.87601 0.77378 0.67679 0.0
H1063 H 0.90074 0.77338 0.65315 0.0
C1064 C 0.38019 0.08929 0.63656 0.0
C1065 C 0.39578 0.09653 0.71332 0.0
C1066 C 0.36271 0.06028 0.59934 0.0
C1067 C 0.36046 0.03778 0.64 0.0
C1068 C 0.3761 0.04518 0.71782 0.0
C1069 C 0.39348 0.07416 0.75282 0.0
C1070 C 0.34679 0.0537 0.51597 0.0
C1071 C 0.37453 0.02237 0.7645 0.0
C1072 C 0.30433 0.96283 0.59428 0.0
C1073 C 0.30998 0.94578 0.54454 0.0
C1074 C 0.32015 0.9928 0.62316 0.0
C1075 C 0.34227 1.00647 0.60145 0.0
C1076 C 0.34767 0.98949 0.54852 0.0
C1077 C 0.33166 0.95958 0.52141 0.0
C1078 C 0.31351 1.00967 0.67981 0.0
C1079 C 0.37075 1.00277 0.52252 0.0
H1080 H 0.38179 0.10627 0.60511 0.0
H1081 H 0.4053 0.07931 0.81212 0.0
H1082 H 0.34872 0.03991 0.46671 0.0
H1083 H 0.32853 0.04158 0.52293 0.0
H1084 H 0.35037 0.07343 0.49309 0.0
H1085 H 0.38748 0.03156 0.82544 0.0
H1086 H 0.357 1.00965 0.77835 0.0
H1087 H 0.37725 1.00735 0.72385 0.0
H1088 H 0.28776 0.95262 0.61307 0.0
H1089 H 0.33635 0.94688 0.48285 0.0
H1090 H 0.31614 0.02862 0.65428 0.0
H1091 H 0.32483 0.01776 0.74419 0.0
H1092 H 0.29522 0.99657 0.68614 0.0
H1093 H 0.37426 0.02168 0.49496 0.0
H1094 H 0.37161 0.98738 0.4752 0.0
H1095 H 0.38471 1.01041 0.57943 0.0
C1096 C 0.03141 0.20686 0.80529 0.0
C1097 C 1.0135 0.20177 0.74002 0.0
C1098 C 0.05241 0.21105 0.7881 0.0
C1099 C 0.05585 0.2101 0.70327 0.0
C1100 C 0.03795 0.20529 0.6371 0.0
C1101 C 1.01709 0.20124 0.65618 0.0
C1102 C 0.07087 0.21619 0.86098 0.0
C1103 C 0.0407 0.20404 0.54577 0.0
C1104 C 0.11832 0.2436 0.67108 0.0
C1105 C 0.12036 0.21963 0.65603 0.0
C1106 C 0.09746 0.24082 0.68514 0.0
C1107 C 0.07791 0.21337 0.68406 0.0
C1108 C 0.07973 0.18907 0.66749 0.0
C1109 C 0.10077 0.19246 0.6538 0.0
C1110 C 0.0965 0.2674 0.70277 0.0
C1111 C 0.05945 0.15935 0.66505 0.0
H1112 H 0.029 0.20741 0.87038 0.0
H1113 H 1.00347 0.19732 0.60506 0.0
H1114 H 0.07433 0.19876 0.85137 0.0
H1115 H 0.08728 0.23661 0.86282 0.0
H1116 H 0.06589 0.21717 0.92358 0.0
H1117 H 0.02553 0.20089 0.50184 0.0
H1118 H 0.0564 0.22414 0.54006 0.0
H1119 H 0.04307 0.18616 0.52503 0.0
H1120 H 0.13324 0.26476 0.67392 0.0
H1121 H 0.10181 0.17364 0.64073 0.0
H1122 H 0.09327 0.27033 0.76768 0.0
H1123 H 0.08194 0.26501 0.65722 0.0
H1124 H 0.11277 0.28702 0.69799 0.0
H1125 H 0.05446 0.1582 0.72794 0.0
H1126 H 0.06334 0.14252 0.64888 0.0
H1127 H 0.04428 0.15457 0.61744 0.0
C1128 C 0.38565 0.21727 0.79125 0.0
C1129 C 0.38901 0.20163 0.72602 0.0
C1130 C 0.36902 0.22486 0.77586 0.0
C1131 C 0.35502 0.21656 0.69317 0.0
C1132 C 0.35794 0.20011 0.6276 0.0
C1133 C 0.37481 0.193 0.64463 0.0
C1134 C 0.36682 0.24247 0.84803 0.0
C1135 C 0.34356 0.19049 0.53852 0.0
C1136 C 0.30064 0.22145 0.67019 0.0
C1137 C 0.30862 0.24796 0.64566 0.0
C1138 C 0.31526 0.21068 0.68431 0.0
C1139 C 0.33858 0.22673 0.67427 0.0
C1140 C 0.34648 0.25317 0.64783 0.0
C1141 C 0.33156 0.2633 0.63385 0.0
C1142 C 0.30585 0.18228 0.71143 0.0
C1143 C 0.37102 0.27125 0.63599 0.0
H1144 H 0.39635 0.22407 0.85444 0.0
H1145 H 0.37696 0.18073 0.59356 0.0
H1146 H 0.37159 0.2636 0.833 0.0
H1147 H 0.34863 0.23161 0.85587 0.0
H1148 H 0.37806 0.24612 0.90943 0.0
H1149 H 0.34589 0.17514 0.49738 0.0
H1150 H 0.32496 0.18021 0.54017 0.0
H1151 H 0.34855 0.2094 0.50896 0.0
H1152 H 0.2831 0.20933 0.68002 0.0
H1153 H 0.33818 0.28379 0.61498 0.0
H1154 H 0.31551 0.18553 0.77598 0.0
H1155 H 0.30835 0.16772 0.66751 0.0
H1156 H 0.28717 0.17165 0.71256 0.0
H1157 H 0.38329 0.27754 0.69713 0.0
H1158 H 0.37447 0.29101 0.61362 0.0
H1159 H 0.37463 0.25864 0.58913 0.0
C1160 C 0.84895 0.97102 0.40185 0.0
C1161 C 0.82802 0.95381 0.42681 0.0
C1162 C 0.86406 1.00035 0.44097 0.0
C1163 C 0.85884 0.01261 0.51034 0.0
C1164 C 0.83775 0.99508 0.53609 0.0
C1165 C 0.82243 0.96628 0.49282 0.0
C1166 C 0.8857 0.01782 0.40768 0.0
C1167 C 0.83152 1.00653 0.61078 0.0
C1168 C 0.91152 0.07718 0.66503 0.0
C1169 C 0.90889 0.10009 0.65305 0.0
C1170 C 0.89517 0.04886 0.62067 0.0
C1171 C 0.87596 0.043 0.55926 0.0
C1172 C 0.87327 0.06619 0.54651 0.0
C1173 C 0.88954 0.09425 0.59431 0.0
C1174 C 0.89824 0.02505 0.64155 0.0
C1175 C 0.85317 0.06194 0.48394 0.0
H1176 H 0.85335 0.96171 0.35038 0.0
H1177 H 0.80631 0.95312 0.51274 0.0
H1178 H 0.89225 0.04106 0.42125 0.0
H1179 H 0.89939 0.01478 0.43781 0.0
H1180 H 0.8825 1.01044 0.33778 0.0
H1181 H 0.8161 0.98936 0.62969 0.0
H1182 H 0.84625 0.01728 0.6665 0.0
H1183 H 0.82777 0.02273 0.59392 0.0
H1184 H 0.92615 0.08124 0.71132 0.0
H1185 H 0.88717 0.11168 0.58501 0.0
H1186 H 0.90327 0.01686 0.58773 0.0
H1187 H 0.88175 1.00689 0.65121 0.0
H1188 H 0.9118 0.03236 0.69971 0.0
H1189 H 0.84359 0.04092 0.43898 0.0
H1190 H 0.8593 0.0793 0.44713 0.0
H1191 H 0.84099 0.06365 0.5196 0.0
C1192 C 0.02928 0.74331 0.73025 0.0
C1193 C 1.00849 0.71856 0.68495 0.0
C1194 C 0.04981 0.75397 0.69956 0.0
C1195 C 0.04977 0.73961 0.6213 0.0
C1196 C 0.02888 0.71455 0.57501 0.0
C1197 C 1.00848 0.70434 0.60732 0.0
C1198 C 0.07157 0.78078 0.75104 0.0
C1199 C 0.02806 0.69857 0.49134 0.0
C1200 C 0.09937 0.78605 0.51629 0.0
C1201 C 0.11577 0.77927 0.54395 0.0
C1202 C 0.0775 0.77246 0.53792 0.0
C1203 C 0.07167 0.75137 0.58831 0.0
C1204 C 0.08775 0.74358 0.61364 0.0
C1205 C 0.10956 0.75761 0.59135 0.0
C1206 C 0.06094 0.78145 0.50933 0.0
C1207 C 0.08227 0.72118 0.66719 0.0
H1208 H 0.02962 0.75453 0.79033 0.0
H1209 H 0.99255 0.68529 0.57162 0.0
H1210 H 0.08529 0.77624 0.76764 0.0
H1211 H 0.07809 0.79767 0.71267 0.0
H1212 H 0.06876 0.78935 0.81085 0.0
H1213 H 1.01058 0.67927 0.46361 0.0
H1214 H 0.03317 0.7129 0.4449 0.0
H1215 H 0.04063 0.69182 0.5004 0.0
H1216 H 0.10369 0.80224 0.47803 0.0
H1217 H 0.12206 0.75225 0.6136 0.0
H1218 H 0.05838 0.79206 0.56566 0.0
H1219 H 0.04379 0.76239 0.47704 0.0
H1220 H 0.06731 0.79653 0.46522 0.0
H1221 H 0.08113 0.72925 0.73129 0.0
H1222 H 0.0956 0.71557 0.67487 0.0
H1223 H 0.06523 0.7014 0.63811 0.0
loop_
_geom_bond_atom_site_label_1
_geom_bond_atom_site_label_2
_geom_bond_distance
_geom_bond_site_symmetry_2
_ccdc_geom_bond_type
Sm0 C2 2.846 . S
Sm0 O20 2.543 . S
Sm0 O21 2.450 . S
Sm0 O22 2.681 1_554 S
Sm0 O23 2.464 1_554 S
Sm0 O24 2.396 . S
Sm0 O28 2.386 . S
Sm0 O31 2.408 . S
Sm1 C11 2.846 . S
Sm1 O22 2.386 1_554 S
Sm1 O25 2.408 . S
Sm1 O26 2.543 1_554 S
Sm1 O27 2.450 1_455 S
Sm1 O28 2.681 . S
Sm1 O29 2.464 . S
Sm1 O30 2.396 . S
C2 Sm0 2.846 . S
C2 C3 1.506 . S
C2 O20 1.261 . S
C2 O21 1.242 . S
C3 C2 1.506 . S
C3 C4 1.358 . S
C3 C8 1.382 . S
C4 C3 1.358 . S
C4 C5 1.385 . S
C4 H32 0.930 . S
C5 C4 1.385 . S
C5 C6 1.395 . S
C5 H33 0.929 . S
C6 C5 1.395 . S
C6 C7 1.335 . S
C7 C6 1.335 . S
C7 C8 1.398 . S
C7 H34 0.930 . S
C8 C3 1.382 . S
C8 C7 1.398 . S
C8 H35 0.929 . S
C9 O22 1.271 . S
C9 O23 1.251 . S
C10 O24 1.252 . S
C10 O25 1.272 . S
C11 Sm1 2.846 . S
C11 C12 1.506 1_455 S
C11 O26 1.261 1_554 S
C11 O27 1.242 1_455 S
C12 C11 1.506 1_655 S
C12 C13 1.358 1_654 S
C12 C17 1.382 . S
C13 C12 1.358 1_456 S
C13 C14 1.385 1_455 S
C13 H36 0.930 . S
C14 C13 1.385 1_655 S
C14 C15 1.395 1_556 S
C14 H37 0.929 . S
C15 C14 1.395 1_554 S
C15 C16 1.335 . S
C16 C15 1.335 . S
C16 C17 1.398 . S
C16 H38 0.930 . S
C17 C12 1.382 . S
C17 C16 1.398 . S
C17 H39 0.929 . S
C18 O28 1.271 . S
C18 O29 1.251 . S
C19 O30 1.252 . S
C19 O31 1.272 . S
O20 Sm0 2.543 . S
O20 C2 1.261 . S
O21 Sm0 2.450 . S
O21 C2 1.242 . S
O22 Sm0 2.681 1_556 S
O22 Sm1 2.386 1_556 S
O22 C9 1.271 . S
O23 Sm0 2.464 1_556 S
O23 C9 1.251 . S
O24 Sm0 2.396 . S
O24 C10 1.252 . S
O25 Sm1 2.408 . S
O25 C10 1.272 . S
O26 Sm1 2.543 1_556 S
O26 C11 1.261 1_556 S
O27 Sm1 2.450 1_655 S
O27 C11 1.242 1_655 S
O28 Sm0 2.386 . S
O28 Sm1 2.681 . S
O28 C18 1.271 . S
O29 Sm1 2.464 . S
O29 C18 1.251 . S
O30 Sm1 2.396 . S
O30 C19 1.252 . S
O31 Sm0 2.408 . S
O31 C19 1.272 . S
H32 C4 0.930 . S
H33 C5 0.929 . S
H34 C7 0.930 . S
H35 C8 0.929 . S
H36 C13 0.930 . S
H37 C14 0.929 . S
H38 C16 0.930 . S
H39 C17 0.929 . S
Sm40 C42 2.846 . S
Sm40 O60 2.543 . S
Sm40 O61 2.450 . S
Sm40 O62 2.681 . S
Sm40 O63 2.464 . S
Sm40 O64 2.396 . S
Sm40 O68 2.386 . S
Sm40 O71 2.408 . S
Sm41 C51 2.846 . S
Sm41 O62 2.386 . S
Sm41 O65 2.408 . S
Sm41 O66 2.543 . S
Sm41 O67 2.450 . S
Sm41 O68 2.681 . S
Sm41 O69 2.463 . S
Sm41 O70 2.396 . S
C42 Sm40 2.846 . S
C42 C43 1.506 . S
C42 O60 1.261 . S
C42 O61 1.242 . S
C43 C42 1.506 . S
C43 C44 1.358 . S
C43 C48 1.382 . S
C44 C43 1.358 . S
C44 C45 1.385 . S
C44 H72 0.930 . S
C45 C44 1.385 . S
C45 C46 1.395 . S
C45 H73 0.929 . S
C46 C45 1.395 . S
C46 C47 1.335 . S
C47 C46 1.335 . S
C47 C48 1.398 . S
C47 H74 0.930 . S
C48 C43 1.382 . S
C48 C47 1.398 . S
C48 H75 0.929 . S
C49 O62 1.271 . S
C49 O63 1.251 . S
C50 O64 1.252 . S
C50 O65 1.272 . S
C51 Sm41 2.846 . S
C51 C52 1.506 . S
C51 O66 1.261 . S
C51 O67 1.242 . S
C52 C51 1.506 . S
C52 C53 1.358 . S
C52 C57 1.382 . S
C53 C52 1.358 . S
C53 C54 1.385 . S
C53 H76 0.930 . S
C54 C53 1.385 . S
C54 C55 1.395 . S
C54 H77 0.929 . S
C55 C54 1.395 . S
C55 C56 1.335 . S
C56 C55 1.335 . S
C56 C57 1.398 . S
C56 H78 0.930 . S
C57 C52 1.382 . S
C57 C56 1.398 . S
C57 H79 0.929 . S
C58 O68 1.271 1_556 S
C58 O69 1.251 1_556 S
C59 O70 1.252 . S
C59 O71 1.272 . S
O60 Sm40 2.543 . S
O60 C42 1.261 . S
O61 Sm40 2.450 . S
O61 C42 1.242 . S
O62 Sm40 2.681 . S
O62 Sm41 2.386 . S
O62 C49 1.271 . S
O63 Sm40 2.464 . S
O63 C49 1.251 . S
O64 Sm40 2.396 . S
O64 C50 1.252 . S
O65 Sm41 2.408 . S
O65 C50 1.272 . S
O66 Sm41 2.543 . S
O66 C51 1.261 . S
O67 Sm41 2.450 . S
O67 C51 1.242 . S
O68 Sm40 2.386 . S
O68 Sm41 2.681 . S
O68 C58 1.271 1_554 S
O69 Sm41 2.463 . S
O69 C58 1.251 1_554 S
O70 Sm41 2.396 . S
O70 C59 1.252 . S
O71 Sm40 2.408 . S
O71 C59 1.272 . S
H72 C44 0.930 . S
H73 C45 0.929 . S
H74 C47 0.930 . S
H75 C48 0.929 . S
H76 C53 0.930 . S
H77 C54 0.929 . S
H78 C56 0.930 . S
H79 C57 0.929 . S
Sm80 C82 2.846 . S
Sm80 O100 2.543 . S
Sm80 O101 2.450 . S
Sm80 O102 2.681 . S
Sm80 O103 2.464 . S
Sm80 O104 2.396 . S
Sm80 O108 2.386 . S
Sm80 O111 2.408 . S
Sm81 C91 2.846 . S
Sm81 O102 2.386 . S
Sm81 O105 2.408 . S
Sm81 O106 2.543 . S
Sm81 O107 2.450 . S
Sm81 O108 2.681 . S
Sm81 O109 2.464 . S
Sm81 O110 2.396 . S
C82 Sm80 2.846 . S
C82 C83 1.506 . S
C82 O100 1.261 . S
C82 O101 1.242 . S
C83 C82 1.506 . S
C83 C84 1.358 . S
C83 C88 1.382 . S
C84 C83 1.358 . S
C84 C85 1.385 . S
C84 H112 0.930 . S
C85 C84 1.385 . S
C85 C86 1.395 . S
C85 H113 0.929 . S
C86 C85 1.395 . S
C86 C87 1.335 . S
C87 C86 1.335 . S
C87 C88 1.398 . S
C87 H114 0.930 . S
C88 C83 1.382 . S
C88 C87 1.398 . S
C88 H115 0.929 . S
C89 O102 1.271 . S
C89 O103 1.251 . S
C90 O104 1.252 . S
C90 O105 1.272 . S
C91 Sm81 2.846 . S
C91 C92 1.506 . S
C91 O106 1.261 . S
C91 O107 1.242 . S
C92 C91 1.506 . S
C92 C93 1.358 . S
C92 C97 1.382 . S
C93 C92 1.358 . S
C93 C94 1.385 . S
C93 H116 0.930 . S
C94 C93 1.385 . S
C94 C95 1.395 . S
C94 H117 0.929 . S
C95 C94 1.395 . S
C95 C96 1.335 . S
C96 C95 1.335 . S
C96 C97 1.398 . S
C96 H118 0.930 . S
C97 C92 1.382 . S
C97 C96 1.398 . S
C97 H119 0.929 . S
C98 O108 1.271 . S
C98 O109 1.251 . S
C99 O110 1.252 . S
C99 O111 1.272 . S
O100 Sm80 2.543 . S
O100 C82 1.261 . S
O101 Sm80 2.450 . S
O101 C82 1.242 . S
O102 Sm80 2.681 . S
O102 Sm81 2.386 . S
O102 C89 1.271 . S
O103 Sm80 2.464 . S
O103 C89 1.251 . S
O104 Sm80 2.396 . S
O104 C90 1.252 . S
O105 Sm81 2.408 . S
O105 C90 1.272 . S
O106 Sm81 2.543 . S
O106 C91 1.261 . S
O107 Sm81 2.450 . S
O107 C91 1.242 . S
O108 Sm80 2.386 . S
O108 Sm81 2.681 . S
O108 C98 1.271 . S
O109 Sm81 2.464 . S
O109 C98 1.251 . S
O110 Sm81 2.396 . S
O110 C99 1.252 . S
O111 Sm80 2.408 . S
O111 C99 1.272 . S
H112 C84 0.930 . S
H113 C85 0.929 . S
H114 C87 0.930 . S
H115 C88 0.929 . S
H116 C93 0.930 . S
H117 C94 0.929 . S
H118 C96 0.930 . S
H119 C97 0.929 . S
Sm120 C122 2.846 . S
Sm120 O140 2.543 . S
Sm120 O141 2.450 . S
Sm120 O142 2.681 . S
Sm120 O143 2.464 . S
Sm120 O144 2.396 . S
Sm120 O148 2.386 . S
Sm120 O151 2.408 . S
Sm121 C131 2.846 . S
Sm121 O142 2.386 . S
Sm121 O145 2.408 . S
Sm121 O146 2.543 . S
Sm121 O147 2.450 . S
Sm121 O148 2.681 . S
Sm121 O149 2.464 . S
Sm121 O150 2.396 . S
C122 Sm120 2.846 . S
C122 C123 1.506 . S
C122 O140 1.261 . S
C122 O141 1.242 . S
C123 C122 1.506 . S
C123 C124 1.358 . S
C123 C128 1.382 . S
C124 C123 1.358 . S
C124 C125 1.385 . S
C124 H152 0.930 . S
C125 C124 1.385 . S
C125 C126 1.395 . S
C125 H153 0.929 . S
C126 C125 1.395 . S
C126 C127 1.335 . S
C127 C126 1.335 . S
C127 C128 1.398 . S
C127 H154 0.930 . S
C128 C123 1.382 . S
C128 C127 1.398 . S
C128 H155 0.929 . S
C129 O142 1.271 . S
C129 O143 1.251 . S
C130 O144 1.252 . S
C130 O145 1.272 . S
C131 Sm121 2.846 . S
C131 C132 1.506 . S
C131 O146 1.261 . S
C131 O147 1.242 . S
C132 C131 1.506 . S
C132 C133 1.358 . S
C132 C137 1.382 . S
C133 C132 1.358 . S
C133 C134 1.385 . S
C133 H156 0.930 . S
C134 C133 1.385 . S
C134 C135 1.395 . S
C134 H157 0.929 . S
C135 C134 1.395 . S
C135 C136 1.335 . S
C136 C135 1.335 . S
C136 C137 1.398 . S
C136 H158 0.930 . S
C137 C132 1.382 . S
C137 C136 1.398 . S
C137 H159 0.929 . S
C138 O148 1.271 . S
C138 O149 1.251 . S
C139 O150 1.252 . S
C139 O151 1.272 . S
O140 Sm120 2.543 . S
O140 C122 1.261 . S
O141 Sm120 2.450 . S
O141 C122 1.242 . S
O142 Sm120 2.681 . S
O142 Sm121 2.386 . S
O142 C129 1.271 . S
O143 Sm120 2.464 . S
O143 C129 1.251 . S
O144 Sm120 2.396 . S
O144 C130 1.252 . S
O145 Sm121 2.408 . S
O145 C130 1.272 . S
O146 Sm121 2.543 . S
O146 C131 1.261 . S
O147 Sm121 2.450 . S
O147 C131 1.242 . S
O148 Sm120 2.386 . S
O148 Sm121 2.681 . S
O148 C138 1.271 . S
O149 Sm121 2.464 . S
O149 C138 1.251 . S
O150 Sm121 2.396 . S
O150 C139 1.252 . S
O151 Sm120 2.408 . S
O151 C139 1.272 . S
H152 C124 0.930 . S
H153 C125 0.929 . S
H154 C127 0.930 . S
H155 C128 0.929 . S
H156 C133 0.930 . S
H157 C134 0.929 . S
H158 C136 0.930 . S
H159 C137 0.929 . S
Sm160 C162 2.846 . S
Sm160 O180 2.543 . S
Sm160 O181 2.450 . S
Sm160 O182 2.681 . S
Sm160 O183 2.464 . S
Sm160 O184 2.396 . S
Sm160 O188 2.386 . S
Sm160 O191 2.408 . S
Sm161 C171 2.846 . S
Sm161 O182 2.386 . S
Sm161 O185 2.408 . S
Sm161 O186 2.543 . S
Sm161 O187 2.450 . S
Sm161 O188 2.681 . S
Sm161 O189 2.464 . S
Sm161 O190 2.396 . S
C162 Sm160 2.846 . S
C162 C163 1.506 . S
C162 O180 1.261 . S
C162 O181 1.242 . S
C163 C162 1.506 . S
C163 C164 1.358 . S
C163 C168 1.382 . S
C164 C163 1.358 . S
C164 C165 1.385 . S
C164 H192 0.930 . S
C165 C164 1.385 . S
C165 C166 1.395 . S
C165 H193 0.929 . S
C166 C165 1.395 . S
C166 C167 1.335 . S
C167 C166 1.335 . S
C167 C168 1.398 . S
C167 H194 0.930 . S
C168 C163 1.382 . S
C168 C167 1.398 . S
C168 H195 0.929 . S
C169 O182 1.271 . S
C169 O183 1.251 . S
C170 O184 1.252 . S
C170 O185 1.272 . S
C171 Sm161 2.846 . S
C171 C172 1.506 . S
C171 O186 1.261 . S
C171 O187 1.242 . S
C172 C171 1.506 . S
C172 C173 1.358 . S
C172 C177 1.382 . S
C173 C172 1.358 . S
C173 C174 1.385 . S
C173 H196 0.930 . S
C174 C173 1.385 . S
C174 C175 1.395 . S
C174 H197 0.929 . S
C175 C174 1.395 . S
C175 C176 1.335 . S
C176 C175 1.335 . S
C176 C177 1.398 . S
C176 H198 0.930 . S
C177 C172 1.382 . S
C177 C176 1.398 . S
C177 H199 0.929 . S
C178 O188 1.271 . S
C178 O189 1.251 . S
C179 O190 1.252 . S
C179 O191 1.272 . S
O180 Sm160 2.543 . S
O180 C162 1.261 . S
O181 Sm160 2.450 . S
O181 C162 1.242 . S
O182 Sm160 2.681 . S
O182 Sm161 2.386 . S
O182 C169 1.271 . S
O183 Sm160 2.464 . S
O183 C169 1.251 . S
O184 Sm160 2.396 . S
O184 C170 1.252 . S
O185 Sm161 2.408 . S
O185 C170 1.272 . S
O186 Sm161 2.543 . S
O186 C171 1.261 . S
O187 Sm161 2.450 . S
O187 C171 1.242 . S
O188 Sm160 2.386 . S
O188 Sm161 2.681 . S
O188 C178 1.271 . S
O189 Sm161 2.464 . S
O189 C178 1.251 . S
O190 Sm161 2.396 . S
O190 C179 1.252 . S
O191 Sm160 2.408 . S
O191 C179 1.272 . S
H192 C164 0.930 . S
H193 C165 0.929 . S
H194 C167 0.930 . S
H195 C168 0.929 . S
H196 C173 0.930 . S
H197 C174 0.929 . S
H198 C176 0.930 . S
H199 C177 0.929 . S
Sm200 C202 2.846 . S
Sm200 O220 2.543 . S
Sm200 O221 2.450 . S
Sm200 O222 2.681 . S
Sm200 O223 2.464 . S
Sm200 O224 2.396 . S
Sm200 O228 2.386 . S
Sm200 O231 2.408 . S
Sm201 C211 2.846 . S
Sm201 O222 2.386 . S
Sm201 O225 2.408 . S
Sm201 O226 2.543 . S
Sm201 O227 2.450 . S
Sm201 O228 2.681 . S
Sm201 O229 2.464 . S
Sm201 O230 2.396 . S
C202 Sm200 2.846 . S
C202 C203 1.506 . S
C202 O220 1.261 . S
C202 O221 1.242 . S
C203 C202 1.506 . S
C203 C204 1.358 . S
C203 C208 1.382 . S
C204 C203 1.358 . S
C204 C205 1.385 . S
C204 H232 0.930 . S
C205 C204 1.385 . S
C205 C206 1.395 . S
C205 H233 0.929 . S
C206 C205 1.395 . S
C206 C207 1.335 . S
C207 C206 1.335 . S
C207 C208 1.398 . S
C207 H234 0.930 . S
C208 C203 1.382 . S
C208 C207 1.398 . S
C208 H235 0.929 . S
C209 O222 1.271 . S
C209 O223 1.251 . S
C210 O224 1.252 . S
C210 O225 1.272 . S
C211 Sm201 2.846 . S
C211 C212 1.506 . S
C211 O226 1.261 . S
C211 O227 1.242 . S
C212 C211 1.506 . S
C212 C213 1.358 . S
C212 C217 1.382 . S
C213 C212 1.358 . S
C213 C214 1.385 . S
C213 H236 0.930 . S
C214 C213 1.385 . S
C214 C215 1.395 . S
C214 H237 0.929 . S
C215 C214 1.395 . S
C215 C216 1.335 . S
C216 C215 1.335 . S
C216 C217 1.398 . S
C216 H238 0.930 . S
C217 C212 1.382 . S
C217 C216 1.398 . S
C217 H239 0.929 . S
C218 O228 1.271 . S
C218 O229 1.251 . S
C219 O230 1.252 . S
C219 O231 1.272 . S
O220 Sm200 2.543 . S
O220 C202 1.261 . S
O221 Sm200 2.450 . S
O221 C202 1.242 . S
O222 Sm200 2.681 . S
O222 Sm201 2.386 . S
O222 C209 1.271 . S
O223 Sm200 2.464 . S
O223 C209 1.251 . S
O224 Sm200 2.396 . S
O224 C210 1.252 . S
O225 Sm201 2.408 . S
O225 C210 1.272 . S
O226 Sm201 2.543 . S
O226 C211 1.261 . S
O227 Sm201 2.450 . S
O227 C211 1.242 . S
O228 Sm200 2.386 . S
O228 Sm201 2.681 . S
O228 C218 1.271 . S
O229 Sm201 2.464 . S
O229 C218 1.251 . S
O230 Sm201 2.396 . S
O230 C219 1.252 . S
O231 Sm200 2.408 . S
O231 C219 1.272 . S
H232 C204 0.930 . S
H233 C205 0.929 . S
H234 C207 0.930 . S
H235 C208 0.929 . S
H236 C213 0.930 . S
H237 C214 0.929 . S
H238 C216 0.930 . S
H239 C217 0.929 . S
Sm240 C242 2.846 . S
Sm240 O260 2.543 . S
Sm240 O261 2.450 . S
Sm240 O262 2.681 . S
Sm240 O263 2.464 . S
Sm240 O264 2.396 . S
Sm240 O268 2.386 . S
Sm240 O271 2.408 . S
Sm241 C251 2.846 . S
Sm241 O262 2.386 . S
Sm241 O265 2.408 . S
Sm241 O266 2.543 . S
Sm241 O267 2.450 . S
Sm241 O268 2.681 . S
Sm241 O269 2.464 . S
Sm241 O270 2.396 . S
C242 Sm240 2.846 . S
C242 C243 1.506 . S
C242 O260 1.261 . S
C242 O261 1.242 . S
C243 C242 1.506 . S
C243 C244 1.358 . S
C243 C248 1.382 . S
C244 C243 1.358 . S
C244 C245 1.385 . S
C244 H272 0.930 . S
C245 C244 1.385 . S
C245 C246 1.395 . S
C245 H273 0.929 . S
C246 C245 1.395 . S
C246 C247 1.335 . S
C247 C246 1.335 . S
C247 C248 1.398 . S
C247 H274 0.930 . S
C248 C243 1.382 . S
C248 C247 1.398 . S
C248 H275 0.929 . S
C249 O262 1.271 . S
C249 O263 1.251 . S
C250 O264 1.252 . S
C250 O265 1.272 . S
C251 Sm241 2.846 . S
C251 C252 1.506 1_556 S
C251 O266 1.261 . S
C251 O267 1.242 . S
C252 C251 1.506 1_554 S
C252 C253 1.358 . S
C252 C257 1.382 . S
C253 C252 1.358 . S
C253 C254 1.385 . S
C253 H276 0.930 . S
C254 C253 1.385 . S
C254 C255 1.395 . S
C254 H277 0.929 . S
C255 C254 1.395 . S
C255 C256 1.335 . S
C256 C255 1.335 . S
C256 C257 1.398 . S
C256 H278 0.930 . S
C257 C252 1.382 . S
C257 C256 1.398 . S
C257 H279 0.929 1_554 S
C258 O268 1.271 . S
C258 O269 1.251 . S
C259 O270 1.252 . S
C259 O271 1.272 . S
O260 Sm240 2.543 . S
O260 C242 1.261 . S
O261 Sm240 2.450 . S
O261 C242 1.242 . S
O262 Sm240 2.681 . S
O262 Sm241 2.386 . S
O262 C249 1.271 . S
O263 Sm240 2.464 . S
O263 C249 1.251 . S
O264 Sm240 2.396 . S
O264 C250 1.252 . S
O265 Sm241 2.408 . S
O265 C250 1.272 . S
O266 Sm241 2.543 . S
O266 C251 1.261 . S
O267 Sm241 2.450 . S
O267 C251 1.242 . S
O268 Sm240 2.386 . S
O268 Sm241 2.681 . S
O268 C258 1.271 . S
O269 Sm241 2.464 . S
O269 C258 1.251 . S
O270 Sm241 2.396 . S
O270 C259 1.252 . S
O271 Sm240 2.408 . S
O271 C259 1.272 . S
H272 C244 0.930 . S
H273 C245 0.929 . S
H274 C247 0.930 . S
H275 C248 0.929 . S
H276 C253 0.930 . S
H277 C254 0.929 . S
H278 C256 0.930 . S
H279 C257 0.929 1_556 S
Sm280 C282 2.846 . S
Sm280 O300 2.543 . S
Sm280 O301 2.450 . S
Sm280 O302 2.681 . S
Sm280 O303 2.464 . S
Sm280 O304 2.396 . S
Sm280 O308 2.386 . S
Sm280 O311 2.408 . S
Sm281 C291 2.846 . S
Sm281 O302 2.386 . S
Sm281 O305 2.408 . S
Sm281 O306 2.543 . S
Sm281 O307 2.450 . S
Sm281 O308 2.681 . S
Sm281 O309 2.464 . S
Sm281 O310 2.396 . S
C282 Sm280 2.846 . S
C282 C283 1.506 1_556 S
C282 O300 1.261 . S
C282 O301 1.242 . S
C283 C282 1.506 1_554 S
C283 C284 1.358 . S
C283 C288 1.382 . S
C284 C283 1.358 . S
C284 C285 1.385 . S
C284 H312 0.930 . S
C285 C284 1.385 . S
C285 C286 1.395 . S
C285 H313 0.929 . S
C286 C285 1.395 . S
C286 C287 1.335 . S
C287 C286 1.335 . S
C287 C288 1.398 . S
C287 H314 0.930 . S
C288 C283 1.382 . S
C288 C287 1.398 . S
C288 H315 0.929 1_554 S
C289 O302 1.271 . S
C289 O303 1.251 . S
C290 O304 1.252 . S
C290 O305 1.272 . S
C291 Sm281 2.846 . S
C291 C292 1.506 . S
C291 O306 1.261 . S
C291 O307 1.242 . S
C292 C291 1.506 . S
C292 C293 1.358 . S
C292 C297 1.382 . S
C293 C292 1.358 . S
C293 C294 1.385 . S
C293 H316 0.930 . S
C294 C293 1.385 . S
C294 C295 1.395 . S
C294 H317 0.929 . S
C295 C294 1.395 . S
C295 C296 1.335 . S
C296 C295 1.335 . S
C296 C297 1.398 . S
C296 H318 0.930 . S
C297 C292 1.382 . S
C297 C296 1.398 . S
C297 H319 0.929 . S
C298 O308 1.271 . S
C298 O309 1.251 . S
C299 O310 1.252 . S
C299 O311 1.272 . S
O300 Sm280 2.543 . S
O300 C282 1.261 . S
O301 Sm280 2.450 . S
O301 C282 1.242 . S
O302 Sm280 2.681 . S
O302 Sm281 2.386 . S
O302 C289 1.271 . S
O303 Sm280 2.464 . S
O303 C289 1.251 . S
O304 Sm280 2.396 . S
O304 C290 1.252 . S
O305 Sm281 2.408 . S
O305 C290 1.272 . S
O306 Sm281 2.543 . S
O306 C291 1.261 . S
O307 Sm281 2.450 . S
O307 C291 1.242 . S
O308 Sm280 2.386 . S
O308 Sm281 2.681 . S
O308 C298 1.271 . S
O309 Sm281 2.464 . S
O309 C298 1.251 . S
O310 Sm281 2.396 . S
O310 C299 1.252 . S
O311 Sm280 2.408 . S
O311 C299 1.272 . S
H312 C284 0.930 . S
H313 C285 0.929 . S
H314 C287 0.930 . S
H315 C288 0.929 1_556 S
H316 C293 0.930 . S
H317 C294 0.929 . S
H318 C296 0.930 . S
H319 C297 0.929 . S
Sm320 C322 2.846 . S
Sm320 O340 2.543 . S
Sm320 O341 2.450 . S
Sm320 O342 2.681 . S
Sm320 O343 2.464 . S
Sm320 O344 2.396 . S
Sm320 O348 2.386 . S
Sm320 O351 2.408 . S
Sm321 C331 2.846 . S
Sm321 O342 2.386 . S
Sm321 O345 2.408 . S
Sm321 O346 2.543 . S
Sm321 O347 2.450 . S
Sm321 O348 2.681 . S
Sm321 O349 2.464 . S
Sm321 O350 2.396 . S
C322 Sm320 2.846 . S
C322 C323 1.506 . S
C322 O340 1.261 . S
C322 O341 1.242 . S
C323 C322 1.506 . S
C323 C324 1.358 . S
C323 C328 1.382 . S
C324 C323 1.358 . S
C324 C325 1.385 . S
C324 H352 0.930 . S
C325 C324 1.385 . S
C325 C326 1.395 . S
C325 H353 0.929 . S
C326 C325 1.395 . S
C326 C327 1.335 . S
C327 C326 1.335 . S
C327 C328 1.398 . S
C327 H354 0.930 . S
C328 C323 1.382 . S
C328 C327 1.398 . S
C328 H355 0.929 . S
C329 O342 1.271 . S
C329 O343 1.251 . S
C330 O344 1.252 . S
C330 O345 1.272 . S
C331 Sm321 2.846 . S
C331 C332 1.506 1_556 S
C331 O346 1.261 . S
C331 O347 1.242 . S
C332 C331 1.506 1_554 S
C332 C333 1.358 . S
C332 C337 1.382 . S
C333 C332 1.358 . S
C333 C334 1.385 . S
C333 H356 0.930 . S
C334 C333 1.385 . S
C334 C335 1.395 . S
C334 H357 0.929 . S
C335 C334 1.395 . S
C335 C336 1.335 . S
C336 C335 1.335 . S
C336 C337 1.398 . S
C336 H358 0.930 . S
C337 C332 1.382 . S
C337 C336 1.398 . S
C337 H359 0.929 . S
C338 O348 1.271 . S
C338 O349 1.251 . S
C339 O350 1.252 . S
C339 O351 1.272 . S
O340 Sm320 2.543 . S
O340 C322 1.261 . S
O341 Sm320 2.450 . S
O341 C322 1.242 . S
O342 Sm320 2.681 . S
O342 Sm321 2.386 . S
O342 C329 1.271 . S
O343 Sm320 2.464 . S
O343 C329 1.251 . S
O344 Sm320 2.396 . S
O344 C330 1.252 . S
O345 Sm321 2.408 . S
O345 C330 1.272 . S
O346 Sm321 2.543 . S
O346 C331 1.261 . S
O347 Sm321 2.450 . S
O347 C331 1.242 . S
O348 Sm320 2.386 . S
O348 Sm321 2.681 . S
O348 C338 1.271 . S
O349 Sm321 2.464 . S
O349 C338 1.251 . S
O350 Sm321 2.396 . S
O350 C339 1.252 . S
O351 Sm320 2.408 . S
O351 C339 1.272 . S
H352 C324 0.930 . S
H353 C325 0.929 . S
H354 C327 0.930 . S
H355 C328 0.929 . S
H356 C333 0.930 . S
H357 C334 0.929 . S
H358 C336 0.930 . S
H359 C337 0.929 . S
C360 C361 1.391 . S
C360 C362 1.394 . S
C360 H376 0.931 . S
C361 C360 1.391 . S
C361 C365 1.376 . S
C362 C360 1.394 . S
C362 C363 1.369 . S
C362 C366 1.531 . S
C363 C362 1.369 . S
C363 C364 1.410 . S
C363 C371 1.503 . S
C364 C363 1.410 . S
C364 C365 1.392 . S
C364 C367 1.511 . S
C365 C361 1.376 . S
C365 C364 1.392 . S
C365 H377 0.929 . S
C366 C362 1.531 . S
C366 H378 0.960 . S
C366 H379 0.962 . S
C366 H380 0.960 . S
C367 C364 1.511 . S
C367 H381 0.961 . S
C367 H382 0.961 . S
C367 H383 0.961 . S
C368 C369 1.370 . S
C368 C370 1.363 . S
C368 H384 0.931 . S
C369 C368 1.370 . S
C369 C373 1.408 . S
C370 C368 1.363 . S
C370 C371 1.370 . S
C370 C374 1.524 . S
C371 C363 1.503 . S
C371 C370 1.370 . S
C371 C372 1.403 . S
C372 C371 1.403 . S
C372 C373 1.404 . S
C372 C375 1.539 . S
C373 C369 1.408 . S
C373 C372 1.404 . S
C373 H385 0.930 . S
C374 C370 1.524 . S
C374 H386 0.956 . S
C374 H387 0.961 . S
C374 H388 0.961 . S
C375 C372 1.539 . S
C375 H389 0.958 . S
C375 H390 0.961 . S
C375 H391 0.960 . S
H376 C360 0.931 . S
H377 C365 0.929 . S
H378 C366 0.960 . S
H379 C366 0.962 . S
H380 C366 0.960 . S
H381 C367 0.961 . S
H382 C367 0.961 . S
H383 C367 0.961 . S
H384 C368 0.931 . S
H385 C373 0.930 . S
H386 C374 0.956 . S
H387 C374 0.961 . S
H388 C374 0.961 . S
H389 C375 0.958 . S
H390 C375 0.961 . S
H391 C375 0.960 . S
C392 C393 1.391 . S
C392 C394 1.394 . S
C392 H408 0.931 . S
C393 C392 1.391 . S
C393 C397 1.376 . S
C394 C392 1.394 . S
C394 C395 1.369 . S
C394 C398 1.531 . S
C395 C394 1.369 . S
C395 C396 1.410 . S
C395 C403 1.503 . S
C396 C395 1.410 . S
C396 C397 1.392 . S
C396 C399 1.511 . S
C397 C393 1.376 . S
C397 C396 1.392 . S
C397 H409 0.929 . S
C398 C394 1.531 . S
C398 H410 0.960 . S
C398 H411 0.962 . S
C398 H412 0.960 . S
C399 C396 1.511 . S
C399 H413 0.961 . S
C399 H414 0.961 . S
C399 H415 0.961 . S
C400 C401 1.370 . S
C400 C402 1.363 . S
C400 H416 0.931 . S
C401 C400 1.370 . S
C401 C405 1.408 . S
C402 C400 1.363 . S
C402 C403 1.370 . S
C402 C406 1.524 . S
C403 C395 1.503 . S
C403 C402 1.370 . S
C403 C404 1.403 . S
C404 C403 1.403 . S
C404 C405 1.404 . S
C404 C407 1.539 . S
C405 C401 1.408 . S
C405 C404 1.404 . S
C405 H417 0.930 . S
C406 C402 1.524 . S
C406 H418 0.956 . S
C406 H419 0.961 . S
C406 H420 0.961 . S
C407 C404 1.539 . S
C407 H421 0.958 . S
C407 H422 0.961 . S
C407 H423 0.960 . S
H408 C392 0.931 . S
H409 C397 0.929 . S
H410 C398 0.960 . S
H411 C398 0.962 . S
H412 C398 0.960 . S
H413 C399 0.961 . S
H414 C399 0.961 . S
H415 C399 0.961 . S
H416 C400 0.931 . S
H417 C405 0.930 . S
H418 C406 0.956 . S
H419 C406 0.961 . S
H420 C406 0.961 . S
H421 C407 0.958 . S
H422 C407 0.961 . S
H423 C407 0.960 . S
C424 C425 1.391 . S
C424 C426 1.394 . S
C424 H440 0.931 . S
C425 C424 1.391 . S
C425 C429 1.376 . S
C426 C424 1.394 . S
C426 C427 1.369 . S
C426 C430 1.531 . S
C427 C426 1.369 . S
C427 C428 1.410 . S
C427 C435 1.503 . S
C428 C427 1.410 . S
C428 C429 1.392 . S
C428 C431 1.511 . S
C429 C425 1.376 . S
C429 C428 1.392 . S
C429 H441 0.929 . S
C430 C426 1.531 . S
C430 H442 0.960 . S
C430 H443 0.962 . S
C430 H444 0.960 . S
C431 C428 1.511 . S
C431 H445 0.961 . S
C431 H446 0.961 . S
C431 H447 0.961 . S
C432 C433 1.370 . S
C432 C434 1.363 . S
C432 H448 0.931 . S
C433 C432 1.370 . S
C433 C437 1.408 . S
C434 C432 1.363 . S
C434 C435 1.370 . S
C434 C438 1.524 . S
C435 C427 1.503 . S
C435 C434 1.370 . S
C435 C436 1.403 . S
C436 C435 1.403 . S
C436 C437 1.404 . S
C436 C439 1.539 . S
C437 C433 1.408 . S
C437 C436 1.404 . S
C437 H449 0.930 . S
C438 C434 1.524 . S
C438 H450 0.956 . S
C438 H451 0.961 . S
C438 H452 0.961 . S
C439 C436 1.539 . S
C439 H453 0.958 . S
C439 H454 0.961 . S
C439 H455 0.960 . S
H440 C424 0.931 . S
H441 C429 0.929 . S
H442 C430 0.960 . S
H443 C430 0.962 . S
H444 C430 0.960 . S
H445 C431 0.961 . S
H446 C431 0.961 . S
H447 C431 0.961 . S
H448 C432 0.931 . S
H449 C437 0.930 . S
H450 C438 0.956 . S
H451 C438 0.961 . S
H452 C438 0.961 . S
H453 C439 0.958 . S
H454 C439 0.961 . S
H455 C439 0.960 . S
C456 C457 1.391 . S
C456 C458 1.394 . S
C456 H472 0.931 . S
C457 C456 1.391 . S
C457 C461 1.376 . S
C458 C456 1.394 . S
C458 C459 1.369 . S
C458 C462 1.531 . S
C459 C458 1.369 . S
C459 C460 1.410 . S
C459 C467 1.503 . S
C460 C459 1.410 . S
C460 C461 1.392 . S
C460 C463 1.511 . S
C461 C457 1.376 . S
C461 C460 1.392 . S
C461 H473 0.929 . S
C462 C458 1.531 . S
C462 H474 0.960 . S
C462 H475 0.962 . S
C462 H476 0.960 . S
C463 C460 1.511 . S
C463 H477 0.961 . S
C463 H478 0.961 . S
C463 H479 0.961 . S
C464 C465 1.370 1_556 S
C464 C466 1.363 . S
C464 H480 0.931 1_556 S
C465 C464 1.370 1_554 S
C465 C469 1.408 1_554 S
C466 C464 1.363 . S
C466 C467 1.370 . S
C466 C470 1.524 . S
C467 C459 1.503 . S
C467 C466 1.370 . S
C467 C468 1.403 . S
C468 C467 1.403 . S
C468 C469 1.404 . S
C468 C471 1.539 . S
C469 C465 1.408 1_556 S
C469 C468 1.404 . S
C469 H481 0.930 . S
C470 C466 1.524 . S
C470 H482 0.956 . S
C470 H483 0.961 . S
C470 H484 0.961 . S
C471 C468 1.539 . S
C471 H485 0.958 . S
C471 H486 0.961 . S
C471 H487 0.960 . S
H472 C456 0.931 . S
H473 C461 0.929 . S
H474 C462 0.960 . S
H475 C462 0.962 . S
H476 C462 0.960 . S
H477 C463 0.961 . S
H478 C463 0.961 . S
H479 C463 0.961 . S
H480 C464 0.931 1_554 S
H481 C469 0.930 . S
H482 C470 0.956 . S
H483 C470 0.961 . S
H484 C470 0.961 . S
H485 C471 0.958 . S
H486 C471 0.961 . S
H487 C471 0.960 . S
C488 C489 1.391 . S
C488 C490 1.394 . S
C488 H504 0.931 . S
C489 C488 1.391 . S
C489 C493 1.376 . S
C490 C488 1.394 . S
C490 C491 1.369 . S
C490 C494 1.531 . S
C491 C490 1.369 . S
C491 C492 1.410 . S
C491 C499 1.503 . S
C492 C491 1.410 . S
C492 C493 1.392 . S
C492 C495 1.511 . S
C493 C489 1.376 . S
C493 C492 1.392 . S
C493 H505 0.929 . S
C494 C490 1.531 . S
C494 H506 0.960 . S
C494 H507 0.962 . S
C494 H508 0.960 . S
C495 C492 1.511 . S
C495 H509 0.961 . S
C495 H510 0.961 . S
C495 H511 0.961 . S
C496 C497 1.370 . S
C496 C498 1.363 . S
C496 H512 0.931 . S
C497 C496 1.370 . S
C497 C501 1.408 . S
C498 C496 1.363 . S
C498 C499 1.370 . S
C498 C502 1.524 . S
C499 C491 1.503 . S
C499 C498 1.370 . S
C499 C500 1.403 . S
C500 C499 1.403 . S
C500 C501 1.404 . S
C500 C503 1.539 . S
C501 C497 1.408 . S
C501 C500 1.404 . S
C501 H513 0.930 . S
C502 C498 1.524 . S
C502 H514 0.956 . S
C502 H515 0.961 . S
C502 H516 0.961 . S
C503 C500 1.539 . S
C503 H517 0.958 . S
C503 H518 0.961 . S
C503 H519 0.960 . S
H504 C488 0.931 . S
H505 C493 0.929 . S
H506 C494 0.960 . S
H507 C494 0.962 . S
H508 C494 0.960 . S
H509 C495 0.961 . S
H510 C495 0.961 . S
H511 C495 0.961 . S
H512 C496 0.931 . S
H513 C501 0.930 . S
H514 C502 0.956 . S
H515 C502 0.961 . S
H516 C502 0.961 . S
H517 C503 0.958 . S
H518 C503 0.961 . S
H519 C503 0.960 . S
C520 C521 1.391 . S
C520 C522 1.394 . S
C520 H536 0.931 . S
C521 C520 1.391 . S
C521 C525 1.376 . S
C522 C520 1.394 . S
C522 C523 1.369 . S
C522 C526 1.531 . S
C523 C522 1.369 . S
C523 C524 1.410 . S
C523 C531 1.503 . S
C524 C523 1.410 . S
C524 C525 1.392 . S
C524 C527 1.511 . S
C525 C521 1.376 . S
C525 C524 1.392 . S
C525 H537 0.929 . S
C526 C522 1.531 . S
C526 H538 0.960 . S
C526 H539 0.962 . S
C526 H540 0.960 . S
C527 C524 1.511 . S
C527 H541 0.961 . S
C527 H542 0.961 . S
C527 H543 0.961 . S
C528 C529 1.370 . S
C528 C530 1.363 . S
C528 H544 0.931 . S
C529 C528 1.370 . S
C529 C533 1.408 . S
C530 C528 1.363 . S
C530 C531 1.370 . S
C530 C534 1.524 . S
C531 C523 1.503 . S
C531 C530 1.370 . S
C531 C532 1.403 . S
C532 C531 1.403 . S
C532 C533 1.404 . S
C532 C535 1.539 . S
C533 C529 1.408 . S
C533 C532 1.404 . S
C533 H545 0.930 . S
C534 C530 1.524 . S
C534 H546 0.956 . S
C534 H547 0.961 . S
C534 H548 0.961 . S
C535 C532 1.539 . S
C535 H549 0.958 . S
C535 H550 0.961 . S
C535 H551 0.960 . S
H536 C520 0.931 . S
H537 C525 0.929 . S
H538 C526 0.960 . S
H539 C526 0.962 . S
H540 C526 0.960 . S
H541 C527 0.961 . S
H542 C527 0.961 . S
H543 C527 0.961 . S
H544 C528 0.931 . S
H545 C533 0.930 . S
H546 C534 0.956 . S
H547 C534 0.961 . S
H548 C534 0.961 . S
H549 C535 0.958 . S
H550 C535 0.961 . S
H551 C535 0.960 . S
C552 C553 1.391 . S
C552 C554 1.394 . S
C552 H568 0.931 . S
C553 C552 1.391 . S
C553 C557 1.376 . S
C554 C552 1.394 . S
C554 C555 1.369 . S
C554 C558 1.531 . S
C555 C554 1.369 . S
C555 C556 1.410 . S
C555 C563 1.503 . S
C556 C555 1.410 . S
C556 C557 1.392 . S
C556 C559 1.511 . S
C557 C553 1.376 . S
C557 C556 1.392 . S
C557 H569 0.929 . S
C558 C554 1.531 . S
C558 H570 0.960 . S
C558 H571 0.962 . S
C558 H572 0.960 . S
C559 C556 1.511 . S
C559 H573 0.961 . S
C559 H574 0.961 . S
C559 H575 0.961 . S
C560 C561 1.370 . S
C560 C562 1.363 . S
C560 H576 0.931 . S
C561 C560 1.370 . S
C561 C565 1.408 . S
C562 C560 1.363 . S
C562 C563 1.370 . S
C562 C566 1.524 . S
C563 C555 1.503 . S
C563 C562 1.370 . S
C563 C564 1.403 . S
C564 C563 1.403 . S
C564 C565 1.404 . S
C564 C567 1.539 . S
C565 C561 1.408 . S
C565 C564 1.404 . S
C565 H577 0.930 . S
C566 C562 1.524 . S
C566 H578 0.956 . S
C566 H579 0.961 . S
C566 H580 0.961 . S
C567 C564 1.539 . S
C567 H581 0.958 . S
C567 H582 0.961 . S
C567 H583 0.960 . S
H568 C552 0.931 . S
H569 C557 0.929 . S
H570 C558 0.960 . S
H571 C558 0.962 . S
H572 C558 0.960 . S
H573 C559 0.961 . S
H574 C559 0.961 . S
H575 C559 0.961 . S
H576 C560 0.931 . S
H577 C565 0.930 . S
H578 C566 0.956 . S
H579 C566 0.961 . S
H580 C566 0.961 . S
H581 C567 0.958 . S
H582 C567 0.961 . S
H583 C567 0.960 . S
C584 C585 1.391 . S
C584 C586 1.394 . S
C584 H600 0.931 . S
C585 C584 1.391 . S
C585 C589 1.376 . S
C586 C584 1.394 . S
C586 C587 1.369 . S
C586 C590 1.531 . S
C587 C586 1.369 . S
C587 C588 1.410 . S
C587 C595 1.503 . S
C588 C587 1.410 . S
C588 C589 1.392 . S
C588 C591 1.511 . S
C589 C585 1.376 . S
C589 C588 1.392 . S
C589 H601 0.929 . S
C590 C586 1.531 . S
C590 H602 0.960 . S
C590 H603 0.962 . S
C590 H604 0.960 . S
C591 C588 1.511 . S
C591 H605 0.961 . S
C591 H606 0.961 . S
C591 H607 0.961 . S
C592 C593 1.370 . S
C592 C594 1.363 . S
C592 H608 0.931 . S
C593 C592 1.370 . S
C593 C597 1.408 . S
C594 C592 1.363 . S
C594 C595 1.370 . S
C594 C598 1.524 . S
C595 C587 1.503 . S
C595 C594 1.370 . S
C595 C596 1.403 . S
C596 C595 1.403 . S
C596 C597 1.404 . S
C596 C599 1.539 . S
C597 C593 1.408 . S
C597 C596 1.404 . S
C597 H609 0.930 . S
C598 C594 1.524 . S
C598 H610 0.956 . S
C598 H611 0.961 . S
C598 H612 0.961 . S
C599 C596 1.539 . S
C599 H613 0.958 . S
C599 H614 0.961 1_554 S
C599 H615 0.960 . S
H600 C584 0.931 . S
H601 C589 0.929 . S
H602 C590 0.960 . S
H603 C590 0.962 . S
H604 C590 0.960 . S
H605 C591 0.961 . S
H606 C591 0.961 . S
H607 C591 0.961 . S
H608 C592 0.931 . S
H609 C597 0.930 . S
H610 C598 0.956 . S
H611 C598 0.961 . S
H612 C598 0.961 . S
H613 C599 0.958 . S
H614 C599 0.961 1_556 S
H615 C599 0.960 . S
C616 C617 1.391 . S
C616 C618 1.394 . S
C616 H632 0.931 . S
C617 C616 1.391 . S
C617 C621 1.376 . S
C618 C616 1.394 . S
C618 C619 1.369 . S
C618 C622 1.531 . S
C619 C618 1.369 . S
C619 C620 1.410 . S
C619 C627 1.503 . S
C620 C619 1.410 . S
C620 C621 1.392 . S
C620 C623 1.511 . S
C621 C617 1.376 . S
C621 C620 1.392 . S
C621 H633 0.929 . S
C622 C618 1.531 . S
C622 H634 0.960 . S
C622 H635 0.962 . S
C622 H636 0.960 . S
C623 C620 1.511 . S
C623 H637 0.961 . S
C623 H638 0.961 . S
C623 H639 0.961 . S
C624 C625 1.370 . S
C624 C626 1.363 . S
C624 H640 0.931 . S
C625 C624 1.370 . S
C625 C629 1.408 . S
C626 C624 1.363 . S
C626 C627 1.370 . S
C626 C630 1.524 . S
C627 C619 1.503 . S
C627 C626 1.370 . S
C627 C628 1.403 . S
C628 C627 1.403 . S
C628 C629 1.404 . S
C628 C631 1.539 . S
C629 C625 1.408 . S
C629 C628 1.404 . S
C629 H641 0.930 . S
C630 C626 1.524 . S
C630 H642 0.956 . S
C630 H643 0.961 . S
C630 H644 0.961 . S
C631 C628 1.539 . S
C631 H645 0.958 . S
C631 H646 0.961 . S
C631 H647 0.960 . S
H632 C616 0.931 . S
H633 C621 0.929 . S
H634 C622 0.960 . S
H635 C622 0.962 . S
H636 C622 0.960 . S
H637 C623 0.961 . S
H638 C623 0.961 . S
H639 C623 0.961 . S
H640 C624 0.931 . S
H641 C629 0.930 . S
H642 C630 0.956 . S
H643 C630 0.961 . S
H644 C630 0.961 . S
H645 C631 0.958 . S
H646 C631 0.961 . S
H647 C631 0.960 . S
C648 C649 1.391 . S
C648 C650 1.394 . S
C648 H664 0.931 . S
C649 C648 1.391 . S
C649 C653 1.376 . S
C650 C648 1.394 . S
C650 C651 1.369 . S
C650 C654 1.531 . S
C651 C650 1.369 . S
C651 C652 1.410 . S
C651 C659 1.503 . S
C652 C651 1.410 . S
C652 C653 1.392 . S
C652 C655 1.511 . S
C653 C649 1.376 . S
C653 C652 1.392 . S
C653 H665 0.929 . S
C654 C650 1.531 . S
C654 H666 0.960 . S
C654 H667 0.962 . S
C654 H668 0.960 . S
C655 C652 1.511 . S
C655 H669 0.961 . S
C655 H670 0.961 . S
C655 H671 0.961 . S
C656 C657 1.370 . S
C656 C658 1.363 . S
C656 H672 0.931 . S
C657 C656 1.370 . S
C657 C661 1.408 . S
C658 C656 1.363 . S
C658 C659 1.370 . S
C658 C662 1.524 . S
C659 C651 1.503 . S
C659 C658 1.370 . S
C659 C660 1.403 . S
C660 C659 1.403 . S
C660 C661 1.404 . S
C660 C663 1.539 . S
C661 C657 1.408 . S
C661 C660 1.404 . S
C661 H673 0.930 . S
C662 C658 1.524 . S
C662 H674 0.956 . S
C662 H675 0.961 . S
C662 H676 0.961 . S
C663 C660 1.539 . S
C663 H677 0.958 . S
C663 H678 0.961 1_554 S
C663 H679 0.960 . S
H664 C648 0.931 . S
H665 C653 0.929 . S
H666 C654 0.960 . S
H667 C654 0.962 . S
H668 C654 0.960 . S
H669 C655 0.961 . S
H670 C655 0.961 . S
H671 C655 0.961 . S
H672 C656 0.931 . S
H673 C661 0.930 . S
H674 C662 0.956 . S
H675 C662 0.961 . S
H676 C662 0.961 . S
H677 C663 0.958 . S
H678 C663 0.961 1_556 S
H679 C663 0.960 . S
C680 C681 1.391 . S
C680 C682 1.394 . S
C680 H696 0.931 . S
C681 C680 1.391 . S
C681 C685 1.376 . S
C682 C680 1.394 . S
C682 C683 1.369 . S
C682 C686 1.531 . S
C683 C682 1.369 . S
C683 C684 1.410 . S
C683 C691 1.503 . S
C684 C683 1.410 . S
C684 C685 1.392 . S
C684 C687 1.511 . S
C685 C681 1.376 . S
C685 C684 1.392 . S
C685 H697 0.929 . S
C686 C682 1.531 . S
C686 H698 0.960 . S
C686 H699 0.962 . S
C686 H700 0.960 . S
C687 C684 1.511 . S
C687 H701 0.961 . S
C687 H702 0.961 . S
C687 H703 0.961 . S
C688 C689 1.370 . S
C688 C690 1.363 . S
C688 H704 0.931 . S
C689 C688 1.370 . S
C689 C693 1.408 . S
C690 C688 1.363 . S
C690 C691 1.370 . S
C690 C694 1.524 . S
C691 C683 1.503 . S
C691 C690 1.370 . S
C691 C692 1.403 . S
C692 C691 1.403 . S
C692 C693 1.404 . S
C692 C695 1.539 . S
C693 C689 1.408 . S
C693 C692 1.404 . S
C693 H705 0.930 . S
C694 C690 1.524 . S
C694 H706 0.956 . S
C694 H707 0.961 . S
C694 H708 0.961 . S
C695 C692 1.539 . S
C695 H709 0.958 . S
C695 H710 0.961 . S
C695 H711 0.960 . S
H696 C680 0.931 . S
H697 C685 0.929 . S
H698 C686 0.960 . S
H699 C686 0.962 . S
H700 C686 0.960 . S
H701 C687 0.961 . S
H702 C687 0.961 . S
H703 C687 0.961 . S
H704 C688 0.931 . S
H705 C693 0.930 . S
H706 C694 0.956 . S
H707 C694 0.961 . S
H708 C694 0.961 . S
H709 C695 0.958 . S
H710 C695 0.961 . S
H711 C695 0.960 . S
C712 C713 1.391 1_565 S
C712 C714 1.394 . S
C712 H728 0.931 . S
C713 C712 1.391 1_545 S
C713 C717 1.376 . S
C714 C712 1.394 . S
C714 C715 1.369 . S
C714 C718 1.531 . S
C715 C714 1.369 . S
C715 C716 1.410 1_565 S
C715 C723 1.503 . S
C716 C715 1.410 1_545 S
C716 C717 1.392 . S
C716 C719 1.511 . S
C717 C713 1.376 . S
C717 C716 1.392 . S
C717 H729 0.929 . S
C718 C714 1.531 . S
C718 H730 0.960 . S
C718 H731 0.962 . S
C718 H732 0.960 . S
C719 C716 1.511 . S
C719 H733 0.961 . S
C719 H734 0.961 . S
C719 H735 0.961 . S
C720 C721 1.370 . S
C720 C722 1.363 . S
C720 H736 0.931 . S
C721 C720 1.370 . S
C721 C725 1.408 . S
C722 C720 1.363 . S
C722 C723 1.370 . S
C722 C726 1.524 . S
C723 C715 1.503 . S
C723 C722 1.370 . S
C723 C724 1.403 . S
C724 C723 1.403 . S
C724 C725 1.404 . S
C724 C727 1.539 . S
C725 C721 1.408 . S
C725 C724 1.404 . S
C725 H737 0.930 . S
C726 C722 1.524 . S
C726 H738 0.956 . S
C726 H739 0.961 . S
C726 H740 0.961 . S
C727 C724 1.539 . S
C727 H741 0.958 . S
C727 H742 0.961 . S
C727 H743 0.960 1_565 S
H728 C712 0.931 . S
H729 C717 0.929 . S
H730 C718 0.960 . S
H731 C718 0.962 . S
H732 C718 0.960 . S
H733 C719 0.961 . S
H734 C719 0.961 . S
H735 C719 0.961 . S
H736 C720 0.931 . S
H737 C725 0.930 . S
H738 C726 0.956 . S
H739 C726 0.961 . S
H740 C726 0.961 . S
H741 C727 0.958 . S
H742 C727 0.961 . S
H743 C727 0.960 1_545 S
C744 C745 1.391 . S
C744 C746 1.391 1_554 S
C744 H760 0.931 . S
C745 C744 1.391 . S
C745 C749 1.376 . S
C746 C744 1.391 1_556 S
C746 C747 1.368 . S
C746 C750 1.533 . S
C747 C746 1.368 . S
C747 C748 1.410 1_556 S
C747 C755 1.503 . S
C748 C747 1.410 1_554 S
C748 C749 1.392 . S
C748 C751 1.511 . S
C749 C745 1.376 . S
C749 C748 1.392 . S
C749 H761 0.929 . S
C750 C746 1.533 . S
C750 H762 0.960 . S
C750 H763 0.962 . S
C750 H764 0.960 . S
C751 C748 1.511 . S
C751 H765 0.961 . S
C751 H766 0.960 1_554 S
C751 H767 0.961 1_554 S
C752 C753 1.370 . S
C752 C754 1.363 . S
C752 H768 0.931 . S
C753 C752 1.370 . S
C753 C757 1.408 . S
C754 C752 1.363 . S
C754 C755 1.370 . S
C754 C758 1.524 1_556 S
C755 C747 1.503 . S
C755 C754 1.370 . S
C755 C756 1.403 . S
C756 C755 1.403 . S
C756 C757 1.404 . S
C756 C759 1.539 . S
C757 C753 1.408 . S
C757 C756 1.404 . S
C757 H769 0.930 . S
C758 C754 1.524 1_554 S
C758 H770 0.956 . S
C758 H771 0.961 . S
C758 H772 0.961 . S
C759 C756 1.539 . S
C759 H773 0.958 . S
C759 H774 0.961 . S
C759 H775 0.960 . S
H760 C744 0.931 . S
H761 C749 0.929 . S
H762 C750 0.960 . S
H763 C750 0.962 . S
H764 C750 0.960 . S
H765 C751 0.961 . S
H766 C751 0.960 1_556 S
H767 C751 0.961 1_556 S
H768 C752 0.931 . S
H769 C757 0.930 . S
H770 C758 0.956 . S
H771 C758 0.961 . S
H772 C758 0.961 . S
H773 C759 0.958 . S
H774 C759 0.961 . S
H775 C759 0.960 . S
C776 C777 1.391 . S
C776 C778 1.394 . S
C776 H792 0.931 . S
C777 C776 1.391 . S
C777 C781 1.376 . S
C778 C776 1.394 . S
C778 C779 1.369 . S
C778 C782 1.531 . S
C779 C778 1.369 . S
C779 C780 1.410 . S
C779 C787 1.503 . S
C780 C779 1.410 . S
C780 C781 1.392 . S
C780 C783 1.511 1_655 S
C781 C777 1.376 . S
C781 C780 1.392 . S
C781 H793 0.929 . S
C782 C778 1.531 . S
C782 H794 0.961 . S
C782 H795 0.962 . S
C782 H796 0.960 . S
C783 C780 1.511 1_455 S
C783 H797 0.961 . S
C783 H798 0.961 . S
C783 H799 0.961 . S
C784 C785 1.370 1_656 S
C784 C786 1.363 . S
C784 H800 0.931 . S
C785 C784 1.370 1_454 S
C785 C789 1.408 . S
C786 C784 1.363 . S
C786 C787 1.370 . S
C786 C790 1.524 . S
C787 C779 1.503 . S
C787 C786 1.370 . S
C787 C788 1.403 1_655 S
C788 C787 1.403 1_455 S
C788 C789 1.404 1_556 S
C788 C791 1.539 1_556 S
C789 C785 1.408 . S
C789 C788 1.404 1_554 S
C789 H801 0.930 . S
C790 C786 1.524 . S
C790 H802 0.956 . S
C790 H803 0.961 . S
C790 H804 0.961 . S
C791 C788 1.539 1_554 S
C791 H805 0.958 . S
C791 H806 0.961 . S
C791 H807 0.960 1_554 S
H792 C776 0.931 . S
H793 C781 0.929 . S
H794 C782 0.961 . S
H795 C782 0.962 . S
H796 C782 0.960 . S
H797 C783 0.961 . S
H798 C783 0.961 . S
H799 C783 0.961 . S
H800 C784 0.931 . S
H801 C789 0.930 . S
H802 C790 0.956 . S
H803 C790 0.961 . S
H804 C790 0.961 . S
H805 C791 0.958 . S
H806 C791 0.961 . S
H807 C791 0.960 1_556 S
C808 C809 1.391 . S
C808 C810 1.394 . S
C808 H824 0.931 . S
C809 C808 1.391 . S
C809 C813 1.376 . S
C810 C808 1.394 . S
C810 C811 1.369 . S
C810 C814 1.531 . S
C811 C810 1.369 . S
C811 C812 1.410 . S
C811 C819 1.503 . S
C812 C811 1.410 . S
C812 C813 1.392 . S
C812 C815 1.511 . S
C813 C809 1.376 . S
C813 C812 1.392 . S
C813 H825 0.929 . S
C814 C810 1.531 . S
C814 H826 0.960 . S
C814 H827 0.962 . S
C814 H828 0.960 . S
C815 C812 1.511 . S
C815 H829 0.961 . S
C815 H830 0.961 . S
C815 H831 0.961 . S
C816 C817 1.370 . S
C816 C818 1.363 . S
C816 H832 0.931 . S
C817 C816 1.370 . S
C817 C821 1.408 . S
C818 C816 1.363 . S
C818 C819 1.370 1_554 S
C818 C822 1.524 . S
C819 C811 1.503 . S
C819 C818 1.370 1_556 S
C819 C820 1.403 . S
C820 C819 1.403 . S
C820 C821 1.404 1_556 S
C820 C823 1.539 . S
C821 C817 1.408 . S
C821 C820 1.404 1_554 S
C821 H833 0.930 . S
C822 C818 1.524 . S
C822 H834 0.956 . S
C822 H835 0.961 . S
C822 H836 0.961 . S
C823 C820 1.539 . S
C823 H837 0.958 . S
C823 H838 0.961 . S
C823 H839 0.960 . S
H824 C808 0.931 . S
H825 C813 0.929 . S
H826 C814 0.960 . S
H827 C814 0.962 . S
H828 C814 0.960 . S
H829 C815 0.961 . S
H830 C815 0.961 . S
H831 C815 0.961 . S
H832 C816 0.931 . S
H833 C821 0.930 . S
H834 C822 0.956 . S
H835 C822 0.961 . S
H836 C822 0.961 . S
H837 C823 0.958 . S
H838 C823 0.961 . S
H839 C823 0.960 . S
C840 C841 1.391 . S
C840 C842 1.394 . S
C840 H856 0.931 . S
C841 C840 1.391 . S
C841 C845 1.376 . S
C842 C840 1.394 . S
C842 C843 1.369 . S
C842 C846 1.531 . S
C843 C842 1.369 . S
C843 C844 1.410 . S
C843 C851 1.503 . S
C844 C843 1.410 . S
C844 C845 1.392 . S
C844 C847 1.511 . S
C845 C841 1.376 . S
C845 C844 1.392 . S
C845 H857 0.929 . S
C846 C842 1.531 . S
C846 H858 0.960 . S
C846 H859 0.962 . S
C846 H860 0.960 . S
C847 C844 1.511 . S
C847 H861 0.961 . S
C847 H862 0.961 . S
C847 H863 0.961 . S
C848 C849 1.370 . S
C848 C850 1.363 . S
C848 H864 0.931 1_655 S
C849 C848 1.370 . S
C849 C853 1.408 . S
C850 C848 1.363 . S
C850 C851 1.370 . S
C850 C854 1.524 . S
C851 C843 1.503 . S
C851 C850 1.370 . S
C851 C852 1.403 . S
C852 C851 1.403 . S
C852 C853 1.404 . S
C852 C855 1.539 . S
C853 C849 1.408 . S
C853 C852 1.404 . S
C853 H865 0.930 1_556 S
C854 C850 1.524 . S
C854 H866 0.956 . S
C854 H867 0.961 . S
C854 H868 0.961 1_655 S
C855 C852 1.539 . S
C855 H869 0.958 . S
C855 H870 0.961 . S
C855 H871 0.960 . S
H856 C840 0.931 . S
H857 C845 0.929 . S
H858 C846 0.960 . S
H859 C846 0.962 . S
H860 C846 0.960 . S
H861 C847 0.961 . S
H862 C847 0.961 . S
H863 C847 0.961 . S
H864 C848 0.931 1_455 S
H865 C853 0.930 1_554 S
H866 C854 0.956 . S
H867 C854 0.961 . S
H868 C854 0.961 1_455 S
H869 C855 0.958 . S
H870 C855 0.961 . S
H871 C855 0.960 . S
C872 C873 1.391 . S
C872 C874 1.394 1_554 S
C872 H888 0.931 . S
C873 C872 1.391 . S
C873 C877 1.376 . S
C874 C872 1.394 1_556 S
C874 C875 1.369 . S
C874 C878 1.531 . S
C875 C874 1.369 . S
C875 C876 1.410 . S
C875 C883 1.503 . S
C876 C875 1.410 . S
C876 C877 1.392 1_556 S
C876 C879 1.511 . S
C877 C873 1.376 . S
C877 C876 1.392 1_554 S
C877 H889 0.929 . S
C878 C874 1.531 . S
C878 H890 0.960 . S
C878 H891 0.962 . S
C878 H892 0.960 . S
C879 C876 1.511 . S
C879 H893 0.961 . S
C879 H894 0.961 . S
C879 H895 0.961 1_556 S
C880 C881 1.370 . S
C880 C882 1.363 . S
C880 H896 0.931 . S
C881 C880 1.370 . S
C881 C885 1.408 . S
C882 C880 1.363 . S
C882 C883 1.370 . S
C882 C886 1.524 . S
C883 C875 1.503 . S
C883 C882 1.370 . S
C883 C884 1.403 . S
C884 C883 1.403 . S
C884 C885 1.404 . S
C884 C887 1.539 1_556 S
C885 C881 1.408 . S
C885 C884 1.404 . S
C885 H897 0.930 . S
C886 C882 1.524 . S
C886 H898 0.956 . S
C886 H899 0.961 . S
C886 H900 0.961 . S
C887 C884 1.539 1_554 S
C887 H901 0.958 . S
C887 H902 0.961 . S
C887 H903 0.960 . S
H888 C872 0.931 . S
H889 C877 0.929 . S
H890 C878 0.960 . S
H891 C878 0.962 . S
H892 C878 0.960 . S
H893 C879 0.961 . S
H894 C879 0.961 . S
H895 C879 0.961 1_554 S
H896 C880 0.931 . S
H897 C885 0.930 . S
H898 C886 0.956 . S
H899 C886 0.961 . S
H900 C886 0.961 . S
H901 C887 0.958 . S
H902 C887 0.961 . S
H903 C887 0.960 . S
C904 C905 1.391 . S
C904 C906 1.394 . S
C904 H920 0.931 . S
C905 C904 1.391 . S
C905 C909 1.376 . S
C906 C904 1.394 . S
C906 C907 1.369 . S
C906 C910 1.531 . S
C907 C906 1.369 . S
C907 C908 1.410 . S
C907 C915 1.503 1_556 S
C908 C907 1.410 . S
C908 C909 1.392 . S
C908 C911 1.511 1_556 S
C909 C905 1.376 . S
C909 C908 1.392 . S
C909 H921 0.929 . S
C910 C906 1.531 . S
C910 H922 0.960 . S
C910 H923 0.962 . S
C910 H924 0.960 . S
C911 C908 1.511 1_554 S
C911 H925 0.961 . S
C911 H926 0.961 . S
C911 H927 0.961 . S
C912 C913 1.370 . S
C912 C914 1.363 . S
C912 H928 0.931 . S
C913 C912 1.370 . S
C913 C917 1.408 . S
C914 C912 1.363 . S
C914 C915 1.370 . S
C914 C918 1.524 1_554 S
C915 C907 1.503 1_554 S
C915 C914 1.370 . S
C915 C916 1.403 . S
C916 C915 1.403 . S
C916 C917 1.404 . S
C916 C919 1.539 . S
C917 C913 1.408 . S
C917 C916 1.404 . S
C917 H929 0.930 . S
C918 C914 1.524 1_556 S
C918 H930 0.956 . S
C918 H931 0.961 . S
C918 H932 0.961 . S
C919 C916 1.539 . S
C919 H933 0.958 . S
C919 H934 0.961 . S
C919 H935 0.960 . S
H920 C904 0.931 . S
H921 C909 0.929 . S
H922 C910 0.960 . S
H923 C910 0.962 . S
H924 C910 0.960 . S
H925 C911 0.961 . S
H926 C911 0.961 . S
H927 C911 0.961 . S
H928 C912 0.931 . S
H929 C917 0.930 . S
H930 C918 0.956 . S
H931 C918 0.961 . S
H932 C918 0.961 . S
H933 C919 0.958 . S
H934 C919 0.961 . S
H935 C919 0.960 . S
C936 C937 1.391 . S
C936 C938 1.394 . S
C936 H952 0.931 . S
C937 C936 1.391 . S
C937 C941 1.376 . S
C938 C936 1.394 . S
C938 C939 1.369 . S
C938 C942 1.531 . S
C939 C938 1.369 . S
C939 C940 1.410 . S
C939 C947 1.503 . S
C940 C939 1.410 . S
C940 C941 1.392 . S
C940 C943 1.511 . S
C941 C937 1.376 . S
C941 C940 1.392 . S
C941 H953 0.929 . S
C942 C938 1.531 . S
C942 H954 0.960 . S
C942 H955 0.962 . S
C942 H956 0.960 . S
C943 C940 1.511 . S
C943 H957 0.961 . S
C943 H958 0.961 . S
C943 H959 0.961 . S
C944 C945 1.370 1_545 S
C944 C946 1.363 . S
C944 H960 0.931 . S
C945 C944 1.370 1_565 S
C945 C949 1.408 . S
C946 C944 1.363 . S
C946 C947 1.370 . S
C946 C950 1.524 . S
C947 C939 1.503 . S
C947 C946 1.370 . S
C947 C948 1.403 1_545 S
C948 C947 1.403 1_565 S
C948 C949 1.404 . S
C948 C951 1.539 . S
C949 C945 1.408 . S
C949 C948 1.404 . S
C949 H961 0.930 . S
C950 C946 1.524 . S
C950 H962 0.956 . S
C950 H963 0.961 . S
C950 H964 0.961 . S
C951 C948 1.539 . S
C951 H965 0.958 . S
C951 H966 0.961 . S
C951 H967 0.960 . S
H952 C936 0.931 . S
H953 C941 0.929 . S
H954 C942 0.960 . S
H955 C942 0.962 . S
H956 C942 0.960 . S
H957 C943 0.961 . S
H958 C943 0.961 . S
H959 C943 0.961 . S
H960 C944 0.931 . S
H961 C949 0.930 . S
H962 C950 0.956 . S
H963 C950 0.961 . S
H964 C950 0.961 . S
H965 C951 0.958 . S
H966 C951 0.961 . S
H967 C951 0.960 . S
C968 C969 1.391 . S
C968 C970 1.394 . S
C968 H984 0.931 . S
C969 C968 1.391 . S
C969 C973 1.376 . S
C970 C968 1.394 . S
C970 C971 1.369 . S
C970 C974 1.531 . S
C971 C970 1.369 . S
C971 C972 1.410 . S
C971 C979 1.503 . S
C972 C971 1.410 . S
C972 C973 1.392 . S
C972 C975 1.511 . S
C973 C969 1.376 . S
C973 C972 1.392 . S
C973 H985 0.929 . S
C974 C970 1.531 . S
C974 H986 0.960 . S
C974 H987 0.962 . S
C974 H988 0.960 . S
C975 C972 1.511 . S
C975 H989 0.961 . S
C975 H990 0.961 . S
C975 H991 0.961 . S
C976 C977 1.370 . S
C976 C978 1.363 . S
C976 H992 0.931 . S
C977 C976 1.370 . S
C977 C981 1.408 . S
C978 C976 1.363 . S
C978 C979 1.370 . S
C978 C982 1.524 . S
C979 C971 1.503 . S
C979 C978 1.370 . S
C979 C980 1.403 . S
C980 C979 1.403 . S
C980 C981 1.404 . S
C980 C983 1.539 . S
C981 C977 1.408 . S
C981 C980 1.404 . S
C981 H993 0.930 . S
C982 C978 1.524 . S
C982 H994 0.956 . S
C982 H995 0.961 . S
C982 H996 0.961 1_554 S
C983 C980 1.539 . S
C983 H997 0.958 . S
C983 H998 0.961 . S
C983 H999 0.960 . S
H984 C968 0.931 . S
H985 C973 0.929 . S
H986 C974 0.960 . S
H987 C974 0.962 . S
H988 C974 0.960 . S
H989 C975 0.961 . S
H990 C975 0.961 . S
H991 C975 0.961 . S
H992 C976 0.931 . S
H993 C981 0.930 . S
H994 C982 0.956 . S
H995 C982 0.961 . S
H996 C982 0.961 1_556 S
H997 C983 0.958 . S
H998 C983 0.961 . S
H999 C983 0.960 . S
C1000 C1001 1.391 . S
C1000 C1002 1.394 . S
C1000 H1016 0.931 . S
C1001 C1000 1.391 . S
C1001 C1005 1.376 . S
C1002 C1000 1.394 . S
C1002 C1003 1.369 . S
C1002 C1006 1.531 . S
C1003 C1002 1.369 . S
C1003 C1004 1.410 . S
C1003 C1011 1.503 . S
C1004 C1003 1.410 . S
C1004 C1005 1.392 . S
C1004 C1007 1.511 . S
C1005 C1001 1.376 . S
C1005 C1004 1.392 . S
C1005 H1017 0.929 . S
C1006 C1002 1.531 . S
C1006 H1018 0.960 . S
C1006 H1019 0.962 . S
C1006 H1020 0.960 . S
C1007 C1004 1.511 . S
C1007 H1021 0.961 . S
C1007 H1022 0.961 . S
C1007 H1023 0.961 . S
C1008 C1009 1.370 . S
C1008 C1010 1.363 . S
C1008 H1024 0.931 . S
C1009 C1008 1.370 . S
C1009 C1013 1.408 . S
C1010 C1008 1.363 . S
C1010 C1011 1.370 . S
C1010 C1014 1.524 . S
C1011 C1003 1.503 . S
C1011 C1010 1.370 . S
C1011 C1012 1.403 . S
C1012 C1011 1.403 . S
C1012 C1013 1.404 . S
C1012 C1015 1.539 . S
C1013 C1009 1.408 . S
C1013 C1012 1.404 . S
C1013 H1025 0.930 . S
C1014 C1010 1.524 . S
C1014 H1026 0.956 . S
C1014 H1027 0.961 . S
C1014 H1028 0.961 . S
C1015 C1012 1.539 . S
C1015 H1029 0.958 . S
C1015 H1030 0.961 . S
C1015 H1031 0.960 . S
H1016 C1000 0.931 . S
H1017 C1005 0.929 . S
H1018 C1006 0.960 . S
H1019 C1006 0.962 . S
H1020 C1006 0.960 . S
H1021 C1007 0.961 . S
H1022 C1007 0.961 . S
H1023 C1007 0.961 . S
H1024 C1008 0.931 . S
H1025 C1013 0.930 . S
H1026 C1014 0.956 . S
H1027 C1014 0.961 . S
H1028 C1014 0.961 . S
H1029 C1015 0.958 . S
H1030 C1015 0.961 . S
H1031 C1015 0.960 . S
C1032 C1033 1.391 . S
C1032 C1034 1.394 . S
C1032 H1048 0.931 . S
C1033 C1032 1.391 . S
C1033 C1037 1.376 . S
C1034 C1032 1.394 . S
C1034 C1035 1.369 . S
C1034 C1038 1.531 . S
C1035 C1034 1.369 . S
C1035 C1036 1.410 . S
C1035 C1043 1.503 . S
C1036 C1035 1.410 . S
C1036 C1037 1.392 . S
C1036 C1039 1.511 . S
C1037 C1033 1.376 . S
C1037 C1036 1.392 . S
C1037 H1049 0.929 . S
C1038 C1034 1.531 . S
C1038 H1050 0.960 . S
C1038 H1051 0.962 . S
C1038 H1052 0.960 . S
C1039 C1036 1.511 . S
C1039 H1053 0.961 . S
C1039 H1054 0.961 . S
C1039 H1055 0.961 . S
C1040 C1041 1.370 . S
C1040 C1042 1.363 . S
C1040 H1056 0.931 . S
C1041 C1040 1.370 . S
C1041 C1045 1.408 . S
C1042 C1040 1.363 . S
C1042 C1043 1.370 . S
C1042 C1046 1.524 . S
C1043 C1035 1.503 . S
C1043 C1042 1.370 . S
C1043 C1044 1.403 . S
C1044 C1043 1.403 . S
C1044 C1045 1.404 . S
C1044 C1047 1.539 . S
C1045 C1041 1.408 . S
C1045 C1044 1.404 . S
C1045 H1057 0.930 . S
C1046 C1042 1.524 . S
C1046 H1058 0.956 . S
C1046 H1059 0.961 . S
C1046 H1060 0.961 . S
C1047 C1044 1.539 . S
C1047 H1061 0.958 . S
C1047 H1062 0.961 . S
C1047 H1063 0.960 . S
H1048 C1032 0.931 . S
H1049 C1037 0.929 . S
H1050 C1038 0.960 . S
H1051 C1038 0.962 . S
H1052 C1038 0.960 . S
H1053 C1039 0.961 . S
H1054 C1039 0.961 . S
H1055 C1039 0.961 . S
H1056 C1040 0.931 . S
H1057 C1045 0.930 . S
H1058 C1046 0.956 . S
H1059 C1046 0.961 . S
H1060 C1046 0.961 . S
H1061 C1047 0.958 . S
H1062 C1047 0.961 . S
H1063 C1047 0.960 . S
C1064 C1065 1.391 . S
C1064 C1066 1.394 . S
C1064 H1080 0.931 . S
C1065 C1064 1.391 . S
C1065 C1069 1.376 . S
C1066 C1064 1.394 . S
C1066 C1067 1.369 . S
C1066 C1070 1.531 . S
C1067 C1066 1.369 . S
C1067 C1068 1.410 . S
C1067 C1075 1.503 1_545 S
C1068 C1067 1.410 . S
C1068 C1069 1.392 . S
C1068 C1071 1.511 1_545 S
C1069 C1065 1.376 . S
C1069 C1068 1.392 . S
C1069 H1081 0.929 . S
C1070 C1066 1.531 . S
C1070 H1082 0.960 . S
C1070 H1083 0.962 . S
C1070 H1084 0.960 . S
C1071 C1068 1.511 1_565 S
C1071 H1085 0.961 . S
C1071 H1086 0.961 . S
C1071 H1087 0.961 . S
C1072 C1073 1.370 . S
C1072 C1074 1.363 . S
C1072 H1088 0.931 . S
C1073 C1072 1.370 . S
C1073 C1077 1.408 . S
C1074 C1072 1.363 . S
C1074 C1075 1.370 . S
C1074 C1078 1.524 1_565 S
C1075 C1067 1.503 1_565 S
C1075 C1074 1.370 . S
C1075 C1076 1.403 . S
C1076 C1075 1.403 . S
C1076 C1077 1.404 . S
C1076 C1079 1.539 . S
C1077 C1073 1.408 . S
C1077 C1076 1.404 . S
C1077 H1089 0.930 . S
C1078 C1074 1.524 1_545 S
C1078 H1090 0.956 . S
C1078 H1091 0.961 . S
C1078 H1092 0.961 1_545 S
C1079 C1076 1.539 . S
C1079 H1093 0.958 . S
C1079 H1094 0.961 . S
C1079 H1095 0.960 . S
H1080 C1064 0.931 . S
H1081 C1069 0.929 . S
H1082 C1070 0.960 . S
H1083 C1070 0.962 . S
H1084 C1070 0.960 . S
H1085 C1071 0.961 . S
H1086 C1071 0.961 . S
H1087 C1071 0.961 . S
H1088 C1072 0.931 . S
H1089 C1077 0.930 . S
H1090 C1078 0.956 . S
H1091 C1078 0.961 . S
H1092 C1078 0.961 1_565 S
H1093 C1079 0.958 . S
H1094 C1079 0.961 . S
H1095 C1079 0.960 . S
C1096 C1097 1.391 . S
C1096 C1098 1.394 . S
C1096 H1112 0.931 . S
C1097 C1096 1.391 . S
C1097 C1101 1.376 . S
C1098 C1096 1.394 . S
C1098 C1099 1.369 . S
C1098 C1102 1.531 . S
C1099 C1098 1.369 . S
C1099 C1100 1.403 . S
C1099 C1107 1.503 1_655 S
C1100 C1099 1.403 . S
C1100 C1101 1.406 . S
C1100 C1103 1.504 1_655 S
C1101 C1097 1.376 . S
C1101 C1100 1.406 . S
C1101 H1113 0.929 . S
C1102 C1098 1.531 . S
C1102 H1114 0.960 . S
C1102 H1115 0.962 . S
C1102 H1116 0.960 . S
C1103 C1100 1.504 1_455 S
C1103 H1117 0.961 . S
C1103 H1118 0.961 . S
C1103 H1119 0.961 . S
C1104 C1105 1.370 . S
C1104 C1106 1.363 . S
C1104 H1120 0.931 . S
C1105 C1104 1.370 . S
C1105 C1109 1.408 . S
C1106 C1104 1.363 . S
C1106 C1107 1.370 . S
C1106 C1110 1.524 . S
C1107 C1099 1.503 1_455 S
C1107 C1106 1.370 . S
C1107 C1108 1.403 1_455 S
C1108 C1107 1.403 1_655 S
C1108 C1109 1.404 1_655 S
C1108 C1111 1.539 . S
C1109 C1105 1.408 . S
C1109 C1108 1.404 1_455 S
C1109 H1121 0.930 . S
C1110 C1106 1.524 . S
C1110 H1122 0.956 . S
C1110 H1123 0.961 . S
C1110 H1124 0.961 . S
C1111 C1108 1.539 . S
C1111 H1125 0.958 . S
C1111 H1126 0.961 . S
C1111 H1127 0.960 . S
H1112 C1096 0.931 . S
H1113 C1101 0.929 . S
H1114 C1102 0.960 . S
H1115 C1102 0.962 . S
H1116 C1102 0.960 . S
H1117 C1103 0.961 . S
H1118 C1103 0.961 . S
H1119 C1103 0.961 . S
H1120 C1104 0.931 . S
H1121 C1109 0.930 . S
H1122 C1110 0.956 . S
H1123 C1110 0.961 . S
H1124 C1110 0.961 . S
H1125 C1111 0.958 . S
H1126 C1111 0.961 . S
H1127 C1111 0.960 . S
C1128 C1129 1.391 . S
C1128 C1130 1.394 . S
C1128 H1144 0.931 . S
C1129 C1128 1.391 . S
C1129 C1133 1.376 . S
C1130 C1128 1.394 . S
C1130 C1131 1.369 . S
C1130 C1134 1.531 . S
C1131 C1130 1.369 . S
C1131 C1132 1.410 . S
C1131 C1139 1.503 . S
C1132 C1131 1.410 . S
C1132 C1133 1.392 . S
C1132 C1135 1.511 . S
C1133 C1129 1.376 . S
C1133 C1132 1.392 . S
C1133 H1145 0.929 . S
C1134 C1130 1.531 . S
C1134 H1146 0.960 . S
C1134 H1147 0.962 . S
C1134 H1148 0.960 . S
C1135 C1132 1.511 . S
C1135 H1149 0.961 . S
C1135 H1150 0.961 . S
C1135 H1151 0.961 . S
C1136 C1137 1.370 . S
C1136 C1138 1.363 . S
C1136 H1152 0.931 . S
C1137 C1136 1.370 . S
C1137 C1141 1.408 . S
C1138 C1136 1.363 . S
C1138 C1139 1.370 . S
C1138 C1142 1.524 . S
C1139 C1131 1.503 . S
C1139 C1138 1.370 . S
C1139 C1140 1.403 . S
C1140 C1139 1.403 . S
C1140 C1141 1.404 . S
C1140 C1143 1.539 . S
C1141 C1137 1.408 . S
C1141 C1140 1.404 . S
C1141 H1153 0.930 . S
C1142 C1138 1.524 . S
C1142 H1154 0.956 . S
C1142 H1155 0.961 . S
C1142 H1156 0.961 . S
C1143 C1140 1.539 . S
C1143 H1157 0.958 . S
C1143 H1158 0.961 . S
C1143 H1159 0.960 . S
H1144 C1128 0.931 . S
H1145 C1133 0.929 . S
H1146 C1134 0.960 . S
H1147 C1134 0.962 . S
H1148 C1134 0.960 . S
H1149 C1135 0.961 . S
H1150 C1135 0.961 . S
H1151 C1135 0.961 . S
H1152 C1136 0.931 . S
H1153 C1141 0.930 . S
H1154 C1142 0.956 . S
H1155 C1142 0.961 . S
H1156 C1142 0.961 . S
H1157 C1143 0.958 . S
H1158 C1143 0.961 . S
H1159 C1143 0.960 . S
C1160 C1161 1.391 . S
C1160 C1162 1.363 1_565 S
C1160 H1176 0.931 . S
C1161 C1160 1.391 . S
C1161 C1165 1.376 . S
C1162 C1160 1.363 1_545 S
C1162 C1163 1.386 . S
C1162 C1166 1.545 . S
C1163 C1162 1.386 . S
C1163 C1164 1.410 1_545 S
C1163 C1171 1.503 . S
C1164 C1163 1.410 1_565 S
C1164 C1165 1.392 . S
C1164 C1167 1.511 . S
C1165 C1161 1.376 . S
C1165 C1164 1.392 . S
C1165 H1177 0.929 . S
C1166 C1162 1.545 . S
C1166 H1178 0.960 . S
C1166 H1179 0.962 . S
C1166 H1180 0.960 . S
C1167 C1164 1.511 . S
C1167 H1181 0.961 . S
C1167 H1182 0.961 1_565 S
C1167 H1183 0.923 1_565 S
C1168 C1169 1.370 . S
C1168 C1170 1.363 . S
C1168 H1184 0.931 . S
C1169 C1168 1.370 . S
C1169 C1173 1.408 . S
C1170 C1168 1.363 . S
C1170 C1171 1.370 . S
C1170 C1174 1.524 . S
C1171 C1163 1.503 . S
C1171 C1170 1.370 . S
C1171 C1172 1.403 . S
C1172 C1171 1.403 . S
C1172 C1173 1.404 . S
C1172 C1175 1.539 . S
C1173 C1169 1.408 . S
C1173 C1172 1.404 . S
C1173 H1185 0.930 . S
C1174 C1170 1.524 . S
C1174 H1186 0.956 . S
C1174 H1187 0.961 . S
C1174 H1188 0.961 . S
C1175 C1172 1.539 . S
C1175 H1189 0.958 . S
C1175 H1190 0.961 . S
C1175 H1191 0.960 . S
H1176 C1160 0.931 . S
H1177 C1165 0.929 . S
H1178 C1166 0.960 . S
H1179 C1166 0.962 . S
H1180 C1166 0.960 . S
H1181 C1167 0.961 . S
H1182 C1167 0.961 1_545 S
H1183 C1167 0.923 1_545 S
H1184 C1168 0.931 . S
H1185 C1173 0.930 . S
H1186 C1174 0.956 . S
H1187 C1174 0.961 . S
H1188 C1174 0.961 . S
H1189 C1175 0.958 . S
H1190 C1175 0.961 . S
H1191 C1175 0.960 . S
C1192 C1193 1.391 . S
C1192 C1194 1.394 . S
C1192 H1208 0.931 . S
C1193 C1192 1.391 . S
C1193 C1197 1.376 . S
C1194 C1192 1.394 . S
C1194 C1195 1.375 . S
C1194 C1198 1.531 1_655 S
C1195 C1194 1.375 . S
C1195 C1196 1.409 . S
C1195 C1203 1.498 1_655 S
C1196 C1195 1.409 . S
C1196 C1197 1.392 . S
C1196 C1199 1.511 . S
C1197 C1193 1.376 . S
C1197 C1196 1.392 . S
C1197 H1209 0.929 . S
C1198 C1194 1.531 1_455 S
C1198 H1210 0.960 . S
C1198 H1211 0.962 1_455 S
C1198 H1212 0.960 . S
C1199 C1196 1.511 . S
C1199 H1213 0.961 . S
C1199 H1214 0.961 . S
C1199 H1215 0.961 1_655 S
C1200 C1201 1.370 . S
C1200 C1202 1.363 1_455 S
C1200 H1216 0.951 . S
C1201 C1200 1.370 . S
C1201 C1205 1.408 . S
C1202 C1200 1.363 1_655 S
C1202 C1203 1.370 1_655 S
C1202 C1206 1.524 . S
C1203 C1195 1.498 1_455 S
C1203 C1202 1.370 1_455 S
C1203 C1204 1.403 . S
C1204 C1203 1.403 . S
C1204 C1205 1.404 . S
C1204 C1207 1.539 . S
C1205 C1201 1.408 . S
C1205 C1204 1.404 . S
C1205 H1217 0.930 . S
C1206 C1202 1.524 . S
C1206 H1218 0.956 . S
C1206 H1219 0.961 . S
C1206 H1220 0.961 . S
C1207 C1204 1.539 . S
C1207 H1221 0.958 . S
C1207 H1222 0.961 . S
C1207 H1223 0.960 . S
H1208 C1192 0.931 . S
H1209 C1197 0.929 . S
H1210 C1198 0.960 . S
H1211 C1198 0.962 1_655 S
H1212 C1198 0.960 . S
H1213 C1199 0.961 . S
H1214 C1199 0.961 . S
H1215 C1199 0.961 1_455 S
H1216 C1200 0.951 . S
H1217 C1205 0.930 . S
H1218 C1206 0.956 . S
H1219 C1206 0.961 . S
H1220 C1206 0.961 . S
H1221 C1207 0.958 . S
H1222 C1207 0.961 . S
H1223 C1207 0.960 . S
C361 C9 3.344 . S
C369 C18 3.353 . S
C393 C58 3.429 . S
C401 C49 3.428 . S
C425 C89 3.457 1_556 S
C433 C98 3.472 . S
C457 C138 3.338 . S
C465 C129 3.354 . S
C489 C169 3.421 . S
C497 C178 3.432 1_556 S
C521 C218 3.459 . S
C529 C209 3.472 1_556 S
C553 C246 2.504 . S
C561 C255 2.536 . S
C585 C295 2.841 . S
C593 C286 2.788 . S
C617 C326 1.878 . S
C625 C335 1.926 . S
C649 C210 1.723 . S
C657 C6 1.775 . S
C681 C50 2.745 . S
C689 C130 2.779 . S
C713 C86 1.204 . S
C721 C166 1.244 . S
C745 C90 2.928 . S
C753 C259 3.113 . S
C777 C298 1.187 . S
C785 C10 1.137 . S
C809 C339 1.958 . S
C817 C46 1.828 . S
C841 C329 0.820 . S
C849 C15 0.821 1_556 S
C873 C59 2.200 . S
C881 C249 2.247 . S
C905 C290 2.913 . S
C913 C95 2.757 . S
C937 C99 1.736 . S
C945 C135 1.773 . S
C969 C179 2.757 . S
C977 C19 2.774 . S
C1001 C55 1.217 . S
C1009 C215 1.233 . S
C1033 C338 0.826 . S
C1041 C126 0.804 . S
C1065 C258 2.256 . S
C1073 C170 2.182 . S
C1097 C299 2.913 . S
C1105 C206 2.762 . S
C1129 C250 3.111 . S
C1137 C219 2.959 . S
C1161 C139 1.159 . S
C1169 C289 1.177 . S
C1193 C330 1.951 . S
C1201 C175 1.827 . S
