# Generated by pormake.
# Topology unl, (4)-cn, num edge types: 1
# Building blocks:
#     Node 0, Type 0, BuildingBlock: ESEHIV_clean_sbu_0, # of connection points: 4
#     Node 1, Type 0, BuildingBlock: ESEHIV_clean_sbu_0, # of connection points: 4
#     Node 2, Type 0, BuildingBlock: ESEHIV_clean_sbu_0, # of connection points: 4
#     Node 3, Type 0, BuildingBlock: ESEHIV_clean_sbu_0, # of connection points: 4
#     Node 4, Type 0, BuildingBlock: ESEHIV_clean_sbu_0, # of connection points: 4
#     Node 5, Type 0, BuildingBlock: ESEHIV_clean_sbu_0, # of connection points: 4
#     Node 6, Type 0, BuildingBlock: ESEHIV_clean_sbu_0, # of connection points: 4
#     Node 7, Type 0, BuildingBlock: ESEHIV_clean_sbu_0, # of connection points: 4
#     Node 8, Type 0, BuildingBlock: ESEHIV_clean_sbu_0, # of connection points: 4
#     Node 9, Type 0, BuildingBlock: ESEHIV_clean_sbu_0, # of connection points: 4
#     Node 10, Type 0, BuildingBlock: ESEHIV_clean_sbu_0, # of connection points: 4
#     Node 11, Type 0, BuildingBlock: ESEHIV_clean_sbu_0, # of connection points: 4
#     Node 12, Type 0, BuildingBlock: ESEHIV_clean_sbu_0, # of connection points: 4
#     Node 13, Type 0, BuildingBlock: ESEHIV_clean_sbu_0, # of connection points: 4
#     Node 14, Type 0, BuildingBlock: ESEHIV_clean_sbu_0, # of connection points: 4
#     Node 15, Type 0, BuildingBlock: ESEHIV_clean_sbu_0, # of connection points: 4
#     Node 16, Type 0, BuildingBlock: ESEHIV_clean_sbu_0, # of connection points: 4
#     Node 17, Type 0, BuildingBlock: ESEHIV_clean_sbu_0, # of connection points: 4
#     Node 18, Type 0, BuildingBlock: ESEHIV_clean_sbu_0, # of connection points: 4
#     Node 19, Type 0, BuildingBlock: ESEHIV_clean_sbu_0, # of connection points: 4
#     Node 20, Type 0, BuildingBlock: ESEHIV_clean_sbu_0, # of connection points: 4
#     Node 21, Type 0, BuildingBlock: ESEHIV_clean_sbu_0, # of connection points: 4
#     Node 22, Type 0, BuildingBlock: ESEHIV_clean_sbu_0, # of connection points: 4
#     Node 23, Type 0, BuildingBlock: ESEHIV_clean_sbu_0, # of connection points: 4
#     Node 24, Type 0, BuildingBlock: ESEHIV_clean_sbu_0, # of connection points: 4
#     Node 25, Type 0, BuildingBlock: ESEHIV_clean_sbu_0, # of connection points: 4
#     Node 26, Type 0, BuildingBlock: ESEHIV_clean_sbu_0, # of connection points: 4
#     Node 27, Type 0, BuildingBlock: ESEHIV_clean_sbu_0, # of connection points: 4
#     Node 28, Type 0, BuildingBlock: ESEHIV_clean_sbu_0, # of connection points: 4
#     Node 29, Type 0, BuildingBlock: ESEHIV_clean_sbu_0, # of connection points: 4
#     Node 30, Type 0, BuildingBlock: ESEHIV_clean_sbu_0, # of connection points: 4
#     Node 31, Type 0, BuildingBlock: ESEHIV_clean_sbu_0, # of connection points: 4
#     Node 32, Type 0, BuildingBlock: ESEHIV_clean_sbu_0, # of connection points: 4
#     Node 33, Type 0, BuildingBlock: ESEHIV_clean_sbu_0, # of connection points: 4
#     Node 34, Type 0, BuildingBlock: ESEHIV_clean_sbu_0, # of connection points: 4
#     Node 35, Type 0, BuildingBlock: ESEHIV_clean_sbu_0, # of connection points: 4
#     Edge 36, Type (0, 0), BuildingBlock: CIFDUS_clean_linker_0, # of connection points: 2
#     Edge 37, Type (0, 0), BuildingBlock: CIFDUS_clean_linker_0, # of connection points: 2
#     Edge 38, Type (0, 0), BuildingBlock: CIFDUS_clean_linker_0, # of connection points: 2
#     Edge 39, Type (0, 0), BuildingBlock: CIFDUS_clean_linker_0, # of connection points: 2
#     Edge 40, Type (0, 0), BuildingBlock: CIFDUS_clean_linker_0, # of connection points: 2
#     Edge 41, Type (0, 0), BuildingBlock: CIFDUS_clean_linker_0, # of connection points: 2
#     Edge 42, Type (0, 0), BuildingBlock: CIFDUS_clean_linker_0, # of connection points: 2
#     Edge 43, Type (0, 0), BuildingBlock: CIFDUS_clean_linker_0, # of connection points: 2
#     Edge 44, Type (0, 0), BuildingBlock: CIFDUS_clean_linker_0, # of connection points: 2
#     Edge 45, Type (0, 0), BuildingBlock: CIFDUS_clean_linker_0, # of connection points: 2
#     Edge 46, Type (0, 0), BuildingBlock: CIFDUS_clean_linker_0, # of connection points: 2
#     Edge 47, Type (0, 0), BuildingBlock: CIFDUS_clean_linker_0, # of connection points: 2
#     Edge 48, Type (0, 0), BuildingBlock: CIFDUS_clean_linker_0, # of connection points: 2
#     Edge 49, Type (0, 0), BuildingBlock: CIFDUS_clean_linker_0, # of connection points: 2
#     Edge 50, Type (0, 0), BuildingBlock: CIFDUS_clean_linker_0, # of connection points: 2
#     Edge 51, Type (0, 0), BuildingBlock: CIFDUS_clean_linker_0, # of connection points: 2
#     Edge 52, Type (0, 0), BuildingBlock: CIFDUS_clean_linker_0, # of connection points: 2
#     Edge 53, Type (0, 0), BuildingBlock: CIFDUS_clean_linker_0, # of connection points: 2
#     Edge 54, Type (0, 0), BuildingBlock: CIFDUS_clean_linker_0, # of connection points: 2
#     Edge 55, Type (0, 0), BuildingBlock: CIFDUS_clean_linker_0, # of connection points: 2
#     Edge 56, Type (0, 0), BuildingBlock: CIFDUS_clean_linker_0, # of connection points: 2
#     Edge 57, Type (0, 0), BuildingBlock: CIFDUS_clean_linker_0, # of connection points: 2
#     Edge 58, Type (0, 0), BuildingBlock: CIFDUS_clean_linker_0, # of connection points: 2
#     Edge 59, Type (0, 0), BuildingBlock: CIFDUS_clean_linker_0, # of connection points: 2
#     Edge 60, Type (0, 0), BuildingBlock: CIFDUS_clean_linker_0, # of connection points: 2
#     Edge 61, Type (0, 0), BuildingBlock: CIFDUS_clean_linker_0, # of connection points: 2
#     Edge 62, Type (0, 0), BuildingBlock: CIFDUS_clean_linker_0, # of connection points: 2
#     Edge 63, Type (0, 0), BuildingBlock: CIFDUS_clean_linker_0, # of connection points: 2
#     Edge 64, Type (0, 0), BuildingBlock: CIFDUS_clean_linker_0, # of connection points: 2
#     Edge 65, Type (0, 0), BuildingBlock: CIFDUS_clean_linker_0, # of connection points: 2
#     Edge 66, Type (0, 0), BuildingBlock: CIFDUS_clean_linker_0, # of connection points: 2
#     Edge 67, Type (0, 0), BuildingBlock: CIFDUS_clean_linker_0, # of connection points: 2
#     Edge 68, Type (0, 0), BuildingBlock: CIFDUS_clean_linker_0, # of connection points: 2
#     Edge 69, Type (0, 0), BuildingBlock: CIFDUS_clean_linker_0, # of connection points: 2
#     Edge 70, Type (0, 0), BuildingBlock: CIFDUS_clean_linker_0, # of connection points: 2
#     Edge 71, Type (0, 0), BuildingBlock: CIFDUS_clean_linker_0, # of connection points: 2
#     Edge 72, Type (0, 0), BuildingBlock: CIFDUS_clean_linker_0, # of connection points: 2
#     Edge 73, Type (0, 0), BuildingBlock: CIFDUS_clean_linker_0, # of connection points: 2
#     Edge 74, Type (0, 0), BuildingBlock: CIFDUS_clean_linker_0, # of connection points: 2
#     Edge 75, Type (0, 0), BuildingBlock: CIFDUS_clean_linker_0, # of connection points: 2
#     Edge 76, Type (0, 0), BuildingBlock: CIFDUS_clean_linker_0, # of connection points: 2
#     Edge 77, Type (0, 0), BuildingBlock: CIFDUS_clean_linker_0, # of connection points: 2
#     Edge 78, Type (0, 0), BuildingBlock: CIFDUS_clean_linker_0, # of connection points: 2
#     Edge 79, Type (0, 0), BuildingBlock: CIFDUS_clean_linker_0, # of connection points: 2
#     Edge 80, Type (0, 0), BuildingBlock: CIFDUS_clean_linker_0, # of connection points: 2
#     Edge 81, Type (0, 0), BuildingBlock: CIFDUS_clean_linker_0, # of connection points: 2
#     Edge 82, Type (0, 0), BuildingBlock: CIFDUS_clean_linker_0, # of connection points: 2
#     Edge 83, Type (0, 0), BuildingBlock: CIFDUS_clean_linker_0, # of connection points: 2
#     Edge 84, Type (0, 0), BuildingBlock: CIFDUS_clean_linker_0, # of connection points: 2
#     Edge 85, Type (0, 0), BuildingBlock: CIFDUS_clean_linker_0, # of connection points: 2
#     Edge 86, Type (0, 0), BuildingBlock: CIFDUS_clean_linker_0, # of connection points: 2
#     Edge 87, Type (0, 0), BuildingBlock: CIFDUS_clean_linker_0, # of connection points: 2
#     Edge 88, Type (0, 0), BuildingBlock: CIFDUS_clean_linker_0, # of connection points: 2
#     Edge 89, Type (0, 0), BuildingBlock: CIFDUS_clean_linker_0, # of connection points: 2
#     Edge 90, Type (0, 0), BuildingBlock: CIFDUS_clean_linker_0, # of connection points: 2
#     Edge 91, Type (0, 0), BuildingBlock: CIFDUS_clean_linker_0, # of connection points: 2
#     Edge 92, Type (0, 0), BuildingBlock: CIFDUS_clean_linker_0, # of connection points: 2
#     Edge 93, Type (0, 0), BuildingBlock: CIFDUS_clean_linker_0, # of connection points: 2
#     Edge 94, Type (0, 0), BuildingBlock: CIFDUS_clean_linker_0, # of connection points: 2
#     Edge 95, Type (0, 0), BuildingBlock: CIFDUS_clean_linker_0, # of connection points: 2
#     Edge 96, Type (0, 0), BuildingBlock: CIFDUS_clean_linker_0, # of connection points: 2
#     Edge 97, Type (0, 0), BuildingBlock: CIFDUS_clean_linker_0, # of connection points: 2
#     Edge 98, Type (0, 0), BuildingBlock: CIFDUS_clean_linker_0, # of connection points: 2
#     Edge 99, Type (0, 0), BuildingBlock: CIFDUS_clean_linker_0, # of connection points: 2
#     Edge 100, Type (0, 0), BuildingBlock: CIFDUS_clean_linker_0, # of connection points: 2
#     Edge 101, Type (0, 0), BuildingBlock: CIFDUS_clean_linker_0, # of connection points: 2
#     Edge 102, Type (0, 0), BuildingBlock: CIFDUS_clean_linker_0, # of connection points: 2
#     Edge 103, Type (0, 0), BuildingBlock: CIFDUS_clean_linker_0, # of connection points: 2
#     Edge 104, Type (0, 0), BuildingBlock: CIFDUS_clean_linker_0, # of connection points: 2
#     Edge 105, Type (0, 0), BuildingBlock: CIFDUS_clean_linker_0, # of connection points: 2
#     Edge 106, Type (0, 0), BuildingBlock: CIFDUS_clean_linker_0, # of connection points: 2
#     Edge 107, Type (0, 0), BuildingBlock: CIFDUS_clean_linker_0, # of connection points: 2
# Relax obj value: 0.040
# Max RMSD: 0.199
# Mean RMSD: 0.184
data_MOF--net-unl--node1-ESEHIV_clean_sbu_0--edge1-CIFDUS_clean_linker_0
_symmetry_space_group_name_H-M    P1
_symmetry_Int_Tables_number       1
_symmetry_cell_setting            triclinic
loop_
_symmetry_equiv_pos_as_xyz
'x, y, z'
_cell_length_a     56.314011
_cell_length_b     60.128968
_cell_length_c     44.812365
_cell_angle_alpha  88.006665
_cell_angle_beta   89.800077
_cell_angle_gamma 117.95042
loop_
_atom_site_label
_atom_site_type_symbol
_atom_site_fract_x
_atom_site_fract_y
_atom_site_fract_z
_atom_type_partial_charge
Cu0 Cu 0.20689 0.13669 0.13151 0.0
N1 N 0.18818 0.13482 0.16707 0.0
N2 N 0.17685 0.14487 0.2108 0.0
C3 C 0.19519 0.15232 0.18798 0.0
C4 C 0.15762 0.12175 0.20377 0.0
C5 C 0.16464 0.11565 0.17689 0.0
O6 O 0.24479 0.16065 0.13723 0.0
C7 C 0.1972 0.1547 0.07329 0.0
O8 O 0.22309 0.16512 0.06708 0.0
H9 H 0.2133 0.17024 0.18623 0.0
H10 H 0.15344 0.09838 0.16535 0.0
N11 N 0.20469 0.10524 0.12532 0.0
N12 N 0.20443 0.07287 0.10199 0.0
C13 C 0.20208 0.09419 0.09901 0.0
C14 C 0.20858 0.09035 0.14565 0.0
C15 C 0.20846 0.07038 0.13134 0.0
C16 C 0.26428 0.1577 0.12697 0.0
O17 O 0.25941 0.14059 0.10713 0.0
H18 H 0.1999 0.10231 0.07792 0.0
H19 H 0.21215 0.09425 0.16906 0.0
O20 O 0.18822 0.14371 0.09874 0.0
H21 H 0.13994 0.10978 0.2173 0.0
H22 H 0.21152 0.05539 0.14165 0.0
Cu23 Cu 0.87021 0.05346 0.13618 0.0
N24 N 0.84912 0.02251 0.11868 0.0
N25 N 0.82861 0.99211 0.08606 0.0
C26 C 0.84878 0.01563 0.09015 0.0
C27 C 0.81611 0.98404 0.11302 0.0
C28 C 0.82863 1.00276 0.13288 0.0
O29 O 0.90056 0.0759 0.11058 0.0
C30 C 0.87901 0.02963 0.1902 0.0
O31 O 0.87506 0.01031 0.17427 0.0
H32 H 0.86228 0.02791 0.0726 0.0
H33 H 0.82287 1.00226 0.15605 0.0
N34 N 0.84987 0.07041 0.13993 0.0
N35 N 0.83813 0.09899 0.15528 0.0
C36 C 0.85486 0.0888 0.15904 0.0
C37 C 0.82926 0.06878 0.12343 0.0
C38 C 0.82196 0.08643 0.13284 0.0
C39 C 0.91808 0.07179 0.09738 0.0
O40 O 0.91798 0.05003 0.10184 0.0
H41 H 0.87111 0.09515 0.17471 0.0
H42 H 0.82051 0.05602 0.10548 0.0
O43 O 0.87957 0.04915 0.17734 0.0
H44 H 0.79889 0.96589 0.11805 0.0
H45 H 0.80606 0.08976 0.1238 0.0
Cu46 Cu 0.94424 0.81044 0.13483 0.0
N47 N 0.97654 0.82682 0.1127 0.0
N48 N 1.006 0.84353 0.07451 0.0
C49 C 0.98111 0.8257 0.08332 0.0
C50 C 0.01749 0.85608 0.09918 0.0
C51 C 0.99932 0.84577 0.12262 0.0
O52 O 0.91679 0.81566 0.11385 0.0
C53 C 0.96666 0.81822 0.19122 0.0
O54 O 0.97575 0.80349 0.18058 0.0
H55 H 0.96606 0.81316 0.06844 0.0
H56 H 1.00211 0.85244 0.14508 0.0
N57 N 0.93218 0.77571 0.13809 0.0
N58 N 0.90824 0.73539 0.15394 0.0
C59 C 0.91345 0.75944 0.15778 0.0
C60 C 0.93915 0.76156 0.12117 0.0
C61 C 0.9244 0.73667 0.13087 0.0
C62 C 0.92207 0.83507 0.0971 0.0
O63 O 0.94661 0.85393 0.09616 0.0
H64 H 0.90345 0.76517 0.17417 0.0
H65 H 0.95379 0.76882 0.10295 0.0
O66 O 0.95135 0.82363 0.17496 0.0
H67 H 0.03743 0.87198 0.10002 0.0
H68 H 0.92566 0.72081 0.12176 0.0
Cu69 Cu 0.14802 0.20873 0.42181 0.0
N70 N 0.16497 0.19288 0.44296 0.0
N71 N 0.17847 0.1757 0.47981 0.0
C72 C 0.17009 0.19286 0.4724 0.0
C73 C 0.17891 0.16483 0.45417 0.0
C74 C 0.17061 0.17541 0.43159 0.0
O75 O 0.11576 0.20361 0.44409 0.0
C76 C 0.16137 0.20134 0.36422 0.0
O77 O 0.1853 0.21727 0.37349 0.0
H78 H 0.16623 0.20402 0.48827 0.0
H79 H 0.16768 0.16986 0.40866 0.0
N80 N 0.17016 0.24356 0.41776 0.0
N81 N 0.18506 0.28361 0.4015 0.0
C82 C 0.16655 0.25931 0.39843 0.0
C83 C 0.19168 0.2583 0.43371 0.0
C84 C 0.20092 0.28305 0.42375 0.0
C85 C 0.10213 0.18474 0.46184 0.0
O86 O 0.10794 0.16597 0.46331 0.0
H87 H 0.15022 0.25302 0.38287 0.0
H88 H 0.19992 0.25156 0.45148 0.0
O89 O 0.14109 0.19511 0.38174 0.0
H90 H 0.18426 0.14984 0.45208 0.0
H91 H 0.21807 0.29929 0.43212 0.0
Cu92 Cu 0.83354 0.9608 0.4189 0.0
N93 N 0.8413 0.98804 0.44363 0.0
N94 N 0.85677 0.01371 0.4821 0.0
C95 C 0.85703 0.99433 0.46784 0.0
C96 C 0.84023 0.01984 0.46617 0.0
C97 C 0.83074 1.00404 0.44261 0.0
O98 O 0.84233 0.93722 0.44072 0.0
C99 C 0.85244 0.98993 0.36428 0.0
O100 O 0.84248 1.00348 0.37623 0.0
H101 H 0.86784 0.98441 0.47539 0.0
H102 H 0.81673 1.00398 0.42614 0.0
N103 N 0.79658 0.94274 0.41243 0.0
N104 N 0.75743 0.91126 0.39833 0.0
C105 C 0.78455 0.92145 0.39719 0.0
C106 C 0.77643 0.9462 0.42371 0.0
C107 C 0.7523 0.92691 0.41494 0.0
C108 C 0.86574 0.94067 0.44728 0.0
O109 O 0.88686 0.96117 0.43705 0.0
H110 H 0.7956 0.91345 0.38588 0.0
H111 H 0.77896 0.96112 0.43817 0.0
O112 O 0.85175 0.97129 0.37953 0.0
H113 H 0.83541 0.03479 0.47106 0.0
H114 H 0.73252 0.92412 0.42137 0.0
Cu115 Cu 0.07541 0.8811 0.42407 0.0
N116 N 0.05893 0.88322 0.38856 0.0
N117 N 0.03807 0.87364 0.34469 0.0
C118 C 0.04997 0.86657 0.36663 0.0
C119 C 0.03972 0.89561 0.35333 0.0
C120 C 0.05248 0.9014 0.38032 0.0
O121 O 0.09135 0.85881 0.4169 0.0
C122 C 0.04745 0.86437 0.48275 0.0
O123 O 0.06721 0.86056 0.49273 0.0
H124 H 0.05174 0.8494 0.36713 0.0
H125 H 0.05671 0.91771 0.39315 0.0
N126 N 0.10266 0.91331 0.43195 0.0
N127 N 0.13126 0.94712 0.45613 0.0
C128 C 0.11177 0.92293 0.45879 0.0
C129 C 0.1169 0.932 0.41169 0.0
C130 C 0.13449 0.9529 0.42652 0.0
C131 C 0.11465 0.86299 0.42545 0.0
O132 O 0.12735 0.88075 0.4444 0.0
H133 H 0.10401 0.91251 0.47982 0.0
H134 H 0.11457 0.93051 0.38778 0.0
O135 O 0.04762 0.87117 0.45545 0.0
H136 H 0.03253 0.90694 0.34093 0.0
H137 H 0.14877 0.97087 0.41631 0.0
Cu138 Cu 0.80669 0.87854 0.90012 0.0
N139 N 0.81557 0.85865 0.9265 0.0
N140 N 0.83565 0.84835 0.96366 0.0
C141 C 0.83491 0.86728 0.94713 0.0
C142 C 0.81599 0.82697 0.95288 0.0
C143 C 0.80368 0.83337 0.93006 0.0
O144 O 0.81817 0.91027 0.92067 0.0
C145 C 0.83147 0.8667 0.85145 0.0
O146 O 0.82637 0.84679 0.86865 0.0
H147 H 0.84783 0.88712 0.95029 0.0
H148 H 0.78723 0.82046 0.91691 0.0
N149 N 0.76897 0.86301 0.89545 0.0
N150 N 0.72742 0.855 0.88209 0.0
C151 C 0.75412 0.8687 0.87586 0.0
C152 C 0.75088 0.84501 0.91424 0.0
C153 C 0.72544 0.84015 0.90618 0.0
C154 C 0.80501 0.90909 0.94447 0.0
O155 O 0.78411 0.88757 0.95238 0.0
H156 H 0.76269 0.88327 0.85832 0.0
H157 H 0.75585 0.83677 0.93346 0.0
O158 O 0.82489 0.88297 0.86082 0.0
H159 H 0.81106 0.80802 0.9606 0.0
H160 H 0.70684 0.827 0.91752 0.0
Cu161 Cu 0.15003 0.93598 0.90386 0.0
N162 N 0.17431 0.96156 0.92732 0.0
N163 N 0.1894 0.99067 0.96195 0.0
C164 C 0.16799 0.97498 0.94629 0.0
C165 C 0.21 0.98695 0.95248 0.0
C166 C 0.20063 0.96901 0.93104 0.0
O167 O 0.11546 0.9237 0.92446 0.0
C168 C 0.15791 0.97226 0.85696 0.0
O169 O 0.1649 0.98811 0.87867 0.0
H170 H 0.14786 0.97267 0.94921 0.0
H171 H 0.21203 0.9615 0.91945 0.0
N172 N 0.15967 0.91014 0.90347 0.0
N173 N 0.16479 0.87702 0.89017 0.0
C174 C 0.15736 0.89462 0.88136 0.0
C175 C 0.16882 0.90217 0.92698 0.0
C176 C 0.17201 0.88185 0.91891 0.0
C177 C 0.09884 0.90059 0.92995 0.0
O178 O 0.10275 0.88307 0.91756 0.0
H179 H 0.15009 0.89611 0.85946 0.0
H180 H 0.17227 0.91024 0.94874 0.0
O181 O 0.15022 0.949 0.86322 0.0
H182 H 0.23033 0.99644 0.96054 0.0
H183 H 0.17831 0.871 0.93354 0.0
Cu184 Cu 0.08385 0.19385 0.90925 0.0
N185 N 0.05147 0.17836 0.93169 0.0
N186 N 0.01953 0.15648 0.96646 0.0
C187 C 0.04535 0.1645 0.95764 0.0
C188 C 1.00914 0.16584 0.94548 0.0
C189 C 0.02883 0.17927 0.92415 0.0
O190 O 0.11181 0.18795 0.9283 0.0
C191 C 0.0564 0.1647 0.85849 0.0
O192 O 0.04039 0.14755 0.87832 0.0
H193 H 0.0595 0.16065 0.97011 0.0
H194 H 0.02677 0.1889 0.90427 0.0
N195 N 0.09642 0.22873 0.90894 0.0
N196 N 0.12171 0.27018 0.89871 0.0
C197 C 0.11872 0.24674 0.89488 0.0
C198 C 0.08488 0.24107 0.92222 0.0
C199 C 0.10032 0.26652 0.91595 0.0
C200 C 0.1088 0.16715 0.93998 0.0
O201 O 0.08604 0.14653 0.93674 0.0
H202 H 0.13242 0.24257 0.8822 0.0
H203 H 0.06638 0.23218 0.93534 0.0
O204 O 0.07679 0.18429 0.86741 0.0
H205 H 0.98858 0.16269 0.9452 0.0
H206 H 0.09567 0.28107 0.92308 0.0
Cu207 Cu 0.88974 0.82131 0.64375 0.0
N208 N 0.86927 0.83206 0.62012 0.0
N209 N 0.85382 0.84746 0.58318 0.0
C210 C 0.87401 0.84283 0.59229 0.0
C211 C 0.8356 0.83897 0.60596 0.0
C212 C 0.84511 0.82944 0.62854 0.0
O213 O 0.9248 0.83018 0.62498 0.0
C214 C 0.88689 0.85062 0.69256 0.0
O215 O 0.88517 0.86574 0.67181 0.0
H216 H 0.89153 0.84674 0.57869 0.0
H217 H 0.83521 0.82129 0.64984 0.0
N218 N 0.87127 0.7861 0.64624 0.0
N219 N 0.85976 0.74604 0.65969 0.0
C220 C 0.87684 0.77062 0.66392 0.0
C221 C 0.85002 0.77089 0.63024 0.0
C222 C 0.84285 0.74622 0.63849 0.0
C223 C 0.93981 0.85036 0.60985 0.0
O224 O 0.93366 0.86891 0.60863 0.0
H225 H 0.89302 0.77734 0.67966 0.0
H226 H 0.84058 0.77731 0.61349 0.0
O227 O 0.89093 0.83238 0.68483 0.0
H228 H 0.81696 0.84007 0.60655 0.0
H229 H 0.82679 0.72972 0.62906 0.0
Cu230 Cu 0.22658 0.07807 0.6496 0.0
N231 N 0.22436 0.05054 0.62938 0.0
N232 N 0.21024 0.01919 0.59764 0.0
C233 C 0.20903 0.04009 0.60566 0.0
C234 C 0.2271 0.01649 0.61704 0.0
C235 C 0.23583 0.03591 0.63655 0.0
O236 O 0.2064 0.09108 0.62622 0.0
C237 C 0.19418 0.04445 0.69663 0.0
O238 O 0.18319 0.02888 0.67498 0.0
H239 H 0.19647 0.04717 0.59521 0.0
H240 H 0.24911 0.03886 0.65507 0.0
N241 N 0.26267 0.10245 0.6508 0.0
N242 N 0.30144 0.13423 0.66515 0.0
C243 C 0.27514 0.11908 0.67213 0.0
C244 C 0.28162 0.10719 0.62966 0.0
C245 C 0.30551 0.12672 0.63841 0.0
C246 C 0.21317 0.11428 0.62113 0.0
O247 O 0.23369 0.13149 0.63507 0.0
H248 H 0.26509 0.11994 0.69235 0.0
H249 H 0.27817 0.09725 0.60915 0.0
O250 O 0.2123 0.06691 0.69023 0.0
H251 H 0.23264 1.00151 0.61722 0.0
H252 H 0.32425 0.13507 0.62568 0.0
Cu253 Cu 0.94273 0.13744 0.6595 0.0
N254 N 0.96714 0.15858 0.62962 0.0
N255 N 0.99688 0.16994 0.59126 0.0
C256 C 0.98642 0.15491 0.61618 0.0
C257 C 0.98383 0.18392 0.58943 0.0
C258 C 0.96552 0.17682 0.61297 0.0
O259 O 0.91714 0.10773 0.63893 0.0
C260 C 0.98401 0.14764 0.70113 0.0
O261 O 0.99488 0.16963 0.68658 0.0
H262 H 0.99187 0.14075 0.62404 0.0
H263 H 0.95087 0.18337 0.61662 0.0
N264 N 0.92381 0.1527 0.67702 0.0
N265 N 0.89101 0.16167 0.69091 0.0
C266 C 0.89955 0.15084 0.6703 0.0
C267 C 0.93077 0.16526 0.70248 0.0
C268 C 0.91069 0.17078 0.71107 0.0
C269 C 0.92427 0.09373 0.62473 0.0
O270 O 0.94884 0.0969 0.62765 0.0
H271 H 0.88795 0.14094 0.65141 0.0
H272 H 0.94889 0.16948 0.71454 0.0
O273 O 0.9618 0.13018 0.69204 0.0
H274 H 0.98608 0.19728 0.57144 0.0
H275 H 0.91055 0.18071 0.73071 0.0
Cu276 Cu 0.86982 0.47367 0.46234 0.0
N277 N 0.84976 0.47266 0.49647 0.0
N278 N 0.83811 0.48167 0.54075 0.0
C279 C 0.85766 0.48847 0.51931 0.0
C280 C 0.81719 0.46072 0.53071 0.0
C281 C 0.82441 0.4553 0.50355 0.0
O282 O 0.90809 0.49424 0.47111 0.0
C283 C 0.86948 0.49825 0.40514 0.0
O284 O 0.8958 0.508 0.40437 0.0
H285 H 0.87738 0.50463 0.52001 0.0
H286 H 0.81215 0.43954 0.49004 0.0
N287 N 0.86302 0.44085 0.45481 0.0
N288 N 0.8564 0.40684 0.43 0.0
C289 C 0.86235 0.43139 0.42781 0.0
C290 C 0.85732 0.42171 0.47478 0.0
C291 C 0.85316 0.40068 0.45955 0.0
C292 C 0.92624 0.48792 0.46506 0.0
O293 O 0.92013 0.46832 0.44874 0.0
H294 H 0.86584 0.44225 0.40699 0.0
H295 H 0.85623 0.42299 0.49871 0.0
O296 O 0.85619 0.48483 0.4279 0.0
H297 H 0.79813 0.44963 0.54233 0.0
H298 H 0.84847 0.38238 0.46949 0.0
Cu299 Cu 0.55276 0.38929 0.46769 0.0
N300 N 0.5312 0.36052 0.44646 0.0
N301 N 0.51997 0.33248 0.4105 0.0
C302 C 0.54026 0.35085 0.42517 0.0
C303 C 0.49724 0.3305 0.42323 0.0
C304 C 0.50423 0.34785 0.44529 0.0
O305 O 0.5859 0.40582 0.44393 0.0
C306 C 0.54368 0.36076 0.52341 0.0
O307 O 0.52441 0.34242 0.50932 0.0
H308 H 0.56136 0.35807 0.41956 0.0
H309 H 0.49064 0.35158 0.45881 0.0
N310 N 0.53686 0.41051 0.46841 0.0
N311 N 0.52595 0.4399 0.48301 0.0
C312 C 0.53887 0.42633 0.49 0.0
C313 C 0.52215 0.41408 0.44704 0.0
C314 C 0.51538 0.43216 0.45595 0.0
C315 C 0.60029 0.42943 0.4389 0.0
O316 O 0.59539 0.44527 0.45392 0.0
H317 H 0.55023 0.42828 0.51004 0.0
H318 H 0.51694 0.40437 0.42629 0.0
O319 O 0.55851 0.38154 0.50915 0.0
H320 H 0.47698 0.31769 0.41684 0.0
H321 H 0.50347 0.43892 0.44348 0.0
Cu322 Cu 0.61534 0.13732 0.45405 0.0
N323 N 0.64834 0.14922 0.43353 0.0
N324 N 0.68285 0.17062 0.40156 0.0
C325 C 0.65657 0.163 0.40756 0.0
C326 C 0.69137 0.16114 0.42433 0.0
C327 C 0.67006 0.14788 0.44389 0.0
O328 O 0.59135 0.14538 0.4301 0.0
C329 C 0.63208 0.14285 0.51359 0.0
O330 O 0.6352 0.12315 0.50752 0.0
H331 H 0.64399 0.16831 0.39406 0.0
H332 H 0.67063 0.13853 0.46468 0.0
N333 N 0.59917 0.10223 0.45874 0.0
N334 N 0.57164 0.06275 0.47527 0.0
C335 C 0.57878 0.08744 0.47771 0.0
C336 C 0.60515 0.08646 0.44372 0.0
C337 C 0.58821 0.0621 0.45384 0.0
C338 C 0.59553 0.16753 0.42249 0.0
O339 O 0.61655 0.18697 0.43283 0.0
H340 H 0.56926 0.0947 0.49277 0.0
H341 H 0.62078 0.0923 0.42665 0.0
O342 O 0.62255 0.15191 0.49358 0.0
H343 H 0.71171 0.16401 0.42688 0.0
H344 H 0.58841 0.04528 0.44632 0.0
Cu345 Cu 0.80725 0.54079 0.75525 0.0
N346 N 0.82776 0.53007 0.77858 0.0
N347 N 0.83926 0.51031 0.81443 0.0
C348 C 0.81897 0.51301 0.80172 0.0
C349 C 0.86159 0.5262 0.79853 0.0
C350 C 0.85444 0.53829 0.77646 0.0
O351 O 0.77346 0.53063 0.77747 0.0
C352 C 0.82265 0.53287 0.6984 0.0
O353 O 0.84607 0.55049 0.70683 0.0
H354 H 0.79819 0.50315 0.80941 0.0
H355 H 0.86784 0.55233 0.76021 0.0
N356 N 0.82555 0.57604 0.75023 0.0
N357 N 0.83712 0.61562 0.73432 0.0
C358 C 0.82 0.59084 0.7313 0.0
C359 C 0.84678 0.59194 0.76577 0.0
C360 C 0.85396 0.61626 0.75605 0.0
C361 C 0.77426 0.54229 0.80101 0.0
O362 O 0.79733 0.56103 0.80845 0.0
H363 H 0.80377 0.58352 0.71563 0.0
H364 H 0.85607 0.58628 0.78346 0.0
O365 O 0.80232 0.52581 0.71606 0.0
H366 H 0.88166 0.52874 0.80234 0.0
H367 H 0.8699 0.63312 0.76496 0.0
Cu368 Cu 0.50276 0.29794 0.75457 0.0
N369 N 0.50881 0.32724 0.77393 0.0
N370 N 0.52126 0.35592 0.80927 0.0
C371 C 0.52202 0.33516 0.79968 0.0
C372 C 0.507 0.36119 0.78858 0.0
C373 C 0.49931 0.34347 0.76693 0.0
O374 O 0.51991 0.28238 0.77887 0.0
C375 C 0.52895 0.32575 0.69927 0.0
O376 O 0.53896 0.34617 0.71483 0.0
H377 H 0.53124 0.32535 0.81163 0.0
H378 H 0.48729 0.34226 0.74768 0.0
N379 N 0.46588 0.27576 0.75479 0.0
N380 N 0.42634 0.24437 0.74155 0.0
C381 C 0.4527 0.25864 0.73422 0.0
C382 C 0.44731 0.27238 0.77586 0.0
C383 C 0.4229 0.25308 0.76775 0.0
C384 C 0.51309 0.25896 0.78047 0.0
O385 O 0.49566 0.24388 0.76161 0.0
H386 H 0.46244 0.25666 0.71439 0.0
H387 H 0.45138 0.28289 0.79599 0.0
O388 O 0.51485 0.30434 0.71256 0.0
H389 H 0.50237 0.37673 0.78897 0.0
H390 H 0.40429 0.24558 0.78066 0.0
Cu391 Cu 0.7333 0.20369 0.75123 0.0
N392 N 0.71793 0.20572 0.71466 0.0
N393 N 0.69802 0.19627 0.67016 0.0
C394 C 0.7081 0.18849 0.69339 0.0
C395 C 0.70159 0.21924 0.67746 0.0
C396 C 0.71366 0.22489 0.70481 0.0
O397 O 0.75262 0.18386 0.74773 0.0
C398 C 0.70442 0.18456 0.80884 0.0
O399 O 0.72429 0.18061 0.81807 0.0
H400 H 0.70817 0.17054 0.69519 0.0
H401 H 0.71894 0.24186 0.71674 0.0
N402 N 0.75907 0.23583 0.76159 0.0
N403 N 0.78773 0.26679 0.7896 0.0
C404 C 0.76854 0.24249 0.78919 0.0
C405 C 0.77284 0.25657 0.74382 0.0
C406 C 0.79043 0.27576 0.76107 0.0
C407 C 0.76793 0.18802 0.7248 0.0
O408 O 0.76845 0.20388 0.70357 0.0
H409 H 0.76147 0.22972 0.8086 0.0
H410 H 0.77061 0.25756 0.71993 0.0
O411 O 0.7046 0.19224 0.78189 0.0
H412 H 0.69628 0.23142 0.66393 0.0
H413 H 0.80461 0.29461 0.75308 0.0
Cu414 Cu 0.4767 0.20585 0.23436 0.0
N415 N 0.47994 0.18232 0.26061 0.0
N416 N 0.4948 0.16473 0.29586 0.0
C417 C 0.50044 0.18562 0.27861 0.0
C418 C 0.46985 0.14763 0.2882 0.0
C419 C 0.46079 0.1585 0.2666 0.0
O420 O 0.48636 0.23649 0.25624 0.0
C421 C 0.49719 0.19104 0.18541 0.0
O422 O 0.48342 0.16888 0.19913 0.0
H423 H 0.51917 0.20285 0.279 0.0
H424 H 0.44135 0.14976 0.25627 0.0
N425 N 0.44 0.19409 0.22693 0.0
N426 N 0.40058 0.18657 0.20701 0.0
C427 C 0.4267 0.19279 0.2014 0.0
C428 C 0.42164 0.18838 0.24909 0.0
C429 C 0.39745 0.1837 0.23698 0.0
C430 C 0.50801 0.25029 0.26959 0.0
O431 O 0.52915 0.24682 0.26586 0.0
H432 H 0.43615 0.1973 0.17939 0.0
H433 H 0.42587 0.18836 0.27262 0.0
O434 O 0.49719 0.21022 0.19688 0.0
H435 H 0.45857 0.12878 0.29803 0.0
H436 H 0.37894 0.17869 0.24931 0.0
Cu437 Cu 0.81915 0.27652 0.23435 0.0
N438 N 0.84388 0.30492 0.25375 0.0
N439 N 0.86096 0.33631 0.28547 0.0
C440 C 0.83906 0.31501 0.27795 0.0
C441 C 0.88028 0.33962 0.26522 0.0
C442 C 0.8697 0.32021 0.24574 0.0
O443 O 0.78702 0.26068 0.25965 0.0
C444 C 0.81784 0.30864 0.18668 0.0
O445 O 0.82353 0.32513 0.20751 0.0
H446 H 0.81964 0.30726 0.28926 0.0
H447 H 0.87995 0.31757 0.22681 0.0
N448 N 0.83289 0.25376 0.23153 0.0
N449 N 0.83872 0.22111 0.21801 0.0
C450 C 0.82494 0.23424 0.21335 0.0
C451 C 0.85231 0.25302 0.24822 0.0
C452 C 0.85599 0.23297 0.23994 0.0
C453 C 0.76512 0.24152 0.25352 0.0
O454 O 0.7621 0.2323 0.22683 0.0
H455 H 0.80904 0.22954 0.19745 0.0
H456 H 0.86297 0.26611 0.26532 0.0
O457 O 0.8136 0.28638 0.19403 0.0
H458 H 0.90063 0.35495 0.26454 0.0
H459 H 0.8705 0.22776 0.24919 0.0
Cu460 Cu 0.75581 0.52718 0.23826 0.0
N461 N 0.72306 0.51509 0.25945 0.0
N462 N 0.69241 0.49995 0.2966 0.0
C463 C 0.71885 0.51129 0.2893 0.0
C464 C 0.67947 0.49673 0.27061 0.0
C465 C 0.69845 0.50638 0.24775 0.0
O466 O 0.77942 0.51698 0.2604 0.0
C467 C 0.731 0.4968 0.18652 0.0
O468 O 0.71733 0.47772 0.20542 0.0
H469 H 0.73472 0.51567 0.3052 0.0
H470 H 0.69451 0.50641 0.22416 0.0
N471 N 0.77258 0.56235 0.23722 0.0
N472 N 0.79966 0.60259 0.22293 0.0
C473 C 0.792 0.57813 0.21781 0.0
C474 C 0.7677 0.57721 0.25526 0.0
C475 C 0.78434 0.60201 0.24654 0.0
C476 C 0.77042 0.496 0.27513 0.0
O477 O 0.74529 0.47902 0.27171 0.0
H478 H 0.80043 0.57169 0.20045 0.0
H479 H 0.75293 0.57045 0.27335 0.0
O480 O 0.74894 0.51756 0.19638 0.0
H481 H 0.65785 0.48769 0.26838 0.0
H482 H 0.78469 0.61828 0.25651 0.0
Cu483 Cu 0.5534 0.14477 0.97748 0.0
N484 N 0.53626 0.16013 0.95551 0.0
N485 N 0.52486 0.17901 0.91863 0.0
C486 C 0.53757 0.16536 0.92579 0.0
C487 C 0.51461 0.18194 0.94451 0.0
C488 C 0.52135 0.17 0.96711 0.0
O489 O 0.58853 0.15304 0.95903 0.0
C490 C 0.55769 0.17334 0.03054 0.0
O491 O 0.56636 0.19347 1.01259 0.0
H492 H 0.54867 0.16036 0.90997 0.0
H493 H 0.51625 0.16912 0.99055 0.0
N494 N 0.53261 0.10984 0.97568 0.0
N495 N 0.51644 0.06848 0.98595 0.0
C496 C 0.53423 0.09207 0.99346 0.0
C497 C 0.51322 0.09716 0.95621 0.0
C498 C 0.50319 0.07169 0.96249 0.0
C499 C 0.60205 0.17222 0.94162 0.0
O500 O 0.59477 0.18998 0.93897 0.0
H501 H 0.54802 0.09646 1.01174 0.0
H502 H 0.50693 0.10586 0.93857 0.0
O503 O 0.55355 0.15239 1.01993 0.0
H504 H 0.50339 0.1923 0.94688 0.0
H505 H 0.48763 0.05674 0.95035 0.0
Cu506 Cu 0.89181 0.41127 0.97902 0.0
N507 N 0.88578 0.38456 0.9545 0.0
N508 N 0.87038 0.35712 0.91796 0.0
C509 C 0.87159 0.37819 0.92922 0.0
C510 C 0.88458 0.35014 0.9368 0.0
C511 C 0.89407 0.36709 0.95922 0.0
O512 O 0.88278 0.43487 0.95773 0.0
C513 C 0.85616 0.37596 1.02394 0.0
O514 O 0.84882 0.35954 1.00287 0.0
H515 H 0.86185 0.38845 0.91963 0.0
H516 H 0.90589 0.36657 0.97795 0.0
N517 N 0.92855 0.4295 0.98627 0.0
N518 N 0.9676 0.46033 1.00145 0.0
C519 C 0.94048 0.44993 1.003 0.0
C520 C 0.94876 0.42683 0.97371 0.0
C521 C 0.97284 0.44577 0.98306 0.0
C522 C 0.86005 0.43068 0.94757 0.0
O523 O 0.83893 0.40869 0.95319 0.0
H524 H 0.92946 0.45756 1.01512 0.0
H525 H 0.94621 0.41253 0.95821 0.0
O526 O 0.87297 0.39893 1.01765 0.0
H527 H 0.88795 0.33396 0.93455 0.0
H528 H 0.99266 0.44865 0.97664 0.0
Cu529 Cu 0.61321 0.46732 0.99016 0.0
N530 N 0.63516 0.49496 0.96481 0.0
N531 N 0.66577 0.51862 0.92955 0.0
C532 C 0.65231 0.49557 0.94327 0.0
C533 C 0.65664 0.53301 0.94294 0.0
C534 C 0.63769 0.51835 0.96454 0.0
O535 O 0.59315 0.43931 0.96419 0.0
C536 C 0.65458 0.48009 0.03201 0.0
O537 O 0.66027 0.50289 1.02208 0.0
H538 H 0.65544 0.47964 0.93835 0.0
H539 H 0.62679 0.52439 0.97931 0.0
N540 N 0.58862 0.4736 1.01222 0.0
N541 N 0.5554 0.48171 0.02696 0.0
C542 C 0.57012 0.4807 1.00346 0.0
C543 C 0.58552 0.47016 0.04208 0.0
C544 C 0.56523 0.47515 0.0512 0.0
C545 C 0.60333 0.42694 0.95166 0.0
O546 O 0.62761 0.43109 0.95889 0.0
H547 H 0.56721 0.4846 0.98039 0.0
H548 H 0.59716 0.46424 0.05631 0.0
O549 O 0.63543 0.46125 1.02001 0.0
H550 H 0.66324 0.55275 0.93757 0.0
H551 H 0.5585 0.47432 0.07406 0.0
Cu552 Cu 0.54317 0.81276 0.79678 0.0
N553 N 0.52483 0.80949 0.83312 0.0
N554 N 0.51344 0.81778 0.87792 0.0
C555 C 0.53147 0.82639 0.85473 0.0
C556 C 0.49484 0.79454 0.87042 0.0
C557 C 0.5019 0.78953 0.84291 0.0
O558 O 0.58159 0.8347 0.803 0.0
C559 C 0.53289 0.82955 0.7384 0.0
O560 O 0.55707 0.834 0.72972 0.0
H561 H 0.54905 0.84471 0.85322 0.0
H562 H 0.49113 0.77245 0.83088 0.0
N563 N 0.5393 0.78126 0.78716 0.0
N564 N 0.53451 0.74892 0.76011 0.0
C565 C 0.53186 0.77009 0.76078 0.0
C566 C 0.54668 0.76658 0.8038 0.0
C567 C 0.5438 0.74663 0.78716 0.0
C568 C 0.60004 0.83328 0.78787 0.0
O569 O 0.59344 0.81962 0.76409 0.0
H570 H 0.52598 0.778 0.74195 0.0
H571 H 0.55455 0.77065 0.82606 0.0
O572 O 0.52526 0.82265 0.76552 0.0
H573 H 0.47757 0.78177 0.88403 0.0
H574 H 0.54864 0.73185 0.79421 0.0
Cu575 Cu 0.2055 0.71688 0.79625 0.0
N576 N 0.18604 0.68775 0.77448 0.0
N577 N 0.17195 0.66053 0.73749 0.0
C578 C 0.19234 0.6818 0.74777 0.0
C579 C 0.15222 0.65286 0.75857 0.0
C580 C 0.16091 0.66962 0.7812 0.0
O581 O 0.23579 0.74165 0.7724 0.0
C582 C 0.20726 0.68905 0.84998 0.0
O583 O 0.19267 0.6684 0.83578 0.0
H584 H 0.21095 0.69335 0.73551 0.0
H585 H 0.14944 0.66904 0.8009 0.0
N586 N 0.18434 0.73264 0.80312 0.0
N587 N 0.17304 0.76104 0.8203 0.0
C588 C 0.19161 0.75278 0.82008 0.0
C589 C 0.16033 0.72792 0.79205 0.0
C590 C 0.15329 0.74539 0.80263 0.0
C591 C 0.25545 0.73956 0.76139 0.0
O592 O 0.25745 0.71893 0.76708 0.0
H593 H 0.21055 0.76148 0.83145 0.0
H594 H 0.14888 0.71301 0.77713 0.0
O595 O 0.21582 0.71041 0.83614 0.0
H596 H 0.13274 0.63638 0.75759 0.0
H597 H 0.13495 0.74631 0.7978 0.0
Cu598 Cu 0.27833 0.46379 0.79234 0.0
N599 N 0.31051 0.47425 0.77036 0.0
N600 N 0.3458 0.49681 0.73984 0.0
C601 C 0.32657 0.49721 0.75756 0.0
C602 C 0.342 0.47297 0.74177 0.0
C603 C 0.32036 0.45915 0.76077 0.0
O604 O 0.25645 0.47676 0.77159 0.0
C605 C 0.30348 0.4718 0.84856 0.0
O606 O 0.31486 0.45931 0.83683 0.0
H607 H 0.32348 0.51352 0.76004 0.0
H608 H 0.31192 0.43925 0.76651 0.0
N609 N 0.25883 0.42851 0.79233 0.0
N610 N 0.23273 0.38762 0.80472 0.0
C611 C 0.24505 0.41142 0.81458 0.0
C612 C 0.25479 0.4151 0.76775 0.0
C613 C 0.23889 0.39004 0.77525 0.0
C614 C 0.2555 0.47681 0.74311 0.0
O615 O 0.27019 0.46908 0.72821 0.0
H616 H 0.24405 0.41634 0.83739 0.0
H617 H 0.26263 0.42306 0.74568 0.0
O618 O 0.28658 0.47557 0.83315 0.0
H619 H 0.35391 0.46607 0.73004 0.0
H620 H 0.23178 0.37485 0.75989 0.0
Cu621 Cu 0.47987 0.87571 0.09169 0.0
N622 N 0.49938 0.86342 0.11437 0.0
N623 N 0.50993 0.84234 0.14949 0.0
C624 C 0.48996 0.84543 0.13652 0.0
C625 C 0.53269 0.85896 0.13479 0.0
C626 C 0.52613 0.87189 0.1132 0.0
O627 O 0.44622 0.86576 0.11403 0.0
C628 C 0.49571 0.86922 0.03432 0.0
O629 O 0.51912 0.88643 0.04333 0.0
H630 H 0.469 0.83532 0.14349 0.0
H631 H 0.53997 0.88678 0.09806 0.0
N632 N 0.4995 0.91101 0.08927 0.0
N633 N 0.5159 0.95166 0.07479 0.0
C634 C 0.49915 0.9275 0.06823 0.0
C635 C 0.51691 0.92521 0.10974 0.0
C636 C 0.52709 0.9502 0.10088 0.0
C637 C 0.43357 0.87863 0.11322 0.0
O638 O 0.44159 0.89796 0.0941 0.0
H639 H 0.4869 0.92188 0.04859 0.0
H640 H 0.52161 0.91787 0.12997 0.0
O641 O 0.47521 0.86202 0.05174 0.0
H642 H 0.55269 0.86155 0.13922 0.0
H643 H 0.54116 0.96609 0.11312 0.0
Cu644 Cu 0.16662 0.62875 0.08058 0.0
N645 N 0.17685 0.657 0.10426 0.0
N646 N 0.19342 0.68333 0.14196 0.0
C647 C 0.19226 0.66294 0.12875 0.0
C648 C 0.17813 0.69045 0.12512 0.0
C649 C 0.16794 0.67421 0.10204 0.0
O650 O 0.1718 0.60315 0.10292 0.0
C651 C 0.19083 0.65729 0.02601 0.0
O652 O 0.18918 0.67575 0.03905 0.0
H653 H 0.20162 0.65204 0.13742 0.0
H654 H 0.15449 0.67461 0.0851 0.0
N655 N 0.12968 0.61347 0.07416 0.0
N656 N 0.08964 0.58485 0.05827 0.0
C657 C 0.1166 0.59415 0.05613 0.0
C658 C 0.11039 0.6166 0.08829 0.0
C659 C 0.08566 0.599 0.07848 0.0
C660 C 0.19364 0.60462 0.11269 0.0
O661 O 0.21651 0.6248 0.10609 0.0
H662 H 0.12672 0.58634 0.04279 0.0
H663 H 0.11397 0.63012 0.10524 0.0
O664 O 0.184 0.63658 0.04078 0.0
H665 H 0.17455 0.70628 0.12914 0.0
H666 H 0.0663 0.59662 0.086 0.0
Cu667 Cu 0.40182 0.52994 0.08832 0.0
N668 N 0.38299 0.53029 0.05377 0.0
N669 N 0.36357 0.5211 1.00895 0.0
C670 C 0.37714 0.5153 0.03019 0.0
C671 C 0.36086 0.54049 1.01982 0.0
C672 C 0.37277 0.54605 0.0473 0.0
O673 O 0.42155 0.511 0.08154 0.0
C674 C 0.37012 0.53169 0.13601 0.0
O675 O 0.3785 0.55451 0.12421 0.0
H676 H 0.38267 0.50039 0.0288 0.0
H677 H 0.37419 0.56081 0.06146 0.0
N678 N 0.42769 0.56259 0.09707 0.0
N679 N 0.45679 0.59425 0.12401 0.0
C680 C 0.43981 0.56927 0.12351 0.0
C681 C 0.4374 0.584 0.08003 0.0
C682 C 0.45533 0.60359 0.09661 0.0
C683 C 0.43918 0.5184 0.06039 0.0
O684 O 0.44241 0.5377 0.04298 0.0
H685 H 0.43552 0.55605 0.1423 0.0
H686 H 0.43169 0.58531 0.05727 0.0
O687 O 0.37702 0.51683 0.12326 0.0
H688 H 0.3515 0.55045 1.00851 0.0
H689 H 0.46648 0.62313 0.08897 0.0
Cu690 Cu 0.14228 0.54279 0.56703 0.0
N691 N 0.14512 0.52067 0.59584 0.0
N692 N 0.16303 0.5048 0.62964 0.0
C693 C 0.16737 0.5192 0.60428 0.0
C694 C 0.13696 0.49659 0.63717 0.0
C695 C 0.12602 0.50635 0.61636 0.0
O696 O 0.15882 0.57625 0.58393 0.0
C697 C 0.17774 0.54194 0.51849 0.0
O698 O 0.1978 0.55002 0.53705 0.0
H699 H 0.18675 0.5296 0.59308 0.0
H700 H 0.10581 0.50409 0.61695 0.0
N701 N 0.10588 0.53486 0.56379 0.0
N702 N 0.06528 0.52591 0.54593 0.0
C703 C 0.08943 0.52685 0.54021 0.0
C704 C 0.09165 0.53906 0.58498 0.0
C705 C 0.06672 0.5335 0.57417 0.0
C706 C 0.18087 0.58636 0.59787 0.0
O707 O 0.19751 0.57681 0.59608 0.0
H708 H 0.09537 0.52262 0.51903 0.0
H709 H 0.09917 0.54616 0.6067 0.0
O710 O 0.15487 0.53921 0.52726 0.0
H711 H 0.12666 0.4848 0.65669 0.0
H712 H 0.05084 0.53491 0.58628 0.0
Cu713 Cu 0.49413 0.60779 0.57341 0.0
N714 N 0.51838 0.63551 0.59451 0.0
N715 N 0.53626 0.66498 0.62852 0.0
C716 C 0.51334 0.64774 0.61637 0.0
C717 C 0.55639 0.66386 0.61337 0.0
C718 C 0.54532 0.64579 0.59238 0.0
O719 O 0.45981 0.58985 0.5952 0.0
C720 C 0.49639 0.6414 0.52511 0.0
O721 O 0.50413 0.65841 0.54554 0.0
H722 H 0.49332 0.64321 0.62422 0.0
H723 H 0.55611 0.63991 0.57724 0.0
N724 N 0.50811 0.58512 0.57076 0.0
N725 N 0.51651 0.55433 0.55555 0.0
C726 C 0.50425 0.56863 0.5493 0.0
C727 C 0.52326 0.58115 0.59122 0.0
C728 C 0.52852 0.56227 0.58192 0.0
C729 C 0.45944 0.58542 0.62329 0.0
O730 O 0.48226 0.59384 0.63737 0.0
H731 H 0.4922 0.56682 0.52988 0.0
H732 H 0.52986 0.59118 0.61163 0.0
O733 O 0.49027 0.61869 0.53283 0.0
H734 H 0.57761 0.67497 0.61757 0.0
H735 H 0.54048 0.55514 0.59365 0.0
Cu736 Cu 0.41724 0.85951 0.57 0.0
N737 N 0.38677 0.84793 0.59539 0.0
N738 N 0.35604 0.82761 0.63185 0.0
C739 C 0.38034 0.83276 0.62025 0.0
C740 C 0.34704 0.8404 0.61388 0.0
C741 C 0.36602 0.85291 0.59153 0.0
O742 O 0.44546 0.85399 0.58924 0.0
C743 C 0.38336 0.83033 0.52243 0.0
O744 O 0.36504 0.81847 0.54353 0.0
H745 H 0.39317 0.82576 0.62992 0.0
H746 H 0.36456 0.86441 0.57325 0.0
N747 N 0.43194 0.89446 0.56501 0.0
N748 N 0.45823 0.93403 0.54776 0.0
C749 C 0.45121 0.9094 0.54497 0.0
C750 C 0.42652 0.91008 0.58109 0.0
C751 C 0.44266 0.93448 0.5705 0.0
C752 C 0.44292 0.83365 0.60188 0.0
O753 O 0.42041 0.81265 0.59939 0.0
H754 H 0.46029 0.90229 0.52914 0.0
H755 H 0.41203 0.90418 0.59942 0.0
O756 O 0.40704 0.84644 0.52969 0.0
H757 H 0.32772 0.84005 0.61611 0.0
H758 H 0.44274 0.95118 0.57885 0.0
Cu759 Cu 0.23084 0.48804 0.31036 0.0
N760 N 0.21149 0.49863 0.2846 0.0
N761 N 0.20238 0.51915 0.24738 0.0
C762 C 0.22167 0.51592 0.26176 0.0
C763 C 0.17913 0.50319 0.26174 0.0
C764 C 0.1848 0.4906 0.28459 0.0
O765 O 0.26468 0.49639 0.28914 0.0
C766 C 0.21205 0.49741 0.36406 0.0
O767 O 0.18938 0.48047 0.3532 0.0
H768 H 0.24274 0.52568 0.25546 0.0
H769 H 0.17036 0.47644 0.29997 0.0
N770 N 0.21234 0.45288 0.31588 0.0
N771 N 0.20103 0.41344 0.33219 0.0
C772 C 0.21756 0.4383 0.33554 0.0
C773 C 0.19189 0.43677 0.29957 0.0
C774 C 0.18482 0.41253 0.30961 0.0
C775 C 0.28301 0.51888 0.28378 0.0
O776 O 0.28109 0.53732 0.2966 0.0
H777 H 0.23363 0.44581 0.35139 0.0
H778 H 0.18299 0.44222 0.28129 0.0
O779 O 0.23386 0.5036 0.34924 0.0
H780 H 0.15943 0.50099 0.25647 0.0
H781 H 0.16887 0.39557 0.30089 0.0
Cu782 Cu 0.55935 0.74019 0.31347 0.0
N783 N 0.553 0.71316 0.28926 0.0
N784 N 0.53767 0.68548 0.25285 0.0
C785 C 0.5387 0.70653 0.26405 0.0
C786 C 0.55211 0.67881 0.27172 0.0
C787 C 0.56151 0.69586 0.29404 0.0
O788 O 0.54995 0.76367 0.29232 0.0
C789 C 0.52575 0.70544 0.3603 0.0
O790 O 0.51796 0.68844 0.33987 0.0
H791 H 0.52887 0.71669 0.25441 0.0
H792 H 0.57351 0.69557 0.3127 0.0
N793 N 0.59624 0.75883 0.31994 0.0
N794 N 0.63533 0.79056 0.33376 0.0
C795 C 0.6082 0.78048 0.33454 0.0
C796 C 0.6164 0.75503 0.30947 0.0
C797 C 0.64049 0.77448 0.31803 0.0
C798 C 0.52746 0.7596 0.28152 0.0
O799 O 0.50628 0.73751 0.28629 0.0
H800 H 0.59711 0.78871 0.34526 0.0
H801 H 0.61387 0.7396 0.29586 0.0
O802 O 0.54172 0.7284 0.35285 0.0
H803 H 0.55582 0.66283 0.26958 0.0
H804 H 0.66027 0.77697 0.31218 0.0
Cu805 Cu 0.27559 0.80987 0.31748 0.0
N806 N 0.30339 0.83227 0.29127 0.0
N807 N 0.33412 0.84757 0.25384 0.0
C808 C 0.31715 0.82689 0.27045 0.0
C809 C 0.33098 0.8667 0.26472 0.0
C810 C 0.31209 0.85723 0.28773 0.0
O811 O 0.2537 0.77957 0.29561 0.0
C812 C 0.31418 0.81651 0.36297 0.0
O813 O 0.33153 0.83304 0.34355 0.0
H814 H 0.31425 0.80813 0.26687 0.0
H815 H 0.30482 0.86774 0.30068 0.0
N816 N 0.25213 0.82349 0.32441 0.0
N817 N 0.22123 0.83269 0.34405 0.0
C818 C 0.2398 0.82482 0.34978 0.0
C819 C 0.24108 0.8309 0.30221 0.0
C820 C 0.22214 0.83657 0.31416 0.0
C821 C 0.2602 0.76392 0.28443 0.0
O822 O 0.28358 0.76519 0.29059 0.0
H823 H 0.24352 0.81916 0.37173 0.0
H824 H 0.24595 0.83137 0.27874 0.0
O825 O 0.28954 0.80407 0.35575 0.0
H826 H 0.34158 0.88617 0.25667 0.0
H827 H 0.20982 0.84294 0.30178 0.0
H828 H 0.17618 0.06266 0.05134 0.0
H829 H 0.2336 0.04783 0.09976 0.0
H830 H 0.23455 0.02138 0.06011 0.0
H831 H 0.21878 1.00212 1.01173 0.0
H832 H 0.16043 0.01589 0.96382 0.0
H833 H 0.16012 0.0431 1.00301 0.0
C834 C 0.18899 0.05374 0.05308 0.0
C835 C 0.20476 0.05719 0.0785 0.0
C836 C 0.18925 0.03835 0.03026 0.0
C837 C 0.22102 0.04523 0.08064 0.0
C838 C 0.22169 0.03022 0.05788 0.0
C839 C 0.2062 0.01127 1.00978 0.0
C840 C 0.18972 1.00707 0.98486 0.0
C841 C 0.20587 0.02661 0.0326 0.0
C842 C 0.17314 0.01869 0.98289 0.0
C843 C 0.17303 0.03431 1.00524 0.0
H844 H 0.96141 0.07267 0.0679 0.0
H845 H 0.9167 0.11417 0.07638 0.0
H846 H 0.94472 0.14438 0.03746 0.0
H847 H 0.98064 0.1583 0.99937 0.0
H848 H 0.02643 0.11808 0.99085 0.0
H849 H 0.99965 0.08842 0.03153 0.0
C850 C 0.95791 0.0884 0.06134 0.0
C851 C 0.93677 0.09092 0.07502 0.0
C852 C 0.97432 0.106 0.03886 0.0
C853 C 0.93272 0.1116 0.06633 0.0
C854 C 0.94873 0.12895 0.04396 0.0
C855 C 0.98474 0.14304 1.00646 0.0
C856 C 1.0053 0.14026 0.99196 0.0
C857 C 0.96934 0.12618 0.02982 0.0
C858 C 1.01078 0.12069 1.00176 0.0
C859 C 0.99536 0.10364 1.02489 0.0
H860 H 0.82659 0.81497 1.00989 0.0
H861 H 0.88585 0.88652 0.97135 0.0
H862 H 0.91714 0.88953 1.01046 0.0
H863 H 0.92858 0.87095 0.05423 0.0
H864 H 0.86968 0.79891 0.0922 0.0
H865 H 0.83748 0.79702 0.0547 0.0
C866 C 0.84639 0.83117 1.0099 0.0
C867 C 0.8538 0.85042 0.98747 0.0
C868 C 0.86442 0.8327 0.03241 0.0
C869 C 0.87941 0.87151 0.98835 0.0
C870 C 0.89742 0.87319 1.01067 0.0
C871 C 0.90862 0.85492 0.05454 0.0
C872 C 0.90167 0.83508 0.07607 0.0
C873 C 0.89024 0.8538 0.03267 0.0
C874 C 0.87567 0.81447 0.07596 0.0
C875 C 0.85723 0.81332 0.05442 0.0
H876 H 0.02576 0.20536 0.5479 0.0
H877 H 1.01007 0.13214 0.58434 0.0
H878 H 0.0406 0.13019 0.54741 0.0
H879 H 0.07193 0.14899 0.5046 0.0
H880 H 0.08697 0.22164 0.46712 0.0
H881 H 0.0561 0.22365 0.50406 0.0
C882 C 0.02876 0.18884 0.54775 0.0
C883 C 1.01548 0.16904 0.56936 0.0
C884 C 0.04617 0.18758 0.52596 0.0
C885 C 0.02014 0.14798 0.56865 0.0
C886 C 0.03752 0.1467 0.54723 0.0
C887 C 0.06835 0.16522 0.50432 0.0
C888 C 0.08184 0.18512 0.48297 0.0
C889 C 0.05065 0.16636 0.52577 0.0
C890 C 0.0769 0.20599 0.48315 0.0
C891 C 0.05928 0.20721 0.50439 0.0
H892 H 0.82594 0.89822 0.47409 0.0
H893 H 0.91219 0.94411 0.47096 0.0
H894 H 0.91637 0.91797 0.51154 0.0
H895 H 0.8951 0.88403 0.55069 0.0
H896 H 0.80879 0.83915 0.55395 0.0
H897 H 0.8051 0.86296 0.51065 0.0
C898 C 0.84572 0.90243 0.48202 0.0
C899 C 0.8687 0.92326 0.46954 0.0
C900 C 0.84795 0.88759 0.50564 0.0
C901 C 0.89413 0.92826 0.48014 0.0
C902 C 0.89654 0.91335 0.50344 0.0
C903 C 0.87555 0.87922 0.54159 0.0
C904 C 0.85222 0.85997 0.55576 0.0
C905 C 0.87354 0.89324 0.51676 0.0
C906 C 0.827 0.85413 0.54382 0.0
C907 C 0.82488 0.86769 0.51898 0.0
H908 H 0.14541 0.93384 0.50853 0.0
H909 H 0.14958 0.9974 0.4568 0.0
H910 H 0.17448 0.02555 0.49635 0.0
H911 H 0.19536 0.03217 0.54557 0.0
H912 H 0.19202 0.96879 0.59701 0.0
H913 H 0.16667 0.94054 0.55773 0.0
C914 C 0.1516 0.95382 0.50608 0.0
C915 C 0.14561 0.96351 0.47979 0.0
C916 C 0.16618 0.96994 0.52881 0.0
C917 C 0.15415 0.98952 0.47669 0.0
C918 C 0.1683 1.00561 0.49934 0.0
C919 C 0.18892 0.01216 0.54825 0.0
C920 C 0.19556 1.00263 0.57422 0.0
C921 C 0.17448 0.99604 0.52548 0.0
C922 C 0.18744 0.97667 0.57713 0.0
C923 C 0.1728 0.96048 0.55474 0.0
H924 H 0.86035 0.99358 0.0391 0.0
H925 H 0.77803 0.95987 0.07128 0.0
H926 H 0.76354 0.93291 0.02882 0.0
H927 H 0.77419 0.91635 0.9849 0.0
H928 H 0.85583 0.94887 0.95117 0.0
H929 H 0.87055 0.97912 0.99127 0.0
C930 C 0.83924 0.98058 0.03651 0.0
C931 C 0.8204 0.97844 0.05882 0.0
C932 C 0.83089 0.96486 1.01175 0.0
C933 C 0.79308 0.96149 0.05502 0.0
C934 C 0.7847 0.94612 0.03059 0.0
C935 C 0.7952 0.93024 0.98605 0.0
C936 C 0.81389 0.93021 0.96518 0.0
C937 C 0.80346 0.94722 1.00923 0.0
C938 C 0.84099 0.94853 0.96686 0.0
C939 C 0.84942 0.96571 0.98996 0.0
H940 H 0.03447 0.88968 0.04926 0.0
H941 H 1.00341 0.81084 0.03318 0.0
H942 H 0.02768 0.82144 0.98482 0.0
H943 H 0.06111 0.85345 0.94955 0.0
H944 H 0.09133 0.93239 0.96619 0.0
H945 H 0.06379 0.92146 1.01168 0.0
C946 C 0.03295 0.87487 0.03502 0.0
C947 C 0.01762 0.84955 0.04481 0.0
C948 C 0.04683 0.88115 1.00742 0.0
C949 C 1.01519 0.83045 0.026 0.0
C950 C 0.02914 0.83654 0.99849 0.0
C951 C 0.06136 0.86827 0.96287 0.0
C952 C 0.07859 0.89372 0.95455 0.0
C953 C 0.04551 0.86186 0.98926 0.0
C954 C 0.07844 0.91265 0.97201 0.0
C955 C 0.06276 0.90644 0.99818 0.0
H956 H 0.10062 0.13526 0.98785 0.0
H957 H 0.16287 0.19942 0.93936 0.0
H958 H 0.19603 0.20095 0.97562 0.0
H959 H 0.20709 0.18467 1.02225 0.0
H960 H 0.14358 0.12238 0.07219 0.0
H961 H 0.11135 0.11961 0.03448 0.0
C962 C 0.12151 0.14939 0.98499 0.0
C963 C 0.1293 0.16701 0.96071 0.0
C964 C 0.14027 0.15065 1.00646 0.0
C965 C 0.15636 0.18555 0.95776 0.0
C966 C 0.17532 0.18646 0.97855 0.0
C967 C 0.18621 0.17049 1.02484 0.0
C968 C 0.17786 0.1538 0.05014 0.0
C969 C 0.16748 0.16924 1.00319 0.0
C970 C 0.15063 0.13563 0.05315 0.0
C971 C 0.13213 0.13393 0.03149 0.0
H972 H 0.95747 0.87536 0.55621 0.0
H973 H 0.97097 0.82704 0.61948 0.0
H974 H 1.00581 0.82731 0.58626 0.0
H975 H 0.03212 0.8409 0.53849 0.0
H976 H 1.01542 0.88651 0.47404 0.0
H977 H 0.98223 0.8875 0.50819 0.0
C978 C 0.96824 0.8651 0.56288 0.0
C979 C 0.96189 0.8515 0.5905 0.0
C980 C 0.98758 0.86465 0.54323 0.0
C981 C 0.97559 0.8378 0.59844 0.0
C982 C 0.99548 0.8379 0.5794 0.0
C983 C 0.02117 0.85101 0.53193 0.0
C984 C 0.02638 0.86362 0.50363 0.0
C985 C 1.00158 0.85116 0.55161 0.0
C986 C 1.01181 0.87648 0.4955 0.0
C987 C 0.99285 0.87718 0.51511 0.0
H988 H 0.16302 0.12876 0.50128 0.0
H989 H 0.20571 0.20662 0.52389 0.0
H990 H 0.21892 0.19445 0.57144 0.0
H991 H 0.22118 0.16161 0.60444 0.0
H992 H 0.17734 0.08363 0.58123 0.0
H993 H 0.16158 0.09586 0.5362 0.0
C994 C 0.17512 0.14301 0.51673 0.0
C995 C 0.18377 0.16855 0.50904 0.0
C996 C 0.18246 0.13583 0.54384 0.0
C997 C 0.1989 0.18686 0.52944 0.0
C998 C 0.20652 0.17989 0.55648 0.0
C999 C 0.20791 0.14727 0.58973 0.0
C1000 C 0.20074 0.12174 0.59617 0.0
C1001 C 0.19885 0.15443 0.56366 0.0
C1002 C 0.18331 0.10341 0.57692 0.0
C1003 C 0.17433 0.11038 0.55102 0.0
H1004 H 0.93525 0.06469 0.58728 0.0
H1005 H 0.87371 0.08534 0.60952 0.0
H1006 H 0.84705 0.06178 0.5678 0.0
H1007 H 0.84216 0.03706 0.52341 0.0
H1008 H 0.90395 0.01693 0.50086 0.0
H1009 H 0.92933 0.0383 0.54435 0.0
C1010 C 0.91587 0.06384 0.58327 0.0
C1011 C 0.90663 0.07692 0.6016 0.0
C1012 C 0.9007 0.05044 0.55899 0.0
C1013 C 0.88142 0.07552 0.5959 0.0
C1014 C 0.86616 0.0621 0.57191 0.0
C1015 C 0.86122 0.03741 0.52792 0.0
C1016 C 0.87116 0.02549 0.50862 0.0
C1017 C 0.8758 0.04985 0.55299 0.0
C1018 C 0.89567 0.02574 0.5153 0.0
C1019 C 0.91029 0.03809 0.54015 0.0
H1020 H 0.83385 0.32268 0.33836 0.0
H1021 H 0.89281 0.38674 0.28651 0.0
H1022 H 0.8965 0.41444 0.32678 0.0
H1023 H 0.88311 0.42051 0.37691 0.0
H1024 H 0.82436 0.35646 0.42893 0.0
H1025 H 0.82042 0.32876 0.38852 0.0
C1026 C 0.84734 0.34272 0.33579 0.0
C1027 C 0.86302 0.35257 0.3094 0.0
C1028 C 0.84944 0.35856 0.35913 0.0
C1029 C 0.88074 0.37857 0.30667 0.0
C1030 C 0.88276 0.39447 0.32965 0.0
C1031 C 0.86927 0.40054 0.37929 0.0
C1032 C 0.85402 0.39061 0.40593 0.0
C1033 C 0.86722 0.38468 0.35599 0.0
C1034 C 0.83653 0.36457 0.40882 0.0
C1035 C 0.83418 0.34873 0.38565 0.0
H1036 H 0.64012 0.47728 0.42527 0.0
H1037 H 0.60173 0.4019 0.39266 0.0
H1038 H 0.62739 0.41711 0.3459 0.0
H1039 H 0.65846 0.45228 0.3126 0.0
H1040 H 0.69917 0.52714 0.34528 0.0
H1041 H 0.67507 0.51189 0.39365 0.0
C1042 C 0.63764 0.46417 0.40807 0.0
C1043 C 0.61883 0.43852 0.41247 0.0
C1044 C 0.65272 0.47301 0.38113 0.0
C1045 C 0.61604 0.42172 0.39001 0.0
C1046 C 0.63061 0.43041 0.36311 0.0
C1047 C 0.66208 0.46508 0.33051 0.0
C1048 C 0.68015 0.49073 0.32561 0.0
C1049 C 0.64859 0.45605 0.3582 0.0
C1050 C 0.68521 0.50731 0.34883 0.0
C1051 C 0.6714 0.49858 0.37633 0.0
H1052 H 0.55526 0.13171 0.39099 0.0
H1053 H 0.59672 0.21185 0.40338 0.0
H1054 H 0.56937 0.21816 0.36513 0.0
H1055 H 0.53373 0.20091 0.32785 0.0
H1056 H 0.4933 0.12084 0.31493 0.0
H1057 H 0.52004 0.1146 0.35373 0.0
C1058 C 0.55826 0.15058 0.38549 0.0
C1059 C 0.57805 0.17125 0.40019 0.0
C1060 C 0.54263 0.15412 0.36325 0.0
C1061 C 0.58167 0.19555 0.39252 0.0
C1062 C 0.56605 0.1992 0.37057 0.0
C1063 C 0.53093 0.18212 0.33328 0.0
C1064 C 0.51137 0.16139 0.31837 0.0
C1065 C 0.54655 0.17863 0.35565 0.0
C1066 C 0.50785 0.13714 0.32618 0.0
C1067 C 0.52326 0.13354 0.34833 0.0
H1068 H 0.66964 0.49135 0.8847 0.0
H1069 H 0.70944 0.56423 0.92344 0.0
H1070 H 0.7459 0.57815 0.88632 0.0
H1071 H 0.76728 0.56939 0.84394 0.0
H1072 H 0.72767 0.49712 0.80369 0.0
H1073 H 0.69032 0.48322 0.8401 0.0
C1074 C 0.68635 0.51024 0.88498 0.0
C1075 C 0.68683 0.52671 0.90691 0.0
C1076 C 0.70725 0.51824 0.86327 0.0
C1077 C 0.70842 0.55127 0.90671 0.0
C1078 C 0.72936 0.55921 0.88555 0.0
C1079 C 0.75043 0.55061 0.84299 0.0
C1080 C 0.75038 0.53428 0.82118 0.0
C1081 C 0.72907 0.54283 0.86385 0.0
C1082 C 0.72822 0.51011 0.82016 0.0
C1083 C 0.70691 0.50212 0.84108 0.0
H1084 H 0.50731 0.21136 0.78935 0.0
H1085 H 0.53609 0.28279 0.83127 0.0
H1086 H 0.54299 0.26436 0.87751 0.0
H1087 H 0.53768 0.22724 0.90745 0.0
H1088 H 0.51133 0.1563 0.86594 0.0
H1089 H 0.50671 0.17512 0.81811 0.0
C1090 C 0.51542 0.22295 0.80848 0.0
C1091 C 0.5209 0.24838 0.80682 0.0
C1092 C 0.51953 0.21225 0.83517 0.0
C1093 C 0.53164 0.26319 0.83179 0.0
C1094 C 0.53548 0.25264 0.85839 0.0
C1095 C 0.53108 0.21604 0.88779 0.0
C1096 C 0.52445 0.19044 0.89006 0.0
C1097 C 0.52895 0.2271 0.86052 0.0
C1098 C 0.51643 0.17606 0.86451 0.0
C1099 C 0.51374 0.18681 0.83731 0.0
H1100 H 0.84936 0.30747 0.90836 0.0
H1101 H 0.85879 0.3777 0.86895 0.0
H1102 H 0.83391 0.35586 0.8254 0.0
H1103 H 0.80922 0.31664 0.79854 0.0
H1104 H 0.80024 0.24662 0.83811 0.0
H1105 H 0.82524 0.26853 0.88144 0.0
C1106 C 0.84627 0.31808 0.89013 0.0
C1107 C 0.85604 0.34424 0.892 0.0
C1108 C 0.83192 0.30539 0.86516 0.0
C1109 C 0.8513 0.35754 0.86832 0.0
C1110 C 0.83717 0.34507 0.84331 0.0
C1111 C 0.81293 0.30623 0.81653 0.0
C1112 C 0.80277 0.27998 0.81504 0.0
C1113 C 0.82735 0.31898 0.84149 0.0
C1114 C 0.80745 0.26673 0.8388 0.0
C1115 C 0.82191 0.27929 0.86355 0.0
H1116 H 0.48443 0.31217 0.36623 0.0
H1117 H 0.56095 0.32232 0.39794 0.0
H1118 H 0.56503 0.29938 0.35597 0.0
H1119 H 0.54605 0.27492 0.31119 0.0
H1120 H 0.46906 0.26421 0.28013 0.0
H1121 H 0.46608 0.28882 0.32074 0.0
C1122 C 0.50191 0.30923 0.36413 0.0
C1123 C 0.52228 0.31893 0.38546 0.0
C1124 C 0.50412 0.29594 0.3399 0.0
C1125 C 0.54504 0.31529 0.38186 0.0
C1126 C 0.54735 0.30207 0.35787 0.0
C1127 C 0.52876 0.27821 0.31305 0.0
C1128 C 0.50783 0.26764 0.29248 0.0
C1129 C 0.52696 0.29218 0.33679 0.0
C1130 C 0.4855 0.27204 0.29552 0.0
C1131 C 0.48371 0.28607 0.31887 0.0
H1132 H 0.77183 0.24754 0.31307 0.0
H1133 H 0.71302 0.20442 0.24845 0.0
H1134 H 0.68118 0.17968 0.28892 0.0
H1135 H 0.67118 0.16859 0.3431 0.0
H1136 H 0.73178 0.21008 0.40659 0.0
H1137 H 0.76177 0.23725 0.36627 0.0
C1138 C 0.75194 0.23293 0.30774 0.0
C1139 C 0.74483 0.22789 0.27772 0.0
C1140 C 0.73411 0.21837 0.33103 0.0
C1141 C 0.71904 0.20869 0.27135 0.0
C1142 C 0.70084 0.19451 0.29449 0.0
C1143 C 0.69085 0.18379 0.34793 0.0
C1144 C 0.69939 0.18738 0.37765 0.0
C1145 C 0.7083 0.19892 0.32445 0.0
C1146 C 0.72499 0.2069 0.38381 0.0
C1147 C 0.74207 0.22243 0.3608 0.0
H1148 H 0.81761 0.46812 0.39011 0.0
H1149 H 0.88905 0.53523 0.36063 0.0
H1150 H 0.86526 0.54026 0.31736 0.0
H1151 H 0.82361 0.52592 0.28825 0.0
H1152 H 0.75309 0.45754 0.31721 0.0
H1153 H 0.77709 0.45265 0.35989 0.0
C1154 C 0.82798 0.48393 0.37431 0.0
C1155 C 0.85503 0.50144 0.37888 0.0
C1156 C 0.81433 0.48641 0.34914 0.0
C1157 C 0.86823 0.52153 0.35779 0.0
C1158 C 0.85461 0.5244 0.33299 0.0
C1159 C 0.81356 0.50983 0.30375 0.0
C1160 C 0.78646 0.49217 0.29935 0.0
C1161 C 0.82761 0.50698 0.32843 0.0
C1162 C 0.77389 0.47143 0.31976 0.0
C1163 C 0.78758 0.46864 0.34438 0.0
H1164 H 0.61577 0.19444 0.88621 0.0
H1165 H 0.63482 0.15025 0.95012 0.0
H1166 H 0.66819 0.15001 0.91491 0.0
H1167 H 0.69196 0.16244 0.8655 0.0
H1168 H 0.66986 0.20413 0.80096 0.0
H1169 H 0.63767 0.20503 0.83665 0.0
C1170 C 0.6274 0.18494 0.89259 0.0
C1171 C 0.62309 0.17272 0.92098 0.0
C1172 C 0.64589 0.18423 0.87191 0.0
C1173 C 0.63787 0.15997 0.92852 0.0
C1174 C 0.65691 0.15979 0.90834 0.0
C1175 C 0.68001 0.17161 0.85921 0.0
C1176 C 0.6835 0.18323 0.83044 0.0
C1177 C 0.66107 0.17181 0.87988 0.0
C1178 C 0.66765 0.19491 0.82275 0.0
C1179 C 0.64925 0.19557 0.84326 0.0
H1180 H 0.81808 0.42524 0.91246 0.0
H1181 H 0.89914 0.47864 0.9347 0.0
H1182 H 0.89937 0.50832 0.8962 0.0
H1183 H 0.87771 0.51839 0.85443 0.0
H1184 H 0.79706 0.46527 0.8312 0.0
H1185 H 0.79539 0.43645 0.87204 0.0
C1186 C 0.83567 0.44348 0.90914 0.0
C1187 C 0.85861 0.44955 0.9264 0.0
C1188 C 0.83582 0.46052 0.88664 0.0
C1189 C 0.88123 0.47332 0.9217 0.0
C1190 C 0.88143 0.49035 0.89961 0.0
C1191 C 0.8598 0.50047 0.85821 0.0
C1192 C 0.83767 0.49391 0.83954 0.0
C1193 C 0.85906 0.48397 0.88159 0.0
C1194 C 0.81435 0.47085 0.84526 0.0
C1195 C 0.81344 0.4543 0.86855 0.0
H1196 H 0.55806 0.42142 0.92327 0.0
H1197 H 0.61748 0.39522 0.92326 0.0
H1198 H 0.59702 0.37046 0.8797 0.0
H1199 H 0.56344 0.35765 0.8401 0.0
H1200 H 0.50433 0.38423 0.83994 0.0
H1201 H 0.52364 0.40753 0.88464 0.0
C1202 C 0.5664 0.41011 0.91396 0.0
C1203 C 0.58933 0.41024 0.92669 0.0
C1204 C 0.55475 0.39614 0.88854 0.0
C1205 C 0.59989 0.39555 0.91405 0.0
C1206 C 0.58822 0.38139 0.88902 0.0
C1207 C 0.55457 0.3683 0.84997 0.0
C1208 C 0.53247 0.36919 0.83632 0.0
C1209 C 0.56581 0.38175 0.87585 0.0
C1210 C 0.52156 0.38344 0.84945 0.0
C1211 C 0.53251 0.39669 0.87523 0.0
H1212 H 0.50535 0.68631 0.64378 0.0
H1213 H 0.57305 0.67629 0.67149 0.0
H1214 H 0.57806 0.70096 0.71532 0.0
H1215 H 0.56365 0.72588 0.74555 0.0
H1216 H 0.49712 0.73758 0.7175 0.0
H1217 H 0.49114 0.71189 0.6741 0.0
C1218 C 0.52107 0.68948 0.65955 0.0
C1219 C 0.53885 0.67955 0.65435 0.0
C1220 C 0.52405 0.70401 0.68461 0.0
C1221 C 0.55934 0.684 0.67477 0.0
C1222 C 0.56213 0.69799 0.69993 0.0
C1223 C 0.54767 0.72257 0.73011 0.0
C1224 C 0.53072 0.73345 0.73485 0.0
C1225 C 0.54466 0.70814 0.70505 0.0
C1226 C 0.51048 0.72948 0.71425 0.0
C1227 C 0.50702 0.71474 0.6895 0.0
H1228 H 0.31942 0.83007 0.66851 0.0
H1229 H 0.36025 0.78636 0.65117 0.0
H1230 H 0.33384 0.75582 0.69103 0.0
H1231 H 0.29716 0.74019 0.72903 0.0
H1232 H 0.25627 0.78411 0.74565 0.0
H1233 H 0.28453 0.81568 0.70792 0.0
C1234 C 0.32251 0.81385 0.67341 0.0
C1235 C 0.34169 0.81049 0.65669 0.0
C1236 C 0.30712 0.79626 0.69623 0.0
C1237 C 0.3458 0.78958 0.66378 0.0
C1238 C 0.33055 0.77198 0.68648 0.0
C1239 C 0.29458 0.75676 0.72458 0.0
C1240 C 0.27442 0.75958 0.7401 0.0
C1241 C 0.3109 0.77495 0.70263 0.0
C1242 C 0.27147 0.78128 0.73402 0.0
C1243 C 0.28763 0.7994 0.71237 0.0
H1244 H 0.16462 0.49941 0.68963 0.0
H1245 H 0.20575 0.50127 0.60752 0.0
H1246 H 0.23859 0.49364 0.63559 0.0
H1247 H 0.25485 0.48527 0.68324 0.0
H1248 H 0.21436 0.48408 0.76569 0.0
H1249 H 0.18207 0.49267 0.73774 0.0
C1250 C 0.18067 0.49797 0.67789 0.0
C1251 C 0.18258 0.50068 0.64644 0.0
C1252 C 0.19961 0.49377 0.69424 0.0
C1253 C 0.20388 0.49935 0.63164 0.0
C1254 C 0.2226 0.4949 0.64769 0.0
C1255 C 0.23903 0.48696 0.69519 0.0
C1256 C 0.23699 0.48387 0.72659 0.0
C1257 C 0.22058 0.49195 0.67897 0.0
C1258 C 0.21647 0.48639 0.74159 0.0
C1259 C 0.19792 0.49121 0.72558 0.0
H1260 H 0.41454 0.84291 0.15924 0.0
H1261 H 0.40468 0.9042 0.11874 0.0
H1262 H 0.37283 0.89975 0.15836 0.0
H1263 H 0.34896 0.87966 0.20561 0.0
H1264 H 0.35835 0.81834 0.24638 0.0
H1265 H 0.38889 0.82144 0.20557 0.0
C1266 C 0.40524 0.85514 0.1589 0.0
C1267 C 0.4122 0.87395 0.13596 0.0
C1268 C 0.38689 0.85256 0.18196 0.0
C1269 C 0.39985 0.88959 0.13601 0.0
C1270 C 0.38163 0.88711 0.15877 0.0
C1271 C 0.35779 0.86705 0.20566 0.0
C1272 C 0.3515 0.84893 0.22922 0.0
C1273 C 0.37529 0.86892 0.18208 0.0
C1274 C 0.3627 0.83238 0.22851 0.0
C1275 C 0.38027 0.83422 0.20521 0.0
H1276 H 0.23309 0.60645 0.14953 0.0
H1277 H 0.15117 0.55826 0.12474 0.0
H1278 H 0.14702 0.52716 0.16354 0.0
H1279 H 0.16575 0.5144 0.20602 0.0
H1280 H 0.24708 0.56291 0.23216 0.0
H1281 H 0.25243 0.59281 0.19117 0.0
C1282 C 0.21445 0.58901 0.15237 0.0
C1283 C 0.19247 0.5848 0.13425 0.0
C1284 C 0.21201 0.57125 0.17511 0.0
C1285 C 0.1684 0.56211 0.13841 0.0
C1286 C 0.16596 0.54428 0.16066 0.0
C1287 C 0.18461 0.53156 0.20291 0.0
C1288 C 0.20588 0.53637 0.2224 0.0
C1289 C 0.18746 0.54883 0.17947 0.0
C1290 C 0.23039 0.55852 0.21748 0.0
C1291 C 0.23344 0.57575 0.19408 0.0
H1292 H 0.52026 0.63643 0.24142 0.0
H1293 H 0.52272 0.70495 0.2052 0.0
H1294 H 0.49791 0.68275 0.16191 0.0
H1295 H 0.47501 0.64368 0.13446 0.0
H1296 H 0.47404 0.57567 0.17022 0.0
H1297 H 0.49887 0.59794 0.21335 0.0
C1298 C 0.51574 0.64668 0.22396 0.0
C1299 C 0.52346 0.67243 0.22683 0.0
C1300 C 0.5016 0.63383 0.19895 0.0
C1301 C 0.51682 0.68511 0.204 0.0
C1302 C 0.50273 0.67244 0.17905 0.0
C1303 C 0.48047 0.63377 0.15147 0.0
C1304 C 0.47243 0.60791 0.14898 0.0
C1305 C 0.49495 0.64677 0.1763 0.0
C1306 C 0.47947 0.5954 0.17162 0.0
C1307 C 0.49385 0.60818 0.19629 0.0
H1308 H 0.14357 0.59785 0.62174 0.0
H1309 H 0.22731 0.61651 0.62648 0.0
H1310 H 0.23259 0.64276 0.66904 0.0
H1311 H 0.21238 0.65772 0.70771 0.0
H1312 H 0.12809 0.63689 0.70388 0.0
H1313 H 0.12407 0.61426 0.65847 0.0
C1314 C 0.16313 0.608 0.63169 0.0
C1315 C 0.18503 0.6052 0.62075 0.0
C1316 C 0.16583 0.62247 0.65674 0.0
C1317 C 0.2101 0.6183 0.63433 0.0
C1318 C 0.21311 0.63326 0.65881 0.0
C1319 C 0.19326 0.64849 0.69667 0.0
C1320 C 0.17051 0.64884 0.70939 0.0
C1321 C 0.19098 0.63507 0.67064 0.0
C1322 C 0.1458 0.63659 0.69491 0.0
C1323 C 0.14351 0.62372 0.66882 0.0
H1324 H 0.35312 0.49735 0.68077 0.0
H1325 H 0.38328 0.54145 0.75844 0.0
H1326 H 0.42102 0.57404 0.7286 0.0
H1327 H 0.44709 0.5881 0.68107 0.0
H1328 H 0.41519 0.54529 0.6025 0.0
H1329 H 0.37619 0.51414 0.63173 0.0
C1330 C 0.36787 0.5143 0.69088 0.0
C1331 C 0.36582 0.51711 0.72164 0.0
C1332 C 0.38909 0.53302 0.67345 0.0
C1333 C 0.38466 0.53912 0.73475 0.0
C1334 C 0.4062 0.5576 0.71773 0.0
C1335 C 0.43139 0.5721 0.67032 0.0
C1336 C 0.43408 0.56881 0.63978 0.0
C1337 C 0.40889 0.55451 0.68718 0.0
C1338 C 0.4135 0.54823 0.62596 0.0
C1339 C 0.39131 0.53035 0.64271 0.0
H1340 H 0.54257 0.8533 0.68288 0.0
H1341 H 0.4783 0.80332 0.74327 0.0
H1342 H 0.44524 0.79884 0.70579 0.0
H1343 H 0.43421 0.80892 0.65575 0.0
H1344 H 0.49759 0.86177 0.59669 0.0
H1345 H 0.53124 0.86517 0.63341 0.0
C1346 C 0.52132 0.84154 0.68786 0.0
C1347 C 0.51303 0.82869 0.71596 0.0
C1348 C 0.50221 0.83936 0.66626 0.0
C1349 C 0.48535 0.81362 0.72203 0.0
C1350 C 0.46636 0.8109 0.70049 0.0
C1351 C 0.45543 0.82095 0.6508 0.0
C1352 C 0.46346 0.83471 0.62331 0.0
C1353 C 0.47453 0.82356 0.67249 0.0
C1354 C 0.49095 0.8508 0.61756 0.0
C1355 C 0.51017 0.8528 0.63861 0.0
H1356 H 0.29018 0.48587 0.24826 0.0
H1357 H 0.32154 0.56515 0.26356 0.0
H1358 H 0.35127 0.57571 0.21993 0.0
H1359 H 0.36675 0.56293 0.17586 0.0
H1360 H 0.33692 0.48405 0.16007 0.0
H1361 H 0.30837 0.4729 0.20541 0.0
C1362 C 0.30375 0.50545 0.24228 0.0
C1363 C 0.30338 0.52467 0.2593 0.0
C1364 C 0.32094 0.51151 0.21686 0.0
C1365 C 0.32121 0.54992 0.25106 0.0
C1366 C 0.33822 0.55603 0.22595 0.0
C1367 C 0.35404 0.54325 0.18228 0.0
C1368 C 0.35376 0.52435 0.1643 0.0
C1369 C 0.33793 0.53704 0.20841 0.0
C1370 C 0.33749 0.49898 0.17338 0.0
C1371 C 0.32112 0.49262 0.1993 0.0
H1372 H 0.48658 0.75471 0.24477 0.0
H1373 H 0.56645 0.80798 0.27092 0.0
H1374 H 0.56758 0.83851 0.23308 0.0
H1375 H 0.54711 0.8495 0.19086 0.0
H1376 H 0.46766 0.79664 0.16373 0.0
H1377 H 0.46502 0.76676 0.20379 0.0
C1378 C 0.50409 0.7731 0.24244 0.0
C1379 C 0.52645 0.77889 0.26064 0.0
C1380 C 0.50478 0.79065 0.2203 0.0
C1381 C 0.54899 0.80286 0.25719 0.0
C1382 C 0.54971 0.82039 0.23547 0.0
C1383 C 0.52926 0.83141 0.1936 0.0
C1384 C 0.50775 0.82524 0.17407 0.0
C1385 C 0.52795 0.81433 0.21656 0.0
C1386 C 0.48448 0.80192 0.17848 0.0
C1387 C 0.48302 0.78478 0.20132 0.0
H1388 H 0.27102 0.73365 0.24831 0.0
H1389 H 0.21053 0.7564 0.26761 0.0
H1390 H 0.18429 0.73295 0.22581 0.0
H1391 H 0.17939 0.70778 0.1821 0.0
H1392 H 0.23953 0.68495 0.16217 0.0
H1393 H 0.26475 0.70632 0.20589 0.0
C1394 C 0.25194 0.73323 0.24363 0.0
C1395 C 0.24294 0.74697 0.26116 0.0
C1396 C 0.23689 0.71978 0.21923 0.0
C1397 C 0.21812 0.74615 0.25458 0.0
C1398 C 0.20306 0.73277 0.23055 0.0
C1399 C 0.19806 0.70754 0.18723 0.0
C1400 C 0.20763 0.69494 0.16862 0.0
C1401 C 0.21246 0.7199 0.2124 0.0
C1402 C 0.2316 0.69438 0.1761 0.0
C1403 C 0.2461 0.70671 0.20107 0.0
H1404 H 0.20166 0.20995 0.32456 0.0
H1405 H 0.11583 0.16564 0.33813 0.0
H1406 H 0.11295 0.14465 0.29137 0.0
H1407 H 0.13508 0.13823 0.24721 0.0
H1408 H 0.22119 0.182 0.23516 0.0
H1409 H 0.22351 0.20399 0.28051 0.0
C1410 C 0.18223 0.19578 0.31732 0.0
C1411 C 0.15898 0.1894 0.33501 0.0
C1412 C 0.18076 0.18366 0.29059 0.0
C1413 C 0.13406 0.17098 0.32506 0.0
C1414 C 0.13242 0.15892 0.29832 0.0
C1415 C 0.15441 0.15244 0.25452 0.0
C1416 C 0.17794 0.15829 0.23749 0.0
C1417 C 0.15569 0.16494 0.28101 0.0
C1418 C 0.20268 0.17717 0.24733 0.0
C1419 C 0.20407 0.18971 0.27348 0.0
H1420 H 0.86417 0.03198 0.32967 0.0
H1421 H 0.86093 0.95898 0.32683 0.0
H1422 H 0.87066 0.96542 0.273 0.0
H1423 H 0.87668 0.99056 0.22597 0.0
H1424 H 0.88019 0.06372 0.22968 0.0
H1425 H 0.874 0.05845 0.28375 0.0
C1426 C 0.86583 0.01753 0.31738 0.0
C1427 C 0.86157 0.99492 0.33236 0.0
C1428 C 0.87138 0.02134 0.28642 0.0
C1429 C 0.86409 0.97656 0.31599 0.0
C1430 C 0.86955 0.9802 0.28511 0.0
C1431 C 0.87643 1.0055 0.23861 0.0
C1432 C 0.87872 0.02744 0.2235 0.0
C1433 C 0.87274 1.00233 0.26996 0.0
C1434 C 0.87844 0.0466 0.24047 0.0
C1435 C 0.87479 0.04358 0.2715 0.0
H1436 H 1.00134 0.8119 0.22819 0.0
H1437 H 0.95345 0.85056 0.22037 0.0
H1438 H 0.97092 0.87073 0.26762 0.0
H1439 H 1.00049 0.87795 0.31065 0.0
H1440 H 0.0492 0.83999 0.31712 0.0
H1441 H 0.0304 0.81878 0.27112 0.0
C1442 C 0.99457 0.82465 0.2368 0.0
C1443 C 0.97608 0.82969 0.2206 0.0
C1444 C 1.00485 0.83632 0.26382 0.0
C1445 C 0.96764 0.8463 0.23227 0.0
C1446 C 0.97767 0.85788 0.2593 0.0
C1447 C 1.0072 0.8652 0.30197 0.0
C1448 C 0.0264 0.86072 0.31759 0.0
C1449 C 0.99647 0.85319 0.27516 0.0
C1450 C 0.03432 0.84369 0.30602 0.0
C1451 C 0.02366 0.83162 0.27951 0.0
H1452 H 0.87235 0.88415 0.71613 0.0
H1453 H 0.88662 0.82145 0.74095 0.0
H1454 H 0.87185 0.82175 0.79211 0.0
H1455 H 0.8526 0.83808 0.82922 0.0
H1456 H 0.83787 0.90057 0.80512 0.0
H1457 H 0.85522 0.90211 0.75441 0.0
C1458 C 0.87253 0.8707 0.73277 0.0
C1459 C 0.88057 0.85272 0.72444 0.0
C1460 C 0.86374 0.87082 0.76231 0.0
C1461 C 0.88057 0.83549 0.74649 0.0
C1462 C 0.87202 0.83559 0.77583 0.0
C1463 C 0.85324 0.85216 0.81299 0.0
C1464 C 0.84369 0.86908 0.82109 0.0
C1465 C 0.86317 0.85289 0.78388 0.0
C1466 C 0.84501 0.88729 0.79964 0.0
C1467 C 0.85489 0.88813 0.77057 0.0
H1468 H 0.16543 0.99582 0.71758 0.0
H1469 H 0.20812 0.07208 0.74688 0.0
H1470 H 0.19949 0.05647 0.79895 0.0
H1471 H 0.18154 0.02114 0.83612 0.0
H1472 H 0.14051 0.94481 0.80677 0.0
H1473 H 0.14674 0.96052 0.75478 0.0
C1474 C 0.17266 0.00909 0.73533 0.0
C1475 C 0.1874 0.03513 0.72825 0.0
C1476 C 0.16804 0.99995 0.76524 0.0
C1477 C 0.19676 0.05196 0.75162 0.0
C1478 C 0.19185 0.04304 0.78143 0.0
C1479 C 0.17378 0.0079 0.8184 0.0
C1480 C 0.16057 0.98179 0.82543 0.0
C1481 C 0.17778 0.01706 0.7885 0.0
C1482 C 0.15079 0.96497 0.80207 0.0
C1483 C 0.15435 0.97396 0.7723 0.0
H1484 H 0.03231 0.18019 0.72375 0.0
H1485 H 0.96215 0.10889 0.74367 0.0
H1486 H 0.97928 0.10699 0.7933 0.0
H1487 H 1.01257 0.12719 0.83249 0.0
H1488 H 0.08242 0.19874 0.81226 0.0
H1489 H 0.06709 0.19876 0.76141 0.0
C1490 C 0.02082 0.16407 0.73878 0.0
C1491 C 0.99581 0.14479 0.72989 0.0
C1492 C 0.03071 0.1632 0.76742 0.0
C1493 C 0.98142 0.12401 0.74976 0.0
C1494 C 0.99118 0.12297 0.77826 0.0
C1495 C 0.02465 0.14267 0.81689 0.0
C1496 C 0.04862 0.16303 0.82648 0.0
C1497 C 1.01556 0.14269 0.78756 0.0
C1498 C 0.06392 0.18284 0.80574 0.0
C1499 C 0.0551 0.18291 0.77658 0.0
H1500 H 0.86352 0.54057 0.6599 0.0
H1501 H 0.7772 0.49891 0.67067 0.0
H1502 H 0.77432 0.47981 0.62254 0.0
H1503 H 0.79637 0.47495 0.57752 0.0
H1504 H 0.88299 0.51561 0.56823 0.0
H1505 H 0.88548 0.53531 0.61536 0.0
C1506 C 0.844 0.52735 0.65177 0.0
C1507 C 0.82058 0.52126 0.66902 0.0
C1508 C 0.84252 0.5163 0.62419 0.0
C1509 C 0.79556 0.50398 0.658 0.0
C1510 C 0.79391 0.49305 0.63042 0.0
C1511 C 0.81588 0.48791 0.58574 0.0
C1512 C 0.83945 0.4936 0.56882 0.0
C1513 C 0.81728 0.49901 0.61335 0.0
C1514 C 0.8644 0.5109 0.58013 0.0
C1515 C 0.86591 0.52215 0.60736 0.0
H1516 H 0.55881 0.36785 0.6635 0.0
H1517 H 0.50465 0.28817 0.65992 0.0
H1518 H 0.50541 0.2918 0.6055 0.0
H1519 H 0.51939 0.31785 0.55888 0.0
H1520 H 0.57383 0.39745 0.56207 0.0
H1521 H 0.57511 0.3935 0.61645 0.0
C1522 C 0.54734 0.35122 0.65084 0.0
C1523 C 0.53158 0.32778 0.66601 0.0
C1524 C 0.54781 0.35342 0.61936 0.0
C1525 C 0.51697 0.30646 0.64905 0.0
C1526 C 0.51731 0.30852 0.61783 0.0
C1527 C 0.53171 0.33434 0.5714 0.0
C1528 C 0.54637 0.35795 0.55625 0.0
C1529 C 0.53235 0.33195 0.60275 0.0
C1530 C 0.56234 0.37903 0.57299 0.0
C1531 C 0.56302 0.3768 0.60418 0.0
H1532 H 0.65963 0.13159 0.55589 0.0
H1533 H 0.62559 0.18147 0.5368 0.0
H1534 H 0.64229 0.20189 0.58413 0.0
H1535 H 0.6671 0.20589 0.63045 0.0
H1536 H 0.70282 0.15701 0.64778 0.0
H1537 H 0.68446 0.1357 0.60184 0.0
C1538 C 0.65569 0.14686 0.56205 0.0
C1539 C 0.64129 0.15493 0.54271 0.0
C1540 C 0.66562 0.15869 0.58908 0.0
C1541 C 0.6366 0.17485 0.55116 0.0
C1542 C 0.64617 0.18654 0.57825 0.0
C1543 C 0.67115 0.19074 0.62424 0.0
C1544 C 0.68653 0.18327 0.64299 0.0
C1545 C 0.66088 0.17873 0.5973 0.0
C1546 C 0.69092 0.16317 0.63436 0.0
C1547 C 0.68053 0.15099 0.60784 0.0
H1548 H 0.55579 0.21264 0.05812 0.0
H1549 H 0.53874 0.13522 0.07346 0.0
H1550 H 0.51951 0.13433 0.12259 0.0
H1551 H 0.50532 0.15454 0.16026 0.0
H1552 H 0.52188 0.23182 0.14567 0.0
H1553 H 0.5435 0.23371 0.09739 0.0
C1554 C 0.54816 0.19565 0.07232 0.0
C1555 C 0.54874 0.17399 0.06182 0.0
C1556 C 0.5368 0.19515 0.10069 0.0
C1557 C 0.53862 0.15217 0.0807 0.0
C1558 C 0.5275 0.15161 0.10887 0.0
C1559 C 0.51371 0.17189 0.14664 0.0
C1560 C 0.51172 0.19297 0.15667 0.0
C1561 C 0.5261 0.17283 0.11892 0.0
C1562 C 0.523 0.21528 0.13864 0.0
C1563 C 0.53537 0.21635 0.11095 0.0
H1564 H 0.83008 0.32758 0.04655 0.0
H1565 H 0.86278 0.40474 0.07233 0.0
H1566 H 0.85182 0.39052 0.12468 0.0
H1567 H 0.83569 0.35642 0.16341 0.0
H1568 H 0.80488 0.27938 0.1378 0.0
H1569 H 0.81222 0.29333 0.08516 0.0
C1570 C 0.83455 0.34131 0.06354 0.0
C1571 C 0.84731 0.36724 0.05542 0.0
C1572 C 0.82865 0.33302 0.09371 0.0
C1573 C 0.85306 0.3847 0.07787 0.0
C1574 C 0.84682 0.37658 0.10786 0.0
C1575 C 0.83026 0.3426 0.14634 0.0
C1576 C 0.81977 0.31684 0.15467 0.0
C1577 C 0.83502 0.35081 0.11609 0.0
C1578 C 0.81302 0.2993 0.13213 0.0
C1579 C 0.81726 0.30728 0.10198 0.0
H1580 H 0.70086 0.51524 0.05551 0.0
H1581 H 0.63873 0.43853 0.0703 0.0
H1582 H 0.65803 0.43619 0.11854 0.0
H1583 H 0.69045 0.4573 0.15848 0.0
H1584 H 0.75234 0.53416 0.14282 0.0
H1585 H 0.73533 0.53491 0.09309 0.0
C1586 C 0.69165 0.49786 0.06909 0.0
C1587 C 0.6682 0.47714 0.05926 0.0
C1588 C 0.70276 0.49672 0.09686 0.0
C1589 C 0.65678 0.45476 0.07716 0.0
C1590 C 0.66775 0.45347 0.10488 0.0
C1591 C 0.70048 0.47412 0.14406 0.0
C1592 C 0.72262 0.49572 0.15474 0.0
C1593 C 0.69044 0.47453 0.11528 0.0
C1594 C 0.73527 0.51726 0.1355 0.0
C1595 C 0.72549 0.51776 0.10697 0.0
H1596 H 0.53645 0.87989 0.99423 0.0
H1597 H 0.45108 0.83258 1.00805 0.0
H1598 H 0.44894 0.81287 0.96054 0.0
H1599 H 0.47149 0.80862 0.91543 0.0
H1600 H 0.55712 0.85541 0.90273 0.0
H1601 H 0.55879 0.87592 0.94918 0.0
C1602 C 0.51729 0.86532 0.9869 0.0
C1603 C 0.49394 0.85775 1.00488 0.0
C1604 C 0.51624 0.85396 0.95963 0.0
C1605 C 0.46937 0.83883 0.9948 0.0
C1606 C 0.46815 0.82751 0.9676 0.0
C1607 C 0.49059 0.82316 0.92283 0.0
C1608 C 0.51417 0.83031 0.90529 0.0
C1609 C 0.4915 0.8348 0.94991 0.0
C1610 C 0.53858 0.8496 0.91529 0.0
C1611 C 0.5396 0.86128 0.94207 0.0
H1612 H 0.19488 0.64725 0.88622 0.0
H1613 H 0.2259 0.72784 0.88828 0.0
H1614 H 0.22529 0.7253 0.94275 0.0
H1615 H 0.21254 0.69993 0.98994 0.0
H1616 H 0.18205 0.61943 0.9882 0.0
H1617 H 0.18614 0.6223 0.93371 0.0
C1618 C 0.20182 0.66431 0.89855 0.0
C1619 C 0.21023 0.68768 0.88297 0.0
C1620 C 0.20139 0.66274 0.93005 0.0
C1621 C 0.21931 0.70958 0.89948 0.0
C1622 C 0.21886 0.70815 0.93074 0.0
C1623 C 0.20707 0.68302 0.9777 0.0
C1624 C 0.1968 0.65947 0.99328 0.0
C1625 C 0.20942 0.68479 0.94628 0.0
C1626 C 0.19004 0.63782 0.97693 0.0
C1627 C 0.19224 0.63943 0.94568 0.0
H1628 H 0.32454 0.52222 0.97436 0.0
H1629 H 0.38247 0.49421 0.97819 0.0
H1630 H 0.3684 0.47596 0.92961 0.0
H1631 H 0.34057 0.46877 0.88523 0.0
H1632 H 0.28344 0.49766 0.88058 0.0
H1633 H 0.29656 0.51494 0.92999 0.0
C1634 C 0.33431 0.51232 0.96459 0.0
C1635 C 0.35468 0.50976 0.98028 0.0
C1636 C 0.3263 0.50204 0.9363 0.0
C1637 C 0.36659 0.49635 0.96713 0.0
C1638 C 0.35865 0.486 0.93912 0.0
C1639 C 0.33089 0.47879 0.89498 0.0
C1640 C 0.311 0.48188 0.879 0.0
C1641 C 0.33863 0.48881 0.92342 0.0
C1642 C 0.29879 0.49497 0.8922 0.0
C1643 C 0.30631 0.50488 0.92052 0.0
H1644 H 0.22373 0.5469 0.49019 0.0
H1645 H 0.13851 0.51878 0.47798 0.0
H1646 H 0.14198 0.50316 0.42966 0.0
H1647 H 0.16844 0.49613 0.3914 0.0
H1648 H 0.25379 0.52471 0.40158 0.0
H1649 H 0.25102 0.54153 0.44993 0.0
C1650 C 0.20593 0.53748 0.4769 0.0
C1651 C 0.18083 0.53401 0.48805 0.0
C1652 C 0.20805 0.52851 0.44873 0.0
C1653 C 0.15809 0.52181 0.47025 0.0
C1654 C 0.16002 0.51277 0.44252 0.0
C1655 C 0.18654 0.50604 0.4041 0.0
C1656 C 0.21129 0.50891 0.39285 0.0
C1657 C 0.18479 0.51579 0.43166 0.0
C1658 C 0.23448 0.52215 0.40961 0.0
C1659 C 0.23286 0.53174 0.43733 0.0
H1660 H 0.51443 0.68897 0.50085 0.0
H1661 H 0.48012 0.61119 0.47703 0.0
H1662 H 0.48434 0.62407 0.42415 0.0
H1663 H 0.50022 0.6575 0.38455 0.0
H1664 H 0.53601 0.73537 0.40834 0.0
H1665 H 0.52853 0.72231 0.46125 0.0
C1666 C 0.50764 0.67477 0.48414 0.0
C1667 C 0.49705 0.6491 0.49305 0.0
C1668 C 0.51047 0.68234 0.45368 0.0
C1669 C 0.48842 0.63106 0.47095 0.0
C1670 C 0.49085 0.63842 0.44064 0.0
C1671 C 0.50614 0.67165 0.40125 0.0
C1672 C 0.51875 0.69743 0.39233 0.0
C1673 C 0.5022 0.66403 0.43172 0.0
C1674 C 0.52633 0.71542 0.41444 0.0
C1675 C 0.52211 0.70796 0.44476 0.0
H1676 H 0.33344 0.80145 0.49997 0.0
H1677 H 0.41507 0.85359 0.47269 0.0
H1678 H 0.40105 0.85285 0.42104 0.0
H1679 H 0.36527 0.83951 0.38404 0.0
H1680 H 0.28347 0.78794 0.41127 0.0
H1681 H 0.29797 0.78633 0.46235 0.0
C1682 C 0.34829 0.81246 0.48272 0.0
C1683 C 0.37536 0.82763 0.49045 0.0
C1684 C 0.34 0.81221 0.45298 0.0
C1685 C 0.39416 0.84174 0.4676 0.0
C1686 C 0.38611 0.84141 0.43799 0.0
C1687 C 0.35056 0.82775 0.40105 0.0
C1688 C 0.3232 0.81395 0.39365 0.0
C1689 C 0.35903 0.82704 0.43049 0.0
C1690 C 0.3046 0.79878 0.41615 0.0
C1691 C 0.3129 0.7979 0.44545 0.0
H1692 H 0.30966 0.15427 0.11221 0.0
H1693 H 0.27871 0.18745 0.17539 0.0
H1694 H 0.31927 0.20087 0.2046 0.0
H1695 H 0.36156 0.19977 0.21488 0.0
H1696 H 0.39294 0.16684 0.15226 0.0
H1697 H 0.35443 0.15703 0.11998 0.0
C1698 C 0.31193 0.16478 0.13212 0.0
C1699 C 0.29088 0.16958 0.14165 0.0
C1700 C 0.33533 0.17231 0.14907 0.0
C1701 C 0.2944 0.18338 0.16745 0.0
C1702 C 0.31759 0.19098 0.18431 0.0
C1703 C 0.36002 0.19056 0.19407 0.0
C1704 C 0.37988 0.1837 0.18617 0.0
C1705 C 0.33783 0.18496 0.17578 0.0
C1706 C 0.37795 0.17231 0.15882 0.0
C1707 C 0.35584 0.16658 0.14048 0.0
H1708 H 0.85085 0.18514 0.23936 0.0
H1709 H 0.81984 0.20721 0.16235 0.0
H1710 H 0.81585 0.17061 0.13638 0.0
H1711 H 0.82277 0.13309 0.13482 0.0
H1712 H 0.85434 0.11159 0.21177 0.0
H1713 H 0.85699 0.14744 0.23819 0.0
C1714 C 0.84342 0.18213 0.21682 0.0
C1715 C 0.83578 0.19911 0.20288 0.0
C1716 C 0.84141 0.16116 0.20188 0.0
C1717 C 0.82565 0.19443 0.17382 0.0
C1718 C 0.8235 0.17354 0.15885 0.0
C1719 C 0.82994 0.13607 0.15747 0.0
C1720 C 0.83848 0.11966 0.17117 0.0
C1721 C 0.83146 0.15683 0.1726 0.0
C1722 C 0.84803 0.12408 0.20047 0.0
C1723 C 0.84943 0.14454 0.21568 0.0
H1724 H 0.8272 0.64991 0.2426 0.0
H1725 H 0.81732 0.60529 0.16573 0.0
H1726 H 0.8507 0.64242 0.13779 0.0
H1727 H 0.88199 0.68789 0.13462 0.0
H1728 H 0.89131 0.73253 0.21126 0.0
H1729 H 0.85845 0.69523 0.2395 0.0
C1730 C 0.8321 0.64826 0.21967 0.0
C1731 C 0.8196 0.62465 0.20644 0.0
C1732 C 0.85117 0.66981 0.20354 0.0
C1733 C 0.82674 0.62301 0.17677 0.0
C1734 C 0.84576 0.64433 0.16063 0.0
C1735 C 0.87705 0.68944 0.15758 0.0
C1736 C 0.88914 0.71309 0.1707 0.0
C1737 C 0.85809 0.66784 0.17376 0.0
C1738 C 0.88211 0.71471 0.2004 0.0
C1739 C 0.8634 0.69333 0.21666 0.0
H1740 H 0.18262 0.36602 0.31347 0.0
H1741 H 0.21938 0.41277 0.38809 0.0
H1742 H 0.2185 0.37675 0.416 0.0
H1743 H 0.20594 0.3315 0.41981 0.0
H1744 H 0.16868 0.28504 0.3451 0.0
H1745 H 0.17056 0.32128 0.31698 0.0
C1746 C 0.19021 0.36839 0.33593 0.0
C1747 C 0.20093 0.39221 0.34859 0.0
C1748 C 0.1894 0.34753 0.35198 0.0
C1749 C 0.21123 0.39482 0.37757 0.0
C1750 C 0.21059 0.37415 0.39365 0.0
C1751 C 0.19847 0.32934 0.39729 0.0
C1752 C 0.18703 0.30543 0.38473 0.0
C1753 C 0.19962 0.35036 0.38113 0.0
C1754 C 0.17717 0.30303 0.35558 0.0
C1755 C 0.17838 0.32381 0.33937 0.0
H1756 H 0.68663 0.80374 0.34864 0.0
H1757 H 0.628 0.83092 0.34607 0.0
H1758 H 0.66065 0.87068 0.36603 0.0
H1759 H 0.70615 0.89817 0.38351 0.0
H1760 H 0.76477 0.87099 0.38585 0.0
H1761 H 0.7321 0.83123 0.36593 0.0
C1762 C 0.68099 0.81838 0.35217 0.0
C1763 C 0.65472 0.8141 0.34582 0.0
C1764 C 0.7 0.84141 0.36342 0.0
C1765 C 0.64783 0.83334 0.35108 0.0
C1766 C 0.6666 0.85625 0.36233 0.0
C1767 C 0.71177 0.88352 0.37989 0.0
C1768 C 0.73804 0.88778 0.38618 0.0
C1769 C 0.69275 0.86051 0.36858 0.0
C1770 C 0.74493 0.86857 0.38086 0.0
C1771 C 0.72615 0.84566 0.36964 0.0
H1772 H 0.16968 0.82164 0.33539 0.0
H1773 H 0.23293 0.85137 0.39929 0.0
H1774 H 0.20458 0.8617 0.43176 0.0
H1775 H 0.1631 0.86547 0.43974 0.0
H1776 H 0.09968 0.83479 0.37573 0.0
H1777 H 0.12664 0.82148 0.34576 0.0
C1778 C 0.17718 0.83026 0.35652 0.0
C1779 C 0.20352 0.83605 0.36476 0.0
C1780 C 0.16072 0.83603 0.37501 0.0
C1781 C 0.21276 0.84672 0.39248 0.0
C1782 C 0.19658 0.85274 0.41094 0.0
C1783 C 0.15499 0.85556 0.41945 0.0
C1784 C 0.12938 0.85139 0.40998 0.0
C1785 C 0.1707 0.84794 0.40215 0.0
C1786 C 0.11924 0.83832 0.38369 0.0
C1787 C 0.13474 0.83079 0.36638 0.0
H1788 H 0.7176 0.85492 0.82305 0.0
H1789 H 0.68671 0.85774 0.91004 0.0
H1790 H 0.64555 0.85438 0.88807 0.0
H1791 H 0.61639 0.84637 0.84482 0.0
H1792 H 0.64566 0.84054 0.75791 0.0
H1793 H 0.68918 0.84961 0.77882 0.0
C1794 C 0.70202 0.8553 0.83697 0.0
C1795 C 0.70513 0.85653 0.86812 0.0
C1796 C 0.67794 0.8526 0.82417 0.0
C1797 C 0.68465 0.85665 0.88605 0.0
C1798 C 0.66111 0.85471 0.87348 0.0
C1799 C 0.63244 0.84757 0.83031 0.0
C1800 C 0.62764 0.84275 0.79979 0.0
C1801 C 0.65721 0.85204 0.84266 0.0
C1802 C 0.6487 0.84411 0.78148 0.0
C1803 C 0.67363 0.84923 0.79345 0.0
H1804 H 0.14697 0.78827 0.80716 0.0
H1805 H 0.20211 0.78185 0.86927 0.0
H1806 H 0.20525 0.81786 0.89542 0.0
H1807 H 0.19232 0.851 0.90109 0.0
H1808 H 0.13546 0.85651 0.84089 0.0
H1809 H 0.13327 0.82124 0.81355 0.0
C1810 C 0.15949 0.79455 0.82656 0.0
C1811 C 0.17436 0.78223 0.836 0.0
C1812 C 0.16103 0.81526 0.84184 0.0
C1813 C 0.19075 0.79104 0.86103 0.0
C1814 C 0.19246 0.81162 0.8762 0.0
C1815 C 0.17919 0.84443 0.88222 0.0
C1816 C 0.16401 0.85655 0.87332 0.0
C1817 C 0.17768 0.82385 0.86683 0.0
C1818 C 0.14763 0.8479 0.84824 0.0
C1819 C 0.14621 0.82753 0.83264 0.0
H1820 H 0.20195 0.38137 0.85421 0.0
H1821 H 0.22461 0.34094 0.79218 0.0
H1822 H 0.1925 0.30102 0.81606 0.0
H1823 H 0.15642 0.27737 0.85274 0.0
H1824 H 0.13468 0.3174 0.91643 0.0
H1825 H 0.16782 0.35742 0.89368 0.0
C1826 C 0.20015 0.36386 0.84619 0.0
C1827 C 0.2155 0.36429 0.82108 0.0
C1828 C 0.18156 0.34075 0.86015 0.0
C1829 C 0.2127 0.34129 0.81098 0.0
C1830 C 0.19439 0.31836 0.82474 0.0
C1831 C 0.15903 0.29472 0.86206 0.0
C1832 C 0.14257 0.29399 0.88623 0.0
C1833 C 0.17841 0.31783 0.84905 0.0
C1834 C 0.14645 0.31703 0.89753 0.0
C1835 C 0.16563 0.34009 0.88462 0.0
H1836 H 0.81779 0.69911 0.66704 0.0
H1837 H 0.90216 0.74346 0.68499 0.0
H1838 H 0.90258 0.70682 0.70945 0.0
H1839 H 0.87921 0.66214 0.72544 0.0
H1840 H 0.79483 0.61766 0.70777 0.0
H1841 H 0.79446 0.65419 0.68269 0.0
C1842 C 0.83635 0.70077 0.67603 0.0
C1843 C 0.85989 0.7242 0.67415 0.0
C1844 C 0.83652 0.6795 0.68995 0.0
C1845 C 0.88363 0.72591 0.68642 0.0
C1846 C 0.88394 0.70486 0.70027 0.0
C1847 C 0.86065 0.66041 0.71636 0.0
C1848 C 0.83706 0.63705 0.71868 0.0
C1849 C 0.86051 0.68158 0.70222 0.0
C1850 C 0.81337 0.63521 0.70613 0.0
C1851 C 0.81309 0.65619 0.69193 0.0
H1852 H 0.35534 0.15242 0.66345 0.0
H1853 H 0.29186 0.16214 0.7052 0.0
H1854 H 0.32501 0.19709 0.73291 0.0
H1855 H 0.37219 0.22565 0.74436 0.0
H1856 H 0.43543 0.2155 0.70252 0.0
H1857 H 0.40226 0.18051 0.67524 0.0
C1858 C 0.34869 0.16227 0.67839 0.0
C1859 C 0.32103 0.15457 0.68207 0.0
C1860 C 0.36789 0.1825 0.69411 0.0
C1861 C 0.31291 0.16737 0.70209 0.0
C1862 C 0.33191 0.18752 0.71783 0.0
C1863 C 0.37877 0.21569 0.7295 0.0
C1864 C 0.40645 0.22349 0.72552 0.0
C1865 C 0.35948 0.1953 0.71396 0.0
C1866 C 0.41443 0.21039 0.70577 0.0
C1867 C 0.3954 0.19017 0.69026 0.0
H1868 H 0.86112 0.15814 0.73978 0.0
H1869 H 0.8652 0.16921 0.64403 0.0
H1870 H 0.82599 0.17665 0.64585 0.0
H1871 H 0.79275 0.18319 0.67512 0.0
H1872 H 0.78778 0.17088 0.77086 0.0
H1873 H 0.82493 0.16054 0.76864 0.0
C1874 C 0.85332 0.16208 0.71932 0.0
C1875 C 0.86627 0.16344 0.69179 0.0
C1876 C 0.83064 0.16615 0.72059 0.0
C1877 C 0.85559 0.16803 0.66542 0.0
C1878 C 0.83326 0.17241 0.66651 0.0
C1879 C 0.79958 0.17795 0.6955 0.0
C1880 C 0.78759 0.17802 0.72318 0.0
C1881 C 0.82093 0.17196 0.69402 0.0
C1882 C 0.79653 0.17092 0.74928 0.0
C1883 C 0.81792 0.16517 0.74802 0.0
H1884 H 0.02763 0.54186 0.54653 0.0
H1885 H 0.05152 0.49323 0.50105 0.0
H1886 H 1.01152 0.47854 0.47038 0.0
H1887 H 0.96829 0.47751 0.45867 0.0
H1888 H 0.94416 0.52575 0.50487 0.0
H1889 H 0.98566 0.54252 0.533 0.0
C1890 C 0.02409 0.52798 0.53 0.0
C1891 C 0.04255 0.51849 0.52642 0.0
C1892 C 1.00092 0.51949 0.51256 0.0
C1893 C 0.03783 0.50096 0.50429 0.0
C1894 C 1.01483 0.49244 0.48682 0.0
C1895 C 0.97217 0.49188 0.47466 0.0
C1896 C 0.9529 0.50022 0.47965 0.0
C1897 C 0.99604 0.50132 0.49104 0.0
C1898 C 0.95848 0.51892 0.50048 0.0
C1899 C 0.98222 0.52848 0.5167 0.0
H1900 H 0.52316 0.51476 0.5758 0.0
H1901 H 0.51025 0.5492 0.4957 0.0
H1902 H 0.51151 0.51641 0.46608 0.0
H1903 H 0.51759 0.47862 0.46271 0.0
H1904 H 0.53048 0.44433 0.54302 0.0
H1905 H 0.52859 0.47677 0.57256 0.0
C1906 C 0.52085 0.51529 0.55184 0.0
C1907 C 0.51672 0.53461 0.53809 0.0
C1908 C 0.52179 0.49645 0.53489 0.0
C1909 C 0.5132 0.53453 0.50702 0.0
C1910 C 0.51408 0.51582 0.49 0.0
C1911 C 0.51972 0.47803 0.48669 0.0
C1912 C 0.52429 0.45896 0.50047 0.0
C1913 C 0.51846 0.49673 0.50368 0.0
C1914 C 0.52737 0.45888 0.53162 0.0
C1915 C 0.52612 0.47738 0.54862 0.0
H1916 H 0.54366 0.01482 0.45791 0.0
H1917 H 0.55286 0.06286 0.53102 0.0
H1918 H 0.51812 0.02719 0.55986 0.0
H1919 H 0.48581 0.98217 0.56479 0.0
H1920 H 0.47642 0.93414 0.49158 0.0
H1921 H 0.51098 0.96984 0.46267 0.0
C1922 C 0.53825 0.01748 0.48023 0.0
C1923 C 0.55095 0.04159 0.49219 0.0
C1924 C 0.5183 0.99682 0.4968 0.0
C1925 C 0.54326 0.04467 0.52103 0.0
C1926 C 0.52348 0.02421 0.53764 0.0
C1927 C 0.49106 0.9795 0.54242 0.0
C1928 C 0.47844 0.95535 0.53053 0.0
C1929 C 0.51087 1.00019 0.52577 0.0
C1930 C 0.48597 0.95233 0.50158 0.0
C1931 C 0.50566 0.97281 0.4849 0.0
H1932 H 0.55254 0.05985 1.01718 0.0
H1933 H 0.47104 0.02345 0.98626 0.0
H1934 H 0.464 0.98356 1.00976 0.0
H1935 H 0.48051 0.9591 0.04066 0.0
H1936 H 0.56175 0.9959 0.07217 0.0
H1937 H 0.56919 0.03545 0.04731 0.0
C1938 C 0.53315 0.04329 1.01575 0.0
C1939 C 0.51239 0.04484 0.99991 0.0
C1940 C 0.52914 0.02037 0.02956 0.0
C1941 C 0.48755 0.02291 0.99794 0.0
C1942 C 0.48343 1.00003 1.01155 0.0
C1943 C 0.49992 0.9757 0.04177 0.0
C1944 C 0.52049 0.9745 0.05841 0.0
C1945 C 0.50405 0.99853 0.0275 0.0
C1946 C 0.54544 0.99633 0.0599 0.0
C1947 C 0.54976 0.01897 0.04558 0.0
H1948 H 0.0176 0.49277 0.98097 0.0
H1949 H 0.96104 0.4789 0.05329 0.0
H1950 H 0.99366 0.5169 0.07703 0.0
H1951 H 0.03878 0.55347 0.0779 0.0
H1952 H 0.09511 0.56727 1.00527 0.0
H1953 H 0.06224 0.52971 0.98129 0.0
C1954 C 1.01246 0.49791 1.00204 0.0
C1955 C 0.98689 0.48287 1.01535 0.0
C1956 C 0.03135 0.51977 1.01559 0.0
C1957 C 0.98045 0.49019 0.0424 0.0
C1958 C 0.99916 0.51188 0.05607 0.0
C1959 C 0.04379 0.54847 0.05667 0.0
C1960 C 0.06954 0.56322 0.04356 0.0
C1961 C 0.02471 0.5268 0.0429 0.0
C1962 C 0.07568 0.55614 1.01616 0.0
C1963 C 0.05682 0.53469 1.00233 0.0
H1964 H 0.51391 0.46604 0.06669 0.0
H1965 H 0.54868 0.51341 0.98737 0.0
H1966 H 0.51477 0.52793 0.98984 0.0
H1967 H 0.4769 0.52904 1.01622 0.0
H1968 H 0.44259 0.48201 0.096 0.0
H1969 H 0.47478 0.46564 0.09173 0.0
C1970 C 0.51418 0.47962 0.04997 0.0
C1971 C 0.53411 0.48881 0.02703 0.0
C1972 C 0.49474 0.48804 0.0517 0.0
C1973 C 0.53361 0.50591 1.00517 0.0
C1974 C 0.51429 0.51435 1.0067 0.0
C1975 C 0.47631 0.5151 0.03263 0.0
C1976 C 0.45735 0.50693 0.05655 0.0
C1977 C 0.49499 0.50581 0.0301 0.0
C1978 C 0.45689 0.48871 0.07741 0.0
C1979 C 0.47537 0.47936 0.07501 0.0
loop_
_geom_bond_atom_site_label_1
_geom_bond_atom_site_label_2
_geom_bond_distance
_geom_bond_site_symmetry_2
_ccdc_geom_bond_type
Cu0 N1 1.999 . S
Cu0 O6 1.974 . S
Cu0 N11 1.985 . S
Cu0 O20 1.959 . S
N1 Cu0 1.999 . S
N1 C3 1.263 . S
N1 C5 1.389 . S
N2 C3 1.358 . S
N2 C4 1.400 . S
C3 N1 1.263 . S
C3 N2 1.358 . S
C3 H9 0.930 . S
C4 N2 1.400 . S
C4 C5 1.351 . S
C4 H21 0.930 . S
C5 N1 1.389 . S
C5 C4 1.351 . S
C5 H10 0.930 . S
O6 Cu0 1.974 . S
O6 C16 1.282 . S
C7 O8 1.261 . S
C7 O20 1.251 . S
O8 C7 1.261 . S
H9 C3 0.930 . S
H10 C5 0.930 . S
N11 Cu0 1.985 . S
N11 C13 1.335 . S
N11 C14 1.390 . S
N12 C13 1.345 . S
N12 C15 1.336 . S
C13 N11 1.335 . S
C13 N12 1.345 . S
C13 H18 0.930 . S
C14 N11 1.390 . S
C14 C15 1.346 . S
C14 H19 0.930 . S
C15 N12 1.336 . S
C15 C14 1.346 . S
C15 H22 0.929 . S
C16 O6 1.282 . S
C16 O17 1.216 . S
O17 C16 1.216 . S
H18 C13 0.930 . S
H19 C14 0.930 . S
O20 Cu0 1.959 . S
O20 C7 1.251 . S
H21 C4 0.930 . S
H22 C15 0.929 . S
Cu23 N24 1.999 . S
Cu23 O29 1.974 . S
Cu23 N34 1.985 . S
Cu23 O43 1.959 . S
N24 Cu23 1.999 . S
N24 C26 1.263 . S
N24 C28 1.389 1_545 S
N25 C26 1.358 1_565 S
N25 C27 1.400 . S
C26 N24 1.263 . S
C26 N25 1.358 1_545 S
C26 H32 0.930 . S
C27 N25 1.400 . S
C27 C28 1.351 . S
C27 H44 0.930 . S
C28 N24 1.389 1_565 S
C28 C27 1.351 . S
C28 H33 0.930 . S
O29 Cu23 1.974 . S
O29 C39 1.282 . S
C30 O31 1.261 . S
C30 O43 1.251 . S
O31 C30 1.261 . S
H32 C26 0.930 . S
H33 C28 0.930 . S
N34 Cu23 1.985 . S
N34 C36 1.335 . S
N34 C37 1.390 . S
N35 C36 1.345 . S
N35 C38 1.336 . S
C36 N34 1.335 . S
C36 N35 1.345 . S
C36 H41 0.930 . S
C37 N34 1.390 . S
C37 C38 1.346 . S
C37 H42 0.930 . S
C38 N35 1.336 . S
C38 C37 1.346 . S
C38 H45 0.929 . S
C39 O29 1.282 . S
C39 O40 1.216 . S
O40 C39 1.216 . S
H41 C36 0.930 . S
H42 C37 0.930 . S
O43 Cu23 1.959 . S
O43 C30 1.251 . S
H44 C27 0.930 . S
H45 C38 0.929 . S
Cu46 N47 1.999 . S
Cu46 O52 1.974 . S
Cu46 N57 1.985 . S
Cu46 O66 1.959 . S
N47 Cu46 1.999 . S
N47 C49 1.263 . S
N47 C51 1.405 . S
N48 C49 1.358 1_455 S
N48 C50 1.400 . S
C49 N47 1.263 . S
C49 N48 1.358 1_655 S
C49 H55 0.930 . S
C50 N48 1.400 . S
C50 C51 1.345 1_455 S
C50 H67 0.930 . S
C51 N47 1.405 . S
C51 C50 1.345 1_655 S
C51 H56 0.921 1_655 S
O52 Cu46 1.974 . S
O52 C62 1.282 . S
C53 O54 1.261 . S
C53 O66 1.251 . S
O54 C53 1.261 . S
H55 C49 0.930 . S
H56 C51 0.921 1_455 S
N57 Cu46 1.985 . S
N57 C59 1.335 . S
N57 C60 1.390 . S
N58 C59 1.345 . S
N58 C61 1.336 . S
C59 N57 1.335 . S
C59 N58 1.345 . S
C59 H64 0.930 . S
C60 N57 1.390 . S
C60 C61 1.346 . S
C60 H65 0.930 . S
C61 N58 1.336 . S
C61 C60 1.346 . S
C61 H68 0.929 . S
C62 O52 1.282 . S
C62 O63 1.216 . S
O63 C62 1.216 . S
H64 C59 0.930 . S
H65 C60 0.930 . S
O66 Cu46 1.959 . S
O66 C53 1.251 . S
H67 C50 0.930 . S
H68 C61 0.929 . S
Cu69 N70 1.999 . S
Cu69 O75 1.974 . S
Cu69 N80 1.985 . S
Cu69 O89 1.959 . S
N70 Cu69 1.999 . S
N70 C72 1.263 . S
N70 C74 1.389 . S
N71 C72 1.358 . S
N71 C73 1.400 . S
C72 N70 1.263 . S
C72 N71 1.358 . S
C72 H78 0.930 . S
C73 N71 1.400 . S
C73 C74 1.351 . S
C73 H90 0.930 . S
C74 N70 1.389 . S
C74 C73 1.351 . S
C74 H79 0.930 . S
O75 Cu69 1.974 . S
O75 C85 1.282 . S
C76 O77 1.261 . S
C76 O89 1.251 . S
O77 C76 1.261 . S
H78 C72 0.930 . S
H79 C74 0.930 . S
N80 Cu69 1.985 . S
N80 C82 1.335 . S
N80 C83 1.390 . S
N81 C82 1.345 . S
N81 C84 1.336 . S
C82 N80 1.335 . S
C82 N81 1.345 . S
C82 H87 0.930 . S
C83 N80 1.390 . S
C83 C84 1.346 . S
C83 H88 0.930 . S
C84 N81 1.336 . S
C84 C83 1.346 . S
C84 H91 0.929 . S
C85 O75 1.282 . S
C85 O86 1.216 . S
O86 C85 1.216 . S
H87 C82 0.930 . S
H88 C83 0.930 . S
O89 Cu69 1.959 . S
O89 C76 1.251 . S
H90 C73 0.930 . S
H91 C84 0.929 . S
Cu92 N93 1.999 . S
Cu92 O98 1.974 . S
Cu92 N103 1.985 . S
Cu92 O112 1.959 . S
N93 Cu92 1.999 . S
N93 C95 1.263 . S
N93 C97 1.389 1_565 S
N94 C95 1.358 1_545 S
N94 C96 1.400 . S
C95 N93 1.263 . S
C95 N94 1.358 1_565 S
C95 H101 0.930 . S
C96 N94 1.400 . S
C96 C97 1.351 . S
C96 H113 0.930 . S
C97 N93 1.389 1_545 S
C97 C96 1.351 . S
C97 H102 0.930 . S
O98 Cu92 1.974 . S
O98 C108 1.282 . S
C99 O100 1.261 . S
C99 O112 1.251 . S
O100 C99 1.261 . S
H101 C95 0.930 . S
H102 C97 0.930 . S
N103 Cu92 1.985 . S
N103 C105 1.335 . S
N103 C106 1.390 . S
N104 C105 1.345 . S
N104 C107 1.336 . S
C105 N103 1.335 . S
C105 N104 1.345 . S
C105 H110 0.930 . S
C106 N103 1.390 . S
C106 C107 1.346 . S
C106 H111 0.930 . S
C107 N104 1.336 . S
C107 C106 1.346 . S
C107 H114 0.929 . S
C108 O98 1.282 . S
C108 O109 1.216 . S
O109 C108 1.216 . S
H110 C105 0.930 . S
H111 C106 0.930 . S
O112 Cu92 1.959 . S
O112 C99 1.251 . S
H113 C96 0.930 . S
H114 C107 0.929 . S
Cu115 N116 1.999 . S
Cu115 O121 1.974 . S
Cu115 N126 1.985 . S
Cu115 O135 1.959 . S
N116 Cu115 1.999 . S
N116 C118 1.263 . S
N116 C120 1.389 . S
N117 C118 1.358 . S
N117 C119 1.400 1_455 S
C118 N116 1.263 . S
C118 N117 1.358 . S
C118 H124 0.930 . S
C119 N117 1.400 1_655 S
C119 C120 1.351 1_655 S
C119 H136 0.930 . S
C120 N116 1.389 . S
C120 C119 1.351 1_455 S
C120 H125 0.931 . S
O121 Cu115 1.974 . S
O121 C131 1.282 . S
C122 O123 1.261 . S
C122 O135 1.251 . S
O123 C122 1.261 . S
H124 C118 0.930 . S
H125 C120 0.931 . S
N126 Cu115 1.985 . S
N126 C128 1.335 . S
N126 C129 1.390 . S
N127 C128 1.345 . S
N127 C130 1.336 . S
C128 N126 1.335 . S
C128 N127 1.345 . S
C128 H133 0.930 . S
C129 N126 1.390 . S
C129 C130 1.346 . S
C129 H134 0.930 . S
C130 N127 1.336 . S
C130 C129 1.346 . S
C130 H137 0.929 . S
C131 O121 1.282 . S
C131 O132 1.216 . S
O132 C131 1.216 . S
H133 C128 0.930 . S
H134 C129 0.930 . S
O135 Cu115 1.959 . S
O135 C122 1.251 . S
H136 C119 0.930 . S
H137 C130 0.929 . S
Cu138 N139 1.999 . S
Cu138 O144 1.974 . S
Cu138 N149 1.985 . S
Cu138 O158 1.959 . S
N139 Cu138 1.999 . S
N139 C141 1.263 . S
N139 C143 1.389 . S
N140 C141 1.358 . S
N140 C142 1.400 . S
C141 N139 1.263 . S
C141 N140 1.358 . S
C141 H147 0.930 . S
C142 N140 1.400 . S
C142 C143 1.351 . S
C142 H159 0.930 . S
C143 N139 1.389 . S
C143 C142 1.351 . S
C143 H148 0.930 . S
O144 Cu138 1.974 . S
O144 C154 1.282 . S
C145 O146 1.261 . S
C145 O158 1.251 . S
O146 C145 1.261 . S
H147 C141 0.930 . S
H148 C143 0.930 . S
N149 Cu138 1.985 . S
N149 C151 1.335 . S
N149 C152 1.390 . S
N150 C151 1.345 . S
N150 C153 1.336 . S
C151 N149 1.335 . S
C151 N150 1.345 . S
C151 H156 0.930 . S
C152 N149 1.390 . S
C152 C153 1.346 . S
C152 H157 0.930 . S
C153 N150 1.336 . S
C153 C152 1.346 . S
C153 H160 0.929 . S
C154 O144 1.282 . S
C154 O155 1.216 . S
O155 C154 1.216 . S
H156 C151 0.930 . S
H157 C152 0.930 . S
O158 Cu138 1.959 . S
O158 C145 1.251 . S
H159 C142 0.930 . S
H160 C153 0.929 . S
Cu161 N162 1.999 . S
Cu161 O167 1.974 . S
Cu161 N172 1.985 . S
Cu161 O181 1.959 . S
N162 Cu161 1.999 . S
N162 C164 1.263 . S
N162 C166 1.389 . S
N163 C164 1.358 1_545 S
N163 C165 1.400 . S
C164 N162 1.263 . S
C164 N163 1.358 1_565 S
C164 H170 0.930 . S
C165 N163 1.400 . S
C165 C166 1.351 1_545 S
C165 H182 0.930 . S
C166 N162 1.389 . S
C166 C165 1.351 1_565 S
C166 H171 0.929 1_565 S
O167 Cu161 1.974 . S
O167 C177 1.282 . S
C168 O169 1.261 . S
C168 O181 1.251 . S
O169 C168 1.261 . S
H170 C164 0.930 . S
H171 C166 0.929 1_545 S
N172 Cu161 1.985 . S
N172 C174 1.335 . S
N172 C175 1.390 . S
N173 C174 1.345 . S
N173 C176 1.336 . S
C174 N172 1.335 . S
C174 N173 1.345 . S
C174 H179 0.930 . S
C175 N172 1.390 . S
C175 C176 1.346 . S
C175 H180 0.930 . S
C176 N173 1.336 . S
C176 C175 1.346 . S
C176 H183 0.929 . S
C177 O167 1.282 . S
C177 O178 1.216 . S
O178 C177 1.216 . S
H179 C174 0.930 . S
H180 C175 0.930 . S
O181 Cu161 1.959 . S
O181 C168 1.251 . S
H182 C165 0.930 . S
H183 C176 0.929 . S
Cu184 N185 1.999 . S
Cu184 O190 1.974 . S
Cu184 N195 1.985 . S
Cu184 O204 1.959 . S
N185 Cu184 1.999 . S
N185 C187 1.263 . S
N185 C189 1.389 1_455 S
N186 C187 1.358 1_655 S
N186 C188 1.400 . S
C187 N185 1.263 . S
C187 N186 1.358 1_455 S
C187 H193 0.930 . S
C188 N186 1.400 . S
C188 C189 1.351 . S
C188 H205 0.930 . S
C189 N185 1.389 1_655 S
C189 C188 1.351 . S
C189 H194 0.930 . S
O190 Cu184 1.974 . S
O190 C200 1.282 . S
C191 O192 1.261 . S
C191 O204 1.251 . S
O192 C191 1.261 . S
H193 C187 0.930 . S
H194 C189 0.930 . S
N195 Cu184 1.985 . S
N195 C197 1.335 . S
N195 C198 1.390 . S
N196 C197 1.345 . S
N196 C199 1.336 . S
C197 N195 1.335 . S
C197 N196 1.345 . S
C197 H202 0.930 . S
C198 N195 1.390 . S
C198 C199 1.346 . S
C198 H203 0.930 . S
C199 N196 1.336 . S
C199 C198 1.346 . S
C199 H206 0.929 . S
C200 O190 1.282 . S
C200 O201 1.216 . S
O201 C200 1.216 . S
H202 C197 0.930 . S
H203 C198 0.930 . S
O204 Cu184 1.959 . S
O204 C191 1.251 . S
H205 C188 0.930 . S
H206 C199 0.929 . S
Cu207 N208 1.999 . S
Cu207 O213 1.974 . S
Cu207 N218 1.985 . S
Cu207 O227 1.959 . S
N208 Cu207 1.999 . S
N208 C210 1.263 . S
N208 C212 1.389 . S
N209 C210 1.358 . S
N209 C211 1.400 . S
C210 N208 1.263 . S
C210 N209 1.358 . S
C210 H216 0.930 . S
C211 N209 1.400 . S
C211 C212 1.351 . S
C211 H228 0.930 . S
C212 N208 1.389 . S
C212 C211 1.351 . S
C212 H217 0.930 . S
O213 Cu207 1.974 . S
O213 C223 1.282 . S
C214 O215 1.261 . S
C214 O227 1.251 . S
O215 C214 1.261 . S
H216 C210 0.930 . S
H217 C212 0.930 . S
N218 Cu207 1.985 . S
N218 C220 1.335 . S
N218 C221 1.390 . S
N219 C220 1.345 . S
N219 C222 1.336 . S
C220 N218 1.335 . S
C220 N219 1.345 . S
C220 H225 0.930 . S
C221 N218 1.390 . S
C221 C222 1.346 . S
C221 H226 0.930 . S
C222 N219 1.336 . S
C222 C221 1.346 . S
C222 H229 0.929 . S
C223 O213 1.282 . S
C223 O224 1.216 . S
O224 C223 1.216 . S
H225 C220 0.930 . S
H226 C221 0.930 . S
O227 Cu207 1.959 . S
O227 C214 1.251 . S
H228 C211 0.930 . S
H229 C222 0.929 . S
Cu230 N231 1.999 . S
Cu230 O236 1.974 . S
Cu230 N241 1.985 . S
Cu230 O250 1.959 . S
N231 Cu230 1.999 . S
N231 C233 1.263 . S
N231 C235 1.389 . S
N232 C233 1.358 1_565 S
N232 C234 1.400 . S
C233 N231 1.263 . S
C233 N232 1.358 1_545 S
C233 H239 0.930 . S
C234 N232 1.400 . S
C234 C235 1.351 1_565 S
C234 H251 0.930 . S
C235 N231 1.389 . S
C235 C234 1.351 1_545 S
C235 H240 0.930 1_545 S
O236 Cu230 1.974 . S
O236 C246 1.282 . S
C237 O238 1.261 . S
C237 O250 1.251 . S
O238 C237 1.261 . S
H239 C233 0.930 . S
H240 C235 0.930 1_565 S
N241 Cu230 1.985 . S
N241 C243 1.335 . S
N241 C244 1.390 . S
N242 C243 1.345 . S
N242 C245 1.336 . S
C243 N241 1.335 . S
C243 N242 1.345 . S
C243 H248 0.930 . S
C244 N241 1.390 . S
C244 C245 1.346 . S
C244 H249 0.930 . S
C245 N242 1.336 . S
C245 C244 1.346 . S
C245 H252 0.929 . S
C246 O236 1.282 . S
C246 O247 1.216 . S
O247 C246 1.216 . S
H248 C243 0.930 . S
H249 C244 0.930 . S
O250 Cu230 1.959 . S
O250 C237 1.251 . S
H251 C234 0.930 . S
H252 C245 0.929 . S
Cu253 N254 1.999 . S
Cu253 O259 1.974 . S
Cu253 N264 1.985 . S
Cu253 O273 1.959 . S
N254 Cu253 1.999 . S
N254 C256 1.263 . S
N254 C258 1.389 . S
N255 C256 1.358 1_455 S
N255 C257 1.400 . S
C256 N254 1.263 . S
C256 N255 1.358 1_655 S
C256 H262 0.930 . S
C257 N255 1.400 . S
C257 C258 1.351 1_455 S
C257 H274 0.930 . S
C258 N254 1.389 . S
C258 C257 1.351 1_655 S
C258 H263 0.930 . S
O259 Cu253 1.974 . S
O259 C269 1.282 . S
C260 O261 1.261 . S
C260 O273 1.251 . S
O261 C260 1.261 . S
H262 C256 0.930 . S
H263 C258 0.930 . S
N264 Cu253 1.985 . S
N264 C266 1.335 . S
N264 C267 1.390 . S
N265 C266 1.345 . S
N265 C268 1.336 . S
C266 N264 1.335 . S
C266 N265 1.345 . S
C266 H271 0.930 . S
C267 N264 1.390 . S
C267 C268 1.346 . S
C267 H272 0.930 . S
C268 N265 1.336 . S
C268 C267 1.346 . S
C268 H275 0.929 . S
C269 O259 1.282 . S
C269 O270 1.216 . S
O270 C269 1.216 . S
H271 C266 0.930 . S
H272 C267 0.930 . S
O273 Cu253 1.959 . S
O273 C260 1.251 . S
H274 C257 0.930 . S
H275 C268 0.929 . S
Cu276 N277 1.999 . S
Cu276 O282 1.974 . S
Cu276 N287 1.985 . S
Cu276 O296 1.959 . S
N277 Cu276 1.999 . S
N277 C279 1.263 . S
N277 C281 1.389 . S
N278 C279 1.358 . S
N278 C280 1.400 . S
C279 N277 1.263 . S
C279 N278 1.358 . S
C279 H285 0.930 . S
C280 N278 1.400 . S
C280 C281 1.351 . S
C280 H297 0.930 . S
C281 N277 1.389 . S
C281 C280 1.351 . S
C281 H286 0.930 . S
O282 Cu276 1.974 . S
O282 C292 1.282 . S
C283 O284 1.261 . S
C283 O296 1.251 . S
O284 C283 1.261 . S
H285 C279 0.930 . S
H286 C281 0.930 . S
N287 Cu276 1.985 . S
N287 C289 1.335 . S
N287 C290 1.390 . S
N288 C289 1.345 . S
N288 C291 1.336 . S
C289 N287 1.335 . S
C289 N288 1.345 . S
C289 H294 0.930 . S
C290 N287 1.390 . S
C290 C291 1.346 . S
C290 H295 0.930 . S
C291 N288 1.336 . S
C291 C290 1.346 . S
C291 H298 0.929 . S
C292 O282 1.282 . S
C292 O293 1.216 . S
O293 C292 1.216 . S
H294 C289 0.930 . S
H295 C290 0.930 . S
O296 Cu276 1.959 . S
O296 C283 1.251 . S
H297 C280 0.930 . S
H298 C291 0.929 . S
Cu299 N300 1.999 . S
Cu299 O305 1.974 . S
Cu299 N310 1.985 . S
Cu299 O319 1.959 . S
N300 Cu299 1.999 . S
N300 C302 1.263 . S
N300 C304 1.389 . S
N301 C302 1.358 . S
N301 C303 1.400 . S
C302 N300 1.263 . S
C302 N301 1.358 . S
C302 H308 0.930 . S
C303 N301 1.400 . S
C303 C304 1.351 . S
C303 H320 0.930 . S
C304 N300 1.389 . S
C304 C303 1.351 . S
C304 H309 0.930 . S
O305 Cu299 1.974 . S
O305 C315 1.282 . S
C306 O307 1.261 . S
C306 O319 1.251 . S
O307 C306 1.261 . S
H308 C302 0.930 . S
H309 C304 0.930 . S
N310 Cu299 1.985 . S
N310 C312 1.335 . S
N310 C313 1.390 . S
N311 C312 1.345 . S
N311 C314 1.336 . S
C312 N310 1.335 . S
C312 N311 1.345 . S
C312 H317 0.930 . S
C313 N310 1.390 . S
C313 C314 1.346 . S
C313 H318 0.930 . S
C314 N311 1.336 . S
C314 C313 1.346 . S
C314 H321 0.929 . S
C315 O305 1.282 . S
C315 O316 1.216 . S
O316 C315 1.216 . S
H317 C312 0.930 . S
H318 C313 0.930 . S
O319 Cu299 1.959 . S
O319 C306 1.251 . S
H320 C303 0.930 . S
H321 C314 0.929 . S
Cu322 N323 1.999 . S
Cu322 O328 1.974 . S
Cu322 N333 1.985 . S
Cu322 O342 1.959 . S
N323 Cu322 1.999 . S
N323 C325 1.263 . S
N323 C327 1.389 . S
N324 C325 1.358 . S
N324 C326 1.400 . S
C325 N323 1.263 . S
C325 N324 1.358 . S
C325 H331 0.930 . S
C326 N324 1.400 . S
C326 C327 1.351 . S
C326 H343 0.930 . S
C327 N323 1.389 . S
C327 C326 1.351 . S
C327 H332 0.930 . S
O328 Cu322 1.974 . S
O328 C338 1.282 . S
C329 O330 1.261 . S
C329 O342 1.251 . S
O330 C329 1.261 . S
H331 C325 0.930 . S
H332 C327 0.930 . S
N333 Cu322 1.985 . S
N333 C335 1.335 . S
N333 C336 1.390 . S
N334 C335 1.345 . S
N334 C337 1.336 . S
C335 N333 1.335 . S
C335 N334 1.345 . S
C335 H340 0.930 . S
C336 N333 1.390 . S
C336 C337 1.346 . S
C336 H341 0.930 . S
C337 N334 1.336 . S
C337 C336 1.346 . S
C337 H344 0.929 . S
C338 O328 1.282 . S
C338 O339 1.216 . S
O339 C338 1.216 . S
H340 C335 0.930 . S
H341 C336 0.930 . S
O342 Cu322 1.959 . S
O342 C329 1.251 . S
H343 C326 0.930 . S
H344 C337 0.929 . S
Cu345 N346 1.999 . S
Cu345 O351 1.974 . S
Cu345 N356 1.985 . S
Cu345 O365 1.959 . S
N346 Cu345 1.999 . S
N346 C348 1.263 . S
N346 C350 1.389 . S
N347 C348 1.358 . S
N347 C349 1.400 . S
C348 N346 1.263 . S
C348 N347 1.358 . S
C348 H354 0.930 . S
C349 N347 1.400 . S
C349 C350 1.351 . S
C349 H366 0.930 . S
C350 N346 1.389 . S
C350 C349 1.351 . S
C350 H355 0.930 . S
O351 Cu345 1.974 . S
O351 C361 1.282 . S
C352 O353 1.261 . S
C352 O365 1.251 . S
O353 C352 1.261 . S
H354 C348 0.930 . S
H355 C350 0.930 . S
N356 Cu345 1.985 . S
N356 C358 1.335 . S
N356 C359 1.390 . S
N357 C358 1.345 . S
N357 C360 1.336 . S
C358 N356 1.335 . S
C358 N357 1.345 . S
C358 H363 0.930 . S
C359 N356 1.390 . S
C359 C360 1.346 . S
C359 H364 0.930 . S
C360 N357 1.336 . S
C360 C359 1.346 . S
C360 H367 0.929 . S
C361 O351 1.282 . S
C361 O362 1.216 . S
O362 C361 1.216 . S
H363 C358 0.930 . S
H364 C359 0.930 . S
O365 Cu345 1.959 . S
O365 C352 1.251 . S
H366 C349 0.930 . S
H367 C360 0.929 . S
Cu368 N369 1.999 . S
Cu368 O374 1.974 . S
Cu368 N379 1.985 . S
Cu368 O388 1.959 . S
N369 Cu368 1.999 . S
N369 C371 1.263 . S
N369 C373 1.389 . S
N370 C371 1.358 . S
N370 C372 1.400 . S
C371 N369 1.263 . S
C371 N370 1.358 . S
C371 H377 0.930 . S
C372 N370 1.400 . S
C372 C373 1.351 . S
C372 H389 0.930 . S
C373 N369 1.389 . S
C373 C372 1.351 . S
C373 H378 0.930 . S
O374 Cu368 1.974 . S
O374 C384 1.282 . S
C375 O376 1.261 . S
C375 O388 1.251 . S
O376 C375 1.261 . S
H377 C371 0.930 . S
H378 C373 0.930 . S
N379 Cu368 1.985 . S
N379 C381 1.335 . S
N379 C382 1.390 . S
N380 C381 1.345 . S
N380 C383 1.336 . S
C381 N379 1.335 . S
C381 N380 1.345 . S
C381 H386 0.930 . S
C382 N379 1.390 . S
C382 C383 1.346 . S
C382 H387 0.930 . S
C383 N380 1.336 . S
C383 C382 1.346 . S
C383 H390 0.929 . S
C384 O374 1.282 . S
C384 O385 1.216 . S
O385 C384 1.216 . S
H386 C381 0.930 . S
H387 C382 0.930 . S
O388 Cu368 1.959 . S
O388 C375 1.251 . S
H389 C372 0.930 . S
H390 C383 0.929 . S
Cu391 N392 1.999 . S
Cu391 O397 1.974 . S
Cu391 N402 1.985 . S
Cu391 O411 1.959 . S
N392 Cu391 1.999 . S
N392 C394 1.263 . S
N392 C396 1.389 . S
N393 C394 1.358 . S
N393 C395 1.400 . S
C394 N392 1.263 . S
C394 N393 1.358 . S
C394 H400 0.930 . S
C395 N393 1.400 . S
C395 C396 1.351 . S
C395 H412 0.930 . S
C396 N392 1.389 . S
C396 C395 1.351 . S
C396 H401 0.930 . S
O397 Cu391 1.974 . S
O397 C407 1.282 . S
C398 O399 1.261 . S
C398 O411 1.251 . S
O399 C398 1.261 . S
H400 C394 0.930 . S
H401 C396 0.930 . S
N402 Cu391 1.985 . S
N402 C404 1.335 . S
N402 C405 1.390 . S
N403 C404 1.345 . S
N403 C406 1.336 . S
C404 N402 1.335 . S
C404 N403 1.345 . S
C404 H409 0.930 . S
C405 N402 1.390 . S
C405 C406 1.346 . S
C405 H410 0.930 . S
C406 N403 1.336 . S
C406 C405 1.346 . S
C406 H413 0.929 . S
C407 O397 1.282 . S
C407 O408 1.216 . S
O408 C407 1.216 . S
H409 C404 0.930 . S
H410 C405 0.930 . S
O411 Cu391 1.959 . S
O411 C398 1.251 . S
H412 C395 0.930 . S
H413 C406 0.929 . S
Cu414 N415 1.999 . S
Cu414 O420 1.974 . S
Cu414 N425 1.985 . S
Cu414 O434 1.959 . S
N415 Cu414 1.999 . S
N415 C417 1.263 . S
N415 C419 1.389 . S
N416 C417 1.358 . S
N416 C418 1.400 . S
C417 N415 1.263 . S
C417 N416 1.358 . S
C417 H423 0.930 . S
C418 N416 1.400 . S
C418 C419 1.351 . S
C418 H435 0.930 . S
C419 N415 1.389 . S
C419 C418 1.351 . S
C419 H424 0.930 . S
O420 Cu414 1.974 . S
O420 C430 1.282 . S
C421 O422 1.261 . S
C421 O434 1.251 . S
O422 C421 1.261 . S
H423 C417 0.930 . S
H424 C419 0.930 . S
N425 Cu414 1.985 . S
N425 C427 1.335 . S
N425 C428 1.390 . S
N426 C427 1.345 . S
N426 C429 1.336 . S
C427 N425 1.335 . S
C427 N426 1.345 . S
C427 H432 0.930 . S
C428 N425 1.390 . S
C428 C429 1.346 . S
C428 H433 0.930 . S
C429 N426 1.336 . S
C429 C428 1.346 . S
C429 H436 0.929 . S
C430 O420 1.282 . S
C430 O431 1.216 . S
O431 C430 1.216 . S
H432 C427 0.930 . S
H433 C428 0.930 . S
O434 Cu414 1.959 . S
O434 C421 1.251 . S
H435 C418 0.930 . S
H436 C429 0.929 . S
Cu437 N438 1.999 . S
Cu437 O443 1.974 . S
Cu437 N448 1.985 . S
Cu437 O457 1.959 . S
N438 Cu437 1.999 . S
N438 C440 1.263 . S
N438 C442 1.389 . S
N439 C440 1.358 . S
N439 C441 1.400 . S
C440 N438 1.263 . S
C440 N439 1.358 . S
C440 H446 0.930 . S
C441 N439 1.400 . S
C441 C442 1.351 . S
C441 H458 0.930 . S
C442 N438 1.389 . S
C442 C441 1.351 . S
C442 H447 0.930 . S
O443 Cu437 1.974 . S
O443 C453 1.282 . S
C444 O445 1.261 . S
C444 O457 1.251 . S
O445 C444 1.261 . S
H446 C440 0.930 . S
H447 C442 0.930 . S
N448 Cu437 1.985 . S
N448 C450 1.335 . S
N448 C451 1.390 . S
N449 C450 1.345 . S
N449 C452 1.336 . S
C450 N448 1.335 . S
C450 N449 1.345 . S
C450 H455 0.930 . S
C451 N448 1.390 . S
C451 C452 1.346 . S
C451 H456 0.930 . S
C452 N449 1.336 . S
C452 C451 1.346 . S
C452 H459 0.929 . S
C453 O443 1.282 . S
C453 O454 1.216 . S
O454 C453 1.216 . S
H455 C450 0.930 . S
H456 C451 0.930 . S
O457 Cu437 1.959 . S
O457 C444 1.251 . S
H458 C441 0.930 . S
H459 C452 0.929 . S
Cu460 N461 1.999 . S
Cu460 O466 1.974 . S
Cu460 N471 1.985 . S
Cu460 O480 1.959 . S
N461 Cu460 1.999 . S
N461 C463 1.263 . S
N461 C465 1.389 . S
N462 C463 1.358 . S
N462 C464 1.400 . S
C463 N461 1.263 . S
C463 N462 1.358 . S
C463 H469 0.930 . S
C464 N462 1.400 . S
C464 C465 1.351 . S
C464 H481 0.930 . S
C465 N461 1.389 . S
C465 C464 1.351 . S
C465 H470 0.930 . S
O466 Cu460 1.974 . S
O466 C476 1.282 . S
C467 O468 1.261 . S
C467 O480 1.251 . S
O468 C467 1.261 . S
H469 C463 0.930 . S
H470 C465 0.930 . S
N471 Cu460 1.985 . S
N471 C473 1.335 . S
N471 C474 1.390 . S
N472 C473 1.345 . S
N472 C475 1.336 . S
C473 N471 1.335 . S
C473 N472 1.345 . S
C473 H478 0.930 . S
C474 N471 1.390 . S
C474 C475 1.346 . S
C474 H479 0.930 . S
C475 N472 1.336 . S
C475 C474 1.346 . S
C475 H482 0.929 . S
C476 O466 1.282 . S
C476 O477 1.216 . S
O477 C476 1.216 . S
H478 C473 0.930 . S
H479 C474 0.930 . S
O480 Cu460 1.959 . S
O480 C467 1.251 . S
H481 C464 0.930 . S
H482 C475 0.929 . S
Cu483 N484 1.999 . S
Cu483 O489 1.974 . S
Cu483 N494 1.985 . S
Cu483 O503 1.959 . S
N484 Cu483 1.999 . S
N484 C486 1.263 . S
N484 C488 1.389 . S
N485 C486 1.358 . S
N485 C487 1.400 . S
C486 N484 1.263 . S
C486 N485 1.358 . S
C486 H492 0.930 . S
C487 N485 1.400 . S
C487 C488 1.351 . S
C487 H504 0.930 . S
C488 N484 1.389 . S
C488 C487 1.351 . S
C488 H493 0.930 . S
O489 Cu483 1.974 . S
O489 C499 1.282 . S
C490 O491 1.261 . S
C490 O503 1.251 . S
O491 C490 1.261 . S
H492 C486 0.930 . S
H493 C488 0.930 . S
N494 Cu483 1.985 . S
N494 C496 1.335 . S
N494 C497 1.390 . S
N495 C496 1.345 . S
N495 C498 1.336 . S
C496 N494 1.335 . S
C496 N495 1.345 . S
C496 H501 0.930 . S
C497 N494 1.390 . S
C497 C498 1.346 . S
C497 H502 0.930 . S
C498 N495 1.336 . S
C498 C497 1.346 . S
C498 H505 0.929 . S
C499 O489 1.282 . S
C499 O500 1.216 . S
O500 C499 1.216 . S
H501 C496 0.930 . S
H502 C497 0.930 . S
O503 Cu483 1.959 . S
O503 C490 1.251 . S
H504 C487 0.930 . S
H505 C498 0.929 . S
Cu506 N507 1.999 . S
Cu506 O512 1.974 . S
Cu506 N517 1.985 . S
Cu506 O526 1.959 . S
N507 Cu506 1.999 . S
N507 C509 1.263 . S
N507 C511 1.389 . S
N508 C509 1.358 . S
N508 C510 1.400 . S
C509 N507 1.263 . S
C509 N508 1.358 . S
C509 H515 0.930 . S
C510 N508 1.400 . S
C510 C511 1.351 . S
C510 H527 0.930 . S
C511 N507 1.389 . S
C511 C510 1.351 . S
C511 H516 0.930 . S
O512 Cu506 1.974 . S
O512 C522 1.282 . S
C513 O514 1.261 . S
C513 O526 1.251 . S
O514 C513 1.261 . S
H515 C509 0.930 . S
H516 C511 0.930 . S
N517 Cu506 1.985 . S
N517 C519 1.335 . S
N517 C520 1.390 . S
N518 C519 1.345 . S
N518 C521 1.336 . S
C519 N517 1.335 . S
C519 N518 1.345 . S
C519 H524 0.930 . S
C520 N517 1.390 . S
C520 C521 1.346 . S
C520 H525 0.930 . S
C521 N518 1.336 . S
C521 C520 1.346 . S
C521 H528 0.929 . S
C522 O512 1.282 . S
C522 O523 1.216 . S
O523 C522 1.216 . S
H524 C519 0.930 . S
H525 C520 0.930 . S
O526 Cu506 1.959 . S
O526 C513 1.251 . S
H527 C510 0.930 . S
H528 C521 0.929 . S
Cu529 N530 1.999 . S
Cu529 O535 1.974 . S
Cu529 N540 1.985 . S
Cu529 O549 1.959 . S
N530 Cu529 1.999 . S
N530 C532 1.263 . S
N530 C534 1.389 . S
N531 C532 1.358 . S
N531 C533 1.400 . S
C532 N530 1.263 . S
C532 N531 1.358 . S
C532 H538 0.930 . S
C533 N531 1.400 . S
C533 C534 1.351 . S
C533 H550 0.930 . S
C534 N530 1.389 . S
C534 C533 1.351 . S
C534 H539 0.930 . S
O535 Cu529 1.974 . S
O535 C545 1.282 . S
C536 O537 1.261 . S
C536 O549 1.251 . S
O537 C536 1.261 . S
H538 C532 0.930 . S
H539 C534 0.930 . S
N540 Cu529 1.985 . S
N540 C542 1.335 . S
N540 C543 1.390 . S
N541 C542 1.345 . S
N541 C544 1.336 . S
C542 N540 1.335 . S
C542 N541 1.345 . S
C542 H547 0.930 . S
C543 N540 1.390 . S
C543 C544 1.346 . S
C543 H548 0.930 . S
C544 N541 1.336 . S
C544 C543 1.346 . S
C544 H551 0.929 . S
C545 O535 1.282 . S
C545 O546 1.216 . S
O546 C545 1.216 . S
H547 C542 0.930 . S
H548 C543 0.930 . S
O549 Cu529 1.959 . S
O549 C536 1.251 . S
H550 C533 0.930 . S
H551 C544 0.929 . S
Cu552 N553 1.999 . S
Cu552 O558 1.974 . S
Cu552 N563 1.985 . S
Cu552 O572 1.959 . S
N553 Cu552 1.999 . S
N553 C555 1.263 . S
N553 C557 1.389 . S
N554 C555 1.358 . S
N554 C556 1.400 . S
C555 N553 1.263 . S
C555 N554 1.358 . S
C555 H561 0.930 . S
C556 N554 1.400 . S
C556 C557 1.351 . S
C556 H573 0.930 . S
C557 N553 1.389 . S
C557 C556 1.351 . S
C557 H562 0.930 . S
O558 Cu552 1.974 . S
O558 C568 1.282 . S
C559 O560 1.261 . S
C559 O572 1.251 . S
O560 C559 1.261 . S
H561 C555 0.930 . S
H562 C557 0.930 . S
N563 Cu552 1.985 . S
N563 C565 1.335 . S
N563 C566 1.390 . S
N564 C565 1.345 . S
N564 C567 1.336 . S
C565 N563 1.335 . S
C565 N564 1.345 . S
C565 H570 0.930 . S
C566 N563 1.390 . S
C566 C567 1.346 . S
C566 H571 0.930 . S
C567 N564 1.336 . S
C567 C566 1.346 . S
C567 H574 0.929 . S
C568 O558 1.282 . S
C568 O569 1.216 . S
O569 C568 1.216 . S
H570 C565 0.930 . S
H571 C566 0.930 . S
O572 Cu552 1.959 . S
O572 C559 1.251 . S
H573 C556 0.930 . S
H574 C567 0.929 . S
Cu575 N576 1.999 . S
Cu575 O581 1.974 . S
Cu575 N586 1.985 . S
Cu575 O595 1.959 . S
N576 Cu575 1.999 . S
N576 C578 1.263 . S
N576 C580 1.389 . S
N577 C578 1.358 . S
N577 C579 1.400 . S
C578 N576 1.263 . S
C578 N577 1.358 . S
C578 H584 0.930 . S
C579 N577 1.400 . S
C579 C580 1.351 . S
C579 H596 0.930 . S
C580 N576 1.389 . S
C580 C579 1.351 . S
C580 H585 0.930 . S
O581 Cu575 1.974 . S
O581 C591 1.282 . S
C582 O583 1.261 . S
C582 O595 1.251 . S
O583 C582 1.261 . S
H584 C578 0.930 . S
H585 C580 0.930 . S
N586 Cu575 1.985 . S
N586 C588 1.335 . S
N586 C589 1.390 . S
N587 C588 1.345 . S
N587 C590 1.336 . S
C588 N586 1.335 . S
C588 N587 1.345 . S
C588 H593 0.930 . S
C589 N586 1.390 . S
C589 C590 1.346 . S
C589 H594 0.930 . S
C590 N587 1.336 . S
C590 C589 1.346 . S
C590 H597 0.929 . S
C591 O581 1.282 . S
C591 O592 1.216 . S
O592 C591 1.216 . S
H593 C588 0.930 . S
H594 C589 0.930 . S
O595 Cu575 1.959 . S
O595 C582 1.251 . S
H596 C579 0.930 . S
H597 C590 0.929 . S
Cu598 N599 1.999 . S
Cu598 O604 1.974 . S
Cu598 N609 1.985 . S
Cu598 O618 1.959 . S
N599 Cu598 1.999 . S
N599 C601 1.263 . S
N599 C603 1.389 . S
N600 C601 1.358 . S
N600 C602 1.400 . S
C601 N599 1.263 . S
C601 N600 1.358 . S
C601 H607 0.930 . S
C602 N600 1.400 . S
C602 C603 1.351 . S
C602 H619 0.930 . S
C603 N599 1.389 . S
C603 C602 1.351 . S
C603 H608 0.930 . S
O604 Cu598 1.974 . S
O604 C614 1.282 . S
C605 O606 1.261 . S
C605 O618 1.251 . S
O606 C605 1.261 . S
H607 C601 0.930 . S
H608 C603 0.930 . S
N609 Cu598 1.985 . S
N609 C611 1.335 . S
N609 C612 1.390 . S
N610 C611 1.345 . S
N610 C613 1.336 . S
C611 N609 1.335 . S
C611 N610 1.345 . S
C611 H616 0.930 . S
C612 N609 1.390 . S
C612 C613 1.346 . S
C612 H617 0.930 . S
C613 N610 1.336 . S
C613 C612 1.346 . S
C613 H620 0.929 . S
C614 O604 1.282 . S
C614 O615 1.216 . S
O615 C614 1.216 . S
H616 C611 0.930 . S
H617 C612 0.930 . S
O618 Cu598 1.959 . S
O618 C605 1.251 . S
H619 C602 0.930 . S
H620 C613 0.929 . S
Cu621 N622 1.999 . S
Cu621 O627 1.974 . S
Cu621 N632 1.985 . S
Cu621 O641 1.959 . S
N622 Cu621 1.999 . S
N622 C624 1.263 . S
N622 C626 1.389 . S
N623 C624 1.358 . S
N623 C625 1.400 . S
C624 N622 1.263 . S
C624 N623 1.358 . S
C624 H630 0.930 . S
C625 N623 1.400 . S
C625 C626 1.351 . S
C625 H642 0.930 . S
C626 N622 1.389 . S
C626 C625 1.351 . S
C626 H631 0.930 . S
O627 Cu621 1.974 . S
O627 C637 1.282 . S
C628 O629 1.261 . S
C628 O641 1.251 . S
O629 C628 1.261 . S
H630 C624 0.930 . S
H631 C626 0.930 . S
N632 Cu621 1.985 . S
N632 C634 1.335 . S
N632 C635 1.390 . S
N633 C634 1.345 . S
N633 C636 1.336 . S
C634 N632 1.335 . S
C634 N633 1.345 . S
C634 H639 0.930 . S
C635 N632 1.390 . S
C635 C636 1.346 . S
C635 H640 0.930 . S
C636 N633 1.336 . S
C636 C635 1.346 . S
C636 H643 0.929 . S
C637 O627 1.282 . S
C637 O638 1.216 . S
O638 C637 1.216 . S
H639 C634 0.930 . S
H640 C635 0.930 . S
O641 Cu621 1.959 . S
O641 C628 1.251 . S
H642 C625 0.930 . S
H643 C636 0.929 . S
Cu644 N645 1.999 . S
Cu644 O650 1.974 . S
Cu644 N655 1.985 . S
Cu644 O664 1.959 . S
N645 Cu644 1.999 . S
N645 C647 1.263 . S
N645 C649 1.389 . S
N646 C647 1.358 . S
N646 C648 1.400 . S
C647 N645 1.263 . S
C647 N646 1.358 . S
C647 H653 0.930 . S
C648 N646 1.400 . S
C648 C649 1.351 . S
C648 H665 0.930 . S
C649 N645 1.389 . S
C649 C648 1.351 . S
C649 H654 0.930 . S
O650 Cu644 1.974 . S
O650 C660 1.282 . S
C651 O652 1.261 . S
C651 O664 1.251 . S
O652 C651 1.261 . S
H653 C647 0.930 . S
H654 C649 0.930 . S
N655 Cu644 1.985 . S
N655 C657 1.335 . S
N655 C658 1.390 . S
N656 C657 1.345 . S
N656 C659 1.336 . S
C657 N655 1.335 . S
C657 N656 1.345 . S
C657 H662 0.930 . S
C658 N655 1.390 . S
C658 C659 1.346 . S
C658 H663 0.930 . S
C659 N656 1.336 . S
C659 C658 1.346 . S
C659 H666 0.929 . S
C660 O650 1.282 . S
C660 O661 1.216 . S
O661 C660 1.216 . S
H662 C657 0.930 . S
H663 C658 0.930 . S
O664 Cu644 1.959 . S
O664 C651 1.251 . S
H665 C648 0.930 . S
H666 C659 0.929 . S
Cu667 N668 1.999 . S
Cu667 O673 1.974 . S
Cu667 N678 1.985 . S
Cu667 O687 1.959 . S
N668 Cu667 1.999 . S
N668 C670 1.263 . S
N668 C672 1.389 . S
N669 C670 1.358 1_556 S
N669 C671 1.400 . S
C670 N668 1.263 . S
C670 N669 1.358 1_554 S
C670 H676 0.930 . S
C671 N669 1.400 . S
C671 C672 1.351 1_556 S
C671 H688 0.930 . S
C672 N668 1.389 . S
C672 C671 1.351 1_554 S
C672 H677 0.930 . S
O673 Cu667 1.974 . S
O673 C683 1.282 . S
C674 O675 1.261 . S
C674 O687 1.251 . S
O675 C674 1.261 . S
H676 C670 0.930 . S
H677 C672 0.930 . S
N678 Cu667 1.985 . S
N678 C680 1.335 . S
N678 C681 1.390 . S
N679 C680 1.345 . S
N679 C682 1.336 . S
C680 N678 1.335 . S
C680 N679 1.345 . S
C680 H685 0.930 . S
C681 N678 1.390 . S
C681 C682 1.346 . S
C681 H686 0.930 . S
C682 N679 1.336 . S
C682 C681 1.346 . S
C682 H689 0.929 . S
C683 O673 1.282 . S
C683 O684 1.216 . S
O684 C683 1.216 . S
H685 C680 0.930 . S
H686 C681 0.930 . S
O687 Cu667 1.959 . S
O687 C674 1.251 . S
H688 C671 0.930 . S
H689 C682 0.929 . S
Cu690 N691 1.999 . S
Cu690 O696 1.974 . S
Cu690 N701 1.985 . S
Cu690 O710 1.959 . S
N691 Cu690 1.999 . S
N691 C693 1.263 . S
N691 C695 1.389 . S
N692 C693 1.358 . S
N692 C694 1.400 . S
C693 N691 1.263 . S
C693 N692 1.358 . S
C693 H699 0.930 . S
C694 N692 1.400 . S
C694 C695 1.351 . S
C694 H711 0.930 . S
C695 N691 1.389 . S
C695 C694 1.351 . S
C695 H700 0.930 . S
O696 Cu690 1.974 . S
O696 C706 1.282 . S
C697 O698 1.261 . S
C697 O710 1.251 . S
O698 C697 1.261 . S
H699 C693 0.930 . S
H700 C695 0.930 . S
N701 Cu690 1.985 . S
N701 C703 1.335 . S
N701 C704 1.390 . S
N702 C703 1.345 . S
N702 C705 1.336 . S
C703 N701 1.335 . S
C703 N702 1.345 . S
C703 H708 0.930 . S
C704 N701 1.390 . S
C704 C705 1.346 . S
C704 H709 0.930 . S
C705 N702 1.336 . S
C705 C704 1.346 . S
C705 H712 0.929 . S
C706 O696 1.282 . S
C706 O707 1.216 . S
O707 C706 1.216 . S
H708 C703 0.930 . S
H709 C704 0.930 . S
O710 Cu690 1.959 . S
O710 C697 1.251 . S
H711 C694 0.930 . S
H712 C705 0.929 . S
Cu713 N714 1.999 . S
Cu713 O719 1.974 . S
Cu713 N724 1.985 . S
Cu713 O733 1.959 . S
N714 Cu713 1.999 . S
N714 C716 1.263 . S
N714 C718 1.389 . S
N715 C716 1.358 . S
N715 C717 1.400 . S
C716 N714 1.263 . S
C716 N715 1.358 . S
C716 H722 0.930 . S
C717 N715 1.400 . S
C717 C718 1.351 . S
C717 H734 0.930 . S
C718 N714 1.389 . S
C718 C717 1.351 . S
C718 H723 0.930 . S
O719 Cu713 1.974 . S
O719 C729 1.282 . S
C720 O721 1.261 . S
C720 O733 1.251 . S
O721 C720 1.261 . S
H722 C716 0.930 . S
H723 C718 0.930 . S
N724 Cu713 1.985 . S
N724 C726 1.335 . S
N724 C727 1.390 . S
N725 C726 1.345 . S
N725 C728 1.336 . S
C726 N724 1.335 . S
C726 N725 1.345 . S
C726 H731 0.930 . S
C727 N724 1.390 . S
C727 C728 1.346 . S
C727 H732 0.930 . S
C728 N725 1.336 . S
C728 C727 1.346 . S
C728 H735 0.929 . S
C729 O719 1.282 . S
C729 O730 1.216 . S
O730 C729 1.216 . S
H731 C726 0.930 . S
H732 C727 0.930 . S
O733 Cu713 1.959 . S
O733 C720 1.251 . S
H734 C717 0.930 . S
H735 C728 0.929 . S
Cu736 N737 1.999 . S
Cu736 O742 1.974 . S
Cu736 N747 1.985 . S
Cu736 O756 1.959 . S
N737 Cu736 1.999 . S
N737 C739 1.263 . S
N737 C741 1.389 . S
N738 C739 1.358 . S
N738 C740 1.400 . S
C739 N737 1.263 . S
C739 N738 1.358 . S
C739 H745 0.930 . S
C740 N738 1.400 . S
C740 C741 1.351 . S
C740 H757 0.930 . S
C741 N737 1.389 . S
C741 C740 1.351 . S
C741 H746 0.930 . S
O742 Cu736 1.974 . S
O742 C752 1.282 . S
C743 O744 1.261 . S
C743 O756 1.251 . S
O744 C743 1.261 . S
H745 C739 0.930 . S
H746 C741 0.930 . S
N747 Cu736 1.985 . S
N747 C749 1.335 . S
N747 C750 1.390 . S
N748 C749 1.345 . S
N748 C751 1.336 . S
C749 N747 1.335 . S
C749 N748 1.345 . S
C749 H754 0.930 . S
C750 N747 1.390 . S
C750 C751 1.346 . S
C750 H755 0.930 . S
C751 N748 1.336 . S
C751 C750 1.346 . S
C751 H758 0.929 . S
C752 O742 1.282 . S
C752 O753 1.216 . S
O753 C752 1.216 . S
H754 C749 0.930 . S
H755 C750 0.930 . S
O756 Cu736 1.959 . S
O756 C743 1.251 . S
H757 C740 0.930 . S
H758 C751 0.929 . S
Cu759 N760 1.999 . S
Cu759 O765 1.974 . S
Cu759 N770 1.985 . S
Cu759 O779 1.959 . S
N760 Cu759 1.999 . S
N760 C762 1.263 . S
N760 C764 1.389 . S
N761 C762 1.358 . S
N761 C763 1.400 . S
C762 N760 1.263 . S
C762 N761 1.358 . S
C762 H768 0.930 . S
C763 N761 1.400 . S
C763 C764 1.351 . S
C763 H780 0.930 . S
C764 N760 1.389 . S
C764 C763 1.351 . S
C764 H769 0.930 . S
O765 Cu759 1.974 . S
O765 C775 1.282 . S
C766 O767 1.261 . S
C766 O779 1.251 . S
O767 C766 1.261 . S
H768 C762 0.930 . S
H769 C764 0.930 . S
N770 Cu759 1.985 . S
N770 C772 1.335 . S
N770 C773 1.390 . S
N771 C772 1.345 . S
N771 C774 1.336 . S
C772 N770 1.335 . S
C772 N771 1.345 . S
C772 H777 0.930 . S
C773 N770 1.390 . S
C773 C774 1.346 . S
C773 H778 0.930 . S
C774 N771 1.336 . S
C774 C773 1.346 . S
C774 H781 0.929 . S
C775 O765 1.282 . S
C775 O776 1.216 . S
O776 C775 1.216 . S
H777 C772 0.930 . S
H778 C773 0.930 . S
O779 Cu759 1.959 . S
O779 C766 1.251 . S
H780 C763 0.930 . S
H781 C774 0.929 . S
Cu782 N783 1.999 . S
Cu782 O788 1.974 . S
Cu782 N793 1.985 . S
Cu782 O802 1.959 . S
N783 Cu782 1.999 . S
N783 C785 1.263 . S
N783 C787 1.389 . S
N784 C785 1.358 . S
N784 C786 1.400 . S
C785 N783 1.263 . S
C785 N784 1.358 . S
C785 H791 0.930 . S
C786 N784 1.400 . S
C786 C787 1.351 . S
C786 H803 0.930 . S
C787 N783 1.389 . S
C787 C786 1.351 . S
C787 H792 0.930 . S
O788 Cu782 1.974 . S
O788 C798 1.282 . S
C789 O790 1.261 . S
C789 O802 1.251 . S
O790 C789 1.261 . S
H791 C785 0.930 . S
H792 C787 0.930 . S
N793 Cu782 1.985 . S
N793 C795 1.335 . S
N793 C796 1.390 . S
N794 C795 1.345 . S
N794 C797 1.336 . S
C795 N793 1.335 . S
C795 N794 1.345 . S
C795 H800 0.930 . S
C796 N793 1.390 . S
C796 C797 1.346 . S
C796 H801 0.930 . S
C797 N794 1.336 . S
C797 C796 1.346 . S
C797 H804 0.929 . S
C798 O788 1.282 . S
C798 O799 1.216 . S
O799 C798 1.216 . S
H800 C795 0.930 . S
H801 C796 0.930 . S
O802 Cu782 1.959 . S
O802 C789 1.251 . S
H803 C786 0.930 . S
H804 C797 0.929 . S
Cu805 N806 1.999 . S
Cu805 O811 1.974 . S
Cu805 N816 1.985 . S
Cu805 O825 1.959 . S
N806 Cu805 1.999 . S
N806 C808 1.263 . S
N806 C810 1.389 . S
N807 C808 1.358 . S
N807 C809 1.400 . S
C808 N806 1.263 . S
C808 N807 1.358 . S
C808 H814 0.930 . S
C809 N807 1.400 . S
C809 C810 1.351 . S
C809 H826 0.930 . S
C810 N806 1.389 . S
C810 C809 1.351 . S
C810 H815 0.930 . S
O811 Cu805 1.974 . S
O811 C821 1.282 . S
C812 O813 1.261 . S
C812 O825 1.251 . S
O813 C812 1.261 . S
H814 C808 0.930 . S
H815 C810 0.930 . S
N816 Cu805 1.985 . S
N816 C818 1.335 . S
N816 C819 1.390 . S
N817 C818 1.345 . S
N817 C820 1.336 . S
C818 N816 1.335 . S
C818 N817 1.345 . S
C818 H823 0.930 . S
C819 N816 1.390 . S
C819 C820 1.346 . S
C819 H824 0.930 . S
C820 N817 1.336 . S
C820 C819 1.346 . S
C820 H827 0.929 . S
C821 O811 1.282 . S
C821 O822 1.216 . S
O822 C821 1.216 . S
H823 C818 0.930 . S
H824 C819 0.930 . S
O825 Cu805 1.959 . S
O825 C812 1.251 . S
H826 C809 0.930 . S
H827 C820 0.929 . S
H828 C834 0.930 . S
H829 C837 0.930 . S
H830 C838 0.930 . S
H831 C839 0.930 . S
H832 C842 0.930 . S
H833 C843 0.930 . S
C834 H828 0.930 . S
C834 C835 1.355 1_556 S
C834 C836 1.415 . S
C835 C834 1.355 1_554 S
C835 C837 1.419 . S
C836 C834 1.415 . S
C836 C841 1.425 . S
C836 C843 1.409 . S
C837 H829 0.930 . S
C837 C835 1.419 . S
C837 C838 1.362 . S
C838 H830 0.930 . S
C838 C837 1.362 . S
C838 C841 1.409 1_554 S
C839 H831 0.930 . S
C839 C840 1.355 . S
C839 C841 1.415 . S
C840 C839 1.355 . S
C840 C842 1.419 . S
C841 C836 1.425 . S
C841 C838 1.409 1_556 S
C841 C839 1.415 . S
C842 H832 0.930 . S
C842 C840 1.419 . S
C842 C843 1.362 . S
C843 H833 0.930 . S
C843 C836 1.409 . S
C843 C842 1.362 . S
H844 C850 0.930 . S
H845 C853 0.930 . S
H846 C854 0.930 . S
H847 C855 0.930 . S
H848 C858 0.930 1_455 S
H849 C859 0.930 . S
C850 H844 0.930 . S
C850 C851 1.355 . S
C850 C852 1.415 . S
C851 C850 1.355 . S
C851 C853 1.419 . S
C852 C850 1.415 . S
C852 C857 1.425 1_554 S
C852 C859 1.409 . S
C853 H845 0.930 . S
C853 C851 1.419 . S
C853 C854 1.362 1_554 S
C854 H846 0.930 . S
C854 C853 1.362 1_556 S
C854 C857 1.409 . S
C855 H847 0.930 . S
C855 C856 1.355 . S
C855 C857 1.415 . S
C856 C855 1.355 . S
C856 C858 1.419 . S
C857 C852 1.425 1_556 S
C857 C854 1.409 . S
C857 C855 1.415 . S
C858 H848 0.930 1_655 S
C858 C856 1.419 . S
C858 C859 1.362 1_556 S
C859 H849 0.930 . S
C859 C852 1.409 . S
C859 C858 1.362 1_554 S
H860 C866 0.930 . S
H861 C869 0.930 . S
H862 C870 0.930 . S
H863 C871 0.930 . S
H864 C874 0.930 . S
H865 C875 0.930 . S
C866 H860 0.930 . S
C866 C867 1.355 . S
C866 C868 1.415 . S
C867 C866 1.355 . S
C867 C869 1.419 . S
C868 C866 1.415 . S
C868 C873 1.425 . S
C868 C875 1.409 1_556 S
C869 H861 0.930 . S
C869 C867 1.419 . S
C869 C870 1.362 . S
C870 H862 0.930 . S
C870 C869 1.362 . S
C870 C873 1.409 . S
C871 H863 0.930 . S
C871 C872 1.355 . S
C871 C873 1.415 1_554 S
C872 C871 1.355 . S
C872 C874 1.419 . S
C873 C868 1.425 . S
C873 C870 1.409 . S
C873 C871 1.415 1_556 S
C874 H864 0.930 . S
C874 C872 1.419 . S
C874 C875 1.362 . S
C875 H865 0.930 . S
C875 C868 1.409 1_554 S
C875 C874 1.362 . S
H876 C882 0.930 . S
H877 C885 0.930 1_655 S
H878 C886 0.930 . S
H879 C887 0.930 . S
H880 C890 0.930 . S
H881 C891 0.930 . S
C882 H876 0.930 . S
C882 C883 1.355 . S
C882 C884 1.415 . S
C883 C882 1.355 . S
C883 C885 1.419 . S
C884 C882 1.415 . S
C884 C889 1.425 . S
C884 C891 1.409 . S
C885 H877 0.930 1_455 S
C885 C883 1.419 . S
C885 C886 1.362 . S
C886 H878 0.930 . S
C886 C885 1.362 . S
C886 C889 1.409 . S
C887 H879 0.930 . S
C887 C888 1.355 . S
C887 C889 1.415 . S
C888 C887 1.355 . S
C888 C890 1.419 . S
C889 C884 1.425 . S
C889 C886 1.409 . S
C889 C887 1.415 . S
C890 H880 0.930 . S
C890 C888 1.419 . S
C890 C891 1.362 . S
C891 H881 0.930 . S
C891 C884 1.409 . S
C891 C890 1.362 . S
H892 C898 0.930 . S
H893 C901 0.930 . S
H894 C902 0.930 . S
H895 C903 0.930 . S
H896 C906 0.930 . S
H897 C907 0.930 . S
C898 H892 0.930 . S
C898 C899 1.355 . S
C898 C900 1.415 . S
C899 C898 1.355 . S
C899 C901 1.419 . S
C900 C898 1.415 . S
C900 C905 1.425 . S
C900 C907 1.409 . S
C901 H893 0.930 . S
C901 C899 1.419 . S
C901 C902 1.362 . S
C902 H894 0.930 . S
C902 C901 1.362 . S
C902 C905 1.409 . S
C903 H895 0.930 . S
C903 C904 1.355 . S
C903 C905 1.415 . S
C904 C903 1.355 . S
C904 C906 1.419 . S
C905 C900 1.425 . S
C905 C902 1.409 . S
C905 C903 1.415 . S
C906 H896 0.930 . S
C906 C904 1.419 . S
C906 C907 1.362 . S
C907 H897 0.930 . S
C907 C900 1.409 . S
C907 C906 1.362 . S
H908 C914 0.930 . S
H909 C917 0.930 . S
H910 C918 0.930 . S
H911 C919 0.930 . S
H912 C922 0.930 . S
H913 C923 0.930 . S
C914 H908 0.930 . S
C914 C915 1.355 . S
C914 C916 1.415 . S
C915 C914 1.355 . S
C915 C917 1.419 . S
C916 C914 1.415 . S
C916 C921 1.425 . S
C916 C923 1.409 . S
C917 H909 0.930 . S
C917 C915 1.419 . S
C917 C918 1.362 . S
C918 H910 0.930 . S
C918 C917 1.362 . S
C918 C921 1.409 . S
C919 H911 0.930 . S
C919 C920 1.355 . S
C919 C921 1.415 . S
C920 C919 1.355 . S
C920 C922 1.419 . S
C921 C916 1.425 . S
C921 C918 1.409 . S
C921 C919 1.415 . S
C922 H912 0.930 . S
C922 C920 1.419 . S
C922 C923 1.362 . S
C923 H913 0.930 . S
C923 C916 1.409 . S
C923 C922 1.362 . S
H924 C930 0.930 . S
H925 C933 0.930 . S
H926 C934 0.940 . S
H927 C935 0.930 . S
H928 C938 0.930 . S
H929 C939 0.930 . S
C930 H924 0.930 . S
C930 C931 1.355 . S
C930 C932 1.415 1_554 S
C931 C930 1.355 . S
C931 C933 1.419 . S
C932 C930 1.415 1_556 S
C932 C937 1.425 . S
C932 C939 1.409 . S
C933 H925 0.930 . S
C933 C931 1.419 . S
C933 C934 1.362 . S
C934 H926 0.940 . S
C934 C933 1.362 . S
C934 C937 1.409 1_554 S
C935 H927 0.930 . S
C935 C936 1.355 . S
C935 C937 1.415 . S
C936 C935 1.355 . S
C936 C938 1.419 . S
C937 C932 1.425 . S
C937 C934 1.409 1_556 S
C937 C935 1.415 . S
C938 H928 0.930 . S
C938 C936 1.419 . S
C938 C939 1.362 . S
C939 H929 0.930 . S
C939 C932 1.409 . S
C939 C938 1.362 . S
H940 C946 0.930 . S
H941 C949 0.930 1_655 S
H942 C950 0.930 . S
H943 C951 0.930 . S
H944 C954 0.930 . S
H945 C955 0.930 . S
C946 H940 0.930 . S
C946 C947 1.355 . S
C946 C948 1.415 . S
C947 C946 1.355 . S
C947 C949 1.419 1_554 S
C948 C946 1.415 . S
C948 C953 1.425 1_554 S
C948 C955 1.409 . S
C949 H941 0.930 1_455 S
C949 C947 1.419 1_556 S
C949 C950 1.362 . S
C950 H942 0.930 . S
C950 C949 1.362 . S
C950 C953 1.409 . S
C951 H943 0.930 . S
C951 C952 1.355 . S
C951 C953 1.415 . S
C952 C951 1.355 . S
C952 C954 1.419 . S
C953 C948 1.425 1_556 S
C953 C950 1.409 . S
C953 C951 1.415 . S
C954 H944 0.930 . S
C954 C952 1.419 . S
C954 C955 1.362 1_556 S
C955 H945 0.930 . S
C955 C948 1.409 . S
C955 C954 1.362 1_554 S
H956 C962 0.916 1_554 S
H957 C965 0.930 . S
H958 C966 0.930 . S
H959 C967 0.930 . S
H960 C970 0.930 . S
H961 C971 0.930 . S
C962 H956 0.916 1_556 S
C962 C963 1.355 . S
C962 C964 1.415 1_556 S
C963 C962 1.355 . S
C963 C965 1.419 . S
C964 C962 1.415 1_554 S
C964 C969 1.425 1_554 S
C964 C971 1.409 . S
C965 H957 0.930 . S
C965 C963 1.419 . S
C965 C966 1.362 . S
C966 H958 0.930 . S
C966 C965 1.362 . S
C966 C969 1.409 . S
C967 H959 0.930 . S
C967 C968 1.355 . S
C967 C969 1.415 1_554 S
C968 C967 1.355 . S
C968 C970 1.419 . S
C969 C964 1.425 1_556 S
C969 C966 1.409 . S
C969 C967 1.415 1_556 S
C970 H960 0.930 . S
C970 C968 1.419 . S
C970 C971 1.362 . S
C971 H961 0.930 . S
C971 C964 1.409 . S
C971 C970 1.362 . S
H972 C978 0.930 . S
H973 C981 0.930 . S
H974 C982 0.930 . S
H975 C983 0.930 . S
H976 C986 0.930 . S
H977 C987 0.930 . S
C978 H972 0.930 . S
C978 C979 1.355 . S
C978 C980 1.415 . S
C979 C978 1.355 . S
C979 C981 1.419 . S
C980 C978 1.415 . S
C980 C985 1.425 . S
C980 C987 1.409 . S
C981 H973 0.930 . S
C981 C979 1.419 . S
C981 C982 1.362 . S
C982 H974 0.930 . S
C982 C981 1.362 . S
C982 C985 1.409 . S
C983 H975 0.930 . S
C983 C984 1.355 . S
C983 C985 1.415 . S
C984 C983 1.355 . S
C984 C986 1.419 . S
C985 C980 1.425 . S
C985 C982 1.409 . S
C985 C983 1.415 . S
C986 H976 0.930 . S
C986 C984 1.419 . S
C986 C987 1.362 . S
C987 H977 0.930 . S
C987 C980 1.409 . S
C987 C986 1.362 . S
H988 C994 0.930 . S
H989 C997 0.930 . S
H990 C998 0.930 . S
H991 C999 0.930 . S
H992 C1002 0.930 . S
H993 C1003 0.930 . S
C994 H988 0.930 . S
C994 C995 1.355 . S
C994 C996 1.415 . S
C995 C994 1.355 . S
C995 C997 1.419 . S
C996 C994 1.415 . S
C996 C1001 1.425 . S
C996 C1003 1.409 . S
C997 H989 0.930 . S
C997 C995 1.419 . S
C997 C998 1.362 . S
C998 H990 0.930 . S
C998 C997 1.362 . S
C998 C1001 1.409 . S
C999 H991 0.930 . S
C999 C1000 1.355 . S
C999 C1001 1.415 . S
C1000 C999 1.355 . S
C1000 C1002 1.419 . S
C1001 C996 1.425 . S
C1001 C998 1.409 . S
C1001 C999 1.415 . S
C1002 H992 0.930 . S
C1002 C1000 1.419 . S
C1002 C1003 1.362 . S
C1003 H993 0.930 . S
C1003 C996 1.409 . S
C1003 C1002 1.362 . S
H1004 C1010 0.930 . S
H1005 C1013 0.930 . S
H1006 C1014 0.930 . S
H1007 C1015 0.930 . S
H1008 C1018 0.930 . S
H1009 C1019 0.930 . S
C1010 H1004 0.930 . S
C1010 C1011 1.355 . S
C1010 C1012 1.415 . S
C1011 C1010 1.355 . S
C1011 C1013 1.419 . S
C1012 C1010 1.415 . S
C1012 C1017 1.425 . S
C1012 C1019 1.409 . S
C1013 H1005 0.930 . S
C1013 C1011 1.419 . S
C1013 C1014 1.362 . S
C1014 H1006 0.930 . S
C1014 C1013 1.362 . S
C1014 C1017 1.409 . S
C1015 H1007 0.930 . S
C1015 C1016 1.355 . S
C1015 C1017 1.415 . S
C1016 C1015 1.355 . S
C1016 C1018 1.419 . S
C1017 C1012 1.425 . S
C1017 C1014 1.409 . S
C1017 C1015 1.415 . S
C1018 H1008 0.930 . S
C1018 C1016 1.419 . S
C1018 C1019 1.362 . S
C1019 H1009 0.930 . S
C1019 C1012 1.409 . S
C1019 C1018 1.362 . S
H1020 C1026 0.930 . S
H1021 C1029 0.930 . S
H1022 C1030 0.930 . S
H1023 C1031 0.930 . S
H1024 C1034 0.930 . S
H1025 C1035 0.930 . S
C1026 H1020 0.930 . S
C1026 C1027 1.355 . S
C1026 C1028 1.415 . S
C1027 C1026 1.355 . S
C1027 C1029 1.419 . S
C1028 C1026 1.415 . S
C1028 C1033 1.425 . S
C1028 C1035 1.409 . S
C1029 H1021 0.930 . S
C1029 C1027 1.419 . S
C1029 C1030 1.362 . S
C1030 H1022 0.930 . S
C1030 C1029 1.362 . S
C1030 C1033 1.409 . S
C1031 H1023 0.930 . S
C1031 C1032 1.355 . S
C1031 C1033 1.415 . S
C1032 C1031 1.355 . S
C1032 C1034 1.419 . S
C1033 C1028 1.425 . S
C1033 C1030 1.409 . S
C1033 C1031 1.415 . S
C1034 H1024 0.930 . S
C1034 C1032 1.419 . S
C1034 C1035 1.362 . S
C1035 H1025 0.930 . S
C1035 C1028 1.409 . S
C1035 C1034 1.362 . S
H1036 C1042 0.930 . S
H1037 C1045 0.930 . S
H1038 C1046 0.930 . S
H1039 C1047 0.930 . S
H1040 C1050 0.930 . S
H1041 C1051 0.930 . S
C1042 H1036 0.930 . S
C1042 C1043 1.355 . S
C1042 C1044 1.415 . S
C1043 C1042 1.355 . S
C1043 C1045 1.419 . S
C1044 C1042 1.415 . S
C1044 C1049 1.425 . S
C1044 C1051 1.409 . S
C1045 H1037 0.930 . S
C1045 C1043 1.419 . S
C1045 C1046 1.362 . S
C1046 H1038 0.930 . S
C1046 C1045 1.362 . S
C1046 C1049 1.409 . S
C1047 H1039 0.930 . S
C1047 C1048 1.355 . S
C1047 C1049 1.415 . S
C1048 C1047 1.355 . S
C1048 C1050 1.419 . S
C1049 C1044 1.425 . S
C1049 C1046 1.409 . S
C1049 C1047 1.415 . S
C1050 H1040 0.930 . S
C1050 C1048 1.419 . S
C1050 C1051 1.362 . S
C1051 H1041 0.930 . S
C1051 C1044 1.409 . S
C1051 C1050 1.362 . S
H1052 C1058 0.930 . S
H1053 C1061 0.930 . S
H1054 C1062 0.930 . S
H1055 C1063 0.930 . S
H1056 C1066 0.930 . S
H1057 C1067 0.930 . S
C1058 H1052 0.930 . S
C1058 C1059 1.355 . S
C1058 C1060 1.415 . S
C1059 C1058 1.355 . S
C1059 C1061 1.419 . S
C1060 C1058 1.415 . S
C1060 C1065 1.425 . S
C1060 C1067 1.409 . S
C1061 H1053 0.930 . S
C1061 C1059 1.419 . S
C1061 C1062 1.362 . S
C1062 H1054 0.930 . S
C1062 C1061 1.362 . S
C1062 C1065 1.409 . S
C1063 H1055 0.930 . S
C1063 C1064 1.355 . S
C1063 C1065 1.415 . S
C1064 C1063 1.355 . S
C1064 C1066 1.419 . S
C1065 C1060 1.425 . S
C1065 C1062 1.409 . S
C1065 C1063 1.415 . S
C1066 H1056 0.930 . S
C1066 C1064 1.419 . S
C1066 C1067 1.362 . S
C1067 H1057 0.930 . S
C1067 C1060 1.409 . S
C1067 C1066 1.362 . S
H1068 C1074 0.930 . S
H1069 C1077 0.930 . S
H1070 C1078 0.930 . S
H1071 C1079 0.930 . S
H1072 C1082 0.930 . S
H1073 C1083 0.930 . S
C1074 H1068 0.930 . S
C1074 C1075 1.355 . S
C1074 C1076 1.415 . S
C1075 C1074 1.355 . S
C1075 C1077 1.419 . S
C1076 C1074 1.415 . S
C1076 C1081 1.425 . S
C1076 C1083 1.409 . S
C1077 H1069 0.930 . S
C1077 C1075 1.419 . S
C1077 C1078 1.362 . S
C1078 H1070 0.930 . S
C1078 C1077 1.362 . S
C1078 C1081 1.409 . S
C1079 H1071 0.930 . S
C1079 C1080 1.355 . S
C1079 C1081 1.415 . S
C1080 C1079 1.355 . S
C1080 C1082 1.419 . S
C1081 C1076 1.425 . S
C1081 C1078 1.409 . S
C1081 C1079 1.415 . S
C1082 H1072 0.930 . S
C1082 C1080 1.419 . S
C1082 C1083 1.362 . S
C1083 H1073 0.930 . S
C1083 C1076 1.409 . S
C1083 C1082 1.362 . S
H1084 C1090 0.930 . S
H1085 C1093 0.930 . S
H1086 C1094 0.930 . S
H1087 C1095 0.930 . S
H1088 C1098 0.930 . S
H1089 C1099 0.930 . S
C1090 H1084 0.930 . S
C1090 C1091 1.355 . S
C1090 C1092 1.415 . S
C1091 C1090 1.355 . S
C1091 C1093 1.419 . S
C1092 C1090 1.415 . S
C1092 C1097 1.425 . S
C1092 C1099 1.409 . S
C1093 H1085 0.930 . S
C1093 C1091 1.419 . S
C1093 C1094 1.362 . S
C1094 H1086 0.930 . S
C1094 C1093 1.362 . S
C1094 C1097 1.409 . S
C1095 H1087 0.930 . S
C1095 C1096 1.355 . S
C1095 C1097 1.415 . S
C1096 C1095 1.355 . S
C1096 C1098 1.419 . S
C1097 C1092 1.425 . S
C1097 C1094 1.409 . S
C1097 C1095 1.415 . S
C1098 H1088 0.930 . S
C1098 C1096 1.419 . S
C1098 C1099 1.362 . S
C1099 H1089 0.930 . S
C1099 C1092 1.409 . S
C1099 C1098 1.362 . S
H1100 C1106 0.930 . S
H1101 C1109 0.930 . S
H1102 C1110 0.930 . S
H1103 C1111 0.930 . S
H1104 C1114 0.930 . S
H1105 C1115 0.930 . S
C1106 H1100 0.930 . S
C1106 C1107 1.355 . S
C1106 C1108 1.415 . S
C1107 C1106 1.355 . S
C1107 C1109 1.419 . S
C1108 C1106 1.415 . S
C1108 C1113 1.425 . S
C1108 C1115 1.409 . S
C1109 H1101 0.930 . S
C1109 C1107 1.419 . S
C1109 C1110 1.362 . S
C1110 H1102 0.930 . S
C1110 C1109 1.362 . S
C1110 C1113 1.409 . S
C1111 H1103 0.930 . S
C1111 C1112 1.355 . S
C1111 C1113 1.415 . S
C1112 C1111 1.355 . S
C1112 C1114 1.419 . S
C1113 C1108 1.425 . S
C1113 C1110 1.409 . S
C1113 C1111 1.415 . S
C1114 H1104 0.930 . S
C1114 C1112 1.419 . S
C1114 C1115 1.362 . S
C1115 H1105 0.930 . S
C1115 C1108 1.409 . S
C1115 C1114 1.362 . S
H1116 C1122 0.930 . S
H1117 C1125 0.930 . S
H1118 C1126 0.930 . S
H1119 C1127 0.930 . S
H1120 C1130 0.930 . S
H1121 C1131 0.930 . S
C1122 H1116 0.930 . S
C1122 C1123 1.355 . S
C1122 C1124 1.415 . S
C1123 C1122 1.355 . S
C1123 C1125 1.419 . S
C1124 C1122 1.415 . S
C1124 C1129 1.425 . S
C1124 C1131 1.409 . S
C1125 H1117 0.930 . S
C1125 C1123 1.419 . S
C1125 C1126 1.362 . S
C1126 H1118 0.930 . S
C1126 C1125 1.362 . S
C1126 C1129 1.409 . S
C1127 H1119 0.930 . S
C1127 C1128 1.355 . S
C1127 C1129 1.415 . S
C1128 C1127 1.355 . S
C1128 C1130 1.419 . S
C1129 C1124 1.425 . S
C1129 C1126 1.409 . S
C1129 C1127 1.415 . S
C1130 H1120 0.930 . S
C1130 C1128 1.419 . S
C1130 C1131 1.362 . S
C1131 H1121 0.930 . S
C1131 C1124 1.409 . S
C1131 C1130 1.362 . S
H1132 C1138 0.930 . S
H1133 C1141 0.930 . S
H1134 C1142 0.930 . S
H1135 C1143 0.930 . S
H1136 C1146 0.930 . S
H1137 C1147 0.930 . S
C1138 H1132 0.930 . S
C1138 C1139 1.355 . S
C1138 C1140 1.415 . S
C1139 C1138 1.355 . S
C1139 C1141 1.419 . S
C1140 C1138 1.415 . S
C1140 C1145 1.425 . S
C1140 C1147 1.409 . S
C1141 H1133 0.930 . S
C1141 C1139 1.419 . S
C1141 C1142 1.362 . S
C1142 H1134 0.930 . S
C1142 C1141 1.362 . S
C1142 C1145 1.409 . S
C1143 H1135 0.930 . S
C1143 C1144 1.355 . S
C1143 C1145 1.415 . S
C1144 C1143 1.355 . S
C1144 C1146 1.419 . S
C1145 C1140 1.425 . S
C1145 C1142 1.409 . S
C1145 C1143 1.415 . S
C1146 H1136 0.930 . S
C1146 C1144 1.419 . S
C1146 C1147 1.362 . S
C1147 H1137 0.930 . S
C1147 C1140 1.409 . S
C1147 C1146 1.362 . S
H1148 C1154 0.930 . S
H1149 C1157 0.930 . S
H1150 C1158 0.930 . S
H1151 C1159 0.930 . S
H1152 C1162 0.930 . S
H1153 C1163 0.930 . S
C1154 H1148 0.930 . S
C1154 C1155 1.355 . S
C1154 C1156 1.415 . S
C1155 C1154 1.355 . S
C1155 C1157 1.419 . S
C1156 C1154 1.415 . S
C1156 C1161 1.425 . S
C1156 C1163 1.409 . S
C1157 H1149 0.930 . S
C1157 C1155 1.419 . S
C1157 C1158 1.362 . S
C1158 H1150 0.930 . S
C1158 C1157 1.362 . S
C1158 C1161 1.409 . S
C1159 H1151 0.930 . S
C1159 C1160 1.355 . S
C1159 C1161 1.415 . S
C1160 C1159 1.355 . S
C1160 C1162 1.419 . S
C1161 C1156 1.425 . S
C1161 C1158 1.409 . S
C1161 C1159 1.415 . S
C1162 H1152 0.930 . S
C1162 C1160 1.419 . S
C1162 C1163 1.362 . S
C1163 H1153 0.930 . S
C1163 C1156 1.409 . S
C1163 C1162 1.362 . S
H1164 C1170 0.930 . S
H1165 C1173 0.930 . S
H1166 C1174 0.930 . S
H1167 C1175 0.930 . S
H1168 C1178 0.930 . S
H1169 C1179 0.930 . S
C1170 H1164 0.930 . S
C1170 C1171 1.355 . S
C1170 C1172 1.415 . S
C1171 C1170 1.355 . S
C1171 C1173 1.419 . S
C1172 C1170 1.415 . S
C1172 C1177 1.425 . S
C1172 C1179 1.409 . S
C1173 H1165 0.930 . S
C1173 C1171 1.419 . S
C1173 C1174 1.362 . S
C1174 H1166 0.930 . S
C1174 C1173 1.362 . S
C1174 C1177 1.409 . S
C1175 H1167 0.930 . S
C1175 C1176 1.355 . S
C1175 C1177 1.415 . S
C1176 C1175 1.355 . S
C1176 C1178 1.419 . S
C1177 C1172 1.425 . S
C1177 C1174 1.409 . S
C1177 C1175 1.415 . S
C1178 H1168 0.930 . S
C1178 C1176 1.419 . S
C1178 C1179 1.362 . S
C1179 H1169 0.930 . S
C1179 C1172 1.409 . S
C1179 C1178 1.362 . S
H1180 C1186 0.930 . S
H1181 C1189 0.930 . S
H1182 C1190 0.930 . S
H1183 C1191 0.930 . S
H1184 C1194 0.930 . S
H1185 C1195 0.930 . S
C1186 H1180 0.930 . S
C1186 C1187 1.355 . S
C1186 C1188 1.415 . S
C1187 C1186 1.355 . S
C1187 C1189 1.419 . S
C1188 C1186 1.415 . S
C1188 C1193 1.425 . S
C1188 C1195 1.409 . S
C1189 H1181 0.930 . S
C1189 C1187 1.419 . S
C1189 C1190 1.362 . S
C1190 H1182 0.930 . S
C1190 C1189 1.362 . S
C1190 C1193 1.409 . S
C1191 H1183 0.930 . S
C1191 C1192 1.355 . S
C1191 C1193 1.415 . S
C1192 C1191 1.355 . S
C1192 C1194 1.419 . S
C1193 C1188 1.425 . S
C1193 C1190 1.409 . S
C1193 C1191 1.415 . S
C1194 H1184 0.930 . S
C1194 C1192 1.419 . S
C1194 C1195 1.362 . S
C1195 H1185 0.930 . S
C1195 C1188 1.409 . S
C1195 C1194 1.362 . S
H1196 C1202 0.930 . S
H1197 C1205 0.930 . S
H1198 C1206 0.930 . S
H1199 C1207 0.930 . S
H1200 C1210 0.930 . S
H1201 C1211 0.930 . S
C1202 H1196 0.930 . S
C1202 C1203 1.355 . S
C1202 C1204 1.415 . S
C1203 C1202 1.355 . S
C1203 C1205 1.419 . S
C1204 C1202 1.415 . S
C1204 C1209 1.425 . S
C1204 C1211 1.409 . S
C1205 H1197 0.930 . S
C1205 C1203 1.419 . S
C1205 C1206 1.362 . S
C1206 H1198 0.930 . S
C1206 C1205 1.362 . S
C1206 C1209 1.409 . S
C1207 H1199 0.930 . S
C1207 C1208 1.355 . S
C1207 C1209 1.415 . S
C1208 C1207 1.355 . S
C1208 C1210 1.419 . S
C1209 C1204 1.425 . S
C1209 C1206 1.409 . S
C1209 C1207 1.415 . S
C1210 H1200 0.930 . S
C1210 C1208 1.419 . S
C1210 C1211 1.362 . S
C1211 H1201 0.930 . S
C1211 C1204 1.409 . S
C1211 C1210 1.362 . S
H1212 C1218 0.930 . S
H1213 C1221 0.930 . S
H1214 C1222 0.930 . S
H1215 C1223 0.930 . S
H1216 C1226 0.930 . S
H1217 C1227 0.930 . S
C1218 H1212 0.930 . S
C1218 C1219 1.355 . S
C1218 C1220 1.415 . S
C1219 C1218 1.355 . S
C1219 C1221 1.419 . S
C1220 C1218 1.415 . S
C1220 C1225 1.425 . S
C1220 C1227 1.409 . S
C1221 H1213 0.930 . S
C1221 C1219 1.419 . S
C1221 C1222 1.362 . S
C1222 H1214 0.930 . S
C1222 C1221 1.362 . S
C1222 C1225 1.409 . S
C1223 H1215 0.930 . S
C1223 C1224 1.355 . S
C1223 C1225 1.415 . S
C1224 C1223 1.355 . S
C1224 C1226 1.419 . S
C1225 C1220 1.425 . S
C1225 C1222 1.409 . S
C1225 C1223 1.415 . S
C1226 H1216 0.930 . S
C1226 C1224 1.419 . S
C1226 C1227 1.362 . S
C1227 H1217 0.930 . S
C1227 C1220 1.409 . S
C1227 C1226 1.362 . S
H1228 C1234 0.930 . S
H1229 C1237 0.930 . S
H1230 C1238 0.930 . S
H1231 C1239 0.930 . S
H1232 C1242 0.930 . S
H1233 C1243 0.930 . S
C1234 H1228 0.930 . S
C1234 C1235 1.355 . S
C1234 C1236 1.415 . S
C1235 C1234 1.355 . S
C1235 C1237 1.419 . S
C1236 C1234 1.415 . S
C1236 C1241 1.425 . S
C1236 C1243 1.409 . S
C1237 H1229 0.930 . S
C1237 C1235 1.419 . S
C1237 C1238 1.362 . S
C1238 H1230 0.930 . S
C1238 C1237 1.362 . S
C1238 C1241 1.409 . S
C1239 H1231 0.930 . S
C1239 C1240 1.355 . S
C1239 C1241 1.415 . S
C1240 C1239 1.355 . S
C1240 C1242 1.419 . S
C1241 C1236 1.425 . S
C1241 C1238 1.409 . S
C1241 C1239 1.415 . S
C1242 H1232 0.930 . S
C1242 C1240 1.419 . S
C1242 C1243 1.362 . S
C1243 H1233 0.930 . S
C1243 C1236 1.409 . S
C1243 C1242 1.362 . S
H1244 C1250 0.930 . S
H1245 C1253 0.930 . S
H1246 C1254 0.930 . S
H1247 C1255 0.930 . S
H1248 C1258 0.930 . S
H1249 C1259 0.930 . S
C1250 H1244 0.930 . S
C1250 C1251 1.355 . S
C1250 C1252 1.415 . S
C1251 C1250 1.355 . S
C1251 C1253 1.419 . S
C1252 C1250 1.415 . S
C1252 C1257 1.425 . S
C1252 C1259 1.409 . S
C1253 H1245 0.930 . S
C1253 C1251 1.419 . S
C1253 C1254 1.362 . S
C1254 H1246 0.930 . S
C1254 C1253 1.362 . S
C1254 C1257 1.409 . S
C1255 H1247 0.930 . S
C1255 C1256 1.355 . S
C1255 C1257 1.415 . S
C1256 C1255 1.355 . S
C1256 C1258 1.419 . S
C1257 C1252 1.425 . S
C1257 C1254 1.409 . S
C1257 C1255 1.415 . S
C1258 H1248 0.930 . S
C1258 C1256 1.419 . S
C1258 C1259 1.362 . S
C1259 H1249 0.930 . S
C1259 C1252 1.409 . S
C1259 C1258 1.362 . S
H1260 C1266 0.930 . S
H1261 C1269 0.930 . S
H1262 C1270 0.930 . S
H1263 C1271 0.930 . S
H1264 C1274 0.930 . S
H1265 C1275 0.930 . S
C1266 H1260 0.930 . S
C1266 C1267 1.355 . S
C1266 C1268 1.415 . S
C1267 C1266 1.355 . S
C1267 C1269 1.419 . S
C1268 C1266 1.415 . S
C1268 C1273 1.425 . S
C1268 C1275 1.409 . S
C1269 H1261 0.930 . S
C1269 C1267 1.419 . S
C1269 C1270 1.362 . S
C1270 H1262 0.930 . S
C1270 C1269 1.362 . S
C1270 C1273 1.409 . S
C1271 H1263 0.930 . S
C1271 C1272 1.355 . S
C1271 C1273 1.415 . S
C1272 C1271 1.355 . S
C1272 C1274 1.419 . S
C1273 C1268 1.425 . S
C1273 C1270 1.409 . S
C1273 C1271 1.415 . S
C1274 H1264 0.930 . S
C1274 C1272 1.419 . S
C1274 C1275 1.362 . S
C1275 H1265 0.930 . S
C1275 C1268 1.409 . S
C1275 C1274 1.362 . S
H1276 C1282 0.930 . S
H1277 C1285 0.930 . S
H1278 C1286 0.930 . S
H1279 C1287 0.930 . S
H1280 C1290 0.930 . S
H1281 C1291 0.930 . S
C1282 H1276 0.930 . S
C1282 C1283 1.355 . S
C1282 C1284 1.415 . S
C1283 C1282 1.355 . S
C1283 C1285 1.419 . S
C1284 C1282 1.415 . S
C1284 C1289 1.425 . S
C1284 C1291 1.409 . S
C1285 H1277 0.930 . S
C1285 C1283 1.419 . S
C1285 C1286 1.362 . S
C1286 H1278 0.930 . S
C1286 C1285 1.362 . S
C1286 C1289 1.409 . S
C1287 H1279 0.930 . S
C1287 C1288 1.355 . S
C1287 C1289 1.415 . S
C1288 C1287 1.355 . S
C1288 C1290 1.419 . S
C1289 C1284 1.425 . S
C1289 C1286 1.409 . S
C1289 C1287 1.415 . S
C1290 H1280 0.930 . S
C1290 C1288 1.419 . S
C1290 C1291 1.362 . S
C1291 H1281 0.930 . S
C1291 C1284 1.409 . S
C1291 C1290 1.362 . S
H1292 C1298 0.930 . S
H1293 C1301 0.930 . S
H1294 C1302 0.930 . S
H1295 C1303 0.930 . S
H1296 C1306 0.930 . S
H1297 C1307 0.930 . S
C1298 H1292 0.930 . S
C1298 C1299 1.355 . S
C1298 C1300 1.415 . S
C1299 C1298 1.355 . S
C1299 C1301 1.419 . S
C1300 C1298 1.415 . S
C1300 C1305 1.425 . S
C1300 C1307 1.409 . S
C1301 H1293 0.930 . S
C1301 C1299 1.419 . S
C1301 C1302 1.362 . S
C1302 H1294 0.930 . S
C1302 C1301 1.362 . S
C1302 C1305 1.409 . S
C1303 H1295 0.930 . S
C1303 C1304 1.355 . S
C1303 C1305 1.415 . S
C1304 C1303 1.355 . S
C1304 C1306 1.419 . S
C1305 C1300 1.425 . S
C1305 C1302 1.409 . S
C1305 C1303 1.415 . S
C1306 H1296 0.930 . S
C1306 C1304 1.419 . S
C1306 C1307 1.362 . S
C1307 H1297 0.930 . S
C1307 C1300 1.409 . S
C1307 C1306 1.362 . S
H1308 C1314 0.930 . S
H1309 C1317 0.930 . S
H1310 C1318 0.930 . S
H1311 C1319 0.930 . S
H1312 C1322 0.930 . S
H1313 C1323 0.930 . S
C1314 H1308 0.930 . S
C1314 C1315 1.355 . S
C1314 C1316 1.415 . S
C1315 C1314 1.355 . S
C1315 C1317 1.419 . S
C1316 C1314 1.415 . S
C1316 C1321 1.425 . S
C1316 C1323 1.409 . S
C1317 H1309 0.930 . S
C1317 C1315 1.419 . S
C1317 C1318 1.362 . S
C1318 H1310 0.930 . S
C1318 C1317 1.362 . S
C1318 C1321 1.409 . S
C1319 H1311 0.930 . S
C1319 C1320 1.355 . S
C1319 C1321 1.415 . S
C1320 C1319 1.355 . S
C1320 C1322 1.419 . S
C1321 C1316 1.425 . S
C1321 C1318 1.409 . S
C1321 C1319 1.415 . S
C1322 H1312 0.930 . S
C1322 C1320 1.419 . S
C1322 C1323 1.362 . S
C1323 H1313 0.930 . S
C1323 C1316 1.409 . S
C1323 C1322 1.362 . S
H1324 C1330 0.930 . S
H1325 C1333 0.930 . S
H1326 C1334 0.930 . S
H1327 C1335 0.930 . S
H1328 C1338 0.930 . S
H1329 C1339 0.930 . S
C1330 H1324 0.930 . S
C1330 C1331 1.355 . S
C1330 C1332 1.415 . S
C1331 C1330 1.355 . S
C1331 C1333 1.419 . S
C1332 C1330 1.415 . S
C1332 C1337 1.425 . S
C1332 C1339 1.409 . S
C1333 H1325 0.930 . S
C1333 C1331 1.419 . S
C1333 C1334 1.362 . S
C1334 H1326 0.930 . S
C1334 C1333 1.362 . S
C1334 C1337 1.409 . S
C1335 H1327 0.930 . S
C1335 C1336 1.355 . S
C1335 C1337 1.415 . S
C1336 C1335 1.355 . S
C1336 C1338 1.419 . S
C1337 C1332 1.425 . S
C1337 C1334 1.409 . S
C1337 C1335 1.415 . S
C1338 H1328 0.930 . S
C1338 C1336 1.419 . S
C1338 C1339 1.362 . S
C1339 H1329 0.930 . S
C1339 C1332 1.409 . S
C1339 C1338 1.362 . S
H1340 C1346 0.930 . S
H1341 C1349 0.930 . S
H1342 C1350 0.930 . S
H1343 C1351 0.930 . S
H1344 C1354 0.930 . S
H1345 C1355 0.930 . S
C1346 H1340 0.930 . S
C1346 C1347 1.355 . S
C1346 C1348 1.415 . S
C1347 C1346 1.355 . S
C1347 C1349 1.419 . S
C1348 C1346 1.415 . S
C1348 C1353 1.425 . S
C1348 C1355 1.409 . S
C1349 H1341 0.930 . S
C1349 C1347 1.419 . S
C1349 C1350 1.362 . S
C1350 H1342 0.930 . S
C1350 C1349 1.362 . S
C1350 C1353 1.409 . S
C1351 H1343 0.930 . S
C1351 C1352 1.355 . S
C1351 C1353 1.415 . S
C1352 C1351 1.355 . S
C1352 C1354 1.419 . S
C1353 C1348 1.425 . S
C1353 C1350 1.409 . S
C1353 C1351 1.415 . S
C1354 H1344 0.930 . S
C1354 C1352 1.419 . S
C1354 C1355 1.362 . S
C1355 H1345 0.930 . S
C1355 C1348 1.409 . S
C1355 C1354 1.362 . S
H1356 C1362 0.930 . S
H1357 C1365 0.930 . S
H1358 C1366 0.930 . S
H1359 C1367 0.930 . S
H1360 C1370 0.930 . S
H1361 C1371 0.930 . S
C1362 H1356 0.930 . S
C1362 C1363 1.355 . S
C1362 C1364 1.415 . S
C1363 C1362 1.355 . S
C1363 C1365 1.419 . S
C1364 C1362 1.415 . S
C1364 C1369 1.425 . S
C1364 C1371 1.409 . S
C1365 H1357 0.930 . S
C1365 C1363 1.419 . S
C1365 C1366 1.362 . S
C1366 H1358 0.930 . S
C1366 C1365 1.362 . S
C1366 C1369 1.409 . S
C1367 H1359 0.930 . S
C1367 C1368 1.355 . S
C1367 C1369 1.415 . S
C1368 C1367 1.355 . S
C1368 C1370 1.419 . S
C1369 C1364 1.425 . S
C1369 C1366 1.409 . S
C1369 C1367 1.415 . S
C1370 H1360 0.930 . S
C1370 C1368 1.419 . S
C1370 C1371 1.362 . S
C1371 H1361 0.930 . S
C1371 C1364 1.409 . S
C1371 C1370 1.362 . S
H1372 C1378 0.930 . S
H1373 C1381 0.930 . S
H1374 C1382 0.930 . S
H1375 C1383 0.930 . S
H1376 C1386 0.930 . S
H1377 C1387 0.930 . S
C1378 H1372 0.930 . S
C1378 C1379 1.355 . S
C1378 C1380 1.415 . S
C1379 C1378 1.355 . S
C1379 C1381 1.419 . S
C1380 C1378 1.415 . S
C1380 C1385 1.425 . S
C1380 C1387 1.409 . S
C1381 H1373 0.930 . S
C1381 C1379 1.419 . S
C1381 C1382 1.362 . S
C1382 H1374 0.930 . S
C1382 C1381 1.362 . S
C1382 C1385 1.409 . S
C1383 H1375 0.930 . S
C1383 C1384 1.355 . S
C1383 C1385 1.415 . S
C1384 C1383 1.355 . S
C1384 C1386 1.419 . S
C1385 C1380 1.425 . S
C1385 C1382 1.409 . S
C1385 C1383 1.415 . S
C1386 H1376 0.930 . S
C1386 C1384 1.419 . S
C1386 C1387 1.362 . S
C1387 H1377 0.930 . S
C1387 C1380 1.409 . S
C1387 C1386 1.362 . S
H1388 C1394 0.930 . S
H1389 C1397 0.930 . S
H1390 C1398 0.930 . S
H1391 C1399 0.930 . S
H1392 C1402 0.930 . S
H1393 C1403 0.930 . S
C1394 H1388 0.930 . S
C1394 C1395 1.355 . S
C1394 C1396 1.415 . S
C1395 C1394 1.355 . S
C1395 C1397 1.419 . S
C1396 C1394 1.415 . S
C1396 C1401 1.425 . S
C1396 C1403 1.409 . S
C1397 H1389 0.930 . S
C1397 C1395 1.419 . S
C1397 C1398 1.362 . S
C1398 H1390 0.930 . S
C1398 C1397 1.362 . S
C1398 C1401 1.409 . S
C1399 H1391 0.930 . S
C1399 C1400 1.355 . S
C1399 C1401 1.415 . S
C1400 C1399 1.355 . S
C1400 C1402 1.419 . S
C1401 C1396 1.425 . S
C1401 C1398 1.409 . S
C1401 C1399 1.415 . S
C1402 H1392 0.930 . S
C1402 C1400 1.419 . S
C1402 C1403 1.362 . S
C1403 H1393 0.930 . S
C1403 C1396 1.409 . S
C1403 C1402 1.362 . S
H1404 C1410 0.930 . S
H1405 C1413 0.930 . S
H1406 C1414 0.930 . S
H1407 C1415 0.930 . S
H1408 C1418 0.930 . S
H1409 C1419 0.930 . S
C1410 H1404 0.930 . S
C1410 C1411 1.355 . S
C1410 C1412 1.415 . S
C1411 C1410 1.355 . S
C1411 C1413 1.419 . S
C1412 C1410 1.415 . S
C1412 C1417 1.425 . S
C1412 C1419 1.409 . S
C1413 H1405 0.930 . S
C1413 C1411 1.419 . S
C1413 C1414 1.362 . S
C1414 H1406 0.930 . S
C1414 C1413 1.362 . S
C1414 C1417 1.409 . S
C1415 H1407 0.930 . S
C1415 C1416 1.355 . S
C1415 C1417 1.415 . S
C1416 C1415 1.355 . S
C1416 C1418 1.419 . S
C1417 C1412 1.425 . S
C1417 C1414 1.409 . S
C1417 C1415 1.415 . S
C1418 H1408 0.930 . S
C1418 C1416 1.419 . S
C1418 C1419 1.362 . S
C1419 H1409 0.930 . S
C1419 C1412 1.409 . S
C1419 C1418 1.362 . S
H1420 C1426 0.930 . S
H1421 C1429 0.930 . S
H1422 C1430 0.930 . S
H1423 C1431 0.930 . S
H1424 C1434 0.930 . S
H1425 C1435 0.930 . S
C1426 H1420 0.930 . S
C1426 C1427 1.355 1_545 S
C1426 C1428 1.415 . S
C1427 C1426 1.355 1_565 S
C1427 C1429 1.419 . S
C1428 C1426 1.415 . S
C1428 C1433 1.425 1_545 S
C1428 C1435 1.409 . S
C1429 H1421 0.930 . S
C1429 C1427 1.419 . S
C1429 C1430 1.362 . S
C1430 H1422 0.930 . S
C1430 C1429 1.362 . S
C1430 C1433 1.409 . S
C1431 H1423 0.930 . S
C1431 C1432 1.355 1_565 S
C1431 C1433 1.415 . S
C1432 C1431 1.355 1_545 S
C1432 C1434 1.419 . S
C1433 C1428 1.425 1_565 S
C1433 C1430 1.409 . S
C1433 C1431 1.415 . S
C1434 H1424 0.930 . S
C1434 C1432 1.419 . S
C1434 C1435 1.362 . S
C1435 H1425 0.930 . S
C1435 C1428 1.409 . S
C1435 C1434 1.362 . S
H1436 C1442 0.930 . S
H1437 C1445 0.930 . S
H1438 C1446 0.930 . S
H1439 C1447 0.917 . S
H1440 C1450 0.930 . S
H1441 C1451 0.930 . S
C1442 H1436 0.930 . S
C1442 C1443 1.355 . S
C1442 C1444 1.415 . S
C1443 C1442 1.355 . S
C1443 C1445 1.419 . S
C1444 C1442 1.415 . S
C1444 C1449 1.425 . S
C1444 C1451 1.409 . S
C1445 H1437 0.930 . S
C1445 C1443 1.419 . S
C1445 C1446 1.362 . S
C1446 H1438 0.930 . S
C1446 C1445 1.362 . S
C1446 C1449 1.409 . S
C1447 H1439 0.917 . S
C1447 C1448 1.357 . S
C1447 C1449 1.415 . S
C1448 C1447 1.357 . S
C1448 C1450 1.417 . S
C1449 C1444 1.425 . S
C1449 C1446 1.409 . S
C1449 C1447 1.415 . S
C1450 H1440 0.930 . S
C1450 C1448 1.417 . S
C1450 C1451 1.362 . S
C1451 H1441 0.930 . S
C1451 C1444 1.409 . S
C1451 C1450 1.362 . S
H1452 C1458 0.930 . S
H1453 C1461 0.930 . S
H1454 C1462 0.930 . S
H1455 C1463 0.930 . S
H1456 C1466 0.930 . S
H1457 C1467 0.930 . S
C1458 H1452 0.930 . S
C1458 C1459 1.355 . S
C1458 C1460 1.415 . S
C1459 C1458 1.355 . S
C1459 C1461 1.419 . S
C1460 C1458 1.415 . S
C1460 C1465 1.425 . S
C1460 C1467 1.409 . S
C1461 H1453 0.930 . S
C1461 C1459 1.419 . S
C1461 C1462 1.362 . S
C1462 H1454 0.930 . S
C1462 C1461 1.362 . S
C1462 C1465 1.409 . S
C1463 H1455 0.930 . S
C1463 C1464 1.355 . S
C1463 C1465 1.415 . S
C1464 C1463 1.355 . S
C1464 C1466 1.419 . S
C1465 C1460 1.425 . S
C1465 C1462 1.409 . S
C1465 C1463 1.415 . S
C1466 H1456 0.930 . S
C1466 C1464 1.419 . S
C1466 C1467 1.362 . S
C1467 H1457 0.930 . S
C1467 C1460 1.409 . S
C1467 C1466 1.362 . S
H1468 C1474 0.940 . S
H1469 C1477 0.930 . S
H1470 C1478 0.930 . S
H1471 C1479 0.930 1_545 S
H1472 C1482 0.930 . S
H1473 C1483 0.930 . S
C1474 H1468 0.940 . S
C1474 C1475 1.342 1_565 S
C1474 C1476 1.417 . S
C1475 C1474 1.342 1_545 S
C1475 C1477 1.419 . S
C1476 C1474 1.417 . S
C1476 C1481 1.425 1_565 S
C1476 C1483 1.409 . S
C1477 H1469 0.930 . S
C1477 C1475 1.419 . S
C1477 C1478 1.362 . S
C1478 H1470 0.930 . S
C1478 C1477 1.362 . S
C1478 C1481 1.409 . S
C1479 H1471 0.930 1_565 S
C1479 C1480 1.355 . S
C1479 C1481 1.415 1_565 S
C1480 C1479 1.355 . S
C1480 C1482 1.419 . S
C1481 C1476 1.425 1_545 S
C1481 C1478 1.409 . S
C1481 C1479 1.415 1_545 S
C1482 H1472 0.930 . S
C1482 C1480 1.419 . S
C1482 C1483 1.362 . S
C1483 H1473 0.930 . S
C1483 C1476 1.409 . S
C1483 C1482 1.362 . S
H1484 C1490 0.930 1_455 S
H1485 C1493 0.930 . S
H1486 C1494 0.930 . S
H1487 C1495 0.930 . S
H1488 C1498 0.930 . S
H1489 C1499 0.930 . S
C1490 H1484 0.930 1_655 S
C1490 C1491 1.355 . S
C1490 C1492 1.415 1_655 S
C1491 C1490 1.355 . S
C1491 C1493 1.419 . S
C1492 C1490 1.415 1_455 S
C1492 C1497 1.425 1_455 S
C1492 C1499 1.409 . S
C1493 H1485 0.930 . S
C1493 C1491 1.419 . S
C1493 C1494 1.362 . S
C1494 H1486 0.930 . S
C1494 C1493 1.362 . S
C1494 C1497 1.409 . S
C1495 H1487 0.930 . S
C1495 C1496 1.355 1_655 S
C1495 C1497 1.415 . S
C1496 C1495 1.355 1_455 S
C1496 C1498 1.419 . S
C1497 C1492 1.425 1_655 S
C1497 C1494 1.409 . S
C1497 C1495 1.415 . S
C1498 H1488 0.930 . S
C1498 C1496 1.419 . S
C1498 C1499 1.362 . S
C1499 H1489 0.930 . S
C1499 C1492 1.409 . S
C1499 C1498 1.362 . S
H1500 C1506 0.930 . S
H1501 C1509 0.930 . S
H1502 C1510 0.930 . S
H1503 C1511 0.930 . S
H1504 C1514 0.930 . S
H1505 C1515 0.930 . S
C1506 H1500 0.930 . S
C1506 C1507 1.355 . S
C1506 C1508 1.415 . S
C1507 C1506 1.355 . S
C1507 C1509 1.419 . S
C1508 C1506 1.415 . S
C1508 C1513 1.425 . S
C1508 C1515 1.409 . S
C1509 H1501 0.930 . S
C1509 C1507 1.419 . S
C1509 C1510 1.362 . S
C1510 H1502 0.930 . S
C1510 C1509 1.362 . S
C1510 C1513 1.409 . S
C1511 H1503 0.930 . S
C1511 C1512 1.355 . S
C1511 C1513 1.415 . S
C1512 C1511 1.355 . S
C1512 C1514 1.419 . S
C1513 C1508 1.425 . S
C1513 C1510 1.409 . S
C1513 C1511 1.415 . S
C1514 H1504 0.930 . S
C1514 C1512 1.419 . S
C1514 C1515 1.362 . S
C1515 H1505 0.930 . S
C1515 C1508 1.409 . S
C1515 C1514 1.362 . S
H1516 C1522 0.930 . S
H1517 C1525 0.930 . S
H1518 C1526 0.930 . S
H1519 C1527 0.930 . S
H1520 C1530 0.930 . S
H1521 C1531 0.930 . S
C1522 H1516 0.930 . S
C1522 C1523 1.355 . S
C1522 C1524 1.415 . S
C1523 C1522 1.355 . S
C1523 C1525 1.419 . S
C1524 C1522 1.415 . S
C1524 C1529 1.425 . S
C1524 C1531 1.409 . S
C1525 H1517 0.930 . S
C1525 C1523 1.419 . S
C1525 C1526 1.362 . S
C1526 H1518 0.930 . S
C1526 C1525 1.362 . S
C1526 C1529 1.409 . S
C1527 H1519 0.930 . S
C1527 C1528 1.355 . S
C1527 C1529 1.415 . S
C1528 C1527 1.355 . S
C1528 C1530 1.419 . S
C1529 C1524 1.425 . S
C1529 C1526 1.409 . S
C1529 C1527 1.415 . S
C1530 H1520 0.930 . S
C1530 C1528 1.419 . S
C1530 C1531 1.362 . S
C1531 H1521 0.930 . S
C1531 C1524 1.409 . S
C1531 C1530 1.362 . S
H1532 C1538 0.930 . S
H1533 C1541 0.930 . S
H1534 C1542 0.930 . S
H1535 C1543 0.930 . S
H1536 C1546 0.930 . S
H1537 C1547 0.930 . S
C1538 H1532 0.930 . S
C1538 C1539 1.355 . S
C1538 C1540 1.415 . S
C1539 C1538 1.355 . S
C1539 C1541 1.419 . S
C1540 C1538 1.415 . S
C1540 C1545 1.425 . S
C1540 C1547 1.409 . S
C1541 H1533 0.930 . S
C1541 C1539 1.419 . S
C1541 C1542 1.362 . S
C1542 H1534 0.930 . S
C1542 C1541 1.362 . S
C1542 C1545 1.409 . S
C1543 H1535 0.930 . S
C1543 C1544 1.355 . S
C1543 C1545 1.415 . S
C1544 C1543 1.355 . S
C1544 C1546 1.419 . S
C1545 C1540 1.425 . S
C1545 C1542 1.409 . S
C1545 C1543 1.415 . S
C1546 H1536 0.930 . S
C1546 C1544 1.419 . S
C1546 C1547 1.362 . S
C1547 H1537 0.930 . S
C1547 C1540 1.409 . S
C1547 C1546 1.362 . S
H1548 C1554 0.930 . S
H1549 C1557 0.930 . S
H1550 C1558 0.930 . S
H1551 C1559 0.930 . S
H1552 C1562 0.930 . S
H1553 C1563 0.930 . S
C1554 H1548 0.930 . S
C1554 C1555 1.355 . S
C1554 C1556 1.415 . S
C1555 C1554 1.355 . S
C1555 C1557 1.419 . S
C1556 C1554 1.415 . S
C1556 C1561 1.425 . S
C1556 C1563 1.409 . S
C1557 H1549 0.930 . S
C1557 C1555 1.419 . S
C1557 C1558 1.362 . S
C1558 H1550 0.930 . S
C1558 C1557 1.362 . S
C1558 C1561 1.409 . S
C1559 H1551 0.930 . S
C1559 C1560 1.355 . S
C1559 C1561 1.415 . S
C1560 C1559 1.355 . S
C1560 C1562 1.419 . S
C1561 C1556 1.425 . S
C1561 C1558 1.409 . S
C1561 C1559 1.415 . S
C1562 H1552 0.930 . S
C1562 C1560 1.419 . S
C1562 C1563 1.362 . S
C1563 H1553 0.930 . S
C1563 C1556 1.409 . S
C1563 C1562 1.362 . S
H1564 C1570 0.930 . S
H1565 C1573 0.930 . S
H1566 C1574 0.930 . S
H1567 C1575 0.930 . S
H1568 C1578 0.930 . S
H1569 C1579 0.930 . S
C1570 H1564 0.930 . S
C1570 C1571 1.355 . S
C1570 C1572 1.415 . S
C1571 C1570 1.355 . S
C1571 C1573 1.419 . S
C1572 C1570 1.415 . S
C1572 C1577 1.425 . S
C1572 C1579 1.409 . S
C1573 H1565 0.930 . S
C1573 C1571 1.419 . S
C1573 C1574 1.362 . S
C1574 H1566 0.930 . S
C1574 C1573 1.362 . S
C1574 C1577 1.409 . S
C1575 H1567 0.930 . S
C1575 C1576 1.355 . S
C1575 C1577 1.415 . S
C1576 C1575 1.355 . S
C1576 C1578 1.419 . S
C1577 C1572 1.425 . S
C1577 C1574 1.409 . S
C1577 C1575 1.415 . S
C1578 H1568 0.930 . S
C1578 C1576 1.419 . S
C1578 C1579 1.362 . S
C1579 H1569 0.930 . S
C1579 C1572 1.409 . S
C1579 C1578 1.362 . S
H1580 C1586 0.930 . S
H1581 C1589 0.930 . S
H1582 C1590 0.930 . S
H1583 C1591 0.930 . S
H1584 C1594 0.930 . S
H1585 C1595 0.930 . S
C1586 H1580 0.930 . S
C1586 C1587 1.355 . S
C1586 C1588 1.415 . S
C1587 C1586 1.355 . S
C1587 C1589 1.419 . S
C1588 C1586 1.415 . S
C1588 C1593 1.425 . S
C1588 C1595 1.409 . S
C1589 H1581 0.930 . S
C1589 C1587 1.419 . S
C1589 C1590 1.362 . S
C1590 H1582 0.930 . S
C1590 C1589 1.362 . S
C1590 C1593 1.409 . S
C1591 H1583 0.930 . S
C1591 C1592 1.355 . S
C1591 C1593 1.415 . S
C1592 C1591 1.355 . S
C1592 C1594 1.419 . S
C1593 C1588 1.425 . S
C1593 C1590 1.409 . S
C1593 C1591 1.415 . S
C1594 H1584 0.930 . S
C1594 C1592 1.419 . S
C1594 C1595 1.362 . S
C1595 H1585 0.930 . S
C1595 C1588 1.409 . S
C1595 C1594 1.362 . S
H1596 C1602 0.930 . S
H1597 C1605 0.930 . S
H1598 C1606 0.930 . S
H1599 C1607 0.930 . S
H1600 C1610 0.930 . S
H1601 C1611 0.930 . S
C1602 H1596 0.930 . S
C1602 C1603 1.355 . S
C1602 C1604 1.415 . S
C1603 C1602 1.355 . S
C1603 C1605 1.419 . S
C1604 C1602 1.415 . S
C1604 C1609 1.425 . S
C1604 C1611 1.409 . S
C1605 H1597 0.930 . S
C1605 C1603 1.419 . S
C1605 C1606 1.362 . S
C1606 H1598 0.930 . S
C1606 C1605 1.362 . S
C1606 C1609 1.409 . S
C1607 H1599 0.930 . S
C1607 C1608 1.355 . S
C1607 C1609 1.415 . S
C1608 C1607 1.355 . S
C1608 C1610 1.419 . S
C1609 C1604 1.425 . S
C1609 C1606 1.409 . S
C1609 C1607 1.415 . S
C1610 H1600 0.930 . S
C1610 C1608 1.419 . S
C1610 C1611 1.362 . S
C1611 H1601 0.930 . S
C1611 C1604 1.409 . S
C1611 C1610 1.362 . S
H1612 C1618 0.930 . S
H1613 C1621 0.930 . S
H1614 C1622 0.930 . S
H1615 C1623 0.930 . S
H1616 C1626 0.930 . S
H1617 C1627 0.930 . S
C1618 H1612 0.930 . S
C1618 C1619 1.355 . S
C1618 C1620 1.415 . S
C1619 C1618 1.355 . S
C1619 C1621 1.419 . S
C1620 C1618 1.415 . S
C1620 C1625 1.425 . S
C1620 C1627 1.409 . S
C1621 H1613 0.930 . S
C1621 C1619 1.419 . S
C1621 C1622 1.362 . S
C1622 H1614 0.930 . S
C1622 C1621 1.362 . S
C1622 C1625 1.409 . S
C1623 H1615 0.930 . S
C1623 C1624 1.355 . S
C1623 C1625 1.415 . S
C1624 C1623 1.355 . S
C1624 C1626 1.419 . S
C1625 C1620 1.425 . S
C1625 C1622 1.409 . S
C1625 C1623 1.415 . S
C1626 H1616 0.930 . S
C1626 C1624 1.419 . S
C1626 C1627 1.362 . S
C1627 H1617 0.930 . S
C1627 C1620 1.409 . S
C1627 C1626 1.362 . S
H1628 C1634 0.930 . S
H1629 C1637 0.930 . S
H1630 C1638 0.930 . S
H1631 C1639 0.930 . S
H1632 C1642 0.930 . S
H1633 C1643 0.930 . S
C1634 H1628 0.930 . S
C1634 C1635 1.355 . S
C1634 C1636 1.415 . S
C1635 C1634 1.355 . S
C1635 C1637 1.419 . S
C1636 C1634 1.415 . S
C1636 C1641 1.425 . S
C1636 C1643 1.409 . S
C1637 H1629 0.930 . S
C1637 C1635 1.419 . S
C1637 C1638 1.362 . S
C1638 H1630 0.930 . S
C1638 C1637 1.362 . S
C1638 C1641 1.409 . S
C1639 H1631 0.930 . S
C1639 C1640 1.355 . S
C1639 C1641 1.415 . S
C1640 C1639 1.355 . S
C1640 C1642 1.419 . S
C1641 C1636 1.425 . S
C1641 C1638 1.409 . S
C1641 C1639 1.415 . S
C1642 H1632 0.930 . S
C1642 C1640 1.419 . S
C1642 C1643 1.362 . S
C1643 H1633 0.930 . S
C1643 C1636 1.409 . S
C1643 C1642 1.362 . S
H1644 C1650 0.930 . S
H1645 C1653 0.930 . S
H1646 C1654 0.930 . S
H1647 C1655 0.930 . S
H1648 C1658 0.930 . S
H1649 C1659 0.930 . S
C1650 H1644 0.930 . S
C1650 C1651 1.355 . S
C1650 C1652 1.415 . S
C1651 C1650 1.355 . S
C1651 C1653 1.419 . S
C1652 C1650 1.415 . S
C1652 C1657 1.425 . S
C1652 C1659 1.409 . S
C1653 H1645 0.930 . S
C1653 C1651 1.419 . S
C1653 C1654 1.362 . S
C1654 H1646 0.930 . S
C1654 C1653 1.362 . S
C1654 C1657 1.409 . S
C1655 H1647 0.930 . S
C1655 C1656 1.355 . S
C1655 C1657 1.415 . S
C1656 C1655 1.355 . S
C1656 C1658 1.419 . S
C1657 C1652 1.425 . S
C1657 C1654 1.409 . S
C1657 C1655 1.415 . S
C1658 H1648 0.930 . S
C1658 C1656 1.419 . S
C1658 C1659 1.362 . S
C1659 H1649 0.930 . S
C1659 C1652 1.409 . S
C1659 C1658 1.362 . S
H1660 C1666 0.930 . S
H1661 C1669 0.930 . S
H1662 C1670 0.930 . S
H1663 C1671 0.930 . S
H1664 C1674 0.930 . S
H1665 C1675 0.930 . S
C1666 H1660 0.930 . S
C1666 C1667 1.355 . S
C1666 C1668 1.415 . S
C1667 C1666 1.355 . S
C1667 C1669 1.419 . S
C1668 C1666 1.415 . S
C1668 C1673 1.425 . S
C1668 C1675 1.409 . S
C1669 H1661 0.930 . S
C1669 C1667 1.419 . S
C1669 C1670 1.362 . S
C1670 H1662 0.930 . S
C1670 C1669 1.362 . S
C1670 C1673 1.409 . S
C1671 H1663 0.930 . S
C1671 C1672 1.355 . S
C1671 C1673 1.415 . S
C1672 C1671 1.355 . S
C1672 C1674 1.419 . S
C1673 C1668 1.425 . S
C1673 C1670 1.409 . S
C1673 C1671 1.415 . S
C1674 H1664 0.930 . S
C1674 C1672 1.419 . S
C1674 C1675 1.362 . S
C1675 H1665 0.930 . S
C1675 C1668 1.409 . S
C1675 C1674 1.362 . S
H1676 C1682 0.930 . S
H1677 C1685 0.930 . S
H1678 C1686 0.930 . S
H1679 C1687 0.930 . S
H1680 C1690 0.930 . S
H1681 C1691 0.930 . S
C1682 H1676 0.930 . S
C1682 C1683 1.355 . S
C1682 C1684 1.415 . S
C1683 C1682 1.355 . S
C1683 C1685 1.419 . S
C1684 C1682 1.415 . S
C1684 C1689 1.425 . S
C1684 C1691 1.409 . S
C1685 H1677 0.930 . S
C1685 C1683 1.419 . S
C1685 C1686 1.362 . S
C1686 H1678 0.930 . S
C1686 C1685 1.362 . S
C1686 C1689 1.409 . S
C1687 H1679 0.930 . S
C1687 C1688 1.355 . S
C1687 C1689 1.415 . S
C1688 C1687 1.355 . S
C1688 C1690 1.419 . S
C1689 C1684 1.425 . S
C1689 C1686 1.409 . S
C1689 C1687 1.415 . S
C1690 H1680 0.930 . S
C1690 C1688 1.419 . S
C1690 C1691 1.362 . S
C1691 H1681 0.930 . S
C1691 C1684 1.409 . S
C1691 C1690 1.362 . S
H1692 C1698 0.930 . S
H1693 C1701 0.930 . S
H1694 C1702 0.930 . S
H1695 C1703 0.930 . S
H1696 C1706 0.930 . S
H1697 C1707 0.930 . S
C1698 H1692 0.930 . S
C1698 C1699 1.355 . S
C1698 C1700 1.415 . S
C1699 C1698 1.355 . S
C1699 C1701 1.419 . S
C1700 C1698 1.415 . S
C1700 C1705 1.425 . S
C1700 C1707 1.409 . S
C1701 H1693 0.930 . S
C1701 C1699 1.419 . S
C1701 C1702 1.362 . S
C1702 H1694 0.930 . S
C1702 C1701 1.362 . S
C1702 C1705 1.409 . S
C1703 H1695 0.930 . S
C1703 C1704 1.355 . S
C1703 C1705 1.415 . S
C1704 C1703 1.355 . S
C1704 C1706 1.419 . S
C1705 C1700 1.425 . S
C1705 C1702 1.409 . S
C1705 C1703 1.415 . S
C1706 H1696 0.930 . S
C1706 C1704 1.419 . S
C1706 C1707 1.362 . S
C1707 H1697 0.930 . S
C1707 C1700 1.409 . S
C1707 C1706 1.362 . S
H1708 C1714 0.930 . S
H1709 C1717 0.930 . S
H1710 C1718 0.930 . S
H1711 C1719 0.930 . S
H1712 C1722 0.930 . S
H1713 C1723 0.930 . S
C1714 H1708 0.930 . S
C1714 C1715 1.355 . S
C1714 C1716 1.415 . S
C1715 C1714 1.355 . S
C1715 C1717 1.419 . S
C1716 C1714 1.415 . S
C1716 C1721 1.425 . S
C1716 C1723 1.409 . S
C1717 H1709 0.930 . S
C1717 C1715 1.419 . S
C1717 C1718 1.362 . S
C1718 H1710 0.930 . S
C1718 C1717 1.362 . S
C1718 C1721 1.409 . S
C1719 H1711 0.930 . S
C1719 C1720 1.355 . S
C1719 C1721 1.415 . S
C1720 C1719 1.355 . S
C1720 C1722 1.419 . S
C1721 C1716 1.425 . S
C1721 C1718 1.409 . S
C1721 C1719 1.415 . S
C1722 H1712 0.930 . S
C1722 C1720 1.419 . S
C1722 C1723 1.362 . S
C1723 H1713 0.930 . S
C1723 C1716 1.409 . S
C1723 C1722 1.362 . S
H1724 C1730 0.930 . S
H1725 C1733 0.930 . S
H1726 C1734 0.930 . S
H1727 C1735 0.930 . S
H1728 C1738 0.930 . S
H1729 C1739 0.930 . S
C1730 H1724 0.930 . S
C1730 C1731 1.355 . S
C1730 C1732 1.415 . S
C1731 C1730 1.355 . S
C1731 C1733 1.419 . S
C1732 C1730 1.415 . S
C1732 C1737 1.425 . S
C1732 C1739 1.409 . S
C1733 H1725 0.930 . S
C1733 C1731 1.419 . S
C1733 C1734 1.362 . S
C1734 H1726 0.930 . S
C1734 C1733 1.362 . S
C1734 C1737 1.409 . S
C1735 H1727 0.930 . S
C1735 C1736 1.355 . S
C1735 C1737 1.415 . S
C1736 C1735 1.355 . S
C1736 C1738 1.419 . S
C1737 C1732 1.425 . S
C1737 C1734 1.409 . S
C1737 C1735 1.415 . S
C1738 H1728 0.930 . S
C1738 C1736 1.419 . S
C1738 C1739 1.362 . S
C1739 H1729 0.930 . S
C1739 C1732 1.409 . S
C1739 C1738 1.362 . S
H1740 C1746 0.930 . S
H1741 C1749 0.930 . S
H1742 C1750 0.930 . S
H1743 C1751 0.930 . S
H1744 C1754 0.930 . S
H1745 C1755 0.930 . S
C1746 H1740 0.930 . S
C1746 C1747 1.355 . S
C1746 C1748 1.415 . S
C1747 C1746 1.355 . S
C1747 C1749 1.419 . S
C1748 C1746 1.415 . S
C1748 C1753 1.425 . S
C1748 C1755 1.409 . S
C1749 H1741 0.930 . S
C1749 C1747 1.419 . S
C1749 C1750 1.362 . S
C1750 H1742 0.930 . S
C1750 C1749 1.362 . S
C1750 C1753 1.409 . S
C1751 H1743 0.930 . S
C1751 C1752 1.355 . S
C1751 C1753 1.415 . S
C1752 C1751 1.355 . S
C1752 C1754 1.419 . S
C1753 C1748 1.425 . S
C1753 C1750 1.409 . S
C1753 C1751 1.415 . S
C1754 H1744 0.930 . S
C1754 C1752 1.419 . S
C1754 C1755 1.362 . S
C1755 H1745 0.930 . S
C1755 C1748 1.409 . S
C1755 C1754 1.362 . S
H1756 C1762 0.930 . S
H1757 C1765 0.930 . S
H1758 C1766 0.930 . S
H1759 C1767 0.930 . S
H1760 C1770 0.930 . S
H1761 C1771 0.930 . S
C1762 H1756 0.930 . S
C1762 C1763 1.355 . S
C1762 C1764 1.415 . S
C1763 C1762 1.355 . S
C1763 C1765 1.419 . S
C1764 C1762 1.415 . S
C1764 C1769 1.425 . S
C1764 C1771 1.409 . S
C1765 H1757 0.930 . S
C1765 C1763 1.419 . S
C1765 C1766 1.362 . S
C1766 H1758 0.930 . S
C1766 C1765 1.362 . S
C1766 C1769 1.409 . S
C1767 H1759 0.930 . S
C1767 C1768 1.355 . S
C1767 C1769 1.415 . S
C1768 C1767 1.355 . S
C1768 C1770 1.419 . S
C1769 C1764 1.425 . S
C1769 C1766 1.409 . S
C1769 C1767 1.415 . S
C1770 H1760 0.930 . S
C1770 C1768 1.419 . S
C1770 C1771 1.362 . S
C1771 H1761 0.930 . S
C1771 C1764 1.409 . S
C1771 C1770 1.362 . S
H1772 C1778 0.930 . S
H1773 C1781 0.930 . S
H1774 C1782 0.930 . S
H1775 C1783 0.930 . S
H1776 C1786 0.930 . S
H1777 C1787 0.930 . S
C1778 H1772 0.930 . S
C1778 C1779 1.355 . S
C1778 C1780 1.415 . S
C1779 C1778 1.355 . S
C1779 C1781 1.419 . S
C1780 C1778 1.415 . S
C1780 C1785 1.425 . S
C1780 C1787 1.409 . S
C1781 H1773 0.930 . S
C1781 C1779 1.419 . S
C1781 C1782 1.362 . S
C1782 H1774 0.930 . S
C1782 C1781 1.362 . S
C1782 C1785 1.409 . S
C1783 H1775 0.930 . S
C1783 C1784 1.355 . S
C1783 C1785 1.415 . S
C1784 C1783 1.355 . S
C1784 C1786 1.419 . S
C1785 C1780 1.425 . S
C1785 C1782 1.409 . S
C1785 C1783 1.415 . S
C1786 H1776 0.930 . S
C1786 C1784 1.419 . S
C1786 C1787 1.362 . S
C1787 H1777 0.930 . S
C1787 C1780 1.409 . S
C1787 C1786 1.362 . S
H1788 C1794 0.930 . S
H1789 C1797 0.930 . S
H1790 C1798 0.930 . S
H1791 C1799 0.930 . S
H1792 C1802 0.930 . S
H1793 C1803 0.930 . S
C1794 H1788 0.930 . S
C1794 C1795 1.355 . S
C1794 C1796 1.415 . S
C1795 C1794 1.355 . S
C1795 C1797 1.419 . S
C1796 C1794 1.415 . S
C1796 C1801 1.425 . S
C1796 C1803 1.409 . S
C1797 H1789 0.930 . S
C1797 C1795 1.419 . S
C1797 C1798 1.362 . S
C1798 H1790 0.930 . S
C1798 C1797 1.362 . S
C1798 C1801 1.409 . S
C1799 H1791 0.930 . S
C1799 C1800 1.355 . S
C1799 C1801 1.415 . S
C1800 C1799 1.355 . S
C1800 C1802 1.419 . S
C1801 C1796 1.425 . S
C1801 C1798 1.409 . S
C1801 C1799 1.415 . S
C1802 H1792 0.930 . S
C1802 C1800 1.419 . S
C1802 C1803 1.362 . S
C1803 H1793 0.930 . S
C1803 C1796 1.409 . S
C1803 C1802 1.362 . S
H1804 C1810 0.930 . S
H1805 C1813 0.930 . S
H1806 C1814 0.930 . S
H1807 C1815 0.930 . S
H1808 C1818 0.930 . S
H1809 C1819 0.930 . S
C1810 H1804 0.930 . S
C1810 C1811 1.355 . S
C1810 C1812 1.415 . S
C1811 C1810 1.355 . S
C1811 C1813 1.419 . S
C1812 C1810 1.415 . S
C1812 C1817 1.425 . S
C1812 C1819 1.409 . S
C1813 H1805 0.930 . S
C1813 C1811 1.419 . S
C1813 C1814 1.362 . S
C1814 H1806 0.930 . S
C1814 C1813 1.362 . S
C1814 C1817 1.409 . S
C1815 H1807 0.930 . S
C1815 C1816 1.355 . S
C1815 C1817 1.415 . S
C1816 C1815 1.355 . S
C1816 C1818 1.419 . S
C1817 C1812 1.425 . S
C1817 C1814 1.409 . S
C1817 C1815 1.415 . S
C1818 H1808 0.930 . S
C1818 C1816 1.419 . S
C1818 C1819 1.362 . S
C1819 H1809 0.930 . S
C1819 C1812 1.409 . S
C1819 C1818 1.362 . S
H1820 C1826 0.930 . S
H1821 C1829 0.930 . S
H1822 C1830 0.930 . S
H1823 C1831 0.930 . S
H1824 C1834 0.930 . S
H1825 C1835 0.930 . S
C1826 H1820 0.930 . S
C1826 C1827 1.355 . S
C1826 C1828 1.415 . S
C1827 C1826 1.355 . S
C1827 C1829 1.419 . S
C1828 C1826 1.415 . S
C1828 C1833 1.425 . S
C1828 C1835 1.409 . S
C1829 H1821 0.930 . S
C1829 C1827 1.419 . S
C1829 C1830 1.362 . S
C1830 H1822 0.930 . S
C1830 C1829 1.362 . S
C1830 C1833 1.409 . S
C1831 H1823 0.930 . S
C1831 C1832 1.355 . S
C1831 C1833 1.415 . S
C1832 C1831 1.355 . S
C1832 C1834 1.419 . S
C1833 C1828 1.425 . S
C1833 C1830 1.409 . S
C1833 C1831 1.415 . S
C1834 H1824 0.930 . S
C1834 C1832 1.419 . S
C1834 C1835 1.362 . S
C1835 H1825 0.930 . S
C1835 C1828 1.409 . S
C1835 C1834 1.362 . S
H1836 C1842 0.930 . S
H1837 C1845 0.930 . S
H1838 C1846 0.930 . S
H1839 C1847 0.930 . S
H1840 C1850 0.930 . S
H1841 C1851 0.930 . S
C1842 H1836 0.930 . S
C1842 C1843 1.355 . S
C1842 C1844 1.415 . S
C1843 C1842 1.355 . S
C1843 C1845 1.419 . S
C1844 C1842 1.415 . S
C1844 C1849 1.425 . S
C1844 C1851 1.409 . S
C1845 H1837 0.930 . S
C1845 C1843 1.419 . S
C1845 C1846 1.362 . S
C1846 H1838 0.930 . S
C1846 C1845 1.362 . S
C1846 C1849 1.409 . S
C1847 H1839 0.930 . S
C1847 C1848 1.355 . S
C1847 C1849 1.415 . S
C1848 C1847 1.355 . S
C1848 C1850 1.419 . S
C1849 C1844 1.425 . S
C1849 C1846 1.409 . S
C1849 C1847 1.415 . S
C1850 H1840 0.930 . S
C1850 C1848 1.419 . S
C1850 C1851 1.362 . S
C1851 H1841 0.930 . S
C1851 C1844 1.409 . S
C1851 C1850 1.362 . S
H1852 C1858 0.930 . S
H1853 C1861 0.930 . S
H1854 C1862 0.930 . S
H1855 C1863 0.930 . S
H1856 C1866 0.930 . S
H1857 C1867 0.930 . S
C1858 H1852 0.930 . S
C1858 C1859 1.355 . S
C1858 C1860 1.415 . S
C1859 C1858 1.355 . S
C1859 C1861 1.419 . S
C1860 C1858 1.415 . S
C1860 C1865 1.425 . S
C1860 C1867 1.409 . S
C1861 H1853 0.930 . S
C1861 C1859 1.419 . S
C1861 C1862 1.362 . S
C1862 H1854 0.930 . S
C1862 C1861 1.362 . S
C1862 C1865 1.409 . S
C1863 H1855 0.930 . S
C1863 C1864 1.355 . S
C1863 C1865 1.415 . S
C1864 C1863 1.355 . S
C1864 C1866 1.419 . S
C1865 C1860 1.425 . S
C1865 C1862 1.409 . S
C1865 C1863 1.415 . S
C1866 H1856 0.930 . S
C1866 C1864 1.419 . S
C1866 C1867 1.362 . S
C1867 H1857 0.930 . S
C1867 C1860 1.409 . S
C1867 C1866 1.362 . S
H1868 C1874 0.930 . S
H1869 C1877 0.930 . S
H1870 C1878 0.930 . S
H1871 C1879 0.930 . S
H1872 C1882 0.930 . S
H1873 C1883 0.930 . S
C1874 H1868 0.930 . S
C1874 C1875 1.355 . S
C1874 C1876 1.415 . S
C1875 C1874 1.355 . S
C1875 C1877 1.419 . S
C1876 C1874 1.415 . S
C1876 C1881 1.425 . S
C1876 C1883 1.409 . S
C1877 H1869 0.930 . S
C1877 C1875 1.419 . S
C1877 C1878 1.362 . S
C1878 H1870 0.930 . S
C1878 C1877 1.362 . S
C1878 C1881 1.409 . S
C1879 H1871 0.930 . S
C1879 C1880 1.355 . S
C1879 C1881 1.415 . S
C1880 C1879 1.355 . S
C1880 C1882 1.419 . S
C1881 C1876 1.425 . S
C1881 C1878 1.409 . S
C1881 C1879 1.415 . S
C1882 H1872 0.930 . S
C1882 C1880 1.419 . S
C1882 C1883 1.362 . S
C1883 H1873 0.930 . S
C1883 C1876 1.409 . S
C1883 C1882 1.362 . S
H1884 C1890 0.930 . S
H1885 C1893 0.930 . S
H1886 C1894 0.930 . S
H1887 C1895 0.930 . S
H1888 C1898 0.930 . S
H1889 C1899 0.930 . S
C1890 H1884 0.930 . S
C1890 C1891 1.355 . S
C1890 C1892 1.415 1_455 S
C1891 C1890 1.355 . S
C1891 C1893 1.419 . S
C1892 C1890 1.415 1_655 S
C1892 C1897 1.425 . S
C1892 C1899 1.409 . S
C1893 H1885 0.930 . S
C1893 C1891 1.419 . S
C1893 C1894 1.362 . S
C1894 H1886 0.930 . S
C1894 C1893 1.362 . S
C1894 C1897 1.409 1_455 S
C1895 H1887 0.930 . S
C1895 C1896 1.355 . S
C1895 C1897 1.415 . S
C1896 C1895 1.355 . S
C1896 C1898 1.419 . S
C1897 C1892 1.425 . S
C1897 C1894 1.409 1_655 S
C1897 C1895 1.415 . S
C1898 H1888 0.930 . S
C1898 C1896 1.419 . S
C1898 C1899 1.362 . S
C1899 H1889 0.930 . S
C1899 C1892 1.409 . S
C1899 C1898 1.362 . S
H1900 C1906 0.930 . S
H1901 C1909 0.930 . S
H1902 C1910 0.930 . S
H1903 C1911 0.930 . S
H1904 C1914 0.930 . S
H1905 C1915 0.930 . S
C1906 H1900 0.930 . S
C1906 C1907 1.355 . S
C1906 C1908 1.415 . S
C1907 C1906 1.355 . S
C1907 C1909 1.419 . S
C1908 C1906 1.415 . S
C1908 C1913 1.425 . S
C1908 C1915 1.409 . S
C1909 H1901 0.930 . S
C1909 C1907 1.419 . S
C1909 C1910 1.362 . S
C1910 H1902 0.930 . S
C1910 C1909 1.362 . S
C1910 C1913 1.409 . S
C1911 H1903 0.930 . S
C1911 C1912 1.355 . S
C1911 C1913 1.415 . S
C1912 C1911 1.355 . S
C1912 C1914 1.419 . S
C1913 C1908 1.425 . S
C1913 C1910 1.409 . S
C1913 C1911 1.415 . S
C1914 H1904 0.930 . S
C1914 C1912 1.419 . S
C1914 C1915 1.362 . S
C1915 H1905 0.930 . S
C1915 C1908 1.409 . S
C1915 C1914 1.362 . S
H1916 C1922 0.930 . S
H1917 C1925 0.930 . S
H1918 C1926 0.930 . S
H1919 C1927 0.930 . S
H1920 C1930 0.930 . S
H1921 C1931 0.930 . S
C1922 H1916 0.930 . S
C1922 C1923 1.355 . S
C1922 C1924 1.415 1_545 S
C1923 C1922 1.355 . S
C1923 C1925 1.419 . S
C1924 C1922 1.415 1_565 S
C1924 C1929 1.425 . S
C1924 C1931 1.409 . S
C1925 H1917 0.930 . S
C1925 C1923 1.419 . S
C1925 C1926 1.362 . S
C1926 H1918 0.930 . S
C1926 C1925 1.362 . S
C1926 C1929 1.409 1_545 S
C1927 H1919 0.930 . S
C1927 C1928 1.355 . S
C1927 C1929 1.415 . S
C1928 C1927 1.355 . S
C1928 C1930 1.419 . S
C1929 C1924 1.425 . S
C1929 C1926 1.409 1_565 S
C1929 C1927 1.415 . S
C1930 H1920 0.930 . S
C1930 C1928 1.419 . S
C1930 C1931 1.362 . S
C1931 H1921 0.930 . S
C1931 C1924 1.409 . S
C1931 C1930 1.362 . S
H1932 C1938 0.930 . S
H1933 C1941 0.930 . S
H1934 C1942 0.930 . S
H1935 C1943 0.933 . S
H1936 C1946 0.930 . S
H1937 C1947 0.930 . S
C1938 H1932 0.930 . S
C1938 C1939 1.355 1_554 S
C1938 C1940 1.415 . S
C1939 C1938 1.355 1_556 S
C1939 C1941 1.419 . S
C1940 C1938 1.415 . S
C1940 C1945 1.414 1_554 S
C1940 C1947 1.409 1_545 S
C1941 H1933 0.930 . S
C1941 C1939 1.419 . S
C1941 C1942 1.362 . S
C1942 H1934 0.930 . S
C1942 C1941 1.362 . S
C1942 C1945 1.420 . S
C1943 H1935 0.933 . S
C1943 C1944 1.351 1_556 S
C1943 C1945 1.415 1_565 S
C1944 C1943 1.351 1_554 S
C1944 C1946 1.419 . S
C1945 C1940 1.414 1_556 S
C1945 C1942 1.420 . S
C1945 C1943 1.415 1_545 S
C1946 H1936 0.930 . S
C1946 C1944 1.419 . S
C1946 C1947 1.362 . S
C1947 H1937 0.930 . S
C1947 C1940 1.409 1_565 S
C1947 C1946 1.362 . S
H1948 C1954 0.930 . S
H1949 C1957 0.930 . S
H1950 C1958 0.930 . S
H1951 C1959 0.930 . S
H1952 C1962 0.930 . S
H1953 C1963 0.930 . S
C1954 H1948 0.930 . S
C1954 C1955 1.355 1_556 S
C1954 C1956 1.415 1_655 S
C1955 C1954 1.355 1_554 S
C1955 C1957 1.419 . S
C1956 C1954 1.415 1_455 S
C1956 C1961 1.425 1_556 S
C1956 C1963 1.409 . S
C1957 H1949 0.930 . S
C1957 C1955 1.419 . S
C1957 C1958 1.362 . S
C1958 H1950 0.930 . S
C1958 C1957 1.362 . S
C1958 C1961 1.409 1_655 S
C1959 H1951 0.930 . S
C1959 C1960 1.355 . S
C1959 C1961 1.415 . S
C1960 C1959 1.355 . S
C1960 C1962 1.419 1_554 S
C1961 C1956 1.425 1_554 S
C1961 C1958 1.409 1_455 S
C1961 C1959 1.415 . S
C1962 H1952 0.930 . S
C1962 C1960 1.419 1_556 S
C1962 C1963 1.362 . S
C1963 H1953 0.930 . S
C1963 C1956 1.409 . S
C1963 C1962 1.362 . S
H1964 C1970 0.930 . S
H1965 C1973 0.930 . S
H1966 C1974 0.930 . S
H1967 C1975 0.930 1_556 S
H1968 C1978 0.930 . S
H1969 C1979 0.930 . S
C1970 H1964 0.930 . S
C1970 C1971 1.355 . S
C1970 C1972 1.415 . S
C1971 C1970 1.355 . S
C1971 C1973 1.419 1_554 S
C1972 C1970 1.415 . S
C1972 C1977 1.425 . S
C1972 C1979 1.409 . S
C1973 H1965 0.930 . S
C1973 C1971 1.419 1_556 S
C1973 C1974 1.362 . S
C1974 H1966 0.930 . S
C1974 C1973 1.362 . S
C1974 C1977 1.409 1_556 S
C1975 H1967 0.930 1_554 S
C1975 C1976 1.355 . S
C1975 C1977 1.415 . S
C1976 C1975 1.355 . S
C1976 C1978 1.419 . S
C1977 C1972 1.425 . S
C1977 C1974 1.409 1_554 S
C1977 C1975 1.415 . S
C1978 H1968 0.930 . S
C1978 C1976 1.419 . S
C1978 C1979 1.362 . S
C1979 H1969 0.930 . S
C1979 C1972 1.409 . S
C1979 C1978 1.362 . S
C835 N12 1.411 . S
C840 N163 1.395 . S
C851 C39 1.491 . S
C856 N186 1.452 . S
C867 N140 1.445 . S
C872 C62 1.455 . S
C883 N255 1.411 . S
C888 C85 1.488 . S
C899 C108 1.446 . S
C904 N209 1.350 . S
C915 N127 1.436 . S
C920 N232 1.340 . S
C931 N25 1.627 . S
C936 C154 1.725 . S
C947 N48 1.552 . S
C952 C177 1.624 . S
C963 C200 1.653 . S
C968 C7 1.713 . S
C979 C223 1.656 . S
C984 C122 1.690 1_655 S
C995 N71 1.544 . S
C1000 C246 1.623 . S
C1011 C269 1.729 . S
C1016 N94 1.699 . S
C1027 N439 1.390 . S
C1032 N288 1.411 . S
C1043 C315 1.499 . S
C1048 N462 1.441 . S
C1059 C338 1.420 . S
C1064 N416 1.381 . S
C1075 N531 1.359 . S
C1080 C361 1.453 . S
C1091 C384 1.489 . S
C1096 N485 1.393 . S
C1107 N508 1.350 . S
C1112 N403 1.472 . S
C1123 N301 1.658 . S
C1128 C430 1.702 . S
C1139 C453 1.558 . S
C1144 N324 1.496 . S
C1155 C283 1.685 . S
C1160 C476 1.678 . S
C1171 C499 1.650 . S
C1176 C398 1.711 . S
C1187 C522 1.619 . S
C1192 N347 1.567 . S
C1203 C545 1.705 . S
C1208 N370 1.664 . S
C1219 N715 1.340 . S
C1224 N564 1.436 . S
C1235 N738 1.428 . S
C1240 C591 1.500 . S
C1251 N692 1.429 . S
C1256 C614 1.438 . S
C1267 C637 1.422 . S
C1272 N807 1.392 . S
C1283 C660 1.476 . S
C1288 N761 1.453 . S
C1299 N784 1.361 . S
C1304 N679 1.476 . S
C1315 C706 1.701 . S
C1320 N577 1.647 . S
C1331 N600 1.532 . S
C1336 C729 1.565 . S
C1347 C559 1.703 . S
C1352 C752 1.645 . S
C1363 C775 1.645 . S
C1368 C674 1.701 . S
C1379 C798 1.567 . S
C1384 N623 1.537 . S
C1395 C821 1.740 . S
C1400 N646 1.705 . S
C1411 C76 2.016 . S
C1416 N2 1.852 . S
C1427 C99 2.197 . S
C1432 C30 2.211 . S
C1443 C53 1.995 . S
C1448 N117 1.919 1_655 S
C1459 C214 2.200 . S
C1464 C145 2.158 . S
C1475 C237 2.001 . S
C1480 C168 2.030 . S
C1491 C260 2.159 . S
C1496 C191 2.198 . S
C1507 C352 2.001 . S
C1512 N278 1.888 . S
C1523 C375 2.208 . S
C1528 C306 2.199 . S
C1539 C329 1.995 . S
C1544 N393 1.918 . S
C1555 C490 2.181 1_554 S
C1560 C421 2.182 . S
C1571 C513 2.016 1_554 S
C1576 C444 2.016 . S
C1587 C536 2.159 1_554 S
C1592 C467 2.199 . S
C1603 C628 1.996 1_556 S
C1608 N554 1.921 . S
C1619 C582 2.201 . S
C1624 C651 2.206 1_556 S
C1635 N669 1.920 . S
C1640 C605 1.996 . S
C1651 C697 2.173 . S
C1656 C766 2.189 . S
C1667 C720 2.005 . S
C1672 C789 2.026 . S
C1683 C743 2.180 . S
C1688 C812 2.186 . S
C1699 C16 1.734 . S
C1704 N426 1.741 . S
C1715 N449 1.550 . S
C1720 N35 1.547 . S
C1731 N472 1.700 . S
C1736 N58 1.711 . S
C1747 N771 1.687 . S
C1752 N81 1.697 . S
C1763 N794 1.578 . S
C1768 N104 1.578 . S
C1779 N817 1.745 . S
C1784 C131 1.744 . S
C1795 N150 1.677 . S
C1800 C568 1.680 . S
C1811 N587 1.601 . S
C1816 N173 1.601 . S
C1827 N610 1.703 . S
C1832 N196 1.693 . S
C1843 N219 1.727 . S
C1848 N357 1.737 . S
C1859 N242 1.612 . S
C1864 N380 1.612 . S
C1875 N265 1.685 . S
C1880 C407 1.718 . S
C1891 N702 1.744 . S
C1896 C292 1.750 . S
C1907 N725 1.557 . S
C1912 N311 1.554 . S
C1923 N334 1.749 . S
C1928 N748 1.740 . S
C1939 N495 1.715 . S
C1944 N633 1.726 . S
C1955 N518 1.624 1_554 S
C1960 N656 1.624 . S
C1971 N541 1.668 1_554 S
C1976 C683 1.690 . S
