# Generated by pormake.
# Topology whe, (6)-cn, num edge types: 1
# Building blocks:
#     Node 0, Type 0, BuildingBlock: IZENUY_clean_sbu_0, # of connection points: 6
#     Node 1, Type 0, BuildingBlock: IZENUY_clean_sbu_0, # of connection points: 6
#     Node 2, Type 0, BuildingBlock: IZENUY_clean_sbu_0, # of connection points: 6
#     Node 3, Type 0, BuildingBlock: IZENUY_clean_sbu_0, # of connection points: 6
#     Node 4, Type 0, BuildingBlock: IZENUY_clean_sbu_0, # of connection points: 6
#     Node 5, Type 0, BuildingBlock: IZENUY_clean_sbu_0, # of connection points: 6
#     Node 6, Type 0, BuildingBlock: IZENUY_clean_sbu_0, # of connection points: 6
#     Node 7, Type 0, BuildingBlock: IZENUY_clean_sbu_0, # of connection points: 6
#     Node 8, Type 0, BuildingBlock: IZENUY_clean_sbu_0, # of connection points: 6
#     Node 9, Type 0, BuildingBlock: IZENUY_clean_sbu_0, # of connection points: 6
#     Node 10, Type 0, BuildingBlock: IZENUY_clean_sbu_0, # of connection points: 6
#     Node 11, Type 0, BuildingBlock: IZENUY_clean_sbu_0, # of connection points: 6
#     Node 12, Type 0, BuildingBlock: IZENUY_clean_sbu_0, # of connection points: 6
#     Node 13, Type 0, BuildingBlock: IZENUY_clean_sbu_0, # of connection points: 6
#     Node 14, Type 0, BuildingBlock: IZENUY_clean_sbu_0, # of connection points: 6
#     Node 15, Type 0, BuildingBlock: IZENUY_clean_sbu_0, # of connection points: 6
#     Edge 16, Type (0, 0), BuildingBlock: ZUJKAS_clean_linker_0, # of connection points: 2
#     Edge 17, Type (0, 0), BuildingBlock: ZUJKAS_clean_linker_0, # of connection points: 2
#     Edge 18, Type (0, 0), BuildingBlock: ZUJKAS_clean_linker_0, # of connection points: 2
#     Edge 19, Type (0, 0), BuildingBlock: ZUJKAS_clean_linker_0, # of connection points: 2
#     Edge 20, Type (0, 0), BuildingBlock: ZUJKAS_clean_linker_0, # of connection points: 2
#     Edge 21, Type (0, 0), BuildingBlock: ZUJKAS_clean_linker_0, # of connection points: 2
#     Edge 22, Type (0, 0), BuildingBlock: ZUJKAS_clean_linker_0, # of connection points: 2
#     Edge 23, Type (0, 0), BuildingBlock: ZUJKAS_clean_linker_0, # of connection points: 2
#     Edge 24, Type (0, 0), BuildingBlock: ZUJKAS_clean_linker_0, # of connection points: 2
#     Edge 25, Type (0, 0), BuildingBlock: ZUJKAS_clean_linker_0, # of connection points: 2
#     Edge 26, Type (0, 0), BuildingBlock: ZUJKAS_clean_linker_0, # of connection points: 2
#     Edge 27, Type (0, 0), BuildingBlock: ZUJKAS_clean_linker_0, # of connection points: 2
#     Edge 28, Type (0, 0), BuildingBlock: ZUJKAS_clean_linker_0, # of connection points: 2
#     Edge 29, Type (0, 0), BuildingBlock: ZUJKAS_clean_linker_0, # of connection points: 2
#     Edge 30, Type (0, 0), BuildingBlock: ZUJKAS_clean_linker_0, # of connection points: 2
#     Edge 31, Type (0, 0), BuildingBlock: ZUJKAS_clean_linker_0, # of connection points: 2
#     Edge 32, Type (0, 0), BuildingBlock: ZUJKAS_clean_linker_0, # of connection points: 2
#     Edge 33, Type (0, 0), BuildingBlock: ZUJKAS_clean_linker_0, # of connection points: 2
#     Edge 34, Type (0, 0), BuildingBlock: ZUJKAS_clean_linker_0, # of connection points: 2
#     Edge 35, Type (0, 0), BuildingBlock: ZUJKAS_clean_linker_0, # of connection points: 2
#     Edge 36, Type (0, 0), BuildingBlock: ZUJKAS_clean_linker_0, # of connection points: 2
#     Edge 37, Type (0, 0), BuildingBlock: ZUJKAS_clean_linker_0, # of connection points: 2
#     Edge 38, Type (0, 0), BuildingBlock: ZUJKAS_clean_linker_0, # of connection points: 2
#     Edge 39, Type (0, 0), BuildingBlock: ZUJKAS_clean_linker_0, # of connection points: 2
#     Edge 40, Type (0, 0), BuildingBlock: ZUJKAS_clean_linker_0, # of connection points: 2
#     Edge 41, Type (0, 0), BuildingBlock: ZUJKAS_clean_linker_0, # of connection points: 2
#     Edge 42, Type (0, 0), BuildingBlock: ZUJKAS_clean_linker_0, # of connection points: 2
#     Edge 43, Type (0, 0), BuildingBlock: ZUJKAS_clean_linker_0, # of connection points: 2
#     Edge 44, Type (0, 0), BuildingBlock: ZUJKAS_clean_linker_0, # of connection points: 2
#     Edge 45, Type (0, 0), BuildingBlock: ZUJKAS_clean_linker_0, # of connection points: 2
#     Edge 46, Type (0, 0), BuildingBlock: ZUJKAS_clean_linker_0, # of connection points: 2
#     Edge 47, Type (0, 0), BuildingBlock: ZUJKAS_clean_linker_0, # of connection points: 2
#     Edge 48, Type (0, 0), BuildingBlock: ZUJKAS_clean_linker_0, # of connection points: 2
#     Edge 49, Type (0, 0), BuildingBlock: ZUJKAS_clean_linker_0, # of connection points: 2
#     Edge 50, Type (0, 0), BuildingBlock: ZUJKAS_clean_linker_0, # of connection points: 2
#     Edge 51, Type (0, 0), BuildingBlock: ZUJKAS_clean_linker_0, # of connection points: 2
#     Edge 52, Type (0, 0), BuildingBlock: ZUJKAS_clean_linker_0, # of connection points: 2
#     Edge 53, Type (0, 0), BuildingBlock: ZUJKAS_clean_linker_0, # of connection points: 2
#     Edge 54, Type (0, 0), BuildingBlock: ZUJKAS_clean_linker_0, # of connection points: 2
#     Edge 55, Type (0, 0), BuildingBlock: ZUJKAS_clean_linker_0, # of connection points: 2
#     Edge 56, Type (0, 0), BuildingBlock: ZUJKAS_clean_linker_0, # of connection points: 2
#     Edge 57, Type (0, 0), BuildingBlock: ZUJKAS_clean_linker_0, # of connection points: 2
#     Edge 58, Type (0, 0), BuildingBlock: ZUJKAS_clean_linker_0, # of connection points: 2
#     Edge 59, Type (0, 0), BuildingBlock: ZUJKAS_clean_linker_0, # of connection points: 2
#     Edge 60, Type (0, 0), BuildingBlock: ZUJKAS_clean_linker_0, # of connection points: 2
#     Edge 61, Type (0, 0), BuildingBlock: ZUJKAS_clean_linker_0, # of connection points: 2
#     Edge 62, Type (0, 0), BuildingBlock: ZUJKAS_clean_linker_0, # of connection points: 2
#     Edge 63, Type (0, 0), BuildingBlock: ZUJKAS_clean_linker_0, # of connection points: 2
# Relax obj value: 0.463
# Max RMSD: 0.278
# Mean RMSD: 0.278
data_MOF--net-whe--node1-IZENUY_clean_sbu_0--edge1-ZUJKAS_clean_linker_0
_symmetry_space_group_name_H-M    P1
_symmetry_Int_Tables_number       1
_symmetry_cell_setting            triclinic
loop_
_symmetry_equiv_pos_as_xyz
'x, y, z'
_cell_length_a     43.345201
_cell_length_b     43.414075
_cell_length_c     70.209196
_cell_angle_alpha  89.873587
_cell_angle_beta   90.073893
_cell_angle_gamma 89.985247
loop_
_atom_site_label
_atom_site_type_symbol
_atom_site_fract_x
_atom_site_fract_y
_atom_site_fract_z
_atom_type_partial_charge
Fe0 Fe 0.08933 0.28685 0.16722 0.0
Fe1 Fe 0.0717 0.33612 0.13746 0.0
O2 O 0.09988 0.31694 0.15152 0.0
Fe3 Fe 0.13884 0.32907 0.14943 0.0
O4 O 0.15139 0.31739 0.17356 0.0
O5 O 0.10882 0.30378 0.18775 0.0
O6 O 0.05388 0.30655 0.17507 0.0
C7 C 0.04323 0.33352 0.17208 0.0
C8 C 0.14322 0.26571 0.14799 0.0
O9 O 0.05199 0.34986 0.15823 0.0
C10 C 0.11706 0.33046 0.11149 0.0
O11 O 0.06895 0.26545 0.14886 0.0
O12 O 0.045 0.30408 0.13549 0.0
O13 O 0.15025 0.29139 0.14043 0.0
O14 O 0.12314 0.26362 0.16114 0.0
C15 C 0.10767 0.38395 0.15061 0.0
O16 O 0.09005 0.32268 0.11597 0.0
O17 O 0.13515 0.34143 0.12407 0.0
C18 C 0.04782 0.27564 0.13833 0.0
O19 O 0.09261 0.37272 0.13692 0.0
O20 O 0.12771 0.36732 0.15896 0.0
C21 C 0.13743 0.30889 0.18848 0.0
Fe22 Fe 0.69219 0.13818 0.15216 0.0
Fe23 Fe 0.72963 0.08742 0.17253 0.0
O24 O 0.70102 0.09878 0.15599 0.0
Fe25 Fe 0.67979 0.07083 0.14295 0.0
O26 O 0.6454 0.09478 0.14049 0.0
O27 O 0.65254 0.13113 0.16133 0.0
O28 O 0.70369 0.15215 0.17591 0.0
C29 C 0.71067 0.13915 0.19145 0.0
C30 C 0.69057 0.11235 0.11516 0.0
O31 O 0.71385 0.11034 0.19196 0.0
C32 C 0.73791 0.04234 0.14546 0.0
O33 O 0.73108 0.14578 0.14352 0.0
O34 O 0.75609 0.1182 0.16536 0.0
O35 O 0.69559 0.08524 0.1209 0.0
O36 O 0.68109 0.13275 0.1268 0.0
C37 C 0.67807 0.04821 0.17931 0.0
O38 O 0.74963 0.06344 0.1553 0.0
O39 O 0.70927 0.04117 0.14292 0.0
C40 C 0.75596 0.13731 0.15159 0.0
O41 O 0.70638 0.05516 0.18172 0.0
O42 O 0.66345 0.0555 0.16442 0.0
C43 C 0.63464 0.11193 0.15327 0.0
Fe44 Fe 0.88201 0.68972 0.14877 0.0
Fe45 Fe 0.9338 0.72708 0.16821 0.0
O46 O 0.92168 0.69808 0.15223 0.0
Fe47 Fe 0.9492 0.6759 0.13939 0.0
O48 O 0.92453 0.64199 0.13736 0.0
O49 O 0.88865 0.65027 0.15833 0.0
O50 O 0.86846 0.70181 0.17253 0.0
C51 C 0.88175 0.70969 0.1878 0.0
C52 C 0.90754 0.68702 0.11161 0.0
O53 O 0.91062 0.7129 0.18804 0.0
C54 C 0.97934 0.73327 0.14115 0.0
O55 O 0.87456 0.72841 0.1398 0.0
O56 O 0.90356 0.75383 0.16068 0.0
O57 O 0.93493 0.69137 0.11715 0.0
O58 O 0.88704 0.67814 0.12344 0.0
C59 C 0.97198 0.67492 0.17574 0.0
O60 O 0.95818 0.74579 0.15057 0.0
O61 O 0.97969 0.70459 0.13893 0.0
C62 C 0.88369 0.75339 0.14734 0.0
O63 O 0.9656 0.70342 0.17771 0.0
O64 O 0.96431 0.65993 0.16109 0.0
C65 C 0.90739 0.63186 0.15037 0.0
Fe66 Fe 0.3327 0.88282 0.14636 0.0
Fe67 Fe 0.29267 0.93315 0.16505 0.0
O68 O 0.32265 0.92207 0.14949 0.0
Fe69 Fe 0.34417 0.95036 0.13686 0.0
O70 O 0.37916 0.92712 0.13529 0.0
O71 O 0.37164 0.8911 0.15629 0.0
O72 O 0.32055 0.86926 0.17016 0.0
C73 C 0.31214 0.88262 0.18529 0.0
C74 C 0.33574 0.90836 0.10908 0.0
O75 O 0.30772 0.91129 0.1852 0.0
C76 C 0.28531 0.97746 0.13741 0.0
O77 O 0.29443 0.87364 0.13708 0.0
O78 O 0.26757 0.90146 0.15779 0.0
O79 O 0.33005 0.93549 0.1145 0.0
O80 O 0.34482 0.88815 0.12109 0.0
C81 C 0.34281 0.97334 0.17306 0.0
O82 O 0.27333 0.95599 0.14687 0.0
O83 O 0.31411 0.97945 0.13595 0.0
C84 C 0.26896 0.88152 0.14459 0.0
O85 O 0.31434 0.96634 0.17435 0.0
O86 O 0.35883 0.96604 0.15876 0.0
C87 C 0.38958 0.9105 0.14849 0.0
Fe88 Fe 0.09015 0.73087 0.34824 0.0
Fe89 Fe 0.07382 0.68182 0.37829 0.0
O90 O 0.10174 0.70247 0.36484 0.0
Fe91 Fe 0.14121 0.6932 0.36834 0.0
O92 O 0.15471 0.70363 0.34426 0.0
O93 O 0.11257 0.71481 0.32871 0.0
O94 O 0.05756 0.70767 0.3395 0.0
C95 C 0.05089 0.67935 0.342 0.0
C96 C 0.14106 0.75691 0.3683 0.0
O97 O 0.05822 0.66498 0.35699 0.0
C98 C 0.11601 0.69314 0.40563 0.0
O99 O 0.06661 0.75129 0.36555 0.0
O100 O 0.04415 0.71126 0.37811 0.0
O101 O 0.14975 0.73215 0.37635 0.0
O102 O 0.12123 0.7571 0.35494 0.0
C103 C 0.1144 0.63603 0.36847 0.0
O104 O 0.08872 0.69817 0.40007 0.0
O105 O 0.13617 0.68321 0.39393 0.0
C106 C 0.04541 0.73981 0.37545 0.0
O107 O 0.09759 0.64753 0.38116 0.0
O108 O 0.13345 0.65335 0.35983 0.0
C109 C 0.14137 0.711 0.32889 0.0
Fe110 Fe 0.33379 0.14176 0.37256 0.0
Fe111 Fe 0.29388 0.09265 0.35276 0.0
O112 O 0.32357 0.10275 0.36877 0.0
Fe113 Fe 0.34445 0.07378 0.38122 0.0
O114 O 0.37966 0.09654 0.38326 0.0
O115 O 0.37282 0.13356 0.36272 0.0
O116 O 0.32162 0.15642 0.34883 0.0
C117 C 0.31367 0.14354 0.3334 0.0
C118 C 0.33635 0.11492 0.40954 0.0
O119 O 0.30998 0.11479 0.3331 0.0
C120 C 0.28513 0.04762 0.37968 0.0
O121 O 0.29552 0.15048 0.3819 0.0
O122 O 0.2691 0.12452 0.36009 0.0
O123 O 0.33019 0.08813 0.40368 0.0
O124 O 0.34577 0.13543 0.39783 0.0
C125 C 0.34346 0.05188 0.34476 0.0
O126 O 0.27378 0.06972 0.37047 0.0
O127 O 0.31386 0.04513 0.38151 0.0
C128 C 0.27017 0.14314 0.37401 0.0
O129 O 0.31514 0.05934 0.34333 0.0
O130 O 0.35932 0.05854 0.35926 0.0
C131 C 0.39042 0.11359 0.37038 0.0
Fe132 Fe 0.93493 0.2837 0.35547 0.0
Fe133 Fe 0.95571 0.33529 0.38235 0.0
O134 O 0.92578 0.31493 0.37059 0.0
Fe135 Fe 0.88722 0.32714 0.37409 0.0
O136 O 0.87268 0.31536 0.35044 0.0
O137 O 0.91371 0.29944 0.33522 0.0
O138 O 0.96942 0.30275 0.34586 0.0
C139 C 0.97609 0.33126 0.34563 0.0
C140 C 0.8829 0.26359 0.37666 0.0
O141 O 0.97035 0.3484 0.35972 0.0
C142 C 0.91442 0.32943 0.41093 0.0
O143 O 0.95675 0.26383 0.37398 0.0
O144 O 0.98324 0.30383 0.38303 0.0
O145 O 0.87633 0.28963 0.38378 0.0
O146 O 0.90193 0.26082 0.36306 0.0
C147 C 0.91719 0.38285 0.37177 0.0
O148 O 0.94129 0.32275 0.40523 0.0
O149 O 0.89409 0.33907 0.39916 0.0
C150 C 0.9791 0.27521 0.38293 0.0
O151 O 0.93461 0.37136 0.38418 0.0
O152 O 0.89678 0.36586 0.36409 0.0
C153 C 0.88532 0.30579 0.3353 0.0
Fe154 Fe 0.72776 0.933 0.35093 0.0
Fe155 Fe 0.67708 0.9478 0.38026 0.0
O156 O 0.69879 0.9206 0.36689 0.0
Fe157 Fe 0.68992 0.88099 0.36986 0.0
O158 O 0.70144 0.86823 0.34585 0.0
O159 O 0.71317 0.9107 0.33085 0.0
O160 O 0.70424 0.9653 0.342 0.0
C161 C 0.6758 0.97191 0.34426 0.0
C162 C 0.75381 0.8819 0.37093 0.0
O163 O 0.66088 0.96382 0.35887 0.0
C164 C 0.68846 0.90511 0.40735 0.0
O165 O 0.74697 0.95652 0.36881 0.0
O166 O 0.706 0.9779 0.38088 0.0
O167 O 0.72878 0.87268 0.37844 0.0
O168 O 0.7543 0.90229 0.3579 0.0
C169 C 0.63227 0.90726 0.36903 0.0
O170 O 0.6929 0.93262 0.40214 0.0
O171 O 0.67892 0.88519 0.39537 0.0
C172 C 0.73469 0.97726 0.37867 0.0
O173 O 0.64299 0.92341 0.38229 0.0
O174 O 0.65029 0.88861 0.36064 0.0
C175 C 0.7095 0.88191 0.33074 0.0
Fe176 Fe 0.92719 0.72856 0.85136 0.0
Fe177 Fe 0.94526 0.67804 0.88005 0.0
O178 O 0.91655 0.69923 0.86756 0.0
Fe179 Fe 0.8773 0.68966 0.87143 0.0
O180 O 0.86292 0.70127 0.84761 0.0
O181 O 0.90475 0.71257 0.83184 0.0
O182 O 0.96016 0.70671 0.84209 0.0
C183 C 0.96679 0.67823 0.84345 0.0
C184 C 0.87692 0.75336 0.8724 0.0
O185 O 0.95996 0.66263 0.85805 0.0
C186 C 0.9042 0.68782 0.90831 0.0
O187 O 0.95065 0.74853 0.86886 0.0
O188 O 0.97444 0.70809 0.88012 0.0
O189 O 0.86901 0.72826 0.88034 0.0
O190 O 0.89573 0.75399 0.85855 0.0
C191 C 0.90435 0.63242 0.87001 0.0
O192 O 0.93129 0.69287 0.90245 0.0
O193 O 0.88351 0.67839 0.89676 0.0
C194 C 0.97238 0.73679 0.87823 0.0
O195 O 0.92206 0.64323 0.8825 0.0
O196 O 0.88476 0.65019 0.86213 0.0
C197 C 0.87595 0.70888 0.83217 0.0
Fe198 Fe 0.32751 0.88484 0.86964 0.0
Fe199 Fe 0.27486 0.92877 0.85853 0.0
O200 O 0.31145 0.92248 0.86905 0.0
Fe201 Fe 0.33109 0.9544 0.87908 0.0
O202 O 0.36364 0.94881 0.86396 0.0
O203 O 0.36829 0.89832 0.86615 0.0
O204 O 0.32436 0.87969 0.84372 0.0
C205 C 0.29899 0.88153 0.83481 0.0
C206 C 0.34244 0.90662 0.90563 0.0
O207 O 0.27669 0.89633 0.84187 0.0
C208 C 0.27354 0.97111 0.88912 0.0
O209 O 0.28948 0.86618 0.87356 0.0
O210 O 0.25686 0.90521 0.87649 0.0
O211 O 0.34875 0.9328 0.89875 0.0
O212 O 0.33101 0.88575 0.89538 0.0
C213 C 0.3095 0.97514 0.84384 0.0
O214 O 0.2649 0.9627 0.87276 0.0
O215 O 0.29954 0.96287 0.89517 0.0
C216 C 0.26414 0.87747 0.87962 0.0
O217 O 0.29247 0.95222 0.84034 0.0
O218 O 0.31739 0.98148 0.86078 0.0
C219 C 0.37899 0.92473 0.86154 0.0
Fe220 Fe 0.13148 0.31731 0.87218 0.0
Fe221 Fe 0.08977 0.26132 0.86528 0.0
O222 O 0.09476 0.29942 0.87357 0.0
Fe223 Fe 0.0625 0.31877 0.8834 0.0
O224 O 0.06516 0.34922 0.86624 0.0
O225 O 0.11547 0.35677 0.86718 0.0
O226 O 0.13491 0.31101 0.84629 0.0
C227 C 0.13409 0.28437 0.83889 0.0
C228 C 0.11127 0.33568 0.90784 0.0
O229 O 0.1211 0.26252 0.84773 0.0
C230 C 0.04937 0.26232 0.89703 0.0
O231 O 0.15248 0.28099 0.87753 0.0
O232 O 0.11542 0.24716 0.88351 0.0
O233 O 0.08455 0.34049 0.90124 0.0
O234 O 0.13202 0.32382 0.89769 0.0
C235 C 0.04066 0.29166 0.85018 0.0
O236 O 0.05732 0.25175 0.881 0.0
O237 O 0.05704 0.2893 0.90146 0.0
C238 C 0.14281 0.25652 0.88567 0.0
O239 O 0.06419 0.27531 0.84683 0.0
O240 O 0.03503 0.30062 0.86698 0.0
C241 C 0.08825 0.36562 0.86271 0.0
Fe242 Fe 0.73781 0.09389 0.85678 0.0
Fe243 Fe 0.68474 0.07326 0.88284 0.0
O244 O 0.70628 0.10305 0.8717 0.0
Fe245 Fe 0.69488 0.14172 0.87568 0.0
O246 O 0.70796 0.15724 0.85253 0.0
O247 O 0.72356 0.11671 0.83684 0.0
O248 O 0.71778 0.06089 0.84594 0.0
C249 C 0.68929 0.05366 0.84597 0.0
C250 C 0.75844 0.14419 0.87953 0.0
O251 O 0.67203 0.05942 0.86001 0.0
C252 C 0.69072 0.11327 0.91199 0.0
O253 O 0.75646 0.07009 0.87483 0.0
O254 O 0.71541 0.04483 0.88355 0.0
O255 O 0.73212 0.15109 0.88616 0.0
O256 O 0.7616 0.12563 0.86569 0.0
C257 C 0.63863 0.11333 0.87203 0.0
O258 O 0.69698 0.08655 0.906 0.0
O259 O 0.68167 0.13411 0.90042 0.0
C260 C 0.74422 0.04757 0.88316 0.0
O261 O 0.64901 0.09519 0.88443 0.0
O262 O 0.65651 0.13349 0.86491 0.0
C263 C 0.71763 0.14509 0.83729 0.0
Fe264 Fe 0.93186 0.29261 0.67147 0.0
Fe265 Fe 0.95111 0.34148 0.64218 0.0
O266 O 0.92193 0.32197 0.65508 0.0
Fe267 Fe 0.883 0.33288 0.65126 0.0
O268 O 0.86906 0.32267 0.67535 0.0
O269 O 0.91092 0.31049 0.69103 0.0
O270 O 0.96652 0.3129 0.67998 0.0
C271 C 0.97486 0.34085 0.67812 0.0
C272 C 0.87998 0.26927 0.6513 0.0
O273 O 0.96704 0.35689 0.66389 0.0
C274 C 0.9092 0.33273 0.61422 0.0
O275 O 0.95347 0.27099 0.65381 0.0
O276 O 0.97885 0.31013 0.64216 0.0
O277 O 0.87319 0.29432 0.64293 0.0
O278 O 0.89885 0.26846 0.66514 0.0
C279 C 0.9118 0.3892 0.65155 0.0
O280 O 0.93607 0.32664 0.62008 0.0
O281 O 0.88897 0.34307 0.62574 0.0
C282 C 0.97511 0.28157 0.64388 0.0
O283 O 0.92938 0.37709 0.63946 0.0
O284 O 0.89174 0.37252 0.65983 0.0
C285 C 0.88226 0.31542 0.69084 0.0
Fe286 Fe 0.73141 0.93382 0.66627 0.0
Fe287 Fe 0.68129 0.94917 0.63657 0.0
O288 O 0.70241 0.92179 0.65019 0.0
Fe289 Fe 0.69328 0.88222 0.64735 0.0
O290 O 0.70473 0.86967 0.67145 0.0
O291 O 0.71555 0.91236 0.68639 0.0
O292 O 0.709 0.96728 0.6745 0.0
C293 C 0.6811 0.97552 0.67185 0.0
C294 C 0.75702 0.88246 0.64663 0.0
O295 O 0.66557 0.96633 0.65774 0.0
C296 C 0.69129 0.90585 0.60973 0.0
O297 O 0.75151 0.95635 0.6483 0.0
O298 O 0.71127 0.97842 0.63551 0.0
O299 O 0.73208 0.87384 0.63875 0.0
O300 O 0.75729 0.90218 0.65999 0.0
C301 C 0.63595 0.90894 0.64823 0.0
O302 O 0.69646 0.93324 0.61478 0.0
O303 O 0.68186 0.88621 0.62191 0.0
C304 C 0.73991 0.97735 0.63825 0.0
O305 O 0.6465 0.92556 0.63505 0.0
O306 O 0.65386 0.88994 0.65647 0.0
C307 C 0.71174 0.88356 0.68666 0.0
Fe308 Fe 0.09471 0.73548 0.66455 0.0
Fe309 Fe 0.07497 0.68518 0.63623 0.0
O310 O 0.10426 0.70517 0.64887 0.0
Fe311 Fe 0.14304 0.69329 0.64558 0.0
O312 O 0.15755 0.70492 0.66925 0.0
O313 O 0.11621 0.71931 0.6845 0.0
O314 O 0.06091 0.71498 0.67417 0.0
C315 C 0.05247 0.68697 0.67257 0.0
C316 C 0.14667 0.75675 0.64325 0.0
O317 O 0.05873 0.67104 0.65806 0.0
C318 C 0.11731 0.69208 0.60846 0.0
O319 O 0.07205 0.75597 0.64673 0.0
O320 O 0.04715 0.71635 0.63551 0.0
O321 O 0.15358 0.7308 0.63616 0.0
O322 O 0.12737 0.75938 0.65682 0.0
C323 C 0.11293 0.63792 0.64754 0.0
O324 O 0.09042 0.6989 0.61395 0.0
O325 O 0.13699 0.68158 0.62036 0.0
C326 C 0.05002 0.74495 0.63732 0.0
O327 O 0.09662 0.6493 0.63449 0.0
O328 O 0.13313 0.65477 0.65548 0.0
C329 C 0.14462 0.71349 0.68448 0.0
Fe330 Fe 0.32902 0.06312 0.63929 0.0
Fe331 Fe 0.32311 0.13228 0.64984 0.0
O332 O 0.30802 0.09423 0.64931 0.0
Fe333 Fe 0.27097 0.08666 0.65874 0.0
O334 O 0.28818 0.06318 0.67715 0.0
O335 O 0.31485 0.0352 0.65691 0.0
O336 O 0.3607 0.06891 0.65517 0.0
C337 C 0.37507 0.09327 0.65868 0.0
C338 C 0.27242 0.04543 0.62768 0.0
O339 O 0.36386 0.11968 0.65453 0.0
C340 C 0.2604 0.13822 0.63787 0.0
O341 O 0.34716 0.0858 0.62034 0.0
O342 O 0.32875 0.13252 0.62418 0.0
O343 O 0.26281 0.05293 0.64397 0.0
O344 O 0.29861 0.05432 0.62235 0.0
C345 C 0.29156 0.13388 0.68377 0.0
O346 O 0.28493 0.15002 0.64484 0.0
O347 O 0.2536 0.11022 0.64054 0.0
C348 C 0.34084 0.1122 0.61378 0.0
O349 O 0.3177 0.13646 0.67582 0.0
O350 O 0.27052 0.11866 0.67566 0.0
C351 C 0.30617 0.0409 0.67378 0.0
H352 H 0.13514 0.20831 0.16275 0.0
H353 H 0.15895 0.16046 0.15271 0.0
H354 H 0.2099 0.20901 0.10932 0.0
H355 H 0.18605 0.25773 0.11938 0.0
H356 H 0.15771 0.13253 0.11526 0.0
H357 H 0.27588 0.16122 0.14128 0.0
H358 H 0.24228 0.18221 0.14911 0.0
H359 H 0.25707 0.1881 0.12554 0.0
C360 C 0.15145 0.20908 0.15109 0.0
C361 C 0.15883 0.23701 0.14195 0.0
C362 C 0.16491 0.18157 0.14531 0.0
C363 C 0.18614 0.18125 0.13032 0.0
C364 C 0.19366 0.20892 0.12103 0.0
H365 H 0.3009 0.01986 0.11057 0.0
H366 H 0.2748 0.06847 0.10372 0.0
C367 C 0.18009 0.23668 0.12681 0.0
C368 C 0.20069 0.15168 0.12511 0.0
H369 H 0.2671 0.11077 0.13103 0.0
C370 C 0.18178 0.12781 0.11836 0.0
C371 C 0.23205 0.14575 0.12916 0.0
C372 C 0.25313 0.17051 0.13677 0.0
C373 C 0.19316 0.09775 0.11626 0.0
C374 C 0.22406 0.09142 0.12139 0.0
C375 C 0.24337 0.11568 0.12714 0.0
C376 C 0.23635 0.05964 0.12256 0.0
C377 C 0.17186 0.07302 0.10891 0.0
C378 C 0.22287 0.03808 0.13499 0.0
C379 C 0.23765 0.01011 0.13885 0.0
C380 C 0.26641 1.00357 0.13059 0.0
C381 C 0.27889 0.0244 0.1173 0.0
C382 C 0.26401 0.05217 0.11334 0.0
H383 H 0.15348 0.08294 0.0997 0.0
H384 H 0.18467 0.05535 0.10067 0.0
H385 H 0.16045 0.06151 0.12114 0.0
H386 H 0.20188 0.04362 0.14259 0.0
H387 H 0.22756 0.99461 0.14922 0.0
H388 H 1.00619 0.28635 0.11003 0.0
H389 H 0.95721 0.2597 0.10507 0.0
H390 H 0.98184 0.19328 0.14823 0.0
H391 H 0.03121 0.21956 0.15312 0.0
H392 H 0.94759 0.16858 0.11615 0.0
H393 H 0.89316 0.27264 0.14795 0.0
H394 H 0.91667 0.27927 0.12729 0.0
H395 H 0.93418 0.26581 0.14896 0.0
C396 C 1.00153 0.26562 0.11815 0.0
C397 C 0.02232 0.25533 0.1322 0.0
C398 C 0.9735 0.25051 0.11533 0.0
C399 C 0.96566 0.22505 0.12662 0.0
C400 C 0.98745 0.21307 0.13947 0.0
H401 H 0.81309 0.12079 0.16414 0.0
H402 H 0.86269 0.14168 0.15461 0.0
C403 C 0.01567 0.22806 0.14222 0.0
C404 C 0.93372 0.21304 0.1266 0.0
H405 H 0.86029 0.23184 0.13978 0.0
C406 C 0.92843 0.18245 0.12114 0.0
C407 C 0.90878 0.23129 0.13309 0.0
C408 C 0.91334 0.264 0.13981 0.0
C409 C 0.89884 0.16942 0.12231 0.0
C410 C 0.87416 0.18735 0.12943 0.0
C411 C 0.87925 0.21825 0.13423 0.0
C412 C 0.84378 0.17369 0.13403 0.0
C413 C 0.89432 0.13648 0.11613 0.0
C414 C 0.81649 0.18532 0.12595 0.0
C415 C 0.78777 0.17352 0.13148 0.0
C416 C 0.78597 0.15021 0.14539 0.0
C417 C 0.81347 0.13876 0.15341 0.0
C418 C 0.84199 0.15043 0.14783 0.0
H419 H 0.91209 0.12941 0.10561 0.0
H420 H 0.89646 0.12113 0.12872 0.0
H421 H 0.87111 0.13302 0.10976 0.0
H422 H 0.81743 0.20359 0.11543 0.0
H423 H 0.76706 0.18282 0.12501 0.0
H424 H 0.83369 0.7637 0.1239 0.0
H425 H 0.81048 0.81367 0.11582 0.0
H426 H 0.87993 0.85989 0.14924 0.0
H427 H 0.90331 0.81069 0.15716 0.0
H428 H 0.78687 0.85433 0.14243 0.0
H429 H 0.87883 0.91149 0.10084 0.0
H430 H 0.87804 0.87036 0.10483 0.0
H431 H 0.89305 0.89579 0.12282 0.0
C432 C 0.84423 0.78456 0.12929 0.0
C433 C 0.87022 0.78316 0.14128 0.0
C434 C 0.831 0.81304 0.12463 0.0
C435 C 0.84385 0.84047 0.13165 0.0
C436 C 0.87011 0.83909 0.14326 0.0
H437 H 0.79567 0.02523 0.15761 0.0
H438 H 0.82198 0.97649 0.15076 0.0
C439 C 0.88321 0.81081 0.14797 0.0
C440 C 0.82825 0.87042 0.12874 0.0
H441 H 0.84151 0.9451 0.11572 0.0
C442 C 0.7985 0.87405 0.13621 0.0
C443 C 0.84365 0.8961 0.12074 0.0
C444 C 0.87505 0.89319 0.11168 0.0
C445 C 0.78436 0.90305 0.13685 0.0
C446 C 0.80024 0.92895 0.12952 0.0
C447 C 0.82952 0.92518 0.12139 0.0
C448 C 0.78714 0.96026 0.13109 0.0
C449 C 0.75317 0.90599 0.14624 0.0
C450 C 0.75965 0.96767 0.12165 0.0
C451 C 0.74455 0.99528 0.12559 0.0
C452 C 0.75681 0.01606 0.13897 0.0
C453 C 0.7856 0.00963 0.14731 0.0
C454 C 0.80064 0.98184 0.14342 0.0
H455 H 0.74691 0.88502 0.15447 0.0
H456 H 0.75268 0.9261 0.15598 0.0
H457 H 0.73529 0.90961 0.13513 0.0
H458 H 0.7492 0.95151 0.11183 0.0
H459 H 0.72263 0.9998 0.11869 0.0
H460 H 0.21094 0.89712 0.15565 0.0
H461 H 0.16274 0.87145 0.14813 0.0
H462 H 0.21134 0.8065 0.11278 0.0
H463 H 0.26042 0.83202 0.12048 0.0
H464 H 0.13333 0.8599 0.11305 0.0
H465 H 0.16497 0.75216 0.1517 0.0
H466 H 0.18643 0.78746 0.1545 0.0
H467 H 0.19093 0.76482 0.13332 0.0
C468 C 0.21162 0.87739 0.14624 0.0
C469 C 0.23973 0.86639 0.13886 0.0
C470 C 0.1839 0.86285 0.14188 0.0
C471 C 0.18349 0.83693 0.13008 0.0
C472 C 0.21127 0.82628 0.12215 0.0
H473 H 0.02542 0.71452 0.11749 0.0
H474 H 0.07414 0.74059 0.11103 0.0
C475 C 0.23924 0.84092 0.12651 0.0
C476 C 0.15387 0.82068 0.127 0.0
H477 H 0.11478 0.75554 0.13949 0.0
C478 C 0.12932 0.8369 0.11858 0.0
C479 C 0.14873 0.79076 0.13432 0.0
C480 C 0.17401 0.77273 0.1441 0.0
C481 C 0.09954 0.82425 0.1177 0.0
C482 C 0.09417 0.79482 0.12566 0.0
C483 C 0.11898 0.77813 0.13339 0.0
C484 C 0.06284 0.78139 0.12719 0.0
C485 C 0.07406 0.84259 0.10841 0.0
C486 C 0.03999 0.79599 0.13811 0.0
C487 C 0.01196 0.78115 0.14184 0.0
C488 C 1.00652 0.75129 0.13488 0.0
C489 C 0.02893 0.73741 0.12321 0.0
C490 C 0.05682 0.75227 0.11946 0.0
H491 H 0.08338 0.85981 0.09819 0.0
H492 H 0.05767 0.82732 0.10076 0.0
H493 H 0.06109 0.85524 0.11954 0.0
H494 H 0.04438 0.81823 0.14452 0.0
H495 H 0.99526 0.79243 0.15093 0.0
H496 H 0.22561 0.0356 0.36881 0.0
H497 H 0.19803 0.98683 0.37269 0.0
H498 H 0.27302 0.9511 0.40657 0.0
H499 H 0.30069 0.99969 0.4029 0.0
H500 H 0.22862 0.93277 0.35842 0.0
H501 H 0.19428 0.91941 0.43432 0.0
H502 H 0.20141 0.95658 0.42353 0.0
H503 H 0.23315 0.93217 0.43004 0.0
C504 C 0.23583 0.01772 0.37756 0.0
C505 C 0.26552 0.02131 0.38531 0.0
C506 C 0.22005 0.9899 0.37976 0.0
C507 C 0.23352 0.96549 0.38995 0.0
C508 C 0.26209 0.96981 0.39887 0.0
H509 H 0.19276 0.76769 0.39022 0.0
H510 H 0.21631 0.81802 0.39714 0.0
C511 C 0.27795 0.99753 0.39662 0.0
C512 C 0.22024 0.93429 0.38863 0.0
H513 H 0.18885 0.87545 0.41448 0.0
C514 C 0.21978 0.92029 0.37066 0.0
C515 C 0.2094 0.91796 0.40471 0.0
C516 C 0.20931 0.93227 0.42426 0.0
C517 C 0.20852 0.89037 0.36827 0.0
C518 C 0.19688 0.87429 0.38424 0.0
C519 C 0.19785 0.88797 0.40231 0.0
C520 C 0.18165 0.84418 0.3819 0.0
C521 C 0.20921 0.87613 0.34867 0.0
C522 C 0.15415 0.84258 0.3715 0.0
C523 C 0.14091 0.81419 0.36744 0.0
C524 C 0.15479 0.78673 0.37381 0.0
C525 C 0.18168 0.78843 0.385 0.0
C526 C 0.19507 0.81707 0.38901 0.0
H527 H 0.22587 0.88803 0.33915 0.0
H528 H 0.21544 0.85134 0.34946 0.0
H529 H 0.18596 0.87798 0.34212 0.0
H530 H 0.14328 0.86336 0.36615 0.0
H531 H 0.11988 0.81383 0.35909 0.0
H532 H 0.21321 0.13322 0.35901 0.0
H533 H 0.16417 0.15392 0.3695 0.0
H534 H 0.20994 0.20374 0.41445 0.0
H535 H 0.25993 0.18306 0.40392 0.0
H536 H 0.13505 0.14914 0.40615 0.0
H537 H 0.16072 0.26992 0.38401 0.0
H538 H 0.18342 0.23778 0.37574 0.0
H539 H 0.18754 0.25108 0.39979 0.0
C540 C 0.21313 0.14861 0.37113 0.0
C541 C 0.24067 0.15667 0.38054 0.0
C542 C 0.18493 0.16026 0.37717 0.0
C543 C 0.18346 0.18033 0.3927 0.0
C544 C 0.21072 0.18839 0.40232 0.0
H545 H 0.01804 0.28883 0.41186 0.0
H546 H 0.06634 0.2628 0.41974 0.0
C547 C 0.2392 0.17664 0.39627 0.0
C548 C 0.15319 0.19343 0.39795 0.0
H549 H 0.11018 0.25865 0.39315 0.0
C550 C 0.12964 0.17322 0.40368 0.0
C551 C 0.14632 0.22479 0.3947 0.0
C552 C 0.17067 0.24727 0.38813 0.0
C553 C 0.09903 0.18336 0.4055 0.0
C554 C 0.09186 0.21433 0.40116 0.0
C555 C 0.11574 0.23487 0.39646 0.0
C556 C 0.0597 0.22566 0.39966 0.0
C557 C 0.07464 0.1607 0.41168 0.0
C558 C 0.03931 0.21271 0.38629 0.0
C559 C 0.01147 0.22743 0.38187 0.0
C560 C 1.00401 0.25557 0.39053 0.0
C561 C 0.02341 0.26727 0.40485 0.0
C562 C 0.05098 0.25243 0.40939 0.0
H563 H 0.08472 0.14196 0.42052 0.0
H564 H 0.05608 0.1722 0.41991 0.0
H565 H 0.06417 0.14997 0.39888 0.0
H566 H 0.04584 0.19241 0.37832 0.0
H567 H 0.99703 0.21804 0.3707 0.0
H568 H 0.71682 0.0205 0.40436 0.0
H569 H 0.74226 0.06925 0.41151 0.0
H570 H 0.81871 0.04368 0.37566 0.0
H571 H 0.79338 0.99454 0.36834 0.0
H572 H 0.83241 0.07673 0.41341 0.0
H573 H 0.7462 0.13358 0.36595 0.0
H574 H 0.73175 0.10836 0.38425 0.0
H575 H 0.75382 0.09274 0.36496 0.0
C576 C 0.73929 0.02496 0.3982 0.0
C577 C 0.75288 1.00387 0.38551 0.0
C578 C 0.75376 0.05282 0.40234 0.0
C579 C 0.78204 0.06012 0.39388 0.0
C580 C 0.79677 0.03835 0.38226 0.0
H581 H 0.90343 0.20525 0.37205 0.0
H582 H 0.87785 0.15757 0.38066 0.0
C583 C 0.7823 0.01033 0.3781 0.0
C584 C 0.7947 0.09155 0.39565 0.0
H585 H 0.78431 0.16499 0.37948 0.0
C586 C 0.82181 0.09613 0.40616 0.0
C587 C 0.78051 0.11677 0.38635 0.0
C588 C 0.75155 0.11282 0.37463 0.0
C589 C 0.83562 0.12532 0.40718 0.0
C590 C 0.82224 0.15025 0.3971 0.0
C591 C 0.79439 0.14588 0.38729 0.0
C592 C 0.83886 0.17964 0.39416 0.0
C593 C 0.86465 0.12912 0.41881 0.0
C594 C 0.82523 0.2081 0.39869 0.0
C595 C 0.83983 0.23575 0.39362 0.0
C596 C 0.8679 0.23517 0.38364 0.0
C597 C 0.88166 0.20658 0.37957 0.0
C598 C 0.86727 0.17919 0.38472 0.0
H599 H 0.86559 0.11211 0.43065 0.0
H600 H 0.88498 0.12507 0.40956 0.0
H601 H 0.8664 0.15267 0.42485 0.0
H602 H 0.80306 0.20886 0.40579 0.0
H603 H 0.82871 0.25743 0.39693 0.0
H604 H 1.0031 0.72537 0.40257 0.0
H605 H 0.95418 0.75133 0.40877 0.0
H606 H 0.97818 0.8224 0.36844 0.0
H607 H 0.02755 0.79669 0.36224 0.0
H608 H 0.94592 0.84306 0.40298 0.0
H609 H 0.88808 0.74545 0.36599 0.0
H610 H 0.91275 0.73538 0.38563 0.0
H611 H 0.92911 0.75197 0.36448 0.0
C612 C 0.99824 0.74682 0.39523 0.0
C613 C 0.01893 0.75873 0.38165 0.0
C614 C 0.97027 0.76156 0.3988 0.0
C615 C 0.96239 0.78834 0.38876 0.0
C616 C 0.98388 0.80159 0.37624 0.0
H617 H 0.81107 0.90065 0.3602 0.0
H618 H 0.86045 0.87785 0.36832 0.0
C619 C 0.01205 0.78692 0.37272 0.0
C620 C 0.93074 0.80085 0.38996 0.0
H621 H 0.8564 0.78536 0.37709 0.0
C622 C 0.92628 0.8304 0.39748 0.0
C623 C 0.90519 0.78411 0.38288 0.0
C624 C 0.90886 0.75256 0.37415 0.0
C625 C 0.89687 0.84394 0.39776 0.0
C626 C 0.87153 0.82767 0.38998 0.0
C627 C 0.87584 0.79768 0.38314 0.0
C628 C 0.84132 0.84258 0.38662 0.0
C629 C 0.89324 0.87567 0.40618 0.0
C630 C 0.81394 0.82987 0.3939 0.0
C631 C 0.7853 0.84277 0.38913 0.0
C632 C 0.7837 0.86829 0.37678 0.0
C633 C 0.8113 0.88096 0.3697 0.0
C634 C 0.83971 0.86819 0.37451 0.0
H635 H 0.91136 0.88035 0.41701 0.0
H636 H 0.89563 0.89312 0.3947 0.0
H637 H 0.87024 0.87855 0.41289 0.0
H638 H 0.81474 0.80982 0.4031 0.0
H639 H 0.7645 0.83249 0.39483 0.0
H640 H 0.89497 0.81058 0.86135 0.0
H641 H 0.87397 0.85994 0.87092 0.0
H642 H 0.80873 0.81416 0.90763 0.0
H643 H 0.82971 0.76389 0.89799 0.0
H644 H 0.78289 0.85832 0.88256 0.0
H645 H 0.88289 0.90751 0.92092 0.0
H646 H 0.89321 0.89211 0.8981 0.0
H647 H 0.87894 0.86674 0.91639 0.0
C648 C 0.87624 0.81076 0.87155 0.0
C649 C 0.86392 0.78314 0.87883 0.0
C650 C 0.86451 0.83915 0.87717 0.0
C651 C 0.84027 0.84074 0.89027 0.0
C652 C 0.82777 0.81335 0.89767 0.0
H653 H 0.72891 1.00539 0.91008 0.0
H654 H 0.75352 0.95558 0.91578 0.0
C655 C 0.83969 0.7847 0.89211 0.0
C656 C 0.8266 0.87113 0.89471 0.0
H657 H 0.84572 0.944 0.90871 0.0
C658 C 0.79632 0.87693 0.88868 0.0
C659 C 0.84435 0.89535 0.90256 0.0
C660 C 0.87656 0.89007 0.91003 0.0
C661 C 0.78388 0.90673 0.88924 0.0
C662 C 0.80206 0.93123 0.89641 0.0
C663 C 0.83192 0.9252 0.90317 0.0
C664 C 0.79081 0.96342 0.89593 0.0
C665 C 0.75199 0.91203 0.88118 0.0
C666 C 0.80485 0.9851 0.88384 0.0
C667 C 0.79104 0.01383 0.88072 0.0
C668 C 0.76292 0.02106 0.88958 0.0
C669 C 0.75037 1.00024 0.90285 0.0
C670 C 0.7643 0.97174 0.90608 0.0
H671 H 0.74382 0.89214 0.87262 0.0
H672 H 0.73548 0.91551 0.89305 0.0
H673 H 0.75153 0.93295 0.87206 0.0
H674 H 0.82548 0.97911 0.87597 0.0
H675 H 0.80122 0.02942 0.87043 0.0
H676 H 0.99713 0.78577 0.85938 0.0
H677 H 0.04761 0.8091 0.86529 0.0
H678 H 0.05763 0.75417 0.91625 0.0
H679 H 1.00795 0.72952 0.90973 0.0
H680 H 0.07474 0.84133 0.89166 0.0
H681 H 0.1325 0.72747 0.88808 0.0
H682 H 0.09222 0.73249 0.88258 0.0
H683 H 0.10487 0.72997 0.90698 0.0
C684 C 1.0099 0.77913 0.87202 0.0
C685 C 0.99895 0.75566 0.884 0.0
C686 C 0.03878 0.79235 0.87536 0.0
C687 C 0.05689 0.78263 0.89088 0.0
C688 C 0.04464 0.76116 0.90379 0.0
H689 H 0.22755 0.88582 0.91037 0.0
H690 H 0.17847 0.8598 0.91674 0.0
C691 C 0.01614 0.74738 0.90019 0.0
C692 C 0.08904 0.79391 0.89289 0.0
H693 H 0.16411 0.77014 0.89528 0.0
C694 C 0.09428 0.82578 0.89252 0.0
C695 C 0.11458 0.77353 0.89369 0.0
C696 C 0.11086 0.73899 0.89266 0.0
C697 C 0.12427 0.83789 0.8925 0.0
C698 C 0.1498 0.81755 0.89381 0.0
C699 C 0.14454 0.78569 0.89457 0.0
C700 C 0.18207 0.82878 0.89273 0.0
C701 C 0.12816 0.87226 0.89008 0.0
C702 C 0.20169 0.81799 0.87827 0.0
C703 C 0.23027 0.83198 0.87513 0.0
C704 C 0.23933 0.85719 0.88625 0.0
C705 C 0.22085 0.86641 0.90162 0.0
C706 C 0.19269 0.85188 0.90507 0.0
H707 H 0.10708 0.88318 0.88408 0.0
H708 H 0.13261 0.88286 0.90418 0.0
H709 H 0.14784 0.87767 0.88054 0.0
H710 H 0.19411 0.80001 0.86866 0.0
H711 H 0.24405 0.82477 0.86306 0.0
H712 H 0.22141 0.99995 0.87687 0.0
H713 H 0.20252 0.05004 0.88672 0.0
H714 H 0.26973 0.05239 0.93208 0.0
H715 H 0.28988 1.00241 0.92171 0.0
H716 H 0.17884 0.0758 0.91738 0.0
H717 H 0.29368 0.12799 0.90248 0.0
H718 H 0.28492 0.08857 0.89662 0.0
H719 H 0.29269 0.09923 0.92088 0.0
C720 C 0.23198 0.01079 0.88913 0.0
C721 C 0.25768 0.99748 0.89819 0.0
C722 C 0.22108 0.03951 0.89479 0.0
C723 C 0.23532 0.05544 0.90978 0.0
C724 C 0.25906 0.04096 0.92007 0.0
H725 H 0.14066 0.23327 0.9214 0.0
H726 H 0.16805 0.18746 0.93299 0.0
C727 C 0.27032 0.01224 0.91425 0.0
C728 C 0.22644 0.08796 0.91325 0.0
H729 H 0.25277 0.16171 0.90824 0.0
C730 C 0.19504 0.09466 0.91571 0.0
C731 C 0.24768 0.11249 0.91092 0.0
C732 C 0.28159 0.10688 0.90744 0.0
C733 C 0.18389 0.12492 0.91448 0.0
C734 C 0.20503 0.14943 0.91162 0.0
C735 C 0.23669 0.14292 0.91051 0.0
C736 C 0.19435 0.18112 0.90709 0.0
C737 C 0.14938 0.12985 0.91472 0.0
C738 C 0.20227 0.19444 0.88947 0.0
C739 C 0.18757 0.22126 0.8832 0.0
C740 C 0.16453 0.2348 0.89437 0.0
C741 C 0.15842 0.22302 0.9126 0.0
C742 C 0.17374 0.1967 0.9191 0.0
H743 H 0.13647 0.10799 0.91271 0.0
H744 H 0.14249 0.13959 0.92867 0.0
H745 H 0.14222 0.14616 0.90334 0.0
H746 H 0.21824 0.18295 0.87999 0.0
H747 H 0.19231 0.22985 0.869 0.0
H748 H 0.02673 0.20456 0.89138 0.0
H749 H 0.97525 0.18652 0.89957 0.0
H750 H 0.96006 0.26828 0.93303 0.0
H751 H 0.01152 0.28701 0.92451 0.0
H752 H 0.93885 0.1755 0.93154 0.0
H753 H 0.89697 0.27702 0.89007 0.0
H754 H 0.93708 0.26609 0.89049 0.0
H755 H 0.92015 0.2848 0.91074 0.0
C756 C 0.01282 0.21841 0.90089 0.0
C757 C 0.02295 0.24761 0.90686 0.0
C758 C 0.98335 0.20801 0.90559 0.0
C759 C 0.9635 0.22651 0.91642 0.0
C760 C 0.97477 0.25403 0.92424 0.0
H761 H 0.76299 0.1916 0.90545 0.0
H762 H 0.81047 0.21314 0.91924 0.0
C763 C 1.00432 0.26456 0.91948 0.0
C764 C 0.93026 0.21852 0.91715 0.0
H765 H 0.86102 0.23892 0.89749 0.0
C766 C 0.92166 0.18967 0.92448 0.0
C767 C 0.90781 0.23706 0.90791 0.0
C768 C 0.91582 0.26789 0.89922 0.0
C769 C 0.89171 0.17812 0.92185 0.0
C770 C 0.86998 0.19577 0.91149 0.0
C771 C 0.87782 0.22551 0.90542 0.0
C772 C 0.84097 0.18209 0.90428 0.0
C773 C 0.88393 0.14656 0.92946 0.0
C774 C 0.84255 0.15798 0.89108 0.0
C775 C 0.81575 0.14599 0.88303 0.0
C776 C 0.78664 0.15782 0.888 0.0
C777 C 0.78504 0.18199 0.90131 0.0
C778 C 0.81207 0.19423 0.90925 0.0
H779 H 0.89886 0.14034 0.94175 0.0
H780 H 0.85939 0.14526 0.93393 0.0
H781 H 0.88776 0.12925 0.91809 0.0
H782 H 0.86467 0.14875 0.88673 0.0
H783 H 0.81793 0.12731 0.87292 0.0
H784 H 0.79621 0.9953 0.65219 0.0
H785 H 0.82104 0.04538 0.64743 0.0
H786 H 0.75092 0.07034 0.6066 0.0
H787 H 0.72564 0.02065 0.61151 0.0
H788 H 0.84353 0.07962 0.61576 0.0
H789 H 0.74074 0.1346 0.64888 0.0
H790 H 0.74713 0.09356 0.6496 0.0
H791 H 0.73316 0.11154 0.62819 0.0
C792 C 0.78646 0.01116 0.64189 0.0
C793 C 0.75867 1.00425 0.63248 0.0
C794 C 0.80063 0.03979 0.63921 0.0
C795 C 0.78733 0.0618 0.62702 0.0
C796 C 0.7611 0.05394 0.61641 0.0
H797 H 0.83396 0.2598 0.62471 0.0
H798 H 0.81129 0.21019 0.61525 0.0
C799 C 0.74679 0.02548 0.61918 0.0
C800 C 0.79939 0.09372 0.62674 0.0
H801 H 0.78153 0.1672 0.64014 0.0
C802 C 0.8299 0.09883 0.6209 0.0
C803 C 0.78147 0.11877 0.63341 0.0
C804 C 0.74889 0.11447 0.64053 0.0
C805 C 0.84323 0.12825 0.62199 0.0
C806 C 0.82569 0.15299 0.62934 0.0
C807 C 0.79481 0.14817 0.63442 0.0
C808 C 0.83998 0.18296 0.6341 0.0
C809 C 0.87615 0.1325 0.61557 0.0
C810 C 0.86307 0.18401 0.64804 0.0
C811 C 0.87575 0.21206 0.65357 0.0
C812 C 0.86557 0.23986 0.64533 0.0
C813 C 0.8423 0.23884 0.63134 0.0
C814 C 0.82943 0.21056 0.62588 0.0
H815 H 0.88296 0.11464 0.60507 0.0
H816 H 0.87963 0.15561 0.6091 0.0
H817 H 0.89171 0.1304 0.62807 0.0
H818 H 0.87101 0.16306 0.65489 0.0
H819 H 0.89364 0.21182 0.66435 0.0
H820 H 0.03244 0.80111 0.65149 0.0
H821 H 0.98276 0.82675 0.64602 0.0
H822 H 0.9593 0.75863 0.60381 0.0
H823 H 1.00852 0.73268 0.60937 0.0
H824 H 0.94906 0.84994 0.61307 0.0
H825 H 0.89438 0.74705 0.64637 0.0
H826 H 0.93533 0.75415 0.64765 0.0
H827 H 0.91846 0.73964 0.62608 0.0
C828 C 0.01705 0.7921 0.6407 0.0
C829 C 0.02408 0.76462 0.6311 0.0
C830 C 0.98867 0.8067 0.63761 0.0
C831 C 0.96716 0.79409 0.62484 0.0
C832 C 0.97536 0.76831 0.61401 0.0
H833 H 0.76823 0.83571 0.62095 0.0
H834 H 0.81872 0.81444 0.61196 0.0
C835 C 1.0035 0.75359 0.61718 0.0
C836 C 0.93517 0.80593 0.62431 0.0
H837 H 0.86147 0.78725 0.637 0.0
C838 C 0.92984 0.83619 0.61813 0.0
C839 C 0.91015 0.78781 0.63086 0.0
C840 C 0.91473 0.75543 0.63826 0.0
C841 C 0.90013 0.84906 0.61867 0.0
C842 C 0.87536 0.83131 0.62589 0.0
C843 C 0.8805 0.80069 0.63138 0.0
C844 C 0.84491 0.84511 0.63008 0.0
C845 C 0.89559 0.88166 0.61174 0.0
C846 C 0.843 0.86894 0.64342 0.0
C847 C 0.81446 0.88087 0.64866 0.0
C848 C 0.787 0.86914 0.64076 0.0
C849 C 0.7889 0.84523 0.62731 0.0
C850 C 0.81768 0.83315 0.62211 0.0
H851 H 0.91349 0.88823 0.60117 0.0
H852 H 0.87246 0.88473 0.60518 0.0
H853 H 0.89753 0.89764 0.624 0.0
H854 H 0.86363 0.87794 0.65012 0.0
H855 H 0.81403 0.89929 0.65903 0.0
H856 H 0.13157 0.81627 0.65129 0.0
H857 H 0.1543 0.86304 0.63823 0.0
H858 H 0.21723 0.80874 0.60468 0.0
H859 H 0.19447 0.76138 0.61767 0.0
H860 H 0.24437 0.8577 0.62707 0.0
H861 H 0.14623 0.89895 0.58343 0.0
H862 H 0.13523 0.88743 0.60705 0.0
H863 H 0.15036 0.85923 0.59082 0.0
C864 C 0.15022 0.81411 0.64113 0.0
C865 C 0.16125 0.78501 0.63558 0.0
C866 C 0.16296 0.84092 0.63352 0.0
C867 C 0.18698 0.83928 0.62022 0.0
C868 C 0.1984 0.81039 0.61476 0.0
H869 H 0.29656 1.00698 0.60036 0.0
H870 H 0.27654 0.95607 0.59174 0.0
C871 C 0.18545 0.78342 0.62225 0.0
C872 C 0.20131 0.86808 0.61327 0.0
H873 H 0.18296 0.93749 0.59338 0.0
C874 C 0.23138 0.87495 0.61924 0.0
C875 C 0.1842 0.89034 0.60302 0.0
C876 C 0.1523 0.88356 0.59553 0.0
C877 C 0.24384 0.90451 0.61674 0.0
C878 C 0.2259 0.9275 0.60758 0.0
C879 C 0.19668 0.91986 0.60036 0.0
C880 C 0.23481 0.96042 0.60841 0.0
C881 C 0.27502 0.91152 0.62532 0.0
C882 C 0.21683 0.98056 0.61935 0.0
C883 C 0.22796 0.00965 0.6241 0.0
C884 C 0.25738 0.01913 0.61806 0.0
C885 C 0.27393 1.00024 0.6054 0.0
C886 C 0.26267 0.97104 0.60059 0.0
H887 H 0.28369 0.89236 0.63439 0.0
H888 H 0.29198 0.91545 0.61375 0.0
H889 H 0.27392 0.93272 0.63412 0.0
H890 H 0.19512 0.97296 0.62539 0.0
H891 H 0.21443 0.02384 0.63364 0.0
H892 H 0.22304 0.12623 0.60791 0.0
H893 H 0.17458 0.1523 0.60016 0.0
H894 H 0.19212 0.2185 0.64469 0.0
H895 H 0.2413 0.19341 0.6517 0.0
H896 H 0.1286 0.15312 0.62285 0.0
H897 H 0.15555 0.27416 0.60616 0.0
H898 H 0.18501 0.2448 0.60675 0.0
H899 H 0.17309 0.2638 0.62837 0.0
C900 C 0.21701 0.1471 0.61548 0.0
C901 C 0.2358 0.15802 0.6303 0.0
C902 C 0.1893 0.16187 0.61113 0.0
C903 C 0.17967 0.18748 0.62176 0.0
C904 C 0.19933 0.19936 0.6359 0.0
H905 H 1.00001 0.23119 0.66129 0.0
H906 H 0.04806 0.20539 0.6525 0.0
C907 C 0.22744 0.18498 0.63996 0.0
C908 C 0.14752 0.1989 0.61999 0.0
H909 H 0.1045 0.26455 0.61924 0.0
C910 C 0.12333 0.17748 0.62164 0.0
C911 C 0.14045 0.23054 0.61809 0.0
C912 C 0.16497 0.25453 0.61452 0.0
C913 C 0.09245 0.18696 0.62245 0.0
C914 C 0.08562 0.2188 0.62233 0.0
C915 C 0.10966 0.24011 0.61963 0.0
C916 C 0.05419 0.23082 0.62614 0.0
C917 C 0.06759 0.16269 0.6235 0.0
C918 C 0.04153 0.25364 0.6143 0.0
C919 C 0.01457 0.2689 0.61959 0.0
C920 C 0.99953 0.26127 0.63666 0.0
C921 C 0.01097 0.2371 0.64791 0.0
C922 C 0.03837 0.22228 0.64283 0.0
H923 H 0.07493 0.14124 0.61619 0.0
H924 H 0.06324 0.15679 0.63865 0.0
H925 H 0.04569 0.17079 0.61698 0.0
H926 H 0.05325 0.2606 0.60136 0.0
H927 H 1.00609 0.28751 0.6107 0.0
H928 H 0.11767 0.27693 0.22034 0.0
H929 H 0.1492 0.25186 0.24481 0.0
H930 H 0.23136 0.28967 0.2194 0.0
H931 H 0.20003 0.31423 0.19465 0.0
H932 H 0.24048 0.23074 0.22679 0.0
H933 H 0.19101 0.28223 0.29188 0.0
H934 H 0.16224 0.26382 0.27749 0.0
H935 H 0.18249 0.29697 0.26842 0.0
C936 C 0.14238 0.28057 0.22015 0.0
C937 C 0.15603 0.29804 0.20542 0.0
C938 C 0.16054 0.26614 0.23428 0.0
C939 C 0.19296 0.26891 0.23432 0.0
C940 C 0.20653 0.28698 0.2199 0.0
H941 H 0.30969 0.20695 0.3304 0.0
H942 H 0.28265 0.23736 0.30612 0.0
C943 C 0.18843 0.30131 0.20574 0.0
C944 C 0.2128 0.25178 0.24863 0.0
H945 H 0.22338 0.23833 0.29641 0.0
C946 C 0.23674 0.23262 0.24202 0.0
C947 C 0.20861 0.25421 0.26864 0.0
C948 C 0.18492 0.27566 0.27706 0.0
C949 C 0.25588 0.21564 0.25458 0.0
C950 C 0.25085 0.21706 0.27455 0.0
C951 C 0.22734 0.23672 0.2812 0.0
C952 C 0.26946 0.19839 0.28875 0.0
C953 C 0.28178 0.19681 0.24624 0.0
C954 C 0.27174 0.16611 0.28728 0.0
C955 C 0.2876 0.1486 0.3011 0.0
C956 C 0.30151 0.16269 0.31705 0.0
C957 C 0.29973 0.19509 0.31832 0.0
C958 C 0.28392 0.2126 0.30444 0.0
H959 H 0.28882 0.20573 0.23205 0.0
H960 H 0.30229 0.19668 0.25572 0.0
H961 H 0.27385 0.17272 0.24432 0.0
H962 H 0.26035 0.15417 0.27572 0.0
H963 H 0.28791 0.12377 0.29962 0.0
H964 H 0.90307 0.28724 0.29931 0.0
H965 H 0.87128 0.26252 0.27482 0.0
H966 H 0.79111 0.27257 0.31055 0.0
H967 H 0.82239 0.29826 0.33462 0.0
H968 H 0.84198 0.2106 0.2752 0.0
H969 H 0.75348 0.29958 0.26208 0.0
H970 H 0.78784 0.30736 0.27573 0.0
H971 H 0.75497 0.28923 0.28677 0.0
C972 C 0.87851 0.28494 0.30176 0.0
C973 C 0.86543 0.29525 0.31899 0.0
C974 C 0.86028 0.27051 0.28775 0.0
C975 C 0.82841 0.26578 0.2905 0.0
C976 C 0.81528 0.27654 0.30758 0.0
H977 H 0.72734 0.12068 0.22779 0.0
H978 H 0.75404 0.15096 0.25219 0.0
C979 C 0.83338 0.2913 0.32148 0.0
C980 C 0.80944 0.24804 0.27615 0.0
H981 H 0.74176 0.249 0.25075 0.0
C982 C 0.82016 0.21921 0.26981 0.0
C983 C 0.78099 0.25903 0.26871 0.0
C984 C 0.76881 0.29063 0.27352 0.0
C985 C 0.80337 0.20116 0.25665 0.0
C986 C 0.77422 0.21149 0.2499 0.0
C987 C 0.76371 0.24053 0.25603 0.0
C988 C 0.75506 0.19334 0.23585 0.0
C989 C 0.81771 0.17158 0.24968 0.0
C990 C 0.74459 0.20717 0.21888 0.0
C991 C 0.72852 0.19004 0.20509 0.0
C992 C 0.72244 0.15839 0.20773 0.0
C993 C 0.73161 0.14489 0.22512 0.0
C994 C 0.74738 0.16218 0.23904 0.0
H995 H 0.84318 0.17172 0.25149 0.0
H996 H 0.80848 0.15201 0.2581 0.0
H997 H 0.81241 0.16756 0.23441 0.0
H998 H 0.74979 0.23112 0.21595 0.0
H999 H 0.72209 0.20142 0.19192 0.0
H1000 H 0.81844 0.7091 0.192 0.0
H1001 H 0.78733 0.73581 0.21588 0.0
H1002 H 0.87016 0.76618 0.24414 0.0
H1003 H 0.90145 0.73888 0.22058 0.0
H1004 H 0.82775 0.7516 0.27008 0.0
H1005 H 0.77161 0.82678 0.21655 0.0
H1006 H 0.76519 0.78663 0.21209 0.0
H1007 H 0.80367 0.80207 0.21072 0.0
C1008 C 0.83016 0.72104 0.20344 0.0
C1009 C 0.8627 0.72167 0.20416 0.0
C1010 C 0.81222 0.73677 0.21703 0.0
C1011 C 0.82614 0.75403 0.23168 0.0
C1012 C 0.85858 0.75344 0.23298 0.0
H1013 H 0.7397 0.902 0.29835 0.0
H1014 H 0.76681 0.87089 0.2746 0.0
C1015 C 0.87656 0.73759 0.21945 0.0
C1016 C 0.80711 0.77286 0.24546 0.0
H1017 H 0.75189 0.82946 0.24805 0.0
C1018 C 0.81117 0.76859 0.26519 0.0
C1019 C 0.78571 0.79567 0.23935 0.0
C1020 C 0.78146 0.80335 0.21854 0.0
C1021 C 0.79442 0.78587 0.27877 0.0
C1022 C 0.77216 0.80783 0.27266 0.0
C1023 C 0.76844 0.81244 0.25293 0.0
C1024 C 0.75335 0.82685 0.28646 0.0
C1025 C 0.80153 0.78097 0.29961 0.0
C1026 C 0.73542 0.81289 0.3008 0.0
C1027 C 0.7198 0.83073 0.31448 0.0
C1028 C 0.72123 0.86321 0.31417 0.0
C1029 C 0.73779 0.87717 0.29916 0.0
C1030 C 0.75353 0.85928 0.28553 0.0
H1031 H 0.82473 0.77061 0.30171 0.0
H1032 H 0.80053 0.80299 0.3076 0.0
H1033 H 0.78429 0.76494 0.30579 0.0
H1034 H 0.73387 0.78804 0.30165 0.0
H1035 H 0.70734 0.81894 0.32569 0.0
H1036 H 0.31513 0.81963 0.19032 0.0
H1037 H 0.28909 0.78833 0.21446 0.0
H1038 H 0.2552 0.87072 0.24142 0.0
H1039 H 0.28187 0.9022 0.21764 0.0
H1040 H 0.27048 0.82984 0.26795 0.0
H1041 H 0.19865 0.76968 0.21448 0.0
H1042 H 0.23916 0.76442 0.21051 0.0
H1043 H 0.2225 0.80228 0.20844 0.0
C1044 C 0.30257 0.83121 0.20154 0.0
C1045 C 0.3007 0.86365 0.20183 0.0
C1046 C 0.28723 0.81316 0.21527 0.0
C1047 C 0.26918 0.82689 0.2296 0.0
C1048 C 0.26859 0.85929 0.2305 0.0
H1049 H 0.12161 0.73912 0.29574 0.0
H1050 H 0.15292 0.76597 0.27193 0.0
C1051 C 0.28407 0.87738 0.21684 0.0
C1052 C 0.25063 0.8077 0.24343 0.0
H1053 H 0.19566 0.75095 0.24622 0.0
C1054 C 0.25416 0.81259 0.26313 0.0
C1055 C 0.22867 0.78546 0.23738 0.0
C1056 C 0.22172 0.78032 0.21656 0.0
C1057 C 0.23694 0.79585 0.27677 0.0
C1058 C 0.21588 0.77275 0.27073 0.0
C1059 C 0.21203 0.76816 0.25103 0.0
C1060 C 0.19689 0.75401 0.28456 0.0
C1061 C 0.24083 0.80388 0.29753 0.0
C1062 C 0.21084 0.737 0.29935 0.0
C1063 C 0.1929 0.72153 0.31307 0.0
C1064 C 0.16038 0.72224 0.31234 0.0
C1065 C 0.1465 0.73781 0.29688 0.0
C1066 C 0.16448 0.75339 0.28321 0.0
H1067 H 0.2505 0.82739 0.29939 0.0
H1068 H 0.2185 0.8026 0.30523 0.0
H1069 H 0.25709 0.78734 0.30424 0.0
H1070 H 0.23573 0.7361 0.30053 0.0
H1071 H 0.20461 0.70984 0.32465 0.0
H1072 H 0.74295 0.90324 0.71876 0.0
H1073 H 0.76808 0.87151 0.74317 0.0
H1074 H 0.73026 0.78973 0.71749 0.0
H1075 H 0.70576 0.82118 0.69281 0.0
H1076 H 0.75077 0.83194 0.77037 0.0
H1077 H 0.81992 0.76723 0.71771 0.0
H1078 H 0.79758 0.80072 0.71129 0.0
H1079 H 0.77922 0.76372 0.71368 0.0
C1080 C 0.73954 0.87854 0.71842 0.0
C1081 C 0.72228 0.86496 0.70359 0.0
C1082 C 0.75414 0.8603 0.73241 0.0
C1083 C 0.75201 0.82792 0.73204 0.0
C1084 C 0.73331 0.81447 0.7179 0.0
H1085 H 0.81247 0.71079 0.82859 0.0
H1086 H 0.78192 0.73777 0.80438 0.0
C1087 C 0.71888 0.83264 0.70385 0.0
C1088 C 0.7697 0.80835 0.74614 0.0
H1089 H 0.82199 0.7492 0.74961 0.0
C1090 C 0.76631 0.81385 0.76578 0.0
C1091 C 0.79061 0.78495 0.74037 0.0
C1092 C 0.79736 0.77896 0.71962 0.0
C1093 C 0.78269 0.79663 0.77963 0.0
C1094 C 0.80274 0.77247 0.77387 0.0
C1095 C 0.80641 0.76724 0.75422 0.0
C1096 C 0.82112 0.75338 0.7879 0.0
C1097 C 0.77904 0.80528 0.8003 0.0
C1098 C 0.85343 0.75122 0.78632 0.0
C1099 C 0.87101 0.7352 0.80001 0.0
C1100 C 0.85687 0.72072 0.81575 0.0
C1101 C 0.82437 0.72159 0.81678 0.0
C1102 C 0.80679 0.73749 0.80301 0.0
H1103 H 0.77033 0.82921 0.80192 0.0
H1104 H 0.76207 0.78958 0.80708 0.0
H1105 H 0.80125 0.80324 0.80809 0.0
H1106 H 0.86528 0.76287 0.7748 0.0
H1107 H 0.89589 0.73526 0.79861 0.0
H1108 H 0.12668 0.72209 0.72176 0.0
H1109 H 0.1562 0.74608 0.74754 0.0
H1110 H 0.2349 0.75433 0.71038 0.0
H1111 H 0.20606 0.72887 0.68496 0.0
H1112 H 0.25553 0.74338 0.74402 0.0
H1113 H 0.16861 0.83551 0.75237 0.0
H1114 H 0.15253 0.79833 0.75725 0.0
H1115 H 0.16616 0.80739 0.73362 0.0
C1116 C 0.15046 0.72851 0.71917 0.0
C1117 C 0.16384 0.72348 0.70117 0.0
C1118 C 0.16729 0.74272 0.7339 0.0
C1119 C 0.19768 0.75326 0.73091 0.0
C1120 C 0.21152 0.74684 0.71322 0.0
H1121 H 0.2754 0.90056 0.80093 0.0
H1122 H 0.25421 0.86882 0.7753 0.0
C1123 C 0.19493 0.73207 0.69862 0.0
C1124 C 0.21478 0.77159 0.74587 0.0
H1125 H 0.2084 0.83389 0.77549 0.0
C1126 C 0.24518 0.76326 0.75082 0.0
C1127 C 0.20191 0.79809 0.75466 0.0
C1128 C 0.17067 0.81057 0.74906 0.0
C1129 C 0.26273 0.78024 0.76419 0.0
C1130 C 0.24933 0.80592 0.77359 0.0
C1131 C 0.21896 0.81424 0.76857 0.0
C1132 C 0.26619 0.82507 0.78828 0.0
C1133 C 0.29584 0.77095 0.76752 0.0
C1134 C 0.28109 0.81159 0.80413 0.0
C1135 C 0.2943 0.82997 0.81854 0.0
C1136 C 0.29229 0.86229 0.81772 0.0
C1137 C 0.27788 0.87575 0.8018 0.0
C1138 C 0.26539 0.85749 0.78722 0.0
H1139 H 0.3054 0.75845 0.75505 0.0
H1140 H 0.31067 0.79126 0.77039 0.0
H1141 H 0.29701 0.75517 0.77995 0.0
H1142 H 0.28134 0.78684 0.80589 0.0
H1143 H 0.30427 0.81886 0.83094 0.0
H1144 H 0.18471 0.31355 0.82222 0.0
H1145 H 0.21596 0.29485 0.7952 0.0
H1146 H 0.15492 0.2172 0.78901 0.0
H1147 H 0.12392 0.23561 0.81552 0.0
H1148 H 0.2478 0.23745 0.79109 0.0
H1149 H 0.15973 0.24937 0.73462 0.0
H1150 H 0.1563 0.26845 0.75735 0.0
H1151 H 0.14535 0.22865 0.75488 0.0
C1152 C 0.17764 0.29285 0.81484 0.0
C1153 C 0.15154 0.27629 0.82109 0.0
C1154 C 0.1957 0.28198 0.79946 0.0
C1155 C 0.18779 0.25463 0.78979 0.0
C1156 C 0.16145 0.23856 0.79587 0.0
H1157 H 0.24356 0.12207 0.7075 0.0
H1158 H 0.22246 0.15393 0.73278 0.0
C1159 C 0.14368 0.24917 0.81118 0.0
C1160 C 0.20706 0.24188 0.77376 0.0
H1161 H 0.2013 0.21436 0.72817 0.0
C1162 C 0.23782 0.23293 0.77721 0.0
C1163 C 0.19432 0.23589 0.75552 0.0
C1164 C 0.16222 0.24637 0.75027 0.0
C1165 C 0.25532 0.21673 0.76342 0.0
C1166 C 0.24195 0.20944 0.74554 0.0
C1167 C 0.21169 0.2196 0.74185 0.0
C1168 C 0.25756 0.18915 0.73104 0.0
C1169 C 0.28745 0.20616 0.76843 0.0
C1170 C 0.28504 0.19768 0.7216 0.0
C1171 C 0.29745 0.17916 0.70689 0.0
C1172 C 0.28254 0.15179 0.70124 0.0
C1173 C 0.25575 0.14297 0.71126 0.0
C1174 C 0.24349 0.16131 0.7258 0.0
H1175 H 0.29263 0.20913 0.78382 0.0
H1176 H 0.29058 0.18153 0.76464 0.0
H1177 H 0.30444 0.21979 0.76014 0.0
H1178 H 0.2963 0.21918 0.72512 0.0
H1179 H 0.31786 0.18696 0.69943 0.0
H1180 H 0.90125 0.29992 0.72721 0.0
H1181 H 0.87112 0.27453 0.75221 0.0
H1182 H 0.78996 0.27923 0.71678 0.0
H1183 H 0.8196 0.3056 0.69209 0.0
H1184 H 0.77341 0.28826 0.75213 0.0
H1185 H 0.84901 0.18562 0.75176 0.0
H1186 H 0.86963 0.22 0.75786 0.0
H1187 H 0.85285 0.21613 0.73449 0.0
C1188 C 0.87686 0.29606 0.72483 0.0
C1189 C 0.86307 0.30489 0.70746 0.0
C1190 C 0.85965 0.28105 0.73911 0.0
C1191 C 0.82826 0.27384 0.73632 0.0
C1192 C 0.8141 0.28409 0.7194 0.0
H1193 H 0.73437 0.1278 0.80097 0.0
H1194 H 0.75856 0.15949 0.77625 0.0
C1195 C 0.83119 0.2994 0.70522 0.0
C1196 C 0.8103 0.25515 0.75069 0.0
H1197 H 0.81114 0.1876 0.7761 0.0
C1198 C 0.78172 0.26622 0.75731 0.0
C1199 C 0.82044 0.2259 0.75731 0.0
C1200 C 0.84948 0.21103 0.74985 0.0
C1201 C 0.76349 0.24937 0.77039 0.0
C1202 C 0.77432 0.22078 0.77766 0.0
C1203 C 0.80269 0.20953 0.77083 0.0
C1204 C 0.75681 0.20205 0.79224 0.0
C1205 C 0.73234 0.26213 0.7758 0.0
C1206 C 0.74705 0.21508 0.80958 0.0
C1207 C 0.73261 0.19702 0.82365 0.0
C1208 C 0.72798 0.16515 0.82103 0.0
C1209 C 0.73727 0.15222 0.80354 0.0
C1210 C 0.75137 0.17039 0.78938 0.0
H1211 H 0.7232 0.2778 0.7646 0.0
H1212 H 0.7153 0.24345 0.77822 0.0
H1213 H 0.73463 0.2757 0.7891 0.0
H1214 H 0.75158 0.23909 0.81259 0.0
H1215 H 0.72641 0.20784 0.83699 0.0
H1216 H 0.10208 0.28811 0.08498 0.0
H1217 H 0.10752 0.29213 0.05047 0.0
H1218 H 0.15194 0.38047 0.057 0.0
H1219 H 0.14794 0.37558 0.09176 0.0
H1220 H 0.08054 0.33148 0.0289 0.0
H1221 H 0.20619 0.34456 0.01717 0.0
H1222 H 0.19039 0.33307 0.03985 0.0
H1223 H 0.19086 0.37306 0.033 0.0
C1224 C 0.1137 0.30803 0.07904 0.0
C1225 C 0.12473 0.33146 0.091 0.0
C1226 C 0.11669 0.3104 0.05931 0.0
C1227 C 0.13025 0.33655 0.05098 0.0
C1228 C 0.14206 0.35971 0.06297 0.0
H1229 H 0.0811 0.37531 0.93184 0.0
H1230 H 0.08747 0.37971 0.9664 0.0
C1231 C 0.13969 0.35697 0.08285 0.0
C1232 C 0.12942 0.34032 0.02985 0.0
H1233 H 0.17368 0.354 0.99044 0.0
C1234 C 0.10099 0.3363 0.02052 0.0
C1235 C 0.15606 0.34645 0.0188 0.0
C1236 C 0.18764 0.34923 0.02768 0.0
C1237 C 0.09846 0.33764 1.00061 0.0
C1238 C 0.12489 0.34467 0.98957 0.0
C1239 C 0.15331 0.34904 0.99887 0.0
C1240 C 0.12379 0.34555 0.96833 0.0
C1241 C 0.06766 0.33014 0.99166 0.0
C1242 C 0.14348 0.32653 0.95768 0.0
C1243 C 0.14048 0.32468 0.93788 0.0
C1244 C 0.1175 0.34158 0.92829 0.0
C1245 C 0.09879 0.36175 0.93884 0.0
C1246 C 0.10225 0.36407 0.95862 0.0
H1247 H 0.05273 0.31673 1.0015 0.0
H1248 H 0.05541 0.35188 0.98817 0.0
H1249 H 0.07056 0.31668 0.97835 0.0
H1250 H 0.16039 0.31211 0.96477 0.0
H1251 H 0.15518 0.30879 0.9302 0.0
H1252 H 0.67286 0.16497 0.09604 0.0
H1253 H 0.6703 0.17257 0.06136 0.0
H1254 H 0.70654 0.08119 0.05279 0.0
H1255 H 0.70919 0.07332 0.0871 0.0
H1256 H 0.71972 0.16538 0.03198 0.0
H1257 H 0.62217 0.08383 0.02361 0.0
H1258 H 0.632 0.10121 0.04618 0.0
H1259 H 0.65374 0.06893 0.03744 0.0
C1260 C 0.68043 0.14658 0.08675 0.0
C1261 C 0.69083 0.11838 0.09436 0.0
C1262 C 0.67897 0.15098 0.06698 0.0
C1263 C 0.68775 0.12723 0.05459 0.0
C1264 C 0.69917 0.09959 0.06215 0.0
H1265 H 0.70652 0.07289 0.94018 0.0
H1266 H 0.70433 0.08081 0.97448 0.0
C1267 C 0.70069 0.09518 0.08179 0.0
C1268 C 0.68453 0.13054 0.0337 0.0
H1269 H 0.64997 0.0968 0.99537 0.0
C1270 C 0.70411 0.15086 0.02392 0.0
C1271 C 0.66404 0.1116 0.02331 0.0
C1272 C 0.64156 0.09034 0.03315 0.0
C1273 C 0.705 0.15136 1.00388 0.0
C1274 C 0.68555 0.13127 0.99353 0.0
C1275 C 0.66497 0.11206 1.00336 0.0
C1276 C 0.68787 0.12775 0.97261 0.0
C1277 C 0.72779 0.17212 0.99394 0.0
C1278 C 0.67936 0.15161 0.96014 0.0
C1279 C 0.68053 0.14716 0.94039 0.0
C1280 C 0.69009 0.11871 0.93283 0.0
C1281 C 0.69888 0.09505 0.94545 0.0
C1282 C 0.69768 0.09951 0.96509 0.0
H1283 H 0.74431 0.18284 1.00405 0.0
H1284 H 0.74098 0.159 0.9831 0.0
H1285 H 0.71512 0.19078 0.98645 0.0
H1286 H 0.67135 0.17346 0.96569 0.0
H1287 H 0.67363 0.16586 0.93108 0.0
H1288 H 0.85238 0.66915 0.92793 0.0
H1289 H 0.84399 0.67073 0.96253 0.0
H1290 H 0.93409 0.7109 0.9702 0.0
H1291 H 0.94259 0.70967 0.93594 0.0
H1292 H 0.8801 0.64224 0.99142 0.0
H1293 H 0.878 0.76879 1.00049 0.0
H1294 H 0.87294 0.75055 0.9776 0.0
H1295 H 0.911 0.75584 0.98733 0.0
C1296 C 0.8703 0.67852 0.93699 0.0
C1297 C 0.89817 0.68926 0.92912 0.0
C1298 C 0.86547 0.67938 0.95675 0.0
C1299 C 0.88822 0.69137 0.96892 0.0
C1300 C 0.91595 0.70212 0.96107 0.0
H1301 H 0.94568 0.70704 0.0833 0.0
H1302 H 0.93601 0.70784 0.04911 0.0
C1303 C 0.92084 0.70117 0.94144 0.0
C1304 C 0.884 0.6916 0.98992 0.0
H1305 H 0.88841 0.7389 0.02863 0.0
C1306 C 0.88128 0.66338 0.99958 0.0
C1307 C 0.88546 0.71923 1.00053 0.0
C1308 C 0.88669 0.75034 0.99095 0.0
C1309 C 0.88195 0.66194 0.01961 0.0
C1310 C 0.88499 0.68949 0.03019 0.0
C1311 C 0.88623 0.71778 0.02051 0.0
C1312 C 0.88982 0.68931 0.05114 0.0
C1313 C 0.88111 0.63088 0.02927 0.0
C1314 C 0.86686 0.67898 0.06373 0.0
C1315 C 0.87231 0.67848 0.08343 0.0
C1316 C 0.90086 0.68827 0.09085 0.0
C1317 C 0.92351 0.69909 0.07815 0.0
C1318 C 0.91801 0.69966 0.05855 0.0
H1319 H 0.88372 0.61165 0.01899 0.0
H1320 H 0.89971 0.62913 0.04012 0.0
H1321 H 0.8587 0.62806 0.03669 0.0
H1322 H 0.84475 0.67133 0.05832 0.0
H1323 H 0.8543 0.67019 0.09281 0.0
H1324 H 0.31106 0.94366 0.08081 0.0
H1325 H 0.31412 0.93573 0.04651 0.0
H1326 H 0.36473 0.85146 0.05556 0.0
H1327 H 0.36184 0.85925 0.09019 0.0
H1328 H 0.39143 0.89357 0.02801 0.0
H1329 H 0.26756 0.87136 0.01388 0.0
H1330 H 0.27453 0.90516 0.02795 0.0
H1331 H 0.28441 0.86787 0.03734 0.0
C1332 C 0.32271 0.92329 0.07558 0.0
C1333 C 0.33626 0.9021 0.08829 0.0
C1334 C 0.32428 0.91872 0.05593 0.0
C1335 C 0.33938 0.89287 0.04848 0.0
C1336 C 0.35283 0.8715 0.06105 0.0
H1337 H 0.32685 0.85513 0.92617 0.0
H1338 H 0.32904 0.84819 0.96072 0.0
C1339 C 0.35107 0.87594 0.08082 0.0
C1340 C 0.34196 0.88916 0.02752 0.0
H1341 H 0.29861 0.88464 0.98697 0.0
C1342 C 0.3712 0.89119 0.01903 0.0
C1343 C 0.31559 0.88578 0.01583 0.0
C1344 C 0.28375 0.88212 0.02419 0.0
C1345 C 0.37461 0.89129 0.9991 0.0
C1346 C 0.34805 0.88961 0.9874 0.0
C1347 C 0.31896 0.88619 0.99593 0.0
C1348 C 0.34964 0.89263 0.96632 0.0
C1349 C 0.40658 0.89339 0.99076 0.0
C1350 C 0.3607 0.91986 0.95793 0.0
C1351 C 0.35951 0.92394 0.93816 0.0
C1352 C 0.34708 0.9009 0.92634 0.0
C1353 C 0.33674 0.87331 0.93478 0.0
C1354 C 0.33788 0.86931 0.95456 0.0
H1355 H 0.4244 0.88554 1.00107 0.0
H1356 H 0.4085 0.87941 0.97759 0.0
H1357 H 0.41159 0.91775 0.98706 0.0
H1358 H 0.3693 0.93844 0.96672 0.0
H1359 H 0.36749 0.94555 0.93221 0.0
H1360 H 0.16874 0.67471 0.42439 0.0
H1361 H 0.17695 0.67205 0.45899 0.0
H1362 H 0.08637 0.71016 0.46822 0.0
H1363 H 0.07788 0.71287 0.43395 0.0
H1364 H 0.17188 0.7207 0.48853 0.0
H1365 H 0.08713 0.62606 0.49724 0.0
H1366 H 0.10413 0.63573 0.47452 0.0
H1367 H 0.07275 0.65824 0.48378 0.0
C1368 C 0.15066 0.6827 0.43379 0.0
C1369 C 0.12248 0.6936 0.42638 0.0
C1370 C 0.15541 0.68118 0.45353 0.0
C1371 C 0.13204 0.69042 0.4661 0.0
C1372 C 0.10447 0.70242 0.45873 0.0
H1373 H 0.07966 0.71258 0.58007 0.0
H1374 H 0.08832 0.71054 0.54586 0.0
C1375 C 0.0997 0.70397 0.43911 0.0
C1376 C 0.13563 0.68692 0.48697 0.0
H1377 H 0.10134 0.65331 0.52547 0.0
C1378 C 0.15692 0.70558 0.49665 0.0
C1379 C 0.11619 0.667 0.49745 0.0
C1380 C 0.09395 0.64538 0.48773 0.0
C1381 C 0.15787 0.70619 0.51669 0.0
C1382 C 0.1372 0.68749 0.52713 0.0
C1383 C 0.11706 0.66773 0.51739 0.0
C1384 C 0.13371 0.69017 0.54803 0.0
C1385 C 0.17971 0.72795 0.52659 0.0
C1386 C 0.15656 0.67955 0.56063 0.0
C1387 C 0.15166 0.68059 0.58036 0.0
C1388 C 0.12378 0.69214 0.58773 0.0
C1389 C 0.10132 0.7033 0.57496 0.0
C1390 C 0.10622 0.70221 0.55537 0.0
H1391 H 0.19202 0.7432 0.5164 0.0
H1392 H 0.16691 0.74246 0.53692 0.0
H1393 H 0.19708 0.71447 0.53471 0.0
H1394 H 0.17783 0.66988 0.5552 0.0
H1395 H 0.16943 0.67186 0.5898 0.0
H1396 H 0.36085 0.16418 0.42927 0.0
H1397 H 0.36379 0.1706 0.46401 0.0
H1398 H 0.31646 0.08418 0.47178 0.0
H1399 H 0.3132 0.07769 0.43737 0.0
H1400 H 0.29387 0.13193 0.49499 0.0
H1401 H 0.42154 0.12086 0.49983 0.0
H1402 H 0.40701 0.14963 0.48367 0.0
H1403 H 0.40015 0.10962 0.47888 0.0
C1404 C 0.35096 0.14663 0.43838 0.0
C1405 C 0.33702 0.12029 0.43048 0.0
C1406 C 0.35283 0.15023 0.45824 0.0
C1407 C 0.34073 0.12764 0.47051 0.0
C1408 C 0.3261 0.10184 0.46262 0.0
H1409 H 0.36709 0.0744 0.58705 0.0
H1410 H 0.36843 0.08182 0.55254 0.0
C1411 C 0.32434 0.09815 0.44289 0.0
C1412 C 0.34317 0.13037 0.4916 0.0
H1413 H 0.39453 0.12783 0.52861 0.0
C1414 C 0.31589 0.13139 0.50235 0.0
C1415 C 0.3719 0.12925 0.50118 0.0
C1416 C 0.40189 0.12705 0.49039 0.0
C1417 C 0.31651 0.13084 0.52238 0.0
C1418 C 0.34524 0.12963 0.53198 0.0
C1419 C 0.37256 0.12902 0.52124 0.0
C1420 C 0.34716 0.12688 0.5531 0.0
C1421 C 0.28633 0.13028 0.53308 0.0
C1422 C 0.33566 0.15017 0.56499 0.0
C1423 C 0.33487 0.14603 0.58479 0.0
C1424 C 0.34567 0.11851 0.59313 0.0
C1425 C 0.35852 0.09586 0.58119 0.0
C1426 C 0.35932 0.10006 0.56141 0.0
H1427 H 0.26651 0.12488 0.52361 0.0
H1428 H 0.28704 0.11301 0.54476 0.0
H1429 H 0.2822 0.15323 0.53952 0.0
H1430 H 0.32662 0.17128 0.55892 0.0
H1431 H 0.32485 0.16401 0.59348 0.0
H1432 H 0.95335 0.31212 0.43961 0.0
H1433 H 0.94449 0.31481 0.47383 0.0
H1434 H 0.85322 0.35099 0.46393 0.0
H1435 H 0.86176 0.3482 0.42943 0.0
H1436 H 0.93029 0.36948 0.49436 0.0
H1437 H 0.83948 0.27968 0.50264 0.0
H1438 H 0.86387 0.28181 0.48183 0.0
H1439 H 0.8331 0.30899 0.4849 0.0
C1440 C 0.93128 0.32053 0.44462 0.0
C1441 C 0.90831 0.33009 0.43172 0.0
C1442 C 0.92627 0.32203 0.46423 0.0
C1443 C 0.89815 0.3329 0.47142 0.0
C1444 C 0.87494 0.34213 0.45866 0.0
H1445 H 0.8581 0.35331 0.59444 0.0
H1446 H 0.85147 0.35536 0.55964 0.0
C1447 C 0.87994 0.34066 0.43896 0.0
C1448 C 0.89411 0.33568 0.49232 0.0
H1449 H 0.85679 0.30428 0.53058 0.0
C1450 C 0.91398 0.35546 0.50226 0.0
C1451 C 0.87264 0.31755 0.50256 0.0
C1452 C 0.85111 0.29562 0.49254 0.0
C1453 C 0.91371 0.35687 0.5222 0.0
C1454 C 0.89331 0.33768 0.5325 0.0
C1455 C 0.8724 0.31891 0.5226 0.0
C1456 C 0.89576 0.33475 0.55347 0.0
C1457 C 0.93577 0.3784 0.53215 0.0
C1458 C 0.92243 0.32176 0.56141 0.0
C1459 C 0.92628 0.32053 0.58111 0.0
C1460 C 0.90348 0.33226 0.59337 0.0
C1461 C 0.87616 0.34425 0.5854 0.0
C1462 C 0.87232 0.34543 0.56556 0.0
H1463 H 0.9438 0.39707 0.52251 0.0
H1464 H 0.92484 0.38892 0.54487 0.0
H1465 H 0.95629 0.3652 0.53696 0.0
H1466 H 0.94057 0.31295 0.55231 0.0
H1467 H 0.94744 0.31074 0.58669 0.0
H1468 H 0.7132 0.9419 0.58096 0.0
H1469 H 0.71332 0.93121 0.54692 0.0
H1470 H 0.67253 0.84221 0.55735 0.0
H1471 H 0.67204 0.85283 0.59171 0.0
H1472 H 0.74181 0.88168 0.52693 0.0
H1473 H 0.61408 0.88326 0.51779 0.0
H1474 H 0.63267 0.89882 0.53869 0.0
H1475 H 0.62972 0.85791 0.53567 0.0
C1476 C 0.70418 0.92001 0.5761 0.0
C1477 C 0.69232 0.89833 0.58911 0.0
C1478 C 0.70438 0.91391 0.5566 0.0
C1479 C 0.69263 0.88609 0.54957 0.0
C1480 C 0.6813 0.86403 0.56246 0.0
H1481 H 0.66869 0.85282 0.42607 0.0
H1482 H 0.67082 0.84246 0.46049 0.0
C1483 C 0.68117 0.87009 0.58209 0.0
C1484 C 0.69223 0.88083 0.52868 0.0
H1485 H 0.64408 0.87893 0.49011 0.0
C1486 C 0.72044 0.88062 0.51889 0.0
C1487 C 0.66434 0.87928 0.51822 0.0
C1488 C 0.63339 0.87999 0.52802 0.0
C1489 C 0.72151 0.88009 0.49891 0.0
C1490 C 0.69363 0.8803 0.48842 0.0
C1491 C 0.66542 0.87882 0.49819 0.0
C1492 C 0.69327 0.88548 0.46751 0.0
C1493 C 0.75253 0.88 0.48919 0.0
C1494 C 0.7049 0.91314 0.46011 0.0
C1495 C 0.7036 0.91916 0.4406 0.0
C1496 C 0.69049 0.89769 0.42797 0.0
C1497 C 0.67899 0.86981 0.43538 0.0
C1498 C 0.68016 0.86387 0.45503 0.0
H1499 H 0.77071 0.87016 0.49857 0.0
H1500 H 0.75179 0.86661 0.47573 0.0
H1501 H 0.75918 0.90404 0.48571 0.0
H1502 H 0.71458 0.93041 0.46949 0.0
H1503 H 0.71273 0.94085 0.43544 0.0
H1504 H 0.01324 0.30398 0.20087 0.0
H1505 H 0.98395 0.32779 0.22634 0.0
H1506 H 0.99289 0.41655 0.19917 0.0
H1507 H 0.02124 0.39255 0.17298 0.0
H1508 H 0.0222 0.41038 0.23507 0.0
H1509 H 0.9021 0.37066 0.23998 0.0
H1510 H 0.92604 0.3401 0.23127 0.0
H1511 H 0.92203 0.37496 0.21746 0.0
C1512 C 1.0082 0.32838 0.19996 0.0
C1513 C 0.02049 0.3466 0.18533 0.0
C1514 C 0.99103 0.34193 0.21438 0.0
C1515 C 0.98614 0.37391 0.2145 0.0
C1516 C 0.9962 0.39182 0.19914 0.0
H1517 H 0.98295 0.3923 0.33801 0.0
H1518 H 0.98018 0.41617 0.30634 0.0
C1519 C 0.01281 0.37811 0.18442 0.0
C1520 C 0.97785 0.38822 0.23271 0.0
H1521 H 0.93306 0.36673 0.27004 0.0
C1522 C 1.002 0.40242 0.24275 0.0
C1523 C 0.95124 0.37852 0.24252 0.0
C1524 C 0.92375 0.36552 0.23214 0.0
C1525 C 1.00284 0.40132 0.26267 0.0
C1526 C 0.97865 0.38628 0.27233 0.0
C1527 C 0.95199 0.37745 0.2624 0.0
C1528 C 0.98341 0.37309 0.29135 0.0
C1529 C 0.03123 0.41237 0.27305 0.0
C1530 C 0.98692 0.3411 0.2931 0.0
C1531 C 0.98761 0.32738 0.31101 0.0
C1532 C 0.98496 0.34558 0.32742 0.0
C1533 C 0.9845 0.37783 0.32557 0.0
C1534 C 0.98307 0.39151 0.3076 0.0
H1535 H 0.04761 0.42442 0.26342 0.0
H1536 H 0.02451 0.42835 0.28464 0.0
H1537 H 0.04325 0.39245 0.27968 0.0
H1538 H 0.98765 0.32662 0.28055 0.0
H1539 H 0.98824 0.30248 0.31192 0.0
H1540 H 0.62114 1.00329 0.34593 0.0
H1541 H 0.5877 0.01651 0.3187 0.0
H1542 H 0.65815 0.98445 0.28024 0.0
H1543 H 0.69142 0.97161 0.30696 0.0
H1544 H 0.59887 0.05445 0.28511 0.0
H1545 H 0.57969 0.93406 0.26504 0.0
H1546 H 0.58745 0.94573 0.28934 0.0
H1547 H 0.61874 0.93814 0.27309 0.0
C1548 C 0.62952 0.99958 0.3316 0.0
C1549 C 0.65863 0.98607 0.32848 0.0
C1550 C 0.61036 1.00684 0.31619 0.0
C1551 C 0.61996 0.99991 0.29769 0.0
C1552 C 0.6499 0.98869 0.29457 0.0
H1553 H 0.69301 0.05005 0.21674 0.0
H1554 H 0.65911 0.03875 0.24337 0.0
C1555 C 0.66911 0.98187 0.30982 0.0
C1556 C 0.60016 1.00529 0.28103 0.0
H1557 H 0.59833 0.96901 0.23833 0.0
C1558 C 0.59672 0.0358 0.27494 0.0
C1559 C 0.5955 0.98104 0.26794 0.0
C1560 C 0.59514 0.94789 0.27431 0.0
C1561 C 0.59663 0.04251 0.25544 0.0
C1562 C 0.60098 0.01813 0.24242 0.0
C1563 C 0.59642 0.98774 0.24846 0.0
C1564 C 0.62108 0.02293 0.22585 0.0
C1565 C 0.59727 0.07566 0.24907 0.0
C1566 C 0.61179 0.01523 0.20739 0.0
C1567 C 0.63132 0.02156 0.19205 0.0
C1568 C 0.66052 0.03489 0.19518 0.0
C1569 C 0.67066 0.0399 0.21386 0.0
C1570 C 0.65107 0.03399 0.22905 0.0
H1571 H 0.58173 0.08982 0.25807 0.0
H1572 H 0.62101 0.08488 0.25073 0.0
H1573 H 0.59026 0.07799 0.23391 0.0
H1574 H 0.58911 1.00563 0.20484 0.0
H1575 H 0.62313 0.01725 0.17772 0.0
H1576 H 0.02054 0.62419 0.34352 0.0
H1577 H 1.00883 0.59026 0.31648 0.0
H1578 H 0.04085 0.66077 0.27788 0.0
H1579 H 0.05258 0.69435 0.30455 0.0
H1580 H 0.97072 0.60105 0.28348 0.0
H1581 H 0.09093 0.58333 0.26198 0.0
H1582 H 0.07996 0.59159 0.28634 0.0
H1583 H 0.08641 0.62248 0.26957 0.0
C1584 C 0.02476 0.63239 0.32922 0.0
C1585 C 0.03783 0.66166 0.32612 0.0
C1586 C 0.01831 0.61297 0.31388 0.0
C1587 C 0.02543 0.62255 0.29537 0.0
C1588 C 0.03646 0.65254 0.29221 0.0
H1589 H 0.97315 0.69231 0.21276 0.0
H1590 H 0.98609 0.66024 0.24002 0.0
C1591 C 0.0426 0.67194 0.30743 0.0
C1592 C 0.01979 0.60291 0.27871 0.0
H1593 H 0.05461 0.60012 0.2355 0.0
C1594 C 0.98908 0.59886 0.27309 0.0
C1595 C 0.0437 0.5984 0.26535 0.0
C1596 C 0.07713 0.5988 0.27124 0.0
C1597 C 0.98167 0.59789 0.2537 0.0
C1598 C 1.00554 0.60187 0.24024 0.0
C1599 C 0.03628 0.59834 0.24595 0.0
C1600 C 0.99968 0.62068 0.22322 0.0
C1601 C 0.94824 0.59791 0.2478 0.0
C1602 C 1.00527 0.60971 0.20485 0.0
C1603 C 0.99799 0.62817 0.18913 0.0
C1604 C 0.98567 0.65791 0.19176 0.0
C1605 C 0.9825 0.66953 0.21025 0.0
C1606 C 0.98942 0.65104 0.22583 0.0
H1607 H 0.93437 0.58327 0.25756 0.0
H1608 H 0.93905 0.62174 0.24865 0.0
H1609 H 0.94542 0.58951 0.23296 0.0
H1610 H 0.0141 0.58664 0.20271 0.0
H1611 H 1.00087 0.6188 0.17496 0.0
H1612 H 0.39896 0.02157 0.34399 0.0
H1613 H 0.42899 1.00852 0.31535 0.0
H1614 H 0.35366 0.03965 0.28007 0.0
H1615 H 0.32371 0.05239 0.30817 0.0
H1616 H 0.4124 0.96966 0.28259 0.0
H1617 H 0.43061 0.09025 0.26155 0.0
H1618 H 0.42478 0.07854 0.28607 0.0
H1619 H 0.39223 0.08561 0.27063 0.0
C1620 C 0.38875 0.02518 0.33007 0.0
C1621 C 0.35917 0.03831 0.32825 0.0
C1622 C 0.406 0.01799 0.31385 0.0
C1623 C 0.39395 0.02448 0.2958 0.0
C1624 C 0.3637 0.03558 0.294 0.0
H1625 H 0.32259 0.974 0.20954 0.0
H1626 H 0.35264 0.98642 0.23772 0.0
C1627 C 0.34642 0.04239 0.31007 0.0
C1628 C 0.41154 0.01881 0.2783 0.0
H1629 H 0.41334 0.05481 0.23533 0.0
C1630 C 0.41447 0.98824 0.2723 0.0
C1631 C 0.41565 0.04302 0.26506 0.0
C1632 C 0.41603 0.07622 0.27126 0.0
C1633 C 0.41465 0.98139 0.25285 0.0
C1634 C 0.41107 1.00571 0.23962 0.0
C1635 C 0.41498 0.03618 0.2456 0.0
C1636 C 0.39334 1.00051 0.22209 0.0
C1637 C 0.41398 0.94818 0.24666 0.0
C1638 C 0.40562 1.00657 0.20406 0.0
C1639 C 0.38835 0.99955 0.18781 0.0
C1640 C 0.3585 0.98703 0.18956 0.0
C1641 C 0.34551 0.98351 0.2077 0.0
C1642 C 0.36283 0.99014 0.22381 0.0
H1643 H 0.42823 0.93372 0.25634 0.0
H1644 H 0.38991 0.93952 0.24733 0.0
H1645 H 0.42252 0.94559 0.23183 0.0
H1646 H 0.42884 0.01547 0.20261 0.0
H1647 H 0.39876 1.00272 0.17392 0.0
H1648 H 0.05613 0.70352 0.70971 0.0
H1649 H 0.04154 0.67243 0.73713 0.0
H1650 H 1.00319 0.60321 0.69999 0.0
H1651 H 0.01763 0.63464 0.67226 0.0
H1652 H 0.96602 0.6188 0.73191 0.0
H1653 H 0.08409 0.59205 0.75505 0.0
H1654 H 0.08221 0.63162 0.74778 0.0
H1655 H 0.07462 0.60167 0.73061 0.0
C1656 C 0.04414 0.68197 0.70734 0.0
C1657 C 0.03823 0.67129 0.68888 0.0
C1658 C 0.03637 0.66394 0.72297 0.0
C1659 C 0.02258 0.63497 0.72043 0.0
C1660 C 0.01465 0.62511 0.70212 0.0
H1661 H 0.98845 0.61914 0.84139 0.0
H1662 H 1.0008 0.5904 0.81215 0.0
C1663 C 0.02267 0.64312 0.68639 0.0
C1664 C 0.0149 0.61675 0.73743 0.0
H1665 H 0.04765 0.60817 0.78109 0.0
C1666 C 0.98376 0.61468 0.74253 0.0
C1667 C 0.03797 0.61005 0.75107 0.0
C1668 C 0.0716 0.60859 0.74573 0.0
C1669 C 0.97548 0.61256 0.76173 0.0
C1670 C 0.99898 0.6132 0.77567 0.0
C1671 C 0.02971 0.60864 0.7703 0.0
C1672 C 0.9934 0.62946 0.79362 0.0
C1673 C 0.9419 0.61454 0.76711 0.0
C1674 C 0.98695 0.66108 0.7927 0.0
C1675 C 0.98027 0.67743 0.80913 0.0
C1676 C 0.97991 0.66239 0.82683 0.0
C1677 C 0.98832 0.6311 0.82786 0.0
C1678 C 0.99514 0.61466 0.81129 0.0
H1679 H 0.92721 0.60305 0.75628 0.0
H1680 H 0.93769 0.60386 0.78127 0.0
H1681 H 0.93493 0.63913 0.76778 0.0
H1682 H 0.98639 0.67298 0.77911 0.0
H1683 H 0.97403 0.7015 0.80781 0.0
H1684 H 0.36162 0.01072 0.67335 0.0
H1685 H 0.39366 0.99909 0.70127 0.0
H1686 H 0.31864 0.02582 0.73803 0.0
H1687 H 0.2869 0.03814 0.71043 0.0
H1688 H 0.3805 0.05872 0.74238 0.0
H1689 H 0.38602 0.93083 0.74484 0.0
H1690 H 0.39298 0.95253 0.72326 0.0
H1691 H 0.3543 0.94773 0.73187 0.0
C1692 C 0.35169 0.0133 0.6874 0.0
C1693 C 0.32187 0.02572 0.6898 0.0
C1694 C 0.37016 1.0069 0.70327 0.0
C1695 C 0.35868 0.01244 0.72155 0.0
C1696 C 0.32803 0.02212 0.72391 0.0
H1697 H 0.28826 0.98059 0.80776 0.0
H1698 H 0.31896 0.99294 0.77975 0.0
C1699 C 0.30981 0.02885 0.70818 0.0
C1700 C 0.37789 0.00955 0.7387 0.0
H1701 H 0.38012 0.95713 0.7745 0.0
C1702 C 0.38223 0.0365 0.74941 0.0
C1703 C 0.38124 0.98059 0.74754 0.0
C1704 C 0.37865 0.95115 0.73633 0.0
C1705 C 0.38242 0.03521 0.76932 0.0
C1706 C 0.37884 1.00634 0.77822 0.0
C1707 C 0.38202 0.97931 0.76745 0.0
C1708 C 0.36037 1.0039 0.79566 0.0
C1709 C 0.38103 0.06468 0.78058 0.0
C1710 C 0.37307 1.00807 0.81379 0.0
C1711 C 0.35521 1.00179 0.82991 0.0
C1712 C 0.32481 0.9907 0.82787 0.0
C1713 C 0.31162 0.98891 0.8097 0.0
C1714 C 0.32922 0.99565 0.79373 0.0
H1715 H 0.38912 0.08471 0.77206 0.0
H1716 H 0.35684 0.06903 0.78502 0.0
H1717 H 0.39535 0.06272 0.79365 0.0
H1718 H 0.397 0.01469 0.81541 0.0
H1719 H 0.36597 1.0033 0.8438 0.0
H1720 H 0.97062 0.40011 0.68946 0.0
H1721 H 0.9848 0.42008 0.72084 0.0
H1722 H 0.03152 0.33467 0.73332 0.0
H1723 H 0.01567 0.31412 0.70252 0.0
H1724 H 0.96007 0.38314 0.75116 0.0
H1725 H 0.08494 0.40144 0.76065 0.0
H1726 H 0.06546 0.40734 0.73809 0.0
H1727 H 0.07749 0.36931 0.74527 0.0
C1728 C 0.98476 0.38613 0.69868 0.0
C1729 C 0.99151 0.35551 0.69386 0.0
C1730 C 0.99312 0.39767 0.71646 0.0
C1731 C 1.00955 0.37905 0.72918 0.0
C1732 C 0.01933 0.34963 0.72348 0.0
H1733 H 0.04347 0.27631 0.81272 0.0
H1734 H 0.03096 0.31017 0.78611 0.0
C1735 C 0.01006 0.33777 0.70599 0.0
C1736 C 1.00966 0.38596 0.74963 0.0
H1737 H 0.05846 0.37325 0.78664 0.0
C1738 C 0.98144 0.3825 0.75921 0.0
C1739 C 0.03747 0.38581 0.76 0.0
C1740 C 0.06805 0.39153 0.75045 0.0
C1741 C 0.9808 0.37301 0.77827 0.0
C1742 C 1.00904 0.36767 0.78767 0.0
C1743 C 0.03686 0.37666 0.77909 0.0
C1744 C 0.01103 0.34595 0.80367 0.0
C1745 C 0.9504 0.36483 0.78739 0.0
C1746 C 1.00192 0.35416 0.82205 0.0
C1747 C 1.00851 0.33454 0.83729 0.0
C1748 C 0.02477 0.30685 0.83422 0.0
C1749 C 0.03121 0.29757 0.81553 0.0
C1750 C 0.02435 0.31701 0.80037 0.0
H1751 H 0.93043 0.37136 0.7783 0.0
H1752 H 0.94947 0.33964 0.79011 0.0
H1753 H 0.94823 0.3767 0.8013 0.0
H1754 H 0.99149 0.37637 0.82475 0.0
H1755 H 1.0032 0.34233 0.85156 0.0
H1756 H 0.63038 0.03319 0.84105 0.0
H1757 H 0.60358 0.02624 0.81054 0.0
H1758 H 0.68935 0.04073 0.78085 0.0
H1759 H 0.71601 0.04835 0.81101 0.0
H1760 H 0.63692 0.08174 0.77061 0.0
H1761 H 0.60808 0.95646 0.76956 0.0
H1762 H 0.59963 0.97983 0.79011 0.0
H1763 H 0.63885 0.9702 0.78466 0.0
C1764 C 0.64354 0.0343 0.828 0.0
C1765 C 0.67511 0.04182 0.82838 0.0
C1766 C 0.6282 0.03042 0.81067 0.0
C1767 C 0.64446 0.03362 0.79361 0.0
C1768 C 0.67641 0.03868 0.79399 0.0
H1769 H 0.70859 1.0074 0.70055 0.0
H1770 H 0.68306 0.03158 0.72745 0.0
C1771 C 0.69167 0.04272 0.81124 0.0
C1772 C 0.62875 0.03326 0.77506 0.0
H1773 H 0.61229 0.98194 0.74007 0.0
C1774 C 0.63023 0.06019 0.764 0.0
C1775 C 0.61913 1.00536 0.76671 0.0
C1776 C 0.61618 0.9762 0.77828 0.0
C1777 C 0.62737 0.05876 0.74419 0.0
C1778 C 0.62304 0.02983 0.73558 0.0
C1779 C 0.616 1.00406 0.74686 0.0
C1780 C 0.63677 0.02354 0.71691 0.0
C1781 C 0.63312 0.08728 0.73247 0.0
C1782 C 0.61908 0.01214 0.70182 0.0
C1783 C 0.63376 0.99882 0.68617 0.0
C1784 C 0.66608 0.99549 0.68598 0.0
C1785 C 0.68365 1.00905 0.70048 0.0
C1786 C 0.66908 0.02315 0.71576 0.0
H1787 H 0.62567 0.10828 0.74024 0.0
H1788 H 0.65822 0.08935 0.72962 0.0
H1789 H 0.62082 0.08608 0.7186 0.0
H1790 H 0.59412 0.01217 0.7026 0.0
H1791 H 0.61975 0.9895 0.67481 0.0
H1792 H 0.09864 0.43582 0.12997 0.0
H1793 H 0.06403 0.47832 0.138 0.0
H1794 H 0.05335 0.44155 0.19464 0.0
H1795 H 0.08855 0.39894 0.18666 0.0
H1796 H 0.99561 0.44998 0.16985 0.0
H1797 H 0.06764 0.55525 0.17555 0.0
H1798 H 0.07682 0.53002 0.15604 0.0
H1799 H 0.08277 0.51709 0.18008 0.0
C1800 C 0.09017 0.43761 0.14444 0.0
C1801 C 0.09695 0.41433 0.15778 0.0
C1802 C 0.07009 0.4618 0.14897 0.0
C1803 C 0.0559 0.4632 0.16691 0.0
C1804 C 0.06412 0.44112 0.18074 0.0
H1805 H 0.92257 0.61445 0.18686 0.0
H1806 H 0.95512 0.56982 0.19509 0.0
C1807 C 0.08467 0.41701 0.17626 0.0
C1808 C 0.03014 0.48559 0.17012 0.0
H1809 H 0.01378 0.56267 0.1701 0.0
C1810 C 0.99962 0.4746 0.17047 0.0
C1811 C 0.03518 0.51777 0.17068 0.0
C1812 C 0.06737 0.53089 0.17071 0.0
C1813 C 0.97416 0.49492 0.17052 0.0
C1814 C 0.97922 0.52711 0.17016 0.0
C1815 C 1.00974 0.53806 0.17063 0.0
C1816 C 0.9536 0.54971 0.16696 0.0
C1817 C 0.94196 0.48188 0.17031 0.0
C1818 C 0.94023 0.55221 0.14882 0.0
C1819 C 0.9213 0.57732 0.1442 0.0
C1820 C 0.91509 0.60056 0.15763 0.0
C1821 C 0.92614 0.59659 0.17633 0.0
C1822 C 0.94532 0.5714 0.18094 0.0
H1823 H 0.94161 0.45728 0.17471 0.0
H1824 H 0.92665 0.49525 0.1799 0.0
H1825 H 0.93244 0.48359 0.15566 0.0
H1826 H 0.9463 0.53596 0.13775 0.0
H1827 H 0.91371 0.58 0.12958 0.0
H1828 H 0.58366 0.10454 0.13169 0.0
H1829 H 0.54025 0.07077 0.13917 0.0
H1830 H 0.5718 0.06355 0.19716 0.0
H1831 H 0.61603 0.09705 0.18959 0.0
H1832 H 0.56761 1.00422 0.17119 0.0
H1833 H 0.46007 0.07338 0.17573 0.0
H1834 H 0.4869 0.08399 0.15727 0.0
H1835 H 0.49752 0.08898 0.18178 0.0
C1836 C 0.58059 0.09701 0.14629 0.0
C1837 C 0.60317 0.10389 0.16008 0.0
C1838 C 0.55586 0.07738 0.1505 0.0
C1839 C 0.55302 0.06406 0.16864 0.0
C1840 C 0.5738 0.07315 0.18298 0.0
H1841 H 0.4054 0.92487 0.1854 0.0
H1842 H 0.44844 0.95885 0.1946 0.0
C1843 C 0.5987 0.09293 0.17876 0.0
C1844 C 0.53109 0.03779 0.17147 0.0
H1845 H 0.45435 0.0195 0.17033 0.0
C1846 C 0.54286 1.00759 0.17162 0.0
C1847 C 0.49874 0.04199 0.17167 0.0
C1848 C 0.48486 0.07381 0.17173 0.0
C1849 C 0.52321 0.98168 0.17119 0.0
C1850 C 0.49087 0.9859 0.17049 0.0
C1851 C 0.47908 0.01608 0.17114 0.0
C1852 C 0.46915 0.95983 0.16661 0.0
C1853 C 0.53713 0.94989 0.17079 0.0
C1854 C 0.46763 0.94737 0.14821 0.0
C1855 C 0.44351 0.92758 0.14306 0.0
C1856 C 0.42026 0.9196 0.15616 0.0
C1857 C 0.4233 0.92983 0.17509 0.0
C1858 C 0.44754 0.94984 0.18025 0.0
H1859 H 0.56163 0.95003 0.17547 0.0
H1860 H 0.52386 0.93394 0.18007 0.0
H1861 H 0.53612 0.94084 0.15603 0.0
H1862 H 0.48389 0.95468 0.1374 0.0
H1863 H 0.44156 0.9206 0.1283 0.0
H1864 H 0.09956 0.61429 0.33277 0.0
H1865 H 0.06435 0.57069 0.32703 0.0
H1866 H 0.07082 0.54501 0.38616 0.0
H1867 H 0.10671 0.58733 0.39176 0.0
H1868 H 0.06168 0.50065 0.33838 0.0
H1869 H 0.97887 0.57848 0.37335 0.0
H1870 H 0.01816 0.58998 0.36874 0.0
H1871 H 1.00915 0.56724 0.38935 0.0
C1872 C 0.09498 0.59821 0.34425 0.0
C1873 C 0.10619 0.60416 0.36271 0.0
C1874 C 0.07425 0.5737 0.34106 0.0
C1875 C 0.06407 0.55525 0.35633 0.0
C1876 C 0.07791 0.55917 0.37422 0.0
H1877 H 0.93066 0.4293 0.39566 0.0
H1878 H 0.96329 0.47326 0.38854 0.0
C1879 C 0.09881 0.58318 0.37733 0.0
C1880 C 0.03676 0.53441 0.35447 0.0
H1881 H 0.9628 0.52503 0.3705 0.0
C1882 C 0.03984 0.5061 0.3451 0.0
C1883 C 1.0083 0.54139 0.36341 0.0
C1884 C 1.00338 0.57108 0.37412 0.0
C1885 C 0.016 0.48388 0.34541 0.0
C1886 C 0.98757 0.4906 0.35463 0.0
C1887 C 0.98418 0.51966 0.36321 0.0
C1888 C 0.96293 0.46669 0.358 0.0
C1889 C 0.02245 0.45272 0.33695 0.0
C1890 C 0.94946 0.44927 0.34319 0.0
C1891 C 0.93028 0.42375 0.34732 0.0
C1892 C 0.92426 0.41533 0.36632 0.0
C1893 C 0.93481 0.43504 0.38085 0.0
C1894 C 0.95388 0.46017 0.37677 0.0
H1895 H 0.04742 0.4491 0.33418 0.0
H1896 H 0.01432 0.4342 0.34661 0.0
H1897 H 0.01015 0.45087 0.32318 0.0
H1898 H 0.955 0.45439 0.3285 0.0
H1899 H 0.92279 0.40899 0.33579 0.0
H1900 H 0.58134 0.91683 0.39025 0.0
H1901 H 0.53909 0.95188 0.38237 0.0
H1902 H 0.57117 0.95704 0.32448 0.0
H1903 H 0.6144 0.92237 0.33246 0.0
H1904 H 0.56806 0.01729 0.35337 0.0
H1905 H 0.46014 0.95085 0.34146 0.0
H1906 H 0.48606 0.9377 0.35989 0.0
H1907 H 0.49774 0.93561 0.33544 0.0
C1908 C 0.57867 0.92427 0.3756 0.0
C1909 C 0.60117 0.91646 0.36197 0.0
C1910 C 0.5546 0.94461 0.37116 0.0
C1911 C 0.55227 0.95768 0.35293 0.0
C1912 C 0.57282 0.94764 0.33872 0.0
H1913 H 0.40685 0.09825 0.33377 0.0
H1914 H 0.44984 0.06367 0.32541 0.0
C1915 C 0.59714 0.92721 0.34319 0.0
C1916 C 0.53121 0.98461 0.34986 0.0
H1917 H 0.45495 1.0045 0.34716 0.0
C1918 C 0.54343 0.0145 0.35141 0.0
C1919 C 0.49897 0.98115 0.34768 0.0
C1920 C 0.48472 0.94965 0.34592 0.0
C1921 C 0.52429 0.0408 0.35142 0.0
C1922 C 0.49188 0.03729 0.35016 0.0
C1923 C 0.47974 1.00744 0.34788 0.0
C1924 C 0.47013 0.0636 0.35355 0.0
C1925 C 0.53885 0.07216 0.35336 0.0
C1926 C 0.46837 0.07681 0.37175 0.0
C1927 C 0.44431 0.097 0.37641 0.0
C1928 C 0.42132 0.10463 0.36302 0.0
C1929 C 0.42459 0.09361 0.34428 0.0
C1930 C 0.44878 0.07322 0.33961 0.0
H1931 H 0.56344 0.0719 0.34891 0.0
H1932 H 0.52624 0.08953 0.3447 0.0
H1933 H 0.53785 0.07941 0.36849 0.0
H1934 H 0.48431 0.06975 0.38282 0.0
H1935 H 0.44212 0.10449 0.39106 0.0
H1936 H 0.09349 0.41772 0.88396 0.0
H1937 H 0.06079 0.46352 0.88039 0.0
H1938 H 0.02932 0.43029 0.8259 0.0
H1939 H 0.06167 0.38436 0.82966 0.0
H1940 H 0.05097 0.51121 0.8559 0.0
H1941 H 0.94919 0.43395 0.85496 0.0
H1942 H 0.9877 0.41975 0.85913 0.0
H1943 H 0.9748 0.42802 0.83527 0.0
C1944 C 0.08082 0.42097 0.87079 0.0
C1945 C 0.08063 0.39764 0.85694 0.0
C1946 C 0.06163 0.44696 0.86889 0.0
C1947 C 0.04167 0.4501 0.85314 0.0
C1948 C 0.04372 0.4282 0.83845 0.0
H1949 H 0.9204 0.61204 0.83436 0.0
H1950 H 0.95217 0.56608 0.82801 0.0
C1951 C 0.06276 0.40219 0.84042 0.0
C1952 C 0.01749 0.47498 0.8528 0.0
H1953 H 0.93925 0.48735 0.85139 0.0
C1954 C 0.02658 0.50588 0.85482 0.0
C1955 C 0.98543 0.46833 0.85158 0.0
C1956 C 0.97362 0.4357 0.85031 0.0
C1957 C 1.0048 0.53002 0.85574 0.0
C1958 C 0.97286 0.52339 0.85426 0.0
C1959 C 0.96369 0.49257 0.85217 0.0
C1960 C 0.94878 0.54787 0.85662 0.0
C1961 C 0.01644 0.56243 0.85848 0.0
C1962 C 0.93472 0.55199 0.87442 0.0
C1963 C 0.9164 0.57797 0.87799 0.0
C1964 C 0.91128 0.6004 0.8638 0.0
C1965 C 0.92307 0.59485 0.84544 0.0
C1966 C 0.94176 0.56885 0.84191 0.0
H1967 H 0.03903 0.56264 0.86597 0.0
H1968 H 0.0199 0.57306 0.84428 0.0
H1969 H 0.99996 0.57683 0.86664 0.0
H1970 H 0.93965 0.53618 0.88599 0.0
H1971 H 0.90831 0.58187 0.89238 0.0
H1972 H 0.58729 0.10914 0.89356 0.0
H1973 H 0.54274 0.07653 0.88655 0.0
H1974 H 0.57473 0.06524 0.82897 0.0
H1975 H 0.61961 0.09823 0.83596 0.0
H1976 H 0.49422 0.074 0.85445 0.0
H1977 H 0.577 0.97746 0.86143 0.0
H1978 H 0.5882 0.017 0.86518 0.0
H1979 H 0.58449 1.00199 0.84139 0.0
C1980 C 0.58402 0.10107 0.8791 0.0
C1981 C 0.60685 0.10667 0.86526 0.0
C1982 C 0.55871 0.08202 0.87518 0.0
C1983 C 0.55571 0.06779 0.85736 0.0
C1984 C 0.57681 0.07562 0.84291 0.0
H1985 H 0.40031 0.947 0.82811 0.0
H1986 H 0.44567 0.98029 0.8251 0.0
C1987 C 0.60213 0.09502 0.8468 0.0
C1988 C 0.53252 0.04256 0.85479 0.0
H1989 H 0.52518 0.96392 0.85388 0.0
C1990 C 0.50101 0.04997 0.8541 0.0
C1991 C 0.54125 0.01106 0.85478 0.0
C1992 C 0.57458 1.00136 0.85593 0.0
C1993 C 0.47813 0.02686 0.85336 0.0
C1994 C 0.4869 0.99535 0.85318 0.0
C1995 C 0.51839 0.98796 0.85388 0.0
C1996 C 0.46347 0.97 0.85319 0.0
C1997 C 0.44465 0.03637 0.8533 0.0
C1998 C 0.45958 0.95115 0.86935 0.0
C1999 C 0.4338 0.93163 0.87094 0.0
C2000 C 0.41158 0.93043 0.85635 0.0
C2001 C 0.41735 0.94686 0.83941 0.0
C2002 C 0.44298 0.96642 0.83784 0.0
H2003 H 0.44161 0.06071 0.85778 0.0
H2004 H 0.4353 0.03399 0.83867 0.0
H2005 H 0.43084 0.02139 0.86289 0.0
H2006 H 0.47511 0.95337 0.88136 0.0
H2007 H 0.42954 0.92013 0.8844 0.0
H2008 H 0.92584 0.43388 0.6264 0.0
H2009 H 0.95811 0.47837 0.63267 0.0
H2010 H 0.94739 0.46394 0.6931 0.0
H2011 H 0.91539 0.41816 0.68668 0.0
H2012 H 0.95756 0.53143 0.64917 0.0
H2013 H 0.03945 0.45704 0.68942 0.0
H2014 H 1.00676 0.44155 0.67678 0.0
H2015 H 1.0015 0.46043 0.69937 0.0
C2016 C 0.92935 0.44074 0.64108 0.0
C2017 C 0.91835 0.42209 0.65603 0.0
C2018 C 0.94819 0.46619 0.64468 0.0
C2019 C 0.95651 0.47406 0.66338 0.0
C2020 C 0.9424 0.45781 0.67849 0.0
H2021 H 0.09655 0.62057 0.68389 0.0
H2022 H 0.05971 0.57897 0.69125 0.0
C2023 C 0.92339 0.43203 0.67483 0.0
C2024 C 0.98134 0.49783 0.66637 0.0
H2025 H 0.05544 0.5075 0.68277 0.0
C2026 C 0.9787 0.52622 0.6568 0.0
C2027 C 1.0094 0.49128 0.6761 0.0
C2028 C 0.01474 0.46084 0.68589 0.0
C2029 C 1.0033 0.54735 0.65604 0.0
C2030 C 0.03151 0.54041 0.66533 0.0
C2031 C 0.03381 0.51288 0.67573 0.0
C2032 C 0.05937 0.56031 0.66272 0.0
C2033 C 0.99924 0.57631 0.64439 0.0
C2034 C 0.07336 0.56201 0.64475 0.0
C2035 C 0.09496 0.58504 0.64071 0.0
C2036 C 0.10307 0.60712 0.65449 0.0
C2037 C 0.09148 0.60351 0.67309 0.0
C2038 C 0.0699 0.5801 0.6772 0.0
H2039 H 0.97469 0.58366 0.64402 0.0
H2040 H 0.01343 0.59554 0.64992 0.0
H2041 H 1.0066 0.57165 0.62954 0.0
H2042 H 0.06591 0.54685 0.6334 0.0
H2043 H 0.10306 0.58745 0.62618 0.0
H2044 H 0.61711 0.92148 0.68476 0.0
H2045 H 0.57208 0.95326 0.69324 0.0
H2046 H 0.5404 0.94946 0.63512 0.0
H2047 H 0.58511 0.91807 0.62664 0.0
H2048 H 0.56311 0.01444 0.66978 0.0
H2049 H 0.46121 0.93678 0.67146 0.0
H2050 H 0.49979 0.92348 0.67692 0.0
H2051 H 0.48875 0.93054 0.65267 0.0
C2052 C 0.59967 0.92603 0.67405 0.0
C2053 C 0.60448 0.91684 0.65507 0.0
C2054 C 0.57417 0.94465 0.67884 0.0
C2055 C 0.55294 0.95402 0.66477 0.0
C2056 C 0.55636 0.94257 0.64623 0.0
H2057 H 0.42794 0.10104 0.63828 0.0
H2058 H 0.47464 0.06989 0.64283 0.0
C2059 C 0.58182 0.92433 0.64143 0.0
C2060 C 0.52922 0.97826 0.6686 0.0
H2061 H 0.45127 0.99047 0.6697 0.0
C2062 C 0.53867 0.00916 0.67009 0.0
C2063 C 0.49732 0.97152 0.66886 0.0
C2064 C 0.48595 0.93879 0.66752 0.0
C2065 C 0.51706 0.03345 0.6712 0.0
C2066 C 0.48509 0.02678 0.67075 0.0
C2067 C 0.47572 0.99575 0.66999 0.0
C2068 C 0.46083 0.05138 0.67016 0.0
C2069 C 0.52856 0.06611 0.67266 0.0
C2070 C 0.43812 0.05274 0.68439 0.0
C2071 C 0.41175 0.07109 0.68196 0.0
C2072 C 0.40724 0.0883 0.66517 0.0
C2073 C 0.43118 0.08902 0.65168 0.0
C2074 C 0.45775 0.07077 0.65417 0.0
H2075 H 0.55297 0.06702 0.67749 0.0
H2076 H 0.5271 0.07724 0.65844 0.0
H2077 H 0.51413 0.07963 0.68268 0.0
H2078 H 0.43983 0.03807 0.69685 0.0
H2079 H 0.39342 0.06946 0.69239 0.0
loop_
_geom_bond_atom_site_label_1
_geom_bond_atom_site_label_2
_geom_bond_distance
_geom_bond_site_symmetry_2
_ccdc_geom_bond_type
Fe0 O2 1.918 . S
Fe0 O5 1.997 . S
Fe0 O6 2.002 . S
Fe0 O11 1.976 . S
Fe0 O14 1.996 . S
Fe1 O2 1.918 . S
Fe1 O9 1.997 . S
Fe1 O12 1.996 . S
Fe1 O16 1.976 . S
Fe1 O19 2.002 . S
O2 Fe0 1.918 . S
O2 Fe1 1.918 . S
O2 Fe3 1.918 . S
Fe3 O2 1.918 . S
Fe3 O4 2.002 . S
Fe3 O13 1.976 . S
Fe3 O17 1.996 . S
Fe3 O20 1.997 . S
O4 Fe3 2.002 . S
O4 C21 1.295 . S
O5 Fe0 1.997 . S
O5 C21 1.235 . S
O6 Fe0 2.002 . S
O6 C7 1.295 . S
C7 O6 1.295 . S
C7 O9 1.235 . S
C8 O13 1.287 . S
C8 O14 1.255 . S
O9 Fe1 1.997 . S
O9 C7 1.235 . S
C10 O16 1.287 . S
C10 O17 1.255 . S
O11 Fe0 1.976 . S
O11 C18 1.287 . S
O12 Fe1 1.996 . S
O12 C18 1.255 . S
O13 Fe3 1.976 . S
O13 C8 1.287 . S
O14 Fe0 1.996 . S
O14 C8 1.255 . S
C15 O19 1.295 . S
C15 O20 1.235 . S
O16 Fe1 1.976 . S
O16 C10 1.287 . S
O17 Fe3 1.996 . S
O17 C10 1.255 . S
C18 O11 1.287 . S
C18 O12 1.255 . S
O19 Fe1 2.002 . S
O19 C15 1.295 . S
O20 Fe3 1.997 . S
O20 C15 1.235 . S
C21 O4 1.295 . S
C21 O5 1.235 . S
Fe22 O24 1.918 . S
Fe22 O27 1.997 . S
Fe22 O28 2.002 . S
Fe22 O33 1.976 . S
Fe22 O36 1.996 . S
Fe23 O24 1.918 . S
Fe23 O31 1.997 . S
Fe23 O34 1.996 . S
Fe23 O38 1.976 . S
Fe23 O41 2.002 . S
O24 Fe22 1.918 . S
O24 Fe23 1.918 . S
O24 Fe25 1.918 . S
Fe25 O24 1.918 . S
Fe25 O26 2.002 . S
Fe25 O35 1.976 . S
Fe25 O39 1.996 . S
Fe25 O42 1.997 . S
O26 Fe25 2.002 . S
O26 C43 1.295 . S
O27 Fe22 1.997 . S
O27 C43 1.235 . S
O28 Fe22 2.002 . S
O28 C29 1.295 . S
C29 O28 1.295 . S
C29 O31 1.235 . S
C30 O35 1.287 . S
C30 O36 1.255 . S
O31 Fe23 1.997 . S
O31 C29 1.235 . S
C32 O38 1.287 . S
C32 O39 1.255 . S
O33 Fe22 1.976 . S
O33 C40 1.287 . S
O34 Fe23 1.996 . S
O34 C40 1.255 . S
O35 Fe25 1.976 . S
O35 C30 1.287 . S
O36 Fe22 1.996 . S
O36 C30 1.255 . S
C37 O41 1.295 . S
C37 O42 1.235 . S
O38 Fe23 1.976 . S
O38 C32 1.287 . S
O39 Fe25 1.996 . S
O39 C32 1.255 . S
C40 O33 1.287 . S
C40 O34 1.255 . S
O41 Fe23 2.002 . S
O41 C37 1.295 . S
O42 Fe25 1.997 . S
O42 C37 1.235 . S
C43 O26 1.295 . S
C43 O27 1.235 . S
Fe44 O46 1.918 . S
Fe44 O49 1.997 . S
Fe44 O50 2.002 . S
Fe44 O55 1.976 . S
Fe44 O58 1.996 . S
Fe45 O46 1.918 . S
Fe45 O53 1.997 . S
Fe45 O56 1.996 . S
Fe45 O60 1.976 . S
Fe45 O63 2.002 . S
O46 Fe44 1.918 . S
O46 Fe45 1.918 . S
O46 Fe47 1.918 . S
Fe47 O46 1.918 . S
Fe47 O48 2.002 . S
Fe47 O57 1.976 . S
Fe47 O61 1.996 . S
Fe47 O64 1.997 . S
O48 Fe47 2.002 . S
O48 C65 1.295 . S
O49 Fe44 1.997 . S
O49 C65 1.235 . S
O50 Fe44 2.002 . S
O50 C51 1.295 . S
C51 O50 1.295 . S
C51 O53 1.235 . S
C52 O57 1.287 . S
C52 O58 1.255 . S
O53 Fe45 1.997 . S
O53 C51 1.235 . S
C54 O60 1.287 . S
C54 O61 1.255 . S
O55 Fe44 1.976 . S
O55 C62 1.287 . S
O56 Fe45 1.996 . S
O56 C62 1.255 . S
O57 Fe47 1.976 . S
O57 C52 1.287 . S
O58 Fe44 1.996 . S
O58 C52 1.255 . S
C59 O63 1.295 . S
C59 O64 1.235 . S
O60 Fe45 1.976 . S
O60 C54 1.287 . S
O61 Fe47 1.996 . S
O61 C54 1.255 . S
C62 O55 1.287 . S
C62 O56 1.255 . S
O63 Fe45 2.002 . S
O63 C59 1.295 . S
O64 Fe47 1.997 . S
O64 C59 1.235 . S
C65 O48 1.295 . S
C65 O49 1.235 . S
Fe66 O68 1.918 . S
Fe66 O71 1.997 . S
Fe66 O72 2.002 . S
Fe66 O77 1.976 . S
Fe66 O80 1.996 . S
Fe67 O68 1.918 . S
Fe67 O75 1.997 . S
Fe67 O78 1.996 . S
Fe67 O82 1.976 . S
Fe67 O85 2.002 . S
O68 Fe66 1.918 . S
O68 Fe67 1.918 . S
O68 Fe69 1.918 . S
Fe69 O68 1.918 . S
Fe69 O70 2.002 . S
Fe69 O79 1.976 . S
Fe69 O83 1.996 . S
Fe69 O86 1.997 . S
O70 Fe69 2.002 . S
O70 C87 1.295 . S
O71 Fe66 1.997 . S
O71 C87 1.235 . S
O72 Fe66 2.002 . S
O72 C73 1.295 . S
C73 O72 1.295 . S
C73 O75 1.235 . S
C74 O79 1.287 . S
C74 O80 1.255 . S
O75 Fe67 1.997 . S
O75 C73 1.235 . S
C76 O82 1.287 . S
C76 O83 1.255 . S
O77 Fe66 1.976 . S
O77 C84 1.287 . S
O78 Fe67 1.996 . S
O78 C84 1.255 . S
O79 Fe69 1.976 . S
O79 C74 1.287 . S
O80 Fe66 1.996 . S
O80 C74 1.255 . S
C81 O85 1.295 . S
C81 O86 1.235 . S
O82 Fe67 1.976 . S
O82 C76 1.287 . S
O83 Fe69 1.996 . S
O83 C76 1.255 . S
C84 O77 1.287 . S
C84 O78 1.255 . S
O85 Fe67 2.002 . S
O85 C81 1.295 . S
O86 Fe69 1.997 . S
O86 C81 1.235 . S
C87 O70 1.295 . S
C87 O71 1.235 . S
Fe88 O90 1.918 . S
Fe88 O93 1.997 . S
Fe88 O94 2.002 . S
Fe88 O99 1.976 . S
Fe88 O102 1.996 . S
Fe89 O90 1.918 . S
Fe89 O97 1.997 . S
Fe89 O100 1.996 . S
Fe89 O104 1.976 . S
Fe89 O107 2.002 . S
O90 Fe88 1.918 . S
O90 Fe89 1.918 . S
O90 Fe91 1.918 . S
Fe91 O90 1.918 . S
Fe91 O92 2.002 . S
Fe91 O101 1.976 . S
Fe91 O105 1.996 . S
Fe91 O108 1.997 . S
O92 Fe91 2.002 . S
O92 C109 1.295 . S
O93 Fe88 1.997 . S
O93 C109 1.235 . S
O94 Fe88 2.002 . S
O94 C95 1.295 . S
C95 O94 1.295 . S
C95 O97 1.235 . S
C96 O101 1.287 . S
C96 O102 1.255 . S
O97 Fe89 1.997 . S
O97 C95 1.235 . S
C98 O104 1.287 . S
C98 O105 1.255 . S
O99 Fe88 1.976 . S
O99 C106 1.287 . S
O100 Fe89 1.996 . S
O100 C106 1.255 . S
O101 Fe91 1.976 . S
O101 C96 1.287 . S
O102 Fe88 1.996 . S
O102 C96 1.255 . S
C103 O107 1.295 . S
C103 O108 1.235 . S
O104 Fe89 1.976 . S
O104 C98 1.287 . S
O105 Fe91 1.996 . S
O105 C98 1.255 . S
C106 O99 1.287 . S
C106 O100 1.255 . S
O107 Fe89 2.002 . S
O107 C103 1.295 . S
O108 Fe91 1.997 . S
O108 C103 1.235 . S
C109 O92 1.295 . S
C109 O93 1.235 . S
Fe110 O112 1.918 . S
Fe110 O115 1.997 . S
Fe110 O116 2.002 . S
Fe110 O121 1.976 . S
Fe110 O124 1.996 . S
Fe111 O112 1.918 . S
Fe111 O119 1.997 . S
Fe111 O122 1.996 . S
Fe111 O126 1.976 . S
Fe111 O129 2.002 . S
O112 Fe110 1.918 . S
O112 Fe111 1.918 . S
O112 Fe113 1.918 . S
Fe113 O112 1.918 . S
Fe113 O114 2.002 . S
Fe113 O123 1.976 . S
Fe113 O127 1.996 . S
Fe113 O130 1.997 . S
O114 Fe113 2.002 . S
O114 C131 1.295 . S
O115 Fe110 1.997 . S
O115 C131 1.235 . S
O116 Fe110 2.002 . S
O116 C117 1.295 . S
C117 O116 1.295 . S
C117 O119 1.235 . S
C118 O123 1.287 . S
C118 O124 1.255 . S
O119 Fe111 1.997 . S
O119 C117 1.235 . S
C120 O126 1.287 . S
C120 O127 1.255 . S
O121 Fe110 1.976 . S
O121 C128 1.287 . S
O122 Fe111 1.996 . S
O122 C128 1.255 . S
O123 Fe113 1.976 . S
O123 C118 1.287 . S
O124 Fe110 1.996 . S
O124 C118 1.255 . S
C125 O129 1.295 . S
C125 O130 1.235 . S
O126 Fe111 1.976 . S
O126 C120 1.287 . S
O127 Fe113 1.996 . S
O127 C120 1.255 . S
C128 O121 1.287 . S
C128 O122 1.255 . S
O129 Fe111 2.002 . S
O129 C125 1.295 . S
O130 Fe113 1.997 . S
O130 C125 1.235 . S
C131 O114 1.295 . S
C131 O115 1.235 . S
Fe132 O134 1.918 . S
Fe132 O137 1.997 . S
Fe132 O138 2.002 . S
Fe132 O143 1.976 . S
Fe132 O146 1.996 . S
Fe133 O134 1.918 . S
Fe133 O141 1.997 . S
Fe133 O144 1.996 . S
Fe133 O148 1.976 . S
Fe133 O151 2.002 . S
O134 Fe132 1.918 . S
O134 Fe133 1.918 . S
O134 Fe135 1.918 . S
Fe135 O134 1.918 . S
Fe135 O136 2.002 . S
Fe135 O145 1.976 . S
Fe135 O149 1.996 . S
Fe135 O152 1.997 . S
O136 Fe135 2.002 . S
O136 C153 1.295 . S
O137 Fe132 1.997 . S
O137 C153 1.235 . S
O138 Fe132 2.002 . S
O138 C139 1.295 . S
C139 O138 1.295 . S
C139 O141 1.235 . S
C140 O145 1.287 . S
C140 O146 1.255 . S
O141 Fe133 1.997 . S
O141 C139 1.235 . S
C142 O148 1.287 . S
C142 O149 1.255 . S
O143 Fe132 1.976 . S
O143 C150 1.287 . S
O144 Fe133 1.996 . S
O144 C150 1.255 . S
O145 Fe135 1.976 . S
O145 C140 1.287 . S
O146 Fe132 1.996 . S
O146 C140 1.255 . S
C147 O151 1.295 . S
C147 O152 1.235 . S
O148 Fe133 1.976 . S
O148 C142 1.287 . S
O149 Fe135 1.996 . S
O149 C142 1.255 . S
C150 O143 1.287 . S
C150 O144 1.255 . S
O151 Fe133 2.002 . S
O151 C147 1.295 . S
O152 Fe135 1.997 . S
O152 C147 1.235 . S
C153 O136 1.295 . S
C153 O137 1.235 . S
Fe154 O156 1.918 . S
Fe154 O159 1.997 . S
Fe154 O160 2.002 . S
Fe154 O165 1.976 . S
Fe154 O168 1.996 . S
Fe155 O156 1.918 . S
Fe155 O163 1.997 . S
Fe155 O166 1.996 . S
Fe155 O170 1.976 . S
Fe155 O173 2.002 . S
O156 Fe154 1.918 . S
O156 Fe155 1.918 . S
O156 Fe157 1.918 . S
Fe157 O156 1.918 . S
Fe157 O158 2.002 . S
Fe157 O167 1.976 . S
Fe157 O171 1.996 . S
Fe157 O174 1.997 . S
O158 Fe157 2.002 . S
O158 C175 1.295 . S
O159 Fe154 1.997 . S
O159 C175 1.235 . S
O160 Fe154 2.002 . S
O160 C161 1.295 . S
C161 O160 1.295 . S
C161 O163 1.235 . S
C162 O167 1.287 . S
C162 O168 1.255 . S
O163 Fe155 1.997 . S
O163 C161 1.235 . S
C164 O170 1.287 . S
C164 O171 1.255 . S
O165 Fe154 1.976 . S
O165 C172 1.287 . S
O166 Fe155 1.996 . S
O166 C172 1.255 . S
O167 Fe157 1.976 . S
O167 C162 1.287 . S
O168 Fe154 1.996 . S
O168 C162 1.255 . S
C169 O173 1.295 . S
C169 O174 1.235 . S
O170 Fe155 1.976 . S
O170 C164 1.287 . S
O171 Fe157 1.996 . S
O171 C164 1.255 . S
C172 O165 1.287 . S
C172 O166 1.255 . S
O173 Fe155 2.002 . S
O173 C169 1.295 . S
O174 Fe157 1.997 . S
O174 C169 1.235 . S
C175 O158 1.295 . S
C175 O159 1.235 . S
Fe176 O178 1.918 . S
Fe176 O181 1.997 . S
Fe176 O182 2.002 . S
Fe176 O187 1.976 . S
Fe176 O190 1.996 . S
Fe177 O178 1.918 . S
Fe177 O185 1.997 . S
Fe177 O188 1.996 . S
Fe177 O192 1.976 . S
Fe177 O195 2.002 . S
O178 Fe176 1.918 . S
O178 Fe177 1.918 . S
O178 Fe179 1.918 . S
Fe179 O178 1.918 . S
Fe179 O180 2.002 . S
Fe179 O189 1.976 . S
Fe179 O193 1.996 . S
Fe179 O196 1.997 . S
O180 Fe179 2.002 . S
O180 C197 1.295 . S
O181 Fe176 1.997 . S
O181 C197 1.235 . S
O182 Fe176 2.002 . S
O182 C183 1.295 . S
C183 O182 1.295 . S
C183 O185 1.235 . S
C184 O189 1.287 . S
C184 O190 1.255 . S
O185 Fe177 1.997 . S
O185 C183 1.235 . S
C186 O192 1.287 . S
C186 O193 1.255 . S
O187 Fe176 1.976 . S
O187 C194 1.287 . S
O188 Fe177 1.996 . S
O188 C194 1.255 . S
O189 Fe179 1.976 . S
O189 C184 1.287 . S
O190 Fe176 1.996 . S
O190 C184 1.255 . S
C191 O195 1.295 . S
C191 O196 1.235 . S
O192 Fe177 1.976 . S
O192 C186 1.287 . S
O193 Fe179 1.996 . S
O193 C186 1.255 . S
C194 O187 1.287 . S
C194 O188 1.255 . S
O195 Fe177 2.002 . S
O195 C191 1.295 . S
O196 Fe179 1.997 . S
O196 C191 1.235 . S
C197 O180 1.295 . S
C197 O181 1.235 . S
Fe198 O200 1.918 . S
Fe198 O203 1.997 . S
Fe198 O204 2.002 . S
Fe198 O209 1.976 . S
Fe198 O212 1.996 . S
Fe199 O200 1.918 . S
Fe199 O207 1.997 . S
Fe199 O210 1.996 . S
Fe199 O214 1.976 . S
Fe199 O217 2.002 . S
O200 Fe198 1.918 . S
O200 Fe199 1.918 . S
O200 Fe201 1.918 . S
Fe201 O200 1.918 . S
Fe201 O202 2.002 . S
Fe201 O211 1.976 . S
Fe201 O215 1.996 . S
Fe201 O218 1.997 . S
O202 Fe201 2.002 . S
O202 C219 1.295 . S
O203 Fe198 1.997 . S
O203 C219 1.235 . S
O204 Fe198 2.002 . S
O204 C205 1.295 . S
C205 O204 1.295 . S
C205 O207 1.235 . S
C206 O211 1.287 . S
C206 O212 1.255 . S
O207 Fe199 1.997 . S
O207 C205 1.235 . S
C208 O214 1.287 . S
C208 O215 1.255 . S
O209 Fe198 1.976 . S
O209 C216 1.287 . S
O210 Fe199 1.996 . S
O210 C216 1.255 . S
O211 Fe201 1.976 . S
O211 C206 1.287 . S
O212 Fe198 1.996 . S
O212 C206 1.255 . S
C213 O217 1.295 . S
C213 O218 1.235 . S
O214 Fe199 1.976 . S
O214 C208 1.287 . S
O215 Fe201 1.996 . S
O215 C208 1.255 . S
C216 O209 1.287 . S
C216 O210 1.255 . S
O217 Fe199 2.002 . S
O217 C213 1.295 . S
O218 Fe201 1.997 . S
O218 C213 1.235 . S
C219 O202 1.295 . S
C219 O203 1.235 . S
Fe220 O222 1.918 . S
Fe220 O225 1.997 . S
Fe220 O226 2.002 . S
Fe220 O231 1.976 . S
Fe220 O234 1.996 . S
Fe221 O222 1.918 . S
Fe221 O229 1.997 . S
Fe221 O232 1.996 . S
Fe221 O236 1.976 . S
Fe221 O239 2.002 . S
O222 Fe220 1.918 . S
O222 Fe221 1.918 . S
O222 Fe223 1.918 . S
Fe223 O222 1.918 . S
Fe223 O224 2.002 . S
Fe223 O233 1.976 . S
Fe223 O237 1.996 . S
Fe223 O240 1.997 . S
O224 Fe223 2.002 . S
O224 C241 1.295 . S
O225 Fe220 1.997 . S
O225 C241 1.235 . S
O226 Fe220 2.002 . S
O226 C227 1.295 . S
C227 O226 1.295 . S
C227 O229 1.235 . S
C228 O233 1.287 . S
C228 O234 1.255 . S
O229 Fe221 1.997 . S
O229 C227 1.235 . S
C230 O236 1.287 . S
C230 O237 1.255 . S
O231 Fe220 1.976 . S
O231 C238 1.287 . S
O232 Fe221 1.996 . S
O232 C238 1.255 . S
O233 Fe223 1.976 . S
O233 C228 1.287 . S
O234 Fe220 1.996 . S
O234 C228 1.255 . S
C235 O239 1.295 . S
C235 O240 1.235 . S
O236 Fe221 1.976 . S
O236 C230 1.287 . S
O237 Fe223 1.996 . S
O237 C230 1.255 . S
C238 O231 1.287 . S
C238 O232 1.255 . S
O239 Fe221 2.002 . S
O239 C235 1.295 . S
O240 Fe223 1.997 . S
O240 C235 1.235 . S
C241 O224 1.295 . S
C241 O225 1.235 . S
Fe242 O244 1.918 . S
Fe242 O247 1.997 . S
Fe242 O248 2.002 . S
Fe242 O253 1.976 . S
Fe242 O256 1.996 . S
Fe243 O244 1.918 . S
Fe243 O251 1.997 . S
Fe243 O254 1.996 . S
Fe243 O258 1.976 . S
Fe243 O261 2.002 . S
O244 Fe242 1.918 . S
O244 Fe243 1.918 . S
O244 Fe245 1.918 . S
Fe245 O244 1.918 . S
Fe245 O246 2.002 . S
Fe245 O255 1.976 . S
Fe245 O259 1.996 . S
Fe245 O262 1.997 . S
O246 Fe245 2.002 . S
O246 C263 1.295 . S
O247 Fe242 1.997 . S
O247 C263 1.235 . S
O248 Fe242 2.002 . S
O248 C249 1.295 . S
C249 O248 1.295 . S
C249 O251 1.235 . S
C250 O255 1.287 . S
C250 O256 1.255 . S
O251 Fe243 1.997 . S
O251 C249 1.235 . S
C252 O258 1.287 . S
C252 O259 1.255 . S
O253 Fe242 1.976 . S
O253 C260 1.287 . S
O254 Fe243 1.996 . S
O254 C260 1.255 . S
O255 Fe245 1.976 . S
O255 C250 1.287 . S
O256 Fe242 1.996 . S
O256 C250 1.255 . S
C257 O261 1.295 . S
C257 O262 1.235 . S
O258 Fe243 1.976 . S
O258 C252 1.287 . S
O259 Fe245 1.996 . S
O259 C252 1.255 . S
C260 O253 1.287 . S
C260 O254 1.255 . S
O261 Fe243 2.002 . S
O261 C257 1.295 . S
O262 Fe245 1.997 . S
O262 C257 1.235 . S
C263 O246 1.295 . S
C263 O247 1.235 . S
Fe264 O266 1.918 . S
Fe264 O269 1.997 . S
Fe264 O270 2.002 . S
Fe264 O275 1.976 . S
Fe264 O278 1.996 . S
Fe265 O266 1.918 . S
Fe265 O273 1.997 . S
Fe265 O276 1.996 . S
Fe265 O280 1.976 . S
Fe265 O283 2.002 . S
O266 Fe264 1.918 . S
O266 Fe265 1.918 . S
O266 Fe267 1.918 . S
Fe267 O266 1.918 . S
Fe267 O268 2.002 . S
Fe267 O277 1.976 . S
Fe267 O281 1.996 . S
Fe267 O284 1.997 . S
O268 Fe267 2.002 . S
O268 C285 1.295 . S
O269 Fe264 1.997 . S
O269 C285 1.235 . S
O270 Fe264 2.002 . S
O270 C271 1.295 . S
C271 O270 1.295 . S
C271 O273 1.235 . S
C272 O277 1.287 . S
C272 O278 1.255 . S
O273 Fe265 1.997 . S
O273 C271 1.235 . S
C274 O280 1.287 . S
C274 O281 1.255 . S
O275 Fe264 1.976 . S
O275 C282 1.287 . S
O276 Fe265 1.996 . S
O276 C282 1.255 . S
O277 Fe267 1.976 . S
O277 C272 1.287 . S
O278 Fe264 1.996 . S
O278 C272 1.255 . S
C279 O283 1.295 . S
C279 O284 1.235 . S
O280 Fe265 1.976 . S
O280 C274 1.287 . S
O281 Fe267 1.996 . S
O281 C274 1.255 . S
C282 O275 1.287 . S
C282 O276 1.255 . S
O283 Fe265 2.002 . S
O283 C279 1.295 . S
O284 Fe267 1.997 . S
O284 C279 1.235 . S
C285 O268 1.295 . S
C285 O269 1.235 . S
Fe286 O288 1.918 . S
Fe286 O291 1.997 . S
Fe286 O292 2.002 . S
Fe286 O297 1.976 . S
Fe286 O300 1.996 . S
Fe287 O288 1.918 . S
Fe287 O295 1.997 . S
Fe287 O298 1.996 . S
Fe287 O302 1.976 . S
Fe287 O305 2.002 . S
O288 Fe286 1.918 . S
O288 Fe287 1.918 . S
O288 Fe289 1.918 . S
Fe289 O288 1.918 . S
Fe289 O290 2.002 . S
Fe289 O299 1.976 . S
Fe289 O303 1.996 . S
Fe289 O306 1.997 . S
O290 Fe289 2.002 . S
O290 C307 1.295 . S
O291 Fe286 1.997 . S
O291 C307 1.235 . S
O292 Fe286 2.002 . S
O292 C293 1.295 . S
C293 O292 1.295 . S
C293 O295 1.235 . S
C294 O299 1.287 . S
C294 O300 1.255 . S
O295 Fe287 1.997 . S
O295 C293 1.235 . S
C296 O302 1.287 . S
C296 O303 1.255 . S
O297 Fe286 1.976 . S
O297 C304 1.287 . S
O298 Fe287 1.996 . S
O298 C304 1.255 . S
O299 Fe289 1.976 . S
O299 C294 1.287 . S
O300 Fe286 1.996 . S
O300 C294 1.255 . S
C301 O305 1.295 . S
C301 O306 1.235 . S
O302 Fe287 1.976 . S
O302 C296 1.287 . S
O303 Fe289 1.996 . S
O303 C296 1.255 . S
C304 O297 1.287 . S
C304 O298 1.255 . S
O305 Fe287 2.002 . S
O305 C301 1.295 . S
O306 Fe289 1.997 . S
O306 C301 1.235 . S
C307 O290 1.295 . S
C307 O291 1.235 . S
Fe308 O310 1.918 . S
Fe308 O313 1.997 . S
Fe308 O314 2.002 . S
Fe308 O319 1.976 . S
Fe308 O322 1.996 . S
Fe309 O310 1.918 . S
Fe309 O317 1.997 . S
Fe309 O320 1.996 . S
Fe309 O324 1.976 . S
Fe309 O327 2.002 . S
O310 Fe308 1.918 . S
O310 Fe309 1.918 . S
O310 Fe311 1.918 . S
Fe311 O310 1.918 . S
Fe311 O312 2.002 . S
Fe311 O321 1.976 . S
Fe311 O325 1.996 . S
Fe311 O328 1.997 . S
O312 Fe311 2.002 . S
O312 C329 1.295 . S
O313 Fe308 1.997 . S
O313 C329 1.235 . S
O314 Fe308 2.002 . S
O314 C315 1.295 . S
C315 O314 1.295 . S
C315 O317 1.235 . S
C316 O321 1.287 . S
C316 O322 1.255 . S
O317 Fe309 1.997 . S
O317 C315 1.235 . S
C318 O324 1.287 . S
C318 O325 1.255 . S
O319 Fe308 1.976 . S
O319 C326 1.287 . S
O320 Fe309 1.996 . S
O320 C326 1.255 . S
O321 Fe311 1.976 . S
O321 C316 1.287 . S
O322 Fe308 1.996 . S
O322 C316 1.255 . S
C323 O327 1.295 . S
C323 O328 1.235 . S
O324 Fe309 1.976 . S
O324 C318 1.287 . S
O325 Fe311 1.996 . S
O325 C318 1.255 . S
C326 O319 1.287 . S
C326 O320 1.255 . S
O327 Fe309 2.002 . S
O327 C323 1.295 . S
O328 Fe311 1.997 . S
O328 C323 1.235 . S
C329 O312 1.295 . S
C329 O313 1.235 . S
Fe330 O332 1.918 . S
Fe330 O335 1.997 . S
Fe330 O336 2.002 . S
Fe330 O341 1.976 . S
Fe330 O344 1.996 . S
Fe331 O332 1.918 . S
Fe331 O339 1.997 . S
Fe331 O342 1.996 . S
Fe331 O346 1.976 . S
Fe331 O349 2.002 . S
O332 Fe330 1.918 . S
O332 Fe331 1.918 . S
O332 Fe333 1.918 . S
Fe333 O332 1.918 . S
Fe333 O334 2.002 . S
Fe333 O343 1.976 . S
Fe333 O347 1.996 . S
Fe333 O350 1.997 . S
O334 Fe333 2.002 . S
O334 C351 1.295 . S
O335 Fe330 1.997 . S
O335 C351 1.235 . S
O336 Fe330 2.002 . S
O336 C337 1.295 . S
C337 O336 1.295 . S
C337 O339 1.235 . S
C338 O343 1.287 . S
C338 O344 1.255 . S
O339 Fe331 1.997 . S
O339 C337 1.235 . S
C340 O346 1.287 . S
C340 O347 1.255 . S
O341 Fe330 1.976 . S
O341 C348 1.287 . S
O342 Fe331 1.996 . S
O342 C348 1.255 . S
O343 Fe333 1.976 . S
O343 C338 1.287 . S
O344 Fe330 1.996 . S
O344 C338 1.255 . S
C345 O349 1.295 . S
C345 O350 1.235 . S
O346 Fe331 1.976 . S
O346 C340 1.287 . S
O347 Fe333 1.996 . S
O347 C340 1.255 . S
C348 O341 1.287 . S
C348 O342 1.255 . S
O349 Fe331 2.002 . S
O349 C345 1.295 . S
O350 Fe333 1.997 . S
O350 C345 1.235 . S
C351 O334 1.295 . S
C351 O335 1.235 . S
H352 C360 0.929 . S
H353 C362 0.930 . S
H354 C364 0.930 . S
H355 C367 0.929 . S
H356 C370 0.930 . S
H357 C372 0.960 . S
H358 C372 0.960 . S
H359 C372 0.960 . S
C360 H352 0.929 . S
C360 C361 1.377 . S
C360 C362 1.384 . S
C361 C360 1.377 . S
C361 C367 1.390 . S
C362 H353 0.930 . S
C362 C360 1.384 . S
C362 C363 1.372 . S
C363 C362 1.372 . S
C363 C364 1.400 . S
C363 C368 1.490 . S
C364 H354 0.930 . S
C364 C363 1.400 . S
C364 C367 1.386 . S
H365 C381 0.930 . S
H366 C382 0.931 . S
C367 H355 0.929 . S
C367 C361 1.390 . S
C367 C364 1.386 . S
C368 C363 1.490 . S
C368 C370 1.395 . S
C368 C371 1.403 . S
H369 C375 0.930 . S
C370 H356 0.930 . S
C370 C368 1.395 . S
C370 C373 1.403 . S
C371 C368 1.403 . S
C371 C372 1.524 . S
C371 C375 1.400 . S
C372 H357 0.960 . S
C372 H358 0.960 . S
C372 H359 0.960 . S
C372 C371 1.524 . S
C373 C370 1.403 . S
C373 C374 1.392 . S
C373 C377 1.495 . S
C374 C373 1.392 . S
C374 C375 1.385 . S
C374 C376 1.478 . S
C375 H369 0.930 . S
C375 C371 1.400 . S
C375 C374 1.385 . S
C376 C374 1.478 . S
C376 C378 1.381 . S
C376 C382 1.383 . S
C377 C373 1.495 . S
C377 H383 0.959 . S
C377 H384 0.961 . S
C377 H385 0.960 . S
C378 C376 1.381 . S
C378 C379 1.394 . S
C378 H386 0.930 . S
C379 C378 1.394 . S
C379 C380 1.383 1_545 S
C379 H387 0.929 1_545 S
C380 C379 1.383 1_565 S
C380 C381 1.377 . S
C381 H365 0.930 . S
C381 C380 1.377 . S
C381 C382 1.378 1_565 S
C382 H366 0.931 . S
C382 C376 1.383 . S
C382 C381 1.378 1_545 S
H383 C377 0.959 . S
H384 C377 0.961 . S
H385 C377 0.960 . S
H386 C378 0.930 . S
H387 C379 0.929 1_565 S
H388 C396 0.929 . S
H389 C398 0.930 . S
H390 C400 0.930 . S
H391 C403 0.929 . S
H392 C406 0.930 . S
H393 C408 0.960 . S
H394 C408 0.960 . S
H395 C408 0.960 . S
C396 H388 0.929 . S
C396 C397 1.377 1_655 S
C396 C398 1.384 . S
C397 C396 1.377 1_455 S
C397 C403 1.390 . S
C398 H389 0.930 . S
C398 C396 1.384 . S
C398 C399 1.372 . S
C399 C398 1.372 . S
C399 C400 1.400 . S
C399 C404 1.490 . S
C400 H390 0.930 . S
C400 C399 1.400 . S
C400 C403 1.386 1_655 S
H401 C417 0.930 . S
H402 C418 0.931 . S
C403 H391 0.929 . S
C403 C397 1.390 . S
C403 C400 1.386 1_455 S
C404 C399 1.490 . S
C404 C406 1.395 . S
C404 C407 1.403 . S
H405 C411 0.930 . S
C406 H392 0.930 . S
C406 C404 1.395 . S
C406 C409 1.403 . S
C407 C404 1.403 . S
C407 C408 1.524 . S
C407 C411 1.400 . S
C408 H393 0.960 . S
C408 H394 0.960 . S
C408 H395 0.960 . S
C408 C407 1.524 . S
C409 C406 1.403 . S
C409 C410 1.392 . S
C409 C413 1.495 . S
C410 C409 1.392 . S
C410 C411 1.385 . S
C410 C412 1.478 . S
C411 H405 0.930 . S
C411 C407 1.400 . S
C411 C410 1.385 . S
C412 C410 1.478 . S
C412 C414 1.381 . S
C412 C418 1.383 . S
C413 C409 1.495 . S
C413 H419 0.959 . S
C413 H420 0.961 . S
C413 H421 0.960 . S
C414 C412 1.381 . S
C414 C415 1.394 . S
C414 H422 0.930 . S
C415 C414 1.394 . S
C415 C416 1.383 . S
C415 H423 0.929 . S
C416 C415 1.383 . S
C416 C417 1.377 . S
C417 H401 0.930 . S
C417 C416 1.377 . S
C417 C418 1.379 . S
C418 H402 0.931 . S
C418 C412 1.383 . S
C418 C417 1.379 . S
H419 C413 0.959 . S
H420 C413 0.961 . S
H421 C413 0.960 . S
H422 C414 0.930 . S
H423 C415 0.929 . S
H424 C432 0.929 . S
H425 C434 0.930 . S
H426 C436 0.930 . S
H427 C439 0.929 . S
H428 C442 0.930 . S
H429 C444 0.960 . S
H430 C444 0.960 . S
H431 C444 0.960 . S
C432 H424 0.929 . S
C432 C433 1.377 . S
C432 C434 1.384 . S
C433 C432 1.377 . S
C433 C439 1.390 . S
C434 H425 0.930 . S
C434 C432 1.384 . S
C434 C435 1.372 . S
C435 C434 1.372 . S
C435 C436 1.400 . S
C435 C440 1.490 . S
C436 H426 0.930 . S
C436 C435 1.400 . S
C436 C439 1.386 . S
H437 C453 0.928 1_545 S
H438 C454 0.931 . S
C439 H427 0.929 . S
C439 C433 1.390 . S
C439 C436 1.386 . S
C440 C435 1.490 . S
C440 C442 1.395 . S
C440 C443 1.403 . S
H441 C447 0.930 . S
C442 H428 0.930 . S
C442 C440 1.395 . S
C442 C445 1.403 . S
C443 C440 1.403 . S
C443 C444 1.524 . S
C443 C447 1.400 . S
C444 H429 0.960 . S
C444 H430 0.960 . S
C444 H431 0.960 . S
C444 C443 1.524 . S
C445 C442 1.403 . S
C445 C446 1.392 . S
C445 C449 1.495 . S
C446 C445 1.392 . S
C446 C447 1.385 . S
C446 C448 1.478 . S
C447 H441 0.930 . S
C447 C443 1.400 . S
C447 C446 1.385 . S
C448 C446 1.478 . S
C448 C450 1.381 . S
C448 C454 1.383 . S
C449 C445 1.495 . S
C449 H455 0.959 . S
C449 H456 0.961 . S
C449 H457 0.960 . S
C450 C448 1.381 . S
C450 C451 1.394 . S
C450 H458 0.930 . S
C451 C450 1.394 . S
C451 C452 1.383 1_565 S
C451 H459 0.929 . S
C452 C451 1.383 1_545 S
C452 C453 1.376 1_545 S
C453 H437 0.928 1_565 S
C453 C452 1.376 1_565 S
C453 C454 1.382 . S
C454 H438 0.931 . S
C454 C448 1.383 . S
C454 C453 1.382 . S
H455 C449 0.959 . S
H456 C449 0.961 . S
H457 C449 0.960 . S
H458 C450 0.930 . S
H459 C451 0.929 . S
H460 C468 0.929 . S
H461 C470 0.930 . S
H462 C472 0.930 . S
H463 C475 0.929 . S
H464 C478 0.930 . S
H465 C480 0.960 . S
H466 C480 0.960 . S
H467 C480 0.960 . S
C468 H460 0.929 . S
C468 C469 1.377 . S
C468 C470 1.384 . S
C469 C468 1.377 . S
C469 C475 1.390 . S
C470 H461 0.930 . S
C470 C468 1.384 . S
C470 C471 1.372 . S
C471 C470 1.372 . S
C471 C472 1.400 . S
C471 C476 1.490 . S
C472 H462 0.930 . S
C472 C471 1.400 . S
C472 C475 1.386 . S
H473 C489 0.930 . S
H474 C490 0.931 . S
C475 H463 0.929 . S
C475 C469 1.390 . S
C475 C472 1.386 . S
C476 C471 1.490 . S
C476 C478 1.395 . S
C476 C479 1.403 . S
H477 C483 0.930 . S
C478 H464 0.930 . S
C478 C476 1.395 . S
C478 C481 1.403 . S
C479 C476 1.403 . S
C479 C480 1.524 . S
C479 C483 1.400 . S
C480 H465 0.960 . S
C480 H466 0.960 . S
C480 H467 0.960 . S
C480 C479 1.524 . S
C481 C478 1.403 . S
C481 C482 1.392 . S
C481 C485 1.495 . S
C482 C481 1.392 . S
C482 C483 1.385 . S
C482 C484 1.478 . S
C483 H477 0.930 . S
C483 C479 1.400 . S
C483 C482 1.385 . S
C484 C482 1.478 . S
C484 C486 1.381 . S
C484 C490 1.383 . S
C485 C481 1.495 . S
C485 H491 0.959 . S
C485 H492 0.961 . S
C485 H493 0.960 . S
C486 C484 1.381 . S
C486 C487 1.394 1_455 S
C486 H494 0.930 . S
C487 C486 1.394 1_655 S
C487 C488 1.383 . S
C487 H495 0.929 . S
C488 C487 1.383 . S
C488 C489 1.377 1_655 S
C489 H473 0.930 . S
C489 C488 1.377 1_455 S
C489 C490 1.379 . S
C490 H474 0.931 . S
C490 C484 1.383 . S
C490 C489 1.379 . S
H491 C485 0.959 . S
H492 C485 0.961 . S
H493 C485 0.960 . S
H494 C486 0.930 . S
H495 C487 0.929 . S
H496 C504 0.929 . S
H497 C506 0.930 . S
H498 C508 0.930 . S
H499 C511 0.929 . S
H500 C514 0.930 . S
H501 C516 0.960 . S
H502 C516 0.960 . S
H503 C516 0.960 . S
C504 H496 0.929 . S
C504 C505 1.377 . S
C504 C506 1.384 1_545 S
C505 C504 1.377 . S
C505 C511 1.390 1_545 S
C506 H497 0.930 . S
C506 C504 1.384 1_565 S
C506 C507 1.372 . S
C507 C506 1.372 . S
C507 C508 1.400 . S
C507 C512 1.490 . S
C508 H498 0.930 . S
C508 C507 1.400 . S
C508 C511 1.386 . S
H509 C525 0.930 . S
H510 C526 0.931 . S
C511 H499 0.929 . S
C511 C505 1.390 1_565 S
C511 C508 1.386 . S
C512 C507 1.490 . S
C512 C514 1.395 . S
C512 C515 1.403 . S
H513 C519 0.930 . S
C514 H500 0.930 . S
C514 C512 1.395 . S
C514 C517 1.403 . S
C515 C512 1.403 . S
C515 C516 1.524 . S
C515 C519 1.400 . S
C516 H501 0.960 . S
C516 H502 0.960 . S
C516 H503 0.960 . S
C516 C515 1.524 . S
C517 C514 1.403 . S
C517 C518 1.392 . S
C517 C521 1.495 . S
C518 C517 1.392 . S
C518 C519 1.385 . S
C518 C520 1.478 . S
C519 H513 0.930 . S
C519 C515 1.400 . S
C519 C518 1.385 . S
C520 C518 1.478 . S
C520 C522 1.381 . S
C520 C526 1.383 . S
C521 C517 1.495 . S
C521 H527 0.959 . S
C521 H528 0.961 . S
C521 H529 0.960 . S
C522 C520 1.381 . S
C522 C523 1.394 . S
C522 H530 0.930 . S
C523 C522 1.394 . S
C523 C524 1.383 . S
C523 H531 0.929 . S
C524 C523 1.383 . S
C524 C525 1.377 . S
C525 H509 0.930 . S
C525 C524 1.377 . S
C525 C526 1.379 . S
C526 H510 0.931 . S
C526 C520 1.383 . S
C526 C525 1.379 . S
H527 C521 0.959 . S
H528 C521 0.961 . S
H529 C521 0.960 . S
H530 C522 0.930 . S
H531 C523 0.929 . S
H532 C540 0.929 . S
H533 C542 0.930 . S
H534 C544 0.930 . S
H535 C547 0.929 . S
H536 C550 0.930 . S
H537 C552 0.960 . S
H538 C552 0.960 . S
H539 C552 0.960 . S
C540 H532 0.929 . S
C540 C541 1.377 . S
C540 C542 1.384 . S
C541 C540 1.377 . S
C541 C547 1.390 . S
C542 H533 0.930 . S
C542 C540 1.384 . S
C542 C543 1.372 . S
C543 C542 1.372 . S
C543 C544 1.400 . S
C543 C548 1.490 . S
C544 H534 0.930 . S
C544 C543 1.400 . S
C544 C547 1.386 . S
H545 C561 0.930 . S
H546 C562 0.931 . S
C547 H535 0.929 . S
C547 C541 1.390 . S
C547 C544 1.386 . S
C548 C543 1.490 . S
C548 C550 1.395 . S
C548 C551 1.403 . S
H549 C555 0.930 . S
C550 H536 0.930 . S
C550 C548 1.395 . S
C550 C553 1.403 . S
C551 C548 1.403 . S
C551 C552 1.524 . S
C551 C555 1.400 . S
C552 H537 0.960 . S
C552 H538 0.960 . S
C552 H539 0.960 . S
C552 C551 1.524 . S
C553 C550 1.403 . S
C553 C554 1.392 . S
C553 C557 1.495 . S
C554 C553 1.392 . S
C554 C555 1.385 . S
C554 C556 1.478 . S
C555 H549 0.930 . S
C555 C551 1.400 . S
C555 C554 1.385 . S
C556 C554 1.478 . S
C556 C558 1.381 . S
C556 C562 1.383 . S
C557 C553 1.495 . S
C557 H563 0.959 . S
C557 H564 0.961 . S
C557 H565 0.960 . S
C558 C556 1.381 . S
C558 C559 1.394 1_455 S
C558 H566 0.930 . S
C559 C558 1.394 1_655 S
C559 C560 1.383 . S
C559 H567 0.929 . S
C560 C559 1.383 . S
C560 C561 1.377 1_655 S
C561 H545 0.930 . S
C561 C560 1.377 1_455 S
C561 C562 1.379 . S
C562 H546 0.931 . S
C562 C556 1.383 . S
C562 C561 1.379 . S
H563 C557 0.959 . S
H564 C557 0.961 . S
H565 C557 0.960 . S
H566 C558 0.930 . S
H567 C559 0.929 . S
H568 C576 0.929 . S
H569 C578 0.930 . S
H570 C580 0.930 . S
H571 C583 0.929 . S
H572 C586 0.930 . S
H573 C588 0.960 . S
H574 C588 0.960 . S
H575 C588 0.960 . S
C576 H568 0.929 . S
C576 C577 1.377 1_545 S
C576 C578 1.384 . S
C577 C576 1.377 1_565 S
C577 C583 1.390 . S
C578 H569 0.930 . S
C578 C576 1.384 . S
C578 C579 1.372 . S
C579 C578 1.372 . S
C579 C580 1.400 . S
C579 C584 1.490 . S
C580 H570 0.930 . S
C580 C579 1.400 . S
C580 C583 1.386 1_545 S
H581 C597 0.930 . S
H582 C598 0.931 . S
C583 H571 0.929 . S
C583 C577 1.390 . S
C583 C580 1.386 1_565 S
C584 C579 1.490 . S
C584 C586 1.395 . S
C584 C587 1.403 . S
H585 C591 0.930 . S
C586 H572 0.930 . S
C586 C584 1.395 . S
C586 C589 1.403 . S
C587 C584 1.403 . S
C587 C588 1.524 . S
C587 C591 1.400 . S
C588 H573 0.960 . S
C588 H574 0.960 . S
C588 H575 0.960 . S
C588 C587 1.524 . S
C589 C586 1.403 . S
C589 C590 1.392 . S
C589 C593 1.495 . S
C590 C589 1.392 . S
C590 C591 1.385 . S
C590 C592 1.478 . S
C591 H585 0.930 . S
C591 C587 1.400 . S
C591 C590 1.385 . S
C592 C590 1.478 . S
C592 C594 1.381 . S
C592 C598 1.383 . S
C593 C589 1.495 . S
C593 H599 0.959 . S
C593 H600 0.961 . S
C593 H601 0.960 . S
C594 C592 1.381 . S
C594 C595 1.394 . S
C594 H602 0.930 . S
C595 C594 1.394 . S
C595 C596 1.383 . S
C595 H603 0.929 . S
C596 C595 1.383 . S
C596 C597 1.377 . S
C597 H581 0.930 . S
C597 C596 1.377 . S
C597 C598 1.379 . S
C598 H582 0.931 . S
C598 C592 1.383 . S
C598 C597 1.379 . S
H599 C593 0.959 . S
H600 C593 0.961 . S
H601 C593 0.960 . S
H602 C594 0.930 . S
H603 C595 0.929 . S
H604 C612 0.946 . S
H605 C614 0.930 . S
H606 C616 0.930 . S
H607 C619 0.929 . S
H608 C622 0.930 . S
H609 C624 0.960 . S
H610 C624 0.960 . S
H611 C624 0.960 . S
C612 H604 0.946 . S
C612 C613 1.386 . S
C612 C614 1.359 1_455 S
C613 C612 1.386 . S
C613 C619 1.390 1_455 S
C614 H605 0.930 . S
C614 C612 1.359 1_655 S
C614 C615 1.372 . S
C615 C614 1.372 . S
C615 C616 1.400 . S
C615 C620 1.490 . S
C616 H606 0.930 . S
C616 C615 1.400 . S
C616 C619 1.386 . S
H617 C633 0.930 . S
H618 C634 0.931 . S
C619 H607 0.929 . S
C619 C613 1.390 1_655 S
C619 C616 1.386 . S
C620 C615 1.490 . S
C620 C622 1.395 . S
C620 C623 1.403 . S
H621 C627 0.930 . S
C622 H608 0.930 . S
C622 C620 1.395 . S
C622 C625 1.403 . S
C623 C620 1.403 . S
C623 C624 1.524 . S
C623 C627 1.400 . S
C624 H609 0.960 . S
C624 H610 0.960 . S
C624 H611 0.960 . S
C624 C623 1.524 . S
C625 C622 1.403 . S
C625 C626 1.392 . S
C625 C629 1.495 . S
C626 C625 1.392 . S
C626 C627 1.385 . S
C626 C628 1.478 . S
C627 H621 0.930 . S
C627 C623 1.400 . S
C627 C626 1.385 . S
C628 C626 1.478 . S
C628 C630 1.381 . S
C628 C634 1.383 . S
C629 C625 1.495 . S
C629 H635 0.959 . S
C629 H636 0.961 . S
C629 H637 0.960 . S
C630 C628 1.381 . S
C630 C631 1.394 . S
C630 H638 0.930 . S
C631 C630 1.394 . S
C631 C632 1.383 . S
C631 H639 0.929 . S
C632 C631 1.383 . S
C632 C633 1.377 . S
C633 H617 0.930 . S
C633 C632 1.377 . S
C633 C634 1.379 . S
C634 H618 0.931 . S
C634 C628 1.383 . S
C634 C633 1.379 . S
H635 C629 0.959 . S
H636 C629 0.961 . S
H637 C629 0.960 . S
H638 C630 0.930 . S
H639 C631 0.929 . S
H640 C648 0.929 . S
H641 C650 0.930 . S
H642 C652 0.930 . S
H643 C655 0.929 . S
H644 C658 0.930 . S
H645 C660 0.960 . S
H646 C660 0.960 . S
H647 C660 0.960 . S
C648 H640 0.929 . S
C648 C649 1.377 . S
C648 C650 1.384 . S
C649 C648 1.377 . S
C649 C655 1.390 . S
C650 H641 0.930 . S
C650 C648 1.384 . S
C650 C651 1.372 . S
C651 C650 1.372 . S
C651 C652 1.400 . S
C651 C656 1.490 . S
C652 H642 0.930 . S
C652 C651 1.400 . S
C652 C655 1.386 . S
H653 C669 0.910 1_545 S
H654 C670 0.931 . S
C655 H643 0.929 . S
C655 C649 1.390 . S
C655 C652 1.386 . S
C656 C651 1.490 . S
C656 C658 1.395 . S
C656 C659 1.403 . S
H657 C663 0.930 . S
C658 H644 0.930 . S
C658 C656 1.395 . S
C658 C661 1.403 . S
C659 C656 1.403 . S
C659 C660 1.524 . S
C659 C663 1.400 . S
C660 H645 0.960 . S
C660 H646 0.960 . S
C660 H647 0.960 . S
C660 C659 1.524 . S
C661 C658 1.403 . S
C661 C662 1.392 . S
C661 C665 1.495 . S
C662 C661 1.392 . S
C662 C663 1.385 . S
C662 C664 1.478 . S
C663 H657 0.930 . S
C663 C659 1.400 . S
C663 C662 1.385 . S
C664 C662 1.478 . S
C664 C666 1.381 . S
C664 C670 1.383 . S
C665 C661 1.495 . S
C665 H671 0.959 . S
C665 H672 0.961 . S
C665 H673 0.960 . S
C666 C664 1.381 . S
C666 C667 1.394 . S
C666 H674 0.930 . S
C667 C666 1.394 . S
C667 C668 1.383 1_565 S
C667 H675 0.929 . S
C668 C667 1.383 1_545 S
C668 C669 1.366 1_545 S
C669 H653 0.910 1_565 S
C669 C668 1.366 1_565 S
C669 C670 1.410 . S
C670 H654 0.931 . S
C670 C664 1.383 . S
C670 C669 1.410 . S
H671 C665 0.959 . S
H672 C665 0.961 . S
H673 C665 0.960 . S
H674 C666 0.930 . S
H675 C667 0.929 . S
H676 C684 0.929 . S
H677 C686 0.930 . S
H678 C688 0.930 . S
H679 C691 0.929 . S
H680 C694 0.930 . S
H681 C696 0.960 . S
H682 C696 0.960 . S
H683 C696 0.960 . S
C684 H676 0.929 . S
C684 C685 1.377 . S
C684 C686 1.384 1_655 S
C685 C684 1.377 . S
C685 C691 1.390 1_655 S
C686 H677 0.930 . S
C686 C684 1.384 1_455 S
C686 C687 1.372 . S
C687 C686 1.372 . S
C687 C688 1.400 . S
C687 C692 1.490 . S
C688 H678 0.930 . S
C688 C687 1.400 . S
C688 C691 1.386 . S
H689 C705 0.930 . S
H690 C706 0.931 . S
C691 H679 0.929 . S
C691 C685 1.390 1_455 S
C691 C688 1.386 . S
C692 C687 1.490 . S
C692 C694 1.395 . S
C692 C695 1.403 . S
H693 C699 0.930 . S
C694 H680 0.930 . S
C694 C692 1.395 . S
C694 C697 1.403 . S
C695 C692 1.403 . S
C695 C696 1.524 . S
C695 C699 1.400 . S
C696 H681 0.960 . S
C696 H682 0.960 . S
C696 H683 0.960 . S
C696 C695 1.524 . S
C697 C694 1.403 . S
C697 C698 1.392 . S
C697 C701 1.495 . S
C698 C697 1.392 . S
C698 C699 1.385 . S
C698 C700 1.478 . S
C699 H693 0.930 . S
C699 C695 1.400 . S
C699 C698 1.385 . S
C700 C698 1.478 . S
C700 C702 1.381 . S
C700 C706 1.383 . S
C701 C697 1.495 . S
C701 H707 0.959 . S
C701 H708 0.961 . S
C701 H709 0.960 . S
C702 C700 1.381 . S
C702 C703 1.394 . S
C702 H710 0.930 . S
C703 C702 1.394 . S
C703 C704 1.383 . S
C703 H711 0.929 . S
C704 C703 1.383 . S
C704 C705 1.377 . S
C705 H689 0.930 . S
C705 C704 1.377 . S
C705 C706 1.379 . S
C706 H690 0.931 . S
C706 C700 1.383 . S
C706 C705 1.379 . S
H707 C701 0.959 . S
H708 C701 0.961 . S
H709 C701 0.960 . S
H710 C702 0.930 . S
H711 C703 0.929 . S
H712 C720 0.927 1_565 S
H713 C722 0.930 . S
H714 C724 0.930 . S
H715 C727 0.929 . S
H716 C730 0.930 . S
H717 C732 0.960 . S
H718 C732 0.960 . S
H719 C732 0.960 . S
C720 H712 0.927 1_545 S
C720 C721 1.376 1_545 S
C720 C722 1.387 . S
C721 C720 1.376 1_565 S
C721 C727 1.390 1_565 S
C722 H713 0.930 . S
C722 C720 1.387 . S
C722 C723 1.372 . S
C723 C722 1.372 . S
C723 C724 1.400 . S
C723 C728 1.490 . S
C724 H714 0.930 . S
C724 C723 1.400 . S
C724 C727 1.386 . S
H725 C741 0.930 . S
H726 C742 0.931 . S
C727 H715 0.929 . S
C727 C721 1.390 1_545 S
C727 C724 1.386 . S
C728 C723 1.490 . S
C728 C730 1.395 . S
C728 C731 1.403 . S
H729 C735 0.930 . S
C730 H716 0.930 . S
C730 C728 1.395 . S
C730 C733 1.403 . S
C731 C728 1.403 . S
C731 C732 1.524 . S
C731 C735 1.400 . S
C732 H717 0.960 . S
C732 H718 0.960 . S
C732 H719 0.960 . S
C732 C731 1.524 . S
C733 C730 1.403 . S
C733 C734 1.392 . S
C733 C737 1.495 . S
C734 C733 1.392 . S
C734 C735 1.385 . S
C734 C736 1.478 . S
C735 H729 0.930 . S
C735 C731 1.400 . S
C735 C734 1.385 . S
C736 C734 1.478 . S
C736 C738 1.381 . S
C736 C742 1.383 . S
C737 C733 1.495 . S
C737 H743 0.959 . S
C737 H744 0.961 . S
C737 H745 0.960 . S
C738 C736 1.381 . S
C738 C739 1.394 . S
C738 H746 0.930 . S
C739 C738 1.394 . S
C739 C740 1.383 . S
C739 H747 0.929 . S
C740 C739 1.383 . S
C740 C741 1.377 . S
C741 H725 0.930 . S
C741 C740 1.377 . S
C741 C742 1.379 . S
C742 H726 0.931 . S
C742 C736 1.383 . S
C742 C741 1.379 . S
H743 C737 0.959 . S
H744 C737 0.961 . S
H745 C737 0.960 . S
H746 C738 0.930 . S
H747 C739 0.929 . S
H748 C756 0.929 . S
H749 C758 0.930 . S
H750 C760 0.930 . S
H751 C763 0.929 . S
H752 C766 0.930 . S
H753 C768 0.960 . S
H754 C768 0.960 . S
H755 C768 0.960 . S
C756 H748 0.929 . S
C756 C757 1.377 . S
C756 C758 1.384 1_455 S
C757 C756 1.377 . S
C757 C763 1.390 1_455 S
C758 H749 0.930 . S
C758 C756 1.384 1_655 S
C758 C759 1.372 . S
C759 C758 1.372 . S
C759 C760 1.400 . S
C759 C764 1.490 . S
C760 H750 0.930 . S
C760 C759 1.400 . S
C760 C763 1.386 . S
H761 C777 0.930 . S
H762 C778 0.931 . S
C763 H751 0.929 . S
C763 C757 1.390 1_655 S
C763 C760 1.386 . S
C764 C759 1.490 . S
C764 C766 1.395 . S
C764 C767 1.403 . S
H765 C771 0.930 . S
C766 H752 0.930 . S
C766 C764 1.395 . S
C766 C769 1.403 . S
C767 C764 1.403 . S
C767 C768 1.524 . S
C767 C771 1.400 . S
C768 H753 0.960 . S
C768 H754 0.960 . S
C768 H755 0.960 . S
C768 C767 1.524 . S
C769 C766 1.403 . S
C769 C770 1.392 . S
C769 C773 1.495 . S
C770 C769 1.392 . S
C770 C771 1.385 . S
C770 C772 1.478 . S
C771 H765 0.930 . S
C771 C767 1.400 . S
C771 C770 1.385 . S
C772 C770 1.478 . S
C772 C774 1.381 . S
C772 C778 1.383 . S
C773 C769 1.495 . S
C773 H779 0.959 . S
C773 H780 0.961 . S
C773 H781 0.960 . S
C774 C772 1.381 . S
C774 C775 1.394 . S
C774 H782 0.930 . S
C775 C774 1.394 . S
C775 C776 1.383 . S
C775 H783 0.929 . S
C776 C775 1.383 . S
C776 C777 1.377 . S
C777 H761 0.930 . S
C777 C776 1.377 . S
C777 C778 1.379 . S
C778 H762 0.931 . S
C778 C772 1.383 . S
C778 C777 1.379 . S
H779 C773 0.959 . S
H780 C773 0.961 . S
H781 C773 0.960 . S
H782 C774 0.930 . S
H783 C775 0.929 . S
H784 C792 0.929 . S
H785 C794 0.930 . S
H786 C796 0.930 . S
H787 C799 0.929 . S
H788 C802 0.930 . S
H789 C804 0.960 . S
H790 C804 0.960 . S
H791 C804 0.960 . S
C792 H784 0.929 . S
C792 C793 1.377 . S
C792 C794 1.384 1_565 S
C793 C792 1.377 . S
C793 C799 1.390 1_565 S
C794 H785 0.930 . S
C794 C792 1.384 1_545 S
C794 C795 1.372 . S
C795 C794 1.372 . S
C795 C796 1.400 . S
C795 C800 1.490 . S
C796 H786 0.930 . S
C796 C795 1.400 . S
C796 C799 1.386 . S
H797 C813 0.930 . S
H798 C814 0.931 . S
C799 H787 0.929 . S
C799 C793 1.390 1_545 S
C799 C796 1.386 . S
C800 C795 1.490 . S
C800 C802 1.395 . S
C800 C803 1.403 . S
H801 C807 0.930 . S
C802 H788 0.930 . S
C802 C800 1.395 . S
C802 C805 1.403 . S
C803 C800 1.403 . S
C803 C804 1.524 . S
C803 C807 1.400 . S
C804 H789 0.960 . S
C804 H790 0.960 . S
C804 H791 0.960 . S
C804 C803 1.524 . S
C805 C802 1.403 . S
C805 C806 1.392 . S
C805 C809 1.495 . S
C806 C805 1.392 . S
C806 C807 1.385 . S
C806 C808 1.478 . S
C807 H801 0.930 . S
C807 C803 1.400 . S
C807 C806 1.385 . S
C808 C806 1.478 . S
C808 C810 1.381 . S
C808 C814 1.383 . S
C809 C805 1.495 . S
C809 H815 0.959 . S
C809 H816 0.961 . S
C809 H817 0.960 . S
C810 C808 1.381 . S
C810 C811 1.394 . S
C810 H818 0.930 . S
C811 C810 1.394 . S
C811 C812 1.383 . S
C811 H819 0.929 . S
C812 C811 1.383 . S
C812 C813 1.377 . S
C813 H797 0.930 . S
C813 C812 1.377 . S
C813 C814 1.379 . S
C814 H798 0.931 . S
C814 C808 1.383 . S
C814 C813 1.379 . S
H815 C809 0.959 . S
H816 C809 0.961 . S
H817 C809 0.960 . S
H818 C810 0.930 . S
H819 C811 0.929 . S
H820 C828 0.923 1_455 S
H821 C830 0.930 . S
H822 C832 0.930 . S
H823 C835 0.929 . S
H824 C838 0.930 . S
H825 C840 0.960 . S
H826 C840 0.960 . S
H827 C840 0.960 . S
C828 H820 0.923 1_655 S
C828 C829 1.374 1_655 S
C828 C830 1.394 . S
C829 C828 1.374 1_455 S
C829 C835 1.390 1_455 S
C830 H821 0.930 . S
C830 C828 1.394 . S
C830 C831 1.372 . S
C831 C830 1.372 . S
C831 C832 1.400 . S
C831 C836 1.490 . S
C832 H822 0.930 . S
C832 C831 1.400 . S
C832 C835 1.386 . S
H833 C849 0.930 . S
H834 C850 0.931 . S
C835 H823 0.929 . S
C835 C829 1.390 1_655 S
C835 C832 1.386 . S
C836 C831 1.490 . S
C836 C838 1.395 . S
C836 C839 1.403 . S
H837 C843 0.930 . S
C838 H824 0.930 . S
C838 C836 1.395 . S
C838 C841 1.403 . S
C839 C836 1.403 . S
C839 C840 1.524 . S
C839 C843 1.400 . S
C840 H825 0.960 . S
C840 H826 0.960 . S
C840 H827 0.960 . S
C840 C839 1.524 . S
C841 C838 1.403 . S
C841 C842 1.392 . S
C841 C845 1.495 . S
C842 C841 1.392 . S
C842 C843 1.385 . S
C842 C844 1.478 . S
C843 H837 0.930 . S
C843 C839 1.400 . S
C843 C842 1.385 . S
C844 C842 1.478 . S
C844 C846 1.381 . S
C844 C850 1.383 . S
C845 C841 1.495 . S
C845 H851 0.959 . S
C845 H852 0.961 . S
C845 H853 0.960 . S
C846 C844 1.381 . S
C846 C847 1.394 . S
C846 H854 0.930 . S
C847 C846 1.394 . S
C847 C848 1.383 . S
C847 H855 0.929 . S
C848 C847 1.383 . S
C848 C849 1.377 . S
C849 H833 0.930 . S
C849 C848 1.377 . S
C849 C850 1.379 . S
C850 H834 0.931 . S
C850 C844 1.383 . S
C850 C849 1.379 . S
H851 C845 0.959 . S
H852 C845 0.961 . S
H853 C845 0.960 . S
H854 C846 0.930 . S
H855 C847 0.929 . S
H856 C864 0.929 . S
H857 C866 0.930 . S
H858 C868 0.930 . S
H859 C871 0.929 . S
H860 C874 0.930 . S
H861 C876 0.960 . S
H862 C876 0.960 . S
H863 C876 0.960 . S
C864 H856 0.929 . S
C864 C865 1.377 . S
C864 C866 1.384 . S
C865 C864 1.377 . S
C865 C871 1.390 . S
C866 H857 0.930 . S
C866 C864 1.384 . S
C866 C867 1.372 . S
C867 C866 1.372 . S
C867 C868 1.400 . S
C867 C872 1.490 . S
C868 H858 0.930 . S
C868 C867 1.400 . S
C868 C871 1.386 . S
H869 C885 0.930 . S
H870 C886 0.931 . S
C871 H859 0.929 . S
C871 C865 1.390 . S
C871 C868 1.386 . S
C872 C867 1.490 . S
C872 C874 1.395 . S
C872 C875 1.403 . S
H873 C879 0.930 . S
C874 H860 0.930 . S
C874 C872 1.395 . S
C874 C877 1.403 . S
C875 C872 1.403 . S
C875 C876 1.524 . S
C875 C879 1.400 . S
C876 H861 0.960 . S
C876 H862 0.960 . S
C876 H863 0.960 . S
C876 C875 1.524 . S
C877 C874 1.403 . S
C877 C878 1.392 . S
C877 C881 1.495 . S
C878 C877 1.392 . S
C878 C879 1.385 . S
C878 C880 1.478 . S
C879 H873 0.930 . S
C879 C875 1.400 . S
C879 C878 1.385 . S
C880 C878 1.478 . S
C880 C882 1.381 . S
C880 C886 1.383 . S
C881 C877 1.495 . S
C881 H887 0.959 . S
C881 H888 0.961 . S
C881 H889 0.960 . S
C882 C880 1.381 . S
C882 C883 1.394 1_565 S
C882 H890 0.930 . S
C883 C882 1.394 1_545 S
C883 C884 1.383 . S
C883 H891 0.929 . S
C884 C883 1.383 . S
C884 C885 1.377 1_545 S
C885 H869 0.930 . S
C885 C884 1.377 1_565 S
C885 C886 1.379 . S
C886 H870 0.931 . S
C886 C880 1.383 . S
C886 C885 1.379 . S
H887 C881 0.959 . S
H888 C881 0.961 . S
H889 C881 0.960 . S
H890 C882 0.930 . S
H891 C883 0.929 . S
H892 C900 0.929 . S
H893 C902 0.930 . S
H894 C904 0.930 . S
H895 C907 0.929 . S
H896 C910 0.930 . S
H897 C912 0.960 . S
H898 C912 0.960 . S
H899 C912 0.960 . S
C900 H892 0.929 . S
C900 C901 1.377 . S
C900 C902 1.384 . S
C901 C900 1.377 . S
C901 C907 1.390 . S
C902 H893 0.930 . S
C902 C900 1.384 . S
C902 C903 1.372 . S
C903 C902 1.372 . S
C903 C904 1.400 . S
C903 C908 1.490 . S
C904 H894 0.930 . S
C904 C903 1.400 . S
C904 C907 1.386 . S
H905 C921 0.930 . S
H906 C922 0.931 . S
C907 H895 0.929 . S
C907 C901 1.390 . S
C907 C904 1.386 . S
C908 C903 1.490 . S
C908 C910 1.395 . S
C908 C911 1.403 . S
H909 C915 0.930 . S
C910 H896 0.930 . S
C910 C908 1.395 . S
C910 C913 1.403 . S
C911 C908 1.403 . S
C911 C912 1.524 . S
C911 C915 1.400 . S
C912 H897 0.960 . S
C912 H898 0.960 . S
C912 H899 0.960 . S
C912 C911 1.524 . S
C913 C910 1.403 . S
C913 C914 1.392 . S
C913 C917 1.495 . S
C914 C913 1.392 . S
C914 C915 1.385 . S
C914 C916 1.478 . S
C915 H909 0.930 . S
C915 C911 1.400 . S
C915 C914 1.385 . S
C916 C914 1.478 . S
C916 C918 1.381 . S
C916 C922 1.383 . S
C917 C913 1.495 . S
C917 H923 0.959 . S
C917 H924 0.961 . S
C917 H925 0.960 . S
C918 C916 1.381 . S
C918 C919 1.394 1_455 S
C918 H926 0.930 . S
C919 C918 1.394 1_655 S
C919 C920 1.383 . S
C919 H927 0.929 . S
C920 C919 1.383 . S
C920 C921 1.377 1_655 S
C921 H905 0.930 . S
C921 C920 1.377 1_455 S
C921 C922 1.379 . S
C922 H906 0.931 . S
C922 C916 1.383 . S
C922 C921 1.379 . S
H923 C917 0.959 . S
H924 C917 0.961 . S
H925 C917 0.960 . S
H926 C918 0.930 . S
H927 C919 0.929 . S
H928 C936 0.929 . S
H929 C938 0.930 . S
H930 C940 0.930 . S
H931 C943 0.929 . S
H932 C946 0.930 . S
H933 C948 0.960 . S
H934 C948 0.960 . S
H935 C948 0.960 . S
C936 H928 0.929 . S
C936 C937 1.377 . S
C936 C938 1.384 . S
C937 C936 1.377 . S
C937 C943 1.390 . S
C938 H929 0.930 . S
C938 C936 1.384 . S
C938 C939 1.372 . S
C939 C938 1.372 . S
C939 C940 1.400 . S
C939 C944 1.490 . S
C940 H930 0.930 . S
C940 C939 1.400 . S
C940 C943 1.386 . S
H941 C957 0.930 . S
H942 C958 0.931 . S
C943 H931 0.929 . S
C943 C937 1.390 . S
C943 C940 1.386 . S
C944 C939 1.490 . S
C944 C946 1.395 . S
C944 C947 1.403 . S
H945 C951 0.930 . S
C946 H932 0.930 . S
C946 C944 1.395 . S
C946 C949 1.403 . S
C947 C944 1.403 . S
C947 C948 1.524 . S
C947 C951 1.400 . S
C948 H933 0.960 . S
C948 H934 0.960 . S
C948 H935 0.960 . S
C948 C947 1.524 . S
C949 C946 1.403 . S
C949 C950 1.392 . S
C949 C953 1.495 . S
C950 C949 1.392 . S
C950 C951 1.385 . S
C950 C952 1.478 . S
C951 H945 0.930 . S
C951 C947 1.400 . S
C951 C950 1.385 . S
C952 C950 1.478 . S
C952 C954 1.381 . S
C952 C958 1.383 . S
C953 C949 1.495 . S
C953 H959 0.959 . S
C953 H960 0.961 . S
C953 H961 0.960 . S
C954 C952 1.381 . S
C954 C955 1.394 . S
C954 H962 0.930 . S
C955 C954 1.394 . S
C955 C956 1.383 . S
C955 H963 0.929 . S
C956 C955 1.383 . S
C956 C957 1.377 . S
C957 H941 0.930 . S
C957 C956 1.377 . S
C957 C958 1.379 . S
C958 H942 0.931 . S
C958 C952 1.383 . S
C958 C957 1.379 . S
H959 C953 0.959 . S
H960 C953 0.961 . S
H961 C953 0.960 . S
H962 C954 0.930 . S
H963 C955 0.929 . S
H964 C972 0.929 . S
H965 C974 0.930 . S
H966 C976 0.930 . S
H967 C979 0.929 . S
H968 C982 0.930 . S
H969 C984 0.960 . S
H970 C984 0.960 . S
H971 C984 0.960 . S
C972 H964 0.929 . S
C972 C973 1.377 . S
C972 C974 1.384 . S
C973 C972 1.377 . S
C973 C979 1.390 . S
C974 H965 0.930 . S
C974 C972 1.384 . S
C974 C975 1.372 . S
C975 C974 1.372 . S
C975 C976 1.400 . S
C975 C980 1.490 . S
C976 H966 0.930 . S
C976 C975 1.400 . S
C976 C979 1.386 . S
H977 C993 0.930 . S
H978 C994 0.931 . S
C979 H967 0.929 . S
C979 C973 1.390 . S
C979 C976 1.386 . S
C980 C975 1.490 . S
C980 C982 1.395 . S
C980 C983 1.403 . S
H981 C987 0.930 . S
C982 H968 0.930 . S
C982 C980 1.395 . S
C982 C985 1.403 . S
C983 C980 1.403 . S
C983 C984 1.524 . S
C983 C987 1.400 . S
C984 H969 0.960 . S
C984 H970 0.960 . S
C984 H971 0.960 . S
C984 C983 1.524 . S
C985 C982 1.403 . S
C985 C986 1.392 . S
C985 C989 1.495 . S
C986 C985 1.392 . S
C986 C987 1.385 . S
C986 C988 1.478 . S
C987 H981 0.930 . S
C987 C983 1.400 . S
C987 C986 1.385 . S
C988 C986 1.478 . S
C988 C990 1.381 . S
C988 C994 1.383 . S
C989 C985 1.495 . S
C989 H995 0.959 . S
C989 H996 0.961 . S
C989 H997 0.960 . S
C990 C988 1.381 . S
C990 C991 1.394 . S
C990 H998 0.930 . S
C991 C990 1.394 . S
C991 C992 1.383 . S
C991 H999 0.929 . S
C992 C991 1.383 . S
C992 C993 1.377 . S
C993 H977 0.930 . S
C993 C992 1.377 . S
C993 C994 1.379 . S
C994 H978 0.931 . S
C994 C988 1.383 . S
C994 C993 1.379 . S
H995 C989 0.959 . S
H996 C989 0.961 . S
H997 C989 0.960 . S
H998 C990 0.930 . S
H999 C991 0.929 . S
H1000 C1008 0.929 . S
H1001 C1010 0.930 . S
H1002 C1012 0.930 . S
H1003 C1015 0.929 . S
H1004 C1018 0.930 . S
H1005 C1020 0.960 . S
H1006 C1020 0.960 . S
H1007 C1020 0.960 . S
C1008 H1000 0.929 . S
C1008 C1009 1.377 . S
C1008 C1010 1.384 . S
C1009 C1008 1.377 . S
C1009 C1015 1.390 . S
C1010 H1001 0.930 . S
C1010 C1008 1.384 . S
C1010 C1011 1.372 . S
C1011 C1010 1.372 . S
C1011 C1012 1.400 . S
C1011 C1016 1.490 . S
C1012 H1002 0.930 . S
C1012 C1011 1.400 . S
C1012 C1015 1.386 . S
H1013 C1029 0.930 . S
H1014 C1030 0.931 . S
C1015 H1003 0.929 . S
C1015 C1009 1.390 . S
C1015 C1012 1.386 . S
C1016 C1011 1.490 . S
C1016 C1018 1.395 . S
C1016 C1019 1.403 . S
H1017 C1023 0.930 . S
C1018 H1004 0.930 . S
C1018 C1016 1.395 . S
C1018 C1021 1.403 . S
C1019 C1016 1.403 . S
C1019 C1020 1.524 . S
C1019 C1023 1.400 . S
C1020 H1005 0.960 . S
C1020 H1006 0.960 . S
C1020 H1007 0.960 . S
C1020 C1019 1.524 . S
C1021 C1018 1.403 . S
C1021 C1022 1.392 . S
C1021 C1025 1.495 . S
C1022 C1021 1.392 . S
C1022 C1023 1.385 . S
C1022 C1024 1.478 . S
C1023 H1017 0.930 . S
C1023 C1019 1.400 . S
C1023 C1022 1.385 . S
C1024 C1022 1.478 . S
C1024 C1026 1.381 . S
C1024 C1030 1.383 . S
C1025 C1021 1.495 . S
C1025 H1031 0.959 . S
C1025 H1032 0.961 . S
C1025 H1033 0.960 . S
C1026 C1024 1.381 . S
C1026 C1027 1.394 . S
C1026 H1034 0.930 . S
C1027 C1026 1.394 . S
C1027 C1028 1.383 . S
C1027 H1035 0.929 . S
C1028 C1027 1.383 . S
C1028 C1029 1.377 . S
C1029 H1013 0.930 . S
C1029 C1028 1.377 . S
C1029 C1030 1.379 . S
C1030 H1014 0.931 . S
C1030 C1024 1.383 . S
C1030 C1029 1.379 . S
H1031 C1025 0.959 . S
H1032 C1025 0.961 . S
H1033 C1025 0.960 . S
H1034 C1026 0.930 . S
H1035 C1027 0.929 . S
H1036 C1044 0.929 . S
H1037 C1046 0.930 . S
H1038 C1048 0.930 . S
H1039 C1051 0.929 . S
H1040 C1054 0.930 . S
H1041 C1056 0.960 . S
H1042 C1056 0.960 . S
H1043 C1056 0.960 . S
C1044 H1036 0.929 . S
C1044 C1045 1.377 . S
C1044 C1046 1.384 . S
C1045 C1044 1.377 . S
C1045 C1051 1.390 . S
C1046 H1037 0.930 . S
C1046 C1044 1.384 . S
C1046 C1047 1.372 . S
C1047 C1046 1.372 . S
C1047 C1048 1.400 . S
C1047 C1052 1.490 . S
C1048 H1038 0.930 . S
C1048 C1047 1.400 . S
C1048 C1051 1.386 . S
H1049 C1065 0.930 . S
H1050 C1066 0.931 . S
C1051 H1039 0.929 . S
C1051 C1045 1.390 . S
C1051 C1048 1.386 . S
C1052 C1047 1.490 . S
C1052 C1054 1.395 . S
C1052 C1055 1.403 . S
H1053 C1059 0.930 . S
C1054 H1040 0.930 . S
C1054 C1052 1.395 . S
C1054 C1057 1.403 . S
C1055 C1052 1.403 . S
C1055 C1056 1.524 . S
C1055 C1059 1.400 . S
C1056 H1041 0.960 . S
C1056 H1042 0.960 . S
C1056 H1043 0.960 . S
C1056 C1055 1.524 . S
C1057 C1054 1.403 . S
C1057 C1058 1.392 . S
C1057 C1061 1.495 . S
C1058 C1057 1.392 . S
C1058 C1059 1.385 . S
C1058 C1060 1.478 . S
C1059 H1053 0.930 . S
C1059 C1055 1.400 . S
C1059 C1058 1.385 . S
C1060 C1058 1.478 . S
C1060 C1062 1.381 . S
C1060 C1066 1.383 . S
C1061 C1057 1.495 . S
C1061 H1067 0.959 . S
C1061 H1068 0.961 . S
C1061 H1069 0.960 . S
C1062 C1060 1.381 . S
C1062 C1063 1.394 . S
C1062 H1070 0.930 . S
C1063 C1062 1.394 . S
C1063 C1064 1.383 . S
C1063 H1071 0.929 . S
C1064 C1063 1.383 . S
C1064 C1065 1.377 . S
C1065 H1049 0.930 . S
C1065 C1064 1.377 . S
C1065 C1066 1.379 . S
C1066 H1050 0.931 . S
C1066 C1060 1.383 . S
C1066 C1065 1.379 . S
H1067 C1061 0.959 . S
H1068 C1061 0.961 . S
H1069 C1061 0.960 . S
H1070 C1062 0.930 . S
H1071 C1063 0.929 . S
H1072 C1080 0.929 . S
H1073 C1082 0.930 . S
H1074 C1084 0.930 . S
H1075 C1087 0.929 . S
H1076 C1090 0.930 . S
H1077 C1092 0.960 . S
H1078 C1092 0.960 . S
H1079 C1092 0.960 . S
C1080 H1072 0.929 . S
C1080 C1081 1.377 . S
C1080 C1082 1.384 . S
C1081 C1080 1.377 . S
C1081 C1087 1.390 . S
C1082 H1073 0.930 . S
C1082 C1080 1.384 . S
C1082 C1083 1.372 . S
C1083 C1082 1.372 . S
C1083 C1084 1.400 . S
C1083 C1088 1.490 . S
C1084 H1074 0.930 . S
C1084 C1083 1.400 . S
C1084 C1087 1.386 . S
H1085 C1101 0.930 . S
H1086 C1102 0.931 . S
C1087 H1075 0.929 . S
C1087 C1081 1.390 . S
C1087 C1084 1.386 . S
C1088 C1083 1.490 . S
C1088 C1090 1.395 . S
C1088 C1091 1.403 . S
H1089 C1095 0.930 . S
C1090 H1076 0.930 . S
C1090 C1088 1.395 . S
C1090 C1093 1.403 . S
C1091 C1088 1.403 . S
C1091 C1092 1.524 . S
C1091 C1095 1.400 . S
C1092 H1077 0.960 . S
C1092 H1078 0.960 . S
C1092 H1079 0.960 . S
C1092 C1091 1.524 . S
C1093 C1090 1.403 . S
C1093 C1094 1.392 . S
C1093 C1097 1.495 . S
C1094 C1093 1.392 . S
C1094 C1095 1.385 . S
C1094 C1096 1.478 . S
C1095 H1089 0.930 . S
C1095 C1091 1.400 . S
C1095 C1094 1.385 . S
C1096 C1094 1.478 . S
C1096 C1098 1.381 . S
C1096 C1102 1.383 . S
C1097 C1093 1.495 . S
C1097 H1103 0.959 . S
C1097 H1104 0.961 . S
C1097 H1105 0.960 . S
C1098 C1096 1.381 . S
C1098 C1099 1.394 . S
C1098 H1106 0.930 . S
C1099 C1098 1.394 . S
C1099 C1100 1.383 . S
C1099 H1107 0.929 . S
C1100 C1099 1.383 . S
C1100 C1101 1.377 . S
C1101 H1085 0.930 . S
C1101 C1100 1.377 . S
C1101 C1102 1.379 . S
C1102 H1086 0.931 . S
C1102 C1096 1.383 . S
C1102 C1101 1.379 . S
H1103 C1097 0.959 . S
H1104 C1097 0.961 . S
H1105 C1097 0.960 . S
H1106 C1098 0.930 . S
H1107 C1099 0.929 . S
H1108 C1116 0.929 . S
H1109 C1118 0.930 . S
H1110 C1120 0.930 . S
H1111 C1123 0.929 . S
H1112 C1126 0.930 . S
H1113 C1128 0.960 . S
H1114 C1128 0.960 . S
H1115 C1128 0.960 . S
C1116 H1108 0.929 . S
C1116 C1117 1.377 . S
C1116 C1118 1.384 . S
C1117 C1116 1.377 . S
C1117 C1123 1.390 . S
C1118 H1109 0.930 . S
C1118 C1116 1.384 . S
C1118 C1119 1.372 . S
C1119 C1118 1.372 . S
C1119 C1120 1.400 . S
C1119 C1124 1.490 . S
C1120 H1110 0.930 . S
C1120 C1119 1.400 . S
C1120 C1123 1.386 . S
H1121 C1137 0.930 . S
H1122 C1138 0.931 . S
C1123 H1111 0.929 . S
C1123 C1117 1.390 . S
C1123 C1120 1.386 . S
C1124 C1119 1.490 . S
C1124 C1126 1.395 . S
C1124 C1127 1.403 . S
H1125 C1131 0.930 . S
C1126 H1112 0.930 . S
C1126 C1124 1.395 . S
C1126 C1129 1.403 . S
C1127 C1124 1.403 . S
C1127 C1128 1.524 . S
C1127 C1131 1.400 . S
C1128 H1113 0.960 . S
C1128 H1114 0.960 . S
C1128 H1115 0.960 . S
C1128 C1127 1.524 . S
C1129 C1126 1.403 . S
C1129 C1130 1.392 . S
C1129 C1133 1.495 . S
C1130 C1129 1.392 . S
C1130 C1131 1.385 . S
C1130 C1132 1.478 . S
C1131 H1125 0.930 . S
C1131 C1127 1.400 . S
C1131 C1130 1.385 . S
C1132 C1130 1.478 . S
C1132 C1134 1.381 . S
C1132 C1138 1.383 . S
C1133 C1129 1.495 . S
C1133 H1139 0.959 . S
C1133 H1140 0.961 . S
C1133 H1141 0.960 . S
C1134 C1132 1.381 . S
C1134 C1135 1.394 . S
C1134 H1142 0.930 . S
C1135 C1134 1.394 . S
C1135 C1136 1.383 . S
C1135 H1143 0.929 . S
C1136 C1135 1.383 . S
C1136 C1137 1.377 . S
C1137 H1121 0.930 . S
C1137 C1136 1.377 . S
C1137 C1138 1.379 . S
C1138 H1122 0.931 . S
C1138 C1132 1.383 . S
C1138 C1137 1.379 . S
H1139 C1133 0.959 . S
H1140 C1133 0.961 . S
H1141 C1133 0.960 . S
H1142 C1134 0.930 . S
H1143 C1135 0.929 . S
H1144 C1152 0.929 . S
H1145 C1154 0.930 . S
H1146 C1156 0.930 . S
H1147 C1159 0.929 . S
H1148 C1162 0.930 . S
H1149 C1164 0.960 . S
H1150 C1164 0.960 . S
H1151 C1164 0.960 . S
C1152 H1144 0.929 . S
C1152 C1153 1.377 . S
C1152 C1154 1.384 . S
C1153 C1152 1.377 . S
C1153 C1159 1.390 . S
C1154 H1145 0.930 . S
C1154 C1152 1.384 . S
C1154 C1155 1.372 . S
C1155 C1154 1.372 . S
C1155 C1156 1.400 . S
C1155 C1160 1.490 . S
C1156 H1146 0.930 . S
C1156 C1155 1.400 . S
C1156 C1159 1.386 . S
H1157 C1173 0.930 . S
H1158 C1174 0.931 . S
C1159 H1147 0.929 . S
C1159 C1153 1.390 . S
C1159 C1156 1.386 . S
C1160 C1155 1.490 . S
C1160 C1162 1.395 . S
C1160 C1163 1.403 . S
H1161 C1167 0.930 . S
C1162 H1148 0.930 . S
C1162 C1160 1.395 . S
C1162 C1165 1.403 . S
C1163 C1160 1.403 . S
C1163 C1164 1.524 . S
C1163 C1167 1.400 . S
C1164 H1149 0.960 . S
C1164 H1150 0.960 . S
C1164 H1151 0.960 . S
C1164 C1163 1.524 . S
C1165 C1162 1.403 . S
C1165 C1166 1.392 . S
C1165 C1169 1.495 . S
C1166 C1165 1.392 . S
C1166 C1167 1.385 . S
C1166 C1168 1.478 . S
C1167 H1161 0.930 . S
C1167 C1163 1.400 . S
C1167 C1166 1.385 . S
C1168 C1166 1.478 . S
C1168 C1170 1.381 . S
C1168 C1174 1.383 . S
C1169 C1165 1.495 . S
C1169 H1175 0.959 . S
C1169 H1176 0.961 . S
C1169 H1177 0.960 . S
C1170 C1168 1.381 . S
C1170 C1171 1.394 . S
C1170 H1178 0.930 . S
C1171 C1170 1.394 . S
C1171 C1172 1.383 . S
C1171 H1179 0.929 . S
C1172 C1171 1.383 . S
C1172 C1173 1.377 . S
C1173 H1157 0.930 . S
C1173 C1172 1.377 . S
C1173 C1174 1.379 . S
C1174 H1158 0.931 . S
C1174 C1168 1.383 . S
C1174 C1173 1.379 . S
H1175 C1169 0.959 . S
H1176 C1169 0.961 . S
H1177 C1169 0.960 . S
H1178 C1170 0.930 . S
H1179 C1171 0.929 . S
H1180 C1188 0.929 . S
H1181 C1190 0.930 . S
H1182 C1192 0.930 . S
H1183 C1195 0.929 . S
H1184 C1198 0.930 . S
H1185 C1200 0.960 . S
H1186 C1200 0.960 . S
H1187 C1200 0.960 . S
C1188 H1180 0.929 . S
C1188 C1189 1.377 . S
C1188 C1190 1.384 . S
C1189 C1188 1.377 . S
C1189 C1195 1.390 . S
C1190 H1181 0.930 . S
C1190 C1188 1.384 . S
C1190 C1191 1.372 . S
C1191 C1190 1.372 . S
C1191 C1192 1.400 . S
C1191 C1196 1.490 . S
C1192 H1182 0.930 . S
C1192 C1191 1.400 . S
C1192 C1195 1.386 . S
H1193 C1209 0.930 . S
H1194 C1210 0.931 . S
C1195 H1183 0.929 . S
C1195 C1189 1.390 . S
C1195 C1192 1.386 . S
C1196 C1191 1.490 . S
C1196 C1198 1.395 . S
C1196 C1199 1.403 . S
H1197 C1203 0.930 . S
C1198 H1184 0.930 . S
C1198 C1196 1.395 . S
C1198 C1201 1.403 . S
C1199 C1196 1.403 . S
C1199 C1200 1.524 . S
C1199 C1203 1.400 . S
C1200 H1185 0.960 . S
C1200 H1186 0.960 . S
C1200 H1187 0.960 . S
C1200 C1199 1.524 . S
C1201 C1198 1.403 . S
C1201 C1202 1.392 . S
C1201 C1205 1.495 . S
C1202 C1201 1.392 . S
C1202 C1203 1.385 . S
C1202 C1204 1.478 . S
C1203 H1197 0.930 . S
C1203 C1199 1.400 . S
C1203 C1202 1.385 . S
C1204 C1202 1.478 . S
C1204 C1206 1.381 . S
C1204 C1210 1.383 . S
C1205 C1201 1.495 . S
C1205 H1211 0.959 . S
C1205 H1212 0.961 . S
C1205 H1213 0.960 . S
C1206 C1204 1.381 . S
C1206 C1207 1.394 . S
C1206 H1214 0.930 . S
C1207 C1206 1.394 . S
C1207 C1208 1.383 . S
C1207 H1215 0.929 . S
C1208 C1207 1.383 . S
C1208 C1209 1.377 . S
C1209 H1193 0.930 . S
C1209 C1208 1.377 . S
C1209 C1210 1.379 . S
C1210 H1194 0.931 . S
C1210 C1204 1.383 . S
C1210 C1209 1.379 . S
H1211 C1205 0.959 . S
H1212 C1205 0.961 . S
H1213 C1205 0.960 . S
H1214 C1206 0.930 . S
H1215 C1207 0.929 . S
H1216 C1224 0.929 . S
H1217 C1226 0.930 . S
H1218 C1228 0.930 . S
H1219 C1231 0.929 . S
H1220 C1234 0.930 . S
H1221 C1236 0.960 . S
H1222 C1236 0.960 . S
H1223 C1236 0.960 . S
C1224 H1216 0.929 . S
C1224 C1225 1.377 . S
C1224 C1226 1.384 . S
C1225 C1224 1.377 . S
C1225 C1231 1.390 . S
C1226 H1217 0.930 . S
C1226 C1224 1.384 . S
C1226 C1227 1.372 . S
C1227 C1226 1.372 . S
C1227 C1228 1.400 . S
C1227 C1232 1.490 . S
C1228 H1218 0.930 . S
C1228 C1227 1.400 . S
C1228 C1231 1.386 . S
H1229 C1245 0.930 . S
H1230 C1246 0.931 . S
C1231 H1219 0.929 . S
C1231 C1225 1.390 . S
C1231 C1228 1.386 . S
C1232 C1227 1.490 . S
C1232 C1234 1.395 . S
C1232 C1235 1.403 . S
H1233 C1239 0.930 . S
C1234 H1220 0.930 . S
C1234 C1232 1.395 . S
C1234 C1237 1.403 1_554 S
C1235 C1232 1.403 . S
C1235 C1236 1.524 . S
C1235 C1239 1.400 1_554 S
C1236 H1221 0.960 . S
C1236 H1222 0.960 . S
C1236 H1223 0.960 . S
C1236 C1235 1.524 . S
C1237 C1234 1.403 1_556 S
C1237 C1238 1.392 . S
C1237 C1241 1.495 . S
C1238 C1237 1.392 . S
C1238 C1239 1.385 . S
C1238 C1240 1.478 . S
C1239 H1233 0.930 . S
C1239 C1235 1.400 1_556 S
C1239 C1238 1.385 . S
C1240 C1238 1.478 . S
C1240 C1242 1.381 . S
C1240 C1246 1.383 . S
C1241 C1237 1.495 . S
C1241 H1247 0.959 . S
C1241 H1248 0.961 . S
C1241 H1249 0.960 . S
C1242 C1240 1.381 . S
C1242 C1243 1.394 . S
C1242 H1250 0.930 . S
C1243 C1242 1.394 . S
C1243 C1244 1.383 . S
C1243 H1251 0.929 . S
C1244 C1243 1.383 . S
C1244 C1245 1.377 . S
C1245 H1229 0.930 . S
C1245 C1244 1.377 . S
C1245 C1246 1.379 . S
C1246 H1230 0.931 . S
C1246 C1240 1.383 . S
C1246 C1245 1.379 . S
H1247 C1241 0.959 . S
H1248 C1241 0.961 . S
H1249 C1241 0.960 . S
H1250 C1242 0.930 . S
H1251 C1243 0.929 . S
H1252 C1260 0.929 . S
H1253 C1262 0.930 . S
H1254 C1264 0.930 . S
H1255 C1267 0.929 . S
H1256 C1270 0.930 . S
H1257 C1272 0.960 . S
H1258 C1272 0.960 . S
H1259 C1272 0.960 . S
C1260 H1252 0.929 . S
C1260 C1261 1.377 . S
C1260 C1262 1.384 . S
C1261 C1260 1.377 . S
C1261 C1267 1.390 . S
C1262 H1253 0.930 . S
C1262 C1260 1.384 . S
C1262 C1263 1.372 . S
C1263 C1262 1.372 . S
C1263 C1264 1.400 . S
C1263 C1268 1.490 . S
C1264 H1254 0.930 . S
C1264 C1263 1.400 . S
C1264 C1267 1.386 . S
H1265 C1281 0.930 . S
H1266 C1282 0.931 . S
C1267 H1255 0.929 . S
C1267 C1261 1.390 . S
C1267 C1264 1.386 . S
C1268 C1263 1.490 . S
C1268 C1270 1.395 . S
C1268 C1271 1.403 . S
H1269 C1275 0.930 . S
C1270 H1256 0.930 . S
C1270 C1268 1.395 . S
C1270 C1273 1.403 1_554 S
C1271 C1268 1.403 . S
C1271 C1272 1.524 . S
C1271 C1275 1.400 1_554 S
C1272 H1257 0.960 . S
C1272 H1258 0.960 . S
C1272 H1259 0.960 . S
C1272 C1271 1.524 . S
C1273 C1270 1.403 1_556 S
C1273 C1274 1.392 . S
C1273 C1277 1.495 . S
C1274 C1273 1.392 . S
C1274 C1275 1.385 . S
C1274 C1276 1.478 . S
C1275 H1269 0.930 . S
C1275 C1271 1.400 1_556 S
C1275 C1274 1.385 . S
C1276 C1274 1.478 . S
C1276 C1278 1.381 . S
C1276 C1282 1.383 . S
C1277 C1273 1.495 . S
C1277 H1283 0.959 . S
C1277 H1284 0.961 . S
C1277 H1285 0.960 . S
C1278 C1276 1.381 . S
C1278 C1279 1.394 . S
C1278 H1286 0.930 . S
C1279 C1278 1.394 . S
C1279 C1280 1.383 . S
C1279 H1287 0.929 . S
C1280 C1279 1.383 . S
C1280 C1281 1.377 . S
C1281 H1265 0.930 . S
C1281 C1280 1.377 . S
C1281 C1282 1.379 . S
C1282 H1266 0.931 . S
C1282 C1276 1.383 . S
C1282 C1281 1.379 . S
H1283 C1277 0.959 . S
H1284 C1277 0.961 . S
H1285 C1277 0.960 . S
H1286 C1278 0.930 . S
H1287 C1279 0.929 . S
H1288 C1296 0.929 . S
H1289 C1298 0.930 . S
H1290 C1300 0.930 . S
H1291 C1303 0.929 . S
H1292 C1306 0.930 . S
H1293 C1308 0.960 . S
H1294 C1308 0.960 . S
H1295 C1308 0.960 . S
C1296 H1288 0.929 . S
C1296 C1297 1.377 . S
C1296 C1298 1.384 . S
C1297 C1296 1.377 . S
C1297 C1303 1.390 . S
C1298 H1289 0.930 . S
C1298 C1296 1.384 . S
C1298 C1299 1.372 . S
C1299 C1298 1.372 . S
C1299 C1300 1.400 . S
C1299 C1304 1.490 . S
C1300 H1290 0.930 . S
C1300 C1299 1.400 . S
C1300 C1303 1.386 . S
H1301 C1317 0.930 . S
H1302 C1318 0.931 . S
C1303 H1291 0.929 . S
C1303 C1297 1.390 . S
C1303 C1300 1.386 . S
C1304 C1299 1.490 . S
C1304 C1306 1.395 . S
C1304 C1307 1.403 . S
H1305 C1311 0.930 . S
C1306 H1292 0.930 . S
C1306 C1304 1.395 . S
C1306 C1309 1.403 1_556 S
C1307 C1304 1.403 . S
C1307 C1308 1.524 . S
C1307 C1311 1.400 1_556 S
C1308 H1293 0.960 . S
C1308 H1294 0.960 . S
C1308 H1295 0.960 . S
C1308 C1307 1.524 . S
C1309 C1306 1.403 1_554 S
C1309 C1310 1.392 . S
C1309 C1313 1.495 . S
C1310 C1309 1.392 . S
C1310 C1311 1.385 . S
C1310 C1312 1.478 . S
C1311 H1305 0.930 . S
C1311 C1307 1.400 1_554 S
C1311 C1310 1.385 . S
C1312 C1310 1.478 . S
C1312 C1314 1.381 . S
C1312 C1318 1.383 . S
C1313 C1309 1.495 . S
C1313 H1319 0.959 . S
C1313 H1320 0.961 . S
C1313 H1321 0.960 . S
C1314 C1312 1.381 . S
C1314 C1315 1.394 . S
C1314 H1322 0.930 . S
C1315 C1314 1.394 . S
C1315 C1316 1.383 . S
C1315 H1323 0.929 . S
C1316 C1315 1.383 . S
C1316 C1317 1.377 . S
C1317 H1301 0.930 . S
C1317 C1316 1.377 . S
C1317 C1318 1.379 . S
C1318 H1302 0.931 . S
C1318 C1312 1.383 . S
C1318 C1317 1.379 . S
H1319 C1313 0.959 . S
H1320 C1313 0.961 . S
H1321 C1313 0.960 . S
H1322 C1314 0.930 . S
H1323 C1315 0.929 . S
H1324 C1332 0.929 . S
H1325 C1334 0.930 . S
H1326 C1336 0.930 . S
H1327 C1339 0.929 . S
H1328 C1342 0.930 . S
H1329 C1344 0.960 . S
H1330 C1344 0.960 . S
H1331 C1344 0.960 . S
C1332 H1324 0.929 . S
C1332 C1333 1.377 . S
C1332 C1334 1.384 . S
C1333 C1332 1.377 . S
C1333 C1339 1.390 . S
C1334 H1325 0.930 . S
C1334 C1332 1.384 . S
C1334 C1335 1.372 . S
C1335 C1334 1.372 . S
C1335 C1336 1.400 . S
C1335 C1340 1.490 . S
C1336 H1326 0.930 . S
C1336 C1335 1.400 . S
C1336 C1339 1.386 . S
H1337 C1353 0.930 . S
H1338 C1354 0.931 . S
C1339 H1327 0.929 . S
C1339 C1333 1.390 . S
C1339 C1336 1.386 . S
C1340 C1335 1.490 . S
C1340 C1342 1.395 . S
C1340 C1343 1.403 . S
H1341 C1347 0.930 . S
C1342 H1328 0.930 . S
C1342 C1340 1.395 . S
C1342 C1345 1.403 1_554 S
C1343 C1340 1.403 . S
C1343 C1344 1.524 . S
C1343 C1347 1.400 1_554 S
C1344 H1329 0.960 . S
C1344 H1330 0.960 . S
C1344 H1331 0.960 . S
C1344 C1343 1.524 . S
C1345 C1342 1.403 1_556 S
C1345 C1346 1.392 . S
C1345 C1349 1.495 . S
C1346 C1345 1.392 . S
C1346 C1347 1.385 . S
C1346 C1348 1.478 . S
C1347 H1341 0.930 . S
C1347 C1343 1.400 1_556 S
C1347 C1346 1.385 . S
C1348 C1346 1.478 . S
C1348 C1350 1.381 . S
C1348 C1354 1.383 . S
C1349 C1345 1.495 . S
C1349 H1355 0.959 . S
C1349 H1356 0.961 . S
C1349 H1357 0.960 . S
C1350 C1348 1.381 . S
C1350 C1351 1.394 . S
C1350 H1358 0.930 . S
C1351 C1350 1.394 . S
C1351 C1352 1.383 . S
C1351 H1359 0.929 . S
C1352 C1351 1.383 . S
C1352 C1353 1.377 . S
C1353 H1337 0.930 . S
C1353 C1352 1.377 . S
C1353 C1354 1.379 . S
C1354 H1338 0.931 . S
C1354 C1348 1.383 . S
C1354 C1353 1.379 . S
H1355 C1349 0.959 . S
H1356 C1349 0.961 . S
H1357 C1349 0.960 . S
H1358 C1350 0.930 . S
H1359 C1351 0.929 . S
H1360 C1368 0.929 . S
H1361 C1370 0.930 . S
H1362 C1372 0.930 . S
H1363 C1375 0.929 . S
H1364 C1378 0.930 . S
H1365 C1380 0.960 . S
H1366 C1380 0.960 . S
H1367 C1380 0.960 . S
C1368 H1360 0.929 . S
C1368 C1369 1.377 . S
C1368 C1370 1.384 . S
C1369 C1368 1.377 . S
C1369 C1375 1.390 . S
C1370 H1361 0.930 . S
C1370 C1368 1.384 . S
C1370 C1371 1.372 . S
C1371 C1370 1.372 . S
C1371 C1372 1.400 . S
C1371 C1376 1.490 . S
C1372 H1362 0.930 . S
C1372 C1371 1.400 . S
C1372 C1375 1.386 . S
H1373 C1389 0.930 . S
H1374 C1390 0.931 . S
C1375 H1363 0.929 . S
C1375 C1369 1.390 . S
C1375 C1372 1.386 . S
C1376 C1371 1.490 . S
C1376 C1378 1.395 . S
C1376 C1379 1.403 . S
H1377 C1383 0.930 . S
C1378 H1364 0.930 . S
C1378 C1376 1.395 . S
C1378 C1381 1.403 . S
C1379 C1376 1.403 . S
C1379 C1380 1.524 . S
C1379 C1383 1.400 . S
C1380 H1365 0.960 . S
C1380 H1366 0.960 . S
C1380 H1367 0.960 . S
C1380 C1379 1.524 . S
C1381 C1378 1.403 . S
C1381 C1382 1.392 . S
C1381 C1385 1.495 . S
C1382 C1381 1.392 . S
C1382 C1383 1.385 . S
C1382 C1384 1.478 . S
C1383 H1377 0.930 . S
C1383 C1379 1.400 . S
C1383 C1382 1.385 . S
C1384 C1382 1.478 . S
C1384 C1386 1.381 . S
C1384 C1390 1.383 . S
C1385 C1381 1.495 . S
C1385 H1391 0.959 . S
C1385 H1392 0.961 . S
C1385 H1393 0.960 . S
C1386 C1384 1.381 . S
C1386 C1387 1.394 . S
C1386 H1394 0.930 . S
C1387 C1386 1.394 . S
C1387 C1388 1.383 . S
C1387 H1395 0.929 . S
C1388 C1387 1.383 . S
C1388 C1389 1.377 . S
C1389 H1373 0.930 . S
C1389 C1388 1.377 . S
C1389 C1390 1.379 . S
C1390 H1374 0.931 . S
C1390 C1384 1.383 . S
C1390 C1389 1.379 . S
H1391 C1385 0.959 . S
H1392 C1385 0.961 . S
H1393 C1385 0.960 . S
H1394 C1386 0.930 . S
H1395 C1387 0.929 . S
H1396 C1404 0.929 . S
H1397 C1406 0.930 . S
H1398 C1408 0.930 . S
H1399 C1411 0.929 . S
H1400 C1414 0.930 . S
H1401 C1416 0.960 . S
H1402 C1416 0.960 . S
H1403 C1416 0.960 . S
C1404 H1396 0.929 . S
C1404 C1405 1.377 . S
C1404 C1406 1.384 . S
C1405 C1404 1.377 . S
C1405 C1411 1.390 . S
C1406 H1397 0.930 . S
C1406 C1404 1.384 . S
C1406 C1407 1.372 . S
C1407 C1406 1.372 . S
C1407 C1408 1.400 . S
C1407 C1412 1.490 . S
C1408 H1398 0.930 . S
C1408 C1407 1.400 . S
C1408 C1411 1.386 . S
H1409 C1425 0.930 . S
H1410 C1426 0.931 . S
C1411 H1399 0.929 . S
C1411 C1405 1.390 . S
C1411 C1408 1.386 . S
C1412 C1407 1.490 . S
C1412 C1414 1.395 . S
C1412 C1415 1.403 . S
H1413 C1419 0.930 . S
C1414 H1400 0.930 . S
C1414 C1412 1.395 . S
C1414 C1417 1.403 . S
C1415 C1412 1.403 . S
C1415 C1416 1.524 . S
C1415 C1419 1.400 . S
C1416 H1401 0.960 . S
C1416 H1402 0.960 . S
C1416 H1403 0.960 . S
C1416 C1415 1.524 . S
C1417 C1414 1.403 . S
C1417 C1418 1.392 . S
C1417 C1421 1.495 . S
C1418 C1417 1.392 . S
C1418 C1419 1.385 . S
C1418 C1420 1.478 . S
C1419 H1413 0.930 . S
C1419 C1415 1.400 . S
C1419 C1418 1.385 . S
C1420 C1418 1.478 . S
C1420 C1422 1.381 . S
C1420 C1426 1.383 . S
C1421 C1417 1.495 . S
C1421 H1427 0.959 . S
C1421 H1428 0.961 . S
C1421 H1429 0.960 . S
C1422 C1420 1.381 . S
C1422 C1423 1.394 . S
C1422 H1430 0.930 . S
C1423 C1422 1.394 . S
C1423 C1424 1.383 . S
C1423 H1431 0.929 . S
C1424 C1423 1.383 . S
C1424 C1425 1.377 . S
C1425 H1409 0.930 . S
C1425 C1424 1.377 . S
C1425 C1426 1.379 . S
C1426 H1410 0.931 . S
C1426 C1420 1.383 . S
C1426 C1425 1.379 . S
H1427 C1421 0.959 . S
H1428 C1421 0.961 . S
H1429 C1421 0.960 . S
H1430 C1422 0.930 . S
H1431 C1423 0.929 . S
H1432 C1440 0.929 . S
H1433 C1442 0.930 . S
H1434 C1444 0.930 . S
H1435 C1447 0.929 . S
H1436 C1450 0.930 . S
H1437 C1452 0.960 . S
H1438 C1452 0.960 . S
H1439 C1452 0.960 . S
C1440 H1432 0.929 . S
C1440 C1441 1.377 . S
C1440 C1442 1.384 . S
C1441 C1440 1.377 . S
C1441 C1447 1.390 . S
C1442 H1433 0.930 . S
C1442 C1440 1.384 . S
C1442 C1443 1.372 . S
C1443 C1442 1.372 . S
C1443 C1444 1.400 . S
C1443 C1448 1.490 . S
C1444 H1434 0.930 . S
C1444 C1443 1.400 . S
C1444 C1447 1.386 . S
H1445 C1461 0.930 . S
H1446 C1462 0.931 . S
C1447 H1435 0.929 . S
C1447 C1441 1.390 . S
C1447 C1444 1.386 . S
C1448 C1443 1.490 . S
C1448 C1450 1.395 . S
C1448 C1451 1.403 . S
H1449 C1455 0.930 . S
C1450 H1436 0.930 . S
C1450 C1448 1.395 . S
C1450 C1453 1.403 . S
C1451 C1448 1.403 . S
C1451 C1452 1.524 . S
C1451 C1455 1.400 . S
C1452 H1437 0.960 . S
C1452 H1438 0.960 . S
C1452 H1439 0.960 . S
C1452 C1451 1.524 . S
C1453 C1450 1.403 . S
C1453 C1454 1.392 . S
C1453 C1457 1.495 . S
C1454 C1453 1.392 . S
C1454 C1455 1.385 . S
C1454 C1456 1.478 . S
C1455 H1449 0.930 . S
C1455 C1451 1.400 . S
C1455 C1454 1.385 . S
C1456 C1454 1.478 . S
C1456 C1458 1.381 . S
C1456 C1462 1.383 . S
C1457 C1453 1.495 . S
C1457 H1463 0.959 . S
C1457 H1464 0.961 . S
C1457 H1465 0.960 . S
C1458 C1456 1.381 . S
C1458 C1459 1.394 . S
C1458 H1466 0.930 . S
C1459 C1458 1.394 . S
C1459 C1460 1.383 . S
C1459 H1467 0.929 . S
C1460 C1459 1.383 . S
C1460 C1461 1.377 . S
C1461 H1445 0.930 . S
C1461 C1460 1.377 . S
C1461 C1462 1.379 . S
C1462 H1446 0.931 . S
C1462 C1456 1.383 . S
C1462 C1461 1.379 . S
H1463 C1457 0.959 . S
H1464 C1457 0.961 . S
H1465 C1457 0.960 . S
H1466 C1458 0.930 . S
H1467 C1459 0.929 . S
H1468 C1476 0.929 . S
H1469 C1478 0.930 . S
H1470 C1480 0.930 . S
H1471 C1483 0.929 . S
H1472 C1486 0.930 . S
H1473 C1488 0.960 . S
H1474 C1488 0.960 . S
H1475 C1488 0.960 . S
C1476 H1468 0.929 . S
C1476 C1477 1.377 . S
C1476 C1478 1.384 . S
C1477 C1476 1.377 . S
C1477 C1483 1.390 . S
C1478 H1469 0.930 . S
C1478 C1476 1.384 . S
C1478 C1479 1.372 . S
C1479 C1478 1.372 . S
C1479 C1480 1.400 . S
C1479 C1484 1.490 . S
C1480 H1470 0.930 . S
C1480 C1479 1.400 . S
C1480 C1483 1.386 . S
H1481 C1497 0.930 . S
H1482 C1498 0.931 . S
C1483 H1471 0.929 . S
C1483 C1477 1.390 . S
C1483 C1480 1.386 . S
C1484 C1479 1.490 . S
C1484 C1486 1.395 . S
C1484 C1487 1.403 . S
H1485 C1491 0.930 . S
C1486 H1472 0.930 . S
C1486 C1484 1.395 . S
C1486 C1489 1.403 . S
C1487 C1484 1.403 . S
C1487 C1488 1.524 . S
C1487 C1491 1.400 . S
C1488 H1473 0.960 . S
C1488 H1474 0.960 . S
C1488 H1475 0.960 . S
C1488 C1487 1.524 . S
C1489 C1486 1.403 . S
C1489 C1490 1.392 . S
C1489 C1493 1.495 . S
C1490 C1489 1.392 . S
C1490 C1491 1.385 . S
C1490 C1492 1.478 . S
C1491 H1485 0.930 . S
C1491 C1487 1.400 . S
C1491 C1490 1.385 . S
C1492 C1490 1.478 . S
C1492 C1494 1.381 . S
C1492 C1498 1.383 . S
C1493 C1489 1.495 . S
C1493 H1499 0.959 . S
C1493 H1500 0.961 . S
C1493 H1501 0.960 . S
C1494 C1492 1.381 . S
C1494 C1495 1.394 . S
C1494 H1502 0.930 . S
C1495 C1494 1.394 . S
C1495 C1496 1.383 . S
C1495 H1503 0.929 . S
C1496 C1495 1.383 . S
C1496 C1497 1.377 . S
C1497 H1481 0.930 . S
C1497 C1496 1.377 . S
C1497 C1498 1.379 . S
C1498 H1482 0.931 . S
C1498 C1492 1.383 . S
C1498 C1497 1.379 . S
H1499 C1493 0.959 . S
H1500 C1493 0.961 . S
H1501 C1493 0.960 . S
H1502 C1494 0.930 . S
H1503 C1495 0.929 . S
H1504 C1512 0.929 . S
H1505 C1514 0.930 . S
H1506 C1516 0.964 . S
H1507 C1519 0.929 1_655 S
H1508 C1522 0.930 . S
H1509 C1524 0.960 . S
H1510 C1524 0.960 . S
H1511 C1524 0.960 . S
C1512 H1504 0.929 . S
C1512 C1513 1.377 . S
C1512 C1514 1.384 . S
C1513 C1512 1.377 . S
C1513 C1519 1.390 . S
C1514 H1505 0.930 . S
C1514 C1512 1.384 . S
C1514 C1515 1.372 . S
C1515 C1514 1.372 . S
C1515 C1516 1.376 1_455 S
C1515 C1520 1.490 . S
C1516 H1506 0.964 . S
C1516 C1515 1.376 1_655 S
C1516 C1519 1.377 1_655 S
H1517 C1533 0.930 . S
H1518 C1534 0.931 . S
C1519 H1507 0.929 1_455 S
C1519 C1513 1.390 . S
C1519 C1516 1.377 1_455 S
C1520 C1515 1.490 . S
C1520 C1522 1.395 . S
C1520 C1523 1.403 1_455 S
H1521 C1527 0.930 . S
C1522 H1508 0.930 . S
C1522 C1520 1.395 . S
C1522 C1525 1.403 . S
C1523 C1520 1.403 1_655 S
C1523 C1524 1.524 . S
C1523 C1527 1.400 . S
C1524 H1509 0.960 . S
C1524 H1510 0.960 . S
C1524 H1511 0.960 . S
C1524 C1523 1.524 . S
C1525 C1522 1.403 . S
C1525 C1526 1.392 1_455 S
C1525 C1529 1.495 . S
C1526 C1525 1.392 1_655 S
C1526 C1527 1.385 . S
C1526 C1528 1.478 . S
C1527 H1521 0.930 . S
C1527 C1523 1.400 . S
C1527 C1526 1.385 . S
C1528 C1526 1.478 . S
C1528 C1530 1.381 1_655 S
C1528 C1534 1.383 . S
C1529 C1525 1.495 . S
C1529 H1535 0.959 . S
C1529 H1536 0.961 . S
C1529 H1537 0.960 . S
C1530 C1528 1.381 1_455 S
C1530 C1531 1.394 1_455 S
C1530 H1538 0.930 . S
C1531 C1530 1.394 1_655 S
C1531 C1532 1.383 . S
C1531 H1539 0.929 1_655 S
C1532 C1531 1.383 . S
C1532 C1533 1.377 . S
C1533 H1517 0.930 . S
C1533 C1532 1.377 . S
C1533 C1534 1.379 . S
C1534 H1518 0.931 . S
C1534 C1528 1.383 . S
C1534 C1533 1.379 . S
H1535 C1529 0.959 . S
H1536 C1529 0.961 . S
H1537 C1529 0.960 . S
H1538 C1530 0.930 . S
H1539 C1531 0.929 1_455 S
H1540 C1548 0.929 . S
H1541 C1550 0.930 1_545 S
H1542 C1552 0.930 . S
H1543 C1555 0.929 . S
H1544 C1558 0.930 . S
H1545 C1560 0.960 . S
H1546 C1560 0.960 . S
H1547 C1560 0.960 . S
C1548 H1540 0.929 . S
C1548 C1549 1.377 . S
C1548 C1550 1.384 . S
C1549 C1548 1.377 . S
C1549 C1555 1.390 . S
C1550 H1541 0.930 1_565 S
C1550 C1548 1.384 . S
C1550 C1551 1.372 . S
C1551 C1550 1.372 . S
C1551 C1552 1.400 . S
C1551 C1556 1.490 . S
C1552 H1542 0.930 . S
C1552 C1551 1.400 . S
C1552 C1555 1.386 . S
H1553 C1569 0.930 . S
H1554 C1570 0.931 . S
C1555 H1543 0.929 . S
C1555 C1549 1.390 . S
C1555 C1552 1.386 . S
C1556 C1551 1.490 . S
C1556 C1558 1.395 1_565 S
C1556 C1559 1.403 . S
H1557 C1563 0.930 . S
C1558 H1544 0.930 . S
C1558 C1556 1.395 1_545 S
C1558 C1561 1.403 . S
C1559 C1556 1.403 . S
C1559 C1560 1.524 . S
C1559 C1563 1.400 . S
C1560 H1545 0.960 . S
C1560 H1546 0.960 . S
C1560 H1547 0.960 . S
C1560 C1559 1.524 . S
C1561 C1558 1.403 . S
C1561 C1562 1.392 . S
C1561 C1565 1.495 . S
C1562 C1561 1.392 . S
C1562 C1563 1.385 1_545 S
C1562 C1564 1.478 . S
C1563 H1557 0.930 . S
C1563 C1559 1.400 . S
C1563 C1562 1.385 1_565 S
C1564 C1562 1.478 . S
C1564 C1566 1.381 . S
C1564 C1570 1.383 . S
C1565 C1561 1.495 . S
C1565 H1571 0.959 . S
C1565 H1572 0.961 . S
C1565 H1573 0.960 . S
C1566 C1564 1.381 . S
C1566 C1567 1.394 . S
C1566 H1574 0.930 . S
C1567 C1566 1.394 . S
C1567 C1568 1.383 . S
C1567 H1575 0.929 . S
C1568 C1567 1.383 . S
C1568 C1569 1.377 . S
C1569 H1553 0.930 . S
C1569 C1568 1.377 . S
C1569 C1570 1.379 . S
C1570 H1554 0.931 . S
C1570 C1564 1.383 . S
C1570 C1569 1.379 . S
H1571 C1565 0.959 . S
H1572 C1565 0.961 . S
H1573 C1565 0.960 . S
H1574 C1566 0.930 . S
H1575 C1567 0.929 . S
H1576 C1584 0.929 1_655 S
H1577 C1586 0.930 . S
H1578 C1588 0.930 . S
H1579 C1591 0.929 . S
H1580 C1594 0.930 . S
H1581 C1596 0.960 . S
H1582 C1596 0.960 . S
H1583 C1596 0.960 . S
C1584 H1576 0.929 1_455 S
C1584 C1585 1.377 . S
C1584 C1586 1.384 1_455 S
C1585 C1584 1.377 . S
C1585 C1591 1.390 . S
C1586 H1577 0.930 . S
C1586 C1584 1.384 1_655 S
C1586 C1587 1.372 1_655 S
C1587 C1586 1.372 1_455 S
C1587 C1588 1.400 . S
C1587 C1592 1.490 . S
C1588 H1578 0.930 . S
C1588 C1587 1.400 . S
C1588 C1591 1.386 . S
H1589 C1605 0.930 1_455 S
H1590 C1606 0.931 1_455 S
C1591 H1579 0.929 . S
C1591 C1585 1.390 . S
C1591 C1588 1.386 . S
C1592 C1587 1.490 . S
C1592 C1594 1.395 1_455 S
C1592 C1595 1.403 . S
H1593 C1599 0.930 . S
C1594 H1580 0.930 . S
C1594 C1592 1.395 1_655 S
C1594 C1597 1.403 . S
C1595 C1592 1.403 . S
C1595 C1596 1.524 . S
C1595 C1599 1.400 . S
C1596 H1581 0.960 . S
C1596 H1582 0.960 . S
C1596 H1583 0.960 . S
C1596 C1595 1.524 . S
C1597 C1594 1.403 . S
C1597 C1598 1.392 . S
C1597 C1601 1.495 . S
C1598 C1597 1.392 . S
C1598 C1599 1.385 1_655 S
C1598 C1600 1.478 . S
C1599 H1593 0.930 . S
C1599 C1595 1.400 . S
C1599 C1598 1.385 1_455 S
C1600 C1598 1.478 . S
C1600 C1602 1.381 . S
C1600 C1606 1.383 . S
C1601 C1597 1.495 . S
C1601 H1607 0.959 . S
C1601 H1608 0.961 . S
C1601 H1609 0.960 . S
C1602 C1600 1.381 . S
C1602 C1603 1.394 . S
C1602 H1610 0.930 . S
C1603 C1602 1.394 . S
C1603 C1604 1.383 . S
C1603 H1611 0.929 . S
C1604 C1603 1.383 . S
C1604 C1605 1.377 . S
C1605 H1589 0.930 1_655 S
C1605 C1604 1.377 . S
C1605 C1606 1.379 . S
C1606 H1590 0.931 1_655 S
C1606 C1600 1.383 . S
C1606 C1605 1.379 . S
H1607 C1601 0.959 . S
H1608 C1601 0.961 . S
H1609 C1601 0.960 . S
H1610 C1602 0.930 . S
H1611 C1603 0.929 . S
H1612 C1620 0.929 1_565 S
H1613 C1622 0.958 . S
H1614 C1624 0.930 . S
H1615 C1627 0.929 . S
H1616 C1630 0.930 . S
H1617 C1632 0.960 . S
H1618 C1632 0.960 . S
H1619 C1632 0.960 . S
C1620 H1612 0.929 1_545 S
C1620 C1621 1.377 . S
C1620 C1622 1.374 1_545 S
C1621 C1620 1.377 . S
C1621 C1627 1.390 . S
C1622 H1613 0.958 . S
C1622 C1620 1.374 1_565 S
C1622 C1623 1.354 1_565 S
C1623 C1622 1.354 1_545 S
C1623 C1624 1.400 . S
C1623 C1628 1.490 . S
C1624 H1614 0.930 . S
C1624 C1623 1.400 . S
C1624 C1627 1.386 . S
H1625 C1641 0.922 1_545 S
H1626 C1642 0.931 1_545 S
C1627 H1615 0.929 . S
C1627 C1621 1.390 . S
C1627 C1624 1.386 . S
C1628 C1623 1.490 . S
C1628 C1630 1.395 1_545 S
C1628 C1631 1.403 . S
H1629 C1635 0.930 . S
C1630 H1616 0.930 . S
C1630 C1628 1.395 1_565 S
C1630 C1633 1.403 . S
C1631 C1628 1.403 . S
C1631 C1632 1.524 . S
C1631 C1635 1.400 . S
C1632 H1617 0.960 . S
C1632 H1618 0.960 . S
C1632 H1619 0.960 . S
C1632 C1631 1.524 . S
C1633 C1630 1.403 . S
C1633 C1634 1.392 . S
C1633 C1637 1.495 . S
C1634 C1633 1.392 . S
C1634 C1635 1.385 1_565 S
C1634 C1636 1.478 . S
C1635 H1629 0.930 . S
C1635 C1631 1.400 . S
C1635 C1634 1.385 1_545 S
C1636 C1634 1.478 . S
C1636 C1638 1.381 . S
C1636 C1642 1.383 . S
C1637 C1633 1.495 . S
C1637 H1643 0.959 . S
C1637 H1644 0.961 . S
C1637 H1645 0.960 . S
C1638 C1636 1.381 . S
C1638 C1639 1.394 . S
C1638 H1646 0.930 . S
C1639 C1638 1.394 . S
C1639 C1640 1.383 . S
C1639 H1647 0.929 . S
C1640 C1639 1.383 . S
C1640 C1641 1.377 . S
C1641 H1625 0.922 1_565 S
C1641 C1640 1.377 . S
C1641 C1642 1.379 . S
C1642 H1626 0.931 1_565 S
C1642 C1636 1.383 . S
C1642 C1641 1.379 . S
H1643 C1637 0.959 . S
H1644 C1637 0.961 . S
H1645 C1637 0.960 . S
H1646 C1638 0.930 . S
H1647 C1639 0.929 . S
H1648 C1656 0.912 1_655 S
H1649 C1658 0.897 1_655 S
H1650 C1660 0.930 . S
H1651 C1663 0.929 . S
H1652 C1666 0.930 . S
H1653 C1668 0.960 . S
H1654 C1668 0.960 . S
H1655 C1668 0.960 . S
C1656 H1648 0.912 1_455 S
C1656 C1657 1.377 . S
C1656 C1658 1.396 . S
C1657 C1656 1.377 . S
C1657 C1663 1.390 . S
C1658 H1649 0.897 1_455 S
C1658 C1656 1.396 . S
C1658 C1659 1.393 . S
C1659 C1658 1.393 . S
C1659 C1660 1.400 . S
C1659 C1664 1.490 . S
C1660 H1650 0.930 . S
C1660 C1659 1.400 . S
C1660 C1663 1.386 . S
H1661 C1677 0.930 . S
H1662 C1678 0.931 1_455 S
C1663 H1651 0.929 . S
C1663 C1657 1.390 . S
C1663 C1660 1.386 . S
C1664 C1659 1.490 . S
C1664 C1666 1.395 1_455 S
C1664 C1667 1.403 . S
H1665 C1671 0.930 . S
C1666 H1652 0.930 . S
C1666 C1664 1.395 1_655 S
C1666 C1669 1.403 . S
C1667 C1664 1.403 . S
C1667 C1668 1.524 . S
C1667 C1671 1.400 . S
C1668 H1653 0.960 . S
C1668 H1654 0.960 . S
C1668 H1655 0.960 . S
C1668 C1667 1.524 . S
C1669 C1666 1.403 . S
C1669 C1670 1.392 . S
C1669 C1673 1.495 . S
C1670 C1669 1.392 . S
C1670 C1671 1.385 1_655 S
C1670 C1672 1.478 . S
C1671 H1665 0.930 . S
C1671 C1667 1.400 . S
C1671 C1670 1.385 1_455 S
C1672 C1670 1.478 . S
C1672 C1674 1.381 . S
C1672 C1678 1.383 . S
C1673 C1669 1.495 . S
C1673 H1679 0.959 . S
C1673 H1680 0.961 . S
C1673 H1681 0.960 . S
C1674 C1672 1.381 . S
C1674 C1675 1.394 . S
C1674 H1682 0.930 . S
C1675 C1674 1.394 . S
C1675 C1676 1.383 . S
C1675 H1683 0.929 . S
C1676 C1675 1.383 . S
C1676 C1677 1.377 . S
C1677 H1661 0.930 . S
C1677 C1676 1.377 . S
C1677 C1678 1.379 . S
C1678 H1662 0.931 1_655 S
C1678 C1672 1.383 . S
C1678 C1677 1.379 . S
H1679 C1673 0.959 . S
H1680 C1673 0.961 . S
H1681 C1673 0.960 . S
H1682 C1674 0.930 . S
H1683 C1675 0.929 . S
H1684 C1692 0.929 . S
H1685 C1694 0.930 . S
H1686 C1696 0.930 1_565 S
H1687 C1699 0.929 . S
H1688 C1702 0.930 . S
H1689 C1704 0.960 . S
H1690 C1704 0.960 . S
H1691 C1704 0.960 . S
C1692 H1684 0.929 . S
C1692 C1693 1.377 . S
C1692 C1694 1.384 . S
C1693 C1692 1.377 . S
C1693 C1699 1.390 . S
C1694 H1685 0.930 . S
C1694 C1692 1.384 . S
C1694 C1695 1.372 . S
C1695 C1694 1.372 . S
C1695 C1696 1.400 . S
C1695 C1700 1.490 . S
C1696 H1686 0.930 1_545 S
C1696 C1695 1.400 . S
C1696 C1699 1.386 . S
H1697 C1713 0.930 . S
H1698 C1714 0.931 . S
C1699 H1687 0.929 . S
C1699 C1693 1.390 . S
C1699 C1696 1.386 . S
C1700 C1695 1.490 . S
C1700 C1702 1.395 . S
C1700 C1703 1.403 1_545 S
H1701 C1707 0.930 . S
C1702 H1688 0.930 . S
C1702 C1700 1.395 . S
C1702 C1705 1.403 . S
C1703 C1700 1.403 1_565 S
C1703 C1704 1.524 . S
C1703 C1707 1.400 . S
C1704 H1689 0.960 . S
C1704 H1690 0.960 . S
C1704 H1691 0.960 . S
C1704 C1703 1.524 . S
C1705 C1702 1.403 . S
C1705 C1706 1.392 1_545 S
C1705 C1709 1.495 . S
C1706 C1705 1.392 1_565 S
C1706 C1707 1.385 . S
C1706 C1708 1.478 . S
C1707 H1701 0.930 . S
C1707 C1703 1.400 . S
C1707 C1706 1.385 . S
C1708 C1706 1.478 . S
C1708 C1710 1.381 . S
C1708 C1714 1.383 . S
C1709 C1705 1.495 . S
C1709 H1715 0.959 . S
C1709 H1716 0.961 . S
C1709 H1717 0.960 . S
C1710 C1708 1.381 . S
C1710 C1711 1.394 . S
C1710 H1718 0.930 1_565 S
C1711 C1710 1.394 . S
C1711 C1712 1.383 . S
C1711 H1719 0.929 . S
C1712 C1711 1.383 . S
C1712 C1713 1.377 . S
C1713 H1697 0.930 . S
C1713 C1712 1.377 . S
C1713 C1714 1.379 . S
C1714 H1698 0.931 . S
C1714 C1708 1.383 . S
C1714 C1713 1.379 . S
H1715 C1709 0.959 . S
H1716 C1709 0.961 . S
H1717 C1709 0.960 . S
H1718 C1710 0.930 1_545 S
H1719 C1711 0.929 . S
H1720 C1728 0.929 . S
H1721 C1730 0.930 . S
H1722 C1732 0.957 . S
H1723 C1735 0.929 1_455 S
H1724 C1738 0.930 . S
H1725 C1740 0.960 . S
H1726 C1740 0.960 1_655 S
H1727 C1740 0.960 . S
C1728 H1720 0.929 . S
C1728 C1729 1.377 . S
C1728 C1730 1.384 . S
C1729 C1728 1.377 . S
C1729 C1735 1.390 . S
C1730 H1721 0.930 . S
C1730 C1728 1.384 . S
C1730 C1731 1.372 . S
C1731 C1730 1.372 . S
C1731 C1732 1.381 1_655 S
C1731 C1736 1.490 . S
C1732 H1722 0.957 . S
C1732 C1731 1.381 1_455 S
C1732 C1735 1.378 1_455 S
H1733 C1749 0.930 . S
H1734 C1750 0.931 . S
C1735 H1723 0.929 1_655 S
C1735 C1729 1.390 . S
C1735 C1732 1.378 1_655 S
C1736 C1731 1.490 . S
C1736 C1738 1.395 . S
C1736 C1739 1.403 1_655 S
H1737 C1743 0.930 . S
C1738 H1724 0.930 . S
C1738 C1736 1.395 . S
C1738 C1741 1.403 . S
C1739 C1736 1.403 1_455 S
C1739 C1740 1.524 . S
C1739 C1743 1.400 . S
C1740 H1725 0.960 . S
C1740 H1726 0.960 1_455 S
C1740 H1727 0.960 . S
C1740 C1739 1.524 . S
C1741 C1738 1.403 . S
C1741 C1742 1.392 1_655 S
C1741 C1745 1.495 . S
C1742 C1741 1.392 1_455 S
C1742 C1743 1.385 . S
C1742 C1744 1.478 . S
C1743 H1737 0.930 . S
C1743 C1739 1.400 . S
C1743 C1742 1.385 . S
C1744 C1742 1.478 . S
C1744 C1746 1.381 1_455 S
C1744 C1750 1.383 . S
C1745 C1741 1.495 . S
C1745 H1751 0.959 . S
C1745 H1752 0.961 1_655 S
C1745 H1753 0.960 . S
C1746 C1744 1.381 1_655 S
C1746 C1747 1.394 1_655 S
C1746 H1754 0.930 . S
C1747 C1746 1.394 1_455 S
C1747 C1748 1.383 . S
C1747 H1755 0.929 1_455 S
C1748 C1747 1.383 . S
C1748 C1749 1.377 . S
C1749 H1733 0.930 . S
C1749 C1748 1.377 . S
C1749 C1750 1.379 . S
C1750 H1734 0.931 . S
C1750 C1744 1.383 . S
C1750 C1749 1.379 . S
H1751 C1745 0.959 . S
H1752 C1745 0.961 1_455 S
H1753 C1745 0.960 . S
H1754 C1746 0.930 . S
H1755 C1747 0.929 1_655 S
H1756 C1764 0.929 . S
H1757 C1766 0.930 . S
H1758 C1768 0.951 . S
H1759 C1771 0.929 1_565 S
H1760 C1774 0.930 . S
H1761 C1776 0.960 . S
H1762 C1776 0.960 1_545 S
H1763 C1776 0.960 . S
C1764 H1756 0.929 . S
C1764 C1765 1.377 . S
C1764 C1766 1.384 . S
C1765 C1764 1.377 . S
C1765 C1771 1.390 . S
C1766 H1757 0.930 . S
C1766 C1764 1.384 . S
C1766 C1767 1.372 . S
C1767 C1766 1.372 . S
C1767 C1768 1.385 1_545 S
C1767 C1772 1.490 . S
C1768 H1758 0.951 . S
C1768 C1767 1.385 1_565 S
C1768 C1771 1.380 1_565 S
H1769 C1785 0.930 . S
H1770 C1786 0.931 . S
C1771 H1759 0.929 1_545 S
C1771 C1765 1.390 . S
C1771 C1768 1.380 1_545 S
C1772 C1767 1.490 . S
C1772 C1774 1.395 . S
C1772 C1775 1.403 1_545 S
H1773 C1779 0.930 . S
C1774 H1760 0.930 . S
C1774 C1772 1.395 . S
C1774 C1777 1.403 . S
C1775 C1772 1.403 1_565 S
C1775 C1776 1.524 . S
C1775 C1779 1.400 . S
C1776 H1761 0.960 . S
C1776 H1762 0.960 1_565 S
C1776 H1763 0.960 . S
C1776 C1775 1.524 . S
C1777 C1774 1.403 . S
C1777 C1778 1.392 1_545 S
C1777 C1781 1.495 . S
C1778 C1777 1.392 1_565 S
C1778 C1779 1.385 . S
C1778 C1780 1.478 . S
C1779 H1773 0.930 . S
C1779 C1775 1.400 . S
C1779 C1778 1.385 . S
C1780 C1778 1.478 . S
C1780 C1782 1.381 1_565 S
C1780 C1786 1.383 . S
C1781 C1777 1.495 . S
C1781 H1787 0.959 . S
C1781 H1788 0.961 1_545 S
C1781 H1789 0.960 . S
C1782 C1780 1.381 1_545 S
C1782 C1783 1.394 1_545 S
C1782 H1790 0.930 . S
C1783 C1782 1.394 1_565 S
C1783 C1784 1.383 . S
C1783 H1791 0.929 1_565 S
C1784 C1783 1.383 . S
C1784 C1785 1.377 . S
C1785 H1769 0.930 . S
C1785 C1784 1.377 . S
C1785 C1786 1.379 . S
C1786 H1770 0.931 . S
C1786 C1780 1.383 . S
C1786 C1785 1.379 . S
H1787 C1781 0.959 . S
H1788 C1781 0.961 1_565 S
H1789 C1781 0.960 . S
H1790 C1782 0.930 . S
H1791 C1783 0.929 1_545 S
H1792 C1800 0.929 . S
H1793 C1802 0.930 . S
H1794 C1804 0.930 . S
H1795 C1807 0.929 . S
H1796 C1810 0.930 . S
H1797 C1812 0.960 . S
H1798 C1812 0.960 . S
H1799 C1812 0.960 . S
C1800 H1792 0.929 . S
C1800 C1801 1.377 . S
C1800 C1802 1.384 . S
C1801 C1800 1.377 . S
C1801 C1807 1.390 . S
C1802 H1793 0.930 . S
C1802 C1800 1.384 . S
C1802 C1803 1.372 . S
C1803 C1802 1.372 . S
C1803 C1804 1.400 . S
C1803 C1808 1.490 . S
C1804 H1794 0.930 . S
C1804 C1803 1.400 . S
C1804 C1807 1.386 . S
H1805 C1821 0.930 . S
H1806 C1822 0.931 . S
C1807 H1795 0.929 . S
C1807 C1801 1.390 . S
C1807 C1804 1.386 . S
C1808 C1803 1.490 . S
C1808 C1810 1.395 1_455 S
C1808 C1811 1.403 . S
H1809 C1815 0.930 . S
C1810 H1796 0.930 . S
C1810 C1808 1.395 1_655 S
C1810 C1813 1.403 . S
C1811 C1808 1.403 . S
C1811 C1812 1.524 . S
C1811 C1815 1.400 . S
C1812 H1797 0.960 . S
C1812 H1798 0.960 . S
C1812 H1799 0.960 . S
C1812 C1811 1.524 . S
C1813 C1810 1.403 . S
C1813 C1814 1.392 . S
C1813 C1817 1.495 . S
C1814 C1813 1.392 . S
C1814 C1815 1.385 1_655 S
C1814 C1816 1.478 . S
C1815 H1809 0.930 . S
C1815 C1811 1.400 . S
C1815 C1814 1.385 1_455 S
C1816 C1814 1.478 . S
C1816 C1818 1.381 . S
C1816 C1822 1.383 . S
C1817 C1813 1.495 . S
C1817 H1823 0.959 . S
C1817 H1824 0.961 . S
C1817 H1825 0.960 . S
C1818 C1816 1.381 . S
C1818 C1819 1.394 . S
C1818 H1826 0.930 . S
C1819 C1818 1.394 . S
C1819 C1820 1.383 . S
C1819 H1827 0.929 . S
C1820 C1819 1.383 . S
C1820 C1821 1.377 . S
C1821 H1805 0.930 . S
C1821 C1820 1.377 . S
C1821 C1822 1.379 . S
C1822 H1806 0.931 . S
C1822 C1816 1.383 . S
C1822 C1821 1.379 . S
H1823 C1817 0.959 . S
H1824 C1817 0.961 . S
H1825 C1817 0.960 . S
H1826 C1818 0.930 . S
H1827 C1819 0.929 . S
H1828 C1836 0.929 . S
H1829 C1838 0.930 . S
H1830 C1840 0.930 . S
H1831 C1843 0.929 . S
H1832 C1846 0.930 . S
H1833 C1848 0.960 . S
H1834 C1848 0.960 . S
H1835 C1848 0.960 . S
C1836 H1828 0.929 . S
C1836 C1837 1.377 . S
C1836 C1838 1.384 . S
C1837 C1836 1.377 . S
C1837 C1843 1.390 . S
C1838 H1829 0.930 . S
C1838 C1836 1.384 . S
C1838 C1839 1.372 . S
C1839 C1838 1.372 . S
C1839 C1840 1.400 . S
C1839 C1844 1.490 . S
C1840 H1830 0.930 . S
C1840 C1839 1.400 . S
C1840 C1843 1.386 . S
H1841 C1857 0.930 . S
H1842 C1858 0.931 . S
C1843 H1831 0.929 . S
C1843 C1837 1.390 . S
C1843 C1840 1.386 . S
C1844 C1839 1.490 . S
C1844 C1846 1.395 . S
C1844 C1847 1.403 . S
H1845 C1851 0.930 . S
C1846 H1832 0.930 . S
C1846 C1844 1.395 . S
C1846 C1849 1.403 1_545 S
C1847 C1844 1.403 . S
C1847 C1848 1.524 . S
C1847 C1851 1.400 1_545 S
C1848 H1833 0.960 . S
C1848 H1834 0.960 . S
C1848 H1835 0.960 . S
C1848 C1847 1.524 . S
C1849 C1846 1.403 1_565 S
C1849 C1850 1.392 . S
C1849 C1853 1.495 . S
C1850 C1849 1.392 . S
C1850 C1851 1.385 . S
C1850 C1852 1.478 . S
C1851 H1845 0.930 . S
C1851 C1847 1.400 1_565 S
C1851 C1850 1.385 . S
C1852 C1850 1.478 . S
C1852 C1854 1.381 . S
C1852 C1858 1.383 . S
C1853 C1849 1.495 . S
C1853 H1859 0.959 . S
C1853 H1860 0.961 . S
C1853 H1861 0.960 . S
C1854 C1852 1.381 . S
C1854 C1855 1.394 . S
C1854 H1862 0.930 . S
C1855 C1854 1.394 . S
C1855 C1856 1.383 . S
C1855 H1863 0.929 . S
C1856 C1855 1.383 . S
C1856 C1857 1.377 . S
C1857 H1841 0.930 . S
C1857 C1856 1.377 . S
C1857 C1858 1.379 . S
C1858 H1842 0.931 . S
C1858 C1852 1.383 . S
C1858 C1857 1.379 . S
H1859 C1853 0.959 . S
H1860 C1853 0.961 . S
H1861 C1853 0.960 . S
H1862 C1854 0.930 . S
H1863 C1855 0.929 . S
H1864 C1872 0.929 . S
H1865 C1874 0.930 . S
H1866 C1876 0.930 . S
H1867 C1879 0.929 . S
H1868 C1882 0.930 . S
H1869 C1884 0.960 . S
H1870 C1884 0.960 . S
H1871 C1884 0.960 1_455 S
C1872 H1864 0.929 . S
C1872 C1873 1.377 . S
C1872 C1874 1.384 . S
C1873 C1872 1.377 . S
C1873 C1879 1.390 . S
C1874 H1865 0.930 . S
C1874 C1872 1.384 . S
C1874 C1875 1.372 . S
C1875 C1874 1.372 . S
C1875 C1876 1.400 . S
C1875 C1880 1.490 . S
C1876 H1866 0.930 . S
C1876 C1875 1.400 . S
C1876 C1879 1.386 . S
H1877 C1893 0.930 . S
H1878 C1894 0.931 . S
C1879 H1867 0.929 . S
C1879 C1873 1.390 . S
C1879 C1876 1.386 . S
C1880 C1875 1.490 . S
C1880 C1882 1.395 . S
C1880 C1883 1.403 1_455 S
H1881 C1887 0.930 . S
C1882 H1868 0.930 . S
C1882 C1880 1.395 . S
C1882 C1885 1.403 . S
C1883 C1880 1.403 1_655 S
C1883 C1884 1.524 . S
C1883 C1887 1.400 . S
C1884 H1869 0.960 . S
C1884 H1870 0.960 . S
C1884 H1871 0.960 1_655 S
C1884 C1883 1.524 . S
C1885 C1882 1.403 . S
C1885 C1886 1.392 1_455 S
C1885 C1889 1.495 . S
C1886 C1885 1.392 1_655 S
C1886 C1887 1.385 . S
C1886 C1888 1.478 . S
C1887 H1881 0.930 . S
C1887 C1883 1.400 . S
C1887 C1886 1.385 . S
C1888 C1886 1.478 . S
C1888 C1890 1.381 . S
C1888 C1894 1.383 . S
C1889 C1885 1.495 . S
C1889 H1895 0.959 . S
C1889 H1896 0.961 . S
C1889 H1897 0.960 1_455 S
C1890 C1888 1.381 . S
C1890 C1891 1.394 . S
C1890 H1898 0.930 . S
C1891 C1890 1.394 . S
C1891 C1892 1.383 . S
C1891 H1899 0.929 . S
C1892 C1891 1.383 . S
C1892 C1893 1.377 . S
C1893 H1877 0.930 . S
C1893 C1892 1.377 . S
C1893 C1894 1.379 . S
C1894 H1878 0.931 . S
C1894 C1888 1.383 . S
C1894 C1893 1.379 . S
H1895 C1889 0.959 . S
H1896 C1889 0.961 . S
H1897 C1889 0.960 1_655 S
H1898 C1890 0.930 . S
H1899 C1891 0.929 . S
H1900 C1908 0.929 . S
H1901 C1910 0.930 . S
H1902 C1912 0.930 . S
H1903 C1915 0.929 . S
H1904 C1918 0.930 . S
H1905 C1920 0.960 . S
H1906 C1920 0.960 . S
H1907 C1920 0.960 . S
C1908 H1900 0.929 . S
C1908 C1909 1.377 . S
C1908 C1910 1.384 . S
C1909 C1908 1.377 . S
C1909 C1915 1.390 . S
C1910 H1901 0.930 . S
C1910 C1908 1.384 . S
C1910 C1911 1.372 . S
C1911 C1910 1.372 . S
C1911 C1912 1.400 . S
C1911 C1916 1.490 . S
C1912 H1902 0.930 . S
C1912 C1911 1.400 . S
C1912 C1915 1.386 . S
H1913 C1929 0.930 . S
H1914 C1930 0.931 . S
C1915 H1903 0.929 . S
C1915 C1909 1.390 . S
C1915 C1912 1.386 . S
C1916 C1911 1.490 . S
C1916 C1918 1.395 1_565 S
C1916 C1919 1.403 . S
H1917 C1923 0.930 . S
C1918 H1904 0.930 . S
C1918 C1916 1.395 1_545 S
C1918 C1921 1.403 . S
C1919 C1916 1.403 . S
C1919 C1920 1.524 . S
C1919 C1923 1.400 . S
C1920 H1905 0.960 . S
C1920 H1906 0.960 . S
C1920 H1907 0.960 . S
C1920 C1919 1.524 . S
C1921 C1918 1.403 . S
C1921 C1922 1.392 . S
C1921 C1925 1.495 . S
C1922 C1921 1.392 . S
C1922 C1923 1.385 1_545 S
C1922 C1924 1.478 . S
C1923 H1917 0.930 . S
C1923 C1919 1.400 . S
C1923 C1922 1.385 1_565 S
C1924 C1922 1.478 . S
C1924 C1926 1.381 . S
C1924 C1930 1.383 . S
C1925 C1921 1.495 . S
C1925 H1931 0.959 . S
C1925 H1932 0.961 . S
C1925 H1933 0.960 . S
C1926 C1924 1.381 . S
C1926 C1927 1.394 . S
C1926 H1934 0.930 . S
C1927 C1926 1.394 . S
C1927 C1928 1.383 . S
C1927 H1935 0.929 . S
C1928 C1927 1.383 . S
C1928 C1929 1.377 . S
C1929 H1913 0.930 . S
C1929 C1928 1.377 . S
C1929 C1930 1.379 . S
C1930 H1914 0.931 . S
C1930 C1924 1.383 . S
C1930 C1929 1.379 . S
H1931 C1925 0.959 . S
H1932 C1925 0.961 . S
H1933 C1925 0.960 . S
H1934 C1926 0.930 . S
H1935 C1927 0.929 . S
H1936 C1944 0.929 . S
H1937 C1946 0.930 . S
H1938 C1948 0.930 . S
H1939 C1951 0.929 . S
H1940 C1954 0.930 . S
H1941 C1956 0.960 . S
H1942 C1956 0.960 . S
H1943 C1956 0.960 . S
C1944 H1936 0.929 . S
C1944 C1945 1.377 . S
C1944 C1946 1.384 . S
C1945 C1944 1.377 . S
C1945 C1951 1.390 . S
C1946 H1937 0.930 . S
C1946 C1944 1.384 . S
C1946 C1947 1.372 . S
C1947 C1946 1.372 . S
C1947 C1948 1.400 . S
C1947 C1952 1.490 . S
C1948 H1938 0.930 . S
C1948 C1947 1.400 . S
C1948 C1951 1.386 . S
H1949 C1965 0.930 . S
H1950 C1966 0.931 . S
C1951 H1939 0.929 . S
C1951 C1945 1.390 . S
C1951 C1948 1.386 . S
C1952 C1947 1.490 . S
C1952 C1954 1.395 . S
C1952 C1955 1.403 1_455 S
H1953 C1959 0.930 . S
C1954 H1940 0.930 . S
C1954 C1952 1.395 . S
C1954 C1957 1.403 . S
C1955 C1952 1.403 1_655 S
C1955 C1956 1.524 . S
C1955 C1959 1.400 . S
C1956 H1941 0.960 . S
C1956 H1942 0.960 . S
C1956 H1943 0.960 . S
C1956 C1955 1.524 . S
C1957 C1954 1.403 . S
C1957 C1958 1.392 1_455 S
C1957 C1961 1.495 . S
C1958 C1957 1.392 1_655 S
C1958 C1959 1.385 . S
C1958 C1960 1.478 . S
C1959 H1953 0.930 . S
C1959 C1955 1.400 . S
C1959 C1958 1.385 . S
C1960 C1958 1.478 . S
C1960 C1962 1.381 . S
C1960 C1966 1.383 . S
C1961 C1957 1.495 . S
C1961 H1967 0.959 . S
C1961 H1968 0.961 . S
C1961 H1969 0.960 . S
C1962 C1960 1.381 . S
C1962 C1963 1.394 . S
C1962 H1970 0.930 . S
C1963 C1962 1.394 . S
C1963 C1964 1.383 . S
C1963 H1971 0.929 . S
C1964 C1963 1.383 . S
C1964 C1965 1.377 . S
C1965 H1949 0.930 . S
C1965 C1964 1.377 . S
C1965 C1966 1.379 . S
C1966 H1950 0.931 . S
C1966 C1960 1.383 . S
C1966 C1965 1.379 . S
H1967 C1961 0.959 . S
H1968 C1961 0.961 . S
H1969 C1961 0.960 . S
H1970 C1962 0.930 . S
H1971 C1963 0.929 . S
H1972 C1980 0.929 . S
H1973 C1982 0.930 . S
H1974 C1984 0.930 . S
H1975 C1987 0.929 . S
H1976 C1990 0.930 . S
H1977 C1992 0.960 . S
H1978 C1992 0.960 . S
H1979 C1992 0.960 . S
C1980 H1972 0.929 . S
C1980 C1981 1.377 . S
C1980 C1982 1.384 . S
C1981 C1980 1.377 . S
C1981 C1987 1.390 . S
C1982 H1973 0.930 . S
C1982 C1980 1.384 . S
C1982 C1983 1.372 . S
C1983 C1982 1.372 . S
C1983 C1984 1.400 . S
C1983 C1988 1.490 . S
C1984 H1974 0.930 . S
C1984 C1983 1.400 . S
C1984 C1987 1.386 . S
H1985 C2001 0.930 . S
H1986 C2002 0.931 . S
C1987 H1975 0.929 . S
C1987 C1981 1.390 . S
C1987 C1984 1.386 . S
C1988 C1983 1.490 . S
C1988 C1990 1.397 . S
C1988 C1991 1.403 . S
H1989 C1995 0.930 . S
C1990 H1976 0.930 . S
C1990 C1988 1.397 . S
C1990 C1993 1.400 1_545 S
C1991 C1988 1.403 . S
C1991 C1992 1.524 . S
C1991 C1995 1.400 1_545 S
C1992 H1977 0.960 . S
C1992 H1978 0.960 . S
C1992 H1979 0.960 . S
C1992 C1991 1.524 . S
C1993 C1990 1.400 1_565 S
C1993 C1994 1.392 . S
C1993 C1997 1.495 . S
C1994 C1993 1.392 . S
C1994 C1995 1.385 . S
C1994 C1996 1.478 . S
C1995 H1989 0.930 . S
C1995 C1991 1.400 1_565 S
C1995 C1994 1.385 . S
C1996 C1994 1.478 . S
C1996 C1998 1.381 . S
C1996 C2002 1.383 . S
C1997 C1993 1.495 . S
C1997 H2003 0.959 . S
C1997 H2004 0.961 . S
C1997 H2005 0.960 . S
C1998 C1996 1.381 . S
C1998 C1999 1.394 . S
C1998 H2006 0.930 . S
C1999 C1998 1.394 . S
C1999 C2000 1.383 . S
C1999 H2007 0.929 . S
C2000 C1999 1.383 . S
C2000 C2001 1.377 . S
C2001 H1985 0.930 . S
C2001 C2000 1.377 . S
C2001 C2002 1.379 . S
C2002 H1986 0.931 . S
C2002 C1996 1.383 . S
C2002 C2001 1.379 . S
H2003 C1997 0.959 . S
H2004 C1997 0.961 . S
H2005 C1997 0.960 . S
H2006 C1998 0.930 . S
H2007 C1999 0.929 . S
H2008 C2016 0.929 . S
H2009 C2018 0.930 . S
H2010 C2020 0.930 . S
H2011 C2023 0.929 . S
H2012 C2026 0.930 . S
H2013 C2028 0.960 . S
H2014 C2028 0.960 . S
H2015 C2028 0.960 1_655 S
C2016 H2008 0.929 . S
C2016 C2017 1.377 . S
C2016 C2018 1.384 . S
C2017 C2016 1.377 . S
C2017 C2023 1.390 . S
C2018 H2009 0.930 . S
C2018 C2016 1.384 . S
C2018 C2019 1.372 . S
C2019 C2018 1.372 . S
C2019 C2020 1.400 . S
C2019 C2024 1.490 . S
C2020 H2010 0.930 . S
C2020 C2019 1.400 . S
C2020 C2023 1.386 . S
H2021 C2037 0.930 . S
H2022 C2038 0.931 . S
C2023 H2011 0.929 . S
C2023 C2017 1.390 . S
C2023 C2020 1.386 . S
C2024 C2019 1.490 . S
C2024 C2026 1.395 . S
C2024 C2027 1.403 1_655 S
H2025 C2031 0.930 . S
C2026 H2012 0.930 . S
C2026 C2024 1.395 . S
C2026 C2029 1.403 . S
C2027 C2024 1.403 1_455 S
C2027 C2028 1.524 . S
C2027 C2031 1.400 . S
C2028 H2013 0.960 . S
C2028 H2014 0.960 . S
C2028 H2015 0.960 1_455 S
C2028 C2027 1.524 . S
C2029 C2026 1.403 . S
C2029 C2030 1.392 1_655 S
C2029 C2033 1.495 . S
C2030 C2029 1.392 1_455 S
C2030 C2031 1.385 . S
C2030 C2032 1.478 . S
C2031 H2025 0.930 . S
C2031 C2027 1.400 . S
C2031 C2030 1.385 . S
C2032 C2030 1.478 . S
C2032 C2034 1.381 . S
C2032 C2038 1.383 . S
C2033 C2029 1.495 . S
C2033 H2039 0.959 . S
C2033 H2040 0.961 . S
C2033 H2041 0.960 1_655 S
C2034 C2032 1.381 . S
C2034 C2035 1.394 . S
C2034 H2042 0.930 . S
C2035 C2034 1.394 . S
C2035 C2036 1.383 . S
C2035 H2043 0.929 . S
C2036 C2035 1.383 . S
C2036 C2037 1.377 . S
C2037 H2021 0.930 . S
C2037 C2036 1.377 . S
C2037 C2038 1.379 . S
C2038 H2022 0.931 . S
C2038 C2032 1.383 . S
C2038 C2037 1.379 . S
H2039 C2033 0.959 . S
H2040 C2033 0.961 . S
H2041 C2033 0.960 1_455 S
H2042 C2034 0.930 . S
H2043 C2035 0.929 . S
H2044 C2052 0.929 . S
H2045 C2054 0.930 . S
H2046 C2056 0.930 . S
H2047 C2059 0.929 . S
H2048 C2062 0.930 . S
H2049 C2064 0.960 . S
H2050 C2064 0.960 . S
H2051 C2064 0.960 . S
C2052 H2044 0.929 . S
C2052 C2053 1.377 . S
C2052 C2054 1.384 . S
C2053 C2052 1.377 . S
C2053 C2059 1.390 . S
C2054 H2045 0.930 . S
C2054 C2052 1.384 . S
C2054 C2055 1.372 . S
C2055 C2054 1.372 . S
C2055 C2056 1.400 . S
C2055 C2060 1.490 . S
C2056 H2046 0.930 . S
C2056 C2055 1.400 . S
C2056 C2059 1.386 . S
H2057 C2073 0.930 . S
H2058 C2074 0.931 . S
C2059 H2047 0.929 . S
C2059 C2053 1.390 . S
C2059 C2056 1.386 . S
C2060 C2055 1.490 . S
C2060 C2062 1.395 1_565 S
C2060 C2063 1.403 . S
H2061 C2067 0.930 . S
C2062 H2048 0.930 . S
C2062 C2060 1.395 1_545 S
C2062 C2065 1.403 . S
C2063 C2060 1.403 . S
C2063 C2064 1.524 . S
C2063 C2067 1.400 . S
C2064 H2049 0.960 . S
C2064 H2050 0.960 . S
C2064 H2051 0.960 . S
C2064 C2063 1.524 . S
C2065 C2062 1.403 . S
C2065 C2066 1.392 . S
C2065 C2069 1.495 . S
C2066 C2065 1.392 . S
C2066 C2067 1.385 1_545 S
C2066 C2068 1.478 . S
C2067 H2061 0.930 . S
C2067 C2063 1.400 . S
C2067 C2066 1.385 1_565 S
C2068 C2066 1.478 . S
C2068 C2070 1.381 . S
C2068 C2074 1.383 . S
C2069 C2065 1.495 . S
C2069 H2075 0.959 . S
C2069 H2076 0.961 . S
C2069 H2077 0.960 . S
C2070 C2068 1.381 . S
C2070 C2071 1.394 . S
C2070 H2078 0.930 . S
C2071 C2070 1.394 . S
C2071 C2072 1.383 . S
C2071 H2079 0.929 . S
C2072 C2071 1.383 . S
C2072 C2073 1.377 . S
C2073 H2057 0.930 . S
C2073 C2072 1.377 . S
C2073 C2074 1.379 . S
C2074 H2058 0.931 . S
C2074 C2068 1.383 . S
C2074 C2073 1.379 . S
H2075 C2069 0.959 . S
H2076 C2069 0.961 . S
H2077 C2069 0.960 . S
H2078 C2070 0.930 . S
H2079 C2071 0.929 . S
C361 C8 0.761 . S
C380 C76 0.774 . S
C397 C18 0.758 . S
C416 C40 0.792 . S
C433 C62 0.770 . S
C452 C32 0.734 . S
C469 C84 0.755 . S
C488 C54 0.793 . S
C505 C120 0.768 . S
C524 C96 0.727 . S
C541 C128 0.755 . S
C560 C150 0.793 . S
C577 C172 0.757 . S
C596 C140 0.795 . S
C613 C106 0.763 . S
C632 C162 0.755 . S
C649 C184 0.754 . S
C668 C260 0.740 . S
C685 C194 0.757 . S
C704 C216 0.757 . S
C721 C208 0.757 . S
C740 C238 0.751 . S
C757 C230 0.762 . S
C776 C250 0.787 . S
C793 C304 0.758 . S
C812 C272 0.762 . S
C829 C326 0.757 . S
C848 C294 0.750 . S
C865 C316 0.767 . S
C884 C338 0.754 . S
C901 C340 0.771 . S
C920 C282 0.785 . S
C937 C21 1.703 . S
C956 C117 1.695 . S
C973 C153 1.708 . S
C992 C29 1.673 . S
C1009 C51 1.706 . S
C1028 C175 1.686 . S
C1045 C73 1.705 . S
C1064 C109 1.690 . S
C1081 C307 1.697 . S
C1100 C197 1.684 . S
C1117 C329 1.703 . S
C1136 C205 1.723 . S
C1153 C227 1.708 . S
C1172 C345 1.719 . S
C1189 C285 1.698 . S
C1208 C263 1.706 . S
C1225 C10 1.434 . S
C1244 C228 1.431 . S
C1261 C30 1.437 . S
C1280 C252 1.426 . S
C1297 C186 1.434 . S
C1316 C52 1.438 . S
C1333 C74 1.434 . S
C1352 C206 1.437 . S
C1369 C98 1.436 . S
C1388 C318 1.424 . S
C1405 C118 1.436 . S
C1424 C348 1.424 . S
C1441 C142 1.435 . S
C1460 C274 1.440 . S
C1477 C296 1.437 . S
C1496 C164 1.425 . S
C1513 C7 0.329 . S
C1532 C139 0.442 . S
C1549 C161 0.363 . S
C1568 C37 0.304 . S
C1585 C95 0.367 . S
C1604 C59 0.269 . S
C1621 C125 0.367 . S
C1640 C81 0.274 . S
C1657 C315 0.332 . S
C1676 C183 0.379 . S
C1693 C351 0.366 . S
C1712 C213 0.379 . S
C1729 C271 0.354 . S
C1748 C235 0.290 . S
C1765 C249 0.354 . S
C1784 C293 0.289 . S
C1801 C15 1.723 . S
C1820 C65 1.737 . S
C1837 C43 1.725 . S
C1856 C87 1.719 . S
C1873 C103 1.711 . S
C1892 C147 1.694 . S
C1909 C169 1.717 . S
C1928 C131 1.749 . S
C1945 C241 1.715 . S
C1964 C191 1.685 . S
C1981 C257 1.714 . S
C2000 C219 1.717 . S
C2017 C279 1.710 . S
C2036 C323 1.684 . S
C2053 C301 1.721 . S
C2072 C337 1.745 . S
