# Generated by pormake.
# Topology rob, (6)-cn, num edge types: 1
# Building blocks:
#     Node 0, Type 0, BuildingBlock: MIFKUJ_clean_sbu_0, # of connection points: 6
#     Node 1, Type 0, BuildingBlock: MIFKUJ_clean_sbu_0, # of connection points: 6
#     Node 2, Type 0, BuildingBlock: MIFKUJ_clean_sbu_0, # of connection points: 6
#     Node 3, Type 0, BuildingBlock: MIFKUJ_clean_sbu_0, # of connection points: 6
#     Edge 4, Type (0, 0), BuildingBlock: EZIPEK_clean_linker_0, # of connection points: 2
#     Edge 5, Type (0, 0), BuildingBlock: EZIPEK_clean_linker_0, # of connection points: 2
#     Edge 6, Type (0, 0), BuildingBlock: EZIPEK_clean_linker_0, # of connection points: 2
#     Edge 7, Type (0, 0), BuildingBlock: EZIPEK_clean_linker_0, # of connection points: 2
#     Edge 8, Type (0, 0), BuildingBlock: EZIPEK_clean_linker_0, # of connection points: 2
#     Edge 9, Type (0, 0), BuildingBlock: EZIPEK_clean_linker_0, # of connection points: 2
#     Edge 10, Type (0, 0), BuildingBlock: EZIPEK_clean_linker_0, # of connection points: 2
#     Edge 11, Type (0, 0), BuildingBlock: EZIPEK_clean_linker_0, # of connection points: 2
#     Edge 12, Type (0, 0), BuildingBlock: EZIPEK_clean_linker_0, # of connection points: 2
#     Edge 13, Type (0, 0), BuildingBlock: EZIPEK_clean_linker_0, # of connection points: 2
#     Edge 14, Type (0, 0), BuildingBlock: EZIPEK_clean_linker_0, # of connection points: 2
#     Edge 15, Type (0, 0), BuildingBlock: EZIPEK_clean_linker_0, # of connection points: 2
# Relax obj value: 0.078
# Max RMSD: 0.184
# Mean RMSD: 0.184
data_MOF--net-rob--node1-MIFKUJ_clean_sbu_0--edge1-EZIPEK_clean_linker_0
_symmetry_space_group_name_H-M    P1
_symmetry_Int_Tables_number       1
_symmetry_cell_setting            triclinic
loop_
_symmetry_equiv_pos_as_xyz
'x, y, z'
_cell_length_a     12.634878
_cell_length_b     15.658132
_cell_length_c     23.395513
_cell_angle_alpha  89.985597
_cell_angle_beta   82.499425
_cell_angle_gamma 89.689827
loop_
_atom_site_label
_atom_site_type_symbol
_atom_site_fract_x
_atom_site_fract_y
_atom_site_fract_z
_atom_type_partial_charge
Zn0 Zn 0.17003 0.27753 0.92295 0.0
Zn1 Zn 0.31325 0.20063 0.01961 0.0
C2 C 0.30683 0.2995 0.81768 0.0
O3 O 0.25419 0.37211 0.82105 0.0
C4 C 0.17427 0.18757 0.12259 0.0
O5 O 0.20367 0.1078 0.11307 0.0
O6 O 0.05544 0.32956 0.88106 0.0
O7 O 0.10756 0.17082 0.96223 0.0
O8 O 0.24897 0.10011 0.98322 0.0
C9 C 0.0342 0.28075 0.84093 0.0
O10 O 0.07808 0.20453 0.8367 0.0
O11 O 0.28926 0.24572 0.85862 0.0
C12 C 0.49978 0.21306 0.07716 0.0
O13 O 0.51456 0.28372 0.04707 0.0
O14 O 0.42752 0.16144 0.06653 0.0
O15 O 0.37128 0.29888 0.97001 0.0
O16 O 0.2203 0.3695 0.97273 0.0
O17 O 0.20457 0.24331 0.08444 0.0
C18 C 0.15157 0.10119 0.97505 0.0
C19 C 0.31875 0.36799 0.97817 0.0
Zn20 Zn 0.66294 0.79188 1.00404 0.0
Zn21 Zn 0.74857 0.70518 0.11138 0.0
C22 C 0.84245 0.76286 0.92364 0.0
O23 O 0.81936 0.84373 0.91711 0.0
C24 C 0.59687 0.71466 0.20832 0.0
O25 O 0.62778 0.63457 0.20663 0.0
O26 O 0.60406 0.84919 0.93623 0.0
O27 O 0.5514 0.71416 0.04347 0.0
O28 O 0.67144 0.62053 0.06439 0.0
C29 C 0.51882 0.8261 0.91729 0.0
O30 O 0.45495 0.7717 0.94704 0.0
O31 O 0.78786 0.72143 0.96374 0.0
C32 C 0.86613 0.68431 0.20301 0.0
O33 O 0.84022 0.76551 0.20419 0.0
O34 O 0.84034 0.63843 0.16224 0.0
O35 O 0.847 0.79404 0.06886 0.0
O36 O 0.71914 0.88158 0.05304 0.0
O37 O 0.63505 0.7647 0.16814 0.0
C38 C 0.57953 0.63738 0.05025 0.0
C39 C 0.81674 0.86914 0.05745 0.0
Zn40 Zn 0.24639 0.77086 0.61896 0.0
Zn41 Zn 0.15539 0.67723 0.50278 0.0
C42 C 0.05229 0.71495 0.69997 0.0
O43 O -0.01093 0.74041 0.66305 0.0
C44 C 0.33258 0.68017 0.41791 0.0
O45 O 0.32407 0.59808 0.42876 0.0
O46 O 0.34361 0.84134 0.66288 0.0
O47 O 0.34095 0.68251 0.57414 0.0
O48 O 0.21886 0.59304 0.55413 0.0
C49 C 0.37896 0.79937 0.70294 0.0
O50 O 0.35911 0.71725 0.70747 0.0
O51 O 0.1528 0.71539 0.68587 0.0
C52 C 0.00677 0.65587 0.42038 0.0
O53 O 0.96535 0.72517 0.44589 0.0
O54 O 0.0813 0.61689 0.44162 0.0
O55 O 0.05407 0.76663 0.53983 0.0
O56 O 0.16396 0.85535 0.57598 0.0
O57 O 0.27429 0.73231 0.44985 0.0
C58 C 0.31371 0.60629 0.56452 0.0
C59 C 0.07848 0.84129 0.55446 0.0
Zn60 Zn 0.78426 0.29366 0.53083 0.0
Zn61 Zn 0.71878 0.21871 0.40652 0.0
C62 C 0.61076 0.32353 0.61417 0.0
O63 O 0.64768 0.40093 0.6037 0.0
C64 C 0.9083 0.215 0.33516 0.0
O65 O 0.87364 0.1363 0.33718 0.0
O66 O 0.86726 0.34378 0.59139 0.0
O67 O 0.86302 0.18636 0.49982 0.0
O68 O 0.74507 0.1171 0.45582 0.0
C69 C 0.92198 0.2926 0.61816 0.0
O70 O 0.94325 0.21582 0.5972 0.0
O71 O 0.65138 0.26162 0.58334 0.0
C72 C 0.64056 0.23463 0.30062 0.0
O73 O 0.65993 0.31435 0.31295 0.0
O74 O 0.65231 0.17674 0.3374 0.0
O75 O 0.61942 0.30705 0.44579 0.0
O76 O 0.741 0.38572 0.4775 0.0
O77 O 0.8582 0.26997 0.36849 0.0
C78 C 0.82328 0.11678 0.48475 0.0
C79 C 0.64819 0.37948 0.4624 0.0
C80 C 0.43828 0.52598 0.07218 0.0
C81 C 0.51202 0.56866 0.03123 0.0
C82 C 0.4507 0.48482 0.95352 0.0
C83 C 0.37374 0.44547 0.99443 0.0
N84 N 0.27297 0.44719 0.0893 0.0
N85 N 0.57501 0.6006 0.9317 0.0
C86 C 0.36057 0.47204 0.05275 0.0
C87 C 0.51425 0.55162 0.97144 0.0
N88 N 0.44467 0.53468 0.12961 0.0
N89 N 0.46283 0.45825 0.89746 0.0
H90 H 0.62351 0.64929 0.94325 0.0
H91 H 0.57125 0.59764 0.88757 0.0
H92 H 0.41008 0.41594 0.88198 0.0
H93 H 0.52684 0.4754 0.86704 0.0
H94 H 0.39916 0.49921 0.16142 0.0
H95 H 0.50292 0.57177 0.14487 0.0
H96 H 0.25433 0.47124 0.13094 0.0
H97 H 0.21342 0.40893 0.07615 0.0
C98 C 0.50789 0.56055 0.55004 0.0
C99 C 0.39913 0.54033 0.54753 0.0
C100 C 0.45524 0.4272 0.47812 0.0
C101 C 0.56421 0.4461 0.48095 0.0
N102 N 0.68798 0.55566 0.50089 0.0
N103 N 0.27849 0.42656 0.53078 0.0
C104 C 0.58909 0.52004 0.51159 0.0
C105 C 0.37516 0.46527 0.51805 0.0
N106 N 0.53445 0.61276 0.59257 0.0
N107 N 0.42702 0.37896 0.43406 0.0
H108 H 0.22363 0.44535 0.56573 0.0
H109 H 0.26079 0.3682 0.51285 0.0
H110 H 0.48216 0.36208 0.39874 0.0
H111 H 0.34776 0.36854 0.42805 0.0
H112 H 0.61302 0.6238 0.59954 0.0
H113 H 0.47799 0.63391 0.6261 0.0
H114 H 0.70756 0.61355 0.51871 0.0
H115 H 0.7446 0.53445 0.46757 0.0
C116 C -0.01049 0.02059 0.95965 0.0
C117 C 0.08154 0.02503 0.98759 0.0
C118 C -0.00481 0.9343 0.06473 0.0
C119 C 0.89937 0.93528 0.03885 0.0
N120 N 0.79907 0.00708 0.97024 0.0
N121 N 0.18682 0.95155 0.05134 0.0
C122 C 0.89409 0.9863 0.98879 0.0
C123 C 0.08937 0.97192 0.0358 0.0
N124 N -0.00363 0.04404 0.90319 0.0
N125 N -0.00632 0.90341 0.11936 0.0
H126 H 0.25825 0.96929 0.02709 0.0
H127 H 0.19716 0.90704 0.08328 0.0
H128 H 0.9231 0.88386 0.14372 0.0
H129 H 0.05791 0.90844 0.14291 0.0
H130 H 0.93494 0.0347 0.87815 0.0
H131 H 0.06968 0.06036 0.87998 0.0
H132 H 0.7936 0.05015 0.93674 0.0
H133 H 0.72472 0.99165 0.99187 0.0
C134 C 0.86992 0.01918 0.56258 0.0
C135 C 0.87002 0.03562 0.50294 0.0
C136 C 0.01145 0.93066 0.47891 0.0
C137 C 0.0124 0.91333 0.53823 0.0
N138 N 0.9526 0.94683 0.6377 0.0
N139 N 0.90755 0.9809 0.40634 0.0
C140 C 0.94375 0.9588 0.58063 0.0
C141 C 0.93091 0.98376 0.46154 0.0
N142 N 0.79423 0.05769 0.60124 0.0
N143 N 0.09173 0.90068 0.43922 0.0
H144 H 0.83899 0.00949 0.39476 0.0
H145 H 0.9454 0.93944 0.3752 0.0
H146 H 0.15529 0.86479 0.45076 0.0
H147 H 0.10154 0.92018 0.39626 0.0
H148 H 0.78158 0.04335 0.64498 0.0
H149 H 0.73689 0.09907 0.58825 0.0
H150 H 0.91163 0.98269 0.67098 0.0
H151 H 0.00765 0.90456 0.6518 0.0
C152 C 0.66297 0.17249 0.2001 0.0
C153 C 0.5987 0.21537 0.24588 0.0
C154 C 0.47214 0.2572 0.18047 0.0
C155 C 0.53345 0.2112 0.13524 0.0
N156 N 0.67625 0.1131 0.10342 0.0
N157 N 0.4294 0.27741 0.28349 0.0
C158 C 0.62533 0.16466 0.14559 0.0
C159 C 0.49935 0.25143 0.23714 0.0
N160 N 0.76195 0.14304 0.2078 0.0
N161 N 0.3883 0.30718 0.16925 0.0
H162 H 0.44532 0.26947 0.32579 0.0
H163 H 0.35149 0.29734 0.28066 0.0
H164 H 0.3628 0.31057 0.12881 0.0
H165 H 0.34809 0.34929 0.1991 0.0
H166 H 0.81796 0.12094 0.17439 0.0
H167 H 0.79058 0.14569 0.24738 0.0
H168 H 0.7373 0.07076 0.11007 0.0
H169 H 0.6519 0.10819 0.06262 0.0
C170 C 0.54565 0.77642 0.30662 0.0
C171 C 0.51455 0.74121 0.25569 0.0
C172 C 0.35704 0.67808 0.30979 0.0
C173 C 0.3902 0.70861 0.36199 0.0
N174 N 0.50324 0.8011 0.40979 0.0
N175 N 0.3735 0.69186 0.20576 0.0
C176 C 0.47976 0.76357 0.36025 0.0
C177 C 0.4139 0.70342 0.25651 0.0
N178 N 0.64026 0.8188 0.30356 0.0
N179 N 0.27424 0.62208 0.31076 0.0
H180 H 0.41445 0.71281 0.16661 0.0
H181 H 0.29654 0.67003 0.20319 0.0
H182 H 0.22574 0.60451 0.34823 0.0
H183 H 0.25644 0.58982 0.27428 0.0
H184 H 0.67589 0.8372 0.33925 0.0
H185 H 0.68329 0.83529 0.26406 0.0
H186 H 0.56201 0.84714 0.41086 0.0
H187 H 0.45979 0.78954 0.45004 0.0
C188 C 0.41855 0.89666 0.84404 0.0
C189 C 0.5041 0.84353 0.85644 0.0
C190 C 0.53642 0.79881 0.75512 0.0
C191 C 0.44004 0.83894 0.74592 0.0
N192 N 0.31619 0.95375 0.77132 0.0
N193 N 0.64901 0.74659 0.82351 0.0
C194 C 0.38958 0.89721 0.78713 0.0
C195 C 0.56661 0.79741 0.81144 0.0
N196 N 0.36204 0.94288 0.88739 0.0
N197 N 0.5983 0.76216 0.70927 0.0
H198 H 0.67397 0.74384 0.86401 0.0
H199 H 0.689 0.70326 0.79456 0.0
H200 H 0.57674 0.7648 0.66769 0.0
H201 H 0.67434 0.73717 0.71089 0.0
H202 H 0.29104 0.97495 0.88337 0.0
H203 H 0.38483 0.94655 0.92863 0.0
H204 H 0.2818 0.00261 0.79775 0.0
H205 H 0.29695 0.95661 0.72939 0.0
C206 C 0.56535 0.32165 0.72175 0.0
C207 C 0.53384 0.30772 0.66631 0.0
C208 C 0.35285 0.27428 0.71139 0.0
C209 C 0.38683 0.28396 0.76661 0.0
N210 N 0.53212 0.28943 0.82352 0.0
N211 N 0.40173 0.26039 0.60784 0.0
C212 C 0.49538 0.29842 0.77148 0.0
C213 C 0.42902 0.27979 0.66099 0.0
N214 N 0.66006 0.36035 0.72749 0.0
N215 N 0.24721 0.26216 0.70724 0.0
H216 H 0.45339 0.2688 0.56971 0.0
H217 H 0.33012 0.23154 0.60157 0.0
H218 H 0.19134 0.2514 0.74323 0.0
H219 H 0.21431 0.26592 0.66877 0.0
H220 H 0.67997 0.38115 0.76702 0.0
H221 H 0.71602 0.37715 0.69274 0.0
H222 H 0.61293 0.29153 0.82836 0.0
H223 H 0.48303 0.27074 0.86066 0.0
C224 C 0.88297 0.58838 0.28879 0.0
C225 C 0.92657 0.6514 0.2488 0.0
C226 C 0.04166 0.7025 0.31743 0.0
C227 C -0.00636 0.64339 0.35886 0.0
N228 N 0.89613 0.51336 0.37878 0.0
N229 N 0.07245 0.74467 0.2169 0.0
C230 C 0.92357 0.58036 0.34266 0.0
C231 C 0.01482 0.70029 0.26057 0.0
N232 N 0.79912 0.53994 0.27697 0.0
N233 N 0.11074 0.76237 0.33293 0.0
H234 H 0.05526 0.74142 0.17448 0.0
H235 H 0.14262 0.77713 0.22132 0.0
H236 H 0.13941 0.76122 0.37267 0.0
H237 H 0.13749 0.81409 0.30711 0.0
H238 H 0.75344 0.50273 0.30771 0.0
H239 H 0.77388 0.53832 0.23641 0.0
H240 H 0.85082 0.46186 0.3681 0.0
H241 H 0.92653 0.50625 0.41792 0.0
C242 C 0.09031 0.18756 0.28465 0.0
C243 C -0.00453 0.23684 0.2888 0.0
C244 C 0.0242 0.26368 0.18478 0.0
C245 C 0.11788 0.21226 0.18005 0.0
N246 N 0.25569 0.14491 0.22756 0.0
N247 N 0.89376 0.34564 0.2475 0.0
C248 C 0.1561 0.18061 0.23074 0.0
C249 C 0.97032 0.28351 0.24043 0.0
N250 N 0.11486 0.14463 0.33215 0.0
N251 N -0.01848 0.28798 0.13647 0.0
H252 H 0.85601 0.36317 0.28797 0.0
H253 H 0.87749 0.38632 0.21447 0.0
H254 H 0.01557 0.27236 0.0948 0.0
H255 H 0.90665 0.31666 0.13782 0.0
H256 H 0.17403 0.09787 0.33078 0.0
H257 H 0.07212 0.1538 0.37302 0.0
H258 H 0.29156 0.12783 0.26353 0.0
H259 H 0.30735 0.13954 0.18923 0.0
C260 C -0.00542 0.37194 0.6983 0.0
C261 C 0.92894 0.3069 0.68011 0.0
C262 C 0.89636 0.25003 0.77836 0.0
C263 C 0.97155 0.30853 0.79489 0.0
N264 N 0.05976 0.44405 0.77875 0.0
N265 N 0.79131 0.20208 0.70517 0.0
C266 C 0.00945 0.37635 0.75757 0.0
C267 C 0.8715 0.25146 0.72105 0.0
N268 N 0.04634 0.42644 0.65855 0.0
N269 N 0.85193 0.19141 0.81758 0.0
H270 H 0.7673 0.2056 0.66432 0.0
H271 H 0.74094 0.16462 0.73347 0.0
H272 H 0.86264 0.19443 0.86106 0.0
H273 H 0.80707 0.13936 0.80742 0.0
H274 H 0.10452 0.4694 0.66752 0.0
H275 H 0.03462 0.42583 0.61524 0.0
H276 H 0.08758 0.49679 0.75438 0.0
H277 H 0.06361 0.45193 0.82261 0.0
C278 C 0.93491 0.65101 0.78486 0.0
C279 C 0.01122 0.71285 0.76232 0.0
C280 C 0.00987 0.77395 0.85868 0.0
C281 C 0.9216 0.72295 0.87887 0.0
N282 N 0.82626 0.59247 0.86955 0.0
N283 N 0.10556 0.84396 0.77658 0.0
C284 C 0.89215 0.65457 0.84455 0.0
C285 C 0.04667 0.77604 0.79909 0.0
N286 N 0.90074 0.59157 0.74868 0.0
N287 N 0.05649 0.82214 0.89705 0.0
H288 H 0.12972 0.85247 0.73266 0.0
H289 H 0.11896 0.8974 0.80108 0.0
H290 H 0.02975 0.82035 0.94123 0.0
H291 H 0.12717 0.8558 0.88596 0.0
H292 H 0.83864 0.54916 0.76039 0.0
H293 H 0.93324 0.58612 0.70549 0.0
H294 H 0.80328 0.53886 0.84815 0.0
H295 H 0.80338 0.5901 0.91391 0.0
loop_
_geom_bond_atom_site_label_1
_geom_bond_atom_site_label_2
_geom_bond_distance
_geom_bond_site_symmetry_2
_ccdc_geom_bond_type
Zn0 O6 1.969 . S
Zn0 O7 1.965 . S
Zn0 O11 2.024 . S
Zn0 O16 1.969 . S
Zn1 O8 1.969 . S
Zn1 O14 1.969 . S
Zn1 O15 1.965 . S
Zn1 O17 2.024 . S
C2 O3 1.229 . S
C2 O11 1.058 . S
O3 C2 1.229 . S
C4 O5 1.229 . S
C4 O17 1.058 . S
O5 C4 1.229 . S
O6 Zn0 1.969 . S
O6 C9 1.267 . S
O7 Zn0 1.965 . S
O7 C18 1.260 1_556 S
O8 Zn1 1.969 . S
O8 C18 1.258 . S
C9 O6 1.267 . S
C9 O10 1.228 . S
O10 C9 1.228 . S
O11 Zn0 2.024 . S
O11 C2 1.058 . S
C12 O13 1.228 . S
C12 O14 1.267 . S
O13 C12 1.228 . S
O14 Zn1 1.969 . S
O14 C12 1.267 . S
O15 Zn1 1.965 . S
O15 C19 1.260 1_554 S
O16 Zn0 1.969 . S
O16 C19 1.258 . S
O17 Zn1 2.024 . S
O17 C4 1.058 . S
C18 O7 1.260 1_554 S
C18 O8 1.258 . S
C19 O15 1.260 1_556 S
C19 O16 1.258 . S
Zn20 O26 1.969 . S
Zn20 O27 1.965 . S
Zn20 O31 2.024 . S
Zn20 O36 1.969 . S
Zn21 O28 1.969 . S
Zn21 O34 1.969 . S
Zn21 O35 1.965 . S
Zn21 O37 2.024 . S
C22 O23 1.229 . S
C22 O31 1.058 . S
O23 C22 1.229 . S
C24 O25 1.229 . S
C24 O37 1.058 . S
O25 C24 1.229 . S
O26 Zn20 1.969 . S
O26 C29 1.267 . S
O27 Zn20 1.965 . S
O27 C38 1.260 1_556 S
O28 Zn21 1.969 . S
O28 C38 1.258 . S
C29 O26 1.267 . S
C29 O30 1.228 . S
O30 C29 1.228 . S
O31 Zn20 2.024 . S
O31 C22 1.058 . S
C32 O33 1.228 . S
C32 O34 1.267 . S
O33 C32 1.228 . S
O34 Zn21 1.969 . S
O34 C32 1.267 . S
O35 Zn21 1.965 . S
O35 C39 1.260 1_554 S
O36 Zn20 1.969 . S
O36 C39 1.258 . S
O37 Zn21 2.024 . S
O37 C24 1.058 . S
C38 O27 1.260 1_554 S
C38 O28 1.258 . S
C39 O35 1.260 1_556 S
C39 O36 1.258 . S
Zn40 O46 1.969 . S
Zn40 O47 1.965 . S
Zn40 O51 2.024 . S
Zn40 O56 1.969 . S
Zn41 O48 1.969 . S
Zn41 O54 1.969 . S
Zn41 O55 1.965 . S
Zn41 O57 2.024 . S
C42 O43 1.229 . S
C42 O51 1.058 . S
O43 C42 1.229 . S
C44 O45 1.229 . S
C44 O57 1.058 . S
O45 C44 1.229 . S
O46 Zn40 1.969 . S
O46 C49 1.267 . S
O47 Zn40 1.965 . S
O47 C58 1.260 . S
O48 Zn41 1.969 . S
O48 C58 1.258 . S
C49 O46 1.267 . S
C49 O50 1.228 . S
O50 C49 1.228 . S
O51 Zn40 2.024 . S
O51 C42 1.058 . S
C52 O53 1.228 . S
C52 O54 1.267 . S
O53 C52 1.228 . S
O54 Zn41 1.969 . S
O54 C52 1.267 . S
O55 Zn41 1.965 . S
O55 C59 1.260 . S
O56 Zn40 1.969 . S
O56 C59 1.258 . S
O57 Zn41 2.024 . S
O57 C44 1.058 . S
C58 O47 1.260 . S
C58 O48 1.258 . S
C59 O55 1.260 . S
C59 O56 1.258 . S
Zn60 O66 1.969 . S
Zn60 O67 1.965 . S
Zn60 O71 2.024 . S
Zn60 O76 1.969 . S
Zn61 O68 1.969 . S
Zn61 O74 1.969 . S
Zn61 O75 1.965 . S
Zn61 O77 2.024 . S
C62 O63 1.229 . S
C62 O71 1.058 . S
O63 C62 1.229 . S
C64 O65 1.229 . S
C64 O77 1.058 . S
O65 C64 1.229 . S
O66 Zn60 1.969 . S
O66 C69 1.267 . S
O67 Zn60 1.965 . S
O67 C78 1.260 . S
O68 Zn61 1.969 . S
O68 C78 1.258 . S
C69 O66 1.267 . S
C69 O70 1.228 . S
O70 C69 1.228 . S
O71 Zn60 2.024 . S
O71 C62 1.058 . S
C72 O73 1.228 . S
C72 O74 1.267 . S
O73 C72 1.228 . S
O74 Zn61 1.969 . S
O74 C72 1.267 . S
O75 Zn61 1.965 . S
O75 C79 1.260 . S
O76 Zn60 1.969 . S
O76 C79 1.258 . S
O77 Zn61 2.024 . S
O77 C64 1.058 . S
C78 O67 1.260 . S
C78 O68 1.258 . S
C79 O75 1.260 . S
C79 O76 1.258 . S
C80 C81 1.363 1_554 S
C80 C86 1.379 . S
C80 N88 1.356 . S
C81 C80 1.363 1_556 S
C81 C87 1.363 . S
C82 C83 1.363 1_556 S
C82 C87 1.379 . S
C82 N89 1.356 . S
C83 C82 1.363 1_554 S
C83 C86 1.363 . S
N84 C86 1.356 . S
N84 H96 0.984 . S
N84 H97 0.985 . S
N85 C87 1.356 . S
N85 H90 0.984 . S
N85 H91 0.985 . S
C86 C80 1.379 . S
C86 C83 1.363 . S
C86 N84 1.356 . S
C87 C81 1.363 . S
C87 C82 1.379 . S
C87 N85 1.356 . S
N88 C80 1.356 . S
N88 H94 0.984 . S
N88 H95 0.984 . S
N89 C82 1.356 . S
N89 H92 0.984 . S
N89 H93 0.985 . S
H90 N85 0.984 . S
H91 N85 0.985 . S
H92 N89 0.984 . S
H93 N89 0.985 . S
H94 N88 0.984 . S
H95 N88 0.984 . S
H96 N84 0.984 . S
H97 N84 0.985 . S
C98 C99 1.363 . S
C98 C104 1.379 . S
C98 N106 1.356 . S
C99 C98 1.363 . S
C99 C105 1.363 . S
C100 C101 1.363 . S
C100 C105 1.379 . S
C100 N107 1.356 . S
C101 C100 1.363 . S
C101 C104 1.363 . S
N102 C104 1.356 . S
N102 H114 0.984 . S
N102 H115 0.985 . S
N103 C105 1.356 . S
N103 H108 0.984 . S
N103 H109 0.985 . S
C104 C98 1.379 . S
C104 C101 1.363 . S
C104 N102 1.356 . S
C105 C99 1.363 . S
C105 C100 1.379 . S
C105 N103 1.356 . S
N106 C98 1.356 . S
N106 H112 0.984 . S
N106 H113 0.984 . S
N107 C100 1.356 . S
N107 H110 0.984 . S
N107 H111 0.985 . S
H108 N103 0.984 . S
H109 N103 0.985 . S
H110 N107 0.984 . S
H111 N107 0.985 . S
H112 N106 0.984 . S
H113 N106 0.984 . S
H114 N102 0.984 . S
H115 N102 0.985 . S
C116 C117 1.363 . S
C116 C122 1.379 1_455 S
C116 N124 1.356 . S
C117 C116 1.363 . S
C117 C123 1.363 1_546 S
C118 C119 1.363 . S
C118 C123 1.379 1_655 S
C118 N125 1.356 . S
C119 C118 1.363 . S
C119 C122 1.363 1_564 S
N120 C122 1.356 1_565 S
N120 H132 0.984 1_565 S
N120 H133 0.985 . S
N121 C123 1.356 1_545 S
N121 H126 0.984 . S
N121 H127 0.985 1_545 S
C122 C116 1.379 1_655 S
C122 C119 1.363 1_546 S
C122 N120 1.356 1_545 S
C123 C117 1.363 1_564 S
C123 C118 1.379 1_455 S
C123 N121 1.356 1_565 S
N124 C116 1.356 . S
N124 H130 0.984 . S
N124 H131 0.984 . S
N125 C118 1.356 . S
N125 H128 0.984 . S
N125 H129 0.985 . S
H126 N121 0.984 . S
H127 N121 0.985 1_565 S
H128 N125 0.984 . S
H129 N125 0.985 . S
H130 N124 0.984 . S
H131 N124 0.984 . S
H132 N120 0.984 1_545 S
H133 N120 0.985 . S
C134 C135 1.363 . S
C134 C140 1.379 1_655 S
C134 N142 1.356 . S
C135 C134 1.363 . S
C135 C141 1.363 1_545 S
C136 C137 1.363 . S
C136 C141 1.379 1_455 S
C136 N143 1.356 . S
C137 C136 1.363 . S
C137 C140 1.363 1_565 S
N138 C140 1.356 1_565 S
N138 H150 0.984 1_565 S
N138 H151 0.985 . S
N139 C141 1.356 1_545 S
N139 H144 0.984 . S
N139 H145 0.985 1_545 S
C140 C134 1.379 1_455 S
C140 C137 1.363 1_545 S
C140 N138 1.356 1_545 S
C141 C135 1.363 1_565 S
C141 C136 1.379 1_655 S
C141 N139 1.356 1_565 S
N142 C134 1.356 . S
N142 H148 0.984 . S
N142 H149 0.984 . S
N143 C136 1.356 . S
N143 H146 0.984 . S
N143 H147 0.985 . S
H144 N139 0.984 . S
H145 N139 0.985 1_565 S
H146 N143 0.984 . S
H147 N143 0.985 . S
H148 N142 0.984 . S
H149 N142 0.984 . S
H150 N138 0.984 1_545 S
H151 N138 0.985 . S
C152 C153 1.363 . S
C152 C158 1.379 . S
C152 N160 1.356 . S
C153 C152 1.363 . S
C153 C159 1.363 . S
C154 C155 1.363 . S
C154 C159 1.379 . S
C154 N161 1.356 . S
C155 C154 1.363 . S
C155 C158 1.363 . S
N156 C158 1.356 . S
N156 H168 0.984 . S
N156 H169 0.985 . S
N157 C159 1.356 . S
N157 H162 0.984 . S
N157 H163 0.985 . S
C158 C152 1.379 . S
C158 C155 1.363 . S
C158 N156 1.356 . S
C159 C153 1.363 . S
C159 C154 1.379 . S
C159 N157 1.356 . S
N160 C152 1.356 . S
N160 H166 0.984 . S
N160 H167 0.984 . S
N161 C154 1.356 . S
N161 H164 0.984 . S
N161 H165 0.985 . S
H162 N157 0.984 . S
H163 N157 0.985 . S
H164 N161 0.984 . S
H165 N161 0.985 . S
H166 N160 0.984 . S
H167 N160 0.984 . S
H168 N156 0.984 . S
H169 N156 0.985 . S
C170 C171 1.363 . S
C170 C176 1.379 . S
C170 N178 1.356 . S
C171 C170 1.363 . S
C171 C177 1.363 . S
C172 C173 1.363 . S
C172 C177 1.379 . S
C172 N179 1.356 . S
C173 C172 1.363 . S
C173 C176 1.363 . S
N174 C176 1.356 . S
N174 H186 0.984 . S
N174 H187 0.985 . S
N175 C177 1.356 . S
N175 H180 0.984 . S
N175 H181 0.985 . S
C176 C170 1.379 . S
C176 C173 1.363 . S
C176 N174 1.356 . S
C177 C171 1.363 . S
C177 C172 1.379 . S
C177 N175 1.356 . S
N178 C170 1.356 . S
N178 H184 0.984 . S
N178 H185 0.984 . S
N179 C172 1.356 . S
N179 H182 0.984 . S
N179 H183 0.985 . S
H180 N175 0.984 . S
H181 N175 0.985 . S
H182 N179 0.984 . S
H183 N179 0.985 . S
H184 N178 0.984 . S
H185 N178 0.984 . S
H186 N174 0.984 . S
H187 N174 0.985 . S
C188 C189 1.363 . S
C188 C194 1.379 . S
C188 N196 1.356 . S
C189 C188 1.363 . S
C189 C195 1.363 . S
C190 C191 1.363 . S
C190 C195 1.379 . S
C190 N197 1.356 . S
C191 C190 1.363 . S
C191 C194 1.363 . S
N192 C194 1.356 . S
N192 H204 0.984 . S
N192 H205 0.985 . S
N193 C195 1.356 . S
N193 H198 0.984 . S
N193 H199 0.985 . S
C194 C188 1.379 . S
C194 C191 1.363 . S
C194 N192 1.356 . S
C195 C189 1.363 . S
C195 C190 1.379 . S
C195 N193 1.356 . S
N196 C188 1.356 . S
N196 H202 0.984 . S
N196 H203 0.984 . S
N197 C190 1.356 . S
N197 H200 0.984 . S
N197 H201 0.985 . S
H198 N193 0.984 . S
H199 N193 0.985 . S
H200 N197 0.984 . S
H201 N197 0.985 . S
H202 N196 0.984 . S
H203 N196 0.984 . S
H204 N192 0.984 . S
H205 N192 0.985 . S
C206 C207 1.363 . S
C206 C212 1.379 . S
C206 N214 1.356 . S
C207 C206 1.363 . S
C207 C213 1.363 . S
C208 C209 1.363 . S
C208 C213 1.379 . S
C208 N215 1.356 . S
C209 C208 1.363 . S
C209 C212 1.363 . S
N210 C212 1.356 . S
N210 H222 0.984 . S
N210 H223 0.985 . S
N211 C213 1.356 . S
N211 H216 0.984 . S
N211 H217 0.985 . S
C212 C206 1.379 . S
C212 C209 1.363 . S
C212 N210 1.356 . S
C213 C207 1.363 . S
C213 C208 1.379 . S
C213 N211 1.356 . S
N214 C206 1.356 . S
N214 H220 0.984 . S
N214 H221 0.984 . S
N215 C208 1.356 . S
N215 H218 0.984 . S
N215 H219 0.985 . S
H216 N211 0.984 . S
H217 N211 0.985 . S
H218 N215 0.984 . S
H219 N215 0.985 . S
H220 N214 0.984 . S
H221 N214 0.984 . S
H222 N210 0.984 . S
H223 N210 0.985 . S
C224 C225 1.363 . S
C224 C230 1.379 . S
C224 N232 1.356 . S
C225 C224 1.363 . S
C225 C231 1.363 1_655 S
C226 C227 1.363 . S
C226 C231 1.379 . S
C226 N233 1.356 . S
C227 C226 1.363 . S
C227 C230 1.363 1_455 S
N228 C230 1.356 . S
N228 H240 0.984 . S
N228 H241 0.985 . S
N229 C231 1.356 . S
N229 H234 0.984 . S
N229 H235 0.985 . S
C230 C224 1.379 . S
C230 C227 1.363 1_655 S
C230 N228 1.356 . S
C231 C225 1.363 1_455 S
C231 C226 1.379 . S
C231 N229 1.356 . S
N232 C224 1.356 . S
N232 H238 0.984 . S
N232 H239 0.984 . S
N233 C226 1.356 . S
N233 H236 0.984 . S
N233 H237 0.985 . S
H234 N229 0.984 . S
H235 N229 0.985 . S
H236 N233 0.984 . S
H237 N233 0.985 . S
H238 N232 0.984 . S
H239 N232 0.984 . S
H240 N228 0.984 . S
H241 N228 0.985 . S
C242 C243 1.363 1_455 S
C242 C248 1.379 . S
C242 N250 1.356 . S
C243 C242 1.363 1_655 S
C243 C249 1.363 . S
C244 C245 1.363 1_655 S
C244 C249 1.379 . S
C244 N251 1.356 . S
C245 C244 1.363 1_455 S
C245 C248 1.363 . S
N246 C248 1.356 . S
N246 H258 0.984 . S
N246 H259 0.985 . S
N247 C249 1.356 . S
N247 H252 0.984 . S
N247 H253 0.985 . S
C248 C242 1.379 . S
C248 C245 1.363 . S
C248 N246 1.356 . S
C249 C243 1.363 . S
C249 C244 1.379 . S
C249 N247 1.356 . S
N250 C242 1.356 . S
N250 H256 0.984 . S
N250 H257 0.984 . S
N251 C244 1.356 . S
N251 H254 0.984 . S
N251 H255 0.985 . S
H252 N247 0.984 . S
H253 N247 0.985 . S
H254 N251 0.984 . S
H255 N251 0.985 . S
H256 N250 0.984 . S
H257 N250 0.984 . S
H258 N246 0.984 . S
H259 N246 0.985 . S
C260 C261 1.363 1_455 S
C260 C266 1.379 . S
C260 N268 1.356 . S
C261 C260 1.363 1_655 S
C261 C267 1.363 . S
C262 C263 1.363 1_655 S
C262 C267 1.379 . S
C262 N269 1.356 . S
C263 C262 1.363 1_455 S
C263 C266 1.363 . S
N264 C266 1.356 . S
N264 H276 0.984 . S
N264 H277 0.985 . S
N265 C267 1.356 . S
N265 H270 0.984 . S
N265 H271 0.985 . S
C266 C260 1.379 . S
C266 C263 1.363 . S
C266 N264 1.356 . S
C267 C261 1.363 . S
C267 C262 1.379 . S
C267 N265 1.356 . S
N268 C260 1.356 . S
N268 H274 0.984 . S
N268 H275 0.984 . S
N269 C262 1.356 . S
N269 H272 0.984 . S
N269 H273 0.985 . S
H270 N265 0.984 . S
H271 N265 0.985 . S
H272 N269 0.984 . S
H273 N269 0.985 . S
H274 N268 0.984 . S
H275 N268 0.984 . S
H276 N264 0.984 . S
H277 N264 0.985 . S
C278 C279 1.363 1_655 S
C278 C284 1.379 . S
C278 N286 1.356 . S
C279 C278 1.363 1_455 S
C279 C285 1.363 . S
C280 C281 1.363 1_455 S
C280 C285 1.379 . S
C280 N287 1.356 . S
C281 C280 1.363 1_655 S
C281 C284 1.363 . S
N282 C284 1.356 . S
N282 H294 0.984 . S
N282 H295 0.985 . S
N283 C285 1.356 . S
N283 H288 0.984 . S
N283 H289 0.985 . S
C284 C278 1.379 . S
C284 C281 1.363 . S
C284 N282 1.356 . S
C285 C279 1.363 . S
C285 C280 1.379 . S
C285 N283 1.356 . S
N286 C278 1.356 . S
N286 H292 0.984 . S
N286 H293 0.984 . S
N287 C280 1.356 . S
N287 H290 0.984 . S
N287 H291 0.985 . S
H288 N283 0.984 . S
H289 N283 0.985 . S
H290 N287 0.984 . S
H291 N287 0.985 . S
H292 N286 0.984 . S
H293 N286 0.984 . S
H294 N282 0.984 . S
H295 N282 0.985 . S
C81 C38 1.502 1_556 S
C83 C19 1.502 1_554 S
C99 C58 1.502 . S
C101 C79 1.502 . S
C117 C18 1.502 1_556 S
C119 C39 1.502 1_554 S
C135 C78 1.502 . S
C137 C59 1.502 . S
C153 C72 1.288 . S
C155 C12 1.288 . S
C171 C24 1.120 . S
C173 C44 1.120 . S
C189 C29 1.288 . S
C191 C49 1.288 . S
C207 C62 1.120 . S
C209 C2 1.120 . S
C225 C32 1.288 . S
C227 C52 1.288 . S
C243 C64 1.120 . S
C245 C4 1.120 . S
C261 C69 1.288 . S
C263 C9 1.288 . S
C279 C42 1.120 . S
C281 C22 1.120 . S
