# Generated by pormake.
# Topology sxg, (6)-cn, num edge types: 1
# Building blocks:
#     Node 0, Type 0, BuildingBlock: UKALOJ_clean_sbu_0, # of connection points: 6
#     Node 1, Type 0, BuildingBlock: UKALOJ_clean_sbu_0, # of connection points: 6
#     Node 2, Type 0, BuildingBlock: UKALOJ_clean_sbu_0, # of connection points: 6
#     Node 3, Type 0, BuildingBlock: UKALOJ_clean_sbu_0, # of connection points: 6
#     Node 4, Type 0, BuildingBlock: UKALOJ_clean_sbu_0, # of connection points: 6
#     Node 5, Type 0, BuildingBlock: UKALOJ_clean_sbu_0, # of connection points: 6
#     Node 6, Type 0, BuildingBlock: UKALOJ_clean_sbu_0, # of connection points: 6
#     Node 7, Type 0, BuildingBlock: UKALOJ_clean_sbu_0, # of connection points: 6
#     Node 8, Type 0, BuildingBlock: UKALOJ_clean_sbu_0, # of connection points: 6
#     Node 9, Type 0, BuildingBlock: UKALOJ_clean_sbu_0, # of connection points: 6
#     Node 10, Type 0, BuildingBlock: UKALOJ_clean_sbu_0, # of connection points: 6
#     Node 11, Type 0, BuildingBlock: UKALOJ_clean_sbu_0, # of connection points: 6
#     Node 12, Type 0, BuildingBlock: UKALOJ_clean_sbu_0, # of connection points: 6
#     Node 13, Type 0, BuildingBlock: UKALOJ_clean_sbu_0, # of connection points: 6
#     Node 14, Type 0, BuildingBlock: UKALOJ_clean_sbu_0, # of connection points: 6
#     Node 15, Type 0, BuildingBlock: UKALOJ_clean_sbu_0, # of connection points: 6
#     Node 16, Type 0, BuildingBlock: UKALOJ_clean_sbu_0, # of connection points: 6
#     Node 17, Type 0, BuildingBlock: UKALOJ_clean_sbu_0, # of connection points: 6
#     Node 18, Type 0, BuildingBlock: UKALOJ_clean_sbu_0, # of connection points: 6
#     Node 19, Type 0, BuildingBlock: UKALOJ_clean_sbu_0, # of connection points: 6
#     Node 20, Type 0, BuildingBlock: UKALOJ_clean_sbu_0, # of connection points: 6
#     Node 21, Type 0, BuildingBlock: UKALOJ_clean_sbu_0, # of connection points: 6
#     Node 22, Type 0, BuildingBlock: UKALOJ_clean_sbu_0, # of connection points: 6
#     Node 23, Type 0, BuildingBlock: UKALOJ_clean_sbu_0, # of connection points: 6
#     Edge 24, Type (0, 0), BuildingBlock: AJUNOK_clean_linker_0, # of connection points: 2
#     Edge 25, Type (0, 0), BuildingBlock: AJUNOK_clean_linker_0, # of connection points: 2
#     Edge 26, Type (0, 0), BuildingBlock: AJUNOK_clean_linker_0, # of connection points: 2
#     Edge 27, Type (0, 0), BuildingBlock: AJUNOK_clean_linker_0, # of connection points: 2
#     Edge 28, Type (0, 0), BuildingBlock: AJUNOK_clean_linker_0, # of connection points: 2
#     Edge 29, Type (0, 0), BuildingBlock: AJUNOK_clean_linker_0, # of connection points: 2
#     Edge 30, Type (0, 0), BuildingBlock: AJUNOK_clean_linker_0, # of connection points: 2
#     Edge 31, Type (0, 0), BuildingBlock: AJUNOK_clean_linker_0, # of connection points: 2
#     Edge 32, Type (0, 0), BuildingBlock: AJUNOK_clean_linker_0, # of connection points: 2
#     Edge 33, Type (0, 0), BuildingBlock: AJUNOK_clean_linker_0, # of connection points: 2
#     Edge 34, Type (0, 0), BuildingBlock: AJUNOK_clean_linker_0, # of connection points: 2
#     Edge 35, Type (0, 0), BuildingBlock: AJUNOK_clean_linker_0, # of connection points: 2
#     Edge 36, Type (0, 0), BuildingBlock: AJUNOK_clean_linker_0, # of connection points: 2
#     Edge 37, Type (0, 0), BuildingBlock: AJUNOK_clean_linker_0, # of connection points: 2
#     Edge 38, Type (0, 0), BuildingBlock: AJUNOK_clean_linker_0, # of connection points: 2
#     Edge 39, Type (0, 0), BuildingBlock: AJUNOK_clean_linker_0, # of connection points: 2
#     Edge 40, Type (0, 0), BuildingBlock: AJUNOK_clean_linker_0, # of connection points: 2
#     Edge 41, Type (0, 0), BuildingBlock: AJUNOK_clean_linker_0, # of connection points: 2
#     Edge 42, Type (0, 0), BuildingBlock: AJUNOK_clean_linker_0, # of connection points: 2
#     Edge 43, Type (0, 0), BuildingBlock: AJUNOK_clean_linker_0, # of connection points: 2
#     Edge 44, Type (0, 0), BuildingBlock: AJUNOK_clean_linker_0, # of connection points: 2
#     Edge 45, Type (0, 0), BuildingBlock: AJUNOK_clean_linker_0, # of connection points: 2
#     Edge 46, Type (0, 0), BuildingBlock: AJUNOK_clean_linker_0, # of connection points: 2
#     Edge 47, Type (0, 0), BuildingBlock: AJUNOK_clean_linker_0, # of connection points: 2
#     Edge 48, Type (0, 0), BuildingBlock: AJUNOK_clean_linker_0, # of connection points: 2
#     Edge 49, Type (0, 0), BuildingBlock: AJUNOK_clean_linker_0, # of connection points: 2
#     Edge 50, Type (0, 0), BuildingBlock: AJUNOK_clean_linker_0, # of connection points: 2
#     Edge 51, Type (0, 0), BuildingBlock: AJUNOK_clean_linker_0, # of connection points: 2
#     Edge 52, Type (0, 0), BuildingBlock: AJUNOK_clean_linker_0, # of connection points: 2
#     Edge 53, Type (0, 0), BuildingBlock: AJUNOK_clean_linker_0, # of connection points: 2
#     Edge 54, Type (0, 0), BuildingBlock: AJUNOK_clean_linker_0, # of connection points: 2
#     Edge 55, Type (0, 0), BuildingBlock: AJUNOK_clean_linker_0, # of connection points: 2
#     Edge 56, Type (0, 0), BuildingBlock: AJUNOK_clean_linker_0, # of connection points: 2
#     Edge 57, Type (0, 0), BuildingBlock: AJUNOK_clean_linker_0, # of connection points: 2
#     Edge 58, Type (0, 0), BuildingBlock: AJUNOK_clean_linker_0, # of connection points: 2
#     Edge 59, Type (0, 0), BuildingBlock: AJUNOK_clean_linker_0, # of connection points: 2
#     Edge 60, Type (0, 0), BuildingBlock: AJUNOK_clean_linker_0, # of connection points: 2
#     Edge 61, Type (0, 0), BuildingBlock: AJUNOK_clean_linker_0, # of connection points: 2
#     Edge 62, Type (0, 0), BuildingBlock: AJUNOK_clean_linker_0, # of connection points: 2
#     Edge 63, Type (0, 0), BuildingBlock: AJUNOK_clean_linker_0, # of connection points: 2
#     Edge 64, Type (0, 0), BuildingBlock: AJUNOK_clean_linker_0, # of connection points: 2
#     Edge 65, Type (0, 0), BuildingBlock: AJUNOK_clean_linker_0, # of connection points: 2
#     Edge 66, Type (0, 0), BuildingBlock: AJUNOK_clean_linker_0, # of connection points: 2
#     Edge 67, Type (0, 0), BuildingBlock: AJUNOK_clean_linker_0, # of connection points: 2
#     Edge 68, Type (0, 0), BuildingBlock: AJUNOK_clean_linker_0, # of connection points: 2
#     Edge 69, Type (0, 0), BuildingBlock: AJUNOK_clean_linker_0, # of connection points: 2
#     Edge 70, Type (0, 0), BuildingBlock: AJUNOK_clean_linker_0, # of connection points: 2
#     Edge 71, Type (0, 0), BuildingBlock: AJUNOK_clean_linker_0, # of connection points: 2
#     Edge 72, Type (0, 0), BuildingBlock: AJUNOK_clean_linker_0, # of connection points: 2
#     Edge 73, Type (0, 0), BuildingBlock: AJUNOK_clean_linker_0, # of connection points: 2
#     Edge 74, Type (0, 0), BuildingBlock: AJUNOK_clean_linker_0, # of connection points: 2
#     Edge 75, Type (0, 0), BuildingBlock: AJUNOK_clean_linker_0, # of connection points: 2
#     Edge 76, Type (0, 0), BuildingBlock: AJUNOK_clean_linker_0, # of connection points: 2
#     Edge 77, Type (0, 0), BuildingBlock: AJUNOK_clean_linker_0, # of connection points: 2
#     Edge 78, Type (0, 0), BuildingBlock: AJUNOK_clean_linker_0, # of connection points: 2
#     Edge 79, Type (0, 0), BuildingBlock: AJUNOK_clean_linker_0, # of connection points: 2
#     Edge 80, Type (0, 0), BuildingBlock: AJUNOK_clean_linker_0, # of connection points: 2
#     Edge 81, Type (0, 0), BuildingBlock: AJUNOK_clean_linker_0, # of connection points: 2
#     Edge 82, Type (0, 0), BuildingBlock: AJUNOK_clean_linker_0, # of connection points: 2
#     Edge 83, Type (0, 0), BuildingBlock: AJUNOK_clean_linker_0, # of connection points: 2
#     Edge 84, Type (0, 0), BuildingBlock: AJUNOK_clean_linker_0, # of connection points: 2
#     Edge 85, Type (0, 0), BuildingBlock: AJUNOK_clean_linker_0, # of connection points: 2
#     Edge 86, Type (0, 0), BuildingBlock: AJUNOK_clean_linker_0, # of connection points: 2
#     Edge 87, Type (0, 0), BuildingBlock: AJUNOK_clean_linker_0, # of connection points: 2
#     Edge 88, Type (0, 0), BuildingBlock: AJUNOK_clean_linker_0, # of connection points: 2
#     Edge 89, Type (0, 0), BuildingBlock: AJUNOK_clean_linker_0, # of connection points: 2
#     Edge 90, Type (0, 0), BuildingBlock: AJUNOK_clean_linker_0, # of connection points: 2
#     Edge 91, Type (0, 0), BuildingBlock: AJUNOK_clean_linker_0, # of connection points: 2
#     Edge 92, Type (0, 0), BuildingBlock: AJUNOK_clean_linker_0, # of connection points: 2
#     Edge 93, Type (0, 0), BuildingBlock: AJUNOK_clean_linker_0, # of connection points: 2
#     Edge 94, Type (0, 0), BuildingBlock: AJUNOK_clean_linker_0, # of connection points: 2
#     Edge 95, Type (0, 0), BuildingBlock: AJUNOK_clean_linker_0, # of connection points: 2
# Relax obj value: 0.320
# Max RMSD: 0.292
# Mean RMSD: 0.292
data_MOF--net-sxg--node1-UKALOJ_clean_sbu_0--edge1-AJUNOK_clean_linker_0
_symmetry_space_group_name_H-M    P1
_symmetry_Int_Tables_number       1
_symmetry_cell_setting            triclinic
loop_
_symmetry_equiv_pos_as_xyz
'x, y, z'
_cell_length_a     36.33932
_cell_length_b     36.401575
_cell_length_c     36.342527
_cell_angle_alpha  89.98595
_cell_angle_beta   89.990733
_cell_angle_gamma 89.946673
loop_
_atom_site_label
_atom_site_type_symbol
_atom_site_fract_x
_atom_site_fract_y
_atom_site_fract_z
_atom_type_partial_charge
Zn0 Zn 0.0292 0.27535 0.19409 0.0
O1 O 0.99005 0.27469 0.23623 0.0
C2 C 0.0209 0.35799 0.19879 0.0
Zn3 Zn 0.06784 0.30285 0.23268 0.0
C4 C 0.99553 0.28957 0.26736 0.0
O5 O 0.02702 0.30305 0.27461 0.0
C6 C 0.10161 0.28657 0.15815 0.0
O7 O 0.08554 0.25124 0.24914 0.0
O8 O 0.04905 0.22097 0.21161 0.0
N9 N 0.10499 0.32723 0.2667 0.0
C10 C 0.12786 0.35542 0.25942 0.0
C11 C 0.13464 0.34184 0.3161 0.0
N12 N 0.10922 0.31874 0.30194 0.0
N13 N 0.14672 0.3648 0.28972 0.0
C14 C 0.96003 0.27233 0.14398 0.0
C15 C 0.97859 0.23739 0.10086 0.0
N16 N 0.99146 0.25603 0.15581 0.0
N17 N 1.0025 0.23393 0.12905 0.0
N18 N 0.95187 0.2617 0.10929 0.0
H19 H 0.94908 0.30496 0.19304 0.0
H20 H 0.90961 0.29328 0.16661 0.0
H21 H 0.94027 0.32766 0.14952 0.0
C22 C 0.93894 0.30123 0.16469 0.0
C23 C 0.13015 0.37619 0.22375 0.0
H24 H 0.15876 0.3751 0.21323 0.0
H25 H 0.12361 0.40554 0.22885 0.0
H26 H 0.11155 0.36563 0.20233 0.0
O27 O 0.1083 0.30096 0.18936 0.0
O28 O 0.06942 0.27489 0.15163 0.0
C29 C 0.07379 0.22081 0.23681 0.0
O30 O 0.0103 0.33017 0.1806 0.0
O31 O 0.04865 0.35476 0.21938 0.0
Zn32 Zn 0.48142 0.73025 0.69794 0.0
O33 O 0.52188 0.73034 0.73936 0.0
C34 C 0.49061 0.64867 0.70151 0.0
Zn35 Zn 0.44121 0.70303 0.73508 0.0
C36 C 0.51438 0.71571 0.77025 0.0
O37 O 0.48218 0.70364 0.77653 0.0
C38 C 0.40743 0.71905 0.66199 0.0
O39 O 0.42266 0.75379 0.75239 0.0
O40 O 0.4604 0.78433 0.71625 0.0
N41 N 0.40619 0.67724 0.77016 0.0
C42 C 0.38385 0.64854 0.76346 0.0
C43 C 0.38149 0.65933 0.82112 0.0
N44 N 0.4048 0.68394 0.80598 0.0
N45 N 0.36832 0.6368 0.7949 0.0
C46 C 0.54852 0.73545 0.64599 0.0
C47 C 0.52472 0.76382 0.60071 0.0
N48 N 0.51667 0.75065 0.65804 0.0
N49 N 0.50223 0.76851 0.62979 0.0
N50 N 0.55364 0.74236 0.6097 0.0
H51 H 0.57806 0.73473 0.69693 0.0
H52 H 0.6044 0.71896 0.65809 0.0
H53 H 0.56923 0.6901 0.67786 0.0
C54 C 0.57674 0.71877 0.67101 0.0
C55 C 0.37472 0.63392 0.72586 0.0
H56 H 0.35104 0.64968 0.71481 0.0
H57 H 0.36657 0.60465 0.72674 0.0
H58 H 0.39795 0.63689 0.70652 0.0
O59 O 0.39998 0.70431 0.69282 0.0
O60 O 0.44003 0.73001 0.65633 0.0
C61 C 0.43512 0.78425 0.74095 0.0
O62 O 0.50189 0.67666 0.684 0.0
O63 O 0.46151 0.65147 0.72035 0.0
Zn64 Zn 0.56305 0.20198 0.7742 0.0
O65 O 0.58372 0.25175 0.75456 0.0
C66 C 0.60032 0.21489 0.84526 0.0
Zn67 Zn 0.52631 0.23296 0.81157 0.0
C68 C 0.57579 0.28279 0.76855 0.0
O69 O 0.55249 0.28427 0.79501 0.0
C70 C 0.512 0.15111 0.80899 0.0
O71 O 0.48542 0.24112 0.77203 0.0
O72 O 0.518 0.20472 0.73622 0.0
N73 N 0.49555 0.2563 0.85322 0.0
C74 C 0.46554 0.24206 0.86993 0.0
C75 C 0.49194 0.27675 0.90896 0.0
N76 N 0.51169 0.27812 0.87753 0.0
N77 N 0.46323 0.25372 0.90508 0.0
C78 C 0.62747 0.16116 0.73619 0.0
C79 C 0.59738 0.123 0.70357 0.0
N80 N 0.592 0.17181 0.73675 0.0
N81 N 0.57349 0.14841 0.71592 0.0
N82 N 0.63143 0.13004 0.71628 0.0
H83 H 0.65152 0.21292 0.75141 0.0
H84 H 0.68411 0.17836 0.73572 0.0
H85 H 0.6638 0.17515 0.78048 0.0
C86 C 0.65855 0.18324 0.75173 0.0
C87 C 0.43689 0.21898 0.85134 0.0
H88 H 0.43909 0.22091 0.82101 0.0
H89 H 0.4091 0.22806 0.86013 0.0
H90 H 0.43984 0.18996 0.85979 0.0
O91 O 0.50049 0.18068 0.82352 0.0
O92 O 0.54227 0.15175 0.7919 0.0
C93 C 0.48898 0.22342 0.74215 0.0
O94 O 0.60713 0.20079 0.81391 0.0
O95 O 0.56805 0.22643 0.85171 0.0
Zn96 Zn 0.94444 0.80648 0.26728 0.0
O97 O 0.92743 0.75639 0.24657 0.0
C98 C 0.90557 0.79108 0.33759 0.0
Zn99 Zn 0.98061 0.77718 0.30614 0.0
C100 C 0.93438 0.72561 0.26142 0.0
O101 O 0.95561 0.7246 0.28966 0.0
C102 C 0.99251 0.85948 0.30248 0.0
O103 O 0.02202 0.77007 0.26674 0.0
O104 O 0.99036 0.8071 0.23076 0.0
N105 N 0.01222 0.75577 0.34836 0.0
C106 C 0.04378 0.7696 0.36246 0.0
C107 C 0.01595 0.74219 0.40605 0.0
N108 N 0.99525 0.73848 0.37554 0.0
N109 N 0.04621 0.76242 0.39899 0.0
C110 C 0.87902 0.84659 0.22989 0.0
C111 C 0.90787 0.88082 0.19231 0.0
N112 N 0.91414 0.83479 0.22905 0.0
N113 N 0.93178 0.85562 0.20502 0.0
N114 N 0.87453 0.87621 0.20785 0.0
H115 H 0.85428 0.79607 0.24678 0.0
H116 H 0.82185 0.83143 0.23359 0.0
H117 H 0.84549 0.83448 0.27697 0.0
C118 C 0.8483 0.82593 0.24785 0.0
C119 C 0.07431 0.7851 0.33938 0.0
H120 H 0.06941 0.81449 0.33352 0.0
H121 H 0.07577 0.77042 0.3127 0.0
H122 H 0.10116 0.78237 0.35368 0.0
O123 O 0.00503 0.83036 0.31723 0.0
O124 O 0.96176 0.85774 0.28627 0.0
C125 C 0.01936 0.78863 0.23726 0.0
O126 O 0.89965 0.80359 0.30545 0.0
O127 O 0.93827 0.78296 0.34651 0.0
Zn128 Zn 0.22939 0.05928 0.30522 0.0
O129 O 0.2509 0.08294 0.2569 0.0
C130 C 0.15768 0.09411 0.28871 0.0
Zn131 Zn 0.19661 0.02321 0.2686 0.0
C132 C 0.24024 0.07573 0.22434 0.0
O133 O 0.21478 0.05186 0.21954 0.0
C134 C 0.19449 0.00404 0.35 0.0
O135 O 0.2387 0.98495 0.26158 0.0
O136 O 0.26987 0.01663 0.30276 0.0
N137 N 0.15754 0.99106 0.24248 0.0
C138 C 0.14222 0.96006 0.25628 0.0
C139 C 0.10017 0.98866 0.22756 0.0
N140 N 0.1313 0.00839 0.22417 0.0
N141 N 0.10578 0.9584 0.24833 0.0
C142 C 0.26368 0.1252 0.34773 0.0
C143 C 0.29807 0.0969 0.38575 0.0
N144 N 0.26353 0.08945 0.33813 0.0
N145 N 0.28531 0.07203 0.36154 0.0
N146 N 0.28473 0.13056 0.37795 0.0
H147 H 0.24328 0.14758 0.29686 0.0
H148 H 0.2595 0.18141 0.32972 0.0
H149 H 0.21636 0.15843 0.33695 0.0
C150 C 0.24473 0.15493 0.32645 0.0
C151 C 0.1641 0.92938 0.27306 0.0
H152 H 0.19333 0.93101 0.2645 0.0
H153 H 0.15258 0.90247 0.26452 0.0
H154 H 0.16282 0.93088 0.3034 0.0
O155 O 0.18333 0.99485 0.31824 0.0
O156 O 0.21002 0.03487 0.35385 0.0
C157 C 0.26693 0.98874 0.28181 0.0
O158 O 0.18735 0.10098 0.306 0.0
O159 O 0.15391 0.06266 0.27435 0.0
Zn160 Zn 0.31094 0.98254 0.77264 0.0
O161 O 0.27038 0.02331 0.7702 0.0
C162 C 0.30778 0.99476 0.85418 0.0
Zn163 Zn 0.27455 0.94306 0.80175 0.0
C164 C 0.23907 0.01591 0.78383 0.0
O165 O 0.23285 0.98414 0.79701 0.0
C166 C 0.34783 0.90959 0.7887 0.0
O167 O 0.25837 0.9211 0.75198 0.0
O168 O 0.29246 0.95952 0.71998 0.0
N169 N 0.23868 0.91093 0.8304 0.0
C170 C 0.23948 0.8752 0.83996 0.0
C171 C 0.20109 0.90179 0.87528 0.0
N172 N 0.21436 0.92725 0.85203 0.0
N173 N 0.21658 0.86881 0.86861 0.0
C174 C 0.36424 0.04728 0.76424 0.0
C175 C 0.40787 0.0216 0.7348 0.0
N176 N 0.35072 0.01582 0.74984 0.0
N177 N 0.37787 1.0002 0.73123 0.0
N178 N 0.40041 0.05096 0.75615 0.0
H179 H 0.31438 0.07884 0.76597 0.0
H180 H 0.35484 0.10375 0.78013 0.0
H181 H 0.33438 0.07023 0.81021 0.0
C182 C 0.34075 0.07673 0.78116 0.0
C183 C 0.26063 0.84632 0.81956 0.0
H184 H 0.26341 0.85401 0.79014 0.0
H185 H 0.24666 0.81931 0.82188 0.0
H186 H 0.28851 0.8437 0.83142 0.0
O187 O 0.31768 0.90256 0.80508 0.0
O188 O 0.35215 0.94109 0.77456 0.0
C189 C 0.2692 0.93305 0.721 0.0
O190 O 0.32517 0.00513 0.82569 0.0
O191 O 0.28847 0.96597 0.8523 0.0
Zn192 Zn 0.69859 0.48171 0.72951 0.0
O193 O 0.73917 0.52274 0.7315 0.0
C194 C 0.70422 0.48979 0.64773 0.0
Zn195 Zn 0.73681 0.44193 0.70333 0.0
C196 C 0.77013 0.51629 0.71642 0.0
O197 O 0.77696 0.48458 0.70332 0.0
C198 C 0.66443 0.4071 0.71852 0.0
O199 O 0.7545 0.42519 0.75453 0.0
O200 O 0.7155 0.46092 0.7839 0.0
N201 N 0.77302 0.4074 0.6782 0.0
C202 C 0.76684 0.3837 0.65044 0.0
C203 C 0.8248 0.38472 0.65973 0.0
N204 N 0.80905 0.40807 0.68398 0.0
N205 N 0.79871 0.36932 0.63851 0.0
C206 C 0.64091 0.54485 0.73449 0.0
C207 C 0.60331 0.52289 0.77349 0.0
N208 N 0.6574 0.51536 0.75012 0.0
N209 N 0.63392 0.50197 0.77451 0.0
N210 N 0.60663 0.54978 0.74815 0.0
H211 H 0.68941 0.56846 0.71127 0.0
H212 H 0.65022 0.59899 0.71267 0.0
H213 H 0.65218 0.56263 0.67939 0.0
C214 C 0.65934 0.57027 0.70796 0.0
C215 C 0.72973 0.37363 0.63526 0.0
H216 H 0.71942 0.34919 0.65028 0.0
H217 H 0.73159 0.36625 0.60572 0.0
H218 H 0.70946 0.39599 0.63842 0.0
O219 O 0.696 0.39959 0.70546 0.0
O220 O 0.65765 0.43999 0.72773 0.0
C221 C 0.74149 0.43707 0.78463 0.0
O222 O 0.6867 0.50223 0.67529 0.0
O223 O 0.72153 0.45992 0.65133 0.0
Zn224 Zn 0.77435 0.56311 0.20277 0.0
O225 O 0.75674 0.57974 0.25432 0.0
C226 C 0.84548 0.6007 0.21439 0.0
Zn227 Zn 0.81367 0.52582 0.23052 0.0
C228 C 0.7712 0.57043 0.28471 0.0
O229 O 0.7989 0.5485 0.28457 0.0
C230 C 0.8068 0.5167 0.14746 0.0
O231 O 0.77522 0.48422 0.23819 0.0
O232 O 0.73714 0.51729 0.20465 0.0
N233 N 0.85683 0.49376 0.24932 0.0
C234 C 0.87234 0.46391 0.23333 0.0
C235 C 0.91277 0.48754 0.26847 0.0
N236 N 0.88206 0.5082 0.27126 0.0
N237 N 0.90772 0.46002 0.24419 0.0
C238 C 0.73369 0.62931 0.16776 0.0
C239 C 0.6971 0.60099 0.13198 0.0
N240 N 0.73493 0.59349 0.17693 0.0
N241 N 0.71168 0.57607 0.15506 0.0
N242 N 0.7107 0.63471 0.13897 0.0
H243 H 0.75511 0.65107 0.21842 0.0
H244 H 0.73641 0.68515 0.18706 0.0
H245 H 0.78012 0.66411 0.17788 0.0
C246 C 0.75231 0.65918 0.18911 0.0
C247 C 0.852 0.43676 0.20985 0.0
H248 H 0.8557 0.44335 0.18036 0.0
H249 H 0.82218 0.43724 0.21613 0.0
H250 H 0.86294 0.40865 0.21447 0.0
O251 O 0.82279 0.50357 0.17568 0.0
O252 O 0.78962 0.54664 0.15067 0.0
C253 C 0.74451 0.4878 0.22202 0.0
O254 O 0.81333 0.60739 0.2022 0.0
O255 O 0.85313 0.56834 0.22471 0.0
Zn256 Zn 0.28518 0.1986 0.02872 0.0
O257 O 0.28393 0.23805 0.98654 0.0
C258 C 0.3672 0.20354 0.0209 0.0
Zn259 Zn 0.31155 0.23737 0.06801 0.0
C260 C 0.2974 0.2696 0.99299 0.0
O261 O 0.3091 0.27726 0.02506 0.0
C262 C 0.29738 0.16492 0.10344 0.0
O263 O 0.26033 0.25347 0.08621 0.0
O264 O 0.23059 0.21643 0.04873 0.0
N265 N 0.33767 0.27492 0.10024 0.0
C266 C 0.34569 0.27522 0.13638 0.0
C267 C 0.38271 0.31203 0.11002 0.0
N268 N 0.36031 0.29833 0.08403 0.0
N269 N 0.37448 0.29774 0.14322 0.0
C270 C 0.28131 0.14106 0.96528 0.0
C271 C 0.23979 0.10472 0.98448 0.0
N272 N 0.26528 0.15727 0.99479 0.0
N273 N 0.23941 0.13452 0.00653 0.0
N274 N 0.26623 0.10781 0.95858 0.0
H275 H 0.3097 0.18848 0.94525 0.0
H276 H 0.30611 0.15137 0.91249 0.0
H277 H 0.33795 0.14847 0.95023 0.0
C278 C 0.31037 0.15847 0.94189 0.0
C279 C 0.32357 0.25575 0.16513 0.0
H280 H 0.29453 0.25298 0.15607 0.0
H281 H 0.32477 0.2709 0.19161 0.0
H282 H 0.33488 0.22798 0.16961 0.0
O283 O 0.3125 0.1957 0.11051 0.0
O284 O 0.28585 0.15899 0.07108 0.0
C285 C 0.23008 0.24127 0.07381 0.0
O286 O 0.33958 0.18527 0.00995 0.0
O287 O 0.36367 0.22368 0.04895 0.0
Zn288 Zn 0.76733 0.31718 0.98426 0.0
O289 O 0.76031 0.27694 0.02396 0.0
C290 C 0.84871 0.31901 1.00343 0.0
Zn291 Zn 0.80311 0.28253 0.94921 0.0
C292 C 0.77955 0.24795 0.02129 0.0
O293 O 0.7995 0.24315 0.99286 0.0
C294 C 0.78844 0.3535 0.91254 0.0
O295 O 0.75497 0.2611 0.92545 0.0
O296 O 0.7181 0.29818 0.95605 0.0
N297 N 0.83642 0.24764 0.92085 0.0
C298 C 0.84783 0.24777 0.88561 0.0
C299 C 0.88631 0.21587 0.91627 0.0
N300 N 0.86012 0.22741 0.93974 0.0
N301 N 0.87955 0.22868 0.8822 0.0
C302 C 0.75574 0.37291 0.04566 0.0
C303 C 0.72702 0.41502 0.01694 0.0
N304 N 0.74135 0.35733 0.0151 0.0
N305 N 0.72311 0.38361 0.9976 0.0
N306 N 0.7482 0.40918 0.04678 0.0
H307 H 0.76776 0.32248 0.07438 0.0
H308 H 0.7629 0.3625 0.10333 0.0
H309 H 0.80357 0.35623 0.07667 0.0
C310 C 0.77345 0.35212 0.07661 0.0
C311 C 0.82624 0.26368 0.85428 0.0
H312 H 0.79634 0.2623 0.86032 0.0
H313 H 0.83234 0.24864 0.82841 0.0
H314 H 0.83364 0.29282 0.85019 0.0
O315 O 0.80527 0.32342 0.90651 0.0
O316 O 0.77328 0.35826 0.94352 0.0
C317 C 0.72255 0.27223 0.93258 0.0
O318 O 0.81729 0.33122 0.0125 0.0
O319 O 0.85173 0.30185 0.97339 0.0
Zn320 Zn 0.74076 0.69151 0.48305 0.0
O321 O 0.74839 0.73272 0.52169 0.0
C322 C 0.65854 0.69254 0.50013 0.0
Zn323 Zn 0.7066 0.72552 0.44568 0.0
C324 C 0.72985 0.76188 0.51707 0.0
O325 O 0.71043 0.76598 0.48821 0.0
C326 C 0.72041 0.65358 0.41161 0.0
O327 O 0.75542 0.74413 0.4215 0.0
O328 O 0.79131 0.70841 0.45502 0.0
N329 N 0.67502 0.76079 0.41564 0.0
C330 C 0.6633 0.75985 0.38051 0.0
C331 C 0.62794 0.79631 0.40965 0.0
N332 N 0.65328 0.78387 0.43355 0.0
N333 N 0.63331 0.78142 0.37615 0.0
C334 C 0.75188 0.63756 0.54683 0.0
C335 C 0.78264 0.59554 0.52022 0.0
N336 N 0.76549 0.6521 0.51539 0.0
N337 N 0.78493 0.62594 0.49918 0.0
N338 N 0.76146 0.60179 0.55005 0.0
H339 H 0.7398 0.68879 0.57431 0.0
H340 H 0.7405 0.64877 0.6037 0.0
H341 H 0.70246 0.65649 0.57366 0.0
C342 C 0.73263 0.6593 0.57619 0.0
C343 C 0.68259 0.73975 0.3502 0.0
H344 H 0.71236 0.73772 0.35628 0.0
H345 H 0.67846 0.75402 0.32352 0.0
H346 H 0.67141 0.71163 0.34784 0.0
O347 O 0.70393 0.68361 0.40454 0.0
O348 O 0.73483 0.64935 0.44305 0.0
C349 C 0.7874 0.73233 0.42942 0.0
O350 O 0.68903 0.67919 0.51084 0.0
O351 O 0.65754 0.70878 0.46944 0.0
Zn352 Zn 0.20057 0.7743 0.56262 0.0
O353 O 0.25137 0.75597 0.58275 0.0
C354 C 0.21731 0.84789 0.59542 0.0
Zn355 Zn 0.2317 0.81008 0.52407 0.0
C356 C 0.28259 0.76837 0.57308 0.0
O357 O 0.28403 0.79334 0.54829 0.0
C358 C 0.14892 0.80832 0.51169 0.0
O359 O 0.23568 0.76706 0.4861 0.0
O360 O 0.20048 0.73263 0.52154 0.0
N361 N 0.25506 0.84767 0.48845 0.0
C362 C 0.24119 0.86055 0.45639 0.0
C363 C 0.27405 0.90314 0.47932 0.0
N364 N 0.27604 0.87404 0.5022 0.0
N365 N 0.25187 0.89564 0.45056 0.0
C366 C 0.14691 0.74949 0.62337 0.0
C367 C 0.15547 0.69165 0.6267 0.0
N368 N 0.17344 0.74091 0.59888 0.0
N369 N 0.17874 0.70494 0.60096 0.0
N370 N 0.13539 0.71919 0.64123 0.0
H371 H 0.14441 0.80042 0.65254 0.0
H372 H 0.10092 0.78523 0.63484 0.0
H373 H 0.13463 0.80483 0.6044 0.0
C374 C 0.13078 0.78713 0.62873 0.0
C375 C 0.21557 0.83973 0.43163 0.0
H376 H 0.20953 0.81188 0.44201 0.0
H377 H 0.22851 0.83656 0.4042 0.0
H378 H 0.18977 0.85549 0.42776 0.0
O379 O 0.17845 0.82324 0.50047 0.0
O380 O 0.14975 0.79012 0.54133 0.0
C381 C 0.21801 0.73747 0.49159 0.0
O382 O 0.20246 0.81716 0.60292 0.0
O383 O 0.22896 0.85328 0.56303 0.0
Zn384 Zn 0.94373 0.70187 0.7807 0.0
O385 O 0.92466 0.75224 0.76175 0.0
C386 C 0.90705 0.71708 0.85233 0.0
Zn387 Zn 0.98148 0.73141 0.81829 0.0
C388 C 0.93413 0.78313 0.77486 0.0
O389 O 0.95781 0.78406 0.80099 0.0
C390 C 0.99362 0.64956 0.81576 0.0
O391 O 0.02222 0.73593 0.77776 0.0
O392 O 0.98715 0.70283 0.74135 0.0
N393 N 0.01397 0.7535 0.85932 0.0
C394 C 0.04499 0.73894 0.87399 0.0
C395 C 0.01705 0.76705 0.9169 0.0
N396 N 0.99704 0.77136 0.88607 0.0
N397 N 0.04708 0.74607 0.91066 0.0
C398 C 0.89211 0.64316 0.74866 0.0
C399 C 0.88177 0.66198 0.6941 0.0
N400 N 0.91054 0.67498 0.74437 0.0
N401 N 0.90421 0.68662 0.71041 0.0
N402 N 0.87424 0.63426 0.71748 0.0
H403 H 0.86222 0.60961 0.78742 0.0
H404 H 0.91002 0.59825 0.78214 0.0
H405 H 0.89694 0.63809 0.80808 0.0
C406 C 0.89015 0.62136 0.78372 0.0
C407 C 0.07491 0.72192 0.85119 0.0
H408 H 0.07435 0.733 0.82282 0.0
H409 H 0.10229 0.72776 0.86336 0.0
H410 H 0.07117 0.69179 0.84964 0.0
O411 O 0.00507 0.67858 0.83138 0.0
O412 O 0.96415 0.65114 0.79736 0.0
C413 C 0.01755 0.71912 0.74744 0.0
O414 O 0.90037 0.70304 0.82098 0.0
O415 O 0.93954 0.72768 0.85909 0.0
Zn416 Zn 0.52643 0.2738 0.32005 0.0
O417 O 0.48602 0.26967 0.27941 0.0
C418 C 0.51711 0.3575 0.31981 0.0
Zn419 Zn 0.56451 0.30471 0.28397 0.0
C420 C 0.49018 0.28875 0.25053 0.0
O421 O 0.5201 0.30607 0.24539 0.0
C422 C 0.60043 0.28766 0.35518 0.0
O423 O 0.58201 0.25414 0.26346 0.0
O424 O 0.54916 0.22118 0.30214 0.0
N425 N 0.59599 0.33313 0.24718 0.0
C426 C 0.63161 0.34327 0.24754 0.0
C427 C 0.60382 0.37859 0.20995 0.0
N428 N 0.57895 0.35475 0.22333 0.0
N429 N 0.63706 0.37234 0.22504 0.0
C430 C 0.4595 0.26531 0.37189 0.0
C431 C 0.48256 0.23333 0.41517 0.0
N432 N 0.49191 0.25177 0.35947 0.0
N433 N 0.50581 0.23143 0.3863 0.0
N434 N 0.45346 0.25487 0.40709 0.0
H435 H 0.44595 0.29868 0.32377 0.0
H436 H 0.4083 0.27618 0.34503 0.0
H437 H 0.42819 0.31528 0.36724 0.0
C438 C 0.43458 0.29053 0.35064 0.0
C439 C 0.66152 0.3225 0.26687 0.0
H440 H 0.65495 0.29272 0.26726 0.0
H441 H 0.68837 0.32698 0.25303 0.0
H442 H 0.6639 0.33197 0.29564 0.0
O443 O 0.60741 0.30256 0.32427 0.0
O444 O 0.56812 0.27599 0.36135 0.0
C445 C 0.57236 0.22286 0.2756 0.0
O446 O 0.50419 0.32809 0.33358 0.0
O447 O 0.54715 0.35556 0.30249 0.0
Zn448 Zn 0.44904 0.80381 0.22925 0.0
O449 O 0.42249 0.75678 0.24969 0.0
C450 C 0.41453 0.79098 0.15756 0.0
Zn451 Zn 0.48464 0.76629 0.19673 0.0
C452 C 0.42924 0.72408 0.23939 0.0
O453 O 0.4537 0.71861 0.21458 0.0
C454 C 0.50797 0.84647 0.19631 0.0
O455 O 0.52286 0.75715 0.23872 0.0
O456 O 0.49058 0.79799 0.26982 0.0
N457 N 0.51429 0.7386 0.15646 0.0
C458 C 0.54473 0.75243 0.14014 0.0
C459 C 0.5121 0.72894 0.09785 0.0
N460 N 0.49451 0.72332 0.13 0.0
N461 N 0.54343 0.74808 0.10308 0.0
C462 C 0.38463 0.84751 0.26406 0.0
C463 C 0.41395 0.88656 0.29636 0.0
N464 N 0.42034 0.83763 0.26352 0.0
N465 N 0.43842 0.86164 0.28405 0.0
N466 N 0.38002 0.87849 0.28395 0.0
H467 H 0.36105 0.79623 0.2463 0.0
H468 H 0.32804 0.83017 0.26218 0.0
H469 H 0.34969 0.83508 0.21816 0.0
C470 C 0.35409 0.82589 0.2468 0.0
C471 C 0.57835 0.7635 0.16117 0.0
H472 H 0.57725 0.75275 0.18971 0.0
H473 H 0.6034 0.75295 0.14721 0.0
H474 H 0.58037 0.7937 0.16219 0.0
O475 O 0.51602 0.81476 0.18412 0.0
O476 O 0.47686 0.8512 0.21124 0.0
C477 C 0.51852 0.77704 0.2672 0.0
O478 O 0.40787 0.80835 0.18716 0.0
O479 O 0.44514 0.77469 0.15442 0.0
Zn480 Zn 0.06057 0.20043 0.73338 0.0
O481 O 0.0867 0.24914 0.75078 0.0
C482 C 0.09455 0.21147 0.66056 0.0
Zn483 Zn 0.02428 0.23562 0.69844 0.0
C484 C 0.07885 0.28098 0.73855 0.0
O485 O 0.05377 0.28438 0.71408 0.0
C486 C 1.0027 0.15513 0.70154 0.0
O487 O 0.98623 0.24564 0.74047 0.0
O488 O 0.01933 0.20756 0.77419 0.0
N489 N 0.99373 0.2619 0.65786 0.0
C490 C 0.96288 0.24916 0.64148 0.0
C491 C 0.99196 0.27978 0.60104 0.0
N492 N 0.01145 0.28136 0.63263 0.0
N493 N 0.96163 0.25911 0.60574 0.0
C494 C 0.12527 0.15597 0.76956 0.0
C495 C 0.09588 0.12596 0.81031 0.0
N496 N 0.0905 0.16901 0.76978 0.0
N497 N 0.07252 0.15064 0.7956 0.0
N498 N 0.12929 0.12887 0.79461 0.0
H499 H 0.15198 0.19699 0.73659 0.0
H500 H 0.18224 0.16146 0.75318 0.0
H501 H 0.15059 0.15121 0.71683 0.0
C502 C 0.15426 0.16719 0.74255 0.0
C503 C 0.93186 0.23072 0.66121 0.0
H504 H 0.93258 0.23795 0.6908 0.0
H505 H 0.90516 0.23964 0.64931 0.0
H506 H 0.93363 0.20056 0.65774 0.0
O507 O 0.99455 0.18607 0.68751 0.0
O508 O 0.03323 0.15169 0.71801 0.0
C509 C 0.99123 0.22809 0.77034 0.0
O510 O 0.10097 0.19523 0.69086 0.0
O511 O 0.06356 0.22677 0.65626 0.0
Zn512 Zn 0.77393 0.94122 0.70454 0.0
O513 O 0.75414 0.92106 0.75429 0.0
C514 C 0.84686 0.90732 0.72222 0.0
Zn515 Zn 0.80946 0.97918 0.73635 0.0
C516 C 0.76586 0.93059 0.78583 0.0
O517 O 0.79101 0.95518 0.78811 0.0
C518 C 0.80998 0.99056 0.65365 0.0
O519 O 0.76759 0.01825 0.74025 0.0
O520 O 0.73312 0.98379 0.70459 0.0
N521 N 0.84733 0.01455 0.75969 0.0
C522 C 0.85957 0.04701 0.74621 0.0
C523 C 0.90208 0.02523 0.78018 0.0
N524 N 0.87366 1.00145 0.78122 0.0
N525 N 0.89411 0.05399 0.7582 0.0
C526 C 0.74167 0.874 0.66368 0.0
C527 C 0.70542 0.90123 0.62653 0.0
N528 N 0.73922 0.90923 0.67459 0.0
N529 N 0.71623 0.92594 0.65178 0.0
N530 N 0.72138 0.8685 0.63303 0.0
H531 H 0.76014 0.8507 0.71481 0.0
H532 H 0.7479 0.81736 0.67967 0.0
H533 H 0.79007 0.84271 0.67642 0.0
C534 C 0.76095 0.84441 0.68493 0.0
C535 C 0.8395 0.07008 0.71829 0.0
H536 H 0.81194 0.05933 0.71176 0.0
H537 H 0.83496 0.09805 0.72912 0.0
H538 H 0.85625 0.0725 0.69286 0.0
O539 O 0.82421 1.00176 0.68345 0.0
O540 O 0.79137 0.96135 0.65417 0.0
C541 C 0.73804 0.01347 0.72238 0.0
O542 O 0.81664 0.89978 0.70606 0.0
O543 O 0.85161 0.93956 0.73436 0.0
Zn544 Zn 0.69641 0.02624 0.2364 0.0
O545 O 0.73991 0.98819 0.23755 0.0
C546 C 0.69556 0.01504 0.15331 0.0
Zn547 Zn 0.73132 0.06478 0.20458 0.0
C548 C 0.76921 0.99412 0.21942 0.0
O549 O 0.7736 0.02466 0.203 0.0
C550 C 0.65792 0.09763 0.22381 0.0
O551 O 0.75051 0.08443 0.25495 0.0
O552 O 0.71531 0.0489 0.28884 0.0
N553 N 0.76385 0.1013 0.17769 0.0
C554 C 0.75556 0.12343 0.14918 0.0
C555 C 0.81184 0.13301 0.16287 0.0
N556 N 0.79884 0.1072 0.18619 0.0
N557 N 0.78506 0.14343 0.13956 0.0
C558 C 0.64912 0.9564 0.24547 0.0
C559 C 0.60434 0.97739 0.27685 0.0
N560 N 0.65987 0.98923 0.25931 0.0
N561 N 0.63209 1.00183 0.27924 0.0
N562 N 0.61411 0.94869 0.25555 0.0
H563 H 0.69624 0.94664 0.20924 0.0
H564 H 0.68307 0.90921 0.23712 0.0
H565 H 0.65519 0.92095 0.19815 0.0
C566 C 0.67212 0.93246 0.22074 0.0
C567 C 0.7195 0.12428 0.12892 0.0
H568 H 0.70883 0.15276 0.12759 0.0
H569 H 0.7241 0.11512 0.10016 0.0
H570 H 0.69828 0.10681 0.14162 0.0
O571 O 0.68808 0.10477 0.20758 0.0
O572 O 0.653 0.06559 0.23659 0.0
C573 C 0.73982 0.07409 0.28656 0.0
O574 O 0.68078 0.00425 0.18307 0.0
O575 O 0.71474 0.04396 0.15399 0.0
Zn576 Zn 0.31185 0.52791 0.28134 0.0
O577 O 0.27409 0.48628 0.27185 0.0
C578 C 0.30053 0.51603 0.36272 0.0
Zn579 Zn 0.27091 0.56563 0.30653 0.0
C580 C 0.24235 0.49015 0.28599 0.0
O581 O 0.23381 0.52056 0.30105 0.0
C582 C 0.34236 0.60312 0.29938 0.0
O583 O 0.25729 0.58514 0.25478 0.0
O584 O 0.30023 0.5522 0.22717 0.0
N585 N 0.23008 0.59552 0.3311 0.0
C586 C 0.23051 0.63059 0.3427 0.0
C587 C 0.19254 0.60182 0.37662 0.0
N588 N 0.20576 0.5779 0.35166 0.0
N589 N 0.20808 0.63504 0.37197 0.0
C590 C 0.37106 0.46598 0.27829 0.0
C591 C 0.41461 0.4949 0.25232 0.0
N592 N 0.35654 0.4971 0.2638 0.0
N593 N 0.38373 0.51468 0.24737 0.0
N594 N 0.40803 0.46432 0.27232 0.0
H595 H 0.3196 0.43734 0.28505 0.0
H596 H 0.35987 0.40883 0.28888 0.0
H597 H 0.34748 0.43975 0.32563 0.0
C598 C 0.3482 0.43626 0.29538 0.0
C599 C 0.2487 0.66147 0.32246 0.0
H600 H 0.25311 0.65394 0.29323 0.0
H601 H 0.23144 0.68659 0.32416 0.0
H602 H 0.27549 0.66793 0.33502 0.0
O603 O 0.30991 0.60986 0.31068 0.0
O604 O 0.3503 0.5706 0.28986 0.0
C605 C 0.27443 0.57622 0.22568 0.0
O606 O 0.31894 0.50417 0.33544 0.0
O607 O 0.28301 0.54585 0.35909 0.0
Zn608 Zn 0.23631 0.44184 0.80718 0.0
O609 O 0.25455 0.42421 0.75627 0.0
C610 C 0.16527 0.40478 0.79302 0.0
Zn611 Zn 0.19717 0.48016 0.78035 0.0
C612 C 0.2408 0.43485 0.72599 0.0
O613 O 0.21435 0.45823 0.72642 0.0
C614 C 0.20222 0.49046 0.8617 0.0
O615 O 0.23645 0.52213 0.77737 0.0
O616 O 0.27501 0.48535 0.80636 0.0
N617 N 0.15503 0.51234 0.75962 0.0
C618 C 0.14111 0.54364 0.7741 0.0
C619 C 0.09732 0.51674 0.74616 0.0
N620 N 0.12772 0.49595 0.74199 0.0
N621 N 0.10464 0.54648 0.76701 0.0
C622 C 0.26752 0.38657 0.86224 0.0
C623 C 0.32545 0.38816 0.85284 0.0
N624 N 0.27334 0.40922 0.83352 0.0
N625 N 0.30935 0.41032 0.82772 0.0
N626 N 0.29965 0.37339 0.87489 0.0
H627 H 0.22071 0.35127 0.85978 0.0
H628 H 0.23156 0.36615 0.90542 0.0
H629 H 0.20979 0.39719 0.87381 0.0
C630 C 0.23036 0.37501 0.87629 0.0
C631 C 0.16437 0.57374 0.78986 0.0
H632 H 0.18992 0.57631 0.77343 0.0
H633 H 0.14963 0.60045 0.78921 0.0
H634 H 0.17201 0.56742 0.81864 0.0
O635 O 0.18453 0.50195 0.83385 0.0
O636 O 0.22029 0.46094 0.85875 0.0
C637 C 0.26741 0.51665 0.79277 0.0
O638 O 0.19707 0.39827 0.80596 0.0
O639 O 0.15759 0.43736 0.78348 0.0
Zn640 Zn 0.72655 0.80961 0.98419 0.0
O641 O 0.73261 0.76988 0.02505 0.0
C642 C 0.64404 0.80575 0.99406 0.0
Zn643 Zn 0.69835 0.7718 0.94612 0.0
C644 C 0.71468 0.74018 0.02117 0.0
O645 O 0.69761 0.73384 0.99118 0.0
C646 C 0.71291 0.84285 0.90949 0.0
O647 O 0.74933 0.75221 0.92904 0.0
O648 O 0.77994 0.79381 0.96042 0.0
N649 N 0.67152 0.73509 0.91313 0.0
C650 C 0.64383 0.74165 0.88935 0.0
C651 C 0.65119 0.68357 0.8918 0.0
N652 N 0.67604 0.69898 0.91474 0.0
N653 N 0.63063 0.7099 0.87585 0.0
C654 C 0.73295 0.86534 0.04782 0.0
C655 C 0.7601 0.90907 0.02009 0.0
N656 N 0.74738 0.85137 0.01646 0.0
N657 N 0.76457 0.87861 0.99962 0.0
N658 N 0.7395 0.90198 0.05016 0.0
H659 H 0.73424 0.81574 0.0798 0.0
H660 H 0.7208 0.85609 0.10532 0.0
H661 H 0.68932 0.83467 0.07349 0.0
C662 C 0.71846 0.84179 0.07845 0.0
C663 C 0.63147 0.77914 0.87701 0.0
H664 H 0.64973 0.78837 0.85438 0.0
H665 H 0.60301 0.77892 0.8662 0.0
H666 H 0.63302 0.79949 0.89946 0.0
O667 O 0.70116 0.81081 0.90222 0.0
O668 O 0.72137 0.85025 0.94245 0.0
C669 C 0.77985 0.76677 0.93777 0.0
O670 O 0.6727 0.82056 0.00757 0.0
O671 O 0.64699 0.78924 0.96368 0.0
Zn672 Zn 0.23673 0.69643 0.02671 0.0
O673 O 0.24177 0.73531 0.98452 0.0
C674 C 0.15392 0.69732 0.01855 0.0
Zn675 Zn 0.20835 0.7357 0.06302 0.0
C676 C 0.22252 0.76432 0.9869 0.0
O677 O 0.20493 0.77114 0.01639 0.0
C678 C 0.22598 0.66642 0.1026 0.0
O679 O 0.25868 0.7581 0.07756 0.0
O680 O 0.28979 0.71438 0.04954 0.0
N681 N 0.17979 0.77364 0.09355 0.0
C682 C 0.16807 0.77269 0.12872 0.0
C683 C 0.13316 0.80985 0.09996 0.0
N684 N 0.15841 0.7973 0.07593 0.0
N685 N 0.13826 0.79441 0.13321 0.0
C686 C 0.24442 0.63982 0.9636 0.0
C687 C 0.27641 0.59846 0.98977 0.0
N688 N 0.2583 0.65469 0.99478 0.0
N689 N 0.27846 0.62891 0.01073 0.0
N690 N 0.25467 0.60423 0.96024 0.0
H691 H 0.23102 0.69019 0.9352 0.0
H692 H 0.22854 0.64929 0.90737 0.0
H693 H 0.19345 0.65866 0.94053 0.0
C694 C 0.22325 0.66083 0.9351 0.0
C695 C 0.1882 0.75416 0.15955 0.0
H696 H 0.21827 0.75603 0.15464 0.0
H697 H 0.18142 0.76733 0.18625 0.0
H698 H 0.18039 0.72481 0.16125 0.0
O699 O 0.2139 0.69873 0.10816 0.0
O700 O 0.23308 0.65661 0.0699 0.0
C701 C 0.28936 0.74328 0.0698 0.0
O702 O 0.18285 0.68352 1.00451 0.0
O703 O 0.15702 0.71479 0.04844 0.0
Zn704 Zn 0.26664 0.31091 0.52659 0.0
O705 O 0.26108 0.27035 0.4863 0.0
C706 C 0.34871 0.31208 0.51149 0.0
Zn707 Zn 0.30079 0.27648 0.56376 0.0
C708 C 0.28031 0.24151 0.49064 0.0
O709 O 0.29884 0.23716 0.52006 0.0
C710 C 0.28537 0.34754 0.59945 0.0
O711 O 0.25105 0.25588 0.58542 0.0
O712 O 0.21619 0.29252 0.55196 0.0
N713 N 0.33224 0.24102 0.5939 0.0
C714 C 0.34298 0.24165 0.62937 0.0
C715 C 0.38057 0.2072 0.60048 0.0
N716 N 0.35537 0.21919 0.57614 0.0
N717 N 0.37369 0.22123 0.63405 0.0
C718 C 0.25651 0.36687 0.4639 0.0
C719 C 0.22569 0.40806 0.49163 0.0
N720 N 0.24242 0.35127 0.49466 0.0
N721 N 0.22294 0.37696 0.51153 0.0
N722 N 0.24726 0.40288 0.46184 0.0
H723 H 0.26875 0.31648 0.43512 0.0
H724 H 0.2688 0.35731 0.40681 0.0
H725 H 0.30624 0.34858 0.4376 0.0
C726 C 0.27611 0.34597 0.43421 0.0
C727 C 0.32185 0.25975 0.6598 0.0
H728 H 0.32656 0.24512 0.68618 0.0
H729 H 0.33104 0.28846 0.66323 0.0
H730 H 0.29202 0.26 0.65323 0.0
O731 O 0.30184 0.31742 0.60614 0.0
O732 O 0.27098 0.35213 0.56804 0.0
C733 C 0.21914 0.26712 0.57618 0.0
O734 O 0.31779 0.32458 0.50116 0.0
O735 O 0.35051 0.29503 0.54171 0.0
Zn736 Zn 0.80984 0.23493 0.44405 0.0
O737 O 0.75848 0.25173 0.42641 0.0
C738 C 0.79492 0.16162 0.40969 0.0
Zn739 Zn 0.78353 0.19651 0.48355 0.0
C740 C 0.72831 0.2388 0.43821 0.0
O741 O 0.72898 0.2131 0.46238 0.0
C742 C 0.86555 0.20255 0.49254 0.0
O743 O 0.78105 0.23724 0.52402 0.0
O744 O 0.80887 0.27552 0.48619 0.0
N745 N 0.76336 0.15577 0.51768 0.0
C746 C 0.77938 0.1403 0.54755 0.0
C747 C 0.74363 0.10026 0.52432 0.0
N748 N 0.74099 0.1308 0.50356 0.0
N749 N 0.76822 0.10504 0.5517 0.0
C750 C 0.86166 0.26302 0.38386 0.0
C751 C 0.85395 0.32109 0.38414 0.0
N752 N 0.83504 0.27038 0.40859 0.0
N753 N 0.83026 0.3065 0.40881 0.0
N754 N 0.87373 0.29419 0.36813 0.0
H755 H 0.86331 0.21354 0.3522 0.0
H756 H 0.90731 0.2277 0.36946 0.0
H757 H 0.87453 0.20679 0.39982 0.0
C758 C 0.87762 0.22564 0.37627 0.0
C759 C 0.80183 0.16126 0.5751 0.0
H760 H 0.79276 0.19025 0.57595 0.0
H761 H 0.7989 0.14901 0.60292 0.0
H762 H 0.83133 0.1608 0.56755 0.0
O763 O 0.83791 0.1847 0.5043 0.0
O764 O 0.86203 0.22113 0.46338 0.0
C765 C 0.79541 0.26849 0.5178 0.0
O766 O 0.80819 0.19304 0.40211 0.0
O767 O 0.78547 0.15519 0.44257 0.0
C768 C 0.20483 0.39402 0.27274 0.0
C769 C 0.17206 0.39462 0.29304 0.0
C770 C 0.22711 0.4252 0.27032 0.0
C771 C 0.21724 0.45821 0.28802 0.0
H772 H 0.21267 0.36944 0.25788 0.0
H773 H 0.25207 0.4234 0.25413 0.0
S774 S 0.13386 0.47285 0.34546 0.0
N775 N 0.1307 0.42976 0.33158 0.0
N776 N 0.17249 0.48883 0.32763 0.0
C777 C 0.18464 0.45876 0.3091 0.0
C778 C 0.16211 0.42679 0.31156 0.0
C779 C 0.33118 0.54129 0.78964 0.0
C780 C 0.29365 0.54702 0.79675 0.0
C781 C 0.35603 0.57065 0.7909 0.0
C782 C 0.34401 0.60631 0.79958 0.0
H783 H 0.34111 0.51435 0.78175 0.0
H784 H 0.38457 0.56589 0.78374 0.0
S785 S 0.25011 0.63408 0.82699 0.0
N786 N 0.24674 0.58976 0.81789 0.0
N787 N 0.29358 0.64505 0.81945 0.0
C788 C 0.30722 0.61183 0.80925 0.0
C789 C 0.2819 0.58208 0.80791 0.0
C790 C 0.6704 0.08379 0.68598 0.0
C791 C 0.66021 0.10297 0.71796 0.0
C792 C 0.69509 0.05417 0.6876 0.0
C793 C 0.7106 0.04311 0.72125 0.0
H794 H 0.65876 0.09152 0.65966 0.0
H795 H 0.70236 0.04016 0.66237 0.0
S796 S 0.68899 0.08054 0.81341 0.0
N797 N 0.66405 0.10545 0.78477 0.0
N798 N 0.71243 0.05165 0.78738 0.0
C799 C 0.70036 0.06167 0.75342 0.0
C800 C 0.67461 0.09114 0.75192 0.0
C801 C 0.82715 0.91108 0.24226 0.0
C802 C 0.84625 0.90405 0.20923 0.0
C803 C 0.80225 0.94022 0.2452 0.0
C804 C 0.79665 0.96455 0.21582 0.0
H805 H 0.83227 0.89501 0.26666 0.0
H806 H 0.78797 0.94429 0.27107 0.0
S807 S 0.84052 0.95952 0.12382 0.0
N808 N 0.85759 0.92406 0.14646 0.0
N809 N 0.81232 0.98034 0.15275 0.0
C810 C 0.81599 0.95854 0.18287 0.0
C811 C 0.84047 0.92805 0.17946 0.0
C812 C 0.2512 0.20648 0.43951 0.0
C813 C 0.28243 0.21409 0.4609 0.0
C814 C 0.25235 0.17999 0.4116 0.0
C815 C 0.28512 0.16109 0.40317 0.0
H816 H 0.22532 0.22014 0.44526 0.0
H817 H 0.22693 0.17322 0.39781 0.0
S818 S 0.37535 0.17358 0.44903 0.0
N819 N 0.34747 0.20199 0.47094 0.0
N820 N 0.34994 0.15322 0.41735 0.0
C821 C 0.31683 0.16941 0.42363 0.0
C822 C 0.31546 0.19573 0.45267 0.0
C823 C 0.24976 0.82144 0.90449 0.0
C824 C 0.21656 0.83883 0.89451 0.0
C825 C 0.25121 0.79658 0.93385 0.0
C826 C 0.21987 0.78927 0.95516 0.0
H827 H 0.27528 0.82839 0.89101 0.0
H828 H 0.27742 0.78422 0.9409 0.0
S829 S 0.12597 0.82584 0.93945 0.0
N830 N 0.15125 0.84515 0.90703 0.0
N831 N 0.15432 0.7996 0.96339 0.0
C832 C 0.1864 0.80584 0.94526 0.0
C833 C 0.18472 0.83039 0.91473 0.0
C834 C 0.80094 0.28243 0.58467 0.0
C835 C 0.79881 0.29521 0.54812 0.0
C836 C 0.80327 0.30691 0.61425 0.0
C837 C 0.80358 0.34485 0.6082 0.0
H838 H 0.80048 0.25331 0.59058 0.0
H839 H 0.80347 0.29629 0.64209 0.0
S840 S 0.79884 0.39271 0.51856 0.0
N841 N 0.79788 0.3486 0.50781 0.0
N842 N 0.80181 0.39452 0.56389 0.0
C843 C 0.80237 0.35811 0.57204 0.0
C844 C 0.80018 0.33328 0.54183 0.0
C845 C 0.74237 0.68373 0.10397 0.0
C846 C 0.7099 0.66451 0.11285 0.0
C847 C 0.74344 0.70862 0.07463 0.0
C848 C 0.71255 0.71416 0.05213 0.0
H849 H 0.76776 0.67833 0.11837 0.0
H850 H 0.76908 0.72259 0.06867 0.0
S851 S 0.62064 0.67175 0.06414 0.0
N852 N 0.64572 0.65417 0.09768 0.0
N853 N 0.64819 0.69969 0.04127 0.0
C854 C 0.67984 0.69551 0.06072 0.0
C855 C 0.67846 0.67096 0.09129 0.0
C856 C 0.40873 0.26368 0.19112 0.0
C857 C 0.39985 0.29711 0.17366 0.0
C858 C 0.43761 0.26141 0.21648 0.0
C859 C 0.45959 0.2921 0.22425 0.0
H860 H 0.39473 0.23858 0.1839 0.0
H861 H 0.44368 0.23507 0.22901 0.0
S862 S 0.44704 0.38623 0.1874 0.0
N863 N 0.41429 0.36189 0.16748 0.0
N864 N 0.46974 0.3573 0.2141 0.0
C865 C 0.45089 0.32577 0.20748 0.0
C866 C 0.42083 0.3283 0.1824 0.0
C867 C 0.92472 0.19643 0.84368 0.0
C868 C 0.90605 0.22896 0.85289 0.0
C869 C 0.95307 0.19654 0.81756 0.0
C870 C 0.96312 0.22911 0.79935 0.0
H871 H 0.91733 0.17082 0.85691 0.0
H872 H 0.96646 0.1708 0.81079 0.0
S873 S 0.92819 0.32247 0.81881 0.0
N874 N 0.90411 0.29544 0.8462 0.0
N875 N 0.95541 0.29507 0.79495 0.0
C876 C 0.94552 0.26192 0.809 0.0
C877 C 0.91743 0.26201 0.83635 0.0
C878 C 0.56873 0.74722 0.30299 0.0
C879 C 0.54745 0.77849 0.29549 0.0
C880 C 0.59718 0.74843 0.3289 0.0
C881 C 0.6064 0.78134 0.34709 0.0
H882 H 0.5628 0.72141 0.2894 0.0
H883 H 0.61101 0.72302 0.3355 0.0
S884 S 0.5604 0.87147 0.33528 0.0
N885 N 0.53763 0.84351 0.30773 0.0
N886 N 0.59252 0.84609 0.35501 0.0
C887 C 0.5856 0.81291 0.33935 0.0
C888 C 0.55585 0.81145 0.31386 0.0
C889 C 0.10792 0.73983 0.69953 0.0
C890 C 0.10713 0.71658 0.66873 0.0
C891 C 0.07887 0.74036 0.7248 0.0
C892 C 0.04788 0.71761 0.72019 0.0
H893 H 0.1311 0.75798 0.70387 0.0
H894 H 0.08064 0.75909 0.74789 0.0
S895 S 0.0343 0.64958 0.64521 0.0
N896 N 0.07429 0.66895 0.63575 0.0
N897 N 0.0195 0.66939 0.68333 0.0
C898 C 0.04742 0.69329 0.69001 0.0
C899 C 0.07717 0.69278 0.66435 0.0
C900 C 0.86026 0.56807 0.72026 0.0
C901 C 0.84935 0.60422 0.7119 0.0
C902 C 0.83467 0.53926 0.72051 0.0
C903 C 0.79739 0.54595 0.7128 0.0
H904 H 0.88856 0.56235 0.72762 0.0
H905 H 0.8438 0.51196 0.72816 0.0
S906 S 0.75635 0.6347 0.68395 0.0
N907 N 0.79996 0.64443 0.69215 0.0
N908 N 0.75192 0.59029 0.69196 0.0
C909 C 0.78676 0.58151 0.70211 0.0
C910 C 0.8128 0.61068 0.70169 0.0
C911 C 0.67769 0.41441 0.19121 0.0
C912 C 0.66661 0.39855 0.2247 0.0
C913 C 0.7028 0.44363 0.19046 0.0
C914 C 0.71787 0.45757 0.22316 0.0
H915 H 0.66626 0.40453 0.16555 0.0
H916 H 0.71053 0.45526 0.16419 0.0
S917 S 0.6947 0.42907 0.31805 0.0
N918 N 0.66973 0.40202 0.29152 0.0
N919 N 0.71888 0.4551 0.28979 0.0
C920 C 0.70709 0.44214 0.25676 0.0
C921 C 0.6809 0.41307 0.25763 0.0
C922 C 0.33698 0.91971 0.31597 0.0
C923 C 0.34996 0.90407 0.28311 0.0
C924 C 0.31016 0.94746 0.31542 0.0
C925 C 0.29548 0.96017 0.28195 0.0
H926 H 0.34796 0.9106 0.34213 0.0
H927 H 0.30064 0.95882 0.34129 0.0
S928 S 0.32391 0.93182 0.18842 0.0
N929 N 0.34915 0.90632 0.21627 0.0
N930 N 0.29735 0.95699 0.21532 0.0
C931 C 0.30849 0.94506 0.24898 0.0
C932 C 0.33618 0.91739 0.24951 0.0
C933 C 0.17449 0.03797 0.77746 0.0
C934 C 0.21115 0.04493 0.78737 0.0
C935 C 0.14767 0.06548 0.7806 0.0
C936 C 0.15662 0.10045 0.79435 0.0
H937 H 0.16671 0.01141 0.76651 0.0
H938 H 0.11986 0.05972 0.7716 0.0
S939 S 0.24725 0.13031 0.82964 0.0
N940 N 0.25427 0.08795 0.81488 0.0
N941 N 0.20341 0.13936 0.82147 0.0
C942 C 0.19271 0.10714 0.806 0.0
C943 C 0.22014 0.0794 0.8023 0.0
C944 C 0.69212 0.82758 0.58806 0.0
C945 C 0.72403 0.83972 0.60614 0.0
C946 C 0.69427 0.80288 0.5586 0.0
C947 C 0.72841 0.78925 0.54661 0.0
H948 H 0.6654 0.83773 0.59654 0.0
H949 H 0.66908 0.79409 0.54541 0.0
S950 S 0.82027 0.81584 0.58129 0.0
N951 N 0.79103 0.83952 0.60675 0.0
N952 N 0.79476 0.79085 0.55329 0.0
C953 C 0.7605 0.80125 0.56415 0.0
C954 C 0.75842 0.82712 0.59345 0.0
C955 C 0.80253 0.18936 0.04931 0.0
C956 C 0.78099 0.22149 0.05223 0.0
C957 C 0.80516 0.16446 0.07865 0.0
C958 C 0.78669 0.17115 0.1118 0.0
H959 H 0.81719 0.18314 0.02411 0.0
H960 H 0.82085 0.13939 0.07517 0.0
S961 S 0.72881 0.25136 0.13509 0.0
N962 N 0.74151 0.25847 0.09208 0.0
N963 N 0.74816 0.21217 0.14726 0.0
C964 C 0.76617 0.20339 0.11568 0.0
C965 C 0.76282 0.22842 0.08584 0.0
C966 C 0.18152 0.69953 0.4479 0.0
C967 C 0.2159 0.71028 0.46194 0.0
C968 C 0.17913 0.67577 0.41761 0.0
C969 C 0.21102 0.66192 0.40073 0.0
H970 H 0.15641 0.71005 0.45998 0.0
H971 H 0.15227 0.66798 0.40734 0.0
S972 S 0.30728 0.67762 0.43133 0.0
N973 N 0.28218 0.70375 0.45872 0.0
N974 N 0.2778 0.65688 0.40372 0.0
C975 C 0.2455 0.67134 0.41574 0.0
C976 C 0.24789 0.69619 0.44585 0.0
C977 C 0.29536 0.33409 0.96973 0.0
C978 C 0.30131 0.29654 0.96295 0.0
C979 C 0.29686 0.3597 0.94095 0.0
C980 C 0.3049 0.3485 0.90484 0.0
H981 H 0.28815 0.34351 0.99708 0.0
H982 H 0.2903 0.3882 0.9465 0.0
S983 S 0.32811 0.25478 0.87368 0.0
N984 N 0.31968 0.25039 0.91811 0.0
N985 N 0.32213 0.29877 0.86424 0.0
C986 C 0.31312 0.31168 0.89813 0.0
C987 C 0.31132 0.28556 0.92719 0.0
C988 C 0.53677 0.71904 0.83495 0.0
C989 C 0.54348 0.71056 0.79786 0.0
C990 C 0.56506 0.71663 0.86104 0.0
C991 C 0.60061 0.70534 0.85077 0.0
H992 H 0.50999 0.72897 0.84352 0.0
H993 H 0.55973 0.72517 0.88909 0.0
S994 S 0.63004 0.6731 0.75892 0.0
N995 N 0.58657 0.68522 0.75339 0.0
N996 N 0.63984 0.68124 0.80257 0.0
C997 C 0.60686 0.69413 0.81452 0.0
C998 C 0.57821 0.69674 0.78793 0.0
C999 C 0.0633 0.82353 0.19796 0.0
C1000 C 0.05032 0.7897 0.21136 0.0
C1001 C 0.09308 0.82496 0.17341 0.0
C1002 C 0.1105 0.79264 0.16135 0.0
H1003 H 0.05052 0.84898 0.20669 0.0
H1004 H 0.10234 0.85141 0.1634 0.0
S1005 S 0.08308 0.69719 0.18487 0.0
N1006 N 0.05539 0.72333 0.20961 0.0
N1007 N 0.10954 0.72576 0.16156 0.0
C1008 C 0.09686 0.75864 0.17386 0.0
C1009 C 0.06724 0.75727 0.19945 0.0
C1010 C 0.44589 0.19002 0.7007 0.0
C1011 C 0.45888 0.22336 0.71519 0.0
C1012 C 0.41683 0.18944 0.67532 0.0
C1013 C 0.40012 0.22218 0.66343 0.0
H1014 H 0.45815 0.16425 0.70913 0.0
H1015 H 0.40766 0.16333 0.66441 0.0
S1016 S 0.42823 0.31672 0.68925 0.0
N1017 N 0.45481 0.28981 0.71437 0.0
N1018 N 0.40185 0.28897 0.66487 0.0
C1019 C 0.41372 0.25574 0.677 0.0
C1020 C 0.44269 0.25624 0.70342 0.0
C1021 C 0.90058 0.27781 0.30861 0.0
C1022 C 0.9027 0.2976 0.3416 0.0
C1023 C 0.93078 0.27548 0.28496 0.0
C1024 C 0.96439 0.2928 0.29348 0.0
H1025 H 0.87558 0.26321 0.30164 0.0
H1026 H 0.92777 0.25945 0.26003 0.0
S1027 S 0.98272 0.35009 0.37602 0.0
N1028 N 0.93978 0.33616 0.38126 0.0
N1029 N 0.997 0.33232 0.33669 0.0
C1030 C 0.96636 0.31382 0.32599 0.0
C1031 C 0.93535 0.3162 0.35002 0.0
C1032 C 0.13506 0.15897 0.29519 0.0
C1033 C 0.131 0.12404 0.27935 0.0
C1034 C 0.11534 0.18936 0.28199 0.0
C1035 C 0.09054 0.18651 0.25214 0.0
H1036 H 0.15455 0.16328 0.31726 0.0
H1037 H 0.12058 0.21567 0.29488 0.0
S1038 S 0.06642 0.10041 0.20336 0.0
N1039 N 0.09746 0.0877 0.23401 0.0
N1040 N 0.06073 0.14503 0.20923 0.0
C1041 C 0.08449 0.15139 0.23737 0.0
C1042 C 0.10455 0.12019 0.25096 0.0
C1043 C 0.3958 0.88133 0.74755 0.0
C1044 C 0.37502 0.88001 0.78044 0.0
C1045 C 0.417 0.85114 0.73563 0.0
C1046 C 0.4183 0.81847 0.75621 0.0
H1047 H 0.39417 0.90518 0.72979 0.0
H1048 H 0.43085 0.85276 0.70929 0.0
S1049 S 0.37452 0.80349 0.84764 0.0
N1050 N 0.36125 0.84516 0.83556 0.0
N1051 N 0.40079 0.78862 0.81369 0.0
C1052 C 0.39977 0.8179 0.79046 0.0
C1053 C 0.37821 0.84854 0.80242 0.0
C1054 C 0.6448 0.34118 0.71561 0.0
C1055 C 0.63808 0.37711 0.72802 0.0
C1056 C 0.62388 0.31141 0.72826 0.0
C1057 C 0.59531 0.31596 0.75424 0.0
H1058 H 0.66711 0.33572 0.69661 0.0
H1059 H 0.631 0.28434 0.71812 0.0
S1060 S 0.56486 0.40477 0.79409 0.0
N1061 N 0.5993 0.41589 0.76663 0.0
N1062 N 0.56027 0.35978 0.79054 0.0
C1063 C 0.5874 0.3519 0.76605 0.0
C1064 C 0.60861 0.38243 0.75289 0.0
C1065 C 0.89493 0.62858 0.25369 0.0
C1066 C 0.87177 0.63095 0.22256 0.0
C1067 C 0.91619 0.65869 0.2655 0.0
C1068 C 0.91538 0.69233 0.24648 0.0
H1069 H 0.8954 0.60377 0.27015 0.0
H1070 H 0.93234 0.65591 0.29039 0.0
S1071 S 0.86316 0.71085 0.16009 0.0
N1072 N 0.85221 0.66824 0.17095 0.0
N1073 N 0.89189 0.72468 0.19239 0.0
C1074 C 0.89382 0.69423 0.21401 0.0
C1075 C 0.87209 0.66365 0.20228 0.0
C1076 C 0.24127 0.09513 0.15774 0.0
C1077 C 0.25745 0.09583 0.19287 0.0
C1078 C 0.25563 0.11615 0.12863 0.0
C1079 C 0.28682 0.13884 0.1333 0.0
H1080 H 0.21662 0.07913 0.15291 0.0
H1081 H 0.24112 0.1157 0.10259 0.0
S1082 S 0.34284 0.14639 0.21815 0.0
N1083 N 0.30889 0.11851 0.22953 0.0
N1084 N 0.33573 0.15735 0.17466 0.0
C1085 C 0.30441 0.13827 0.16764 0.0
C1086 C 0.2898 0.11697 0.19739 0.0
C1087 C 0.22766 0.88696 0.69147 0.0
C1088 C 0.25414 0.91505 0.68731 0.0
C1089 C 0.21433 0.86705 0.66138 0.0
C1090 C 0.22664 0.8742 0.62546 0.0
H1091 H 0.21758 0.87939 0.71848 0.0
H1092 H 0.19513 0.84493 0.66665 0.0
S1093 S 0.29313 0.94715 0.59864 0.0
N1094 N 0.29025 0.95071 0.64385 0.0
N1095 N 0.26512 0.9134 0.587 0.0
C1096 C 0.25172 0.90348 0.62046 0.0
C1097 C 0.26549 0.92379 0.65138 0.0
C1098 C 0.73515 0.42006 0.85168 0.0
C1099 C 0.75638 0.42119 0.8194 0.0
C1100 C 0.74694 0.39982 0.88253 0.0
C1101 C 0.78032 0.37981 0.88224 0.0
H1102 H 0.70846 0.43331 0.85252 0.0
H1103 H 0.72872 0.39827 0.90608 0.0
S1104 S 0.84905 0.37949 0.80705 0.0
N1105 N 0.81487 0.40468 0.79102 0.0
N1106 N 0.83644 0.36657 0.84871 0.0
C1107 C 0.80287 0.38284 0.85113 0.0
C1108 C 0.79107 0.40356 0.81986 0.0
C1109 C 0.77628 0.58835 0.3517 0.0
C1110 C 0.7556 0.58671 0.31907 0.0
C1111 C 0.76345 0.60813 0.38245 0.0
C1112 C 0.72952 0.62714 0.38173 0.0
H1113 H 0.80325 0.57572 0.35299 0.0
H1114 H 0.78127 0.61017 0.40625 0.0
S1115 S 0.66198 0.62629 0.30547 0.0
N1116 N 0.69708 0.60208 0.28983 0.0
N1117 N 0.67363 0.63909 0.34743 0.0
C1118 C 0.70758 0.62367 0.35025 0.0
C1119 C 0.72043 0.60351 0.31904 0.0
C1120 C 0.16216 0.23614 0.08873 0.0
C1121 C 0.19539 0.25589 0.09038 0.0
C1122 C 0.13107 0.24749 0.10905 0.0
C1123 C 0.13214 0.27886 0.13191 0.0
H1124 H 0.16062 0.2109 0.07304 0.0
H1125 H 0.10667 0.23044 0.10831 0.0
S1126 S 0.21036 0.34341 0.14134 0.0
N1127 N 0.22566 0.31115 0.11334 0.0
N1128 N 0.16779 0.33154 0.15159 0.0
C1129 C 0.16438 0.29996 0.13196 0.0
C1130 C 0.1958 0.28875 0.11118 0.0
C1131 C 0.65543 0.27046 0.91487 0.0
C1132 C 0.69079 0.25489 0.91298 0.0
C1133 C 0.62596 0.25591 0.89446 0.0
C1134 C 0.6305 0.22514 0.87117 0.0
H1135 H 0.65062 0.29478 0.93136 0.0
H1136 H 0.59974 0.27003 0.89579 0.0
S1137 S 0.71607 0.17074 0.8604 0.0
N1138 N 0.72764 0.2044 0.88852 0.0
N1139 N 0.67217 0.17728 0.85076 0.0
C1140 C 0.66514 0.20812 0.87057 0.0
C1141 C 0.69523 0.2229 0.89128 0.0
C1142 C 0.85149 0.75866 0.4221 0.0
C1143 C 0.81861 0.7455 0.40652 0.0
C1144 C 0.87911 0.77467 0.39989 0.0
C1145 C 0.87464 0.77835 0.36143 0.0
H1146 H 0.85559 0.75723 0.45159 0.0
H1147 H 0.90417 0.78416 0.4129 0.0
S1148 S 0.79568 0.74294 0.30708 0.0
N1149 N 0.78474 0.73396 0.3502 0.0
N1150 N 0.83606 0.76351 0.30887 0.0
C1151 C 0.84222 0.76419 0.34572 0.0
C1152 C 0.81442 0.74792 0.36815 0.0
C1153 C 0.3415 0.71557 0.64192 0.0
C1154 C 0.37742 0.72824 0.63537 0.0
C1155 C 0.31162 0.72801 0.62091 0.0
C1156 C 0.31601 0.75398 0.59235 0.0
H1157 H 0.33608 0.69662 0.66424 0.0
H1158 H 0.28458 0.71769 0.62798 0.0
S1159 S 0.4048 0.79404 0.56191 0.0
N1160 N 0.41607 0.76681 0.59647 0.0
N1161 N 0.35976 0.79028 0.55726 0.0
C1162 C 0.35197 0.76587 0.58445 0.0
C1163 C 0.38263 0.75298 0.6058 0.0
C1164 C 0.87077 0.84281 0.71641 0.0
C1165 C 0.87363 0.8778 0.73235 0.0
C1166 C 0.89142 0.81305 0.72966 0.0
C1167 C 0.91593 0.8167 0.75965 0.0
H1168 H 0.85179 0.83801 0.69402 0.0
H1169 H 0.88727 0.78661 0.71664 0.0
S1170 S 0.9362 0.90327 0.80939 0.0
N1171 N 0.90511 0.91504 0.77844 0.0
N1172 N 0.94364 0.85895 0.80325 0.0
C1173 C 0.92048 0.85191 0.77477 0.0
C1174 C 0.89949 0.88242 0.76114 0.0
C1175 C 0.60865 0.12489 0.26418 0.0
C1176 C 0.63154 0.12766 0.23289 0.0
C1177 C 0.58831 0.15522 0.27717 0.0
C1178 C 0.58991 0.18946 0.25927 0.0
H1179 H 0.60782 0.09963 0.27992 0.0
H1180 H 0.57245 0.15215 0.30221 0.0
S1181 S 0.64125 0.2094 0.17282 0.0
N1182 N 0.65147 0.16627 0.18227 0.0
N1183 N 0.61316 0.22284 0.20586 0.0
C1184 C 0.61088 0.19177 0.22653 0.0
C1185 C 0.63168 0.16104 0.21358 0.0
C1186 C 0.41203 0.65716 0.24316 0.0
C1187 C 0.40888 0.69307 0.25703 0.0
C1188 C 0.39198 0.62798 0.25859 0.0
C1189 C 0.36783 0.63334 0.28859 0.0
H1190 H 0.42944 0.65161 0.21961 0.0
H1191 H 0.39435 0.60124 0.24574 0.0
S1192 S 0.35319 0.72087 0.33848 0.0
N1193 N 0.38189 0.7316 0.30496 0.0
N1194 N 0.34496 0.67654 0.33386 0.0
C1195 C 0.36576 0.66865 0.30385 0.0
C1196 C 0.38604 0.69849 0.28813 0.0
C1197 C 0.13105 0.30785 0.77469 0.0
C1198 C 0.09894 0.31335 0.75359 0.0
C1199 C 0.15118 0.33746 0.78898 0.0
C1200 C 0.14005 0.37402 0.78305 0.0
H1201 H 0.14136 0.28035 0.77965 0.0
H1202 H 0.17631 0.33153 0.80386 0.0
S1203 S 0.05598 0.40347 0.73255 0.0
N1204 N 0.05564 0.35823 0.7295 0.0
N1205 N 0.09313 0.4139 0.75648 0.0
C1206 C 0.10711 0.37992 0.76324 0.0
C1207 C 0.08674 0.34966 0.74843 0.0
C1208 C 0.71354 0.86013 0.8428 0.0
C1209 C 0.72244 0.86902 0.87933 0.0
C1210 C 0.72707 0.88081 0.81324 0.0
C1211 C 0.75045 0.91132 0.81864 0.0
H1212 H 0.69687 0.83625 0.83674 0.0
H1213 H 0.7198 0.87193 0.78574 0.0
S1214 S 0.77998 0.94821 0.90904 0.0
N1215 N 0.7544 0.91221 0.91943 0.0
N1216 N 0.78006 0.95073 0.86367 0.0
C1217 C 0.75853 0.92147 0.85505 0.0
C1218 C 0.74444 0.9005 0.88536 0.0
C1219 C 0.78066 0.12242 0.31385 0.0
C1220 C 0.75583 0.09304 0.31938 0.0
C1221 C 0.79465 0.14305 0.34325 0.0
C1222 C 0.78479 0.13528 0.3798 0.0
H1223 H 0.7888 0.13045 0.28633 0.0
H1224 H 0.81246 0.16607 0.33704 0.0
S1225 S 0.72329 0.05925 0.40999 0.0
N1226 N 0.72384 0.05586 0.36469 0.0
N1227 N 0.75029 0.09427 0.42014 0.0
C1228 C 0.76135 0.10486 0.38603 0.0
C1229 C 0.74682 0.08393 0.35586 0.0
C1230 C 0.23805 0.60427 0.13137 0.0
C1231 C 0.23825 0.64299 0.13389 0.0
C1232 C 0.25161 0.5821 0.16029 0.0
C1233 C 0.26642 0.59804 0.19226 0.0
H1234 H 0.22679 0.59104 0.10717 0.0
H1235 H 0.24944 0.5525 0.15812 0.0
S1236 S 0.279 0.69754 0.21002 0.0
N1237 N 0.25845 0.69578 0.16956 0.0
N1238 N 0.28374 0.65442 0.22326 0.0
C1239 C 0.26832 0.63652 0.19427 0.0
C1240 C 0.25432 0.65893 0.16527 0.0
C1241 C 0.23327 0.41589 0.65952 0.0
C1242 C 0.25504 0.41778 0.69144 0.0
C1243 C 0.24439 0.39472 0.62902 0.0
C1244 C 0.27761 0.3745 0.6293 0.0
H1245 H 0.20668 0.42935 0.65872 0.0
H1246 H 0.22583 0.39269 0.60578 0.0
S1247 S 0.34755 0.37551 0.7034 0.0
N1248 N 0.31383 0.40139 0.71932 0.0
N1249 N 0.33415 0.36169 0.66228 0.0
C1250 C 0.30066 0.37816 0.65999 0.0
C1251 C 0.28955 0.39978 0.6909 0.0
C1252 C 0.84082 0.71302 0.8714 0.0
C1253 C 0.87642 0.72639 0.8782 0.0
C1254 C 0.81041 0.72558 0.89158 0.0
C1255 C 0.81388 0.75247 0.91944 0.0
H1256 H 0.83613 0.69335 0.84953 0.0
H1257 H 0.78367 0.71464 0.88435 0.0
S1258 S 0.90145 0.79486 0.95005 0.0
N1259 N 0.91374 0.76676 0.91656 0.0
N1260 N 0.8564 0.79053 0.95407 0.0
C1261 C 0.84948 0.76519 0.92753 0.0
C1262 C 0.8807 0.7521 0.90711 0.0
C1263 C 0.35613 0.73838 0.08838 0.0
C1264 C 0.32328 0.75876 0.08715 0.0
C1265 C 0.38636 0.75038 0.10937 0.0
C1266 C 0.38497 0.78315 0.13021 0.0
H1267 H 0.358 0.71216 0.07442 0.0
H1268 H 0.4103 0.73268 0.11078 0.0
S1269 S 0.30776 0.84962 0.13166 0.0
N1270 N 0.29304 0.81587 0.10519 0.0
N1271 N 0.34966 0.83779 0.1446 0.0
C1272 C 0.35327 0.80491 0.12731 0.0
C1273 C 0.32256 0.7929 0.10581 0.0
C1274 C 0.19144 0.22608 0.62423 0.0
C1275 C 0.18633 0.25038 0.59439 0.0
C1276 C 0.16156 0.21131 0.64368 0.0
C1277 C 0.12504 0.22005 0.63429 0.0
H1278 H 0.21888 0.21913 0.63358 0.0
H1279 H 0.16739 0.19422 0.66731 0.0
S1280 S 0.09626 0.27828 0.55516 0.0
N1281 N 0.14166 0.2796 0.55413 0.0
N1282 N 0.08547 0.25173 0.59037 0.0
C1283 C 0.11944 0.24249 0.60302 0.0
C1284 C 0.14999 0.25773 0.58327 0.0
C1285 C 0.63022 0.24504 0.40081 0.0
C1286 C 0.63065 0.27863 0.38131 0.0
C1287 C 0.66113 0.23282 0.42086 0.0
C1288 C 0.69355 0.25383 0.42223 0.0
H1289 H 0.60652 0.2271 0.39899 0.0
H1290 H 0.66019 0.20604 0.43381 0.0
S1291 S 0.70615 0.34688 0.3816 0.0
N1292 N 0.66438 0.33462 0.36872 0.0
N1293 N 0.72214 0.31231 0.40627 0.0
C1294 C 0.69321 0.28867 0.40497 0.0
C1295 C 0.66191 0.30088 0.38452 0.0
C1296 C 0.88926 0.28225 0.09181 0.0
C1297 C 0.92689 0.27899 0.08361 0.0
C1298 C 0.86468 0.29846 0.0668 0.0
C1299 C 0.87662 0.31171 0.03232 0.0
H1300 H 0.87842 0.27071 0.117 0.0
H1301 H 0.83568 0.29807 0.07355 0.0
S1302 S 0.97256 0.31031 0.99785 0.0
N1303 N 0.97522 0.29146 0.03914 0.0
N1304 N 0.92873 0.32068 0.99157 0.0
C1305 C 0.91426 0.309 0.02399 0.0
C1306 C 0.93939 0.29289 0.04967 0.0
C1307 C 0.61508 0.73802 0.52672 0.0
C1308 C 0.62957 0.70209 0.52745 0.0
C1309 C 0.59141 0.75089 0.55422 0.0
C1310 C 0.58045 0.7284 0.58362 0.0
H1311 H 0.62307 0.75708 0.50527 0.0
H1312 H 0.58162 0.77895 0.55252 0.0
S1313 S 0.60639 0.63015 0.59565 0.0
N1314 N 0.62959 0.64331 0.55883 0.0
N1315 N 0.58266 0.66645 0.60922 0.0
C1316 C 0.59342 0.69171 0.58395 0.0
C1317 C 0.61857 0.67887 0.55626 0.0
C1318 C 0.39732 0.25257 0.98436 0.0
C1319 C 0.39494 0.21492 0.99341 0.0
C1320 C 0.41945 0.26495 0.95535 0.0
C1321 C 0.4402 0.24023 0.93436 0.0
H1322 H 0.38105 0.27265 0.99917 0.0
H1323 H 0.42 0.29399 0.94889 0.0
S1324 S 0.44881 0.14001 0.95101 0.0
N1325 N 0.41765 0.15359 0.98119 0.0
N1326 N 0.46109 0.17708 0.92776 0.0
C1327 C 0.43954 0.20275 0.94416 0.0
C1328 C 0.41635 0.19003 0.97336 0.0
C1329 C 0.10361 0.76465 0.48497 0.0
C1330 C 0.11901 0.8002 0.48498 0.0
C1331 C 0.08069 0.75261 0.45645 0.0
C1332 C 0.07161 0.77558 0.42675 0.0
H1333 H 0.11067 0.74512 0.50634 0.0
H1334 H 0.07031 0.72474 0.45738 0.0
S1335 S 0.09923 0.87348 0.4171 0.0
N1336 N 0.12079 0.85947 0.45459 0.0
N1337 N 0.07561 0.83773 0.40211 0.0
C1338 C 0.085 0.81202 0.42747 0.0
C1339 C 0.10919 0.82405 0.45626 0.0
C1340 C 0.07986 0.91742 0.29752 0.0
C1341 C 0.07695 0.93463 0.26272 0.0
C1342 C 0.05165 0.8948 0.31149 0.0
C1343 C 0.0185 0.88969 0.29221 0.0
H1344 H 0.10369 0.92153 0.31462 0.0
H1345 H 0.05602 0.88092 0.33747 0.0
S1346 S 0.99471 0.93253 0.20222 0.0
N1347 N 0.03701 0.94652 0.21056 0.0
N1348 N 0.98321 0.90705 0.23791 0.0
C1349 C 0.01418 0.90899 0.25872 0.0
C1350 C 0.04343 0.93066 0.24382 0.0
C1351 C 0.48491 0.10989 0.76177 0.0
C1352 C 0.48515 0.12217 0.79859 0.0
C1353 C 0.45679 0.08742 0.74816 0.0
C1354 C 0.42773 0.07585 0.77076 0.0
H1355 H 0.50585 0.11896 0.74263 0.0
H1356 H 0.45752 0.07933 0.7195 0.0
S1357 S 0.41866 0.09495 0.87073 0.0
N1358 N 0.4555 0.1184 0.85821 0.0
N1359 N 0.40374 0.07412 0.83327 0.0
C1360 C 0.42859 0.08621 0.80818 0.0
C1361 C 0.45696 0.1099 0.82189 0.0
C1362 C 0.57238 0.58306 0.69864 0.0
C1363 C 0.57747 0.5742 0.73618 0.0
C1364 C 0.54355 0.60622 0.68701 0.0
C1365 C 0.51764 0.61991 0.7122 0.0
H1366 H 0.59034 0.57177 0.67787 0.0
H1367 H 0.54148 0.61342 0.65817 0.0
S1368 S 0.51853 0.60488 0.81351 0.0
N1369 N 0.55447 0.5817 0.79831 0.0
N1370 N 0.49917 0.6229 0.77664 0.0
C1371 C 0.52182 0.6103 0.74965 0.0
C1372 C 0.55183 0.58794 0.76152 0.0
C1373 C 0.98717 0.39411 0.24593 0.0
C1374 C 0.99386 0.38693 0.20836 0.0
C1375 C 0.95877 0.41759 0.25722 0.0
C1376 C 0.93589 0.43501 0.2315 0.0
H1377 H 1.00328 0.38053 0.26701 0.0
H1378 H 0.95432 0.42184 0.28638 0.0
S1379 S 0.94563 0.42981 0.1299 0.0
N1380 N 0.97708 0.40099 0.14549 0.0
N1381 N 0.92499 0.44716 0.16652 0.0
C1382 C 0.94325 0.42936 0.19377 0.0
C1383 C 0.97184 0.40473 0.18227 0.0
C1384 C 0.3144 0.07215 0.92476 0.0
C1385 C 0.27699 0.07972 0.93248 0.0
C1386 C 0.32473 0.04437 0.89976 0.0
C1387 C 0.29812 0.02206 0.88296 0.0
H1388 H 0.33597 0.08721 0.93849 0.0
H1389 H 0.35363 0.04 0.89394 0.0
S1390 S 0.19664 0.03096 0.8933 0.0
N1391 N 0.2136 0.06327 0.92021 0.0
N1392 N 0.23264 0.00999 0.8753 0.0
C1393 C 0.26073 0.02897 0.89102 0.0
C1394 C 0.2503 0.05786 0.91539 0.0
C1395 C 0.74152 0.46341 0.08655 0.0
C1396 C 0.76415 0.43707 0.06996 0.0
C1397 C 0.75633 0.49021 0.1099 0.0
C1398 C 0.79435 0.49154 0.11791 0.0
H1399 H 0.71206 0.46266 0.08215 0.0
H1400 H 0.73741 0.50903 0.12312 0.0
S1401 S 0.86606 0.43349 0.07508 0.0
N1402 N 0.82711 0.41805 0.0576 0.0
N1403 N 0.85466 0.46666 0.10399 0.0
C1404 C 0.81751 0.46639 0.10016 0.0
C1405 C 0.80248 0.43968 0.07546 0.0
C1406 C 0.70968 0.5736 0.58509 0.0
C1407 C 0.74703 0.57376 0.57433 0.0
C1408 C 0.69519 0.54554 0.60747 0.0
C1409 C 0.71713 0.51583 0.61888 0.0
H1410 H 0.69122 0.59487 0.57572 0.0
H1411 H 0.66666 0.54715 0.61592 0.0
S1412 S 0.81649 0.50278 0.59706 0.0
N1413 N 0.80536 0.54162 0.57647 0.0
N1414 N 0.77838 0.48821 0.6169 0.0
C1415 C 0.75426 0.51509 0.60711 0.0
C1416 C 0.76907 0.54409 0.58522 0.0
C1417 C 0.23361 0.91564 0.38815 0.0
C1418 C 0.23546 0.92231 0.42612 0.0
C1419 C 0.21762 0.94128 0.36419 0.0
C1420 C 0.203 0.97481 0.37712 0.0
H1421 H 0.24588 0.89111 0.37668 0.0
H1422 H 0.21908 0.93572 0.33498 0.0
S1423 S 0.20083 0.00534 0.4743 0.0
N1424 N 0.22059 0.96447 0.47584 0.0
N1425 N 0.19162 0.01321 0.43047 0.0
C1426 C 0.20456 0.98175 0.41506 0.0
C1427 C 0.22053 0.95543 0.43959 0.0
C1428 C 0.09157 0.69877 0.93436 0.0
C1429 C 0.07151 0.73174 0.93909 0.0
C1430 C 0.11619 0.68583 0.96136 0.0
C1431 C 0.12095 0.70447 0.99492 0.0
H1432 H 0.08848 0.68243 0.90986 0.0
H1433 H 0.13203 0.66134 0.95558 0.0
S1434 S 0.06858 0.78709 0.02506 0.0
N1435 N 0.05443 0.77956 0.98265 0.0
N1436 N 0.09851 0.75419 0.03381 0.0
C1437 C 0.09805 0.7351 1.00166 0.0
C1438 C 0.07393 0.74891 0.97379 0.0
C1439 C 0.39042 0.27378 0.42455 0.0
C1440 C 0.42796 0.27074 0.43315 0.0
C1441 C 0.36559 0.29025 0.44902 0.0
C1442 C 0.3771 0.30381 0.48348 0.0
H1443 H 0.37983 0.26215 0.39933 0.0
H1444 H 0.3367 0.28993 0.44181 0.0
S1445 S 0.47236 0.30202 0.51964 0.0
N1446 N 0.47564 0.28312 0.47843 0.0
N1447 N 0.42846 0.3125 0.52518 0.0
C1448 C 0.4145 0.30077 0.49257 0.0
C1449 C 0.43999 0.28454 0.46733 0.0
C1450 C 0.60858 0.8127 0.05315 0.0
C1451 C 0.61229 0.79624 0.01838 0.0
C1452 C 0.5854 0.79763 0.0802 0.0
C1453 C 0.56593 0.76454 0.07432 0.0
H1454 H 0.62436 0.83698 0.05988 0.0
H1455 H 0.58279 0.81252 0.10564 0.0
S1456 S 0.56067 0.71418 0.98557 0.0
N1457 N 0.58966 0.74807 0.97756 0.0
N1458 N 0.54783 0.71909 0.02884 0.0
C1459 C 0.5671 0.74955 0.03863 0.0
C1460 C 0.58987 0.76543 0.01071 0.0
C1461 C 0.89844 0.25343 0.5242 0.0
C1462 C 0.89369 0.21519 0.51929 0.0
C1463 C 0.92062 0.2676 0.55241 0.0
C1464 C 0.93899 0.24415 0.57681 0.0
H1465 H 0.88383 0.27275 0.50685 0.0
H1466 H 0.9229 0.29708 0.55566 0.0
S1467 S 0.94151 0.14248 0.57188 0.0
N1468 N 0.91219 0.15436 0.53918 0.0
N1469 N 0.95546 0.18109 0.59115 0.0
C1470 C 0.93614 0.20597 0.57113 0.0
C1471 C 0.913 0.19146 0.54273 0.0
C1472 C 0.95357 0.06646 0.72727 0.0
C1473 C 0.9205 0.07939 0.74296 0.0
C1474 C 0.97949 0.09082 0.71192 0.0
C1475 C 0.97279 0.12887 0.71084 0.0
H1476 H 0.95948 0.0373 0.72715 0.0
H1477 H 0.00517 0.0799 0.70141 0.0
S1478 S 0.89168 0.17653 0.75126 0.0
N1479 N 0.88421 0.13263 0.75951 0.0
N1480 N 0.93112 0.17809 0.72883 0.0
C1481 C 0.93965 0.14187 0.72643 0.0
C1482 C 0.91398 0.11725 0.74296 0.0
C1483 C 0.55579 0.93538 0.22297 0.0
C1484 C 0.58892 0.92292 0.23888 0.0
C1485 C 0.5306 0.91079 0.20692 0.0
C1486 C 0.53786 0.87284 0.20559 0.0
H1487 H 0.54918 0.96438 0.2233 0.0
H1488 H 0.50484 0.92142 0.19633 0.0
S1489 S 0.61972 0.82627 0.24594 0.0
N1490 N 0.62657 0.87026 0.25426 0.0
N1491 N 0.58021 0.82415 0.22368 0.0
C1492 C 0.57114 0.86025 0.2213 0.0
C1493 C 0.59639 0.88522 0.23806 0.0
C1494 C 0.4582 0.39285 0.33053 0.0
C1495 C 0.49249 0.38977 0.31284 0.0
C1496 C 0.43112 0.41766 0.31806 0.0
C1497 C 0.43638 0.43945 0.28625 0.0
H1498 H 0.45194 0.37551 0.35387 0.0
H1499 H 0.4062 0.41951 0.33399 0.0
S1500 S 0.52367 0.44579 0.23299 0.0
N1501 N 0.53213 0.41477 0.26491 0.0
N1502 N 0.48084 0.45893 0.24008 0.0
C1503 C 0.47154 0.43814 0.26975 0.0
C1504 C 0.49951 0.41396 0.28328 0.0
C1505 C 0.04792 0.58228 0.75797 0.0
C1506 C 0.07728 0.5719 0.78083 0.0
C1507 C 0.01994 0.60552 0.77059 0.0
C1508 C 0.02008 0.61978 0.8067 0.0
H1509 H 0.04689 0.5727 0.72978 0.0
H1510 H 0.99881 0.61359 0.75117 0.0
S1511 S 0.08785 0.59727 0.8794 0.0
N1512 N 0.1022 0.57403 0.84307 0.0
N1513 N 0.05074 0.61984 0.86597 0.0
C1514 C 0.04865 0.6089 0.83031 0.0
C1515 C 0.07689 0.58442 0.81764 0.0
C1516 C 0.74799 0.96129 0.08145 0.0
C1517 C 0.7263 0.92992 0.07543 0.0
C1518 C 0.7362 0.98987 0.10432 0.0
C1519 C 0.70224 0.98835 0.123 0.0
H1520 H 0.77477 0.96361 0.06861 0.0
H1521 H 0.75494 0.01257 0.10872 0.0
S1522 S 0.63132 0.91624 0.11127 0.0
N1523 N 0.66583 0.90247 0.08507 0.0
N1524 N 0.64504 0.95492 0.13066 0.0
C1525 C 0.67928 0.95812 0.116 0.0
C1526 C 0.69091 0.92926 0.09165 0.0
C1527 C 0.19104 0.54638 0.90126 0.0
C1528 C 0.21401 0.51726 0.89034 0.0
C1529 C 0.20426 0.5748 0.92403 0.0
C1530 C 0.24139 0.57598 0.93553 0.0
H1531 H 0.1627 0.54724 0.89208 0.0
H1532 H 0.18502 0.59559 0.93299 0.0
S1533 S 0.31356 0.50766 0.91291 0.0
N1534 N 0.27616 0.49185 0.89271 0.0
N1535 N 0.30084 0.54592 0.93366 0.0
C1536 C 0.26456 0.54715 0.92466 0.0
C1537 C 0.251 0.51777 0.90247 0.0
C1538 C 0.29752 0.43113 0.4242 0.0
C1539 C 0.26114 0.43172 0.43799 0.0
C1540 C 0.31105 0.45935 0.40139 0.0
C1541 C 0.28938 0.49016 0.39264 0.0
H1542 H 0.31605 0.40909 0.43128 0.0
H1543 H 0.33862 0.45689 0.39033 0.0
S1544 S 0.19361 0.50701 0.4251 0.0
N1545 N 0.20456 0.46671 0.44268 0.0
N1546 N 0.23032 0.52054 0.40215 0.0
C1547 C 0.25376 0.49209 0.40821 0.0
C1548 C 0.23966 0.46284 0.43031 0.0
C1549 C 0.75461 0.0508 0.58973 0.0
C1550 C 0.78032 0.0765 0.5767 0.0
C1551 C 0.76523 0.0218 0.6127 0.0
C1552 C 0.80199 0.01752 0.62425 0.0
H1553 H 0.72585 0.05341 0.58237 0.0
H1554 H 0.74407 1.00338 0.62269 0.0
S1555 S 0.88115 0.07298 0.59357 0.0
N1556 N 0.84548 0.09193 0.57269 0.0
N1557 N 0.86458 0.0392 0.61886 0.0
C1558 C 0.82823 0.04217 0.61081 0.0
C1559 C 0.81766 0.07117 0.58627 0.0
loop_
_geom_bond_atom_site_label_1
_geom_bond_atom_site_label_2
_geom_bond_distance
_geom_bond_site_symmetry_2
_ccdc_geom_bond_type
Zn0 O1 2.055 1_455 S
Zn0 O8 2.046 . S
Zn0 N16 2.036 1_455 S
Zn0 O28 2.053 . S
Zn0 O30 2.066 1_455 S
O1 Zn0 2.055 1_655 S
O1 C4 1.259 . S
C2 O30 1.256 1_455 S
C2 O31 1.244 . S
Zn3 O5 2.046 . S
Zn3 O7 2.055 . S
Zn3 N9 2.036 . S
Zn3 O27 2.066 . S
Zn3 O31 2.053 . S
C4 O1 1.259 . S
C4 O5 1.254 1_655 S
O5 Zn3 2.046 . S
O5 C4 1.254 1_455 S
C6 O27 1.256 . S
C6 O28 1.244 . S
O7 Zn3 2.055 . S
O7 C29 1.259 . S
O8 Zn0 2.046 . S
O8 C29 1.254 . S
N9 Zn3 2.036 . S
N9 C10 1.298 . S
N9 N12 1.398 . S
C10 N9 1.298 . S
C10 N13 1.367 . S
C10 C23 1.481 . S
C11 N12 1.299 . S
C11 N13 1.379 . S
N12 N9 1.398 . S
N12 C11 1.299 . S
N13 C10 1.367 . S
N13 C11 1.379 . S
C14 N16 1.298 . S
C14 N18 1.367 . S
C14 C22 1.481 . S
C15 N17 1.299 1_655 S
C15 N18 1.379 . S
N16 Zn0 2.036 1_655 S
N16 C14 1.298 . S
N16 N17 1.398 1_655 S
N17 C15 1.299 1_455 S
N17 N16 1.398 1_455 S
N18 C14 1.367 . S
N18 C15 1.379 . S
H19 C22 0.980 . S
H20 C22 0.981 . S
H21 C22 0.981 . S
C22 C14 1.481 . S
C22 H19 0.980 . S
C22 H20 0.981 . S
C22 H21 0.981 . S
C23 C10 1.481 . S
C23 H24 0.980 . S
C23 H25 0.981 . S
C23 H26 0.981 . S
H24 C23 0.980 . S
H25 C23 0.981 . S
H26 C23 0.981 . S
O27 Zn3 2.066 . S
O27 C6 1.256 . S
O28 Zn0 2.053 . S
O28 C6 1.244 . S
C29 O7 1.259 . S
C29 O8 1.254 . S
O30 Zn0 2.066 1_655 S
O30 C2 1.256 1_655 S
O31 C2 1.244 . S
O31 Zn3 2.053 . S
Zn32 O33 2.055 . S
Zn32 O40 2.046 . S
Zn32 N48 2.036 . S
Zn32 O60 2.053 . S
Zn32 O62 2.066 . S
O33 Zn32 2.055 . S
O33 C36 1.259 . S
C34 O62 1.256 . S
C34 O63 1.244 . S
Zn35 O37 2.046 . S
Zn35 O39 2.055 . S
Zn35 N41 2.036 . S
Zn35 O59 2.066 . S
Zn35 O63 2.053 . S
C36 O33 1.259 . S
C36 O37 1.254 . S
O37 Zn35 2.046 . S
O37 C36 1.254 . S
C38 O59 1.256 . S
C38 O60 1.244 . S
O39 Zn35 2.055 . S
O39 C61 1.259 . S
O40 Zn32 2.046 . S
O40 C61 1.254 . S
N41 Zn35 2.036 . S
N41 C42 1.298 . S
N41 N44 1.398 . S
C42 N41 1.298 . S
C42 N45 1.367 . S
C42 C55 1.481 . S
C43 N44 1.299 . S
C43 N45 1.379 . S
N44 N41 1.398 . S
N44 C43 1.299 . S
N45 C42 1.367 . S
N45 C43 1.379 . S
C46 N48 1.298 . S
C46 N50 1.367 . S
C46 C54 1.481 . S
C47 N49 1.299 . S
C47 N50 1.379 . S
N48 Zn32 2.036 . S
N48 C46 1.298 . S
N48 N49 1.398 . S
N49 C47 1.299 . S
N49 N48 1.398 . S
N50 C46 1.367 . S
N50 C47 1.379 . S
H51 C54 0.980 . S
H52 C54 0.981 . S
H53 C54 0.981 . S
C54 C46 1.481 . S
C54 H51 0.980 . S
C54 H52 0.981 . S
C54 H53 0.981 . S
C55 C42 1.481 . S
C55 H56 0.980 . S
C55 H57 0.981 . S
C55 H58 0.981 . S
H56 C55 0.980 . S
H57 C55 0.981 . S
H58 C55 0.981 . S
O59 Zn35 2.066 . S
O59 C38 1.256 . S
O60 Zn32 2.053 . S
O60 C38 1.244 . S
C61 O39 1.259 . S
C61 O40 1.254 . S
O62 Zn32 2.066 . S
O62 C34 1.256 . S
O63 C34 1.244 . S
O63 Zn35 2.053 . S
Zn64 O65 2.055 . S
Zn64 O72 2.046 . S
Zn64 N80 2.036 . S
Zn64 O92 2.053 . S
Zn64 O94 2.066 . S
O65 Zn64 2.055 . S
O65 C68 1.259 . S
C66 O94 1.256 . S
C66 O95 1.244 . S
Zn67 O69 2.046 . S
Zn67 O71 2.055 . S
Zn67 N73 2.036 . S
Zn67 O91 2.066 . S
Zn67 O95 2.053 . S
C68 O65 1.259 . S
C68 O69 1.254 . S
O69 Zn67 2.046 . S
O69 C68 1.254 . S
C70 O91 1.256 . S
C70 O92 1.244 . S
O71 Zn67 2.055 . S
O71 C93 1.259 . S
O72 Zn64 2.046 . S
O72 C93 1.254 . S
N73 Zn67 2.036 . S
N73 C74 1.298 . S
N73 N76 1.398 . S
C74 N73 1.298 . S
C74 N77 1.367 . S
C74 C87 1.481 . S
C75 N76 1.299 . S
C75 N77 1.379 . S
N76 N73 1.398 . S
N76 C75 1.299 . S
N77 C74 1.367 . S
N77 C75 1.379 . S
C78 N80 1.298 . S
C78 N82 1.367 . S
C78 C86 1.481 . S
C79 N81 1.299 . S
C79 N82 1.379 . S
N80 Zn64 2.036 . S
N80 C78 1.298 . S
N80 N81 1.398 . S
N81 C79 1.299 . S
N81 N80 1.398 . S
N82 C78 1.367 . S
N82 C79 1.379 . S
H83 C86 0.980 . S
H84 C86 0.981 . S
H85 C86 0.981 . S
C86 C78 1.481 . S
C86 H83 0.980 . S
C86 H84 0.981 . S
C86 H85 0.981 . S
C87 C74 1.481 . S
C87 H88 0.980 . S
C87 H89 0.981 . S
C87 H90 0.981 . S
H88 C87 0.980 . S
H89 C87 0.981 . S
H90 C87 0.981 . S
O91 Zn67 2.066 . S
O91 C70 1.256 . S
O92 Zn64 2.053 . S
O92 C70 1.244 . S
C93 O71 1.259 . S
C93 O72 1.254 . S
O94 Zn64 2.066 . S
O94 C66 1.256 . S
O95 C66 1.244 . S
O95 Zn67 2.053 . S
Zn96 O97 2.055 . S
Zn96 O104 2.046 . S
Zn96 N112 2.036 . S
Zn96 O124 2.053 . S
Zn96 O126 2.066 . S
O97 Zn96 2.055 . S
O97 C100 1.259 . S
C98 O126 1.256 . S
C98 O127 1.244 . S
Zn99 O101 2.046 . S
Zn99 O103 2.055 1_655 S
Zn99 N105 2.036 1_655 S
Zn99 O123 2.066 1_655 S
Zn99 O127 2.053 . S
C100 O97 1.259 . S
C100 O101 1.254 . S
O101 Zn99 2.046 . S
O101 C100 1.254 . S
C102 O123 1.256 1_655 S
C102 O124 1.244 . S
O103 Zn99 2.055 1_455 S
O103 C125 1.259 . S
O104 Zn96 2.046 . S
O104 C125 1.254 1_655 S
N105 Zn99 2.036 1_455 S
N105 C106 1.298 . S
N105 N108 1.398 1_455 S
C106 N105 1.298 . S
C106 N109 1.367 . S
C106 C119 1.481 . S
C107 N108 1.299 1_455 S
C107 N109 1.379 . S
N108 N105 1.398 1_655 S
N108 C107 1.299 1_655 S
N109 C106 1.367 . S
N109 C107 1.379 . S
C110 N112 1.298 . S
C110 N114 1.367 . S
C110 C118 1.481 . S
C111 N113 1.299 . S
C111 N114 1.379 . S
N112 Zn96 2.036 . S
N112 C110 1.298 . S
N112 N113 1.398 . S
N113 C111 1.299 . S
N113 N112 1.398 . S
N114 C110 1.367 . S
N114 C111 1.379 . S
H115 C118 0.980 . S
H116 C118 0.981 . S
H117 C118 0.981 . S
C118 C110 1.481 . S
C118 H115 0.980 . S
C118 H116 0.981 . S
C118 H117 0.981 . S
C119 C106 1.481 . S
C119 H120 0.980 . S
C119 H121 0.981 . S
C119 H122 0.981 . S
H120 C119 0.980 . S
H121 C119 0.981 . S
H122 C119 0.981 . S
O123 Zn99 2.066 1_455 S
O123 C102 1.256 1_455 S
O124 Zn96 2.053 . S
O124 C102 1.244 . S
C125 O103 1.259 . S
C125 O104 1.254 1_455 S
O126 Zn96 2.066 . S
O126 C98 1.256 . S
O127 C98 1.244 . S
O127 Zn99 2.053 . S
Zn128 O129 2.055 . S
Zn128 O136 2.046 . S
Zn128 N144 2.036 . S
Zn128 O156 2.053 . S
Zn128 O158 2.066 . S
O129 Zn128 2.055 . S
O129 C132 1.259 . S
C130 O158 1.256 . S
C130 O159 1.244 . S
Zn131 O133 2.046 . S
Zn131 O135 2.055 1_545 S
Zn131 N137 2.036 1_545 S
Zn131 O155 2.066 1_545 S
Zn131 O159 2.053 . S
C132 O129 1.259 . S
C132 O133 1.254 . S
O133 Zn131 2.046 . S
O133 C132 1.254 . S
C134 O155 1.256 1_545 S
C134 O156 1.244 . S
O135 Zn131 2.055 1_565 S
O135 C157 1.259 . S
O136 Zn128 2.046 . S
O136 C157 1.254 1_545 S
N137 Zn131 2.036 1_565 S
N137 C138 1.298 . S
N137 N140 1.398 1_565 S
C138 N137 1.298 . S
C138 N141 1.367 . S
C138 C151 1.481 . S
C139 N140 1.299 1_565 S
C139 N141 1.379 . S
N140 N137 1.398 1_545 S
N140 C139 1.299 1_545 S
N141 C138 1.367 . S
N141 C139 1.379 . S
C142 N144 1.298 . S
C142 N146 1.367 . S
C142 C150 1.481 . S
C143 N145 1.299 . S
C143 N146 1.379 . S
N144 Zn128 2.036 . S
N144 C142 1.298 . S
N144 N145 1.398 . S
N145 C143 1.299 . S
N145 N144 1.398 . S
N146 C142 1.367 . S
N146 C143 1.379 . S
H147 C150 0.980 . S
H148 C150 0.981 . S
H149 C150 0.981 . S
C150 C142 1.481 . S
C150 H147 0.980 . S
C150 H148 0.981 . S
C150 H149 0.981 . S
C151 C138 1.481 . S
C151 H152 0.980 . S
C151 H153 0.981 . S
C151 H154 0.981 . S
H152 C151 0.980 . S
H153 C151 0.981 . S
H154 C151 0.981 . S
O155 Zn131 2.066 1_565 S
O155 C134 1.256 1_565 S
O156 Zn128 2.053 . S
O156 C134 1.244 . S
C157 O135 1.259 . S
C157 O136 1.254 1_565 S
O158 Zn128 2.066 . S
O158 C130 1.256 . S
O159 C130 1.244 . S
O159 Zn131 2.053 . S
Zn160 O161 2.055 1_565 S
Zn160 O168 2.046 . S
Zn160 N176 2.036 1_565 S
Zn160 O188 2.053 . S
Zn160 O190 2.066 1_565 S
O161 Zn160 2.055 1_545 S
O161 C164 1.259 . S
C162 O190 1.256 1_565 S
C162 O191 1.244 . S
Zn163 O165 2.046 . S
Zn163 O167 2.055 . S
Zn163 N169 2.036 . S
Zn163 O187 2.066 . S
Zn163 O191 2.053 . S
C164 O161 1.259 . S
C164 O165 1.254 1_545 S
O165 Zn163 2.046 . S
O165 C164 1.254 1_565 S
C166 O187 1.256 . S
C166 O188 1.244 . S
O167 Zn163 2.055 . S
O167 C189 1.259 . S
O168 Zn160 2.046 . S
O168 C189 1.254 . S
N169 Zn163 2.036 . S
N169 C170 1.298 . S
N169 N172 1.398 . S
C170 N169 1.298 . S
C170 N173 1.367 . S
C170 C183 1.481 . S
C171 N172 1.299 . S
C171 N173 1.379 . S
N172 N169 1.398 . S
N172 C171 1.299 . S
N173 C170 1.367 . S
N173 C171 1.379 . S
C174 N176 1.298 . S
C174 N178 1.367 . S
C174 C182 1.481 . S
C175 N177 1.299 1_545 S
C175 N178 1.379 . S
N176 Zn160 2.036 1_545 S
N176 C174 1.298 . S
N176 N177 1.398 1_545 S
N177 C175 1.299 1_565 S
N177 N176 1.398 1_565 S
N178 C174 1.367 . S
N178 C175 1.379 . S
H179 C182 0.980 . S
H180 C182 0.981 . S
H181 C182 0.981 . S
C182 C174 1.481 . S
C182 H179 0.980 . S
C182 H180 0.981 . S
C182 H181 0.981 . S
C183 C170 1.481 . S
C183 H184 0.980 . S
C183 H185 0.981 . S
C183 H186 0.981 . S
H184 C183 0.980 . S
H185 C183 0.981 . S
H186 C183 0.981 . S
O187 Zn163 2.066 . S
O187 C166 1.256 . S
O188 Zn160 2.053 . S
O188 C166 1.244 . S
C189 O167 1.259 . S
C189 O168 1.254 . S
O190 Zn160 2.066 1_545 S
O190 C162 1.256 1_545 S
O191 C162 1.244 . S
O191 Zn163 2.053 . S
Zn192 O193 2.055 . S
Zn192 O200 2.046 . S
Zn192 N208 2.036 . S
Zn192 O220 2.053 . S
Zn192 O222 2.066 . S
O193 Zn192 2.055 . S
O193 C196 1.259 . S
C194 O222 1.256 . S
C194 O223 1.244 . S
Zn195 O197 2.046 . S
Zn195 O199 2.055 . S
Zn195 N201 2.036 . S
Zn195 O219 2.066 . S
Zn195 O223 2.053 . S
C196 O193 1.259 . S
C196 O197 1.254 . S
O197 Zn195 2.046 . S
O197 C196 1.254 . S
C198 O219 1.256 . S
C198 O220 1.244 . S
O199 Zn195 2.055 . S
O199 C221 1.259 . S
O200 Zn192 2.046 . S
O200 C221 1.254 . S
N201 Zn195 2.036 . S
N201 C202 1.298 . S
N201 N204 1.398 . S
C202 N201 1.298 . S
C202 N205 1.367 . S
C202 C215 1.481 . S
C203 N204 1.299 . S
C203 N205 1.379 . S
N204 N201 1.398 . S
N204 C203 1.299 . S
N205 C202 1.367 . S
N205 C203 1.379 . S
C206 N208 1.298 . S
C206 N210 1.367 . S
C206 C214 1.481 . S
C207 N209 1.299 . S
C207 N210 1.379 . S
N208 Zn192 2.036 . S
N208 C206 1.298 . S
N208 N209 1.398 . S
N209 C207 1.299 . S
N209 N208 1.398 . S
N210 C206 1.367 . S
N210 C207 1.379 . S
H211 C214 0.980 . S
H212 C214 0.981 . S
H213 C214 0.981 . S
C214 C206 1.481 . S
C214 H211 0.980 . S
C214 H212 0.981 . S
C214 H213 0.981 . S
C215 C202 1.481 . S
C215 H216 0.980 . S
C215 H217 0.981 . S
C215 H218 0.981 . S
H216 C215 0.980 . S
H217 C215 0.981 . S
H218 C215 0.981 . S
O219 Zn195 2.066 . S
O219 C198 1.256 . S
O220 Zn192 2.053 . S
O220 C198 1.244 . S
C221 O199 1.259 . S
C221 O200 1.254 . S
O222 Zn192 2.066 . S
O222 C194 1.256 . S
O223 C194 1.244 . S
O223 Zn195 2.053 . S
Zn224 O225 2.055 . S
Zn224 O232 2.046 . S
Zn224 N240 2.036 . S
Zn224 O252 2.053 . S
Zn224 O254 2.066 . S
O225 Zn224 2.055 . S
O225 C228 1.259 . S
C226 O254 1.256 . S
C226 O255 1.244 . S
Zn227 O229 2.046 . S
Zn227 O231 2.055 . S
Zn227 N233 2.036 . S
Zn227 O251 2.066 . S
Zn227 O255 2.053 . S
C228 O225 1.259 . S
C228 O229 1.254 . S
O229 Zn227 2.046 . S
O229 C228 1.254 . S
C230 O251 1.256 . S
C230 O252 1.244 . S
O231 Zn227 2.055 . S
O231 C253 1.259 . S
O232 Zn224 2.046 . S
O232 C253 1.254 . S
N233 Zn227 2.036 . S
N233 C234 1.298 . S
N233 N236 1.398 . S
C234 N233 1.298 . S
C234 N237 1.367 . S
C234 C247 1.481 . S
C235 N236 1.299 . S
C235 N237 1.379 . S
N236 N233 1.398 . S
N236 C235 1.299 . S
N237 C234 1.367 . S
N237 C235 1.379 . S
C238 N240 1.298 . S
C238 N242 1.367 . S
C238 C246 1.481 . S
C239 N241 1.299 . S
C239 N242 1.379 . S
N240 Zn224 2.036 . S
N240 C238 1.298 . S
N240 N241 1.398 . S
N241 C239 1.299 . S
N241 N240 1.398 . S
N242 C238 1.367 . S
N242 C239 1.379 . S
H243 C246 0.980 . S
H244 C246 0.981 . S
H245 C246 0.981 . S
C246 C238 1.481 . S
C246 H243 0.980 . S
C246 H244 0.981 . S
C246 H245 0.981 . S
C247 C234 1.481 . S
C247 H248 0.980 . S
C247 H249 0.981 . S
C247 H250 0.981 . S
H248 C247 0.980 . S
H249 C247 0.981 . S
H250 C247 0.981 . S
O251 Zn227 2.066 . S
O251 C230 1.256 . S
O252 Zn224 2.053 . S
O252 C230 1.244 . S
C253 O231 1.259 . S
C253 O232 1.254 . S
O254 Zn224 2.066 . S
O254 C226 1.256 . S
O255 C226 1.244 . S
O255 Zn227 2.053 . S
Zn256 O257 2.055 1_554 S
Zn256 O264 2.046 . S
Zn256 N272 2.036 1_554 S
Zn256 O284 2.053 . S
Zn256 O286 2.066 1_554 S
O257 Zn256 2.055 1_556 S
O257 C260 1.259 . S
C258 O286 1.256 1_554 S
C258 O287 1.244 . S
Zn259 O261 2.046 . S
Zn259 O263 2.055 . S
Zn259 N265 2.036 . S
Zn259 O283 2.066 . S
Zn259 O287 2.053 . S
C260 O257 1.259 . S
C260 O261 1.254 1_556 S
O261 Zn259 2.046 . S
O261 C260 1.254 1_554 S
C262 O283 1.256 . S
C262 O284 1.244 . S
O263 Zn259 2.055 . S
O263 C285 1.259 . S
O264 Zn256 2.046 . S
O264 C285 1.254 . S
N265 Zn259 2.036 . S
N265 C266 1.298 . S
N265 N268 1.398 . S
C266 N265 1.298 . S
C266 N269 1.367 . S
C266 C279 1.481 . S
C267 N268 1.299 . S
C267 N269 1.379 . S
N268 N265 1.398 . S
N268 C267 1.299 . S
N269 C266 1.367 . S
N269 C267 1.379 . S
C270 N272 1.298 . S
C270 N274 1.367 . S
C270 C278 1.481 . S
C271 N273 1.299 1_556 S
C271 N274 1.379 . S
N272 Zn256 2.036 1_556 S
N272 C270 1.298 . S
N272 N273 1.398 1_556 S
N273 C271 1.299 1_554 S
N273 N272 1.398 1_554 S
N274 C270 1.367 . S
N274 C271 1.379 . S
H275 C278 0.980 . S
H276 C278 0.981 . S
H277 C278 0.981 . S
C278 C270 1.481 . S
C278 H275 0.980 . S
C278 H276 0.981 . S
C278 H277 0.981 . S
C279 C266 1.481 . S
C279 H280 0.980 . S
C279 H281 0.981 . S
C279 H282 0.981 . S
H280 C279 0.980 . S
H281 C279 0.981 . S
H282 C279 0.981 . S
O283 Zn259 2.066 . S
O283 C262 1.256 . S
O284 Zn256 2.053 . S
O284 C262 1.244 . S
C285 O263 1.259 . S
C285 O264 1.254 . S
O286 Zn256 2.066 1_556 S
O286 C258 1.256 1_556 S
O287 C258 1.244 . S
O287 Zn259 2.053 . S
Zn288 O289 2.055 1_556 S
Zn288 O296 2.046 . S
Zn288 N304 2.036 1_556 S
Zn288 O316 2.053 . S
Zn288 O318 2.066 1_556 S
O289 Zn288 2.055 1_554 S
O289 C292 1.259 . S
C290 O318 1.256 1_556 S
C290 O319 1.244 . S
Zn291 O293 2.046 . S
Zn291 O295 2.055 . S
Zn291 N297 2.036 . S
Zn291 O315 2.066 . S
Zn291 O319 2.053 . S
C292 O289 1.259 . S
C292 O293 1.254 1_554 S
O293 Zn291 2.046 . S
O293 C292 1.254 1_556 S
C294 O315 1.256 . S
C294 O316 1.244 . S
O295 Zn291 2.055 . S
O295 C317 1.259 . S
O296 Zn288 2.046 . S
O296 C317 1.254 . S
N297 Zn291 2.036 . S
N297 C298 1.298 . S
N297 N300 1.398 . S
C298 N297 1.298 . S
C298 N301 1.367 . S
C298 C311 1.481 . S
C299 N300 1.299 . S
C299 N301 1.379 . S
N300 N297 1.398 . S
N300 C299 1.299 . S
N301 C298 1.367 . S
N301 C299 1.379 . S
C302 N304 1.298 . S
C302 N306 1.367 . S
C302 C310 1.481 . S
C303 N305 1.299 1_554 S
C303 N306 1.379 . S
N304 Zn288 2.036 1_554 S
N304 C302 1.298 . S
N304 N305 1.398 1_554 S
N305 C303 1.299 1_556 S
N305 N304 1.398 1_556 S
N306 C302 1.367 . S
N306 C303 1.379 . S
H307 C310 0.980 . S
H308 C310 0.981 . S
H309 C310 0.981 . S
C310 C302 1.481 . S
C310 H307 0.980 . S
C310 H308 0.981 . S
C310 H309 0.981 . S
C311 C298 1.481 . S
C311 H312 0.980 . S
C311 H313 0.981 . S
C311 H314 0.981 . S
H312 C311 0.980 . S
H313 C311 0.981 . S
H314 C311 0.981 . S
O315 Zn291 2.066 . S
O315 C294 1.256 . S
O316 Zn288 2.053 . S
O316 C294 1.244 . S
C317 O295 1.259 . S
C317 O296 1.254 . S
O318 Zn288 2.066 1_554 S
O318 C290 1.256 1_554 S
O319 C290 1.244 . S
O319 Zn291 2.053 . S
Zn320 O321 2.055 . S
Zn320 O328 2.046 . S
Zn320 N336 2.036 . S
Zn320 O348 2.053 . S
Zn320 O350 2.066 . S
O321 Zn320 2.055 . S
O321 C324 1.259 . S
C322 O350 1.256 . S
C322 O351 1.244 . S
Zn323 O325 2.046 . S
Zn323 O327 2.055 . S
Zn323 N329 2.036 . S
Zn323 O347 2.066 . S
Zn323 O351 2.053 . S
C324 O321 1.259 . S
C324 O325 1.254 . S
O325 Zn323 2.046 . S
O325 C324 1.254 . S
C326 O347 1.256 . S
C326 O348 1.244 . S
O327 Zn323 2.055 . S
O327 C349 1.259 . S
O328 Zn320 2.046 . S
O328 C349 1.254 . S
N329 Zn323 2.036 . S
N329 C330 1.298 . S
N329 N332 1.398 . S
C330 N329 1.298 . S
C330 N333 1.367 . S
C330 C343 1.481 . S
C331 N332 1.299 . S
C331 N333 1.379 . S
N332 N329 1.398 . S
N332 C331 1.299 . S
N333 C330 1.367 . S
N333 C331 1.379 . S
C334 N336 1.298 . S
C334 N338 1.367 . S
C334 C342 1.481 . S
C335 N337 1.299 . S
C335 N338 1.379 . S
N336 Zn320 2.036 . S
N336 C334 1.298 . S
N336 N337 1.398 . S
N337 C335 1.299 . S
N337 N336 1.398 . S
N338 C334 1.367 . S
N338 C335 1.379 . S
H339 C342 0.980 . S
H340 C342 0.981 . S
H341 C342 0.981 . S
C342 C334 1.481 . S
C342 H339 0.980 . S
C342 H340 0.981 . S
C342 H341 0.981 . S
C343 C330 1.481 . S
C343 H344 0.980 . S
C343 H345 0.981 . S
C343 H346 0.981 . S
H344 C343 0.980 . S
H345 C343 0.981 . S
H346 C343 0.981 . S
O347 Zn323 2.066 . S
O347 C326 1.256 . S
O348 Zn320 2.053 . S
O348 C326 1.244 . S
C349 O327 1.259 . S
C349 O328 1.254 . S
O350 Zn320 2.066 . S
O350 C322 1.256 . S
O351 C322 1.244 . S
O351 Zn323 2.053 . S
Zn352 O353 2.055 . S
Zn352 O360 2.046 . S
Zn352 N368 2.036 . S
Zn352 O380 2.053 . S
Zn352 O382 2.066 . S
O353 Zn352 2.055 . S
O353 C356 1.259 . S
C354 O382 1.256 . S
C354 O383 1.244 . S
Zn355 O357 2.046 . S
Zn355 O359 2.055 . S
Zn355 N361 2.036 . S
Zn355 O379 2.066 . S
Zn355 O383 2.053 . S
C356 O353 1.259 . S
C356 O357 1.254 . S
O357 Zn355 2.046 . S
O357 C356 1.254 . S
C358 O379 1.256 . S
C358 O380 1.244 . S
O359 Zn355 2.055 . S
O359 C381 1.259 . S
O360 Zn352 2.046 . S
O360 C381 1.254 . S
N361 Zn355 2.036 . S
N361 C362 1.298 . S
N361 N364 1.398 . S
C362 N361 1.298 . S
C362 N365 1.367 . S
C362 C375 1.481 . S
C363 N364 1.299 . S
C363 N365 1.379 . S
N364 N361 1.398 . S
N364 C363 1.299 . S
N365 C362 1.367 . S
N365 C363 1.379 . S
C366 N368 1.298 . S
C366 N370 1.367 . S
C366 C374 1.481 . S
C367 N369 1.299 . S
C367 N370 1.379 . S
N368 Zn352 2.036 . S
N368 C366 1.298 . S
N368 N369 1.398 . S
N369 C367 1.299 . S
N369 N368 1.398 . S
N370 C366 1.367 . S
N370 C367 1.379 . S
H371 C374 0.980 . S
H372 C374 0.981 . S
H373 C374 0.981 . S
C374 C366 1.481 . S
C374 H371 0.980 . S
C374 H372 0.981 . S
C374 H373 0.981 . S
C375 C362 1.481 . S
C375 H376 0.980 . S
C375 H377 0.981 . S
C375 H378 0.981 . S
H376 C375 0.980 . S
H377 C375 0.981 . S
H378 C375 0.981 . S
O379 Zn355 2.066 . S
O379 C358 1.256 . S
O380 Zn352 2.053 . S
O380 C358 1.244 . S
C381 O359 1.259 . S
C381 O360 1.254 . S
O382 Zn352 2.066 . S
O382 C354 1.256 . S
O383 C354 1.244 . S
O383 Zn355 2.053 . S
Zn384 O385 2.055 . S
Zn384 O392 2.046 . S
Zn384 N400 2.036 . S
Zn384 O412 2.053 . S
Zn384 O414 2.066 . S
O385 Zn384 2.055 . S
O385 C388 1.259 . S
C386 O414 1.256 . S
C386 O415 1.244 . S
Zn387 O389 2.046 . S
Zn387 O391 2.055 1_655 S
Zn387 N393 2.036 1_655 S
Zn387 O411 2.066 1_655 S
Zn387 O415 2.053 . S
C388 O385 1.259 . S
C388 O389 1.254 . S
O389 Zn387 2.046 . S
O389 C388 1.254 . S
C390 O411 1.256 1_655 S
C390 O412 1.244 . S
O391 Zn387 2.055 1_455 S
O391 C413 1.259 . S
O392 Zn384 2.046 . S
O392 C413 1.254 1_655 S
N393 Zn387 2.036 1_455 S
N393 C394 1.298 . S
N393 N396 1.398 1_455 S
C394 N393 1.298 . S
C394 N397 1.367 . S
C394 C407 1.481 . S
C395 N396 1.299 1_455 S
C395 N397 1.379 . S
N396 N393 1.398 1_655 S
N396 C395 1.299 1_655 S
N397 C394 1.367 . S
N397 C395 1.379 . S
C398 N400 1.298 . S
C398 N402 1.367 . S
C398 C406 1.481 . S
C399 N401 1.299 . S
C399 N402 1.379 . S
N400 Zn384 2.036 . S
N400 C398 1.298 . S
N400 N401 1.398 . S
N401 C399 1.299 . S
N401 N400 1.398 . S
N402 C398 1.367 . S
N402 C399 1.379 . S
H403 C406 0.980 . S
H404 C406 0.981 . S
H405 C406 0.981 . S
C406 C398 1.481 . S
C406 H403 0.980 . S
C406 H404 0.981 . S
C406 H405 0.981 . S
C407 C394 1.481 . S
C407 H408 0.980 . S
C407 H409 0.981 . S
C407 H410 0.981 . S
H408 C407 0.980 . S
H409 C407 0.981 . S
H410 C407 0.981 . S
O411 Zn387 2.066 1_455 S
O411 C390 1.256 1_455 S
O412 Zn384 2.053 . S
O412 C390 1.244 . S
C413 O391 1.259 . S
C413 O392 1.254 1_455 S
O414 Zn384 2.066 . S
O414 C386 1.256 . S
O415 C386 1.244 . S
O415 Zn387 2.053 . S
Zn416 O417 2.055 . S
Zn416 O424 2.046 . S
Zn416 N432 2.036 . S
Zn416 O444 2.053 . S
Zn416 O446 2.066 . S
O417 Zn416 2.055 . S
O417 C420 1.259 . S
C418 O446 1.256 . S
C418 O447 1.244 . S
Zn419 O421 2.046 . S
Zn419 O423 2.055 . S
Zn419 N425 2.036 . S
Zn419 O443 2.066 . S
Zn419 O447 2.053 . S
C420 O417 1.259 . S
C420 O421 1.254 . S
O421 Zn419 2.046 . S
O421 C420 1.254 . S
C422 O443 1.256 . S
C422 O444 1.244 . S
O423 Zn419 2.055 . S
O423 C445 1.259 . S
O424 Zn416 2.046 . S
O424 C445 1.254 . S
N425 Zn419 2.036 . S
N425 C426 1.298 . S
N425 N428 1.398 . S
C426 N425 1.298 . S
C426 N429 1.367 . S
C426 C439 1.481 . S
C427 N428 1.299 . S
C427 N429 1.379 . S
N428 N425 1.398 . S
N428 C427 1.299 . S
N429 C426 1.367 . S
N429 C427 1.379 . S
C430 N432 1.298 . S
C430 N434 1.367 . S
C430 C438 1.481 . S
C431 N433 1.299 . S
C431 N434 1.379 . S
N432 Zn416 2.036 . S
N432 C430 1.298 . S
N432 N433 1.398 . S
N433 C431 1.299 . S
N433 N432 1.398 . S
N434 C430 1.367 . S
N434 C431 1.379 . S
H435 C438 0.980 . S
H436 C438 0.981 . S
H437 C438 0.981 . S
C438 C430 1.481 . S
C438 H435 0.980 . S
C438 H436 0.981 . S
C438 H437 0.981 . S
C439 C426 1.481 . S
C439 H440 0.980 . S
C439 H441 0.981 . S
C439 H442 0.981 . S
H440 C439 0.980 . S
H441 C439 0.981 . S
H442 C439 0.981 . S
O443 Zn419 2.066 . S
O443 C422 1.256 . S
O444 Zn416 2.053 . S
O444 C422 1.244 . S
C445 O423 1.259 . S
C445 O424 1.254 . S
O446 Zn416 2.066 . S
O446 C418 1.256 . S
O447 C418 1.244 . S
O447 Zn419 2.053 . S
Zn448 O449 2.055 . S
Zn448 O456 2.046 . S
Zn448 N464 2.036 . S
Zn448 O476 2.053 . S
Zn448 O478 2.066 . S
O449 Zn448 2.055 . S
O449 C452 1.259 . S
C450 O478 1.256 . S
C450 O479 1.244 . S
Zn451 O453 2.046 . S
Zn451 O455 2.055 . S
Zn451 N457 2.036 . S
Zn451 O475 2.066 . S
Zn451 O479 2.053 . S
C452 O449 1.259 . S
C452 O453 1.254 . S
O453 Zn451 2.046 . S
O453 C452 1.254 . S
C454 O475 1.256 . S
C454 O476 1.244 . S
O455 Zn451 2.055 . S
O455 C477 1.259 . S
O456 Zn448 2.046 . S
O456 C477 1.254 . S
N457 Zn451 2.036 . S
N457 C458 1.298 . S
N457 N460 1.398 . S
C458 N457 1.298 . S
C458 N461 1.367 . S
C458 C471 1.481 . S
C459 N460 1.299 . S
C459 N461 1.379 . S
N460 N457 1.398 . S
N460 C459 1.299 . S
N461 C458 1.367 . S
N461 C459 1.379 . S
C462 N464 1.298 . S
C462 N466 1.367 . S
C462 C470 1.481 . S
C463 N465 1.299 . S
C463 N466 1.379 . S
N464 Zn448 2.036 . S
N464 C462 1.298 . S
N464 N465 1.398 . S
N465 C463 1.299 . S
N465 N464 1.398 . S
N466 C462 1.367 . S
N466 C463 1.379 . S
H467 C470 0.980 . S
H468 C470 0.981 . S
H469 C470 0.981 . S
C470 C462 1.481 . S
C470 H467 0.980 . S
C470 H468 0.981 . S
C470 H469 0.981 . S
C471 C458 1.481 . S
C471 H472 0.980 . S
C471 H473 0.981 . S
C471 H474 0.981 . S
H472 C471 0.980 . S
H473 C471 0.981 . S
H474 C471 0.981 . S
O475 Zn451 2.066 . S
O475 C454 1.256 . S
O476 Zn448 2.053 . S
O476 C454 1.244 . S
C477 O455 1.259 . S
C477 O456 1.254 . S
O478 Zn448 2.066 . S
O478 C450 1.256 . S
O479 C450 1.244 . S
O479 Zn451 2.053 . S
Zn480 O481 2.055 . S
Zn480 O488 2.046 . S
Zn480 N496 2.036 . S
Zn480 O508 2.053 . S
Zn480 O510 2.066 . S
O481 Zn480 2.055 . S
O481 C484 1.259 . S
C482 O510 1.256 . S
C482 O511 1.244 . S
Zn483 O485 2.046 . S
Zn483 O487 2.055 1_455 S
Zn483 N489 2.036 1_455 S
Zn483 O507 2.066 1_455 S
Zn483 O511 2.053 . S
C484 O481 1.259 . S
C484 O485 1.254 . S
O485 Zn483 2.046 . S
O485 C484 1.254 . S
C486 O507 1.256 1_455 S
C486 O508 1.244 . S
O487 Zn483 2.055 1_655 S
O487 C509 1.259 . S
O488 Zn480 2.046 . S
O488 C509 1.254 1_455 S
N489 Zn483 2.036 1_655 S
N489 C490 1.298 . S
N489 N492 1.398 1_655 S
C490 N489 1.298 . S
C490 N493 1.367 . S
C490 C503 1.481 . S
C491 N492 1.299 1_655 S
C491 N493 1.379 . S
N492 N489 1.398 1_455 S
N492 C491 1.299 1_455 S
N493 C490 1.367 . S
N493 C491 1.379 . S
C494 N496 1.298 . S
C494 N498 1.367 . S
C494 C502 1.481 . S
C495 N497 1.299 . S
C495 N498 1.379 . S
N496 Zn480 2.036 . S
N496 C494 1.298 . S
N496 N497 1.398 . S
N497 C495 1.299 . S
N497 N496 1.398 . S
N498 C494 1.367 . S
N498 C495 1.379 . S
H499 C502 0.980 . S
H500 C502 0.981 . S
H501 C502 0.981 . S
C502 C494 1.481 . S
C502 H499 0.980 . S
C502 H500 0.981 . S
C502 H501 0.981 . S
C503 C490 1.481 . S
C503 H504 0.980 . S
C503 H505 0.981 . S
C503 H506 0.981 . S
H504 C503 0.980 . S
H505 C503 0.981 . S
H506 C503 0.981 . S
O507 Zn483 2.066 1_655 S
O507 C486 1.256 1_655 S
O508 Zn480 2.053 . S
O508 C486 1.244 . S
C509 O487 1.259 . S
C509 O488 1.254 1_655 S
O510 Zn480 2.066 . S
O510 C482 1.256 . S
O511 C482 1.244 . S
O511 Zn483 2.053 . S
Zn512 O513 2.055 . S
Zn512 O520 2.046 . S
Zn512 N528 2.036 . S
Zn512 O540 2.053 . S
Zn512 O542 2.066 . S
O513 Zn512 2.055 . S
O513 C516 1.259 . S
C514 O542 1.256 . S
C514 O543 1.244 . S
Zn515 O517 2.046 . S
Zn515 O519 2.055 1_565 S
Zn515 N521 2.036 1_565 S
Zn515 O539 2.066 1_565 S
Zn515 O543 2.053 . S
C516 O513 1.259 . S
C516 O517 1.254 . S
O517 Zn515 2.046 . S
O517 C516 1.254 . S
C518 O539 1.256 1_565 S
C518 O540 1.244 . S
O519 Zn515 2.055 1_545 S
O519 C541 1.259 . S
O520 Zn512 2.046 . S
O520 C541 1.254 1_565 S
N521 Zn515 2.036 1_545 S
N521 C522 1.298 . S
N521 N524 1.398 1_545 S
C522 N521 1.298 . S
C522 N525 1.367 . S
C522 C535 1.481 . S
C523 N524 1.299 1_545 S
C523 N525 1.379 . S
N524 N521 1.398 1_565 S
N524 C523 1.299 1_565 S
N525 C522 1.367 . S
N525 C523 1.379 . S
C526 N528 1.298 . S
C526 N530 1.367 . S
C526 C534 1.481 . S
C527 N529 1.299 . S
C527 N530 1.379 . S
N528 Zn512 2.036 . S
N528 C526 1.298 . S
N528 N529 1.398 . S
N529 C527 1.299 . S
N529 N528 1.398 . S
N530 C526 1.367 . S
N530 C527 1.379 . S
H531 C534 0.980 . S
H532 C534 0.981 . S
H533 C534 0.981 . S
C534 C526 1.481 . S
C534 H531 0.980 . S
C534 H532 0.981 . S
C534 H533 0.981 . S
C535 C522 1.481 . S
C535 H536 0.980 . S
C535 H537 0.981 . S
C535 H538 0.981 . S
H536 C535 0.980 . S
H537 C535 0.981 . S
H538 C535 0.981 . S
O539 Zn515 2.066 1_545 S
O539 C518 1.256 1_545 S
O540 Zn512 2.053 . S
O540 C518 1.244 . S
C541 O519 1.259 . S
C541 O520 1.254 1_545 S
O542 Zn512 2.066 . S
O542 C514 1.256 . S
O543 C514 1.244 . S
O543 Zn515 2.053 . S
Zn544 O545 2.055 1_545 S
Zn544 O552 2.046 . S
Zn544 N560 2.036 1_545 S
Zn544 O572 2.053 . S
Zn544 O574 2.066 1_545 S
O545 Zn544 2.055 1_565 S
O545 C548 1.259 . S
C546 O574 1.256 1_545 S
C546 O575 1.244 . S
Zn547 O549 2.046 . S
Zn547 O551 2.055 . S
Zn547 N553 2.036 . S
Zn547 O571 2.066 . S
Zn547 O575 2.053 . S
C548 O545 1.259 . S
C548 O549 1.254 1_565 S
O549 Zn547 2.046 . S
O549 C548 1.254 1_545 S
C550 O571 1.256 . S
C550 O572 1.244 . S
O551 Zn547 2.055 . S
O551 C573 1.259 . S
O552 Zn544 2.046 . S
O552 C573 1.254 . S
N553 Zn547 2.036 . S
N553 C554 1.298 . S
N553 N556 1.398 . S
C554 N553 1.298 . S
C554 N557 1.367 . S
C554 C567 1.481 . S
C555 N556 1.299 . S
C555 N557 1.379 . S
N556 N553 1.398 . S
N556 C555 1.299 . S
N557 C554 1.367 . S
N557 C555 1.379 . S
C558 N560 1.298 . S
C558 N562 1.367 . S
C558 C566 1.481 . S
C559 N561 1.299 1_565 S
C559 N562 1.379 . S
N560 Zn544 2.036 1_565 S
N560 C558 1.298 . S
N560 N561 1.398 1_565 S
N561 C559 1.299 1_545 S
N561 N560 1.398 1_545 S
N562 C558 1.367 . S
N562 C559 1.379 . S
H563 C566 0.980 . S
H564 C566 0.981 . S
H565 C566 0.981 . S
C566 C558 1.481 . S
C566 H563 0.980 . S
C566 H564 0.981 . S
C566 H565 0.981 . S
C567 C554 1.481 . S
C567 H568 0.980 . S
C567 H569 0.981 . S
C567 H570 0.981 . S
H568 C567 0.980 . S
H569 C567 0.981 . S
H570 C567 0.981 . S
O571 Zn547 2.066 . S
O571 C550 1.256 . S
O572 Zn544 2.053 . S
O572 C550 1.244 . S
C573 O551 1.259 . S
C573 O552 1.254 . S
O574 Zn544 2.066 1_565 S
O574 C546 1.256 1_565 S
O575 C546 1.244 . S
O575 Zn547 2.053 . S
Zn576 O577 2.055 . S
Zn576 O584 2.046 . S
Zn576 N592 2.036 . S
Zn576 O604 2.053 . S
Zn576 O606 2.066 . S
O577 Zn576 2.055 . S
O577 C580 1.259 . S
C578 O606 1.256 . S
C578 O607 1.244 . S
Zn579 O581 2.046 . S
Zn579 O583 2.055 . S
Zn579 N585 2.036 . S
Zn579 O603 2.066 . S
Zn579 O607 2.053 . S
C580 O577 1.259 . S
C580 O581 1.254 . S
O581 Zn579 2.046 . S
O581 C580 1.254 . S
C582 O603 1.256 . S
C582 O604 1.244 . S
O583 Zn579 2.055 . S
O583 C605 1.259 . S
O584 Zn576 2.046 . S
O584 C605 1.254 . S
N585 Zn579 2.036 . S
N585 C586 1.298 . S
N585 N588 1.398 . S
C586 N585 1.298 . S
C586 N589 1.367 . S
C586 C599 1.481 . S
C587 N588 1.299 . S
C587 N589 1.379 . S
N588 N585 1.398 . S
N588 C587 1.299 . S
N589 C586 1.367 . S
N589 C587 1.379 . S
C590 N592 1.298 . S
C590 N594 1.367 . S
C590 C598 1.481 . S
C591 N593 1.299 . S
C591 N594 1.379 . S
N592 Zn576 2.036 . S
N592 C590 1.298 . S
N592 N593 1.398 . S
N593 C591 1.299 . S
N593 N592 1.398 . S
N594 C590 1.367 . S
N594 C591 1.379 . S
H595 C598 0.980 . S
H596 C598 0.981 . S
H597 C598 0.981 . S
C598 C590 1.481 . S
C598 H595 0.980 . S
C598 H596 0.981 . S
C598 H597 0.981 . S
C599 C586 1.481 . S
C599 H600 0.980 . S
C599 H601 0.981 . S
C599 H602 0.981 . S
H600 C599 0.980 . S
H601 C599 0.981 . S
H602 C599 0.981 . S
O603 Zn579 2.066 . S
O603 C582 1.256 . S
O604 Zn576 2.053 . S
O604 C582 1.244 . S
C605 O583 1.259 . S
C605 O584 1.254 . S
O606 Zn576 2.066 . S
O606 C578 1.256 . S
O607 C578 1.244 . S
O607 Zn579 2.053 . S
Zn608 O609 2.055 . S
Zn608 O616 2.046 . S
Zn608 N624 2.036 . S
Zn608 O636 2.053 . S
Zn608 O638 2.066 . S
O609 Zn608 2.055 . S
O609 C612 1.259 . S
C610 O638 1.256 . S
C610 O639 1.244 . S
Zn611 O613 2.046 . S
Zn611 O615 2.055 . S
Zn611 N617 2.036 . S
Zn611 O635 2.066 . S
Zn611 O639 2.053 . S
C612 O609 1.259 . S
C612 O613 1.254 . S
O613 Zn611 2.046 . S
O613 C612 1.254 . S
C614 O635 1.256 . S
C614 O636 1.244 . S
O615 Zn611 2.055 . S
O615 C637 1.259 . S
O616 Zn608 2.046 . S
O616 C637 1.254 . S
N617 Zn611 2.036 . S
N617 C618 1.298 . S
N617 N620 1.398 . S
C618 N617 1.298 . S
C618 N621 1.367 . S
C618 C631 1.481 . S
C619 N620 1.299 . S
C619 N621 1.379 . S
N620 N617 1.398 . S
N620 C619 1.299 . S
N621 C618 1.367 . S
N621 C619 1.379 . S
C622 N624 1.298 . S
C622 N626 1.367 . S
C622 C630 1.481 . S
C623 N625 1.299 . S
C623 N626 1.379 . S
N624 Zn608 2.036 . S
N624 C622 1.298 . S
N624 N625 1.398 . S
N625 C623 1.299 . S
N625 N624 1.398 . S
N626 C622 1.367 . S
N626 C623 1.379 . S
H627 C630 0.980 . S
H628 C630 0.981 . S
H629 C630 0.981 . S
C630 C622 1.481 . S
C630 H627 0.980 . S
C630 H628 0.981 . S
C630 H629 0.981 . S
C631 C618 1.481 . S
C631 H632 0.980 . S
C631 H633 0.981 . S
C631 H634 0.981 . S
H632 C631 0.980 . S
H633 C631 0.981 . S
H634 C631 0.981 . S
O635 Zn611 2.066 . S
O635 C614 1.256 . S
O636 Zn608 2.053 . S
O636 C614 1.244 . S
C637 O615 1.259 . S
C637 O616 1.254 . S
O638 Zn608 2.066 . S
O638 C610 1.256 . S
O639 C610 1.244 . S
O639 Zn611 2.053 . S
Zn640 O641 2.055 1_556 S
Zn640 O648 2.046 . S
Zn640 N656 2.036 1_556 S
Zn640 O668 2.053 . S
Zn640 O670 2.066 1_556 S
O641 Zn640 2.055 1_554 S
O641 C644 1.259 . S
C642 O670 1.256 1_556 S
C642 O671 1.244 . S
Zn643 O645 2.046 . S
Zn643 O647 2.055 . S
Zn643 N649 2.036 . S
Zn643 O667 2.066 . S
Zn643 O671 2.053 . S
C644 O641 1.259 . S
C644 O645 1.254 1_554 S
O645 Zn643 2.046 . S
O645 C644 1.254 1_556 S
C646 O667 1.256 . S
C646 O668 1.244 . S
O647 Zn643 2.055 . S
O647 C669 1.259 . S
O648 Zn640 2.046 . S
O648 C669 1.254 . S
N649 Zn643 2.036 . S
N649 C650 1.298 . S
N649 N652 1.398 . S
C650 N649 1.298 . S
C650 N653 1.367 . S
C650 C663 1.481 . S
C651 N652 1.299 . S
C651 N653 1.379 . S
N652 N649 1.398 . S
N652 C651 1.299 . S
N653 C650 1.367 . S
N653 C651 1.379 . S
C654 N656 1.298 . S
C654 N658 1.367 . S
C654 C662 1.481 . S
C655 N657 1.299 1_554 S
C655 N658 1.379 . S
N656 Zn640 2.036 1_554 S
N656 C654 1.298 . S
N656 N657 1.398 1_554 S
N657 C655 1.299 1_556 S
N657 N656 1.398 1_556 S
N658 C654 1.367 . S
N658 C655 1.379 . S
H659 C662 0.980 . S
H660 C662 0.981 . S
H661 C662 0.981 . S
C662 C654 1.481 . S
C662 H659 0.980 . S
C662 H660 0.981 . S
C662 H661 0.981 . S
C663 C650 1.481 . S
C663 H664 0.980 . S
C663 H665 0.981 . S
C663 H666 0.981 . S
H664 C663 0.980 . S
H665 C663 0.981 . S
H666 C663 0.981 . S
O667 Zn643 2.066 . S
O667 C646 1.256 . S
O668 Zn640 2.053 . S
O668 C646 1.244 . S
C669 O647 1.259 . S
C669 O648 1.254 . S
O670 Zn640 2.066 1_554 S
O670 C642 1.256 1_554 S
O671 C642 1.244 . S
O671 Zn643 2.053 . S
Zn672 O673 2.055 1_554 S
Zn672 O680 2.046 . S
Zn672 N688 2.036 1_554 S
Zn672 O700 2.053 . S
Zn672 O702 2.066 1_554 S
O673 Zn672 2.055 1_556 S
O673 C676 1.259 . S
C674 O702 1.256 1_554 S
C674 O703 1.244 . S
Zn675 O677 2.046 . S
Zn675 O679 2.055 . S
Zn675 N681 2.036 . S
Zn675 O699 2.066 . S
Zn675 O703 2.053 . S
C676 O673 1.259 . S
C676 O677 1.254 1_556 S
O677 Zn675 2.046 . S
O677 C676 1.254 1_554 S
C678 O699 1.256 . S
C678 O700 1.244 . S
O679 Zn675 2.055 . S
O679 C701 1.259 . S
O680 Zn672 2.046 . S
O680 C701 1.254 . S
N681 Zn675 2.036 . S
N681 C682 1.298 . S
N681 N684 1.398 . S
C682 N681 1.298 . S
C682 N685 1.367 . S
C682 C695 1.481 . S
C683 N684 1.299 . S
C683 N685 1.379 . S
N684 N681 1.398 . S
N684 C683 1.299 . S
N685 C682 1.367 . S
N685 C683 1.379 . S
C686 N688 1.298 . S
C686 N690 1.367 . S
C686 C694 1.481 . S
C687 N689 1.299 1_556 S
C687 N690 1.379 . S
N688 Zn672 2.036 1_556 S
N688 C686 1.298 . S
N688 N689 1.398 1_556 S
N689 C687 1.299 1_554 S
N689 N688 1.398 1_554 S
N690 C686 1.367 . S
N690 C687 1.379 . S
H691 C694 0.980 . S
H692 C694 0.981 . S
H693 C694 0.981 . S
C694 C686 1.481 . S
C694 H691 0.980 . S
C694 H692 0.981 . S
C694 H693 0.981 . S
C695 C682 1.481 . S
C695 H696 0.980 . S
C695 H697 0.981 . S
C695 H698 0.981 . S
H696 C695 0.980 . S
H697 C695 0.981 . S
H698 C695 0.981 . S
O699 Zn675 2.066 . S
O699 C678 1.256 . S
O700 Zn672 2.053 . S
O700 C678 1.244 . S
C701 O679 1.259 . S
C701 O680 1.254 . S
O702 Zn672 2.066 1_556 S
O702 C674 1.256 1_556 S
O703 C674 1.244 . S
O703 Zn675 2.053 . S
Zn704 O705 2.055 . S
Zn704 O712 2.046 . S
Zn704 N720 2.036 . S
Zn704 O732 2.053 . S
Zn704 O734 2.066 . S
O705 Zn704 2.055 . S
O705 C708 1.259 . S
C706 O734 1.256 . S
C706 O735 1.244 . S
Zn707 O709 2.046 . S
Zn707 O711 2.055 . S
Zn707 N713 2.036 . S
Zn707 O731 2.066 . S
Zn707 O735 2.053 . S
C708 O705 1.259 . S
C708 O709 1.254 . S
O709 Zn707 2.046 . S
O709 C708 1.254 . S
C710 O731 1.256 . S
C710 O732 1.244 . S
O711 Zn707 2.055 . S
O711 C733 1.259 . S
O712 Zn704 2.046 . S
O712 C733 1.254 . S
N713 Zn707 2.036 . S
N713 C714 1.298 . S
N713 N716 1.398 . S
C714 N713 1.298 . S
C714 N717 1.367 . S
C714 C727 1.481 . S
C715 N716 1.299 . S
C715 N717 1.379 . S
N716 N713 1.398 . S
N716 C715 1.299 . S
N717 C714 1.367 . S
N717 C715 1.379 . S
C718 N720 1.298 . S
C718 N722 1.367 . S
C718 C726 1.481 . S
C719 N721 1.299 . S
C719 N722 1.379 . S
N720 Zn704 2.036 . S
N720 C718 1.298 . S
N720 N721 1.398 . S
N721 C719 1.299 . S
N721 N720 1.398 . S
N722 C718 1.367 . S
N722 C719 1.379 . S
H723 C726 0.980 . S
H724 C726 0.981 . S
H725 C726 0.981 . S
C726 C718 1.481 . S
C726 H723 0.980 . S
C726 H724 0.981 . S
C726 H725 0.981 . S
C727 C714 1.481 . S
C727 H728 0.980 . S
C727 H729 0.981 . S
C727 H730 0.981 . S
H728 C727 0.980 . S
H729 C727 0.981 . S
H730 C727 0.981 . S
O731 Zn707 2.066 . S
O731 C710 1.256 . S
O732 Zn704 2.053 . S
O732 C710 1.244 . S
C733 O711 1.259 . S
C733 O712 1.254 . S
O734 Zn704 2.066 . S
O734 C706 1.256 . S
O735 C706 1.244 . S
O735 Zn707 2.053 . S
Zn736 O737 2.055 . S
Zn736 O744 2.046 . S
Zn736 N752 2.036 . S
Zn736 O764 2.053 . S
Zn736 O766 2.066 . S
O737 Zn736 2.055 . S
O737 C740 1.259 . S
C738 O766 1.256 . S
C738 O767 1.244 . S
Zn739 O741 2.046 . S
Zn739 O743 2.055 . S
Zn739 N745 2.036 . S
Zn739 O763 2.066 . S
Zn739 O767 2.053 . S
C740 O737 1.259 . S
C740 O741 1.254 . S
O741 Zn739 2.046 . S
O741 C740 1.254 . S
C742 O763 1.256 . S
C742 O764 1.244 . S
O743 Zn739 2.055 . S
O743 C765 1.259 . S
O744 Zn736 2.046 . S
O744 C765 1.254 . S
N745 Zn739 2.036 . S
N745 C746 1.298 . S
N745 N748 1.398 . S
C746 N745 1.298 . S
C746 N749 1.367 . S
C746 C759 1.481 . S
C747 N748 1.299 . S
C747 N749 1.379 . S
N748 N745 1.398 . S
N748 C747 1.299 . S
N749 C746 1.367 . S
N749 C747 1.379 . S
C750 N752 1.298 . S
C750 N754 1.367 . S
C750 C758 1.481 . S
C751 N753 1.299 . S
C751 N754 1.379 . S
N752 Zn736 2.036 . S
N752 C750 1.298 . S
N752 N753 1.398 . S
N753 C751 1.299 . S
N753 N752 1.398 . S
N754 C750 1.367 . S
N754 C751 1.379 . S
H755 C758 0.980 . S
H756 C758 0.981 . S
H757 C758 0.981 . S
C758 C750 1.481 . S
C758 H755 0.980 . S
C758 H756 0.981 . S
C758 H757 0.981 . S
C759 C746 1.481 . S
C759 H760 0.980 . S
C759 H761 0.981 . S
C759 H762 0.981 . S
H760 C759 0.980 . S
H761 C759 0.981 . S
H762 C759 0.981 . S
O763 Zn739 2.066 . S
O763 C742 1.256 . S
O764 Zn736 2.053 . S
O764 C742 1.244 . S
C765 O743 1.259 . S
C765 O744 1.254 . S
O766 Zn736 2.066 . S
O766 C738 1.256 . S
O767 C738 1.244 . S
O767 Zn739 2.053 . S
C768 C769 1.369 . S
C768 C770 1.419 . S
C768 H772 0.930 . S
C769 C768 1.369 . S
C769 C778 1.429 . S
C770 C768 1.419 . S
C770 C771 1.363 . S
C770 H773 0.929 . S
C771 C770 1.363 . S
C771 C777 1.428 . S
H772 C768 0.930 . S
H773 C770 0.929 . S
S774 N775 1.613 . S
S774 N776 1.610 . S
N775 S774 1.613 . S
N775 C778 1.350 . S
N776 S774 1.610 . S
N776 C777 1.351 . S
C777 C771 1.428 . S
C777 N776 1.351 . S
C777 C778 1.434 . S
C778 C769 1.429 . S
C778 N775 1.350 . S
C778 C777 1.434 . S
C779 C780 1.369 . S
C779 C781 1.419 . S
C779 H783 0.930 . S
C780 C779 1.369 . S
C780 C789 1.429 . S
C781 C779 1.419 . S
C781 C782 1.363 . S
C781 H784 0.929 . S
C782 C781 1.363 . S
C782 C788 1.428 . S
H783 C779 0.930 . S
H784 C781 0.929 . S
S785 N786 1.613 . S
S785 N787 1.610 . S
N786 S785 1.613 . S
N786 C789 1.350 . S
N787 S785 1.610 . S
N787 C788 1.351 . S
C788 C782 1.428 . S
C788 N787 1.351 . S
C788 C789 1.434 . S
C789 C780 1.429 . S
C789 N786 1.350 . S
C789 C788 1.434 . S
C790 C791 1.369 . S
C790 C792 1.419 . S
C790 H794 0.930 . S
C791 C790 1.369 . S
C791 C800 1.429 . S
C792 C790 1.419 . S
C792 C793 1.363 . S
C792 H795 0.929 . S
C793 C792 1.363 . S
C793 C799 1.428 . S
H794 C790 0.930 . S
H795 C792 0.929 . S
S796 N797 1.613 . S
S796 N798 1.610 . S
N797 S796 1.613 . S
N797 C800 1.350 . S
N798 S796 1.610 . S
N798 C799 1.351 . S
C799 C793 1.428 . S
C799 N798 1.351 . S
C799 C800 1.434 . S
C800 C791 1.429 . S
C800 N797 1.350 . S
C800 C799 1.434 . S
C801 C802 1.369 . S
C801 C803 1.419 . S
C801 H805 0.930 . S
C802 C801 1.369 . S
C802 C811 1.429 . S
C803 C801 1.419 . S
C803 C804 1.363 . S
C803 H806 0.929 . S
C804 C803 1.363 . S
C804 C810 1.428 . S
H805 C801 0.930 . S
H806 C803 0.929 . S
S807 N808 1.613 . S
S807 N809 1.610 . S
N808 S807 1.613 . S
N808 C811 1.350 . S
N809 S807 1.610 . S
N809 C810 1.351 . S
C810 C804 1.428 . S
C810 N809 1.351 . S
C810 C811 1.434 . S
C811 C802 1.429 . S
C811 N808 1.350 . S
C811 C810 1.434 . S
C812 C813 1.369 . S
C812 C814 1.419 . S
C812 H816 0.930 . S
C813 C812 1.369 . S
C813 C822 1.429 . S
C814 C812 1.419 . S
C814 C815 1.363 . S
C814 H817 0.929 . S
C815 C814 1.363 . S
C815 C821 1.428 . S
H816 C812 0.930 . S
H817 C814 0.929 . S
S818 N819 1.613 . S
S818 N820 1.610 . S
N819 S818 1.613 . S
N819 C822 1.350 . S
N820 S818 1.610 . S
N820 C821 1.351 . S
C821 C815 1.428 . S
C821 N820 1.351 . S
C821 C822 1.434 . S
C822 C813 1.429 . S
C822 N819 1.350 . S
C822 C821 1.434 . S
C823 C824 1.369 . S
C823 C825 1.419 . S
C823 H827 0.930 . S
C824 C823 1.369 . S
C824 C833 1.429 . S
C825 C823 1.419 . S
C825 C826 1.363 . S
C825 H828 0.929 . S
C826 C825 1.363 . S
C826 C832 1.428 . S
H827 C823 0.930 . S
H828 C825 0.929 . S
S829 N830 1.613 . S
S829 N831 1.610 . S
N830 S829 1.613 . S
N830 C833 1.350 . S
N831 S829 1.610 . S
N831 C832 1.351 . S
C832 C826 1.428 . S
C832 N831 1.351 . S
C832 C833 1.434 . S
C833 C824 1.429 . S
C833 N830 1.350 . S
C833 C832 1.434 . S
C834 C835 1.369 . S
C834 C836 1.419 . S
C834 H838 0.930 . S
C835 C834 1.369 . S
C835 C844 1.429 . S
C836 C834 1.419 . S
C836 C837 1.363 . S
C836 H839 0.929 . S
C837 C836 1.363 . S
C837 C843 1.428 . S
H838 C834 0.930 . S
H839 C836 0.929 . S
S840 N841 1.613 . S
S840 N842 1.610 . S
N841 S840 1.613 . S
N841 C844 1.350 . S
N842 S840 1.610 . S
N842 C843 1.351 . S
C843 C837 1.428 . S
C843 N842 1.351 . S
C843 C844 1.434 . S
C844 C835 1.429 . S
C844 N841 1.350 . S
C844 C843 1.434 . S
C845 C846 1.369 . S
C845 C847 1.419 . S
C845 H849 0.930 . S
C846 C845 1.369 . S
C846 C855 1.429 . S
C847 C845 1.419 . S
C847 C848 1.363 . S
C847 H850 0.929 . S
C848 C847 1.363 . S
C848 C854 1.428 . S
H849 C845 0.930 . S
H850 C847 0.929 . S
S851 N852 1.613 . S
S851 N853 1.610 . S
N852 S851 1.613 . S
N852 C855 1.350 . S
N853 S851 1.610 . S
N853 C854 1.351 . S
C854 C848 1.428 . S
C854 N853 1.351 . S
C854 C855 1.434 . S
C855 C846 1.429 . S
C855 N852 1.350 . S
C855 C854 1.434 . S
C856 C857 1.369 . S
C856 C858 1.419 . S
C856 H860 0.930 . S
C857 C856 1.369 . S
C857 C866 1.429 . S
C858 C856 1.419 . S
C858 C859 1.363 . S
C858 H861 0.929 . S
C859 C858 1.363 . S
C859 C865 1.428 . S
H860 C856 0.930 . S
H861 C858 0.929 . S
S862 N863 1.613 . S
S862 N864 1.610 . S
N863 S862 1.613 . S
N863 C866 1.350 . S
N864 S862 1.610 . S
N864 C865 1.351 . S
C865 C859 1.428 . S
C865 N864 1.351 . S
C865 C866 1.434 . S
C866 C857 1.429 . S
C866 N863 1.350 . S
C866 C865 1.434 . S
C867 C868 1.369 . S
C867 C869 1.419 . S
C867 H871 0.930 . S
C868 C867 1.369 . S
C868 C877 1.429 . S
C869 C867 1.419 . S
C869 C870 1.363 . S
C869 H872 0.929 . S
C870 C869 1.363 . S
C870 C876 1.428 . S
H871 C867 0.930 . S
H872 C869 0.929 . S
S873 N874 1.613 . S
S873 N875 1.610 . S
N874 S873 1.613 . S
N874 C877 1.350 . S
N875 S873 1.610 . S
N875 C876 1.351 . S
C876 C870 1.428 . S
C876 N875 1.351 . S
C876 C877 1.434 . S
C877 C868 1.429 . S
C877 N874 1.350 . S
C877 C876 1.434 . S
C878 C879 1.369 . S
C878 C880 1.419 . S
C878 H882 0.930 . S
C879 C878 1.369 . S
C879 C888 1.429 . S
C880 C878 1.419 . S
C880 C881 1.363 . S
C880 H883 0.929 . S
C881 C880 1.363 . S
C881 C887 1.428 . S
H882 C878 0.930 . S
H883 C880 0.929 . S
S884 N885 1.613 . S
S884 N886 1.610 . S
N885 S884 1.613 . S
N885 C888 1.350 . S
N886 S884 1.610 . S
N886 C887 1.351 . S
C887 C881 1.428 . S
C887 N886 1.351 . S
C887 C888 1.434 . S
C888 C879 1.429 . S
C888 N885 1.350 . S
C888 C887 1.434 . S
C889 C890 1.369 . S
C889 C891 1.419 . S
C889 H893 0.930 . S
C890 C889 1.369 . S
C890 C899 1.429 . S
C891 C889 1.419 . S
C891 C892 1.363 . S
C891 H894 0.929 . S
C892 C891 1.363 . S
C892 C898 1.428 . S
H893 C889 0.930 . S
H894 C891 0.929 . S
S895 N896 1.613 . S
S895 N897 1.610 . S
N896 S895 1.613 . S
N896 C899 1.350 . S
N897 S895 1.610 . S
N897 C898 1.351 . S
C898 C892 1.428 . S
C898 N897 1.351 . S
C898 C899 1.434 . S
C899 C890 1.429 . S
C899 N896 1.350 . S
C899 C898 1.434 . S
C900 C901 1.369 . S
C900 C902 1.419 . S
C900 H904 0.930 . S
C901 C900 1.369 . S
C901 C910 1.429 . S
C902 C900 1.419 . S
C902 C903 1.363 . S
C902 H905 0.929 . S
C903 C902 1.363 . S
C903 C909 1.428 . S
H904 C900 0.930 . S
H905 C902 0.929 . S
S906 N907 1.613 . S
S906 N908 1.610 . S
N907 S906 1.613 . S
N907 C910 1.350 . S
N908 S906 1.610 . S
N908 C909 1.351 . S
C909 C903 1.428 . S
C909 N908 1.351 . S
C909 C910 1.434 . S
C910 C901 1.429 . S
C910 N907 1.350 . S
C910 C909 1.434 . S
C911 C912 1.369 . S
C911 C913 1.419 . S
C911 H915 0.930 . S
C912 C911 1.369 . S
C912 C921 1.429 . S
C913 C911 1.419 . S
C913 C914 1.363 . S
C913 H916 0.929 . S
C914 C913 1.363 . S
C914 C920 1.428 . S
H915 C911 0.930 . S
H916 C913 0.929 . S
S917 N918 1.613 . S
S917 N919 1.610 . S
N918 S917 1.613 . S
N918 C921 1.350 . S
N919 S917 1.610 . S
N919 C920 1.351 . S
C920 C914 1.428 . S
C920 N919 1.351 . S
C920 C921 1.434 . S
C921 C912 1.429 . S
C921 N918 1.350 . S
C921 C920 1.434 . S
C922 C923 1.369 . S
C922 C924 1.419 . S
C922 H926 0.930 . S
C923 C922 1.369 . S
C923 C932 1.429 . S
C924 C922 1.419 . S
C924 C925 1.363 . S
C924 H927 0.929 . S
C925 C924 1.363 . S
C925 C931 1.428 . S
H926 C922 0.930 . S
H927 C924 0.929 . S
S928 N929 1.613 . S
S928 N930 1.610 . S
N929 S928 1.613 . S
N929 C932 1.350 . S
N930 S928 1.610 . S
N930 C931 1.351 . S
C931 C925 1.428 . S
C931 N930 1.351 . S
C931 C932 1.434 . S
C932 C923 1.429 . S
C932 N929 1.350 . S
C932 C931 1.434 . S
C933 C934 1.369 . S
C933 C935 1.419 . S
C933 H937 0.930 . S
C934 C933 1.369 . S
C934 C943 1.429 . S
C935 C933 1.419 . S
C935 C936 1.363 . S
C935 H938 0.929 . S
C936 C935 1.363 . S
C936 C942 1.428 . S
H937 C933 0.930 . S
H938 C935 0.929 . S
S939 N940 1.613 . S
S939 N941 1.610 . S
N940 S939 1.613 . S
N940 C943 1.350 . S
N941 S939 1.610 . S
N941 C942 1.351 . S
C942 C936 1.428 . S
C942 N941 1.351 . S
C942 C943 1.434 . S
C943 C934 1.429 . S
C943 N940 1.350 . S
C943 C942 1.434 . S
C944 C945 1.369 . S
C944 C946 1.419 . S
C944 H948 0.930 . S
C945 C944 1.369 . S
C945 C954 1.429 . S
C946 C944 1.419 . S
C946 C947 1.363 . S
C946 H949 0.929 . S
C947 C946 1.363 . S
C947 C953 1.428 . S
H948 C944 0.930 . S
H949 C946 0.929 . S
S950 N951 1.613 . S
S950 N952 1.610 . S
N951 S950 1.613 . S
N951 C954 1.350 . S
N952 S950 1.610 . S
N952 C953 1.351 . S
C953 C947 1.428 . S
C953 N952 1.351 . S
C953 C954 1.434 . S
C954 C945 1.429 . S
C954 N951 1.350 . S
C954 C953 1.434 . S
C955 C956 1.369 . S
C955 C957 1.419 . S
C955 H959 0.930 . S
C956 C955 1.369 . S
C956 C965 1.429 . S
C957 C955 1.419 . S
C957 C958 1.363 . S
C957 H960 0.929 . S
C958 C957 1.363 . S
C958 C964 1.428 . S
H959 C955 0.930 . S
H960 C957 0.929 . S
S961 N962 1.613 . S
S961 N963 1.610 . S
N962 S961 1.613 . S
N962 C965 1.350 . S
N963 S961 1.610 . S
N963 C964 1.351 . S
C964 C958 1.428 . S
C964 N963 1.351 . S
C964 C965 1.434 . S
C965 C956 1.429 . S
C965 N962 1.350 . S
C965 C964 1.434 . S
C966 C967 1.369 . S
C966 C968 1.419 . S
C966 H970 0.930 . S
C967 C966 1.369 . S
C967 C976 1.429 . S
C968 C966 1.419 . S
C968 C969 1.363 . S
C968 H971 0.929 . S
C969 C968 1.363 . S
C969 C975 1.428 . S
H970 C966 0.930 . S
H971 C968 0.929 . S
S972 N973 1.613 . S
S972 N974 1.610 . S
N973 S972 1.613 . S
N973 C976 1.350 . S
N974 S972 1.610 . S
N974 C975 1.351 . S
C975 C969 1.428 . S
C975 N974 1.351 . S
C975 C976 1.434 . S
C976 C967 1.429 . S
C976 N973 1.350 . S
C976 C975 1.434 . S
C977 C978 1.369 . S
C977 C979 1.419 . S
C977 H981 0.930 . S
C978 C977 1.369 . S
C978 C987 1.429 . S
C979 C977 1.419 . S
C979 C980 1.363 . S
C979 H982 0.929 . S
C980 C979 1.363 . S
C980 C986 1.428 . S
H981 C977 0.930 . S
H982 C979 0.929 . S
S983 N984 1.613 . S
S983 N985 1.610 . S
N984 S983 1.613 . S
N984 C987 1.350 . S
N985 S983 1.610 . S
N985 C986 1.351 . S
C986 C980 1.428 . S
C986 N985 1.351 . S
C986 C987 1.434 . S
C987 C978 1.429 . S
C987 N984 1.350 . S
C987 C986 1.434 . S
C988 C989 1.369 . S
C988 C990 1.419 . S
C988 H992 0.930 . S
C989 C988 1.369 . S
C989 C998 1.429 . S
C990 C988 1.419 . S
C990 C991 1.363 . S
C990 H993 0.929 . S
C991 C990 1.363 . S
C991 C997 1.428 . S
H992 C988 0.930 . S
H993 C990 0.929 . S
S994 N995 1.613 . S
S994 N996 1.610 . S
N995 S994 1.613 . S
N995 C998 1.350 . S
N996 S994 1.610 . S
N996 C997 1.351 . S
C997 C991 1.428 . S
C997 N996 1.351 . S
C997 C998 1.434 . S
C998 C989 1.429 . S
C998 N995 1.350 . S
C998 C997 1.434 . S
C999 C1000 1.369 . S
C999 C1001 1.419 . S
C999 H1003 0.930 . S
C1000 C999 1.369 . S
C1000 C1009 1.429 . S
C1001 C999 1.419 . S
C1001 C1002 1.363 . S
C1001 H1004 0.929 . S
C1002 C1001 1.363 . S
C1002 C1008 1.428 . S
H1003 C999 0.930 . S
H1004 C1001 0.929 . S
S1005 N1006 1.613 . S
S1005 N1007 1.610 . S
N1006 S1005 1.613 . S
N1006 C1009 1.350 . S
N1007 S1005 1.610 . S
N1007 C1008 1.351 . S
C1008 C1002 1.428 . S
C1008 N1007 1.351 . S
C1008 C1009 1.434 . S
C1009 C1000 1.429 . S
C1009 N1006 1.350 . S
C1009 C1008 1.434 . S
C1010 C1011 1.369 . S
C1010 C1012 1.419 . S
C1010 H1014 0.930 . S
C1011 C1010 1.369 . S
C1011 C1020 1.429 . S
C1012 C1010 1.419 . S
C1012 C1013 1.363 . S
C1012 H1015 0.929 . S
C1013 C1012 1.363 . S
C1013 C1019 1.428 . S
H1014 C1010 0.930 . S
H1015 C1012 0.929 . S
S1016 N1017 1.613 . S
S1016 N1018 1.610 . S
N1017 S1016 1.613 . S
N1017 C1020 1.350 . S
N1018 S1016 1.610 . S
N1018 C1019 1.351 . S
C1019 C1013 1.428 . S
C1019 N1018 1.351 . S
C1019 C1020 1.434 . S
C1020 C1011 1.429 . S
C1020 N1017 1.350 . S
C1020 C1019 1.434 . S
C1021 C1022 1.369 . S
C1021 C1023 1.419 . S
C1021 H1025 0.930 . S
C1022 C1021 1.369 . S
C1022 C1031 1.429 . S
C1023 C1021 1.419 . S
C1023 C1024 1.363 . S
C1023 H1026 0.929 . S
C1024 C1023 1.363 . S
C1024 C1030 1.428 . S
H1025 C1021 0.930 . S
H1026 C1023 0.929 . S
S1027 N1028 1.613 . S
S1027 N1029 1.610 . S
N1028 S1027 1.613 . S
N1028 C1031 1.350 . S
N1029 S1027 1.610 . S
N1029 C1030 1.351 . S
C1030 C1024 1.428 . S
C1030 N1029 1.351 . S
C1030 C1031 1.434 . S
C1031 C1022 1.429 . S
C1031 N1028 1.350 . S
C1031 C1030 1.434 . S
C1032 C1033 1.369 . S
C1032 C1034 1.419 . S
C1032 H1036 0.930 . S
C1033 C1032 1.369 . S
C1033 C1042 1.429 . S
C1034 C1032 1.419 . S
C1034 C1035 1.363 . S
C1034 H1037 0.929 . S
C1035 C1034 1.363 . S
C1035 C1041 1.428 . S
H1036 C1032 0.930 . S
H1037 C1034 0.929 . S
S1038 N1039 1.613 . S
S1038 N1040 1.610 . S
N1039 S1038 1.613 . S
N1039 C1042 1.350 . S
N1040 S1038 1.610 . S
N1040 C1041 1.351 . S
C1041 C1035 1.428 . S
C1041 N1040 1.351 . S
C1041 C1042 1.434 . S
C1042 C1033 1.429 . S
C1042 N1039 1.350 . S
C1042 C1041 1.434 . S
C1043 C1044 1.369 . S
C1043 C1045 1.419 . S
C1043 H1047 0.930 . S
C1044 C1043 1.369 . S
C1044 C1053 1.429 . S
C1045 C1043 1.419 . S
C1045 C1046 1.363 . S
C1045 H1048 0.929 . S
C1046 C1045 1.363 . S
C1046 C1052 1.428 . S
H1047 C1043 0.930 . S
H1048 C1045 0.929 . S
S1049 N1050 1.613 . S
S1049 N1051 1.610 . S
N1050 S1049 1.613 . S
N1050 C1053 1.350 . S
N1051 S1049 1.610 . S
N1051 C1052 1.351 . S
C1052 C1046 1.428 . S
C1052 N1051 1.351 . S
C1052 C1053 1.434 . S
C1053 C1044 1.429 . S
C1053 N1050 1.350 . S
C1053 C1052 1.434 . S
C1054 C1055 1.369 . S
C1054 C1056 1.419 . S
C1054 H1058 0.930 . S
C1055 C1054 1.369 . S
C1055 C1064 1.429 . S
C1056 C1054 1.419 . S
C1056 C1057 1.363 . S
C1056 H1059 0.929 . S
C1057 C1056 1.363 . S
C1057 C1063 1.428 . S
H1058 C1054 0.930 . S
H1059 C1056 0.929 . S
S1060 N1061 1.613 . S
S1060 N1062 1.610 . S
N1061 S1060 1.613 . S
N1061 C1064 1.350 . S
N1062 S1060 1.610 . S
N1062 C1063 1.351 . S
C1063 C1057 1.428 . S
C1063 N1062 1.351 . S
C1063 C1064 1.434 . S
C1064 C1055 1.429 . S
C1064 N1061 1.350 . S
C1064 C1063 1.434 . S
C1065 C1066 1.369 . S
C1065 C1067 1.419 . S
C1065 H1069 0.930 . S
C1066 C1065 1.369 . S
C1066 C1075 1.429 . S
C1067 C1065 1.419 . S
C1067 C1068 1.363 . S
C1067 H1070 0.929 . S
C1068 C1067 1.363 . S
C1068 C1074 1.428 . S
H1069 C1065 0.930 . S
H1070 C1067 0.929 . S
S1071 N1072 1.613 . S
S1071 N1073 1.610 . S
N1072 S1071 1.613 . S
N1072 C1075 1.350 . S
N1073 S1071 1.610 . S
N1073 C1074 1.351 . S
C1074 C1068 1.428 . S
C1074 N1073 1.351 . S
C1074 C1075 1.434 . S
C1075 C1066 1.429 . S
C1075 N1072 1.350 . S
C1075 C1074 1.434 . S
C1076 C1077 1.369 . S
C1076 C1078 1.419 . S
C1076 H1080 0.930 . S
C1077 C1076 1.369 . S
C1077 C1086 1.429 . S
C1078 C1076 1.419 . S
C1078 C1079 1.363 . S
C1078 H1081 0.929 . S
C1079 C1078 1.363 . S
C1079 C1085 1.428 . S
H1080 C1076 0.930 . S
H1081 C1078 0.929 . S
S1082 N1083 1.613 . S
S1082 N1084 1.610 . S
N1083 S1082 1.613 . S
N1083 C1086 1.350 . S
N1084 S1082 1.610 . S
N1084 C1085 1.351 . S
C1085 C1079 1.428 . S
C1085 N1084 1.351 . S
C1085 C1086 1.434 . S
C1086 C1077 1.429 . S
C1086 N1083 1.350 . S
C1086 C1085 1.434 . S
C1087 C1088 1.369 . S
C1087 C1089 1.419 . S
C1087 H1091 0.930 . S
C1088 C1087 1.369 . S
C1088 C1097 1.429 . S
C1089 C1087 1.419 . S
C1089 C1090 1.363 . S
C1089 H1092 0.929 . S
C1090 C1089 1.363 . S
C1090 C1096 1.428 . S
H1091 C1087 0.930 . S
H1092 C1089 0.929 . S
S1093 N1094 1.613 . S
S1093 N1095 1.610 . S
N1094 S1093 1.613 . S
N1094 C1097 1.350 . S
N1095 S1093 1.610 . S
N1095 C1096 1.351 . S
C1096 C1090 1.428 . S
C1096 N1095 1.351 . S
C1096 C1097 1.434 . S
C1097 C1088 1.429 . S
C1097 N1094 1.350 . S
C1097 C1096 1.434 . S
C1098 C1099 1.369 . S
C1098 C1100 1.419 . S
C1098 H1102 0.930 . S
C1099 C1098 1.369 . S
C1099 C1108 1.429 . S
C1100 C1098 1.419 . S
C1100 C1101 1.363 . S
C1100 H1103 0.929 . S
C1101 C1100 1.363 . S
C1101 C1107 1.428 . S
H1102 C1098 0.930 . S
H1103 C1100 0.929 . S
S1104 N1105 1.613 . S
S1104 N1106 1.610 . S
N1105 S1104 1.613 . S
N1105 C1108 1.350 . S
N1106 S1104 1.610 . S
N1106 C1107 1.351 . S
C1107 C1101 1.428 . S
C1107 N1106 1.351 . S
C1107 C1108 1.434 . S
C1108 C1099 1.429 . S
C1108 N1105 1.350 . S
C1108 C1107 1.434 . S
C1109 C1110 1.369 . S
C1109 C1111 1.419 . S
C1109 H1113 0.930 . S
C1110 C1109 1.369 . S
C1110 C1119 1.429 . S
C1111 C1109 1.419 . S
C1111 C1112 1.363 . S
C1111 H1114 0.929 . S
C1112 C1111 1.363 . S
C1112 C1118 1.428 . S
H1113 C1109 0.930 . S
H1114 C1111 0.929 . S
S1115 N1116 1.613 . S
S1115 N1117 1.610 . S
N1116 S1115 1.613 . S
N1116 C1119 1.350 . S
N1117 S1115 1.610 . S
N1117 C1118 1.351 . S
C1118 C1112 1.428 . S
C1118 N1117 1.351 . S
C1118 C1119 1.434 . S
C1119 C1110 1.429 . S
C1119 N1116 1.350 . S
C1119 C1118 1.434 . S
C1120 C1121 1.369 . S
C1120 C1122 1.419 . S
C1120 H1124 0.930 . S
C1121 C1120 1.369 . S
C1121 C1130 1.429 . S
C1122 C1120 1.419 . S
C1122 C1123 1.363 . S
C1122 H1125 0.929 . S
C1123 C1122 1.363 . S
C1123 C1129 1.428 . S
H1124 C1120 0.930 . S
H1125 C1122 0.929 . S
S1126 N1127 1.613 . S
S1126 N1128 1.610 . S
N1127 S1126 1.613 . S
N1127 C1130 1.350 . S
N1128 S1126 1.610 . S
N1128 C1129 1.351 . S
C1129 C1123 1.428 . S
C1129 N1128 1.351 . S
C1129 C1130 1.434 . S
C1130 C1121 1.429 . S
C1130 N1127 1.350 . S
C1130 C1129 1.434 . S
C1131 C1132 1.369 . S
C1131 C1133 1.419 . S
C1131 H1135 0.930 . S
C1132 C1131 1.369 . S
C1132 C1141 1.429 . S
C1133 C1131 1.419 . S
C1133 C1134 1.363 . S
C1133 H1136 0.929 . S
C1134 C1133 1.363 . S
C1134 C1140 1.428 . S
H1135 C1131 0.930 . S
H1136 C1133 0.929 . S
S1137 N1138 1.613 . S
S1137 N1139 1.610 . S
N1138 S1137 1.613 . S
N1138 C1141 1.350 . S
N1139 S1137 1.610 . S
N1139 C1140 1.351 . S
C1140 C1134 1.428 . S
C1140 N1139 1.351 . S
C1140 C1141 1.434 . S
C1141 C1132 1.429 . S
C1141 N1138 1.350 . S
C1141 C1140 1.434 . S
C1142 C1143 1.369 . S
C1142 C1144 1.419 . S
C1142 H1146 0.930 . S
C1143 C1142 1.369 . S
C1143 C1152 1.429 . S
C1144 C1142 1.419 . S
C1144 C1145 1.363 . S
C1144 H1147 0.929 . S
C1145 C1144 1.363 . S
C1145 C1151 1.428 . S
H1146 C1142 0.930 . S
H1147 C1144 0.929 . S
S1148 N1149 1.613 . S
S1148 N1150 1.610 . S
N1149 S1148 1.613 . S
N1149 C1152 1.350 . S
N1150 S1148 1.610 . S
N1150 C1151 1.351 . S
C1151 C1145 1.428 . S
C1151 N1150 1.351 . S
C1151 C1152 1.434 . S
C1152 C1143 1.429 . S
C1152 N1149 1.350 . S
C1152 C1151 1.434 . S
C1153 C1154 1.369 . S
C1153 C1155 1.419 . S
C1153 H1157 0.930 . S
C1154 C1153 1.369 . S
C1154 C1163 1.429 . S
C1155 C1153 1.419 . S
C1155 C1156 1.363 . S
C1155 H1158 0.929 . S
C1156 C1155 1.363 . S
C1156 C1162 1.428 . S
H1157 C1153 0.930 . S
H1158 C1155 0.929 . S
S1159 N1160 1.613 . S
S1159 N1161 1.610 . S
N1160 S1159 1.613 . S
N1160 C1163 1.350 . S
N1161 S1159 1.610 . S
N1161 C1162 1.351 . S
C1162 C1156 1.428 . S
C1162 N1161 1.351 . S
C1162 C1163 1.434 . S
C1163 C1154 1.429 . S
C1163 N1160 1.350 . S
C1163 C1162 1.434 . S
C1164 C1165 1.369 . S
C1164 C1166 1.419 . S
C1164 H1168 0.930 . S
C1165 C1164 1.369 . S
C1165 C1174 1.429 . S
C1166 C1164 1.419 . S
C1166 C1167 1.363 . S
C1166 H1169 0.929 . S
C1167 C1166 1.363 . S
C1167 C1173 1.428 . S
H1168 C1164 0.930 . S
H1169 C1166 0.929 . S
S1170 N1171 1.613 . S
S1170 N1172 1.610 . S
N1171 S1170 1.613 . S
N1171 C1174 1.350 . S
N1172 S1170 1.610 . S
N1172 C1173 1.351 . S
C1173 C1167 1.428 . S
C1173 N1172 1.351 . S
C1173 C1174 1.434 . S
C1174 C1165 1.429 . S
C1174 N1171 1.350 . S
C1174 C1173 1.434 . S
C1175 C1176 1.369 . S
C1175 C1177 1.419 . S
C1175 H1179 0.930 . S
C1176 C1175 1.369 . S
C1176 C1185 1.429 . S
C1177 C1175 1.419 . S
C1177 C1178 1.363 . S
C1177 H1180 0.929 . S
C1178 C1177 1.363 . S
C1178 C1184 1.428 . S
H1179 C1175 0.930 . S
H1180 C1177 0.929 . S
S1181 N1182 1.613 . S
S1181 N1183 1.610 . S
N1182 S1181 1.613 . S
N1182 C1185 1.350 . S
N1183 S1181 1.610 . S
N1183 C1184 1.351 . S
C1184 C1178 1.428 . S
C1184 N1183 1.351 . S
C1184 C1185 1.434 . S
C1185 C1176 1.429 . S
C1185 N1182 1.350 . S
C1185 C1184 1.434 . S
C1186 C1187 1.369 . S
C1186 C1188 1.419 . S
C1186 H1190 0.930 . S
C1187 C1186 1.369 . S
C1187 C1196 1.429 . S
C1188 C1186 1.419 . S
C1188 C1189 1.363 . S
C1188 H1191 0.929 . S
C1189 C1188 1.363 . S
C1189 C1195 1.428 . S
H1190 C1186 0.930 . S
H1191 C1188 0.929 . S
S1192 N1193 1.613 . S
S1192 N1194 1.610 . S
N1193 S1192 1.613 . S
N1193 C1196 1.350 . S
N1194 S1192 1.610 . S
N1194 C1195 1.351 . S
C1195 C1189 1.428 . S
C1195 N1194 1.351 . S
C1195 C1196 1.434 . S
C1196 C1187 1.429 . S
C1196 N1193 1.350 . S
C1196 C1195 1.434 . S
C1197 C1198 1.369 . S
C1197 C1199 1.419 . S
C1197 H1201 0.930 . S
C1198 C1197 1.369 . S
C1198 C1207 1.429 . S
C1199 C1197 1.419 . S
C1199 C1200 1.363 . S
C1199 H1202 0.929 . S
C1200 C1199 1.363 . S
C1200 C1206 1.428 . S
H1201 C1197 0.930 . S
H1202 C1199 0.929 . S
S1203 N1204 1.613 . S
S1203 N1205 1.610 . S
N1204 S1203 1.613 . S
N1204 C1207 1.350 . S
N1205 S1203 1.610 . S
N1205 C1206 1.351 . S
C1206 C1200 1.428 . S
C1206 N1205 1.351 . S
C1206 C1207 1.434 . S
C1207 C1198 1.429 . S
C1207 N1204 1.350 . S
C1207 C1206 1.434 . S
C1208 C1209 1.369 . S
C1208 C1210 1.419 . S
C1208 H1212 0.930 . S
C1209 C1208 1.369 . S
C1209 C1218 1.429 . S
C1210 C1208 1.419 . S
C1210 C1211 1.363 . S
C1210 H1213 0.929 . S
C1211 C1210 1.363 . S
C1211 C1217 1.428 . S
H1212 C1208 0.930 . S
H1213 C1210 0.929 . S
S1214 N1215 1.613 . S
S1214 N1216 1.610 . S
N1215 S1214 1.613 . S
N1215 C1218 1.350 . S
N1216 S1214 1.610 . S
N1216 C1217 1.351 . S
C1217 C1211 1.428 . S
C1217 N1216 1.351 . S
C1217 C1218 1.434 . S
C1218 C1209 1.429 . S
C1218 N1215 1.350 . S
C1218 C1217 1.434 . S
C1219 C1220 1.369 . S
C1219 C1221 1.419 . S
C1219 H1223 0.930 . S
C1220 C1219 1.369 . S
C1220 C1229 1.429 . S
C1221 C1219 1.419 . S
C1221 C1222 1.363 . S
C1221 H1224 0.929 . S
C1222 C1221 1.363 . S
C1222 C1228 1.428 . S
H1223 C1219 0.930 . S
H1224 C1221 0.929 . S
S1225 N1226 1.613 . S
S1225 N1227 1.610 . S
N1226 S1225 1.613 . S
N1226 C1229 1.350 . S
N1227 S1225 1.610 . S
N1227 C1228 1.351 . S
C1228 C1222 1.428 . S
C1228 N1227 1.351 . S
C1228 C1229 1.434 . S
C1229 C1220 1.429 . S
C1229 N1226 1.350 . S
C1229 C1228 1.434 . S
C1230 C1231 1.369 . S
C1230 C1232 1.419 . S
C1230 H1234 0.930 . S
C1231 C1230 1.369 . S
C1231 C1240 1.429 . S
C1232 C1230 1.419 . S
C1232 C1233 1.363 . S
C1232 H1235 0.929 . S
C1233 C1232 1.363 . S
C1233 C1239 1.428 . S
H1234 C1230 0.930 . S
H1235 C1232 0.929 . S
S1236 N1237 1.613 . S
S1236 N1238 1.610 . S
N1237 S1236 1.613 . S
N1237 C1240 1.350 . S
N1238 S1236 1.610 . S
N1238 C1239 1.351 . S
C1239 C1233 1.428 . S
C1239 N1238 1.351 . S
C1239 C1240 1.434 . S
C1240 C1231 1.429 . S
C1240 N1237 1.350 . S
C1240 C1239 1.434 . S
C1241 C1242 1.369 . S
C1241 C1243 1.419 . S
C1241 H1245 0.930 . S
C1242 C1241 1.369 . S
C1242 C1251 1.429 . S
C1243 C1241 1.419 . S
C1243 C1244 1.363 . S
C1243 H1246 0.929 . S
C1244 C1243 1.363 . S
C1244 C1250 1.428 . S
H1245 C1241 0.930 . S
H1246 C1243 0.929 . S
S1247 N1248 1.613 . S
S1247 N1249 1.610 . S
N1248 S1247 1.613 . S
N1248 C1251 1.350 . S
N1249 S1247 1.610 . S
N1249 C1250 1.351 . S
C1250 C1244 1.428 . S
C1250 N1249 1.351 . S
C1250 C1251 1.434 . S
C1251 C1242 1.429 . S
C1251 N1248 1.350 . S
C1251 C1250 1.434 . S
C1252 C1253 1.369 . S
C1252 C1254 1.419 . S
C1252 H1256 0.930 . S
C1253 C1252 1.369 . S
C1253 C1262 1.429 . S
C1254 C1252 1.419 . S
C1254 C1255 1.363 . S
C1254 H1257 0.929 . S
C1255 C1254 1.363 . S
C1255 C1261 1.428 . S
H1256 C1252 0.930 . S
H1257 C1254 0.929 . S
S1258 N1259 1.613 . S
S1258 N1260 1.610 . S
N1259 S1258 1.613 . S
N1259 C1262 1.350 . S
N1260 S1258 1.610 . S
N1260 C1261 1.351 . S
C1261 C1255 1.428 . S
C1261 N1260 1.351 . S
C1261 C1262 1.434 . S
C1262 C1253 1.429 . S
C1262 N1259 1.350 . S
C1262 C1261 1.434 . S
C1263 C1264 1.369 . S
C1263 C1265 1.419 . S
C1263 H1267 0.930 . S
C1264 C1263 1.369 . S
C1264 C1273 1.429 . S
C1265 C1263 1.419 . S
C1265 C1266 1.363 . S
C1265 H1268 0.929 . S
C1266 C1265 1.363 . S
C1266 C1272 1.428 . S
H1267 C1263 0.930 . S
H1268 C1265 0.929 . S
S1269 N1270 1.613 . S
S1269 N1271 1.610 . S
N1270 S1269 1.613 . S
N1270 C1273 1.350 . S
N1271 S1269 1.610 . S
N1271 C1272 1.351 . S
C1272 C1266 1.428 . S
C1272 N1271 1.351 . S
C1272 C1273 1.434 . S
C1273 C1264 1.429 . S
C1273 N1270 1.350 . S
C1273 C1272 1.434 . S
C1274 C1275 1.369 . S
C1274 C1276 1.419 . S
C1274 H1278 0.930 . S
C1275 C1274 1.369 . S
C1275 C1284 1.429 . S
C1276 C1274 1.419 . S
C1276 C1277 1.363 . S
C1276 H1279 0.929 . S
C1277 C1276 1.363 . S
C1277 C1283 1.428 . S
H1278 C1274 0.930 . S
H1279 C1276 0.929 . S
S1280 N1281 1.613 . S
S1280 N1282 1.610 . S
N1281 S1280 1.613 . S
N1281 C1284 1.350 . S
N1282 S1280 1.610 . S
N1282 C1283 1.351 . S
C1283 C1277 1.428 . S
C1283 N1282 1.351 . S
C1283 C1284 1.434 . S
C1284 C1275 1.429 . S
C1284 N1281 1.350 . S
C1284 C1283 1.434 . S
C1285 C1286 1.369 . S
C1285 C1287 1.419 . S
C1285 H1289 0.930 . S
C1286 C1285 1.369 . S
C1286 C1295 1.429 . S
C1287 C1285 1.419 . S
C1287 C1288 1.363 . S
C1287 H1290 0.929 . S
C1288 C1287 1.363 . S
C1288 C1294 1.428 . S
H1289 C1285 0.930 . S
H1290 C1287 0.929 . S
S1291 N1292 1.613 . S
S1291 N1293 1.610 . S
N1292 S1291 1.613 . S
N1292 C1295 1.350 . S
N1293 S1291 1.610 . S
N1293 C1294 1.351 . S
C1294 C1288 1.428 . S
C1294 N1293 1.351 . S
C1294 C1295 1.434 . S
C1295 C1286 1.429 . S
C1295 N1292 1.350 . S
C1295 C1294 1.434 . S
C1296 C1297 1.369 . S
C1296 C1298 1.419 . S
C1296 H1300 0.930 . S
C1297 C1296 1.369 . S
C1297 C1306 1.429 . S
C1298 C1296 1.419 . S
C1298 C1299 1.363 . S
C1298 H1301 0.929 . S
C1299 C1298 1.363 . S
C1299 C1305 1.428 . S
H1300 C1296 0.930 . S
H1301 C1298 0.929 . S
S1302 N1303 1.613 . S
S1302 N1304 1.610 . S
N1303 S1302 1.613 . S
N1303 C1306 1.350 . S
N1304 S1302 1.610 . S
N1304 C1305 1.351 . S
C1305 C1299 1.428 . S
C1305 N1304 1.351 . S
C1305 C1306 1.434 . S
C1306 C1297 1.429 . S
C1306 N1303 1.350 . S
C1306 C1305 1.434 . S
C1307 C1308 1.369 . S
C1307 C1309 1.419 . S
C1307 H1311 0.930 . S
C1308 C1307 1.369 . S
C1308 C1317 1.429 . S
C1309 C1307 1.419 . S
C1309 C1310 1.363 . S
C1309 H1312 0.929 . S
C1310 C1309 1.363 . S
C1310 C1316 1.428 . S
H1311 C1307 0.930 . S
H1312 C1309 0.929 . S
S1313 N1314 1.613 . S
S1313 N1315 1.610 . S
N1314 S1313 1.613 . S
N1314 C1317 1.350 . S
N1315 S1313 1.610 . S
N1315 C1316 1.351 . S
C1316 C1310 1.428 . S
C1316 N1315 1.351 . S
C1316 C1317 1.434 . S
C1317 C1308 1.429 . S
C1317 N1314 1.350 . S
C1317 C1316 1.434 . S
C1318 C1319 1.369 . S
C1318 C1320 1.419 . S
C1318 H1322 0.930 . S
C1319 C1318 1.369 . S
C1319 C1328 1.429 . S
C1320 C1318 1.419 . S
C1320 C1321 1.363 . S
C1320 H1323 0.929 . S
C1321 C1320 1.363 . S
C1321 C1327 1.428 . S
H1322 C1318 0.930 . S
H1323 C1320 0.929 . S
S1324 N1325 1.613 . S
S1324 N1326 1.610 . S
N1325 S1324 1.613 . S
N1325 C1328 1.350 . S
N1326 S1324 1.610 . S
N1326 C1327 1.351 . S
C1327 C1321 1.428 . S
C1327 N1326 1.351 . S
C1327 C1328 1.434 . S
C1328 C1319 1.429 . S
C1328 N1325 1.350 . S
C1328 C1327 1.434 . S
C1329 C1330 1.369 . S
C1329 C1331 1.419 . S
C1329 H1333 0.930 . S
C1330 C1329 1.369 . S
C1330 C1339 1.429 . S
C1331 C1329 1.419 . S
C1331 C1332 1.363 . S
C1331 H1334 0.929 . S
C1332 C1331 1.363 . S
C1332 C1338 1.428 . S
H1333 C1329 0.930 . S
H1334 C1331 0.929 . S
S1335 N1336 1.613 . S
S1335 N1337 1.610 . S
N1336 S1335 1.613 . S
N1336 C1339 1.350 . S
N1337 S1335 1.610 . S
N1337 C1338 1.351 . S
C1338 C1332 1.428 . S
C1338 N1337 1.351 . S
C1338 C1339 1.434 . S
C1339 C1330 1.429 . S
C1339 N1336 1.350 . S
C1339 C1338 1.434 . S
C1340 C1341 1.369 . S
C1340 C1342 1.419 . S
C1340 H1344 0.930 . S
C1341 C1340 1.369 . S
C1341 C1350 1.429 . S
C1342 C1340 1.419 . S
C1342 C1343 1.363 . S
C1342 H1345 0.929 . S
C1343 C1342 1.363 . S
C1343 C1349 1.428 . S
H1344 C1340 0.930 . S
H1345 C1342 0.929 . S
S1346 N1347 1.613 1_655 S
S1346 N1348 1.610 . S
N1347 S1346 1.613 1_455 S
N1347 C1350 1.350 . S
N1348 S1346 1.610 . S
N1348 C1349 1.351 1_655 S
C1349 C1343 1.428 . S
C1349 N1348 1.351 1_455 S
C1349 C1350 1.434 . S
C1350 C1341 1.429 . S
C1350 N1347 1.350 . S
C1350 C1349 1.434 . S
C1351 C1352 1.369 . S
C1351 C1353 1.419 . S
C1351 H1355 0.930 . S
C1352 C1351 1.369 . S
C1352 C1361 1.429 . S
C1353 C1351 1.419 . S
C1353 C1354 1.363 . S
C1353 H1356 0.929 . S
C1354 C1353 1.363 . S
C1354 C1360 1.428 . S
H1355 C1351 0.930 . S
H1356 C1353 0.929 . S
S1357 N1358 1.613 . S
S1357 N1359 1.610 . S
N1358 S1357 1.613 . S
N1358 C1361 1.350 . S
N1359 S1357 1.610 . S
N1359 C1360 1.351 . S
C1360 C1354 1.428 . S
C1360 N1359 1.351 . S
C1360 C1361 1.434 . S
C1361 C1352 1.429 . S
C1361 N1358 1.350 . S
C1361 C1360 1.434 . S
C1362 C1363 1.369 . S
C1362 C1364 1.419 . S
C1362 H1366 0.930 . S
C1363 C1362 1.369 . S
C1363 C1372 1.429 . S
C1364 C1362 1.419 . S
C1364 C1365 1.363 . S
C1364 H1367 0.929 . S
C1365 C1364 1.363 . S
C1365 C1371 1.428 . S
H1366 C1362 0.930 . S
H1367 C1364 0.929 . S
S1368 N1369 1.613 . S
S1368 N1370 1.610 . S
N1369 S1368 1.613 . S
N1369 C1372 1.350 . S
N1370 S1368 1.610 . S
N1370 C1371 1.351 . S
C1371 C1365 1.428 . S
C1371 N1370 1.351 . S
C1371 C1372 1.434 . S
C1372 C1363 1.429 . S
C1372 N1369 1.350 . S
C1372 C1371 1.434 . S
C1373 C1374 1.369 . S
C1373 C1375 1.419 . S
C1373 H1377 0.930 . S
C1374 C1373 1.369 . S
C1374 C1383 1.429 . S
C1375 C1373 1.419 . S
C1375 C1376 1.363 . S
C1375 H1378 0.929 . S
C1376 C1375 1.363 . S
C1376 C1382 1.428 . S
H1377 C1373 0.930 . S
H1378 C1375 0.929 . S
S1379 N1380 1.613 . S
S1379 N1381 1.610 . S
N1380 S1379 1.613 . S
N1380 C1383 1.350 . S
N1381 S1379 1.610 . S
N1381 C1382 1.351 . S
C1382 C1376 1.428 . S
C1382 N1381 1.351 . S
C1382 C1383 1.434 . S
C1383 C1374 1.429 . S
C1383 N1380 1.350 . S
C1383 C1382 1.434 . S
C1384 C1385 1.369 . S
C1384 C1386 1.419 . S
C1384 H1388 0.930 . S
C1385 C1384 1.369 . S
C1385 C1394 1.429 . S
C1386 C1384 1.419 . S
C1386 C1387 1.363 . S
C1386 H1389 0.929 . S
C1387 C1386 1.363 . S
C1387 C1393 1.428 . S
H1388 C1384 0.930 . S
H1389 C1386 0.929 . S
S1390 N1391 1.613 . S
S1390 N1392 1.610 1_545 S
N1391 S1390 1.613 . S
N1391 C1394 1.350 . S
N1392 S1390 1.610 1_565 S
N1392 C1393 1.351 1_565 S
C1393 C1387 1.428 . S
C1393 N1392 1.351 1_545 S
C1393 C1394 1.434 . S
C1394 C1385 1.429 . S
C1394 N1391 1.350 . S
C1394 C1393 1.434 . S
C1395 C1396 1.369 . S
C1395 C1397 1.419 . S
C1395 H1399 0.930 . S
C1396 C1395 1.369 . S
C1396 C1405 1.429 . S
C1397 C1395 1.419 . S
C1397 C1398 1.363 . S
C1397 H1400 0.929 . S
C1398 C1397 1.363 . S
C1398 C1404 1.428 . S
H1399 C1395 0.930 . S
H1400 C1397 0.929 . S
S1401 N1402 1.613 . S
S1401 N1403 1.610 . S
N1402 S1401 1.613 . S
N1402 C1405 1.350 . S
N1403 S1401 1.610 . S
N1403 C1404 1.351 . S
C1404 C1398 1.428 . S
C1404 N1403 1.351 . S
C1404 C1405 1.434 . S
C1405 C1396 1.429 . S
C1405 N1402 1.350 . S
C1405 C1404 1.434 . S
C1406 C1407 1.369 . S
C1406 C1408 1.419 . S
C1406 H1410 0.930 . S
C1407 C1406 1.369 . S
C1407 C1416 1.429 . S
C1408 C1406 1.419 . S
C1408 C1409 1.363 . S
C1408 H1411 0.929 . S
C1409 C1408 1.363 . S
C1409 C1415 1.428 . S
H1410 C1406 0.930 . S
H1411 C1408 0.929 . S
S1412 N1413 1.613 . S
S1412 N1414 1.610 . S
N1413 S1412 1.613 . S
N1413 C1416 1.350 . S
N1414 S1412 1.610 . S
N1414 C1415 1.351 . S
C1415 C1409 1.428 . S
C1415 N1414 1.351 . S
C1415 C1416 1.434 . S
C1416 C1407 1.429 . S
C1416 N1413 1.350 . S
C1416 C1415 1.434 . S
C1417 C1418 1.369 . S
C1417 C1419 1.419 . S
C1417 H1421 0.930 . S
C1418 C1417 1.369 . S
C1418 C1427 1.429 . S
C1419 C1417 1.419 . S
C1419 C1420 1.363 . S
C1419 H1422 0.929 . S
C1420 C1419 1.363 . S
C1420 C1426 1.428 . S
H1421 C1417 0.930 . S
H1422 C1419 0.929 . S
S1423 N1424 1.613 . S
S1423 N1425 1.610 . S
N1424 S1423 1.613 . S
N1424 C1427 1.350 . S
N1425 S1423 1.610 . S
N1425 C1426 1.351 . S
C1426 C1420 1.428 . S
C1426 N1425 1.351 . S
C1426 C1427 1.434 . S
C1427 C1418 1.429 . S
C1427 N1424 1.350 . S
C1427 C1426 1.434 . S
C1428 C1429 1.369 . S
C1428 C1430 1.419 . S
C1428 H1432 0.930 . S
C1429 C1428 1.369 . S
C1429 C1438 1.429 . S
C1430 C1428 1.419 . S
C1430 C1431 1.363 . S
C1430 H1433 0.929 . S
C1431 C1430 1.363 . S
C1431 C1437 1.428 . S
H1432 C1428 0.930 . S
H1433 C1430 0.929 . S
S1434 N1435 1.613 1_554 S
S1434 N1436 1.610 . S
N1435 S1434 1.613 1_556 S
N1435 C1438 1.350 . S
N1436 S1434 1.610 . S
N1436 C1437 1.351 1_554 S
C1437 C1431 1.428 . S
C1437 N1436 1.351 1_556 S
C1437 C1438 1.434 . S
C1438 C1429 1.429 . S
C1438 N1435 1.350 . S
C1438 C1437 1.434 . S
C1439 C1440 1.369 . S
C1439 C1441 1.419 . S
C1439 H1443 0.930 . S
C1440 C1439 1.369 . S
C1440 C1449 1.429 . S
C1441 C1439 1.419 . S
C1441 C1442 1.363 . S
C1441 H1444 0.929 . S
C1442 C1441 1.363 . S
C1442 C1448 1.428 . S
H1443 C1439 0.930 . S
H1444 C1441 0.929 . S
S1445 N1446 1.613 . S
S1445 N1447 1.610 . S
N1446 S1445 1.613 . S
N1446 C1449 1.350 . S
N1447 S1445 1.610 . S
N1447 C1448 1.351 . S
C1448 C1442 1.428 . S
C1448 N1447 1.351 . S
C1448 C1449 1.434 . S
C1449 C1440 1.429 . S
C1449 N1446 1.350 . S
C1449 C1448 1.434 . S
C1450 C1451 1.369 . S
C1450 C1452 1.419 . S
C1450 H1454 0.930 . S
C1451 C1450 1.369 . S
C1451 C1460 1.429 . S
C1452 C1450 1.419 . S
C1452 C1453 1.363 . S
C1452 H1455 0.929 . S
C1453 C1452 1.363 . S
C1453 C1459 1.428 . S
H1454 C1450 0.930 . S
H1455 C1452 0.929 . S
S1456 N1457 1.613 . S
S1456 N1458 1.610 1_556 S
N1457 S1456 1.613 . S
N1457 C1460 1.350 1_556 S
N1458 S1456 1.610 1_554 S
N1458 C1459 1.351 . S
C1459 C1453 1.428 . S
C1459 N1458 1.351 . S
C1459 C1460 1.434 . S
C1460 C1451 1.429 . S
C1460 N1457 1.350 1_554 S
C1460 C1459 1.434 . S
C1461 C1462 1.369 . S
C1461 C1463 1.419 . S
C1461 H1465 0.930 . S
C1462 C1461 1.369 . S
C1462 C1471 1.429 . S
C1463 C1461 1.419 . S
C1463 C1464 1.363 . S
C1463 H1466 0.929 . S
C1464 C1463 1.363 . S
C1464 C1470 1.428 . S
H1465 C1461 0.930 . S
H1466 C1463 0.929 . S
S1467 N1468 1.613 . S
S1467 N1469 1.610 . S
N1468 S1467 1.613 . S
N1468 C1471 1.350 . S
N1469 S1467 1.610 . S
N1469 C1470 1.351 . S
C1470 C1464 1.428 . S
C1470 N1469 1.351 . S
C1470 C1471 1.434 . S
C1471 C1462 1.429 . S
C1471 N1468 1.350 . S
C1471 C1470 1.434 . S
C1472 C1473 1.369 . S
C1472 C1474 1.419 . S
C1472 H1476 0.930 . S
C1473 C1472 1.369 . S
C1473 C1482 1.429 . S
C1474 C1472 1.419 . S
C1474 C1475 1.363 . S
C1474 H1477 0.929 . S
C1475 C1474 1.363 . S
C1475 C1481 1.428 . S
H1476 C1472 0.930 . S
H1477 C1474 0.929 . S
S1478 N1479 1.613 . S
S1478 N1480 1.610 . S
N1479 S1478 1.613 . S
N1479 C1482 1.350 . S
N1480 S1478 1.610 . S
N1480 C1481 1.351 . S
C1481 C1475 1.428 . S
C1481 N1480 1.351 . S
C1481 C1482 1.434 . S
C1482 C1473 1.429 . S
C1482 N1479 1.350 . S
C1482 C1481 1.434 . S
C1483 C1484 1.369 . S
C1483 C1485 1.419 . S
C1483 H1487 0.930 . S
C1484 C1483 1.369 . S
C1484 C1493 1.429 . S
C1485 C1483 1.419 . S
C1485 C1486 1.363 . S
C1485 H1488 0.929 . S
C1486 C1485 1.363 . S
C1486 C1492 1.428 . S
H1487 C1483 0.930 . S
H1488 C1485 0.929 . S
S1489 N1490 1.613 . S
S1489 N1491 1.610 . S
N1490 S1489 1.613 . S
N1490 C1493 1.350 . S
N1491 S1489 1.610 . S
N1491 C1492 1.351 . S
C1492 C1486 1.428 . S
C1492 N1491 1.351 . S
C1492 C1493 1.434 . S
C1493 C1484 1.429 . S
C1493 N1490 1.350 . S
C1493 C1492 1.434 . S
C1494 C1495 1.369 . S
C1494 C1496 1.419 . S
C1494 H1498 0.930 . S
C1495 C1494 1.369 . S
C1495 C1504 1.429 . S
C1496 C1494 1.419 . S
C1496 C1497 1.363 . S
C1496 H1499 0.929 . S
C1497 C1496 1.363 . S
C1497 C1503 1.428 . S
H1498 C1494 0.930 . S
H1499 C1496 0.929 . S
S1500 N1501 1.613 . S
S1500 N1502 1.610 . S
N1501 S1500 1.613 . S
N1501 C1504 1.350 . S
N1502 S1500 1.610 . S
N1502 C1503 1.351 . S
C1503 C1497 1.428 . S
C1503 N1502 1.351 . S
C1503 C1504 1.434 . S
C1504 C1495 1.429 . S
C1504 N1501 1.350 . S
C1504 C1503 1.434 . S
C1505 C1506 1.369 . S
C1505 C1507 1.419 . S
C1505 H1509 0.930 . S
C1506 C1505 1.369 . S
C1506 C1515 1.429 . S
C1507 C1505 1.419 . S
C1507 C1508 1.363 . S
C1507 H1510 0.929 . S
C1508 C1507 1.363 . S
C1508 C1514 1.428 . S
H1509 C1505 0.930 . S
H1510 C1507 0.929 . S
S1511 N1512 1.613 . S
S1511 N1513 1.610 . S
N1512 S1511 1.613 . S
N1512 C1515 1.350 . S
N1513 S1511 1.610 . S
N1513 C1514 1.351 . S
C1514 C1508 1.428 . S
C1514 N1513 1.351 . S
C1514 C1515 1.434 . S
C1515 C1506 1.429 . S
C1515 N1512 1.350 . S
C1515 C1514 1.434 . S
C1516 C1517 1.369 . S
C1516 C1518 1.419 . S
C1516 H1520 0.930 . S
C1517 C1516 1.369 . S
C1517 C1526 1.429 . S
C1518 C1516 1.419 . S
C1518 C1519 1.363 . S
C1518 H1521 0.929 . S
C1519 C1518 1.363 . S
C1519 C1525 1.428 . S
H1520 C1516 0.930 . S
H1521 C1518 0.929 . S
S1522 N1523 1.613 . S
S1522 N1524 1.610 . S
N1523 S1522 1.613 . S
N1523 C1526 1.350 . S
N1524 S1522 1.610 . S
N1524 C1525 1.351 . S
C1525 C1519 1.428 . S
C1525 N1524 1.351 . S
C1525 C1526 1.434 . S
C1526 C1517 1.429 . S
C1526 N1523 1.350 . S
C1526 C1525 1.434 . S
C1527 C1528 1.369 . S
C1527 C1529 1.419 . S
C1527 H1531 0.930 . S
C1528 C1527 1.369 . S
C1528 C1537 1.429 . S
C1529 C1527 1.419 . S
C1529 C1530 1.363 . S
C1529 H1532 0.929 . S
C1530 C1529 1.363 . S
C1530 C1536 1.428 . S
H1531 C1527 0.930 . S
H1532 C1529 0.929 . S
S1533 N1534 1.613 . S
S1533 N1535 1.610 . S
N1534 S1533 1.613 . S
N1534 C1537 1.350 . S
N1535 S1533 1.610 . S
N1535 C1536 1.351 . S
C1536 C1530 1.428 . S
C1536 N1535 1.351 . S
C1536 C1537 1.434 . S
C1537 C1528 1.429 . S
C1537 N1534 1.350 . S
C1537 C1536 1.434 . S
C1538 C1539 1.369 . S
C1538 C1540 1.419 . S
C1538 H1542 0.930 . S
C1539 C1538 1.369 . S
C1539 C1548 1.429 . S
C1540 C1538 1.419 . S
C1540 C1541 1.363 . S
C1540 H1543 0.929 . S
C1541 C1540 1.363 . S
C1541 C1547 1.428 . S
H1542 C1538 0.930 . S
H1543 C1540 0.929 . S
S1544 N1545 1.613 . S
S1544 N1546 1.610 . S
N1545 S1544 1.613 . S
N1545 C1548 1.350 . S
N1546 S1544 1.610 . S
N1546 C1547 1.351 . S
C1547 C1541 1.428 . S
C1547 N1546 1.351 . S
C1547 C1548 1.434 . S
C1548 C1539 1.429 . S
C1548 N1545 1.350 . S
C1548 C1547 1.434 . S
C1549 C1550 1.369 . S
C1549 C1551 1.419 . S
C1549 H1553 0.930 . S
C1550 C1549 1.369 . S
C1550 C1559 1.429 . S
C1551 C1549 1.419 . S
C1551 C1552 1.363 . S
C1551 H1554 0.929 . S
C1552 C1551 1.363 . S
C1552 C1558 1.428 . S
H1553 C1549 0.930 . S
H1554 C1551 0.929 . S
S1555 N1556 1.613 . S
S1555 N1557 1.610 . S
N1556 S1555 1.613 . S
N1556 C1559 1.350 . S
N1557 S1555 1.610 . S
N1557 C1558 1.351 . S
C1558 C1552 1.428 . S
C1558 N1557 1.351 . S
C1558 C1559 1.434 . S
C1559 C1550 1.429 . S
C1559 N1556 1.350 . S
C1559 C1558 1.434 . S
C769 N13 1.293 . S
C771 C580 1.460 . S
C780 C637 1.456 . S
C782 N45 1.306 . S
C791 N82 1.301 . S
C793 C541 1.458 . S
C802 N114 1.294 . S
C804 C548 1.460 . S
C813 C708 1.456 . S
C815 N146 1.307 . S
C824 N173 1.294 . S
C826 C676 1.460 . S
C835 C765 1.457 . S
C837 N205 1.304 . S
C846 N242 1.295 . S
C848 C644 1.460 . S
C857 N269 1.301 . S
C859 C420 1.458 . S
C868 N301 1.308 . S
C870 C509 1.457 . S
C879 C477 1.458 . S
C881 N333 1.303 . S
C890 N370 1.295 . S
C892 C413 1.460 . S
C901 N402 1.306 . S
C903 C196 1.457 . S
C912 N429 1.302 . S
C914 C253 1.458 . S
C923 N466 1.304 . S
C925 C157 1.457 . S
C934 C164 1.457 . S
C936 N498 1.307 . S
C945 N530 1.302 . S
C947 C324 1.458 . S
C956 C292 1.456 . S
C958 N557 1.308 . S
C967 C381 1.459 . S
C969 N589 1.299 . S
C978 C260 1.456 . S
C980 N626 1.308 . S
C989 C36 1.456 . S
C991 N653 1.308 . S
C1000 C125 1.456 . S
C1002 N685 1.306 . S
C1011 C93 1.456 . S
C1013 N717 1.307 . S
C1022 N754 1.293 . S
C1024 C4 1.460 . S
C1033 C130 1.804 . S
C1035 C29 1.834 . S
C1044 C166 1.806 . S
C1046 C61 1.833 . S
C1055 C198 1.806 . S
C1057 C68 1.833 . S
C1066 C226 1.804 . S
C1068 C100 1.834 . S
C1077 C132 1.833 . S
C1079 C262 1.804 . S
C1088 C189 1.833 . S
C1090 C354 1.805 . S
C1099 C221 1.836 . S
C1101 C294 1.802 . S
C1110 C228 1.832 . S
C1112 C326 1.806 . S
C1121 C285 1.833 . S
C1123 C6 1.804 . S
C1132 C317 1.834 . S
C1134 C66 1.803 . S
C1143 C349 1.837 . S
C1145 C98 1.800 . S
C1154 C38 1.802 . S
C1156 C356 1.835 . S
C1165 C514 1.799 . S
C1167 C388 1.837 . S
C1176 C550 1.806 . S
C1178 C445 1.832 . S
C1187 C452 1.832 . S
C1189 C582 1.806 . S
C1198 C484 1.833 . S
C1200 C610 1.805 . S
C1209 C646 1.806 . S
C1211 C516 1.833 . S
C1220 C573 1.837 . S
C1222 C738 1.801 . S
C1231 C678 1.799 . S
C1233 C605 1.837 . S
C1242 C612 1.834 . S
C1244 C710 1.803 . S
C1253 C386 1.802 . S
C1255 C669 1.836 . S
C1264 C701 1.832 . S
C1266 C450 1.806 . S
C1275 C733 1.836 . S
C1277 C482 1.803 . S
C1286 C422 1.805 . S
C1288 C740 1.833 . S
C1297 N18 1.755 . S
C1299 C290 1.785 1_554 S
C1308 C322 1.782 . S
C1310 N50 1.762 . S
C1319 C258 1.786 1_556 S
C1321 N77 1.757 . S
C1330 C358 1.786 . S
C1332 N109 1.758 . S
C1341 N141 1.760 . S
C1343 C102 1.781 1_455 S
C1352 C70 1.786 . S
C1354 N178 1.759 . S
C1363 N210 1.765 . S
C1365 C34 1.777 . S
C1374 C2 1.787 1_655 S
C1376 N237 1.757 . S
C1385 N274 1.763 . S
C1387 C162 1.779 1_545 S
C1396 N306 1.757 . S
C1398 C230 1.785 . S
C1407 N338 1.765 . S
C1409 C194 1.778 . S
C1418 N365 1.755 . S
C1420 C134 1.785 1_565 S
C1429 N397 1.762 . S
C1431 C674 1.780 1_556 S
C1440 N434 1.757 . S
C1442 C706 1.784 . S
C1451 C642 1.783 1_554 S
C1453 N461 1.759 . S
C1462 C742 1.779 . S
C1464 N493 1.764 . S
C1473 N525 1.767 . S
C1475 C486 1.778 1_655 S
C1484 N562 1.764 . S
C1486 C454 1.780 . S
C1495 C418 1.783 . S
C1497 N594 1.759 . S
C1506 N621 1.763 . S
C1508 C390 1.781 1_455 S
C1517 N658 1.756 . S
C1519 C546 1.785 1_565 S
C1528 C614 1.778 . S
C1530 N690 1.763 . S
C1539 N722 1.761 . S
C1541 C578 1.781 . S
C1550 N749 1.755 . S
C1552 C518 1.785 1_545 S
