# Generated by pormake.
# Topology uot, (4)-cn, num edge types: 1
# Building blocks:
#     Node 0, Type 0, BuildingBlock: TATPOV_clean_sbu_0, # of connection points: 4
#     Node 1, Type 0, BuildingBlock: TATPOV_clean_sbu_0, # of connection points: 4
#     Node 2, Type 0, BuildingBlock: TATPOV_clean_sbu_0, # of connection points: 4
#     Node 3, Type 0, BuildingBlock: TATPOV_clean_sbu_0, # of connection points: 4
#     Node 4, Type 0, BuildingBlock: TATPOV_clean_sbu_0, # of connection points: 4
#     Node 5, Type 0, BuildingBlock: TATPOV_clean_sbu_0, # of connection points: 4
#     Node 6, Type 0, BuildingBlock: TATPOV_clean_sbu_0, # of connection points: 4
#     Node 7, Type 0, BuildingBlock: TATPOV_clean_sbu_0, # of connection points: 4
#     Node 8, Type 0, BuildingBlock: TATPOV_clean_sbu_0, # of connection points: 4
#     Node 9, Type 0, BuildingBlock: TATPOV_clean_sbu_0, # of connection points: 4
#     Node 10, Type 0, BuildingBlock: TATPOV_clean_sbu_0, # of connection points: 4
#     Node 11, Type 0, BuildingBlock: TATPOV_clean_sbu_0, # of connection points: 4
#     Node 12, Type 0, BuildingBlock: TATPOV_clean_sbu_0, # of connection points: 4
#     Node 13, Type 0, BuildingBlock: TATPOV_clean_sbu_0, # of connection points: 4
#     Node 14, Type 0, BuildingBlock: TATPOV_clean_sbu_0, # of connection points: 4
#     Node 15, Type 0, BuildingBlock: TATPOV_clean_sbu_0, # of connection points: 4
#     Edge 16, Type (0, 0), BuildingBlock: AJUNOK_clean_linker_0, # of connection points: 2
#     Edge 17, Type (0, 0), BuildingBlock: AJUNOK_clean_linker_0, # of connection points: 2
#     Edge 18, Type (0, 0), BuildingBlock: AJUNOK_clean_linker_0, # of connection points: 2
#     Edge 19, Type (0, 0), BuildingBlock: AJUNOK_clean_linker_0, # of connection points: 2
#     Edge 20, Type (0, 0), BuildingBlock: AJUNOK_clean_linker_0, # of connection points: 2
#     Edge 21, Type (0, 0), BuildingBlock: AJUNOK_clean_linker_0, # of connection points: 2
#     Edge 22, Type (0, 0), BuildingBlock: AJUNOK_clean_linker_0, # of connection points: 2
#     Edge 23, Type (0, 0), BuildingBlock: AJUNOK_clean_linker_0, # of connection points: 2
#     Edge 24, Type (0, 0), BuildingBlock: AJUNOK_clean_linker_0, # of connection points: 2
#     Edge 25, Type (0, 0), BuildingBlock: AJUNOK_clean_linker_0, # of connection points: 2
#     Edge 26, Type (0, 0), BuildingBlock: AJUNOK_clean_linker_0, # of connection points: 2
#     Edge 27, Type (0, 0), BuildingBlock: AJUNOK_clean_linker_0, # of connection points: 2
#     Edge 28, Type (0, 0), BuildingBlock: AJUNOK_clean_linker_0, # of connection points: 2
#     Edge 29, Type (0, 0), BuildingBlock: AJUNOK_clean_linker_0, # of connection points: 2
#     Edge 30, Type (0, 0), BuildingBlock: AJUNOK_clean_linker_0, # of connection points: 2
#     Edge 31, Type (0, 0), BuildingBlock: AJUNOK_clean_linker_0, # of connection points: 2
#     Edge 32, Type (0, 0), BuildingBlock: AJUNOK_clean_linker_0, # of connection points: 2
#     Edge 33, Type (0, 0), BuildingBlock: AJUNOK_clean_linker_0, # of connection points: 2
#     Edge 34, Type (0, 0), BuildingBlock: AJUNOK_clean_linker_0, # of connection points: 2
#     Edge 35, Type (0, 0), BuildingBlock: AJUNOK_clean_linker_0, # of connection points: 2
#     Edge 36, Type (0, 0), BuildingBlock: AJUNOK_clean_linker_0, # of connection points: 2
#     Edge 37, Type (0, 0), BuildingBlock: AJUNOK_clean_linker_0, # of connection points: 2
#     Edge 38, Type (0, 0), BuildingBlock: AJUNOK_clean_linker_0, # of connection points: 2
#     Edge 39, Type (0, 0), BuildingBlock: AJUNOK_clean_linker_0, # of connection points: 2
#     Edge 40, Type (0, 0), BuildingBlock: AJUNOK_clean_linker_0, # of connection points: 2
#     Edge 41, Type (0, 0), BuildingBlock: AJUNOK_clean_linker_0, # of connection points: 2
#     Edge 42, Type (0, 0), BuildingBlock: AJUNOK_clean_linker_0, # of connection points: 2
#     Edge 43, Type (0, 0), BuildingBlock: AJUNOK_clean_linker_0, # of connection points: 2
#     Edge 44, Type (0, 0), BuildingBlock: AJUNOK_clean_linker_0, # of connection points: 2
#     Edge 45, Type (0, 0), BuildingBlock: AJUNOK_clean_linker_0, # of connection points: 2
#     Edge 46, Type (0, 0), BuildingBlock: AJUNOK_clean_linker_0, # of connection points: 2
#     Edge 47, Type (0, 0), BuildingBlock: AJUNOK_clean_linker_0, # of connection points: 2
# Relax obj value: 0.138
# Max RMSD: 0.189
# Mean RMSD: 0.189
data_MOF--net-uot--node1-TATPOV_clean_sbu_0--edge1-AJUNOK_clean_linker_0
_symmetry_space_group_name_H-M    P1
_symmetry_Int_Tables_number       1
_symmetry_cell_setting            triclinic
loop_
_symmetry_equiv_pos_as_xyz
'x, y, z'
_cell_length_a     32.152949
_cell_length_b     32.152154
_cell_length_c     31.396504
_cell_angle_alpha  90.09305
_cell_angle_beta   90.077064
_cell_angle_gamma 90.06711
loop_
_atom_site_label
_atom_site_type_symbol
_atom_site_fract_x
_atom_site_fract_y
_atom_site_fract_z
_atom_type_partial_charge
Zn0 Zn 0.15898 0.48406 0.35412 0.0
Zn1 Zn 0.23098 0.45628 0.3249 0.0
O2 O 0.18772 0.41265 0.30454 0.0
O3 O 0.12801 0.43508 0.32976 0.0
O4 O 0.28536 0.43054 0.30743 0.0
O5 O 0.17818 0.48264 0.41388 0.0
O6 O 0.23981 0.46343 0.39023 0.0
C7 C 0.14853 0.4083 0.30905 0.0
C8 C 0.19956 0.53974 0.29441 0.0
O9 O 0.22647 0.51088 0.29096 0.0
O10 O 0.16903 0.53583 0.31953 0.0
C11 C 0.29085 0.41217 0.27202 0.0
O12 O 0.2604 0.41164 0.24407 0.0
C13 C 0.21574 0.47349 0.42076 0.0
Zn14 Zn 0.4774 0.84346 0.6251 0.0
Zn15 Zn 0.45028 0.77411 0.66131 0.0
O16 O 0.40242 0.81622 0.66913 0.0
O17 O 0.42282 0.87263 0.63573 0.0
O18 O 0.42505 0.72142 0.68443 0.0
O19 O 0.48866 0.81437 0.5707 0.0
O20 O 0.46491 0.75645 0.59931 0.0
C21 C 0.39556 0.85347 0.65715 0.0
C22 C 0.52611 0.81825 0.69792 0.0
O23 O 0.5002 0.78829 0.70048 0.0
O24 O 0.5229 0.84523 0.66881 0.0
C25 C 0.40486 0.72035 0.7192 0.0
O26 O 0.40315 0.75414 0.74271 0.0
C27 C 0.48052 0.77604 0.56791 0.0
Zn28 Zn 0.84298 0.50742 0.33355 0.0
Zn29 Zn 0.78317 0.54936 0.29821 0.0
O30 O 0.8313 0.59201 0.29865 0.0
O31 O 0.87962 0.55846 0.33409 0.0
O32 O 0.73386 0.58267 0.27743 0.0
O33 O 0.81031 0.49078 0.38388 0.0
O34 O 0.76192 0.53226 0.35851 0.0
C35 C 0.86758 0.59101 0.31506 0.0
C36 C 0.81982 0.4727 0.25371 0.0
O37 O 0.79345 0.50239 0.2532 0.0
O38 O 0.84465 0.46851 0.28461 0.0
C39 C 0.73558 0.61201 0.25039 0.0
O40 O 0.77114 0.61996 0.2315 0.0
C41 C 0.77516 0.50782 0.38743 0.0
Zn42 Zn 0.53306 0.15098 0.63606 0.0
Zn43 Zn 0.55166 0.22406 0.66831 0.0
O44 O 0.59835 0.18473 0.6896 0.0
O45 O 0.58315 0.12392 0.66137 0.0
O46 O 0.57278 0.28053 0.6864 0.0
O47 O 0.5355 0.17044 0.57677 0.0
O48 O 0.54527 0.23338 0.60282 0.0
C49 C 0.60656 0.14627 0.68432 0.0
C50 C 0.4717 0.18245 0.69554 0.0
O51 O 0.49712 0.21252 0.70086 0.0
O52 O 0.4794 0.15392 0.66885 0.0
C53 C 0.59368 0.28708 0.72016 0.0
O54 O 0.59832 0.25664 0.74759 0.0
C55 C 0.54014 0.20901 0.57119 0.0
Zn56 Zn 0.1494 0.52645 0.65553 0.0
Zn57 Zn 0.22188 0.54236 0.68473 0.0
O58 O 0.18281 0.59205 0.69794 0.0
O59 O 0.12668 0.58437 0.6591 0.0
O60 O 0.27747 0.56634 0.70156 0.0
O61 O 0.17059 0.50243 0.60171 0.0
O62 O 0.23247 0.52422 0.62195 0.0
C63 C 0.1478 0.60579 0.68508 0.0
C64 C 0.17239 0.47715 0.72901 0.0
O65 O 0.20848 0.49301 0.72449 0.0
O66 O 0.14248 0.48831 0.70543 0.0
C67 C 0.28136 0.58997 0.73385 0.0
O68 O 0.24967 0.59402 0.75989 0.0
C69 C 0.20897 0.50675 0.5945 0.0
Zn70 Zn 0.51857 0.85331 0.34708 0.0
Zn71 Zn 0.55037 0.78708 0.30817 0.0
O72 O 0.59732 0.83085 0.30858 0.0
O73 O 0.57286 0.88473 0.3434 0.0
O74 O 0.5798 0.73669 0.28399 0.0
O75 O 0.50367 0.82007 0.3979 0.0
O76 O 0.5315 0.76495 0.36734 0.0
C77 C 0.60236 0.86742 0.3235 0.0
C78 C 0.47623 0.83228 0.26878 0.0
O79 O 0.50291 0.803 0.266 0.0
O80 O 0.4767 0.8571 0.30009 0.0
C81 C 0.60772 0.73921 0.25543 0.0
O82 O 0.61497 0.77544 0.2376 0.0
C83 C 0.51272 0.78187 0.39859 0.0
Zn84 Zn 0.84149 0.49202 0.61855 0.0
Zn85 Zn 0.77144 0.46435 0.65444 0.0
O86 O 0.81323 0.41657 0.66252 0.0
O87 O 0.87046 0.43714 0.63076 0.0
O88 O 0.71853 0.43902 0.677 0.0
O89 O 0.81209 0.50239 0.56381 0.0
O90 O 0.75455 0.47749 0.59218 0.0
C91 C 0.85076 0.40973 0.65152 0.0
C92 C 0.81515 0.54097 0.69088 0.0
O93 O 0.78544 0.51469 0.69322 0.0
O94 O 0.84226 0.53797 0.66185 0.0
C95 C 0.71716 0.41744 0.71086 0.0
O96 O 0.75079 0.41454 0.73448 0.0
C97 C 0.77398 0.49325 0.56078 0.0
Zn98 Zn 0.49028 0.15324 0.33059 0.0
Zn99 Zn 0.46835 0.22724 0.30847 0.0
O100 O 0.41802 0.18835 0.29662 0.0
O101 O 0.43319 0.12843 0.32594 0.0
O102 O 0.44321 0.28311 0.29606 0.0
O103 O 0.51323 0.17245 0.38572 0.0
O104 O 0.48853 0.2346 0.37104 0.0
C105 C 0.40766 0.1512 0.30611 0.0
C106 C 0.53541 0.18449 0.25803 0.0
O107 O 0.51593 0.21834 0.26497 0.0
O108 O 0.52835 0.1525 0.28029 0.0
C109 C 0.42232 0.28979 0.26239 0.0
O110 O 0.42079 0.26072 0.23297 0.0
C111 C 0.50735 0.20992 0.39625 0.0
Zn112 Zn 0.65117 0.97309 0.85782 0.0
Zn113 Zn 0.72051 0.94913 0.81821 0.0
O114 O 0.67539 0.90605 0.80296 0.0
O115 O 0.61791 0.92451 0.83545 0.0
O116 O 0.76991 0.92198 0.79068 0.0
O117 O 0.67963 0.96964 0.91391 0.0
O118 O 0.73865 0.95528 0.88136 0.0
C119 C 0.63708 0.89978 0.81103 0.0
C120 C 0.68303 0.03192 0.79487 0.0
O121 O 0.71052 0.00437 0.7873 0.0
O122 O 0.65585 0.02606 0.82345 0.0
C123 C 0.8073 0.92696 0.80273 0.0
O124 O 0.81552 0.95468 0.83237 0.0
C125 C 0.71828 0.96274 0.91525 0.0
Zn126 Zn 0.99369 0.3504 0.11888 0.0
Zn127 Zn 0.96249 0.28373 0.1584 0.0
O128 O 0.91636 0.32752 0.16421 0.0
O129 O 0.93975 0.38189 0.12942 0.0
O130 O 0.93564 0.23201 0.18201 0.0
O131 O 0.00316 0.31804 0.06559 0.0
O132 O 0.97443 0.26395 0.09693 0.0
C133 C 0.91132 0.36465 0.15108 0.0
C134 C 0.04082 0.32603 0.1931 0.0
O135 O 0.01325 0.29764 0.19685 0.0
O136 O 0.03931 0.35155 0.16249 0.0
C137 C 0.911 0.23116 0.21361 0.0
O138 O 0.90511 0.26537 0.23572 0.0
C139 C 0.99139 0.28055 0.06453 0.0
Zn140 Zn 0.3422 0.01675 0.82889 0.0
Zn141 Zn 0.27198 0.04547 0.79657 0.0
O142 O 0.31558 0.09105 0.78386 0.0
O143 O 0.37257 0.07018 0.81609 0.0
O144 O 0.21834 0.07282 0.77775 0.0
O145 O 0.31763 0.00626 0.88541 0.0
O146 O 0.25943 0.03326 0.86066 0.0
C147 C 0.35344 0.09713 0.79425 0.0
C148 C 0.31055 0.9673 0.7591 0.0
O149 O 0.28098 0.99374 0.75791 0.0
O150 O 0.33967 0.97089 0.78599 0.0
C151 C 0.21621 0.09796 0.74657 0.0
O152 O 0.24938 0.10381 0.72292 0.0
C153 C 0.28023 0.01679 0.89085 0.0
Zn154 Zn 0.04511 0.6511 0.16537 0.0
Zn155 Zn 0.05816 0.72376 0.18356 0.0
O156 O 0.11013 0.68771 0.19904 0.0
O157 O 0.10348 0.63054 0.16186 0.0
O158 O 0.08027 0.78161 0.19413 0.0
O159 O 0.01312 0.66351 0.11323 0.0
O160 O 0.0376 0.72686 0.12051 0.0
C161 C 0.12497 0.65297 0.18655 0.0
C162 C 0.99885 0.67673 0.23796 0.0
O163 O 0.00947 0.71293 0.22543 0.0
O164 O 0.01376 0.64478 0.22007 0.0
C165 C 0.10211 0.78989 0.22685 0.0
O166 O 0.10607 0.7614 0.25653 0.0
C167 C 0.0173 0.69996 0.09897 0.0
Zn168 Zn 0.66316 0.01261 0.14699 0.0
Zn169 Zn 0.73198 0.0447 0.17225 0.0
O170 O 0.68805 0.09188 0.1764 0.0
O171 O 0.63231 0.06665 0.14545 0.0
O172 O 0.78477 0.07541 0.18723 0.0
O173 O 0.68751 0.98794 0.09532 0.0
O174 O 0.74533 0.02105 0.11164 0.0
C175 C 0.65068 0.09662 0.16363 0.0
C176 C 0.69205 0.97654 0.22468 0.0
O177 O 0.72361 1.00002 0.21934 0.0
O178 O 0.66179 0.97757 0.19897 0.0
C179 C 0.78683 0.10032 0.21866 0.0
O180 O 0.75457 0.10374 0.24406 0.0
C181 C 0.72459 0.99757 0.08659 0.0
Zn182 Zn 0.99343 0.33718 0.83506 0.0
Zn183 Zn 0.02973 0.27377 0.79883 0.0
O184 O 0.07506 0.31884 0.79593 0.0
O185 O 0.04666 0.37058 0.83105 0.0
O186 O 0.05958 0.2226 0.77737 0.0
O187 O 0.97872 0.30659 0.88738 0.0
O188 O 0.01556 0.25517 0.86071 0.0
C189 C 0.07736 0.35557 0.81101 0.0
C190 C 0.953 0.31425 0.75785 0.0
O191 O 0.98124 0.28634 0.75617 0.0
O192 O 0.95168 0.33955 0.78864 0.0
C193 C 0.08599 0.22283 0.74728 0.0
O194 O 0.09166 0.25731 0.72565 0.0
C195 C 0.99408 0.27067 0.8909 0.0
Zn196 Zn 0.35131 1.00101 0.12661 0.0
Zn197 Zn 0.2825 0.96864 0.15964 0.0
O198 O 0.32758 0.92428 0.17063 0.0
O199 O 0.38405 0.94883 0.14034 0.0
O200 O 0.2301 0.93987 0.17906 0.0
O201 O 0.32467 0.01003 0.07032 0.0
O202 O 0.26777 0.98163 0.0965 0.0
C203 C 0.36595 0.92039 0.16115 0.0
C204 C 0.3184 0.04786 0.19777 0.0
O205 O 0.29074 0.01944 0.19944 0.0
O206 O 0.34666 0.04673 0.16977 0.0
C207 C 0.22755 0.91892 0.21325 0.0
O208 O 0.25975 0.91795 0.23905 0.0
C209 C 0.2873 0.99869 0.06584 0.0
Zn210 Zn 0.97568 0.64265 0.85493 0.0
Zn211 Zn 0.95534 0.71778 0.82987 0.0
O212 O 0.9073 0.67992 0.80806 0.0
O213 O 0.92449 0.61719 0.82967 0.0
O214 O 0.93473 0.77531 0.81653 0.0
O215 O 0.97534 0.65799 0.91578 0.0
O216 O 0.96525 0.7227 0.89533 0.0
C217 C 0.89948 0.64107 0.81057 0.0
C218 C 0.03439 0.68007 0.79591 0.0
O219 O 0.00826 0.70977 0.79418 0.0
O220 O 0.02814 0.64931 0.82026 0.0
C221 C 0.91444 0.78441 0.78307 0.0
O222 O 0.90898 0.75572 0.75375 0.0
C223 C 0.9715 0.69609 0.92469 0.0
C224 C 0.32844 0.35524 0.23359 0.0
C225 C 0.3284 0.3861 0.26544 0.0
C226 C 0.36038 0.32569 0.23115 0.0
C227 C 0.39358 0.32584 0.26044 0.0
H228 H 0.30258 0.35247 0.21162 0.0
H229 H 0.35777 0.30129 0.20745 0.0
S230 S 0.41199 0.40464 0.34503 0.0
N231 N 0.36726 0.41832 0.32335 0.0
N232 N 0.42723 0.36287 0.31874 0.0
C233 C 0.39556 0.35846 0.29035 0.0
C234 C 0.36301 0.38854 0.29286 0.0
C235 C 0.3777 0.64962 0.70071 0.0
C236 C 0.37815 0.68375 0.72886 0.0
C237 C 0.348 0.61794 0.70439 0.0
C238 C 0.31737 0.61897 0.73638 0.0
H239 H 0.39927 0.64814 0.67428 0.0
H240 H 0.34794 0.59352 0.68058 0.0
S241 S 0.30921 0.69779 0.82264 0.0
N242 N 0.34851 0.71391 0.79317 0.0
N243 N 0.29269 0.65438 0.80012 0.0
C244 C 0.31952 0.65114 0.76686 0.0
C245 C 0.34986 0.6835 0.76309 0.0
C246 C 0.67491 0.71079 0.22743 0.0
C247 C 0.63672 0.70387 0.2482 0.0
C248 C 0.70586 0.68008 0.22627 0.0
C249 C 0.69992 0.64113 0.2458 0.0
H250 H 0.6819 0.74085 0.21365 0.0
H251 H 0.73536 0.68778 0.21164 0.0
S252 S 0.60289 0.6048 0.29808 0.0
N253 N 0.59284 0.65326 0.2842 0.0
N254 N 0.65085 0.59561 0.28197 0.0
C255 C 0.66077 0.63276 0.26401 0.0
C256 C 0.62925 0.66407 0.26522 0.0
C257 C 0.65459 0.3254 0.75085 0.0
C258 C 0.61981 0.32509 0.72355 0.0
C259 C 0.68463 0.35697 0.74848 0.0
C260 C 0.68107 0.38955 0.71877 0.0
H261 H 0.66006 0.29983 0.77256 0.0
H262 H 0.71194 0.35444 0.76854 0.0
S263 S 0.59164 0.40756 0.6461 0.0
N264 N 0.58048 0.3634 0.67027 0.0
N265 N 0.63677 0.42274 0.66589 0.0
C266 C 0.64461 0.39154 0.69393 0.0
C267 C 0.61405 0.35933 0.6963 0.0
C268 C 0.87456 0.89042 0.81624 0.0
C269 C 0.83892 0.89546 0.79076 0.0
C270 C 0.9003 0.85559 0.81168 0.0
C271 C 0.89165 0.82452 0.78123 0.0
H272 H 0.8814 0.91218 0.84168 0.0
H273 H 0.92611 0.85212 0.83359 0.0
S274 S 0.80623 0.82681 0.7015 0.0
N275 N 0.79937 0.86931 0.7302 0.0
N276 N 0.84783 0.80393 0.72148 0.0
C277 C 0.8582 0.83102 0.75305 0.0
C278 C 0.8318 0.86644 0.75787 0.0
C279 C 0.81789 0.16629 0.24701 0.0
C280 C 0.82217 0.12992 0.22235 0.0
C281 C 0.84797 0.1979 0.2459 0.0
C282 C 0.88362 0.19442 0.22013 0.0
H283 H 0.79014 0.17141 0.26582 0.0
H284 H 0.84214 0.22609 0.26386 0.0
S285 S 0.91289 0.1025 0.1549 0.0
N286 N 0.86725 0.09017 0.17532 0.0
N287 N 0.9238 0.14937 0.17332 0.0
C288 C 0.88968 0.15694 0.19765 0.0
C289 C 0.85898 0.1248 0.19872 0.0
C290 C 0.15096 0.19189 0.71668 0.0
C291 C 0.11512 0.18725 0.74196 0.0
C292 C 0.18243 0.16171 0.71652 0.0
C293 C 0.17945 0.12562 0.7417 0.0
H294 H 0.1558 0.21996 0.69829 0.0
H295 H 0.21016 0.16781 0.698 0.0
S296 S 0.08897 0.09519 0.80819 0.0
N297 N 0.07628 0.14118 0.78886 0.0
N298 N 0.13541 0.08464 0.78865 0.0
C299 C 0.1425 0.11919 0.76482 0.0
C300 C 0.11038 0.14991 0.76491 0.0
C301 C 0.19326 0.86061 0.25279 0.0
C302 C 0.19144 0.89084 0.22045 0.0
C303 C 0.16281 0.82954 0.25621 0.0
C304 C 0.12927 0.82734 0.2274 0.0
H305 H 0.21939 0.85966 0.27457 0.0
H306 H 0.16685 0.80591 0.28041 0.0
S307 S 0.10625 0.90307 0.14137 0.0
N308 N 0.15041 0.91958 0.16229 0.0
N309 N 0.09334 0.86119 0.16869 0.0
C310 C 0.12544 0.85911 0.19683 0.0
C311 C 0.15644 0.89082 0.19337 0.0
C312 C 0.1957 0.56686 0.22084 0.0
C313 C 0.19872 0.57499 0.26466 0.0
C314 C 0.17661 0.59558 0.19354 0.0
C315 C 0.16026 0.63327 0.20933 0.0
H316 H 0.20341 0.53634 0.2085 0.0
H317 H 0.17066 0.58621 0.16093 0.0
S318 S 0.17247 0.67352 0.31949 0.0
N319 N 0.19251 0.62627 0.32099 0.0
N320 N 0.15775 0.68092 0.26967 0.0
C321 C 0.16953 0.64432 0.2517 0.0
C322 C 0.18835 0.61481 0.27951 0.0
C323 C 0.54524 0.83644 0.77213 0.0
C324 C 0.55782 0.82539 0.73087 0.0
C325 C 0.57245 0.85762 0.79964 0.0
C326 C 0.61319 0.868 0.78685 0.0
H327 H 0.51317 0.83216 0.78176 0.0
H328 H 0.56054 0.86834 0.82999 0.0
S329 S 0.6627 0.83871 0.68426 0.0
N330 N 0.6145 0.82134 0.68022 0.0
N331 N 0.66627 0.85986 0.73209 0.0
C332 C 0.62728 0.85296 0.74724 0.0
C333 C 0.59934 0.83207 0.71911 0.0
C334 C 0.87475 0.43314 0.15838 0.0
C335 C 0.87597 0.39011 0.16714 0.0
C336 C 0.85041 0.46025 0.18298 0.0
C337 C 0.82649 0.44521 0.21698 0.0
H338 H 0.89551 0.4466 0.135 0.0
H339 H 0.85405 0.49346 0.17843 0.0
S340 S 0.81033 0.3349 0.24628 0.0
N341 N 0.84403 0.33326 0.20666 0.0
N342 N 0.79955 0.38462 0.25354 0.0
C343 C 0.82325 0.40207 0.22251 0.0
C344 C 0.84764 0.37436 0.19732 0.0
C345 C 0.3979 0.16374 0.70728 0.0
C346 C 0.43646 0.17572 0.72452 0.0
C347 C 0.36859 0.14232 0.73193 0.0
C348 C 0.37754 0.13107 0.77424 0.0
H349 H 0.39177 0.16796 0.67361 0.0
H350 H 0.34069 0.13094 0.71639 0.0
S351 S 0.47143 0.16101 0.83588 0.0
N352 N 0.4797 0.18006 0.78779 0.0
N353 N 0.42518 0.13862 0.83399 0.0
C354 C 0.41429 0.14641 0.79294 0.0
C355 C 0.44367 0.16909 0.76805 0.0
C356 C 0.13693 0.45527 0.79438 0.0
C357 C 0.16349 0.44492 0.76062 0.0
C358 C 0.11219 0.42497 0.81389 0.0
C359 C 0.11265 0.38334 0.79971 0.0
H360 H 0.13223 0.48759 0.80297 0.0
H361 H 0.08998 0.43511 0.83763 0.0
S362 S 0.18338 0.33959 0.71765 0.0
N363 N 0.19377 0.38992 0.71794 0.0
N364 N 0.14756 0.33244 0.7546 0.0
C365 C 0.14283 0.37191 0.76932 0.0
C366 C 0.16814 0.40293 0.74964 0.0
C367 C 0.37693 0.86859 0.21918 0.0
C368 C 0.39111 0.88696 0.18118 0.0
C369 C 0.40411 0.84649 0.24569 0.0
C370 C 0.44606 0.84093 0.23463 0.0
H371 H 0.34569 0.87442 0.23057 0.0
H372 H 0.39301 0.83641 0.27658 0.0
S373 S 0.4968 0.87557 0.13507 0.0
N374 N 0.44859 0.89289 0.13109 0.0
N375 N 0.49929 0.85053 0.1809 0.0
C376 C 0.45951 0.85498 0.19472 0.0
C377 C 0.43208 0.8782 0.16794 0.0
C378 C 0.83806 0.61135 0.71351 0.0
C379 C 0.82264 0.57188 0.72474 0.0
C380 C 0.85882 0.63638 0.74334 0.0
C381 C 0.86577 0.62214 0.78504 0.0
H382 H 0.83689 0.62155 0.68065 0.0
H383 H 0.87306 0.66501 0.73246 0.0
S384 S 0.82546 0.52434 0.83204 0.0
N385 N 0.81032 0.5225 0.78177 0.0
N386 N 0.85045 0.56895 0.8377 0.0
C387 C 0.84691 0.58463 0.79769 0.0
C388 C 0.82498 0.5596 0.76752 0.0
C389 C 0.58388 0.13604 0.16384 0.0
C390 C 0.62558 0.133 0.17749 0.0
C391 C 0.55475 0.15913 0.18705 0.0
C392 C 0.56647 0.1804 0.22419 0.0
H393 H 0.57262 0.11712 0.13766 0.0
H394 H 0.52216 0.15648 0.17858 0.0
S395 S 0.6731 0.19157 0.26722 0.0
N396 N 0.67842 0.16051 0.22563 0.0
N397 N 0.62318 0.20346 0.26934 0.0
C398 C 0.6088 0.18251 0.23469 0.0
C399 C 0.63861 0.15901 0.21112 0.0
C400 C 0.67726 0.06088 0.72192 0.0
C401 C 0.67736 0.06762 0.76612 0.0
C402 C 0.6577 0.08911 0.69447 0.0
C403 C 0.63853 0.12531 0.71032 0.0
H404 H 0.68843 0.03173 0.70891 0.0
H405 H 0.65475 0.08096 0.6611 0.0
S406 S 0.63832 0.16096 0.82267 0.0
N407 N 0.66245 0.11565 0.82387 0.0
N408 N 0.62667 0.16931 0.77217 0.0
C409 C 0.64308 0.13476 0.75378 0.0
C410 C 0.66225 0.10565 0.78179 0.0
C411 C 0.13915 0.36588 0.24329 0.0
C412 C 0.12564 0.37625 0.28453 0.0
C413 C 0.11253 0.34553 0.21463 0.0
C414 C 0.07203 0.33384 0.22661 0.0
H415 H 0.16895 0.37682 0.23175 0.0
H416 H 0.12266 0.34151 0.18197 0.0
S417 S 0.02475 0.34691 0.33327 0.0
N418 N 0.07123 0.36846 0.33768 0.0
N419 N 0.0217 0.32913 0.28396 0.0
C420 C 0.05987 0.33991 0.26905 0.0
C421 C 0.08659 0.36146 0.29801 0.0
C422 C 0.32268 0.89366 0.74095 0.0
C423 C 0.31509 0.93442 0.72689 0.0
C424 C 0.34448 0.86529 0.7155 0.0
C425 C 0.3604 0.87724 0.6756 0.0
H426 H 0.31523 0.88493 0.77338 0.0
H427 H 0.35264 0.8355 0.72923 0.0
S428 S 0.34106 0.97774 0.6211 0.0
N429 N 0.31867 0.98311 0.66812 0.0
N430 N 0.36037 0.93014 0.62021 0.0
C431 C 0.34858 0.91627 0.65923 0.0
C432 C 0.32572 0.94486 0.68498 0.0
C433 C 0.93979 0.61905 0.32027 0.0
C434 C 0.89856 0.62423 0.30591 0.0
C435 C 0.97262 0.64112 0.30179 0.0
C436 C 0.9654 0.66981 0.26899 0.0
H437 H 0.94746 0.59505 0.34313 0.0
H438 H 0.0042 0.63277 0.31035 0.0
S439 S 0.86287 0.70261 0.22721 0.0
N440 N 0.85184 0.66613 0.26244 0.0
N441 N 0.914 0.70772 0.22796 0.0
C442 C 0.92415 0.67954 0.25844 0.0
C443 C 0.89052 0.65672 0.27693 0.0
C444 C 0.68807 0.90533 0.25217 0.0
C445 C 0.68815 0.94816 0.2609 0.0
C446 C 0.66413 0.87784 0.27656 0.0
C447 C 0.63882 0.89258 0.30993 0.0
H448 H 0.70268 0.89371 0.22343 0.0
H449 H 0.66205 0.8458 0.26609 0.0
S450 S 0.6373 1.00066 0.35182 0.0
N451 N 0.66804 0.00287 0.30977 0.0
N452 N 0.62294 0.9515 0.35608 0.0
C453 C 0.64363 0.9344 0.32266 0.0
C454 C 0.66832 0.96222 0.29788 0.0
C455 C 0.85691 0.35309 0.70547 0.0
C456 C 0.87346 0.37356 0.66965 0.0
C457 C 0.88212 0.32835 0.73154 0.0
C458 C 0.92442 0.32235 0.72221 0.0
H459 H 0.82545 0.35934 0.71594 0.0
H460 H 0.86943 0.31708 0.76134 0.0
S461 S 0.98037 0.3606 0.62705 0.0
N462 N 0.93301 0.37991 0.62219 0.0
N463 N 0.98006 0.33288 0.6713 0.0
C464 C 0.9399 0.33794 0.68368 0.0
C465 C 0.91445 0.36372 0.65732 0.0
C466 C 0.35884 0.09102 0.29923 0.0
C467 C 0.37054 0.13141 0.28642 0.0
C468 C 0.33535 0.06517 0.27236 0.0
C469 C 0.32315 0.07888 0.23183 0.0
H470 H 0.37124 0.07782 0.32832 0.0
H471 H 0.33114 0.03288 0.28124 0.0
S472 S 0.33588 0.1849 0.1879 0.0
N473 N 0.35994 0.18653 0.23437 0.0
N474 N 0.3171 0.13726 0.18348 0.0
C475 C 0.32958 0.12074 0.2212 0.0
C476 C 0.3529 0.14732 0.24874 0.0
C477 C 0.13643 0.64462 0.75246 0.0
C478 C 0.12678 0.63943 0.70901 0.0
C479 C 0.10775 0.66262 0.78045 0.0
C480 C 0.06919 0.67722 0.7657 0.0
H481 H 0.16404 0.63051 0.76594 0.0
H482 H 0.11425 0.6618 0.81432 0.0
S483 S 0.03372 0.68078 0.65353 0.0
N484 N 0.07938 0.65733 0.65146 0.0
N485 N 0.026 0.69237 0.70419 0.0
C486 C 0.06179 0.67774 0.72166 0.0
C487 C 0.09058 0.65857 0.69319 0.0
C488 C 0.24424 0.52048 0.52535 0.0
C489 C 0.22492 0.49234 0.55323 0.0
C490 C 0.24651 0.51175 0.48154 0.0
C491 C 0.23007 0.47453 0.46499 0.0
H492 H 0.25366 0.55094 0.53661 0.0
H493 H 0.25732 0.53586 0.46015 0.0
S494 S 0.18377 0.38791 0.52619 0.0
N495 N 0.19475 0.42364 0.56237 0.0
N496 N 0.19933 0.40731 0.4802 0.0
C497 C 0.21507 0.44446 0.49327 0.0
C498 C 0.21244 0.45337 0.53752 0.0
C499 C 0.53674 0.7548 0.46755 0.0
C500 C 0.5042 0.75923 0.43808 0.0
C501 C 0.52842 0.7536 0.51135 0.0
C502 C 0.48738 0.75611 0.52654 0.0
H503 H 0.56875 0.75778 0.45721 0.0
H504 H 0.55429 0.75563 0.53342 0.0
S505 S 0.39144 0.75917 0.46158 0.0
N506 N 0.42961 0.75952 0.42639 0.0
N507 N 0.41397 0.75627 0.50881 0.0
C508 C 0.45461 0.7546 0.49715 0.0
C509 C 0.46307 0.75643 0.45267 0.0
C510 C 0.75359 0.54033 0.45483 0.0
C511 C 0.75455 0.5047 0.42893 0.0
C512 C 0.75418 0.53663 0.49929 0.0
C513 C 0.7545 0.49731 0.51879 0.0
H514 H 0.75798 0.57085 0.44093 0.0
H515 H 0.75878 0.56442 0.51832 0.0
S516 S 0.7478 0.39525 0.46472 0.0
N517 N 0.74923 0.42947 0.42553 0.0
N518 N 0.74869 0.42265 0.50929 0.0
C519 C 0.74942 0.46189 0.49328 0.0
C520 C 0.74979 0.46557 0.44809 0.0
C521 C 0.55836 0.20542 0.45478 0.0
C522 C 0.52159 0.22312 0.43875 0.0
C523 C 0.56702 0.20585 0.49831 0.0
C524 C 0.53932 0.22416 0.52723 0.0
H525 H 0.57892 0.18814 0.43393 0.0
H526 H 0.59363 0.18847 0.5098 0.0
S527 S 0.44237 0.28055 0.50088 0.0
N528 N 0.4601 0.26431 0.45435 0.0
N529 N 0.47653 0.26494 0.53685 0.0
C530 C 0.50485 0.24595 0.51134 0.0
C531 C 0.49595 0.24555 0.46674 0.0
C532 C 0.7294 0.94397 0.03062 0.0
C533 C 0.74086 0.9838 0.04513 0.0
C534 C 0.72813 0.93482 0.98712 0.0
C535 C 0.73857 0.96512 0.95693 0.0
H536 H 0.71714 0.9212 0.05273 0.0
H537 H 0.71458 0.90554 0.97699 0.0
S538 S 0.77822 0.07117 0.97874 0.0
N539 N 0.76901 0.05146 0.0264 0.0
N540 N 0.76659 0.03409 0.94418 0.0
C541 C 0.75517 0.0031 0.97111 0.0
C542 C 0.75647 0.01249 0.01556 0.0
C543 C 0.03133 0.25362 0.95677 0.0
C544 C 0.99401 0.25224 0.93353 0.0
C545 C 0.0307 0.25759 0.0012 0.0
C546 C 0.99283 0.25891 0.02343 0.0
H547 H 0.06074 0.25735 0.94037 0.0
H548 H 0.05966 0.26383 0.01773 0.0
S549 S 0.88744 0.24692 0.97762 0.0
N550 N 0.91886 0.2459 0.93602 0.0
N551 N 0.9178 0.25138 0.01989 0.0
C552 C 0.95583 0.25142 0.00105 0.0
C553 C 0.95639 0.24849 0.95579 0.0
C554 C 0.26512 0.04793 0.9607 0.0
C555 C 0.26342 0.01294 0.934 0.0
C556 C 0.26797 0.04325 0.00497 0.0
C557 C 0.26834 0.00353 0.02363 0.0
H558 H 0.2691 0.07868 0.9472 0.0
H559 H 0.27368 0.07059 0.02436 0.0
S560 S 0.25796 0.90276 0.96763 0.0
N561 N 0.25755 0.93783 0.92921 0.0
N562 N 0.26151 0.92913 0.01272 0.0
C563 C 0.2618 0.9687 -0.00239 0.0
C564 C 0.25969 0.97341 0.95253 0.0
C565 C 0.95394 0.68457 -0.00015 0.0
C566 C 0.97547 0.70825 0.96958 0.0
C567 C 0.96562 0.6852 0.0426 0.0
C568 C 0.99961 0.70919 0.05662 0.0
H569 H 0.9297 0.66318 0.98991 0.0
H570 H 0.94954 0.66457 0.06435 0.0
S571 S 0.06231 0.78123 -0.00938 0.0
N572 N 0.02899 0.76008 0.95675 0.0
N573 N 0.05143 0.76117 0.03776 0.0
C574 C 0.01889 0.73612 0.02742 0.0
C575 C 0.00671 0.73561 0.98359 0.0
loop_
_geom_bond_atom_site_label_1
_geom_bond_atom_site_label_2
_geom_bond_distance
_geom_bond_site_symmetry_2
_ccdc_geom_bond_type
Zn0 O3 2.031 . S
Zn0 O5 2.049 . S
Zn0 O10 2.067 . S
Zn1 O2 1.962 . S
Zn1 O4 1.986 . S
Zn1 O6 1.996 . S
Zn1 O9 1.943 . S
O2 Zn1 1.962 . S
O2 C7 1.254 . S
O3 Zn0 2.031 . S
O3 C7 1.269 . S
O4 Zn1 1.986 . S
O4 C11 1.262 . S
O5 Zn0 2.049 . S
O5 C13 1.260 . S
O6 Zn1 1.996 . S
O6 C13 1.257 . S
C7 O2 1.254 . S
C7 O3 1.269 . S
C8 O9 1.249 . S
C8 O10 1.270 . S
O9 Zn1 1.943 . S
O9 C8 1.249 . S
O10 Zn0 2.067 . S
O10 C8 1.270 . S
C11 O4 1.262 . S
C11 O12 1.232 . S
O12 C11 1.232 . S
C13 O5 1.260 . S
C13 O6 1.257 . S
Zn14 O17 2.031 . S
Zn14 O19 2.049 . S
Zn14 O24 2.067 . S
Zn15 O16 1.962 . S
Zn15 O18 1.986 . S
Zn15 O20 1.996 . S
Zn15 O23 1.943 . S
O16 Zn15 1.962 . S
O16 C21 1.254 . S
O17 Zn14 2.031 . S
O17 C21 1.269 . S
O18 Zn15 1.986 . S
O18 C25 1.262 . S
O19 Zn14 2.049 . S
O19 C27 1.260 . S
O20 Zn15 1.996 . S
O20 C27 1.257 . S
C21 O16 1.254 . S
C21 O17 1.269 . S
C22 O23 1.249 . S
C22 O24 1.270 . S
O23 Zn15 1.943 . S
O23 C22 1.249 . S
O24 Zn14 2.067 . S
O24 C22 1.270 . S
C25 O18 1.262 . S
C25 O26 1.232 . S
O26 C25 1.232 . S
C27 O19 1.260 . S
C27 O20 1.257 . S
Zn28 O31 2.031 . S
Zn28 O33 2.049 . S
Zn28 O38 2.067 . S
Zn29 O30 1.962 . S
Zn29 O32 1.986 . S
Zn29 O34 1.996 . S
Zn29 O37 1.943 . S
O30 Zn29 1.962 . S
O30 C35 1.254 . S
O31 Zn28 2.031 . S
O31 C35 1.269 . S
O32 Zn29 1.986 . S
O32 C39 1.262 . S
O33 Zn28 2.049 . S
O33 C41 1.260 . S
O34 Zn29 1.996 . S
O34 C41 1.257 . S
C35 O30 1.254 . S
C35 O31 1.269 . S
C36 O37 1.249 . S
C36 O38 1.270 . S
O37 Zn29 1.943 . S
O37 C36 1.249 . S
O38 Zn28 2.067 . S
O38 C36 1.270 . S
C39 O32 1.262 . S
C39 O40 1.232 . S
O40 C39 1.232 . S
C41 O33 1.260 . S
C41 O34 1.257 . S
Zn42 O45 2.031 . S
Zn42 O47 2.049 . S
Zn42 O52 2.067 . S
Zn43 O44 1.962 . S
Zn43 O46 1.986 . S
Zn43 O48 1.996 . S
Zn43 O51 1.943 . S
O44 Zn43 1.962 . S
O44 C49 1.254 . S
O45 Zn42 2.031 . S
O45 C49 1.269 . S
O46 Zn43 1.986 . S
O46 C53 1.262 . S
O47 Zn42 2.049 . S
O47 C55 1.260 . S
O48 Zn43 1.996 . S
O48 C55 1.257 . S
C49 O44 1.254 . S
C49 O45 1.269 . S
C50 O51 1.249 . S
C50 O52 1.270 . S
O51 Zn43 1.943 . S
O51 C50 1.249 . S
O52 Zn42 2.067 . S
O52 C50 1.270 . S
C53 O46 1.262 . S
C53 O54 1.232 . S
O54 C53 1.232 . S
C55 O47 1.260 . S
C55 O48 1.257 . S
Zn56 O59 2.031 . S
Zn56 O61 2.049 . S
Zn56 O66 2.067 . S
Zn57 O58 1.962 . S
Zn57 O60 1.986 . S
Zn57 O62 1.996 . S
Zn57 O65 1.943 . S
O58 Zn57 1.962 . S
O58 C63 1.254 . S
O59 Zn56 2.031 . S
O59 C63 1.269 . S
O60 Zn57 1.986 . S
O60 C67 1.262 . S
O61 Zn56 2.049 . S
O61 C69 1.260 . S
O62 Zn57 1.996 . S
O62 C69 1.257 . S
C63 O58 1.254 . S
C63 O59 1.269 . S
C64 O65 1.249 . S
C64 O66 1.270 . S
O65 Zn57 1.943 . S
O65 C64 1.249 . S
O66 Zn56 2.067 . S
O66 C64 1.270 . S
C67 O60 1.262 . S
C67 O68 1.232 . S
O68 C67 1.232 . S
C69 O61 1.260 . S
C69 O62 1.257 . S
Zn70 O73 2.031 . S
Zn70 O75 2.049 . S
Zn70 O80 2.067 . S
Zn71 O72 1.962 . S
Zn71 O74 1.986 . S
Zn71 O76 1.996 . S
Zn71 O79 1.943 . S
O72 Zn71 1.962 . S
O72 C77 1.254 . S
O73 Zn70 2.031 . S
O73 C77 1.269 . S
O74 Zn71 1.986 . S
O74 C81 1.262 . S
O75 Zn70 2.049 . S
O75 C83 1.260 . S
O76 Zn71 1.996 . S
O76 C83 1.257 . S
C77 O72 1.254 . S
C77 O73 1.269 . S
C78 O79 1.249 . S
C78 O80 1.270 . S
O79 Zn71 1.943 . S
O79 C78 1.249 . S
O80 Zn70 2.067 . S
O80 C78 1.270 . S
C81 O74 1.262 . S
C81 O82 1.232 . S
O82 C81 1.232 . S
C83 O75 1.260 . S
C83 O76 1.257 . S
Zn84 O87 2.031 . S
Zn84 O89 2.049 . S
Zn84 O94 2.067 . S
Zn85 O86 1.962 . S
Zn85 O88 1.986 . S
Zn85 O90 1.996 . S
Zn85 O93 1.943 . S
O86 Zn85 1.962 . S
O86 C91 1.254 . S
O87 Zn84 2.031 . S
O87 C91 1.269 . S
O88 Zn85 1.986 . S
O88 C95 1.262 . S
O89 Zn84 2.049 . S
O89 C97 1.260 . S
O90 Zn85 1.996 . S
O90 C97 1.257 . S
C91 O86 1.254 . S
C91 O87 1.269 . S
C92 O93 1.249 . S
C92 O94 1.270 . S
O93 Zn85 1.943 . S
O93 C92 1.249 . S
O94 Zn84 2.067 . S
O94 C92 1.270 . S
C95 O88 1.262 . S
C95 O96 1.232 . S
O96 C95 1.232 . S
C97 O89 1.260 . S
C97 O90 1.257 . S
Zn98 O101 2.031 . S
Zn98 O103 2.049 . S
Zn98 O108 2.067 . S
Zn99 O100 1.962 . S
Zn99 O102 1.986 . S
Zn99 O104 1.996 . S
Zn99 O107 1.943 . S
O100 Zn99 1.962 . S
O100 C105 1.254 . S
O101 Zn98 2.031 . S
O101 C105 1.269 . S
O102 Zn99 1.986 . S
O102 C109 1.262 . S
O103 Zn98 2.049 . S
O103 C111 1.260 . S
O104 Zn99 1.996 . S
O104 C111 1.257 . S
C105 O100 1.254 . S
C105 O101 1.269 . S
C106 O107 1.249 . S
C106 O108 1.270 . S
O107 Zn99 1.943 . S
O107 C106 1.249 . S
O108 Zn98 2.067 . S
O108 C106 1.270 . S
C109 O102 1.262 . S
C109 O110 1.232 . S
O110 C109 1.232 . S
C111 O103 1.260 . S
C111 O104 1.257 . S
Zn112 O115 2.031 . S
Zn112 O117 2.049 . S
Zn112 O122 2.067 1_565 S
Zn113 O114 1.962 . S
Zn113 O116 1.986 . S
Zn113 O118 1.996 . S
Zn113 O121 1.943 . S
O114 Zn113 1.962 . S
O114 C119 1.254 . S
O115 Zn112 2.031 . S
O115 C119 1.269 . S
O116 Zn113 1.986 . S
O116 C123 1.262 . S
O117 Zn112 2.049 . S
O117 C125 1.260 . S
O118 Zn113 1.996 . S
O118 C125 1.257 . S
C119 O114 1.254 . S
C119 O115 1.269 . S
C120 O121 1.249 . S
C120 O122 1.270 1_565 S
O121 Zn113 1.943 . S
O121 C120 1.249 . S
O122 Zn112 2.067 1_545 S
O122 C120 1.270 1_545 S
C123 O116 1.262 . S
C123 O124 1.232 . S
O124 C123 1.232 . S
C125 O117 1.260 . S
C125 O118 1.257 . S
Zn126 O129 2.031 . S
Zn126 O131 2.049 . S
Zn126 O136 2.067 1_655 S
Zn127 O128 1.962 . S
Zn127 O130 1.986 . S
Zn127 O132 1.996 . S
Zn127 O135 1.943 . S
O128 Zn127 1.962 . S
O128 C133 1.254 . S
O129 Zn126 2.031 . S
O129 C133 1.269 . S
O130 Zn127 1.986 . S
O130 C137 1.262 . S
O131 Zn126 2.049 . S
O131 C139 1.260 . S
O132 Zn127 1.996 . S
O132 C139 1.257 . S
C133 O128 1.254 . S
C133 O129 1.269 . S
C134 O135 1.249 . S
C134 O136 1.270 1_655 S
O135 Zn127 1.943 . S
O135 C134 1.249 . S
O136 Zn126 2.067 1_455 S
O136 C134 1.270 1_455 S
C137 O130 1.262 . S
C137 O138 1.232 . S
O138 C137 1.232 . S
C139 O131 1.260 . S
C139 O132 1.257 . S
Zn140 O143 2.031 . S
Zn140 O145 2.049 . S
Zn140 O150 2.067 1_545 S
Zn141 O142 1.962 . S
Zn141 O144 1.986 . S
Zn141 O146 1.996 . S
Zn141 O149 1.943 . S
O142 Zn141 1.962 . S
O142 C147 1.254 . S
O143 Zn140 2.031 . S
O143 C147 1.269 . S
O144 Zn141 1.986 . S
O144 C151 1.262 . S
O145 Zn140 2.049 . S
O145 C153 1.260 . S
O146 Zn141 1.996 . S
O146 C153 1.257 . S
C147 O142 1.254 . S
C147 O143 1.269 . S
C148 O149 1.249 . S
C148 O150 1.270 1_545 S
O149 Zn141 1.943 . S
O149 C148 1.249 . S
O150 Zn140 2.067 1_565 S
O150 C148 1.270 1_565 S
C151 O144 1.262 . S
C151 O152 1.232 . S
O152 C151 1.232 . S
C153 O145 1.260 . S
C153 O146 1.257 . S
Zn154 O157 2.031 . S
Zn154 O159 2.049 . S
Zn154 O164 2.067 1_455 S
Zn155 O156 1.962 . S
Zn155 O158 1.986 . S
Zn155 O160 1.996 . S
Zn155 O163 1.943 . S
O156 Zn155 1.962 . S
O156 C161 1.254 . S
O157 Zn154 2.031 . S
O157 C161 1.269 . S
O158 Zn155 1.986 . S
O158 C165 1.262 . S
O159 Zn154 2.049 . S
O159 C167 1.260 . S
O160 Zn155 1.996 . S
O160 C167 1.257 . S
C161 O156 1.254 . S
C161 O157 1.269 . S
C162 O163 1.249 . S
C162 O164 1.270 1_455 S
O163 Zn155 1.943 . S
O163 C162 1.249 . S
O164 Zn154 2.067 1_655 S
O164 C162 1.270 1_655 S
C165 O158 1.262 . S
C165 O166 1.232 . S
O166 C165 1.232 . S
C167 O159 1.260 . S
C167 O160 1.257 . S
Zn168 O171 2.031 . S
Zn168 O173 2.049 . S
Zn168 O178 2.067 1_545 S
Zn169 O170 1.962 . S
Zn169 O172 1.986 . S
Zn169 O174 1.996 . S
Zn169 O177 1.943 . S
O170 Zn169 1.962 . S
O170 C175 1.254 . S
O171 Zn168 2.031 . S
O171 C175 1.269 . S
O172 Zn169 1.986 . S
O172 C179 1.262 . S
O173 Zn168 2.049 . S
O173 C181 1.260 . S
O174 Zn169 1.996 . S
O174 C181 1.257 . S
C175 O170 1.254 . S
C175 O171 1.269 . S
C176 O177 1.249 . S
C176 O178 1.270 1_545 S
O177 Zn169 1.943 . S
O177 C176 1.249 . S
O178 Zn168 2.067 1_565 S
O178 C176 1.270 1_565 S
C179 O172 1.262 . S
C179 O180 1.232 . S
O180 C179 1.232 . S
C181 O173 1.260 . S
C181 O174 1.257 . S
Zn182 O185 2.031 . S
Zn182 O187 2.049 . S
Zn182 O192 2.067 1_455 S
Zn183 O184 1.962 . S
Zn183 O186 1.986 . S
Zn183 O188 1.996 . S
Zn183 O191 1.943 . S
O184 Zn183 1.962 . S
O184 C189 1.254 . S
O185 Zn182 2.031 . S
O185 C189 1.269 . S
O186 Zn183 1.986 . S
O186 C193 1.262 . S
O187 Zn182 2.049 . S
O187 C195 1.260 . S
O188 Zn183 1.996 . S
O188 C195 1.257 . S
C189 O184 1.254 . S
C189 O185 1.269 . S
C190 O191 1.249 . S
C190 O192 1.270 1_455 S
O191 Zn183 1.943 . S
O191 C190 1.249 . S
O192 Zn182 2.067 1_655 S
O192 C190 1.270 1_655 S
C193 O186 1.262 . S
C193 O194 1.232 . S
O194 C193 1.232 . S
C195 O187 1.260 . S
C195 O188 1.257 . S
Zn196 O199 2.031 . S
Zn196 O201 2.049 . S
Zn196 O206 2.067 1_565 S
Zn197 O198 1.962 . S
Zn197 O200 1.986 . S
Zn197 O202 1.996 . S
Zn197 O205 1.943 . S
O198 Zn197 1.962 . S
O198 C203 1.254 . S
O199 Zn196 2.031 . S
O199 C203 1.269 . S
O200 Zn197 1.986 . S
O200 C207 1.262 . S
O201 Zn196 2.049 . S
O201 C209 1.260 . S
O202 Zn197 1.996 . S
O202 C209 1.257 . S
C203 O198 1.254 . S
C203 O199 1.269 . S
C204 O205 1.249 . S
C204 O206 1.270 1_565 S
O205 Zn197 1.943 . S
O205 C204 1.249 . S
O206 Zn196 2.067 1_545 S
O206 C204 1.270 1_545 S
C207 O200 1.262 . S
C207 O208 1.232 . S
O208 C207 1.232 . S
C209 O201 1.260 . S
C209 O202 1.257 . S
Zn210 O213 2.031 . S
Zn210 O215 2.049 . S
Zn210 O220 2.067 1_655 S
Zn211 O212 1.962 . S
Zn211 O214 1.986 . S
Zn211 O216 1.996 . S
Zn211 O219 1.943 . S
O212 Zn211 1.962 . S
O212 C217 1.254 . S
O213 Zn210 2.031 . S
O213 C217 1.269 . S
O214 Zn211 1.986 . S
O214 C221 1.262 . S
O215 Zn210 2.049 . S
O215 C223 1.260 . S
O216 Zn211 1.996 . S
O216 C223 1.257 . S
C217 O212 1.254 . S
C217 O213 1.269 . S
C218 O219 1.249 . S
C218 O220 1.270 1_655 S
O219 Zn211 1.943 . S
O219 C218 1.249 . S
O220 Zn210 2.067 1_455 S
O220 C218 1.270 1_455 S
C221 O214 1.262 . S
C221 O222 1.232 . S
O222 C221 1.232 . S
C223 O215 1.260 . S
C223 O216 1.257 . S
C224 C225 1.369 . S
C224 C226 1.419 . S
C224 H228 0.930 . S
C225 C224 1.369 . S
C225 C234 1.429 . S
C226 C224 1.419 . S
C226 C227 1.363 . S
C226 H229 0.929 . S
C227 C226 1.363 . S
C227 C233 1.428 . S
H228 C224 0.930 . S
H229 C226 0.929 . S
S230 N231 1.613 . S
S230 N232 1.610 . S
N231 S230 1.613 . S
N231 C234 1.350 . S
N232 S230 1.610 . S
N232 C233 1.351 . S
C233 C227 1.428 . S
C233 N232 1.351 . S
C233 C234 1.434 . S
C234 C225 1.429 . S
C234 N231 1.350 . S
C234 C233 1.434 . S
C235 C236 1.369 . S
C235 C237 1.419 . S
C235 H239 0.930 . S
C236 C235 1.369 . S
C236 C245 1.429 . S
C237 C235 1.419 . S
C237 C238 1.363 . S
C237 H240 0.929 . S
C238 C237 1.363 . S
C238 C244 1.428 . S
H239 C235 0.930 . S
H240 C237 0.929 . S
S241 N242 1.613 . S
S241 N243 1.610 . S
N242 S241 1.613 . S
N242 C245 1.350 . S
N243 S241 1.610 . S
N243 C244 1.351 . S
C244 C238 1.428 . S
C244 N243 1.351 . S
C244 C245 1.434 . S
C245 C236 1.429 . S
C245 N242 1.350 . S
C245 C244 1.434 . S
C246 C247 1.369 . S
C246 C248 1.419 . S
C246 H250 0.930 . S
C247 C246 1.369 . S
C247 C256 1.429 . S
C248 C246 1.419 . S
C248 C249 1.363 . S
C248 H251 0.929 . S
C249 C248 1.363 . S
C249 C255 1.428 . S
H250 C246 0.930 . S
H251 C248 0.929 . S
S252 N253 1.613 . S
S252 N254 1.610 . S
N253 S252 1.613 . S
N253 C256 1.350 . S
N254 S252 1.610 . S
N254 C255 1.351 . S
C255 C249 1.428 . S
C255 N254 1.351 . S
C255 C256 1.434 . S
C256 C247 1.429 . S
C256 N253 1.350 . S
C256 C255 1.434 . S
C257 C258 1.369 . S
C257 C259 1.419 . S
C257 H261 0.930 . S
C258 C257 1.369 . S
C258 C267 1.429 . S
C259 C257 1.419 . S
C259 C260 1.363 . S
C259 H262 0.929 . S
C260 C259 1.363 . S
C260 C266 1.428 . S
H261 C257 0.930 . S
H262 C259 0.929 . S
S263 N264 1.613 . S
S263 N265 1.610 . S
N264 S263 1.613 . S
N264 C267 1.350 . S
N265 S263 1.610 . S
N265 C266 1.351 . S
C266 C260 1.428 . S
C266 N265 1.351 . S
C266 C267 1.434 . S
C267 C258 1.429 . S
C267 N264 1.350 . S
C267 C266 1.434 . S
C268 C269 1.369 . S
C268 C270 1.419 . S
C268 H272 0.930 . S
C269 C268 1.369 . S
C269 C278 1.429 . S
C270 C268 1.419 . S
C270 C271 1.363 . S
C270 H273 0.929 . S
C271 C270 1.363 . S
C271 C277 1.428 . S
H272 C268 0.930 . S
H273 C270 0.929 . S
S274 N275 1.613 . S
S274 N276 1.610 . S
N275 S274 1.613 . S
N275 C278 1.350 . S
N276 S274 1.610 . S
N276 C277 1.351 . S
C277 C271 1.428 . S
C277 N276 1.351 . S
C277 C278 1.434 . S
C278 C269 1.429 . S
C278 N275 1.350 . S
C278 C277 1.434 . S
C279 C280 1.369 . S
C279 C281 1.419 . S
C279 H283 0.930 . S
C280 C279 1.369 . S
C280 C289 1.429 . S
C281 C279 1.419 . S
C281 C282 1.363 . S
C281 H284 0.929 . S
C282 C281 1.363 . S
C282 C288 1.428 . S
H283 C279 0.930 . S
H284 C281 0.929 . S
S285 N286 1.613 . S
S285 N287 1.610 . S
N286 S285 1.613 . S
N286 C289 1.350 . S
N287 S285 1.610 . S
N287 C288 1.351 . S
C288 C282 1.428 . S
C288 N287 1.351 . S
C288 C289 1.434 . S
C289 C280 1.429 . S
C289 N286 1.350 . S
C289 C288 1.434 . S
C290 C291 1.369 . S
C290 C292 1.419 . S
C290 H294 0.930 . S
C291 C290 1.369 . S
C291 C300 1.429 . S
C292 C290 1.419 . S
C292 C293 1.363 . S
C292 H295 0.929 . S
C293 C292 1.363 . S
C293 C299 1.428 . S
H294 C290 0.930 . S
H295 C292 0.929 . S
S296 N297 1.613 . S
S296 N298 1.610 . S
N297 S296 1.613 . S
N297 C300 1.350 . S
N298 S296 1.610 . S
N298 C299 1.351 . S
C299 C293 1.428 . S
C299 N298 1.351 . S
C299 C300 1.434 . S
C300 C291 1.429 . S
C300 N297 1.350 . S
C300 C299 1.434 . S
C301 C302 1.369 . S
C301 C303 1.419 . S
C301 H305 0.930 . S
C302 C301 1.369 . S
C302 C311 1.429 . S
C303 C301 1.419 . S
C303 C304 1.363 . S
C303 H306 0.929 . S
C304 C303 1.363 . S
C304 C310 1.428 . S
H305 C301 0.930 . S
H306 C303 0.929 . S
S307 N308 1.613 . S
S307 N309 1.610 . S
N308 S307 1.613 . S
N308 C311 1.350 . S
N309 S307 1.610 . S
N309 C310 1.351 . S
C310 C304 1.428 . S
C310 N309 1.351 . S
C310 C311 1.434 . S
C311 C302 1.429 . S
C311 N308 1.350 . S
C311 C310 1.434 . S
C312 C313 1.369 . S
C312 C314 1.419 . S
C312 H316 0.930 . S
C313 C312 1.369 . S
C313 C322 1.429 . S
C314 C312 1.419 . S
C314 C315 1.363 . S
C314 H317 0.929 . S
C315 C314 1.363 . S
C315 C321 1.428 . S
H316 C312 0.930 . S
H317 C314 0.929 . S
S318 N319 1.613 . S
S318 N320 1.610 . S
N319 S318 1.613 . S
N319 C322 1.350 . S
N320 S318 1.610 . S
N320 C321 1.351 . S
C321 C315 1.428 . S
C321 N320 1.351 . S
C321 C322 1.434 . S
C322 C313 1.429 . S
C322 N319 1.350 . S
C322 C321 1.434 . S
C323 C324 1.369 . S
C323 C325 1.419 . S
C323 H327 0.930 . S
C324 C323 1.369 . S
C324 C333 1.429 . S
C325 C323 1.419 . S
C325 C326 1.363 . S
C325 H328 0.929 . S
C326 C325 1.363 . S
C326 C332 1.428 . S
H327 C323 0.930 . S
H328 C325 0.929 . S
S329 N330 1.613 . S
S329 N331 1.610 . S
N330 S329 1.613 . S
N330 C333 1.350 . S
N331 S329 1.610 . S
N331 C332 1.351 . S
C332 C326 1.428 . S
C332 N331 1.351 . S
C332 C333 1.434 . S
C333 C324 1.429 . S
C333 N330 1.350 . S
C333 C332 1.434 . S
C334 C335 1.369 . S
C334 C336 1.419 . S
C334 H338 0.930 . S
C335 C334 1.369 . S
C335 C344 1.429 . S
C336 C334 1.419 . S
C336 C337 1.363 . S
C336 H339 0.929 . S
C337 C336 1.363 . S
C337 C343 1.428 . S
H338 C334 0.930 . S
H339 C336 0.929 . S
S340 N341 1.613 . S
S340 N342 1.610 . S
N341 S340 1.613 . S
N341 C344 1.350 . S
N342 S340 1.610 . S
N342 C343 1.351 . S
C343 C337 1.428 . S
C343 N342 1.351 . S
C343 C344 1.434 . S
C344 C335 1.429 . S
C344 N341 1.350 . S
C344 C343 1.434 . S
C345 C346 1.369 . S
C345 C347 1.419 . S
C345 H349 0.930 . S
C346 C345 1.369 . S
C346 C355 1.429 . S
C347 C345 1.419 . S
C347 C348 1.363 . S
C347 H350 0.929 . S
C348 C347 1.363 . S
C348 C354 1.428 . S
H349 C345 0.930 . S
H350 C347 0.929 . S
S351 N352 1.613 . S
S351 N353 1.610 . S
N352 S351 1.613 . S
N352 C355 1.350 . S
N353 S351 1.610 . S
N353 C354 1.351 . S
C354 C348 1.428 . S
C354 N353 1.351 . S
C354 C355 1.434 . S
C355 C346 1.429 . S
C355 N352 1.350 . S
C355 C354 1.434 . S
C356 C357 1.369 . S
C356 C358 1.419 . S
C356 H360 0.930 . S
C357 C356 1.369 . S
C357 C366 1.429 . S
C358 C356 1.419 . S
C358 C359 1.363 . S
C358 H361 0.929 . S
C359 C358 1.363 . S
C359 C365 1.428 . S
H360 C356 0.930 . S
H361 C358 0.929 . S
S362 N363 1.613 . S
S362 N364 1.610 . S
N363 S362 1.613 . S
N363 C366 1.350 . S
N364 S362 1.610 . S
N364 C365 1.351 . S
C365 C359 1.428 . S
C365 N364 1.351 . S
C365 C366 1.434 . S
C366 C357 1.429 . S
C366 N363 1.350 . S
C366 C365 1.434 . S
C367 C368 1.369 . S
C367 C369 1.419 . S
C367 H371 0.930 . S
C368 C367 1.369 . S
C368 C377 1.429 . S
C369 C367 1.419 . S
C369 C370 1.363 . S
C369 H372 0.929 . S
C370 C369 1.363 . S
C370 C376 1.428 . S
H371 C367 0.930 . S
H372 C369 0.929 . S
S373 N374 1.613 . S
S373 N375 1.610 . S
N374 S373 1.613 . S
N374 C377 1.350 . S
N375 S373 1.610 . S
N375 C376 1.351 . S
C376 C370 1.428 . S
C376 N375 1.351 . S
C376 C377 1.434 . S
C377 C368 1.429 . S
C377 N374 1.350 . S
C377 C376 1.434 . S
C378 C379 1.369 . S
C378 C380 1.419 . S
C378 H382 0.930 . S
C379 C378 1.369 . S
C379 C388 1.429 . S
C380 C378 1.419 . S
C380 C381 1.363 . S
C380 H383 0.929 . S
C381 C380 1.363 . S
C381 C387 1.428 . S
H382 C378 0.930 . S
H383 C380 0.929 . S
S384 N385 1.613 . S
S384 N386 1.610 . S
N385 S384 1.613 . S
N385 C388 1.350 . S
N386 S384 1.610 . S
N386 C387 1.351 . S
C387 C381 1.428 . S
C387 N386 1.351 . S
C387 C388 1.434 . S
C388 C379 1.429 . S
C388 N385 1.350 . S
C388 C387 1.434 . S
C389 C390 1.369 . S
C389 C391 1.419 . S
C389 H393 0.930 . S
C390 C389 1.369 . S
C390 C399 1.429 . S
C391 C389 1.419 . S
C391 C392 1.363 . S
C391 H394 0.929 . S
C392 C391 1.363 . S
C392 C398 1.428 . S
H393 C389 0.930 . S
H394 C391 0.929 . S
S395 N396 1.613 . S
S395 N397 1.610 . S
N396 S395 1.613 . S
N396 C399 1.350 . S
N397 S395 1.610 . S
N397 C398 1.351 . S
C398 C392 1.428 . S
C398 N397 1.351 . S
C398 C399 1.434 . S
C399 C390 1.429 . S
C399 N396 1.350 . S
C399 C398 1.434 . S
C400 C401 1.369 . S
C400 C402 1.419 . S
C400 H404 0.930 1_545 S
C401 C400 1.369 . S
C401 C410 1.429 . S
C402 C400 1.419 . S
C402 C403 1.363 . S
C402 H405 0.929 . S
C403 C402 1.363 . S
C403 C409 1.428 . S
H404 C400 0.930 1_565 S
H405 C402 0.929 . S
S406 N407 1.613 . S
S406 N408 1.610 . S
N407 S406 1.613 . S
N407 C410 1.350 . S
N408 S406 1.610 . S
N408 C409 1.351 . S
C409 C403 1.428 . S
C409 N408 1.351 . S
C409 C410 1.434 . S
C410 C401 1.429 . S
C410 N407 1.350 . S
C410 C409 1.434 . S
C411 C412 1.369 . S
C411 C413 1.419 . S
C411 H415 0.930 . S
C412 C411 1.369 . S
C412 C421 1.429 . S
C413 C411 1.419 . S
C413 C414 1.363 . S
C413 H416 0.929 . S
C414 C413 1.363 . S
C414 C420 1.428 . S
H415 C411 0.930 . S
H416 C413 0.929 . S
S417 N418 1.613 1_655 S
S417 N419 1.610 . S
N418 S417 1.613 1_455 S
N418 C421 1.350 . S
N419 S417 1.610 . S
N419 C420 1.351 1_655 S
C420 C414 1.428 . S
C420 N419 1.351 1_455 S
C420 C421 1.434 . S
C421 C412 1.429 . S
C421 N418 1.350 . S
C421 C420 1.434 . S
C422 C423 1.369 . S
C422 C424 1.419 . S
C422 H426 0.930 . S
C423 C422 1.369 . S
C423 C432 1.429 . S
C424 C422 1.419 . S
C424 C425 1.363 . S
C424 H427 0.929 . S
C425 C424 1.363 . S
C425 C431 1.428 . S
H426 C422 0.930 . S
H427 C424 0.929 . S
S428 N429 1.613 . S
S428 N430 1.610 1_545 S
N429 S428 1.613 . S
N429 C432 1.350 1_545 S
N430 S428 1.610 1_565 S
N430 C431 1.351 . S
C431 C425 1.428 . S
C431 N430 1.351 . S
C431 C432 1.434 . S
C432 C423 1.429 . S
C432 N429 1.350 1_565 S
C432 C431 1.434 . S
C433 C434 1.369 . S
C433 C435 1.419 . S
C433 H437 0.930 . S
C434 C433 1.369 . S
C434 C443 1.429 . S
C435 C433 1.419 . S
C435 C436 1.363 . S
C435 H438 0.929 1_655 S
C436 C435 1.363 . S
C436 C442 1.428 . S
H437 C433 0.930 . S
H438 C435 0.929 1_455 S
S439 N440 1.613 . S
S439 N441 1.610 . S
N440 S439 1.613 . S
N440 C443 1.350 . S
N441 S439 1.610 . S
N441 C442 1.351 . S
C442 C436 1.428 . S
C442 N441 1.351 . S
C442 C443 1.434 . S
C443 C434 1.429 . S
C443 N440 1.350 . S
C443 C442 1.434 . S
C444 C445 1.369 . S
C444 C446 1.419 . S
C444 H448 0.930 . S
C445 C444 1.369 . S
C445 C454 1.429 . S
C446 C444 1.419 . S
C446 C447 1.363 . S
C446 H449 0.929 . S
C447 C446 1.363 . S
C447 C453 1.428 . S
H448 C444 0.930 . S
H449 C446 0.929 . S
S450 N451 1.613 . S
S450 N452 1.610 1_545 S
N451 S450 1.613 . S
N451 C454 1.350 1_545 S
N452 S450 1.610 1_565 S
N452 C453 1.351 . S
C453 C447 1.428 . S
C453 N452 1.351 . S
C453 C454 1.434 . S
C454 C445 1.429 . S
C454 N451 1.350 1_565 S
C454 C453 1.434 . S
C455 C456 1.369 . S
C455 C457 1.419 . S
C455 H459 0.930 . S
C456 C455 1.369 . S
C456 C465 1.429 . S
C457 C455 1.419 . S
C457 C458 1.363 . S
C457 H460 0.929 . S
C458 C457 1.363 . S
C458 C464 1.428 . S
H459 C455 0.930 . S
H460 C457 0.929 . S
S461 N462 1.613 . S
S461 N463 1.610 . S
N462 S461 1.613 . S
N462 C465 1.350 . S
N463 S461 1.610 . S
N463 C464 1.351 . S
C464 C458 1.428 . S
C464 N463 1.351 . S
C464 C465 1.434 . S
C465 C456 1.429 . S
C465 N462 1.350 . S
C465 C464 1.434 . S
C466 C467 1.369 . S
C466 C468 1.419 . S
C466 H470 0.930 . S
C467 C466 1.369 . S
C467 C476 1.429 . S
C468 C466 1.419 . S
C468 C469 1.363 . S
C468 H471 0.929 1_545 S
C469 C468 1.363 . S
C469 C475 1.428 . S
H470 C466 0.930 . S
H471 C468 0.929 1_565 S
S472 N473 1.613 . S
S472 N474 1.610 . S
N473 S472 1.613 . S
N473 C476 1.350 . S
N474 S472 1.610 . S
N474 C475 1.351 . S
C475 C469 1.428 . S
C475 N474 1.351 . S
C475 C476 1.434 . S
C476 C467 1.429 . S
C476 N473 1.350 . S
C476 C475 1.434 . S
C477 C478 1.369 . S
C477 C479 1.419 . S
C477 H481 0.930 . S
C478 C477 1.369 . S
C478 C487 1.429 . S
C479 C477 1.419 . S
C479 C480 1.363 . S
C479 H482 0.929 . S
C480 C479 1.363 . S
C480 C486 1.428 . S
H481 C477 0.930 . S
H482 C479 0.929 . S
S483 N484 1.613 . S
S483 N485 1.610 . S
N484 S483 1.613 . S
N484 C487 1.350 . S
N485 S483 1.610 . S
N485 C486 1.351 . S
C486 C480 1.428 . S
C486 N485 1.351 . S
C486 C487 1.434 . S
C487 C478 1.429 . S
C487 N484 1.350 . S
C487 C486 1.434 . S
C488 C489 1.369 . S
C488 C490 1.419 . S
C488 H492 0.930 . S
C489 C488 1.369 . S
C489 C498 1.429 . S
C490 C488 1.419 . S
C490 C491 1.363 . S
C490 H493 0.929 . S
C491 C490 1.363 . S
C491 C497 1.428 . S
H492 C488 0.930 . S
H493 C490 0.929 . S
S494 N495 1.613 . S
S494 N496 1.610 . S
N495 S494 1.613 . S
N495 C498 1.350 . S
N496 S494 1.610 . S
N496 C497 1.351 . S
C497 C491 1.428 . S
C497 N496 1.351 . S
C497 C498 1.434 . S
C498 C489 1.429 . S
C498 N495 1.350 . S
C498 C497 1.434 . S
C499 C500 1.369 . S
C499 C501 1.419 . S
C499 H503 0.930 . S
C500 C499 1.369 . S
C500 C509 1.429 . S
C501 C499 1.419 . S
C501 C502 1.363 . S
C501 H504 0.929 . S
C502 C501 1.363 . S
C502 C508 1.428 . S
H503 C499 0.930 . S
H504 C501 0.929 . S
S505 N506 1.613 . S
S505 N507 1.610 . S
N506 S505 1.613 . S
N506 C509 1.350 . S
N507 S505 1.610 . S
N507 C508 1.351 . S
C508 C502 1.428 . S
C508 N507 1.351 . S
C508 C509 1.434 . S
C509 C500 1.429 . S
C509 N506 1.350 . S
C509 C508 1.434 . S
C510 C511 1.369 . S
C510 C512 1.419 . S
C510 H514 0.930 . S
C511 C510 1.369 . S
C511 C520 1.429 . S
C512 C510 1.419 . S
C512 C513 1.363 . S
C512 H515 0.929 . S
C513 C512 1.363 . S
C513 C519 1.428 . S
H514 C510 0.930 . S
H515 C512 0.929 . S
S516 N517 1.613 . S
S516 N518 1.610 . S
N517 S516 1.613 . S
N517 C520 1.350 . S
N518 S516 1.610 . S
N518 C519 1.351 . S
C519 C513 1.428 . S
C519 N518 1.351 . S
C519 C520 1.434 . S
C520 C511 1.429 . S
C520 N517 1.350 . S
C520 C519 1.434 . S
C521 C522 1.369 . S
C521 C523 1.419 . S
C521 H525 0.930 . S
C522 C521 1.369 . S
C522 C531 1.429 . S
C523 C521 1.419 . S
C523 C524 1.363 . S
C523 H526 0.929 . S
C524 C523 1.363 . S
C524 C530 1.428 . S
H525 C521 0.930 . S
H526 C523 0.929 . S
S527 N528 1.613 . S
S527 N529 1.610 . S
N528 S527 1.613 . S
N528 C531 1.350 . S
N529 S527 1.610 . S
N529 C530 1.351 . S
C530 C524 1.428 . S
C530 N529 1.351 . S
C530 C531 1.434 . S
C531 C522 1.429 . S
C531 N528 1.350 . S
C531 C530 1.434 . S
C532 C533 1.369 . S
C532 C534 1.419 1_544 S
C532 H536 0.930 . S
C533 C532 1.369 . S
C533 C542 1.429 . S
C534 C532 1.419 1_566 S
C534 C535 1.363 . S
C534 H537 0.929 . S
C535 C534 1.363 . S
C535 C541 1.428 . S
H536 C532 0.930 . S
H537 C534 0.929 . S
S538 N539 1.613 1_556 S
S538 N540 1.610 . S
N539 S538 1.613 1_554 S
N539 C542 1.350 . S
N540 S538 1.610 . S
N540 C541 1.351 1_545 S
C541 C535 1.428 . S
C541 N540 1.351 1_565 S
C541 C542 1.434 1_566 S
C542 C533 1.429 . S
C542 N539 1.350 . S
C542 C541 1.434 1_544 S
C543 C544 1.369 . S
C543 C545 1.419 1_556 S
C543 H547 0.930 . S
C544 C543 1.369 . S
C544 C553 1.429 1_455 S
C545 C543 1.419 1_554 S
C545 C546 1.363 1_455 S
C545 H548 0.929 . S
C546 C545 1.363 1_655 S
C546 C552 1.428 . S
H547 C543 0.930 . S
H548 C545 0.929 . S
S549 N550 1.613 . S
S549 N551 1.610 1_556 S
N550 S549 1.613 . S
N550 C553 1.350 . S
N551 S549 1.610 1_554 S
N551 C552 1.351 . S
C552 C546 1.428 . S
C552 N551 1.351 . S
C552 C553 1.434 1_554 S
C553 C544 1.429 1_655 S
C553 N550 1.350 . S
C553 C552 1.434 1_556 S
C554 C555 1.369 . S
C554 C556 1.419 1_556 S
C554 H558 0.930 . S
C555 C554 1.369 . S
C555 C564 1.429 1_545 S
C556 C554 1.419 1_554 S
C556 C557 1.363 1_545 S
C556 H559 0.929 . S
C557 C556 1.363 1_565 S
C557 C563 1.428 . S
H558 C554 0.930 . S
H559 C556 0.929 . S
S560 N561 1.613 . S
S560 N562 1.610 1_556 S
N561 S560 1.613 . S
N561 C564 1.350 . S
N562 S560 1.610 1_554 S
N562 C563 1.351 . S
C563 C557 1.428 . S
C563 N562 1.351 . S
C563 C564 1.434 1_554 S
C564 C555 1.429 1_565 S
C564 N561 1.350 . S
C564 C563 1.434 1_556 S
C565 C566 1.369 . S
C565 C567 1.419 1_656 S
C565 H569 0.930 . S
C566 C565 1.369 . S
C566 C575 1.429 . S
C567 C565 1.419 1_454 S
C567 C568 1.363 . S
C567 H570 0.929 . S
C568 C567 1.363 . S
C568 C574 1.428 . S
H569 C565 0.930 . S
H570 C567 0.929 . S
S571 N572 1.613 1_455 S
S571 N573 1.610 1_556 S
N572 S571 1.613 1_655 S
N572 C575 1.350 . S
N573 S571 1.610 1_554 S
N573 C574 1.351 . S
C574 C568 1.428 . S
C574 N573 1.351 . S
C574 C575 1.434 1_454 S
C575 C566 1.429 . S
C575 N572 1.350 . S
C575 C574 1.434 1_656 S
C225 C11 1.318 . S
C227 C109 1.318 . S
C236 C25 1.322 . S
C238 C67 1.322 . S
C247 C81 1.321 . S
C249 C39 1.321 . S
C258 C53 1.322 . S
C260 C95 1.322 . S
C269 C123 1.317 . S
C271 C221 1.318 . S
C280 C179 1.323 . S
C282 C137 1.322 . S
C291 C193 1.318 . S
C293 C151 1.319 . S
C302 C207 1.322 . S
C304 C165 1.322 . S
C313 C8 1.157 . S
C315 C161 1.233 . S
C324 C22 1.154 . S
C326 C119 1.233 . S
C335 C133 1.235 . S
C337 C36 1.167 . S
C346 C50 1.155 . S
C348 C147 1.232 . S
C357 C64 1.155 . S
C359 C189 1.233 . S
C368 C203 1.233 . S
C370 C78 1.163 . S
C379 C92 1.168 . S
C381 C217 1.234 . S
C390 C175 1.233 . S
C392 C106 1.158 . S
C401 C120 1.154 1_545 S
C403 C49 1.232 . S
C412 C7 1.235 . S
C414 C134 1.167 1_455 S
C423 C148 1.159 1_565 S
C425 C21 1.233 . S
C434 C35 1.233 . S
C436 C162 1.157 1_655 S
C445 C176 1.166 1_565 S
C447 C77 1.234 . S
C456 C91 1.235 . S
C458 C190 1.166 1_655 S
C467 C105 1.234 . S
C469 C204 1.161 1_545 S
C478 C63 1.235 . S
C480 C218 1.167 1_455 S
C489 C69 1.455 . S
C491 C13 1.462 . S
C500 C83 1.460 . S
C502 C27 1.466 . S
C511 C41 1.464 . S
C513 C97 1.467 . S
C522 C111 1.464 . S
C524 C55 1.466 . S
C533 C181 1.468 . S
C535 C125 1.463 . S
C544 C195 1.461 . S
C546 C139 1.466 . S
C555 C153 1.456 . S
C557 C209 1.462 . S
C566 C223 1.465 . S
C568 C167 1.466 . S
