# Generated by pormake.
# Topology atn, (4)-cn, num edge types: 1
# Building blocks:
#     Node 0, Type 0, BuildingBlock: NAHDIM_clean_sbu_0, # of connection points: 4
#     Node 1, Type 0, BuildingBlock: NAHDIM_clean_sbu_0, # of connection points: 4
#     Node 2, Type 0, BuildingBlock: NAHDIM_clean_sbu_0, # of connection points: 4
#     Node 3, Type 0, BuildingBlock: NAHDIM_clean_sbu_0, # of connection points: 4
#     Node 4, Type 0, BuildingBlock: NAHDIM_clean_sbu_0, # of connection points: 4
#     Node 5, Type 0, BuildingBlock: NAHDIM_clean_sbu_0, # of connection points: 4
#     Node 6, Type 0, BuildingBlock: NAHDIM_clean_sbu_0, # of connection points: 4
#     Node 7, Type 0, BuildingBlock: NAHDIM_clean_sbu_0, # of connection points: 4
#     Node 8, Type 0, BuildingBlock: NAHDIM_clean_sbu_0, # of connection points: 4
#     Node 9, Type 0, BuildingBlock: NAHDIM_clean_sbu_0, # of connection points: 4
#     Node 10, Type 0, BuildingBlock: NAHDIM_clean_sbu_0, # of connection points: 4
#     Node 11, Type 0, BuildingBlock: NAHDIM_clean_sbu_0, # of connection points: 4
#     Node 12, Type 0, BuildingBlock: NAHDIM_clean_sbu_0, # of connection points: 4
#     Node 13, Type 0, BuildingBlock: NAHDIM_clean_sbu_0, # of connection points: 4
#     Node 14, Type 0, BuildingBlock: NAHDIM_clean_sbu_0, # of connection points: 4
#     Node 15, Type 0, BuildingBlock: NAHDIM_clean_sbu_0, # of connection points: 4
#     Edge 16, Type (0, 0), BuildingBlock: CIFDUS_clean_linker_0, # of connection points: 2
#     Edge 17, Type (0, 0), BuildingBlock: CIFDUS_clean_linker_0, # of connection points: 2
#     Edge 18, Type (0, 0), BuildingBlock: CIFDUS_clean_linker_0, # of connection points: 2
#     Edge 19, Type (0, 0), BuildingBlock: CIFDUS_clean_linker_0, # of connection points: 2
#     Edge 20, Type (0, 0), BuildingBlock: CIFDUS_clean_linker_0, # of connection points: 2
#     Edge 21, Type (0, 0), BuildingBlock: CIFDUS_clean_linker_0, # of connection points: 2
#     Edge 22, Type (0, 0), BuildingBlock: CIFDUS_clean_linker_0, # of connection points: 2
#     Edge 23, Type (0, 0), BuildingBlock: CIFDUS_clean_linker_0, # of connection points: 2
#     Edge 24, Type (0, 0), BuildingBlock: CIFDUS_clean_linker_0, # of connection points: 2
#     Edge 25, Type (0, 0), BuildingBlock: CIFDUS_clean_linker_0, # of connection points: 2
#     Edge 26, Type (0, 0), BuildingBlock: CIFDUS_clean_linker_0, # of connection points: 2
#     Edge 27, Type (0, 0), BuildingBlock: CIFDUS_clean_linker_0, # of connection points: 2
#     Edge 28, Type (0, 0), BuildingBlock: CIFDUS_clean_linker_0, # of connection points: 2
#     Edge 29, Type (0, 0), BuildingBlock: CIFDUS_clean_linker_0, # of connection points: 2
#     Edge 30, Type (0, 0), BuildingBlock: CIFDUS_clean_linker_0, # of connection points: 2
#     Edge 31, Type (0, 0), BuildingBlock: CIFDUS_clean_linker_0, # of connection points: 2
#     Edge 32, Type (0, 0), BuildingBlock: CIFDUS_clean_linker_0, # of connection points: 2
#     Edge 33, Type (0, 0), BuildingBlock: CIFDUS_clean_linker_0, # of connection points: 2
#     Edge 34, Type (0, 0), BuildingBlock: CIFDUS_clean_linker_0, # of connection points: 2
#     Edge 35, Type (0, 0), BuildingBlock: CIFDUS_clean_linker_0, # of connection points: 2
#     Edge 36, Type (0, 0), BuildingBlock: CIFDUS_clean_linker_0, # of connection points: 2
#     Edge 37, Type (0, 0), BuildingBlock: CIFDUS_clean_linker_0, # of connection points: 2
#     Edge 38, Type (0, 0), BuildingBlock: CIFDUS_clean_linker_0, # of connection points: 2
#     Edge 39, Type (0, 0), BuildingBlock: CIFDUS_clean_linker_0, # of connection points: 2
#     Edge 40, Type (0, 0), BuildingBlock: CIFDUS_clean_linker_0, # of connection points: 2
#     Edge 41, Type (0, 0), BuildingBlock: CIFDUS_clean_linker_0, # of connection points: 2
#     Edge 42, Type (0, 0), BuildingBlock: CIFDUS_clean_linker_0, # of connection points: 2
#     Edge 43, Type (0, 0), BuildingBlock: CIFDUS_clean_linker_0, # of connection points: 2
#     Edge 44, Type (0, 0), BuildingBlock: CIFDUS_clean_linker_0, # of connection points: 2
#     Edge 45, Type (0, 0), BuildingBlock: CIFDUS_clean_linker_0, # of connection points: 2
#     Edge 46, Type (0, 0), BuildingBlock: CIFDUS_clean_linker_0, # of connection points: 2
#     Edge 47, Type (0, 0), BuildingBlock: CIFDUS_clean_linker_0, # of connection points: 2
# Relax obj value: 0.100
# Max RMSD: 0.110
# Mean RMSD: 0.110
data_MOF--net-atn--node1-NAHDIM_clean_sbu_0--edge1-CIFDUS_clean_linker_0
_symmetry_space_group_name_H-M    P1
_symmetry_Int_Tables_number       1
_symmetry_cell_setting            triclinic
loop_
_symmetry_equiv_pos_as_xyz
'x, y, z'
_cell_length_a     55.578221
_cell_length_b     55.599592
_cell_length_c     21.706963
_cell_angle_alpha  89.983092
_cell_angle_beta   89.991211
_cell_angle_gamma 90.022116
loop_
_atom_site_label
_atom_site_type_symbol
_atom_site_fract_x
_atom_site_fract_y
_atom_site_fract_z
_atom_type_partial_charge
C0 C 0.19842 0.42834 0.988 0.0
O1 O 0.17727 0.41788 0.98412 0.0
O2 O 0.20028 0.36773 0.07587 0.0
Zn3 Zn 0.21418 0.37936 0.99528 0.0
O4 O 0.19385 0.36827 0.92386 0.0
C5 C 0.25972 0.35761 0.029 0.0
O6 O 0.25227 0.36194 0.08535 0.0
O7 O 0.21708 0.41536 0.99396 0.0
C8 C 0.19598 0.34637 0.90809 0.0
O9 O 0.20999 0.33225 0.94078 0.0
C10 C 0.17818 0.36266 0.08359 0.0
O11 O 0.16309 0.3657 0.03767 0.0
O12 O 0.24686 0.36437 0.98383 0.0
C13 C 0.57731 0.22157 0.08273 0.0
O14 O 0.58888 0.21367 0.13146 0.0
O15 O 0.63438 0.19449 0.09456 0.0
Zn16 Zn 0.62278 0.21294 0.01984 0.0
O17 O 0.62358 0.19208 0.94393 0.0
C18 C 0.6616 0.23869 0.96481 0.0
O19 O 0.66478 0.21739 0.94001 0.0
O20 O 0.58844 0.22344 0.03182 0.0
C21 C 0.61499 0.20122 0.89493 0.0
O22 O 0.6042 0.22221 0.89829 0.0
C23 C 0.6566 0.19112 0.10545 0.0
O24 O 0.67262 0.1994 0.06636 0.0
O25 O 0.64455 0.24163 0.00326 0.0
C26 C 0.78778 0.57008 0.00601 0.0
O27 O 0.80819 0.58132 0.01617 0.0
O28 O 0.78961 0.62978 0.07038 0.0
Zn29 Zn 0.7729 0.61829 0.99361 0.0
O30 O 0.79291 0.62745 0.9204 0.0
C31 C 0.72801 0.64024 0.03149 0.0
O32 O 0.73477 0.63317 0.08659 0.0
O33 O 0.769 0.58242 0.99545 0.0
C34 C 0.7833 0.62691 0.86732 0.0
O35 O 0.76089 0.61967 0.86204 0.0
C36 C 0.79197 0.65225 0.07935 0.0
O37 O 0.78338 0.66732 0.03824 0.0
O38 O 0.74104 0.63506 0.98531 0.0
C39 C 0.42118 0.77576 0.01095 0.0
O40 O 0.41064 0.77363 0.06485 0.0
O41 O 0.35975 0.78585 0.04898 0.0
Zn42 Zn 0.37224 0.77426 0.96703 0.0
O43 O 0.35729 0.79286 0.89741 0.0
C44 C 0.35756 0.72648 0.00324 0.0
O45 O 0.36315 0.73432 0.05852 0.0
O46 O 0.40833 0.77632 0.96258 0.0
C47 C 0.3659 0.81179 0.87305 0.0
O48 O 0.38585 0.82109 0.89514 0.0
C49 C 0.35892 0.80741 0.06821 0.0
O50 O 0.36687 0.82486 0.03281 0.0
O51 O 0.36117 0.74005 0.95701 0.0
C52 C 0.18871 0.57084 0.94774 0.0
O53 O 0.16939 0.58435 0.94359 0.0
O54 O 0.20172 0.62653 0.84933 0.0
Zn55 Zn 0.21154 0.61662 0.93518 0.0
O56 O 0.19083 0.63299 0.99873 0.0
C57 C 0.26012 0.63045 0.90434 0.0
O58 O 0.25348 0.62365 0.84892 0.0
O59 O 0.2093 0.58075 0.94506 0.0
C60 C 0.18886 0.65575 0.99737 0.0
O61 O 0.19967 0.66778 0.95318 0.0
C62 C 0.18061 0.63277 0.83352 0.0
O63 O 0.16323 0.63226 0.87453 0.0
O64 O 0.24547 0.62805 0.9489 0.0
C65 C 0.43607 0.23116 0.02717 0.0
O66 O 0.42432 0.23682 0.97669 0.0
O67 O 0.38233 0.19903 0.98448 0.0
Zn68 Zn 0.38919 0.21554 0.06522 0.0
O69 O 0.37882 0.19451 0.1357 0.0
C70 C 0.36328 0.25881 0.02634 0.0
O71 O 0.36902 0.25209 0.97021 0.0
O72 O 0.4246 0.22205 0.0721 0.0
C73 C 0.37795 0.20416 0.18873 0.0
O74 O 0.38462 0.22671 0.19477 0.0
C75 C 0.36119 0.19243 0.96994 0.0
O76 O 0.34346 0.19637 0.00868 0.0
O77 O 0.37038 0.24633 0.07185 0.0
C78 C 0.80726 0.4279 0.99468 0.0
O79 O 0.8272 0.41573 0.00376 0.0
O80 O 0.80598 0.37412 0.88222 0.0
Zn81 Zn 0.791 0.38094 0.96509 0.0
O82 O 0.81149 0.36643 0.03172 0.0
C83 C 0.75386 0.34755 0.93347 0.0
O84 O 0.7694 0.34257 0.88972 0.0
O85 O 0.78845 0.41668 0.97782 0.0
C86 C 0.81782 0.34453 0.02762 0.0
O87 O 0.81133 0.33205 0.97898 0.0
C88 C 0.82847 0.37203 0.87323 0.0
O89 O 0.84339 0.3758 0.91916 0.0
O90 O 0.75854 0.36452 0.97084 0.0
C91 C 0.56396 0.7865 0.04367 0.0
O92 O 0.57488 0.78589 0.99 0.0
O93 O 0.624 0.80816 0.0134 0.0
Zn94 Zn 0.61245 0.79153 0.09031 0.0
O95 O 0.62375 0.81008 0.16419 0.0
C96 C 0.63227 0.74607 0.04764 0.0
O97 O 0.6264 0.75415 0.99277 0.0
O98 O 0.57643 0.78883 0.09234 0.0
C99 C 0.62624 0.79896 0.21493 0.0
O100 O 0.62046 0.77607 0.21778 0.0
C101 C 0.64642 0.81213 0.00783 0.0
O102 O 0.66093 0.80565 0.05264 0.0
O103 O 0.62745 0.7587 0.09478 0.0
C104 C 0.69504 0.92578 0.5679 0.0
O105 O 0.67599 0.912 0.56208 0.0
O106 O 0.70185 0.86981 0.67093 0.0
Zn107 Zn 0.71576 0.87998 0.58868 0.0
O108 O 0.69591 0.86549 0.52098 0.0
C109 C 0.76096 0.85623 0.61963 0.0
O110 O 0.75225 0.85611 0.6759 0.0
O111 O 0.71522 0.91609 0.57996 0.0
C112 C 0.69314 0.84281 0.51978 0.0
O113 O 0.70294 0.82969 0.56345 0.0
C114 C 0.6794 0.86605 0.67714 0.0
O115 O 0.66512 0.86934 0.62969 0.0
O116 O 0.74908 0.86648 0.57706 0.0
C117 C 0.06157 0.71199 0.43955 0.0
O118 O 0.06948 0.69259 0.46755 0.0
O119 O 0.11777 0.70101 0.50265 0.0
Zn120 Zn 0.11199 0.71875 0.42299 0.0
O121 O 0.12276 0.69849 0.35118 0.0
C122 C 0.13512 0.76099 0.47299 0.0
O123 O 0.12542 0.75327 0.52454 0.0
O124 O 0.07668 0.72634 0.41538 0.0
C125 C 0.12645 0.70869 0.29961 0.0
O126 O 0.12253 0.73191 0.29463 0.0
C127 C 0.1383 0.69265 0.51685 0.0
O128 O 0.15627 0.69532 0.47813 0.0
O129 O 0.13142 0.74934 0.42353 0.0
C130 C 0.30665 0.0723 0.5409 0.0
O131 O 0.32642 0.08526 0.54211 0.0
O132 O 0.2938 0.1298 0.63733 0.0
Zn133 Zn 0.2857 0.11895 0.55089 0.0
O134 O 0.3089 0.13327 0.48994 0.0
C135 C 0.23611 0.13415 0.56644 0.0
O136 O 0.23922 0.12662 0.62325 0.0
O137 O 0.28643 0.08287 0.54454 0.0
C138 C 0.31295 0.15575 0.49161 0.0
O139 O 0.3027 0.16876 0.53477 0.0
C140 C 0.31526 0.13375 0.65497 0.0
O141 O 0.33307 0.1301 0.6163 0.0
O142 O 0.25314 0.1318 0.5279 0.0
C143 C 0.93368 0.27976 0.51509 0.0
O144 O 0.92225 0.28103 0.56797 0.0
O145 O 0.87588 0.30485 0.54138 0.0
Zn146 Zn 0.88611 0.28699 0.46522 0.0
O147 O 0.87717 0.30672 0.39136 0.0
C148 C 0.85995 0.24413 0.50482 0.0
O149 O 0.86403 0.25231 0.56063 0.0
O150 O 0.92181 0.28152 0.46528 0.0
C151 C 0.87699 0.29671 0.33877 0.0
O152 O 0.88351 0.27407 0.33426 0.0
C153 C 0.85407 0.31134 0.54667 0.0
O154 O 0.83887 0.30612 0.50227 0.0
O155 O 0.86819 0.25561 0.45879 0.0
C156 C 0.70254 0.06856 0.53304 0.0
O157 O 0.68102 0.07815 0.53756 0.0
O158 O 0.70032 0.12902 0.44696 0.0
Zn159 Zn 0.71422 0.11799 0.52834 0.0
O160 O 0.69195 0.12505 0.59921 0.0
C161 C 0.75868 0.14264 0.50037 0.0
O162 O 0.75352 0.13593 0.44386 0.0
O163 O 0.72063 0.08236 0.52728 0.0
C164 C 0.67962 0.14421 0.60331 0.0
O165 O 0.68063 0.1601 0.55856 0.0
C166 C 0.67815 0.12858 0.43248 0.0
O167 O 0.6624 0.12013 0.47208 0.0
O168 O 0.7448 0.13639 0.54405 0.0
C169 C 0.91854 0.72188 0.46489 0.0
O170 O 0.90945 0.73747 0.42582 0.0
O171 O 0.85657 0.70229 0.41261 0.0
Zn172 Zn 0.86855 0.71296 0.4957 0.0
O173 O 0.85403 0.69166 0.56048 0.0
C174 C 0.85108 0.76165 0.47374 0.0
O175 O 0.85357 0.75598 0.41533 0.0
O176 O 0.90448 0.70994 0.49944 0.0
C177 C 0.83192 0.68601 0.5569 0.0
O178 O 0.81924 0.69368 0.50973 0.0
C179 C 0.85828 0.68023 0.3979 0.0
O180 O 0.86846 0.66521 0.4367 0.0
O181 O 0.8573 0.74655 0.51466 0.0
C182 C 0.29305 0.93032 0.49643 0.0
O183 O 0.31414 0.91964 0.49496 0.0
O184 O 0.29748 0.87609 0.40095 0.0
Zn185 Zn 0.27841 0.88208 0.47854 0.0
O186 O 0.2961 0.86853 0.5523 0.0
C187 C 0.23584 0.86096 0.42119 0.0
O188 O 0.24566 0.86846 0.36959 0.0
O189 O 0.27419 0.91765 0.49009 0.0
C190 C 0.29006 0.84821 0.57443 0.0
O191 O 0.27267 0.83603 0.54788 0.0
C192 C 0.30178 0.85468 0.38369 0.0
O193 O 0.29408 0.83673 0.41778 0.0
O194 O 0.24612 0.86567 0.47207 0.0
C195 C 0.07478 0.2724 0.4487 0.0
O196 O 0.08611 0.26901 0.39628 0.0
O197 O 0.13388 0.29522 0.41904 0.0
Zn198 Zn 0.12305 0.27635 0.49362 0.0
O199 O 0.13627 0.29126 0.57195 0.0
C200 C 0.14536 0.23265 0.4431 0.0
O201 O 0.14624 0.24451 0.39081 0.0
O202 O 0.08699 0.27595 0.49735 0.0
C203 C 0.15467 0.28181 0.59711 0.0
O204 O 0.16507 0.26336 0.57034 0.0
C205 C 0.1557 0.30147 0.41194 0.0
O206 O 0.17148 0.29577 0.45456 0.0
O207 O 0.13529 0.24228 0.48948 0.0
H208 H 0.2248 0.53839 0.9641 0.0
H209 H 0.14754 0.54405 0.94903 0.0
H210 H 0.14373 0.50058 0.96112 0.0
H211 H 0.16229 0.46092 0.97483 0.0
H212 H 0.23955 0.45528 0.99022 0.0
H213 H 0.24332 0.49879 0.97935 0.0
C214 C 0.20711 0.53013 0.96345 0.0
C215 C 0.1865 0.54448 0.95551 0.0
C216 C 0.20502 0.50512 0.97055 0.0
C217 C 0.16373 0.53346 0.95501 0.0
C218 C 0.16151 0.50859 0.96193 0.0
C219 C 0.17996 0.46919 0.97596 0.0
C220 C 0.20059 0.45481 0.98322 0.0
C221 C 0.18204 0.49424 0.96959 0.0
C222 C 0.22335 0.46588 0.98466 0.0
C223 C 0.22554 0.49078 0.97838 0.0
H224 H 0.46521 0.22272 0.1255 0.0
H225 H 0.4665 0.245 0.93493 0.0
H226 H 0.5104 0.24567 0.93676 0.0
H227 H 0.54832 0.2373 0.9902 0.0
H228 H 0.54708 0.21462 0.18047 0.0
H229 H 0.50323 0.21699 0.18103 0.0
C230 C 0.47507 0.22789 0.08445 0.0
C231 C 0.46257 0.23356 0.02999 0.0
C232 C 0.50032 0.22811 0.08567 0.0
C233 C 0.47565 0.24043 0.97741 0.0
C234 C 0.50077 0.24078 0.97835 0.0
C235 C 0.5385 0.23308 0.03202 0.0
C236 C 0.55099 0.22557 0.08504 0.0
C237 C 0.51328 0.23426 0.0319 0.0
C238 C 0.53795 0.22034 0.1389 0.0
C239 C 0.51285 0.22163 0.13924 0.0
H240 H 0.7694 0.45848 0.97909 0.0
H241 H 0.84479 0.4568 0.02717 0.0
H242 H 0.84516 0.50047 0.03642 0.0
H243 H 0.82451 0.53918 0.02838 0.0
H244 H 0.74919 0.54121 0.98005 0.0
H245 H 0.7484 0.49734 0.97365 0.0
C246 C 0.7859 0.46765 0.99177 0.0
C247 C 0.80704 0.45435 0.00218 0.0
C248 C 0.78603 0.49284 0.99691 0.0
C249 C 0.82824 0.46655 0.01875 0.0
C250 C 0.8285 0.49156 0.02404 0.0
C251 C 0.80788 0.53006 0.01661 0.0
C252 C 0.78697 0.54348 0.00449 0.0
C253 C 0.80756 0.50488 0.01283 0.0
C254 C 0.76556 0.53133 0.98953 0.0
C255 C 0.76509 0.50624 0.98578 0.0
H256 H 0.53192 0.78378 0.94907 0.0
H257 H 0.53639 0.78472 0.14767 0.0
H258 H 0.49273 0.78135 0.15492 0.0
H259 H 0.45329 0.77817 0.10516 0.0
H260 H 0.44866 0.77766 0.90661 0.0
H261 H 0.49237 0.78082 0.89923 0.0
C262 C 0.52336 0.78323 0.99396 0.0
C263 C 0.53745 0.78448 0.04769 0.0
C264 C 0.49821 0.78136 0.99788 0.0
C265 C 0.52602 0.7838 0.10549 0.0
C266 C 0.50103 0.78186 0.10974 0.0
C267 C 0.46182 0.77872 0.06024 0.0
C268 C 0.44769 0.77764 0.00657 0.0
C269 C 0.48695 0.78063 0.05627 0.0
C270 C 0.45908 0.77846 0.94873 0.0
C271 C 0.48409 0.78026 0.94442 0.0
H272 H 0.6673 0.03497 0.53745 0.0
H273 H 0.74457 0.04286 0.5385 0.0
H274 H 0.74917 -0.00067 0.54969 0.0
H275 H 0.7311 0.95904 0.56072 0.0
H276 H 0.65374 0.95171 0.55813 0.0
H277 H 0.64939 0.99503 0.54617 0.0
C278 C 0.68518 0.02722 0.54001 0.0
C279 C 0.70555 0.04217 0.53734 0.0
C280 C 0.68769 0.00225 0.54637 0.0
C281 C 0.72857 0.03176 0.54042 0.0
C282 C 0.73122 0.00687 0.54695 0.0
C283 C 0.7133 0.96694 0.55761 0.0
C284 C 0.69279 0.95213 0.56051 0.0
C285 C 0.71089 0.99195 0.5503 0.0
C286 C 0.66985 0.96264 0.556 0.0
C287 C 0.66732 0.98745 0.54917 0.0
H288 H 0.95398 0.74595 0.40357 0.0
H289 H 0.94211 0.68778 0.53195 0.0
H290 H 0.98514 0.6796 0.53482 0.0
H291 H 0.02606 0.68862 0.50067 0.0
H292 H 0.03848 0.74712 0.37381 0.0
H293 H 0.9953 0.75546 0.37059 0.0
C294 C 0.96081 0.7315 0.43222 0.0
C295 C 0.94479 0.71749 0.46738 0.0
C296 C 0.98567 0.7269 0.43389 0.0
C297 C 0.95398 0.69889 0.50444 0.0
C298 C 0.97862 0.69414 0.50608 0.0
C299 C 0.01936 0.70318 0.47218 0.0
C300 C 0.03547 0.71716 0.43737 0.0
C301 C 0.9946 0.70798 0.47089 0.0
C302 C 0.02646 0.73607 0.40107 0.0
C303 C 0.00177 0.74085 0.39918 0.0
H304 H 0.26944 0.04063 0.53064 0.0
H305 H 0.34702 0.04451 0.53567 0.0
H306 H 0.34958 0.00103 0.52277 0.0
H307 H 0.32992 0.96197 0.50919 0.0
H308 H 0.25238 0.95789 0.5034 0.0
H309 H 0.24973 0.00139 0.51747 0.0
C310 C 0.28691 0.03197 0.52904 0.0
C311 C 0.308 0.04585 0.5341 0.0
C312 C 0.28828 0.00692 0.52139 0.0
C313 C 0.33049 0.03431 0.53184 0.0
C314 C 0.33199 0.00942 0.52445 0.0
C315 C 0.31242 0.97056 0.51104 0.0
C316 C 0.2914 0.95667 0.5052 0.0
C317 C 0.31102 0.99556 0.51902 0.0
C318 C 0.26887 0.96814 0.50771 0.0
C319 C 0.26733 0.99303 0.51577 0.0
H320 H 0.04627 0.27516 0.5503 0.0
H321 H 0.04349 0.26991 0.35196 0.0
H322 H -0.00039 0.27117 0.35521 0.0
H323 H 0.96212 0.27465 0.41402 0.0
H324 H 0.96485 0.27966 0.61241 0.0
H325 H 0.0087 0.2775 0.60935 0.0
C326 C 0.03609 0.27426 0.50775 0.0
C327 C 0.04818 0.27255 0.45096 0.0
C328 C 0.01086 0.27495 0.50992 0.0
C329 C 0.03467 0.27126 0.39632 0.0
C330 C 0.00956 0.272 0.3981 0.0
C331 C 0.97228 0.27521 0.45665 0.0
C332 C 0.96019 0.27741 0.51334 0.0
C333 C 0.99748 0.27397 0.4546 0.0
C334 C 0.97367 0.27799 0.56812 0.0
C335 C -0.00124 0.27679 0.56643 0.0
H336 H 0.28836 0.33644 0.11484 0.0
H337 H 0.27913 0.34433 0.91837 0.0
H338 H 0.31162 0.31571 0.90016 0.0
H339 H 0.34055 0.28614 0.93994 0.0
H340 H 0.34894 0.2776 0.13651 0.0
H341 H 0.31901 0.30884 0.15453 0.0
C342 C 0.29361 0.33212 0.06801 0.0
C343 C 0.28118 0.3424 0.01812 0.0
C344 C 0.31209 0.31538 0.05779 0.0
C345 C 0.2883 0.33662 0.95772 0.0
C346 C 0.30686 0.32019 0.9472 0.0
C347 C 0.33602 0.29128 0.98672 0.0
C348 C 0.34685 0.27937 0.03672 0.0
C349 C 0.31855 0.3091 0.99688 0.0
C350 C 0.34079 0.28632 0.09708 0.0
C351 C 0.32364 0.3042 0.10751 0.0
H352 H 0.74184 0.30841 0.86653 0.0
H353 H 0.7191 0.35037 0.02332 0.0
H354 H 0.68734 0.32104 0.04511 0.0
H355 H 0.66786 0.28189 0.02334 0.0
H356 H 0.69243 0.2399 0.86823 0.0
H357 H 0.72161 0.27085 0.84227 0.0
C358 C 0.72983 0.31134 0.90521 0.0
C359 C 0.73296 0.33149 0.9434 0.0
C360 C 0.71202 0.29425 0.91812 0.0
C361 C 0.71714 0.33496 0.9932 0.0
C362 C 0.69902 0.31815 0.00583 0.0
C363 C 0.67948 0.27965 0.98362 0.0
C364 C 0.67809 0.25851 0.94814 0.0
C365 C 0.69658 0.29748 0.96922 0.0
C366 C 0.69327 0.25585 0.89678 0.0
C367 C 0.70996 0.27358 0.88172 0.0
H368 H 0.7012 0.66106 0.12166 0.0
H369 H 0.70864 0.65685 0.92396 0.0
H370 H 0.67802 0.68788 0.91137 0.0
H371 H 0.65175 0.71863 0.9566 0.0
H372 H 0.64539 0.72373 0.15443 0.0
H373 H 0.6728 0.68983 0.16667 0.0
C374 C 0.69591 0.66668 0.07578 0.0
C375 C 0.70737 0.65678 0.02392 0.0
C376 C 0.67859 0.68485 0.06883 0.0
C377 C 0.70024 0.66428 0.96477 0.0
C378 C 0.68275 0.68207 0.95747 0.0
C379 C 0.65612 0.71216 0.00238 0.0
C380 C 0.64669 0.72387 0.05447 0.0
C381 C 0.67221 0.69287 0.0092 0.0
C382 C 0.65252 0.71518 0.11348 0.0
C383 C 0.66823 0.69579 0.12059 0.0
H384 H 0.28079 0.64379 0.01264 0.0
H385 H 0.28989 0.6484 0.81546 0.0
H386 H 0.32299 0.67673 0.82912 0.0
H387 H 0.34597 0.70375 0.8964 0.0
H388 H 0.33672 0.69934 0.09356 0.0
H389 H 0.30733 0.66713 0.08047 0.0
C390 C 0.29023 0.65073 0.97266 0.0
C391 C 0.2826 0.64429 0.91311 0.0
C392 C 0.30913 0.66718 0.98078 0.0
C393 C 0.29526 0.65317 0.86184 0.0
C394 C 0.31415 0.66946 0.86957 0.0
C395 C 0.3378 0.6955 0.93657 0.0
C396 C 0.34324 0.70423 0.99578 0.0
C397 C 0.32072 0.67715 0.92873 0.0
C398 C 0.33275 0.6931 0.04739 0.0
C399 C 0.31584 0.67474 0.03997 0.0
H400 H 0.84058 0.77686 0.58982 0.0
H401 H 0.83156 0.79588 0.39832 0.0
H402 H 0.8048 0.82876 0.42749 0.0
H403 H 0.78066 0.8492 0.50623 0.0
H404 H 0.78869 0.82927 0.69742 0.0
H405 H 0.81937 0.79986 0.66939 0.0
C406 C 0.83304 0.78837 0.55442 0.0
C407 C 0.83784 0.78367 0.49188 0.0
C408 C 0.81734 0.80701 0.57142 0.0
C409 C 0.82805 0.79894 0.44677 0.0
C410 C 0.81267 0.81773 0.46339 0.0
C411 C 0.78934 0.83869 0.54196 0.0
C412 C 0.78212 0.84125 0.60379 0.0
C413 C 0.80667 0.82149 0.52543 0.0
C414 C 0.79373 0.82757 0.64942 0.0
C415 C 0.81125 0.81067 0.63342 0.0
H416 H 0.21087 0.84341 0.51913 0.0
H417 H 0.21358 0.84163 0.32039 0.0
H418 H 0.18174 0.81139 0.31879 0.0
H419 H 0.15505 0.78353 0.37402 0.0
H420 H 0.15244 0.78534 0.57278 0.0
H421 H 0.18224 0.81757 0.57399 0.0
C422 C 0.20436 0.83659 0.47539 0.0
C423 C 0.21476 0.84466 0.41999 0.0
C424 C 0.18615 0.81908 0.47478 0.0
C425 C 0.20596 0.83572 0.36375 0.0
C426 C 0.18779 0.81835 0.36278 0.0
C427 C 0.16088 0.79107 0.41762 0.0
C428 C 0.15167 0.78186 0.47324 0.0
C429 C 0.17807 0.80959 0.41804 0.0
C430 C 0.15926 0.79201 0.52927 0.0
C431 C 0.17635 0.81043 0.53005 0.0
H432 H 0.22466 0.15235 0.45381 0.0
H433 H 0.19906 0.14794 0.64132 0.0
H434 H 0.16673 0.17609 0.61725 0.0
H435 H 0.14862 0.20521 0.54641 0.0
H436 H 0.1749 0.21054 0.35968 0.0
H437 H 0.20383 0.17846 0.3799 0.0
C438 C 0.21184 0.15729 0.48928 0.0
C439 C 0.21452 0.1483 0.54954 0.0
C440 C 0.19347 0.17374 0.47537 0.0
C441 C 0.19756 0.1547 0.59468 0.0
C442 C 0.17908 0.17086 0.58101 0.0
C443 C 0.16042 0.19914 0.50977 0.0
C444 C 0.1598 0.21053 0.45184 0.0
C445 C 0.1773 0.181 0.52201 0.0
C446 C 0.17507 0.20223 0.40481 0.0
C447 C 0.19171 0.18394 0.41641 0.0
H448 H 0.83484 0.21893 0.59117 0.0
H449 H 0.84912 0.22219 0.39579 0.0
H450 H 0.82021 0.18995 0.37777 0.0
H451 H 0.78903 0.16266 0.41645 0.0
H452 H 0.77399 0.16002 0.61149 0.0
H453 H 0.80515 0.19003 0.63052 0.0
C454 C 0.83182 0.21245 0.5447 0.0
C455 C 0.84404 0.22311 0.49493 0.0
C456 C 0.81493 0.19406 0.53448 0.0
C457 C 0.83989 0.21442 0.435 0.0
C458 C 0.82332 0.19598 0.42457 0.0
C459 C 0.79269 0.16847 0.46321 0.0
C460 C 0.77905 0.15919 0.51236 0.0
C461 C 0.81045 0.18595 0.47382 0.0
C462 C 0.78412 0.16692 0.57268 0.0
C463 C 0.80193 0.18413 0.58366 0.0
H464 H 0.12799 0.31452 0.31388 0.0
H465 H 0.2009 0.31687 0.38236 0.0
H466 H 0.21408 0.33658 0.28776 0.0
H467 H 0.20519 0.35224 0.18468 0.0
H468 H 0.1324 0.34963 0.11555 0.0
H469 H 0.11894 0.33102 0.21147 0.0
C470 C 0.14676 0.31941 0.30826 0.0
C471 C 0.16342 0.31415 0.35521 0.0
C472 C 0.15427 0.33068 0.25359 0.0
C473 C 0.18767 0.32065 0.34704 0.0
C474 C 0.19525 0.33193 0.2929 0.0
C475 C 0.18635 0.34771 0.19059 0.0
C476 C 0.16986 0.3523 0.14281 0.0
C477 C 0.17874 0.3369 0.24573 0.0
C478 C 0.14551 0.34629 0.15144 0.0
C479 C 0.13778 0.33561 0.2063 0.0
H480 H 0.70622 0.14575 0.33972 0.0
H481 H 0.63205 0.13384 0.39048 0.0
H482 H 0.61884 0.15163 0.29332 0.0
H483 H 0.62831 0.17152 0.19506 0.0
H484 H 0.70257 0.18327 0.14472 0.0
H485 H 0.7157 0.16454 0.24056 0.0
C486 C 0.68715 0.14697 0.32955 0.0
C487 C 0.67017 0.13853 0.37253 0.0
C488 C 0.67966 0.15724 0.27366 0.0
C489 C 0.64554 0.14019 0.35834 0.0
C490 C 0.63795 0.1504 0.30277 0.0
C491 C 0.64737 0.16992 0.20492 0.0
C492 C 0.6644 0.17888 0.16272 0.0
C493 C 0.65485 0.15913 0.26026 0.0
C494 C 0.68904 0.17658 0.17628 0.0
C495 C 0.69659 0.16588 0.23117 0.0
H496 H 0.83662 0.70651 0.30778 0.0
H497 H 0.85626 0.63386 0.35693 0.0
H498 H 0.83763 0.61884 0.26272 0.0
H499 H 0.81514 0.62619 0.16731 0.0
H500 H 0.79572 0.69885 0.11779 0.0
H501 H 0.81489 0.71394 0.21123 0.0
C502 C 0.8369 0.68739 0.29784 0.0
C503 C 0.84779 0.67135 0.3395 0.0
C504 C 0.82614 0.67884 0.24357 0.0
C505 C 0.84802 0.64664 0.32574 0.0
C506 C 0.83733 0.638 0.27188 0.0
C507 C 0.8151 0.64533 0.17691 0.0
C508 C 0.80394 0.66134 0.13565 0.0
C509 C 0.82622 0.65392 0.23065 0.0
C510 C 0.80417 0.6861 0.1487 0.0
C511 C 0.81512 0.69477 0.20218 0.0
H512 H 0.31122 0.81129 0.33173 0.0
H513 H 0.31986 0.88758 0.30194 0.0
H514 H 0.33875 0.87975 0.2023 0.0
H515 H 0.35199 0.85121 0.12241 0.0
H516 H 0.34277 0.77498 0.15284 0.0
H517 H 0.32499 0.78291 0.25329 0.0
C518 C 0.31731 0.82624 0.30363 0.0
C519 C 0.31407 0.84998 0.32434 0.0
C520 C 0.32802 0.82164 0.24629 0.0
C521 C 0.32209 0.86911 0.28717 0.0
C522 C 0.33288 0.86466 0.2301 0.0
C523 C 0.34616 0.83633 0.15108 0.0
C524 C 0.34868 0.81255 0.12985 0.0
C525 C 0.33581 0.84099 0.20899 0.0
C526 C 0.34101 0.79349 0.16775 0.0
C527 C 0.33082 0.79798 0.22534 0.0
H528 H 0.17968 0.67319 0.5617 0.0
H529 H 0.10517 0.68564 0.60817 0.0
H530 H 0.11148 0.66755 0.70928 0.0
H531 H 0.13838 0.64923 0.78577 0.0
H532 H 0.21294 0.63702 0.73937 0.0
H533 H 0.20629 0.65387 0.63707 0.0
C534 C 0.16478 0.67189 0.59382 0.0
C535 C 0.14202 0.68086 0.57733 0.0
C536 C 0.16853 0.66151 0.65205 0.0
C537 C 0.12292 0.67894 0.61959 0.0
C538 C 0.1265 0.6686 0.67752 0.0
C539 C 0.15316 0.65014 0.75322 0.0
C540 C 0.17613 0.64192 0.77044 0.0
C541 C 0.14926 0.65997 0.69442 0.0
C542 C 0.19506 0.64323 0.72752 0.0
C543 C 0.1913 0.65291 0.66893 0.0
H544 H 0.35842 0.14681 0.70365 0.0
H545 H 0.28265 0.14281 0.74642 0.0
H546 H 0.29023 0.16021 0.84781 0.0
H547 H 0.31822 0.17732 0.92362 0.0
H548 H 0.39392 0.18166 0.8802 0.0
H549 H 0.38645 0.16337 0.77988 0.0
C550 C 0.34355 0.14964 0.73518 0.0
C551 C 0.32 0.14351 0.71731 0.0
C552 C 0.348 0.15979 0.79333 0.0
C553 C 0.30097 0.14736 0.75885 0.0
C554 C 0.30527 0.15735 0.8169 0.0
C555 C 0.33311 0.17422 0.89232 0.0
C556 C 0.35659 0.1809 0.90952 0.0
C557 C 0.32869 0.16375 0.8345 0.0
C558 C 0.37565 0.17674 0.86825 0.0
C559 C 0.37141 0.16627 0.81079 0.0
H560 H 0.80211 0.36052 0.77201 0.0
H561 H 0.87505 0.36278 0.84025 0.0
H562 H 0.88948 0.34473 0.74458 0.0
H563 H 0.88118 0.32676 0.64339 0.0
H564 H 0.80814 0.32439 0.57581 0.0
H565 H 0.79401 0.34403 0.66953 0.0
C566 C 0.8212 0.35724 0.76589 0.0
C567 C 0.83745 0.36293 0.81341 0.0
C568 C 0.82936 0.3467 0.71102 0.0
C569 C 0.86213 0.35857 0.80451 0.0
C570 C 0.8704 0.34818 0.74985 0.0
C571 C 0.86217 0.3306 0.64905 0.0
C572 C 0.84574 0.32399 0.60272 0.0
C573 C 0.85414 0.3419 0.70312 0.0
C574 C 0.82119 0.32922 0.61073 0.0
C575 C 0.81308 0.34046 0.66435 0.0
H576 H 0.62171 0.82561 0.90523 0.0
H577 H 0.69325 0.82326 0.9825 0.0
H578 H 0.70971 0.84026 0.88777 0.0
H579 H 0.70395 0.85497 0.78208 0.0
H580 H 0.63239 0.85695 0.70476 0.0
H581 H 0.61587 0.84098 0.80044 0.0
C582 C 0.6409 0.82888 0.90149 0.0
C583 C 0.6562 0.82312 0.95093 0.0
C584 C 0.65028 0.83858 0.84679 0.0
C585 C 0.68103 0.82749 0.94518 0.0
C586 C 0.69048 0.83721 0.89098 0.0
C587 C 0.68473 0.85201 0.78621 0.0
C588 C 0.66947 0.85713 0.73619 0.0
C589 C 0.6753 0.8427 0.84136 0.0
C590 C 0.6446 0.85315 0.74242 0.0
C591 C 0.63509 0.84399 0.79716 0.0
H592 H 0.8512 0.6734 0.66741 0.0
H593 H 0.78615 0.66824 0.55948 0.0
H594 H 0.76582 0.6482 0.64494 0.0
H595 H 0.76587 0.63407 0.7519 0.0
H596 H 0.83052 0.64038 0.86096 0.0
H597 H 0.85167 0.65794 0.77322 0.0
C598 C 0.83263 0.66773 0.66235 0.0
C599 C 0.8202 0.67242 0.60721 0.0
C600 C 0.82094 0.65651 0.71194 0.0
C601 C 0.79613 0.66496 0.60152 0.0
C602 C 0.78447 0.65351 0.65037 0.0
C603 C 0.78464 0.6391 0.7564 0.0
C604 C 0.79655 0.63601 0.813 0.0
C605 C 0.7966 0.64948 0.70606 0.0
C606 C 0.82088 0.64266 0.81799 0.0
C607 C 0.833 0.65272 0.76785 0.0
H608 H 0.32746 0.86774 0.63916 0.0
H609 H 0.27926 0.80678 0.63528 0.0
H610 H 0.29811 0.79061 0.72766 0.0
H611 H 0.3282 0.79348 0.80915 0.0
H612 H 0.37708 0.85381 0.81345 0.0
H613 H 0.35794 0.87053 0.72143 0.0
C614 C 0.32109 0.85091 0.65851 0.0
C615 C 0.30196 0.83852 0.6302 0.0
C616 C 0.33207 0.84161 0.7118 0.0
C617 C 0.29396 0.81672 0.65592 0.0
C618 C 0.3047 0.80744 0.70889 0.0
C619 C 0.33466 0.81035 0.79021 0.0
C620 C 0.35403 0.82238 0.8183 0.0
C621 C 0.32375 0.81972 0.73717 0.0
C622 C 0.3622 0.84416 0.79279 0.0
C623 C 0.35127 0.85372 0.74013 0.0
H624 H 0.14236 0.32305 0.65815 0.0
H625 H 0.18813 0.26045 0.67002 0.0
H626 H 0.20397 0.27443 0.76816 0.0
H627 H 0.20552 0.30452 0.8497 0.0
H628 H 0.16122 0.36806 0.83778 0.0
H629 H 0.14402 0.35354 0.74083 0.0
C630 C 0.15576 0.31247 0.68231 0.0
C631 C 0.16405 0.29076 0.65664 0.0
C632 C 0.16504 0.32074 0.73878 0.0
C633 C 0.1815 0.2773 0.68844 0.0
C634 C 0.19055 0.28523 0.74474 0.0
C635 C 0.19198 0.31515 0.82621 0.0
C636 C 0.18462 0.3373 0.85103 0.0
C637 C 0.18252 0.30693 0.77021 0.0
C638 C 0.1672 0.35094 0.81962 0.0
C639 C 0.15739 0.34266 0.76416 0.0
H640 H 0.63901 0.15955 0.87121 0.0
H641 H 0.60537 0.22019 0.78163 0.0
H642 H 0.62114 0.20698 0.68247 0.0
H643 H 0.64759 0.18039 0.62277 0.0
H644 H 0.68119 0.11974 0.71229 0.0
H645 H 0.66221 0.13073 0.80959 0.0
C646 C 0.63483 0.1697 0.82989 0.0
C647 C 0.62126 0.19098 0.83408 0.0
C648 C 0.64416 0.16215 0.77297 0.0
C649 C 0.61587 0.2038 0.77993 0.0
C650 C 0.62498 0.19633 0.72312 0.0
C651 C 0.6506 0.16946 0.66344 0.0
C652 C 0.66605 0.14948 0.66038 0.0
C653 C 0.63966 0.17589 0.71937 0.0
C654 C 0.6695 0.13531 0.71335 0.0
C655 C 0.65869 0.1416 0.76913 0.0
H656 H 0.86961 0.27894 0.22378 0.0
H657 H 0.86355 0.34391 0.33162 0.0
H658 H 0.84583 0.36478 0.24371 0.0
H659 H 0.83026 0.36402 0.13802 0.0
H660 H 0.83541 0.29873 0.03115 0.0
H661 H 0.85539 0.27861 0.11694 0.0
C662 C 0.86459 0.29772 0.22799 0.0
C663 C 0.86782 0.3098 0.2843 0.0
C664 C 0.85415 0.30954 0.17753 0.0
C665 C 0.86119 0.33414 0.28888 0.0
C666 C 0.85103 0.34609 0.23865 0.0
C667 C 0.83588 0.34543 0.1333 0.0
C668 C 0.83122 0.33287 0.07834 0.0
C669 C 0.84714 0.33388 0.18302 0.0
C670 C 0.83867 0.3088 0.07303 0.0
C671 C 0.85009 0.29726 0.12208 0.0
H672 H 0.64073 0.77843 0.32205 0.0
H673 H 0.63607 0.84683 0.22862 0.0
H674 H 0.65559 0.86657 0.31582 0.0
H675 H 0.67514 0.86417 0.41696 0.0
H676 H 0.68084 0.7955 0.50881 0.0
H677 H 0.65969 0.77613 0.42373 0.0
C678 C 0.64382 0.79769 0.32087 0.0
C679 C 0.63696 0.81113 0.26889 0.0
C680 C 0.65532 0.80886 0.37075 0.0
C681 C 0.64122 0.83605 0.26803 0.0
C682 C 0.65239 0.84736 0.31785 0.0
C683 C 0.67166 0.84498 0.41854 0.0
C684 C 0.67961 0.8313 0.46914 0.0
C685 C 0.65971 0.8339 0.3692 0.0
C686 C 0.67499 0.80645 0.47035 0.0
C687 C 0.66289 0.79534 0.42172 0.0
H688 H 0.14052 0.72618 0.18844 0.0
H689 H 0.13439 0.6602 0.29218 0.0
H690 H 0.15209 0.63782 0.20663 0.0
H691 H 0.17071 0.63723 0.1039 0.0
H692 H 0.17776 0.70349 0.00171 0.0
H693 H 0.1582 0.72546 0.08509 0.0
C694 C 0.14291 0.70688 0.19231 0.0
C695 C 0.13617 0.69492 0.24677 0.0
C696 C 0.15333 0.69416 0.14324 0.0
C697 C 0.13947 0.6699 0.25089 0.0
C698 C 0.1496 0.65707 0.20198 0.0
C699 C 0.16782 0.65645 0.09966 0.0
C700 C 0.17576 0.66869 0.04665 0.0
C701 C 0.1568 0.66905 0.14815 0.0
C702 C 0.17193 0.69361 0.04205 0.0
C703 C 0.16074 0.70621 0.08974 0.0
H704 H 0.32874 0.13604 0.38421 0.0
H705 H 0.32968 0.20184 0.48978 0.0
H706 H 0.35117 0.22216 0.40668 0.0
H707 H 0.36773 0.22188 0.30217 0.0
H708 H 0.36547 0.15661 0.19466 0.0
H709 H 0.34654 0.13543 0.28061 0.0
C710 C 0.33383 0.15477 0.38929 0.0
C711 C 0.32753 0.16742 0.44305 0.0
C712 C 0.34585 0.16647 0.34089 0.0
C713 C 0.3342 0.1917 0.44877 0.0
C714 C 0.34648 0.20335 0.40126 0.0
C715 C 0.36328 0.20297 0.29761 0.0
C716 C 0.36794 0.19088 0.24197 0.0
C717 C 0.35209 0.19101 0.3468 0.0
C718 C 0.362 0.16638 0.2369 0.0
C719 C 0.35116 0.15425 0.28602 0.0
loop_
_geom_bond_atom_site_label_1
_geom_bond_atom_site_label_2
_geom_bond_distance
_geom_bond_site_symmetry_2
_ccdc_geom_bond_type
C0 O1 1.160 . S
C0 O7 1.185 1_554 S
O1 C0 1.160 . S
O2 Zn3 1.899 . S
O2 C10 1.284 . S
Zn3 O2 1.899 . S
Zn3 O4 2.032 1_554 S
Zn3 O7 2.086 1_554 S
Zn3 O12 1.977 1_554 S
O4 Zn3 2.032 1_556 S
O4 C8 1.278 . S
C5 O6 1.203 . S
C5 O12 1.267 1_554 S
O6 C5 1.203 . S
O7 C0 1.185 1_556 S
O7 Zn3 2.086 1_556 S
C8 O4 1.278 . S
C8 O9 1.211 . S
O9 C8 1.211 . S
C10 O2 1.284 . S
C10 O11 1.273 . S
O11 C10 1.273 . S
O12 Zn3 1.977 1_556 S
O12 C5 1.267 1_556 S
C13 O14 1.160 . S
C13 O20 1.185 1_554 S
O14 C13 1.160 . S
O15 Zn16 1.899 . S
O15 C23 1.284 . S
Zn16 O15 1.899 . S
Zn16 O17 2.032 1_554 S
Zn16 O20 2.086 1_554 S
Zn16 O25 1.977 1_554 S
O17 Zn16 2.032 1_556 S
O17 C21 1.278 . S
C18 O19 1.203 . S
C18 O25 1.267 1_554 S
O19 C18 1.203 . S
O20 C13 1.185 1_556 S
O20 Zn16 2.086 1_556 S
C21 O17 1.278 . S
C21 O22 1.211 . S
O22 C21 1.211 . S
C23 O15 1.284 . S
C23 O24 1.273 . S
O24 C23 1.273 . S
O25 Zn16 1.977 1_556 S
O25 C18 1.267 1_556 S
C26 O27 1.160 . S
C26 O33 1.185 1_554 S
O27 C26 1.160 . S
O28 Zn29 1.899 . S
O28 C36 1.284 . S
Zn29 O28 1.899 . S
Zn29 O30 2.032 1_554 S
Zn29 O33 2.086 1_554 S
Zn29 O38 1.977 1_554 S
O30 Zn29 2.032 1_556 S
O30 C34 1.278 . S
C31 O32 1.203 . S
C31 O38 1.267 1_554 S
O32 C31 1.203 . S
O33 C26 1.185 1_556 S
O33 Zn29 2.086 1_556 S
C34 O30 1.278 . S
C34 O35 1.211 . S
O35 C34 1.211 . S
C36 O28 1.284 . S
C36 O37 1.273 . S
O37 C36 1.273 . S
O38 Zn29 1.977 1_556 S
O38 C31 1.267 1_556 S
C39 O40 1.160 . S
C39 O46 1.185 1_554 S
O40 C39 1.160 . S
O41 Zn42 1.899 . S
O41 C49 1.284 . S
Zn42 O41 1.899 . S
Zn42 O43 2.032 1_554 S
Zn42 O46 2.086 1_554 S
Zn42 O51 1.977 1_554 S
O43 Zn42 2.032 1_556 S
O43 C47 1.278 . S
C44 O45 1.203 . S
C44 O51 1.267 1_554 S
O45 C44 1.203 . S
O46 C39 1.185 1_556 S
O46 Zn42 2.086 1_556 S
C47 O43 1.278 . S
C47 O48 1.211 . S
O48 C47 1.211 . S
C49 O41 1.284 . S
C49 O50 1.273 . S
O50 C49 1.273 . S
O51 Zn42 1.977 1_556 S
O51 C44 1.267 1_556 S
C52 O53 1.160 . S
C52 O59 1.185 1_556 S
O53 C52 1.160 . S
O54 Zn55 1.899 . S
O54 C62 1.284 . S
Zn55 O54 1.899 . S
Zn55 O56 2.032 1_556 S
Zn55 O59 2.086 1_556 S
Zn55 O64 1.977 1_556 S
O56 Zn55 2.032 1_554 S
O56 C60 1.278 . S
C57 O58 1.203 . S
C57 O64 1.267 1_556 S
O58 C57 1.203 . S
O59 C52 1.185 1_554 S
O59 Zn55 2.086 1_554 S
C60 O56 1.278 . S
C60 O61 1.211 . S
O61 C60 1.211 . S
C62 O54 1.284 . S
C62 O63 1.273 . S
O63 C62 1.273 . S
O64 Zn55 1.977 1_554 S
O64 C57 1.267 1_554 S
C65 O66 1.160 . S
C65 O72 1.185 1_556 S
O66 C65 1.160 . S
O67 Zn68 1.899 . S
O67 C75 1.284 . S
Zn68 O67 1.899 . S
Zn68 O69 2.032 1_556 S
Zn68 O72 2.086 1_556 S
Zn68 O77 1.977 1_556 S
O69 Zn68 2.032 1_554 S
O69 C73 1.278 . S
C70 O71 1.203 . S
C70 O77 1.267 1_556 S
O71 C70 1.203 . S
O72 C65 1.185 1_554 S
O72 Zn68 2.086 1_554 S
C73 O69 1.278 . S
C73 O74 1.211 . S
O74 C73 1.211 . S
C75 O67 1.284 . S
C75 O76 1.273 . S
O76 C75 1.273 . S
O77 Zn68 1.977 1_554 S
O77 C70 1.267 1_554 S
C78 O79 1.160 . S
C78 O85 1.185 1_556 S
O79 C78 1.160 . S
O80 Zn81 1.899 . S
O80 C88 1.284 . S
Zn81 O80 1.899 . S
Zn81 O82 2.032 1_556 S
Zn81 O85 2.086 1_556 S
Zn81 O90 1.977 1_556 S
O82 Zn81 2.032 1_554 S
O82 C86 1.278 . S
C83 O84 1.203 . S
C83 O90 1.267 1_556 S
O84 C83 1.203 . S
O85 C78 1.185 1_554 S
O85 Zn81 2.086 1_554 S
C86 O82 1.278 . S
C86 O87 1.211 . S
O87 C86 1.211 . S
C88 O80 1.284 . S
C88 O89 1.273 . S
O89 C88 1.273 . S
O90 Zn81 1.977 1_554 S
O90 C83 1.267 1_554 S
C91 O92 1.160 . S
C91 O98 1.185 1_556 S
O92 C91 1.160 . S
O93 Zn94 1.899 . S
O93 C101 1.284 . S
Zn94 O93 1.899 . S
Zn94 O95 2.032 1_556 S
Zn94 O98 2.086 1_556 S
Zn94 O103 1.977 1_556 S
O95 Zn94 2.032 1_554 S
O95 C99 1.278 . S
C96 O97 1.203 . S
C96 O103 1.267 1_556 S
O97 C96 1.203 . S
O98 C91 1.185 1_554 S
O98 Zn94 2.086 1_554 S
C99 O95 1.278 . S
C99 O100 1.211 . S
O100 C99 1.211 . S
C101 O93 1.284 . S
C101 O102 1.273 . S
O102 C101 1.273 . S
O103 Zn94 1.977 1_554 S
O103 C96 1.267 1_554 S
C104 O105 1.160 . S
C104 O111 1.185 . S
O105 C104 1.160 . S
O106 Zn107 1.899 . S
O106 C114 1.284 . S
Zn107 O106 1.899 . S
Zn107 O108 2.032 . S
Zn107 O111 2.086 . S
Zn107 O116 1.977 . S
O108 Zn107 2.032 . S
O108 C112 1.278 . S
C109 O110 1.203 . S
C109 O116 1.267 . S
O110 C109 1.203 . S
O111 C104 1.185 . S
O111 Zn107 2.086 . S
C112 O108 1.278 . S
C112 O113 1.211 . S
O113 C112 1.211 . S
C114 O106 1.284 . S
C114 O115 1.273 . S
O115 C114 1.273 . S
O116 Zn107 1.977 . S
O116 C109 1.267 . S
C117 O118 1.160 . S
C117 O124 1.185 . S
O118 C117 1.160 . S
O119 Zn120 1.899 . S
O119 C127 1.284 . S
Zn120 O119 1.899 . S
Zn120 O121 2.032 . S
Zn120 O124 2.086 . S
Zn120 O129 1.977 . S
O121 Zn120 2.032 . S
O121 C125 1.278 . S
C122 O123 1.203 . S
C122 O129 1.267 . S
O123 C122 1.203 . S
O124 C117 1.185 . S
O124 Zn120 2.086 . S
C125 O121 1.278 . S
C125 O126 1.211 . S
O126 C125 1.211 . S
C127 O119 1.284 . S
C127 O128 1.273 . S
O128 C127 1.273 . S
O129 Zn120 1.977 . S
O129 C122 1.267 . S
C130 O131 1.160 . S
C130 O137 1.185 . S
O131 C130 1.160 . S
O132 Zn133 1.899 . S
O132 C140 1.284 . S
Zn133 O132 1.899 . S
Zn133 O134 2.032 . S
Zn133 O137 2.086 . S
Zn133 O142 1.977 . S
O134 Zn133 2.032 . S
O134 C138 1.278 . S
C135 O136 1.203 . S
C135 O142 1.267 . S
O136 C135 1.203 . S
O137 C130 1.185 . S
O137 Zn133 2.086 . S
C138 O134 1.278 . S
C138 O139 1.211 . S
O139 C138 1.211 . S
C140 O132 1.284 . S
C140 O141 1.273 . S
O141 C140 1.273 . S
O142 Zn133 1.977 . S
O142 C135 1.267 . S
C143 O144 1.160 . S
C143 O150 1.185 . S
O144 C143 1.160 . S
O145 Zn146 1.899 . S
O145 C153 1.284 . S
Zn146 O145 1.899 . S
Zn146 O147 2.032 . S
Zn146 O150 2.086 . S
Zn146 O155 1.977 . S
O147 Zn146 2.032 . S
O147 C151 1.278 . S
C148 O149 1.203 . S
C148 O155 1.267 . S
O149 C148 1.203 . S
O150 C143 1.185 . S
O150 Zn146 2.086 . S
C151 O147 1.278 . S
C151 O152 1.211 . S
O152 C151 1.211 . S
C153 O145 1.284 . S
C153 O154 1.273 . S
O154 C153 1.273 . S
O155 Zn146 1.977 . S
O155 C148 1.267 . S
C156 O157 1.160 . S
C156 O163 1.185 . S
O157 C156 1.160 . S
O158 Zn159 1.899 . S
O158 C166 1.284 . S
Zn159 O158 1.899 . S
Zn159 O160 2.032 . S
Zn159 O163 2.086 . S
Zn159 O168 1.977 . S
O160 Zn159 2.032 . S
O160 C164 1.278 . S
C161 O162 1.203 . S
C161 O168 1.267 . S
O162 C161 1.203 . S
O163 C156 1.185 . S
O163 Zn159 2.086 . S
C164 O160 1.278 . S
C164 O165 1.211 . S
O165 C164 1.211 . S
C166 O158 1.284 . S
C166 O167 1.273 . S
O167 C166 1.273 . S
O168 Zn159 1.977 . S
O168 C161 1.267 . S
C169 O170 1.160 . S
C169 O176 1.185 . S
O170 C169 1.160 . S
O171 Zn172 1.899 . S
O171 C179 1.284 . S
Zn172 O171 1.899 . S
Zn172 O173 2.032 . S
Zn172 O176 2.086 . S
Zn172 O181 1.977 . S
O173 Zn172 2.032 . S
O173 C177 1.278 . S
C174 O175 1.203 . S
C174 O181 1.267 . S
O175 C174 1.203 . S
O176 C169 1.185 . S
O176 Zn172 2.086 . S
C177 O173 1.278 . S
C177 O178 1.211 . S
O178 C177 1.211 . S
C179 O171 1.284 . S
C179 O180 1.273 . S
O180 C179 1.273 . S
O181 Zn172 1.977 . S
O181 C174 1.267 . S
C182 O183 1.160 . S
C182 O189 1.185 . S
O183 C182 1.160 . S
O184 Zn185 1.899 . S
O184 C192 1.284 . S
Zn185 O184 1.899 . S
Zn185 O186 2.032 . S
Zn185 O189 2.086 . S
Zn185 O194 1.977 . S
O186 Zn185 2.032 . S
O186 C190 1.278 . S
C187 O188 1.203 . S
C187 O194 1.267 . S
O188 C187 1.203 . S
O189 C182 1.185 . S
O189 Zn185 2.086 . S
C190 O186 1.278 . S
C190 O191 1.211 . S
O191 C190 1.211 . S
C192 O184 1.284 . S
C192 O193 1.273 . S
O193 C192 1.273 . S
O194 Zn185 1.977 . S
O194 C187 1.267 . S
C195 O196 1.160 . S
C195 O202 1.185 . S
O196 C195 1.160 . S
O197 Zn198 1.899 . S
O197 C205 1.284 . S
Zn198 O197 1.899 . S
Zn198 O199 2.032 . S
Zn198 O202 2.086 . S
Zn198 O207 1.977 . S
O199 Zn198 2.032 . S
O199 C203 1.278 . S
C200 O201 1.203 . S
C200 O207 1.267 . S
O201 C200 1.203 . S
O202 C195 1.185 . S
O202 Zn198 2.086 . S
C203 O199 1.278 . S
C203 O204 1.211 . S
O204 C203 1.211 . S
C205 O197 1.284 . S
C205 O206 1.273 . S
O206 C205 1.273 . S
O207 Zn198 1.977 . S
O207 C200 1.267 . S
H208 C214 0.930 . S
H209 C217 0.930 . S
H210 C218 0.930 . S
H211 C219 0.930 . S
H212 C222 0.930 . S
H213 C223 0.930 . S
C214 H208 0.930 . S
C214 C215 1.355 . S
C214 C216 1.415 . S
C215 C214 1.355 . S
C215 C217 1.419 1_554 S
C216 C214 1.415 . S
C216 C221 1.425 1_554 S
C216 C223 1.409 . S
C217 H209 0.930 . S
C217 C215 1.419 1_556 S
C217 C218 1.362 . S
C218 H210 0.930 . S
C218 C217 1.362 . S
C218 C221 1.409 . S
C219 H211 0.930 . S
C219 C220 1.355 1_556 S
C219 C221 1.415 . S
C220 C219 1.355 1_554 S
C220 C222 1.419 . S
C221 C216 1.425 1_556 S
C221 C218 1.409 . S
C221 C219 1.415 . S
C222 H212 0.930 . S
C222 C220 1.419 . S
C222 C223 1.362 . S
C223 H213 0.930 . S
C223 C216 1.409 . S
C223 C222 1.362 . S
H224 C230 0.930 . S
H225 C233 0.930 . S
H226 C234 0.930 . S
H227 C235 0.930 . S
H228 C238 0.930 . S
H229 C239 0.930 . S
C230 H224 0.930 . S
C230 C231 1.364 . S
C230 C232 1.415 . S
C231 C230 1.364 . S
C231 C233 1.406 1_554 S
C232 C230 1.415 . S
C232 C237 1.425 1_554 S
C232 C239 1.409 . S
C233 H225 0.930 . S
C233 C231 1.406 1_556 S
C233 C234 1.362 . S
C234 H226 0.930 . S
C234 C233 1.362 . S
C234 C237 1.409 . S
C235 H227 0.930 . S
C235 C236 1.355 1_556 S
C235 C237 1.415 . S
C236 C235 1.355 1_554 S
C236 C238 1.419 . S
C237 C232 1.425 1_556 S
C237 C234 1.409 . S
C237 C235 1.415 . S
C238 H228 0.930 . S
C238 C236 1.419 . S
C238 C239 1.362 . S
C239 H229 0.930 . S
C239 C232 1.409 . S
C239 C238 1.362 . S
H240 C246 0.930 . S
H241 C249 0.930 . S
H242 C250 0.930 . S
H243 C251 0.930 . S
H244 C254 0.930 . S
H245 C255 0.930 . S
C246 H240 0.930 . S
C246 C247 1.355 1_556 S
C246 C248 1.415 . S
C247 C246 1.355 1_554 S
C247 C249 1.419 . S
C248 C246 1.415 . S
C248 C253 1.425 1_556 S
C248 C255 1.409 . S
C249 H241 0.930 . S
C249 C247 1.419 . S
C249 C250 1.362 . S
C250 H242 0.930 . S
C250 C249 1.362 . S
C250 C253 1.409 . S
C251 H243 0.930 . S
C251 C252 1.355 1_554 S
C251 C253 1.415 . S
C252 C251 1.355 1_556 S
C252 C254 1.419 . S
C253 C248 1.425 1_554 S
C253 C250 1.409 . S
C253 C251 1.415 . S
C254 H244 0.930 . S
C254 C252 1.419 . S
C254 C255 1.362 . S
C255 H245 0.930 . S
C255 C248 1.409 . S
C255 C254 1.362 . S
H256 C262 0.930 . S
H257 C265 0.930 . S
H258 C266 0.930 . S
H259 C267 0.930 . S
H260 C270 0.930 . S
H261 C271 0.930 . S
C262 H256 0.930 . S
C262 C263 1.355 1_556 S
C262 C264 1.415 . S
C263 C262 1.355 1_554 S
C263 C265 1.419 . S
C264 C262 1.415 . S
C264 C269 1.425 1_556 S
C264 C271 1.409 . S
C265 H257 0.930 . S
C265 C263 1.419 . S
C265 C266 1.362 . S
C266 H258 0.930 . S
C266 C265 1.362 . S
C266 C269 1.409 . S
C267 H259 0.930 . S
C267 C268 1.355 1_554 S
C267 C269 1.415 . S
C268 C267 1.355 1_556 S
C268 C270 1.419 . S
C269 C264 1.425 1_554 S
C269 C266 1.409 . S
C269 C267 1.415 . S
C270 H260 0.930 . S
C270 C268 1.419 . S
C270 C271 1.362 . S
C271 H261 0.930 . S
C271 C264 1.409 . S
C271 C270 1.362 . S
H272 C278 0.930 . S
H273 C281 0.930 . S
H274 C282 0.930 . S
H275 C283 0.930 . S
H276 C286 0.930 . S
H277 C287 0.930 . S
C278 H272 0.930 . S
C278 C279 1.355 . S
C278 C280 1.415 . S
C279 C278 1.355 . S
C279 C281 1.419 . S
C280 C278 1.415 . S
C280 C285 1.425 1_545 S
C280 C287 1.409 1_545 S
C281 H273 0.930 . S
C281 C279 1.419 . S
C281 C282 1.362 . S
C282 H274 0.930 . S
C282 C281 1.362 . S
C282 C285 1.409 1_545 S
C283 H275 0.930 . S
C283 C284 1.355 . S
C283 C285 1.415 . S
C284 C283 1.355 . S
C284 C286 1.419 . S
C285 C280 1.425 1_565 S
C285 C282 1.409 1_565 S
C285 C283 1.415 . S
C286 H276 0.930 . S
C286 C284 1.419 . S
C286 C287 1.362 . S
C287 H277 0.930 . S
C287 C280 1.409 1_565 S
C287 C286 1.362 . S
H288 C294 0.930 . S
H289 C297 0.930 . S
H290 C298 0.930 . S
H291 C299 0.930 . S
H292 C302 0.930 . S
H293 C303 0.930 . S
C294 H288 0.930 . S
C294 C295 1.355 . S
C294 C296 1.415 . S
C295 C294 1.355 . S
C295 C297 1.419 . S
C296 C294 1.415 . S
C296 C301 1.425 1_655 S
C296 C303 1.409 1_655 S
C297 H289 0.930 . S
C297 C295 1.419 . S
C297 C298 1.362 . S
C298 H290 0.930 . S
C298 C297 1.362 . S
C298 C301 1.409 1_655 S
C299 H291 0.930 . S
C299 C300 1.355 . S
C299 C301 1.415 . S
C300 C299 1.355 . S
C300 C302 1.419 . S
C301 C296 1.425 1_455 S
C301 C298 1.409 1_455 S
C301 C299 1.415 . S
C302 H292 0.930 . S
C302 C300 1.419 . S
C302 C303 1.362 . S
C303 H293 0.930 . S
C303 C296 1.409 1_455 S
C303 C302 1.362 . S
H304 C310 0.930 . S
H305 C313 0.930 . S
H306 C314 0.930 . S
H307 C315 0.930 . S
H308 C318 0.930 . S
H309 C319 0.930 . S
C310 H304 0.930 . S
C310 C311 1.355 . S
C310 C312 1.415 . S
C311 C310 1.355 . S
C311 C313 1.419 . S
C312 C310 1.415 . S
C312 C317 1.425 1_545 S
C312 C319 1.409 1_545 S
C313 H305 0.930 . S
C313 C311 1.419 . S
C313 C314 1.362 . S
C314 H306 0.930 . S
C314 C313 1.362 . S
C314 C317 1.409 1_545 S
C315 H307 0.930 . S
C315 C316 1.355 . S
C315 C317 1.415 . S
C316 C315 1.355 . S
C316 C318 1.419 . S
C317 C312 1.425 1_565 S
C317 C314 1.409 1_565 S
C317 C315 1.415 . S
C318 H308 0.930 . S
C318 C316 1.419 . S
C318 C319 1.362 . S
C319 H309 0.930 . S
C319 C312 1.409 1_565 S
C319 C318 1.362 . S
H320 C326 0.930 . S
H321 C329 0.930 . S
H322 C330 0.930 . S
H323 C331 0.930 . S
H324 C334 0.930 . S
H325 C335 0.930 . S
C326 H320 0.930 . S
C326 C327 1.355 . S
C326 C328 1.415 . S
C327 C326 1.355 . S
C327 C329 1.419 . S
C328 C326 1.415 . S
C328 C333 1.425 1_455 S
C328 C335 1.409 1_455 S
C329 H321 0.930 . S
C329 C327 1.419 . S
C329 C330 1.362 . S
C330 H322 0.930 . S
C330 C329 1.362 . S
C330 C333 1.409 1_455 S
C331 H323 0.930 . S
C331 C332 1.355 . S
C331 C333 1.415 . S
C332 C331 1.355 . S
C332 C334 1.419 . S
C333 C328 1.425 1_655 S
C333 C330 1.409 1_655 S
C333 C331 1.415 . S
C334 H324 0.930 . S
C334 C332 1.419 . S
C334 C335 1.362 . S
C335 H325 0.930 . S
C335 C328 1.409 1_655 S
C335 C334 1.362 . S
H336 C342 0.930 . S
H337 C345 0.930 . S
H338 C346 0.930 . S
H339 C347 0.930 . S
H340 C350 0.930 . S
H341 C351 0.930 . S
C342 H336 0.930 . S
C342 C343 1.356 . S
C342 C344 1.415 . S
C343 C342 1.356 . S
C343 C345 1.417 1_554 S
C344 C342 1.415 . S
C344 C349 1.425 1_554 S
C344 C351 1.409 . S
C345 H337 0.930 . S
C345 C343 1.417 1_556 S
C345 C346 1.362 . S
C346 H338 0.930 . S
C346 C345 1.362 . S
C346 C349 1.409 . S
C347 H339 0.930 . S
C347 C348 1.355 1_556 S
C347 C349 1.415 . S
C348 C347 1.355 1_554 S
C348 C350 1.419 . S
C349 C344 1.425 1_556 S
C349 C346 1.409 . S
C349 C347 1.415 . S
C350 H340 0.930 . S
C350 C348 1.419 . S
C350 C351 1.362 . S
C351 H341 0.930 . S
C351 C344 1.409 . S
C351 C350 1.362 . S
H352 C358 0.930 . S
H353 C361 0.930 . S
H354 C362 0.930 . S
H355 C363 0.930 . S
H356 C366 0.930 . S
H357 C367 0.930 . S
C358 H352 0.930 . S
C358 C359 1.355 1_554 S
C358 C360 1.415 . S
C359 C358 1.355 1_556 S
C359 C361 1.419 . S
C360 C358 1.415 . S
C360 C365 1.425 1_554 S
C360 C367 1.409 . S
C361 H353 0.930 . S
C361 C359 1.419 . S
C361 C362 1.362 . S
C362 H354 0.930 . S
C362 C361 1.362 . S
C362 C365 1.409 . S
C363 H355 0.930 . S
C363 C364 1.355 1_556 S
C363 C365 1.415 . S
C364 C363 1.355 1_554 S
C364 C366 1.419 . S
C365 C360 1.425 1_556 S
C365 C362 1.409 . S
C365 C363 1.415 . S
C366 H356 0.930 . S
C366 C364 1.419 . S
C366 C367 1.362 . S
C367 H357 0.930 . S
C367 C360 1.409 . S
C367 C366 1.362 . S
H368 C374 0.930 . S
H369 C377 0.930 . S
H370 C378 0.930 . S
H371 C379 0.930 . S
H372 C382 0.930 . S
H373 C383 0.930 . S
C374 H368 0.930 . S
C374 C375 1.355 1_554 S
C374 C376 1.415 . S
C375 C374 1.355 1_556 S
C375 C377 1.419 . S
C376 C374 1.415 . S
C376 C381 1.425 1_554 S
C376 C383 1.409 . S
C377 H369 0.930 . S
C377 C375 1.419 . S
C377 C378 1.362 . S
C378 H370 0.930 . S
C378 C377 1.362 . S
C378 C381 1.409 . S
C379 H371 0.930 . S
C379 C380 1.355 1_556 S
C379 C381 1.415 . S
C380 C379 1.355 1_554 S
C380 C382 1.419 . S
C381 C376 1.425 1_556 S
C381 C378 1.409 . S
C381 C379 1.415 . S
C382 H372 0.930 . S
C382 C380 1.419 . S
C382 C383 1.362 . S
C383 H373 0.930 . S
C383 C376 1.409 . S
C383 C382 1.362 . S
H384 C390 0.930 . S
H385 C393 0.930 . S
H386 C394 0.930 . S
H387 C395 0.930 . S
H388 C398 0.930 . S
H389 C399 0.930 . S
C390 H384 0.930 . S
C390 C391 1.355 1_554 S
C390 C392 1.415 . S
C391 C390 1.355 1_556 S
C391 C393 1.419 . S
C392 C390 1.415 . S
C392 C397 1.425 1_554 S
C392 C399 1.409 . S
C393 H385 0.930 . S
C393 C391 1.419 . S
C393 C394 1.362 . S
C394 H386 0.930 . S
C394 C393 1.362 . S
C394 C397 1.409 . S
C395 H387 0.930 . S
C395 C396 1.355 1_556 S
C395 C397 1.415 . S
C396 C395 1.355 1_554 S
C396 C398 1.419 . S
C397 C392 1.425 1_556 S
C397 C394 1.409 . S
C397 C395 1.415 . S
C398 H388 0.930 . S
C398 C396 1.419 . S
C398 C399 1.362 . S
C399 H389 0.930 . S
C399 C392 1.409 . S
C399 C398 1.362 . S
H400 C406 0.930 . S
H401 C409 0.930 . S
H402 C410 0.930 . S
H403 C411 0.930 . S
H404 C414 0.930 . S
H405 C415 0.930 . S
C406 H400 0.930 . S
C406 C407 1.355 . S
C406 C408 1.415 . S
C407 C406 1.355 . S
C407 C409 1.419 . S
C408 C406 1.415 . S
C408 C413 1.425 . S
C408 C415 1.409 . S
C409 H401 0.930 . S
C409 C407 1.419 . S
C409 C410 1.362 . S
C410 H402 0.930 . S
C410 C409 1.362 . S
C410 C413 1.409 . S
C411 H403 0.930 . S
C411 C412 1.355 . S
C411 C413 1.415 . S
C412 C411 1.355 . S
C412 C414 1.419 . S
C413 C408 1.425 . S
C413 C410 1.409 . S
C413 C411 1.415 . S
C414 H404 0.930 . S
C414 C412 1.419 . S
C414 C415 1.362 . S
C415 H405 0.930 . S
C415 C408 1.409 . S
C415 C414 1.362 . S
H416 C422 0.930 . S
H417 C425 0.930 . S
H418 C426 0.930 . S
H419 C427 0.930 . S
H420 C430 0.930 . S
H421 C431 0.930 . S
C422 H416 0.930 . S
C422 C423 1.355 . S
C422 C424 1.415 . S
C423 C422 1.355 . S
C423 C425 1.419 . S
C424 C422 1.415 . S
C424 C429 1.425 . S
C424 C431 1.409 . S
C425 H417 0.930 . S
C425 C423 1.419 . S
C425 C426 1.362 . S
C426 H418 0.930 . S
C426 C425 1.362 . S
C426 C429 1.409 . S
C427 H419 0.930 . S
C427 C428 1.355 . S
C427 C429 1.415 . S
C428 C427 1.355 . S
C428 C430 1.419 . S
C429 C424 1.425 . S
C429 C426 1.409 . S
C429 C427 1.415 . S
C430 H420 0.930 . S
C430 C428 1.419 . S
C430 C431 1.362 . S
C431 H421 0.930 . S
C431 C424 1.409 . S
C431 C430 1.362 . S
H432 C438 0.930 . S
H433 C441 0.930 . S
H434 C442 0.930 . S
H435 C443 0.930 . S
H436 C446 0.930 . S
H437 C447 0.930 . S
C438 H432 0.930 . S
C438 C439 1.355 . S
C438 C440 1.415 . S
C439 C438 1.355 . S
C439 C441 1.419 . S
C440 C438 1.415 . S
C440 C445 1.425 . S
C440 C447 1.409 . S
C441 H433 0.930 . S
C441 C439 1.419 . S
C441 C442 1.362 . S
C442 H434 0.930 . S
C442 C441 1.362 . S
C442 C445 1.409 . S
C443 H435 0.930 . S
C443 C444 1.355 . S
C443 C445 1.415 . S
C444 C443 1.355 . S
C444 C446 1.419 . S
C445 C440 1.425 . S
C445 C442 1.409 . S
C445 C443 1.415 . S
C446 H436 0.930 . S
C446 C444 1.419 . S
C446 C447 1.362 . S
C447 H437 0.930 . S
C447 C440 1.409 . S
C447 C446 1.362 . S
H448 C454 0.930 . S
H449 C457 0.930 . S
H450 C458 0.930 . S
H451 C459 0.930 . S
H452 C462 0.930 . S
H453 C463 0.930 . S
C454 H448 0.930 . S
C454 C455 1.355 . S
C454 C456 1.415 . S
C455 C454 1.355 . S
C455 C457 1.419 . S
C456 C454 1.415 . S
C456 C461 1.425 . S
C456 C463 1.409 . S
C457 H449 0.930 . S
C457 C455 1.419 . S
C457 C458 1.362 . S
C458 H450 0.930 . S
C458 C457 1.362 . S
C458 C461 1.409 . S
C459 H451 0.930 . S
C459 C460 1.355 . S
C459 C461 1.415 . S
C460 C459 1.355 . S
C460 C462 1.419 . S
C461 C456 1.425 . S
C461 C458 1.409 . S
C461 C459 1.415 . S
C462 H452 0.930 . S
C462 C460 1.419 . S
C462 C463 1.362 . S
C463 H453 0.930 . S
C463 C456 1.409 . S
C463 C462 1.362 . S
H464 C470 0.930 . S
H465 C473 0.930 . S
H466 C474 0.930 . S
H467 C475 0.930 . S
H468 C478 0.930 . S
H469 C479 0.930 . S
C470 H464 0.930 . S
C470 C471 1.355 . S
C470 C472 1.415 . S
C471 C470 1.355 . S
C471 C473 1.419 . S
C472 C470 1.415 . S
C472 C477 1.425 . S
C472 C479 1.409 . S
C473 H465 0.930 . S
C473 C471 1.419 . S
C473 C474 1.362 . S
C474 H466 0.930 . S
C474 C473 1.362 . S
C474 C477 1.409 . S
C475 H467 0.930 . S
C475 C476 1.355 . S
C475 C477 1.415 . S
C476 C475 1.355 . S
C476 C478 1.419 . S
C477 C472 1.425 . S
C477 C474 1.409 . S
C477 C475 1.415 . S
C478 H468 0.930 . S
C478 C476 1.419 . S
C478 C479 1.362 . S
C479 H469 0.930 . S
C479 C472 1.409 . S
C479 C478 1.362 . S
H480 C486 0.930 . S
H481 C489 0.930 . S
H482 C490 0.930 . S
H483 C491 0.930 . S
H484 C494 0.930 . S
H485 C495 0.930 . S
C486 H480 0.930 . S
C486 C487 1.355 . S
C486 C488 1.415 . S
C487 C486 1.355 . S
C487 C489 1.419 . S
C488 C486 1.415 . S
C488 C493 1.425 . S
C488 C495 1.409 . S
C489 H481 0.930 . S
C489 C487 1.419 . S
C489 C490 1.362 . S
C490 H482 0.930 . S
C490 C489 1.362 . S
C490 C493 1.409 . S
C491 H483 0.930 . S
C491 C492 1.355 . S
C491 C493 1.415 . S
C492 C491 1.355 . S
C492 C494 1.419 . S
C493 C488 1.425 . S
C493 C490 1.409 . S
C493 C491 1.415 . S
C494 H484 0.930 . S
C494 C492 1.419 . S
C494 C495 1.362 . S
C495 H485 0.930 . S
C495 C488 1.409 . S
C495 C494 1.362 . S
H496 C502 0.930 . S
H497 C505 0.930 . S
H498 C506 0.930 . S
H499 C507 0.930 . S
H500 C510 0.930 . S
H501 C511 0.930 . S
C502 H496 0.930 . S
C502 C503 1.355 . S
C502 C504 1.415 . S
C503 C502 1.355 . S
C503 C505 1.419 . S
C504 C502 1.415 . S
C504 C509 1.425 . S
C504 C511 1.409 . S
C505 H497 0.930 . S
C505 C503 1.419 . S
C505 C506 1.362 . S
C506 H498 0.930 . S
C506 C505 1.362 . S
C506 C509 1.409 . S
C507 H499 0.930 . S
C507 C508 1.355 . S
C507 C509 1.415 . S
C508 C507 1.355 . S
C508 C510 1.419 . S
C509 C504 1.425 . S
C509 C506 1.409 . S
C509 C507 1.415 . S
C510 H500 0.930 . S
C510 C508 1.419 . S
C510 C511 1.362 . S
C511 H501 0.930 . S
C511 C504 1.409 . S
C511 C510 1.362 . S
H512 C518 0.930 . S
H513 C521 0.930 . S
H514 C522 0.930 . S
H515 C523 0.930 . S
H516 C526 0.930 . S
H517 C527 0.930 . S
C518 H512 0.930 . S
C518 C519 1.355 . S
C518 C520 1.415 . S
C519 C518 1.355 . S
C519 C521 1.419 . S
C520 C518 1.415 . S
C520 C525 1.425 . S
C520 C527 1.409 . S
C521 H513 0.930 . S
C521 C519 1.419 . S
C521 C522 1.362 . S
C522 H514 0.930 . S
C522 C521 1.362 . S
C522 C525 1.409 . S
C523 H515 0.930 . S
C523 C524 1.355 . S
C523 C525 1.415 . S
C524 C523 1.355 . S
C524 C526 1.419 . S
C525 C520 1.425 . S
C525 C522 1.409 . S
C525 C523 1.415 . S
C526 H516 0.930 . S
C526 C524 1.419 . S
C526 C527 1.362 . S
C527 H517 0.930 . S
C527 C520 1.409 . S
C527 C526 1.362 . S
H528 C534 0.930 . S
H529 C537 0.930 . S
H530 C538 0.930 . S
H531 C539 0.930 . S
H532 C542 0.930 . S
H533 C543 0.930 . S
C534 H528 0.930 . S
C534 C535 1.355 . S
C534 C536 1.415 . S
C535 C534 1.355 . S
C535 C537 1.419 . S
C536 C534 1.415 . S
C536 C541 1.425 . S
C536 C543 1.409 . S
C537 H529 0.930 . S
C537 C535 1.419 . S
C537 C538 1.362 . S
C538 H530 0.930 . S
C538 C537 1.362 . S
C538 C541 1.409 . S
C539 H531 0.930 . S
C539 C540 1.355 . S
C539 C541 1.415 . S
C540 C539 1.355 . S
C540 C542 1.419 . S
C541 C536 1.425 . S
C541 C538 1.409 . S
C541 C539 1.415 . S
C542 H532 0.930 . S
C542 C540 1.419 . S
C542 C543 1.362 . S
C543 H533 0.930 . S
C543 C536 1.409 . S
C543 C542 1.362 . S
H544 C550 0.930 . S
H545 C553 0.930 . S
H546 C554 0.930 . S
H547 C555 0.930 . S
H548 C558 0.930 . S
H549 C559 0.930 . S
C550 H544 0.930 . S
C550 C551 1.355 . S
C550 C552 1.415 . S
C551 C550 1.355 . S
C551 C553 1.419 . S
C552 C550 1.415 . S
C552 C557 1.425 . S
C552 C559 1.409 . S
C553 H545 0.930 . S
C553 C551 1.419 . S
C553 C554 1.362 . S
C554 H546 0.930 . S
C554 C553 1.362 . S
C554 C557 1.409 . S
C555 H547 0.930 . S
C555 C556 1.355 . S
C555 C557 1.415 . S
C556 C555 1.355 . S
C556 C558 1.419 . S
C557 C552 1.425 . S
C557 C554 1.409 . S
C557 C555 1.415 . S
C558 H548 0.930 . S
C558 C556 1.419 . S
C558 C559 1.362 . S
C559 H549 0.930 . S
C559 C552 1.409 . S
C559 C558 1.362 . S
H560 C566 0.930 . S
H561 C569 0.930 . S
H562 C570 0.930 . S
H563 C571 0.930 . S
H564 C574 0.930 . S
H565 C575 0.930 . S
C566 H560 0.930 . S
C566 C567 1.355 . S
C566 C568 1.415 . S
C567 C566 1.355 . S
C567 C569 1.419 . S
C568 C566 1.415 . S
C568 C573 1.425 . S
C568 C575 1.409 . S
C569 H561 0.930 . S
C569 C567 1.419 . S
C569 C570 1.362 . S
C570 H562 0.930 . S
C570 C569 1.362 . S
C570 C573 1.409 . S
C571 H563 0.930 . S
C571 C572 1.355 . S
C571 C573 1.415 . S
C572 C571 1.355 . S
C572 C574 1.419 . S
C573 C568 1.425 . S
C573 C570 1.409 . S
C573 C571 1.415 . S
C574 H564 0.930 . S
C574 C572 1.419 . S
C574 C575 1.362 . S
C575 H565 0.930 . S
C575 C568 1.409 . S
C575 C574 1.362 . S
H576 C582 0.930 . S
H577 C585 0.930 . S
H578 C586 0.930 . S
H579 C587 0.930 . S
H580 C590 0.930 . S
H581 C591 0.930 . S
C582 H576 0.930 . S
C582 C583 1.355 . S
C582 C584 1.415 . S
C583 C582 1.355 . S
C583 C585 1.419 . S
C584 C582 1.415 . S
C584 C589 1.425 . S
C584 C591 1.409 . S
C585 H577 0.930 . S
C585 C583 1.419 . S
C585 C586 1.362 . S
C586 H578 0.930 . S
C586 C585 1.362 . S
C586 C589 1.409 . S
C587 H579 0.930 . S
C587 C588 1.355 . S
C587 C589 1.415 . S
C588 C587 1.355 . S
C588 C590 1.419 . S
C589 C584 1.425 . S
C589 C586 1.409 . S
C589 C587 1.415 . S
C590 H580 0.930 . S
C590 C588 1.419 . S
C590 C591 1.362 . S
C591 H581 0.930 . S
C591 C584 1.409 . S
C591 C590 1.362 . S
H592 C598 0.930 . S
H593 C601 0.930 . S
H594 C602 0.930 . S
H595 C603 0.930 . S
H596 C606 0.930 . S
H597 C607 0.930 . S
C598 H592 0.930 . S
C598 C599 1.355 . S
C598 C600 1.415 . S
C599 C598 1.355 . S
C599 C601 1.419 . S
C600 C598 1.415 . S
C600 C605 1.425 . S
C600 C607 1.409 . S
C601 H593 0.930 . S
C601 C599 1.419 . S
C601 C602 1.362 . S
C602 H594 0.930 . S
C602 C601 1.362 . S
C602 C605 1.409 . S
C603 H595 0.930 . S
C603 C604 1.355 . S
C603 C605 1.415 . S
C604 C603 1.355 . S
C604 C606 1.419 . S
C605 C600 1.425 . S
C605 C602 1.409 . S
C605 C603 1.415 . S
C606 H596 0.930 . S
C606 C604 1.419 . S
C606 C607 1.362 . S
C607 H597 0.930 . S
C607 C600 1.409 . S
C607 C606 1.362 . S
H608 C614 0.930 . S
H609 C617 0.930 . S
H610 C618 0.930 . S
H611 C619 0.930 . S
H612 C622 0.930 . S
H613 C623 0.930 . S
C614 H608 0.930 . S
C614 C615 1.355 . S
C614 C616 1.415 . S
C615 C614 1.355 . S
C615 C617 1.419 . S
C616 C614 1.415 . S
C616 C621 1.425 . S
C616 C623 1.409 . S
C617 H609 0.930 . S
C617 C615 1.419 . S
C617 C618 1.362 . S
C618 H610 0.930 . S
C618 C617 1.362 . S
C618 C621 1.409 . S
C619 H611 0.930 . S
C619 C620 1.355 . S
C619 C621 1.415 . S
C620 C619 1.355 . S
C620 C622 1.419 . S
C621 C616 1.425 . S
C621 C618 1.409 . S
C621 C619 1.415 . S
C622 H612 0.930 . S
C622 C620 1.419 . S
C622 C623 1.362 . S
C623 H613 0.930 . S
C623 C616 1.409 . S
C623 C622 1.362 . S
H624 C630 0.930 . S
H625 C633 0.930 . S
H626 C634 0.930 . S
H627 C635 0.930 . S
H628 C638 0.930 . S
H629 C639 0.930 . S
C630 H624 0.930 . S
C630 C631 1.355 . S
C630 C632 1.415 . S
C631 C630 1.355 . S
C631 C633 1.419 . S
C632 C630 1.415 . S
C632 C637 1.425 . S
C632 C639 1.409 . S
C633 H625 0.930 . S
C633 C631 1.419 . S
C633 C634 1.362 . S
C634 H626 0.930 . S
C634 C633 1.362 . S
C634 C637 1.409 . S
C635 H627 0.930 . S
C635 C636 1.355 . S
C635 C637 1.415 . S
C636 C635 1.355 . S
C636 C638 1.419 . S
C637 C632 1.425 . S
C637 C634 1.409 . S
C637 C635 1.415 . S
C638 H628 0.930 . S
C638 C636 1.419 . S
C638 C639 1.362 . S
C639 H629 0.930 . S
C639 C632 1.409 . S
C639 C638 1.362 . S
H640 C646 0.930 . S
H641 C649 0.930 . S
H642 C650 0.930 . S
H643 C651 0.930 . S
H644 C654 0.930 . S
H645 C655 0.930 . S
C646 H640 0.930 . S
C646 C647 1.355 . S
C646 C648 1.415 . S
C647 C646 1.355 . S
C647 C649 1.419 . S
C648 C646 1.415 . S
C648 C653 1.425 . S
C648 C655 1.409 . S
C649 H641 0.930 . S
C649 C647 1.419 . S
C649 C650 1.362 . S
C650 H642 0.930 . S
C650 C649 1.362 . S
C650 C653 1.409 . S
C651 H643 0.930 . S
C651 C652 1.355 . S
C651 C653 1.415 . S
C652 C651 1.355 . S
C652 C654 1.419 . S
C653 C648 1.425 . S
C653 C650 1.409 . S
C653 C651 1.415 . S
C654 H644 0.930 . S
C654 C652 1.419 . S
C654 C655 1.362 . S
C655 H645 0.930 . S
C655 C648 1.409 . S
C655 C654 1.362 . S
H656 C662 0.930 . S
H657 C665 0.930 . S
H658 C666 0.930 . S
H659 C667 0.930 . S
H660 C670 0.930 . S
H661 C671 0.930 . S
C662 H656 0.930 . S
C662 C663 1.355 . S
C662 C664 1.415 . S
C663 C662 1.355 . S
C663 C665 1.419 . S
C664 C662 1.415 . S
C664 C669 1.425 . S
C664 C671 1.409 . S
C665 H657 0.930 . S
C665 C663 1.419 . S
C665 C666 1.362 . S
C666 H658 0.930 . S
C666 C665 1.362 . S
C666 C669 1.409 . S
C667 H659 0.930 . S
C667 C668 1.355 . S
C667 C669 1.415 . S
C668 C667 1.355 . S
C668 C670 1.419 . S
C669 C664 1.425 . S
C669 C666 1.409 . S
C669 C667 1.415 . S
C670 H660 0.930 . S
C670 C668 1.419 . S
C670 C671 1.362 . S
C671 H661 0.930 . S
C671 C664 1.409 . S
C671 C670 1.362 . S
H672 C678 0.930 . S
H673 C681 0.930 . S
H674 C682 0.930 . S
H675 C683 0.930 . S
H676 C686 0.930 . S
H677 C687 0.930 . S
C678 H672 0.930 . S
C678 C679 1.355 . S
C678 C680 1.415 . S
C679 C678 1.355 . S
C679 C681 1.419 . S
C680 C678 1.415 . S
C680 C685 1.425 . S
C680 C687 1.409 . S
C681 H673 0.930 . S
C681 C679 1.419 . S
C681 C682 1.362 . S
C682 H674 0.930 . S
C682 C681 1.362 . S
C682 C685 1.409 . S
C683 H675 0.930 . S
C683 C684 1.355 . S
C683 C685 1.415 . S
C684 C683 1.355 . S
C684 C686 1.419 . S
C685 C680 1.425 . S
C685 C682 1.409 . S
C685 C683 1.415 . S
C686 H676 0.930 . S
C686 C684 1.419 . S
C686 C687 1.362 . S
C687 H677 0.930 . S
C687 C680 1.409 . S
C687 C686 1.362 . S
H688 C694 0.930 . S
H689 C697 0.930 . S
H690 C698 0.930 . S
H691 C699 0.930 . S
H692 C702 0.930 . S
H693 C703 0.930 . S
C694 H688 0.930 . S
C694 C695 1.355 . S
C694 C696 1.415 . S
C695 C694 1.355 . S
C695 C697 1.419 . S
C696 C694 1.415 . S
C696 C701 1.425 . S
C696 C703 1.409 . S
C697 H689 0.930 . S
C697 C695 1.419 . S
C697 C698 1.362 . S
C698 H690 0.930 . S
C698 C697 1.362 . S
C698 C701 1.409 . S
C699 H691 0.930 . S
C699 C700 1.355 . S
C699 C701 1.415 . S
C700 C699 1.355 . S
C700 C702 1.419 . S
C701 C696 1.425 . S
C701 C698 1.409 . S
C701 C699 1.415 . S
C702 H692 0.930 . S
C702 C700 1.419 . S
C702 C703 1.362 . S
C703 H693 0.930 . S
C703 C696 1.409 . S
C703 C702 1.362 . S
H704 C710 0.930 . S
H705 C713 0.930 . S
H706 C714 0.930 . S
H707 C715 0.930 . S
H708 C718 0.930 . S
H709 C719 0.930 . S
C710 H704 0.930 . S
C710 C711 1.355 . S
C710 C712 1.415 . S
C711 C710 1.355 . S
C711 C713 1.419 . S
C712 C710 1.415 . S
C712 C717 1.425 . S
C712 C719 1.409 . S
C713 H705 0.930 . S
C713 C711 1.419 . S
C713 C714 1.362 . S
C714 H706 0.930 . S
C714 C713 1.362 . S
C714 C717 1.409 . S
C715 H707 0.930 . S
C715 C716 1.355 . S
C715 C717 1.415 . S
C716 C715 1.355 . S
C716 C718 1.419 . S
C717 C712 1.425 . S
C717 C714 1.409 . S
C717 C715 1.415 . S
C718 H708 0.930 . S
C718 C716 1.419 . S
C718 C719 1.362 . S
C719 H709 0.930 . S
C719 C712 1.409 . S
C719 C718 1.362 . S
C215 C52 1.157 1_554 S
C220 C0 1.182 . S
C231 C65 1.178 1_554 S
C236 C13 1.157 . S
C247 C78 1.197 1_554 S
C252 C26 1.231 1_556 S
C263 C91 1.218 1_554 S
C268 C39 1.235 1_556 S
C279 C156 1.189 . S
C284 C104 1.158 . S
C295 C169 1.221 . S
C300 C117 1.235 . S
C311 C130 1.157 . S
C316 C182 1.172 . S
C327 C195 1.175 . S
C332 C143 1.157 . S
C343 C5 1.275 . S
C348 C70 1.341 1_554 S
C359 C83 1.331 . S
C364 C18 1.262 . S
C375 C31 1.294 1_556 S
C380 C96 1.330 1_554 S
C391 C57 1.288 . S
C396 C44 1.296 . S
C407 C174 1.327 . S
C412 C109 1.264 . S
C423 C187 1.263 . S
C428 C122 1.329 . S
C439 C135 1.328 . S
C444 C200 1.264 . S
C455 C148 1.342 . S
C460 C161 1.262 . S
C471 C205 1.406 . S
C476 C10 1.415 . S
C487 C166 1.406 . S
C492 C23 1.404 . S
C503 C179 1.404 . S
C508 C36 1.410 . S
C519 C192 1.436 . S
C524 C49 1.435 . S
C535 C127 1.435 . S
C540 C62 1.436 . S
C551 C140 1.419 . S
C556 C75 1.430 . S
C567 C88 1.404 . S
C572 C153 1.407 . S
C583 C101 1.416 . S
C588 C114 1.428 . S
C599 C177 1.416 . S
C604 C34 1.478 . S
C615 C190 1.479 . S
C620 C47 1.415 . S
C631 C203 1.428 . S
C636 C8 1.467 . S
C647 C21 1.415 . S
C652 C164 1.478 . S
C663 C151 1.480 . S
C668 C86 1.413 . S
C679 C99 1.484 . S
C684 C112 1.409 . S
C695 C125 1.484 . S
C700 C60 1.410 . S
C711 C138 1.409 . S
C716 C73 1.484 . S
