# Generated by pormake.
# Topology afi, (4)-cn, num edge types: 1
# Building blocks:
#     Node 0, Type 0, BuildingBlock: NAHDIM_clean_sbu_0, # of connection points: 4
#     Node 1, Type 0, BuildingBlock: NAHDIM_clean_sbu_0, # of connection points: 4
#     Node 2, Type 0, BuildingBlock: NAHDIM_clean_sbu_0, # of connection points: 4
#     Node 3, Type 0, BuildingBlock: NAHDIM_clean_sbu_0, # of connection points: 4
#     Node 4, Type 0, BuildingBlock: NAHDIM_clean_sbu_0, # of connection points: 4
#     Node 5, Type 0, BuildingBlock: NAHDIM_clean_sbu_0, # of connection points: 4
#     Node 6, Type 0, BuildingBlock: NAHDIM_clean_sbu_0, # of connection points: 4
#     Node 7, Type 0, BuildingBlock: NAHDIM_clean_sbu_0, # of connection points: 4
#     Node 8, Type 0, BuildingBlock: NAHDIM_clean_sbu_0, # of connection points: 4
#     Node 9, Type 0, BuildingBlock: NAHDIM_clean_sbu_0, # of connection points: 4
#     Node 10, Type 0, BuildingBlock: NAHDIM_clean_sbu_0, # of connection points: 4
#     Node 11, Type 0, BuildingBlock: NAHDIM_clean_sbu_0, # of connection points: 4
#     Node 12, Type 0, BuildingBlock: NAHDIM_clean_sbu_0, # of connection points: 4
#     Node 13, Type 0, BuildingBlock: NAHDIM_clean_sbu_0, # of connection points: 4
#     Node 14, Type 0, BuildingBlock: NAHDIM_clean_sbu_0, # of connection points: 4
#     Node 15, Type 0, BuildingBlock: NAHDIM_clean_sbu_0, # of connection points: 4
#     Node 16, Type 0, BuildingBlock: NAHDIM_clean_sbu_0, # of connection points: 4
#     Node 17, Type 0, BuildingBlock: NAHDIM_clean_sbu_0, # of connection points: 4
#     Node 18, Type 0, BuildingBlock: NAHDIM_clean_sbu_0, # of connection points: 4
#     Node 19, Type 0, BuildingBlock: NAHDIM_clean_sbu_0, # of connection points: 4
#     Node 20, Type 0, BuildingBlock: NAHDIM_clean_sbu_0, # of connection points: 4
#     Node 21, Type 0, BuildingBlock: NAHDIM_clean_sbu_0, # of connection points: 4
#     Node 22, Type 0, BuildingBlock: NAHDIM_clean_sbu_0, # of connection points: 4
#     Node 23, Type 0, BuildingBlock: NAHDIM_clean_sbu_0, # of connection points: 4
#     Edge 24, Type (0, 0), BuildingBlock: OJICUG_clean_linker_0, # of connection points: 2
#     Edge 25, Type (0, 0), BuildingBlock: OJICUG_clean_linker_0, # of connection points: 2
#     Edge 26, Type (0, 0), BuildingBlock: OJICUG_clean_linker_0, # of connection points: 2
#     Edge 27, Type (0, 0), BuildingBlock: OJICUG_clean_linker_0, # of connection points: 2
#     Edge 28, Type (0, 0), BuildingBlock: OJICUG_clean_linker_0, # of connection points: 2
#     Edge 29, Type (0, 0), BuildingBlock: OJICUG_clean_linker_0, # of connection points: 2
#     Edge 30, Type (0, 0), BuildingBlock: OJICUG_clean_linker_0, # of connection points: 2
#     Edge 31, Type (0, 0), BuildingBlock: OJICUG_clean_linker_0, # of connection points: 2
#     Edge 32, Type (0, 0), BuildingBlock: OJICUG_clean_linker_0, # of connection points: 2
#     Edge 33, Type (0, 0), BuildingBlock: OJICUG_clean_linker_0, # of connection points: 2
#     Edge 34, Type (0, 0), BuildingBlock: OJICUG_clean_linker_0, # of connection points: 2
#     Edge 35, Type (0, 0), BuildingBlock: OJICUG_clean_linker_0, # of connection points: 2
#     Edge 36, Type (0, 0), BuildingBlock: OJICUG_clean_linker_0, # of connection points: 2
#     Edge 37, Type (0, 0), BuildingBlock: OJICUG_clean_linker_0, # of connection points: 2
#     Edge 38, Type (0, 0), BuildingBlock: OJICUG_clean_linker_0, # of connection points: 2
#     Edge 39, Type (0, 0), BuildingBlock: OJICUG_clean_linker_0, # of connection points: 2
#     Edge 40, Type (0, 0), BuildingBlock: OJICUG_clean_linker_0, # of connection points: 2
#     Edge 41, Type (0, 0), BuildingBlock: OJICUG_clean_linker_0, # of connection points: 2
#     Edge 42, Type (0, 0), BuildingBlock: OJICUG_clean_linker_0, # of connection points: 2
#     Edge 43, Type (0, 0), BuildingBlock: OJICUG_clean_linker_0, # of connection points: 2
#     Edge 44, Type (0, 0), BuildingBlock: OJICUG_clean_linker_0, # of connection points: 2
#     Edge 45, Type (0, 0), BuildingBlock: OJICUG_clean_linker_0, # of connection points: 2
#     Edge 46, Type (0, 0), BuildingBlock: OJICUG_clean_linker_0, # of connection points: 2
#     Edge 47, Type (0, 0), BuildingBlock: OJICUG_clean_linker_0, # of connection points: 2
#     Edge 48, Type (0, 0), BuildingBlock: OJICUG_clean_linker_0, # of connection points: 2
#     Edge 49, Type (0, 0), BuildingBlock: OJICUG_clean_linker_0, # of connection points: 2
#     Edge 50, Type (0, 0), BuildingBlock: OJICUG_clean_linker_0, # of connection points: 2
#     Edge 51, Type (0, 0), BuildingBlock: OJICUG_clean_linker_0, # of connection points: 2
#     Edge 52, Type (0, 0), BuildingBlock: OJICUG_clean_linker_0, # of connection points: 2
#     Edge 53, Type (0, 0), BuildingBlock: OJICUG_clean_linker_0, # of connection points: 2
#     Edge 54, Type (0, 0), BuildingBlock: OJICUG_clean_linker_0, # of connection points: 2
#     Edge 55, Type (0, 0), BuildingBlock: OJICUG_clean_linker_0, # of connection points: 2
#     Edge 56, Type (0, 0), BuildingBlock: OJICUG_clean_linker_0, # of connection points: 2
#     Edge 57, Type (0, 0), BuildingBlock: OJICUG_clean_linker_0, # of connection points: 2
#     Edge 58, Type (0, 0), BuildingBlock: OJICUG_clean_linker_0, # of connection points: 2
#     Edge 59, Type (0, 0), BuildingBlock: OJICUG_clean_linker_0, # of connection points: 2
#     Edge 60, Type (0, 0), BuildingBlock: OJICUG_clean_linker_0, # of connection points: 2
#     Edge 61, Type (0, 0), BuildingBlock: OJICUG_clean_linker_0, # of connection points: 2
#     Edge 62, Type (0, 0), BuildingBlock: OJICUG_clean_linker_0, # of connection points: 2
#     Edge 63, Type (0, 0), BuildingBlock: OJICUG_clean_linker_0, # of connection points: 2
#     Edge 64, Type (0, 0), BuildingBlock: OJICUG_clean_linker_0, # of connection points: 2
#     Edge 65, Type (0, 0), BuildingBlock: OJICUG_clean_linker_0, # of connection points: 2
#     Edge 66, Type (0, 0), BuildingBlock: OJICUG_clean_linker_0, # of connection points: 2
#     Edge 67, Type (0, 0), BuildingBlock: OJICUG_clean_linker_0, # of connection points: 2
#     Edge 68, Type (0, 0), BuildingBlock: OJICUG_clean_linker_0, # of connection points: 2
#     Edge 69, Type (0, 0), BuildingBlock: OJICUG_clean_linker_0, # of connection points: 2
#     Edge 70, Type (0, 0), BuildingBlock: OJICUG_clean_linker_0, # of connection points: 2
#     Edge 71, Type (0, 0), BuildingBlock: OJICUG_clean_linker_0, # of connection points: 2
# Relax obj value: 0.071
# Max RMSD: 0.085
# Mean RMSD: 0.085
data_MOF--net-afi--node1-NAHDIM_clean_sbu_0--edge1-OJICUG_clean_linker_0
_symmetry_space_group_name_H-M    P1
_symmetry_Int_Tables_number       1
_symmetry_cell_setting            triclinic
loop_
_symmetry_equiv_pos_as_xyz
'x, y, z'
_cell_length_a     50.429099
_cell_length_b     50.26079
_cell_length_c     28.409891
_cell_angle_alpha  90.010549
_cell_angle_beta   90.036973
_cell_angle_gamma 120.05117
loop_
_atom_site_label
_atom_site_type_symbol
_atom_site_fract_x
_atom_site_fract_y
_atom_site_fract_z
_atom_type_partial_charge
C0 C 0.43892 0.16685 0.20605 0.0
O1 O 0.4601 0.17553 0.17339 0.0
O2 O 0.48282 0.12567 0.22218 0.0
Zn3 Zn 0.44136 0.11242 0.19389 0.0
O4 O 0.44322 0.11635 0.12295 0.0
C5 C 0.41485 0.04754 0.1872 0.0
O6 O 0.43319 0.05607 0.15057 0.0
O7 O 0.42624 0.13938 0.22111 0.0
C8 C 0.41839 0.1084 0.10095 0.0
O9 O 0.39295 0.09841 0.12516 0.0
C10 C 0.50611 0.12948 0.1993 0.0
O11 O 0.50406 0.12538 0.15348 0.0
O12 O 0.41362 0.06802 0.21182 0.0
C13 C 0.29916 0.48089 0.23168 0.0
O14 O 0.32433 0.50735 0.22524 0.0
O15 O 0.37519 0.49211 0.22648 0.0
Zn16 Zn 0.33706 0.45746 0.19693 0.0
O17 O 0.33755 0.46328 0.12673 0.0
C18 C 0.34184 0.40277 0.18152 0.0
O19 O 0.34525 0.41149 0.13731 0.0
O20 O 0.29928 0.45614 0.22302 0.0
C21 C 0.31276 0.44839 0.10363 0.0
O22 O 0.28746 0.42959 0.12624 0.0
C23 C 0.39056 0.51873 0.20841 0.0
O24 O 0.38128 0.52472 0.16865 0.0
O25 O 0.337 0.41822 0.21233 0.0
C26 C 0.83845 0.28146 0.25874 0.0
O27 O 0.85461 0.30513 0.28644 0.0
O28 O 0.88543 0.35729 0.21519 0.0
Zn29 Zn 0.88575 0.31937 0.19369 0.0
O30 O 0.88705 0.31901 0.1227 0.0
C31 C 0.94773 0.32895 0.19994 0.0
O32 O 0.94695 0.3294 0.15376 0.0
O33 O 0.84773 0.28194 0.21702 0.0
C34 C 0.90163 0.34412 0.1001 0.0
O35 O 0.91628 0.37005 0.12365 0.0
C36 C 0.86312 0.36215 0.21152 0.0
O37 O 0.83749 0.34122 0.19188 0.0
O38 O 0.92379 0.32291 0.22305 0.0
C39 C 0.56529 0.83217 0.20481 0.0
O40 O 0.55102 0.82629 0.16414 0.0
O41 O 0.5156 0.87234 0.23286 0.0
Zn42 Zn 0.55575 0.88386 0.20125 0.0
O43 O 0.55137 0.88056 0.13035 0.0
C44 C 0.57193 0.94492 0.20924 0.0
O45 O 0.54555 0.93241 0.18697 0.0
O46 O 0.57088 0.85641 0.227 0.0
C47 C 0.57549 0.89196 0.10536 0.0
O48 O 0.60227 0.90504 0.12651 0.0
C49 C 0.49023 0.86327 0.21191 0.0
O50 O 0.4886 0.85884 0.16618 0.0
O51 O 0.58361 0.92826 0.21881 0.0
C52 C 0.69333 0.5073 0.22044 0.0
O53 O 0.66969 0.4813 0.20644 0.0
O54 O 0.6179 0.48792 0.21642 0.0
Zn55 Zn 0.65295 0.5271 0.19059 0.0
O56 O 0.65476 0.52431 0.12007 0.0
C57 C 0.63538 0.57309 0.17881 0.0
O58 O 0.62949 0.56176 0.13595 0.0
O59 O 0.69203 0.53187 0.2176 0.0
C60 C 0.67942 0.54291 0.099 0.0
O61 O 0.70297 0.5629 0.12397 0.0
C62 C 0.59001 0.47986 0.20928 0.0
O63 O 0.58339 0.49749 0.18358 0.0
O64 O 0.64651 0.56242 0.20861 0.0
C65 C 0.1684 0.72274 0.20826 0.0
O66 O 0.17377 0.71045 0.17127 0.0
O67 O 0.12106 0.63608 0.22509 0.0
Zn68 Zn 0.11082 0.66756 0.20119 0.0
O69 O 0.11157 0.66847 0.13014 0.0
C70 C 0.04506 0.63738 0.20188 0.0
O71 O 0.04842 0.6277 0.16056 0.0
O72 O 0.1421 0.70869 0.22732 0.0
C73 C 0.10732 0.6879 0.10774 0.0
O74 O 0.10262 0.70759 0.1315 0.0
C75 C 0.11308 0.61112 0.20324 0.0
O76 O 0.0984 0.60595 0.16305 0.0
O77 O 0.06877 0.65559 0.22538 0.0
C78 C 0.80171 0.50663 0.2842 0.0
O79 O 0.79919 0.48188 0.30414 0.0
O80 O 0.85594 0.4831 0.27624 0.0
Zn81 Zn 0.86366 0.52452 0.29764 0.0
O82 O 0.86649 0.52633 0.36837 0.0
C83 C 0.92603 0.57672 0.28997 0.0
O84 O 0.92383 0.57919 0.33563 0.0
O85 O 0.82826 0.5295 0.27711 0.0
C86 C 0.86097 0.54469 0.39145 0.0
O87 O 0.85403 0.56307 0.36848 0.0
C88 C 0.87722 0.47676 0.28099 0.0
O89 O 0.90318 0.49722 0.30042 0.0
O90 O 0.90315 0.55618 0.26736 0.0
C91 C 0.26919 0.82799 0.29804 0.0
O92 O 0.2659 0.83747 0.33955 0.0
O93 O 0.36767 0.86166 0.28711 0.0
Zn94 Zn 0.33527 0.87057 0.31073 0.0
O95 O 0.33231 0.86805 0.38185 0.0
C96 C 0.35619 0.92062 0.24662 0.0
O97 O 0.35614 0.89978 0.21863 0.0
O98 O 0.29579 0.8393 0.28028 0.0
C99 C 0.32334 0.88409 0.40401 0.0
O100 O 0.31588 0.90173 0.37999 0.0
C101 C 0.39226 0.8685 0.30894 0.0
O102 O 0.39705 0.88129 0.35075 0.0
O103 O 0.34715 0.91329 0.28885 0.0
C104 C 0.41575 0.25755 0.292 0.0
O105 O 0.39817 0.25098 0.32931 0.0
O106 O 0.46574 0.35966 0.28369 0.0
Zn107 Zn 0.42944 0.32081 0.30728 0.0
O108 O 0.43087 0.31951 0.37807 0.0
C109 C 0.38982 0.3266 0.24303 0.0
O110 O 0.40754 0.32261 0.2134 0.0
O111 O 0.43026 0.28507 0.27716 0.0
C112 C 0.43389 0.34302 0.39964 0.0
O113 O 0.43588 0.36603 0.37486 0.0
C114 C 0.49351 0.36718 0.2905 0.0
O115 O 0.49982 0.3489 0.31511 0.0
O116 O 0.39313 0.32412 0.28685 0.0
C117 C 0.18739 0.47866 0.28412 0.0
O118 O 0.18841 0.50256 0.30471 0.0
O119 O 0.12271 0.4916 0.2665 0.0
Zn120 Zn 0.12321 0.45513 0.29507 0.0
O121 O 0.12222 0.45706 0.3659 0.0
C122 C 0.06288 0.39982 0.29464 0.0
O123 O 0.06333 0.40519 0.33996 0.0
O124 O 0.1615 0.45515 0.27555 0.0
C125 C 0.13148 0.44216 0.39043 0.0
O126 O 0.14089 0.42523 0.36893 0.0
C127 C 0.13031 0.51636 0.2887 0.0
O128 O 0.13974 0.51915 0.33249 0.0
O129 O 0.08611 0.41735 0.26977 0.0
C130 C 0.71955 0.18367 0.31784 0.0
O131 O 0.70706 0.18691 0.3564 0.0
O132 O 0.63148 0.13948 0.27918 0.0
Zn133 Zn 0.66096 0.12881 0.31063 0.0
O134 O 0.6568 0.12753 0.38144 0.0
C135 C 0.62144 0.06738 0.28492 0.0
O136 O 0.60205 0.07586 0.29946 0.0
O137 O 0.70412 0.16011 0.29215 0.0
C138 C 0.66775 0.11386 0.40527 0.0
O139 O 0.68103 0.10073 0.383 0.0
C140 C 0.61105 0.14225 0.30117 0.0
O141 O 0.6101 0.14045 0.34733 0.0
O142 O 0.64999 0.08656 0.28709 0.0
C143 C 0.57657 0.7356 0.29565 0.0
O144 O 0.5823 0.73699 0.34097 0.0
O145 O 0.51577 0.63867 0.28315 0.0
Zn146 Zn 0.55813 0.67046 0.30451 0.0
O147 O 0.55973 0.67372 0.37561 0.0
C148 C 0.58634 0.64957 0.23845 0.0
O149 O 0.5686 0.65401 0.20946 0.0
O150 O 0.56736 0.71036 0.27391 0.0
C151 C 0.56805 0.65779 0.39958 0.0
O152 O 0.57564 0.6396 0.37751 0.0
C153 C 0.50348 0.61062 0.29521 0.0
O154 O 0.51817 0.60216 0.32423 0.0
O155 O 0.58693 0.65646 0.2816 0.0
C156 C 0.55399 0.82943 0.80129 0.0
O157 O 0.53677 0.82122 0.8392 0.0
O158 O 0.50239 0.86537 0.78162 0.0
Zn159 Zn 0.5446 0.88073 0.80898 0.0
O160 O 0.54385 0.87873 0.88009 0.0
C161 C 0.55769 0.94139 0.79476 0.0
O162 O 0.53061 0.92892 0.81481 0.0
O163 O 0.56131 0.85501 0.78198 0.0
C164 C 0.56934 0.89005 0.90162 0.0
O165 O 0.59473 0.90218 0.87682 0.0
C166 C 0.47892 0.86016 0.80536 0.0
O167 O 0.4811 0.86306 0.85138 0.0
O168 O 0.57019 0.92507 0.78883 0.0
C169 C 0.70051 0.51521 0.77529 0.0
O170 O 0.67632 0.49017 0.79071 0.0
O171 O 0.62575 0.50073 0.77104 0.0
Zn172 Zn 0.66168 0.53745 0.80118 0.0
O173 O 0.66098 0.53149 0.87139 0.0
C174 C 0.64832 0.58619 0.81661 0.0
O175 O 0.64133 0.57372 0.85867 0.0
O176 O 0.70026 0.54038 0.77573 0.0
C177 C 0.68479 0.54822 0.89573 0.0
O178 O 0.70978 0.56887 0.87432 0.0
C179 C 0.60159 0.48306 0.79393 0.0
O180 O 0.59971 0.48902 0.83844 0.0
O181 O 0.65855 0.57514 0.78596 0.0
C182 C 0.15896 0.72169 0.80079 0.0
O183 O 0.16513 0.70945 0.83702 0.0
O184 O 0.11366 0.63536 0.78173 0.0
Zn185 Zn 0.10309 0.66565 0.8099 0.0
O186 O 0.10738 0.66699 0.88078 0.0
C187 C 0.03769 0.63423 0.8201 0.0
O188 O 0.04469 0.62794 0.86159 0.0
O189 O 0.13242 0.70725 0.78242 0.0
C190 C 0.10376 0.68656 0.90401 0.0
O191 O 0.09771 0.70564 0.88114 0.0
C192 C 0.10233 0.6081 0.79723 0.0
O193 O 0.08427 0.59977 0.83418 0.0
O194 O 0.05917 0.65127 0.79195 0.0
C195 C 0.42835 0.17023 0.79832 0.0
O196 O 0.44463 0.17682 0.83713 0.0
O197 O 0.47849 0.13272 0.77338 0.0
Zn198 Zn 0.43681 0.11818 0.80207 0.0
O199 O 0.4393 0.11986 0.8731 0.0
C200 C 0.42284 0.05763 0.78662 0.0
O201 O 0.45031 0.07018 0.80542 0.0
O202 O 0.42101 0.14522 0.77703 0.0
C203 C 0.41498 0.11028 0.89722 0.0
O204 O 0.38869 0.09981 0.87518 0.0
C205 C 0.50267 0.14035 0.79701 0.0
O206 O 0.50147 0.14055 0.84319 0.0
O207 O 0.41022 0.07393 0.78183 0.0
C208 C 0.29217 0.49717 0.7855 0.0
O209 O 0.31384 0.52373 0.8017 0.0
O210 O 0.37104 0.52318 0.79007 0.0
Zn211 Zn 0.3371 0.48106 0.80863 0.0
O212 O 0.3364 0.47716 0.87909 0.0
C213 C 0.33898 0.42373 0.78963 0.0
O214 O 0.31805 0.41 0.82232 0.0
O215 O 0.29673 0.4745 0.78469 0.0
C216 C 0.31184 0.4594 0.90105 0.0
O217 O 0.28636 0.44322 0.87712 0.0
C218 C 0.39823 0.52799 0.79344 0.0
O219 O 0.40254 0.50616 0.81057 0.0
O220 O 0.34801 0.45155 0.77911 0.0
C221 C 0.8288 0.26851 0.79681 0.0
O222 O 0.82688 0.27736 0.83957 0.0
O223 O 0.88862 0.3592 0.7785 0.0
Zn224 Zn 0.88903 0.32172 0.80236 0.0
O225 O 0.88735 0.32052 0.87318 0.0
C226 C 0.93454 0.32867 0.73727 0.0
O227 O 0.9122 0.32313 0.70791 0.0
O228 O 0.85362 0.28376 0.77397 0.0
C229 C 0.90376 0.34501 0.89642 0.0
O230 O 0.92142 0.37063 0.87353 0.0
C231 C 0.86745 0.36552 0.78485 0.0
O232 O 0.84306 0.34651 0.80913 0.0
O233 O 0.92934 0.32713 0.7812 0.0
C234 C 0.17928 0.48559 0.71534 0.0
O235 O 0.17895 0.51019 0.70067 0.0
O236 O 0.11272 0.49257 0.71536 0.0
Zn237 Zn 0.11733 0.45855 0.68593 0.0
O238 O 0.12179 0.46296 0.61539 0.0
C239 C 0.05778 0.40457 0.6726 0.0
O240 O 0.06187 0.41466 0.62908 0.0
O241 O 0.15482 0.45965 0.71291 0.0
C242 C 0.13044 0.44644 0.59387 0.0
O243 O 0.13676 0.42817 0.61849 0.0
C244 C 0.12091 0.51854 0.69674 0.0
O245 O 0.13341 0.52465 0.65468 0.0
O246 O 0.07902 0.4189 0.70259 0.0
C247 C 0.72069 0.17086 0.7075 0.0
O248 O 0.72061 0.16549 0.66224 0.0
O249 O 0.62443 0.13921 0.72837 0.0
Zn250 Zn 0.65449 0.12744 0.70271 0.0
O251 O 0.65538 0.12871 0.63156 0.0
C252 C 0.61162 0.06537 0.7233 0.0
O253 O 0.59346 0.07487 0.70675 0.0
O254 O 0.69579 0.15694 0.73053 0.0
C255 C 0.6635 0.11211 0.60897 0.0
O256 O 0.67159 0.09483 0.6326 0.0
C257 C 0.60524 0.14245 0.70361 0.0
O258 O 0.6052 0.13929 0.6577 0.0
O259 O 0.64031 0.08408 0.72467 0.0
C260 C 0.57762 0.7407 0.70967 0.0
O261 O 0.58802 0.74515 0.66631 0.0
O262 O 0.52728 0.64057 0.71714 0.0
Zn263 Zn 0.56624 0.67799 0.69685 0.0
O264 O 0.56659 0.68109 0.62607 0.0
C265 C 0.60049 0.66412 0.76131 0.0
O266 O 0.58169 0.66666 0.79056 0.0
O267 O 0.56831 0.7147 0.72893 0.0
C268 C 0.56944 0.6609 0.60326 0.0
O269 O 0.57211 0.63985 0.62677 0.0
C270 C 0.50163 0.63935 0.72164 0.0
O271 O 0.49935 0.66356 0.71103 0.0
O272 O 0.5999 0.67034 0.71811 0.0
C273 C 0.80536 0.5082 0.71013 0.0
O274 O 0.8017 0.48185 0.69505 0.0
O275 O 0.86032 0.48529 0.71301 0.0
Zn276 Zn 0.86657 0.52561 0.68817 0.0
O277 O 0.86673 0.5252 0.61745 0.0
C278 C 0.91299 0.5614 0.75533 0.0
O279 O 0.89168 0.54212 0.78425 0.0
O280 O 0.83212 0.53157 0.71079 0.0
C281 C 0.86349 0.54526 0.59504 0.0
O282 O 0.86016 0.56584 0.61879 0.0
C283 C 0.88111 0.47833 0.70759 0.0
O284 O 0.9063 0.49754 0.68509 0.0
O285 O 0.90718 0.55944 0.71155 0.0
C286 C 0.25975 0.82705 0.71169 0.0
O287 O 0.2576 0.83443 0.66807 0.0
O288 O 0.35757 0.86056 0.73119 0.0
Zn289 Zn 0.32638 0.87007 0.70323 0.0
O290 O 0.32567 0.86702 0.63212 0.0
C291 C 0.36773 0.9328 0.71809 0.0
O292 O 0.38556 0.92338 0.69993 0.0
O293 O 0.28575 0.83978 0.73185 0.0
C294 C 0.31788 0.88322 0.60776 0.0
O295 O 0.30967 0.90103 0.62954 0.0
C296 C 0.37616 0.85555 0.70797 0.0
O297 O 0.37514 0.85541 0.66175 0.0
O298 O 0.33932 0.91362 0.72268 0.0
C299 C 0.41501 0.26622 0.7096 0.0
O300 O 0.40749 0.26418 0.66492 0.0
O301 O 0.47446 0.36423 0.72516 0.0
Zn302 Zn 0.43348 0.3314 0.70014 0.0
O303 O 0.43391 0.32827 0.62878 0.0
C304 C 0.41149 0.37179 0.72397 0.0
O305 O 0.44043 0.39156 0.71549 0.0
O306 O 0.42522 0.29181 0.73073 0.0
C307 C 0.43657 0.35021 0.60311 0.0
O308 O 0.43953 0.37502 0.62336 0.0
C309 C 0.4992 0.37985 0.70234 0.0
O310 O 0.50009 0.37429 0.65737 0.0
O311 O 0.40202 0.34317 0.72031 0.0
C312 C 0.39723 0.99218 0.17152 0.0
C313 C 0.39766 0.01478 0.20117 0.0
H314 H 0.3836 0.94482 0.16238 0.0
C315 C 0.38277 0.00586 0.24496 0.0
H316 H 0.40834 -0.00176 0.13745 0.0
C317 C 0.36866 0.97514 0.25942 0.0
C318 C 0.36899 0.95271 0.23022 0.0
H319 H 0.38266 0.02271 0.26861 0.0
H320 H 0.35798 0.96909 0.2938 0.0
C321 C 0.38298 0.9615 0.18581 0.0
C322 C 0.35881 0.35195 0.25908 0.0
C323 C 0.3717 0.34057 0.22654 0.0
H324 H 0.33906 0.38046 0.27036 0.0
C325 C 0.37059 0.34631 0.17837 0.0
H326 H 0.3591 0.34779 0.29644 0.0
C327 C 0.35907 0.36504 0.16341 0.0
C328 C 0.34851 0.37849 0.19633 0.0
H329 H 0.38007 0.33766 0.15234 0.0
H330 H 0.35995 0.37024 0.12625 0.0
C331 C 0.34738 0.37077 0.24413 0.0
C332 C 0.97869 0.34404 0.27424 0.0
C333 C 0.97744 0.3417 0.22485 0.0
H334 H 0.00674 0.36401 0.33514 0.0
C335 C 0.00501 0.35515 0.19936 0.0
H336 H 0.95789 0.33372 0.295 0.0
C337 C 0.03304 0.37262 0.2224 0.0
C338 C 0.03408 0.37693 0.27142 0.0
H339 H 0.00491 0.35361 0.16132 0.0
H340 H 0.05374 0.38394 0.20146 0.0
C341 C 0.00673 0.36145 0.29729 0.0
C342 C 0.61607 0.99302 0.24326 0.0
C343 C 0.58567 0.97678 0.2269 0.0
H344 H 0.65155 0.03487 0.27405 0.0
C345 C 0.56765 0.99084 0.22903 0.0
H346 H 0.63047 0.98273 0.24201 0.0
C347 C 0.57944 0.02019 0.24796 0.0
C348 C 0.60971 0.03646 0.26452 0.0
H349 H 0.54411 0.97894 0.21693 0.0
H350 H 0.56476 0.03018 0.24944 0.0
C351 C 0.62811 0.0228 0.26151 0.0
C352 C 0.61737 0.62413 0.25461 0.0
C353 C 0.6022 0.63315 0.22233 0.0
H354 H 0.63989 0.59815 0.26623 0.0
C355 C 0.60035 0.62433 0.17498 0.0
H356 H 0.61926 0.6306 0.29136 0.0
C357 C 0.61218 0.60576 0.1606 0.0
C358 C 0.62609 0.59555 0.19326 0.0
H359 H 0.58897 0.63101 0.14915 0.0
H360 H 0.60958 0.59871 0.12407 0.0
C361 C 0.62918 0.6055 0.24023 0.0
C362 C 0.01067 0.63133 0.26972 0.0
C363 C 0.01419 0.62464 0.22286 0.0
H364 H 0.98002 0.62157 0.32766 0.0
C365 C 0.98806 0.60403 0.19716 0.0
H366 H 0.03033 0.6472 0.29046 0.0
C367 C 0.95922 0.58941 0.21843 0.0
C368 C 0.95589 0.595 0.26596 0.0
H369 H 0.98993 0.59851 0.1609 0.0
H370 H 0.93971 0.57298 0.19798 0.0
C371 C 0.98182 0.61662 0.29107 0.0
C372 C 0.60341 0.98988 0.76537 0.0
C373 C 0.57212 0.97326 0.77698 0.0
H374 H 0.6407 0.03241 0.73972 0.0
C375 C 0.55421 0.98722 0.77087 0.0
H376 H 0.61776 0.97969 0.76979 0.0
C377 C 0.56713 0.01699 0.7531 0.0
C378 C 0.59841 0.03375 0.74172 0.0
H379 H 0.53 0.975 0.77924 0.0
H380 H 0.55258 0.02697 0.74868 0.0
C381 C 0.61652 0.02002 0.74829 0.0
C382 C 0.62771 0.62078 0.83722 0.0
C383 C 0.64061 0.61006 0.80362 0.0
H384 H 0.60533 0.64663 0.85033 0.0
C385 C 0.64365 0.62049 0.75695 0.0
H386 H 0.62531 0.61347 0.87359 0.0
C387 C 0.63222 0.63965 0.7436 0.0
C388 C 0.61751 0.64871 0.77667 0.0
H389 H 0.65367 0.61284 0.73026 0.0
H390 H 0.63366 0.64614 0.70694 0.0
C391 C 0.61629 0.63988 0.82389 0.0
C392 C 0.96754 0.60249 0.74173 0.0
C393 C 0.94427 0.58276 0.77284 0.0
H394 H 0.01533 0.6345 0.73229 0.0
C395 C 0.95162 0.58223 0.82041 0.0
H396 H 0.96261 0.60357 0.70489 0.0
C397 C 0.98182 0.5999 0.83607 0.0
C398 C 0.00533 0.61859 0.80455 0.0
H399 H 0.93423 0.56742 0.84537 0.0
H400 H 0.98683 0.59823 0.87267 0.0
C401 C -0.00223 0.62027 0.75744 0.0
C402 C 0.37644 0.00858 0.76008 0.0
C403 C 0.40809 0.02567 0.76906 0.0
H404 H 0.33858 0.96541 0.73738 0.0
C405 C 0.42608 0.01201 0.76087 0.0
H406 H 0.36203 0.01855 0.76614 0.0
C407 C 0.41286 0.98205 0.74382 0.0
C408 C 0.38122 0.96475 0.73528 0.0
H409 H 0.45056 0.0246 0.76717 0.0
H410 H 0.42749 0.97231 0.73788 0.0
C411 C 0.36304 0.97822 0.74375 0.0
C412 C 0.34617 0.37793 0.77898 0.0
C413 C 0.35525 0.40878 0.76921 0.0
H414 H 0.35673 0.34166 0.77173 0.0
C415 C 0.3816 0.4263 0.74185 0.0
H416 H 0.32592 0.36383 0.79986 0.0
C417 C 0.39924 0.41382 0.72646 0.0
C418 C 0.39084 0.38338 0.73742 0.0
H419 H 0.38929 0.4501 0.73346 0.0
H420 H 0.41982 0.42828 0.70643 0.0
C421 C 0.36373 0.36523 0.76286 0.0
C422 C 0.0027 0.3669 0.65589 0.0
C423 C 0.02709 0.38029 0.68816 0.0
H424 H 0.95425 0.33965 0.64606 0.0
C425 C 0.0211 0.37266 0.73608 0.0
H426 H 0.00657 0.372 0.61865 0.0
C427 C 0.99104 0.35403 0.75181 0.0
C428 C 0.96641 0.34269 0.71993 0.0
H429 H 0.03941 0.38234 0.76181 0.0
H430 H 0.98704 0.34992 0.78925 0.0
C431 C 0.97266 0.34829 0.67161 0.0
C432 C 0.41114 0.18138 0.26487 0.0
C433 C 0.43137 0.18932 0.22658 0.0
H434 H 0.39026 0.19668 0.31566 0.0
C435 C 0.44531 0.21944 0.20889 0.0
H436 H 0.39999 0.15834 0.27928 0.0
C437 C 0.43973 0.24133 0.22963 0.0
C438 C 0.42009 0.23366 0.26864 0.0
H439 H 0.46092 0.22632 0.17932 0.0
H440 H 0.45122 0.26443 0.21541 0.0
C441 C 0.40557 0.20335 0.28573 0.0
C442 C 0.2153 0.45204 0.25653 0.0
C443 C 0.21599 0.47904 0.27144 0.0
H444 H 0.24107 0.43135 0.23273 0.0
C445 C 0.24431 0.50647 0.27418 0.0
H446 H 0.19385 0.4305 0.25426 0.0
C447 C 0.27134 0.50698 0.26163 0.0
C448 C 0.27065 0.48003 0.24651 0.0
H449 H 0.24561 0.52766 0.28556 0.0
H450 H 0.29277 0.52856 0.2637 0.0
C451 C 0.24238 0.45249 0.24439 0.0
C452 C 0.76287 0.20632 0.25991 0.0
C453 C 0.75065 0.20782 0.30363 0.0
H454 H 0.80018 0.22836 0.21142 0.0
C455 C 0.76812 0.2331 0.33323 0.0
H456 H 0.75002 0.18712 0.23631 0.0
C457 C 0.79691 0.25667 0.31905 0.0
C458 C 0.80882 0.25555 0.27487 0.0
H459 H 0.75944 0.23491 0.36723 0.0
H460 H 0.80956 0.27603 0.34245 0.0
C461 C 0.79162 0.22997 0.24563 0.0
C462 C 0.56568 0.78264 0.2016 0.0
C463 C 0.57171 0.80922 0.22659 0.0
H464 H 0.56281 0.73876 0.20355 0.0
C465 C 0.58194 0.81255 0.27344 0.0
H466 H 0.55799 0.77943 0.16536 0.0
C467 C 0.58465 0.78912 0.29547 0.0
C468 C 0.57727 0.76194 0.27105 0.0
H469 H 0.58688 0.8328 0.29364 0.0
H470 H 0.59163 0.79195 0.33204 0.0
C471 C 0.56848 0.7593 0.22353 0.0
C472 C 0.74921 0.53526 0.24125 0.0
C473 C 0.72103 0.50768 0.23824 0.0
H474 H 0.79704 0.55656 0.25775 0.0
C475 C 0.71955 0.48003 0.25135 0.0
H476 H 0.75103 0.55691 0.23126 0.0
C477 C 0.7457 0.47986 0.2669 0.0
C478 C 0.77402 0.50729 0.26908 0.0
H479 H 0.69814 0.45841 0.24961 0.0
H480 H 0.74377 0.4581 0.27652 0.0
C481 C 0.77554 0.53504 0.25623 0.0
C482 C 0.22235 0.76653 0.20812 0.0
C483 C 0.19337 0.7512 0.22949 0.0
H484 H 0.26888 0.80283 0.21274 0.0
C485 C 0.189 0.76249 0.27234 0.0
H486 H 0.22647 0.75855 0.17498 0.0
C487 C 0.21342 0.78796 0.29413 0.0
C488 C 0.24266 0.80265 0.27346 0.0
H489 H 0.16691 0.75124 0.28967 0.0
H490 H 0.2095 0.79567 0.32765 0.0
C491 C 0.2467 0.79196 0.22981 0.0
C492 C 0.56052 0.75864 0.77945 0.0
C493 C 0.57413 0.76465 0.73463 0.0
H494 H 0.54364 0.77437 0.83562 0.0
C495 C 0.58284 0.79305 0.71314 0.0
H496 H 0.55362 0.73705 0.79714 0.0
C497 C 0.57715 0.81455 0.73536 0.0
C498 C 0.56255 0.80803 0.77944 0.0
H499 H 0.59345 0.79844 0.67869 0.0
H500 H 0.58351 0.83594 0.71742 0.0
C501 C 0.55476 0.78006 0.80155 0.0
C502 C 0.72511 0.48518 0.7496 0.0
C503 C 0.72742 0.51381 0.75803 0.0
H504 H 0.74779 0.46101 0.72763 0.0
C505 C 0.75561 0.54076 0.75032 0.0
H506 H 0.70369 0.46398 0.75508 0.0
C507 C 0.78106 0.53903 0.73493 0.0
C508 C 0.77867 0.51034 0.72645 0.0
H509 H 0.7581 0.56315 0.75664 0.0
H510 H 0.80255 0.56016 0.72948 0.0
C511 C 0.75039 0.48347 0.73375 0.0
C512 C 0.23614 0.79269 0.78128 0.0
C513 C 0.23284 0.80197 0.73602 0.0
H514 H 0.21543 0.76028 0.83715 0.0
C515 C 0.20418 0.78594 0.71356 0.0
H516 H 0.25782 0.8046 0.79978 0.0
C517 C 0.1797 0.76045 0.73523 0.0
C518 C 0.18349 0.75044 0.77963 0.0
H519 H 0.20084 0.79258 0.67876 0.0
H520 H 0.15813 0.74803 0.71654 0.0
C521 C 0.2118 0.76721 0.80275 0.0
C522 C 0.40616 0.21239 0.71013 0.0
C523 C 0.41501 0.24014 0.73392 0.0
H524 H 0.40319 0.16835 0.7119 0.0
C525 C 0.42585 0.24353 0.7804 0.0
H526 H 0.3976 0.20897 0.67437 0.0
C527 C 0.42913 0.22033 0.8018 0.0
C528 C 0.42155 0.19313 0.77734 0.0
H529 H 0.43271 0.26452 0.7999 0.0
H530 H 0.43838 0.22411 0.83717 0.0
C531 C 0.40934 0.18909 0.73166 0.0
C532 C 0.23312 0.51732 0.74399 0.0
C533 C 0.20789 0.48824 0.73395 0.0
H534 H 0.27937 0.5429 0.76841 0.0
C535 C 0.21046 0.46198 0.74134 0.0
H536 H 0.23185 0.53801 0.7388 0.0
C537 C 0.23787 0.46481 0.75798 0.0
C538 C 0.26309 0.49394 0.76802 0.0
H539 H 0.19142 0.43925 0.7338 0.0
H540 H 0.23925 0.44418 0.76313 0.0
C541 C 0.26036 0.52013 0.76108 0.0
C542 C 0.77451 0.22537 0.80019 0.0
C543 C 0.80181 0.24224 0.77464 0.0
H544 H 0.72764 0.18954 0.79923 0.0
C545 C 0.80266 0.23445 0.72734 0.0
H546 H 0.7731 0.23068 0.83674 0.0
C547 C 0.7765 0.21082 0.70573 0.0
C548 C 0.74899 0.19446 0.73101 0.0
H549 H 0.82336 0.24696 0.70668 0.0
H550 H 0.77774 0.20575 0.66902 0.0
C551 C 0.74842 0.20173 0.77866 0.0
C552 C 0.44484 0.12006 0.02247 0.0
C553 C 0.41783 0.10957 0.04886 0.0
H554 H 0.46518 0.12859 0.95394 0.0
C555 C 0.39004 0.09977 0.02493 0.0
H556 H 0.46664 0.12779 0.03981 0.0
C557 C 0.3892 0.1002 0.97578 0.0
C558 C 0.41613 0.11046 0.94935 0.0
H559 H 0.3688 0.09157 0.04413 0.0
H560 H 0.36734 0.09233 0.95855 0.0
C561 C 0.444 0.12053 0.97324 0.0
C562 C 0.33935 0.47388 0.97852 0.0
C563 C 0.31203 0.45682 0.95292 0.0
H564 H 0.36102 0.48465 0.04611 0.0
C565 C 0.28493 0.4372 0.97737 0.0
H566 H 0.36063 0.48923 0.96077 0.0
C567 C 0.28516 0.43459 0.02632 0.0
C568 C 0.31249 0.45153 0.05188 0.0
H569 H 0.26349 0.42376 0.95873 0.0
H570 H 0.26388 0.41918 0.04405 0.0
C571 C 0.33957 0.47126 0.02746 0.0
C572 C 0.92022 0.37207 0.97408 0.0
C573 C 0.90315 0.34468 0.94852 0.0
H574 H 0.9331 0.39338 0.04183 0.0
C575 C 0.8856 0.31704 0.97325 0.0
H576 H 0.93397 0.39376 0.95613 0.0
C577 C 0.88517 0.3168 0.02246 0.0
C578 C 0.9022 0.34422 0.048 0.0
H579 H 0.87219 0.29552 0.95462 0.0
H580 H 0.87141 0.29512 0.04045 0.0
C581 C 0.91971 0.37185 0.02325 0.0
C582 C 0.54517 0.87769 0.03008 0.0
C583 C 0.57363 0.89091 0.05326 0.0
H584 H 0.52141 0.86702 0.96405 0.0
C585 C 0.60051 0.90347 0.02611 0.0
H586 H 0.52401 0.8678 0.04995 0.0
C587 C 0.59902 0.90301 0.97699 0.0
C588 C 0.57061 0.88999 0.95375 0.0
H589 H 0.62282 0.91381 0.04276 0.0
H590 H 0.62023 0.91301 0.95726 0.0
C591 C 0.54367 0.87725 0.98084 0.0
C592 C 0.6554 0.52326 0.01993 0.0
C593 C 0.68115 0.54316 0.047 0.0
H594 H 0.63634 0.50918 0.95096 0.0
C595 C 0.7084 0.56395 0.02386 0.0
H596 H 0.63406 0.50695 0.03666 0.0
C597 C 0.70972 0.56522 0.97474 0.0
C598 C 0.68381 0.54574 0.94767 0.0
H599 H 0.72868 0.57954 0.04366 0.0
H600 H 0.73097 0.58177 0.95805 0.0
C601 C 0.65671 0.52455 0.97078 0.0
C602 C 0.10104 0.70877 0.98161 0.0
C603 C 0.10539 0.68729 0.95609 0.0
H604 H 0.09827 0.72584 0.04934 0.0
C605 C 0.11082 0.66628 0.98086 0.0
H606 H 0.09681 0.7253 0.96364 0.0
C607 C 0.11164 0.66659 0.03008 0.0
C608 C 0.10705 0.68792 0.0556 0.0
H609 H 0.11427 0.64943 0.96229 0.0
H610 H 0.11571 0.64997 0.04809 0.0
C611 C 0.10187 0.70908 0.0308 0.0
C612 C 0.8578 0.56636 0.51822 0.0
C613 C 0.86322 0.54533 0.54295 0.0
H614 H 0.85281 0.58266 0.45109 0.0
C615 C 0.86822 0.52428 0.51742 0.0
H616 H 0.85386 0.58288 0.53682 0.0
C617 C 0.86771 0.52422 0.46823 0.0
C618 C 0.86208 0.54512 0.44351 0.0
H619 H 0.87251 0.5078 0.53539 0.0
H620 H 0.87156 0.50764 0.44963 0.0
C621 C 0.85719 0.56623 0.46904 0.0
C622 C 0.32847 0.86465 0.53173 0.0
C623 C 0.31866 0.8827 0.55562 0.0
H624 H 0.33767 0.85088 0.46514 0.0
C625 C 0.31004 0.90079 0.52918 0.0
H626 H 0.33529 0.85046 0.55104 0.0
C627 C 0.31141 0.90104 0.48006 0.0
C628 C 0.32144 0.88321 0.45612 0.0
H629 H 0.30235 0.91496 0.5464 0.0
H630 H 0.30472 0.91538 0.4609 0.0
C631 C 0.32985 0.8649 0.48248 0.0
C632 C 0.43911 0.37269 0.52369 0.0
C633 C 0.43625 0.34811 0.55109 0.0
H634 H 0.44062 0.39034 0.45476 0.0
C635 C 0.43287 0.32176 0.52826 0.0
H636 H 0.44177 0.39335 0.54006 0.0
C637 C 0.43221 0.32003 0.47902 0.0
C638 C 0.43491 0.34462 0.45171 0.0
H639 H 0.43062 0.30243 0.54837 0.0
H640 H 0.42948 0.29941 0.46239 0.0
C641 C 0.43844 0.37096 0.47465 0.0
C642 C 0.12233 0.46365 0.51494 0.0
C643 C 0.13156 0.44623 0.54183 0.0
H644 H 0.11496 0.476 0.44603 0.0
C645 C 0.14113 0.42782 0.51848 0.0
H646 H 0.11479 0.47804 0.53185 0.0
C647 C 0.1412 0.42663 0.46937 0.0
C648 C 0.13167 0.44379 0.44245 0.0
H649 H 0.1484 0.41412 0.53812 0.0
H650 H 0.14859 0.4121 0.45256 0.0
C651 C 0.12235 0.46243 0.46575 0.0
C652 C 0.65467 0.12958 0.48179 0.0
C653 C 0.6662 0.1132 0.45735 0.0
H654 H 0.64485 0.1422 0.54884 0.0
C655 C 0.67661 0.09637 0.4832 0.0
H656 H 0.64649 0.1428 0.46293 0.0
C657 C 0.67559 0.09596 0.53235 0.0
C658 C 0.66427 0.11248 0.55685 0.0
H659 H 0.6856 0.08347 0.46551 0.0
H660 H 0.68386 0.08278 0.55111 0.0
C661 C 0.65378 0.12928 0.53104 0.0
C662 C 0.57497 0.63909 0.47763 0.0
C663 C 0.56874 0.65913 0.45166 0.0
H664 H 0.58001 0.62392 0.54555 0.0
C665 C 0.56303 0.68013 0.47599 0.0
H666 H 0.57946 0.62262 0.46006 0.0
C667 C 0.56348 0.68096 0.52526 0.0
C668 C 0.56947 0.6607 0.55115 0.0
H669 H 0.55821 0.69592 0.457 0.0
H670 H 0.55892 0.69732 0.54303 0.0
C671 C 0.57525 0.63981 0.52674 0.0
C672 C 0.55938 0.13747 0.20059 0.0
C673 C 0.53439 0.13599 0.22481 0.0
H674 H 0.60333 0.1409 0.2056 0.0
C675 C 0.53604 0.13923 0.27408 0.0
H676 H 0.55893 0.13521 0.16264 0.0
C677 C 0.56152 0.14255 0.29874 0.0
C678 C 0.58594 0.14269 0.27471 0.0
H679 H 0.51729 0.13841 0.29385 0.0
H680 H 0.56163 0.14407 0.33677 0.0
C681 C 0.58488 0.14079 0.22526 0.0
C682 C 0.45867 0.55704 0.29101 0.0
C683 C 0.47386 0.58746 0.27442 0.0
H684 H 0.42039 0.51156 0.28343 0.0
C685 C 0.461 0.59528 0.23669 0.0
H686 H 0.46793 0.55028 0.32006 0.0
C687 C 0.43387 0.57301 0.21542 0.0
C688 C 0.41885 0.54252 0.23169 0.0
H689 H 0.47217 0.6185 0.22299 0.0
H690 H 0.42475 0.5797 0.1861 0.0
C691 C 0.43139 0.53485 0.27002 0.0
C692 C 0.84556 0.42515 0.24272 0.0
C693 C 0.8732 0.44717 0.26379 0.0
H694 H 0.82063 0.38099 0.20964 0.0
C695 C 0.89726 0.44085 0.26776 0.0
H696 H 0.82657 0.42933 0.23915 0.0
C697 C 0.89388 0.41325 0.25083 0.0
C698 C 0.86633 0.39126 0.22956 0.0
H699 H 0.91885 0.45728 0.28376 0.0
H700 H 0.91297 0.40922 0.25439 0.0
C701 C 0.84216 0.39746 0.22578 0.0
C702 C 0.46731 0.8707 0.28555 0.0
C703 C 0.46401 0.86157 0.23807 0.0
H704 H 0.4473 0.88003 0.34517 0.0
C705 C 0.43614 0.8528 0.21514 0.0
H706 H 0.48847 0.87757 0.30434 0.0
C707 C 0.41249 0.85416 0.23864 0.0
C708 C 0.41624 0.86443 0.28556 0.0
H709 H 0.4328 0.84558 0.17865 0.0
H710 H 0.39157 0.84791 0.21956 0.0
C711 C 0.44371 0.87217 0.30899 0.0
C712 C 0.53446 0.44213 0.22285 0.0
C713 C 0.56536 0.45103 0.2301 0.0
H714 H 0.48762 0.4088 0.23623 0.0
C715 C 0.57249 0.43217 0.25761 0.0
H716 H 0.52817 0.45612 0.20189 0.0
C717 C 0.5492 0.40498 0.27737 0.0
C718 C 0.5183 0.39607 0.27006 0.0
H719 H 0.59609 0.43837 0.26392 0.0
H720 H 0.55546 0.39095 0.29832 0.0
C721 C 0.5112 0.41498 0.24262 0.0
C722 C 0.13209 0.59185 0.26913 0.0
C723 C 0.11889 0.58752 0.22414 0.0
H724 H 0.14605 0.57284 0.32479 0.0
C725 C 0.11047 0.56003 0.19993 0.0
H726 H 0.13887 0.61278 0.28874 0.0
C727 C 0.11466 0.53716 0.22057 0.0
C728 C 0.12727 0.54122 0.26596 0.0
H729 H 0.10031 0.55598 0.16518 0.0
H730 H 0.10759 0.5161 0.20115 0.0
C731 C 0.13618 0.56893 0.28985 0.0
C732 C 0.44905 0.85337 0.73132 0.0
C733 C 0.45089 0.85523 0.78074 0.0
H734 H 0.42394 0.85179 0.66957 0.0
C735 C 0.4267 0.85468 0.80606 0.0
H736 H 0.46722 0.8536 0.71072 0.0
C737 C 0.40192 0.85374 0.78243 0.0
C738 C 0.40072 0.85322 0.73294 0.0
H739 H 0.42734 0.85599 0.84413 0.0
H740 H 0.38411 0.85425 0.80301 0.0
C741 C 0.42421 0.85232 0.70769 0.0
C742 C 0.54903 0.43678 0.79589 0.0
C743 C 0.57582 0.45617 0.77064 0.0
H744 H 0.50401 0.3975 0.7943 0.0
C745 C 0.57761 0.44971 0.72294 0.0
H746 H 0.54691 0.44102 0.83269 0.0
C747 C 0.55296 0.42463 0.70083 0.0
C748 C 0.52601 0.40551 0.72598 0.0
H749 H 0.59798 0.46416 0.70249 0.0
H750 H 0.55492 0.42048 0.66393 0.0
C751 C 0.52442 0.41176 0.77383 0.0
C752 C 0.09659 0.55577 0.79034 0.0
C753 C 0.10799 0.58555 0.77226 0.0
H754 H 0.09175 0.51134 0.78081 0.0
C755 C 0.12404 0.59325 0.72934 0.0
H756 H 0.08414 0.54907 0.82329 0.0
C757 C 0.12825 0.57153 0.70478 0.0
C758 C 0.11667 0.54169 0.72273 0.0
H759 H 0.13308 0.61599 0.71437 0.0
H760 H 0.14057 0.57815 0.67171 0.0
C761 C 0.10095 0.53412 0.76593 0.0
C762 C 0.58055 0.1485 0.77623 0.0
C763 C 0.5808 0.14576 0.72698 0.0
H764 H 0.55587 0.14927 0.83696 0.0
C765 C 0.55636 0.14403 0.70074 0.0
H766 H 0.59912 0.15007 0.79751 0.0
C767 C 0.5315 0.1435 0.72341 0.0
C768 C 0.5306 0.1448 0.7728 0.0
H769 H 0.55588 0.14201 0.66275 0.0
H770 H 0.51257 0.14113 0.70222 0.0
C771 C 0.55575 0.14809 0.79888 0.0
C772 C 0.4539 0.56013 0.77461 0.0
C773 C 0.42458 0.5569 0.77599 0.0
H774 H 0.50101 0.58846 0.75619 0.0
C775 C 0.42073 0.58113 0.75949 0.0
H776 H 0.45768 0.5419 0.78692 0.0
C777 C 0.44573 0.60801 0.74188 0.0
C778 C 0.47499 0.61107 0.74015 0.0
H779 H 0.3984 0.57932 0.76007 0.0
H780 H 0.44207 0.62629 0.72938 0.0
C781 C 0.47877 0.58684 0.75679 0.0
C782 C 0.84754 0.40179 0.77127 0.0
C783 C 0.87062 0.39422 0.76496 0.0
H784 H 0.83268 0.43426 0.75806 0.0
C785 C 0.89699 0.41444 0.73936 0.0
H786 H 0.82693 0.38673 0.79077 0.0
C787 C 0.90029 0.44162 0.72065 0.0
C788 C 0.87729 0.44927 0.72703 0.0
H789 H 0.91523 0.40933 0.73377 0.0
H790 H 0.92095 0.45666 0.70125 0.0
C791 C 0.85083 0.42903 0.75248 0.0
loop_
_geom_bond_atom_site_label_1
_geom_bond_atom_site_label_2
_geom_bond_distance
_geom_bond_site_symmetry_2
_ccdc_geom_bond_type
C0 O1 1.160 . S
C0 O7 1.185 . S
O1 C0 1.160 . S
O2 Zn3 1.899 . S
O2 C10 1.284 . S
Zn3 O2 1.899 . S
Zn3 O4 2.032 . S
Zn3 O7 2.086 . S
Zn3 O12 1.977 . S
O4 Zn3 2.032 . S
O4 C8 1.278 . S
C5 O6 1.203 . S
C5 O12 1.267 . S
O6 C5 1.203 . S
O7 C0 1.185 . S
O7 Zn3 2.086 . S
C8 O4 1.278 . S
C8 O9 1.211 . S
O9 C8 1.211 . S
C10 O2 1.284 . S
C10 O11 1.273 . S
O11 C10 1.273 . S
O12 Zn3 1.977 . S
O12 C5 1.267 . S
C13 O14 1.160 . S
C13 O20 1.185 . S
O14 C13 1.160 . S
O15 Zn16 1.899 . S
O15 C23 1.284 . S
Zn16 O15 1.899 . S
Zn16 O17 2.032 . S
Zn16 O20 2.086 . S
Zn16 O25 1.977 . S
O17 Zn16 2.032 . S
O17 C21 1.278 . S
C18 O19 1.203 . S
C18 O25 1.267 . S
O19 C18 1.203 . S
O20 C13 1.185 . S
O20 Zn16 2.086 . S
C21 O17 1.278 . S
C21 O22 1.211 . S
O22 C21 1.211 . S
C23 O15 1.284 . S
C23 O24 1.273 . S
O24 C23 1.273 . S
O25 Zn16 1.977 . S
O25 C18 1.267 . S
C26 O27 1.160 . S
C26 O33 1.185 . S
O27 C26 1.160 . S
O28 Zn29 1.899 . S
O28 C36 1.284 . S
Zn29 O28 1.899 . S
Zn29 O30 2.032 . S
Zn29 O33 2.086 . S
Zn29 O38 1.977 . S
O30 Zn29 2.032 . S
O30 C34 1.278 . S
C31 O32 1.203 . S
C31 O38 1.267 . S
O32 C31 1.203 . S
O33 C26 1.185 . S
O33 Zn29 2.086 . S
C34 O30 1.278 . S
C34 O35 1.211 . S
O35 C34 1.211 . S
C36 O28 1.284 . S
C36 O37 1.273 . S
O37 C36 1.273 . S
O38 Zn29 1.977 . S
O38 C31 1.267 . S
C39 O40 1.160 . S
C39 O46 1.185 . S
O40 C39 1.160 . S
O41 Zn42 1.899 . S
O41 C49 1.284 . S
Zn42 O41 1.899 . S
Zn42 O43 2.032 . S
Zn42 O46 2.086 . S
Zn42 O51 1.977 . S
O43 Zn42 2.032 . S
O43 C47 1.278 . S
C44 O45 1.203 . S
C44 O51 1.267 . S
O45 C44 1.203 . S
O46 C39 1.185 . S
O46 Zn42 2.086 . S
C47 O43 1.278 . S
C47 O48 1.211 . S
O48 C47 1.211 . S
C49 O41 1.284 . S
C49 O50 1.273 . S
O50 C49 1.273 . S
O51 Zn42 1.977 . S
O51 C44 1.267 . S
C52 O53 1.160 . S
C52 O59 1.185 . S
O53 C52 1.160 . S
O54 Zn55 1.899 . S
O54 C62 1.284 . S
Zn55 O54 1.899 . S
Zn55 O56 2.032 . S
Zn55 O59 2.086 . S
Zn55 O64 1.977 . S
O56 Zn55 2.032 . S
O56 C60 1.278 . S
C57 O58 1.203 . S
C57 O64 1.267 . S
O58 C57 1.203 . S
O59 C52 1.185 . S
O59 Zn55 2.086 . S
C60 O56 1.278 . S
C60 O61 1.211 . S
O61 C60 1.211 . S
C62 O54 1.284 . S
C62 O63 1.273 . S
O63 C62 1.273 . S
O64 Zn55 1.977 . S
O64 C57 1.267 . S
C65 O66 1.160 . S
C65 O72 1.185 . S
O66 C65 1.160 . S
O67 Zn68 1.899 . S
O67 C75 1.284 . S
Zn68 O67 1.899 . S
Zn68 O69 2.032 . S
Zn68 O72 2.086 . S
Zn68 O77 1.977 . S
O69 Zn68 2.032 . S
O69 C73 1.278 . S
C70 O71 1.203 . S
C70 O77 1.267 . S
O71 C70 1.203 . S
O72 C65 1.185 . S
O72 Zn68 2.086 . S
C73 O69 1.278 . S
C73 O74 1.211 . S
O74 C73 1.211 . S
C75 O67 1.284 . S
C75 O76 1.273 . S
O76 C75 1.273 . S
O77 Zn68 1.977 . S
O77 C70 1.267 . S
C78 O79 1.160 . S
C78 O85 1.185 . S
O79 C78 1.160 . S
O80 Zn81 1.899 . S
O80 C88 1.284 . S
Zn81 O80 1.899 . S
Zn81 O82 2.032 . S
Zn81 O85 2.086 . S
Zn81 O90 1.977 . S
O82 Zn81 2.032 . S
O82 C86 1.278 . S
C83 O84 1.203 . S
C83 O90 1.267 . S
O84 C83 1.203 . S
O85 C78 1.185 . S
O85 Zn81 2.086 . S
C86 O82 1.278 . S
C86 O87 1.211 . S
O87 C86 1.211 . S
C88 O80 1.284 . S
C88 O89 1.273 . S
O89 C88 1.273 . S
O90 Zn81 1.977 . S
O90 C83 1.267 . S
C91 O92 1.160 . S
C91 O98 1.185 . S
O92 C91 1.160 . S
O93 Zn94 1.899 . S
O93 C101 1.284 . S
Zn94 O93 1.899 . S
Zn94 O95 2.032 . S
Zn94 O98 2.086 . S
Zn94 O103 1.977 . S
O95 Zn94 2.032 . S
O95 C99 1.278 . S
C96 O97 1.203 . S
C96 O103 1.267 . S
O97 C96 1.203 . S
O98 C91 1.185 . S
O98 Zn94 2.086 . S
C99 O95 1.278 . S
C99 O100 1.211 . S
O100 C99 1.211 . S
C101 O93 1.284 . S
C101 O102 1.273 . S
O102 C101 1.273 . S
O103 Zn94 1.977 . S
O103 C96 1.267 . S
C104 O105 1.160 . S
C104 O111 1.185 . S
O105 C104 1.160 . S
O106 Zn107 1.899 . S
O106 C114 1.284 . S
Zn107 O106 1.899 . S
Zn107 O108 2.032 . S
Zn107 O111 2.086 . S
Zn107 O116 1.977 . S
O108 Zn107 2.032 . S
O108 C112 1.278 . S
C109 O110 1.203 . S
C109 O116 1.267 . S
O110 C109 1.203 . S
O111 C104 1.185 . S
O111 Zn107 2.086 . S
C112 O108 1.278 . S
C112 O113 1.211 . S
O113 C112 1.211 . S
C114 O106 1.284 . S
C114 O115 1.273 . S
O115 C114 1.273 . S
O116 Zn107 1.977 . S
O116 C109 1.267 . S
C117 O118 1.160 . S
C117 O124 1.185 . S
O118 C117 1.160 . S
O119 Zn120 1.899 . S
O119 C127 1.284 . S
Zn120 O119 1.899 . S
Zn120 O121 2.032 . S
Zn120 O124 2.086 . S
Zn120 O129 1.977 . S
O121 Zn120 2.032 . S
O121 C125 1.278 . S
C122 O123 1.203 . S
C122 O129 1.267 . S
O123 C122 1.203 . S
O124 C117 1.185 . S
O124 Zn120 2.086 . S
C125 O121 1.278 . S
C125 O126 1.211 . S
O126 C125 1.211 . S
C127 O119 1.284 . S
C127 O128 1.273 . S
O128 C127 1.273 . S
O129 Zn120 1.977 . S
O129 C122 1.267 . S
C130 O131 1.160 . S
C130 O137 1.185 . S
O131 C130 1.160 . S
O132 Zn133 1.899 . S
O132 C140 1.284 . S
Zn133 O132 1.899 . S
Zn133 O134 2.032 . S
Zn133 O137 2.086 . S
Zn133 O142 1.977 . S
O134 Zn133 2.032 . S
O134 C138 1.278 . S
C135 O136 1.203 . S
C135 O142 1.267 . S
O136 C135 1.203 . S
O137 C130 1.185 . S
O137 Zn133 2.086 . S
C138 O134 1.278 . S
C138 O139 1.211 . S
O139 C138 1.211 . S
C140 O132 1.284 . S
C140 O141 1.273 . S
O141 C140 1.273 . S
O142 Zn133 1.977 . S
O142 C135 1.267 . S
C143 O144 1.160 . S
C143 O150 1.185 . S
O144 C143 1.160 . S
O145 Zn146 1.899 . S
O145 C153 1.284 . S
Zn146 O145 1.899 . S
Zn146 O147 2.032 . S
Zn146 O150 2.086 . S
Zn146 O155 1.977 . S
O147 Zn146 2.032 . S
O147 C151 1.278 . S
C148 O149 1.203 . S
C148 O155 1.267 . S
O149 C148 1.203 . S
O150 C143 1.185 . S
O150 Zn146 2.086 . S
C151 O147 1.278 . S
C151 O152 1.211 . S
O152 C151 1.211 . S
C153 O145 1.284 . S
C153 O154 1.273 . S
O154 C153 1.273 . S
O155 Zn146 1.977 . S
O155 C148 1.267 . S
C156 O157 1.160 . S
C156 O163 1.185 . S
O157 C156 1.160 . S
O158 Zn159 1.899 . S
O158 C166 1.284 . S
Zn159 O158 1.899 . S
Zn159 O160 2.032 . S
Zn159 O163 2.086 . S
Zn159 O168 1.977 . S
O160 Zn159 2.032 . S
O160 C164 1.278 . S
C161 O162 1.203 . S
C161 O168 1.267 . S
O162 C161 1.203 . S
O163 C156 1.185 . S
O163 Zn159 2.086 . S
C164 O160 1.278 . S
C164 O165 1.211 . S
O165 C164 1.211 . S
C166 O158 1.284 . S
C166 O167 1.273 . S
O167 C166 1.273 . S
O168 Zn159 1.977 . S
O168 C161 1.267 . S
C169 O170 1.160 . S
C169 O176 1.185 . S
O170 C169 1.160 . S
O171 Zn172 1.899 . S
O171 C179 1.284 . S
Zn172 O171 1.899 . S
Zn172 O173 2.032 . S
Zn172 O176 2.086 . S
Zn172 O181 1.977 . S
O173 Zn172 2.032 . S
O173 C177 1.278 . S
C174 O175 1.203 . S
C174 O181 1.267 . S
O175 C174 1.203 . S
O176 C169 1.185 . S
O176 Zn172 2.086 . S
C177 O173 1.278 . S
C177 O178 1.211 . S
O178 C177 1.211 . S
C179 O171 1.284 . S
C179 O180 1.273 . S
O180 C179 1.273 . S
O181 Zn172 1.977 . S
O181 C174 1.267 . S
C182 O183 1.160 . S
C182 O189 1.185 . S
O183 C182 1.160 . S
O184 Zn185 1.899 . S
O184 C192 1.284 . S
Zn185 O184 1.899 . S
Zn185 O186 2.032 . S
Zn185 O189 2.086 . S
Zn185 O194 1.977 . S
O186 Zn185 2.032 . S
O186 C190 1.278 . S
C187 O188 1.203 . S
C187 O194 1.267 . S
O188 C187 1.203 . S
O189 C182 1.185 . S
O189 Zn185 2.086 . S
C190 O186 1.278 . S
C190 O191 1.211 . S
O191 C190 1.211 . S
C192 O184 1.284 . S
C192 O193 1.273 . S
O193 C192 1.273 . S
O194 Zn185 1.977 . S
O194 C187 1.267 . S
C195 O196 1.160 . S
C195 O202 1.185 . S
O196 C195 1.160 . S
O197 Zn198 1.899 . S
O197 C205 1.284 . S
Zn198 O197 1.899 . S
Zn198 O199 2.032 . S
Zn198 O202 2.086 . S
Zn198 O207 1.977 . S
O199 Zn198 2.032 . S
O199 C203 1.278 . S
C200 O201 1.203 . S
C200 O207 1.267 . S
O201 C200 1.203 . S
O202 C195 1.185 . S
O202 Zn198 2.086 . S
C203 O199 1.278 . S
C203 O204 1.211 . S
O204 C203 1.211 . S
C205 O197 1.284 . S
C205 O206 1.273 . S
O206 C205 1.273 . S
O207 Zn198 1.977 . S
O207 C200 1.267 . S
C208 O209 1.160 . S
C208 O215 1.185 . S
O209 C208 1.160 . S
O210 Zn211 1.899 . S
O210 C218 1.284 . S
Zn211 O210 1.899 . S
Zn211 O212 2.032 . S
Zn211 O215 2.086 . S
Zn211 O220 1.977 . S
O212 Zn211 2.032 . S
O212 C216 1.278 . S
C213 O214 1.203 . S
C213 O220 1.267 . S
O214 C213 1.203 . S
O215 C208 1.185 . S
O215 Zn211 2.086 . S
C216 O212 1.278 . S
C216 O217 1.211 . S
O217 C216 1.211 . S
C218 O210 1.284 . S
C218 O219 1.273 . S
O219 C218 1.273 . S
O220 Zn211 1.977 . S
O220 C213 1.267 . S
C221 O222 1.160 . S
C221 O228 1.185 . S
O222 C221 1.160 . S
O223 Zn224 1.899 . S
O223 C231 1.284 . S
Zn224 O223 1.899 . S
Zn224 O225 2.032 . S
Zn224 O228 2.086 . S
Zn224 O233 1.977 . S
O225 Zn224 2.032 . S
O225 C229 1.278 . S
C226 O227 1.203 . S
C226 O233 1.267 . S
O227 C226 1.203 . S
O228 C221 1.185 . S
O228 Zn224 2.086 . S
C229 O225 1.278 . S
C229 O230 1.211 . S
O230 C229 1.211 . S
C231 O223 1.284 . S
C231 O232 1.273 . S
O232 C231 1.273 . S
O233 Zn224 1.977 . S
O233 C226 1.267 . S
C234 O235 1.160 . S
C234 O241 1.185 . S
O235 C234 1.160 . S
O236 Zn237 1.899 . S
O236 C244 1.284 . S
Zn237 O236 1.899 . S
Zn237 O238 2.032 . S
Zn237 O241 2.086 . S
Zn237 O246 1.977 . S
O238 Zn237 2.032 . S
O238 C242 1.278 . S
C239 O240 1.203 . S
C239 O246 1.267 . S
O240 C239 1.203 . S
O241 C234 1.185 . S
O241 Zn237 2.086 . S
C242 O238 1.278 . S
C242 O243 1.211 . S
O243 C242 1.211 . S
C244 O236 1.284 . S
C244 O245 1.273 . S
O245 C244 1.273 . S
O246 Zn237 1.977 . S
O246 C239 1.267 . S
C247 O248 1.160 . S
C247 O254 1.185 . S
O248 C247 1.160 . S
O249 Zn250 1.899 . S
O249 C257 1.284 . S
Zn250 O249 1.899 . S
Zn250 O251 2.032 . S
Zn250 O254 2.086 . S
Zn250 O259 1.977 . S
O251 Zn250 2.032 . S
O251 C255 1.278 . S
C252 O253 1.203 . S
C252 O259 1.267 . S
O253 C252 1.203 . S
O254 C247 1.185 . S
O254 Zn250 2.086 . S
C255 O251 1.278 . S
C255 O256 1.211 . S
O256 C255 1.211 . S
C257 O249 1.284 . S
C257 O258 1.273 . S
O258 C257 1.273 . S
O259 Zn250 1.977 . S
O259 C252 1.267 . S
C260 O261 1.160 . S
C260 O267 1.185 . S
O261 C260 1.160 . S
O262 Zn263 1.899 . S
O262 C270 1.284 . S
Zn263 O262 1.899 . S
Zn263 O264 2.032 . S
Zn263 O267 2.086 . S
Zn263 O272 1.977 . S
O264 Zn263 2.032 . S
O264 C268 1.278 . S
C265 O266 1.203 . S
C265 O272 1.267 . S
O266 C265 1.203 . S
O267 C260 1.185 . S
O267 Zn263 2.086 . S
C268 O264 1.278 . S
C268 O269 1.211 . S
O269 C268 1.211 . S
C270 O262 1.284 . S
C270 O271 1.273 . S
O271 C270 1.273 . S
O272 Zn263 1.977 . S
O272 C265 1.267 . S
C273 O274 1.160 . S
C273 O280 1.185 . S
O274 C273 1.160 . S
O275 Zn276 1.899 . S
O275 C283 1.284 . S
Zn276 O275 1.899 . S
Zn276 O277 2.032 . S
Zn276 O280 2.086 . S
Zn276 O285 1.977 . S
O277 Zn276 2.032 . S
O277 C281 1.278 . S
C278 O279 1.203 . S
C278 O285 1.267 . S
O279 C278 1.203 . S
O280 C273 1.185 . S
O280 Zn276 2.086 . S
C281 O277 1.278 . S
C281 O282 1.211 . S
O282 C281 1.211 . S
C283 O275 1.284 . S
C283 O284 1.273 . S
O284 C283 1.273 . S
O285 Zn276 1.977 . S
O285 C278 1.267 . S
C286 O287 1.160 . S
C286 O293 1.185 . S
O287 C286 1.160 . S
O288 Zn289 1.899 . S
O288 C296 1.284 . S
Zn289 O288 1.899 . S
Zn289 O290 2.032 . S
Zn289 O293 2.086 . S
Zn289 O298 1.977 . S
O290 Zn289 2.032 . S
O290 C294 1.278 . S
C291 O292 1.203 . S
C291 O298 1.267 . S
O292 C291 1.203 . S
O293 C286 1.185 . S
O293 Zn289 2.086 . S
C294 O290 1.278 . S
C294 O295 1.211 . S
O295 C294 1.211 . S
C296 O288 1.284 . S
C296 O297 1.273 . S
O297 C296 1.273 . S
O298 Zn289 1.977 . S
O298 C291 1.267 . S
C299 O300 1.160 . S
C299 O306 1.185 . S
O300 C299 1.160 . S
O301 Zn302 1.899 . S
O301 C309 1.284 . S
Zn302 O301 1.899 . S
Zn302 O303 2.032 . S
Zn302 O306 2.086 . S
Zn302 O311 1.977 . S
O303 Zn302 2.032 . S
O303 C307 1.278 . S
C304 O305 1.203 . S
C304 O311 1.267 . S
O305 C304 1.203 . S
O306 C299 1.185 . S
O306 Zn302 2.086 . S
C307 O303 1.278 . S
C307 O308 1.211 . S
O308 C307 1.211 . S
C309 O301 1.284 . S
C309 O310 1.273 . S
O310 C309 1.273 . S
O311 Zn302 1.977 . S
O311 C304 1.267 . S
C312 C313 1.387 . S
C312 H316 0.950 . S
C312 C321 1.390 1_545 S
C313 C312 1.387 . S
C313 C315 1.387 . S
H314 C321 0.950 . S
C315 C313 1.387 . S
C315 C317 1.390 1_545 S
C315 H319 0.950 . S
H316 C312 0.950 . S
C317 C315 1.390 1_565 S
C317 C318 1.387 . S
C317 H320 0.950 . S
C318 C317 1.387 . S
C318 C321 1.387 . S
H319 C315 0.950 . S
H320 C317 0.950 . S
C321 C312 1.390 1_565 S
C321 H314 0.950 . S
C321 C318 1.387 . S
C322 C323 1.387 . S
C322 H326 0.950 . S
C322 C331 1.390 . S
C323 C322 1.387 . S
C323 C325 1.387 . S
H324 C331 0.950 . S
C325 C323 1.387 . S
C325 C327 1.390 . S
C325 H329 0.950 . S
H326 C322 0.950 . S
C327 C325 1.390 . S
C327 C328 1.387 . S
C327 H330 0.950 . S
C328 C327 1.387 . S
C328 C331 1.387 . S
H329 C325 0.950 . S
H330 C327 0.950 . S
C331 C322 1.390 . S
C331 H324 0.950 . S
C331 C328 1.387 . S
C332 C333 1.387 . S
C332 H336 0.950 . S
C332 C341 1.390 1_655 S
C333 C332 1.387 . S
C333 C335 1.387 . S
H334 C341 0.950 . S
C335 C333 1.387 . S
C335 C337 1.390 1_655 S
C335 H339 0.950 . S
H336 C332 0.950 . S
C337 C335 1.390 1_455 S
C337 C338 1.387 . S
C337 H340 0.950 . S
C338 C337 1.387 . S
C338 C341 1.387 . S
H339 C335 0.950 . S
H340 C337 0.950 . S
C341 C332 1.390 1_455 S
C341 H334 0.950 . S
C341 C338 1.387 . S
C342 C343 1.387 . S
C342 H346 0.950 . S
C342 C351 1.390 1_565 S
C343 C342 1.387 . S
C343 C345 1.387 . S
H344 C351 0.950 . S
C345 C343 1.387 . S
C345 C347 1.390 1_565 S
C345 H349 0.950 . S
H346 C342 0.950 . S
C347 C345 1.390 1_545 S
C347 C348 1.387 . S
C347 H350 0.950 . S
C348 C347 1.387 . S
C348 C351 1.387 . S
H349 C345 0.950 . S
H350 C347 0.950 . S
C351 C342 1.390 1_545 S
C351 H344 0.950 . S
C351 C348 1.387 . S
C352 C353 1.387 . S
C352 H356 0.950 . S
C352 C361 1.390 . S
C353 C352 1.387 . S
C353 C355 1.387 . S
H354 C361 0.950 . S
C355 C353 1.387 . S
C355 C357 1.390 . S
C355 H359 0.950 . S
H356 C352 0.950 . S
C357 C355 1.390 . S
C357 C358 1.387 . S
C357 H360 0.950 . S
C358 C357 1.387 . S
C358 C361 1.387 . S
H359 C355 0.950 . S
H360 C357 0.950 . S
C361 C352 1.390 . S
C361 H354 0.950 . S
C361 C358 1.387 . S
C362 C363 1.387 . S
C362 H366 0.950 . S
C362 C371 1.390 1_455 S
C363 C362 1.387 . S
C363 C365 1.387 . S
H364 C371 0.950 . S
C365 C363 1.387 . S
C365 C367 1.390 1_455 S
C365 H369 0.950 . S
H366 C362 0.950 . S
C367 C365 1.390 1_655 S
C367 C368 1.387 . S
C367 H370 0.950 . S
C368 C367 1.387 . S
C368 C371 1.387 . S
H369 C365 0.950 . S
H370 C367 0.950 . S
C371 C362 1.390 1_655 S
C371 H364 0.950 . S
C371 C368 1.387 . S
C372 C373 1.387 . S
C372 H376 0.950 . S
C372 C381 1.390 1_565 S
C373 C372 1.387 . S
C373 C375 1.387 . S
H374 C381 0.950 . S
C375 C373 1.387 . S
C375 C377 1.390 1_565 S
C375 H379 0.950 . S
H376 C372 0.950 . S
C377 C375 1.390 1_545 S
C377 C378 1.387 . S
C377 H380 0.950 . S
C378 C377 1.387 . S
C378 C381 1.387 . S
H379 C375 0.950 . S
H380 C377 0.950 . S
C381 C372 1.390 1_545 S
C381 H374 0.950 . S
C381 C378 1.387 . S
C382 C383 1.387 . S
C382 H386 0.950 . S
C382 C391 1.390 . S
C383 C382 1.387 . S
C383 C385 1.387 . S
H384 C391 0.950 . S
C385 C383 1.387 . S
C385 C387 1.390 . S
C385 H389 0.950 . S
H386 C382 0.950 . S
C387 C385 1.390 . S
C387 C388 1.387 . S
C387 H390 0.950 . S
C388 C387 1.387 . S
C388 C391 1.387 . S
H389 C385 0.950 . S
H390 C387 0.950 . S
C391 C382 1.390 . S
C391 H384 0.950 . S
C391 C388 1.387 . S
C392 C393 1.387 . S
C392 H396 0.950 . S
C392 C401 1.390 1_655 S
C393 C392 1.387 . S
C393 C395 1.387 . S
H394 C401 0.950 . S
C395 C393 1.387 . S
C395 C397 1.390 1_655 S
C395 H399 0.950 . S
H396 C392 0.950 . S
C397 C395 1.390 1_455 S
C397 C398 1.387 . S
C397 H400 0.950 . S
C398 C397 1.387 . S
C398 C401 1.387 . S
H399 C395 0.950 . S
H400 C397 0.950 . S
C401 C392 1.390 1_455 S
C401 H394 0.950 . S
C401 C398 1.387 . S
C402 C403 1.387 . S
C402 H406 0.950 . S
C402 C411 1.390 1_545 S
C403 C402 1.387 . S
C403 C405 1.387 . S
H404 C411 0.950 . S
C405 C403 1.387 . S
C405 C407 1.390 1_545 S
C405 H409 0.950 . S
H406 C402 0.950 . S
C407 C405 1.390 1_565 S
C407 C408 1.387 . S
C407 H410 0.950 . S
C408 C407 1.387 . S
C408 C411 1.387 . S
H409 C405 0.950 . S
H410 C407 0.950 . S
C411 C402 1.390 1_565 S
C411 H404 0.950 . S
C411 C408 1.387 . S
C412 C413 1.387 . S
C412 H416 0.950 . S
C412 C421 1.390 . S
C413 C412 1.387 . S
C413 C415 1.387 . S
H414 C421 0.950 . S
C415 C413 1.387 . S
C415 C417 1.390 . S
C415 H419 0.950 . S
H416 C412 0.950 . S
C417 C415 1.390 . S
C417 C418 1.387 . S
C417 H420 0.950 . S
C418 C417 1.387 . S
C418 C421 1.387 . S
H419 C415 0.950 . S
H420 C417 0.950 . S
C421 C412 1.390 . S
C421 H414 0.950 . S
C421 C418 1.387 . S
C422 C423 1.387 . S
C422 H426 0.950 . S
C422 C431 1.390 1_455 S
C423 C422 1.387 . S
C423 C425 1.387 . S
H424 C431 0.950 . S
C425 C423 1.387 . S
C425 C427 1.390 1_455 S
C425 H429 0.950 . S
H426 C422 0.950 . S
C427 C425 1.390 1_655 S
C427 C428 1.387 . S
C427 H430 0.950 . S
C428 C427 1.387 . S
C428 C431 1.387 . S
H429 C425 0.950 . S
H430 C427 0.950 . S
C431 C422 1.390 1_655 S
C431 H424 0.950 . S
C431 C428 1.387 . S
C432 C433 1.387 . S
C432 H436 0.950 . S
C432 C441 1.390 . S
C433 C432 1.387 . S
C433 C435 1.387 . S
H434 C441 0.950 . S
C435 C433 1.387 . S
C435 C437 1.390 . S
C435 H439 0.950 . S
H436 C432 0.950 . S
C437 C435 1.390 . S
C437 C438 1.387 . S
C437 H440 0.950 . S
C438 C437 1.387 . S
C438 C441 1.387 . S
H439 C435 0.950 . S
H440 C437 0.950 . S
C441 C432 1.390 . S
C441 H434 0.950 . S
C441 C438 1.387 . S
C442 C443 1.387 . S
C442 H446 0.950 . S
C442 C451 1.390 . S
C443 C442 1.387 . S
C443 C445 1.387 . S
H444 C451 0.950 . S
C445 C443 1.387 . S
C445 C447 1.390 . S
C445 H449 0.950 . S
H446 C442 0.950 . S
C447 C445 1.390 . S
C447 C448 1.387 . S
C447 H450 0.950 . S
C448 C447 1.387 . S
C448 C451 1.387 . S
H449 C445 0.950 . S
H450 C447 0.950 . S
C451 C442 1.390 . S
C451 H444 0.950 . S
C451 C448 1.387 . S
C452 C453 1.387 . S
C452 H456 0.950 . S
C452 C461 1.390 . S
C453 C452 1.387 . S
C453 C455 1.387 . S
H454 C461 0.950 . S
C455 C453 1.387 . S
C455 C457 1.390 . S
C455 H459 0.950 . S
H456 C452 0.950 . S
C457 C455 1.390 . S
C457 C458 1.387 . S
C457 H460 0.950 . S
C458 C457 1.387 . S
C458 C461 1.387 . S
H459 C455 0.950 . S
H460 C457 0.950 . S
C461 C452 1.390 . S
C461 H454 0.950 . S
C461 C458 1.387 . S
C462 C463 1.387 . S
C462 H466 0.950 . S
C462 C471 1.390 . S
C463 C462 1.387 . S
C463 C465 1.387 . S
H464 C471 0.950 . S
C465 C463 1.387 . S
C465 C467 1.390 . S
C465 H469 0.950 . S
H466 C462 0.950 . S
C467 C465 1.390 . S
C467 C468 1.387 . S
C467 H470 0.950 . S
C468 C467 1.387 . S
C468 C471 1.387 . S
H469 C465 0.950 . S
H470 C467 0.950 . S
C471 C462 1.390 . S
C471 H464 0.950 . S
C471 C468 1.387 . S
C472 C473 1.387 . S
C472 H476 0.950 . S
C472 C481 1.390 . S
C473 C472 1.387 . S
C473 C475 1.387 . S
H474 C481 0.950 . S
C475 C473 1.387 . S
C475 C477 1.390 . S
C475 H479 0.950 . S
H476 C472 0.950 . S
C477 C475 1.390 . S
C477 C478 1.387 . S
C477 H480 0.950 . S
C478 C477 1.387 . S
C478 C481 1.387 . S
H479 C475 0.950 . S
H480 C477 0.950 . S
C481 C472 1.390 . S
C481 H474 0.950 . S
C481 C478 1.387 . S
C482 C483 1.387 . S
C482 H486 0.950 . S
C482 C491 1.390 . S
C483 C482 1.387 . S
C483 C485 1.387 . S
H484 C491 0.950 . S
C485 C483 1.387 . S
C485 C487 1.390 . S
C485 H489 0.950 . S
H486 C482 0.950 . S
C487 C485 1.390 . S
C487 C488 1.387 . S
C487 H490 0.950 . S
C488 C487 1.387 . S
C488 C491 1.387 . S
H489 C485 0.950 . S
H490 C487 0.950 . S
C491 C482 1.390 . S
C491 H484 0.950 . S
C491 C488 1.387 . S
C492 C493 1.387 . S
C492 H496 0.950 . S
C492 C501 1.390 . S
C493 C492 1.387 . S
C493 C495 1.387 . S
H494 C501 0.950 . S
C495 C493 1.387 . S
C495 C497 1.390 . S
C495 H499 0.950 . S
H496 C492 0.950 . S
C497 C495 1.390 . S
C497 C498 1.387 . S
C497 H500 0.950 . S
C498 C497 1.387 . S
C498 C501 1.387 . S
H499 C495 0.950 . S
H500 C497 0.950 . S
C501 C492 1.390 . S
C501 H494 0.950 . S
C501 C498 1.387 . S
C502 C503 1.387 . S
C502 H506 0.950 . S
C502 C511 1.390 . S
C503 C502 1.387 . S
C503 C505 1.387 . S
H504 C511 0.950 . S
C505 C503 1.387 . S
C505 C507 1.390 . S
C505 H509 0.950 . S
H506 C502 0.950 . S
C507 C505 1.390 . S
C507 C508 1.387 . S
C507 H510 0.950 . S
C508 C507 1.387 . S
C508 C511 1.387 . S
H509 C505 0.950 . S
H510 C507 0.950 . S
C511 C502 1.390 . S
C511 H504 0.950 . S
C511 C508 1.387 . S
C512 C513 1.387 . S
C512 H516 0.950 . S
C512 C521 1.390 . S
C513 C512 1.387 . S
C513 C515 1.387 . S
H514 C521 0.950 . S
C515 C513 1.387 . S
C515 C517 1.390 . S
C515 H519 0.950 . S
H516 C512 0.950 . S
C517 C515 1.390 . S
C517 C518 1.387 . S
C517 H520 0.950 . S
C518 C517 1.387 . S
C518 C521 1.387 . S
H519 C515 0.950 . S
H520 C517 0.950 . S
C521 C512 1.390 . S
C521 H514 0.950 . S
C521 C518 1.387 . S
C522 C523 1.387 . S
C522 H526 0.950 . S
C522 C531 1.390 . S
C523 C522 1.387 . S
C523 C525 1.387 . S
H524 C531 0.950 . S
C525 C523 1.387 . S
C525 C527 1.390 . S
C525 H529 0.950 . S
H526 C522 0.950 . S
C527 C525 1.390 . S
C527 C528 1.387 . S
C527 H530 0.950 . S
C528 C527 1.387 . S
C528 C531 1.387 . S
H529 C525 0.950 . S
H530 C527 0.950 . S
C531 C522 1.390 . S
C531 H524 0.950 . S
C531 C528 1.387 . S
C532 C533 1.387 . S
C532 H536 0.950 . S
C532 C541 1.390 . S
C533 C532 1.387 . S
C533 C535 1.387 . S
H534 C541 0.950 . S
C535 C533 1.387 . S
C535 C537 1.390 . S
C535 H539 0.950 . S
H536 C532 0.950 . S
C537 C535 1.390 . S
C537 C538 1.387 . S
C537 H540 0.950 . S
C538 C537 1.387 . S
C538 C541 1.387 . S
H539 C535 0.950 . S
H540 C537 0.950 . S
C541 C532 1.390 . S
C541 H534 0.950 . S
C541 C538 1.387 . S
C542 C543 1.387 . S
C542 H546 0.950 . S
C542 C551 1.390 . S
C543 C542 1.387 . S
C543 C545 1.387 . S
H544 C551 0.950 . S
C545 C543 1.387 . S
C545 C547 1.390 . S
C545 H549 0.950 . S
H546 C542 0.950 . S
C547 C545 1.390 . S
C547 C548 1.387 . S
C547 H550 0.950 . S
C548 C547 1.387 . S
C548 C551 1.387 . S
H549 C545 0.950 . S
H550 C547 0.950 . S
C551 C542 1.390 . S
C551 H544 0.950 . S
C551 C548 1.387 . S
C552 C553 1.387 . S
C552 H556 0.950 . S
C552 C561 1.390 1_554 S
C553 C552 1.387 . S
C553 C555 1.387 . S
H554 C561 0.950 . S
C555 C553 1.387 . S
C555 C557 1.390 1_554 S
C555 H559 0.950 . S
H556 C552 0.950 . S
C557 C555 1.390 1_556 S
C557 C558 1.387 . S
C557 H560 0.950 . S
C558 C557 1.387 . S
C558 C561 1.387 . S
H559 C555 0.950 . S
H560 C557 0.950 . S
C561 C552 1.390 1_556 S
C561 H554 0.950 . S
C561 C558 1.387 . S
C562 C563 1.387 . S
C562 H566 0.950 . S
C562 C571 1.390 1_556 S
C563 C562 1.387 . S
C563 C565 1.387 . S
H564 C571 0.950 . S
C565 C563 1.387 . S
C565 C567 1.390 1_556 S
C565 H569 0.950 . S
H566 C562 0.950 . S
C567 C565 1.390 1_554 S
C567 C568 1.387 . S
C567 H570 0.950 . S
C568 C567 1.387 . S
C568 C571 1.387 . S
H569 C565 0.950 . S
H570 C567 0.950 . S
C571 C562 1.390 1_554 S
C571 H564 0.950 . S
C571 C568 1.387 . S
C572 C573 1.387 . S
C572 H576 0.950 . S
C572 C581 1.390 1_556 S
C573 C572 1.387 . S
C573 C575 1.387 . S
H574 C581 0.950 . S
C575 C573 1.387 . S
C575 C577 1.390 1_556 S
C575 H579 0.950 . S
H576 C572 0.950 . S
C577 C575 1.390 1_554 S
C577 C578 1.387 . S
C577 H580 0.950 . S
C578 C577 1.387 . S
C578 C581 1.387 . S
H579 C575 0.950 . S
H580 C577 0.950 . S
C581 C572 1.390 1_554 S
C581 H574 0.950 . S
C581 C578 1.387 . S
C582 C583 1.387 . S
C582 H586 0.950 . S
C582 C591 1.390 1_554 S
C583 C582 1.387 . S
C583 C585 1.387 . S
H584 C591 0.950 . S
C585 C583 1.387 . S
C585 C587 1.390 1_554 S
C585 H589 0.950 . S
H586 C582 0.950 . S
C587 C585 1.390 1_556 S
C587 C588 1.387 . S
C587 H590 0.950 . S
C588 C587 1.387 . S
C588 C591 1.387 . S
H589 C585 0.950 . S
H590 C587 0.950 . S
C591 C582 1.390 1_556 S
C591 H584 0.950 . S
C591 C588 1.387 . S
C592 C593 1.387 . S
C592 H596 0.950 . S
C592 C601 1.390 1_554 S
C593 C592 1.387 . S
C593 C595 1.387 . S
H594 C601 0.950 . S
C595 C593 1.387 . S
C595 C597 1.390 1_554 S
C595 H599 0.950 . S
H596 C592 0.950 . S
C597 C595 1.390 1_556 S
C597 C598 1.387 . S
C597 H600 0.950 . S
C598 C597 1.387 . S
C598 C601 1.387 . S
H599 C595 0.950 . S
H600 C597 0.950 . S
C601 C592 1.390 1_556 S
C601 H594 0.950 . S
C601 C598 1.387 . S
C602 C603 1.387 . S
C602 H606 0.950 . S
C602 C611 1.390 1_556 S
C603 C602 1.387 . S
C603 C605 1.387 . S
H604 C611 0.950 . S
C605 C603 1.387 . S
C605 C607 1.390 1_556 S
C605 H609 0.950 . S
H606 C602 0.950 . S
C607 C605 1.390 1_554 S
C607 C608 1.387 . S
C607 H610 0.950 . S
C608 C607 1.387 . S
C608 C611 1.387 . S
H609 C605 0.950 . S
H610 C607 0.950 . S
C611 C602 1.390 1_554 S
C611 H604 0.950 . S
C611 C608 1.387 . S
C612 C613 1.387 . S
C612 H616 0.950 . S
C612 C621 1.390 . S
C613 C612 1.387 . S
C613 C615 1.387 . S
H614 C621 0.950 . S
C615 C613 1.387 . S
C615 C617 1.390 . S
C615 H619 0.950 . S
H616 C612 0.950 . S
C617 C615 1.390 . S
C617 C618 1.387 . S
C617 H620 0.950 . S
C618 C617 1.387 . S
C618 C621 1.387 . S
H619 C615 0.950 . S
H620 C617 0.950 . S
C621 C612 1.390 . S
C621 H614 0.950 . S
C621 C618 1.387 . S
C622 C623 1.387 . S
C622 H626 0.950 . S
C622 C631 1.390 . S
C623 C622 1.387 . S
C623 C625 1.387 . S
H624 C631 0.950 . S
C625 C623 1.387 . S
C625 C627 1.390 . S
C625 H629 0.950 . S
H626 C622 0.950 . S
C627 C625 1.390 . S
C627 C628 1.387 . S
C627 H630 0.950 . S
C628 C627 1.387 . S
C628 C631 1.387 . S
H629 C625 0.950 . S
H630 C627 0.950 . S
C631 C622 1.390 . S
C631 H624 0.950 . S
C631 C628 1.387 . S
C632 C633 1.387 . S
C632 H636 0.950 . S
C632 C641 1.390 . S
C633 C632 1.387 . S
C633 C635 1.387 . S
H634 C641 0.950 . S
C635 C633 1.387 . S
C635 C637 1.390 . S
C635 H639 0.950 . S
H636 C632 0.950 . S
C637 C635 1.390 . S
C637 C638 1.387 . S
C637 H640 0.950 . S
C638 C637 1.387 . S
C638 C641 1.387 . S
H639 C635 0.950 . S
H640 C637 0.950 . S
C641 C632 1.390 . S
C641 H634 0.950 . S
C641 C638 1.387 . S
C642 C643 1.387 . S
C642 H646 0.950 . S
C642 C651 1.390 . S
C643 C642 1.387 . S
C643 C645 1.387 . S
H644 C651 0.950 . S
C645 C643 1.387 . S
C645 C647 1.390 . S
C645 H649 0.950 . S
H646 C642 0.950 . S
C647 C645 1.390 . S
C647 C648 1.387 . S
C647 H650 0.950 . S
C648 C647 1.387 . S
C648 C651 1.387 . S
H649 C645 0.950 . S
H650 C647 0.950 . S
C651 C642 1.390 . S
C651 H644 0.950 . S
C651 C648 1.387 . S
C652 C653 1.387 . S
C652 H656 0.950 . S
C652 C661 1.390 . S
C653 C652 1.387 . S
C653 C655 1.387 . S
H654 C661 0.950 . S
C655 C653 1.387 . S
C655 C657 1.390 . S
C655 H659 0.950 . S
H656 C652 0.950 . S
C657 C655 1.390 . S
C657 C658 1.387 . S
C657 H660 0.950 . S
C658 C657 1.387 . S
C658 C661 1.387 . S
H659 C655 0.950 . S
H660 C657 0.950 . S
C661 C652 1.390 . S
C661 H654 0.950 . S
C661 C658 1.387 . S
C662 C663 1.387 . S
C662 H666 0.950 . S
C662 C671 1.390 . S
C663 C662 1.387 . S
C663 C665 1.387 . S
H664 C671 0.950 . S
C665 C663 1.387 . S
C665 C667 1.390 . S
C665 H669 0.950 . S
H666 C662 0.950 . S
C667 C665 1.390 . S
C667 C668 1.387 . S
C667 H670 0.950 . S
C668 C667 1.387 . S
C668 C671 1.387 . S
H669 C665 0.950 . S
H670 C667 0.950 . S
C671 C662 1.390 . S
C671 H664 0.950 . S
C671 C668 1.387 . S
C672 C673 1.387 . S
C672 H676 0.950 . S
C672 C681 1.390 . S
C673 C672 1.387 . S
C673 C675 1.387 . S
H674 C681 0.950 . S
C675 C673 1.387 . S
C675 C677 1.390 . S
C675 H679 0.950 . S
H676 C672 0.950 . S
C677 C675 1.390 . S
C677 C678 1.387 . S
C677 H680 0.950 . S
C678 C677 1.387 . S
C678 C681 1.387 . S
H679 C675 0.950 . S
H680 C677 0.950 . S
C681 C672 1.390 . S
C681 H674 0.950 . S
C681 C678 1.387 . S
C682 C683 1.387 . S
C682 H686 0.950 . S
C682 C691 1.390 . S
C683 C682 1.387 . S
C683 C685 1.387 . S
H684 C691 0.950 . S
C685 C683 1.387 . S
C685 C687 1.390 . S
C685 H689 0.950 . S
H686 C682 0.950 . S
C687 C685 1.390 . S
C687 C688 1.387 . S
C687 H690 0.950 . S
C688 C687 1.387 . S
C688 C691 1.387 . S
H689 C685 0.950 . S
H690 C687 0.950 . S
C691 C682 1.390 . S
C691 H684 0.950 . S
C691 C688 1.387 . S
C692 C693 1.387 . S
C692 H696 0.950 . S
C692 C701 1.390 . S
C693 C692 1.387 . S
C693 C695 1.387 . S
H694 C701 0.950 . S
C695 C693 1.387 . S
C695 C697 1.390 . S
C695 H699 0.950 . S
H696 C692 0.950 . S
C697 C695 1.390 . S
C697 C698 1.387 . S
C697 H700 0.950 . S
C698 C697 1.387 . S
C698 C701 1.387 . S
H699 C695 0.950 . S
H700 C697 0.950 . S
C701 C692 1.390 . S
C701 H694 0.950 . S
C701 C698 1.387 . S
C702 C703 1.387 . S
C702 H706 0.950 . S
C702 C711 1.390 . S
C703 C702 1.387 . S
C703 C705 1.387 . S
H704 C711 0.950 . S
C705 C703 1.387 . S
C705 C707 1.390 . S
C705 H709 0.950 . S
H706 C702 0.950 . S
C707 C705 1.390 . S
C707 C708 1.387 . S
C707 H710 0.950 . S
C708 C707 1.387 . S
C708 C711 1.387 . S
H709 C705 0.950 . S
H710 C707 0.950 . S
C711 C702 1.390 . S
C711 H704 0.950 . S
C711 C708 1.387 . S
C712 C713 1.387 . S
C712 H716 0.950 . S
C712 C721 1.390 . S
C713 C712 1.387 . S
C713 C715 1.387 . S
H714 C721 0.950 . S
C715 C713 1.387 . S
C715 C717 1.390 . S
C715 H719 0.950 . S
H716 C712 0.950 . S
C717 C715 1.390 . S
C717 C718 1.387 . S
C717 H720 0.950 . S
C718 C717 1.387 . S
C718 C721 1.387 . S
H719 C715 0.950 . S
H720 C717 0.950 . S
C721 C712 1.390 . S
C721 H714 0.950 . S
C721 C718 1.387 . S
C722 C723 1.387 . S
C722 H726 0.950 . S
C722 C731 1.390 . S
C723 C722 1.387 . S
C723 C725 1.387 . S
H724 C731 0.950 . S
C725 C723 1.387 . S
C725 C727 1.390 . S
C725 H729 0.950 . S
H726 C722 0.950 . S
C727 C725 1.390 . S
C727 C728 1.387 . S
C727 H730 0.950 . S
C728 C727 1.387 . S
C728 C731 1.387 . S
H729 C725 0.950 . S
H730 C727 0.950 . S
C731 C722 1.390 . S
C731 H724 0.950 . S
C731 C728 1.387 . S
C732 C733 1.387 . S
C732 H736 0.950 . S
C732 C741 1.390 . S
C733 C732 1.387 . S
C733 C735 1.387 . S
H734 C741 0.950 . S
C735 C733 1.387 . S
C735 C737 1.390 . S
C735 H739 0.950 . S
H736 C732 0.950 . S
C737 C735 1.390 . S
C737 C738 1.387 . S
C737 H740 0.950 . S
C738 C737 1.387 . S
C738 C741 1.387 . S
H739 C735 0.950 . S
H740 C737 0.950 . S
C741 C732 1.390 . S
C741 H734 0.950 . S
C741 C738 1.387 . S
C742 C743 1.387 . S
C742 H746 0.950 . S
C742 C751 1.390 . S
C743 C742 1.387 . S
C743 C745 1.387 . S
H744 C751 0.950 . S
C745 C743 1.387 . S
C745 C747 1.390 . S
C745 H749 0.950 . S
H746 C742 0.950 . S
C747 C745 1.390 . S
C747 C748 1.387 . S
C747 H750 0.950 . S
C748 C747 1.387 . S
C748 C751 1.387 . S
H749 C745 0.950 . S
H750 C747 0.950 . S
C751 C742 1.390 . S
C751 H744 0.950 . S
C751 C748 1.387 . S
C752 C753 1.387 . S
C752 H756 0.950 . S
C752 C761 1.390 . S
C753 C752 1.387 . S
C753 C755 1.387 . S
H754 C761 0.950 . S
C755 C753 1.387 . S
C755 C757 1.390 . S
C755 H759 0.950 . S
H756 C752 0.950 . S
C757 C755 1.390 . S
C757 C758 1.387 . S
C757 H760 0.950 . S
C758 C757 1.387 . S
C758 C761 1.387 . S
H759 C755 0.950 . S
H760 C757 0.950 . S
C761 C752 1.390 . S
C761 H754 0.950 . S
C761 C758 1.387 . S
C762 C763 1.387 . S
C762 H766 0.950 . S
C762 C771 1.390 . S
C763 C762 1.387 . S
C763 C765 1.387 . S
H764 C771 0.950 . S
C765 C763 1.387 . S
C765 C767 1.390 . S
C765 H769 0.950 . S
H766 C762 0.950 . S
C767 C765 1.390 . S
C767 C768 1.387 . S
C767 H770 0.950 . S
C768 C767 1.387 . S
C768 C771 1.387 . S
H769 C765 0.950 . S
H770 C767 0.950 . S
C771 C762 1.390 . S
C771 H764 0.950 . S
C771 C768 1.387 . S
C772 C773 1.387 . S
C772 H776 0.950 . S
C772 C781 1.390 . S
C773 C772 1.387 . S
C773 C775 1.387 . S
H774 C781 0.950 . S
C775 C773 1.387 . S
C775 C777 1.390 . S
C775 H779 0.950 . S
H776 C772 0.950 . S
C777 C775 1.390 . S
C777 C778 1.387 . S
C777 H780 0.950 . S
C778 C777 1.387 . S
C778 C781 1.387 . S
H779 C775 0.950 . S
H780 C777 0.950 . S
C781 C772 1.390 . S
C781 H774 0.950 . S
C781 C778 1.387 . S
C782 C783 1.387 . S
C782 H786 0.950 . S
C782 C791 1.390 . S
C783 C782 1.387 . S
C783 C785 1.387 . S
H784 C791 0.950 . S
C785 C783 1.387 . S
C785 C787 1.390 . S
C785 H789 0.950 . S
H786 C782 0.950 . S
C787 C785 1.390 . S
C787 C788 1.387 . S
C787 H790 0.950 . S
C788 C787 1.387 . S
C788 C791 1.387 . S
H789 C785 0.950 . S
H790 C787 0.950 . S
C791 C782 1.390 . S
C791 H784 0.950 . S
C791 C788 1.387 . S
C313 C5 1.313 . S
C318 C96 1.313 . S
C323 C109 1.315 . S
C328 C18 1.311 . S
C333 C31 1.312 . S
C338 C122 1.315 . S
C343 C44 1.314 . S
C348 C135 1.314 . S
C353 C148 1.312 . S
C358 C57 1.315 . S
C363 C70 1.312 . S
C368 C83 1.315 . S
C373 C161 1.313 . S
C378 C252 1.313 . S
C383 C174 1.312 . S
C388 C265 1.315 . S
C393 C278 1.312 . S
C398 C187 1.315 . S
C403 C200 1.313 . S
C408 C291 1.313 . S
C413 C213 1.311 . S
C418 C304 1.315 . S
C423 C239 1.315 . S
C428 C226 1.312 . S
C433 C0 1.305 . S
C438 C104 1.302 . S
C443 C117 1.304 . S
C448 C13 1.304 . S
C453 C130 1.305 . S
C458 C26 1.303 . S
C463 C39 1.302 . S
C468 C143 1.305 . S
C473 C52 1.304 . S
C478 C78 1.304 . S
C483 C65 1.302 . S
C488 C91 1.305 . S
C493 C260 1.302 . S
C498 C156 1.305 . S
C503 C169 1.304 . S
C508 C273 1.304 . S
C513 C286 1.302 . S
C518 C182 1.305 . S
C523 C299 1.305 . S
C528 C195 1.302 . S
C533 C234 1.304 . S
C538 C208 1.304 . S
C543 C221 1.305 . S
C548 C247 1.302 . S
C553 C8 1.486 . S
C558 C203 1.484 . S
C563 C216 1.483 . S
C568 C21 1.486 . S
C573 C229 1.484 . S
C578 C34 1.485 . S
C583 C47 1.484 . S
C588 C164 1.485 . S
C593 C60 1.485 . S
C598 C177 1.483 . S
C603 C190 1.484 . S
C608 C73 1.485 . S
C613 C281 1.486 . S
C618 C86 1.484 . S
C623 C294 1.484 . S
C628 C99 1.485 . S
C633 C307 1.483 . S
C638 C112 1.485 . S
C643 C242 1.484 . S
C648 C125 1.486 . S
C653 C138 1.485 . S
C658 C255 1.484 . S
C663 C151 1.486 . S
C668 C268 1.483 . S
C673 C10 1.521 . S
C678 C140 1.521 . S
C683 C153 1.521 . S
C688 C23 1.521 . S
C693 C88 1.521 . S
C698 C36 1.521 . S
C703 C49 1.522 . S
C708 C101 1.522 . S
C713 C62 1.521 . S
C718 C114 1.521 . S
C723 C75 1.522 . S
C728 C127 1.521 . S
C733 C166 1.521 . S
C738 C296 1.521 . S
C743 C179 1.522 . S
C748 C309 1.521 . S
C753 C192 1.522 . S
C758 C244 1.521 . S
C763 C257 1.522 . S
C768 C205 1.522 . S
C773 C218 1.522 . S
C778 C270 1.521 . S
C783 C231 1.522 . S
C788 C283 1.521 . S
