# Generated by pormake.
# Topology smq, (6)-cn, num edge types: 1
# Building blocks:
#     Node 0, Type 0, BuildingBlock: MAKGUD_clean_sbu_1, # of connection points: 6
#     Node 1, Type 0, BuildingBlock: MAKGUD_clean_sbu_1, # of connection points: 6
#     Node 2, Type 0, BuildingBlock: MAKGUD_clean_sbu_1, # of connection points: 6
#     Node 3, Type 0, BuildingBlock: MAKGUD_clean_sbu_1, # of connection points: 6
#     Node 4, Type 0, BuildingBlock: MAKGUD_clean_sbu_1, # of connection points: 6
#     Node 5, Type 0, BuildingBlock: MAKGUD_clean_sbu_1, # of connection points: 6
#     Node 6, Type 0, BuildingBlock: MAKGUD_clean_sbu_1, # of connection points: 6
#     Node 7, Type 0, BuildingBlock: MAKGUD_clean_sbu_1, # of connection points: 6
#     Node 8, Type 0, BuildingBlock: MAKGUD_clean_sbu_1, # of connection points: 6
#     Node 9, Type 0, BuildingBlock: MAKGUD_clean_sbu_1, # of connection points: 6
#     Node 10, Type 0, BuildingBlock: MAKGUD_clean_sbu_1, # of connection points: 6
#     Node 11, Type 0, BuildingBlock: MAKGUD_clean_sbu_1, # of connection points: 6
#     Node 12, Type 0, BuildingBlock: MAKGUD_clean_sbu_1, # of connection points: 6
#     Node 13, Type 0, BuildingBlock: MAKGUD_clean_sbu_1, # of connection points: 6
#     Node 14, Type 0, BuildingBlock: MAKGUD_clean_sbu_1, # of connection points: 6
#     Node 15, Type 0, BuildingBlock: MAKGUD_clean_sbu_1, # of connection points: 6
#     Node 16, Type 0, BuildingBlock: MAKGUD_clean_sbu_1, # of connection points: 6
#     Node 17, Type 0, BuildingBlock: MAKGUD_clean_sbu_1, # of connection points: 6
#     Node 18, Type 0, BuildingBlock: MAKGUD_clean_sbu_1, # of connection points: 6
#     Node 19, Type 0, BuildingBlock: MAKGUD_clean_sbu_1, # of connection points: 6
#     Node 20, Type 0, BuildingBlock: MAKGUD_clean_sbu_1, # of connection points: 6
#     Node 21, Type 0, BuildingBlock: MAKGUD_clean_sbu_1, # of connection points: 6
#     Node 22, Type 0, BuildingBlock: MAKGUD_clean_sbu_1, # of connection points: 6
#     Node 23, Type 0, BuildingBlock: MAKGUD_clean_sbu_1, # of connection points: 6
#     Edge 24, Type (0, 0), BuildingBlock: EZIPEK_clean_linker_0, # of connection points: 2
#     Edge 25, Type (0, 0), BuildingBlock: EZIPEK_clean_linker_0, # of connection points: 2
#     Edge 26, Type (0, 0), BuildingBlock: EZIPEK_clean_linker_0, # of connection points: 2
#     Edge 27, Type (0, 0), BuildingBlock: EZIPEK_clean_linker_0, # of connection points: 2
#     Edge 28, Type (0, 0), BuildingBlock: EZIPEK_clean_linker_0, # of connection points: 2
#     Edge 29, Type (0, 0), BuildingBlock: EZIPEK_clean_linker_0, # of connection points: 2
#     Edge 30, Type (0, 0), BuildingBlock: EZIPEK_clean_linker_0, # of connection points: 2
#     Edge 31, Type (0, 0), BuildingBlock: EZIPEK_clean_linker_0, # of connection points: 2
#     Edge 32, Type (0, 0), BuildingBlock: EZIPEK_clean_linker_0, # of connection points: 2
#     Edge 33, Type (0, 0), BuildingBlock: EZIPEK_clean_linker_0, # of connection points: 2
#     Edge 34, Type (0, 0), BuildingBlock: EZIPEK_clean_linker_0, # of connection points: 2
#     Edge 35, Type (0, 0), BuildingBlock: EZIPEK_clean_linker_0, # of connection points: 2
#     Edge 36, Type (0, 0), BuildingBlock: EZIPEK_clean_linker_0, # of connection points: 2
#     Edge 37, Type (0, 0), BuildingBlock: EZIPEK_clean_linker_0, # of connection points: 2
#     Edge 38, Type (0, 0), BuildingBlock: EZIPEK_clean_linker_0, # of connection points: 2
#     Edge 39, Type (0, 0), BuildingBlock: EZIPEK_clean_linker_0, # of connection points: 2
#     Edge 40, Type (0, 0), BuildingBlock: EZIPEK_clean_linker_0, # of connection points: 2
#     Edge 41, Type (0, 0), BuildingBlock: EZIPEK_clean_linker_0, # of connection points: 2
#     Edge 42, Type (0, 0), BuildingBlock: EZIPEK_clean_linker_0, # of connection points: 2
#     Edge 43, Type (0, 0), BuildingBlock: EZIPEK_clean_linker_0, # of connection points: 2
#     Edge 44, Type (0, 0), BuildingBlock: EZIPEK_clean_linker_0, # of connection points: 2
#     Edge 45, Type (0, 0), BuildingBlock: EZIPEK_clean_linker_0, # of connection points: 2
#     Edge 46, Type (0, 0), BuildingBlock: EZIPEK_clean_linker_0, # of connection points: 2
#     Edge 47, Type (0, 0), BuildingBlock: EZIPEK_clean_linker_0, # of connection points: 2
#     Edge 48, Type (0, 0), BuildingBlock: EZIPEK_clean_linker_0, # of connection points: 2
#     Edge 49, Type (0, 0), BuildingBlock: EZIPEK_clean_linker_0, # of connection points: 2
#     Edge 50, Type (0, 0), BuildingBlock: EZIPEK_clean_linker_0, # of connection points: 2
#     Edge 51, Type (0, 0), BuildingBlock: EZIPEK_clean_linker_0, # of connection points: 2
#     Edge 52, Type (0, 0), BuildingBlock: EZIPEK_clean_linker_0, # of connection points: 2
#     Edge 53, Type (0, 0), BuildingBlock: EZIPEK_clean_linker_0, # of connection points: 2
#     Edge 54, Type (0, 0), BuildingBlock: EZIPEK_clean_linker_0, # of connection points: 2
#     Edge 55, Type (0, 0), BuildingBlock: EZIPEK_clean_linker_0, # of connection points: 2
#     Edge 56, Type (0, 0), BuildingBlock: EZIPEK_clean_linker_0, # of connection points: 2
#     Edge 57, Type (0, 0), BuildingBlock: EZIPEK_clean_linker_0, # of connection points: 2
#     Edge 58, Type (0, 0), BuildingBlock: EZIPEK_clean_linker_0, # of connection points: 2
#     Edge 59, Type (0, 0), BuildingBlock: EZIPEK_clean_linker_0, # of connection points: 2
#     Edge 60, Type (0, 0), BuildingBlock: EZIPEK_clean_linker_0, # of connection points: 2
#     Edge 61, Type (0, 0), BuildingBlock: EZIPEK_clean_linker_0, # of connection points: 2
#     Edge 62, Type (0, 0), BuildingBlock: EZIPEK_clean_linker_0, # of connection points: 2
#     Edge 63, Type (0, 0), BuildingBlock: EZIPEK_clean_linker_0, # of connection points: 2
#     Edge 64, Type (0, 0), BuildingBlock: EZIPEK_clean_linker_0, # of connection points: 2
#     Edge 65, Type (0, 0), BuildingBlock: EZIPEK_clean_linker_0, # of connection points: 2
#     Edge 66, Type (0, 0), BuildingBlock: EZIPEK_clean_linker_0, # of connection points: 2
#     Edge 67, Type (0, 0), BuildingBlock: EZIPEK_clean_linker_0, # of connection points: 2
#     Edge 68, Type (0, 0), BuildingBlock: EZIPEK_clean_linker_0, # of connection points: 2
#     Edge 69, Type (0, 0), BuildingBlock: EZIPEK_clean_linker_0, # of connection points: 2
#     Edge 70, Type (0, 0), BuildingBlock: EZIPEK_clean_linker_0, # of connection points: 2
#     Edge 71, Type (0, 0), BuildingBlock: EZIPEK_clean_linker_0, # of connection points: 2
#     Edge 72, Type (0, 0), BuildingBlock: EZIPEK_clean_linker_0, # of connection points: 2
#     Edge 73, Type (0, 0), BuildingBlock: EZIPEK_clean_linker_0, # of connection points: 2
#     Edge 74, Type (0, 0), BuildingBlock: EZIPEK_clean_linker_0, # of connection points: 2
#     Edge 75, Type (0, 0), BuildingBlock: EZIPEK_clean_linker_0, # of connection points: 2
#     Edge 76, Type (0, 0), BuildingBlock: EZIPEK_clean_linker_0, # of connection points: 2
#     Edge 77, Type (0, 0), BuildingBlock: EZIPEK_clean_linker_0, # of connection points: 2
#     Edge 78, Type (0, 0), BuildingBlock: EZIPEK_clean_linker_0, # of connection points: 2
#     Edge 79, Type (0, 0), BuildingBlock: EZIPEK_clean_linker_0, # of connection points: 2
#     Edge 80, Type (0, 0), BuildingBlock: EZIPEK_clean_linker_0, # of connection points: 2
#     Edge 81, Type (0, 0), BuildingBlock: EZIPEK_clean_linker_0, # of connection points: 2
#     Edge 82, Type (0, 0), BuildingBlock: EZIPEK_clean_linker_0, # of connection points: 2
#     Edge 83, Type (0, 0), BuildingBlock: EZIPEK_clean_linker_0, # of connection points: 2
#     Edge 84, Type (0, 0), BuildingBlock: EZIPEK_clean_linker_0, # of connection points: 2
#     Edge 85, Type (0, 0), BuildingBlock: EZIPEK_clean_linker_0, # of connection points: 2
#     Edge 86, Type (0, 0), BuildingBlock: EZIPEK_clean_linker_0, # of connection points: 2
#     Edge 87, Type (0, 0), BuildingBlock: EZIPEK_clean_linker_0, # of connection points: 2
#     Edge 88, Type (0, 0), BuildingBlock: EZIPEK_clean_linker_0, # of connection points: 2
#     Edge 89, Type (0, 0), BuildingBlock: EZIPEK_clean_linker_0, # of connection points: 2
#     Edge 90, Type (0, 0), BuildingBlock: EZIPEK_clean_linker_0, # of connection points: 2
#     Edge 91, Type (0, 0), BuildingBlock: EZIPEK_clean_linker_0, # of connection points: 2
#     Edge 92, Type (0, 0), BuildingBlock: EZIPEK_clean_linker_0, # of connection points: 2
#     Edge 93, Type (0, 0), BuildingBlock: EZIPEK_clean_linker_0, # of connection points: 2
#     Edge 94, Type (0, 0), BuildingBlock: EZIPEK_clean_linker_0, # of connection points: 2
#     Edge 95, Type (0, 0), BuildingBlock: EZIPEK_clean_linker_0, # of connection points: 2
# Relax obj value: 0.279
# Max RMSD: 0.220
# Mean RMSD: 0.220
data_MOF--net-smq--node1-MAKGUD_clean_sbu_1--edge1-EZIPEK_clean_linker_0
_symmetry_space_group_name_H-M    P1
_symmetry_Int_Tables_number       1
_symmetry_cell_setting            triclinic
loop_
_symmetry_equiv_pos_as_xyz
'x, y, z'
_cell_length_a     34.857294
_cell_length_b     34.754755
_cell_length_c     35.215656
_cell_angle_alpha  89.906362
_cell_angle_beta   90.08899
_cell_angle_gamma 90.124016
loop_
_atom_site_label
_atom_site_type_symbol
_atom_site_fract_x
_atom_site_fract_y
_atom_site_fract_z
_atom_type_partial_charge
O0 O 1.01359 0.30996 0.28525 0.0
Tb1 Tb 1.04102 0.33531 0.33348 0.0
C2 C 1.03792 0.3334 0.41997 0.0
O3 O 0.11436 0.29312 0.30908 0.0
Tb4 Tb 0.10659 0.29206 0.37167 0.0
C5 C 0.15922 0.3377 0.39942 0.0
O6 O 0.09296 0.35332 0.3042 0.0
O7 O 0.13733 0.23639 0.37033 0.0
C8 C 0.17147 0.23601 0.35339 0.0
O9 O 0.18445 0.26817 0.33858 0.0
O10 O 1.03385 0.35721 0.39086 0.0
O11 O 1.05944 0.30175 0.41494 0.0
O12 O 1.02135 0.2794 0.35315 0.0
C13 C 0.11483 0.32614 0.29071 0.0
C14 C 0.98963 0.33776 0.27874 0.0
O15 O 0.15483 0.30186 0.4086 0.0
O16 O 0.13356 0.34861 0.37482 0.0
C17 C 0.98806 0.28102 0.37083 0.0
O18 O 0.97271 0.31526 0.37355 0.0
O19 O 0.99534 0.36562 0.30331 0.0
O20 O 0.36139 0.49403 0.80785 0.0
Tb21 Tb 0.35707 0.55233 0.82923 0.0
C22 C 0.36232 0.53849 0.91387 0.0
O23 O 0.38568 0.63547 0.81467 0.0
Tb24 Tb 0.40106 0.61268 0.872 0.0
C25 C 0.37109 0.66041 0.91941 0.0
O26 O 0.33007 0.60327 0.80627 0.0
O27 O 0.45784 0.6391 0.85981 0.0
C28 C 0.45877 0.67678 0.85258 0.0
O29 O 0.4265 0.69607 0.85438 0.0
O30 O 0.33747 0.53828 0.88584 0.0
O31 O 0.39485 0.55831 0.90777 0.0
O32 O 0.41747 0.56901 0.8234 0.0
C33 C 0.35296 0.63131 0.79614 0.0
C34 C 0.33842 0.49904 0.7793 0.0
O35 O 0.35159 0.64356 0.89259 0.0
O36 O 0.40695 0.65057 0.91961 0.0
C37 C 0.44793 0.54691 0.82602 0.0
O38 O 0.48205 0.56256 0.82242 0.0
O39 O 0.32437 0.53345 0.77993 0.0
O40 O 0.17573 0.89128 0.29243 0.0
Tb41 Tb 0.13251 0.85793 0.32165 0.0
C42 C 0.14846 0.84511 0.40521 0.0
O43 O 1.04314 0.86812 0.31359 0.0
Tb44 Tb 1.06444 0.87035 0.37313 0.0
C45 C 1.02009 0.82445 0.41129 0.0
O46 O 0.08832 0.82996 0.28837 0.0
O47 O 1.03167 0.92466 0.3743 0.0
C48 C 0.99542 0.92358 0.36268 0.0
O49 O 0.98071 0.8903 0.35266 0.0
O50 O 0.15538 0.82992 0.37182 0.0
O51 O 0.11879 0.86917 0.40845 0.0
O52 O 0.1028 0.91157 0.33671 0.0
C53 C 1.05487 0.84643 0.28531 0.0
C54 C 0.18228 0.86614 0.26617 0.0
O55 O 1.04032 0.81313 0.38229 0.0
O56 O 1.02513 0.86064 0.4186 0.0
C57 C 0.11741 0.94386 0.35043 0.0
O58 O 0.09404 0.97191 0.35957 0.0
O59 O 0.16272 0.83508 0.27257 0.0
O60 O 0.79789 0.68591 0.80372 0.0
Tb61 Tb 0.80084 0.62927 0.8298 0.0
C62 C 0.81436 0.64466 0.91475 0.0
O63 O 0.8012 0.53962 0.8262 0.0
Tb64 Tb 0.77842 0.56103 0.88104 0.0
C65 C 0.78289 0.50486 0.93035 0.0
O66 O 0.84279 0.58716 0.81208 0.0
O67 O 0.72004 0.54025 0.86437 0.0
C68 C 0.71657 0.50728 0.84529 0.0
O69 O 0.74753 0.49026 0.83284 0.0
O70 O 0.82408 0.65578 0.88034 0.0
O71 O 0.7945 0.61177 0.91911 0.0
O72 O 0.74393 0.60748 0.84314 0.0
C73 C 0.82982 0.55252 0.80549 0.0
C74 C 0.79903 0.67361 0.76884 0.0
O75 O 0.81078 0.51465 0.90748 0.0
O76 O 0.75379 0.52754 0.92624 0.0
C77 C 0.71502 0.62906 0.8542 0.0
O78 O 0.68213 0.61272 0.86271 0.0
O79 O 0.80122 0.6365 0.76855 0.0
O80 O 0.99017 0.87356 0.86339 0.0
Tb81 Tb 1.04679 0.86074 0.84106 0.0
C82 C 1.03049 0.84645 0.75686 0.0
O83 O 0.13701 0.85766 0.84443 0.0
Tb84 Tb 0.11442 0.878 0.78898 0.0
C85 C 0.16354 0.86867 0.73437 0.0
O86 O 0.08784 0.81987 0.86347 0.0
O87 O 0.14182 0.93363 0.80355 0.0
C88 C 0.17842 0.93223 0.81402 0.0
O89 O 0.19489 0.89845 0.8167 0.0
O90 O 1.02126 0.83469 0.79115 0.0
O91 O 1.06166 0.86839 0.7529 0.0
O92 O 1.07423 0.91597 0.83019 0.0
C93 C 0.12313 0.83181 0.86806 0.0
C94 C 0.99909 0.8668 0.89864 0.0
O95 O 0.15381 0.84117 0.75796 0.0
O96 O 0.14547 0.90034 0.7415 0.0
C97 C 1.05641 0.94816 0.82132 0.0
O98 O 1.07668 0.9794 0.815 0.0
O99 O 1.03438 0.85582 0.90121 0.0
O100 O 0.8387 0.52858 0.38108 0.0
Tb101 Tb 0.84732 0.55712 0.32786 0.0
C102 C 0.82913 0.54464 0.24355 0.0
O103 O 0.79327 0.61758 0.35648 0.0
Tb104 Tb 0.78596 0.60921 0.29441 0.0
C105 C 0.8213 0.66275 0.25673 0.0
O106 O 0.85711 0.61275 0.35274 0.0
O107 O 0.73125 0.64096 0.29929 0.0
C108 C 0.73334 0.67614 0.31416 0.0
O109 O 0.76673 0.68819 0.32676 0.0
O110 O 0.85806 0.54729 0.26777 0.0
O111 O 0.79534 0.5605 0.25304 0.0
O112 O 0.79022 0.53322 0.32354 0.0
C113 C 0.82729 0.62652 0.37043 0.0
C114 C 0.87061 0.50963 0.38084 0.0
O115 O 0.83778 0.64218 0.28302 0.0
O116 O 0.78596 0.65271 0.25139 0.0
C117 C 0.79002 0.49808 0.30998 0.0
O118 O 0.82345 0.48327 0.30086 0.0
O119 O 0.89033 0.51706 0.35005 0.0
O120 O 0.13663 0.32601 0.89259 0.0
Tb121 Tb 0.13038 0.34727 0.83592 0.0
C122 C 0.14782 0.33783 0.75095 0.0
O123 O 1.06036 0.30312 0.85352 0.0
Tb124 Tb 1.0781 0.29031 0.79464 0.0
C125 C 1.02474 0.31527 0.74999 0.0
O126 O 1.07279 0.36581 0.84889 0.0
O127 O 1.05077 0.23313 0.80442 0.0
C128 C 1.01438 0.23358 0.81643 0.0
O129 O 0.99845 0.26711 0.82278 0.0
O130 O 0.14748 0.36364 0.77866 0.0
O131 O 0.12827 0.30469 0.7558 0.0
O132 O 0.15252 0.29025 0.82544 0.0
C133 C 1.0521 0.33846 0.86394 0.0
C134 C 0.16388 0.34932 0.90263 0.0
O135 O 1.04034 0.33628 0.77648 0.0
O136 O 1.03946 0.28114 0.74831 0.0
C137 C 0.18854 0.29093 0.81438 0.0
O138 O 0.2046 0.32481 0.80926 0.0
O139 O 0.17232 0.37328 0.87479 0.0
O140 O 0.41667 0.66676 0.38311 0.0
Tb141 Tb 0.38151 0.64166 0.33843 0.0
C142 C 0.34888 0.64771 0.25856 0.0
O143 O 0.3795 0.55399 0.35717 0.0
Tb144 Tb 0.37818 0.56735 0.29592 0.0
C145 C 0.32436 0.52234 0.27106 0.0
O146 O 0.3494 0.60694 0.37872 0.0
O147 O 0.43245 0.53416 0.29582 0.0
C148 C 0.43176 0.49684 0.30431 0.0
O149 O 0.39835 0.47982 0.30856 0.0
O150 O 0.34388 0.66056 0.29316 0.0
O151 O 0.37113 0.61677 0.25463 0.0
O152 O 0.42704 0.61206 0.30774 0.0
C153 C 0.36059 0.5715 0.38439 0.0
C154 C 0.40238 0.70124 0.3812 0.0
O155 O 0.31904 0.54724 0.29808 0.0
O156 O 0.3592 0.52324 0.25804 0.0
C157 C 0.45431 0.62845 0.28763 0.0
O158 O 0.47849 0.60656 0.26905 0.0
O159 O 0.3782 0.70208 0.35316 0.0
O160 O 0.27274 1.03088 0.32557 0.0
Tb161 Tb 0.33015 1.04737 0.33939 0.0
C162 C 0.41683 1.04426 0.3369 0.0
O163 O 0.30913 0.12142 0.29642 0.0
Tb164 Tb 0.3711 0.10991 0.28982 0.0
C165 C 0.40995 0.16266 0.3252 0.0
O166 O 0.30816 0.10283 0.35717 0.0
O167 O 0.36675 0.14097 0.23489 0.0
C168 C 0.35306 0.17675 0.23645 0.0
O169 O 0.34182 0.18989 0.26951 0.0
O170 O 0.38803 1.04416 0.36113 0.0
O171 O 0.41043 1.05985 0.30257 0.0
O172 O 0.34645 1.02064 0.28583 0.0
C173 C 0.29411 0.1247 0.33046 0.0
C174 C 0.26992 1.00309 0.35018 0.0
O175 O 0.38197 0.14354 0.3409 0.0
O176 O 0.41613 0.15178 0.29062 0.0
C177 C 0.36469 0.98756 0.28996 0.0
O178 O 0.37268 0.97627 0.32468 0.0
O179 O 0.30148 1.00085 0.37052 0.0
O180 O 0.67081 0.79251 0.81211 0.0
Tb181 Tb 0.63917 0.84159 0.82969 0.0
C182 C 0.6427 0.92815 0.81639 0.0
O183 O 0.57559 0.81048 0.77914 0.0
Tb184 Tb 0.5796 0.87393 0.77395 0.0
C185 C 0.52268 0.90538 0.81031 0.0
O186 O 0.58519 0.8127 0.84126 0.0
O187 O 0.55126 0.86798 0.71798 0.0
C188 C 0.51742 0.85012 0.71753 0.0
O189 O 0.50407 0.83619 0.74957 0.0
O190 O 0.64402 0.90209 0.84378 0.0
O191 O 0.62548 0.91885 0.78355 0.0
O192 O 0.66364 0.8536 0.77413 0.0
C193 C 0.5708 0.79395 0.81248 0.0
C194 C 0.69021 0.78758 0.84321 0.0
O195 O 0.54635 0.88105 0.82583 0.0
O196 O 0.53158 0.91241 0.77534 0.0
C197 C 0.69695 0.87168 0.77522 0.0
O198 O 0.71029 0.88123 0.80885 0.0
O199 O 0.68022 0.81366 0.8683 0.0
O200 O 0.90758 0.13469 0.36971 0.0
Tb201 Tb 0.84904 0.11757 0.35946 0.0
C202 C 0.77107 0.14584 0.32794 0.0
O203 O 0.87409 1.05695 0.30545 0.0
Tb204 Tb 0.81581 1.07546 0.28845 0.0
C205 C 0.76423 1.02826 0.31461 0.0
O206 O 0.86083 1.05751 0.36765 0.0
O207 O 0.82504 1.04575 0.23361 0.0
C208 C 0.83653 1.00927 0.23571 0.0
O209 O 0.84418 0.99504 0.26939 0.0
O210 O 0.79003 0.13776 0.35952 0.0
O211 O 0.78319 0.13079 0.29501 0.0
O212 O 0.86201 0.14279 0.30492 0.0
C213 C 0.88009 1.04253 0.33963 0.0
C214 C 0.90168 0.15299 0.40118 0.0
O215 O 0.76598 1.04 0.27978 0.0
O216 O 0.79132 1.0431 0.33543 0.0
C217 C 0.85628 0.18005 0.30327 0.0
O218 O 0.84241 0.19721 0.33353 0.0
O219 O 0.86507 0.15186 0.4092 0.0
O220 O 0.49902 0.3878 0.80045 0.0
Tb221 Tb 0.533 0.34093 0.82115 0.0
C222 C 0.53726 0.25363 0.81837 0.0
O223 O 0.60903 0.36828 0.7824 0.0
Tb224 Tb 0.60351 0.30532 0.77729 0.0
C225 C 0.6597 0.2781 0.81874 0.0
O226 O 0.58328 0.37199 0.84049 0.0
O227 O 0.63411 0.30465 0.72225 0.0
C228 C 0.64612 0.33647 0.70501 0.0
O229 O 0.62924 0.36931 0.71234 0.0
O230 O 0.53087 0.2825 0.84179 0.0
O231 O 0.55816 0.25992 0.78698 0.0
O232 O 0.5156 0.32307 0.76449 0.0
C233 C 0.60715 0.38568 0.8154 0.0
C234 C 0.47711 0.39093 0.83004 0.0
O235 O 0.63221 0.29943 0.83213 0.0
O236 O 0.65508 0.27189 0.78282 0.0
C237 C 0.48374 0.30245 0.76372 0.0
O238 O 0.46881 0.29226 0.79646 0.0
O239 O 0.4869 0.36543 0.85572 0.0
O240 O 0.32221 0.15687 0.78228 0.0
Tb241 Tb 0.33864 0.11621 0.82674 0.0
C242 C 0.42208 0.13157 0.8472 0.0
O243 O 0.31025 1.05338 0.87609 0.0
Tb244 Tb 0.37095 1.06624 0.88925 0.0
C245 C 0.40959 1.00826 0.86222 0.0
O246 O 0.31801 1.05953 0.81361 0.0
O247 O 0.36568 1.04222 0.94692 0.0
C248 C 0.33288 1.02861 0.96036 0.0
O249 O 0.30026 1.04153 0.94689 0.0
O250 O 0.39879 0.12776 0.81786 0.0
O251 O 0.41297 0.11493 0.8804 0.0
O252 O 0.34503 0.13897 0.88371 0.0
C253 C 0.29978 1.04336 0.84165 0.0
C254 C 0.28871 0.16412 0.79717 0.0
O255 O 0.38948 1.03161 0.84125 0.0
O256 O 0.40887 1.01832 0.89753 0.0
C257 C 0.31788 0.14488 0.90862 0.0
O258 O 0.28375 0.1295 0.90434 0.0
O259 O 0.2837 0.14408 0.82777 0.0
O260 O 0.63901 0.92377 0.39294 0.0
Tb261 Tb 0.60256 0.87422 0.38906 0.0
C262 C 0.62707 0.80341 0.33743 0.0
O263 O 0.53493 0.8961 0.3239 0.0
Tb264 Tb 0.54689 0.83558 0.33314 0.0
C265 C 0.49973 0.78719 0.29715 0.0
O266 O 0.54648 0.90627 0.38653 0.0
O267 O 0.55762 0.81481 0.39138 0.0
C268 C 0.53902 0.8183 0.42381 0.0
O269 O 0.5534 0.80152 0.45405 0.0
O270 O 0.62712 0.81809 0.37188 0.0
O271 O 0.6021 0.8161 0.31252 0.0
O272 O 0.63495 0.86931 0.44282 0.0
C273 C 0.53079 0.91804 0.35383 0.0
C274 C 0.64629 0.92517 0.35693 0.0
O275 O 0.49126 0.8081 0.32643 0.0
O276 O 0.53411 0.79645 0.2864 0.0
C277 C 0.64794 0.8361 0.45614 0.0
O278 O 0.63131 0.80404 0.44532 0.0
O279 O 0.62871 0.898 0.33827 0.0
O280 O 0.90194 1.0212 0.8538 0.0
Tb281 Tb 0.84948 1.04842 0.83736 0.0
C282 C 0.76267 1.04571 0.84615 0.0
O283 O 0.87386 0.12448 0.87896 0.0
Tb284 Tb 0.81221 0.11264 0.88937 0.0
C285 C 0.76959 0.17035 0.8673 0.0
O286 O 0.87477 0.10249 0.81902 0.0
O287 O 0.82276 0.13487 0.94708 0.0
C288 C 0.8373 0.17025 0.94888 0.0
O289 O 0.84579 0.1879 0.91699 0.0
O290 O 0.78992 1.04305 0.82024 0.0
O291 O 0.77035 1.06427 0.87862 0.0
O292 O 0.83565 1.02598 0.89342 0.0
C293 C 0.88919 0.12526 0.84485 0.0
C294 C 0.90357 0.99709 0.82569 0.0
O295 O 0.79474 0.15351 0.84545 0.0
O296 O 0.76866 0.15468 0.90063 0.0
C297 C 0.81802 0.99239 0.89199 0.0
O298 O 0.81008 0.97897 0.858 0.0
O299 O 0.87458 1.00263 0.80251 0.0
O300 O 0.64575 0.40524 0.31391 0.0
Tb301 Tb 0.6236 0.34738 0.31607 0.0
C302 C 0.64808 0.26617 0.34252 0.0
O303 O 0.56807 0.37562 0.36952 0.0
Tb304 Tb 0.5792 0.31415 0.38211 0.0
C305 C 0.52696 0.2673 0.35671 0.0
O306 O 0.5644 0.36412 0.30818 0.0
O307 O 0.54771 0.32561 0.43551 0.0
C308 C 0.51193 0.33826 0.43089 0.0
O309 O 0.49993 0.34437 0.39608 0.0
O310 O 0.64234 0.28791 0.3121 0.0
O311 O 0.63121 0.27638 0.3752 0.0
O312 O 0.64826 0.34747 0.37252 0.0
C313 C 0.55342 0.38559 0.33648 0.0
C314 C 0.66396 0.40167 0.28201 0.0
O315 O 0.5428 0.29401 0.33582 0.0
O316 O 0.54098 0.26675 0.39078 0.0
C317 C 0.68582 0.35041 0.37555 0.0
O318 O 0.70574 0.36243 0.34625 0.0
O319 O 0.6596 0.36672 0.26902 0.0
O320 O 0.31958 0.27573 1.03333 0.0
Tb321 Tb 0.33677 0.33239 1.05124 0.0
C322 C 0.32753 0.41736 1.03203 0.0
O323 O 0.295 0.31627 0.124 0.0
Tb324 Tb 0.2804 0.3753 0.10375 0.0
C325 C 0.29207 0.42535 0.15738 0.0
O326 O 0.35681 0.31697 0.10724 0.0
O327 O 0.22268 0.3618 0.12857 0.0
C328 C 0.2218 0.34985 0.1648 0.0
O329 O 0.25462 0.34433 0.18215 0.0
O330 O 0.35327 0.38954 1.03284 0.0
O331 O 0.29478 0.41357 1.05226 0.0
O332 O 0.27869 0.34576 1.03381 0.0
C333 C 0.33009 0.3034 0.12934 0.0
C334 C 0.34703 0.27091 1.00911 0.0
O335 O 0.26085 0.42218 0.13765 0.0
O336 O 0.31817 0.40089 0.14606 0.0
C337 C 0.24733 0.32613 1.0404 0.0
O338 O 0.24614 0.29954 1.06684 0.0
O339 O 0.3693 0.30127 1.00792 0.0
O340 O 0.34675 0.89396 0.15549 0.0
Tb341 Tb 0.34441 0.84583 0.11704 0.0
C342 C 0.31406 0.76656 0.14141 0.0
O343 O 0.28713 0.86975 1.05285 0.0
Tb344 Tb 0.27506 0.80962 1.07119 0.0
C345 C 0.31477 0.76161 1.03085 0.0
O346 O 0.35189 0.86779 1.0602 0.0
O347 O 0.22113 0.81262 1.03696 0.0
C348 C 0.22331 0.81079 0.99907 0.0
O349 O 0.25701 0.80588 0.98338 0.0
O350 O 0.34571 0.78537 0.13253 0.0
O351 O 0.28029 0.77882 0.12742 0.0
O352 O 0.28523 0.85431 0.13324 0.0
C353 C 0.32163 0.88367 1.04467 0.0
C354 C 0.38176 0.88973 0.16635 0.0
O355 O 0.32912 0.79252 1.04612 0.0
O356 O 0.27862 0.75777 1.03843 0.0
C357 C 0.26816 0.88798 0.13296 0.0
O358 O 0.28347 0.9174 0.11511 0.0
O359 O 0.39673 0.85976 0.14981 0.0
O360 O 0.7795 0.86231 0.63191 0.0
Tb361 Tb 0.83447 0.84798 0.60776 0.0
C362 C 0.91078 0.81492 0.63822 0.0
O363 O 0.80288 0.78696 0.55885 0.0
Tb364 Tb 0.86353 0.77299 0.57277 0.0
C365 C 0.9152 0.79611 0.52446 0.0
O366 O 0.81532 0.84894 0.54918 0.0
O367 O 0.85403 0.71859 0.54125 0.0
C368 C 0.84712 0.72303 0.50426 0.0
O369 O 0.8446 0.7583 0.49116 0.0
O370 O 0.89465 0.84679 0.62514 0.0
O371 O 0.89685 0.78078 0.627 0.0
O372 O 0.82525 0.79273 0.63444 0.0
C373 C 0.7932 0.8194 0.54182 0.0
C374 C 0.78942 0.89378 0.64864 0.0
O375 O 0.88788 0.8183 0.53723 0.0
O376 O 0.91353 0.76213 0.53951 0.0
C377 C 0.79191 0.777 0.6421 0.0
O378 O 0.75992 0.79048 0.62757 0.0
O379 O 0.82572 0.90018 0.64212 0.0
O380 O 0.89623 0.28857 0.15419 0.0
Tb381 Tb 0.87195 0.33777 0.1247 0.0
C382 C 0.86589 0.4264 0.12821 0.0
O383 O 0.89177 0.31634 1.04603 0.0
Tb384 Tb 0.88909 0.37944 1.05309 0.0
C385 C 0.82526 0.39336 1.01668 0.0
O386 O 0.8405 0.30536 0.08253 0.0
O387 O 0.939 0.38334 1.01482 0.0
C388 C 0.93691 0.36639 0.98111 0.0
O389 O 0.90486 0.34917 0.97126 0.0
O390 O 0.85036 0.39407 0.14032 0.0
O391 O 0.88946 0.42517 0.09832 0.0
O392 O 0.92833 0.35468 0.10297 0.0
C393 C 0.86156 0.29495 1.05371 0.0
C394 C 0.87312 0.28985 0.18295 0.0
O395 O 0.85907 0.40508 1.0061 0.0
O396 O 0.82682 0.37523 1.04886 0.0
C397 C 0.95942 0.36004 0.12342 0.0
O398 O 0.99132 0.37052 0.1065 0.0
O399 O 0.84993 0.31885 0.17963 0.0
O400 O 0.26392 0.42357 0.52471 0.0
Tb401 Tb 0.31121 0.41058 0.56181 0.0
C402 C 0.37984 0.36407 0.52963 0.0
O403 O 0.28527 0.33334 0.61865 0.0
Tb404 Tb 0.34478 0.33442 0.5993 0.0
C405 C 0.39586 0.28801 0.63199 0.0
O406 O 0.27741 0.39909 0.61513 0.0
O407 O 0.35153 0.38751 0.62983 0.0
C408 C 0.35913 0.38447 0.66622 0.0
O409 O 0.36876 0.3509 0.68031 0.0
O410 O 0.37097 0.39773 0.54457 0.0
O411 O 0.3593 0.33441 0.54008 0.0
O412 O 0.31556 0.46873 0.53697 0.0
C413 C 0.26608 0.36473 0.62862 0.0
C414 C 0.26271 0.38997 0.50903 0.0
O415 O 0.35922 0.28071 0.62832 0.0
O416 O 0.40294 0.32146 0.61706 0.0
C417 C 0.34817 0.48653 0.52915 0.0
O418 O 0.37847 0.47885 0.55005 0.0
O419 O 0.28854 0.36699 0.52335 0.0
O420 O 0.79932 0.90298 1.04557 0.0
Tb421 Tb 0.8241 0.84659 1.05667 0.0
C422 C 0.85027 0.76675 1.0311 0.0
O423 O 0.88484 0.87348 0.11278 0.0
Tb424 Tb 0.89787 0.81391 0.0944 0.0
C425 C 0.87221 0.76673 0.14522 0.0
O426 O 0.82075 0.86431 0.11517 0.0
O427 O 0.95421 0.81484 0.12377 0.0
C428 C 0.96959 0.84614 0.1391 0.0
O429 O 0.96165 0.87968 0.12381 0.0
O430 O 0.81975 0.7854 1.04373 0.0
O431 O 0.88528 0.77962 1.04117 0.0
O432 O 0.88112 0.85633 1.03548 0.0
C433 C 0.85115 0.88306 0.12715 0.0
C434 C 0.78 0.89442 1.01535 0.0
O435 O 0.90649 0.76574 0.13134 0.0
O436 O 0.85127 0.79362 0.12997 0.0
C437 C 0.89081 0.88821 1.01817 0.0
O438 O 0.86781 0.91799 1.01817 0.0
O439 O 0.78427 0.85767 1.00979 0.0
O440 O 0.77478 0.34253 0.52306 0.0
Tb441 Tb 0.83046 0.33705 0.54913 0.0
C442 C 0.91487 0.36081 0.53599 0.0
O443 O 0.80405 0.38972 0.61364 0.0
Tb444 Tb 0.8661 0.40129 0.60337 0.0
C445 C 0.91085 0.36196 0.64764 0.0
O446 O 0.8105 0.32619 0.60633 0.0
O447 O 0.8605 0.45505 0.63793 0.0
C448 C 0.86156 0.45317 0.67593 0.0
O449 O 0.86769 0.41976 0.69217 0.0
O450 O 0.89191 0.3305 0.53923 0.0
O451 O 0.90379 0.39437 0.5516 0.0
O452 O 0.83269 0.39301 0.52267 0.0
C453 C 0.79149 0.3546 0.62141 0.0
C454 C 0.77641 0.31176 0.50229 0.0
O455 O 0.88005 0.34774 0.63216 0.0
O456 O 0.91605 0.39771 0.63865 0.0
C457 C 0.84595 0.39094 0.48782 0.0
O458 O 0.85643 0.35676 0.47572 0.0
O459 O 0.80901 0.29402 0.50864 0.0
O460 O 0.26274 0.80707 0.63387 0.0
Tb461 Tb 0.309 0.78644 0.59996 0.0
C462 C 0.39035 0.82465 0.61351 0.0
O463 O 0.29357 0.84341 0.52613 0.0
Tb464 Tb 0.3524 0.82653 0.53606 0.0
C465 C 0.39655 0.85151 0.47951 0.0
O466 O 0.27426 0.78422 0.54549 0.0
O467 O 0.3564 0.76551 0.55162 0.0
C468 C 0.36889 0.73625 0.53144 0.0
O469 O 0.3707 0.70216 0.54739 0.0
O470 O 0.36988 0.79289 0.61806 0.0
O471 O 0.38135 0.8484 0.58601 0.0
O472 O 0.30406 0.74204 0.64522 0.0
C473 C 0.2679 0.81584 0.5244 0.0
C474 C 0.27255 0.84301 0.63152 0.0
O475 O 0.39173 0.8687 0.5118 0.0
O476 O 0.37661 0.81989 0.47961 0.0
C477 C 0.32915 0.71396 0.65064 0.0
O478 O 0.35296 0.70591 0.62298 0.0
O479 O 0.30372 0.84777 0.61185 0.0
C480 C 0.13889 0.30731 0.22406 0.0
C481 C 0.1394 0.33314 0.2556 0.0
C482 C 0.18214 0.37589 0.21842 0.0
C483 C 0.18643 0.3476 0.18967 0.0
N484 N 0.17079 0.28446 0.16677 0.0
N485 N 0.16823 0.38925 0.28443 0.0
C486 C 0.16509 0.31283 0.19289 0.0
C487 C 0.16259 0.36687 0.25302 0.0
N488 N 0.11248 0.27825 0.22309 0.0
N489 N 0.19691 0.4118 0.21255 0.0
H490 H 0.15632 0.38296 0.31082 0.0
H491 H 0.18814 0.41163 0.28544 0.0
H492 H 0.20996 0.41944 0.18706 0.0
H493 H 0.19221 0.43489 0.23077 0.0
H494 H 0.10814 0.2608 0.19945 0.0
H495 H 0.09236 0.2739 0.24455 0.0
H496 H 0.15995 0.25667 0.16976 0.0
H497 H 0.18818 0.28842 0.14295 0.0
C498 C 0.37614 0.658 0.7327 0.0
C499 C 0.34587 0.65301 0.7593 0.0
C500 C 0.30236 0.68406 0.71264 0.0
C501 C 0.33406 0.69412 0.68896 0.0
N502 N 0.40326 0.70067 0.68581 0.0
N503 N 0.28073 0.66854 0.77649 0.0
C504 C 0.37157 0.68405 0.70175 0.0
C505 C 0.30909 0.66816 0.74981 0.0
N506 N 0.40874 0.63644 0.73537 0.0
N507 N 0.26577 0.68776 0.6993 0.0
H508 H 0.28476 0.65835 0.80407 0.0
H509 H 0.25463 0.68253 0.77237 0.0
H510 H 0.25948 0.69712 0.67188 0.0
H511 H 0.24191 0.67749 0.71399 0.0
H512 H 0.4301 0.63706 0.71466 0.0
H513 H 0.41233 0.61464 0.7554 0.0
H514 H 0.43097 0.69558 0.69578 0.0
H515 H 0.40168 0.7233 0.66641 0.0
C516 C 1.01698 0.81432 0.18623 0.0
C517 C 0.99112 0.8446 0.17677 0.0
C518 C 1.01148 0.87783 0.2353 0.0
C519 C 1.03273 0.8452 0.24789 0.0
N520 N 1.04683 0.77793 0.23713 0.0
N521 N 0.95452 0.89804 0.20204 0.0
C522 C 1.03298 0.81211 0.22385 0.0
C523 C 0.98557 0.87421 0.20419 0.0
N524 N 1.02764 0.78836 0.15923 0.0
N525 N 1.01737 0.91318 0.25114 0.0
H526 H 0.93234 0.89413 0.18254 0.0
H527 H 0.94829 0.91815 0.2231 0.0
H528 H 1.03953 0.91881 0.27022 0.0
H529 H 1.004 0.93795 0.24092 0.0
H530 H 1.04905 0.76797 0.1638 0.0
H531 H 1.01833 0.78993 0.13115 0.0
H532 H 1.04462 0.75236 0.22186 0.0
H533 H 1.05614 0.7741 0.26501 0.0
C534 C 0.87734 0.51782 0.76206 0.0
C535 C 0.83975 0.53201 0.76881 0.0
C536 C 0.81788 0.50113 0.70899 0.0
C537 C 0.85543 0.48688 0.70229 0.0
N538 N 0.92247 0.48835 0.71802 0.0
N539 N 0.77666 0.54515 0.74359 0.0
C540 C 0.88562 0.49755 0.7275 0.0
C541 C 0.81079 0.52606 0.74066 0.0
N542 N 0.90472 0.52201 0.78957 0.0
N543 N 0.78843 0.48925 0.68618 0.0
H544 H 0.77034 0.56379 0.76587 0.0
H545 H 0.75595 0.54538 0.72225 0.0
H546 H 0.79273 0.47253 0.66199 0.0
H547 H 0.75962 0.49399 0.69238 0.0
H548 H 0.93141 0.5087 0.7887 0.0
H549 H 0.89978 0.53688 0.81479 0.0
H550 H 0.94645 0.49788 0.73294 0.0
H551 H 0.92919 0.47395 0.6929 0.0
C552 C 0.15858 0.7877 0.91458 0.0
C553 C 0.14383 0.82461 0.90525 0.0
C554 C 0.17477 0.85125 0.96303 0.0
C555 C 0.18958 0.81439 0.97237 0.0
N556 N 0.18946 0.74621 0.96143 0.0
N557 N 0.12975 0.88922 0.92589 0.0
C558 C 0.17933 0.7822 0.94947 0.0
C559 C 0.14946 0.85565 0.93117 0.0
N560 N 0.15427 0.75826 0.88925 0.0
N561 N 0.18649 0.88255 0.98345 0.0
H562 H 0.11073 0.89349 0.90339 0.0
H563 H 0.12939 0.91147 0.94564 0.0
H564 H 0.20363 0.88026 1.00766 0.0
H565 H 0.18112 0.91082 0.97522 0.0
H566 H 0.16778 0.73173 0.89192 0.0
H567 H 0.13886 0.76122 0.86399 0.0
H568 H 0.18044 0.72096 0.94829 0.0
H569 H 0.20429 0.74153 0.9868 0.0
C570 C 0.81212 0.63996 0.44056 0.0
C571 C 0.83273 0.64909 0.40667 0.0
C572 C 0.87115 0.69544 0.44343 0.0
C573 C 0.84645 0.69134 0.4752 0.0
N574 N 0.79081 0.66143 0.50285 0.0
N575 N 0.87733 0.69187 0.37522 0.0
C576 C 0.81629 0.66387 0.47356 0.0
C577 C 0.86117 0.67844 0.40803 0.0
N578 N 0.78988 0.6076 0.44197 0.0
N579 N 0.90466 0.71548 0.44726 0.0
H580 H 0.86954 0.68192 0.34839 0.0
H581 H 0.89524 0.71591 0.37433 0.0
H582 H 0.9135 0.72672 0.47327 0.0
H583 H 0.92548 0.71691 0.42609 0.0
H584 H 0.77722 0.59757 0.46688 0.0
H585 H 0.78721 0.58862 0.41924 0.0
H586 H 0.76557 0.64538 0.50142 0.0
H587 H 0.79392 0.67736 0.52774 0.0
C588 C 0.99561 0.37598 0.89041 0.0
C589 C 1.02402 0.34696 0.89547 0.0
C590 C 0.99701 0.33292 0.95901 0.0
C591 C 0.97038 0.36342 0.95467 0.0
N592 N 0.94839 0.41826 0.9193 0.0
N593 N 1.05583 0.30267 0.93829 0.0
C594 C 0.97112 0.38632 0.92132 0.0
C595 C 1.02583 0.32676 0.9308 0.0
N596 N 0.9903 0.3921 0.85535 0.0
N597 N 0.99388 0.30871 0.98952 0.0
H598 H 1.07733 0.29661 0.91883 0.0
H599 H 1.06127 0.29108 0.96504 0.0
H600 H 0.97443 0.31322 1.01156 0.0
H601 H 1.00874 0.28284 0.99181 0.0
H602 H 0.96741 0.41009 0.84869 0.0
H603 H 1.00658 0.3847 0.83168 0.0
H604 H 0.95021 0.43855 0.89759 0.0
H605 H 0.93009 0.42633 0.94132 0.0
C606 C 0.39012 0.5345 0.43925 0.0
C607 C 0.35751 0.55285 0.42315 0.0
C608 C 0.32131 0.53516 0.48101 0.0
C609 C 0.35182 0.51088 0.49346 0.0
N610 N 0.41212 0.48059 0.4765 0.0
N611 N 0.28959 0.56554 0.42736 0.0
C612 C 0.38548 0.50875 0.47049 0.0
C613 C 0.3224 0.55191 0.44374 0.0
N614 N 0.42594 0.54239 0.42556 0.0
N615 N 0.29194 0.54365 0.50517 0.0
H616 H 0.28886 0.57712 0.40005 0.0
H617 H 0.26257 0.56194 0.4395 0.0
H618 H 0.29118 0.53403 0.53321 0.0
H619 H 0.27082 0.56384 0.49879 0.0
H620 H 0.45088 0.53231 0.43854 0.0
H621 H 0.43096 0.56257 0.40417 0.0
H622 H 0.4362 0.47712 0.45939 0.0
H623 H 0.40798 0.45762 0.49506 0.0
C624 C 0.22559 0.14708 0.31767 0.0
C625 C 0.26055 0.15088 0.33842 0.0
C626 C 0.2306 0.20227 0.37667 0.0
C627 C 0.1978 0.20187 0.35276 0.0
N628 N 0.16499 0.17592 0.29842 0.0
N629 N 0.29768 0.18575 0.38499 0.0
C630 C 0.19545 0.1746 0.32285 0.0
C631 C 0.26323 0.1792 0.36752 0.0
N632 N 0.22059 0.11639 0.29396 0.0
N633 N 0.23042 0.22482 0.40843 0.0
H634 H 0.32237 0.17014 0.37889 0.0
H635 H 0.30279 0.20887 0.40308 0.0
H636 H 0.20695 0.24182 0.41583 0.0
H637 H 0.25165 0.2239 0.42923 0.0
H638 H 0.19451 0.10967 0.28111 0.0
H639 H 0.2416 0.09556 0.28969 0.0
H640 H 0.1637 0.16034 0.27322 0.0
H641 H 0.14178 0.19439 0.30244 0.0
C642 C 0.55313 0.73483 0.85303 0.0
C643 C 0.54925 0.75588 0.81834 0.0
C644 C 0.49346 0.71515 0.80208 0.0
C645 C 0.49383 0.69825 0.83894 0.0
N646 N 0.52401 0.69247 0.9001 0.0
N647 N 0.5292 0.74817 0.75313 0.0
C648 C 0.52412 0.70771 0.86432 0.0
C649 C 0.52328 0.74103 0.79077 0.0
N650 N 0.58632 0.73813 0.87347 0.0
N651 N 0.4638 0.70735 0.77789 0.0
H652 H 0.55424 0.76076 0.74297 0.0
H653 H 0.51292 0.73559 0.73164 0.0
H654 H 0.44309 0.68646 0.78357 0.0
H655 H 0.4585 0.72337 0.75342 0.0
H656 H 0.59261 0.72147 0.89726 0.0
H657 H 0.60997 0.75352 0.86352 0.0
H658 H 0.54205 0.70191 0.92177 0.0
H659 H 0.50415 0.67176 0.90878 0.0
C660 C 0.97696 0.98963 0.3373 0.0
C661 C 0.96955 0.95793 0.36175 0.0
C662 C 0.90329 0.98081 0.37037 0.0
C663 C 0.91123 1.01375 0.3476 0.0
N664 N 0.95925 1.05433 0.31842 0.0
N665 N 0.92878 0.92889 0.40897 0.0
C666 C 0.94915 1.01959 0.33366 0.0
C667 C 0.93366 0.95539 0.38062 0.0
N668 N 1.00968 0.99039 0.31605 0.0
N669 N 0.8664 0.97253 0.38073 0.0
H670 H 0.95066 0.91045 0.41778 0.0
H671 H 0.90463 0.92794 0.42633 0.0
H672 H 0.84311 0.9898 0.37354 0.0
H673 H 0.85836 0.94665 0.3934 0.0
H674 H 1.01445 1.01031 0.29441 0.0
H675 H 1.03072 0.96925 0.31796 0.0
H676 H 0.9874 1.06144 0.31132 0.0
H677 H 0.94044 1.07754 0.3167 0.0
C678 C 0.67106 0.45743 0.86974 0.0
C679 C 0.67991 0.48494 0.84134 0.0
C680 C 0.63478 0.45168 0.79826 0.0
C681 C 0.63148 0.42051 0.82444 0.0
N682 N 0.65344 0.39147 0.88307 0.0
N683 N 0.67202 0.507 0.77711 0.0
C684 C 0.65117 0.42295 0.85985 0.0
C685 C 0.66207 0.48177 0.8052 0.0
N686 N 0.68209 0.46408 0.90631 0.0
N687 N 0.61095 0.45344 0.76748 0.0
H688 H 0.6901 0.53047 0.78201 0.0
H689 H 0.6639 0.50349 0.74884 0.0
H690 H 0.58958 0.43308 0.7623 0.0
H691 H 0.60971 0.47711 0.74934 0.0
H692 H 0.67408 0.44658 0.92902 0.0
H693 H 0.69514 0.48977 0.91432 0.0
H694 H 0.67079 0.39053 0.90717 0.0
H695 H 0.64171 0.36481 0.87615 0.0
C696 C 0.26983 0.98866 0.8051 0.0
C697 C 0.26651 1.01687 0.83403 0.0
C698 C 0.20128 0.99253 0.848 0.0
C699 C 0.20397 0.96669 0.81706 0.0
N700 N 0.23612 0.94964 0.75917 0.0
N701 N 0.22437 1.05169 0.87631 0.0
C702 C 0.23678 0.96794 0.79338 0.0
C703 C 0.23087 1.02057 0.85369 0.0
N704 N 0.30488 0.97982 0.79015 0.0
N705 N 0.17119 0.98962 0.87262 0.0
H706 H 0.24413 1.07392 0.87937 0.0
H707 H 0.19782 1.05753 0.88854 0.0
H708 H 0.1486 0.97031 0.8685 0.0
H709 H 0.16999 1.00462 0.89818 0.0
H710 H 0.30907 0.95683 0.77164 0.0
H711 H 0.33041 0.99226 0.79954 0.0
H712 H 0.25812 0.95199 0.73927 0.0
H713 H 0.21141 0.93624 0.74904 0.0
C714 C 0.67908 0.77077 0.29851 0.0
C715 C 0.65178 0.76896 0.32846 0.0
C716 C 0.67107 0.70138 0.34099 0.0
C717 C 0.70095 0.7047 0.31396 0.0
N718 N 0.73431 0.74247 0.26705 0.0
N719 N 0.62281 0.73273 0.37964 0.0
C720 C 0.70486 0.7393 0.29249 0.0
C721 C 0.64799 0.73422 0.34996 0.0
N722 N 0.68072 0.80285 0.27601 0.0
N723 N 0.66461 0.66657 0.35796 0.0
H724 H 0.60308 0.75434 0.38542 0.0
H725 H 0.62235 0.71076 0.39974 0.0
H726 H 0.68133 0.64239 0.35237 0.0
H727 H 0.64097 0.66055 0.37499 0.0
H728 H 0.69644 0.80455 0.25097 0.0
H729 H 0.66477 0.8276 0.28125 0.0
H730 H 0.7427 0.76814 0.25426 0.0
H731 H 0.75161 0.71927 0.25961 0.0
C732 C 0.92231 0.17644 0.80474 0.0
C733 C 0.92371 0.15023 0.8358 0.0
C734 C 0.98922 0.17401 0.85084 0.0
C735 C 0.98822 0.19897 0.81886 0.0
N736 N 0.95728 0.21717 0.76052 0.0
N737 N 0.96218 0.11837 0.88333 0.0
C738 C 0.95585 0.19777 0.79426 0.0
C739 C 0.95829 0.14737 0.85738 0.0
N740 N 0.88823 0.18289 0.78656 0.0
N741 N 1.01901 0.17685 0.8759 0.0
H742 H 0.94072 0.09806 0.8884 0.0
H743 H 0.98783 0.1123 0.89727 0.0
H744 H 1.04258 0.19476 0.87108 0.0
H745 H 1.01936 0.16316 0.90223 0.0
H746 H 0.88425 0.20474 0.76667 0.0
H747 H 0.86278 0.16898 0.79393 0.0
H748 H 0.93634 0.21481 0.73952 0.0
H749 H 0.9815 0.23251 0.75191 0.0
C750 C 0.50393 0.43503 0.35997 0.0
C751 C 0.5283 0.4212 0.33054 0.0
C752 C 0.49616 0.46719 0.28636 0.0
C753 C 0.46736 0.47427 0.31395 0.0
N754 N 0.44264 0.46208 0.37693 0.0
N755 N 0.55298 0.43171 0.26725 0.0
C756 C 0.47092 0.45725 0.35056 0.0
C757 C 0.52598 0.43967 0.29415 0.0
N758 N 0.51342 0.43 0.39732 0.0
N759 N 0.49496 0.48678 0.25266 0.0
H760 H 0.5791 0.41888 0.27383 0.0
H761 H 0.55028 0.43861 0.23863 0.0
H762 H 0.47285 0.50557 0.2455 0.0
H763 H 0.51658 0.48623 0.23237 0.0
H764 H 0.49775 0.4419 0.41956 0.0
H765 H 0.53984 0.41982 0.40642 0.0
H766 H 0.44041 0.44463 0.40093 0.0
H767 H 0.42016 0.48154 0.37381 0.0
C768 C 0.36564 0.27201 0.18435 0.0
C769 C 0.33816 0.26906 0.15461 0.0
C770 C 0.32423 0.20206 0.17492 0.0
C771 C 0.35265 0.20469 0.20369 0.0
N772 N 0.406 0.23924 0.23054 0.0
N773 N 0.29747 0.22801 0.11661 0.0
C774 C 0.37511 0.23881 0.2066 0.0
C775 C 0.31924 0.2331 0.14848 0.0
N776 N 0.38134 0.30707 0.19272 0.0
N777 N 0.30077 0.17054 0.17382 0.0
H778 H 0.29336 0.2496 0.09657 0.0
H779 H 0.2864 0.20148 0.10828 0.0
H780 H 0.30457 0.14684 0.19164 0.0
H781 H 0.27628 0.16885 0.15692 0.0
H782 H 0.39807 0.31223 0.2167 0.0
H783 H 0.37495 0.33202 0.17749 0.0
H784 H 0.42582 0.26166 0.23174 0.0
H785 H 0.41396 0.21531 0.24662 0.0
C786 C 0.31461 0.92268 0.98404 0.0
C787 C 0.32599 0.92078 1.02278 0.0
C788 C 0.34197 0.9903 1.02074 0.0
C789 C 0.33245 0.99142 0.98173 0.0
N790 N 0.31687 0.95734 0.92414 0.0
N791 N 0.35629 0.9521 1.0764 0.0
C792 C 0.32064 0.95723 0.96282 0.0
C793 C 0.34153 0.95436 1.04057 0.0
N794 N 0.29816 0.89131 0.96732 0.0
N795 N 0.35001 1.02393 1.03928 0.0
H796 H 0.35516 0.92736 0.09287 0.0
H797 H 0.37208 0.97411 0.0889 0.0
H798 H 0.35162 1.05043 1.0254 0.0
H799 H 0.35228 1.02619 1.06867 0.0
H800 H 0.28438 0.89208 0.94108 0.0
H801 H 0.29655 0.86471 0.98075 0.0
H802 H 0.31231 0.93266 0.90803 0.0
H803 H 0.32182 0.98168 0.9075 0.0
C804 C 0.71224 0.80491 0.46841 0.0
C805 C 0.68518 0.83378 0.47789 0.0
C806 C 0.73062 0.85698 0.52657 0.0
C807 C 0.75486 0.82397 0.52111 0.0
N808 N 0.75742 0.75969 0.49349 0.0
N809 N 0.66601 0.88279 0.52216 0.0
C810 C 0.74228 0.79582 0.49422 0.0
C811 C 0.69371 0.85872 0.50856 0.0
N812 N 0.71055 0.7869 0.43397 0.0
N813 N 0.74181 0.88685 0.54911 0.0
H814 H 0.63842 0.88405 0.51078 0.0
H815 H 0.66918 0.89847 0.54718 0.0
H816 H 0.76569 0.88657 0.56659 0.0
H817 H 0.72784 0.91334 0.5488 0.0
H818 H 0.73171 0.76791 0.42477 0.0
H819 H 0.69122 0.79474 0.41273 0.0
H820 H 0.74689 0.73814 0.47569 0.0
H821 H 0.77577 0.74913 0.51407 0.0
C822 C 0.88318 0.23091 1.02674 0.0
C823 C 0.85349 0.2584 1.03225 0.0
C824 C 0.80965 0.21664 0.99566 0.0
C825 C 0.84092 0.19323 0.9846 0.0
N826 N 0.90817 0.17858 0.98837 0.0
N827 N 0.78879 0.279 1.01826 0.0
C828 C 0.87785 0.20034 1.00011 0.0
C829 C 0.81656 0.25138 1.01625 0.0
N830 N 0.91604 0.23327 1.04785 0.0
N831 N 0.77326 0.20582 0.98594 0.0
H832 H 0.79272 0.30528 1.0319 0.0
H833 H 0.76298 0.27744 1.00341 0.0
H834 H 0.76761 0.18036 0.97132 0.0
H835 H 0.74876 0.21968 0.99578 0.0
H836 H 0.93727 0.21224 1.04762 0.0
H837 H 0.92033 0.25424 1.06859 0.0
H838 H 0.93662 0.18525 0.99465 0.0
H839 H 0.90477 0.15474 0.97066 0.0
C840 C 0.45175 0.37354 0.51581 0.0
C841 C 0.41525 0.35764 0.50575 0.0
C842 C 0.4473 0.32001 0.45589 0.0
C843 C 0.48216 0.34042 0.46169 0.0
N844 N 0.51616 0.39045 0.49485 0.0
N845 N 0.37817 0.32121 0.46015 0.0
C846 C 0.48406 0.36822 0.49112 0.0
C847 C 0.41307 0.33228 0.47417 0.0
N848 N 0.45636 0.39196 0.54974 0.0
N849 N 0.44702 0.28821 0.43316 0.0
H850 H 0.35223 0.33078 0.47131 0.0
H851 H 0.37499 0.30603 0.43484 0.0
H852 H 0.47193 0.2775 0.42077 0.0
H853 H 0.4233 0.27013 0.43032 0.0
H854 H 0.48301 0.40084 0.55994 0.0
H855 H 0.43445 0.3947 0.56961 0.0
H856 H 0.51753 0.41428 0.51273 0.0
H857 H 0.5405 0.3865 0.47813 0.0
C858 C 0.82268 0.91377 0.18589 0.0
C859 C 0.84651 0.91713 0.15334 0.0
C860 C 0.86166 0.98417 0.17231 0.0
C861 C 0.83562 0.98133 0.20312 0.0
N862 N 0.78341 0.94675 0.23216 0.0
N863 N 0.88144 0.95944 0.11102 0.0
C864 C 0.81363 0.94714 0.20753 0.0
C865 C 0.86402 0.95346 0.14523 0.0
N866 N 0.81025 0.87837 0.19763 0.0
N867 N 0.88516 1.01552 0.16956 0.0
H868 H 0.88256 0.93861 0.08987 0.0
H869 H 0.89129 0.98629 0.10211 0.0
H870 H 0.88337 1.03881 0.18811 0.0
H871 H 0.90795 1.0172 0.15051 0.0
H872 H 0.79619 0.8739 0.22336 0.0
H873 H 0.81762 0.85288 0.18393 0.0
H874 H 0.76418 0.92385 0.23431 0.0
H875 H 0.77506 0.97115 0.24719 0.0
C876 C 0.71477 0.35949 0.70093 0.0
C877 C 0.68423 0.33756 0.68505 0.0
C878 C 0.72614 0.32067 0.63127 0.0
C879 C 0.75493 0.34727 0.64411 0.0
N880 N 0.7761 0.39126 0.69285 0.0
N881 N 0.65942 0.30011 0.63334 0.0
C882 C 0.74883 0.36662 0.67932 0.0
C883 C 0.68973 0.31859 0.65001 0.0
N884 N 0.71209 0.37177 0.73775 0.0
N885 N 0.73313 0.29665 0.60148 0.0
H886 H 0.63269 0.29739 0.64637 0.0
H887 H 0.65982 0.29016 0.60545 0.0
H888 H 0.75638 0.29907 0.58333 0.0
H889 H 0.71624 0.27257 0.59575 0.0
H890 H 0.73465 0.38424 0.75274 0.0
H891 H 0.68837 0.36606 0.7549 0.0
H892 H 0.77134 0.41071 0.7148 0.0
H893 H 0.80343 0.39298 0.68137 0.0
C894 C 0.42933 0.86839 0.65694 0.0
C895 C 0.42554 0.83265 0.63738 0.0
C896 C 0.48842 0.81247 0.66339 0.0
C897 C 0.4916 0.84774 0.68341 0.0
N898 N 0.47007 0.9125 0.69265 0.0
N899 N 0.45507 0.77378 0.61619 0.0
C900 C 0.4636 0.87674 0.67789 0.0
C901 C 0.45615 0.80553 0.63903 0.0
N902 N 0.39927 0.89359 0.65728 0.0
N903 N 0.51631 0.78537 0.66824 0.0
H904 H 0.43216 0.76764 0.5982 0.0
H905 H 0.4778 0.75475 0.6129 0.0
H906 H 0.54178 0.79134 0.68271 0.0
H907 H 0.51406 0.75705 0.65897 0.0
H908 H 0.39811 0.91785 0.6745 0.0
H909 H 0.37384 0.88887 0.64243 0.0
H910 H 0.45293 0.93632 0.68705 0.0
H911 H 0.495 0.91924 0.70768 0.0
C912 C 0.90712 0.86575 0.95388 0.0
C913 C 0.9188 0.88442 0.98775 0.0
C914 C 0.98409 0.89087 0.96409 0.0
C915 C 0.97272 0.87061 0.93076 0.0
N916 N 0.92687 0.83018 0.89829 0.0
N917 N 0.96836 0.9089 1.02876 0.0
C918 C 0.93514 0.85563 0.92682 0.0
C919 C 0.95732 0.89522 0.99401 0.0
N920 N 0.86919 0.85759 0.94775 0.0
N921 N 1.01954 0.90764 0.96654 0.0
H922 H 0.94896 0.91398 1.05073 0.0
H923 H 0.99689 0.91271 1.03675 0.0
H924 H 1.0404 0.90558 0.94558 0.0
H925 H 1.02744 0.9265 0.98813 0.0
H926 H 0.85851 0.84645 0.92248 0.0
H927 H 0.84765 0.86435 0.96706 0.0
H928 H 0.90075 0.81594 0.89546 0.0
H929 H 0.94747 0.81985 0.87948 0.0
C930 C 0.86304 0.46166 0.47513 0.0
C931 C 0.85166 0.42443 0.46207 0.0
C932 C 0.87136 0.4415 0.39755 0.0
C933 C 0.87759 0.47964 0.40922 0.0
N934 N 0.87816 0.52772 0.45813 0.0
N935 N 0.83196 0.3857 0.4083 0.0
C936 C 0.87344 0.49007 0.44788 0.0
C937 C 0.85217 0.41626 0.42248 0.0
N938 N 0.86522 0.47005 0.51298 0.0
N939 N 0.88213 0.42987 0.36215 0.0
H940 H 0.81293 0.36966 0.42487 0.0
H941 H 0.83022 0.37939 0.37945 0.0
H942 H 0.89678 0.44792 0.34344 0.0
H943 H 0.88038 0.4013 0.35329 0.0
H944 H 0.87865 0.49466 0.52343 0.0
H945 H 0.85596 0.45207 0.5346 0.0
H946 H 0.87005 0.53872 0.48441 0.0
H947 H 0.88873 0.54843 0.4393 0.0
C948 C 0.19714 0.30569 0.94819 0.0
C949 C 0.18504 0.34367 0.93866 0.0
C950 C 0.20243 0.36577 1.00245 0.0
C951 C 0.21776 0.32887 1.01053 0.0
N952 N 0.23062 0.26336 0.99151 0.0
N953 N 0.17643 0.41022 0.9557 0.0
C954 C 0.21449 0.29846 0.98392 0.0
C955 C 0.18776 0.37389 0.96553 0.0
N956 N 0.19271 0.27641 0.92262 0.0
N957 N 0.2016 0.39272 1.03069 0.0
H958 H 0.16401 0.4168 0.92957 0.0
H959 H 0.18098 0.43442 0.97245 0.0
H960 H 0.21161 0.3869 1.05802 0.0
H961 H 0.18859 0.41951 1.02829 0.0
H962 H 0.19334 0.24739 0.92992 0.0
H963 H 0.18763 0.28093 0.89386 0.0
H964 H 0.23396 0.24162 0.97155 0.0
H965 H 0.24224 0.25571 1.01763 0.0
C966 C 0.42807 0.72414 0.44369 0.0
C967 C 0.39915 0.72587 0.41535 0.0
C968 C 0.35123 0.74104 0.46294 0.0
C969 C 0.37987 0.73947 0.49139 0.0
N970 N 0.44693 0.74077 0.50785 0.0
N971 N 0.33882 0.75468 0.3969 0.0
C972 C 0.41891 0.73501 0.48136 0.0
C973 C 0.36262 0.74093 0.42452 0.0
N974 N 0.46376 0.71084 0.43484 0.0
N975 N 0.31328 0.74025 0.47231 0.0
H976 H 0.34817 0.7594 0.36918 0.0
H977 H 0.31206 0.76655 0.40274 0.0
H978 H 0.30387 0.73828 0.50028 0.0
H979 H 0.29149 0.73784 0.45213 0.0
H980 H 0.48456 0.70429 0.45509 0.0
H981 H 0.47209 0.70576 0.40689 0.0
H982 H 0.47608 0.74124 0.50135 0.0
H983 H 0.44066 0.74876 0.53566 0.0
C984 C 0.95253 0.3831 0.19028 0.0
C985 C 0.95976 0.35265 0.1645 0.0
C986 C 0.97007 0.30857 0.21735 0.0
C987 C 0.96797 0.34015 0.24264 0.0
N988 N 0.93915 0.40145 0.25534 0.0
N989 N 0.97958 0.28725 0.15274 0.0
C990 C 0.95353 0.37572 0.22985 0.0
C991 C 0.9695 0.3155 0.1778 0.0
N992 N 0.94801 0.41967 0.17705 0.0
N993 N 0.97052 0.27189 0.23133 0.0
H994 H 0.9783 0.29085 0.12334 0.0
H995 H 0.99139 0.26107 0.16111 0.0
H996 H 0.96738 0.26608 0.26023 0.0
H997 H 0.96863 0.24748 0.21431 0.0
H998 H 0.94709 0.44368 0.19466 0.0
H999 H 0.94921 0.42614 0.14821 0.0
H1000 H 0.92535 0.42679 0.24744 0.0
H1001 H 0.93629 0.39472 0.28408 0.0
C1002 C 0.32252 0.43468 0.75366 0.0
C1003 C 0.3361 0.47245 0.7472 0.0
C1004 C 0.36315 0.45342 0.68608 0.0
C1005 C 0.34897 0.41574 0.69229 0.0
N1006 N 0.30496 0.37373 0.72584 0.0
N1007 N 0.36128 0.52049 0.70383 0.0
C1008 C 0.32562 0.40722 0.72431 0.0
C1009 C 0.35324 0.48285 0.71204 0.0
N1010 N 0.30706 0.42491 0.78803 0.0
N1011 N 0.38854 0.4605 0.65729 0.0
H1012 H 0.35687 0.54307 0.72265 0.0
H1013 H 0.36963 0.52982 0.67696 0.0
H1014 H 0.3977 0.43948 0.6383 0.0
H1015 H 0.40341 0.48634 0.65426 0.0
H1016 H 0.30145 0.3966 0.7961 0.0
H1017 H 0.30167 0.44501 0.80934 0.0
H1018 H 0.28474 0.36781 0.74682 0.0
H1019 H 0.30436 0.35377 0.7038 0.0
C1020 C 0.20467 0.87485 0.16135 0.0
C1021 C 0.24033 0.89408 0.16333 0.0
C1022 C 0.23827 0.89345 0.23231 0.0
C1023 C 0.20206 0.87527 0.23063 0.0
N1024 N 0.14537 0.85979 0.19362 0.0
N1025 N 0.28415 0.93358 0.19951 0.0
C1026 C 0.18345 0.86921 0.19517 0.0
C1027 C 0.25467 0.90765 0.19846 0.0
N1028 N 0.19164 0.86127 0.1273 0.0
N1029 N 0.25792 0.8954 0.26583 0.0
H1030 H 0.29569 0.94595 0.17512 0.0
H1031 H 0.29397 0.94626 0.22449 0.0
H1032 H 0.24761 0.88398 0.29127 0.0
H1033 H 0.28592 0.90547 0.26761 0.0
H1034 H 0.16812 0.8429 0.12476 0.0
H1035 H 0.20568 0.86719 0.10177 0.0
H1036 H 0.12995 0.85831 0.1683 0.0
H1037 H 0.12808 0.8575 0.21763 0.0
C1038 C 0.8159 0.73496 0.73702 0.0
C1039 C 0.79809 0.69837 0.73489 0.0
C1040 C 0.77748 0.71228 0.66972 0.0
C1041 C 0.79084 0.75037 0.6743 0.0
N1042 N 0.81417 0.80078 0.71558 0.0
N1043 N 0.75543 0.65466 0.70105 0.0
C1044 C 0.80731 0.76262 0.70904 0.0
C1045 C 0.7772 0.68742 0.7017 0.0
N1046 N 0.84226 0.74283 0.76478 0.0
N1047 N 0.7661 0.69953 0.63477 0.0
H1048 H 0.75272 0.63586 0.72386 0.0
H1049 H 0.73668 0.64804 0.67894 0.0
H1050 H 0.76547 0.71723 0.61082 0.0
H1051 H 0.76034 0.6707 0.62895 0.0
H1052 H 0.85753 0.76857 0.76623 0.0
H1053 H 0.85253 0.72204 0.78355 0.0
H1054 H 0.82365 0.81129 0.74161 0.0
H1055 H 0.80655 0.82235 0.69641 0.0
C1056 C 0.95498 0.96045 0.85651 0.0
C1057 C 0.93602 0.96986 0.82226 0.0
C1058 C 0.99407 0.95499 0.78646 0.0
C1059 C 1.0143 0.95106 0.82135 0.0
N1060 N 1.01548 0.95715 0.88958 0.0
N1061 N 0.93248 0.96195 0.75456 0.0
C1062 C 0.99512 0.95533 0.85644 0.0
C1063 C 0.95391 0.96263 0.78702 0.0
N1064 N 0.93413 0.95612 0.88907 0.0
N1065 N 1.01386 0.95445 0.75303 0.0
H1066 H 0.90275 0.96476 0.75483 0.0
H1067 H 0.94322 0.95401 0.72815 0.0
H1068 H 1.04319 0.94876 0.7517 0.0
H1069 H 1.00198 0.96216 0.727 0.0
H1070 H 0.94592 0.94735 0.91483 0.0
H1071 H 0.90419 0.95751 0.88906 0.0
H1072 H 1.00334 0.96589 0.91516 0.0
H1073 H 1.04505 0.95281 0.89104 0.0
C1074 C 0.6885 0.46808 0.27833 0.0
C1075 C 0.69534 0.42835 0.27282 0.0
C1076 C 0.75909 0.43497 0.2984 0.0
C1077 C 0.75463 0.47552 0.30143 0.0
N1078 N 0.71459 0.53163 0.288 0.0
N1079 N 0.74202 0.37873 0.2622 0.0
C1080 C 0.71916 0.49263 0.28975 0.0
C1081 C 0.73255 0.41369 0.27691 0.0
N1082 N 0.65214 0.4819 0.27377 0.0
N1083 N 0.78698 0.4162 0.31837 0.0
H1084 H 0.72337 0.36346 0.24459 0.0
H1085 H 0.76986 0.36782 0.26349 0.0
H1086 H 0.80375 0.43006 0.33875 0.0
H1087 H 0.78943 0.38629 0.31862 0.0
H1088 H 0.64353 0.50915 0.28256 0.0
H1089 H 0.63024 0.46497 0.2623 0.0
H1090 H 0.69121 0.54466 0.27481 0.0
H1091 H 0.7346 0.55161 0.2972 0.0
C1092 C 0.27841 0.2335 0.80124 0.0
C1093 C 0.26434 0.19743 0.78941 0.0
C1094 C 0.19835 0.22164 0.79224 0.0
C1095 C 0.21255 0.25619 0.80903 0.0
N1096 N 0.26542 0.28789 0.84111 0.0
N1097 N 0.21151 0.15517 0.77562 0.0
C1098 C 0.25245 0.26024 0.81659 0.0
C1099 C 0.22441 0.19105 0.78521 0.0
N1100 N 0.31673 0.24162 0.79981 0.0
N1101 N 0.16066 0.21795 0.78212 0.0
H1102 H 0.2301 0.13312 0.76758 0.0
H1103 H 0.18286 0.14679 0.77729 0.0
H1104 H 0.13984 0.23848 0.78747 0.0
H1105 H 0.15029 0.19537 0.76561 0.0
H1106 H 0.32783 0.26892 0.80528 0.0
H1107 H 0.33697 0.22251 0.78922 0.0
H1108 H 0.294 0.29032 0.84946 0.0
H1109 H 0.24706 0.3047 0.85751 0.0
C1110 C 0.48814 0.68141 0.32037 0.0
C1111 C 0.46284 0.66968 0.2912 0.0
C1112 C 0.45887 0.73584 0.26751 0.0
C1113 C 0.48649 0.74698 0.29477 0.0
N1114 N 0.53431 0.72854 0.34136 0.0
N1115 N 0.43262 0.6831 0.23099 0.0
C1116 C 0.50307 0.71928 0.31966 0.0
C1117 C 0.45034 0.69613 0.26308 0.0
N1118 N 0.4983 0.65617 0.34852 0.0
N1119 N 0.44108 0.76303 0.24576 0.0
H1120 H 0.42779 0.65395 0.22598 0.0
H1121 H 0.42638 0.70071 0.20784 0.0
H1122 H 0.44792 0.7922 0.24759 0.0
H1123 H 0.41782 0.75691 0.22812 0.0
H1124 H 0.51406 0.66399 0.37244 0.0
H1125 H 0.4885 0.62781 0.34966 0.0
H1126 H 0.55036 0.70828 0.35624 0.0
H1127 H 0.54626 0.75598 0.34237 0.0
C1128 C 0.96816 0.17785 0.40334 0.0
C1129 C 0.92973 0.18145 0.41521 0.0
C1130 C 0.93108 0.24983 0.40523 0.0
C1131 C 0.96937 0.24714 0.38992 0.0
N1132 N 1.02868 0.20972 0.39317 0.0
N1133 N 0.88612 0.22119 0.44956 0.0
C1134 C 0.98957 0.21156 0.39481 0.0
C1135 C 0.91575 0.21777 0.42465 0.0
N1136 N 0.98354 0.14204 0.39907 0.0
N1137 N 0.90722 0.28026 0.39827 0.0
H1138 H 0.87495 0.19722 0.46369 0.0
H1139 H 0.8767 0.24782 0.45944 0.0
H1140 H 0.91146 0.30096 0.37746 0.0
H1141 H 0.87922 0.28128 0.40854 0.0
H1142 H 1.0096 0.13697 0.38553 0.0
H1143 H 0.96892 0.11737 0.40803 0.0
H1144 H 1.044 0.1847 0.39899 0.0
H1145 H 1.04638 0.23371 0.39178 0.0
C1146 C 0.4391 0.44176 0.80038 0.0
C1147 C 0.45198 0.42472 0.83448 0.0
C1148 C 0.45375 0.48729 0.86539 0.0
C1149 C 0.44505 0.50491 0.82999 0.0
N1150 N 0.43433 0.49966 0.76244 0.0
N1151 N 0.45535 0.42833 0.90241 0.0
C1152 C 0.43869 0.48234 0.79708 0.0
C1153 C 0.45391 0.44654 0.86811 0.0
N1154 N 0.42765 0.41856 0.77121 0.0
N1155 N 0.46531 0.50929 0.8954 0.0
H1156 H 0.45292 0.39852 0.90476 0.0
H1157 H 0.45391 0.44277 0.92827 0.0
H1158 H 0.46597 0.53928 0.89453 0.0
H1159 H 0.4774 0.49771 0.91994 0.0
H1160 H 0.41563 0.42869 0.74609 0.0
H1161 H 0.42713 0.38864 0.77403 0.0
H1162 H 0.43469 0.48468 0.73687 0.0
H1163 H 0.43254 0.52942 0.759 0.0
C1164 C 0.21925 0.96366 0.38503 0.0
C1165 C 0.23562 0.97766 0.3508 0.0
C1166 C 0.1757 0.96577 0.31654 0.0
C1167 C 0.15881 0.95226 0.35052 0.0
N1168 N 0.16108 0.94548 0.41861 0.0
N1169 N 0.23447 0.97704 0.28232 0.0
C1170 C 0.17976 0.95266 0.38521 0.0
C1171 C 0.21528 0.97411 0.31605 0.0
N1172 N 0.24131 0.96008 0.41692 0.0
N1173 N 0.15371 0.97148 0.28478 0.0
H1174 H 0.26431 0.97909 0.28094 0.0
H1175 H 0.22169 0.97237 0.25597 0.0
H1176 H 0.12466 0.96436 0.28328 0.0
H1177 H 0.16365 0.98583 0.26072 0.0
H1178 H 0.2321 0.94656 0.44167 0.0
H1179 H 0.27035 0.9668 0.41768 0.0
H1180 H 0.17336 0.94888 0.44533 0.0
H1181 H 0.13187 0.93914 0.41987 0.0
C1182 C 0.71955 0.73027 0.81562 0.0
C1183 C 0.71264 0.75185 0.84885 0.0
C1184 C 0.71618 0.69324 0.88699 0.0
C1185 C 0.71732 0.67135 0.85289 0.0
N1186 N 0.71132 0.669 0.78464 0.0
N1187 N 0.71946 0.75658 0.91643 0.0
C1188 C 0.71689 0.68981 0.8171 0.0
C1189 C 0.71564 0.73421 0.88484 0.0
N1190 N 0.72822 0.74898 0.78257 0.0
N1191 N 0.71283 0.67481 0.92108 0.0
H1192 H 0.72232 0.7864 0.91462 0.0
H1193 H 0.72449 0.74571 0.94353 0.0
H1194 H 0.71328 0.64491 0.92354 0.0
H1195 H 0.70699 0.68884 0.94649 0.0
H1196 H 0.73333 0.73511 0.75696 0.0
H1197 H 0.73348 0.77859 0.78192 0.0
H1198 H 0.70542 0.68173 0.75849 0.0
H1199 H 0.70942 0.63905 0.78426 0.0
C1200 C 0.79393 0.98681 0.96109 0.0
C1201 C 0.80509 0.9696 0.92586 0.0
C1202 C 0.77584 0.9091 0.94689 0.0
C1203 C 0.77414 0.92288 0.98425 0.0
N1204 N 0.77462 0.97677 1.02681 0.0
N1205 N 0.81562 0.90974 0.8916 0.0
C1206 C 0.78081 0.96253 0.99123 0.0
C1207 C 0.79827 0.92945 0.92037 0.0
N1208 N 0.79405 1.02586 0.96566 0.0
N1209 N 0.75739 0.8759 0.93719 0.0
H1210 H 0.83823 0.9212 0.87582 0.0
H1211 H 0.81153 0.88036 0.88721 0.0
H1212 H 0.73934 0.86164 0.95624 0.0
H1213 H 0.75622 0.86581 0.90932 0.0
H1214 H 0.78239 1.03961 0.98918 0.0
H1215 H 0.80228 1.04536 0.94491 0.0
H1216 H 0.78437 1.00355 1.03593 0.0
H1217 H 0.76002 0.96093 1.04748 0.0
C1218 C 0.86138 0.22174 0.20295 0.0
C1219 C 0.87091 0.26027 0.2127 0.0
C1220 C 0.88327 0.24052 0.27772 0.0
C1221 C 0.86705 0.20394 0.27008 0.0
N1222 N 0.83896 0.15963 0.22476 0.0
N1223 N 0.88474 0.30771 0.26091 0.0
C1224 C 0.85618 0.19412 0.23238 0.0
C1225 C 0.87979 0.27016 0.25057 0.0
N1226 N 0.85649 0.21162 0.16573 0.0
N1227 N 0.90369 0.24636 0.31032 0.0
H1228 H 0.88304 0.33052 0.24173 0.0
H1229 H 0.8877 0.3163 0.28912 0.0
H1230 H 0.90914 0.22422 0.32963 0.0
H1231 H 0.91929 0.27145 0.31538 0.0
H1232 H 0.85459 0.18317 0.15664 0.0
H1233 H 0.85645 0.23141 0.14347 0.0
H1234 H 0.82549 0.15344 0.19906 0.0
H1235 H 0.83604 0.13765 0.24453 0.0
C1236 C 0.42271 0.28576 0.72932 0.0
C1237 C 0.46326 0.29155 0.72806 0.0
C1238 C 0.46108 0.27904 0.65952 0.0
C1239 C 0.42103 0.27264 0.66224 0.0
N1240 N 0.36994 0.25009 0.70218 0.0
N1241 N 0.52208 0.28159 0.69241 0.0
C1242 C 0.40435 0.26828 0.69817 0.0
C1243 C 0.48303 0.28434 0.69332 0.0
N1244 N 0.40076 0.30047 0.75793 0.0
N1245 N 0.47768 0.28131 0.62452 0.0
H1246 H 0.53928 0.28339 0.71648 0.0
H1247 H 0.53717 0.27336 0.66825 0.0
H1248 H 0.46232 0.27506 0.59978 0.0
H1249 H 0.50574 0.29069 0.62017 0.0
H1250 H 0.37087 0.29896 0.75752 0.0
H1251 H 0.41133 0.31927 0.77844 0.0
H1252 H 0.3573 0.24566 0.72862 0.0
H1253 H 0.35711 0.2353 0.67972 0.0
C1254 C 0.40014 0.95229 0.19288 0.0
C1255 C 0.39695 0.91222 0.19826 0.0
C1256 C 0.37459 0.9214 0.26283 0.0
C1257 C 0.37613 0.96226 0.25768 0.0
N1258 N 0.39984 1.016 0.22013 0.0
N1259 N 0.3957 0.85875 0.2408 0.0
C1260 C 0.39191 0.97766 0.22346 0.0
C1261 C 0.38994 0.89705 0.23449 0.0
N1262 N 0.40945 0.96581 0.15766 0.0
N1263 N 0.35533 0.90551 0.29286 0.0
H1264 H 0.40609 0.84073 0.2195 0.0
H1265 H 0.39424 0.8461 0.26761 0.0
H1266 H 0.33832 0.92134 0.31141 0.0
H1267 H 0.35131 0.87601 0.29627 0.0
H1268 H 0.40741 0.99456 0.14961 0.0
H1269 H 0.4182 0.94725 0.13604 0.0
H1270 H 0.41544 1.02777 0.19776 0.0
H1271 H 0.39321 1.03613 0.24072 0.0
C1272 C 0.78173 0.90542 0.7166 0.0
C1273 C 0.7659 0.90853 0.68017 0.0
C1274 C 0.70192 0.8949 0.7061 0.0
C1275 C 0.7196 0.88284 0.74087 0.0
N1276 N 0.77911 0.86852 0.7742 0.0
N1277 N 0.71103 0.91304 0.63986 0.0
C1278 C 0.76028 0.88637 0.745 0.0
C1279 C 0.72575 0.90622 0.67519 0.0
N1280 N 0.81791 0.91875 0.72338 0.0
N1281 N 0.66293 0.89625 0.70228 0.0
H1282 H 0.72809 0.92449 0.61826 0.0
H1283 H 0.68306 0.90653 0.63166 0.0
H1284 H 0.64363 0.88696 0.72265 0.0
H1285 H 0.64908 0.90921 0.67943 0.0
H1286 H 0.83013 0.9193 0.75042 0.0
H1287 H 0.83335 0.93367 0.70267 0.0
H1288 H 0.80883 0.86921 0.77733 0.0
H1289 H 0.76596 0.84844 0.79198 0.0
C1290 C 0.31862 0.24517 0.95032 0.0
C1291 C 0.34496 0.24034 0.98055 0.0
C1292 C 0.35355 0.17264 0.96397 0.0
C1293 C 0.32453 0.17647 0.93583 0.0
N1294 N 0.27755 0.21558 0.90316 0.0
N1295 N 0.38534 0.20008 1.01909 0.0
C1296 C 0.30642 0.21251 0.92934 0.0
C1297 C 0.36205 0.20427 0.98809 0.0
N1298 N 0.30573 0.2813 0.94153 0.0
N1299 N 0.37326 0.13887 0.96729 0.0
H1300 H 0.39352 0.22324 1.03614 0.0
H1301 H 0.39505 0.17362 1.02905 0.0
H1302 H 0.36634 0.11454 0.95149 0.0
H1303 H 0.3977 0.13551 0.98397 0.0
H1304 H 0.28843 0.28773 0.91834 0.0
H1305 H 0.31443 0.30588 0.9562 0.0
H1306 H 0.25971 0.23936 0.90095 0.0
H1307 H 0.26939 0.19353 0.88493 0.0
C1308 C 0.43202 0.83389 0.42176 0.0
C1309 C 0.42876 0.85844 0.4532 0.0
C1310 C 0.49801 0.86856 0.45353 0.0
C1311 C 0.50155 0.83711 0.42791 0.0
N1312 N 0.47154 0.78565 0.39304 0.0
N1313 N 0.4551 0.91289 0.48591 0.0
C1314 C 0.46849 0.81926 0.41252 0.0
C1315 C 0.46079 0.88021 0.46525 0.0
N1316 N 0.40009 0.82428 0.40149 0.0
N1317 N 0.5302 0.88571 0.46793 0.0
H1318 H 0.42762 0.92357 0.49092 0.0
H1319 H 0.47688 0.93168 0.49398 0.0
H1320 H 0.55773 0.8788 0.45863 0.0
H1321 H 0.52994 0.90581 0.48979 0.0
H1322 H 0.40121 0.8091 0.37603 0.0
H1323 H 0.37322 0.8357 0.40814 0.0
H1324 H 0.44837 0.77172 0.38052 0.0
H1325 H 0.49743 0.77116 0.38997 0.0
C1326 C 0.69287 0.34002 0.44581 0.0
C1327 C 0.70598 0.333 0.40843 0.0
C1328 C 0.76063 0.29623 0.43384 0.0
C1329 C 0.74838 0.30556 0.471 0.0
N1330 N 0.69477 0.31934 0.5113 0.0
N1331 N 0.74441 0.29277 0.36707 0.0
C1332 C 0.71154 0.32156 0.47644 0.0
C1333 C 0.73758 0.30761 0.40237 0.0
N1334 N 0.66448 0.36621 0.45256 0.0
N1335 N 0.79438 0.27727 0.4284 0.0
H1336 H 0.72701 0.29821 0.34363 0.0
H1337 H 0.7646 0.27141 0.36177 0.0
H1338 H 0.80865 0.26314 0.45028 0.0
H1339 H 0.80795 0.27533 0.40215 0.0
H1340 H 0.65668 0.37482 0.4798 0.0
H1341 H 0.6514 0.38236 0.43123 0.0
H1342 H 0.66666 0.32796 0.5166 0.0
H1343 H 0.70775 0.30429 0.5334 0.0
C1344 C 0.25102 0.37095 0.44203 0.0
C1345 C 0.23633 0.38077 0.47824 0.0
C1346 C 0.17108 0.37962 0.45359 0.0
C1347 C 0.18529 0.36269 0.42011 0.0
N1348 N 0.23761 0.3429 0.38041 0.0
N1349 N 0.18261 0.39225 0.52007 0.0
C1350 C 0.22504 0.35897 0.4135 0.0
C1351 C 0.19641 0.3852 0.48439 0.0
N1352 N 0.28939 0.37436 0.43466 0.0
N1353 N 0.13319 0.38929 0.45602 0.0
H1354 H 0.20024 0.39519 0.54385 0.0
H1355 H 0.15355 0.39183 0.52685 0.0
H1356 H 0.11423 0.38526 0.43344 0.0
H1357 H 0.12154 0.40462 0.47859 0.0
H1358 H 0.30124 0.37073 0.40778 0.0
H1359 H 0.30909 0.38417 0.45476 0.0
H1360 H 0.26595 0.33479 0.3757 0.0
H1361 H 0.21897 0.33657 0.35802 0.0
C1362 C 0.34506 0.75127 0.96857 0.0
C1363 C 0.33417 0.73642 1.00451 0.0
C1364 C 0.34789 0.67103 0.98424 0.0
C1365 C 0.35504 0.6857 0.94749 0.0
N1366 N 0.35409 0.73742 0.90189 0.0
N1367 N 0.32005 0.68251 1.04586 0.0
C1368 C 0.35183 0.72517 0.93877 0.0
C1369 C 0.33419 0.69636 1.01226 0.0
N1370 N 0.3486 0.79004 0.96273 0.0
N1371 N 0.35444 0.63305 0.99229 0.0
H1372 H 0.31094 0.70021 1.06792 0.0
H1373 H 0.31509 0.65344 1.05112 0.0
H1374 H 0.36228 0.61298 0.97172 0.0
H1375 H 0.35427 0.62181 1.01972 0.0
H1376 H 0.36036 0.80196 0.93822 0.0
H1377 H 0.3429 0.81058 0.98338 0.0
H1378 H 0.34806 0.76544 0.89329 0.0
H1379 H 0.35834 0.71867 0.87921 0.0
C1380 C 1.00511 0.78939 0.46817 0.0
C1381 C 0.99247 0.80196 0.43252 0.0
C1382 C 0.92786 0.81266 0.45673 0.0
C1383 C 0.94203 0.80438 0.49381 0.0
N1384 N 0.99557 0.78628 0.5347 0.0
N1385 N 0.94256 0.81925 0.38933 0.0
C1386 C 0.98072 0.79292 0.49946 0.0
C1387 C 0.95365 0.81088 0.42565 0.0
N1388 N 1.04159 0.77595 0.47249 0.0
N1389 N 0.89005 0.82151 0.45124 0.0
H1390 H 0.96126 0.81552 0.36647 0.0
H1391 H 0.91569 0.82949 0.38151 0.0
H1392 H 0.87083 0.82599 0.47331 0.0
H1393 H 0.87714 0.82451 0.42479 0.0
H1394 H 1.05251 0.76706 0.49869 0.0
H1395 H 1.05973 0.77214 0.4492 0.0
H1396 H 0.98052 0.79037 0.55998 0.0
H1397 H 0.98052 0.79037 0.55998 0.0
C1398 C 0.76984 0.47023 0.9912 0.0
C1399 C 0.78091 0.46916 0.95232 0.0
C1400 C 0.79343 0.40036 0.957 0.0
C1401 C 0.79067 0.40436 0.99646 0.0
N1402 N 0.75745 0.43258 1.0483 0.0
N1403 N 0.79076 0.43123 0.89544 0.0
C1404 C 0.77137 0.43565 1.0123 0.0
C1405 C 0.78828 0.43338 0.93407 0.0
N1406 N 0.76115 0.50427 1.00853 0.0
N1407 N 0.80532 0.36589 0.94273 0.0
H1408 H 0.78773 0.45508 0.87791 0.0
H1409 H 0.79381 0.40566 0.88045 0.0
H1410 H 0.80901 0.34211 0.96058 0.0
H1411 H 0.81184 0.36087 0.91437 0.0
H1412 H 0.75636 0.50677 1.03759 0.0
H1413 H 0.76123 0.53066 0.99448 0.0
H1414 H 0.74118 0.45381 1.06145 0.0
H1415 H 0.75957 0.40668 1.06327 0.0
C1416 C 0.26208 0.87047 0.69205 0.0
C1417 C 0.25278 0.87187 0.65341 0.0
C1418 C 0.18511 0.87827 0.66808 0.0
C1419 C 0.19392 0.86737 0.7061 0.0
N1420 N 0.24099 0.85186 0.75458 0.0
N1421 N 0.2086 0.88422 0.60322 0.0
C1422 C 0.23252 0.86339 0.71841 0.0
C1423 C 0.21521 0.87952 0.64118 0.0
N1424 N 0.29959 0.87334 0.70268 0.0
N1425 N 0.14809 0.88596 0.65763 0.0
H1426 H 0.23131 0.88562 0.5839 0.0
H1427 H 0.18151 0.88582 0.59089 0.0
H1428 H 0.12472 0.88163 0.67561 0.0
H1429 H 0.14041 0.89747 0.63141 0.0
H1430 H 0.30866 0.87532 0.73081 0.0
H1431 H 0.3211 0.8774 0.68249 0.0
H1432 H 0.26869 0.84569 0.76381 0.0
H1433 H 0.2202 0.84521 0.7747 0.0
C1434 C 0.84577 0.67468 0.19295 0.0
C1435 C 0.84073 0.68806 0.23055 0.0
C1436 C 0.85831 0.75318 0.21242 0.0
C1437 C 0.85979 0.74038 0.1743 0.0
N1438 N 0.85473 0.6908 0.12667 0.0
N1439 N 0.83961 0.73874 0.27713 0.0
C1440 C 0.85381 0.70154 0.16408 0.0
C1441 C 0.84667 0.72691 0.24078 0.0
N1442 N 0.84281 0.63622 0.18517 0.0
N1443 N 0.86915 0.78994 0.22142 0.0
H1444 H 0.83279 0.71962 0.29896 0.0
H1445 H 0.83873 0.76746 0.28538 0.0
H1446 H 0.87731 0.81022 0.20107 0.0
H1447 H 0.8725 0.7998 0.24911 0.0
H1448 H 0.84983 0.62381 0.15925 0.0
H1449 H 0.83555 0.61591 0.20572 0.0
H1450 H 0.84644 0.66387 0.11674 0.0
H1451 H 0.86186 0.70966 0.10472 0.0
C1452 C 0.9277 0.33455 0.70944 0.0
C1453 C 0.93784 0.34151 0.67127 0.0
C1454 C 1.00527 0.33026 0.68479 0.0
C1455 C 0.99556 0.32785 0.72372 0.0
N1456 N 0.94945 0.3319 0.77463 0.0
N1457 N 0.98495 0.34789 0.62151 0.0
C1458 C 0.95728 0.33109 0.7366 0.0
C1459 C 0.97625 0.33942 0.65848 0.0
N1460 N 0.88994 0.33167 0.71955 0.0
N1461 N 1.04222 0.32407 0.67316 0.0
H1462 H 0.96397 0.35292 0.60099 0.0
H1463 H 1.01273 0.3517 0.61137 0.0
H1464 H 1.06516 0.32083 0.69196 0.0
H1465 H 1.05009 0.32051 0.64488 0.0
H1466 H 0.88075 0.32325 0.74643 0.0
H1467 H 0.86759 0.33433 0.70002 0.0
H1468 H 0.92247 0.3378 0.78577 0.0
H1469 H 0.97069 0.33006 0.79538 0.0
C1470 C 0.30015 0.45909 0.25916 0.0
C1471 C 0.29536 0.49869 0.2533 0.0
C1472 C 0.28267 0.48946 0.18657 0.0
C1473 C 0.29411 0.45035 0.19057 0.0
N1474 N 0.31125 0.39651 0.23125 0.0
N1475 N 0.2719 0.551 0.2158 0.0
C1476 C 0.30161 0.43441 0.22719 0.0
C1477 C 0.28187 0.51316 0.21868 0.0
N1478 N 0.30504 0.44616 0.29548 0.0
N1479 N 0.27505 0.5059 0.15221 0.0
H1480 H 0.27162 0.569 0.23953 0.0
H1481 H 0.26299 0.5635 0.19029 0.0
H1482 H 0.27751 0.4919 0.12615 0.0
H1483 H 0.27751 0.4919 0.12615 0.0
H1484 H 0.30716 0.41735 0.3032 0.0
H1485 H 0.30426 0.46518 0.31843 0.0
H1486 H 0.31933 0.38393 0.25683 0.0
H1487 H 0.31297 0.37735 0.20871 0.0
C1488 C 0.47158 0.17622 0.3537 0.0
C1489 C 0.43503 0.19005 0.34364 0.0
C1490 C 0.45906 0.25572 0.33886 0.0
C1491 C 0.49646 0.24113 0.34552 0.0
N1492 N 0.53999 0.1879 0.35347 0.0
N1493 N 0.39159 0.24126 0.32866 0.0
C1494 C 0.50319 0.20143 0.3515 0.0
C1495 C 0.42797 0.2295 0.33727 0.0
N1496 N 0.47568 0.13879 0.36498 0.0
N1497 N 0.45331 0.29444 0.33514 0.0
H1498 H 0.36809 0.22273 0.331 0.0
H1499 H 0.38459 0.26867 0.31902 0.0
H1500 H 0.47574 0.31417 0.33319 0.0
H1501 H 0.42643 0.30736 0.33471 0.0
H1502 H 0.50114 0.12731 0.3755 0.0
H1503 H 0.4523 0.12007 0.36706 0.0
H1504 H 0.54696 0.15882 0.35458 0.0
H1505 H 0.56392 0.20575 0.35039 0.0
C1506 C 0.42797 0.94234 0.84268 0.0
C1507 C 0.4378 0.9815 0.84803 0.0
C1508 C 0.50512 0.96772 0.83736 0.0
C1509 C 0.49518 0.92888 0.83036 0.0
N1510 N 0.44801 0.87803 0.82755 0.0
N1511 N 0.48542 1.03232 0.8505 0.0
C1512 C 0.45695 0.9158 0.83365 0.0
C1513 C 0.47622 0.99437 0.84545 0.0
N1514 N 0.39114 0.92953 0.84577 0.0
N1515 N 0.54214 0.98035 0.83601 0.0
H1516 H 0.46503 1.05364 0.85549 0.0
H1517 H 0.51357 1.04252 0.84884 0.0
H1518 H 0.56568 0.96256 0.83102 0.0
H1519 H 0.56568 0.96256 0.83102 0.0
H1520 H 0.36781 0.94726 0.85186 0.0
H1521 H 0.36781 0.94726 0.85186 0.0
H1522 H 0.41993 0.86763 0.82918 0.0
H1523 H 0.46878 0.8573 0.82166 0.0
C1524 C 0.69773 1.01674 0.33523 0.0
C1525 C 0.7348 1.00215 0.32784 0.0
C1526 C 0.7116 0.93619 0.33254 0.0
C1527 C 0.67493 0.95104 0.34162 0.0
N1528 N 0.63233 1.00476 0.35251 0.0
N1529 N 0.77946 0.94939 0.3255 0.0
C1530 C 0.66784 0.99102 0.34329 0.0
C1531 C 0.74249 0.9622 0.32809 0.0
N1532 N 0.69014 1.05521 0.33549 0.0
N1533 N 0.7168 0.89742 0.32824 0.0
H1534 H 0.80273 0.96798 0.32261 0.0
H1535 H 0.78759 0.92085 0.32922 0.0
H1536 H 0.69517 0.87721 0.33279 0.0
H1537 H 0.74177 0.88522 0.31752 0.0
H1538 H 0.71062 1.07661 0.33058 0.0
H1539 H 0.71062 1.07661 0.33058 0.0
H1540 H 0.62632 1.03414 0.35407 0.0
H1541 H 0.60903 0.98688 0.3585 0.0
C1542 C 0.70271 0.1927 0.86246 0.0
C1543 C 0.74221 0.19993 0.85591 0.0
C1544 C 0.72762 0.26444 0.83287 0.0
C1545 C 0.68841 0.25735 0.84072 0.0
N1546 N 0.63962 0.21976 0.87192 0.0
N1547 N 0.7936 0.2444 0.84193 0.0
C1548 C 0.6764 0.22326 0.85895 0.0
C1549 C 0.75521 0.23637 0.84318 0.0
N1550 N 0.69003 0.15607 0.86953 0.0
N1551 N 0.73809 0.29757 0.81462 0.0
H1552 H 0.8146 0.22425 0.84889 0.0
H1553 H 0.80462 0.27173 0.83654 0.0
H1554 H 0.71861 0.31968 0.80912 0.0
H1555 H 0.76545 0.30252 0.8038 0.0
H1556 H 0.66111 0.1486 0.87075 0.0
H1557 H 0.70816 0.13223 0.87004 0.0
H1558 H 0.63021 0.1967 0.8884 0.0
H1559 H 0.61958 0.24185 0.86959 0.0
C1560 C 0.94803 0.79676 0.69992 0.0
C1561 C 0.94473 0.81897 0.66603 0.0
C1562 C 0.99952 0.85898 0.68922 0.0
C1563 C 1.00389 0.83577 0.72284 0.0
N1564 N 0.99093 0.77247 0.74857 0.0
N1565 N 0.9775 0.86237 0.62371 0.0
C1566 C 0.98063 0.8017 0.72472 0.0
C1567 C 0.97348 0.84743 0.65943 0.0
N1568 N 0.91957 0.77164 0.70966 0.0
N1569 N 1.01907 0.89278 0.68515 0.0
H1570 H 0.9608 0.85336 0.60078 0.0
H1571 H 1.00041 0.87993 0.61581 0.0
H1572 H 1.04051 0.90229 0.70315 0.0
H1573 H 1.01214 0.91301 0.66438 0.0
H1574 H 0.91909 0.75726 0.73564 0.0
H1575 H 0.89472 0.76791 0.69364 0.0
H1576 H 0.97707 0.74587 0.74884 0.0
H1577 H 1.01659 0.77258 0.76382 0.0
C1578 C 0.8813 0.49338 0.1595 0.0
C1579 C 0.85483 0.4636 0.14953 0.0
C1580 C 0.80753 0.49282 0.19395 0.0
C1581 C 0.83518 0.5202 0.2073 0.0
N1582 N 0.89455 0.55313 0.19348 0.0
N1583 N 0.78796 0.44744 0.14517 0.0
C1584 C 0.87099 0.52223 0.1873 0.0
C1585 C 0.81661 0.46709 0.16335 0.0
N1586 N 0.91639 0.4945 0.14246 0.0
N1587 N 0.7725 0.49009 0.21083 0.0
H1588 H 0.79299 0.43062 0.12121 0.0
H1589 H 0.75889 0.45156 0.15054 0.0
H1590 H 0.76152 0.51089 0.22865 0.0
H1591 H 0.75442 0.4664 0.20757 0.0
H1592 H 0.93953 0.51049 0.15252 0.0
H1593 H 0.92286 0.47887 0.11821 0.0
H1594 H 0.91894 0.55925 0.17761 0.0
H1595 H 0.88798 0.57515 0.21236 0.0
C1596 C 0.19087 0.31483 0.69366 0.0
C1597 C 0.17493 0.34497 0.71645 0.0
C1598 C 0.21972 0.38964 0.68252 0.0
C1599 C 0.2323 0.36012 0.65705 0.0
N1600 N 0.21365 0.29848 0.63091 0.0
N1601 N 0.16568 0.41403 0.71827 0.0
C1602 C 0.21293 0.32396 0.66035 0.0
C1603 C 0.18682 0.38324 0.70659 0.0
N1604 N 0.1871 0.27719 0.70388 0.0
N1605 N 0.23932 0.42352 0.6855 0.0
H1606 H 0.13918 0.41105 0.73162 0.0
H1607 H 0.17165 0.4421 0.70954 0.0
H1608 H 0.26446 0.42959 0.67091 0.0
H1609 H 0.23295 0.44387 0.70629 0.0
H1610 H 0.20116 0.25511 0.68953 0.0
H1611 H 0.17456 0.26825 0.72897 0.0
H1612 H 0.19776 0.27301 0.63111 0.0
H1613 H 0.2251 0.30539 0.60443 0.0
C1614 C 0.30446 0.70053 0.23085 0.0
C1615 C 0.33393 0.6725 0.22483 0.0
C1616 C 0.34405 0.70165 0.16086 0.0
C1617 C 0.31782 0.73228 0.16879 0.0
N1618 N 0.27687 0.76274 0.21479 0.0
N1619 N 0.36572 0.63689 0.17516 0.0
C1620 C 0.29872 0.73186 0.20454 0.0
C1621 C 0.34926 0.6703 0.18729 0.0
N1622 N 0.27919 0.69519 0.26002 0.0
N1623 N 0.36511 0.70269 0.12817 0.0
H1624 H 0.36497 0.61152 0.19078 0.0
H1625 H 0.37446 0.63225 0.14729 0.0
H1626 H 0.36077 0.72285 0.10669 0.0
H1627 H 0.38871 0.68502 0.12339 0.0
H1628 H 0.25503 0.71224 0.26415 0.0
H1629 H 0.27897 0.6703 0.27659 0.0
H1630 H 0.26646 0.76678 0.2422 0.0
H1631 H 0.27195 0.78619 0.19696 0.0
C1632 C 0.96724 0.38593 0.48757 0.0
C1633 C 0.95147 0.35618 0.51112 0.0
C1634 C 0.99586 0.31033 0.47841 0.0
C1635 C 1.01217 0.34033 0.4554 0.0
N1636 N 1.02238 0.40894 0.45218 0.0
N1637 N 0.96444 0.29336 0.53757 0.0
C1638 C 1.00046 0.3787 0.46429 0.0
C1639 C 0.96988 0.31945 0.50898 0.0
N1640 N 0.95046 0.42125 0.48593 0.0
N1641 N 1.00381 0.27262 0.47133 0.0
H1642 H 0.94836 0.2993 0.56177 0.0
H1643 H 0.98003 0.26789 0.53978 0.0
H1644 H 1.02433 0.26317 0.45237 0.0
H1645 H 0.98789 0.25016 0.48312 0.0
H1646 H 0.9573 0.44157 0.46518 0.0
H1647 H 0.92823 0.42967 0.50337 0.0
H1648 H 1.01759 0.43722 0.46072 0.0
H1649 H 1.04831 0.40525 0.43799 0.0
C1650 C 0.30757 0.46561 0.97882 0.0
C1651 C 0.33531 0.45209 1.00535 0.0
C1652 C 0.38204 0.49849 0.97572 0.0
C1653 C 0.35366 0.51255 0.94946 0.0
N1654 N 0.28499 0.52013 0.9424 0.0
N1655 N 0.39632 0.46458 1.03491 0.0
C1656 C 0.31517 0.49915 0.95585 0.0
C1657 C 0.37183 0.47103 1.00523 0.0
N1658 N 0.27411 0.44576 0.97398 0.0
N1659 N 0.41895 0.51123 0.97342 0.0
H1660 H 0.38949 0.44649 1.05757 0.0
H1661 H 0.42143 0.48023 1.03935 0.0
H1662 H 0.42711 0.53574 0.95869 0.0
H1663 H 0.44183 0.49712 0.9864 0.0
H1664 H 0.25468 0.45217 0.95234 0.0
H1665 H 0.26778 0.42054 0.9887 0.0
H1666 H 0.25652 0.51331 0.94855 0.0
H1667 H 0.28843 0.54742 0.93052 0.0
C1668 C 0.19631 0.81787 0.50302 0.0
C1669 C 0.2362 0.81978 0.49399 0.0
C1670 C 0.2178 0.84452 0.42987 0.0
C1671 C 0.17799 0.83883 0.4373 0.0
N1672 N 0.12986 0.81622 0.48094 0.0
N1673 N 0.28374 0.82844 0.44501 0.0
C1674 C 0.16746 0.82456 0.47399 0.0
C1675 C 0.2464 0.83134 0.45632 0.0
N1676 N 0.18579 0.81131 0.5398 0.0
N1677 N 0.22861 0.8643 0.39802 0.0
H1678 H 0.30517 0.81735 0.46242 0.0
H1679 H 0.29277 0.8329 0.41718 0.0
H1680 H 0.20904 0.87535 0.37847 0.0
H1681 H 0.25658 0.87361 0.39308 0.0
H1682 H 0.15776 0.81404 0.54957 0.0
H1683 H 0.20568 0.80591 0.56129 0.0
H1684 H 0.12045 0.8017 0.50508 0.0
H1685 H 0.10822 0.82161 0.4612 0.0
C1686 C 0.80313 0.67692 0.98206 0.0
C1687 C 0.82605 0.67127 0.94865 0.0
C1688 C 0.86587 0.7275 0.96986 0.0
C1689 C 0.84403 0.73229 1.00377 0.0
N1690 N 0.79802 0.70305 1.046 0.0
N1691 N 0.88865 0.68324 0.92173 0.0
C1692 C 0.81446 0.70452 1.01082 0.0
C1693 C 0.86014 0.69428 0.94591 0.0
N1694 N 0.76974 0.65692 0.98668 0.0
N1695 N 0.89116 0.75545 0.95902 0.0
H1696 H 0.88764 0.65748 0.90662 0.0
H1697 H 0.91539 0.69668 0.92085 0.0
H1698 H 0.89533 0.7808 0.97417 0.0
H1699 H 0.905 0.75518 0.93282 0.0
H1700 H 0.74915 0.66429 1.00679 0.0
H1701 H 0.76108 0.63443 0.96941 0.0
H1702 H 0.78004 0.6808 1.05482 0.0
H1703 H 0.80555 0.72162 1.06797 0.0
C1704 C 0.68649 0.98532 0.79264 0.0
C1705 C 0.66642 0.96531 0.82222 0.0
C1706 C 0.70501 1.00253 0.86918 0.0
C1707 C 0.72565 1.02206 0.83969 0.0
N1708 N 0.72225 1.04246 0.77436 0.0
N1709 N 0.64602 0.9703 0.88735 0.0
C1710 C 0.71225 1.01642 0.80176 0.0
C1711 C 0.67256 0.97869 0.86002 0.0
N1712 N 0.68194 0.97507 0.75558 0.0
N1713 N 0.71631 1.00514 0.90615 0.0
H1714 H 0.62049 0.9558 0.88134 0.0
H1715 H 0.64682 0.98216 0.91451 0.0
H1716 H 0.73724 1.02376 0.9159 0.0
H1717 H 0.70592 0.98677 0.92722 0.0
H1718 H 0.70087 0.98383 0.73434 0.0
H1719 H 0.66001 0.95766 0.74573 0.0
H1720 H 0.71065 1.04225 0.74707 0.0
H1721 H 0.73804 1.06726 0.78032 0.0
C1722 C 0.68992 0.21948 0.30289 0.0
C1723 C 0.67657 0.23194 0.33942 0.0
C1724 C 0.71659 0.17887 0.36543 0.0
C1725 C 0.73702 0.17412 0.33053 0.0
N1726 N 0.74617 0.20093 0.26749 0.0
N1727 N 0.6878 0.22489 0.40769 0.0
C1728 C 0.72469 0.19766 0.29966 0.0
C1729 C 0.69287 0.21213 0.37141 0.0
N1730 N 0.66859 0.22597 0.27102 0.0
N1731 N 0.71789 0.1509 0.39265 0.0
H1732 H 0.67399 0.2502 0.41491 0.0
H1733 H 0.70217 0.21254 0.43067 0.0
H1734 H 0.73069 0.12422 0.38817 0.0
H1735 H 0.7013 0.15212 0.41725 0.0
H1736 H 0.67673 0.21561 0.24444 0.0
H1737 H 0.64029 0.2355 0.27205 0.0
H1738 H 0.73887 0.21991 0.24566 0.0
H1739 H 0.77337 0.18909 0.26472 0.0
C1740 C 0.47586 0.15951 0.80628 0.0
C1741 C 0.45707 0.15778 0.8422 0.0
C1742 C 0.50279 0.20772 0.86374 0.0
C1743 C 0.51426 0.21646 0.82569 0.0
N1744 N 0.505 0.20029 0.75893 0.0
N1745 N 0.45017 0.18788 0.9039 0.0
C1746 C 0.49924 0.1921 0.7964 0.0
C1747 C 0.47001 0.18376 0.87077 0.0
N1748 N 0.47246 0.12939 0.78164 0.0
N1749 N 0.52374 0.22143 0.89359 0.0
H1750 H 0.4246 0.17362 0.90968 0.0
H1751 H 0.45692 0.20905 0.92379 0.0
H1752 H 0.54954 0.23622 0.88988 0.0
H1753 H 0.51815 0.21357 0.92164 0.0
H1754 H 0.48811 0.12771 0.75648 0.0
H1755 H 0.45805 0.10403 0.78872 0.0
H1756 H 0.49054 0.18579 0.7373 0.0
H1757 H 0.52106 0.22326 0.74902 0.0
C1758 C 0.47013 0.95467 0.37234 0.0
C1759 C 0.50427 0.95302 0.35089 0.0
C1760 C 0.48443 1.01525 0.32099 0.0
C1761 C 0.45131 1.01733 0.34501 0.0
N1762 N 0.42872 0.99668 0.40716 0.0
N1763 N 0.54609 0.98488 0.30653 0.0
C1764 C 0.449 0.98951 0.37485 0.0
C1765 C 0.51197 0.98427 0.32554 0.0
N1766 N 0.45568 0.9221 0.38819 0.0
N1767 N 0.49051 1.0435 0.29473 0.0
H1768 H 0.56611 0.96273 0.3087 0.0
H1769 H 0.55581 1.00818 0.29063 0.0
H1770 H 0.47625 1.06979 0.29558 0.0
H1771 H 0.51007 1.04121 0.27256 0.0
H1772 H 0.42858 0.92143 0.40074 0.0
H1773 H 0.4683 0.89541 0.38359 0.0
H1774 H 0.42771 0.9771 0.42965 0.0
H1775 H 0.41929 1.02412 0.41438 0.0
loop_
_geom_bond_atom_site_label_1
_geom_bond_atom_site_label_2
_geom_bond_distance
_geom_bond_site_symmetry_2
_ccdc_geom_bond_type
O0 Tb1 2.506 . S
O0 C14 1.265 . S
Tb1 O0 2.506 . S
Tb1 O6 2.312 1_655 S
Tb1 O10 2.271 . S
Tb1 O12 2.338 . S
Tb1 O19 2.441 . S
C2 O10 1.252 . S
C2 O11 1.253 . S
O3 Tb4 2.271 . S
O3 C13 1.252 . S
Tb4 O3 2.271 . S
Tb4 O7 2.338 . S
Tb4 O11 2.312 1_455 S
Tb4 O15 2.441 . S
Tb4 O16 2.506 . S
C5 O15 1.244 . S
C5 O16 1.265 . S
O6 Tb1 2.312 1_455 S
O6 C13 1.253 . S
O7 Tb4 2.338 . S
O7 C8 1.258 . S
C8 O7 1.258 . S
C8 O9 1.251 . S
O9 C8 1.251 . S
O10 Tb1 2.271 . S
O10 C2 1.252 . S
O11 C2 1.253 . S
O11 Tb4 2.312 1_655 S
O12 Tb1 2.338 . S
O12 C17 1.258 . S
C13 O3 1.252 . S
C13 O6 1.253 . S
C14 O0 1.265 . S
C14 O19 1.244 . S
O15 Tb4 2.441 . S
O15 C5 1.244 . S
O16 Tb4 2.506 . S
O16 C5 1.265 . S
C17 O12 1.258 . S
C17 O18 1.251 . S
O18 C17 1.251 . S
O19 Tb1 2.441 . S
O19 C14 1.244 . S
O20 Tb21 2.506 . S
O20 C34 1.265 . S
Tb21 O20 2.506 . S
Tb21 O26 2.312 . S
Tb21 O30 2.271 . S
Tb21 O32 2.338 . S
Tb21 O39 2.441 . S
C22 O30 1.252 . S
C22 O31 1.253 . S
O23 Tb24 2.271 . S
O23 C33 1.252 . S
Tb24 O23 2.271 . S
Tb24 O27 2.338 . S
Tb24 O31 2.312 . S
Tb24 O35 2.441 . S
Tb24 O36 2.506 . S
C25 O35 1.244 . S
C25 O36 1.265 . S
O26 Tb21 2.312 . S
O26 C33 1.253 . S
O27 Tb24 2.338 . S
O27 C28 1.258 . S
C28 O27 1.258 . S
C28 O29 1.251 . S
O29 C28 1.251 . S
O30 Tb21 2.271 . S
O30 C22 1.252 . S
O31 C22 1.253 . S
O31 Tb24 2.312 . S
O32 Tb21 2.338 . S
O32 C37 1.258 . S
C33 O23 1.252 . S
C33 O26 1.253 . S
C34 O20 1.265 . S
C34 O39 1.244 . S
O35 Tb24 2.441 . S
O35 C25 1.244 . S
O36 Tb24 2.506 . S
O36 C25 1.265 . S
C37 O32 1.258 . S
C37 O38 1.251 . S
O38 C37 1.251 . S
O39 Tb21 2.441 . S
O39 C34 1.244 . S
O40 Tb41 2.506 . S
O40 C54 1.265 . S
Tb41 O40 2.506 . S
Tb41 O46 2.312 1_455 S
Tb41 O50 2.271 . S
Tb41 O52 2.338 . S
Tb41 O59 2.441 . S
C42 O50 1.252 . S
C42 O51 1.253 . S
O43 Tb44 2.271 . S
O43 C53 1.252 . S
Tb44 O43 2.271 . S
Tb44 O47 2.338 . S
Tb44 O51 2.312 1_655 S
Tb44 O55 2.441 . S
Tb44 O56 2.506 . S
C45 O55 1.244 . S
C45 O56 1.265 . S
O46 Tb41 2.312 1_655 S
O46 C53 1.253 . S
O47 Tb44 2.338 . S
O47 C48 1.258 . S
C48 O47 1.258 . S
C48 O49 1.251 . S
O49 C48 1.251 . S
O50 Tb41 2.271 . S
O50 C42 1.252 . S
O51 C42 1.253 . S
O51 Tb44 2.312 1_455 S
O52 Tb41 2.338 . S
O52 C57 1.258 . S
C53 O43 1.252 . S
C53 O46 1.253 . S
C54 O40 1.265 . S
C54 O59 1.244 . S
O55 Tb44 2.441 . S
O55 C45 1.244 . S
O56 Tb44 2.506 . S
O56 C45 1.265 . S
C57 O52 1.258 . S
C57 O58 1.251 . S
O58 C57 1.251 . S
O59 Tb41 2.441 . S
O59 C54 1.244 . S
O60 Tb61 2.506 . S
O60 C74 1.265 . S
Tb61 O60 2.506 . S
Tb61 O66 2.312 . S
Tb61 O70 2.271 . S
Tb61 O72 2.338 . S
Tb61 O79 2.441 . S
C62 O70 1.252 . S
C62 O71 1.253 . S
O63 Tb64 2.271 . S
O63 C73 1.252 . S
Tb64 O63 2.271 . S
Tb64 O67 2.338 . S
Tb64 O71 2.312 . S
Tb64 O75 2.441 . S
Tb64 O76 2.506 . S
C65 O75 1.244 . S
C65 O76 1.265 . S
O66 Tb61 2.312 . S
O66 C73 1.253 . S
O67 Tb64 2.338 . S
O67 C68 1.258 . S
C68 O67 1.258 . S
C68 O69 1.251 . S
O69 C68 1.251 . S
O70 Tb61 2.271 . S
O70 C62 1.252 . S
O71 C62 1.253 . S
O71 Tb64 2.312 . S
O72 Tb61 2.338 . S
O72 C77 1.258 . S
C73 O63 1.252 . S
C73 O66 1.253 . S
C74 O60 1.265 . S
C74 O79 1.244 . S
O75 Tb64 2.441 . S
O75 C65 1.244 . S
O76 Tb64 2.506 . S
O76 C65 1.265 . S
C77 O72 1.258 . S
C77 O78 1.251 . S
O78 C77 1.251 . S
O79 Tb61 2.441 . S
O79 C74 1.244 . S
O80 Tb81 2.506 . S
O80 C94 1.265 . S
Tb81 O80 2.506 . S
Tb81 O86 2.312 1_655 S
Tb81 O90 2.271 . S
Tb81 O92 2.338 . S
Tb81 O99 2.441 . S
C82 O90 1.252 . S
C82 O91 1.253 . S
O83 Tb84 2.271 . S
O83 C93 1.252 . S
Tb84 O83 2.271 . S
Tb84 O87 2.338 . S
Tb84 O91 2.312 1_455 S
Tb84 O95 2.441 . S
Tb84 O96 2.506 . S
C85 O95 1.244 . S
C85 O96 1.265 . S
O86 Tb81 2.312 1_455 S
O86 C93 1.253 . S
O87 Tb84 2.338 . S
O87 C88 1.258 . S
C88 O87 1.258 . S
C88 O89 1.251 . S
O89 C88 1.251 . S
O90 Tb81 2.271 . S
O90 C82 1.252 . S
O91 C82 1.253 . S
O91 Tb84 2.312 1_655 S
O92 Tb81 2.338 . S
O92 C97 1.258 . S
C93 O83 1.252 . S
C93 O86 1.253 . S
C94 O80 1.265 . S
C94 O99 1.244 . S
O95 Tb84 2.441 . S
O95 C85 1.244 . S
O96 Tb84 2.506 . S
O96 C85 1.265 . S
C97 O92 1.258 . S
C97 O98 1.251 . S
O98 C97 1.251 . S
O99 Tb81 2.441 . S
O99 C94 1.244 . S
O100 Tb101 2.506 . S
O100 C114 1.265 . S
Tb101 O100 2.506 . S
Tb101 O106 2.312 . S
Tb101 O110 2.271 . S
Tb101 O112 2.338 . S
Tb101 O119 2.441 . S
C102 O110 1.252 . S
C102 O111 1.253 . S
O103 Tb104 2.271 . S
O103 C113 1.252 . S
Tb104 O103 2.271 . S
Tb104 O107 2.338 . S
Tb104 O111 2.312 . S
Tb104 O115 2.441 . S
Tb104 O116 2.506 . S
C105 O115 1.244 . S
C105 O116 1.265 . S
O106 Tb101 2.312 . S
O106 C113 1.253 . S
O107 Tb104 2.338 . S
O107 C108 1.258 . S
C108 O107 1.258 . S
C108 O109 1.251 . S
O109 C108 1.251 . S
O110 Tb101 2.271 . S
O110 C102 1.252 . S
O111 C102 1.253 . S
O111 Tb104 2.312 . S
O112 Tb101 2.338 . S
O112 C117 1.258 . S
C113 O103 1.252 . S
C113 O106 1.253 . S
C114 O100 1.265 . S
C114 O119 1.244 . S
O115 Tb104 2.441 . S
O115 C105 1.244 . S
O116 Tb104 2.506 . S
O116 C105 1.265 . S
C117 O112 1.258 . S
C117 O118 1.251 . S
O118 C117 1.251 . S
O119 Tb101 2.441 . S
O119 C114 1.244 . S
O120 Tb121 2.506 . S
O120 C134 1.265 . S
Tb121 O120 2.506 . S
Tb121 O126 2.312 1_455 S
Tb121 O130 2.271 . S
Tb121 O132 2.338 . S
Tb121 O139 2.441 . S
C122 O130 1.252 . S
C122 O131 1.253 . S
O123 Tb124 2.271 . S
O123 C133 1.252 . S
Tb124 O123 2.271 . S
Tb124 O127 2.338 . S
Tb124 O131 2.312 1_655 S
Tb124 O135 2.441 . S
Tb124 O136 2.506 . S
C125 O135 1.244 . S
C125 O136 1.265 . S
O126 Tb121 2.312 1_655 S
O126 C133 1.253 . S
O127 Tb124 2.338 . S
O127 C128 1.258 . S
C128 O127 1.258 . S
C128 O129 1.251 . S
O129 C128 1.251 . S
O130 Tb121 2.271 . S
O130 C122 1.252 . S
O131 C122 1.253 . S
O131 Tb124 2.312 1_455 S
O132 Tb121 2.338 . S
O132 C137 1.258 . S
C133 O123 1.252 . S
C133 O126 1.253 . S
C134 O120 1.265 . S
C134 O139 1.244 . S
O135 Tb124 2.441 . S
O135 C125 1.244 . S
O136 Tb124 2.506 . S
O136 C125 1.265 . S
C137 O132 1.258 . S
C137 O138 1.251 . S
O138 C137 1.251 . S
O139 Tb121 2.441 . S
O139 C134 1.244 . S
O140 Tb141 2.506 . S
O140 C154 1.265 . S
Tb141 O140 2.506 . S
Tb141 O146 2.312 . S
Tb141 O150 2.271 . S
Tb141 O152 2.338 . S
Tb141 O159 2.441 . S
C142 O150 1.252 . S
C142 O151 1.253 . S
O143 Tb144 2.271 . S
O143 C153 1.252 . S
Tb144 O143 2.271 . S
Tb144 O147 2.338 . S
Tb144 O151 2.312 . S
Tb144 O155 2.441 . S
Tb144 O156 2.506 . S
C145 O155 1.244 . S
C145 O156 1.265 . S
O146 Tb141 2.312 . S
O146 C153 1.253 . S
O147 Tb144 2.338 . S
O147 C148 1.258 . S
C148 O147 1.258 . S
C148 O149 1.251 . S
O149 C148 1.251 . S
O150 Tb141 2.271 . S
O150 C142 1.252 . S
O151 C142 1.253 . S
O151 Tb144 2.312 . S
O152 Tb141 2.338 . S
O152 C157 1.258 . S
C153 O143 1.252 . S
C153 O146 1.253 . S
C154 O140 1.265 . S
C154 O159 1.244 . S
O155 Tb144 2.441 . S
O155 C145 1.244 . S
O156 Tb144 2.506 . S
O156 C145 1.265 . S
C157 O152 1.258 . S
C157 O158 1.251 . S
O158 C157 1.251 . S
O159 Tb141 2.441 . S
O159 C154 1.244 . S
O160 Tb161 2.506 . S
O160 C174 1.265 . S
Tb161 O160 2.506 . S
Tb161 O166 2.312 1_565 S
Tb161 O170 2.271 . S
Tb161 O172 2.338 . S
Tb161 O179 2.441 . S
C162 O170 1.252 . S
C162 O171 1.253 . S
O163 Tb164 2.271 . S
O163 C173 1.252 . S
Tb164 O163 2.271 . S
Tb164 O167 2.338 . S
Tb164 O171 2.312 1_545 S
Tb164 O175 2.441 . S
Tb164 O176 2.506 . S
C165 O175 1.244 . S
C165 O176 1.265 . S
O166 Tb161 2.312 1_545 S
O166 C173 1.253 . S
O167 Tb164 2.338 . S
O167 C168 1.258 . S
C168 O167 1.258 . S
C168 O169 1.251 . S
O169 C168 1.251 . S
O170 Tb161 2.271 . S
O170 C162 1.252 . S
O171 C162 1.253 . S
O171 Tb164 2.312 1_565 S
O172 Tb161 2.338 . S
O172 C177 1.258 . S
C173 O163 1.252 . S
C173 O166 1.253 . S
C174 O160 1.265 . S
C174 O179 1.244 . S
O175 Tb164 2.441 . S
O175 C165 1.244 . S
O176 Tb164 2.506 . S
O176 C165 1.265 . S
C177 O172 1.258 . S
C177 O178 1.251 . S
O178 C177 1.251 . S
O179 Tb161 2.441 . S
O179 C174 1.244 . S
O180 Tb181 2.506 . S
O180 C194 1.265 . S
Tb181 O180 2.506 . S
Tb181 O186 2.312 . S
Tb181 O190 2.271 . S
Tb181 O192 2.338 . S
Tb181 O199 2.441 . S
C182 O190 1.252 . S
C182 O191 1.253 . S
O183 Tb184 2.271 . S
O183 C193 1.252 . S
Tb184 O183 2.271 . S
Tb184 O187 2.338 . S
Tb184 O191 2.312 . S
Tb184 O195 2.441 . S
Tb184 O196 2.506 . S
C185 O195 1.244 . S
C185 O196 1.265 . S
O186 Tb181 2.312 . S
O186 C193 1.253 . S
O187 Tb184 2.338 . S
O187 C188 1.258 . S
C188 O187 1.258 . S
C188 O189 1.251 . S
O189 C188 1.251 . S
O190 Tb181 2.271 . S
O190 C182 1.252 . S
O191 C182 1.253 . S
O191 Tb184 2.312 . S
O192 Tb181 2.338 . S
O192 C197 1.258 . S
C193 O183 1.252 . S
C193 O186 1.253 . S
C194 O180 1.265 . S
C194 O199 1.244 . S
O195 Tb184 2.441 . S
O195 C185 1.244 . S
O196 Tb184 2.506 . S
O196 C185 1.265 . S
C197 O192 1.258 . S
C197 O198 1.251 . S
O198 C197 1.251 . S
O199 Tb181 2.441 . S
O199 C194 1.244 . S
O200 Tb201 2.506 . S
O200 C214 1.265 . S
Tb201 O200 2.506 . S
Tb201 O206 2.312 1_545 S
Tb201 O210 2.271 . S
Tb201 O212 2.338 . S
Tb201 O219 2.441 . S
C202 O210 1.252 . S
C202 O211 1.253 . S
O203 Tb204 2.271 . S
O203 C213 1.252 . S
Tb204 O203 2.271 . S
Tb204 O207 2.338 . S
Tb204 O211 2.312 1_565 S
Tb204 O215 2.441 . S
Tb204 O216 2.506 . S
C205 O215 1.244 . S
C205 O216 1.265 . S
O206 Tb201 2.312 1_565 S
O206 C213 1.253 . S
O207 Tb204 2.338 . S
O207 C208 1.258 . S
C208 O207 1.258 . S
C208 O209 1.251 . S
O209 C208 1.251 . S
O210 Tb201 2.271 . S
O210 C202 1.252 . S
O211 C202 1.253 . S
O211 Tb204 2.312 1_545 S
O212 Tb201 2.338 . S
O212 C217 1.258 . S
C213 O203 1.252 . S
C213 O206 1.253 . S
C214 O200 1.265 . S
C214 O219 1.244 . S
O215 Tb204 2.441 . S
O215 C205 1.244 . S
O216 Tb204 2.506 . S
O216 C205 1.265 . S
C217 O212 1.258 . S
C217 O218 1.251 . S
O218 C217 1.251 . S
O219 Tb201 2.441 . S
O219 C214 1.244 . S
O220 Tb221 2.506 . S
O220 C234 1.265 . S
Tb221 O220 2.506 . S
Tb221 O226 2.312 . S
Tb221 O230 2.271 . S
Tb221 O232 2.338 . S
Tb221 O239 2.441 . S
C222 O230 1.252 . S
C222 O231 1.253 . S
O223 Tb224 2.271 . S
O223 C233 1.252 . S
Tb224 O223 2.271 . S
Tb224 O227 2.338 . S
Tb224 O231 2.312 . S
Tb224 O235 2.441 . S
Tb224 O236 2.506 . S
C225 O235 1.244 . S
C225 O236 1.265 . S
O226 Tb221 2.312 . S
O226 C233 1.253 . S
O227 Tb224 2.338 . S
O227 C228 1.258 . S
C228 O227 1.258 . S
C228 O229 1.251 . S
O229 C228 1.251 . S
O230 Tb221 2.271 . S
O230 C222 1.252 . S
O231 C222 1.253 . S
O231 Tb224 2.312 . S
O232 Tb221 2.338 . S
O232 C237 1.258 . S
C233 O223 1.252 . S
C233 O226 1.253 . S
C234 O220 1.265 . S
C234 O239 1.244 . S
O235 Tb224 2.441 . S
O235 C225 1.244 . S
O236 Tb224 2.506 . S
O236 C225 1.265 . S
C237 O232 1.258 . S
C237 O238 1.251 . S
O238 C237 1.251 . S
O239 Tb221 2.441 . S
O239 C234 1.244 . S
O240 Tb241 2.506 . S
O240 C254 1.265 . S
Tb241 O240 2.506 . S
Tb241 O246 2.312 1_545 S
Tb241 O250 2.271 . S
Tb241 O252 2.338 . S
Tb241 O259 2.441 . S
C242 O250 1.252 . S
C242 O251 1.253 . S
O243 Tb244 2.271 . S
O243 C253 1.252 . S
Tb244 O243 2.271 . S
Tb244 O247 2.338 . S
Tb244 O251 2.312 1_565 S
Tb244 O255 2.441 . S
Tb244 O256 2.506 . S
C245 O255 1.244 . S
C245 O256 1.265 . S
O246 Tb241 2.312 1_565 S
O246 C253 1.253 . S
O247 Tb244 2.338 . S
O247 C248 1.258 . S
C248 O247 1.258 . S
C248 O249 1.251 . S
O249 C248 1.251 . S
O250 Tb241 2.271 . S
O250 C242 1.252 . S
O251 C242 1.253 . S
O251 Tb244 2.312 1_545 S
O252 Tb241 2.338 . S
O252 C257 1.258 . S
C253 O243 1.252 . S
C253 O246 1.253 . S
C254 O240 1.265 . S
C254 O259 1.244 . S
O255 Tb244 2.441 . S
O255 C245 1.244 . S
O256 Tb244 2.506 . S
O256 C245 1.265 . S
C257 O252 1.258 . S
C257 O258 1.251 . S
O258 C257 1.251 . S
O259 Tb241 2.441 . S
O259 C254 1.244 . S
O260 Tb261 2.506 . S
O260 C274 1.265 . S
Tb261 O260 2.506 . S
Tb261 O266 2.312 . S
Tb261 O270 2.271 . S
Tb261 O272 2.338 . S
Tb261 O279 2.441 . S
C262 O270 1.252 . S
C262 O271 1.253 . S
O263 Tb264 2.271 . S
O263 C273 1.252 . S
Tb264 O263 2.271 . S
Tb264 O267 2.338 . S
Tb264 O271 2.312 . S
Tb264 O275 2.441 . S
Tb264 O276 2.506 . S
C265 O275 1.244 . S
C265 O276 1.265 . S
O266 Tb261 2.312 . S
O266 C273 1.253 . S
O267 Tb264 2.338 . S
O267 C268 1.258 . S
C268 O267 1.258 . S
C268 O269 1.251 . S
O269 C268 1.251 . S
O270 Tb261 2.271 . S
O270 C262 1.252 . S
O271 C262 1.253 . S
O271 Tb264 2.312 . S
O272 Tb261 2.338 . S
O272 C277 1.258 . S
C273 O263 1.252 . S
C273 O266 1.253 . S
C274 O260 1.265 . S
C274 O279 1.244 . S
O275 Tb264 2.441 . S
O275 C265 1.244 . S
O276 Tb264 2.506 . S
O276 C265 1.265 . S
C277 O272 1.258 . S
C277 O278 1.251 . S
O278 C277 1.251 . S
O279 Tb261 2.441 . S
O279 C274 1.244 . S
O280 Tb281 2.506 . S
O280 C294 1.265 . S
Tb281 O280 2.506 . S
Tb281 O286 2.312 1_565 S
Tb281 O290 2.271 . S
Tb281 O292 2.338 . S
Tb281 O299 2.441 . S
C282 O290 1.252 . S
C282 O291 1.253 . S
O283 Tb284 2.271 . S
O283 C293 1.252 . S
Tb284 O283 2.271 . S
Tb284 O287 2.338 . S
Tb284 O291 2.312 1_545 S
Tb284 O295 2.441 . S
Tb284 O296 2.506 . S
C285 O295 1.244 . S
C285 O296 1.265 . S
O286 Tb281 2.312 1_545 S
O286 C293 1.253 . S
O287 Tb284 2.338 . S
O287 C288 1.258 . S
C288 O287 1.258 . S
C288 O289 1.251 . S
O289 C288 1.251 . S
O290 Tb281 2.271 . S
O290 C282 1.252 . S
O291 C282 1.253 . S
O291 Tb284 2.312 1_565 S
O292 Tb281 2.338 . S
O292 C297 1.258 . S
C293 O283 1.252 . S
C293 O286 1.253 . S
C294 O280 1.265 . S
C294 O299 1.244 . S
O295 Tb284 2.441 . S
O295 C285 1.244 . S
O296 Tb284 2.506 . S
O296 C285 1.265 . S
C297 O292 1.258 . S
C297 O298 1.251 . S
O298 C297 1.251 . S
O299 Tb281 2.441 . S
O299 C294 1.244 . S
O300 Tb301 2.506 . S
O300 C314 1.265 . S
Tb301 O300 2.506 . S
Tb301 O306 2.312 . S
Tb301 O310 2.271 . S
Tb301 O312 2.338 . S
Tb301 O319 2.441 . S
C302 O310 1.252 . S
C302 O311 1.253 . S
O303 Tb304 2.271 . S
O303 C313 1.252 . S
Tb304 O303 2.271 . S
Tb304 O307 2.338 . S
Tb304 O311 2.312 . S
Tb304 O315 2.441 . S
Tb304 O316 2.506 . S
C305 O315 1.244 . S
C305 O316 1.265 . S
O306 Tb301 2.312 . S
O306 C313 1.253 . S
O307 Tb304 2.338 . S
O307 C308 1.258 . S
C308 O307 1.258 . S
C308 O309 1.251 . S
O309 C308 1.251 . S
O310 Tb301 2.271 . S
O310 C302 1.252 . S
O311 C302 1.253 . S
O311 Tb304 2.312 . S
O312 Tb301 2.338 . S
O312 C317 1.258 . S
C313 O303 1.252 . S
C313 O306 1.253 . S
C314 O300 1.265 . S
C314 O319 1.244 . S
O315 Tb304 2.441 . S
O315 C305 1.244 . S
O316 Tb304 2.506 . S
O316 C305 1.265 . S
C317 O312 1.258 . S
C317 O318 1.251 . S
O318 C317 1.251 . S
O319 Tb301 2.441 . S
O319 C314 1.244 . S
O320 Tb321 2.506 . S
O320 C334 1.265 . S
Tb321 O320 2.506 . S
Tb321 O326 2.312 1_556 S
Tb321 O330 2.271 . S
Tb321 O332 2.338 . S
Tb321 O339 2.441 . S
C322 O330 1.252 . S
C322 O331 1.253 . S
O323 Tb324 2.271 . S
O323 C333 1.252 . S
Tb324 O323 2.271 . S
Tb324 O327 2.338 . S
Tb324 O331 2.312 1_554 S
Tb324 O335 2.441 . S
Tb324 O336 2.506 . S
C325 O335 1.244 . S
C325 O336 1.265 . S
O326 Tb321 2.312 1_554 S
O326 C333 1.253 . S
O327 Tb324 2.338 . S
O327 C328 1.258 . S
C328 O327 1.258 . S
C328 O329 1.251 . S
O329 C328 1.251 . S
O330 Tb321 2.271 . S
O330 C322 1.252 . S
O331 C322 1.253 . S
O331 Tb324 2.312 1_556 S
O332 Tb321 2.338 . S
O332 C337 1.258 . S
C333 O323 1.252 . S
C333 O326 1.253 . S
C334 O320 1.265 . S
C334 O339 1.244 . S
O335 Tb324 2.441 . S
O335 C325 1.244 . S
O336 Tb324 2.506 . S
O336 C325 1.265 . S
C337 O332 1.258 . S
C337 O338 1.251 . S
O338 C337 1.251 . S
O339 Tb321 2.441 . S
O339 C334 1.244 . S
O340 Tb341 2.506 . S
O340 C354 1.265 . S
Tb341 O340 2.506 . S
Tb341 O346 2.312 1_554 S
Tb341 O350 2.271 . S
Tb341 O352 2.338 . S
Tb341 O359 2.441 . S
C342 O350 1.252 . S
C342 O351 1.253 . S
O343 Tb344 2.271 . S
O343 C353 1.252 . S
Tb344 O343 2.271 . S
Tb344 O347 2.338 . S
Tb344 O351 2.312 1_556 S
Tb344 O355 2.441 . S
Tb344 O356 2.506 . S
C345 O355 1.244 . S
C345 O356 1.265 . S
O346 Tb341 2.312 1_556 S
O346 C353 1.253 . S
O347 Tb344 2.338 . S
O347 C348 1.258 . S
C348 O347 1.258 . S
C348 O349 1.251 . S
O349 C348 1.251 . S
O350 Tb341 2.271 . S
O350 C342 1.252 . S
O351 C342 1.253 . S
O351 Tb344 2.312 1_554 S
O352 Tb341 2.338 . S
O352 C357 1.258 . S
C353 O343 1.252 . S
C353 O346 1.253 . S
C354 O340 1.265 . S
C354 O359 1.244 . S
O355 Tb344 2.441 . S
O355 C345 1.244 . S
O356 Tb344 2.506 . S
O356 C345 1.265 . S
C357 O352 1.258 . S
C357 O358 1.251 . S
O358 C357 1.251 . S
O359 Tb341 2.441 . S
O359 C354 1.244 . S
O360 Tb361 2.506 . S
O360 C374 1.265 . S
Tb361 O360 2.506 . S
Tb361 O366 2.312 . S
Tb361 O370 2.271 . S
Tb361 O372 2.338 . S
Tb361 O379 2.441 . S
C362 O370 1.252 . S
C362 O371 1.253 . S
O363 Tb364 2.271 . S
O363 C373 1.252 . S
Tb364 O363 2.271 . S
Tb364 O367 2.338 . S
Tb364 O371 2.312 . S
Tb364 O375 2.441 . S
Tb364 O376 2.506 . S
C365 O375 1.244 . S
C365 O376 1.265 . S
O366 Tb361 2.312 . S
O366 C373 1.253 . S
O367 Tb364 2.338 . S
O367 C368 1.258 . S
C368 O367 1.258 . S
C368 O369 1.251 . S
O369 C368 1.251 . S
O370 Tb361 2.271 . S
O370 C362 1.252 . S
O371 C362 1.253 . S
O371 Tb364 2.312 . S
O372 Tb361 2.338 . S
O372 C377 1.258 . S
C373 O363 1.252 . S
C373 O366 1.253 . S
C374 O360 1.265 . S
C374 O379 1.244 . S
O375 Tb364 2.441 . S
O375 C365 1.244 . S
O376 Tb364 2.506 . S
O376 C365 1.265 . S
C377 O372 1.258 . S
C377 O378 1.251 . S
O378 C377 1.251 . S
O379 Tb361 2.441 . S
O379 C374 1.244 . S
O380 Tb381 2.506 . S
O380 C394 1.265 . S
Tb381 O380 2.506 . S
Tb381 O386 2.312 1_554 S
Tb381 O390 2.271 . S
Tb381 O392 2.338 . S
Tb381 O399 2.441 . S
C382 O390 1.252 . S
C382 O391 1.253 . S
O383 Tb384 2.271 . S
O383 C393 1.252 . S
Tb384 O383 2.271 . S
Tb384 O387 2.338 . S
Tb384 O391 2.312 1_556 S
Tb384 O395 2.441 . S
Tb384 O396 2.506 . S
C385 O395 1.244 . S
C385 O396 1.265 . S
O386 Tb381 2.312 1_556 S
O386 C393 1.253 . S
O387 Tb384 2.338 . S
O387 C388 1.258 . S
C388 O387 1.258 . S
C388 O389 1.251 . S
O389 C388 1.251 . S
O390 Tb381 2.271 . S
O390 C382 1.252 . S
O391 C382 1.253 . S
O391 Tb384 2.312 1_554 S
O392 Tb381 2.338 . S
O392 C397 1.258 . S
C393 O383 1.252 . S
C393 O386 1.253 . S
C394 O380 1.265 . S
C394 O399 1.244 . S
O395 Tb384 2.441 . S
O395 C385 1.244 . S
O396 Tb384 2.506 . S
O396 C385 1.265 . S
C397 O392 1.258 . S
C397 O398 1.251 . S
O398 C397 1.251 . S
O399 Tb381 2.441 . S
O399 C394 1.244 . S
O400 Tb401 2.506 . S
O400 C414 1.265 . S
Tb401 O400 2.506 . S
Tb401 O406 2.312 . S
Tb401 O410 2.271 . S
Tb401 O412 2.338 . S
Tb401 O419 2.441 . S
C402 O410 1.252 . S
C402 O411 1.253 . S
O403 Tb404 2.271 . S
O403 C413 1.252 . S
Tb404 O403 2.271 . S
Tb404 O407 2.338 . S
Tb404 O411 2.312 . S
Tb404 O415 2.441 . S
Tb404 O416 2.506 . S
C405 O415 1.244 . S
C405 O416 1.265 . S
O406 Tb401 2.312 . S
O406 C413 1.253 . S
O407 Tb404 2.338 . S
O407 C408 1.258 . S
C408 O407 1.258 . S
C408 O409 1.251 . S
O409 C408 1.251 . S
O410 Tb401 2.271 . S
O410 C402 1.252 . S
O411 C402 1.253 . S
O411 Tb404 2.312 . S
O412 Tb401 2.338 . S
O412 C417 1.258 . S
C413 O403 1.252 . S
C413 O406 1.253 . S
C414 O400 1.265 . S
C414 O419 1.244 . S
O415 Tb404 2.441 . S
O415 C405 1.244 . S
O416 Tb404 2.506 . S
O416 C405 1.265 . S
C417 O412 1.258 . S
C417 O418 1.251 . S
O418 C417 1.251 . S
O419 Tb401 2.441 . S
O419 C414 1.244 . S
O420 Tb421 2.506 . S
O420 C434 1.265 . S
Tb421 O420 2.506 . S
Tb421 O426 2.312 1_556 S
Tb421 O430 2.271 . S
Tb421 O432 2.338 . S
Tb421 O439 2.441 . S
C422 O430 1.252 . S
C422 O431 1.253 . S
O423 Tb424 2.271 . S
O423 C433 1.252 . S
Tb424 O423 2.271 . S
Tb424 O427 2.338 . S
Tb424 O431 2.312 1_554 S
Tb424 O435 2.441 . S
Tb424 O436 2.506 . S
C425 O435 1.244 . S
C425 O436 1.265 . S
O426 Tb421 2.312 1_554 S
O426 C433 1.253 . S
O427 Tb424 2.338 . S
O427 C428 1.258 . S
C428 O427 1.258 . S
C428 O429 1.251 . S
O429 C428 1.251 . S
O430 Tb421 2.271 . S
O430 C422 1.252 . S
O431 C422 1.253 . S
O431 Tb424 2.312 1_556 S
O432 Tb421 2.338 . S
O432 C437 1.258 . S
C433 O423 1.252 . S
C433 O426 1.253 . S
C434 O420 1.265 . S
C434 O439 1.244 . S
O435 Tb424 2.441 . S
O435 C425 1.244 . S
O436 Tb424 2.506 . S
O436 C425 1.265 . S
C437 O432 1.258 . S
C437 O438 1.251 . S
O438 C437 1.251 . S
O439 Tb421 2.441 . S
O439 C434 1.244 . S
O440 Tb441 2.506 . S
O440 C454 1.265 . S
Tb441 O440 2.506 . S
Tb441 O446 2.312 . S
Tb441 O450 2.271 . S
Tb441 O452 2.338 . S
Tb441 O459 2.441 . S
C442 O450 1.252 . S
C442 O451 1.253 . S
O443 Tb444 2.271 . S
O443 C453 1.252 . S
Tb444 O443 2.271 . S
Tb444 O447 2.338 . S
Tb444 O451 2.312 . S
Tb444 O455 2.441 . S
Tb444 O456 2.506 . S
C445 O455 1.244 . S
C445 O456 1.265 . S
O446 Tb441 2.312 . S
O446 C453 1.253 . S
O447 Tb444 2.338 . S
O447 C448 1.258 . S
C448 O447 1.258 . S
C448 O449 1.251 . S
O449 C448 1.251 . S
O450 Tb441 2.271 . S
O450 C442 1.252 . S
O451 C442 1.253 . S
O451 Tb444 2.312 . S
O452 Tb441 2.338 . S
O452 C457 1.258 . S
C453 O443 1.252 . S
C453 O446 1.253 . S
C454 O440 1.265 . S
C454 O459 1.244 . S
O455 Tb444 2.441 . S
O455 C445 1.244 . S
O456 Tb444 2.506 . S
O456 C445 1.265 . S
C457 O452 1.258 . S
C457 O458 1.251 . S
O458 C457 1.251 . S
O459 Tb441 2.441 . S
O459 C454 1.244 . S
O460 Tb461 2.506 . S
O460 C474 1.265 . S
Tb461 O460 2.506 . S
Tb461 O466 2.312 . S
Tb461 O470 2.271 . S
Tb461 O472 2.338 . S
Tb461 O479 2.441 . S
C462 O470 1.252 . S
C462 O471 1.253 . S
O463 Tb464 2.271 . S
O463 C473 1.252 . S
Tb464 O463 2.271 . S
Tb464 O467 2.338 . S
Tb464 O471 2.312 . S
Tb464 O475 2.441 . S
Tb464 O476 2.506 . S
C465 O475 1.244 . S
C465 O476 1.265 . S
O466 Tb461 2.312 . S
O466 C473 1.253 . S
O467 Tb464 2.338 . S
O467 C468 1.258 . S
C468 O467 1.258 . S
C468 O469 1.251 . S
O469 C468 1.251 . S
O470 Tb461 2.271 . S
O470 C462 1.252 . S
O471 C462 1.253 . S
O471 Tb464 2.312 . S
O472 Tb461 2.338 . S
O472 C477 1.258 . S
C473 O463 1.252 . S
C473 O466 1.253 . S
C474 O460 1.265 . S
C474 O479 1.244 . S
O475 Tb464 2.441 . S
O475 C465 1.244 . S
O476 Tb464 2.506 . S
O476 C465 1.265 . S
C477 O472 1.258 . S
C477 O478 1.251 . S
O478 C477 1.251 . S
O479 Tb461 2.441 . S
O479 C474 1.244 . S
C480 C481 1.363 . S
C480 C486 1.379 . S
C480 N488 1.356 . S
C481 C480 1.363 . S
C481 C487 1.363 . S
C482 C483 1.363 . S
C482 C487 1.379 . S
C482 N489 1.356 . S
C483 C482 1.363 . S
C483 C486 1.363 . S
N484 C486 1.356 . S
N484 H496 0.984 . S
N484 H497 0.985 . S
N485 C487 1.356 . S
N485 H490 0.984 . S
N485 H491 0.985 . S
C486 C480 1.379 . S
C486 C483 1.363 . S
C486 N484 1.356 . S
C487 C481 1.363 . S
C487 C482 1.379 . S
C487 N485 1.356 . S
N488 C480 1.356 . S
N488 H494 0.984 . S
N488 H495 0.984 . S
N489 C482 1.356 . S
N489 H492 0.984 . S
N489 H493 0.985 . S
H490 N485 0.984 . S
H491 N485 0.985 . S
H492 N489 0.984 . S
H493 N489 0.985 . S
H494 N488 0.984 . S
H495 N488 0.984 . S
H496 N484 0.984 . S
H497 N484 0.985 . S
C498 C499 1.363 . S
C498 C504 1.379 . S
C498 N506 1.356 . S
C499 C498 1.363 . S
C499 C505 1.363 . S
C500 C501 1.363 . S
C500 C505 1.379 . S
C500 N507 1.356 . S
C501 C500 1.363 . S
C501 C504 1.363 . S
N502 C504 1.356 . S
N502 H514 0.984 . S
N502 H515 0.985 . S
N503 C505 1.356 . S
N503 H508 0.984 . S
N503 H509 0.985 . S
C504 C498 1.379 . S
C504 C501 1.363 . S
C504 N502 1.356 . S
C505 C499 1.363 . S
C505 C500 1.379 . S
C505 N503 1.356 . S
N506 C498 1.356 . S
N506 H512 0.984 . S
N506 H513 0.984 . S
N507 C500 1.356 . S
N507 H510 0.984 . S
N507 H511 0.985 . S
H508 N503 0.984 . S
H509 N503 0.985 . S
H510 N507 0.984 . S
H511 N507 0.985 . S
H512 N506 0.984 . S
H513 N506 0.984 . S
H514 N502 0.984 . S
H515 N502 0.985 . S
C516 C517 1.363 . S
C516 C522 1.379 . S
C516 N524 1.356 . S
C517 C516 1.363 . S
C517 C523 1.363 . S
C518 C519 1.363 . S
C518 C523 1.379 . S
C518 N525 1.356 . S
C519 C518 1.363 . S
C519 C522 1.363 . S
N520 C522 1.356 . S
N520 H532 0.984 . S
N520 H533 0.985 . S
N521 C523 1.356 . S
N521 H526 0.984 . S
N521 H527 0.985 . S
C522 C516 1.379 . S
C522 C519 1.363 . S
C522 N520 1.356 . S
C523 C517 1.363 . S
C523 C518 1.379 . S
C523 N521 1.356 . S
N524 C516 1.356 . S
N524 H530 0.984 . S
N524 H531 0.984 . S
N525 C518 1.356 . S
N525 H528 0.984 . S
N525 H529 0.985 . S
H526 N521 0.984 . S
H527 N521 0.985 . S
H528 N525 0.984 . S
H529 N525 0.985 . S
H530 N524 0.984 . S
H531 N524 0.984 . S
H532 N520 0.984 . S
H533 N520 0.985 . S
C534 C535 1.363 . S
C534 C540 1.379 . S
C534 N542 1.356 . S
C535 C534 1.363 . S
C535 C541 1.363 . S
C536 C537 1.363 . S
C536 C541 1.379 . S
C536 N543 1.356 . S
C537 C536 1.363 . S
C537 C540 1.363 . S
N538 C540 1.356 . S
N538 H550 0.984 . S
N538 H551 0.985 . S
N539 C541 1.356 . S
N539 H544 0.984 . S
N539 H545 0.985 . S
C540 C534 1.379 . S
C540 C537 1.363 . S
C540 N538 1.356 . S
C541 C535 1.363 . S
C541 C536 1.379 . S
C541 N539 1.356 . S
N542 C534 1.356 . S
N542 H548 0.984 . S
N542 H549 0.984 . S
N543 C536 1.356 . S
N543 H546 0.984 . S
N543 H547 0.985 . S
H544 N539 0.984 . S
H545 N539 0.985 . S
H546 N543 0.984 . S
H547 N543 0.985 . S
H548 N542 0.984 . S
H549 N542 0.984 . S
H550 N538 0.984 . S
H551 N538 0.985 . S
C552 C553 1.363 . S
C552 C558 1.379 . S
C552 N560 1.356 . S
C553 C552 1.363 . S
C553 C559 1.363 . S
C554 C555 1.363 . S
C554 C559 1.379 . S
C554 N561 1.356 . S
C555 C554 1.363 . S
C555 C558 1.363 . S
N556 C558 1.356 . S
N556 H568 0.984 . S
N556 H569 0.985 . S
N557 C559 1.356 . S
N557 H562 0.984 . S
N557 H563 0.985 . S
C558 C552 1.379 . S
C558 C555 1.363 . S
C558 N556 1.356 . S
C559 C553 1.363 . S
C559 C554 1.379 . S
C559 N557 1.356 . S
N560 C552 1.356 . S
N560 H566 0.984 . S
N560 H567 0.984 . S
N561 C554 1.356 . S
N561 H564 0.984 . S
N561 H565 0.985 . S
H562 N557 0.984 . S
H563 N557 0.985 . S
H564 N561 0.984 . S
H565 N561 0.985 . S
H566 N560 0.984 . S
H567 N560 0.984 . S
H568 N556 0.984 . S
H569 N556 0.985 . S
C570 C571 1.363 . S
C570 C576 1.379 . S
C570 N578 1.356 . S
C571 C570 1.363 . S
C571 C577 1.363 . S
C572 C573 1.363 . S
C572 C577 1.379 . S
C572 N579 1.356 . S
C573 C572 1.363 . S
C573 C576 1.363 . S
N574 C576 1.356 . S
N574 H586 0.984 . S
N574 H587 0.985 . S
N575 C577 1.356 . S
N575 H580 0.984 . S
N575 H581 0.985 . S
C576 C570 1.379 . S
C576 C573 1.363 . S
C576 N574 1.356 . S
C577 C571 1.363 . S
C577 C572 1.379 . S
C577 N575 1.356 . S
N578 C570 1.356 . S
N578 H584 0.984 . S
N578 H585 0.984 . S
N579 C572 1.356 . S
N579 H582 0.984 . S
N579 H583 0.985 . S
H580 N575 0.984 . S
H581 N575 0.985 . S
H582 N579 0.984 . S
H583 N579 0.985 . S
H584 N578 0.984 . S
H585 N578 0.984 . S
H586 N574 0.984 . S
H587 N574 0.985 . S
C588 C589 1.363 . S
C588 C594 1.379 . S
C588 N596 1.356 . S
C589 C588 1.363 . S
C589 C595 1.363 . S
C590 C591 1.363 . S
C590 C595 1.379 . S
C590 N597 1.356 . S
C591 C590 1.363 . S
C591 C594 1.363 . S
N592 C594 1.356 . S
N592 H604 0.984 . S
N592 H605 0.985 . S
N593 C595 1.356 . S
N593 H598 0.984 . S
N593 H599 0.985 . S
C594 C588 1.379 . S
C594 C591 1.363 . S
C594 N592 1.356 . S
C595 C589 1.363 . S
C595 C590 1.379 . S
C595 N593 1.356 . S
N596 C588 1.356 . S
N596 H602 0.984 . S
N596 H603 0.984 . S
N597 C590 1.356 . S
N597 H600 0.984 . S
N597 H601 0.985 . S
H598 N593 0.984 . S
H599 N593 0.985 . S
H600 N597 0.984 . S
H601 N597 0.985 . S
H602 N596 0.984 . S
H603 N596 0.984 . S
H604 N592 0.984 . S
H605 N592 0.985 . S
C606 C607 1.363 . S
C606 C612 1.379 . S
C606 N614 1.356 . S
C607 C606 1.363 . S
C607 C613 1.363 . S
C608 C609 1.363 . S
C608 C613 1.379 . S
C608 N615 1.356 . S
C609 C608 1.363 . S
C609 C612 1.363 . S
N610 C612 1.356 . S
N610 H622 0.984 . S
N610 H623 0.985 . S
N611 C613 1.356 . S
N611 H616 0.984 . S
N611 H617 0.985 . S
C612 C606 1.379 . S
C612 C609 1.363 . S
C612 N610 1.356 . S
C613 C607 1.363 . S
C613 C608 1.379 . S
C613 N611 1.356 . S
N614 C606 1.356 . S
N614 H620 0.984 . S
N614 H621 0.984 . S
N615 C608 1.356 . S
N615 H618 0.984 . S
N615 H619 0.985 . S
H616 N611 0.984 . S
H617 N611 0.985 . S
H618 N615 0.984 . S
H619 N615 0.985 . S
H620 N614 0.984 . S
H621 N614 0.984 . S
H622 N610 0.984 . S
H623 N610 0.985 . S
C624 C625 1.363 . S
C624 C630 1.379 . S
C624 N632 1.356 . S
C625 C624 1.363 . S
C625 C631 1.363 . S
C626 C627 1.363 . S
C626 C631 1.379 . S
C626 N633 1.356 . S
C627 C626 1.363 . S
C627 C630 1.363 . S
N628 C630 1.356 . S
N628 H640 0.984 . S
N628 H641 0.985 . S
N629 C631 1.356 . S
N629 H634 0.984 . S
N629 H635 0.985 . S
C630 C624 1.379 . S
C630 C627 1.363 . S
C630 N628 1.356 . S
C631 C625 1.363 . S
C631 C626 1.379 . S
C631 N629 1.356 . S
N632 C624 1.356 . S
N632 H638 0.984 . S
N632 H639 0.984 . S
N633 C626 1.356 . S
N633 H636 0.984 . S
N633 H637 0.985 . S
H634 N629 0.984 . S
H635 N629 0.985 . S
H636 N633 0.984 . S
H637 N633 0.985 . S
H638 N632 0.984 . S
H639 N632 0.984 . S
H640 N628 0.984 . S
H641 N628 0.985 . S
C642 C643 1.363 . S
C642 C648 1.379 . S
C642 N650 1.356 . S
C643 C642 1.363 . S
C643 C649 1.363 . S
C644 C645 1.363 . S
C644 C649 1.379 . S
C644 N651 1.356 . S
C645 C644 1.363 . S
C645 C648 1.363 . S
N646 C648 1.356 . S
N646 H658 0.984 . S
N646 H659 0.985 . S
N647 C649 1.356 . S
N647 H652 0.984 . S
N647 H653 0.985 . S
C648 C642 1.379 . S
C648 C645 1.363 . S
C648 N646 1.356 . S
C649 C643 1.363 . S
C649 C644 1.379 . S
C649 N647 1.356 . S
N650 C642 1.356 . S
N650 H656 0.984 . S
N650 H657 0.984 . S
N651 C644 1.356 . S
N651 H654 0.984 . S
N651 H655 0.985 . S
H652 N647 0.984 . S
H653 N647 0.985 . S
H654 N651 0.984 . S
H655 N651 0.985 . S
H656 N650 0.984 . S
H657 N650 0.984 . S
H658 N646 0.984 . S
H659 N646 0.985 . S
C660 C661 1.363 . S
C660 C666 1.379 . S
C660 N668 1.356 . S
C661 C660 1.363 . S
C661 C667 1.363 . S
C662 C663 1.363 . S
C662 C667 1.379 . S
C662 N669 1.356 . S
C663 C662 1.363 . S
C663 C666 1.363 . S
N664 C666 1.356 . S
N664 H676 0.984 . S
N664 H677 0.985 . S
N665 C667 1.356 . S
N665 H670 0.984 . S
N665 H671 0.985 . S
C666 C660 1.379 . S
C666 C663 1.363 . S
C666 N664 1.356 . S
C667 C661 1.363 . S
C667 C662 1.379 . S
C667 N665 1.356 . S
N668 C660 1.356 . S
N668 H674 0.984 . S
N668 H675 0.984 . S
N669 C662 1.356 . S
N669 H672 0.984 . S
N669 H673 0.985 . S
H670 N665 0.984 . S
H671 N665 0.985 . S
H672 N669 0.984 . S
H673 N669 0.985 . S
H674 N668 0.984 . S
H675 N668 0.984 . S
H676 N664 0.984 . S
H677 N664 0.985 . S
C678 C679 1.363 . S
C678 C684 1.379 . S
C678 N686 1.356 . S
C679 C678 1.363 . S
C679 C685 1.363 . S
C680 C681 1.363 . S
C680 C685 1.379 . S
C680 N687 1.356 . S
C681 C680 1.363 . S
C681 C684 1.363 . S
N682 C684 1.356 . S
N682 H694 0.984 . S
N682 H695 0.985 . S
N683 C685 1.356 . S
N683 H688 0.984 . S
N683 H689 0.985 . S
C684 C678 1.379 . S
C684 C681 1.363 . S
C684 N682 1.356 . S
C685 C679 1.363 . S
C685 C680 1.379 . S
C685 N683 1.356 . S
N686 C678 1.356 . S
N686 H692 0.984 . S
N686 H693 0.984 . S
N687 C680 1.356 . S
N687 H690 0.984 . S
N687 H691 0.985 . S
H688 N683 0.984 . S
H689 N683 0.985 . S
H690 N687 0.984 . S
H691 N687 0.985 . S
H692 N686 0.984 . S
H693 N686 0.984 . S
H694 N682 0.984 . S
H695 N682 0.985 . S
C696 C697 1.363 . S
C696 C702 1.379 . S
C696 N704 1.356 . S
C697 C696 1.363 . S
C697 C703 1.363 . S
C698 C699 1.363 . S
C698 C703 1.379 . S
C698 N705 1.356 . S
C699 C698 1.363 . S
C699 C702 1.363 . S
N700 C702 1.356 . S
N700 H712 0.984 . S
N700 H713 0.985 . S
N701 C703 1.356 . S
N701 H706 0.984 . S
N701 H707 0.985 . S
C702 C696 1.379 . S
C702 C699 1.363 . S
C702 N700 1.356 . S
C703 C697 1.363 . S
C703 C698 1.379 . S
C703 N701 1.356 . S
N704 C696 1.356 . S
N704 H710 0.984 . S
N704 H711 0.984 . S
N705 C698 1.356 . S
N705 H708 0.984 . S
N705 H709 0.985 . S
H706 N701 0.984 . S
H707 N701 0.985 . S
H708 N705 0.984 . S
H709 N705 0.985 . S
H710 N704 0.984 . S
H711 N704 0.984 . S
H712 N700 0.984 . S
H713 N700 0.985 . S
C714 C715 1.363 . S
C714 C720 1.379 . S
C714 N722 1.356 . S
C715 C714 1.363 . S
C715 C721 1.363 . S
C716 C717 1.363 . S
C716 C721 1.379 . S
C716 N723 1.356 . S
C717 C716 1.363 . S
C717 C720 1.363 . S
N718 C720 1.356 . S
N718 H730 0.984 . S
N718 H731 0.985 . S
N719 C721 1.356 . S
N719 H724 0.984 . S
N719 H725 0.985 . S
C720 C714 1.379 . S
C720 C717 1.363 . S
C720 N718 1.356 . S
C721 C715 1.363 . S
C721 C716 1.379 . S
C721 N719 1.356 . S
N722 C714 1.356 . S
N722 H728 0.984 . S
N722 H729 0.984 . S
N723 C716 1.356 . S
N723 H726 0.984 . S
N723 H727 0.985 . S
H724 N719 0.984 . S
H725 N719 0.985 . S
H726 N723 0.984 . S
H727 N723 0.985 . S
H728 N722 0.984 . S
H729 N722 0.984 . S
H730 N718 0.984 . S
H731 N718 0.985 . S
C732 C733 1.363 . S
C732 C738 1.379 . S
C732 N740 1.356 . S
C733 C732 1.363 . S
C733 C739 1.363 . S
C734 C735 1.363 . S
C734 C739 1.379 . S
C734 N741 1.356 . S
C735 C734 1.363 . S
C735 C738 1.363 . S
N736 C738 1.356 . S
N736 H748 0.984 . S
N736 H749 0.985 . S
N737 C739 1.356 . S
N737 H742 0.984 . S
N737 H743 0.985 . S
C738 C732 1.379 . S
C738 C735 1.363 . S
C738 N736 1.356 . S
C739 C733 1.363 . S
C739 C734 1.379 . S
C739 N737 1.356 . S
N740 C732 1.356 . S
N740 H746 0.984 . S
N740 H747 0.984 . S
N741 C734 1.356 . S
N741 H744 0.984 . S
N741 H745 0.985 . S
H742 N737 0.984 . S
H743 N737 0.985 . S
H744 N741 0.984 . S
H745 N741 0.985 . S
H746 N740 0.984 . S
H747 N740 0.984 . S
H748 N736 0.984 . S
H749 N736 0.985 . S
C750 C751 1.363 . S
C750 C756 1.379 . S
C750 N758 1.356 . S
C751 C750 1.363 . S
C751 C757 1.363 . S
C752 C753 1.363 . S
C752 C757 1.379 . S
C752 N759 1.356 . S
C753 C752 1.363 . S
C753 C756 1.363 . S
N754 C756 1.356 . S
N754 H766 0.984 . S
N754 H767 0.985 . S
N755 C757 1.356 . S
N755 H760 0.984 . S
N755 H761 0.985 . S
C756 C750 1.379 . S
C756 C753 1.363 . S
C756 N754 1.356 . S
C757 C751 1.363 . S
C757 C752 1.379 . S
C757 N755 1.356 . S
N758 C750 1.356 . S
N758 H764 0.984 . S
N758 H765 0.984 . S
N759 C752 1.356 . S
N759 H762 0.984 . S
N759 H763 0.985 . S
H760 N755 0.984 . S
H761 N755 0.985 . S
H762 N759 0.984 . S
H763 N759 0.985 . S
H764 N758 0.984 . S
H765 N758 0.984 . S
H766 N754 0.984 . S
H767 N754 0.985 . S
C768 C769 1.363 . S
C768 C774 1.379 . S
C768 N776 1.356 . S
C769 C768 1.363 . S
C769 C775 1.363 . S
C770 C771 1.363 . S
C770 C775 1.379 . S
C770 N777 1.356 . S
C771 C770 1.363 . S
C771 C774 1.363 . S
N772 C774 1.356 . S
N772 H784 0.984 . S
N772 H785 0.985 . S
N773 C775 1.356 . S
N773 H778 0.984 . S
N773 H779 0.985 . S
C774 C768 1.379 . S
C774 C771 1.363 . S
C774 N772 1.356 . S
C775 C769 1.363 . S
C775 C770 1.379 . S
C775 N773 1.356 . S
N776 C768 1.356 . S
N776 H782 0.984 . S
N776 H783 0.984 . S
N777 C770 1.356 . S
N777 H780 0.984 . S
N777 H781 0.985 . S
H778 N773 0.984 . S
H779 N773 0.985 . S
H780 N777 0.984 . S
H781 N777 0.985 . S
H782 N776 0.984 . S
H783 N776 0.984 . S
H784 N772 0.984 . S
H785 N772 0.985 . S
C786 C787 1.363 . S
C786 C792 1.379 . S
C786 N794 1.356 . S
C787 C786 1.363 . S
C787 C793 1.363 . S
C788 C789 1.363 . S
C788 C793 1.379 . S
C788 N795 1.356 . S
C789 C788 1.363 . S
C789 C792 1.363 . S
N790 C792 1.356 . S
N790 H802 0.984 . S
N790 H803 0.985 . S
N791 C793 1.356 . S
N791 H796 0.984 . S
N791 H797 0.985 . S
C792 C786 1.379 . S
C792 C789 1.363 . S
C792 N790 1.356 . S
C793 C787 1.363 . S
C793 C788 1.379 . S
C793 N791 1.356 . S
N794 C786 1.356 . S
N794 H800 0.984 . S
N794 H801 0.984 . S
N795 C788 1.356 . S
N795 H798 0.984 . S
N795 H799 0.985 . S
H796 N791 0.984 . S
H797 N791 0.985 . S
H798 N795 0.984 . S
H799 N795 0.985 . S
H800 N794 0.984 . S
H801 N794 0.984 . S
H802 N790 0.984 . S
H803 N790 0.985 . S
C804 C805 1.363 . S
C804 C810 1.379 . S
C804 N812 1.356 . S
C805 C804 1.363 . S
C805 C811 1.363 . S
C806 C807 1.363 . S
C806 C811 1.379 . S
C806 N813 1.356 . S
C807 C806 1.363 . S
C807 C810 1.363 . S
N808 C810 1.356 . S
N808 H820 0.984 . S
N808 H821 0.985 . S
N809 C811 1.356 . S
N809 H814 0.984 . S
N809 H815 0.985 . S
C810 C804 1.379 . S
C810 C807 1.363 . S
C810 N808 1.356 . S
C811 C805 1.363 . S
C811 C806 1.379 . S
C811 N809 1.356 . S
N812 C804 1.356 . S
N812 H818 0.984 . S
N812 H819 0.984 . S
N813 C806 1.356 . S
N813 H816 0.984 . S
N813 H817 0.985 . S
H814 N809 0.984 . S
H815 N809 0.985 . S
H816 N813 0.984 . S
H817 N813 0.985 . S
H818 N812 0.984 . S
H819 N812 0.984 . S
H820 N808 0.984 . S
H821 N808 0.985 . S
C822 C823 1.363 . S
C822 C828 1.379 . S
C822 N830 1.356 . S
C823 C822 1.363 . S
C823 C829 1.363 . S
C824 C825 1.363 . S
C824 C829 1.379 . S
C824 N831 1.356 . S
C825 C824 1.363 . S
C825 C828 1.363 . S
N826 C828 1.356 . S
N826 H838 0.984 . S
N826 H839 0.985 . S
N827 C829 1.356 . S
N827 H832 0.984 . S
N827 H833 0.985 . S
C828 C822 1.379 . S
C828 C825 1.363 . S
C828 N826 1.356 . S
C829 C823 1.363 . S
C829 C824 1.379 . S
C829 N827 1.356 . S
N830 C822 1.356 . S
N830 H836 0.984 . S
N830 H837 0.984 . S
N831 C824 1.356 . S
N831 H834 0.984 . S
N831 H835 0.985 . S
H832 N827 0.984 . S
H833 N827 0.985 . S
H834 N831 0.984 . S
H835 N831 0.985 . S
H836 N830 0.984 . S
H837 N830 0.984 . S
H838 N826 0.984 . S
H839 N826 0.985 . S
C840 C841 1.363 . S
C840 C846 1.379 . S
C840 N848 1.356 . S
C841 C840 1.363 . S
C841 C847 1.363 . S
C842 C843 1.363 . S
C842 C847 1.379 . S
C842 N849 1.356 . S
C843 C842 1.363 . S
C843 C846 1.363 . S
N844 C846 1.356 . S
N844 H856 0.984 . S
N844 H857 0.985 . S
N845 C847 1.356 . S
N845 H850 0.984 . S
N845 H851 0.985 . S
C846 C840 1.379 . S
C846 C843 1.363 . S
C846 N844 1.356 . S
C847 C841 1.363 . S
C847 C842 1.379 . S
C847 N845 1.356 . S
N848 C840 1.356 . S
N848 H854 0.984 . S
N848 H855 0.984 . S
N849 C842 1.356 . S
N849 H852 0.984 . S
N849 H853 0.985 . S
H850 N845 0.984 . S
H851 N845 0.985 . S
H852 N849 0.984 . S
H853 N849 0.985 . S
H854 N848 0.984 . S
H855 N848 0.984 . S
H856 N844 0.984 . S
H857 N844 0.985 . S
C858 C859 1.363 . S
C858 C864 1.379 . S
C858 N866 1.356 . S
C859 C858 1.363 . S
C859 C865 1.363 . S
C860 C861 1.363 . S
C860 C865 1.379 . S
C860 N867 1.356 . S
C861 C860 1.363 . S
C861 C864 1.363 . S
N862 C864 1.356 . S
N862 H874 0.984 . S
N862 H875 0.985 . S
N863 C865 1.356 . S
N863 H868 0.984 . S
N863 H869 0.985 . S
C864 C858 1.379 . S
C864 C861 1.363 . S
C864 N862 1.356 . S
C865 C859 1.363 . S
C865 C860 1.379 . S
C865 N863 1.356 . S
N866 C858 1.356 . S
N866 H872 0.984 . S
N866 H873 0.984 . S
N867 C860 1.356 . S
N867 H870 0.984 . S
N867 H871 0.985 . S
H868 N863 0.984 . S
H869 N863 0.985 . S
H870 N867 0.984 . S
H871 N867 0.985 . S
H872 N866 0.984 . S
H873 N866 0.984 . S
H874 N862 0.984 . S
H875 N862 0.985 . S
C876 C877 1.363 . S
C876 C882 1.379 . S
C876 N884 1.356 . S
C877 C876 1.363 . S
C877 C883 1.363 . S
C878 C879 1.363 . S
C878 C883 1.379 . S
C878 N885 1.356 . S
C879 C878 1.363 . S
C879 C882 1.363 . S
N880 C882 1.356 . S
N880 H892 0.984 . S
N880 H893 0.985 . S
N881 C883 1.356 . S
N881 H886 0.984 . S
N881 H887 0.985 . S
C882 C876 1.379 . S
C882 C879 1.363 . S
C882 N880 1.356 . S
C883 C877 1.363 . S
C883 C878 1.379 . S
C883 N881 1.356 . S
N884 C876 1.356 . S
N884 H890 0.984 . S
N884 H891 0.984 . S
N885 C878 1.356 . S
N885 H888 0.984 . S
N885 H889 0.985 . S
H886 N881 0.984 . S
H887 N881 0.985 . S
H888 N885 0.984 . S
H889 N885 0.985 . S
H890 N884 0.984 . S
H891 N884 0.984 . S
H892 N880 0.984 . S
H893 N880 0.985 . S
C894 C895 1.363 . S
C894 C900 1.379 . S
C894 N902 1.356 . S
C895 C894 1.363 . S
C895 C901 1.363 . S
C896 C897 1.363 . S
C896 C901 1.379 . S
C896 N903 1.356 . S
C897 C896 1.363 . S
C897 C900 1.363 . S
N898 C900 1.356 . S
N898 H910 0.984 . S
N898 H911 0.985 . S
N899 C901 1.356 . S
N899 H904 0.984 . S
N899 H905 0.985 . S
C900 C894 1.379 . S
C900 C897 1.363 . S
C900 N898 1.356 . S
C901 C895 1.363 . S
C901 C896 1.379 . S
C901 N899 1.356 . S
N902 C894 1.356 . S
N902 H908 0.984 . S
N902 H909 0.984 . S
N903 C896 1.356 . S
N903 H906 0.984 . S
N903 H907 0.985 . S
H904 N899 0.984 . S
H905 N899 0.985 . S
H906 N903 0.984 . S
H907 N903 0.985 . S
H908 N902 0.984 . S
H909 N902 0.984 . S
H910 N898 0.984 . S
H911 N898 0.985 . S
C912 C913 1.363 . S
C912 C918 1.379 . S
C912 N920 1.356 . S
C913 C912 1.363 . S
C913 C919 1.363 . S
C914 C915 1.363 . S
C914 C919 1.379 . S
C914 N921 1.356 . S
C915 C914 1.363 . S
C915 C918 1.363 . S
N916 C918 1.356 . S
N916 H928 0.984 . S
N916 H929 0.985 . S
N917 C919 1.356 . S
N917 H922 0.984 . S
N917 H923 0.985 . S
C918 C912 1.379 . S
C918 C915 1.363 . S
C918 N916 1.356 . S
C919 C913 1.363 . S
C919 C914 1.379 . S
C919 N917 1.356 . S
N920 C912 1.356 . S
N920 H926 0.984 . S
N920 H927 0.984 . S
N921 C914 1.356 . S
N921 H924 0.984 . S
N921 H925 0.985 . S
H922 N917 0.984 . S
H923 N917 0.985 . S
H924 N921 0.984 . S
H925 N921 0.985 . S
H926 N920 0.984 . S
H927 N920 0.984 . S
H928 N916 0.984 . S
H929 N916 0.985 . S
C930 C931 1.363 . S
C930 C936 1.379 . S
C930 N938 1.356 . S
C931 C930 1.363 . S
C931 C937 1.363 . S
C932 C933 1.363 . S
C932 C937 1.379 . S
C932 N939 1.356 . S
C933 C932 1.363 . S
C933 C936 1.363 . S
N934 C936 1.356 . S
N934 H946 0.984 . S
N934 H947 0.985 . S
N935 C937 1.356 . S
N935 H940 0.984 . S
N935 H941 0.985 . S
C936 C930 1.379 . S
C936 C933 1.363 . S
C936 N934 1.356 . S
C937 C931 1.363 . S
C937 C932 1.379 . S
C937 N935 1.356 . S
N938 C930 1.356 . S
N938 H944 0.984 . S
N938 H945 0.984 . S
N939 C932 1.356 . S
N939 H942 0.984 . S
N939 H943 0.985 . S
H940 N935 0.984 . S
H941 N935 0.985 . S
H942 N939 0.984 . S
H943 N939 0.985 . S
H944 N938 0.984 . S
H945 N938 0.984 . S
H946 N934 0.984 . S
H947 N934 0.985 . S
C948 C949 1.363 . S
C948 C954 1.379 . S
C948 N956 1.356 . S
C949 C948 1.363 . S
C949 C955 1.363 . S
C950 C951 1.363 . S
C950 C955 1.379 . S
C950 N957 1.356 . S
C951 C950 1.363 . S
C951 C954 1.363 . S
N952 C954 1.356 . S
N952 H964 0.984 . S
N952 H965 0.985 . S
N953 C955 1.356 . S
N953 H958 0.984 . S
N953 H959 0.985 . S
C954 C948 1.379 . S
C954 C951 1.363 . S
C954 N952 1.356 . S
C955 C949 1.363 . S
C955 C950 1.379 . S
C955 N953 1.356 . S
N956 C948 1.356 . S
N956 H962 0.984 . S
N956 H963 0.984 . S
N957 C950 1.356 . S
N957 H960 0.984 . S
N957 H961 0.985 . S
H958 N953 0.984 . S
H959 N953 0.985 . S
H960 N957 0.984 . S
H961 N957 0.985 . S
H962 N956 0.984 . S
H963 N956 0.984 . S
H964 N952 0.984 . S
H965 N952 0.985 . S
C966 C967 1.363 . S
C966 C972 1.379 . S
C966 N974 1.356 . S
C967 C966 1.363 . S
C967 C973 1.363 . S
C968 C969 1.363 . S
C968 C973 1.379 . S
C968 N975 1.356 . S
C969 C968 1.363 . S
C969 C972 1.363 . S
N970 C972 1.356 . S
N970 H982 0.984 . S
N970 H983 0.985 . S
N971 C973 1.356 . S
N971 H976 0.984 . S
N971 H977 0.985 . S
C972 C966 1.379 . S
C972 C969 1.363 . S
C972 N970 1.356 . S
C973 C967 1.363 . S
C973 C968 1.379 . S
C973 N971 1.356 . S
N974 C966 1.356 . S
N974 H980 0.984 . S
N974 H981 0.984 . S
N975 C968 1.356 . S
N975 H978 0.984 . S
N975 H979 0.985 . S
H976 N971 0.984 . S
H977 N971 0.985 . S
H978 N975 0.984 . S
H979 N975 0.985 . S
H980 N974 0.984 . S
H981 N974 0.984 . S
H982 N970 0.984 . S
H983 N970 0.985 . S
C984 C985 1.363 . S
C984 C990 1.379 . S
C984 N992 1.356 . S
C985 C984 1.363 . S
C985 C991 1.363 . S
C986 C987 1.363 . S
C986 C991 1.379 . S
C986 N993 1.356 . S
C987 C986 1.363 . S
C987 C990 1.363 . S
N988 C990 1.356 . S
N988 H1000 0.984 . S
N988 H1001 0.985 . S
N989 C991 1.356 . S
N989 H994 0.984 . S
N989 H995 0.985 . S
C990 C984 1.379 . S
C990 C987 1.363 . S
C990 N988 1.356 . S
C991 C985 1.363 . S
C991 C986 1.379 . S
C991 N989 1.356 . S
N992 C984 1.356 . S
N992 H998 0.984 . S
N992 H999 0.984 . S
N993 C986 1.356 . S
N993 H996 0.984 . S
N993 H997 0.985 . S
H994 N989 0.984 . S
H995 N989 0.985 . S
H996 N993 0.984 . S
H997 N993 0.985 . S
H998 N992 0.984 . S
H999 N992 0.984 . S
H1000 N988 0.984 . S
H1001 N988 0.985 . S
C1002 C1003 1.363 . S
C1002 C1008 1.379 . S
C1002 N1010 1.356 . S
C1003 C1002 1.363 . S
C1003 C1009 1.363 . S
C1004 C1005 1.363 . S
C1004 C1009 1.379 . S
C1004 N1011 1.356 . S
C1005 C1004 1.363 . S
C1005 C1008 1.363 . S
N1006 C1008 1.356 . S
N1006 H1018 0.984 . S
N1006 H1019 0.985 . S
N1007 C1009 1.356 . S
N1007 H1012 0.984 . S
N1007 H1013 0.985 . S
C1008 C1002 1.379 . S
C1008 C1005 1.363 . S
C1008 N1006 1.356 . S
C1009 C1003 1.363 . S
C1009 C1004 1.379 . S
C1009 N1007 1.356 . S
N1010 C1002 1.356 . S
N1010 H1016 0.984 . S
N1010 H1017 0.984 . S
N1011 C1004 1.356 . S
N1011 H1014 0.984 . S
N1011 H1015 0.985 . S
H1012 N1007 0.984 . S
H1013 N1007 0.985 . S
H1014 N1011 0.984 . S
H1015 N1011 0.985 . S
H1016 N1010 0.984 . S
H1017 N1010 0.984 . S
H1018 N1006 0.984 . S
H1019 N1006 0.985 . S
C1020 C1021 1.363 . S
C1020 C1026 1.379 . S
C1020 N1028 1.356 . S
C1021 C1020 1.363 . S
C1021 C1027 1.363 . S
C1022 C1023 1.363 . S
C1022 C1027 1.379 . S
C1022 N1029 1.356 . S
C1023 C1022 1.363 . S
C1023 C1026 1.363 . S
N1024 C1026 1.356 . S
N1024 H1036 0.984 . S
N1024 H1037 0.985 . S
N1025 C1027 1.356 . S
N1025 H1030 0.984 . S
N1025 H1031 0.985 . S
C1026 C1020 1.379 . S
C1026 C1023 1.363 . S
C1026 N1024 1.356 . S
C1027 C1021 1.363 . S
C1027 C1022 1.379 . S
C1027 N1025 1.356 . S
N1028 C1020 1.356 . S
N1028 H1034 0.984 . S
N1028 H1035 0.984 . S
N1029 C1022 1.356 . S
N1029 H1032 0.984 . S
N1029 H1033 0.985 . S
H1030 N1025 0.984 . S
H1031 N1025 0.985 . S
H1032 N1029 0.984 . S
H1033 N1029 0.985 . S
H1034 N1028 0.984 . S
H1035 N1028 0.984 . S
H1036 N1024 0.984 . S
H1037 N1024 0.985 . S
C1038 C1039 1.363 . S
C1038 C1044 1.379 . S
C1038 N1046 1.356 . S
C1039 C1038 1.363 . S
C1039 C1045 1.363 . S
C1040 C1041 1.363 . S
C1040 C1045 1.379 . S
C1040 N1047 1.356 . S
C1041 C1040 1.363 . S
C1041 C1044 1.363 . S
N1042 C1044 1.356 . S
N1042 H1054 0.984 . S
N1042 H1055 0.985 . S
N1043 C1045 1.356 . S
N1043 H1048 0.984 . S
N1043 H1049 0.985 . S
C1044 C1038 1.379 . S
C1044 C1041 1.363 . S
C1044 N1042 1.356 . S
C1045 C1039 1.363 . S
C1045 C1040 1.379 . S
C1045 N1043 1.356 . S
N1046 C1038 1.356 . S
N1046 H1052 0.984 . S
N1046 H1053 0.984 . S
N1047 C1040 1.356 . S
N1047 H1050 0.984 . S
N1047 H1051 0.985 . S
H1048 N1043 0.984 . S
H1049 N1043 0.985 . S
H1050 N1047 0.984 . S
H1051 N1047 0.985 . S
H1052 N1046 0.984 . S
H1053 N1046 0.984 . S
H1054 N1042 0.984 . S
H1055 N1042 0.985 . S
C1056 C1057 1.363 . S
C1056 C1062 1.379 . S
C1056 N1064 1.356 . S
C1057 C1056 1.363 . S
C1057 C1063 1.363 . S
C1058 C1059 1.363 . S
C1058 C1063 1.379 . S
C1058 N1065 1.356 . S
C1059 C1058 1.363 . S
C1059 C1062 1.363 . S
N1060 C1062 1.356 . S
N1060 H1072 0.984 . S
N1060 H1073 0.985 . S
N1061 C1063 1.356 . S
N1061 H1066 0.984 . S
N1061 H1067 0.985 . S
C1062 C1056 1.379 . S
C1062 C1059 1.363 . S
C1062 N1060 1.356 . S
C1063 C1057 1.363 . S
C1063 C1058 1.379 . S
C1063 N1061 1.356 . S
N1064 C1056 1.356 . S
N1064 H1070 0.984 . S
N1064 H1071 0.984 . S
N1065 C1058 1.356 . S
N1065 H1068 0.984 . S
N1065 H1069 0.985 . S
H1066 N1061 0.984 . S
H1067 N1061 0.985 . S
H1068 N1065 0.984 . S
H1069 N1065 0.985 . S
H1070 N1064 0.984 . S
H1071 N1064 0.984 . S
H1072 N1060 0.984 . S
H1073 N1060 0.985 . S
C1074 C1075 1.363 . S
C1074 C1080 1.379 . S
C1074 N1082 1.356 . S
C1075 C1074 1.363 . S
C1075 C1081 1.363 . S
C1076 C1077 1.363 . S
C1076 C1081 1.379 . S
C1076 N1083 1.356 . S
C1077 C1076 1.363 . S
C1077 C1080 1.363 . S
N1078 C1080 1.356 . S
N1078 H1090 0.984 . S
N1078 H1091 0.985 . S
N1079 C1081 1.356 . S
N1079 H1084 0.984 . S
N1079 H1085 0.985 . S
C1080 C1074 1.379 . S
C1080 C1077 1.363 . S
C1080 N1078 1.356 . S
C1081 C1075 1.363 . S
C1081 C1076 1.379 . S
C1081 N1079 1.356 . S
N1082 C1074 1.356 . S
N1082 H1088 0.984 . S
N1082 H1089 0.984 . S
N1083 C1076 1.356 . S
N1083 H1086 0.984 . S
N1083 H1087 0.985 . S
H1084 N1079 0.984 . S
H1085 N1079 0.985 . S
H1086 N1083 0.984 . S
H1087 N1083 0.985 . S
H1088 N1082 0.984 . S
H1089 N1082 0.984 . S
H1090 N1078 0.984 . S
H1091 N1078 0.985 . S
C1092 C1093 1.363 . S
C1092 C1098 1.379 . S
C1092 N1100 1.356 . S
C1093 C1092 1.363 . S
C1093 C1099 1.363 . S
C1094 C1095 1.363 . S
C1094 C1099 1.379 . S
C1094 N1101 1.356 . S
C1095 C1094 1.363 . S
C1095 C1098 1.363 . S
N1096 C1098 1.356 . S
N1096 H1108 0.984 . S
N1096 H1109 0.985 . S
N1097 C1099 1.356 . S
N1097 H1102 0.984 . S
N1097 H1103 0.985 . S
C1098 C1092 1.379 . S
C1098 C1095 1.363 . S
C1098 N1096 1.356 . S
C1099 C1093 1.363 . S
C1099 C1094 1.379 . S
C1099 N1097 1.356 . S
N1100 C1092 1.356 . S
N1100 H1106 0.984 . S
N1100 H1107 0.984 . S
N1101 C1094 1.356 . S
N1101 H1104 0.984 . S
N1101 H1105 0.985 . S
H1102 N1097 0.984 . S
H1103 N1097 0.985 . S
H1104 N1101 0.984 . S
H1105 N1101 0.985 . S
H1106 N1100 0.984 . S
H1107 N1100 0.984 . S
H1108 N1096 0.984 . S
H1109 N1096 0.985 . S
C1110 C1111 1.363 . S
C1110 C1116 1.379 . S
C1110 N1118 1.356 . S
C1111 C1110 1.363 . S
C1111 C1117 1.363 . S
C1112 C1113 1.363 . S
C1112 C1117 1.379 . S
C1112 N1119 1.356 . S
C1113 C1112 1.363 . S
C1113 C1116 1.363 . S
N1114 C1116 1.356 . S
N1114 H1126 0.984 . S
N1114 H1127 0.985 . S
N1115 C1117 1.356 . S
N1115 H1120 0.984 . S
N1115 H1121 0.985 . S
C1116 C1110 1.379 . S
C1116 C1113 1.363 . S
C1116 N1114 1.356 . S
C1117 C1111 1.363 . S
C1117 C1112 1.379 . S
C1117 N1115 1.356 . S
N1118 C1110 1.356 . S
N1118 H1124 0.984 . S
N1118 H1125 0.984 . S
N1119 C1112 1.356 . S
N1119 H1122 0.984 . S
N1119 H1123 0.985 . S
H1120 N1115 0.984 . S
H1121 N1115 0.985 . S
H1122 N1119 0.984 . S
H1123 N1119 0.985 . S
H1124 N1118 0.984 . S
H1125 N1118 0.984 . S
H1126 N1114 0.984 . S
H1127 N1114 0.985 . S
C1128 C1129 1.363 . S
C1128 C1134 1.379 . S
C1128 N1136 1.356 . S
C1129 C1128 1.363 . S
C1129 C1135 1.363 . S
C1130 C1131 1.363 . S
C1130 C1135 1.379 . S
C1130 N1137 1.356 . S
C1131 C1130 1.363 . S
C1131 C1134 1.363 . S
N1132 C1134 1.356 . S
N1132 H1144 0.984 . S
N1132 H1145 0.985 . S
N1133 C1135 1.356 . S
N1133 H1138 0.984 . S
N1133 H1139 0.985 . S
C1134 C1128 1.379 . S
C1134 C1131 1.363 . S
C1134 N1132 1.356 . S
C1135 C1129 1.363 . S
C1135 C1130 1.379 . S
C1135 N1133 1.356 . S
N1136 C1128 1.356 . S
N1136 H1142 0.984 . S
N1136 H1143 0.984 . S
N1137 C1130 1.356 . S
N1137 H1140 0.984 . S
N1137 H1141 0.985 . S
H1138 N1133 0.984 . S
H1139 N1133 0.985 . S
H1140 N1137 0.984 . S
H1141 N1137 0.985 . S
H1142 N1136 0.984 . S
H1143 N1136 0.984 . S
H1144 N1132 0.984 . S
H1145 N1132 0.985 . S
C1146 C1147 1.363 . S
C1146 C1152 1.379 . S
C1146 N1154 1.356 . S
C1147 C1146 1.363 . S
C1147 C1153 1.363 . S
C1148 C1149 1.363 . S
C1148 C1153 1.379 . S
C1148 N1155 1.356 . S
C1149 C1148 1.363 . S
C1149 C1152 1.363 . S
N1150 C1152 1.356 . S
N1150 H1162 0.984 . S
N1150 H1163 0.985 . S
N1151 C1153 1.356 . S
N1151 H1156 0.984 . S
N1151 H1157 0.985 . S
C1152 C1146 1.379 . S
C1152 C1149 1.363 . S
C1152 N1150 1.356 . S
C1153 C1147 1.363 . S
C1153 C1148 1.379 . S
C1153 N1151 1.356 . S
N1154 C1146 1.356 . S
N1154 H1160 0.984 . S
N1154 H1161 0.984 . S
N1155 C1148 1.356 . S
N1155 H1158 0.984 . S
N1155 H1159 0.985 . S
H1156 N1151 0.984 . S
H1157 N1151 0.985 . S
H1158 N1155 0.984 . S
H1159 N1155 0.985 . S
H1160 N1154 0.984 . S
H1161 N1154 0.984 . S
H1162 N1150 0.984 . S
H1163 N1150 0.985 . S
C1164 C1165 1.363 . S
C1164 C1170 1.379 . S
C1164 N1172 1.356 . S
C1165 C1164 1.363 . S
C1165 C1171 1.363 . S
C1166 C1167 1.363 . S
C1166 C1171 1.379 . S
C1166 N1173 1.356 . S
C1167 C1166 1.363 . S
C1167 C1170 1.363 . S
N1168 C1170 1.356 . S
N1168 H1180 0.984 . S
N1168 H1181 0.985 . S
N1169 C1171 1.356 . S
N1169 H1174 0.984 . S
N1169 H1175 0.985 . S
C1170 C1164 1.379 . S
C1170 C1167 1.363 . S
C1170 N1168 1.356 . S
C1171 C1165 1.363 . S
C1171 C1166 1.379 . S
C1171 N1169 1.356 . S
N1172 C1164 1.356 . S
N1172 H1178 0.984 . S
N1172 H1179 0.984 . S
N1173 C1166 1.356 . S
N1173 H1176 0.984 . S
N1173 H1177 0.985 . S
H1174 N1169 0.984 . S
H1175 N1169 0.985 . S
H1176 N1173 0.984 . S
H1177 N1173 0.985 . S
H1178 N1172 0.984 . S
H1179 N1172 0.984 . S
H1180 N1168 0.984 . S
H1181 N1168 0.985 . S
C1182 C1183 1.363 . S
C1182 C1188 1.379 . S
C1182 N1190 1.356 . S
C1183 C1182 1.363 . S
C1183 C1189 1.363 . S
C1184 C1185 1.363 . S
C1184 C1189 1.379 . S
C1184 N1191 1.356 . S
C1185 C1184 1.363 . S
C1185 C1188 1.363 . S
N1186 C1188 1.356 . S
N1186 H1198 0.984 . S
N1186 H1199 0.985 . S
N1187 C1189 1.356 . S
N1187 H1192 0.984 . S
N1187 H1193 0.985 . S
C1188 C1182 1.379 . S
C1188 C1185 1.363 . S
C1188 N1186 1.356 . S
C1189 C1183 1.363 . S
C1189 C1184 1.379 . S
C1189 N1187 1.356 . S
N1190 C1182 1.356 . S
N1190 H1196 0.984 . S
N1190 H1197 0.984 . S
N1191 C1184 1.356 . S
N1191 H1194 0.984 . S
N1191 H1195 0.985 . S
H1192 N1187 0.984 . S
H1193 N1187 0.985 . S
H1194 N1191 0.984 . S
H1195 N1191 0.985 . S
H1196 N1190 0.984 . S
H1197 N1190 0.984 . S
H1198 N1186 0.984 . S
H1199 N1186 0.985 . S
C1200 C1201 1.363 . S
C1200 C1206 1.379 . S
C1200 N1208 1.356 . S
C1201 C1200 1.363 . S
C1201 C1207 1.363 . S
C1202 C1203 1.363 . S
C1202 C1207 1.379 . S
C1202 N1209 1.356 . S
C1203 C1202 1.363 . S
C1203 C1206 1.363 . S
N1204 C1206 1.356 . S
N1204 H1216 0.984 . S
N1204 H1217 0.985 . S
N1205 C1207 1.356 . S
N1205 H1210 0.984 . S
N1205 H1211 0.985 . S
C1206 C1200 1.379 . S
C1206 C1203 1.363 . S
C1206 N1204 1.356 . S
C1207 C1201 1.363 . S
C1207 C1202 1.379 . S
C1207 N1205 1.356 . S
N1208 C1200 1.356 . S
N1208 H1214 0.984 . S
N1208 H1215 0.984 . S
N1209 C1202 1.356 . S
N1209 H1212 0.984 . S
N1209 H1213 0.985 . S
H1210 N1205 0.984 . S
H1211 N1205 0.985 . S
H1212 N1209 0.984 . S
H1213 N1209 0.985 . S
H1214 N1208 0.984 . S
H1215 N1208 0.984 . S
H1216 N1204 0.984 . S
H1217 N1204 0.985 . S
C1218 C1219 1.363 . S
C1218 C1224 1.379 . S
C1218 N1226 1.356 . S
C1219 C1218 1.363 . S
C1219 C1225 1.363 . S
C1220 C1221 1.363 . S
C1220 C1225 1.379 . S
C1220 N1227 1.356 . S
C1221 C1220 1.363 . S
C1221 C1224 1.363 . S
N1222 C1224 1.356 . S
N1222 H1234 0.984 . S
N1222 H1235 0.985 . S
N1223 C1225 1.356 . S
N1223 H1228 0.984 . S
N1223 H1229 0.985 . S
C1224 C1218 1.379 . S
C1224 C1221 1.363 . S
C1224 N1222 1.356 . S
C1225 C1219 1.363 . S
C1225 C1220 1.379 . S
C1225 N1223 1.356 . S
N1226 C1218 1.356 . S
N1226 H1232 0.984 . S
N1226 H1233 0.984 . S
N1227 C1220 1.356 . S
N1227 H1230 0.984 . S
N1227 H1231 0.985 . S
H1228 N1223 0.984 . S
H1229 N1223 0.985 . S
H1230 N1227 0.984 . S
H1231 N1227 0.985 . S
H1232 N1226 0.984 . S
H1233 N1226 0.984 . S
H1234 N1222 0.984 . S
H1235 N1222 0.985 . S
C1236 C1237 1.363 . S
C1236 C1242 1.379 . S
C1236 N1244 1.356 . S
C1237 C1236 1.363 . S
C1237 C1243 1.363 . S
C1238 C1239 1.363 . S
C1238 C1243 1.379 . S
C1238 N1245 1.356 . S
C1239 C1238 1.363 . S
C1239 C1242 1.363 . S
N1240 C1242 1.356 . S
N1240 H1252 0.984 . S
N1240 H1253 0.985 . S
N1241 C1243 1.356 . S
N1241 H1246 0.984 . S
N1241 H1247 0.985 . S
C1242 C1236 1.379 . S
C1242 C1239 1.363 . S
C1242 N1240 1.356 . S
C1243 C1237 1.363 . S
C1243 C1238 1.379 . S
C1243 N1241 1.356 . S
N1244 C1236 1.356 . S
N1244 H1250 0.984 . S
N1244 H1251 0.984 . S
N1245 C1238 1.356 . S
N1245 H1248 0.984 . S
N1245 H1249 0.985 . S
H1246 N1241 0.984 . S
H1247 N1241 0.985 . S
H1248 N1245 0.984 . S
H1249 N1245 0.985 . S
H1250 N1244 0.984 . S
H1251 N1244 0.984 . S
H1252 N1240 0.984 . S
H1253 N1240 0.985 . S
C1254 C1255 1.363 . S
C1254 C1260 1.379 . S
C1254 N1262 1.356 . S
C1255 C1254 1.363 . S
C1255 C1261 1.363 . S
C1256 C1257 1.363 . S
C1256 C1261 1.379 . S
C1256 N1263 1.356 . S
C1257 C1256 1.363 . S
C1257 C1260 1.363 . S
N1258 C1260 1.356 . S
N1258 H1270 0.984 . S
N1258 H1271 0.985 . S
N1259 C1261 1.356 . S
N1259 H1264 0.984 . S
N1259 H1265 0.985 . S
C1260 C1254 1.379 . S
C1260 C1257 1.363 . S
C1260 N1258 1.356 . S
C1261 C1255 1.363 . S
C1261 C1256 1.379 . S
C1261 N1259 1.356 . S
N1262 C1254 1.356 . S
N1262 H1268 0.984 . S
N1262 H1269 0.984 . S
N1263 C1256 1.356 . S
N1263 H1266 0.984 . S
N1263 H1267 0.985 . S
H1264 N1259 0.984 . S
H1265 N1259 0.985 . S
H1266 N1263 0.984 . S
H1267 N1263 0.985 . S
H1268 N1262 0.984 . S
H1269 N1262 0.984 . S
H1270 N1258 0.984 . S
H1271 N1258 0.985 . S
C1272 C1273 1.363 . S
C1272 C1278 1.379 . S
C1272 N1280 1.356 . S
C1273 C1272 1.363 . S
C1273 C1279 1.363 . S
C1274 C1275 1.363 . S
C1274 C1279 1.379 . S
C1274 N1281 1.356 . S
C1275 C1274 1.363 . S
C1275 C1278 1.363 . S
N1276 C1278 1.356 . S
N1276 H1288 0.984 . S
N1276 H1289 0.985 . S
N1277 C1279 1.356 . S
N1277 H1282 0.984 . S
N1277 H1283 0.985 . S
C1278 C1272 1.379 . S
C1278 C1275 1.363 . S
C1278 N1276 1.356 . S
C1279 C1273 1.363 . S
C1279 C1274 1.379 . S
C1279 N1277 1.356 . S
N1280 C1272 1.356 . S
N1280 H1286 0.984 . S
N1280 H1287 0.984 . S
N1281 C1274 1.356 . S
N1281 H1284 0.984 . S
N1281 H1285 0.985 . S
H1282 N1277 0.984 . S
H1283 N1277 0.985 . S
H1284 N1281 0.984 . S
H1285 N1281 0.985 . S
H1286 N1280 0.984 . S
H1287 N1280 0.984 . S
H1288 N1276 0.984 . S
H1289 N1276 0.985 . S
C1290 C1291 1.363 . S
C1290 C1296 1.379 . S
C1290 N1298 1.356 . S
C1291 C1290 1.363 . S
C1291 C1297 1.363 . S
C1292 C1293 1.363 . S
C1292 C1297 1.379 . S
C1292 N1299 1.356 . S
C1293 C1292 1.363 . S
C1293 C1296 1.363 . S
N1294 C1296 1.356 . S
N1294 H1306 0.984 . S
N1294 H1307 0.985 . S
N1295 C1297 1.356 . S
N1295 H1300 0.984 . S
N1295 H1301 0.985 . S
C1296 C1290 1.379 . S
C1296 C1293 1.363 . S
C1296 N1294 1.356 . S
C1297 C1291 1.363 . S
C1297 C1292 1.379 . S
C1297 N1295 1.356 . S
N1298 C1290 1.356 . S
N1298 H1304 0.984 . S
N1298 H1305 0.984 . S
N1299 C1292 1.356 . S
N1299 H1302 0.984 . S
N1299 H1303 0.985 . S
H1300 N1295 0.984 . S
H1301 N1295 0.985 . S
H1302 N1299 0.984 . S
H1303 N1299 0.985 . S
H1304 N1298 0.984 . S
H1305 N1298 0.984 . S
H1306 N1294 0.984 . S
H1307 N1294 0.985 . S
C1308 C1309 1.363 . S
C1308 C1314 1.379 . S
C1308 N1316 1.356 . S
C1309 C1308 1.363 . S
C1309 C1315 1.363 . S
C1310 C1311 1.363 . S
C1310 C1315 1.379 . S
C1310 N1317 1.356 . S
C1311 C1310 1.363 . S
C1311 C1314 1.363 . S
N1312 C1314 1.356 . S
N1312 H1324 0.984 . S
N1312 H1325 0.985 . S
N1313 C1315 1.356 . S
N1313 H1318 0.984 . S
N1313 H1319 0.985 . S
C1314 C1308 1.379 . S
C1314 C1311 1.363 . S
C1314 N1312 1.356 . S
C1315 C1309 1.363 . S
C1315 C1310 1.379 . S
C1315 N1313 1.356 . S
N1316 C1308 1.356 . S
N1316 H1322 0.984 . S
N1316 H1323 0.984 . S
N1317 C1310 1.356 . S
N1317 H1320 0.984 . S
N1317 H1321 0.985 . S
H1318 N1313 0.984 . S
H1319 N1313 0.985 . S
H1320 N1317 0.984 . S
H1321 N1317 0.985 . S
H1322 N1316 0.984 . S
H1323 N1316 0.984 . S
H1324 N1312 0.984 . S
H1325 N1312 0.985 . S
C1326 C1327 1.363 . S
C1326 C1332 1.379 . S
C1326 N1334 1.356 . S
C1327 C1326 1.363 . S
C1327 C1333 1.363 . S
C1328 C1329 1.363 . S
C1328 C1333 1.379 . S
C1328 N1335 1.356 . S
C1329 C1328 1.363 . S
C1329 C1332 1.363 . S
N1330 C1332 1.356 . S
N1330 H1342 0.984 . S
N1330 H1343 0.985 . S
N1331 C1333 1.356 . S
N1331 H1336 0.984 . S
N1331 H1337 0.985 . S
C1332 C1326 1.379 . S
C1332 C1329 1.363 . S
C1332 N1330 1.356 . S
C1333 C1327 1.363 . S
C1333 C1328 1.379 . S
C1333 N1331 1.356 . S
N1334 C1326 1.356 . S
N1334 H1340 0.984 . S
N1334 H1341 0.984 . S
N1335 C1328 1.356 . S
N1335 H1338 0.984 . S
N1335 H1339 0.985 . S
H1336 N1331 0.984 . S
H1337 N1331 0.985 . S
H1338 N1335 0.984 . S
H1339 N1335 0.985 . S
H1340 N1334 0.984 . S
H1341 N1334 0.984 . S
H1342 N1330 0.984 . S
H1343 N1330 0.985 . S
C1344 C1345 1.363 . S
C1344 C1350 1.379 . S
C1344 N1352 1.356 . S
C1345 C1344 1.363 . S
C1345 C1351 1.363 . S
C1346 C1347 1.363 . S
C1346 C1351 1.379 . S
C1346 N1353 1.356 . S
C1347 C1346 1.363 . S
C1347 C1350 1.363 . S
N1348 C1350 1.356 . S
N1348 H1360 0.984 . S
N1348 H1361 0.985 . S
N1349 C1351 1.356 . S
N1349 H1354 0.984 . S
N1349 H1355 0.985 . S
C1350 C1344 1.379 . S
C1350 C1347 1.363 . S
C1350 N1348 1.356 . S
C1351 C1345 1.363 . S
C1351 C1346 1.379 . S
C1351 N1349 1.356 . S
N1352 C1344 1.356 . S
N1352 H1358 0.984 . S
N1352 H1359 0.984 . S
N1353 C1346 1.356 . S
N1353 H1356 0.984 . S
N1353 H1357 0.985 . S
H1354 N1349 0.984 . S
H1355 N1349 0.985 . S
H1356 N1353 0.984 . S
H1357 N1353 0.985 . S
H1358 N1352 0.984 . S
H1359 N1352 0.984 . S
H1360 N1348 0.984 . S
H1361 N1348 0.985 . S
C1362 C1363 1.363 . S
C1362 C1368 1.379 . S
C1362 N1370 1.356 . S
C1363 C1362 1.363 . S
C1363 C1369 1.363 . S
C1364 C1365 1.363 . S
C1364 C1369 1.379 . S
C1364 N1371 1.356 . S
C1365 C1364 1.363 . S
C1365 C1368 1.363 . S
N1366 C1368 1.356 . S
N1366 H1378 0.984 . S
N1366 H1379 0.985 . S
N1367 C1369 1.356 . S
N1367 H1372 0.984 . S
N1367 H1373 0.985 . S
C1368 C1362 1.379 . S
C1368 C1365 1.363 . S
C1368 N1366 1.356 . S
C1369 C1363 1.363 . S
C1369 C1364 1.379 . S
C1369 N1367 1.356 . S
N1370 C1362 1.356 . S
N1370 H1376 0.984 . S
N1370 H1377 0.984 . S
N1371 C1364 1.356 . S
N1371 H1374 0.984 . S
N1371 H1375 0.985 . S
H1372 N1367 0.984 . S
H1373 N1367 0.985 . S
H1374 N1371 0.984 . S
H1375 N1371 0.985 . S
H1376 N1370 0.984 . S
H1377 N1370 0.984 . S
H1378 N1366 0.984 . S
H1379 N1366 0.985 . S
C1380 C1381 1.363 . S
C1380 C1386 1.379 . S
C1380 N1388 1.356 . S
C1381 C1380 1.363 . S
C1381 C1387 1.363 . S
C1382 C1383 1.363 . S
C1382 C1387 1.379 . S
C1382 N1389 1.356 . S
C1383 C1382 1.363 . S
C1383 C1386 1.363 . S
N1384 C1386 1.356 . S
N1384 H1396 0.984 . S
N1384 H1397 0.985 . S
N1385 C1387 1.356 . S
N1385 H1390 0.984 . S
N1385 H1391 0.985 . S
C1386 C1380 1.379 . S
C1386 C1383 1.363 . S
C1386 N1384 1.356 . S
C1387 C1381 1.363 . S
C1387 C1382 1.379 . S
C1387 N1385 1.356 . S
N1388 C1380 1.356 . S
N1388 H1394 0.984 . S
N1388 H1395 0.984 . S
N1389 C1382 1.356 . S
N1389 H1392 0.984 . S
N1389 H1393 0.985 . S
H1390 N1385 0.984 . S
H1391 N1385 0.985 . S
H1392 N1389 0.984 . S
H1393 N1389 0.985 . S
H1394 N1388 0.984 . S
H1395 N1388 0.984 . S
H1396 N1384 0.984 . S
H1397 N1384 0.985 . S
C1398 C1399 1.363 . S
C1398 C1404 1.379 . S
C1398 N1406 1.356 . S
C1399 C1398 1.363 . S
C1399 C1405 1.363 . S
C1400 C1401 1.363 . S
C1400 C1405 1.379 . S
C1400 N1407 1.356 . S
C1401 C1400 1.363 . S
C1401 C1404 1.363 . S
N1402 C1404 1.356 . S
N1402 H1414 0.984 . S
N1402 H1415 0.985 . S
N1403 C1405 1.356 . S
N1403 H1408 0.984 . S
N1403 H1409 0.985 . S
C1404 C1398 1.379 . S
C1404 C1401 1.363 . S
C1404 N1402 1.356 . S
C1405 C1399 1.363 . S
C1405 C1400 1.379 . S
C1405 N1403 1.356 . S
N1406 C1398 1.356 . S
N1406 H1412 0.984 . S
N1406 H1413 0.984 . S
N1407 C1400 1.356 . S
N1407 H1410 0.984 . S
N1407 H1411 0.985 . S
H1408 N1403 0.984 . S
H1409 N1403 0.985 . S
H1410 N1407 0.984 . S
H1411 N1407 0.985 . S
H1412 N1406 0.984 . S
H1413 N1406 0.984 . S
H1414 N1402 0.984 . S
H1415 N1402 0.985 . S
C1416 C1417 1.363 . S
C1416 C1422 1.379 . S
C1416 N1424 1.356 . S
C1417 C1416 1.363 . S
C1417 C1423 1.363 . S
C1418 C1419 1.363 . S
C1418 C1423 1.379 . S
C1418 N1425 1.356 . S
C1419 C1418 1.363 . S
C1419 C1422 1.363 . S
N1420 C1422 1.356 . S
N1420 H1432 0.984 . S
N1420 H1433 0.985 . S
N1421 C1423 1.356 . S
N1421 H1426 0.984 . S
N1421 H1427 0.985 . S
C1422 C1416 1.379 . S
C1422 C1419 1.363 . S
C1422 N1420 1.356 . S
C1423 C1417 1.363 . S
C1423 C1418 1.379 . S
C1423 N1421 1.356 . S
N1424 C1416 1.356 . S
N1424 H1430 0.984 . S
N1424 H1431 0.984 . S
N1425 C1418 1.356 . S
N1425 H1428 0.984 . S
N1425 H1429 0.985 . S
H1426 N1421 0.984 . S
H1427 N1421 0.985 . S
H1428 N1425 0.984 . S
H1429 N1425 0.985 . S
H1430 N1424 0.984 . S
H1431 N1424 0.984 . S
H1432 N1420 0.984 . S
H1433 N1420 0.985 . S
C1434 C1435 1.363 . S
C1434 C1440 1.379 . S
C1434 N1442 1.356 . S
C1435 C1434 1.363 . S
C1435 C1441 1.363 . S
C1436 C1437 1.363 . S
C1436 C1441 1.379 . S
C1436 N1443 1.356 . S
C1437 C1436 1.363 . S
C1437 C1440 1.363 . S
N1438 C1440 1.356 . S
N1438 H1450 0.984 . S
N1438 H1451 0.985 . S
N1439 C1441 1.356 . S
N1439 H1444 0.984 . S
N1439 H1445 0.985 . S
C1440 C1434 1.379 . S
C1440 C1437 1.363 . S
C1440 N1438 1.356 . S
C1441 C1435 1.363 . S
C1441 C1436 1.379 . S
C1441 N1439 1.356 . S
N1442 C1434 1.356 . S
N1442 H1448 0.984 . S
N1442 H1449 0.984 . S
N1443 C1436 1.356 . S
N1443 H1446 0.984 . S
N1443 H1447 0.985 . S
H1444 N1439 0.984 . S
H1445 N1439 0.985 . S
H1446 N1443 0.984 . S
H1447 N1443 0.985 . S
H1448 N1442 0.984 . S
H1449 N1442 0.984 . S
H1450 N1438 0.984 . S
H1451 N1438 0.985 . S
C1452 C1453 1.363 . S
C1452 C1458 1.379 . S
C1452 N1460 1.356 . S
C1453 C1452 1.363 . S
C1453 C1459 1.363 . S
C1454 C1455 1.363 . S
C1454 C1459 1.379 . S
C1454 N1461 1.356 . S
C1455 C1454 1.363 . S
C1455 C1458 1.363 . S
N1456 C1458 1.356 . S
N1456 H1468 0.984 . S
N1456 H1469 0.985 . S
N1457 C1459 1.356 . S
N1457 H1462 0.984 . S
N1457 H1463 0.985 . S
C1458 C1452 1.379 . S
C1458 C1455 1.363 . S
C1458 N1456 1.356 . S
C1459 C1453 1.363 . S
C1459 C1454 1.379 . S
C1459 N1457 1.356 . S
N1460 C1452 1.356 . S
N1460 H1466 0.984 . S
N1460 H1467 0.984 . S
N1461 C1454 1.356 . S
N1461 H1464 0.984 . S
N1461 H1465 0.985 . S
H1462 N1457 0.984 . S
H1463 N1457 0.985 . S
H1464 N1461 0.984 . S
H1465 N1461 0.985 . S
H1466 N1460 0.984 . S
H1467 N1460 0.984 . S
H1468 N1456 0.984 . S
H1469 N1456 0.985 . S
C1470 C1471 1.363 . S
C1470 C1476 1.379 . S
C1470 N1478 1.356 . S
C1471 C1470 1.363 . S
C1471 C1477 1.363 . S
C1472 C1473 1.363 . S
C1472 C1477 1.379 . S
C1472 N1479 1.356 . S
C1473 C1472 1.363 . S
C1473 C1476 1.363 . S
N1474 C1476 1.356 . S
N1474 H1486 0.984 . S
N1474 H1487 0.985 . S
N1475 C1477 1.356 . S
N1475 H1480 0.984 . S
N1475 H1481 0.985 . S
C1476 C1470 1.379 . S
C1476 C1473 1.363 . S
C1476 N1474 1.356 . S
C1477 C1471 1.363 . S
C1477 C1472 1.379 . S
C1477 N1475 1.356 . S
N1478 C1470 1.356 . S
N1478 H1484 0.984 . S
N1478 H1485 0.984 . S
N1479 C1472 1.356 . S
N1479 H1482 0.984 . S
N1479 H1483 0.985 . S
H1480 N1475 0.984 . S
H1481 N1475 0.985 . S
H1482 N1479 0.984 . S
H1483 N1479 0.985 . S
H1484 N1478 0.984 . S
H1485 N1478 0.984 . S
H1486 N1474 0.984 . S
H1487 N1474 0.985 . S
C1488 C1489 1.363 . S
C1488 C1494 1.379 . S
C1488 N1496 1.356 . S
C1489 C1488 1.363 . S
C1489 C1495 1.363 . S
C1490 C1491 1.363 . S
C1490 C1495 1.379 . S
C1490 N1497 1.356 . S
C1491 C1490 1.363 . S
C1491 C1494 1.363 . S
N1492 C1494 1.356 . S
N1492 H1504 0.984 . S
N1492 H1505 0.985 . S
N1493 C1495 1.356 . S
N1493 H1498 0.984 . S
N1493 H1499 0.985 . S
C1494 C1488 1.379 . S
C1494 C1491 1.363 . S
C1494 N1492 1.356 . S
C1495 C1489 1.363 . S
C1495 C1490 1.379 . S
C1495 N1493 1.356 . S
N1496 C1488 1.356 . S
N1496 H1502 0.984 . S
N1496 H1503 0.984 . S
N1497 C1490 1.356 . S
N1497 H1500 0.984 . S
N1497 H1501 0.985 . S
H1498 N1493 0.984 . S
H1499 N1493 0.985 . S
H1500 N1497 0.984 . S
H1501 N1497 0.985 . S
H1502 N1496 0.984 . S
H1503 N1496 0.984 . S
H1504 N1492 0.984 . S
H1505 N1492 0.985 . S
C1506 C1507 1.363 . S
C1506 C1512 1.379 . S
C1506 N1514 1.356 . S
C1507 C1506 1.363 . S
C1507 C1513 1.363 . S
C1508 C1509 1.363 . S
C1508 C1513 1.379 . S
C1508 N1515 1.356 . S
C1509 C1508 1.363 . S
C1509 C1512 1.363 . S
N1510 C1512 1.356 . S
N1510 H1522 0.984 . S
N1510 H1523 0.985 . S
N1511 C1513 1.356 . S
N1511 H1516 0.984 . S
N1511 H1517 0.985 . S
C1512 C1506 1.379 . S
C1512 C1509 1.363 . S
C1512 N1510 1.356 . S
C1513 C1507 1.363 . S
C1513 C1508 1.379 . S
C1513 N1511 1.356 . S
N1514 C1506 1.356 . S
N1514 H1520 0.984 . S
N1514 H1521 0.984 . S
N1515 C1508 1.356 . S
N1515 H1518 0.984 . S
N1515 H1519 0.985 . S
H1516 N1511 0.984 . S
H1517 N1511 0.985 . S
H1518 N1515 0.984 . S
H1519 N1515 0.985 . S
H1520 N1514 0.984 . S
H1521 N1514 0.984 . S
H1522 N1510 0.984 . S
H1523 N1510 0.985 . S
C1524 C1525 1.363 . S
C1524 C1530 1.379 . S
C1524 N1532 1.356 . S
C1525 C1524 1.363 . S
C1525 C1531 1.363 . S
C1526 C1527 1.363 . S
C1526 C1531 1.379 . S
C1526 N1533 1.356 . S
C1527 C1526 1.363 . S
C1527 C1530 1.363 . S
N1528 C1530 1.356 . S
N1528 H1540 0.984 . S
N1528 H1541 0.985 . S
N1529 C1531 1.356 . S
N1529 H1534 0.984 . S
N1529 H1535 0.985 . S
C1530 C1524 1.379 . S
C1530 C1527 1.363 . S
C1530 N1528 1.356 . S
C1531 C1525 1.363 . S
C1531 C1526 1.379 . S
C1531 N1529 1.356 . S
N1532 C1524 1.356 . S
N1532 H1538 0.984 . S
N1532 H1539 0.984 . S
N1533 C1526 1.356 . S
N1533 H1536 0.984 . S
N1533 H1537 0.985 . S
H1534 N1529 0.984 . S
H1535 N1529 0.985 . S
H1536 N1533 0.984 . S
H1537 N1533 0.985 . S
H1538 N1532 0.984 . S
H1539 N1532 0.984 . S
H1540 N1528 0.984 . S
H1541 N1528 0.985 . S
C1542 C1543 1.363 . S
C1542 C1548 1.379 . S
C1542 N1550 1.356 . S
C1543 C1542 1.363 . S
C1543 C1549 1.363 . S
C1544 C1545 1.363 . S
C1544 C1549 1.379 . S
C1544 N1551 1.356 . S
C1545 C1544 1.363 . S
C1545 C1548 1.363 . S
N1546 C1548 1.356 . S
N1546 H1558 0.984 . S
N1546 H1559 0.985 . S
N1547 C1549 1.356 . S
N1547 H1552 0.984 . S
N1547 H1553 0.985 . S
C1548 C1542 1.379 . S
C1548 C1545 1.363 . S
C1548 N1546 1.356 . S
C1549 C1543 1.363 . S
C1549 C1544 1.379 . S
C1549 N1547 1.356 . S
N1550 C1542 1.356 . S
N1550 H1556 0.984 . S
N1550 H1557 0.984 . S
N1551 C1544 1.356 . S
N1551 H1554 0.984 . S
N1551 H1555 0.985 . S
H1552 N1547 0.984 . S
H1553 N1547 0.985 . S
H1554 N1551 0.984 . S
H1555 N1551 0.985 . S
H1556 N1550 0.984 . S
H1557 N1550 0.984 . S
H1558 N1546 0.984 . S
H1559 N1546 0.985 . S
C1560 C1561 1.363 . S
C1560 C1566 1.379 . S
C1560 N1568 1.356 . S
C1561 C1560 1.363 . S
C1561 C1567 1.363 . S
C1562 C1563 1.363 . S
C1562 C1567 1.379 . S
C1562 N1569 1.356 . S
C1563 C1562 1.363 . S
C1563 C1566 1.363 . S
N1564 C1566 1.356 . S
N1564 H1576 0.984 . S
N1564 H1577 0.985 . S
N1565 C1567 1.356 . S
N1565 H1570 0.984 . S
N1565 H1571 0.985 . S
C1566 C1560 1.379 . S
C1566 C1563 1.363 . S
C1566 N1564 1.356 . S
C1567 C1561 1.363 . S
C1567 C1562 1.379 . S
C1567 N1565 1.356 . S
N1568 C1560 1.356 . S
N1568 H1574 0.984 . S
N1568 H1575 0.984 . S
N1569 C1562 1.356 . S
N1569 H1572 0.984 . S
N1569 H1573 0.985 . S
H1570 N1565 0.984 . S
H1571 N1565 0.985 . S
H1572 N1569 0.984 . S
H1573 N1569 0.985 . S
H1574 N1568 0.984 . S
H1575 N1568 0.984 . S
H1576 N1564 0.984 . S
H1577 N1564 0.985 . S
C1578 C1579 1.363 . S
C1578 C1584 1.379 . S
C1578 N1586 1.356 . S
C1579 C1578 1.363 . S
C1579 C1585 1.363 . S
C1580 C1581 1.363 . S
C1580 C1585 1.379 . S
C1580 N1587 1.356 . S
C1581 C1580 1.363 . S
C1581 C1584 1.363 . S
N1582 C1584 1.356 . S
N1582 H1594 0.984 . S
N1582 H1595 0.985 . S
N1583 C1585 1.356 . S
N1583 H1588 0.984 . S
N1583 H1589 0.985 . S
C1584 C1578 1.379 . S
C1584 C1581 1.363 . S
C1584 N1582 1.356 . S
C1585 C1579 1.363 . S
C1585 C1580 1.379 . S
C1585 N1583 1.356 . S
N1586 C1578 1.356 . S
N1586 H1592 0.984 . S
N1586 H1593 0.984 . S
N1587 C1580 1.356 . S
N1587 H1590 0.984 . S
N1587 H1591 0.985 . S
H1588 N1583 0.984 . S
H1589 N1583 0.985 . S
H1590 N1587 0.984 . S
H1591 N1587 0.985 . S
H1592 N1586 0.984 . S
H1593 N1586 0.984 . S
H1594 N1582 0.984 . S
H1595 N1582 0.985 . S
C1596 C1597 1.363 . S
C1596 C1602 1.379 . S
C1596 N1604 1.356 . S
C1597 C1596 1.363 . S
C1597 C1603 1.363 . S
C1598 C1599 1.363 . S
C1598 C1603 1.379 . S
C1598 N1605 1.356 . S
C1599 C1598 1.363 . S
C1599 C1602 1.363 . S
N1600 C1602 1.356 . S
N1600 H1612 0.984 . S
N1600 H1613 0.985 . S
N1601 C1603 1.356 . S
N1601 H1606 0.984 . S
N1601 H1607 0.985 . S
C1602 C1596 1.379 . S
C1602 C1599 1.363 . S
C1602 N1600 1.356 . S
C1603 C1597 1.363 . S
C1603 C1598 1.379 . S
C1603 N1601 1.356 . S
N1604 C1596 1.356 . S
N1604 H1610 0.984 . S
N1604 H1611 0.984 . S
N1605 C1598 1.356 . S
N1605 H1608 0.984 . S
N1605 H1609 0.985 . S
H1606 N1601 0.984 . S
H1607 N1601 0.985 . S
H1608 N1605 0.984 . S
H1609 N1605 0.985 . S
H1610 N1604 0.984 . S
H1611 N1604 0.984 . S
H1612 N1600 0.984 . S
H1613 N1600 0.985 . S
C1614 C1615 1.363 . S
C1614 C1620 1.379 . S
C1614 N1622 1.356 . S
C1615 C1614 1.363 . S
C1615 C1621 1.363 . S
C1616 C1617 1.363 . S
C1616 C1621 1.379 . S
C1616 N1623 1.356 . S
C1617 C1616 1.363 . S
C1617 C1620 1.363 . S
N1618 C1620 1.356 . S
N1618 H1630 0.984 . S
N1618 H1631 0.985 . S
N1619 C1621 1.356 . S
N1619 H1624 0.984 . S
N1619 H1625 0.985 . S
C1620 C1614 1.379 . S
C1620 C1617 1.363 . S
C1620 N1618 1.356 . S
C1621 C1615 1.363 . S
C1621 C1616 1.379 . S
C1621 N1619 1.356 . S
N1622 C1614 1.356 . S
N1622 H1628 0.984 . S
N1622 H1629 0.984 . S
N1623 C1616 1.356 . S
N1623 H1626 0.984 . S
N1623 H1627 0.985 . S
H1624 N1619 0.984 . S
H1625 N1619 0.985 . S
H1626 N1623 0.984 . S
H1627 N1623 0.985 . S
H1628 N1622 0.984 . S
H1629 N1622 0.984 . S
H1630 N1618 0.984 . S
H1631 N1618 0.985 . S
C1632 C1633 1.363 . S
C1632 C1638 1.379 . S
C1632 N1640 1.356 . S
C1633 C1632 1.363 . S
C1633 C1639 1.363 . S
C1634 C1635 1.363 . S
C1634 C1639 1.379 . S
C1634 N1641 1.356 . S
C1635 C1634 1.363 . S
C1635 C1638 1.363 . S
N1636 C1638 1.356 . S
N1636 H1648 0.984 . S
N1636 H1649 0.985 . S
N1637 C1639 1.356 . S
N1637 H1642 0.984 . S
N1637 H1643 0.985 . S
C1638 C1632 1.379 . S
C1638 C1635 1.363 . S
C1638 N1636 1.356 . S
C1639 C1633 1.363 . S
C1639 C1634 1.379 . S
C1639 N1637 1.356 . S
N1640 C1632 1.356 . S
N1640 H1646 0.984 . S
N1640 H1647 0.984 . S
N1641 C1634 1.356 . S
N1641 H1644 0.984 . S
N1641 H1645 0.985 . S
H1642 N1637 0.984 . S
H1643 N1637 0.985 . S
H1644 N1641 0.984 . S
H1645 N1641 0.985 . S
H1646 N1640 0.984 . S
H1647 N1640 0.984 . S
H1648 N1636 0.984 . S
H1649 N1636 0.985 . S
C1650 C1651 1.363 . S
C1650 C1656 1.379 . S
C1650 N1658 1.356 . S
C1651 C1650 1.363 . S
C1651 C1657 1.363 . S
C1652 C1653 1.363 . S
C1652 C1657 1.379 . S
C1652 N1659 1.356 . S
C1653 C1652 1.363 . S
C1653 C1656 1.363 . S
N1654 C1656 1.356 . S
N1654 H1666 0.984 . S
N1654 H1667 0.985 . S
N1655 C1657 1.356 . S
N1655 H1660 0.984 . S
N1655 H1661 0.985 . S
C1656 C1650 1.379 . S
C1656 C1653 1.363 . S
C1656 N1654 1.356 . S
C1657 C1651 1.363 . S
C1657 C1652 1.379 . S
C1657 N1655 1.356 . S
N1658 C1650 1.356 . S
N1658 H1664 0.984 . S
N1658 H1665 0.984 . S
N1659 C1652 1.356 . S
N1659 H1662 0.984 . S
N1659 H1663 0.985 . S
H1660 N1655 0.984 . S
H1661 N1655 0.985 . S
H1662 N1659 0.984 . S
H1663 N1659 0.985 . S
H1664 N1658 0.984 . S
H1665 N1658 0.984 . S
H1666 N1654 0.984 . S
H1667 N1654 0.985 . S
C1668 C1669 1.363 . S
C1668 C1674 1.379 . S
C1668 N1676 1.356 . S
C1669 C1668 1.363 . S
C1669 C1675 1.363 . S
C1670 C1671 1.363 . S
C1670 C1675 1.379 . S
C1670 N1677 1.356 . S
C1671 C1670 1.363 . S
C1671 C1674 1.363 . S
N1672 C1674 1.356 . S
N1672 H1684 0.984 . S
N1672 H1685 0.985 . S
N1673 C1675 1.356 . S
N1673 H1678 0.984 . S
N1673 H1679 0.985 . S
C1674 C1668 1.379 . S
C1674 C1671 1.363 . S
C1674 N1672 1.356 . S
C1675 C1669 1.363 . S
C1675 C1670 1.379 . S
C1675 N1673 1.356 . S
N1676 C1668 1.356 . S
N1676 H1682 0.984 . S
N1676 H1683 0.984 . S
N1677 C1670 1.356 . S
N1677 H1680 0.984 . S
N1677 H1681 0.985 . S
H1678 N1673 0.984 . S
H1679 N1673 0.985 . S
H1680 N1677 0.984 . S
H1681 N1677 0.985 . S
H1682 N1676 0.984 . S
H1683 N1676 0.984 . S
H1684 N1672 0.984 . S
H1685 N1672 0.985 . S
C1686 C1687 1.363 . S
C1686 C1692 1.379 . S
C1686 N1694 1.356 . S
C1687 C1686 1.363 . S
C1687 C1693 1.363 . S
C1688 C1689 1.363 . S
C1688 C1693 1.379 . S
C1688 N1695 1.356 . S
C1689 C1688 1.363 . S
C1689 C1692 1.363 . S
N1690 C1692 1.356 . S
N1690 H1702 0.984 . S
N1690 H1703 0.985 . S
N1691 C1693 1.356 . S
N1691 H1696 0.984 . S
N1691 H1697 0.985 . S
C1692 C1686 1.379 . S
C1692 C1689 1.363 . S
C1692 N1690 1.356 . S
C1693 C1687 1.363 . S
C1693 C1688 1.379 . S
C1693 N1691 1.356 . S
N1694 C1686 1.356 . S
N1694 H1700 0.984 . S
N1694 H1701 0.984 . S
N1695 C1688 1.356 . S
N1695 H1698 0.984 . S
N1695 H1699 0.985 . S
H1696 N1691 0.984 . S
H1697 N1691 0.985 . S
H1698 N1695 0.984 . S
H1699 N1695 0.985 . S
H1700 N1694 0.984 . S
H1701 N1694 0.984 . S
H1702 N1690 0.984 . S
H1703 N1690 0.985 . S
C1704 C1705 1.363 . S
C1704 C1710 1.379 . S
C1704 N1712 1.356 . S
C1705 C1704 1.363 . S
C1705 C1711 1.363 . S
C1706 C1707 1.363 . S
C1706 C1711 1.379 . S
C1706 N1713 1.356 . S
C1707 C1706 1.363 . S
C1707 C1710 1.363 . S
N1708 C1710 1.356 . S
N1708 H1720 0.984 . S
N1708 H1721 0.985 . S
N1709 C1711 1.356 . S
N1709 H1714 0.984 . S
N1709 H1715 0.985 . S
C1710 C1704 1.379 . S
C1710 C1707 1.363 . S
C1710 N1708 1.356 . S
C1711 C1705 1.363 . S
C1711 C1706 1.379 . S
C1711 N1709 1.356 . S
N1712 C1704 1.356 . S
N1712 H1718 0.984 . S
N1712 H1719 0.984 . S
N1713 C1706 1.356 . S
N1713 H1716 0.984 . S
N1713 H1717 0.985 . S
H1714 N1709 0.984 . S
H1715 N1709 0.985 . S
H1716 N1713 0.984 . S
H1717 N1713 0.985 . S
H1718 N1712 0.984 . S
H1719 N1712 0.984 . S
H1720 N1708 0.984 . S
H1721 N1708 0.985 . S
C1722 C1723 1.363 . S
C1722 C1728 1.379 . S
C1722 N1730 1.356 . S
C1723 C1722 1.363 . S
C1723 C1729 1.363 . S
C1724 C1725 1.363 . S
C1724 C1729 1.379 . S
C1724 N1731 1.356 . S
C1725 C1724 1.363 . S
C1725 C1728 1.363 . S
N1726 C1728 1.356 . S
N1726 H1738 0.984 . S
N1726 H1739 0.985 . S
N1727 C1729 1.356 . S
N1727 H1732 0.984 . S
N1727 H1733 0.985 . S
C1728 C1722 1.379 . S
C1728 C1725 1.363 . S
C1728 N1726 1.356 . S
C1729 C1723 1.363 . S
C1729 C1724 1.379 . S
C1729 N1727 1.356 . S
N1730 C1722 1.356 . S
N1730 H1736 0.984 . S
N1730 H1737 0.984 . S
N1731 C1724 1.356 . S
N1731 H1734 0.984 . S
N1731 H1735 0.985 . S
H1732 N1727 0.984 . S
H1733 N1727 0.985 . S
H1734 N1731 0.984 . S
H1735 N1731 0.985 . S
H1736 N1730 0.984 . S
H1737 N1730 0.984 . S
H1738 N1726 0.984 . S
H1739 N1726 0.985 . S
C1740 C1741 1.363 . S
C1740 C1746 1.379 . S
C1740 N1748 1.356 . S
C1741 C1740 1.363 . S
C1741 C1747 1.363 . S
C1742 C1743 1.363 . S
C1742 C1747 1.379 . S
C1742 N1749 1.356 . S
C1743 C1742 1.363 . S
C1743 C1746 1.363 . S
N1744 C1746 1.356 . S
N1744 H1756 0.984 . S
N1744 H1757 0.985 . S
N1745 C1747 1.356 . S
N1745 H1750 0.984 . S
N1745 H1751 0.985 . S
C1746 C1740 1.379 . S
C1746 C1743 1.363 . S
C1746 N1744 1.356 . S
C1747 C1741 1.363 . S
C1747 C1742 1.379 . S
C1747 N1745 1.356 . S
N1748 C1740 1.356 . S
N1748 H1754 0.984 . S
N1748 H1755 0.984 . S
N1749 C1742 1.356 . S
N1749 H1752 0.984 . S
N1749 H1753 0.985 . S
H1750 N1745 0.984 . S
H1751 N1745 0.985 . S
H1752 N1749 0.984 . S
H1753 N1749 0.985 . S
H1754 N1748 0.984 . S
H1755 N1748 0.984 . S
H1756 N1744 0.984 . S
H1757 N1744 0.985 . S
C1758 C1759 1.363 . S
C1758 C1764 1.379 . S
C1758 N1766 1.356 . S
C1759 C1758 1.363 . S
C1759 C1765 1.363 . S
C1760 C1761 1.363 . S
C1760 C1765 1.379 . S
C1760 N1767 1.356 . S
C1761 C1760 1.363 . S
C1761 C1764 1.363 . S
N1762 C1764 1.356 . S
N1762 H1774 0.984 . S
N1762 H1775 0.985 . S
N1763 C1765 1.356 . S
N1763 H1768 0.984 . S
N1763 H1769 0.985 . S
C1764 C1758 1.379 . S
C1764 C1761 1.363 . S
C1764 N1762 1.356 . S
C1765 C1759 1.363 . S
C1765 C1760 1.379 . S
C1765 N1763 1.356 . S
N1766 C1758 1.356 . S
N1766 H1772 0.984 . S
N1766 H1773 0.984 . S
N1767 C1760 1.356 . S
N1767 H1770 0.984 . S
N1767 H1771 0.985 . S
H1768 N1763 0.984 . S
H1769 N1763 0.985 . S
H1770 N1767 0.984 . S
H1771 N1767 0.985 . S
H1772 N1766 0.984 . S
H1773 N1766 0.984 . S
H1774 N1762 0.984 . S
H1775 N1762 0.985 . S
C481 C13 2.792 . S
C483 C328 2.611 . S
C499 C33 2.792 . S
C501 C477 2.612 . S
C517 C428 2.612 . S
C519 C53 2.792 . S
C535 C73 2.792 . S
C537 C448 2.612 . S
C553 C93 2.792 . S
C555 C348 2.612 . S
C571 C113 2.792 . S
C573 C368 2.612 . S
C589 C133 2.792 . S
C591 C388 2.612 . S
C607 C153 2.792 . S
C609 C417 2.612 . S
C625 C173 2.792 . S
C627 C8 2.611 . S
C643 C193 2.792 . S
C645 C28 2.612 . S
C661 C48 2.612 . S
C663 C213 2.792 . S
C679 C68 2.612 . S
C681 C233 2.792 . S
C697 C253 2.792 . S
C699 C88 2.612 . S
C715 C262 2.792 . S
C717 C108 2.612 . S
C733 C293 2.792 . S
C735 C128 2.612 . S
C751 C313 2.792 . S
C753 C148 2.612 . S
C769 C333 2.792 . S
C771 C168 2.611 . S
C787 C353 2.792 . S
C789 C248 2.612 . S
C805 C277 2.612 . S
C807 C373 2.792 . S
C823 C393 2.792 . S
C825 C288 2.612 . S
C841 C402 2.792 . S
C843 C308 2.612 . S
C859 C433 2.792 . S
C861 C208 2.612 . S
C877 C228 2.612 . S
C879 C453 2.792 . S
C895 C462 2.792 . S
C897 C188 2.612 . S
C913 C437 1.529 . S
C915 C94 1.476 . S
C931 C457 1.529 . S
C933 C114 1.476 . S
C949 C134 1.476 . S
C951 C337 1.529 . S
C967 C154 1.476 . S
C969 C468 1.529 . S
C985 C397 1.529 . S
C987 C14 1.476 . S
C1003 C34 1.476 . S
C1005 C408 1.529 . S
C1021 C357 1.529 . S
C1023 C54 1.476 . S
C1039 C74 1.476 . S
C1041 C377 1.529 . S
C1057 C294 1.476 . S
C1059 C97 1.529 . S
C1075 C314 1.476 . S
C1077 C117 1.529 . S
C1093 C254 1.476 . S
C1095 C137 1.529 . S
C1111 C157 1.529 . S
C1113 C265 1.476 . S
C1129 C214 1.476 . S
C1131 C17 1.529 . S
C1147 C234 1.476 . S
C1149 C37 1.529 . S
C1165 C174 1.476 . S
C1167 C57 1.529 . S
C1183 C194 1.476 . S
C1185 C77 1.529 . S
C1201 C297 1.529 . S
C1203 C434 1.476 . S
C1219 C394 1.476 . S
C1221 C217 1.529 . S
C1237 C237 1.529 . S
C1239 C405 1.476 . S
C1255 C354 1.476 . S
C1257 C177 1.529 . S
C1273 C374 1.476 . S
C1275 C197 1.529 . S
C1291 C334 1.476 . S
C1293 C257 1.529 . S
C1309 C465 1.476 . S
C1311 C268 1.529 . S
C1327 C317 1.529 . S
C1329 C454 1.476 . S
C1345 C414 0.855 . S
C1347 C5 0.855 . S
C1363 C345 0.855 . S
C1365 C25 0.855 . S
C1381 C45 0.855 . S
C1383 C365 0.855 . S
C1399 C65 0.855 . S
C1401 C385 0.855 . S
C1417 C474 0.855 . S
C1419 C85 0.855 . S
C1435 C105 0.855 . S
C1437 C425 0.855 . S
C1453 C445 0.855 . S
C1455 C125 0.855 . S
C1471 C145 0.855 . S
C1473 C325 0.855 . S
C1489 C165 0.855 . S
C1491 C305 0.855 . S
C1507 C245 0.855 . S
C1509 C185 0.855 . S
C1525 C205 0.855 . S
C1527 C274 0.855 . S
C1543 C285 0.855 . S
C1545 C225 0.855 . S
C1561 C362 3.347 . S
C1563 C82 3.347 . S
C1579 C382 3.347 . S
C1581 C102 3.347 . S
C1597 C122 3.347 . S
C1599 C413 3.347 . S
C1615 C142 3.347 . S
C1617 C342 3.347 . S
C1633 C442 3.347 . S
C1635 C2 3.347 . S
C1651 C322 3.347 . S
C1653 C22 3.347 . S
C1669 C473 3.347 . S
C1671 C42 3.347 . S
C1687 C62 3.347 . S
C1689 C422 3.347 . S
C1705 C182 3.347 . S
C1707 C282 3.347 . S
C1723 C302 3.347 . S
C1725 C202 3.347 . S
C1741 C242 3.347 . S
C1743 C222 3.347 . S
C1759 C273 3.347 . S
C1761 C162 3.347 . S
