# Generated by pormake.
# Topology whw, (6)-cn, num edge types: 1
# Building blocks:
#     Node 0, Type 0, BuildingBlock: CIFDUS_clean_sbu_1, # of connection points: 6
#     Node 1, Type 0, BuildingBlock: CIFDUS_clean_sbu_1, # of connection points: 6
#     Node 2, Type 0, BuildingBlock: CIFDUS_clean_sbu_1, # of connection points: 6
#     Node 3, Type 0, BuildingBlock: CIFDUS_clean_sbu_1, # of connection points: 6
#     Node 4, Type 0, BuildingBlock: CIFDUS_clean_sbu_1, # of connection points: 6
#     Node 5, Type 0, BuildingBlock: CIFDUS_clean_sbu_1, # of connection points: 6
#     Node 6, Type 0, BuildingBlock: CIFDUS_clean_sbu_1, # of connection points: 6
#     Node 7, Type 0, BuildingBlock: CIFDUS_clean_sbu_1, # of connection points: 6
#     Node 8, Type 0, BuildingBlock: CIFDUS_clean_sbu_1, # of connection points: 6
#     Node 9, Type 0, BuildingBlock: CIFDUS_clean_sbu_1, # of connection points: 6
#     Node 10, Type 0, BuildingBlock: CIFDUS_clean_sbu_1, # of connection points: 6
#     Node 11, Type 0, BuildingBlock: CIFDUS_clean_sbu_1, # of connection points: 6
#     Node 12, Type 0, BuildingBlock: CIFDUS_clean_sbu_1, # of connection points: 6
#     Node 13, Type 0, BuildingBlock: CIFDUS_clean_sbu_1, # of connection points: 6
#     Node 14, Type 0, BuildingBlock: CIFDUS_clean_sbu_1, # of connection points: 6
#     Node 15, Type 0, BuildingBlock: CIFDUS_clean_sbu_1, # of connection points: 6
#     Edge 16, Type (0, 0), BuildingBlock: AJUNOK_clean_linker_0, # of connection points: 2
#     Edge 17, Type (0, 0), BuildingBlock: AJUNOK_clean_linker_0, # of connection points: 2
#     Edge 18, Type (0, 0), BuildingBlock: AJUNOK_clean_linker_0, # of connection points: 2
#     Edge 19, Type (0, 0), BuildingBlock: AJUNOK_clean_linker_0, # of connection points: 2
#     Edge 20, Type (0, 0), BuildingBlock: AJUNOK_clean_linker_0, # of connection points: 2
#     Edge 21, Type (0, 0), BuildingBlock: AJUNOK_clean_linker_0, # of connection points: 2
#     Edge 22, Type (0, 0), BuildingBlock: AJUNOK_clean_linker_0, # of connection points: 2
#     Edge 23, Type (0, 0), BuildingBlock: AJUNOK_clean_linker_0, # of connection points: 2
#     Edge 24, Type (0, 0), BuildingBlock: AJUNOK_clean_linker_0, # of connection points: 2
#     Edge 25, Type (0, 0), BuildingBlock: AJUNOK_clean_linker_0, # of connection points: 2
#     Edge 26, Type (0, 0), BuildingBlock: AJUNOK_clean_linker_0, # of connection points: 2
#     Edge 27, Type (0, 0), BuildingBlock: AJUNOK_clean_linker_0, # of connection points: 2
#     Edge 28, Type (0, 0), BuildingBlock: AJUNOK_clean_linker_0, # of connection points: 2
#     Edge 29, Type (0, 0), BuildingBlock: AJUNOK_clean_linker_0, # of connection points: 2
#     Edge 30, Type (0, 0), BuildingBlock: AJUNOK_clean_linker_0, # of connection points: 2
#     Edge 31, Type (0, 0), BuildingBlock: AJUNOK_clean_linker_0, # of connection points: 2
#     Edge 32, Type (0, 0), BuildingBlock: AJUNOK_clean_linker_0, # of connection points: 2
#     Edge 33, Type (0, 0), BuildingBlock: AJUNOK_clean_linker_0, # of connection points: 2
#     Edge 34, Type (0, 0), BuildingBlock: AJUNOK_clean_linker_0, # of connection points: 2
#     Edge 35, Type (0, 0), BuildingBlock: AJUNOK_clean_linker_0, # of connection points: 2
#     Edge 36, Type (0, 0), BuildingBlock: AJUNOK_clean_linker_0, # of connection points: 2
#     Edge 37, Type (0, 0), BuildingBlock: AJUNOK_clean_linker_0, # of connection points: 2
#     Edge 38, Type (0, 0), BuildingBlock: AJUNOK_clean_linker_0, # of connection points: 2
#     Edge 39, Type (0, 0), BuildingBlock: AJUNOK_clean_linker_0, # of connection points: 2
#     Edge 40, Type (0, 0), BuildingBlock: AJUNOK_clean_linker_0, # of connection points: 2
#     Edge 41, Type (0, 0), BuildingBlock: AJUNOK_clean_linker_0, # of connection points: 2
#     Edge 42, Type (0, 0), BuildingBlock: AJUNOK_clean_linker_0, # of connection points: 2
#     Edge 43, Type (0, 0), BuildingBlock: AJUNOK_clean_linker_0, # of connection points: 2
#     Edge 44, Type (0, 0), BuildingBlock: AJUNOK_clean_linker_0, # of connection points: 2
#     Edge 45, Type (0, 0), BuildingBlock: AJUNOK_clean_linker_0, # of connection points: 2
#     Edge 46, Type (0, 0), BuildingBlock: AJUNOK_clean_linker_0, # of connection points: 2
#     Edge 47, Type (0, 0), BuildingBlock: AJUNOK_clean_linker_0, # of connection points: 2
#     Edge 48, Type (0, 0), BuildingBlock: AJUNOK_clean_linker_0, # of connection points: 2
#     Edge 49, Type (0, 0), BuildingBlock: AJUNOK_clean_linker_0, # of connection points: 2
#     Edge 50, Type (0, 0), BuildingBlock: AJUNOK_clean_linker_0, # of connection points: 2
#     Edge 51, Type (0, 0), BuildingBlock: AJUNOK_clean_linker_0, # of connection points: 2
#     Edge 52, Type (0, 0), BuildingBlock: AJUNOK_clean_linker_0, # of connection points: 2
#     Edge 53, Type (0, 0), BuildingBlock: AJUNOK_clean_linker_0, # of connection points: 2
#     Edge 54, Type (0, 0), BuildingBlock: AJUNOK_clean_linker_0, # of connection points: 2
#     Edge 55, Type (0, 0), BuildingBlock: AJUNOK_clean_linker_0, # of connection points: 2
#     Edge 56, Type (0, 0), BuildingBlock: AJUNOK_clean_linker_0, # of connection points: 2
#     Edge 57, Type (0, 0), BuildingBlock: AJUNOK_clean_linker_0, # of connection points: 2
#     Edge 58, Type (0, 0), BuildingBlock: AJUNOK_clean_linker_0, # of connection points: 2
#     Edge 59, Type (0, 0), BuildingBlock: AJUNOK_clean_linker_0, # of connection points: 2
#     Edge 60, Type (0, 0), BuildingBlock: AJUNOK_clean_linker_0, # of connection points: 2
#     Edge 61, Type (0, 0), BuildingBlock: AJUNOK_clean_linker_0, # of connection points: 2
#     Edge 62, Type (0, 0), BuildingBlock: AJUNOK_clean_linker_0, # of connection points: 2
#     Edge 63, Type (0, 0), BuildingBlock: AJUNOK_clean_linker_0, # of connection points: 2
# Relax obj value: 0.548
# Max RMSD: 0.240
# Mean RMSD: 0.240
data_MOF--net-whw--node1-CIFDUS_clean_sbu_1--edge1-AJUNOK_clean_linker_0
_symmetry_space_group_name_H-M    P1
_symmetry_Int_Tables_number       1
_symmetry_cell_setting            triclinic
loop_
_symmetry_equiv_pos_as_xyz
'x, y, z'
_cell_length_a     37.709274
_cell_length_b     37.62451
_cell_length_c     17.726268
_cell_angle_alpha  90.212942
_cell_angle_beta   90.147316
_cell_angle_gamma 89.943559
loop_
_atom_site_label
_atom_site_type_symbol
_atom_site_fract_x
_atom_site_fract_y
_atom_site_fract_z
_atom_type_partial_charge
O0 O 0.0588 0.12156 0.07174 0.0
Mn1 Mn 0.01642 0.13288 0.14674 0.0
O2 O 0.0495 0.16151 0.98103 0.0
Mn3 Mn 0.02554 0.19469 0.03882 0.0
O4 O 0.97458 0.14598 0.22397 0.0
O5 O 0.00801 0.07904 0.16019 0.0
Mn6 Mn 0.00286 0.07365 0.25967 0.0
O7 O 0.0536 0.13267 0.23358 0.0
O8 O 0.96271 0.09738 0.29144 0.0
O9 O 0.97807 0.13611 0.05611 0.0
O10 O 0.97759 0.19386 0.02425 0.0
O11 O -0.00151 0.02905 0.22171 0.0
O12 O 0.04413 0.08657 0.30987 0.0
C13 C 0.05149 0.20848 0.14391 0.0
C14 C 0.06618 0.13498 1.00697 0.0
C15 C 0.95609 0.12946 0.27441 0.0
C16 C 0.00349 0.04451 0.15739 0.0
C17 C 0.06179 0.11391 0.29121 0.0
C18 C 0.96343 0.1632 1.02264 0.0
O19 O 0.0262 0.18535 0.1369 0.0
O20 O 0.05644 0.22625 0.08242 0.0
O21 O 0.1297 0.80138 0.49989 0.0
Mn22 Mn 0.12248 0.76371 0.41523 0.0
O23 O 0.17878 0.789 0.56576 0.0
Mn24 Mn 0.18699 0.74739 0.51265 0.0
O25 O 0.11001 0.72788 0.32587 0.0
O26 O 0.07028 0.77321 0.42269 0.0
Mn27 Mn 0.05509 0.79309 0.34025 0.0
O28 O 0.13059 0.80403 0.33175 0.0
O29 O 0.06508 0.75805 0.26809 0.0
O30 O 0.11392 0.72518 0.49841 0.0
O31 O 0.16458 0.70829 0.5527 0.0
O32 O 0.01583 0.78796 0.40105 0.0
O33 O 0.08037 0.83469 0.33572 0.0
C34 C 0.21038 0.74741 0.40582 0.0
C35 C 0.15159 0.80808 0.55346 0.0
C36 C 0.08671 0.73172 0.27203 0.0
C37 C 0.03787 0.77193 0.44546 0.0
C38 C 0.11232 0.83203 0.31473 0.0
C39 C 0.13132 0.70572 0.5451 0.0
O40 O 0.17633 0.75329 0.41461 0.0
O41 O 0.22885 0.74134 0.46627 0.0
O42 O 0.45134 0.88138 0.56285 0.0
Mn43 Mn 0.49231 0.87161 0.64374 0.0
O44 O 0.46421 0.84125 0.47287 0.0
Mn45 Mn 0.48829 0.8088 0.5317 0.0
O46 O 0.53275 0.8603 0.72645 0.0
O47 O 0.49876 0.92379 0.66338 0.0
Mn48 Mn 0.50106 0.93259 0.76156 0.0
O49 O 0.4536 0.8696 0.72825 0.0
O50 O 0.54058 0.90902 0.799 0.0
O51 O 0.53224 0.87119 0.55663 0.0
O52 O 0.53664 0.81334 0.5254 0.0
O53 O 0.50392 0.97619 0.71467 0.0
O54 O 0.45896 0.91717 0.80414 0.0
C55 C 0.45999 0.79692 0.63534 0.0
C56 C 0.44575 0.86698 0.49746 0.0
C57 C 0.54862 0.87714 0.78127 0.0
C58 C 0.50126 0.95759 0.65334 0.0
C59 C 0.44384 0.88815 0.78566 0.0
C60 C 0.54894 0.84488 0.52437 0.0
O61 O 0.48473 0.82009 0.62798 0.0
O62 O 0.45726 0.77703 0.57587 0.0
O63 O 0.36949 0.1997 0.82569 0.0
Mn64 Mn 0.37456 0.24198 0.90749 0.0
O65 O 0.41219 0.21214 0.74209 0.0
Mn66 Mn 0.43995 0.2402 0.80333 0.0
O67 O 0.38091 0.28234 0.99214 0.0
O68 O 0.32164 0.24384 0.92297 0.0
Mn69 Mn 0.31231 0.24214 1.02136 0.0
O70 O 0.37954 0.20358 0.99234 0.0
O71 O 0.33306 0.28116 0.06806 0.0
O72 O 0.37392 0.28178 0.81876 0.0
O73 O 0.43193 0.28777 0.78924 0.0
O74 O 0.26892 0.24436 0.97414 0.0
O75 O 0.32967 0.19994 0.05998 0.0
C76 C 0.45082 0.21818 0.91542 0.0
C77 C 0.38625 0.1934 0.76322 0.0
C78 C 0.36365 0.29311 0.05133 0.0
C79 C 0.2877 0.24508 0.9131 0.0
C80 C 0.36112 0.1898 0.04557 0.0
C81 C 0.39991 0.29864 0.78547 0.0
O82 O 0.42624 0.24009 0.89849 0.0
O83 O 0.47142 0.21282 0.85847 0.0
O84 O 0.06265 0.87977 0.98545 0.0
Mn85 Mn 0.02398 0.86712 0.90267 0.0
O86 O 0.04971 0.83964 0.07373 0.0
Mn87 Mn 0.03013 0.80558 1.01155 0.0
O88 O 0.98583 0.85241 0.81758 0.0
O89 O 0.01367 0.92035 0.88858 0.0
Mn90 Mn 0.01274 0.92535 0.78837 0.0
O91 O 0.06422 0.86873 0.82229 0.0
O92 O 0.97637 0.89997 0.74478 0.0
O93 O 0.98314 0.86345 0.98712 0.0
O94 O 0.9817 0.80538 1.01448 0.0
O95 O 0.00362 0.96926 0.82324 0.0
O96 O 0.05687 0.91606 0.74843 0.0
C97 C 0.06145 0.79264 0.91272 0.0
C98 C 0.06718 0.86627 0.05137 0.0
C99 C 0.97023 0.8678 0.76116 0.0
C100 C 0.00742 0.95461 0.88884 0.0
C101 C 0.07437 0.88882 0.76824 0.0
C102 C 0.9676 0.83609 1.0171 0.0
O103 O 0.03514 0.81489 0.91414 0.0
O104 O 0.06466 0.77577 0.97581 0.0
O105 O 0.37005 0.79951 0.22434 0.0
Mn106 Mn 0.37921 0.75804 0.14068 0.0
O107 O 0.42249 0.82556 0.23173 0.0
Mn108 Mn 0.44319 0.7818 0.23433 0.0
O109 O 0.38846 0.71758 0.05887 0.0
O110 O 0.32554 0.75179 0.12676 0.0
Mn111 Mn 0.31955 0.74669 0.02661 0.0
O112 O 0.3801 0.79607 0.05562 0.0
O113 O 0.33954 0.70472 0.99305 0.0
O114 O 0.38374 0.72093 0.22995 0.0
O115 O 0.42629 0.74777 0.30159 0.0
O116 O 0.27523 0.74493 0.06418 0.0
O117 O 0.33515 0.78679 0.97557 0.0
C118 C 0.46536 0.76242 0.13334 0.0
C119 C 0.38982 0.82591 0.24618 0.0
C120 C 0.37176 0.69883 1.00866 0.0
C121 C 0.29107 0.74834 0.1288 0.0
C122 C 0.36265 0.80395 0.99583 0.0
C123 C 0.40393 0.72271 0.2895 0.0
O124 O 0.43191 0.76368 0.14723 0.0
O125 O 0.48552 0.77512 0.18608 0.0
O126 O 0.45849 0.11735 0.48637 0.0
Mn127 Mn 0.49833 0.12668 0.39858 0.0
O128 O 0.44192 0.17199 0.52542 0.0
Mn129 Mn 0.48533 0.19079 0.50837 0.0
O130 O 0.53651 0.13898 0.31174 0.0
O131 O 0.50373 0.07372 0.37764 0.0
Mn132 Mn 0.50824 0.06795 0.27842 0.0
O133 O 0.45829 0.12972 0.31673 0.0
O134 O 0.54913 0.08993 0.24503 0.0
O135 O 0.53902 0.12634 0.48131 0.0
O136 O 0.5238 0.17159 0.5602 0.0
O137 O 0.51046 0.02304 0.31727 0.0
O138 O 0.46729 0.08539 0.23325 0.0
C139 C 0.49701 0.21041 0.39896 0.0
C140 C 0.43713 0.13872 0.52327 0.0
C141 C 0.55422 0.12262 0.25916 0.0
C142 C 0.50625 0.03932 0.38115 0.0
C143 C 0.45026 0.11275 0.25583 0.0
C144 C 0.54414 0.14589 0.54072 0.0
O145 O 0.49291 0.17789 0.41595 0.0
O146 O 0.4906 0.23214 0.45395 0.0
O147 O 0.12395 0.20097 0.56374 0.0
Mn148 Mn 0.12086 0.23863 0.64993 0.0
O149 O 0.16986 0.21339 0.48837 0.0
Mn150 Mn 0.17972 0.25649 0.53518 0.0
O151 O 0.11443 0.27712 0.73852 0.0
O152 O 0.07088 0.22453 0.66135 0.0
Mn153 Mn 0.05619 0.22333 0.75473 0.0
O154 O 0.13519 0.19904 0.73006 0.0
O155 O 0.0567 0.27152 0.77128 0.0
O156 O 0.10445 0.27808 0.57032 0.0
O157 O 0.15162 0.29314 0.50017 0.0
O158 O 0.02698 0.19393 0.6972 0.0
O159 O 0.08918 0.19919 0.81127 0.0
C160 C 0.20608 0.25801 0.64126 0.0
C161 C 0.1432 0.19437 0.50576 0.0
C162 C 0.08597 0.28858 0.77227 0.0
C163 C 0.04845 0.20061 0.64222 0.0
C164 C 0.11971 0.18854 0.79115 0.0
C165 C 0.11904 0.29656 0.5173 0.0
O166 O 0.17251 0.25144 0.63358 0.0
O167 O 0.22289 0.26506 0.57949 0.0
O168 O 0.87442 0.29875 0.72568 0.0
Mn169 Mn 0.88064 0.26083 0.63426 0.0
O170 O 0.92809 0.32269 0.73425 0.0
Mn171 Mn 0.94823 0.27873 0.72361 0.0
O172 O 0.88774 0.2245 0.54375 0.0
O173 O 0.82731 0.25589 0.62328 0.0
Mn174 Mn 0.81635 0.25896 0.52501 0.0
O175 O 0.87948 0.30182 0.55845 0.0
O176 O 0.83863 0.22261 0.4719 0.0
O177 O 0.88518 0.22063 0.71621 0.0
O178 O 0.93149 0.2422 0.78538 0.0
O179 O 0.77406 0.2523 0.57339 0.0
O180 O 0.82948 0.30363 0.49081 0.0
C181 C 0.96623 0.2613 0.61569 0.0
C182 C 0.89561 0.32319 0.75159 0.0
C183 C 0.87028 0.21291 0.48598 0.0
C184 C 0.79348 0.25269 0.63376 0.0
C185 C 0.85983 0.31596 0.50796 0.0
C186 C 0.90673 0.21943 0.77334 0.0
O187 O 0.93355 0.26493 0.63537 0.0
O188 O 0.98847 0.27197 0.66657 0.0
O189 O 0.62939 0.70097 0.0615 0.0
Mn190 Mn 0.62943 0.74081 0.14402 0.0
O191 O 0.67768 0.70527 0.98924 0.0
Mn192 Mn 0.68909 0.7494 0.0286 0.0
O193 O 0.62575 0.78116 0.23028 0.0
O194 O 0.57861 0.73203 0.15409 0.0
Mn195 Mn 0.56258 0.73288 0.24648 0.0
O196 O 0.63901 0.70064 0.22835 0.0
O197 O 0.56773 0.78097 0.263 0.0
O198 O 0.61678 0.7797 0.0591 0.0
O199 O 0.66387 0.78568 0.98309 0.0
O200 O 0.5318 0.7059 0.18758 0.0
O201 O 0.59139 0.70505 0.30501 0.0
C202 C 0.71641 0.75521 0.13253 0.0
C203 C 0.64901 0.68981 1.00736 0.0
C204 C 0.59845 0.79528 0.26417 0.0
C205 C 0.55449 0.71024 0.13372 0.0
C206 C 0.62069 0.69084 0.28688 0.0
C207 C 0.63207 0.79333 1.00042 0.0
O208 O 0.68236 0.74957 0.12847 0.0
O209 O 0.73283 0.75761 0.06857 0.0
O210 O 0.62218 0.29472 0.97945 0.0
Mn211 Mn 0.62943 0.25626 0.89411 0.0
O212 O 0.66774 0.29031 0.06115 0.0
Mn213 Mn 0.68882 0.25081 1.01629 0.0
O214 O 0.63332 0.21654 0.80817 0.0
O215 O 0.57853 0.25775 0.87502 0.0
Mn216 Mn 0.56544 0.26515 0.78272 0.0
O217 O 0.63715 0.29813 0.81049 0.0
O218 O 0.58617 0.2279 0.73146 0.0
O219 O 0.62004 0.21645 0.97753 0.0
O220 O 0.669 0.20819 0.04802 0.0
O221 O 0.52436 0.25879 0.83741 0.0
O222 O 0.58245 0.3093 0.7638 0.0
C223 C 0.71538 0.25429 0.90996 0.0
C224 C 0.63822 0.30398 0.04084 0.0
C225 C 0.61358 0.20983 0.74954 0.0
C226 C 0.54622 0.25377 0.89266 0.0
C227 C 0.61492 0.31732 0.77096 0.0
C228 C 0.63716 0.20025 0.03103 0.0
O229 O 0.68145 0.25434 0.91783 0.0
O230 O 0.73319 0.25253 0.97233 0.0
O231 O 0.87295 0.69579 0.31303 0.0
Mn232 Mn 0.88526 0.73334 0.4004 0.0
O233 O 0.92516 0.68756 0.25187 0.0
Mn234 Mn 0.95347 0.71861 0.30419 0.0
O235 O 0.89963 0.77087 0.48539 0.0
O236 O 0.83322 0.74653 0.41307 0.0
Mn237 Mn 0.82466 0.74672 0.51219 0.0
O238 O 0.88076 0.69365 0.48125 0.0
O239 O 0.85257 0.78047 0.5602 0.0
O240 O 0.89262 0.77275 0.31592 0.0
O241 O 0.94933 0.76589 0.27689 0.0
O242 O 0.78232 0.75798 0.46845 0.0
O243 O 0.83171 0.70145 0.5496 0.0
C244 C 0.9633 0.70344 0.42028 0.0
C245 C 0.89247 0.68054 0.26183 0.0
C246 C 0.88489 0.78581 0.54322 0.0
C247 C 0.79975 0.7542 0.40599 0.0
C248 C 0.85947 0.68388 0.53339 0.0
C249 C 0.92008 0.78303 0.27788 0.0
O250 O 0.93548 0.71868 0.39416 0.0
O251 O 0.98704 0.69904 0.36856 0.0
O252 O 0.55865 0.62108 0.56921 0.0
Mn253 Mn 0.5185 0.63065 0.65544 0.0
O254 O 0.5845 0.67399 0.55611 0.0
Mn255 Mn 0.54188 0.69647 0.56289 0.0
O256 O 0.47908 0.64069 0.74011 0.0
O257 O 0.51022 0.57726 0.6654 0.0
Mn258 Mn 0.50627 0.56827 0.76394 0.0
O259 O 0.55728 0.62861 0.73929 0.0
O260 O 0.46582 0.59011 0.8004 0.0
O261 O 0.48044 0.63715 0.56944 0.0
O262 O 0.50464 0.68173 0.49995 0.0
O263 O 0.5026 0.52497 0.71864 0.0
O264 O 0.54766 0.58162 0.81353 0.0
C265 C 0.52411 0.71539 0.66912 0.0
C266 C 0.58436 0.64088 0.544 0.0
C267 C 0.46056 0.62297 0.78893 0.0
C268 C 0.50583 0.54315 0.65709 0.0
C269 C 0.56516 0.60936 0.79655 0.0
C270 C 0.4803 0.65865 0.51247 0.0
O271 O 0.52728 0.68265 0.65047 0.0
O272 O 0.53657 0.73723 0.6197 0.0
O273 O 0.94846 0.37904 0.0705 0.0
Mn274 Mn 0.98718 0.3743 0.15984 0.0
O275 O 0.92468 0.32467 0.06522 0.0
Mn276 Mn 0.96797 0.30318 0.07908 0.0
O277 O 0.02505 0.36691 0.24677 0.0
O278 O 0.9941 0.42869 0.16502 0.0
Mn279 Mn 0.98971 0.43738 0.26483 0.0
O280 O 0.94661 0.37669 0.23767 0.0
O281 O 0.02388 0.41423 0.3231 0.0
O282 O 0.02578 0.36729 0.07585 0.0
O283 O 0.00449 0.31821 1.01485 0.0
O284 O -0.00136 0.4805 0.22591 0.0
O285 O 0.94381 0.42886 0.29572 0.0
C286 C 0.98707 0.2913 0.19153 0.0
C287 C 0.92429 0.35714 0.046 0.0
C288 C 0.03521 0.38329 0.30695 0.0
C289 C -0.00147 0.46325 0.16242 0.0
C290 C 0.9312 0.39834 0.2826 0.0
C291 C 0.02669 0.34395 1.0219 0.0
O292 O 0.98114 0.32211 0.16372 0.0
O293 O 0.97645 0.26627 0.14679 0.0
O294 O 0.5494 0.38282 0.47904 0.0
Mn295 Mn 0.50673 0.3727 0.40159 0.0
O296 O 0.53657 0.34534 0.5727 0.0
Mn297 Mn 0.51385 0.31131 0.51494 0.0
O298 O 0.46469 0.36031 0.32244 0.0
O299 O 0.50038 0.42553 0.38123 0.0
Mn300 Mn 0.49611 0.43063 0.28161 0.0
O301 O 0.54422 0.36927 0.31429 0.0
O302 O 0.45527 0.40824 0.24995 0.0
O303 O 0.46753 0.3721 0.49156 0.0
O304 O 0.46554 0.31419 0.52399 0.0
O305 O 0.49345 0.47565 0.31966 0.0
O306 O 0.53643 0.41397 0.23292 0.0
C307 C 0.54121 0.30036 0.40928 0.0
C308 C 0.55526 0.37016 0.54576 0.0
C309 C 0.44755 0.37667 0.26898 0.0
C310 C 0.49711 0.45993 0.38416 0.0
C311 C 0.55247 0.38585 0.25354 0.0
C312 C 0.45186 0.34521 0.52428 0.0
O313 O 0.51488 0.32161 0.41761 0.0
O314 O 0.54656 0.28152 0.46908 0.0
O315 O 0.94459 0.62675 0.96475 0.0
Mn316 Mn 0.98624 0.63339 0.88317 0.0
O317 O 0.91709 0.67934 0.96293 0.0
Mn318 Mn 0.95942 0.70343 0.95817 0.0
O319 O 0.02632 0.64233 0.80312 0.0
O320 O 0.99686 0.57948 0.88248 0.0
Mn321 Mn 0.0011 0.57014 0.78292 0.0
O322 O 0.94896 0.62762 0.79787 0.0
O323 O 0.04021 0.59233 0.7423 0.0
O324 O 0.02134 0.64373 0.97322 0.0
O325 O 0.99413 0.69098 0.02972 0.0
O326 O 0.00783 0.52766 0.82592 0.0
O327 O 0.95915 0.57834 0.73129 0.0
C328 C 0.98494 0.71626 0.85293 0.0
C329 C 0.918 0.64701 0.98323 0.0
C330 C 0.04506 0.62511 0.75482 0.0
C331 C 0.00345 0.54533 0.88818 0.0
C332 C 0.94078 0.60584 0.74515 0.0
C333 C 0.01886 0.66746 0.02627 0.0
O334 O 0.97706 0.68515 0.87674 0.0
O335 O 0.97028 0.74083 0.89333 0.0
C336 C 0.09624 0.11207 0.89322 0.0
C337 C 0.0995 0.12708 0.96576 0.0
C338 C 0.11355 0.12733 0.83078 0.0
C339 C 0.133 0.15915 0.83879 0.0
H340 H 0.07609 0.09231 0.88238 0.0
H341 H 0.10533 0.11873 0.77498 0.0
S342 S 0.16326 0.19733 1.02043 0.0
N343 N 0.13511 0.16581 0.04487 0.0
N344 N 0.16542 0.19606 0.92735 0.0
C345 C 0.14354 0.16826 0.91242 0.0
C346 C 0.12701 0.15187 0.97616 0.0
C347 C 0.13412 0.83745 0.18262 0.0
C348 C 0.12097 0.8543 0.24777 0.0
C349 C 0.12281 0.84832 0.11044 0.0
C350 C 0.09721 0.87548 0.10157 0.0
H351 H 0.14852 0.81261 0.1873 0.0
H352 H 0.12892 0.83106 0.06309 0.0
S353 S 0.0671 0.93687 0.25153 0.0
N354 N 0.09141 0.90708 0.29641 0.0
N355 N 0.06852 0.92568 0.16136 0.0
C356 C 0.09032 0.89698 0.16445 0.0
C357 C 0.10261 0.8867 0.23765 0.0
C358 C 0.40041 0.88178 0.3171 0.0
C359 C 0.38161 0.84922 0.31255 0.0
C360 C 0.41673 0.89304 0.38487 0.0
C361 C 0.41325 0.87325 0.45153 0.0
H362 H 0.40809 0.89508 0.26553 0.0
H363 H 0.43626 0.91411 0.38215 0.0
S364 S 0.35551 0.79446 0.47636 0.0
N365 N 0.35271 0.80321 0.38529 0.0
N366 N 0.38111 0.82571 0.51299 0.0
C367 C 0.38791 0.84564 0.4509 0.0
C368 C 0.37238 0.83336 0.38139 0.0
C369 C 0.36468 0.16278 0.64707 0.0
C370 C 0.38227 0.16028 0.71703 0.0
C371 C 0.3783 0.14601 0.58158 0.0
C372 C 0.41119 0.12772 0.58239 0.0
H373 H 0.34342 0.18192 0.64036 0.0
H374 H 0.36667 0.15329 0.52782 0.0
S375 S 0.46203 0.10533 0.75481 0.0
N376 N 0.42895 0.13011 0.786 0.0
N377 N 0.4558 0.10123 0.66295 0.0
C378 C 0.42506 0.11964 0.65404 0.0
C379 C 0.41046 0.13558 0.72113 0.0
C380 C 0.90168 0.80065 0.1497 0.0
C381 C 0.91721 0.81067 0.21883 0.0
C382 C 0.91346 0.81511 0.0811 0.0
C383 C 0.9415 0.83985 0.07907 0.0
H384 H 0.88395 0.77801 0.14747 0.0
H385 H 0.90425 0.80298 0.02909 0.0
S386 S 0.98601 0.87977 0.24548 0.0
N387 N 0.95792 0.85087 0.28175 0.0
N388 N 0.97988 0.87822 0.15321 0.0
C389 C 0.95337 0.85387 0.14835 0.0
C390 C 0.94152 0.83897 0.21818 0.0
C391 C 0.93627 0.16637 0.82298 0.0
C392 C 0.9069 0.18934 0.82694 0.0
C393 C 0.95146 0.15189 0.88843 0.0
C394 C 0.93743 0.15898 0.96042 0.0
H395 H 0.95099 0.16412 0.77077 0.0
H396 H 0.97754 0.14033 0.88323 0.0
S397 S 0.85593 0.21065 0.99953 0.0
N398 N 0.86081 0.21363 0.9071 0.0
N399 N 0.88886 0.18547 0.02997 0.0
C400 C 0.90513 0.1776 0.96373 0.0
C401 C 0.8899 0.19289 0.89702 0.0
C402 C 0.5942 0.14963 0.71952 0.0
C403 C 0.61772 0.17757 0.70234 0.0
C404 C 0.57359 0.13328 0.66272 0.0
C405 C 0.57698 0.1432 0.58659 0.0
H406 H 0.58679 0.14506 0.77773 0.0
H407 H 0.55156 0.11668 0.67972 0.0
S408 S 0.64319 0.20598 0.51026 0.0
N409 N 0.64923 0.20785 0.60256 0.0
N410 N 0.61182 0.17608 0.49594 0.0
C411 C 0.60542 0.16559 0.56787 0.0
C412 C 0.62582 0.18277 0.62578 0.0
C413 C 0.60478 0.827 0.46088 0.0
C414 C 0.57549 0.85038 0.4636 0.0
C415 C 0.61801 0.81397 0.39168 0.0
C416 C 0.60206 0.8235 0.32276 0.0
H417 H 0.61419 0.81478 0.51247 0.0
H418 H 0.63695 0.7923 0.39315 0.0
S419 S 0.53074 0.89045 0.29834 0.0
N420 N 0.53623 0.88806 0.39066 0.0
N421 N 0.56031 0.8631 0.26127 0.0
C422 C 0.57678 0.85112 0.32455 0.0
C423 C 0.56371 0.86474 0.39489 0.0
C424 C 0.60258 0.63356 0.34112 0.0
C425 C 0.6294 0.65985 0.33595 0.0
C426 C 0.59149 0.61991 0.41148 0.0
C427 C 0.60777 0.6311 0.47897 0.0
H428 H 0.58572 0.62849 0.29262 0.0
H429 H 0.5667 0.60541 0.4136 0.0
S430 S 0.68811 0.68756 0.49284 0.0
N431 N 0.6776 0.68854 0.40235 0.0
N432 N 0.65938 0.66041 0.53266 0.0
C433 C 0.63994 0.65014 0.47168 0.0
C434 C 0.65007 0.66537 0.40072 0.0
C435 C 0.60414 0.37765 0.72443 0.0
C436 C 0.62493 0.34642 0.71814 0.0
C437 C 0.58555 0.39162 0.66172 0.0
C438 C 0.58864 0.37623 0.58945 0.0
H439 H 0.59638 0.38687 0.77999 0.0
H440 H 0.56474 0.41088 0.67222 0.0
S441 S 0.65146 0.30442 0.53768 0.0
N442 N 0.65576 0.308 0.63019 0.0
N443 N 0.6227 0.33533 0.51238 0.0
C444 C 0.6159 0.3509 0.5801 0.0
C445 C 0.63401 0.33603 0.64431 0.0
C446 C 0.91968 0.3818 0.91525 0.0
C447 C 0.90346 0.36386 0.97531 0.0
C448 C 0.91175 0.37275 0.83981 0.0
C449 C 0.88815 0.34462 0.8214 0.0
H450 H 0.94181 0.39947 0.92603 0.0
H451 H 0.92787 0.38456 0.79605 0.0
S452 S 0.82973 0.29892 0.95775 0.0
N453 N 0.85481 0.32497 1.01071 0.0
N454 N 0.84243 0.30568 0.8699 0.0
C455 C 0.86755 0.33104 0.88044 0.0
C456 C 0.87463 0.34129 0.95711 0.0
C457 C 0.90012 0.62668 0.18498 0.0
C458 C 0.87829 0.65612 0.20319 0.0
C459 C 0.90904 0.61877 0.10961 0.0
C460 C 0.89509 0.63908 0.05007 0.0
H461 H 0.91569 0.61421 0.22906 0.0
H462 H 0.93066 0.60042 0.09942 0.0
S463 S 0.8237 0.70683 0.06759 0.0
N464 N 0.83429 0.69722 0.15567 0.0
N465 N 0.84843 0.68067 1.01413 0.0
C466 C 0.86645 0.66209 0.06757 0.0
C467 C 0.8584 0.6709 0.14437 0.0
C468 C 0.4316 0.36625 0.65044 0.0
C469 C 0.42318 0.34931 0.58177 0.0
C470 C 0.41751 0.35405 0.71951 0.0
C471 C 0.39441 0.32447 0.72272 0.0
H472 H 0.45305 0.38538 0.65236 0.0
H473 H 0.42886 0.36442 0.77131 0.0
S474 S 0.35736 0.27689 0.55717 0.0
N475 N 0.38479 0.30628 0.52031 0.0
N476 N 0.35846 0.28369 0.64927 0.0
C477 C 0.38133 0.31151 0.65358 0.0
C478 C 0.39577 0.32377 0.58337 0.0
C479 C 0.42097 0.68233 0.47677 0.0
C480 C 0.4499 0.66008 0.45936 0.0
C481 C 0.40058 0.69834 0.41928 0.0
C482 C 0.40816 0.69245 0.34237 0.0
H483 H 0.41681 0.69087 0.53453 0.0
H484 H 0.38173 0.71876 0.43503 0.0
S485 S 0.47816 0.63264 0.26837 0.0
N486 N 0.48276 0.63031 0.36075 0.0
N487 N 0.4439 0.65913 0.25326 0.0
C488 C 0.43415 0.66681 0.32515 0.0
C489 C 0.4553 0.65113 0.38344 0.0
C490 C 0.08839 0.71598 0.13564 0.0
C491 C 0.0821 0.70503 0.21035 0.0
C492 C 0.07189 0.69918 0.07379 0.0
C493 C 0.04712 0.67172 0.08395 0.0
H494 H 0.10342 0.73998 0.12521 0.0
H495 H 0.07558 0.71036 1.0183 0.0
S496 S 0.02153 0.63219 0.26651 0.0
N497 N 0.05072 0.66318 0.28942 0.0
N498 N 0.01837 0.63303 0.17363 0.0
C499 C 0.04212 0.65901 0.1574 0.0
C500 C 0.05977 0.67544 0.22038 0.0
C501 C 0.05902 0.34293 0.82415 0.0
C502 C 0.08658 0.31769 0.82867 0.0
C503 C 0.04259 0.35627 0.88947 0.0
C504 C 0.05375 0.34567 0.96172 0.0
H505 H 0.04661 0.3483 0.77013 0.0
H506 H 0.0184 0.37158 0.88314 0.0
S507 S 0.12954 0.28652 1.00449 0.0
N508 N 0.12797 0.28736 0.91134 0.0
N509 N 0.09757 0.31315 0.034 0.0
C510 C 0.08445 0.32465 0.96699 0.0
C511 C 0.10101 0.31077 0.90036 0.0
C512 C 0.04991 0.28955 0.21549 0.0
C513 C 0.01579 0.28341 0.24513 0.0
C514 C 0.07372 0.26102 0.20716 0.0
C515 C 0.0604 0.22632 0.21673 0.0
H516 H 0.05541 0.31358 0.18424 0.0
H517 H 0.09676 0.26519 0.17188 0.0
S518 S 0.99487 0.20558 0.36304 0.0
N519 N 0.98532 0.24672 0.33723 0.0
N520 N 0.02943 0.19295 0.31279 0.0
C521 C 0.03534 0.22327 0.27406 0.0
C522 C 0.01199 0.25226 0.28765 0.0
C523 C 0.96531 0.72947 0.54342 0.0
C524 C 0.97166 0.69836 0.50213 0.0
C525 C 0.99102 0.75624 0.53555 0.0
C526 C 0.02371 0.74717 0.50186 0.0
H527 H 0.93899 0.73576 0.56265 0.0
H528 H 0.98341 0.78368 0.54347 0.0
S529 S 0.05924 0.64714 0.45876 0.0
N530 N 0.03785 0.68609 0.47788 0.0
N531 N 0.05532 0.69204 0.45715 0.0
C532 C 0.03064 0.70773 0.49576 0.0
C533 C 0.00552 0.684 0.51894 0.0
C534 C 0.46116 0.7209 0.69819 0.0
C535 C 0.49673 0.72829 0.7187 0.0
C536 C 0.43567 0.74824 0.70308 0.0
C537 C 0.44881 0.78314 0.71022 0.0
H538 H 0.4543 0.69667 0.66844 0.0
H539 H 0.41014 0.74384 0.67655 0.0
S540 S 0.51786 0.79966 0.85226 0.0
N541 N 0.53135 0.76365 0.80663 0.0
N542 N 0.47989 0.81207 0.81388 0.0
C543 C 0.47635 0.78568 0.76249 0.0
C544 C 0.50335 0.75954 0.75934 0.0
C545 C 0.52831 0.20484 0.97235 0.0
C546 C 0.5337 0.24178 0.96503 0.0
C547 C 0.49475 0.19237 0.99452 0.0
C548 C 0.46651 0.21686 0.99195 0.0
H549 H 0.54744 0.18615 0.94971 0.0
H550 H 0.48932 0.16426 0.98793 0.0
S551 S 0.47449 0.31248 0.03204 0.0
N552 N 0.51425 0.3002 1.00385 0.0
N553 N 0.45055 0.27574 0.03695 0.0
C554 C 0.47515 0.25122 1.01712 0.0
C555 C 0.50929 0.26454 0.99904 0.0
C556 C 0.07921 0.73728 0.85628 0.0
C557 C 0.07216 0.77346 0.84247 0.0
C558 C 0.05027 0.7138 0.8519 0.0
C559 C 0.01861 0.72474 0.8159 0.0
H560 H 0.1011 0.73007 0.89288 0.0
H561 H 0.05117 0.69005 0.88577 0.0
S562 S 0.01635 0.79982 0.68293 0.0
N563 N 0.05177 0.80728 0.73514 0.0
N564 N 0.99721 0.76344 0.71578 0.0
C565 C 0.02085 0.75512 0.77051 0.0
C566 C 0.04977 0.7788 0.78104 0.0
C567 C 0.5412 0.73908 1.01943 0.0
C568 C 0.54336 0.70558 0.05366 0.0
C569 C 0.51141 0.75991 0.03746 0.0
C570 C 0.48167 0.74346 0.07097 0.0
H571 H 0.56482 0.7519 0.99896 0.0
H572 H 0.51311 0.78859 0.03323 0.0
S573 S 0.46757 0.64582 0.07571 0.0
N574 N 0.50965 0.65079 0.05214 0.0
N575 N 0.4515 0.68636 0.0881 0.0
C576 C 0.48015 0.70595 0.06865 0.0
C577 C 0.51147 0.68674 0.04973 0.0
C578 C 0.55479 0.22317 0.34856 0.0
C579 C 0.51776 0.22241 0.33621 0.0
C580 C 0.57295 0.25565 0.34094 0.0
C581 C 0.55204 0.28655 0.33419 0.0
H582 H 0.56794 0.20132 0.37674 0.0
H583 H 0.59945 0.2575 0.36433 0.0
S584 S 0.47147 0.2873 0.21824 0.0
N585 N 0.47122 0.24812 0.25968 0.0
N586 N 0.50815 0.30799 0.24457 0.0
C587 C 0.52255 0.28207 0.28746 0.0
C588 C 0.50296 0.25023 0.29524 0.0
C589 C 0.04034 0.22469 0.5191 0.0
C590 C 0.03744 0.19395 0.56271 0.0
C591 C 0.012 0.24881 0.52273 0.0
C592 C 0.9794 0.23814 0.555 0.0
H593 H 0.06619 0.23434 0.50316 0.0
H594 H 0.01823 0.27655 0.51503 0.0
S595 S 0.95626 0.14511 0.60232 0.0
N596 N -0.00119 0.1438 0.58107 0.0
N597 N 0.94357 0.18665 0.5891 0.0
C598 C 0.97404 0.20119 0.56308 0.0
C599 C 0.00401 0.17797 0.55936 0.0
C600 C 0.00616 0.98488 0.09401 0.0
C601 C 0.00529 0.02238 0.08794 0.0
C602 C 0.00719 0.9628 0.02995 0.0
C603 C 0.00685 0.9774 0.95732 0.0
H604 H 0.00599 0.9723 0.14884 0.0
H605 H 0.00789 0.93425 0.03748 0.0
S606 S 0.00401 0.07354 0.91048 0.0
N607 N 0.00411 0.0726 1.00335 0.0
N608 N 0.00545 0.03178 0.88306 0.0
C609 C 0.00592 0.0148 0.9506 0.0
C610 C 0.00529 0.03711 1.01577 0.0
C611 C 0.26564 0.7583 0.33401 0.0
C612 C 0.22919 0.74984 0.33349 0.0
C613 C 0.28568 0.75777 0.26779 0.0
C614 C 0.26995 0.74885 0.19867 0.0
H615 H 0.27901 0.7651 0.38629 0.0
H616 H 0.31361 0.76414 0.27099 0.0
S617 S 0.1761 0.72231 0.16808 0.0
N618 N 0.17865 0.73107 0.25914 0.0
N619 N 0.21594 0.72999 0.13397 0.0
C620 C 0.23348 0.7403 0.19743 0.0
C621 C 0.21314 0.74095 0.265 0.0
C622 C 0.52983 0.99241 0.46493 0.0
C623 C 0.50414 0.01875 0.45089 0.0
C624 C 0.52774 0.97082 0.52895 0.0
C625 C 0.49974 0.97494 0.58001 0.0
H626 H 0.55195 0.98885 0.42671 0.0
H627 H 0.54871 0.9518 0.53995 0.0
S628 S 0.42195 0.03417 0.55981 0.0
N629 N 0.44708 0.04348 0.48627 0.0
N630 N 0.44376 0.00379 0.60848 0.0
C631 C 0.47301 -0.00018 0.56464 0.0
C632 C 0.47502 0.02157 0.49935 0.0
C633 C 0.2697 0.27868 0.79952 0.0
C634 C 0.27039 0.24664 0.83959 0.0
C635 C 0.24782 0.28245 0.73607 0.0
C636 C 0.22577 0.25448 0.71202 0.0
H637 H 0.28534 0.30115 0.81855 0.0
H638 H 0.24791 0.30745 0.70591 0.0
S639 S 0.22306 0.16357 0.79099 0.0
N640 N 0.25018 0.1856 0.84757 0.0
N641 N 0.20989 0.19236 0.72653 0.0
C642 C 0.22752 0.22189 0.74982 0.0
C643 C 0.24965 0.2181 0.81438 0.0
C644 C 0.73655 0.22365 0.79531 0.0
C645 C 0.73338 0.25508 0.83746 0.0
C646 C 0.75771 0.22259 0.73062 0.0
C647 C 0.77665 0.25274 0.70758 0.0
H648 H 0.72297 0.19972 0.81299 0.0
H649 H 0.75906 0.1982 0.69803 0.0
S650 S 0.7734 0.34238 0.7941 0.0
N651 N 0.74856 0.31751 0.84959 0.0
N652 N 0.7883 0.31557 0.72719 0.0
C653 C 0.77307 0.28447 0.74846 0.0
C654 C 0.75143 0.2856 0.81399 0.0
C655 C 0.74845 0.73493 0.32967 0.0
C656 C 0.78037 0.75409 0.3342 0.0
C657 C 0.72694 0.73635 0.2653 0.0
C658 C 0.73674 0.75712 0.2034 0.0
H659 H 0.74028 0.71848 0.37638 0.0
H660 H 0.70314 0.72038 0.26328 0.0
S661 S 0.81543 0.81596 0.19131 0.0
N662 N 0.81927 0.79673 0.27455 0.0
N663 N 0.77911 0.79946 0.15258 0.0
C664 C 0.7683 0.77708 0.2079 0.0
C665 C 0.79016 0.77552 0.27356 0.0
C666 C 0.52359 0.49181 0.57861 0.0
C667 C 0.50566 0.52451 0.58447 0.0
C668 C 0.52025 0.47049 0.5142 0.0
C669 C 0.49863 0.48108 0.45395 0.0
H670 H 0.54016 0.48249 0.62454 0.0
H671 H 0.53511 0.44602 0.51123 0.0
S672 S 0.44261 0.56212 0.44601 0.0
N673 N 0.46342 0.56507 0.52786 0.0
N674 N 0.45716 0.52522 0.40599 0.0
C675 C 0.48017 0.51354 0.4596 0.0
C676 C 0.4837 0.53526 0.52514 0.0
C677 C 0.9866 0.53819 1.02339 0.0
C678 C 0.00513 0.52593 0.96008 0.0
C679 C 0.98451 0.51735 0.08851 0.0
C680 C 0.00069 0.48357 0.09208 0.0
H681 H 0.97284 0.56344 1.02191 0.0
H682 H 0.96956 0.52753 0.13606 0.0
S683 S 0.05731 0.44227 0.94624 0.0
N684 N 0.04351 0.47977 0.90807 0.0
N685 N 0.03898 0.44073 0.03061 0.0
C686 C 0.02041 0.47167 0.03046 0.0
C687 C 0.02286 0.49292 0.96444 0.0
C688 C 0.08561 0.12205 0.42176 0.0
C689 C 0.08909 0.1279 0.34374 0.0
C690 C 0.10548 0.14172 0.4742 0.0
C691 C 0.12989 0.16768 0.45068 0.0
H692 H 0.06556 0.10407 0.44287 0.0
H693 H 0.10014 0.13796 0.53368 0.0
S694 S 0.15255 0.18928 0.25207 0.0
N695 N 0.12158 0.15847 0.2452 0.0
N696 N 0.15906 0.19535 0.34334 0.0
C697 C 0.1358 0.17154 0.37261 0.0
C698 C 0.11531 0.15172 0.31928 0.0
C699 C 0.11924 0.86348 0.58698 0.0
C700 C 0.1412 0.83525 0.6095 0.0
C701 C 0.10056 0.88364 0.64012 0.0
C702 C 0.10269 0.8758 0.71763 0.0
H703 H 0.11454 0.86849 0.52761 0.0
H704 H 0.08193 0.90328 0.61948 0.0
S705 S 0.16121 0.80864 0.80657 0.0
N706 N 0.16791 0.80371 0.71511 0.0
N707 N 0.13243 0.8415 0.815 0.0
C708 C 0.12728 0.85006 0.74135 0.0
C709 C 0.14666 0.82976 0.68721 0.0
C710 C 0.37355 0.82655 0.86511 0.0
C711 C 0.37799 0.83061 0.94365 0.0
C712 C 0.39344 0.84675 0.81391 0.0
C713 C 0.41806 0.87226 0.83919 0.0
H714 H 0.35622 0.80609 0.84283 0.0
H715 H 0.39056 0.84131 0.75414 0.0
S716 S 0.43729 0.89527 0.03939 0.0
N717 N 0.40711 0.86364 0.04415 0.0
N718 N 0.44407 0.90189 0.94857 0.0
C719 C 0.42109 0.87809 0.91763 0.0
C720 C 0.40122 0.85717 0.96964 0.0
C721 C 0.42836 0.12496 0.12528 0.0
C722 C 0.42346 0.1282 0.20388 0.0
C723 C 0.40699 0.14365 0.07408 0.0
C724 C 0.37925 0.16562 0.09924 0.0
H725 H 0.45014 0.10936 0.103 0.0
H726 H 0.41294 0.14173 1.01443 0.0
S727 S 0.35393 0.18155 0.29907 0.0
N728 N 0.388 0.15406 0.30421 0.0
N729 N 0.34713 0.18846 0.20822 0.0
C730 C 0.37295 0.16776 0.17757 0.0
C731 C 0.39524 0.14931 0.22978 0.0
C732 C 0.90385 0.80116 0.67603 0.0
C733 C 0.9066 0.80727 0.59752 0.0
C734 C 0.92439 0.82037 0.7291 0.0
C735 C 0.94772 0.84733 0.70598 0.0
H736 H 0.8861 0.78077 0.69661 0.0
H737 H 0.92178 0.81426 0.78849 0.0
S738 S 0.96582 0.87267 0.50669 0.0
N739 N 0.93557 0.84113 0.49964 0.0
N740 N 0.97314 0.87807 0.59792 0.0
C741 C 0.95047 0.85375 0.62739 0.0
C742 C 0.93028 0.83353 0.57364 0.0
C743 C 0.90007 0.20477 0.36018 0.0
C744 C 0.8886 0.19018 0.4291 0.0
C745 C 0.9194 0.18436 0.30721 0.0
C746 C 0.92898 0.14879 0.3221 0.0
H747 H 0.89498 0.23252 0.34809 0.0
H748 H 0.92879 0.19727 0.25651 0.0
S749 S 0.89675 0.09607 0.48612 0.0
N750 N 0.88177 0.13662 0.50243 0.0
N751 N 0.91893 0.09841 0.40613 0.0
C752 C 0.91466 0.13326 0.38828 0.0
C753 C 0.89457 0.15397 0.44119 0.0
C754 C 0.62807 0.14601 0.11643 0.0
C755 C 0.61678 0.17916 0.08795 0.0
C756 C 0.60843 0.12808 0.1732 0.0
C757 C 0.57702 0.14278 0.20412 0.0
H758 H 0.65197 0.13382 0.09457 0.0
H759 H 0.6178 0.10249 0.1927 0.0
S760 S 0.53798 0.22857 0.14848 0.0
N761 N 0.57527 0.22715 0.10135 0.0
N762 N 0.53486 0.19082 0.19464 0.0
C763 C 0.56579 0.1754 0.1745 0.0
C764 C 0.58661 0.19424 0.12038 0.0
C765 C 0.57181 0.8651 0.91303 0.0
C766 C 0.57346 0.85796 0.83439 0.0
C767 C 0.59 0.84404 0.96675 0.0
C768 C 0.61172 0.81551 0.94436 0.0
H769 H 0.55484 0.8862 0.93381 0.0
H770 H 0.58715 0.85025 0.02613 0.0
S771 S 0.62572 0.78544 0.74631 0.0
N772 N 0.5988 0.81987 0.73797 0.0
N773 N 0.63381 0.78131 0.83751 0.0
C774 C 0.61441 0.8087 0.86589 0.0
C775 C 0.59533 0.82967 0.81141 0.0
C776 C 0.61699 0.64857 0.82545 0.0
C777 C 0.59236 0.62305 0.85009 0.0
C778 C 0.63768 0.66789 0.87694 0.0
C779 C 0.63413 0.6629 0.95519 0.0
H780 H 0.61905 0.655 0.76608 0.0
H781 H 0.65462 0.68873 0.85534 0.0
S782 S 0.57772 0.59582 0.04903 0.0
N783 N 0.56899 0.59083 0.95824 0.0
N784 N 0.60733 0.62802 0.05472 0.0
C785 C 0.61156 0.63584 0.9805 0.0
C786 C 0.59089 0.61564 0.92802 0.0
C787 C 0.57146 0.37032 0.12184 0.0
C788 C 0.57791 0.36889 0.2002 0.0
C789 C 0.59175 0.35029 0.07042 0.0
C790 C 0.61984 0.32846 0.09493 0.0
H791 H 0.54942 0.38573 0.10018 0.0
H792 H 0.58479 0.35132 1.01114 0.0
S793 S 0.64892 0.31721 0.29444 0.0
N794 N 0.61519 0.34509 0.29958 0.0
N795 N 0.6537 0.30791 0.20393 0.0
C796 C 0.62739 0.32795 0.17319 0.0
C797 C 0.60635 0.34796 0.22546 0.0
C798 C 0.87554 0.38648 0.35779 0.0
C799 C 0.91181 0.38131 0.34362 0.0
C800 C 0.85833 0.36614 0.41347 0.0
C801 C 0.87736 0.34095 0.45637 0.0
H802 H 0.86041 0.4052 0.3244 0.0
H803 H 0.8301 0.36957 0.42198 0.0
S804 S 0.97255 0.31795 0.4356 0.0
N805 N 0.96576 0.34992 0.37468 0.0
N806 N 0.93428 0.31178 0.47754 0.0
C807 C 0.91382 0.33656 0.44251 0.0
C808 C 0.93082 0.35681 0.38659 0.0
C809 C 0.91824 0.61241 0.61399 0.0
C810 C 0.91274 0.6167 0.6919 0.0
C811 C 0.89824 0.63183 0.56168 0.0
C812 C 0.87175 0.65575 0.5855 0.0
H813 H 0.9402 0.59653 0.59347 0.0
H814 H 0.90536 0.63003 0.50259 0.0
S815 S 0.84286 0.67099 0.78331 0.0
N816 N 0.87597 0.64246 0.79015 0.0
N817 N 0.83783 0.67853 0.6922 0.0
C818 C 0.86344 0.65712 0.66295 0.0
C819 C 0.88417 0.63774 0.71612 0.0
C820 C 0.42008 0.36694 0.14056 0.0
C821 C 0.42166 0.35761 0.21796 0.0
C822 C 0.40045 0.34698 0.08737 0.0
C823 C 0.3813 0.31673 0.10883 0.0
H824 H 0.43563 0.38899 0.11971 0.0
H825 H 0.40126 0.35464 0.02855 0.0
S826 S 0.3729 0.28289 0.30509 0.0
N827 N 0.39909 0.31784 0.31381 0.0
N828 N 0.36279 0.27999 0.2145 0.0
C829 C 0.38065 0.30841 0.18674 0.0
C830 C 0.40054 0.32891 0.24103 0.0
C831 C 0.38347 0.64393 0.92557 0.0
C832 C 0.39279 0.67801 0.95255 0.0
C833 C 0.40483 0.62613 0.87121 0.0
C834 C 0.43607 0.6419 0.84232 0.0
H835 H 0.35993 0.63095 0.94682 0.0
H836 H 0.39702 0.5999 0.85215 0.0
S837 S 0.47034 0.72923 0.89758 0.0
N838 N 0.43214 0.72749 0.94038 0.0
N839 N 0.47611 0.6913 0.85336 0.0
C840 C 0.44527 0.67525 0.87089 0.0
C841 C 0.42257 0.69399 0.92148 0.0
C842 C 0.0807 0.69892 0.6326 0.0
C843 C 0.11136 0.6843 0.60033 0.0
C844 C 0.05933 0.67902 0.68065 0.0
C845 C 0.06937 0.64504 0.70486 0.0
H846 H 0.07244 0.72567 0.61858 0.0
H847 H 0.03386 0.68975 0.69606 0.0
S848 S 0.14919 0.59555 0.64201 0.0
N849 N 0.1515 0.63378 0.59661 0.0
N850 N 0.11287 0.59754 0.69387 0.0
C851 C 0.10087 0.63044 0.67557 0.0
C852 C 0.12191 0.65013 0.62308 0.0
C853 C 0.08588 0.34213 0.3383 0.0
C854 C 0.05804 0.36404 0.36301 0.0
C855 C 0.10515 0.32075 0.38887 0.0
C856 C 0.09736 0.31994 0.46679 0.0
H857 H 0.09304 0.34162 0.27924 0.0
H858 H 0.12612 0.30418 0.36624 0.0
S859 S 0.02887 0.37445 0.56224 0.0
N860 N 0.02547 0.38572 0.47245 0.0
N861 N 0.06075 0.34435 0.56661 0.0
C862 C 0.0701 0.34226 0.4928 0.0
C863 C 0.05097 0.36479 0.44137 0.0
loop_
_geom_bond_atom_site_label_1
_geom_bond_atom_site_label_2
_geom_bond_distance
_geom_bond_site_symmetry_2
_ccdc_geom_bond_type
O0 Mn1 2.163 . S
O0 C14 1.244 1_554 S
Mn1 O0 2.163 . S
Mn1 O4 2.160 1_455 S
Mn1 O5 2.221 1_455 S
Mn1 O7 2.163 . S
Mn1 O9 2.160 1_455 S
Mn1 O19 2.221 . S
O2 Mn3 2.087 . S
O2 C14 1.256 . S
Mn3 O2 2.087 . S
Mn3 O10 2.089 1_455 S
Mn3 O19 2.291 1_556 S
Mn3 O20 2.251 1_556 S
O4 Mn1 2.160 1_655 S
O4 C15 1.239 . S
O5 Mn1 2.221 1_655 S
O5 Mn6 2.290 1_655 S
O5 C16 1.278 1_655 S
Mn6 O5 2.290 1_455 S
Mn6 O8 2.089 1_455 S
Mn6 O11 2.251 . S
Mn6 O12 2.087 . S
O7 Mn1 2.163 . S
O7 C17 1.244 . S
O8 Mn6 2.089 1_655 S
O8 C15 1.256 . S
O9 Mn1 2.160 1_655 S
O9 C18 1.239 1_554 S
O10 Mn3 2.089 1_655 S
O10 C18 1.256 . S
O11 Mn6 2.251 . S
O11 C16 1.241 . S
O12 Mn6 2.087 . S
O12 C17 1.256 . S
C13 O19 1.280 . S
C13 O20 1.241 . S
C14 O0 1.244 1_556 S
C14 O2 1.256 . S
C15 O4 1.239 . S
C15 O8 1.256 . S
C16 O5 1.278 1_455 S
C16 O11 1.241 . S
C17 O7 1.244 . S
C17 O12 1.256 . S
C18 O9 1.239 1_556 S
C18 O10 1.256 . S
O19 Mn1 2.221 . S
O19 Mn3 2.291 1_554 S
O19 C13 1.280 . S
O20 Mn3 2.251 1_554 S
O20 C13 1.241 . S
O21 Mn22 2.163 . S
O21 C35 1.244 . S
Mn22 O21 2.163 . S
Mn22 O25 2.160 . S
Mn22 O26 2.221 . S
Mn22 O28 2.163 . S
Mn22 O30 2.160 . S
Mn22 O40 2.221 . S
O23 Mn24 2.087 . S
O23 C35 1.256 . S
Mn24 O23 2.087 . S
Mn24 O31 2.089 . S
Mn24 O40 2.290 . S
Mn24 O41 2.251 . S
O25 Mn22 2.160 . S
O25 C36 1.239 . S
O26 Mn22 2.221 . S
O26 Mn27 2.290 . S
O26 C37 1.278 . S
Mn27 O26 2.290 . S
Mn27 O29 2.089 . S
Mn27 O32 2.251 . S
Mn27 O33 2.087 . S
O28 Mn22 2.163 . S
O28 C38 1.244 . S
O29 Mn27 2.089 . S
O29 C36 1.256 . S
O30 Mn22 2.160 . S
O30 C39 1.239 . S
O31 Mn24 2.089 . S
O31 C39 1.256 . S
O32 Mn27 2.251 . S
O32 C37 1.241 . S
O33 Mn27 2.087 . S
O33 C38 1.256 . S
C34 O40 1.278 . S
C34 O41 1.241 . S
C35 O21 1.244 . S
C35 O23 1.256 . S
C36 O25 1.239 . S
C36 O29 1.256 . S
C37 O26 1.278 . S
C37 O32 1.241 . S
C38 O28 1.244 . S
C38 O33 1.256 . S
C39 O30 1.239 . S
C39 O31 1.256 . S
O40 Mn22 2.221 . S
O40 Mn24 2.290 . S
O40 C34 1.278 . S
O41 Mn24 2.251 . S
O41 C34 1.241 . S
O42 Mn43 2.163 . S
O42 C56 1.244 . S
Mn43 O42 2.163 . S
Mn43 O46 2.160 . S
Mn43 O47 2.221 . S
Mn43 O49 2.163 . S
Mn43 O51 2.160 . S
Mn43 O61 2.221 . S
O44 Mn45 2.087 . S
O44 C56 1.256 . S
Mn45 O44 2.087 . S
Mn45 O52 2.089 . S
Mn45 O61 2.290 . S
Mn45 O62 2.251 . S
O46 Mn43 2.160 . S
O46 C57 1.239 . S
O47 Mn43 2.221 . S
O47 Mn48 2.290 . S
O47 C58 1.278 . S
Mn48 O47 2.290 . S
Mn48 O50 2.089 . S
Mn48 O53 2.251 . S
Mn48 O54 2.087 . S
O49 Mn43 2.163 . S
O49 C59 1.244 . S
O50 Mn48 2.089 . S
O50 C57 1.256 . S
O51 Mn43 2.160 . S
O51 C60 1.239 . S
O52 Mn45 2.089 . S
O52 C60 1.256 . S
O53 Mn48 2.251 . S
O53 C58 1.241 . S
O54 Mn48 2.087 . S
O54 C59 1.256 . S
C55 O61 1.278 . S
C55 O62 1.241 . S
C56 O42 1.244 . S
C56 O44 1.256 . S
C57 O46 1.239 . S
C57 O50 1.256 . S
C58 O47 1.278 . S
C58 O53 1.241 . S
C59 O49 1.244 . S
C59 O54 1.256 . S
C60 O51 1.239 . S
C60 O52 1.256 . S
O61 Mn43 2.221 . S
O61 Mn45 2.290 . S
O61 C55 1.278 . S
O62 Mn45 2.251 . S
O62 C55 1.241 . S
O63 Mn64 2.163 . S
O63 C77 1.244 . S
Mn64 O63 2.163 . S
Mn64 O67 2.160 . S
Mn64 O68 2.221 . S
Mn64 O70 2.163 . S
Mn64 O72 2.160 . S
Mn64 O82 2.221 . S
O65 Mn66 2.087 . S
O65 C77 1.256 . S
Mn66 O65 2.087 . S
Mn66 O73 2.089 . S
Mn66 O82 2.290 . S
Mn66 O83 2.251 . S
O67 Mn64 2.160 . S
O67 C78 1.239 1_556 S
O68 Mn64 2.221 . S
O68 Mn69 2.290 1_556 S
O68 C79 1.278 . S
Mn69 O68 2.290 1_554 S
Mn69 O71 2.089 . S
Mn69 O74 2.251 1_554 S
Mn69 O75 2.087 . S
O70 Mn64 2.163 . S
O70 C80 1.244 1_556 S
O71 Mn69 2.089 . S
O71 C78 1.256 . S
O72 Mn64 2.160 . S
O72 C81 1.239 . S
O73 Mn66 2.089 . S
O73 C81 1.256 . S
O74 Mn69 2.251 1_556 S
O74 C79 1.241 . S
O75 Mn69 2.087 . S
O75 C80 1.256 . S
C76 O82 1.278 . S
C76 O83 1.241 . S
C77 O63 1.244 . S
C77 O65 1.256 . S
C78 O67 1.239 1_554 S
C78 O71 1.256 . S
C79 O68 1.278 . S
C79 O74 1.241 . S
C80 O70 1.244 1_554 S
C80 O75 1.256 . S
C81 O72 1.239 . S
C81 O73 1.256 . S
O82 Mn64 2.221 . S
O82 Mn66 2.290 . S
O82 C76 1.278 . S
O83 Mn66 2.251 . S
O83 C76 1.241 . S
O84 Mn85 2.163 . S
O84 C98 1.244 1_556 S
Mn85 O84 2.163 . S
Mn85 O88 2.160 1_455 S
Mn85 O89 2.221 1_455 S
Mn85 O91 2.163 . S
Mn85 O93 2.160 1_455 S
Mn85 O103 2.221 . S
O86 Mn87 2.087 . S
O86 C98 1.256 . S
Mn87 O86 2.087 . S
Mn87 O94 2.089 1_455 S
Mn87 O103 2.291 1_554 S
Mn87 O104 2.251 1_554 S
O88 Mn85 2.160 1_655 S
O88 C99 1.239 . S
O89 Mn85 2.221 1_655 S
O89 Mn90 2.290 1_655 S
O89 C100 1.278 1_655 S
Mn90 O89 2.290 1_455 S
Mn90 O92 2.089 1_455 S
Mn90 O95 2.251 . S
Mn90 O96 2.087 . S
O91 Mn85 2.163 . S
O91 C101 1.244 . S
O92 Mn90 2.089 1_655 S
O92 C99 1.256 . S
O93 Mn85 2.160 1_655 S
O93 C102 1.239 1_556 S
O94 Mn87 2.089 1_655 S
O94 C102 1.256 . S
O95 Mn90 2.251 . S
O95 C100 1.241 . S
O96 Mn90 2.087 . S
O96 C101 1.256 . S
C97 O103 1.280 . S
C97 O104 1.241 . S
C98 O84 1.244 1_554 S
C98 O86 1.256 . S
C99 O88 1.239 . S
C99 O92 1.256 . S
C100 O89 1.278 1_455 S
C100 O95 1.241 . S
C101 O91 1.244 . S
C101 O96 1.256 . S
C102 O93 1.239 1_554 S
C102 O94 1.256 . S
O103 Mn85 2.221 . S
O103 Mn87 2.291 1_556 S
O103 C97 1.280 . S
O104 Mn87 2.251 1_556 S
O104 C97 1.241 . S
O105 Mn106 2.163 . S
O105 C119 1.244 . S
Mn106 O105 2.163 . S
Mn106 O109 2.160 . S
Mn106 O110 2.221 . S
Mn106 O112 2.163 . S
Mn106 O114 2.160 . S
Mn106 O124 2.221 . S
O107 Mn108 2.087 . S
O107 C119 1.256 . S
Mn108 O107 2.087 . S
Mn108 O115 2.089 . S
Mn108 O124 2.290 . S
Mn108 O125 2.251 . S
O109 Mn106 2.160 . S
O109 C120 1.239 1_554 S
O110 Mn106 2.221 . S
O110 Mn111 2.290 1_554 S
O110 C121 1.278 . S
Mn111 O110 2.290 1_556 S
Mn111 O113 2.089 . S
Mn111 O116 2.251 1_556 S
Mn111 O117 2.087 . S
O112 Mn106 2.163 . S
O112 C122 1.244 1_554 S
O113 Mn111 2.089 . S
O113 C120 1.256 . S
O114 Mn106 2.160 . S
O114 C123 1.239 . S
O115 Mn108 2.089 . S
O115 C123 1.256 . S
O116 Mn111 2.251 1_554 S
O116 C121 1.241 . S
O117 Mn111 2.087 . S
O117 C122 1.256 . S
C118 O124 1.278 . S
C118 O125 1.241 . S
C119 O105 1.244 . S
C119 O107 1.256 . S
C120 O109 1.239 1_556 S
C120 O113 1.256 . S
C121 O110 1.278 . S
C121 O116 1.241 . S
C122 O112 1.244 1_556 S
C122 O117 1.256 . S
C123 O114 1.239 . S
C123 O115 1.256 . S
O124 Mn106 2.221 . S
O124 Mn108 2.290 . S
O124 C118 1.278 . S
O125 Mn108 2.251 . S
O125 C118 1.241 . S
O126 Mn127 2.163 . S
O126 C140 1.244 . S
Mn127 O126 2.163 . S
Mn127 O130 2.160 . S
Mn127 O131 2.221 . S
Mn127 O133 2.163 . S
Mn127 O135 2.160 . S
Mn127 O145 2.221 . S
O128 Mn129 2.087 . S
O128 C140 1.256 . S
Mn129 O128 2.087 . S
Mn129 O136 2.089 . S
Mn129 O145 2.290 . S
Mn129 O146 2.251 . S
O130 Mn127 2.160 . S
O130 C141 1.239 . S
O131 Mn127 2.221 . S
O131 Mn132 2.290 . S
O131 C142 1.278 . S
Mn132 O131 2.290 . S
Mn132 O134 2.089 . S
Mn132 O137 2.251 . S
Mn132 O138 2.087 . S
O133 Mn127 2.163 . S
O133 C143 1.244 . S
O134 Mn132 2.089 . S
O134 C141 1.256 . S
O135 Mn127 2.160 . S
O135 C144 1.239 . S
O136 Mn129 2.089 . S
O136 C144 1.256 . S
O137 Mn132 2.251 . S
O137 C142 1.241 . S
O138 Mn132 2.087 . S
O138 C143 1.256 . S
C139 O145 1.278 . S
C139 O146 1.241 . S
C140 O126 1.244 . S
C140 O128 1.256 . S
C141 O130 1.239 . S
C141 O134 1.256 . S
C142 O131 1.278 . S
C142 O137 1.241 . S
C143 O133 1.244 . S
C143 O138 1.256 . S
C144 O135 1.239 . S
C144 O136 1.256 . S
O145 Mn127 2.221 . S
O145 Mn129 2.290 . S
O145 C139 1.278 . S
O146 Mn129 2.251 . S
O146 C139 1.241 . S
O147 Mn148 2.163 . S
O147 C161 1.244 . S
Mn148 O147 2.163 . S
Mn148 O151 2.160 . S
Mn148 O152 2.221 . S
Mn148 O154 2.163 . S
Mn148 O156 2.160 . S
Mn148 O166 2.221 . S
O149 Mn150 2.087 . S
O149 C161 1.256 . S
Mn150 O149 2.087 . S
Mn150 O157 2.089 . S
Mn150 O166 2.290 . S
Mn150 O167 2.251 . S
O151 Mn148 2.160 . S
O151 C162 1.239 . S
O152 Mn148 2.221 . S
O152 Mn153 2.290 . S
O152 C163 1.278 . S
Mn153 O152 2.290 . S
Mn153 O155 2.089 . S
Mn153 O158 2.251 . S
Mn153 O159 2.087 . S
O154 Mn148 2.163 . S
O154 C164 1.244 . S
O155 Mn153 2.089 . S
O155 C162 1.256 . S
O156 Mn148 2.160 . S
O156 C165 1.239 . S
O157 Mn150 2.089 . S
O157 C165 1.256 . S
O158 Mn153 2.251 . S
O158 C163 1.241 . S
O159 Mn153 2.087 . S
O159 C164 1.256 . S
C160 O166 1.278 . S
C160 O167 1.241 . S
C161 O147 1.244 . S
C161 O149 1.256 . S
C162 O151 1.239 . S
C162 O155 1.256 . S
C163 O152 1.278 . S
C163 O158 1.241 . S
C164 O154 1.244 . S
C164 O159 1.256 . S
C165 O156 1.239 . S
C165 O157 1.256 . S
O166 Mn148 2.221 . S
O166 Mn150 2.290 . S
O166 C160 1.278 . S
O167 Mn150 2.251 . S
O167 C160 1.241 . S
O168 Mn169 2.163 . S
O168 C182 1.244 . S
Mn169 O168 2.163 . S
Mn169 O172 2.160 . S
Mn169 O173 2.221 . S
Mn169 O175 2.163 . S
Mn169 O177 2.160 . S
Mn169 O187 2.221 . S
O170 Mn171 2.087 . S
O170 C182 1.256 . S
Mn171 O170 2.087 . S
Mn171 O178 2.089 . S
Mn171 O187 2.290 . S
Mn171 O188 2.251 . S
O172 Mn169 2.160 . S
O172 C183 1.239 . S
O173 Mn169 2.221 . S
O173 Mn174 2.290 . S
O173 C184 1.278 . S
Mn174 O173 2.290 . S
Mn174 O176 2.089 . S
Mn174 O179 2.251 . S
Mn174 O180 2.087 . S
O175 Mn169 2.163 . S
O175 C185 1.244 . S
O176 Mn174 2.089 . S
O176 C183 1.256 . S
O177 Mn169 2.160 . S
O177 C186 1.239 . S
O178 Mn171 2.089 . S
O178 C186 1.256 . S
O179 Mn174 2.251 . S
O179 C184 1.241 . S
O180 Mn174 2.087 . S
O180 C185 1.256 . S
C181 O187 1.278 . S
C181 O188 1.241 . S
C182 O168 1.244 . S
C182 O170 1.256 . S
C183 O172 1.239 . S
C183 O176 1.256 . S
C184 O173 1.278 . S
C184 O179 1.241 . S
C185 O175 1.244 . S
C185 O180 1.256 . S
C186 O177 1.239 . S
C186 O178 1.256 . S
O187 Mn169 2.221 . S
O187 Mn171 2.290 . S
O187 C181 1.278 . S
O188 Mn171 2.251 . S
O188 C181 1.241 . S
O189 Mn190 2.163 . S
O189 C203 1.244 1_554 S
Mn190 O189 2.163 . S
Mn190 O193 2.160 . S
Mn190 O194 2.221 . S
Mn190 O196 2.163 . S
Mn190 O198 2.160 . S
Mn190 O208 2.221 . S
O191 Mn192 2.087 . S
O191 C203 1.256 . S
Mn192 O191 2.087 . S
Mn192 O199 2.089 . S
Mn192 O208 2.290 1_556 S
Mn192 O209 2.251 1_556 S
O193 Mn190 2.160 . S
O193 C204 1.239 . S
O194 Mn190 2.221 . S
O194 Mn195 2.290 . S
O194 C205 1.278 . S
Mn195 O194 2.290 . S
Mn195 O197 2.089 . S
Mn195 O200 2.251 . S
Mn195 O201 2.087 . S
O196 Mn190 2.163 . S
O196 C206 1.244 . S
O197 Mn195 2.089 . S
O197 C204 1.256 . S
O198 Mn190 2.160 . S
O198 C207 1.239 1_554 S
O199 Mn192 2.089 . S
O199 C207 1.256 . S
O200 Mn195 2.251 . S
O200 C205 1.241 . S
O201 Mn195 2.087 . S
O201 C206 1.256 . S
C202 O208 1.278 . S
C202 O209 1.241 . S
C203 O189 1.244 1_556 S
C203 O191 1.256 . S
C204 O193 1.239 . S
C204 O197 1.256 . S
C205 O194 1.278 . S
C205 O200 1.241 . S
C206 O196 1.244 . S
C206 O201 1.256 . S
C207 O198 1.239 1_556 S
C207 O199 1.256 . S
O208 Mn190 2.221 . S
O208 Mn192 2.290 1_554 S
O208 C202 1.278 . S
O209 Mn192 2.251 1_554 S
O209 C202 1.241 . S
O210 Mn211 2.163 . S
O210 C224 1.244 1_556 S
Mn211 O210 2.163 . S
Mn211 O214 2.160 . S
Mn211 O215 2.221 . S
Mn211 O217 2.163 . S
Mn211 O219 2.160 . S
Mn211 O229 2.221 . S
O212 Mn213 2.087 . S
O212 C224 1.256 . S
Mn213 O212 2.087 . S
Mn213 O220 2.089 . S
Mn213 O229 2.290 1_554 S
Mn213 O230 2.251 1_554 S
O214 Mn211 2.160 . S
O214 C225 1.239 . S
O215 Mn211 2.221 . S
O215 Mn216 2.290 . S
O215 C226 1.278 . S
Mn216 O215 2.290 . S
Mn216 O218 2.089 . S
Mn216 O221 2.251 . S
Mn216 O222 2.087 . S
O217 Mn211 2.163 . S
O217 C227 1.244 . S
O218 Mn216 2.089 . S
O218 C225 1.256 . S
O219 Mn211 2.160 . S
O219 C228 1.239 1_556 S
O220 Mn213 2.089 . S
O220 C228 1.256 . S
O221 Mn216 2.251 . S
O221 C226 1.241 . S
O222 Mn216 2.087 . S
O222 C227 1.256 . S
C223 O229 1.278 . S
C223 O230 1.241 . S
C224 O210 1.244 1_554 S
C224 O212 1.256 . S
C225 O214 1.239 . S
C225 O218 1.256 . S
C226 O215 1.278 . S
C226 O221 1.241 . S
C227 O217 1.244 . S
C227 O222 1.256 . S
C228 O219 1.239 1_554 S
C228 O220 1.256 . S
O229 Mn211 2.221 . S
O229 Mn213 2.290 1_556 S
O229 C223 1.278 . S
O230 Mn213 2.251 1_556 S
O230 C223 1.241 . S
O231 Mn232 2.163 . S
O231 C245 1.244 . S
Mn232 O231 2.163 . S
Mn232 O235 2.160 . S
Mn232 O236 2.221 . S
Mn232 O238 2.163 . S
Mn232 O240 2.160 . S
Mn232 O250 2.221 . S
O233 Mn234 2.087 . S
O233 C245 1.256 . S
Mn234 O233 2.087 . S
Mn234 O241 2.089 . S
Mn234 O250 2.290 . S
Mn234 O251 2.251 . S
O235 Mn232 2.160 . S
O235 C246 1.239 . S
O236 Mn232 2.221 . S
O236 Mn237 2.290 . S
O236 C247 1.278 . S
Mn237 O236 2.290 . S
Mn237 O239 2.089 . S
Mn237 O242 2.251 . S
Mn237 O243 2.087 . S
O238 Mn232 2.163 . S
O238 C248 1.244 . S
O239 Mn237 2.089 . S
O239 C246 1.256 . S
O240 Mn232 2.160 . S
O240 C249 1.239 . S
O241 Mn234 2.089 . S
O241 C249 1.256 . S
O242 Mn237 2.251 . S
O242 C247 1.241 . S
O243 Mn237 2.087 . S
O243 C248 1.256 . S
C244 O250 1.278 . S
C244 O251 1.241 . S
C245 O231 1.244 . S
C245 O233 1.256 . S
C246 O235 1.239 . S
C246 O239 1.256 . S
C247 O236 1.278 . S
C247 O242 1.241 . S
C248 O238 1.244 . S
C248 O243 1.256 . S
C249 O240 1.239 . S
C249 O241 1.256 . S
O250 Mn232 2.221 . S
O250 Mn234 2.290 . S
O250 C244 1.278 . S
O251 Mn234 2.251 . S
O251 C244 1.241 . S
O252 Mn253 2.163 . S
O252 C266 1.244 . S
Mn253 O252 2.163 . S
Mn253 O256 2.160 . S
Mn253 O257 2.221 . S
Mn253 O259 2.163 . S
Mn253 O261 2.160 . S
Mn253 O271 2.221 . S
O254 Mn255 2.087 . S
O254 C266 1.256 . S
Mn255 O254 2.087 . S
Mn255 O262 2.089 . S
Mn255 O271 2.290 . S
Mn255 O272 2.251 . S
O256 Mn253 2.160 . S
O256 C267 1.239 . S
O257 Mn253 2.221 . S
O257 Mn258 2.290 . S
O257 C268 1.278 . S
Mn258 O257 2.290 . S
Mn258 O260 2.089 . S
Mn258 O263 2.251 . S
Mn258 O264 2.087 . S
O259 Mn253 2.163 . S
O259 C269 1.244 . S
O260 Mn258 2.089 . S
O260 C267 1.256 . S
O261 Mn253 2.160 . S
O261 C270 1.239 . S
O262 Mn255 2.089 . S
O262 C270 1.256 . S
O263 Mn258 2.251 . S
O263 C268 1.241 . S
O264 Mn258 2.087 . S
O264 C269 1.256 . S
C265 O271 1.278 . S
C265 O272 1.241 . S
C266 O252 1.244 . S
C266 O254 1.256 . S
C267 O256 1.239 . S
C267 O260 1.256 . S
C268 O257 1.278 . S
C268 O263 1.241 . S
C269 O259 1.244 . S
C269 O264 1.256 . S
C270 O261 1.239 . S
C270 O262 1.256 . S
O271 Mn253 2.221 . S
O271 Mn255 2.290 . S
O271 C265 1.278 . S
O272 Mn255 2.251 . S
O272 C265 1.241 . S
O273 Mn274 2.163 1_655 S
O273 C287 1.244 1_554 S
Mn274 O273 2.163 1_455 S
Mn274 O277 2.160 . S
Mn274 O278 2.221 . S
Mn274 O280 2.163 1_455 S
Mn274 O282 2.160 . S
Mn274 O292 2.221 . S
O275 Mn276 2.087 1_655 S
O275 C287 1.256 . S
Mn276 O275 2.087 1_455 S
Mn276 O283 2.089 . S
Mn276 O292 2.290 1_556 S
Mn276 O293 2.251 1_456 S
O277 Mn274 2.160 . S
O277 C288 1.239 . S
O278 Mn274 2.221 . S
O278 Mn279 2.290 . S
O278 C289 1.278 1_455 S
Mn279 O278 2.290 . S
Mn279 O281 2.089 . S
Mn279 O284 2.251 1_455 S
Mn279 O285 2.087 1_455 S
O280 Mn274 2.163 1_655 S
O280 C290 1.244 . S
O281 Mn279 2.089 . S
O281 C288 1.256 . S
O282 Mn274 2.160 . S
O282 C291 1.239 1_554 S
O283 Mn276 2.089 . S
O283 C291 1.256 . S
O284 Mn279 2.251 1_655 S
O284 C289 1.241 . S
O285 Mn279 2.087 1_655 S
O285 C290 1.256 . S
C286 O292 1.278 1_655 S
C286 O293 1.241 . S
C287 O273 1.244 1_556 S
C287 O275 1.256 . S
C288 O277 1.239 . S
C288 O281 1.256 . S
C289 O278 1.278 1_655 S
C289 O284 1.241 . S
C290 O280 1.244 . S
C290 O285 1.256 . S
C291 O282 1.239 1_556 S
C291 O283 1.256 . S
O292 Mn274 2.221 . S
O292 Mn276 2.290 1_554 S
O292 C286 1.278 1_455 S
O293 Mn276 2.251 1_654 S
O293 C286 1.241 . S
O294 Mn295 2.163 . S
O294 C308 1.244 . S
Mn295 O294 2.163 . S
Mn295 O298 2.160 . S
Mn295 O299 2.221 . S
Mn295 O301 2.163 . S
Mn295 O303 2.160 . S
Mn295 O313 2.221 . S
O296 Mn297 2.087 . S
O296 C308 1.256 . S
Mn297 O296 2.087 . S
Mn297 O304 2.089 . S
Mn297 O313 2.290 . S
Mn297 O314 2.251 . S
O298 Mn295 2.160 . S
O298 C309 1.239 . S
O299 Mn295 2.221 . S
O299 Mn300 2.290 . S
O299 C310 1.278 . S
Mn300 O299 2.290 . S
Mn300 O302 2.089 . S
Mn300 O305 2.251 . S
Mn300 O306 2.087 . S
O301 Mn295 2.163 . S
O301 C311 1.244 . S
O302 Mn300 2.089 . S
O302 C309 1.256 . S
O303 Mn295 2.160 . S
O303 C312 1.239 . S
O304 Mn297 2.089 . S
O304 C312 1.256 . S
O305 Mn300 2.251 . S
O305 C310 1.241 . S
O306 Mn300 2.087 . S
O306 C311 1.256 . S
C307 O313 1.278 . S
C307 O314 1.241 . S
C308 O294 1.244 . S
C308 O296 1.256 . S
C309 O298 1.239 . S
C309 O302 1.256 . S
C310 O299 1.278 . S
C310 O305 1.241 . S
C311 O301 1.244 . S
C311 O306 1.256 . S
C312 O303 1.239 . S
C312 O304 1.256 . S
O313 Mn295 2.221 . S
O313 Mn297 2.290 . S
O313 C307 1.278 . S
O314 Mn297 2.251 . S
O314 C307 1.241 . S
O315 Mn316 2.163 1_655 S
O315 C329 1.244 1_556 S
Mn316 O315 2.163 1_455 S
Mn316 O319 2.160 . S
Mn316 O320 2.221 . S
Mn316 O322 2.163 1_455 S
Mn316 O324 2.160 . S
Mn316 O334 2.221 . S
O317 Mn318 2.087 1_655 S
O317 C329 1.256 . S
Mn318 O317 2.087 1_455 S
Mn318 O325 2.089 . S
Mn318 O334 2.290 1_554 S
Mn318 O335 2.251 1_454 S
O319 Mn316 2.160 . S
O319 C330 1.239 . S
O320 Mn316 2.221 . S
O320 Mn321 2.290 . S
O320 C331 1.278 1_455 S
Mn321 O320 2.290 . S
Mn321 O323 2.089 . S
Mn321 O326 2.251 1_455 S
Mn321 O327 2.087 1_455 S
O322 Mn316 2.163 1_655 S
O322 C332 1.244 . S
O323 Mn321 2.089 . S
O323 C330 1.256 . S
O324 Mn316 2.160 . S
O324 C333 1.239 1_556 S
O325 Mn318 2.089 . S
O325 C333 1.256 . S
O326 Mn321 2.251 1_655 S
O326 C331 1.241 . S
O327 Mn321 2.087 1_655 S
O327 C332 1.256 . S
C328 O334 1.278 1_655 S
C328 O335 1.241 . S
C329 O315 1.244 1_554 S
C329 O317 1.256 . S
C330 O319 1.239 . S
C330 O323 1.256 . S
C331 O320 1.278 1_655 S
C331 O326 1.241 . S
C332 O322 1.244 . S
C332 O327 1.256 . S
C333 O324 1.239 1_554 S
C333 O325 1.256 . S
O334 Mn316 2.221 . S
O334 Mn318 2.290 1_556 S
O334 C328 1.278 1_455 S
O335 Mn318 2.251 1_656 S
O335 C328 1.241 . S
C336 C337 1.369 . S
C336 C338 1.419 . S
C336 H340 0.930 . S
C337 C336 1.369 . S
C337 C346 1.429 . S
C338 C336 1.419 . S
C338 C339 1.363 . S
C338 H341 0.929 . S
C339 C338 1.363 . S
C339 C345 1.428 . S
H340 C336 0.930 . S
H341 C338 0.929 . S
S342 N343 1.613 1_556 S
S342 N344 1.610 . S
N343 S342 1.613 1_554 S
N343 C346 1.350 1_554 S
N344 S342 1.610 . S
N344 C345 1.351 . S
C345 C339 1.428 . S
C345 N344 1.351 . S
C345 C346 1.434 . S
C346 C337 1.429 . S
C346 N343 1.350 1_556 S
C346 C345 1.434 . S
C347 C348 1.369 . S
C347 C349 1.419 . S
C347 H351 0.930 . S
C348 C347 1.369 . S
C348 C357 1.429 . S
C349 C347 1.419 . S
C349 C350 1.363 . S
C349 H352 0.929 . S
C350 C349 1.363 . S
C350 C356 1.428 . S
H351 C347 0.930 . S
H352 C349 0.929 . S
S353 N354 1.613 . S
S353 N355 1.610 . S
N354 S353 1.613 . S
N354 C357 1.350 . S
N355 S353 1.610 . S
N355 C356 1.351 . S
C356 C350 1.428 . S
C356 N355 1.351 . S
C356 C357 1.434 . S
C357 C348 1.429 . S
C357 N354 1.350 . S
C357 C356 1.434 . S
C358 C359 1.369 . S
C358 C360 1.419 . S
C358 H362 0.930 . S
C359 C358 1.369 . S
C359 C368 1.429 . S
C360 C358 1.419 . S
C360 C361 1.363 . S
C360 H363 0.929 . S
C361 C360 1.363 . S
C361 C367 1.428 . S
H362 C358 0.930 . S
H363 C360 0.929 . S
S364 N365 1.613 . S
S364 N366 1.610 . S
N365 S364 1.613 . S
N365 C368 1.350 . S
N366 S364 1.610 . S
N366 C367 1.351 . S
C367 C361 1.428 . S
C367 N366 1.351 . S
C367 C368 1.434 . S
C368 C359 1.429 . S
C368 N365 1.350 . S
C368 C367 1.434 . S
C369 C370 1.369 . S
C369 C371 1.419 . S
C369 H373 0.930 . S
C370 C369 1.369 . S
C370 C379 1.429 . S
C371 C369 1.419 . S
C371 C372 1.363 . S
C371 H374 0.929 . S
C372 C371 1.363 . S
C372 C378 1.428 . S
H373 C369 0.930 . S
H374 C371 0.929 . S
S375 N376 1.613 . S
S375 N377 1.610 . S
N376 S375 1.613 . S
N376 C379 1.350 . S
N377 S375 1.610 . S
N377 C378 1.351 . S
C378 C372 1.428 . S
C378 N377 1.351 . S
C378 C379 1.434 . S
C379 C370 1.429 . S
C379 N376 1.350 . S
C379 C378 1.434 . S
C380 C381 1.369 . S
C380 C382 1.419 . S
C380 H384 0.930 . S
C381 C380 1.369 . S
C381 C390 1.429 . S
C382 C380 1.419 . S
C382 C383 1.363 . S
C382 H385 0.929 . S
C383 C382 1.363 . S
C383 C389 1.428 . S
H384 C380 0.930 . S
H385 C382 0.929 . S
S386 N387 1.613 . S
S386 N388 1.610 . S
N387 S386 1.613 . S
N387 C390 1.350 . S
N388 S386 1.610 . S
N388 C389 1.351 . S
C389 C383 1.428 . S
C389 N388 1.351 . S
C389 C390 1.434 . S
C390 C381 1.429 . S
C390 N387 1.350 . S
C390 C389 1.434 . S
C391 C392 1.369 . S
C391 C393 1.419 . S
C391 H395 0.930 . S
C392 C391 1.369 . S
C392 C401 1.429 . S
C393 C391 1.419 . S
C393 C394 1.363 . S
C393 H396 0.929 . S
C394 C393 1.363 . S
C394 C400 1.428 . S
H395 C391 0.930 . S
H396 C393 0.929 . S
S397 N398 1.613 . S
S397 N399 1.610 . S
N398 S397 1.613 . S
N398 C401 1.350 . S
N399 S397 1.610 . S
N399 C400 1.351 . S
C400 C394 1.428 . S
C400 N399 1.351 . S
C400 C401 1.434 . S
C401 C392 1.429 . S
C401 N398 1.350 . S
C401 C400 1.434 . S
C402 C403 1.369 . S
C402 C404 1.419 . S
C402 H406 0.930 . S
C403 C402 1.369 . S
C403 C412 1.429 . S
C404 C402 1.419 . S
C404 C405 1.363 . S
C404 H407 0.929 . S
C405 C404 1.363 . S
C405 C411 1.428 . S
H406 C402 0.930 . S
H407 C404 0.929 . S
S408 N409 1.613 . S
S408 N410 1.610 . S
N409 S408 1.613 . S
N409 C412 1.350 . S
N410 S408 1.610 . S
N410 C411 1.351 . S
C411 C405 1.428 . S
C411 N410 1.351 . S
C411 C412 1.434 . S
C412 C403 1.429 . S
C412 N409 1.350 . S
C412 C411 1.434 . S
C413 C414 1.369 . S
C413 C415 1.419 . S
C413 H417 0.930 . S
C414 C413 1.369 . S
C414 C423 1.429 . S
C415 C413 1.419 . S
C415 C416 1.363 . S
C415 H418 0.929 . S
C416 C415 1.363 . S
C416 C422 1.428 . S
H417 C413 0.930 . S
H418 C415 0.929 . S
S419 N420 1.613 . S
S419 N421 1.610 . S
N420 S419 1.613 . S
N420 C423 1.350 . S
N421 S419 1.610 . S
N421 C422 1.351 . S
C422 C416 1.428 . S
C422 N421 1.351 . S
C422 C423 1.434 . S
C423 C414 1.429 . S
C423 N420 1.350 . S
C423 C422 1.434 . S
C424 C425 1.369 . S
C424 C426 1.419 . S
C424 H428 0.930 . S
C425 C424 1.369 . S
C425 C434 1.429 . S
C426 C424 1.419 . S
C426 C427 1.363 . S
C426 H429 0.929 . S
C427 C426 1.363 . S
C427 C433 1.428 . S
H428 C424 0.930 . S
H429 C426 0.929 . S
S430 N431 1.613 . S
S430 N432 1.610 . S
N431 S430 1.613 . S
N431 C434 1.350 . S
N432 S430 1.610 . S
N432 C433 1.351 . S
C433 C427 1.428 . S
C433 N432 1.351 . S
C433 C434 1.434 . S
C434 C425 1.429 . S
C434 N431 1.350 . S
C434 C433 1.434 . S
C435 C436 1.369 . S
C435 C437 1.419 . S
C435 H439 0.930 . S
C436 C435 1.369 . S
C436 C445 1.429 . S
C437 C435 1.419 . S
C437 C438 1.363 . S
C437 H440 0.929 . S
C438 C437 1.363 . S
C438 C444 1.428 . S
H439 C435 0.930 . S
H440 C437 0.929 . S
S441 N442 1.613 . S
S441 N443 1.610 . S
N442 S441 1.613 . S
N442 C445 1.350 . S
N443 S441 1.610 . S
N443 C444 1.351 . S
C444 C438 1.428 . S
C444 N443 1.351 . S
C444 C445 1.434 . S
C445 C436 1.429 . S
C445 N442 1.350 . S
C445 C444 1.434 . S
C446 C447 1.369 . S
C446 C448 1.419 . S
C446 H450 0.930 . S
C447 C446 1.369 . S
C447 C456 1.429 . S
C448 C446 1.419 . S
C448 C449 1.363 . S
C448 H451 0.929 . S
C449 C448 1.363 . S
C449 C455 1.428 . S
H450 C446 0.930 . S
H451 C448 0.929 . S
S452 N453 1.613 1_556 S
S452 N454 1.610 . S
N453 S452 1.613 1_554 S
N453 C456 1.350 1_554 S
N454 S452 1.610 . S
N454 C455 1.351 . S
C455 C449 1.428 . S
C455 N454 1.351 . S
C455 C456 1.434 . S
C456 C447 1.429 . S
C456 N453 1.350 1_556 S
C456 C455 1.434 . S
C457 C458 1.369 . S
C457 C459 1.419 . S
C457 H461 0.930 . S
C458 C457 1.369 . S
C458 C467 1.429 . S
C459 C457 1.419 . S
C459 C460 1.363 . S
C459 H462 0.929 . S
C460 C459 1.363 . S
C460 C466 1.428 . S
H461 C457 0.930 . S
H462 C459 0.929 . S
S463 N464 1.613 . S
S463 N465 1.610 1_554 S
N464 S463 1.613 . S
N464 C467 1.350 . S
N465 S463 1.610 1_556 S
N465 C466 1.351 1_556 S
C466 C460 1.428 . S
C466 N465 1.351 1_554 S
C466 C467 1.434 . S
C467 C458 1.429 . S
C467 N464 1.350 . S
C467 C466 1.434 . S
C468 C469 1.369 . S
C468 C470 1.419 . S
C468 H472 0.930 . S
C469 C468 1.369 . S
C469 C478 1.429 . S
C470 C468 1.419 . S
C470 C471 1.363 . S
C470 H473 0.929 . S
C471 C470 1.363 . S
C471 C477 1.428 . S
H472 C468 0.930 . S
H473 C470 0.929 . S
S474 N475 1.613 . S
S474 N476 1.610 . S
N475 S474 1.613 . S
N475 C478 1.350 . S
N476 S474 1.610 . S
N476 C477 1.351 . S
C477 C471 1.428 . S
C477 N476 1.351 . S
C477 C478 1.434 . S
C478 C469 1.429 . S
C478 N475 1.350 . S
C478 C477 1.434 . S
C479 C480 1.369 . S
C479 C481 1.419 . S
C479 H483 0.930 . S
C480 C479 1.369 . S
C480 C489 1.429 . S
C481 C479 1.419 . S
C481 C482 1.363 . S
C481 H484 0.929 . S
C482 C481 1.363 . S
C482 C488 1.428 . S
H483 C479 0.930 . S
H484 C481 0.929 . S
S485 N486 1.613 . S
S485 N487 1.610 . S
N486 S485 1.613 . S
N486 C489 1.350 . S
N487 S485 1.610 . S
N487 C488 1.351 . S
C488 C482 1.428 . S
C488 N487 1.351 . S
C488 C489 1.434 . S
C489 C480 1.429 . S
C489 N486 1.350 . S
C489 C488 1.434 . S
C490 C491 1.369 . S
C490 C492 1.419 . S
C490 H494 0.930 . S
C491 C490 1.369 . S
C491 C500 1.429 . S
C492 C490 1.419 . S
C492 C493 1.363 . S
C492 H495 0.929 . S
C493 C492 1.363 . S
C493 C499 1.428 . S
H494 C490 0.930 . S
H495 C492 0.929 . S
S496 N497 1.613 . S
S496 N498 1.610 . S
N497 S496 1.613 . S
N497 C500 1.350 . S
N498 S496 1.610 . S
N498 C499 1.351 . S
C499 C493 1.428 . S
C499 N498 1.351 . S
C499 C500 1.434 . S
C500 C491 1.429 . S
C500 N497 1.350 . S
C500 C499 1.434 . S
C501 C502 1.369 . S
C501 C503 1.419 . S
C501 H505 0.930 . S
C502 C501 1.369 . S
C502 C511 1.429 . S
C503 C501 1.419 . S
C503 C504 1.363 . S
C503 H506 0.929 . S
C504 C503 1.363 . S
C504 C510 1.428 . S
H505 C501 0.930 . S
H506 C503 0.929 . S
S507 N508 1.613 . S
S507 N509 1.610 1_556 S
N508 S507 1.613 . S
N508 C511 1.350 . S
N509 S507 1.610 1_554 S
N509 C510 1.351 1_554 S
C510 C504 1.428 . S
C510 N509 1.351 1_556 S
C510 C511 1.434 . S
C511 C502 1.429 . S
C511 N508 1.350 . S
C511 C510 1.434 . S
C512 C513 1.369 1_455 S
C512 C514 1.419 . S
C512 H516 0.930 1_455 S
C513 C512 1.369 1_655 S
C513 C522 1.429 . S
C514 C512 1.419 . S
C514 C515 1.363 . S
C514 H517 0.929 . S
C515 C514 1.363 . S
C515 C521 1.428 . S
H516 C512 0.930 1_655 S
H517 C514 0.929 . S
S518 N519 1.613 . S
S518 N520 1.610 1_655 S
N519 S518 1.613 . S
N519 C522 1.350 . S
N520 S518 1.610 1_455 S
N520 C521 1.351 . S
C521 C515 1.428 . S
C521 N520 1.351 . S
C521 C522 1.434 1_455 S
C522 C513 1.429 . S
C522 N519 1.350 . S
C522 C521 1.434 1_655 S
C523 C524 1.369 . S
C523 C525 1.419 1_655 S
C523 H527 0.930 . S
C524 C523 1.369 . S
C524 C533 1.429 . S
C525 C523 1.419 1_455 S
C525 C526 1.363 . S
C525 H528 0.929 . S
C526 C525 1.363 . S
C526 C532 1.428 . S
H527 C523 0.930 . S
H528 C525 0.929 . S
S529 N530 1.613 1_455 S
S529 N531 1.610 . S
N530 S529 1.613 1_655 S
N530 C533 1.350 . S
N531 S529 1.610 . S
N531 C532 1.351 . S
C532 C526 1.428 . S
C532 N531 1.351 . S
C532 C533 1.434 1_455 S
C533 C524 1.429 . S
C533 N530 1.350 . S
C533 C532 1.434 1_655 S
C534 C535 1.369 . S
C534 C536 1.419 . S
C534 H538 0.930 . S
C535 C534 1.369 . S
C535 C544 1.429 . S
C536 C534 1.419 . S
C536 C537 1.363 . S
C536 H539 0.929 . S
C537 C536 1.363 . S
C537 C543 1.428 . S
H538 C534 0.930 . S
H539 C536 0.929 . S
S540 N541 1.613 . S
S540 N542 1.610 . S
N541 S540 1.613 . S
N541 C544 1.350 . S
N542 S540 1.610 . S
N542 C543 1.351 . S
C543 C537 1.428 . S
C543 N542 1.351 . S
C543 C544 1.434 . S
C544 C535 1.429 . S
C544 N541 1.350 . S
C544 C543 1.434 . S
C545 C546 1.369 . S
C545 C547 1.419 . S
C545 H549 0.930 . S
C546 C545 1.369 . S
C546 C555 1.429 . S
C547 C545 1.419 . S
C547 C548 1.363 . S
C547 H550 0.929 . S
C548 C547 1.363 . S
C548 C554 1.428 . S
H549 C545 0.930 . S
H550 C547 0.929 . S
S551 N552 1.613 . S
S551 N553 1.610 . S
N552 S551 1.613 . S
N552 C555 1.350 1_554 S
N553 S551 1.610 . S
N553 C554 1.351 1_554 S
C554 C548 1.428 . S
C554 N553 1.351 1_556 S
C554 C555 1.434 . S
C555 C546 1.429 . S
C555 N552 1.350 1_556 S
C555 C554 1.434 . S
C556 C557 1.369 . S
C556 C558 1.419 . S
C556 H560 0.930 . S
C557 C556 1.369 . S
C557 C566 1.429 1_455 S
C558 C556 1.419 . S
C558 C559 1.363 1_455 S
C558 H561 0.929 . S
C559 C558 1.363 1_655 S
C559 C565 1.428 . S
H560 C556 0.930 . S
H561 C558 0.929 . S
S562 N563 1.613 . S
S562 N564 1.610 . S
N563 S562 1.613 . S
N563 C566 1.350 . S
N564 S562 1.610 . S
N564 C565 1.351 . S
C565 C559 1.428 . S
C565 N564 1.351 . S
C565 C566 1.434 . S
C566 C557 1.429 1_655 S
C566 N563 1.350 . S
C566 C565 1.434 . S
C567 C568 1.369 . S
C567 C569 1.419 . S
C567 H571 0.930 . S
C568 C567 1.369 . S
C568 C577 1.429 . S
C569 C567 1.419 . S
C569 C570 1.363 . S
C569 H572 0.929 . S
C570 C569 1.363 . S
C570 C576 1.428 . S
H571 C567 0.930 . S
H572 C569 0.929 . S
S573 N574 1.609 1_556 S
S573 N575 1.606 1_556 S
N574 S573 1.609 1_554 S
N574 C577 1.350 . S
N575 S573 1.606 1_554 S
N575 C576 1.351 . S
C576 C570 1.428 . S
C576 N575 1.351 . S
C576 C577 1.434 . S
C577 C568 1.429 . S
C577 N574 1.350 . S
C577 C576 1.434 . S
C578 C579 1.369 . S
C578 C580 1.419 . S
C578 H582 0.930 . S
C579 C578 1.369 . S
C579 C588 1.429 . S
C580 C578 1.419 . S
C580 C581 1.363 . S
C580 H583 0.929 . S
C581 C580 1.363 . S
C581 C587 1.428 . S
H582 C578 0.930 . S
H583 C580 0.929 . S
S584 N585 1.613 . S
S584 N586 1.610 . S
N585 S584 1.613 . S
N585 C588 1.350 . S
N586 S584 1.610 . S
N586 C587 1.351 . S
C587 C581 1.428 . S
C587 N586 1.351 . S
C587 C588 1.434 . S
C588 C579 1.429 . S
C588 N585 1.350 . S
C588 C587 1.434 . S
C589 C590 1.369 . S
C589 C591 1.419 1_455 S
C589 H593 0.930 . S
C590 C589 1.369 . S
C590 C599 1.429 . S
C591 C589 1.419 1_655 S
C591 C592 1.363 . S
C591 H594 0.929 . S
C592 C591 1.363 . S
C592 C598 1.428 . S
H593 C589 0.930 . S
H594 C591 0.929 . S
S595 N596 1.613 1_655 S
S595 N597 1.610 . S
N596 S595 1.613 1_455 S
N596 C599 1.350 . S
N597 S595 1.610 . S
N597 C598 1.351 . S
C598 C592 1.428 . S
C598 N597 1.351 . S
C598 C599 1.434 1_655 S
C599 C590 1.429 . S
C599 N596 1.350 . S
C599 C598 1.434 1_455 S
C600 C601 1.369 1_565 S
C600 C602 1.419 . S
C600 H604 0.930 . S
C601 C600 1.369 1_545 S
C601 C610 1.429 1_554 S
C602 C600 1.419 . S
C602 C603 1.363 1_554 S
C602 H605 0.929 . S
C603 C602 1.363 1_556 S
C603 C609 1.428 1_565 S
H604 C600 0.930 . S
H605 C602 0.929 . S
S606 N607 1.613 . S
S606 N608 1.610 . S
N607 S606 1.613 . S
N607 C610 1.350 . S
N608 S606 1.610 . S
N608 C609 1.351 . S
C609 C603 1.428 1_545 S
C609 N608 1.351 . S
C609 C610 1.434 . S
C610 C601 1.429 1_556 S
C610 N607 1.350 . S
C610 C609 1.434 . S
C611 C612 1.369 . S
C611 C613 1.419 . S
C611 H615 0.930 . S
C612 C611 1.369 . S
C612 C621 1.429 . S
C613 C611 1.419 . S
C613 C614 1.363 . S
C613 H616 0.929 . S
C614 C613 1.363 . S
C614 C620 1.428 . S
H615 C611 0.930 . S
H616 C613 0.929 . S
S617 N618 1.613 . S
S617 N619 1.610 . S
N618 S617 1.613 . S
N618 C621 1.350 . S
N619 S617 1.610 . S
N619 C620 1.351 . S
C620 C614 1.428 . S
C620 N619 1.351 . S
C620 C621 1.434 . S
C621 C612 1.429 . S
C621 N618 1.350 . S
C621 C620 1.434 . S
C622 C623 1.369 1_565 S
C622 C624 1.419 . S
C622 H626 0.930 . S
C623 C622 1.369 1_545 S
C623 C632 1.429 . S
C624 C622 1.419 . S
C624 C625 1.363 . S
C624 H627 0.929 . S
C625 C624 1.363 . S
C625 C631 1.428 1_565 S
H626 C622 0.930 . S
H627 C624 0.929 . S
S628 N629 1.613 . S
S628 N630 1.610 . S
N629 S628 1.613 . S
N629 C632 1.350 . S
N630 S628 1.610 . S
N630 C631 1.351 . S
C631 C625 1.428 1_545 S
C631 N630 1.351 . S
C631 C632 1.434 . S
C632 C623 1.429 . S
C632 N629 1.350 . S
C632 C631 1.434 . S
C633 C634 1.369 . S
C633 C635 1.419 . S
C633 H637 0.930 . S
C634 C633 1.369 . S
C634 C643 1.429 . S
C635 C633 1.419 . S
C635 C636 1.363 . S
C635 H638 0.929 . S
C636 C635 1.363 . S
C636 C642 1.428 . S
H637 C633 0.930 . S
H638 C635 0.929 . S
S639 N640 1.613 . S
S639 N641 1.610 . S
N640 S639 1.613 . S
N640 C643 1.350 . S
N641 S639 1.610 . S
N641 C642 1.351 . S
C642 C636 1.428 . S
C642 N641 1.351 . S
C642 C643 1.434 . S
C643 C634 1.429 . S
C643 N640 1.350 . S
C643 C642 1.434 . S
C644 C645 1.369 . S
C644 C646 1.419 . S
C644 H648 0.930 . S
C645 C644 1.369 . S
C645 C654 1.429 . S
C646 C644 1.419 . S
C646 C647 1.363 . S
C646 H649 0.929 . S
C647 C646 1.363 . S
C647 C653 1.428 . S
H648 C644 0.930 . S
H649 C646 0.929 . S
S650 N651 1.613 . S
S650 N652 1.610 . S
N651 S650 1.613 . S
N651 C654 1.350 . S
N652 S650 1.610 . S
N652 C653 1.351 . S
C653 C647 1.428 . S
C653 N652 1.351 . S
C653 C654 1.434 . S
C654 C645 1.429 . S
C654 N651 1.350 . S
C654 C653 1.434 . S
C655 C656 1.369 . S
C655 C657 1.419 . S
C655 H659 0.930 . S
C656 C655 1.369 . S
C656 C665 1.429 . S
C657 C655 1.419 . S
C657 C658 1.363 . S
C657 H660 0.929 . S
C658 C657 1.363 . S
C658 C664 1.428 . S
H659 C655 0.930 . S
H660 C657 0.929 . S
S661 N662 1.613 . S
S661 N663 1.610 . S
N662 S661 1.613 . S
N662 C665 1.350 . S
N663 S661 1.610 . S
N663 C664 1.351 . S
C664 C658 1.428 . S
C664 N663 1.351 . S
C664 C665 1.434 . S
C665 C656 1.429 . S
C665 N662 1.350 . S
C665 C664 1.434 . S
C666 C667 1.369 . S
C666 C668 1.419 . S
C666 H670 0.930 . S
C667 C666 1.369 . S
C667 C676 1.429 . S
C668 C666 1.419 . S
C668 C669 1.363 . S
C668 H671 0.929 . S
C669 C668 1.363 . S
C669 C675 1.428 . S
H670 C666 0.930 . S
H671 C668 0.929 . S
S672 N673 1.613 . S
S672 N674 1.610 . S
N673 S672 1.613 . S
N673 C676 1.350 . S
N674 S672 1.610 . S
N674 C675 1.351 . S
C675 C669 1.428 . S
C675 N674 1.351 . S
C675 C676 1.434 . S
C676 C667 1.429 . S
C676 N673 1.350 . S
C676 C675 1.434 . S
C677 C678 1.369 . S
C677 C679 1.419 1_556 S
C677 H681 0.930 . S
C678 C677 1.369 . S
C678 C687 1.429 1_655 S
C679 C677 1.419 1_554 S
C679 C680 1.363 . S
C679 H682 0.929 . S
C680 C679 1.363 . S
C680 C686 1.428 1_655 S
H681 C677 0.930 . S
H682 C679 0.929 . S
S683 N684 1.613 . S
S683 N685 1.610 1_556 S
N684 S683 1.613 . S
N684 C687 1.350 . S
N685 S683 1.610 1_554 S
N685 C686 1.351 . S
C686 C680 1.428 1_455 S
C686 N685 1.351 . S
C686 C687 1.434 1_554 S
C687 C678 1.429 1_455 S
C687 N684 1.350 . S
C687 C686 1.434 1_556 S
C688 C689 1.369 . S
C688 C690 1.419 . S
C688 H692 0.930 . S
C689 C688 1.369 . S
C689 C698 1.429 . S
C690 C688 1.419 . S
C690 C691 1.363 . S
C690 H693 0.929 . S
C691 C690 1.363 . S
C691 C697 1.428 . S
H692 C688 0.930 . S
H693 C690 0.929 . S
S694 N695 1.613 . S
S694 N696 1.610 . S
N695 S694 1.613 . S
N695 C698 1.350 . S
N696 S694 1.610 . S
N696 C697 1.351 . S
C697 C691 1.428 . S
C697 N696 1.351 . S
C697 C698 1.434 . S
C698 C689 1.429 . S
C698 N695 1.350 . S
C698 C697 1.434 . S
C699 C700 1.369 . S
C699 C701 1.419 . S
C699 H703 0.930 . S
C700 C699 1.369 . S
C700 C709 1.429 . S
C701 C699 1.419 . S
C701 C702 1.363 . S
C701 H704 0.929 . S
C702 C701 1.363 . S
C702 C708 1.428 . S
H703 C699 0.930 . S
H704 C701 0.929 . S
S705 N706 1.613 . S
S705 N707 1.610 . S
N706 S705 1.613 . S
N706 C709 1.350 . S
N707 S705 1.610 . S
N707 C708 1.351 . S
C708 C702 1.428 . S
C708 N707 1.351 . S
C708 C709 1.434 . S
C709 C700 1.429 . S
C709 N706 1.350 . S
C709 C708 1.434 . S
C710 C711 1.369 . S
C710 C712 1.419 . S
C710 H714 0.930 . S
C711 C710 1.369 . S
C711 C720 1.429 . S
C712 C710 1.419 . S
C712 C713 1.363 . S
C712 H715 0.929 . S
C713 C712 1.363 . S
C713 C719 1.428 . S
H714 C710 0.930 . S
H715 C712 0.929 . S
S716 N717 1.613 1_556 S
S716 N718 1.610 . S
N717 S716 1.613 1_554 S
N717 C720 1.350 1_554 S
N718 S716 1.610 . S
N718 C719 1.351 . S
C719 C713 1.428 . S
C719 N718 1.351 . S
C719 C720 1.434 . S
C720 C711 1.429 . S
C720 N717 1.350 1_556 S
C720 C719 1.434 . S
C721 C722 1.369 . S
C721 C723 1.419 . S
C721 H725 0.930 . S
C722 C721 1.369 . S
C722 C731 1.429 . S
C723 C721 1.419 . S
C723 C724 1.363 . S
C723 H726 0.929 . S
C724 C723 1.363 . S
C724 C730 1.428 . S
H725 C721 0.930 . S
H726 C723 0.929 . S
S727 N728 1.613 . S
S727 N729 1.610 . S
N728 S727 1.613 . S
N728 C731 1.350 . S
N729 S727 1.610 . S
N729 C730 1.351 . S
C730 C724 1.428 . S
C730 N729 1.351 . S
C730 C731 1.434 . S
C731 C722 1.429 . S
C731 N728 1.350 . S
C731 C730 1.434 . S
C732 C733 1.369 . S
C732 C734 1.419 . S
C732 H736 0.930 . S
C733 C732 1.369 . S
C733 C742 1.429 . S
C734 C732 1.419 . S
C734 C735 1.363 . S
C734 H737 0.929 . S
C735 C734 1.363 . S
C735 C741 1.428 . S
H736 C732 0.930 . S
H737 C734 0.929 . S
S738 N739 1.613 . S
S738 N740 1.610 . S
N739 S738 1.613 . S
N739 C742 1.350 . S
N740 S738 1.610 . S
N740 C741 1.351 . S
C741 C735 1.428 . S
C741 N740 1.351 . S
C741 C742 1.434 . S
C742 C733 1.429 . S
C742 N739 1.350 . S
C742 C741 1.434 . S
C743 C744 1.369 . S
C743 C745 1.419 . S
C743 H747 0.930 . S
C744 C743 1.369 . S
C744 C753 1.429 . S
C745 C743 1.419 . S
C745 C746 1.363 . S
C745 H748 0.929 . S
C746 C745 1.363 . S
C746 C752 1.428 . S
H747 C743 0.930 . S
H748 C745 0.929 . S
S749 N750 1.613 . S
S749 N751 1.610 . S
N750 S749 1.613 . S
N750 C753 1.350 . S
N751 S749 1.610 . S
N751 C752 1.351 . S
C752 C746 1.428 . S
C752 N751 1.351 . S
C752 C753 1.434 . S
C753 C744 1.429 . S
C753 N750 1.350 . S
C753 C752 1.434 . S
C754 C755 1.369 . S
C754 C756 1.419 . S
C754 H758 0.930 . S
C755 C754 1.369 . S
C755 C764 1.429 . S
C756 C754 1.419 . S
C756 C757 1.363 . S
C756 H759 0.929 . S
C757 C756 1.363 . S
C757 C763 1.428 . S
H758 C754 0.930 . S
H759 C756 0.929 . S
S760 N761 1.613 . S
S760 N762 1.610 . S
N761 S760 1.613 . S
N761 C764 1.350 . S
N762 S760 1.610 . S
N762 C763 1.351 . S
C763 C757 1.428 . S
C763 N762 1.351 . S
C763 C764 1.434 . S
C764 C755 1.429 . S
C764 N761 1.350 . S
C764 C763 1.434 . S
C765 C766 1.369 . S
C765 C767 1.419 . S
C765 H769 0.930 . S
C766 C765 1.369 . S
C766 C775 1.429 . S
C767 C765 1.419 . S
C767 C768 1.363 . S
C767 H770 0.929 . S
C768 C767 1.363 . S
C768 C774 1.428 . S
H769 C765 0.930 . S
H770 C767 0.929 . S
S771 N772 1.613 . S
S771 N773 1.610 . S
N772 S771 1.613 . S
N772 C775 1.350 . S
N773 S771 1.610 . S
N773 C774 1.351 . S
C774 C768 1.428 . S
C774 N773 1.351 . S
C774 C775 1.434 . S
C775 C766 1.429 . S
C775 N772 1.350 . S
C775 C774 1.434 . S
C776 C777 1.369 . S
C776 C778 1.419 . S
C776 H780 0.930 . S
C777 C776 1.369 . S
C777 C786 1.429 . S
C778 C776 1.419 . S
C778 C779 1.363 . S
C778 H781 0.929 . S
C779 C778 1.363 . S
C779 C785 1.428 . S
H780 C776 0.930 . S
H781 C778 0.929 . S
S782 N783 1.613 . S
S782 N784 1.610 . S
N783 S782 1.613 . S
N783 C786 1.350 . S
N784 S782 1.610 . S
N784 C785 1.351 . S
C785 C779 1.428 . S
C785 N784 1.351 . S
C785 C786 1.434 . S
C786 C777 1.429 . S
C786 N783 1.350 . S
C786 C785 1.434 . S
C787 C788 1.369 . S
C787 C789 1.419 . S
C787 H791 0.930 . S
C788 C787 1.369 . S
C788 C797 1.429 . S
C789 C787 1.419 . S
C789 C790 1.363 . S
C789 H792 0.929 . S
C790 C789 1.363 . S
C790 C796 1.428 . S
H791 C787 0.930 . S
H792 C789 0.929 . S
S793 N794 1.613 . S
S793 N795 1.610 . S
N794 S793 1.613 . S
N794 C797 1.350 . S
N795 S793 1.610 . S
N795 C796 1.351 . S
C796 C790 1.428 . S
C796 N795 1.351 . S
C796 C797 1.434 . S
C797 C788 1.429 . S
C797 N794 1.350 . S
C797 C796 1.434 . S
C798 C799 1.369 . S
C798 C800 1.419 . S
C798 H802 0.930 . S
C799 C798 1.369 . S
C799 C808 1.429 . S
C800 C798 1.419 . S
C800 C801 1.363 . S
C800 H803 0.929 . S
C801 C800 1.363 . S
C801 C807 1.428 . S
H802 C798 0.930 . S
H803 C800 0.929 . S
S804 N805 1.613 . S
S804 N806 1.610 . S
N805 S804 1.613 . S
N805 C808 1.350 . S
N806 S804 1.610 . S
N806 C807 1.351 . S
C807 C801 1.428 . S
C807 N806 1.351 . S
C807 C808 1.434 . S
C808 C799 1.429 . S
C808 N805 1.350 . S
C808 C807 1.434 . S
C809 C810 1.369 . S
C809 C811 1.419 . S
C809 H813 0.930 . S
C810 C809 1.369 . S
C810 C819 1.429 . S
C811 C809 1.419 . S
C811 C812 1.363 . S
C811 H814 0.929 . S
C812 C811 1.363 . S
C812 C818 1.428 . S
H813 C809 0.930 . S
H814 C811 0.929 . S
S815 N816 1.613 . S
S815 N817 1.610 . S
N816 S815 1.613 . S
N816 C819 1.350 . S
N817 S815 1.610 . S
N817 C818 1.351 . S
C818 C812 1.428 . S
C818 N817 1.351 . S
C818 C819 1.434 . S
C819 C810 1.429 . S
C819 N816 1.350 . S
C819 C818 1.434 . S
C820 C821 1.369 . S
C820 C822 1.419 . S
C820 H824 0.930 . S
C821 C820 1.369 . S
C821 C830 1.429 . S
C822 C820 1.419 . S
C822 C823 1.363 . S
C822 H825 0.929 . S
C823 C822 1.363 . S
C823 C829 1.428 . S
H824 C820 0.930 . S
H825 C822 0.929 . S
S826 N827 1.613 . S
S826 N828 1.610 . S
N827 S826 1.613 . S
N827 C830 1.350 . S
N828 S826 1.610 . S
N828 C829 1.351 . S
C829 C823 1.428 . S
C829 N828 1.351 . S
C829 C830 1.434 . S
C830 C821 1.429 . S
C830 N827 1.350 . S
C830 C829 1.434 . S
C831 C832 1.369 . S
C831 C833 1.419 . S
C831 H835 0.930 . S
C832 C831 1.369 . S
C832 C841 1.429 . S
C833 C831 1.419 . S
C833 C834 1.363 . S
C833 H836 0.929 . S
C834 C833 1.363 . S
C834 C840 1.428 . S
H835 C831 0.930 . S
H836 C833 0.929 . S
S837 N838 1.613 . S
S837 N839 1.610 . S
N838 S837 1.613 . S
N838 C841 1.350 . S
N839 S837 1.610 . S
N839 C840 1.351 . S
C840 C834 1.428 . S
C840 N839 1.351 . S
C840 C841 1.434 . S
C841 C832 1.429 . S
C841 N838 1.350 . S
C841 C840 1.434 . S
C842 C843 1.369 . S
C842 C844 1.419 . S
C842 H846 0.930 . S
C843 C842 1.369 . S
C843 C852 1.429 . S
C844 C842 1.419 . S
C844 C845 1.363 . S
C844 H847 0.929 . S
C845 C844 1.363 . S
C845 C851 1.428 . S
H846 C842 0.930 . S
H847 C844 0.929 . S
S848 N849 1.613 . S
S848 N850 1.610 . S
N849 S848 1.613 . S
N849 C852 1.350 . S
N850 S848 1.610 . S
N850 C851 1.351 . S
C851 C845 1.428 . S
C851 N850 1.351 . S
C851 C852 1.434 . S
C852 C843 1.429 . S
C852 N849 1.350 . S
C852 C851 1.434 . S
C853 C854 1.369 . S
C853 C855 1.419 . S
C853 H857 0.930 . S
C854 C853 1.369 . S
C854 C863 1.429 . S
C855 C853 1.419 . S
C855 C856 1.363 . S
C855 H858 0.929 . S
C856 C855 1.363 . S
C856 C862 1.428 . S
H857 C853 0.930 . S
H858 C855 0.929 . S
S859 N860 1.613 . S
S859 N861 1.610 . S
N860 S859 1.613 . S
N860 C863 1.350 . S
N861 S859 1.610 . S
N861 C862 1.351 . S
C862 C856 1.428 . S
C862 N861 1.351 . S
C862 C863 1.434 . S
C863 C854 1.429 . S
C863 N860 1.350 . S
C863 C862 1.434 . S
C337 C14 1.450 . S
C339 C164 1.456 . S
C348 C38 1.458 . S
C350 C98 1.461 . S
C359 C119 1.459 . S
C361 C56 1.453 . S
C370 C77 1.452 . S
C372 C140 1.450 . S
C381 C249 1.335 . S
C383 C102 1.335 . S
C392 C186 1.337 . S
C394 C18 1.335 . S
C403 C225 1.331 . S
C405 C144 1.329 . S
C414 C60 1.337 . S
C416 C204 1.334 . S
C425 C206 1.457 . S
C427 C266 1.452 . S
C436 C227 1.463 . S
C438 C308 1.458 . S
C447 C287 1.449 . S
C449 C182 1.455 . S
C458 C245 1.462 . S
C460 C329 1.457 . S
C469 C312 1.323 . S
C471 C81 1.326 . S
C480 C270 1.322 . S
C482 C123 1.324 . S
C491 C36 1.324 . S
C493 C333 1.327 . S
C502 C162 1.327 . S
C504 C291 1.326 . S
C513 C286 0.743 . S
C515 C13 0.740 . S
C524 C244 0.714 . S
C526 C37 0.715 . S
C535 C265 0.742 . S
C537 C55 0.735 . S
C546 C226 0.744 . S
C548 C76 0.740 . S
C557 C97 0.735 . S
C559 C328 0.737 . S
C568 C205 0.741 . S
C570 C118 0.735 . S
C579 C139 0.740 . S
C581 C307 0.733 . S
C590 C163 0.745 . S
C592 C181 0.740 . S
C601 C16 1.340 . S
C603 C100 1.333 . S
C612 C34 1.337 . S
C614 C121 1.335 . S
C623 C142 1.340 . S
C625 C58 1.333 . S
C634 C79 1.334 . S
C636 C160 1.338 . S
C645 C223 1.334 . S
C647 C184 1.338 . S
C656 C247 1.336 . S
C658 C202 1.336 . S
C667 C268 1.337 . S
C669 C310 1.335 . S
C678 C331 1.334 . S
C680 C289 1.338 . S
C689 C17 1.562 . S
C691 C161 1.562 . S
C700 C35 1.559 . S
C702 C101 1.562 . S
C711 C122 1.563 . S
C713 C59 1.560 . S
C722 C143 1.563 . S
C724 C80 1.561 . S
C733 C246 1.472 . S
C735 C99 1.469 . S
C744 C183 1.473 . S
C746 C15 1.469 . S
C755 C228 1.469 . S
C757 C141 1.468 . S
C766 C57 1.472 . S
C768 C207 1.469 . S
C777 C269 1.561 . S
C779 C203 1.563 . S
C788 C311 1.563 . S
C790 C224 1.561 . S
C799 C290 1.561 . S
C801 C185 1.560 . S
C810 C332 1.563 . S
C812 C248 1.561 . S
C821 C309 1.473 . S
C823 C78 1.469 . S
C832 C120 1.469 . S
C834 C267 1.468 . S
C843 C39 1.470 . S
C845 C330 1.468 . S
C854 C288 1.469 . S
C856 C165 1.472 . S
