# Generated by pormake.
# Topology smc, (6)-cn, num edge types: 1
# Building blocks:
#     Node 0, Type 0, BuildingBlock: KUMBOL_clean_sbu_0, # of connection points: 6
#     Node 1, Type 0, BuildingBlock: KUMBOL_clean_sbu_0, # of connection points: 6
#     Node 2, Type 0, BuildingBlock: KUMBOL_clean_sbu_0, # of connection points: 6
#     Node 3, Type 0, BuildingBlock: KUMBOL_clean_sbu_0, # of connection points: 6
#     Node 4, Type 0, BuildingBlock: KUMBOL_clean_sbu_0, # of connection points: 6
#     Node 5, Type 0, BuildingBlock: KUMBOL_clean_sbu_0, # of connection points: 6
#     Node 6, Type 0, BuildingBlock: KUMBOL_clean_sbu_0, # of connection points: 6
#     Node 7, Type 0, BuildingBlock: KUMBOL_clean_sbu_0, # of connection points: 6
#     Node 8, Type 0, BuildingBlock: KUMBOL_clean_sbu_0, # of connection points: 6
#     Edge 9, Type (0, 0), BuildingBlock: OJICUG_clean_linker_0, # of connection points: 2
#     Edge 10, Type (0, 0), BuildingBlock: OJICUG_clean_linker_0, # of connection points: 2
#     Edge 11, Type (0, 0), BuildingBlock: OJICUG_clean_linker_0, # of connection points: 2
#     Edge 12, Type (0, 0), BuildingBlock: OJICUG_clean_linker_0, # of connection points: 2
#     Edge 13, Type (0, 0), BuildingBlock: OJICUG_clean_linker_0, # of connection points: 2
#     Edge 14, Type (0, 0), BuildingBlock: OJICUG_clean_linker_0, # of connection points: 2
#     Edge 15, Type (0, 0), BuildingBlock: OJICUG_clean_linker_0, # of connection points: 2
#     Edge 16, Type (0, 0), BuildingBlock: OJICUG_clean_linker_0, # of connection points: 2
#     Edge 17, Type (0, 0), BuildingBlock: OJICUG_clean_linker_0, # of connection points: 2
#     Edge 18, Type (0, 0), BuildingBlock: OJICUG_clean_linker_0, # of connection points: 2
#     Edge 19, Type (0, 0), BuildingBlock: OJICUG_clean_linker_0, # of connection points: 2
#     Edge 20, Type (0, 0), BuildingBlock: OJICUG_clean_linker_0, # of connection points: 2
#     Edge 21, Type (0, 0), BuildingBlock: OJICUG_clean_linker_0, # of connection points: 2
#     Edge 22, Type (0, 0), BuildingBlock: OJICUG_clean_linker_0, # of connection points: 2
#     Edge 23, Type (0, 0), BuildingBlock: OJICUG_clean_linker_0, # of connection points: 2
#     Edge 24, Type (0, 0), BuildingBlock: OJICUG_clean_linker_0, # of connection points: 2
#     Edge 25, Type (0, 0), BuildingBlock: OJICUG_clean_linker_0, # of connection points: 2
#     Edge 26, Type (0, 0), BuildingBlock: OJICUG_clean_linker_0, # of connection points: 2
#     Edge 27, Type (0, 0), BuildingBlock: OJICUG_clean_linker_0, # of connection points: 2
#     Edge 28, Type (0, 0), BuildingBlock: OJICUG_clean_linker_0, # of connection points: 2
#     Edge 29, Type (0, 0), BuildingBlock: OJICUG_clean_linker_0, # of connection points: 2
#     Edge 30, Type (0, 0), BuildingBlock: OJICUG_clean_linker_0, # of connection points: 2
#     Edge 31, Type (0, 0), BuildingBlock: OJICUG_clean_linker_0, # of connection points: 2
#     Edge 32, Type (0, 0), BuildingBlock: OJICUG_clean_linker_0, # of connection points: 2
#     Edge 33, Type (0, 0), BuildingBlock: OJICUG_clean_linker_0, # of connection points: 2
#     Edge 34, Type (0, 0), BuildingBlock: OJICUG_clean_linker_0, # of connection points: 2
#     Edge 35, Type (0, 0), BuildingBlock: OJICUG_clean_linker_0, # of connection points: 2
# Relax obj value: 0.112
# Max RMSD: 0.304
# Mean RMSD: 0.304
data_MOF--net-smc--node1-KUMBOL_clean_sbu_0--edge1-OJICUG_clean_linker_0
_symmetry_space_group_name_H-M    P1
_symmetry_Int_Tables_number       1
_symmetry_cell_setting            triclinic
loop_
_symmetry_equiv_pos_as_xyz
'x, y, z'
_cell_length_a     29.558476
_cell_length_b     29.548948
_cell_length_c     29.147763
_cell_angle_alpha  89.980915
_cell_angle_beta   90.049348
_cell_angle_gamma 120.06774
loop_
_atom_site_label
_atom_site_type_symbol
_atom_site_fract_x
_atom_site_fract_y
_atom_site_fract_z
_atom_type_partial_charge
Gd0 Gd 1.00641 0.38799 0.01352 0.0
Gd1 Gd 0.08203 0.52464 0.98093 0.0
C2 C 1.03374 0.63404 0.04673 0.0
C3 C 1.01087 0.66794 0.98025 0.0
C4 C 1.03614 0.60162 0.97078 0.0
C5 C 0.04324 0.60125 0.01788 0.0
C6 C 1.01978 0.63505 0.95161 0.0
C7 C 1.01816 0.66768 0.0276 0.0
C8 C 0.03972 0.63184 0.0941 0.0
C9 C 0.05415 0.59711 0.11181 0.0
N10 N 0.05819 0.56812 0.03561 0.0
C11 C 0.06329 0.56548 0.08204 0.0
H12 H 0.07368 0.53883 0.09694 0.0
C13 C 0.04181 0.57175 0.89698 0.0
N14 N 0.045 0.56938 0.94372 0.0
C15 C 1.02487 0.60348 0.87664 0.0
C16 C 1.01346 0.63503 0.90408 0.0
H17 H 0.05427 0.5507 0.87486 0.0
H18 H 1.01123 0.69341 0.04922 0.0
H19 H 0.06486 0.35333 0.93372 0.0
H20 H 1.03267 0.65628 0.11731 0.0
H21 H 0.05825 0.59463 0.14849 0.0
H22 H 0.99846 0.69388 0.96607 0.0
H23 H 0.94476 0.35393 0.11518 0.0
H24 H 0.13124 0.27044 0.99933 0.0
H25 H 0.11799 0.31006 0.92978 0.0
H26 H 0.0636 0.24597 0.15237 0.0
H27 H 1.02203 0.60463 0.83967 0.0
H28 H 1.00098 0.66012 0.88815 0.0
H29 H 0.11121 0.24712 0.08269 0.0
H30 H 0.94183 0.30429 0.18398 0.0
N31 N 0.05225 0.3423 1.0054 0.0
C32 C 0.10862 0.29004 1.00138 0.0
C33 C 0.10092 0.31214 0.96195 0.0
C34 C 0.08551 0.29196 0.04263 0.0
C35 C 0.05694 0.31846 0.04346 0.0
C36 C 0.07141 0.33719 0.9644 0.0
N37 N 1.00265 0.34313 0.08166 0.0
C38 C 1.03081 0.31831 0.08273 0.0
C39 C 0.96844 0.30955 0.15646 0.0
C40 C 1.00046 0.28748 0.15956 0.0
C41 C 0.97005 0.33748 0.11716 0.0
C42 C 1.03164 0.29102 0.12213 0.0
H43 H 0.99927 0.26614 0.1902 0.0
O44 O 0.92148 0.35027 0.01668 0.0
O45 O 1.00376 0.46097 0.99886 0.0
O46 O 0.11595 0.50786 0.04864 0.0
O47 O 0.05769 0.42252 0.07407 0.0
O48 O 0.96596 0.42077 0.05747 0.0
O49 O 0.95716 0.31317 0.97975 0.0
O50 O 0.14594 0.57172 0.9345 0.0
O51 O 0.08797 0.45349 0.99171 0.0
O52 O 1.00971 0.39392 0.937 0.0
O53 O 1.02201 0.47664 0.92331 0.0
O54 O 0.1141 0.4924 0.92974 0.0
O55 O 0.14767 0.60082 1.00251 0.0
C56 C 0.97589 0.46016 0.03186 0.0
C57 C 0.06192 0.26656 0.12222 0.0
C58 C 0.08897 0.26718 0.08255 0.0
C59 C 0.91367 0.30844 0.99539 0.0
C60 C 0.87603 0.25838 0.01738 0.0
C61 C 0.89371 0.22879 0.04097 0.0
C62 C 0.82199 0.24118 0.01668 0.0
C63 C 0.78588 0.19509 0.04 0.0
C64 C 0.85844 0.18339 0.06412 0.0
C65 C 0.80516 0.16677 0.06389 0.0
C66 C 0.10021 0.46827 0.07916 0.0
C67 C 0.11536 0.45789 0.9562 0.0
C68 C 0.16867 0.61206 0.96177 0.0
C69 C 0.18292 0.66431 0.94136 0.0
C70 C 0.16545 0.6661 0.89684 0.0
C71 C 0.21573 0.71261 0.96427 0.0
C72 C 0.22912 0.76133 0.94305 0.0
C73 C 0.17726 0.71329 0.87653 0.0
C74 C 0.20858 0.76024 0.89917 0.0
C75 C 1.00335 0.42671 0.91106 0.0
H76 H 0.93483 0.24089 0.04184 0.0
H77 H 0.80838 0.26428 0.9988 0.0
H78 H 0.87248 0.16094 0.08242 0.0
H79 H 0.77899 0.13111 0.08199 0.0
H80 H 0.14319 0.63093 0.87688 0.0
H81 H 0.23111 0.71225 0.99791 0.0
H82 H 0.1631 0.71356 0.84231 0.0
H83 H 0.21863 0.79603 0.881 0.0
Gd84 Gd 0.69636 0.63363 0.01065 0.0
Gd85 Gd 0.55994 0.56693 0.97493 0.0
C86 C 0.45339 0.4123 0.04796 0.0
C87 C 0.43039 0.3491 0.98662 0.0
C88 C 0.4928 0.44136 0.97287 0.0
C89 C 0.48729 0.45282 0.01794 0.0
C90 C 0.46454 0.38906 0.95699 0.0
C91 C 0.42438 0.3608 0.03179 0.0
C92 C 0.44971 0.4245 0.09357 0.0
C93 C 0.47942 0.47597 0.10845 0.0
N94 N 0.51562 0.50316 0.03274 0.0
C95 C 0.51186 0.51488 0.07751 0.0
H96 H 0.53294 0.55394 0.09021 0.0
C97 C 0.5272 0.47066 0.89871 0.0
N98 N 0.52495 0.48108 0.94437 0.0
C99 C 0.50164 0.41942 0.88212 0.0
C100 C 0.47041 0.37837 0.91143 0.0
H101 H 0.54573 0.50153 0.87371 0.0
H102 H 0.39754 0.32954 0.05416 0.0
H103 H 0.73392 0.72491 0.92677 0.0
H104 H 0.42437 0.39446 0.11762 0.0
H105 H 0.47694 0.4859 0.14375 0.0
H106 H 0.40819 0.30898 0.97483 0.0
H107 H 0.72468 0.61076 0.11802 0.0
H108 H 0.81096 0.87567 0.99003 0.0
H109 H 0.77836 0.82106 0.92084 0.0
H110 H 0.81927 0.83786 0.14834 0.0
H111 H 0.50428 0.41186 0.84617 0.0
H112 H 0.44957 0.3388 0.89815 0.0
H113 H 0.82512 0.88164 0.0751 0.0
H114 H 0.76052 0.65968 0.18928 0.0
N115 N 0.74099 0.7249 0.9996 0.0
C116 C 0.79186 0.83351 0.99311 0.0
C117 C 0.77347 0.8026 0.95383 0.0
C118 C 0.78661 0.80976 0.03574 0.0
C119 C 0.7615 0.75471 0.03784 0.0
C120 C 0.74831 0.74806 0.95755 0.0
N121 N 0.73632 0.67731 0.07956 0.0
C122 C 0.75912 0.73025 0.079 0.0
C123 C 0.75985 0.67995 0.1587 0.0
C124 C 0.77964 0.7338 0.15958 0.0
C125 C 0.73909 0.65224 0.11806 0.0
C126 C 0.78073 0.75989 0.11921 0.0
H127 H 0.79508 0.75485 0.19126 0.0
O128 O 0.72998 0.58241 0.0086 0.0
O129 O 0.62442 0.55603 0.99846 0.0
O130 O 0.57455 0.62222 0.03892 0.0
O131 O 0.65794 0.64886 0.06881 0.0
O132 O 0.66401 0.56468 0.05929 0.0
O133 O 0.77673 0.66263 0.98841 0.0
O134 O 0.50414 0.56145 0.92308 0.0
O135 O 0.62966 0.6458 0.98411 0.0
O136 O 0.69444 0.63163 0.93457 0.0
O137 O 0.61208 0.56221 0.91788 0.0
O138 O 0.59018 0.63032 0.92252 0.0
O139 O 0.48824 0.56694 0.99419 0.0
C140 C 0.62493 0.53268 0.03455 0.0
C141 C 0.80328 0.81446 0.1177 0.0
C142 C 0.80645 0.83938 0.076 0.0
C143 C 0.7763 0.61921 0.99719 0.0
C144 C 0.8203 0.62252 0.02451 0.0
C145 C 0.84569 0.66237 0.05718 0.0
C146 C 0.83625 0.58489 0.01908 0.0
C147 C 0.87635 0.5865 0.04694 0.0
C148 C 0.88514 0.66417 0.08466 0.0
C149 C 0.90011 0.62655 0.07989 0.0
C150 C 0.61241 0.64629 0.07087 0.0
C151 C 0.62441 0.6676 0.94808 0.0
C152 C 0.46929 0.55773 0.95266 0.0
C153 C 0.41443 0.513 0.94669 0.0
C154 C 0.40591 0.46653 0.92582 0.0
C155 C 0.36996 0.51589 0.96092 0.0
C156 C 0.31884 0.47176 0.95633 0.0
C157 C 0.35622 0.42262 0.92326 0.0
C158 C 0.31303 0.42495 0.93887 0.0
C159 C 0.66242 0.59341 0.90763 0.0
H160 H 0.83498 0.69214 0.06167 0.0
H161 H 0.81688 0.55404 0.99389 0.0
H162 H 0.90429 0.69499 0.10986 0.0
H163 H 0.93127 0.62957 0.10156 0.0
H164 H 0.43744 0.46403 0.91051 0.0
H165 H 0.37491 0.55219 0.97459 0.0
H166 H 0.35102 0.38702 0.90777 0.0
H167 H 0.2745 0.39091 0.9347 0.0
Gd168 Gd 0.46092 0.0791 0.01955 0.0
Gd169 Gd 0.50613 0.99398 0.97513 0.0
C170 C 0.66001 1.02443 0.03981 0.0
C171 C 0.7216 0.06643 0.97783 0.0
C172 C 0.63087 0.04549 0.9692 0.0
C173 C 0.61977 1.02389 0.01293 0.0
C174 C 0.68243 0.0677 0.95172 0.0
C175 C 0.71033 0.04459 0.02162 0.0
C176 C 0.64897 1.00549 0.08465 0.0
C177 C 0.59898 0.98673 0.10198 0.0
N178 N 0.57057 1.00446 0.02998 0.0
C179 C 0.56015 0.98596 0.07416 0.0
H180 H 0.52217 0.96912 0.08904 0.0
C181 C 0.60331 0.06771 0.90098 0.0
N182 N 0.59205 0.04598 0.94419 0.0
C183 C 0.6539 0.09112 0.88317 0.0
C184 C 0.69356 0.09092 0.90846 0.0
H185 H 0.57423 0.06586 0.8779 0.0
H186 H 0.74119 0.04442 0.04158 0.0
H187 H 0.37518 0.05347 0.93315 0.0
H188 H 0.67886 1.00562 0.10631 0.0
H189 H 0.58991 0.97192 0.13669 0.0
H190 H 0.76103 0.0829 0.96467 0.0
H191 H 0.48582 0.11551 0.12924 0.0
H192 H 0.22428 1.00065 0.99149 0.0
H193 H 0.2822 0.02602 0.92394 0.0
H194 H 0.25696 1.01512 0.15307 0.0
H195 H 0.66191 0.10802 0.84911 0.0
H196 H 0.73258 0.10846 0.89412 0.0
H197 H 0.21477 0.99427 0.07727 0.0
H198 H 0.43752 0.10355 0.20022 0.0
N199 N 0.37134 0.04724 1.00606 0.0
C200 C 0.26542 1.01373 0.99602 0.0
C201 C 0.29801 0.0279 0.95775 0.0
C202 C 0.28683 1.01915 0.03982 0.0
C203 C 0.34088 0.0377 0.04379 0.0
C204 C 0.35096 0.04381 0.96328 0.0
N205 N 0.41744 0.07374 0.08834 0.0
C206 C 0.36465 0.05104 0.08633 0.0
C207 C 0.41607 0.08855 0.16878 0.0
C208 C 0.36146 0.06247 0.168 0.0
C209 C 0.44364 0.09523 0.12831 0.0
C210 C 0.33508 0.04439 0.12622 0.0
H211 H 0.34017 0.05798 0.19941 0.0
O212 O 0.513 0.16019 0.03908 0.0
O213 O 0.53169 0.07479 0.99783 0.0
O214 O 0.45591 0.95783 0.04289 0.0
O215 O 0.43948 1.02076 0.0751 0.0
O216 O 0.5331 0.10545 0.06249 0.0
O217 O 0.44956 0.14145 0.99231 0.0
O218 O 0.50611 0.94458 0.91983 0.0
O219 O 0.43535 0.99717 0.99344 0.0
O220 O 0.46749 0.08885 0.94376 0.0
O221 O 0.49786 0.03663 0.9123 0.0
O222 O 0.43191 0.96031 0.93367 0.0
O223 O 0.50339 0.91962 0.98947 0.0
C224 C 0.5597 0.09613 0.03292 0.0
C225 C 0.28059 1.02166 0.1228 0.0
C226 C 0.25653 1.00948 0.07961 0.0
C227 C 0.48811 0.1782 0.01561 0.0
C228 C 0.47865 0.2167 0.03946 0.0
C229 C 0.43542 0.20017 0.06848 0.0
C230 C 0.51465 0.27062 0.03483 0.0
C231 C 0.50804 0.30795 0.0597 0.0
C232 C 0.4288 0.23663 0.09349 0.0
C233 C 0.46489 0.28993 0.08951 0.0
C234 C 0.4378 0.97568 0.07688 0.0
C235 C 0.4033 0.96826 0.96246 0.0
C236 C 0.51096 0.91205 0.94681 0.0
C237 C 0.55567 0.90299 0.93687 0.0
C238 C 0.59858 0.94036 0.91135 0.0
C239 C 0.55639 0.85759 0.95194 0.0
C240 C 0.60069 0.8519 0.94338 0.0
C241 C 0.64275 0.93579 0.90461 0.0
C242 C 0.64409 0.89224 0.92088 0.0
C243 C 0.48344 0.07264 0.90871 0.0
H244 H 0.40693 0.15914 0.07203 0.0
H245 H 0.54814 0.2833 0.01247 0.0
H246 H 0.39545 0.22354 0.11602 0.0
H247 H 0.45803 0.31711 0.10899 0.0
H248 H 0.59822 0.9734 0.89617 0.0
H249 H 0.52273 0.82679 0.9695 0.0
H250 H 0.6757 0.96569 0.88567 0.0
H251 H 0.67816 0.8887 0.91367 0.0
Gd252 Gd 0.67238 0.72973 0.34236 0.0
Gd253 Gd 0.74522 0.86386 0.30645 0.0
C254 C 0.66587 0.94843 0.36843 0.0
C255 C 0.6242 0.96184 0.30218 0.0
C256 C 0.67293 0.91582 0.29393 0.0
C257 C 0.68426 0.92199 0.34044 0.0
C258 C 0.64373 0.93687 0.27421 0.0
C259 C 0.63531 0.96767 0.34915 0.0
C260 C 0.67848 0.95452 0.41511 0.0
C261 C 0.70936 0.93524 0.43274 0.0
N262 N 0.71284 0.90185 0.35847 0.0
C263 C 0.72679 0.9095 0.40372 0.0
H264 H 0.75258 0.89729 0.41764 0.0
C265 C 0.69027 0.89408 0.22062 0.0
N266 N 0.69296 0.89204 0.26753 0.0
C267 C 0.66068 0.91326 0.19972 0.0
C268 C 0.63646 0.93385 0.22671 0.0
H269 H 0.71197 0.88206 0.19887 0.0
H270 H 0.62037 0.98746 0.37024 0.0
H271 H 0.72418 0.68335 0.26332 0.0
H272 H 0.66504 0.97448 0.43769 0.0
H273 H 0.72034 0.94078 0.46861 0.0
H274 H 0.60125 0.97764 0.28765 0.0
H275 H 0.62565 0.71488 0.45011 0.0
H276 H 0.80334 0.61829 0.33651 0.0
H277 H 0.77728 0.64065 0.26347 0.0
H278 H 0.76327 0.62915 0.49355 0.0
H279 H 0.65773 0.91341 0.1627 0.0
H280 H 0.61422 0.94945 0.21044 0.0
H281 H 0.79913 0.61544 0.42235 0.0
H282 H 0.64119 0.68713 0.52532 0.0
N283 N 0.72005 0.68582 0.33633 0.0
C284 C 0.77963 0.63679 0.3369 0.0
C285 C 0.76487 0.64934 0.29552 0.0
C286 C 0.76263 0.64713 0.37826 0.0
C287 C 0.73184 0.67133 0.37691 0.0
C288 C 0.7346 0.67363 0.29575 0.0
N289 N 0.68043 0.70039 0.41506 0.0
C290 C 0.71159 0.67894 0.41726 0.0
C291 C 0.66129 0.68469 0.49527 0.0
C292 C 0.69716 0.66734 0.49886 0.0
C293 C 0.65239 0.70006 0.45263 0.0
C294 C 0.72142 0.66246 0.45955 0.0
H295 H 0.70554 0.65745 0.53203 0.0
O296 O 0.59296 0.69305 0.36841 0.0
O297 O 0.67428 0.80689 0.34392 0.0
O298 O 0.78523 0.84898 0.36961 0.0
O299 O 0.71174 0.78182 0.40299 0.0
O300 O 0.61037 0.74455 0.31347 0.0
O301 O 0.61689 0.64801 0.32633 0.0
O302 O 0.80063 0.92535 0.26083 0.0
O303 O 0.75329 0.79352 0.31743 0.0
O304 O 0.67533 0.72646 0.26667 0.0
O305 O 0.69367 0.8101 0.24607 0.0
O306 O 0.78002 0.83354 0.25597 0.0
O307 O 0.8122 0.93578 0.33332 0.0
C308 C 0.62984 0.79205 0.32649 0.0
C309 C 0.75436 0.64101 0.46122 0.0
C310 C 0.77481 0.63324 0.42065 0.0
C311 C 0.5787 0.64823 0.34898 0.0
C312 C 0.54161 0.60124 0.37503 0.0
C313 C 0.55909 0.57469 0.40313 0.0
C314 C 0.48755 0.58386 0.37265 0.0
C315 C 0.45071 0.53993 0.39806 0.0
C316 C 0.52323 0.5314 0.42851 0.0
C317 C 0.46973 0.51413 0.42606 0.0
C318 C 0.76183 0.81657 0.40483 0.0
C319 C 0.78028 0.79789 0.28163 0.0
C320 C 0.82693 0.95826 0.29344 0.0
C321 C 0.83513 1.01259 0.28892 0.0
C322 C 0.7945 1.01929 0.27177 0.0
C323 C 0.88314 0.05822 0.30033 0.0
C324 C 0.8885 0.10882 0.29635 0.0
C325 C 0.79891 0.06835 0.2694 0.0
C326 C 0.84524 0.1127 0.28198 0.0
C327 C 0.67346 0.75904 0.23711 0.0
H328 H 0.60035 0.58749 0.40559 0.0
H329 H 0.4745 0.60524 0.35144 0.0
H330 H 0.53693 0.51094 0.45014 0.0
H331 H 0.44329 0.47983 0.44564 0.0
H332 H 0.75947 0.98686 0.2589 0.0
H333 H 0.91607 0.05453 0.31161 0.0
H334 H 0.76658 0.0721 0.2565 0.0
H335 H 0.84812 0.15053 0.27807 0.0
Gd336 Gd 0.35011 0.96626 0.35159 0.0
Gd337 Gd 0.21867 0.9051 0.30779 0.0
C338 C 0.10491 0.75091 0.37925 0.0
C339 C 0.09233 0.68651 0.32172 0.0
C340 C 0.15395 0.77912 0.3081 0.0
C341 C 0.14192 0.79131 0.35069 0.0
C342 C 0.12906 0.72628 0.29341 0.0
C343 C 0.07996 0.69885 0.36431 0.0
C344 C 0.09351 0.76378 0.42207 0.0
C345 C 0.11755 0.8159 0.43522 0.0
N346 N 0.16593 0.84227 0.36422 0.0
C347 C 0.15274 0.85468 0.40556 0.0
H348 H 0.16671 0.89416 0.41603 0.0
C349 C 0.19633 0.80696 0.23652 0.0
N350 N 0.18864 0.81853 0.28053 0.0
C351 C 0.17418 0.75532 0.22146 0.0
C352 C 0.14077 0.71474 0.25015 0.0
H353 H 0.21653 0.8367 0.211 0.0
H354 H 0.05096 0.66773 0.38554 0.0
H355 H 0.39133 0.05703 0.26458 0.0
H356 H 0.06562 0.73385 0.4449 0.0
H357 H 0.1079 0.82649 0.46782 0.0
H358 H 0.07289 0.646 0.3108 0.0
H359 H 0.37236 0.94778 0.46189 0.0
H360 H 0.46378 0.20866 0.32489 0.0
H361 H 0.4322 0.15235 0.25689 0.0
H362 H 0.47066 0.17589 0.48443 0.0
H363 H 0.18125 0.747 0.18688 0.0
H364 H 0.12267 0.67479 0.2379 0.0
H365 H 0.47745 0.21721 0.40962 0.0
H366 H 0.40877 0.99913 0.53144 0.0
N367 N 0.39675 0.05794 0.33746 0.0
C368 C 0.44573 0.16666 0.32883 0.0
C369 C 0.42828 0.13478 0.29024 0.0
C370 C 0.44033 0.14409 0.37195 0.0
C371 C 0.41571 0.08901 0.37528 0.0
C372 C 0.4048 0.08043 0.29502 0.0
N373 N 0.38894 1.0132 0.41962 0.0
C374 C 0.41161 0.06597 0.41749 0.0
C375 C 0.40964 1.01863 0.49984 0.0
C376 C 0.43063 0.07261 0.49863 0.0
C377 C 0.38936 0.98948 0.45988 0.0
C378 C 0.4324 0.09707 0.45717 0.0
H379 H 0.44641 0.09526 0.52952 0.0
O380 O 0.37666 0.91469 0.32453 0.0
O381 O 0.27824 0.88937 0.33655 0.0
O382 O 0.22998 0.95861 0.37216 0.0
O383 O 0.30426 0.96948 0.41002 0.0
O384 O 0.3081 0.90042 0.40236 0.0
O385 O 0.42825 0.97938 0.36689 0.0
O386 O 0.16693 0.89609 0.25099 0.0
O387 O 0.28788 0.98287 0.32249 0.0
O388 O 0.358 0.96859 0.27537 0.0
O389 O 0.27461 0.9067 0.25095 0.0
O390 O 0.25285 0.97194 0.25883 0.0
O391 O 0.14693 0.90799 0.31914 0.0
C392 C 0.27368 0.86731 0.37466 0.0
C393 C 0.45516 0.15154 0.45417 0.0
C394 C 0.45906 0.17501 0.41162 0.0
C395 C 0.4208 0.93712 0.34641 0.0
C396 C 0.43332 0.90181 0.37275 0.0
C397 C 0.40526 0.87723 0.41271 0.0
C398 C 0.47207 0.8908 0.35741 0.0
C399 C 0.4827 0.85601 0.38231 0.0
C400 C 0.41551 0.84299 0.43726 0.0
C401 C 0.45386 0.83237 0.42228 0.0
C402 C 0.26214 0.97337 0.40876 0.0
C403 C 0.28636 1.00685 0.28653 0.0
C404 C 0.13044 0.89458 0.27718 0.0
C405 C 0.07652 0.84878 0.27134 0.0
C406 C 0.06955 0.80161 0.2532 0.0
C407 C 1.03148 0.85126 0.28375 0.0
C408 C 0.98104 0.80638 0.27989 0.0
C409 C 1.02025 0.75699 0.25117 0.0
C410 C 0.97628 0.75914 0.26482 0.0
C411 C 0.32618 0.93549 0.24438 0.0
H412 H 0.37495 0.88375 0.42509 0.0
H413 H 0.49392 0.90933 0.3265 0.0
H414 H 0.39326 0.82421 0.46788 0.0
H415 H 0.46028 0.80477 0.44163 0.0
H416 H 0.10206 0.799 0.23995 0.0
H417 H 1.0355 0.88785 0.2956 0.0
H418 H 1.016 0.72086 0.23783 0.0
H419 H 0.93809 0.72449 0.26127 0.0
Gd420 Gd 0.12501 0.4182 0.35904 0.0
Gd421 Gd 0.17958 0.3401 0.31892 0.0
C422 C 0.32611 0.36926 0.39703 0.0
C423 C 0.39397 0.41312 0.34002 0.0
C424 C 0.3045 0.39221 0.32352 0.0
C425 C 0.28891 0.36936 0.36643 0.0
C426 C 0.35764 0.41508 0.31034 0.0
C427 C 0.37819 0.39009 0.38317 0.0
C428 C 0.3103 0.34928 0.44118 0.0
C429 C 0.25878 0.3307 0.45429 0.0
N430 N 0.2382 0.34973 0.37921 0.0
C431 C 0.22322 0.33099 0.42287 0.0
H432 H 0.18409 0.31545 0.43449 0.0
C433 C 0.28391 0.41674 0.25282 0.0
N434 N 0.26837 0.39348 0.29521 0.0
C435 C 0.33618 0.44093 0.23916 0.0
C436 C 0.37315 0.43985 0.26785 0.0
H437 H 0.25704 0.41525 0.22733 0.0
H438 H 0.4069 0.38967 0.40605 0.0
H439 H 0.04658 0.3848 0.26581 0.0
H440 H 0.33772 0.34879 0.46562 0.0
H441 H 0.24614 0.31554 0.48858 0.0
H442 H 0.43464 0.43016 0.33021 0.0
H443 H 0.13752 0.44861 0.47082 0.0
H444 H 0.89012 0.32882 0.31144 0.0
H445 H 0.95377 0.3512 0.24872 0.0
H446 H 0.90733 0.34943 0.47458 0.0
H447 H 0.34763 0.45903 0.20568 0.0
H448 H 0.4135 0.45802 0.25675 0.0
H449 H 0.87294 0.32714 0.39587 0.0
H450 H 0.08079 0.43583 0.53708 0.0
N451 N 1.03672 0.38386 0.33834 0.0
C452 C 0.93108 0.3443 0.31943 0.0
C453 C 0.9669 0.35652 0.28387 0.0
C454 C 0.94876 0.35356 0.3648 0.0
C455 C 1.00263 0.37445 0.37325 0.0
C456 C 1.01977 0.37614 0.29388 0.0
N457 N 0.07415 0.40927 0.42411 0.0
C458 C 1.02184 0.38721 0.41747 0.0
C459 C 0.06358 0.42141 0.50385 0.0
C460 C 1.00941 0.39571 0.49818 0.0
C461 C 0.09567 0.42872 0.46616 0.0
C462 C 0.98794 0.37923 0.45446 0.0
H463 H 0.98455 0.38997 0.52738 0.0
O464 O 0.17189 0.49836 0.38294 0.0
O465 O 0.19957 0.41859 0.34313 0.0
O466 O 0.12069 0.29729 0.38113 0.0
O467 O 0.09709 0.35587 0.41189 0.0
O468 O 0.19373 0.44522 0.40745 0.0
O469 O 0.11377 0.48002 0.33036 0.0
O470 O 0.1855 0.29431 0.26338 0.0
O471 O 0.10473 0.33818 0.33008 0.0
O472 O 0.1382 0.43326 0.28391 0.0
O473 O 0.17819 0.38778 0.25675 0.0
O474 O 0.1148 0.31228 0.26776 0.0
O475 O 0.17634 0.26531 0.33227 0.0
C476 C 0.2242 0.43911 0.37982 0.0
C477 C 0.93404 0.35635 0.4465 0.0
C478 C 0.91449 0.34367 0.40171 0.0
C479 C 0.1487 0.51621 0.3569 0.0
C480 C 0.13525 0.55277 0.379 0.0
C481 C 0.0886 0.53434 0.40362 0.0
C482 C 0.17083 0.60693 0.37698 0.0
C483 C 0.16017 0.64281 0.39964 0.0
C484 C 0.07803 0.5693 0.42676 0.0
C485 C 0.11348 0.62296 0.42506 0.0
C486 C 0.09667 0.31127 0.41315 0.0
C487 C 0.07998 0.3127 0.29426 0.0
C488 C 0.18766 0.26013 0.29011 0.0
C489 C 0.23282 0.25126 0.28266 0.0
C490 C 0.27861 0.29047 0.26164 0.0
C491 C 0.23077 0.20378 0.29487 0.0
C492 C 0.27494 0.19759 0.28796 0.0
C493 C 0.32265 0.28528 0.25683 0.0
C494 C 0.32105 0.23937 0.27026 0.0
C495 C 0.16062 0.42116 0.25105 0.0
H496 H 0.06046 0.49306 0.40515 0.0
H497 H 0.20702 0.62089 0.35816 0.0
H498 H 0.042 0.55478 0.4459 0.0
H499 H 0.10336 0.64889 0.44271 0.0
H500 H 0.28047 0.32518 0.24809 0.0
H501 H 0.19497 0.17166 0.30856 0.0
H502 H 0.35773 0.3165 0.24134 0.0
H503 H 0.35509 0.23534 0.26443 0.0
Gd504 Gd 0.32829 0.04878 0.68231 0.0
Gd505 Gd 0.40508 0.18357 0.64297 0.0
C506 C 0.36541 0.29866 0.7113 0.0
C507 C 0.32913 0.32354 0.6481 0.0
C508 C 0.35365 0.2567 0.63717 0.0
C509 C 0.36995 0.26248 0.68261 0.0
C510 C 0.33236 0.2869 0.61986 0.0
C511 C 0.3461 0.32977 0.69352 0.0
C512 C 0.37984 0.30233 0.75734 0.0
C513 C 0.39795 0.27027 0.77407 0.0
N514 N 0.3887 0.23192 0.6992 0.0
C515 C 0.40244 0.23552 0.74453 0.0
H516 H 0.41758 0.2127 0.759 0.0
C517 C 0.34349 0.21696 0.56472 0.0
N518 N 0.35779 0.22136 0.61011 0.0
C519 C 0.32071 0.24469 0.5468 0.0
C520 C 0.31502 0.27975 0.57448 0.0
H521 H 0.35339 0.19581 0.54052 0.0
H522 H 0.34333 0.35828 0.71489 0.0
H523 H 0.38053 1.00274 0.60626 0.0
H524 H 0.37664 0.3294 0.78035 0.0
H525 H 0.40907 0.27264 0.80977 0.0
H526 H 0.31335 0.3472 0.63516 0.0
H527 H 0.26676 1.02159 0.78457 0.0
H528 H 0.44384 0.92126 0.6787 0.0
H529 H 0.42719 0.95323 0.60583 0.0
H530 H 0.38491 0.91581 0.83261 0.0
H531 H 0.30971 0.2407 0.51096 0.0
H532 H 0.29839 0.30206 0.56016 0.0
H533 H 0.42908 0.90871 0.76373 0.0
H534 H 0.26575 0.97879 0.85707 0.0
N535 N 0.37218 1.00069 0.67865 0.0
C536 C 0.42347 0.9432 0.6791 0.0
C537 C 0.41412 0.96116 0.63794 0.0
C538 C 0.40398 0.95141 0.72 0.0
C539 C 0.37735 0.97988 0.71848 0.0
C540 C 0.3879 0.98961 0.63834 0.0
N541 N 0.32435 1.00836 0.75333 0.0
C542 C 0.3524 0.98356 0.75704 0.0
C543 C 0.29158 0.98134 0.82974 0.0
C544 C 0.32337 0.9593 0.83516 0.0
C545 C 0.29235 1.00567 0.78838 0.0
C546 C 0.35359 0.95935 0.79835 0.0
H547 H 0.32263 0.94032 0.86706 0.0
O548 O 0.24362 1.01641 0.68029 0.0
O549 O 0.32687 0.12211 0.66458 0.0
O550 O 0.44131 0.1677 0.70958 0.0
O551 O 0.37988 0.08706 0.74176 0.0
O552 O 0.29261 0.08617 0.72598 0.0
O553 O 0.27632 0.97082 0.65505 0.0
O554 O 0.45963 0.23181 0.58983 0.0
O555 O 0.40936 0.11217 0.65735 0.0
O556 O 0.3344 0.04986 0.60615 0.0
O557 O 0.34705 0.13098 0.58637 0.0
O558 O 0.44269 0.15065 0.59743 0.0
O559 O 0.47426 0.25922 0.65964 0.0
C560 C 0.30215 0.12437 0.69898 0.0
C561 C 0.38295 0.934 0.80094 0.0
C562 C 0.40813 0.93003 0.76177 0.0
C563 C 0.23356 0.97112 0.66507 0.0
C564 C 0.19215 0.92508 0.68974 0.0
C565 C 0.2058 0.89782 0.72106 0.0
C566 C 0.1387 0.90914 0.68333 0.0
C567 C 0.09945 0.8671 0.70898 0.0
C568 C 0.16738 0.85636 0.74631 0.0
C569 C 0.11486 0.84134 0.74064 0.0
C570 C 0.42482 0.13096 0.74293 0.0
C571 C 0.43872 0.11398 0.62431 0.0
C572 C 0.48731 0.27168 0.6168 0.0
C573 C 0.49628 0.32402 0.60089 0.0
C574 C 0.46305 0.3255 0.56717 0.0
C575 C 0.53823 0.37261 0.61711 0.0
C576 C 0.54462 0.42083 0.6003 0.0
C577 C 0.46655 0.37223 0.55374 0.0
C578 C 0.5064 0.41936 0.57057 0.0
C579 C 0.32789 0.08032 0.57749 0.0
H580 H 0.24624 0.90868 0.72627 0.0
H581 H 0.1279 0.93005 0.65922 0.0
H582 H 0.17838 0.83576 0.77053 0.0
H583 H 0.08614 0.80879 0.76069 0.0
H584 H 0.43474 0.29051 0.55009 0.0
H585 H 0.56675 0.37284 0.6406 0.0
H586 H 0.43931 0.37201 0.52873 0.0
H587 H 0.50923 0.45523 0.55801 0.0
Gd588 Gd 1.01419 0.28955 0.68471 0.0
Gd589 Gd 0.88206 0.24363 0.64454 0.0
C590 C 0.76524 0.08462 0.70468 0.0
C591 C 0.73213 0.03098 0.63627 0.0
C592 C 0.80051 0.12236 0.63005 0.0
C593 C 0.79963 0.12788 0.67739 0.0
C594 C 0.76635 0.07379 0.60912 0.0
C595 C 0.73148 0.03641 0.68385 0.0
C596 C 0.76602 0.09081 0.75227 0.0
C597 C 0.8008 0.139 0.77173 0.0
N598 N 0.83314 0.17492 0.69689 0.0
C599 C 0.83418 0.18076 0.74351 0.0
H600 H 0.86087 0.21699 0.75978 0.0
C601 C 0.83243 0.16113 0.55754 0.0
N602 N 0.83444 0.1642 0.60443 0.0
C603 C 0.79974 0.11378 0.53544 0.0
C604 C 0.76695 0.06973 0.56136 0.0
H605 H 0.85502 0.19558 0.53676 0.0
H606 H 0.70475 1.00298 0.7043 0.0
H607 H 0.07109 0.38414 0.60541 0.0
H608 H 0.74036 0.05849 0.7743 0.0
H609 H 0.80206 0.14403 0.80858 0.0
H610 H 0.70579 0.99347 0.62075 0.0
H611 H 1.02279 0.25413 0.79262 0.0
H612 H 0.16943 0.52918 0.6736 0.0
H613 H 0.13338 0.47908 0.6022 0.0
H614 H 0.15952 0.47917 0.83089 0.0
H615 H 0.79903 0.11159 0.49836 0.0
H616 H 0.7413 0.03316 0.5441 0.0
H617 H 0.17794 0.52912 0.75921 0.0
H618 H 0.06358 0.2957 0.86561 0.0
N619 N 0.07166 0.38034 0.67821 0.0
C620 C 0.14222 0.48748 0.67533 0.0
C621 C 0.1219 0.45924 0.63492 0.0
C622 C 0.12892 0.46121 0.71735 0.0
C623 C 0.09375 0.40679 0.71762 0.0
C624 C 0.08649 0.4054 0.63697 0.0
N625 N 0.0522 0.32605 0.75634 0.0
C626 C 0.08399 0.37879 0.75792 0.0
C627 C 0.06952 0.31973 0.83578 0.0
C628 C 0.1005 0.37408 0.8384 0.0
C629 C 0.04622 0.29616 0.79416 0.0
C630 C 0.10839 0.40429 0.79913 0.0
H631 H 0.11938 0.39234 0.87042 0.0
O632 O 0.04656 0.23867 0.69703 0.0
O633 O 0.9387 0.21871 0.66354 0.0
O634 O 0.89721 0.29213 0.71319 0.0
O635 O 0.9798 0.31308 0.74127 0.0
O636 O 0.97183 0.2135 0.72423 0.0
O637 O 0.08714 0.30513 0.65233 0.0
O638 O 0.84115 0.26752 0.59749 0.0
O639 O 0.9569 0.31513 0.6603 0.0
O640 O 1.01456 0.29048 0.60795 0.0
O641 O 0.92897 0.23161 0.58648 0.0
O642 O 0.9232 0.31369 0.59857 0.0
O643 O 0.80618 0.23566 0.66306 0.0
C644 C 0.93442 0.18797 0.69558 0.0
C645 C 0.14103 0.45881 0.7995 0.0
C646 C 0.15136 0.48725 0.75868 0.0
C647 C 0.08832 0.26644 0.67272 0.0
C648 C 0.13804 0.27729 0.69438 0.0
C649 C 0.16652 0.32227 0.72118 0.0
C650 C 0.1558 0.24104 0.69043 0.0
C651 C 0.20106 0.24913 0.71415 0.0
C652 C 0.21106 0.33049 0.74473 0.0
C653 C 0.22792 0.29414 0.74168 0.0
C654 C 0.9357 0.31344 0.74484 0.0
C655 C 0.9594 0.34435 0.6269 0.0
C656 C 0.79894 0.24937 0.62242 0.0
C657 C 0.7478 0.21506 0.59846 0.0
C658 C 0.7486 0.2043 0.55153 0.0
C659 C 0.69822 0.19483 0.62053 0.0
C660 C 0.65075 0.16367 0.59573 0.0
C661 C 0.70264 0.17375 0.52739 0.0
C662 C 0.6545 0.15396 0.54893 0.0
C663 C 0.9804 0.25776 0.57813 0.0
H664 H 0.15415 0.35088 0.72426 0.0
H665 H 0.13376 0.20613 0.66986 0.0
H666 H 0.23256 0.36516 0.76563 0.0
H667 H 0.26269 0.30186 0.76044 0.0
H668 H 0.78496 0.22008 0.53278 0.0
H669 H 0.69668 0.20344 0.65641 0.0
H670 H 0.70431 0.16617 0.49127 0.0
H671 H 0.61991 0.13226 0.52798 0.0
Gd672 Gd 0.77049 0.73511 0.67358 0.0
Gd673 Gd 0.8338 0.66371 0.63438 0.0
C674 C 0.99694 0.71523 0.689 0.0
C675 C 0.0489 0.74207 0.61935 0.0
C676 C 0.95597 0.71341 0.61623 0.0
C677 C 0.95225 0.70525 0.66339 0.0
C678 C 1.00446 0.73174 0.59382 0.0
C679 C 0.04508 0.73354 0.66672 0.0
C680 C 0.99205 0.70661 0.73635 0.0
C681 C 0.9438 0.68932 0.75729 0.0
N682 N 0.90527 0.6881 0.68431 0.0
C683 C 0.90064 0.6801 0.7307 0.0
H684 H 0.86407 0.66656 0.74786 0.0
C685 C 0.91387 0.70554 0.54526 0.0
N686 N 0.91231 0.70283 0.59218 0.0
C687 C 0.96113 0.72448 0.52176 0.0
C688 C 1.00675 0.73814 0.54619 0.0
H689 H 0.87829 0.69147 0.52556 0.0
H690 H 0.0797 0.74136 0.68588 0.0
H691 H 0.67263 0.67291 0.59763 0.0
H692 H 1.0253 0.71335 0.75709 0.0
H693 H 0.9397 0.68283 0.79398 0.0
H694 H 0.08636 0.75617 0.60267 0.0
H695 H 0.8003 0.79758 0.77495 0.0
H696 H 0.52822 0.59444 0.67087 0.0
H697 H 0.57725 0.61412 0.59785 0.0
H698 H 0.57807 0.66083 0.82376 0.0
H699 H 0.96208 0.7272 0.4847 0.0
H700 H 0.04324 0.75212 0.52785 0.0
H701 H 0.52902 0.61181 0.75548 0.0
H702 H 0.75719 0.79308 0.84802 0.0
N703 N 0.6786 0.68343 0.66972 0.0
C704 C 0.57029 0.61977 0.67092 0.0
C705 C 0.59779 0.6308 0.62968 0.0
C706 C 0.5972 0.64352 0.7114 0.0
C707 C 0.652 0.67602 0.70951 0.0
C708 C 0.65206 0.6638 0.62966 0.0
N709 N 0.73178 0.73588 0.74399 0.0
C710 C 0.67937 0.70355 0.74782 0.0
C711 C 0.73495 0.76696 0.82052 0.0
C712 C 0.68182 0.73122 0.82612 0.0
C713 C 0.75937 0.76925 0.77892 0.0
C714 C 0.65306 0.69952 0.78925 0.0
H715 H 0.66317 0.72965 0.85844 0.0
O716 O 0.81855 0.82053 0.66977 0.0
O717 O 0.8469 0.74045 0.65651 0.0
O718 O 0.78672 0.62892 0.70339 0.0
O719 O 0.76421 0.68818 0.7346 0.0
O720 O 0.84426 0.77607 0.71664 0.0
O721 O 0.73849 0.78289 0.6485 0.0
O722 O 0.81806 0.6002 0.58778 0.0
O723 O 0.75576 0.65439 0.64902 0.0
O724 O 0.76766 0.72899 0.59753 0.0
O725 O 0.84171 0.72555 0.57936 0.0
O726 O 0.76679 0.62773 0.58604 0.0
O727 O 0.84613 0.5993 0.65588 0.0
C728 C 0.87392 0.76745 0.69011 0.0
C729 C 0.5989 0.66515 0.79206 0.0
C730 C 0.571 0.63714 0.75319 0.0
C731 C 0.78057 0.82747 0.65671 0.0
C732 C 0.77445 0.86805 0.68179 0.0
C733 C 0.73249 0.85272 0.71228 0.0
C734 C 0.81079 0.92229 0.67616 0.0
C735 C 0.80551 0.96035 0.70167 0.0
C736 C 0.72684 0.88992 0.73699 0.0
C737 C 0.76291 0.94301 0.73195 0.0
C738 C 0.76665 0.64515 0.73691 0.0
C739 C 0.73209 0.62708 0.61345 0.0
C740 C 0.83623 0.57803 0.61521 0.0
C741 C 0.87424 0.56374 0.59498 0.0
C742 C 0.89344 0.58108 0.55048 0.0
C743 C 0.88955 0.5308 0.61799 0.0
C744 C 0.92408 0.51645 0.59659 0.0
C745 C 0.92751 0.56787 0.52972 0.0
C746 C 0.94239 0.53587 0.55215 0.0
C747 C 0.8074 0.74148 0.57017 0.0
H748 H 0.70394 0.81181 0.71718 0.0
H749 H 0.84348 0.93464 0.65291 0.0
H750 H 0.69433 0.8775 0.76042 0.0
H751 H 0.75718 0.97075 0.75175 0.0
H752 H 0.88128 0.60411 0.53079 0.0
H753 H 0.87436 0.51622 0.65193 0.0
H754 H 0.94154 0.58154 0.49533 0.0
H755 H 0.967 0.52486 0.53341 0.0
C756 C 0.25767 0.50076 0.92939 0.0
C757 C 0.27029 0.47455 0.96244 0.0
H758 H 0.19986 0.51503 0.90082 0.0
C759 C 0.23166 0.44257 0.99446 0.0
H760 H 0.28606 0.52459 0.90358 0.0
C761 C 0.18152 0.43723 0.99326 0.0
C762 C 0.16792 0.46148 0.95875 0.0
H763 H 0.23992 0.42082 0.01976 0.0
H764 H 0.15314 0.41318 0.01851 0.0
C765 C 0.2074 0.49404 0.92732 0.0
C766 C 0.6377 0.80016 0.98085 0.0
C767 C 0.60098 0.8022 0.95131 0.0
H768 H 0.67293 0.75607 1.00403 0.0
C769 C 0.57205 0.7599 0.92191 0.0
H770 H 0.66153 0.83285 1.00325 0.0
C771 C 0.58065 0.71744 0.92088 0.0
C772 C 0.61799 0.71513 0.94982 0.0
H773 H 0.5445 0.76083 0.89793 0.0
H774 H 0.55769 0.68636 0.89685 0.0
C775 C 0.64511 0.75658 0.98076 0.0
C776 C 0.30518 0.90927 0.95888 0.0
C777 C 0.35407 0.91824 0.97382 0.0
H778 H 0.22648 0.85338 0.94029 0.0
C779 C 0.3577 0.87409 0.98719 0.0
H780 H 0.30066 0.94101 0.94652 0.0
C781 C 0.31543 0.82286 0.98176 0.0
C782 C 0.26801 0.81403 0.96271 0.0
H783 H 0.39492 0.87859 0.99729 0.0
H784 H 0.32168 0.79035 0.98842 0.0
C785 C 0.2626 0.8582 0.95425 0.0
C786 C 0.56404 0.38722 0.01035 0.0
C787 C 0.5444 0.3655 0.05388 0.0
H788 H 0.60498 0.45735 0.97 0.0
C789 C 0.55664 0.39977 0.09141 0.0
H790 H 0.55573 0.36231 0.98063 0.0
C791 C 0.58421 0.45401 0.08507 0.0
C792 C 0.59951 0.47535 0.04101 0.0
H793 H 0.5438 0.38471 0.1257 0.0
H794 H 0.59158 0.4793 0.1144 0.0
C795 C 0.59162 0.44167 1.00406 0.0
C796 C 0.64277 0.1261 0.076 0.0
C797 C 0.61761 0.12485 0.03482 0.0
H798 H 0.71518 0.14932 0.11014 0.0
C799 C 0.6482 0.15328 0.99706 0.0
H800 H 0.62008 0.10627 0.10618 0.0
C801 C 0.70301 0.17799 0.99909 0.0
C802 C 0.72825 0.17539 0.03922 0.0
H803 H 0.62971 0.15503 0.96555 0.0
H804 H 0.7253 0.19693 0.96854 0.0
C805 C 0.69731 0.15063 0.07811 0.0
C806 C 0.92959 0.50354 0.99515 0.0
C807 C 0.94577 0.48812 0.03468 0.0
H808 H 0.89532 0.54716 0.96778 0.0
C809 C 0.93212 0.4988 0.07776 0.0
H810 H 0.93783 0.49409 0.96142 0.0
C811 C 0.90746 0.52859 0.08148 0.0
C812 C 0.89486 0.54781 0.04214 0.0
H813 H 0.94265 0.48605 0.10879 0.0
H814 H 0.89945 0.53775 0.11542 0.0
C815 C 0.90458 0.53331 0.99882 0.0
C816 C 0.8693 0.82736 0.24886 0.0
C817 C 0.83145 0.79872 0.2828 0.0
H818 H 0.94623 0.8536 0.22256 0.0
C819 C 0.84593 0.77677 0.31862 0.0
H820 H 0.86081 0.8462 0.22105 0.0
C821 C 0.89537 0.78063 0.3191 0.0
C822 C 0.93239 0.8089 0.28478 0.0
H823 H 0.81904 0.75631 0.34597 0.0
H824 H 0.90453 0.76117 0.34598 0.0
C825 C 0.91893 0.83258 0.24999 0.0
C826 C 0.25167 0.11101 0.25549 0.0
C827 C 0.27259 0.14636 0.29199 0.0
H828 H 0.24118 0.04125 0.22447 0.0
C829 C 0.29993 0.13683 0.32667 0.0
H830 H 0.23185 0.11822 0.22758 0.0
C831 C 0.3051 0.092 0.3251 0.0
C832 C 0.2851 0.05697 0.2881 0.0
H833 H 0.31795 0.16444 0.35454 0.0
H834 H 0.32535 0.0851 0.35236 0.0
C835 C 0.25813 0.06732 0.25339 0.0
C836 C 0.98794 0.25101 0.32483 0.0
C837 C 1.03045 0.26033 0.29706 0.0
H838 H 0.91004 0.19598 0.34732 0.0
C839 C 1.02679 0.21719 0.27243 0.0
H840 H 0.98891 0.28224 0.34431 0.0
C841 C 0.98241 0.16732 0.27509 0.0
C842 C 0.93945 0.15866 0.30173 0.0
H843 H 0.05833 0.22156 0.25057 0.0
H844 H 0.98078 0.13604 0.25446 0.0
C845 C 0.94286 0.20113 0.32684 0.0
C846 C 0.22798 0.78888 0.42502 0.0
C847 C 0.2495 0.81038 0.38217 0.0
H848 H 0.18357 0.71935 0.46456 0.0
C849 C 0.24859 0.77723 0.34727 0.0
H850 H 0.22983 0.81392 0.45298 0.0
C851 C 0.22169 0.7229 0.35357 0.0
C852 C 0.19583 0.70068 0.39522 0.0
H853 H 0.2667 0.79318 0.31441 0.0
H854 H 0.21873 0.69841 0.3248 0.0
C855 C 0.2012 0.73464 0.43145 0.0
C856 C 0.31498 0.4982 0.34881 0.0
C857 C 0.28207 0.4692 0.38526 0.0
H858 H 0.39337 0.54187 0.32348 0.0
C859 C 0.30489 0.47009 0.42772 0.0
H860 H 0.2984 0.50023 0.31626 0.0
C861 C 0.35941 0.49466 0.43233 0.0
C862 C 0.39277 0.51978 0.3947 0.0
H863 H 0.28047 0.44978 0.45695 0.0
H864 H 0.37525 0.49306 0.46538 0.0
C865 C 0.36962 0.52282 0.35331 0.0
C866 C 0.55597 0.83889 0.39943 0.0
C867 C 0.52272 0.84282 0.36703 0.0
H868 H 0.6157 0.81937 0.41191 0.0
C869 C 0.52547 0.83023 0.321 0.0
H870 H 0.5549 0.84836 0.43515 0.0
C871 C 0.56039 0.8136 0.30784 0.0
C872 C 0.59421 0.81091 0.34017 0.0
H873 H 0.49971 0.83188 0.29546 0.0
H874 H 0.56154 0.80349 0.27229 0.0
C875 C 0.59104 0.8227 0.38619 0.0
C876 C 0.55433 0.09597 0.59914 0.0
C877 C 0.59662 0.14332 0.61556 0.0
H878 H 0.47244 0.05104 0.58684 0.0
C879 C 0.58464 0.17428 0.64412 0.0
H880 H 0.56132 0.07007 0.57785 0.0
C881 C 0.5322 0.16079 0.652 0.0
C882 C 0.4901 0.11612 0.63143 0.0
H883 H 0.61561 0.2112 0.65719 0.0
H884 H 0.52515 0.18842 0.67038 0.0
C885 C 0.50239 0.08371 0.60559 0.0
C886 C 0.99653 0.44079 0.6129 0.0
C887 C 0.9591 0.39452 0.63419 0.0
H888 H 1.01742 0.5168 0.58814 0.0
C889 C 0.91305 0.39272 0.65023 0.0
H890 H 1.03097 0.4434 0.59794 0.0
C891 C 0.90306 0.43395 0.64166 0.0
C892 C 0.93914 0.47866 0.61715 0.0
H893 H 0.88223 0.35722 0.66545 0.0
H894 H 0.86529 0.42872 0.65097 0.0
C895 C 0.98753 0.48264 0.60581 0.0
C896 C 0.66029 0.55321 0.5705 0.0
C897 C 0.6808 0.57673 0.61319 0.0
H898 H 0.60346 0.48674 0.53341 0.0
C899 C 0.65771 0.54662 0.65288 0.0
H900 H 0.6787 0.57275 0.5389 0.0
C901 C 0.61409 0.4953 0.64979 0.0
C902 C 0.59326 0.47297 0.60666 0.0
H903 H 0.67491 0.56169 0.68587 0.0
H904 H 0.59674 0.47332 0.68087 0.0
C905 C 0.61746 0.50281 0.56729 0.0
C906 C 0.85987 0.04455 0.65627 0.0
C907 C 0.84373 1.01809 0.69861 0.0
H908 H 0.90107 0.11913 0.62171 0.0
C909 C 0.86074 0.04813 0.73908 0.0
H910 H 0.84757 1.02282 0.62442 0.0
C911 C 0.89066 0.10278 0.73747 0.0
C912 C 0.90388 0.12949 0.6954 0.0
H913 H 0.84999 0.0293 0.77234 0.0
H914 H 0.90207 0.12438 0.76945 0.0
C915 C 0.88987 0.09973 0.6547 0.0
C916 C 0.96447 0.81649 0.65499 0.0
C917 C 0.93194 0.7976 0.69381 0.0
H918 H 0.04318 0.85296 0.62908 0.0
C919 C 0.95521 0.80889 0.7374 0.0
H920 H 0.94754 0.81015 0.621 0.0
C921 C 1.00958 0.83371 0.74213 0.0
C922 C 0.04238 0.8488 0.70336 0.0
H923 H 0.93117 0.79634 0.76798 0.0
H924 H 1.0259 0.83979 0.77636 0.0
C925 C 1.01924 0.84165 0.65969 0.0
C926 C 0.26727 0.171 0.74536 0.0
C927 C 0.27306 0.15312 0.70241 0.0
H928 H 0.24011 0.215 0.78282 0.0
C929 C 0.24889 0.16093 0.66406 0.0
H930 H 0.28392 0.16392 0.77577 0.0
C931 C 0.22343 0.1902 0.66799 0.0
C932 C 0.2213 0.21181 0.71047 0.0
H933 H 0.25095 0.14567 0.63083 0.0
H934 H 0.20761 0.19791 0.63738 0.0
C935 C 0.24223 0.20038 0.7493 0.0
C936 C 0.15094 0.48543 0.20057 0.0
C937 C 0.15933 0.44237 0.20465 0.0
H938 H 0.12742 0.5291 0.15722 0.0
C939 C 0.15873 0.41612 0.16448 0.0
H940 H 0.15135 0.50697 0.23077 0.0
C941 C 0.14535 0.42934 0.12236 0.0
C942 C 0.13295 0.46963 0.11874 0.0
H943 H 0.16438 0.38265 0.16605 0.0
H944 H 0.1404 0.40474 0.0933 0.0
C945 C 0.13789 0.49886 0.15818 0.0
C946 C 0.66241 0.76048 0.15089 0.0
C947 C 0.64643 0.73453 0.19303 0.0
H948 H 0.66203 0.75237 0.07827 0.0
C949 C 0.6076 0.681 0.1928 0.0
H950 H 0.69232 0.80137 0.14963 0.0
C951 C 0.58944 0.6529 0.15167 0.0
C952 C 0.60922 0.67753 0.10944 0.0
H953 H 0.59366 0.65971 0.22476 0.0
H954 H 0.56403 0.61094 0.1534 0.0
C955 C 0.64422 0.73216 0.10968 0.0
C956 C 0.35246 0.92444 0.11694 0.0
C957 C 0.40701 0.94393 0.11686 0.0
H958 H 0.28385 0.90663 0.15656 0.0
C959 C 0.43238 0.95388 0.15945 0.0
H960 H 0.33203 0.91883 0.08469 0.0
C961 C 0.40512 0.94822 0.20048 0.0
C962 C 0.35142 0.93255 0.20049 0.0
H963 H 0.47447 0.97108 0.16088 0.0
H964 H 0.4271 0.95896 0.23226 0.0
C965 C 0.3249 0.91844 0.15821 0.0
C966 C 0.4847 0.07502 0.82118 0.0
C967 C 0.48157 0.096 0.86346 0.0
H968 H 0.47229 0.07302 0.74838 0.0
C969 C 0.47214 0.13856 0.86279 0.0
H970 H 0.49212 0.04268 0.82 0.0
C971 C 0.46067 0.15576 0.82192 0.0
C972 C 0.45938 0.13182 0.78022 0.0
H973 H 0.47036 0.15689 0.89437 0.0
H974 H 0.44836 0.1846 0.82367 0.0
C975 C 0.47391 0.09293 0.78006 0.0
C976 C 0.99415 0.42887 0.82446 0.0
C977 C 0.97485 0.40417 0.86687 0.0
H978 H 0.99464 0.41892 0.75142 0.0
C979 C 0.93283 0.35203 0.86656 0.0
H980 H 1.02702 0.4684 0.82324 0.0
C981 C 0.91389 0.32374 0.82547 0.0
C982 C 0.93625 0.34685 0.78333 0.0
H983 H 0.91689 0.33167 0.89857 0.0
H984 H 0.88537 0.2824 0.82719 0.0
C985 C 0.97517 0.40042 0.78323 0.0
C986 C 0.76428 0.61598 0.81767 0.0
C987 C 0.73751 0.61203 0.77683 0.0
H988 H 0.76099 0.61238 0.89113 0.0
C989 C 0.68317 0.5933 0.77949 0.0
H990 H 0.80624 0.63214 0.81735 0.0
C991 C 0.65697 0.58192 0.82176 0.0
C992 C 0.68483 0.59045 0.8627 0.0
H993 H 0.66161 0.59276 0.74941 0.0
H994 H 0.61628 0.57163 0.82246 0.0
C995 C 0.73828 0.60537 0.86006 0.0
C996 C 0.82479 0.79548 0.44673 0.0
C997 C 0.78984 0.8151 0.44717 0.0
H998 H 0.85815 0.75606 0.48461 0.0
C999 C 0.76904 0.81775 0.48948 0.0
H1000 H 0.8418 0.79289 0.4149 0.0
C1001 C 0.77894 0.79762 0.5292 0.0
C1002 C 0.80915 0.77265 0.52841 0.0
H1003 H 0.74156 0.83184 0.4913 0.0
H1004 H 0.75946 0.79865 0.56019 0.0
C1005 C 0.83427 0.77423 0.48691 0.0
C1006 C 0.2834 0.05491 0.4518 0.0
C1007 C 0.2566 0.99972 0.45003 0.0
H1008 H 0.32833 0.12425 0.49239 0.0
C1009 C 0.24671 0.97269 0.49169 0.0
H1010 H 0.29227 0.07733 0.4207 0.0
C1011 C 0.26726 0.99957 0.53295 0.0
C1012 C 0.29887 0.05461 0.53413 0.0
H1013 H 0.22771 0.93037 0.4918 0.0
H1014 H 0.26088 0.97654 0.56364 0.0
C1015 C 0.30452 0.08212 0.49325 0.0
C1016 C 0.05425 0.26113 0.53264 0.0
C1017 C 1.00329 0.25415 0.53333 0.0
H1018 H 0.12352 0.2821 0.4936 0.0
C1019 C 0.97991 0.25301 0.49122 0.0
H1020 H 0.07358 0.262 0.56447 0.0
C1021 C 1.00878 0.26401 0.45024 0.0
C1022 C 0.0615 0.27573 0.44988 0.0
H1023 H 0.94131 0.24869 0.49028 0.0
H1024 H 0.99136 0.26885 0.41953 0.0
C1025 C 0.08292 0.27178 0.49162 0.0
loop_
_geom_bond_atom_site_label_1
_geom_bond_atom_site_label_2
_geom_bond_distance
_geom_bond_site_symmetry_2
_ccdc_geom_bond_type
Gd0 N31 2.661 1_654 S
Gd0 N37 2.601 . S
Gd0 O44 2.545 . S
Gd0 O45 2.610 . S
Gd0 O47 2.429 . S
Gd0 O48 2.545 . S
Gd0 O49 2.412 1_554 S
Gd0 O51 2.362 1_655 S
Gd0 O52 2.324 1_554 S
Gd0 C59 2.828 . S
Gd1 N10 2.658 1_556 S
Gd1 N14 2.601 . S
Gd1 O45 2.358 1_456 S
Gd1 O46 2.324 1_556 S
Gd1 O50 2.545 . S
Gd1 O51 2.606 1_556 S
Gd1 O53 2.429 . S
Gd1 O54 2.545 . S
Gd1 O55 2.412 1_556 S
Gd1 C68 2.828 . S
C2 C5 1.417 1_554 S
C2 C7 1.431 1_554 S
C2 C8 1.412 . S
C3 C6 1.437 . S
C3 C7 1.317 . S
C3 H22 0.929 . S
C4 C5 1.426 . S
C4 C6 1.413 . S
C4 N14 1.359 1_655 S
C5 C2 1.417 1_556 S
C5 C4 1.426 . S
C5 N10 1.352 1_656 S
C6 C3 1.437 . S
C6 C4 1.413 . S
C6 C16 1.391 . S
C7 C2 1.431 1_556 S
C7 C3 1.317 . S
C7 H18 0.930 . S
C8 C2 1.412 . S
C8 C9 1.355 . S
C8 H20 0.930 . S
C9 C8 1.355 . S
C9 C11 1.402 . S
C9 H21 0.930 . S
N10 Gd1 2.658 1_554 S
N10 C5 1.352 1_454 S
N10 C11 1.308 1_455 S
C11 C9 1.402 . S
C11 N10 1.308 1_655 S
C11 H12 0.930 . S
H12 C11 0.930 . S
C13 N14 1.334 . S
C13 C15 1.394 . S
C13 H17 0.930 . S
N14 Gd1 2.601 . S
N14 C4 1.359 1_455 S
N14 C13 1.334 . S
C15 C13 1.394 . S
C15 C16 1.359 1_455 S
C15 H27 0.930 . S
C16 C6 1.391 . S
C16 C15 1.359 1_655 S
C16 H28 0.929 . S
H17 C13 0.930 . S
H18 C7 0.930 . S
H19 C36 0.930 . S
H20 C8 0.930 . S
H21 C9 0.930 . S
H22 C3 0.929 . S
H23 C41 0.930 . S
H24 C32 0.930 . S
H25 C33 0.930 . S
H26 C57 0.929 . S
H27 C15 0.930 . S
H28 C16 0.929 . S
H29 C58 0.930 . S
H30 C39 0.930 . S
N31 Gd0 2.661 1_456 S
N31 C35 1.350 1_556 S
N31 C36 1.307 . S
C32 H24 0.930 . S
C32 C33 1.355 . S
C32 C34 1.412 . S
C33 H25 0.930 . S
C33 C32 1.355 . S
C33 C36 1.402 . S
C34 C32 1.412 . S
C34 C35 1.417 1_556 S
C34 C58 1.431 1_556 S
C35 N31 1.350 1_554 S
C35 C34 1.417 1_554 S
C35 C38 1.426 . S
C36 H19 0.930 . S
C36 N31 1.307 . S
C36 C33 1.402 . S
N37 Gd0 2.601 . S
N37 C38 1.359 1_655 S
N37 C41 1.334 . S
C38 C35 1.426 . S
C38 N37 1.359 1_455 S
C38 C42 1.413 . S
C39 H30 0.930 . S
C39 C40 1.359 1_655 S
C39 C41 1.394 . S
C40 C39 1.359 1_455 S
C40 C42 1.391 . S
C40 H43 0.929 . S
C41 H23 0.930 . S
C41 N37 1.334 . S
C41 C39 1.394 . S
C42 C38 1.413 . S
C42 C40 1.391 . S
C42 C57 1.437 . S
H43 C40 0.929 . S
O44 Gd0 2.545 . S
O44 C59 1.258 . S
O45 Gd0 2.610 . S
O45 Gd1 2.358 1_654 S
O45 C56 1.288 . S
O46 Gd1 2.324 1_554 S
O46 C66 1.254 . S
O47 Gd0 2.429 . S
O47 C66 1.268 1_655 S
O48 Gd0 2.545 . S
O48 C56 1.250 . S
O49 Gd0 2.412 1_556 S
O49 C59 1.252 1_556 S
O50 Gd1 2.545 . S
O50 C68 1.258 . S
O51 Gd0 2.362 1_455 S
O51 Gd1 2.606 1_554 S
O51 C67 1.284 1_554 S
O52 Gd0 2.324 1_556 S
O52 C75 1.254 . S
O53 Gd1 2.429 . S
O53 C75 1.268 1_455 S
O54 Gd1 2.545 . S
O54 C67 1.250 . S
O55 Gd1 2.412 1_554 S
O55 C68 1.252 1_554 S
C56 O45 1.288 . S
C56 O48 1.250 . S
C57 H26 0.929 . S
C57 C42 1.437 . S
C57 C58 1.317 . S
C58 H29 0.930 . S
C58 C34 1.431 1_554 S
C58 C57 1.317 . S
C59 Gd0 2.828 . S
C59 O44 1.258 . S
C59 O49 1.252 1_554 S
C59 C60 1.497 . S
C60 C59 1.497 . S
C60 C61 1.395 . S
C60 C62 1.380 1_554 S
C61 C60 1.395 . S
C61 C64 1.398 . S
C61 H76 0.930 . S
C62 C60 1.380 1_556 S
C62 C63 1.391 . S
C62 H77 0.930 . S
C63 C62 1.391 . S
C63 C65 1.382 1_556 S
C64 C61 1.398 . S
C64 C65 1.380 . S
C64 H78 0.930 . S
C65 C63 1.382 1_554 S
C65 C64 1.380 . S
C65 H79 0.930 . S
C66 O46 1.254 . S
C66 O47 1.268 1_455 S
C67 O51 1.284 1_556 S
C67 O54 1.250 . S
C68 Gd1 2.828 . S
C68 O50 1.258 . S
C68 O55 1.252 1_556 S
C68 C69 1.497 . S
C69 C68 1.497 . S
C69 C70 1.395 . S
C69 C71 1.380 1_556 S
C70 C69 1.395 . S
C70 C73 1.398 . S
C70 H80 0.930 . S
C71 C69 1.380 1_554 S
C71 C72 1.391 . S
C71 H81 0.930 . S
C72 C71 1.391 . S
C72 C74 1.387 1_554 S
C73 C70 1.398 . S
C73 C74 1.380 . S
C73 H82 0.930 . S
C74 C72 1.387 1_556 S
C74 C73 1.380 . S
C74 H83 0.930 . S
C75 O52 1.254 . S
C75 O53 1.268 1_655 S
H76 C61 0.930 . S
H77 C62 0.930 . S
H78 C64 0.930 . S
H79 C65 0.930 . S
H80 C70 0.930 . S
H81 C71 0.930 . S
H82 C73 0.930 . S
H83 C74 0.930 . S
Gd84 N115 2.661 1_554 S
Gd84 N121 2.601 . S
Gd84 O128 2.545 . S
Gd84 O129 2.610 . S
Gd84 O131 2.429 . S
Gd84 O132 2.545 . S
Gd84 O133 2.412 1_554 S
Gd84 O135 2.362 . S
Gd84 O136 2.324 1_554 S
Gd84 C143 2.828 . S
Gd85 N94 2.661 1_556 S
Gd85 N98 2.601 . S
Gd85 O129 2.358 1_556 S
Gd85 O130 2.324 1_556 S
Gd85 O134 2.545 . S
Gd85 O135 2.606 1_556 S
Gd85 O137 2.429 . S
Gd85 O138 2.545 . S
Gd85 O139 2.412 1_556 S
Gd85 C152 2.828 . S
C86 C89 1.417 1_554 S
C86 C91 1.431 1_554 S
C86 C92 1.412 . S
C87 C90 1.437 . S
C87 C91 1.317 . S
C87 H106 0.929 . S
C88 C89 1.426 . S
C88 C90 1.413 . S
C88 N98 1.359 . S
C89 C86 1.417 1_556 S
C89 C88 1.426 . S
C89 N94 1.350 1_556 S
C90 C87 1.437 . S
C90 C88 1.413 . S
C90 C100 1.391 . S
C91 C86 1.431 1_556 S
C91 C87 1.317 . S
C91 H102 0.930 . S
C92 C86 1.412 . S
C92 C93 1.355 . S
C92 H104 0.930 . S
C93 C92 1.355 . S
C93 C95 1.402 . S
C93 H105 0.930 . S
N94 Gd85 2.661 1_554 S
N94 C89 1.350 1_554 S
N94 C95 1.307 . S
C95 C93 1.402 . S
C95 N94 1.307 . S
C95 H96 0.930 . S
H96 C95 0.930 . S
C97 N98 1.334 . S
C97 C99 1.394 . S
C97 H101 0.930 . S
N98 Gd85 2.601 . S
N98 C88 1.359 . S
N98 C97 1.334 . S
C99 C97 1.394 . S
C99 C100 1.359 . S
C99 H111 0.930 . S
C100 C90 1.391 . S
C100 C99 1.359 . S
C100 H112 0.929 . S
H101 C97 0.930 . S
H102 C91 0.930 . S
H103 C120 0.930 . S
H104 C92 0.930 . S
H105 C93 0.930 . S
H106 C87 0.929 . S
H107 C125 0.930 . S
H108 C116 0.930 . S
H109 C117 0.930 . S
H110 C141 0.929 . S
H111 C99 0.930 . S
H112 C100 0.929 . S
H113 C142 0.930 . S
H114 C123 0.930 . S
N115 Gd84 2.661 1_556 S
N115 C119 1.350 1_556 S
N115 C120 1.307 . S
C116 H108 0.930 . S
C116 C117 1.355 . S
C116 C118 1.412 . S
C117 H109 0.930 . S
C117 C116 1.355 . S
C117 C120 1.402 . S
C118 C116 1.412 . S
C118 C119 1.417 1_556 S
C118 C142 1.431 1_556 S
C119 N115 1.350 1_554 S
C119 C118 1.417 1_554 S
C119 C122 1.426 . S
C120 H103 0.930 . S
C120 N115 1.307 . S
C120 C117 1.402 . S
N121 Gd84 2.601 . S
N121 C122 1.359 . S
N121 C125 1.334 . S
C122 C119 1.426 . S
C122 N121 1.359 . S
C122 C126 1.413 . S
C123 H114 0.930 . S
C123 C124 1.359 . S
C123 C125 1.394 . S
C124 C123 1.359 . S
C124 C126 1.391 . S
C124 H127 0.929 . S
C125 H107 0.930 . S
C125 N121 1.334 . S
C125 C123 1.394 . S
C126 C122 1.413 . S
C126 C124 1.391 . S
C126 C141 1.437 . S
H127 C124 0.929 . S
O128 Gd84 2.545 . S
O128 C143 1.258 . S
O129 Gd84 2.610 . S
O129 Gd85 2.358 1_554 S
O129 C140 1.288 . S
O130 Gd85 2.324 1_554 S
O130 C150 1.254 . S
O131 Gd84 2.429 . S
O131 C150 1.268 . S
O132 Gd84 2.545 . S
O132 C140 1.250 . S
O133 Gd84 2.412 1_556 S
O133 C143 1.252 1_556 S
O134 Gd85 2.545 . S
O134 C152 1.258 . S
O135 Gd84 2.362 . S
O135 Gd85 2.606 1_554 S
O135 C151 1.284 1_554 S
O136 Gd84 2.324 1_556 S
O136 C159 1.254 . S
O137 Gd85 2.429 . S
O137 C159 1.268 . S
O138 Gd85 2.545 . S
O138 C151 1.250 . S
O139 Gd85 2.412 1_554 S
O139 C152 1.252 1_554 S
C140 O129 1.288 . S
C140 O132 1.250 . S
C141 H110 0.929 . S
C141 C126 1.437 . S
C141 C142 1.317 . S
C142 H113 0.930 . S
C142 C118 1.431 1_554 S
C142 C141 1.317 . S
C143 Gd84 2.828 . S
C143 O128 1.258 . S
C143 O133 1.252 1_554 S
C143 C144 1.497 . S
C144 C143 1.497 . S
C144 C145 1.395 . S
C144 C146 1.380 1_554 S
C145 C144 1.395 . S
C145 C148 1.398 . S
C145 H160 0.930 . S
C146 C144 1.380 1_556 S
C146 C147 1.391 . S
C146 H161 0.930 . S
C147 C146 1.391 . S
C147 C149 1.382 1_556 S
C148 C145 1.398 . S
C148 C149 1.380 . S
C148 H162 0.930 . S
C149 C147 1.382 1_554 S
C149 C148 1.380 . S
C149 H163 0.930 . S
C150 O130 1.254 . S
C150 O131 1.268 . S
C151 O135 1.284 1_556 S
C151 O138 1.250 . S
C152 Gd85 2.828 . S
C152 O134 1.258 . S
C152 O139 1.252 1_556 S
C152 C153 1.497 . S
C153 C152 1.497 . S
C153 C154 1.395 . S
C153 C155 1.380 1_556 S
C154 C153 1.395 . S
C154 C157 1.398 . S
C154 H164 0.930 . S
C155 C153 1.380 1_554 S
C155 C156 1.391 . S
C155 H165 0.930 . S
C156 C155 1.391 . S
C156 C158 1.387 1_554 S
C157 C154 1.398 . S
C157 C158 1.380 . S
C157 H166 0.930 . S
C158 C156 1.387 1_556 S
C158 C157 1.380 . S
C158 H167 0.930 . S
C159 O136 1.254 . S
C159 O137 1.268 . S
H160 C145 0.930 . S
H161 C146 0.930 . S
H162 C148 0.930 . S
H163 C149 0.930 . S
H164 C154 0.930 . S
H165 C155 0.930 . S
H166 C157 0.930 . S
H167 C158 0.930 . S
Gd168 N199 2.661 1_554 S
Gd168 N205 2.601 . S
Gd168 O212 2.545 . S
Gd168 O213 2.610 . S
Gd168 O215 2.429 . S
Gd168 O216 2.545 . S
Gd168 O217 2.412 1_554 S
Gd168 O219 2.362 1_545 S
Gd168 O220 2.324 1_554 S
Gd168 C227 2.828 . S
Gd169 N178 2.661 1_566 S
Gd169 N182 2.601 . S
Gd169 O213 2.358 1_566 S
Gd169 O214 2.324 1_556 S
Gd169 O218 2.545 . S
Gd169 O219 2.606 1_556 S
Gd169 O221 2.430 . S
Gd169 O222 2.545 . S
Gd169 O223 2.412 1_556 S
Gd169 C236 2.828 . S
C170 C173 1.417 1_554 S
C170 C175 1.431 1_554 S
C170 C176 1.412 . S
C171 C174 1.437 . S
C171 C175 1.317 . S
C171 H190 0.929 . S
C172 C173 1.426 . S
C172 C174 1.413 . S
C172 N182 1.359 1_545 S
C173 C170 1.417 1_556 S
C173 C172 1.426 . S
C173 N178 1.350 1_556 S
C174 C171 1.437 . S
C174 C172 1.413 . S
C174 C184 1.391 . S
C175 C170 1.431 1_556 S
C175 C171 1.317 . S
C175 H186 0.930 . S
C176 C170 1.412 . S
C176 C177 1.355 . S
C176 H188 0.930 . S
C177 C176 1.355 . S
C177 C179 1.402 . S
C177 H189 0.930 . S
N178 Gd169 2.661 1_544 S
N178 C173 1.350 1_554 S
N178 C179 1.307 . S
C179 C177 1.402 . S
C179 N178 1.307 . S
C179 H180 0.930 . S
H180 C179 0.930 . S
C181 N182 1.334 . S
C181 C183 1.394 . S
C181 H185 0.930 . S
N182 Gd169 2.601 . S
N182 C172 1.359 1_565 S
N182 C181 1.334 . S
C183 C181 1.394 . S
C183 C184 1.359 1_565 S
C183 H195 0.930 . S
C184 C174 1.391 . S
C184 C183 1.359 1_545 S
C184 H196 0.929 . S
H185 C181 0.930 . S
H186 C175 0.930 . S
H187 C204 0.927 . S
H188 C176 0.930 . S
H189 C177 0.930 . S
H190 C171 0.929 . S
H191 C209 0.930 . S
H192 C200 0.930 . S
H193 C201 0.930 . S
H194 C225 0.929 . S
H195 C183 0.930 . S
H196 C184 0.929 . S
H197 C226 0.930 . S
H198 C207 0.930 . S
N199 Gd168 2.661 1_556 S
N199 C203 1.350 1_546 S
N199 C204 1.307 1_545 S
C200 H192 0.930 . S
C200 C201 1.355 . S
C200 C202 1.412 . S
C201 H193 0.930 . S
C201 C200 1.355 . S
C201 C204 1.402 . S
C202 C200 1.412 . S
C202 C203 1.417 1_556 S
C202 C226 1.431 1_556 S
C203 N199 1.350 1_564 S
C203 C202 1.417 1_554 S
C203 C206 1.426 . S
C204 H187 0.927 . S
C204 N199 1.307 1_565 S
C204 C201 1.402 . S
N205 Gd168 2.601 . S
N205 C206 1.359 1_545 S
N205 C209 1.334 . S
C206 C203 1.426 . S
C206 N205 1.359 1_565 S
C206 C210 1.413 . S
C207 H198 0.930 . S
C207 C208 1.359 1_545 S
C207 C209 1.394 . S
C208 C207 1.359 1_565 S
C208 C210 1.391 . S
C208 H211 0.929 . S
C209 H191 0.930 . S
C209 N205 1.334 . S
C209 C207 1.394 . S
C210 C206 1.413 . S
C210 C208 1.391 . S
C210 C225 1.437 . S
H211 C208 0.929 . S
O212 Gd168 2.545 . S
O212 C227 1.258 . S
O213 Gd168 2.610 . S
O213 Gd169 2.358 1_544 S
O213 C224 1.288 . S
O214 Gd169 2.324 1_554 S
O214 C234 1.254 . S
O215 Gd168 2.429 . S
O215 C234 1.268 1_545 S
O216 Gd168 2.545 . S
O216 C224 1.250 . S
O217 Gd168 2.412 1_556 S
O217 C227 1.252 1_556 S
O218 Gd169 2.545 . S
O218 C236 1.258 . S
O219 Gd168 2.362 1_565 S
O219 Gd169 2.606 1_554 S
O219 C235 1.284 1_554 S
O220 Gd168 2.324 1_556 S
O220 C243 1.254 . S
O221 Gd169 2.430 . S
O221 C243 1.266 1_565 S
O222 Gd169 2.545 . S
O222 C235 1.250 . S
O223 Gd169 2.412 1_554 S
O223 C236 1.252 1_554 S
C224 O213 1.288 . S
C224 O216 1.250 . S
C225 H194 0.929 . S
C225 C210 1.437 . S
C225 C226 1.317 . S
C226 H197 0.930 . S
C226 C202 1.431 1_554 S
C226 C225 1.317 . S
C227 Gd168 2.828 . S
C227 O212 1.258 . S
C227 O217 1.252 1_554 S
C227 C228 1.497 . S
C228 C227 1.497 . S
C228 C229 1.395 . S
C228 C230 1.380 1_554 S
C229 C228 1.395 . S
C229 C232 1.398 . S
C229 H244 0.930 . S
C230 C228 1.380 1_556 S
C230 C231 1.391 . S
C230 H245 0.930 . S
C231 C230 1.391 . S
C231 C233 1.382 1_556 S
C232 C229 1.398 . S
C232 C233 1.380 . S
C232 H246 0.930 . S
C233 C231 1.382 1_554 S
C233 C232 1.380 . S
C233 H247 0.930 . S
C234 O214 1.254 . S
C234 O215 1.268 1_565 S
C235 O219 1.284 1_556 S
C235 O222 1.250 . S
C236 Gd169 2.828 . S
C236 O218 1.258 . S
C236 O223 1.252 1_556 S
C236 C237 1.497 . S
C237 C236 1.497 . S
C237 C238 1.395 . S
C237 C239 1.380 1_556 S
C238 C237 1.395 . S
C238 C241 1.398 . S
C238 H248 0.930 . S
C239 C237 1.380 1_554 S
C239 C240 1.391 . S
C239 H249 0.930 . S
C240 C239 1.391 . S
C240 C242 1.387 1_554 S
C241 C238 1.398 . S
C241 C242 1.380 . S
C241 H250 0.930 . S
C242 C240 1.387 1_556 S
C242 C241 1.380 . S
C242 H251 0.930 . S
C243 O220 1.254 . S
C243 O221 1.266 1_545 S
H244 C229 0.930 . S
H245 C230 0.930 . S
H246 C232 0.930 . S
H247 C233 0.930 . S
H248 C238 0.930 . S
H249 C239 0.930 . S
H250 C241 0.930 . S
H251 C242 0.930 . S
Gd252 N283 2.661 . S
Gd252 N289 2.601 . S
Gd252 O296 2.545 . S
Gd252 O297 2.606 . S
Gd252 O299 2.429 . S
Gd252 O300 2.545 . S
Gd252 O301 2.412 . S
Gd252 O303 2.362 . S
Gd252 O304 2.324 . S
Gd252 C311 2.828 . S
Gd253 N262 2.661 . S
Gd253 N266 2.601 . S
Gd253 O297 2.362 . S
Gd253 O298 2.324 . S
Gd253 O302 2.545 . S
Gd253 O303 2.606 . S
Gd253 O305 2.429 . S
Gd253 O306 2.545 . S
Gd253 O307 2.412 . S
Gd253 C320 2.828 . S
C254 C257 1.417 . S
C254 C259 1.419 1_565 S
C254 C260 1.412 . S
C255 C258 1.437 1_545 S
C255 C259 1.317 . S
C255 H274 0.929 . S
C256 C257 1.426 . S
C256 C258 1.413 . S
C256 N266 1.359 . S
C257 C254 1.417 . S
C257 C256 1.426 . S
C257 N262 1.350 . S
C258 C255 1.437 1_565 S
C258 C256 1.413 . S
C258 C268 1.391 . S
C259 C254 1.419 1_545 S
C259 C255 1.317 . S
C259 H270 0.943 . S
C260 C254 1.412 . S
C260 C261 1.355 . S
C260 H272 0.930 . S
C261 C260 1.355 . S
C261 C263 1.402 . S
C261 H273 0.930 . S
N262 Gd253 2.661 . S
N262 C257 1.350 . S
N262 C263 1.307 . S
C263 C261 1.402 . S
C263 N262 1.307 . S
C263 H264 0.930 . S
H264 C263 0.930 . S
C265 N266 1.334 . S
C265 C267 1.394 . S
C265 H269 0.930 . S
N266 Gd253 2.601 . S
N266 C256 1.359 . S
N266 C265 1.334 . S
C267 C265 1.394 . S
C267 C268 1.359 . S
C267 H279 0.930 . S
C268 C258 1.391 . S
C268 C267 1.359 . S
C268 H280 0.929 1_565 S
H269 C265 0.930 . S
H270 C259 0.943 . S
H271 C288 0.930 . S
H272 C260 0.930 . S
H273 C261 0.930 . S
H274 C255 0.929 . S
H275 C293 0.930 . S
H276 C284 0.930 . S
H277 C285 0.930 . S
H278 C309 0.929 . S
H279 C267 0.930 . S
H280 C268 0.929 1_545 S
H281 C310 0.930 . S
H282 C291 0.930 . S
N283 Gd252 2.661 . S
N283 C287 1.350 . S
N283 C288 1.307 . S
C284 H276 0.930 . S
C284 C285 1.355 . S
C284 C286 1.412 . S
C285 H277 0.930 . S
C285 C284 1.355 . S
C285 C288 1.402 . S
C286 C284 1.412 . S
C286 C287 1.417 . S
C286 C310 1.431 . S
C287 N283 1.350 . S
C287 C286 1.417 . S
C287 C290 1.426 . S
C288 H271 0.930 . S
C288 N283 1.307 . S
C288 C285 1.402 . S
N289 Gd252 2.601 . S
N289 C290 1.359 . S
N289 C293 1.334 . S
C290 C287 1.426 . S
C290 N289 1.359 . S
C290 C294 1.413 . S
C291 H282 0.930 . S
C291 C292 1.359 . S
C291 C293 1.394 . S
C292 C291 1.359 . S
C292 C294 1.391 . S
C292 H295 0.929 . S
C293 H275 0.930 . S
C293 N289 1.334 . S
C293 C291 1.394 . S
C294 C290 1.413 . S
C294 C292 1.391 . S
C294 C309 1.437 . S
H295 C292 0.929 . S
O296 Gd252 2.545 . S
O296 C311 1.258 . S
O297 Gd252 2.606 . S
O297 Gd253 2.362 . S
O297 C308 1.284 . S
O298 Gd253 2.324 . S
O298 C318 1.254 . S
O299 Gd252 2.429 . S
O299 C318 1.268 . S
O300 Gd252 2.545 . S
O300 C308 1.250 . S
O301 Gd252 2.412 . S
O301 C311 1.252 . S
O302 Gd253 2.545 . S
O302 C320 1.258 . S
O303 Gd252 2.362 . S
O303 Gd253 2.606 . S
O303 C319 1.284 . S
O304 Gd252 2.324 . S
O304 C327 1.254 . S
O305 Gd253 2.429 . S
O305 C327 1.268 . S
O306 Gd253 2.545 . S
O306 C319 1.250 . S
O307 Gd253 2.412 . S
O307 C320 1.252 . S
C308 O297 1.284 . S
C308 O300 1.250 . S
C309 H278 0.929 . S
C309 C294 1.437 . S
C309 C310 1.317 . S
C310 H281 0.930 . S
C310 C286 1.431 . S
C310 C309 1.317 . S
C311 Gd252 2.828 . S
C311 O296 1.258 . S
C311 O301 1.252 . S
C311 C312 1.497 . S
C312 C311 1.497 . S
C312 C313 1.395 . S
C312 C314 1.380 . S
C313 C312 1.395 . S
C313 C316 1.398 . S
C313 H328 0.930 . S
C314 C312 1.380 . S
C314 C315 1.391 . S
C314 H329 0.930 . S
C315 C314 1.391 . S
C315 C317 1.387 . S
C316 C313 1.398 . S
C316 C317 1.380 . S
C316 H330 0.930 . S
C317 C315 1.387 . S
C317 C316 1.380 . S
C317 H331 0.930 . S
C318 O298 1.254 . S
C318 O299 1.268 . S
C319 O303 1.284 . S
C319 O306 1.250 . S
C320 Gd253 2.828 . S
C320 O302 1.258 . S
C320 O307 1.252 . S
C320 C321 1.497 1_565 S
C321 C320 1.497 1_545 S
C321 C322 1.395 . S
C321 C323 1.380 . S
C322 C321 1.395 . S
C322 C325 1.398 . S
C322 H332 0.930 . S
C323 C321 1.380 . S
C323 C324 1.391 . S
C323 H333 0.930 . S
C324 C323 1.391 . S
C324 C326 1.387 . S
C325 C322 1.398 . S
C325 C326 1.380 . S
C325 H334 0.930 . S
C326 C324 1.387 . S
C326 C325 1.380 . S
C326 H335 0.930 . S
C327 O304 1.254 . S
C327 O305 1.268 . S
H328 C313 0.930 . S
H329 C314 0.930 . S
H330 C316 0.930 . S
H331 C317 0.930 . S
H332 C322 0.930 . S
H333 C323 0.930 . S
H334 C325 0.930 . S
H335 C326 0.930 . S
Gd336 N367 2.661 . S
Gd336 N373 2.601 . S
Gd336 O380 2.545 . S
Gd336 O381 2.606 . S
Gd336 O383 2.429 . S
Gd336 O384 2.545 . S
Gd336 O385 2.412 . S
Gd336 O387 2.362 . S
Gd336 O388 2.324 . S
Gd336 C395 2.828 . S
Gd337 N346 2.661 . S
Gd337 N350 2.601 . S
Gd337 O381 2.362 . S
Gd337 O382 2.324 . S
Gd337 O386 2.545 . S
Gd337 O387 2.606 . S
Gd337 O389 2.429 . S
Gd337 O390 2.545 . S
Gd337 O391 2.412 . S
Gd337 C404 2.828 . S
C338 C341 1.417 . S
C338 C343 1.431 . S
C338 C344 1.412 . S
C339 C342 1.437 . S
C339 C343 1.317 . S
C339 H358 0.929 1_455 S
C340 C341 1.426 . S
C340 C342 1.413 . S
C340 N350 1.359 . S
C341 C338 1.417 . S
C341 C340 1.426 . S
C341 N346 1.350 . S
C342 C339 1.437 . S
C342 C340 1.413 . S
C342 C352 1.391 . S
C343 C338 1.431 . S
C343 C339 1.317 . S
C343 H354 0.930 1_455 S
C344 C338 1.412 . S
C344 C345 1.355 . S
C344 H356 0.930 . S
C345 C344 1.355 . S
C345 C347 1.402 . S
C345 H357 0.930 . S
N346 Gd337 2.661 . S
N346 C341 1.350 . S
N346 C347 1.307 . S
C347 C345 1.402 . S
C347 N346 1.307 . S
C347 H348 0.930 . S
H348 C347 0.930 . S
C349 N350 1.334 . S
C349 C351 1.394 . S
C349 H353 0.930 . S
N350 Gd337 2.601 . S
N350 C340 1.359 . S
N350 C349 1.334 . S
C351 C349 1.394 . S
C351 C352 1.359 . S
C351 H363 0.930 . S
C352 C342 1.391 . S
C352 C351 1.359 . S
C352 H364 0.929 . S
H353 C349 0.930 . S
H354 C343 0.930 1_655 S
H355 C372 0.930 . S
H356 C344 0.930 . S
H357 C345 0.930 . S
H358 C339 0.929 1_655 S
H359 C377 0.930 . S
H360 C368 0.930 . S
H361 C369 0.930 . S
H362 C393 0.929 . S
H363 C351 0.930 . S
H364 C352 0.929 . S
H365 C394 0.930 . S
H366 C375 0.930 . S
N367 Gd336 2.661 . S
N367 C371 1.350 1_565 S
N367 C372 1.307 . S
C368 H360 0.930 . S
C368 C369 1.355 . S
C368 C370 1.412 . S
C369 H361 0.930 . S
C369 C368 1.355 . S
C369 C372 1.402 1_545 S
C370 C368 1.412 . S
C370 C371 1.417 . S
C370 C394 1.431 . S
C371 N367 1.350 1_545 S
C371 C370 1.417 . S
C371 C374 1.426 . S
C372 H355 0.930 . S
C372 N367 1.307 . S
C372 C369 1.402 1_565 S
N373 Gd336 2.601 . S
N373 C374 1.359 1_565 S
N373 C377 1.334 . S
C374 C371 1.426 . S
C374 N373 1.359 1_545 S
C374 C378 1.413 . S
C375 H366 0.930 . S
C375 C376 1.359 . S
C375 C377 1.394 1_545 S
C376 C375 1.359 . S
C376 C378 1.391 . S
C376 H379 0.929 . S
C377 H359 0.930 . S
C377 N373 1.334 . S
C377 C375 1.394 1_565 S
C378 C374 1.413 . S
C378 C376 1.391 . S
C378 C393 1.437 . S
H379 C376 0.929 . S
O380 Gd336 2.545 . S
O380 C395 1.258 . S
O381 Gd336 2.606 . S
O381 Gd337 2.362 . S
O381 C392 1.284 . S
O382 Gd337 2.324 . S
O382 C402 1.254 . S
O383 Gd336 2.429 . S
O383 C402 1.268 . S
O384 Gd336 2.545 . S
O384 C392 1.250 . S
O385 Gd336 2.412 . S
O385 C395 1.252 . S
O386 Gd337 2.545 . S
O386 C404 1.258 . S
O387 Gd336 2.362 . S
O387 Gd337 2.606 . S
O387 C403 1.284 . S
O388 Gd336 2.324 . S
O388 C411 1.254 . S
O389 Gd337 2.429 . S
O389 C411 1.268 . S
O390 Gd337 2.545 . S
O390 C403 1.250 . S
O391 Gd337 2.412 . S
O391 C404 1.252 . S
C392 O381 1.284 . S
C392 O384 1.250 . S
C393 H362 0.929 . S
C393 C378 1.437 . S
C393 C394 1.317 . S
C394 H365 0.930 . S
C394 C370 1.431 . S
C394 C393 1.317 . S
C395 Gd336 2.828 . S
C395 O380 1.258 . S
C395 O385 1.252 . S
C395 C396 1.497 . S
C396 C395 1.497 . S
C396 C397 1.395 . S
C396 C398 1.380 . S
C397 C396 1.395 . S
C397 C400 1.398 . S
C397 H412 0.930 . S
C398 C396 1.380 . S
C398 C399 1.391 . S
C398 H413 0.930 . S
C399 C398 1.391 . S
C399 C401 1.387 . S
C400 C397 1.398 . S
C400 C401 1.380 . S
C400 H414 0.930 . S
C401 C399 1.387 . S
C401 C400 1.380 . S
C401 H415 0.930 . S
C402 O382 1.254 . S
C402 O383 1.268 . S
C403 O387 1.284 . S
C403 O390 1.250 . S
C404 Gd337 2.828 . S
C404 O386 1.258 . S
C404 O391 1.252 . S
C404 C405 1.497 1_455 S
C405 C404 1.497 1_655 S
C405 C406 1.395 . S
C405 C407 1.380 . S
C406 C405 1.395 . S
C406 C409 1.398 . S
C406 H416 0.930 . S
C407 C405 1.380 . S
C407 C408 1.391 . S
C407 H417 0.930 1_655 S
C408 C407 1.391 . S
C408 C410 1.387 . S
C409 C406 1.398 . S
C409 C410 1.380 . S
C409 H418 0.930 . S
C410 C408 1.387 . S
C410 C409 1.380 . S
C410 H419 0.930 . S
C411 O388 1.254 . S
C411 O389 1.268 . S
H412 C397 0.930 . S
H413 C398 0.930 . S
H414 C400 0.930 . S
H415 C401 0.930 . S
H416 C406 0.930 . S
H417 C407 0.930 1_455 S
H418 C409 0.930 . S
H419 C410 0.930 . S
Gd420 N451 2.661 . S
Gd420 N457 2.601 . S
Gd420 O464 2.545 . S
Gd420 O465 2.606 . S
Gd420 O467 2.429 . S
Gd420 O468 2.545 . S
Gd420 O469 2.412 . S
Gd420 O471 2.362 . S
Gd420 O472 2.324 . S
Gd420 C479 2.828 . S
Gd421 N430 2.661 . S
Gd421 N434 2.601 . S
Gd421 O465 2.362 . S
Gd421 O466 2.324 . S
Gd421 O470 2.545 . S
Gd421 O471 2.606 . S
Gd421 O473 2.429 . S
Gd421 O474 2.545 . S
Gd421 O475 2.412 . S
Gd421 C488 2.828 . S
C422 C425 1.417 . S
C422 C427 1.431 . S
C422 C428 1.412 . S
C423 C426 1.437 . S
C423 C427 1.317 . S
C423 H442 0.929 . S
C424 C425 1.426 . S
C424 C426 1.413 . S
C424 N434 1.359 . S
C425 C422 1.417 . S
C425 C424 1.426 . S
C425 N430 1.350 . S
C426 C423 1.437 . S
C426 C424 1.413 . S
C426 C436 1.391 . S
C427 C422 1.431 . S
C427 C423 1.317 . S
C427 H438 0.930 . S
C428 C422 1.412 . S
C428 C429 1.355 . S
C428 H440 0.930 . S
C429 C428 1.355 . S
C429 C431 1.402 . S
C429 H441 0.930 . S
N430 Gd421 2.661 . S
N430 C425 1.350 . S
N430 C431 1.307 . S
C431 C429 1.402 . S
C431 N430 1.307 . S
C431 H432 0.930 . S
H432 C431 0.930 . S
C433 N434 1.334 . S
C433 C435 1.394 . S
C433 H437 0.930 . S
N434 Gd421 2.601 . S
N434 C424 1.359 . S
N434 C433 1.334 . S
C435 C433 1.394 . S
C435 C436 1.359 . S
C435 H447 0.930 . S
C436 C426 1.391 . S
C436 C435 1.359 . S
C436 H448 0.929 . S
H437 C433 0.930 . S
H438 C427 0.930 . S
H439 C456 0.930 . S
H440 C428 0.930 . S
H441 C429 0.930 . S
H442 C423 0.929 . S
H443 C461 0.930 . S
H444 C452 0.930 . S
H445 C453 0.930 . S
H446 C477 0.929 . S
H447 C435 0.930 . S
H448 C436 0.929 . S
H449 C478 0.930 . S
H450 C459 0.930 1_455 S
N451 Gd420 2.661 . S
N451 C455 1.350 1_455 S
N451 C456 1.307 . S
C452 H444 0.930 . S
C452 C453 1.355 . S
C452 C454 1.412 . S
C453 H445 0.930 . S
C453 C452 1.355 . S
C453 C456 1.402 1_655 S
C454 C452 1.412 . S
C454 C455 1.417 . S
C454 C478 1.431 . S
C455 N451 1.350 1_655 S
C455 C454 1.417 . S
C455 C458 1.426 . S
C456 H439 0.930 . S
C456 N451 1.307 . S
C456 C453 1.402 1_455 S
N457 Gd420 2.601 . S
N457 C458 1.359 1_455 S
N457 C461 1.334 . S
C458 C455 1.426 . S
C458 N457 1.359 1_655 S
C458 C462 1.413 . S
C459 H450 0.930 1_655 S
C459 C460 1.359 . S
C459 C461 1.394 1_655 S
C460 C459 1.359 . S
C460 C462 1.391 . S
C460 H463 0.929 . S
C461 H443 0.930 . S
C461 N457 1.334 . S
C461 C459 1.394 1_455 S
C462 C458 1.413 . S
C462 C460 1.391 . S
C462 C477 1.437 . S
H463 C460 0.929 . S
O464 Gd420 2.545 . S
O464 C479 1.258 . S
O465 Gd420 2.606 . S
O465 Gd421 2.362 . S
O465 C476 1.284 . S
O466 Gd421 2.324 . S
O466 C486 1.254 . S
O467 Gd420 2.429 . S
O467 C486 1.268 . S
O468 Gd420 2.545 . S
O468 C476 1.250 . S
O469 Gd420 2.412 . S
O469 C479 1.252 . S
O470 Gd421 2.545 . S
O470 C488 1.258 . S
O471 Gd420 2.362 . S
O471 Gd421 2.606 . S
O471 C487 1.284 . S
O472 Gd420 2.324 . S
O472 C495 1.254 . S
O473 Gd421 2.429 . S
O473 C495 1.268 . S
O474 Gd421 2.545 . S
O474 C487 1.250 . S
O475 Gd421 2.412 . S
O475 C488 1.252 . S
C476 O465 1.284 . S
C476 O468 1.250 . S
C477 H446 0.929 . S
C477 C462 1.437 . S
C477 C478 1.317 . S
C478 H449 0.930 . S
C478 C454 1.431 . S
C478 C477 1.317 . S
C479 Gd420 2.828 . S
C479 O464 1.258 . S
C479 O469 1.252 . S
C479 C480 1.497 . S
C480 C479 1.497 . S
C480 C481 1.395 . S
C480 C482 1.380 . S
C481 C480 1.395 . S
C481 C484 1.398 . S
C481 H496 0.930 . S
C482 C480 1.380 . S
C482 C483 1.391 . S
C482 H497 0.930 . S
C483 C482 1.391 . S
C483 C485 1.387 . S
C484 C481 1.398 . S
C484 C485 1.380 . S
C484 H498 0.930 . S
C485 C483 1.387 . S
C485 C484 1.380 . S
C485 H499 0.930 . S
C486 O466 1.254 . S
C486 O467 1.268 . S
C487 O471 1.284 . S
C487 O474 1.250 . S
C488 Gd421 2.828 . S
C488 O470 1.258 . S
C488 O475 1.252 . S
C488 C489 1.497 . S
C489 C488 1.497 . S
C489 C490 1.395 . S
C489 C491 1.380 . S
C490 C489 1.395 . S
C490 C493 1.398 . S
C490 H500 0.930 . S
C491 C489 1.380 . S
C491 C492 1.391 . S
C491 H501 0.930 . S
C492 C491 1.391 . S
C492 C494 1.387 . S
C493 C490 1.398 . S
C493 C494 1.380 . S
C493 H502 0.930 . S
C494 C492 1.387 . S
C494 C493 1.380 . S
C494 H503 0.930 . S
C495 O472 1.254 . S
C495 O473 1.268 . S
H496 C481 0.930 . S
H497 C482 0.930 . S
H498 C484 0.930 . S
H499 C485 0.930 . S
H500 C490 0.930 . S
H501 C491 0.930 . S
H502 C493 0.930 . S
H503 C494 0.930 . S
Gd504 N535 2.661 . S
Gd504 N541 2.601 . S
Gd504 O548 2.545 1_545 S
Gd504 O549 2.606 . S
Gd504 O551 2.429 . S
Gd504 O552 2.545 . S
Gd504 O553 2.412 1_545 S
Gd504 O555 2.362 . S
Gd504 O556 2.324 . S
Gd504 C563 2.828 1_545 S
Gd505 N514 2.661 . S
Gd505 N518 2.601 . S
Gd505 O549 2.362 . S
Gd505 O550 2.324 . S
Gd505 O554 2.545 . S
Gd505 O555 2.606 . S
Gd505 O557 2.429 . S
Gd505 O558 2.545 . S
Gd505 O559 2.412 . S
Gd505 C572 2.828 . S
C506 C509 1.417 . S
C506 C511 1.431 . S
C506 C512 1.412 . S
C507 C510 1.437 . S
C507 C511 1.317 . S
C507 H526 0.929 . S
C508 C509 1.426 . S
C508 C510 1.413 . S
C508 N518 1.359 . S
C509 C506 1.417 . S
C509 C508 1.426 . S
C509 N514 1.350 . S
C510 C507 1.437 . S
C510 C508 1.413 . S
C510 C520 1.391 . S
C511 C506 1.431 . S
C511 C507 1.317 . S
C511 H522 0.930 . S
C512 C506 1.412 . S
C512 C513 1.355 . S
C512 H524 0.930 . S
C513 C512 1.355 . S
C513 C515 1.402 . S
C513 H525 0.930 . S
N514 Gd505 2.661 . S
N514 C509 1.350 . S
N514 C515 1.307 . S
C515 C513 1.402 . S
C515 N514 1.307 . S
C515 H516 0.930 . S
H516 C515 0.930 . S
C517 N518 1.334 . S
C517 C519 1.394 . S
C517 H521 0.930 . S
N518 Gd505 2.601 . S
N518 C508 1.359 . S
N518 C517 1.334 . S
C519 C517 1.394 . S
C519 C520 1.359 . S
C519 H531 0.930 . S
C520 C510 1.391 . S
C520 C519 1.359 . S
C520 H532 0.929 . S
H521 C517 0.930 . S
H522 C511 0.930 . S
H523 C540 0.930 . S
H524 C512 0.930 . S
H525 C513 0.930 . S
H526 C507 0.929 . S
H527 C545 0.930 . S
H528 C536 0.930 . S
H529 C537 0.930 . S
H530 C561 0.929 . S
H531 C519 0.930 . S
H532 C520 0.929 . S
H533 C562 0.930 . S
H534 C543 0.930 . S
N535 Gd504 2.661 . S
N535 C539 1.350 1_545 S
N535 C540 1.307 . S
C536 H528 0.930 . S
C536 C537 1.339 1_565 S
C536 C538 1.412 . S
C537 H529 0.930 . S
C537 C536 1.339 1_545 S
C537 C540 1.418 . S
C538 C536 1.412 . S
C538 C539 1.417 . S
C538 C562 1.431 . S
C539 N535 1.350 1_565 S
C539 C538 1.417 . S
C539 C542 1.426 . S
C540 H523 0.930 . S
C540 N535 1.307 . S
C540 C537 1.418 . S
N541 Gd504 2.601 . S
N541 C542 1.359 1_545 S
N541 C545 1.334 . S
C542 C539 1.426 . S
C542 N541 1.359 1_565 S
C542 C546 1.413 . S
C543 H534 0.930 . S
C543 C544 1.359 . S
C543 C545 1.394 1_565 S
C544 C543 1.359 . S
C544 C546 1.391 . S
C544 H547 0.929 . S
C545 H527 0.930 . S
C545 N541 1.334 . S
C545 C543 1.394 1_545 S
C546 C542 1.413 . S
C546 C544 1.391 . S
C546 C561 1.437 . S
H547 C544 0.929 . S
O548 Gd504 2.545 1_565 S
O548 C563 1.258 . S
O549 Gd504 2.606 . S
O549 Gd505 2.362 . S
O549 C560 1.284 . S
O550 Gd505 2.324 . S
O550 C570 1.254 . S
O551 Gd504 2.429 . S
O551 C570 1.268 . S
O552 Gd504 2.545 . S
O552 C560 1.250 . S
O553 Gd504 2.412 1_565 S
O553 C563 1.252 . S
O554 Gd505 2.545 . S
O554 C572 1.258 . S
O555 Gd504 2.362 . S
O555 Gd505 2.606 . S
O555 C571 1.284 . S
O556 Gd504 2.324 . S
O556 C579 1.254 . S
O557 Gd505 2.429 . S
O557 C579 1.268 . S
O558 Gd505 2.545 . S
O558 C571 1.250 . S
O559 Gd505 2.412 . S
O559 C572 1.252 . S
C560 O549 1.284 . S
C560 O552 1.250 . S
C561 H530 0.929 . S
C561 C546 1.437 . S
C561 C562 1.317 . S
C562 H533 0.930 . S
C562 C538 1.431 . S
C562 C561 1.317 . S
C563 Gd504 2.828 1_565 S
C563 O548 1.258 . S
C563 O553 1.252 . S
C563 C564 1.497 . S
C564 C563 1.497 . S
C564 C565 1.395 . S
C564 C566 1.380 . S
C565 C564 1.395 . S
C565 C568 1.398 . S
C565 H580 0.930 . S
C566 C564 1.380 . S
C566 C567 1.391 . S
C566 H581 0.930 . S
C567 C566 1.391 . S
C567 C569 1.387 . S
C568 C565 1.398 . S
C568 C569 1.380 . S
C568 H582 0.930 . S
C569 C567 1.387 . S
C569 C568 1.380 . S
C569 H583 0.930 . S
C570 O550 1.254 . S
C570 O551 1.268 . S
C571 O555 1.284 . S
C571 O558 1.250 . S
C572 Gd505 2.828 . S
C572 O554 1.258 . S
C572 O559 1.252 . S
C572 C573 1.497 . S
C573 C572 1.497 . S
C573 C574 1.395 . S
C573 C575 1.380 . S
C574 C573 1.395 . S
C574 C577 1.398 . S
C574 H584 0.930 . S
C575 C573 1.380 . S
C575 C576 1.391 . S
C575 H585 0.930 . S
C576 C575 1.391 . S
C576 C578 1.387 . S
C577 C574 1.398 . S
C577 C578 1.380 . S
C577 H586 0.930 . S
C578 C576 1.387 . S
C578 C577 1.380 . S
C578 H587 0.930 . S
C579 O556 1.254 . S
C579 O557 1.268 . S
H580 C565 0.930 . S
H581 C566 0.930 . S
H582 C568 0.930 . S
H583 C569 0.930 . S
H584 C574 0.930 . S
H585 C575 0.930 . S
H586 C577 0.930 . S
H587 C578 0.930 . S
Gd588 N619 2.661 . S
Gd588 N625 2.601 . S
Gd588 O632 2.545 1_655 S
Gd588 O633 2.606 . S
Gd588 O635 2.429 . S
Gd588 O636 2.545 . S
Gd588 O637 2.412 1_655 S
Gd588 O639 2.362 . S
Gd588 O640 2.324 . S
Gd588 C647 2.828 1_655 S
Gd589 N598 2.661 . S
Gd589 N602 2.601 . S
Gd589 O633 2.362 . S
Gd589 O634 2.324 . S
Gd589 O638 2.545 . S
Gd589 O639 2.606 . S
Gd589 O641 2.429 . S
Gd589 O642 2.545 . S
Gd589 O643 2.412 . S
Gd589 C656 2.828 . S
C590 C593 1.417 1_565 S
C590 C595 1.431 . S
C590 C596 1.412 . S
C591 C594 1.437 1_565 S
C591 C595 1.317 . S
C591 H610 0.929 . S
C592 C593 1.426 . S
C592 C594 1.413 . S
C592 N602 1.359 . S
C593 C590 1.417 1_545 S
C593 C592 1.426 . S
C593 N598 1.350 . S
C594 C591 1.437 1_545 S
C594 C592 1.413 . S
C594 C604 1.391 . S
C595 C590 1.431 . S
C595 C591 1.317 . S
C595 H606 0.930 . S
C596 C590 1.412 . S
C596 C597 1.355 1_565 S
C596 H608 0.930 . S
C597 C596 1.355 1_545 S
C597 C599 1.402 . S
C597 H609 0.930 . S
N598 Gd589 2.661 . S
N598 C593 1.350 . S
N598 C599 1.307 . S
C599 C597 1.402 . S
C599 N598 1.307 . S
C599 H600 0.930 . S
H600 C599 0.930 . S
C601 N602 1.334 . S
C601 C603 1.394 . S
C601 H605 0.930 . S
N602 Gd589 2.601 . S
N602 C592 1.359 . S
N602 C601 1.334 . S
C603 C601 1.394 . S
C603 C604 1.359 . S
C603 H615 0.930 . S
C604 C594 1.391 . S
C604 C603 1.359 . S
C604 H616 0.929 1_545 S
H605 C601 0.930 . S
H606 C595 0.930 . S
H607 C624 0.930 . S
H608 C596 0.930 . S
H609 C597 0.930 . S
H610 C591 0.929 . S
H611 C629 0.930 . S
H612 C620 0.930 . S
H613 C621 0.930 . S
H614 C645 0.929 . S
H615 C603 0.930 . S
H616 C604 0.929 1_565 S
H617 C646 0.930 . S
H618 C627 0.930 . S
N619 Gd588 2.661 . S
N619 C623 1.350 1_655 S
N619 C624 1.307 . S
C620 H612 0.930 . S
C620 C621 1.355 . S
C620 C622 1.412 . S
C621 H613 0.930 . S
C621 C620 1.355 . S
C621 C624 1.402 1_455 S
C622 C620 1.412 . S
C622 C623 1.417 . S
C622 C646 1.431 . S
C623 N619 1.350 1_455 S
C623 C622 1.417 . S
C623 C626 1.426 . S
C624 H607 0.930 . S
C624 N619 1.307 . S
C624 C621 1.402 1_655 S
N625 Gd588 2.601 . S
N625 C626 1.359 1_655 S
N625 C629 1.334 . S
C626 C623 1.426 . S
C626 N625 1.359 1_455 S
C626 C630 1.413 . S
C627 H618 0.930 . S
C627 C628 1.359 . S
C627 C629 1.394 1_455 S
C628 C627 1.359 . S
C628 C630 1.391 . S
C628 H631 0.929 . S
C629 H611 0.930 . S
C629 N625 1.334 . S
C629 C627 1.394 1_655 S
C630 C626 1.413 . S
C630 C628 1.391 . S
C630 C645 1.437 . S
H631 C628 0.929 . S
O632 Gd588 2.545 1_455 S
O632 C647 1.258 . S
O633 Gd588 2.606 . S
O633 Gd589 2.362 . S
O633 C644 1.284 . S
O634 Gd589 2.324 . S
O634 C654 1.254 . S
O635 Gd588 2.429 . S
O635 C654 1.268 . S
O636 Gd588 2.545 . S
O636 C644 1.250 . S
O637 Gd588 2.412 1_455 S
O637 C647 1.252 . S
O638 Gd589 2.545 . S
O638 C656 1.258 . S
O639 Gd588 2.362 . S
O639 Gd589 2.606 . S
O639 C655 1.284 . S
O640 Gd588 2.324 . S
O640 C663 1.254 . S
O641 Gd589 2.429 . S
O641 C663 1.268 . S
O642 Gd589 2.545 . S
O642 C655 1.250 . S
O643 Gd589 2.412 . S
O643 C656 1.252 . S
C644 O633 1.284 . S
C644 O636 1.250 . S
C645 H614 0.929 . S
C645 C630 1.437 . S
C645 C646 1.317 . S
C646 H617 0.930 . S
C646 C622 1.431 . S
C646 C645 1.317 . S
C647 Gd588 2.828 1_455 S
C647 O632 1.258 . S
C647 O637 1.252 . S
C647 C648 1.497 . S
C648 C647 1.497 . S
C648 C649 1.395 . S
C648 C650 1.380 . S
C649 C648 1.395 . S
C649 C652 1.398 . S
C649 H664 0.930 . S
C650 C648 1.380 . S
C650 C651 1.391 . S
C650 H665 0.930 . S
C651 C650 1.391 . S
C651 C653 1.387 . S
C652 C649 1.398 . S
C652 C653 1.380 . S
C652 H666 0.930 . S
C653 C651 1.387 . S
C653 C652 1.380 . S
C653 H667 0.930 . S
C654 O634 1.254 . S
C654 O635 1.268 . S
C655 O639 1.284 . S
C655 O642 1.250 . S
C656 Gd589 2.828 . S
C656 O638 1.258 . S
C656 O643 1.252 . S
C656 C657 1.497 . S
C657 C656 1.497 . S
C657 C658 1.395 . S
C657 C659 1.380 . S
C658 C657 1.395 . S
C658 C661 1.398 . S
C658 H668 0.930 . S
C659 C657 1.380 . S
C659 C660 1.391 . S
C659 H669 0.930 . S
C660 C659 1.391 . S
C660 C662 1.387 . S
C661 C658 1.398 . S
C661 C662 1.380 . S
C661 H670 0.930 . S
C662 C660 1.387 . S
C662 C661 1.380 . S
C662 H671 0.930 . S
C663 O640 1.254 . S
C663 O641 1.268 . S
H664 C649 0.930 . S
H665 C650 0.930 . S
H666 C652 0.930 . S
H667 C653 0.930 . S
H668 C658 0.930 . S
H669 C659 0.930 . S
H670 C661 0.930 . S
H671 C662 0.930 . S
Gd672 N703 2.661 . S
Gd672 N709 2.601 . S
Gd672 O716 2.545 . S
Gd672 O717 2.606 . S
Gd672 O719 2.429 . S
Gd672 O720 2.545 . S
Gd672 O721 2.412 . S
Gd672 O723 2.362 . S
Gd672 O724 2.324 . S
Gd672 C731 2.828 . S
Gd673 N682 2.661 . S
Gd673 N686 2.601 . S
Gd673 O717 2.362 . S
Gd673 O718 2.324 . S
Gd673 O722 2.545 . S
Gd673 O723 2.606 . S
Gd673 O725 2.429 . S
Gd673 O726 2.545 . S
Gd673 O727 2.412 . S
Gd673 C740 2.828 . S
C674 C677 1.417 1_455 S
C674 C679 1.431 . S
C674 C680 1.412 . S
C675 C678 1.437 . S
C675 C679 1.317 . S
C675 H694 0.929 . S
C676 C677 1.426 . S
C676 C678 1.413 1_655 S
C676 N686 1.359 . S
C677 C674 1.417 1_655 S
C677 C676 1.426 . S
C677 N682 1.350 . S
C678 C675 1.437 . S
C678 C676 1.413 1_455 S
C678 C688 1.391 1_455 S
C679 C674 1.431 . S
C679 C675 1.317 . S
C679 H690 0.930 . S
C680 C674 1.412 . S
C680 C681 1.355 1_455 S
C680 H692 0.930 . S
C681 C680 1.355 1_655 S
C681 C683 1.402 . S
C681 H693 0.930 . S
N682 Gd673 2.661 . S
N682 C677 1.350 . S
N682 C683 1.307 . S
C683 C681 1.402 . S
C683 N682 1.307 . S
C683 H684 0.930 . S
H684 C683 0.930 . S
C685 N686 1.334 . S
C685 C687 1.394 . S
C685 H689 0.930 . S
N686 Gd673 2.601 . S
N686 C676 1.359 . S
N686 C685 1.334 . S
C687 C685 1.394 . S
C687 C688 1.359 . S
C687 H699 0.930 . S
C688 C678 1.391 1_655 S
C688 C687 1.359 . S
C688 H700 0.929 1_655 S
H689 C685 0.930 . S
H690 C679 0.930 . S
H691 C708 0.930 . S
H692 C680 0.930 . S
H693 C681 0.930 . S
H694 C675 0.929 . S
H695 C713 0.930 . S
H696 C704 0.930 . S
H697 C705 0.930 . S
H698 C729 0.929 . S
H699 C687 0.930 . S
H700 C688 0.929 1_455 S
H701 C730 0.930 . S
H702 C711 0.930 . S
N703 Gd672 2.661 . S
N703 C707 1.350 . S
N703 C708 1.307 . S
C704 H696 0.930 . S
C704 C705 1.355 . S
C704 C706 1.412 . S
C705 H697 0.930 . S
C705 C704 1.355 . S
C705 C708 1.402 . S
C706 C704 1.412 . S
C706 C707 1.417 . S
C706 C730 1.431 . S
C707 N703 1.350 . S
C707 C706 1.417 . S
C707 C710 1.426 . S
C708 H691 0.930 . S
C708 N703 1.307 . S
C708 C705 1.402 . S
N709 Gd672 2.601 . S
N709 C710 1.359 . S
N709 C713 1.334 . S
C710 C707 1.426 . S
C710 N709 1.359 . S
C710 C714 1.413 . S
C711 H702 0.930 . S
C711 C712 1.359 . S
C711 C713 1.394 . S
C712 C711 1.359 . S
C712 C714 1.391 . S
C712 H715 0.929 . S
C713 H695 0.930 . S
C713 N709 1.334 . S
C713 C711 1.394 . S
C714 C710 1.413 . S
C714 C712 1.391 . S
C714 C729 1.437 . S
H715 C712 0.929 . S
O716 Gd672 2.545 . S
O716 C731 1.258 . S
O717 Gd672 2.606 . S
O717 Gd673 2.362 . S
O717 C728 1.284 . S
O718 Gd673 2.324 . S
O718 C738 1.254 . S
O719 Gd672 2.429 . S
O719 C738 1.268 . S
O720 Gd672 2.545 . S
O720 C728 1.250 . S
O721 Gd672 2.412 . S
O721 C731 1.252 . S
O722 Gd673 2.545 . S
O722 C740 1.258 . S
O723 Gd672 2.362 . S
O723 Gd673 2.606 . S
O723 C739 1.284 . S
O724 Gd672 2.324 . S
O724 C747 1.254 . S
O725 Gd673 2.429 . S
O725 C747 1.268 . S
O726 Gd673 2.545 . S
O726 C739 1.250 . S
O727 Gd673 2.412 . S
O727 C740 1.252 . S
C728 O717 1.284 . S
C728 O720 1.250 . S
C729 H698 0.929 . S
C729 C714 1.437 . S
C729 C730 1.317 . S
C730 H701 0.930 . S
C730 C706 1.431 . S
C730 C729 1.317 . S
C731 Gd672 2.828 . S
C731 O716 1.258 . S
C731 O721 1.252 . S
C731 C732 1.497 . S
C732 C731 1.497 . S
C732 C733 1.395 . S
C732 C734 1.380 . S
C733 C732 1.395 . S
C733 C736 1.398 . S
C733 H748 0.930 . S
C734 C732 1.380 . S
C734 C735 1.391 . S
C734 H749 0.930 . S
C735 C734 1.391 . S
C735 C737 1.387 . S
C736 C733 1.398 . S
C736 C737 1.380 . S
C736 H750 0.930 . S
C737 C735 1.387 . S
C737 C736 1.380 . S
C737 H751 0.930 . S
C738 O718 1.254 . S
C738 O719 1.268 . S
C739 O723 1.284 . S
C739 O726 1.250 . S
C740 Gd673 2.828 . S
C740 O722 1.258 . S
C740 O727 1.252 . S
C740 C741 1.497 . S
C741 C740 1.497 . S
C741 C742 1.395 . S
C741 C743 1.380 . S
C742 C741 1.395 . S
C742 C745 1.398 . S
C742 H752 0.930 . S
C743 C741 1.380 . S
C743 C744 1.391 . S
C743 H753 0.930 . S
C744 C743 1.391 . S
C744 C746 1.387 . S
C745 C742 1.398 . S
C745 C746 1.380 . S
C745 H754 0.930 . S
C746 C744 1.387 . S
C746 C745 1.380 . S
C746 H755 0.930 . S
C747 O724 1.254 . S
C747 O725 1.268 . S
H748 C733 0.930 . S
H749 C734 0.930 . S
H750 C736 0.930 . S
H751 C737 0.930 . S
H752 C742 0.930 . S
H753 C743 0.930 . S
H754 C745 0.930 . S
H755 C746 0.930 . S
C756 C757 1.387 1_556 S
C756 H760 0.950 . S
C756 C765 1.390 . S
C757 C756 1.387 1_554 S
C757 C759 1.387 . S
H758 C765 0.950 . S
C759 C757 1.387 . S
C759 C761 1.390 . S
C759 H763 0.950 . S
H760 C756 0.950 . S
C761 C759 1.390 . S
C761 C762 1.387 . S
C761 H764 0.950 . S
C762 C761 1.387 . S
C762 C765 1.387 1_554 S
H763 C759 0.950 . S
H764 C761 0.950 . S
C765 C756 1.390 . S
C765 H758 0.950 . S
C765 C762 1.387 1_556 S
C766 C767 1.387 . S
C766 H770 0.950 . S
C766 C775 1.390 . S
C767 C766 1.387 . S
C767 C769 1.387 1_554 S
H768 C775 0.950 . S
C769 C767 1.387 1_556 S
C769 C771 1.390 . S
C769 H773 0.950 . S
H770 C766 0.950 . S
C771 C769 1.390 . S
C771 C772 1.387 1_556 S
C771 H774 0.950 . S
C772 C771 1.387 1_554 S
C772 C775 1.387 . S
H773 C769 0.950 . S
H774 C771 0.950 . S
C775 C766 1.390 . S
C775 H768 0.950 . S
C775 C772 1.387 . S
C776 C777 1.387 1_556 S
C776 H780 0.950 . S
C776 C785 1.390 . S
C777 C776 1.387 1_554 S
C777 C779 1.387 . S
H778 C785 0.950 . S
C779 C777 1.387 . S
C779 C781 1.390 . S
C779 H783 0.950 . S
H780 C776 0.950 . S
C781 C779 1.390 . S
C781 C782 1.387 . S
C781 H784 0.950 . S
C782 C781 1.387 . S
C782 C785 1.387 1_554 S
H783 C779 0.950 . S
H784 C781 0.950 . S
C785 C776 1.390 . S
C785 H778 0.950 . S
C785 C782 1.387 1_556 S
C786 C787 1.387 . S
C786 H790 0.950 . S
C786 C795 1.390 . S
C787 C786 1.387 . S
C787 C789 1.387 1_556 S
H788 C795 0.950 . S
C789 C787 1.387 1_554 S
C789 C791 1.390 . S
C789 H793 0.950 . S
H790 C786 0.950 . S
C791 C789 1.390 . S
C791 C792 1.394 . S
C791 H794 0.950 . S
C792 C791 1.394 . S
C792 C795 1.380 1_554 S
H793 C789 0.950 . S
H794 C791 0.950 . S
C795 C786 1.390 . S
C795 H788 0.950 . S
C795 C792 1.380 1_556 S
C796 C797 1.393 . S
C796 H800 0.950 . S
C796 C805 1.390 . S
C797 C796 1.393 . S
C797 C799 1.381 1_554 S
H798 C805 0.950 . S
C799 C797 1.381 1_556 S
C799 C801 1.390 . S
C799 H803 0.950 . S
H800 C796 0.950 . S
C801 C799 1.390 . S
C801 C802 1.387 . S
C801 H804 0.950 . S
C802 C801 1.387 . S
C802 C805 1.387 1_556 S
H803 C799 0.950 . S
H804 C801 0.950 . S
C805 C796 1.390 . S
C805 H798 0.950 . S
C805 C802 1.387 1_554 S
C806 C807 1.381 1_556 S
C806 H810 0.950 . S
C806 C815 1.390 . S
C807 C806 1.381 1_554 S
C807 C809 1.393 . S
H808 C815 0.950 . S
C809 C807 1.393 . S
C809 C811 1.390 . S
C809 H813 0.950 . S
H810 C806 0.950 . S
C811 C809 1.390 . S
C811 C812 1.387 1_554 S
C811 H814 0.950 . S
C812 C811 1.387 1_556 S
C812 C815 1.387 . S
H813 C809 0.950 . S
H814 C811 0.950 . S
C815 C806 1.390 . S
C815 H808 0.950 . S
C815 C812 1.387 . S
C816 C817 1.387 . S
C816 H820 0.950 . S
C816 C825 1.390 . S
C817 C816 1.387 . S
C817 C819 1.387 . S
H818 C825 0.950 . S
C819 C817 1.387 . S
C819 C821 1.390 . S
C819 H823 0.950 . S
H820 C816 0.950 . S
C821 C819 1.390 . S
C821 C822 1.387 . S
C821 H824 0.950 . S
C822 C821 1.387 . S
C822 C825 1.387 . S
H823 C819 0.950 . S
H824 C821 0.950 . S
C825 C816 1.390 . S
C825 H818 0.950 . S
C825 C822 1.387 . S
C826 C827 1.387 . S
C826 H830 0.950 . S
C826 C835 1.390 . S
C827 C826 1.387 . S
C827 C829 1.387 . S
H828 C835 0.950 . S
C829 C827 1.387 . S
C829 C831 1.390 1_545 S
C829 H833 0.950 . S
H830 C826 0.950 . S
C831 C829 1.390 1_565 S
C831 C832 1.387 . S
C831 H834 0.950 . S
C832 C831 1.387 . S
C832 C835 1.387 1_565 S
H833 C829 0.950 . S
H834 C831 0.950 . S
C835 C826 1.390 . S
C835 H828 0.950 . S
C835 C832 1.387 1_545 S
C836 C837 1.387 1_655 S
C836 H840 0.950 1_655 S
C836 C845 1.390 . S
C837 C836 1.387 1_455 S
C837 C839 1.387 . S
H838 C845 0.950 . S
C839 C837 1.387 . S
C839 C841 1.390 1_455 S
C839 H843 0.950 . S
H840 C836 0.950 1_455 S
C841 C839 1.390 1_655 S
C841 C842 1.387 . S
C841 H844 0.950 . S
C842 C841 1.387 . S
C842 C845 1.387 . S
H843 C839 0.950 . S
H844 C841 0.950 . S
C845 C836 1.390 . S
C845 H838 0.950 . S
C845 C842 1.387 . S
C846 C847 1.387 . S
C846 H850 0.950 . S
C846 C855 1.390 . S
C847 C846 1.387 . S
C847 C849 1.387 . S
H848 C855 0.950 . S
C849 C847 1.387 . S
C849 C851 1.390 . S
C849 H853 0.950 . S
H850 C846 0.950 . S
C851 C849 1.390 . S
C851 C852 1.387 . S
C851 H854 0.950 . S
C852 C851 1.387 . S
C852 C855 1.387 . S
H853 C849 0.950 . S
H854 C851 0.950 . S
C855 C846 1.390 . S
C855 H848 0.950 . S
C855 C852 1.387 . S
C856 C857 1.387 . S
C856 H860 0.950 . S
C856 C865 1.390 . S
C857 C856 1.387 . S
C857 C859 1.387 . S
H858 C865 0.950 . S
C859 C857 1.387 . S
C859 C861 1.390 . S
C859 H863 0.950 . S
H860 C856 0.950 . S
C861 C859 1.390 . S
C861 C862 1.387 . S
C861 H864 0.950 . S
C862 C861 1.387 . S
C862 C865 1.387 . S
H863 C859 0.950 . S
H864 C861 0.950 . S
C865 C856 1.390 . S
C865 H858 0.950 . S
C865 C862 1.387 . S
C866 C867 1.387 . S
C866 H870 0.950 . S
C866 C875 1.390 . S
C867 C866 1.387 . S
C867 C869 1.387 . S
H868 C875 0.950 . S
C869 C867 1.387 . S
C869 C871 1.390 . S
C869 H873 0.950 . S
H870 C866 0.950 . S
C871 C869 1.390 . S
C871 C872 1.387 . S
C871 H874 0.950 . S
C872 C871 1.387 . S
C872 C875 1.387 . S
H873 C869 0.950 . S
H874 C871 0.950 . S
C875 C866 1.390 . S
C875 H868 0.950 . S
C875 C872 1.387 . S
C876 C877 1.387 . S
C876 H880 0.950 . S
C876 C885 1.390 . S
C877 C876 1.387 . S
C877 C879 1.387 . S
H878 C885 0.950 . S
C879 C877 1.387 . S
C879 C881 1.390 . S
C879 H883 0.950 . S
H880 C876 0.950 . S
C881 C879 1.390 . S
C881 C882 1.387 . S
C881 H884 0.950 . S
C882 C881 1.387 . S
C882 C885 1.387 . S
H883 C879 0.950 . S
H884 C881 0.950 . S
C885 C876 1.390 . S
C885 H878 0.950 . S
C885 C882 1.387 . S
C886 C887 1.387 . S
C886 H890 0.950 . S
C886 C895 1.390 . S
C887 C886 1.387 . S
C887 C889 1.387 . S
H888 C895 0.950 . S
C889 C887 1.387 . S
C889 C891 1.390 . S
C889 H893 0.950 . S
H890 C886 0.950 . S
C891 C889 1.390 . S
C891 C892 1.387 . S
C891 H894 0.950 . S
C892 C891 1.387 . S
C892 C895 1.387 . S
H893 C889 0.950 . S
H894 C891 0.950 . S
C895 C886 1.390 . S
C895 H888 0.950 . S
C895 C892 1.387 . S
C896 C897 1.387 . S
C896 H900 0.950 . S
C896 C905 1.390 . S
C897 C896 1.387 . S
C897 C899 1.387 . S
H898 C905 0.950 . S
C899 C897 1.387 . S
C899 C901 1.390 . S
C899 H903 0.950 . S
H900 C896 0.950 . S
C901 C899 1.390 . S
C901 C902 1.387 . S
C901 H904 0.950 . S
C902 C901 1.387 . S
C902 C905 1.387 . S
H903 C899 0.950 . S
H904 C901 0.950 . S
C905 C896 1.390 . S
C905 H898 0.950 . S
C905 C902 1.387 . S
C906 C907 1.387 1_545 S
C906 H910 0.950 1_545 S
C906 C915 1.390 . S
C907 C906 1.387 1_565 S
C907 C909 1.387 . S
H908 C915 0.950 . S
C909 C907 1.387 . S
C909 C911 1.390 1_565 S
C909 H913 0.950 . S
H910 C906 0.950 1_565 S
C911 C909 1.390 1_545 S
C911 C912 1.387 . S
C911 H914 0.950 . S
C912 C911 1.387 . S
C912 C915 1.387 . S
H913 C909 0.950 . S
H914 C911 0.950 . S
C915 C906 1.390 . S
C915 H908 0.950 . S
C915 C912 1.387 . S
C916 C917 1.387 . S
C916 H920 0.950 . S
C916 C925 1.390 1_655 S
C917 C916 1.387 . S
C917 C919 1.387 . S
H918 C925 0.950 . S
C919 C917 1.387 . S
C919 C921 1.390 1_655 S
C919 H923 0.950 . S
H920 C916 0.950 . S
C921 C919 1.390 1_455 S
C921 C922 1.387 . S
C921 H924 0.950 . S
C922 C921 1.387 . S
C922 C925 1.387 . S
H923 C919 0.950 . S
H924 C921 0.950 . S
C925 C916 1.390 1_455 S
C925 H918 0.950 . S
C925 C922 1.387 . S
C926 C927 1.387 . S
C926 H930 0.950 . S
C926 C935 1.390 . S
C927 C926 1.387 . S
C927 C929 1.387 . S
H928 C935 0.950 . S
C929 C927 1.387 . S
C929 C931 1.390 . S
C929 H933 0.950 . S
H930 C926 0.950 . S
C931 C929 1.390 . S
C931 C932 1.387 . S
C931 H934 0.950 . S
C932 C931 1.387 . S
C932 C935 1.387 . S
H933 C929 0.950 . S
H934 C931 0.950 . S
C935 C926 1.390 . S
C935 H928 0.950 . S
C935 C932 1.387 . S
C936 C937 1.387 . S
C936 H940 0.950 . S
C936 C945 1.390 . S
C937 C936 1.387 . S
C937 C939 1.387 . S
H938 C945 0.950 . S
C939 C937 1.387 . S
C939 C941 1.390 . S
C939 H943 0.950 . S
H940 C936 0.950 . S
C941 C939 1.390 . S
C941 C942 1.387 . S
C941 H944 0.950 . S
C942 C941 1.387 . S
C942 C945 1.387 . S
H943 C939 0.950 . S
H944 C941 0.950 . S
C945 C936 1.390 . S
C945 H938 0.950 . S
C945 C942 1.387 . S
C946 C947 1.387 . S
C946 H950 0.950 . S
C946 C955 1.390 . S
C947 C946 1.387 . S
C947 C949 1.387 . S
H948 C955 0.950 . S
C949 C947 1.387 . S
C949 C951 1.390 . S
C949 H953 0.950 . S
H950 C946 0.950 . S
C951 C949 1.390 . S
C951 C952 1.387 . S
C951 H954 0.950 . S
C952 C951 1.387 . S
C952 C955 1.387 . S
H953 C949 0.950 . S
H954 C951 0.950 . S
C955 C946 1.390 . S
C955 H948 0.950 . S
C955 C952 1.387 . S
C956 C957 1.387 . S
C956 H960 0.950 . S
C956 C965 1.390 . S
C957 C956 1.387 . S
C957 C959 1.387 . S
H958 C965 0.950 . S
C959 C957 1.387 . S
C959 C961 1.390 . S
C959 H963 0.950 . S
H960 C956 0.950 . S
C961 C959 1.390 . S
C961 C962 1.387 . S
C961 H964 0.950 . S
C962 C961 1.387 . S
C962 C965 1.387 . S
H963 C959 0.950 . S
H964 C961 0.950 . S
C965 C956 1.390 . S
C965 H958 0.950 . S
C965 C962 1.387 . S
C966 C967 1.387 . S
C966 H970 0.950 . S
C966 C975 1.390 . S
C967 C966 1.387 . S
C967 C969 1.387 . S
H968 C975 0.950 . S
C969 C967 1.387 . S
C969 C971 1.390 . S
C969 H973 0.950 . S
H970 C966 0.950 . S
C971 C969 1.390 . S
C971 C972 1.387 . S
C971 H974 0.950 . S
C972 C971 1.387 . S
C972 C975 1.387 . S
H973 C969 0.950 . S
H974 C971 0.950 . S
C975 C966 1.390 . S
C975 H968 0.950 . S
C975 C972 1.387 . S
C976 C977 1.387 . S
C976 H980 0.950 . S
C976 C985 1.390 . S
C977 C976 1.387 . S
C977 C979 1.387 . S
H978 C985 0.950 . S
C979 C977 1.387 . S
C979 C981 1.390 . S
C979 H983 0.950 . S
H980 C976 0.950 . S
C981 C979 1.390 . S
C981 C982 1.387 . S
C981 H984 0.950 . S
C982 C981 1.387 . S
C982 C985 1.387 . S
H983 C979 0.950 . S
H984 C981 0.950 . S
C985 C976 1.390 . S
C985 H978 0.950 . S
C985 C982 1.387 . S
C986 C987 1.387 . S
C986 H990 0.950 . S
C986 C995 1.390 . S
C987 C986 1.387 . S
C987 C989 1.387 . S
H988 C995 0.950 . S
C989 C987 1.387 . S
C989 C991 1.390 . S
C989 H993 0.950 . S
H990 C986 0.950 . S
C991 C989 1.390 . S
C991 C992 1.387 . S
C991 H994 0.950 . S
C992 C991 1.387 . S
C992 C995 1.387 . S
H993 C989 0.950 . S
H994 C991 0.950 . S
C995 C986 1.390 . S
C995 H988 0.950 . S
C995 C992 1.387 . S
C996 C997 1.387 . S
C996 H1000 0.950 . S
C996 C1005 1.390 . S
C997 C996 1.387 . S
C997 C999 1.387 . S
H998 C1005 0.950 . S
C999 C997 1.387 . S
C999 C1001 1.390 . S
C999 H1003 0.950 . S
H1000 C996 0.950 . S
C1001 C999 1.390 . S
C1001 C1002 1.387 . S
C1001 H1004 0.950 . S
C1002 C1001 1.387 . S
C1002 C1005 1.387 . S
H1003 C999 0.950 . S
H1004 C1001 0.950 . S
C1005 C996 1.390 . S
C1005 H998 0.950 . S
C1005 C1002 1.387 . S
C1006 C1007 1.387 . S
C1006 H1010 0.950 . S
C1006 C1015 1.390 1_565 S
C1007 C1006 1.387 . S
C1007 C1009 1.387 . S
H1008 C1015 0.950 . S
C1009 C1007 1.387 . S
C1009 C1011 1.390 1_565 S
C1009 H1013 0.950 . S
H1010 C1006 0.950 . S
C1011 C1009 1.390 1_545 S
C1011 C1012 1.387 . S
C1011 H1014 0.950 . S
C1012 C1011 1.387 . S
C1012 C1015 1.387 . S
H1013 C1009 0.950 . S
H1014 C1011 0.950 . S
C1015 C1006 1.390 1_545 S
C1015 H1008 0.950 . S
C1015 C1012 1.387 . S
C1016 C1017 1.387 1_455 S
C1016 H1020 0.947 1_455 S
C1016 C1025 1.390 . S
C1017 C1016 1.387 1_655 S
C1017 C1019 1.387 . S
H1018 C1025 0.950 . S
C1019 C1017 1.387 . S
C1019 C1021 1.390 1_655 S
C1019 H1023 0.950 . S
H1020 C1016 0.947 1_655 S
C1021 C1019 1.390 1_455 S
C1021 C1022 1.387 . S
C1021 H1024 0.950 . S
C1022 C1021 1.387 . S
C1022 C1025 1.387 . S
H1023 C1019 0.950 . S
H1024 C1021 0.950 . S
C1025 C1016 1.390 . S
C1025 H1018 0.950 . S
C1025 C1022 1.387 . S
C757 C156 1.180 . S
C762 C67 1.378 1_554 S
C767 C240 1.174 . S
C772 C151 1.373 1_554 S
C777 C235 1.377 1_554 S
C782 C72 1.176 . S
C787 C231 1.270 . S
C792 C140 1.455 . S
C797 C224 1.454 . S
C802 C63 1.268 . S
C807 C56 1.455 . S
C812 C147 1.270 . S
C817 C319 1.378 . S
C822 C408 1.180 . S
C827 C492 1.179 . S
C832 C403 1.378 . S
C837 C487 1.373 . S
C842 C324 1.173 . S
C847 C392 1.452 . S
C852 C483 1.266 . S
C857 C476 1.453 . S
C862 C315 1.267 . S
C867 C399 1.268 . S
C872 C308 1.452 . S
C877 C660 1.176 . S
C882 C571 1.378 . S
C887 C655 1.377 . S
C892 C744 1.175 . S
C897 C739 1.378 . S
C902 C576 1.178 . S
C907 C735 1.265 . S
C912 C644 1.453 . S
C917 C728 1.453 . S
C922 C567 1.268 . S
C927 C560 1.453 . S
C932 C651 1.263 . S
C937 C495 2.578 . S
C942 C66 2.649 . S
C947 C327 2.578 . S
C952 C150 2.649 . S
C957 C234 2.648 . S
C962 C411 2.580 . S
C967 C243 2.580 . S
C972 C570 2.650 . S
C977 C75 2.578 . S
C982 C654 2.649 . S
C987 C738 2.650 . S
C992 C159 2.579 . S
C997 C318 2.649 . S
C1002 C747 2.580 . S
C1007 C402 2.649 . S
C1012 C579 2.579 . S
C1017 C663 2.579 . S
C1022 C486 2.650 . S
