# Generated by pormake.
# Topology reo, (8)-cn, num edge types: 1
# Building blocks:
#     Node 0, Type 0, BuildingBlock: LIZSOE_clean_sbu_0, # of connection points: 8
#     Node 1, Type 0, BuildingBlock: LIZSOE_clean_sbu_0, # of connection points: 8
#     Node 2, Type 0, BuildingBlock: LIZSOE_clean_sbu_0, # of connection points: 8
#     Edge 3, Type (0, 0), BuildingBlock: CIFDUS_clean_linker_0, # of connection points: 2
#     Edge 4, Type (0, 0), BuildingBlock: CIFDUS_clean_linker_0, # of connection points: 2
#     Edge 5, Type (0, 0), BuildingBlock: CIFDUS_clean_linker_0, # of connection points: 2
#     Edge 6, Type (0, 0), BuildingBlock: CIFDUS_clean_linker_0, # of connection points: 2
#     Edge 7, Type (0, 0), BuildingBlock: CIFDUS_clean_linker_0, # of connection points: 2
#     Edge 8, Type (0, 0), BuildingBlock: CIFDUS_clean_linker_0, # of connection points: 2
#     Edge 9, Type (0, 0), BuildingBlock: CIFDUS_clean_linker_0, # of connection points: 2
#     Edge 10, Type (0, 0), BuildingBlock: CIFDUS_clean_linker_0, # of connection points: 2
#     Edge 11, Type (0, 0), BuildingBlock: CIFDUS_clean_linker_0, # of connection points: 2
#     Edge 12, Type (0, 0), BuildingBlock: CIFDUS_clean_linker_0, # of connection points: 2
#     Edge 13, Type (0, 0), BuildingBlock: CIFDUS_clean_linker_0, # of connection points: 2
#     Edge 14, Type (0, 0), BuildingBlock: CIFDUS_clean_linker_0, # of connection points: 2
# Relax obj value: 0.312
# Max RMSD: 0.282
# Mean RMSD: 0.244
data_MOF--net-reo--node1-LIZSOE_clean_sbu_0--edge1-CIFDUS_clean_linker_0
_symmetry_space_group_name_H-M    P1
_symmetry_Int_Tables_number       1
_symmetry_cell_setting            triclinic
loop_
_symmetry_equiv_pos_as_xyz
'x, y, z'
_cell_length_a     25.189822
_cell_length_b     21.048189
_cell_length_c     17.287115
_cell_angle_alpha  90.719188
_cell_angle_beta   104.90539
_cell_angle_gamma 115.7591
loop_
_atom_site_label
_atom_site_type_symbol
_atom_site_fract_x
_atom_site_fract_y
_atom_site_fract_z
_atom_type_partial_charge
Co0 Co 0.11811 0.04631 0.45161 0.0
N1 N 0.18792 0.09547 0.41881 0.0
C2 C 0.24154 0.15324 0.45583 0.0
N3 N 0.25803 0.10498 0.35559 0.0
C4 C 0.19907 0.06795 0.35716 0.0
C5 C 0.28478 0.15886 0.41734 0.0
Co6 Co 0.9249 1.00654 0.6689 0.0
N7 N 0.84928 0.96007 0.69344 0.0
N8 N 0.76319 0.93862 0.72847 0.0
C9 C 0.78855 0.89922 0.76757 0.0
C10 C 0.8408 0.91217 0.74601 0.0
C11 C 0.8005 0.97493 0.68348 0.0
Co12 Co 0.02398 0.02326 0.565 0.0
C13 C 0.98017 0.11 0.66544 0.0
H14 H 0.87321 0.892 0.7724 0.0
O15 O 0.04997 0.9856 0.47768 0.0
O16 O 0.94072 0.98104 0.48466 0.0
O17 O 0.03892 0.11568 0.517 0.0
O18 O 0.10792 0.06476 0.64326 0.0
O19 O 0.16559 0.08738 0.5597 0.0
O20 O 0.88159 0.98221 0.55916 0.0
O21 O 0.99867 0.06105 0.65389 0.0
O22 O 0.93477 0.92204 0.67166 0.0
O23 O 0.09603 0.1219 0.43444 0.0
O24 O 0.13349 0.97445 0.47077 0.0
O25 O 1.00662 0.9306 0.61239 0.0
O26 O 0.92288 0.08747 0.66288 0.0
C27 C 0.06517 0.14532 0.46343 0.0
C28 C 0.79215 0.03055 0.63559 0.0
H29 H 0.80875 0.03306 0.58185 0.0
H30 H 0.74298 1.01913 0.61554 0.0
H31 H 0.8187 0.08324 0.67429 0.0
C32 C 0.88928 0.9725 0.49153 0.0
C33 C 0.16015 0.0904 0.63023 0.0
H34 H 0.24986 0.18671 0.50995 0.0
H35 H 0.16977 0.95864 0.31432 0.0
H36 H 0.14705 1.00694 0.23909 0.0
H37 H 0.10739 0.97998 0.31499 0.0
C38 C 0.15286 0.99938 0.30348 0.0
C39 C 0.07735 0.94403 0.47479 0.0
C40 C 0.96848 0.89739 0.65219 0.0
H41 H 0.33266 0.19839 0.43457 0.0
H42 H 0.77259 0.86691 0.8128 0.0
Co43 Co 0.55377 0.19798 0.08623 0.0
N44 N 0.56761 0.28621 0.05522 0.0
C45 C 0.5618 0.30568 0.98097 0.0
N46 N 0.5607 0.38932 0.05986 0.0
C47 C 0.57049 0.33966 0.10264 0.0
C48 C 0.55796 0.36893 0.98374 0.0
Co49 Co 0.49843 0.85962 1.03366 0.0
N50 N 0.49729 0.77625 0.06795 0.0
N51 N 0.52304 0.68831 0.09788 0.0
C52 C 0.47219 0.67438 0.11998 0.0
C53 C 0.45621 0.72844 0.10113 0.0
C54 C 0.53781 0.75023 0.06723 0.0
Co55 Co 0.52142 0.02707 0.05969 0.0
C56 C 0.53083 0.91737 0.94869 0.0
H57 H 0.41684 0.7323 0.11062 0.0
O58 O 0.53667 0.11577 0.12359 0.0
O59 O 0.58986 0.02101 0.14461 0.0
O60 O 0.5816 0.07977 1.00155 0.0
O61 O 0.45372 0.03384 0.97585 0.0
O62 O 0.48632 0.15211 0.98788 0.0
O63 O 0.57856 0.91193 0.10865 0.0
O64 O 0.50497 0.938 0.99459 0.0
O65 O 0.46803 0.87128 0.11658 0.0
O66 O 0.60941 0.19467 1.03661 0.0
O67 O 0.49971 0.1942 0.13524 0.0
O68 O 0.46269 0.97367 0.12049 0.0
O69 O 0.52665 0.8541 0.95126 0.0
C70 C 0.61507 0.14541 1.0023 0.0
C71 C 0.59237 0.78405 1.03429 0.0
H72 H 0.61223 0.84263 1.04054 0.0
H73 H 0.62964 0.77045 0.06553 0.0
H74 H 0.57753 0.76311 0.9691 0.0
C75 C 0.60829 0.97275 0.15279 0.0
C76 C 0.44792 0.08875 0.9531 0.0
H77 H 0.55478 0.27281 0.92707 0.0
H78 H 0.54166 0.33563 0.21035 0.0
H79 H 0.62277 0.39214 0.22391 0.0
H80 H 0.59462 0.29812 0.21311 0.0
C81 C 0.58261 0.3412 0.19257 0.0
C82 C 0.49864 0.13318 0.14762 0.0
C83 C 0.4547 0.9153 0.1472 0.0
H84 H 0.54721 0.3938 0.93151 0.0
H85 H 0.44783 0.62821 0.14622 0.0
Co86 Co 0.13703 0.48507 0.06133 0.0
N87 N 0.2118 0.48019 0.10386 0.0
C88 C 0.21627 0.43091 0.15094 0.0
N89 N 0.30268 0.47896 0.11755 0.0
C90 C 0.26597 0.50934 0.08516 0.0
C91 C 0.27176 0.4304 0.15974 0.0
Co92 Co 0.92227 0.58413 0.06474 0.0
N93 N 0.84598 0.57987 1.01344 0.0
N94 N 0.7523 0.57553 0.99084 0.0
C95 C 0.75376 0.54226 0.92479 0.0
C96 C 0.81111 0.54627 0.9382 0.0
C97 C 0.80999 0.59983 1.04306 0.0
Co98 Co 0.03194 0.53519 0.07153 0.0
C99 C 0.96488 0.582 0.17856 0.0
H100 H 0.8262 0.52486 0.89604 0.0
O101 O 0.06706 0.48452 1.01416 0.0
O102 O 0.02508 0.58828 0.97331 0.0
O103 O 0.10877 0.61796 0.12562 0.0
O104 O 0.04048 0.48178 0.16998 0.0
O105 O 0.11248 0.45198 0.15299 0.0
O106 O 0.94924 0.61665 0.9754 0.0
O107 O 0.9932 0.58778 0.12215 0.0
O108 O 0.88814 0.48958 1.01583 0.0
O109 O 0.17688 0.58105 0.11542 0.0
O110 O 0.15424 0.51693 0.97232 0.0
O111 O 0.95608 0.45078 1.01647 0.0
O112 O 0.90485 0.55493 0.15512 0.0
C113 C 0.16342 0.62792 0.13942 0.0
C114 C 0.83518 0.6505 0.1197 0.0
H115 H 0.88605 0.68099 0.13444 0.0
H116 H 0.81495 0.68832 0.11396 0.0
H117 H 0.82392 0.61996 0.16981 0.0
C118 C 0.98986 0.61732 0.94389 0.0
C119 C 0.07563 0.45107 0.19185 0.0
H120 H 0.17955 0.39316 0.1723 0.0
H121 H 0.26287 0.54415 0.96884 0.0
H122 H 0.33407 0.59625 1.04586 0.0
H123 H 0.26628 0.60618 1.04541 0.0
C124 C 0.28335 0.5676 1.0336 0.0
C125 C 0.10154 0.46883 0.97789 0.0
C126 C 0.90191 0.44246 0.99528 0.0
H127 H 0.28567 0.3923 0.18818 0.0
H128 H 0.71567 0.51545 0.87062 0.0
H129 H 0.98131 0.3416 0.23784 0.0
H130 H 0.17807 0.47281 0.30775 0.0
H131 H 0.19287 0.3925 0.40124 0.0
H132 H 0.15188 0.27632 0.45041 0.0
H133 H 0.95568 0.1471 0.39093 0.0
H134 H 0.93876 0.23422 0.30774 0.0
C135 C 0.02711 0.35415 0.276 0.0
C136 C 0.07852 0.41397 0.26541 0.0
C137 C 0.03566 0.30682 0.33075 0.0
C138 C 0.13759 0.42784 0.31457 0.0
C139 C 0.14628 0.38132 0.36775 0.0
C140 C 0.10538 0.26812 0.42087 0.0
C141 C 0.0552 0.20506 0.42708 0.0
C142 C 0.09599 0.3193 0.37434 0.0
C143 C 0.99522 0.19535 0.38798 0.0
C144 C 0.98554 0.24514 0.33981 0.0
H145 H 0.83859 0.06044 0.45893 0.0
H146 H 0.83164 0.86663 0.36172 0.0
H147 H 0.74436 0.85093 0.24554 0.0
H148 H 0.66779 0.88994 0.17731 0.0
H149 H 0.67724 0.0862 0.27369 0.0
H150 H 0.76643 0.10357 0.38564 0.0
C151 C 0.81754 1.01459 0.41233 0.0
C152 C 0.83989 0.96372 0.41896 0.0
C153 C 0.76833 1.00665 0.34624 0.0
C154 C 0.81433 0.90583 0.35753 0.0
C155 C 0.76463 0.89698 0.29158 0.0
C156 C 0.68947 0.9369 0.22211 0.0
C157 C 0.66534 0.98643 0.21708 0.0
C158 C 0.74084 0.94668 0.28601 0.0
C159 C 0.69457 0.04711 0.27597 0.0
C160 C 0.7455 0.05703 0.34013 0.0
H161 H 0.12928 0.86251 0.43564 0.0
H162 H 0.95078 0.84648 0.42676 0.0
H163 H 0.9019 0.72755 0.34574 0.0
H164 H 0.9103 0.63338 0.26761 0.0
H165 H 0.08913 0.66531 0.25587 0.0
H166 H 0.13742 0.77225 0.35618 0.0
C167 C 0.07941 0.83373 0.417 0.0
C168 C 0.04419 0.86541 0.43859 0.0
C169 C 0.05175 0.76785 0.36581 0.0
C170 C 0.97969 0.82483 0.41277 0.0
C171 C 0.95174 0.75673 0.36551 0.0
C172 C 0.95987 0.66364 0.28586 0.0
C173 C 0.99552 0.64037 0.25143 0.0
C174 C 0.98731 0.72851 0.33985 0.0
C175 C 0.05993 0.68058 0.27963 0.0
C176 C 0.08762 0.74239 0.33705 0.0
H177 H 0.37767 0.08617 0.08848 0.0
H178 H 0.51714 0.08878 0.29544 0.0
H179 H 0.44903 0.07236 0.38056 0.0
H180 H 0.35888 0.08385 0.40009 0.0
H181 H 0.22523 0.09294 0.1934 0.0
H182 H 0.28149 0.07871 0.1039 0.0
C183 C 0.39184 0.07962 0.15149 0.0
C184 C 0.45199 0.08824 0.18582 0.0
C185 C 0.3541 0.075 0.20047 0.0
C186 C 0.4706 0.08099 0.26757 0.0
C187 C 0.43213 0.0733 0.31648 0.0
C188 C 0.34189 0.08144 0.33525 0.0
C189 C 0.288 0.08911 0.30296 0.0
C190 C 0.37538 0.0747 0.28444 0.0
C191 C 0.26596 0.08589 0.21909 0.0
C192 C 0.29834 0.07818 0.16813 0.0
H193 H 0.0617 0.86134 0.72373 0.0
H194 H 0.86431 0.78204 0.65242 0.0
H195 H 0.85343 0.68196 0.72709 0.0
H196 H 0.89975 0.62624 0.82739 0.0
H197 H 0.09673 0.70492 0.90675 0.0
H198 H 0.10804 0.79436 0.81368 0.0
C199 C 1.0163 0.82088 0.72264 0.0
C200 C 0.96377 0.82939 0.68218 0.0
C201 C 1.01033 0.7636 0.76816 0.0
C202 C 0.90539 0.777 0.68277 0.0
C203 C 0.89912 0.71977 0.72589 0.0
C204 C 0.9452 0.66183 0.82308 0.0
C205 C 0.99731 0.65876 0.87437 0.0
C206 C 0.95125 0.7139 0.77105 0.0
C207 C 0.05575 0.70536 0.86759 0.0
C208 C 0.06219 0.75716 0.81489 0.0
H209 H 0.42589 0.18692 0.86655 0.0
H210 H 0.33899 0.96744 0.9061 0.0
H211 H 0.24047 0.95241 0.8181 0.0
H212 H 0.17898 1.00037 0.72776 0.0
H213 H 0.26642 0.2152 0.67651 0.0
H214 H 0.36447 0.23423 0.77285 0.0
C215 C 0.38549 0.13567 0.85545 0.0
C216 C 0.39009 0.07829 0.89258 0.0
C217 C 0.32884 0.12708 0.804 0.0
C218 C 0.33717 1.01225 0.87751 0.0
C219 C 0.28056 1.00374 0.82781 0.0
C220 C 0.21929 0.05185 0.73944 0.0
C221 C 0.21556 0.10718 0.69763 0.0
C222 C 0.27581 0.06077 0.79104 0.0
C223 C 0.26831 0.17271 0.71003 0.0
C224 C 0.32431 0.18315 0.7642 0.0
H225 H 0.14219 0.4281 0.85864 0.0
H226 H 0.99786 0.34774 0.97557 0.0
H227 H 0.95497 0.23058 0.89703 0.0
H228 H 0.95675 0.15097 0.79646 0.0
H229 H 0.09225 0.22775 0.66583 0.0
H230 H 0.1418 0.34534 0.751 0.0
C231 C 0.10094 0.38523 0.86655 0.0
C232 C 0.07302 0.39818 0.9233 0.0
C233 C 0.07566 0.31689 0.81977 0.0
C234 C 0.02004 0.34088 0.93235 0.0
C235 C 0.99571 0.27331 0.88767 0.0
C236 C 0.99716 0.19304 0.78544 0.0
C237 C 0.0201 0.17933 0.7232 0.0
C238 C 0.02301 0.26077 0.83143 0.0
C239 C 0.07341 0.23534 0.71285 0.0
C240 C 0.10122 0.30308 0.76118 0.0
H241 H 0.52172 0.91531 0.78907 0.0
H242 H 0.6485 1.00711 1.02632 0.0
H243 H 0.7348 0.03041 0.97487 0.0
H244 H 0.77293 1.00298 0.86853 0.0
H245 H 0.6473 0.89937 0.63347 0.0
H246 H 0.56225 0.90211 0.67634 0.0
C247 C 0.56854 0.94457 0.82826 0.0
C248 C 0.57828 0.96314 0.91132 0.0
C249 C 0.61826 0.95304 0.79861 0.0
C250 C 0.63922 0.99621 0.96194 0.0
C251 C 0.68889 1.00775 0.93266 0.0
C252 C 0.7271 0.9827 0.82643 0.0
C253 C 0.71595 0.95099 0.74829 0.0
C254 C 0.6787 0.98326 0.85214 0.0
C255 C 0.6566 0.92425 0.69385 0.0
C256 C 0.60815 0.92569 0.71857 0.0
H257 H 0.41299 0.50103 0.21279 0.0
H258 H 0.30122 0.45108 0.96484 0.0
H259 H 0.377 0.4274 0.92216 0.0
H260 H 0.46667 0.40465 0.95881 0.0
H261 H 0.5863 0.4695 0.20404 0.0
H262 H 0.51518 0.50228 0.24489 0.0
C263 C 0.4063 0.48646 0.14938 0.0
C264 C 0.35228 0.4783 0.09184 0.0
C265 C 0.4503 0.47358 0.12535 0.0
C266 C 0.34332 0.45919 1.00972 0.0
C267 C 0.38628 0.44499 0.98553 0.0
C268 C 0.4787 0.42781 1.02087 0.0
C269 C 0.53013 0.42934 0.07931 0.0
C270 C 0.43905 0.45004 1.04323 0.0
C271 C 0.54457 0.46119 0.15886 0.0
C272 C 0.50434 0.48141 0.18217 0.0
H273 H 0.27679 0.66291 0.23914 0.0
H274 H 0.15751 0.75243 0.12115 0.0
H275 H 0.24542 0.86975 0.14401 0.0
H276 H 0.35497 0.93051 0.15315 0.0
H277 H 0.47404 0.84009 0.26755 0.0
H278 H 0.38781 0.74086 0.29506 0.0
C279 C 0.27015 0.70877 0.22107 0.0
C280 C 0.21213 0.69928 0.17519 0.0
C281 C 0.32077 0.77575 0.23375 0.0
C282 C 0.2027 0.75875 0.15453 0.0
C283 C 0.25281 0.82582 0.16758 0.0
C284 C 0.36273 0.89179 0.18899 0.0
C285 C 0.41912 0.88963 0.20457 0.0
C286 C 0.31237 0.83326 0.20085 0.0
C287 C 0.4297 0.84056 0.25263 0.0
C288 C 0.38031 0.7833 0.26725 0.0
H289 H 0.63942 0.21337 0.87683 0.0
H290 H 0.7139 0.12911 0.07874 0.0
H291 H 0.8179 0.20235 0.07197 0.0
H292 H 0.88499 0.31659 1.0408 0.0
H293 H 0.81031 0.41498 0.85589 0.0
H294 H 0.70972 0.31058 0.82167 0.0
C295 C 0.67853 0.20894 0.91618 0.0
C296 C 0.67005 0.16608 0.97716 0.0
C297 C 0.73828 0.2557 0.91641 0.0
C298 C 0.72009 0.16082 1.02989 0.0
C299 C 0.77953 0.20351 1.02687 0.0
C300 C 0.84715 0.31345 0.99082 0.0
C301 C 0.8527 0.37364 0.95386 0.0
C302 C 0.78917 0.25527 0.97511 0.0
C303 C 0.80488 0.36996 0.88808 0.0
C304 C 0.74776 0.31023 0.86821 0.0
H305 H 0.72218 0.58655 0.13009 0.0
H306 H 0.65819 0.57353 0.87046 0.0
H307 H 0.5692 0.58554 0.88264 0.0
H308 H 0.51865 0.61943 0.96655 0.0
H309 H 0.59734 0.66556 0.22446 0.0
H310 H 0.67345 0.6245 0.21479 0.0
C311 C 0.69074 0.58936 0.07617 0.0
C312 C 0.69914 0.58189 0.99964 0.0
C313 C 0.64221 0.6026 0.08373 0.0
C314 C 0.6538 0.57944 0.93039 0.0
C315 C 0.60279 0.58674 0.93715 0.0
C316 C 0.55126 0.61772 1.02045 0.0
C317 C 0.55233 0.64374 0.096 0.0
C318 C 0.59757 0.60043 1.01346 0.0
C319 C 0.59541 0.64405 0.16602 0.0
C320 C 0.63942 0.62204 0.16012 0.0
loop_
_geom_bond_atom_site_label_1
_geom_bond_atom_site_label_2
_geom_bond_distance
_geom_bond_site_symmetry_2
_ccdc_geom_bond_type
Co0 N1 2.034 . S
Co0 O15 2.262 1_545 S
Co0 O19 1.958 . S
Co0 O23 1.950 . S
Co0 O24 2.057 1_545 S
N1 Co0 2.034 . S
N1 C2 1.366 . S
N1 C4 1.332 . S
C2 N1 1.366 . S
C2 C5 1.377 . S
C2 H34 0.931 . S
N3 C4 1.346 . S
N3 C5 1.337 . S
C4 N1 1.332 . S
C4 N3 1.346 . S
C4 C38 1.361 . S
C5 C2 1.377 . S
C5 N3 1.337 . S
C5 H41 0.930 . S
Co6 N7 2.034 . S
Co6 O20 1.950 . S
Co6 O21 2.262 1_565 S
Co6 O22 1.958 . S
Co6 O26 2.057 1_565 S
N7 Co6 2.034 . S
N7 C10 1.366 . S
N7 C11 1.332 . S
N8 C9 1.337 . S
N8 C11 1.346 . S
C9 N8 1.337 . S
C9 C10 1.377 . S
C9 H42 0.930 . S
C10 N7 1.366 . S
C10 C9 1.377 . S
C10 H14 0.931 . S
C11 N7 1.332 . S
C11 N8 1.346 . S
C11 C28 1.361 1_565 S
Co12 O15 2.097 1_545 S
Co12 O16 2.065 1_445 S
Co12 O17 2.065 . S
Co12 O18 2.042 . S
Co12 O21 2.097 1_455 S
Co12 O25 2.042 1_445 S
C13 O21 1.253 . S
C13 O26 1.263 . S
H14 C10 0.931 . S
O15 Co0 2.262 1_565 S
O15 Co12 2.097 1_565 S
O15 C39 1.253 . S
O16 Co12 2.065 1_665 S
O16 C32 1.221 . S
O17 Co12 2.065 . S
O17 C27 1.221 . S
O18 Co12 2.042 . S
O18 C33 1.237 . S
O19 Co0 1.958 . S
O19 C33 1.278 . S
O20 Co6 1.950 . S
O20 C32 1.277 . S
O21 Co6 2.262 1_545 S
O21 Co12 2.097 1_655 S
O21 C13 1.253 . S
O22 Co6 1.958 . S
O22 C40 1.278 . S
O23 Co0 1.950 . S
O23 C27 1.277 . S
O24 Co0 2.057 1_565 S
O24 C39 1.263 . S
O25 Co12 2.042 1_665 S
O25 C40 1.237 . S
O26 Co6 2.057 1_545 S
O26 C13 1.263 . S
C27 O17 1.221 . S
C27 O23 1.277 . S
C28 C11 1.361 1_545 S
C28 H29 0.960 . S
C28 H30 0.961 1_545 S
C28 H31 0.961 . S
H29 C28 0.960 . S
H30 C28 0.961 1_565 S
H31 C28 0.961 . S
C32 O16 1.221 . S
C32 O20 1.277 . S
C33 O18 1.237 . S
C33 O19 1.278 . S
H34 C2 0.931 . S
H35 C38 0.961 . S
H36 C38 0.961 . S
H37 C38 0.960 . S
C38 C4 1.361 . S
C38 H35 0.961 . S
C38 H36 0.961 . S
C38 H37 0.960 . S
C39 O15 1.253 . S
C39 O24 1.263 . S
C40 O22 1.278 . S
C40 O25 1.237 . S
H41 C5 0.930 . S
H42 C9 0.930 . S
Co43 N44 2.034 1_554 S
Co43 O58 2.262 . S
Co43 O62 1.958 1_554 S
Co43 O66 1.950 . S
Co43 O67 2.057 . S
N44 Co43 2.034 1_556 S
N44 C45 1.366 . S
N44 C47 1.332 1_556 S
C45 N44 1.366 . S
C45 C48 1.377 . S
C45 H77 0.931 . S
N46 C47 1.346 . S
N46 C48 1.337 1_554 S
C47 N44 1.332 1_554 S
C47 N46 1.346 . S
C47 C81 1.361 . S
C48 C45 1.377 . S
C48 N46 1.337 1_556 S
C48 H84 0.930 . S
Co49 N50 2.034 . S
Co49 O63 1.950 . S
Co49 O64 2.262 1_554 S
Co49 O65 1.958 1_554 S
Co49 O69 2.057 1_554 S
N50 Co49 2.034 . S
N50 C53 1.366 . S
N50 C54 1.332 . S
N51 C52 1.337 . S
N51 C54 1.346 . S
C52 N51 1.337 . S
C52 C53 1.377 . S
C52 H85 0.930 . S
C53 N50 1.366 . S
C53 C52 1.377 . S
C53 H57 0.931 . S
C54 N50 1.332 . S
C54 N51 1.346 . S
C54 C71 1.361 . S
Co55 O58 2.097 . S
Co55 O59 2.065 . S
Co55 O60 2.065 . S
Co55 O61 2.042 1_554 S
Co55 O64 2.097 1_544 S
Co55 O68 2.042 1_545 S
C56 O64 1.253 . S
C56 O69 1.263 . S
H57 C53 0.931 . S
O58 Co43 2.262 . S
O58 Co55 2.097 . S
O58 C82 1.253 . S
O59 Co55 2.065 . S
O59 C75 1.221 1_545 S
O60 Co55 2.065 . S
O60 C70 1.221 . S
O61 Co55 2.042 1_556 S
O61 C76 1.237 . S
O62 Co43 1.958 1_556 S
O62 C76 1.278 . S
O63 Co49 1.950 . S
O63 C75 1.277 . S
O64 Co49 2.262 1_556 S
O64 Co55 2.097 1_566 S
O64 C56 1.253 . S
O65 Co49 1.958 1_556 S
O65 C83 1.278 . S
O66 Co43 1.950 . S
O66 C70 1.277 . S
O67 Co43 2.057 . S
O67 C82 1.263 . S
O68 Co55 2.042 1_565 S
O68 C83 1.237 1_554 S
O69 Co49 2.057 1_556 S
O69 C56 1.263 . S
C70 O60 1.221 . S
C70 O66 1.277 . S
C71 C54 1.361 . S
C71 H72 0.960 . S
C71 H73 0.961 . S
C71 H74 0.961 . S
H72 C71 0.960 . S
H73 C71 0.961 . S
H74 C71 0.961 . S
C75 O59 1.221 1_565 S
C75 O63 1.277 . S
C76 O61 1.237 . S
C76 O62 1.278 . S
H77 C45 0.931 . S
H78 C81 0.961 . S
H79 C81 0.961 . S
H80 C81 0.960 . S
C81 C47 1.361 . S
C81 H78 0.961 . S
C81 H79 0.961 . S
C81 H80 0.960 . S
C82 O58 1.253 . S
C82 O67 1.263 . S
C83 O65 1.278 . S
C83 O68 1.237 1_556 S
H84 C48 0.930 . S
H85 C52 0.930 . S
Co86 N87 2.034 . S
Co86 O101 2.262 1_554 S
Co86 O105 1.958 . S
Co86 O109 1.950 . S
Co86 O110 2.057 1_554 S
N87 Co86 2.034 . S
N87 C88 1.366 . S
N87 C90 1.332 . S
C88 N87 1.366 . S
C88 C91 1.377 . S
C88 H120 0.931 . S
N89 C90 1.346 . S
N89 C91 1.337 . S
C90 N87 1.332 . S
C90 N89 1.346 . S
C90 C124 1.361 1_554 S
C91 C88 1.377 . S
C91 N89 1.337 . S
C91 H127 0.930 . S
Co92 N93 2.034 1_554 S
Co92 O106 1.950 1_554 S
Co92 O107 2.262 . S
Co92 O108 1.958 . S
Co92 O112 2.057 . S
N93 Co92 2.034 1_556 S
N93 C96 1.366 . S
N93 C97 1.332 . S
N94 C95 1.337 . S
N94 C97 1.346 . S
C95 N94 1.337 . S
C95 C96 1.377 . S
C95 H128 0.930 . S
C96 N93 1.366 . S
C96 C95 1.377 . S
C96 H100 0.931 . S
C97 N93 1.332 . S
C97 N94 1.346 . S
C97 C114 1.361 . S
Co98 O101 2.097 1_554 S
Co98 O102 2.065 1_454 S
Co98 O103 2.065 . S
Co98 O104 2.042 . S
Co98 O107 2.097 1_455 S
Co98 O111 2.042 1_454 S
C99 O107 1.253 . S
C99 O112 1.263 . S
H100 C96 0.931 . S
O101 Co86 2.262 1_556 S
O101 Co98 2.097 1_556 S
O101 C125 1.253 . S
O102 Co98 2.065 1_656 S
O102 C118 1.221 . S
O103 Co98 2.065 . S
O103 C113 1.221 . S
O104 Co98 2.042 . S
O104 C119 1.237 . S
O105 Co86 1.958 . S
O105 C119 1.278 . S
O106 Co92 1.950 1_556 S
O106 C118 1.277 . S
O107 Co92 2.262 . S
O107 Co98 2.097 1_655 S
O107 C99 1.253 . S
O108 Co92 1.958 . S
O108 C126 1.278 1_554 S
O109 Co86 1.950 . S
O109 C113 1.277 . S
O110 Co86 2.057 1_556 S
O110 C125 1.263 . S
O111 Co98 2.042 1_656 S
O111 C126 1.237 . S
O112 Co92 2.057 . S
O112 C99 1.263 . S
C113 O103 1.221 . S
C113 O109 1.277 . S
C114 C97 1.361 . S
C114 H115 0.960 . S
C114 H116 0.961 . S
C114 H117 0.961 1_556 S
H115 C114 0.960 . S
H116 C114 0.961 . S
H117 C114 0.961 1_554 S
C118 O102 1.221 . S
C118 O106 1.277 . S
C119 O104 1.237 . S
C119 O105 1.278 . S
H120 C88 0.931 . S
H121 C124 0.961 . S
H122 C124 0.961 . S
H123 C124 0.960 . S
C124 C90 1.361 1_556 S
C124 H121 0.961 . S
C124 H122 0.961 . S
C124 H123 0.960 . S
C125 O101 1.253 . S
C125 O110 1.263 . S
C126 O108 1.278 1_556 S
C126 O111 1.237 . S
H127 C91 0.930 . S
H128 C95 0.930 . S
H129 C135 0.930 1_655 S
H130 C138 0.930 . S
H131 C139 0.930 . S
H132 C140 0.930 . S
H133 C143 0.930 . S
H134 C144 0.930 . S
C135 H129 0.930 1_455 S
C135 C136 1.355 . S
C135 C137 1.415 . S
C136 C135 1.355 . S
C136 C138 1.419 . S
C137 C135 1.415 . S
C137 C142 1.425 . S
C137 C144 1.409 1_455 S
C138 H130 0.930 . S
C138 C136 1.419 . S
C138 C139 1.362 . S
C139 H131 0.930 . S
C139 C138 1.362 . S
C139 C142 1.409 . S
C140 H132 0.930 . S
C140 C141 1.355 . S
C140 C142 1.415 . S
C141 C140 1.355 . S
C141 C143 1.419 1_455 S
C142 C137 1.425 . S
C142 C139 1.409 . S
C142 C140 1.415 . S
C143 H133 0.930 . S
C143 C141 1.419 1_655 S
C143 C144 1.362 . S
C144 H134 0.930 . S
C144 C137 1.409 1_655 S
C144 C143 1.362 . S
H145 C151 0.930 . S
H146 C154 0.930 . S
H147 C155 0.930 . S
H148 C156 0.930 . S
H149 C159 0.930 . S
H150 C160 0.930 . S
C151 H145 0.930 . S
C151 C152 1.355 . S
C151 C153 1.415 . S
C152 C151 1.355 . S
C152 C154 1.419 . S
C153 C151 1.415 . S
C153 C158 1.425 . S
C153 C160 1.409 . S
C154 H146 0.930 . S
C154 C152 1.419 . S
C154 C155 1.362 . S
C155 H147 0.930 . S
C155 C154 1.362 . S
C155 C158 1.409 . S
C156 H148 0.930 . S
C156 C157 1.355 . S
C156 C158 1.415 1_545 S
C157 C156 1.355 . S
C157 C159 1.419 1_545 S
C158 C153 1.425 . S
C158 C155 1.409 . S
C158 C156 1.415 1_565 S
C159 H149 0.930 . S
C159 C157 1.419 1_565 S
C159 C160 1.362 . S
C160 H150 0.930 . S
C160 C153 1.409 . S
C160 C159 1.362 . S
H161 C167 0.930 . S
H162 C170 0.930 . S
H163 C171 0.930 . S
H164 C172 0.930 . S
H165 C175 0.930 . S
H166 C176 0.930 . S
C167 H161 0.930 . S
C167 C168 1.355 . S
C167 C169 1.415 . S
C168 C167 1.355 . S
C168 C170 1.419 1_655 S
C169 C167 1.415 . S
C169 C174 1.425 1_655 S
C169 C176 1.409 . S
C170 H162 0.930 . S
C170 C168 1.419 1_455 S
C170 C171 1.362 . S
C171 H163 0.930 . S
C171 C170 1.362 . S
C171 C174 1.409 . S
C172 H164 0.930 . S
C172 C173 1.355 . S
C172 C174 1.415 . S
C173 C172 1.355 . S
C173 C175 1.419 1_455 S
C174 C169 1.425 1_455 S
C174 C171 1.409 . S
C174 C172 1.415 . S
C175 H165 0.930 . S
C175 C173 1.419 1_655 S
C175 C176 1.362 . S
C176 H166 0.930 . S
C176 C169 1.409 . S
C176 C175 1.362 . S
H177 C183 0.930 . S
H178 C186 0.930 . S
H179 C187 0.930 . S
H180 C188 0.930 . S
H181 C191 0.930 . S
H182 C192 0.930 . S
C183 H177 0.930 . S
C183 C184 1.355 1_565 S
C183 C185 1.415 1_565 S
C184 C183 1.355 1_545 S
C184 C186 1.419 . S
C185 C183 1.415 1_545 S
C185 C190 1.425 . S
C185 C192 1.409 1_545 S
C186 H178 0.930 . S
C186 C184 1.419 . S
C186 C187 1.362 . S
C187 H179 0.930 . S
C187 C186 1.362 . S
C187 C190 1.409 . S
C188 H180 0.930 . S
C188 C189 1.355 . S
C188 C190 1.415 . S
C189 C188 1.355 . S
C189 C191 1.419 1_545 S
C190 C185 1.425 . S
C190 C187 1.409 . S
C190 C188 1.415 . S
C191 H181 0.930 . S
C191 C189 1.419 1_565 S
C191 C192 1.362 . S
C192 H182 0.930 . S
C192 C185 1.409 1_565 S
C192 C191 1.362 . S
H193 C199 0.930 . S
H194 C202 0.930 . S
H195 C203 0.930 . S
H196 C204 0.930 . S
H197 C207 0.930 . S
H198 C208 0.930 . S
C199 H193 0.930 . S
C199 C200 1.355 . S
C199 C201 1.415 . S
C200 C199 1.355 . S
C200 C202 1.419 . S
C201 C199 1.415 . S
C201 C206 1.425 . S
C201 C208 1.409 . S
C202 H194 0.930 . S
C202 C200 1.419 . S
C202 C203 1.362 . S
C203 H195 0.930 . S
C203 C202 1.362 . S
C203 C206 1.409 . S
C204 H196 0.930 . S
C204 C205 1.355 . S
C204 C206 1.415 . S
C205 C204 1.355 . S
C205 C207 1.419 . S
C206 C201 1.425 . S
C206 C203 1.409 . S
C206 C204 1.415 . S
C207 H197 0.930 . S
C207 C205 1.419 . S
C207 C208 1.362 . S
C208 H198 0.930 . S
C208 C201 1.409 . S
C208 C207 1.362 . S
H209 C215 0.930 . S
H210 C218 0.930 . S
H211 C219 0.930 . S
H212 C220 0.930 . S
H213 C223 0.930 . S
H214 C224 0.930 . S
C215 H209 0.930 . S
C215 C216 1.355 . S
C215 C217 1.415 . S
C216 C215 1.355 . S
C216 C218 1.419 1_545 S
C217 C215 1.415 . S
C217 C222 1.425 . S
C217 C224 1.409 . S
C218 H210 0.930 . S
C218 C216 1.419 1_565 S
C218 C219 1.362 . S
C219 H211 0.930 . S
C219 C218 1.362 . S
C219 C222 1.409 1_565 S
C220 H212 0.930 . S
C220 C221 1.355 . S
C220 C222 1.415 . S
C221 C220 1.355 . S
C221 C223 1.419 . S
C222 C217 1.425 . S
C222 C219 1.409 1_545 S
C222 C220 1.415 . S
C223 H213 0.930 . S
C223 C221 1.419 . S
C223 C224 1.362 . S
C224 H214 0.930 . S
C224 C217 1.409 . S
C224 C223 1.362 . S
H225 C231 0.930 . S
H226 C234 0.930 . S
H227 C235 0.930 . S
H228 C236 0.929 . S
H229 C239 0.930 . S
H230 C240 0.930 . S
C231 H225 0.930 . S
C231 C232 1.355 1_455 S
C231 C233 1.415 . S
C232 C231 1.355 1_655 S
C232 C234 1.419 . S
C233 C231 1.415 . S
C233 C238 1.425 1_455 S
C233 C240 1.409 . S
C234 H226 0.930 . S
C234 C232 1.419 . S
C234 C235 1.362 . S
C235 H227 0.930 . S
C235 C234 1.362 . S
C235 C238 1.409 . S
C236 H228 0.929 . S
C236 C237 1.354 1_655 S
C236 C238 1.415 . S
C237 C236 1.354 1_455 S
C237 C239 1.419 . S
C238 C233 1.425 1_655 S
C238 C235 1.409 . S
C238 C236 1.415 . S
C239 H229 0.930 . S
C239 C237 1.419 . S
C239 C240 1.362 . S
C240 H230 0.930 . S
C240 C233 1.409 . S
C240 C239 1.362 . S
H241 C247 0.930 . S
H242 C250 0.930 . S
H243 C251 0.930 . S
H244 C252 0.930 . S
H245 C255 0.930 . S
H246 C256 0.930 . S
C247 H241 0.930 . S
C247 C248 1.355 . S
C247 C249 1.415 . S
C248 C247 1.355 . S
C248 C250 1.419 1_565 S
C249 C247 1.415 . S
C249 C254 1.428 . S
C249 C256 1.409 . S
C250 H242 0.930 . S
C250 C248 1.419 1_545 S
C250 C251 1.362 . S
C251 H243 0.930 . S
C251 C250 1.362 . S
C251 C254 1.405 1_545 S
C252 H244 0.930 . S
C252 C253 1.355 1_545 S
C252 C254 1.416 1_545 S
C253 C252 1.355 1_565 S
C253 C255 1.419 . S
C254 C249 1.428 . S
C254 C251 1.405 1_565 S
C254 C252 1.416 1_565 S
C255 H245 0.930 . S
C255 C253 1.419 . S
C255 C256 1.362 . S
C256 H246 0.930 . S
C256 C249 1.409 . S
C256 C255 1.362 . S
H257 C263 0.930 . S
H258 C266 0.930 . S
H259 C267 0.930 . S
H260 C268 0.930 . S
H261 C271 0.930 . S
H262 C272 0.930 . S
C263 H257 0.930 . S
C263 C264 1.355 . S
C263 C265 1.415 . S
C264 C263 1.355 . S
C264 C266 1.419 1_554 S
C265 C263 1.415 . S
C265 C270 1.425 1_554 S
C265 C272 1.409 . S
C266 H258 0.930 . S
C266 C264 1.419 1_556 S
C266 C267 1.362 . S
C267 H259 0.930 . S
C267 C266 1.362 . S
C267 C270 1.409 . S
C268 H260 0.930 . S
C268 C269 1.355 1_556 S
C268 C270 1.415 . S
C269 C268 1.355 1_554 S
C269 C271 1.419 . S
C270 C265 1.425 1_556 S
C270 C267 1.409 . S
C270 C268 1.415 . S
C271 H261 0.930 . S
C271 C269 1.419 . S
C271 C272 1.362 . S
C272 H262 0.930 . S
C272 C265 1.409 . S
C272 C271 1.362 . S
H273 C279 0.930 . S
H274 C282 0.930 . S
H275 C283 0.930 . S
H276 C284 0.930 . S
H277 C287 0.930 . S
H278 C288 0.930 . S
C279 H273 0.930 . S
C279 C280 1.355 . S
C279 C281 1.415 . S
C280 C279 1.355 . S
C280 C282 1.419 1_554 S
C281 C279 1.415 . S
C281 C286 1.425 1_554 S
C281 C288 1.409 . S
C282 H274 0.930 . S
C282 C280 1.419 1_556 S
C282 C283 1.362 . S
C283 H275 0.930 . S
C283 C282 1.362 . S
C283 C286 1.409 . S
C284 H276 0.930 . S
C284 C285 1.355 1_556 S
C284 C286 1.415 . S
C285 C284 1.355 1_554 S
C285 C287 1.419 . S
C286 C281 1.425 1_556 S
C286 C283 1.409 . S
C286 C284 1.415 . S
C287 H277 0.930 . S
C287 C285 1.419 . S
C287 C288 1.362 . S
C288 H278 0.930 . S
C288 C281 1.409 . S
C288 C287 1.362 . S
H289 C295 0.930 . S
H290 C298 0.930 . S
H291 C299 0.930 . S
H292 C300 0.930 1_554 S
H293 C303 0.930 . S
H294 C304 0.930 . S
C295 H289 0.930 . S
C295 C296 1.355 . S
C295 C297 1.415 . S
C296 C295 1.355 . S
C296 C298 1.419 . S
C297 C295 1.415 . S
C297 C302 1.425 . S
C297 C304 1.409 1_554 S
C298 H290 0.930 . S
C298 C296 1.419 . S
C298 C299 1.362 . S
C299 H291 0.930 . S
C299 C298 1.362 . S
C299 C302 1.409 . S
C300 H292 0.930 1_556 S
C300 C301 1.355 . S
C300 C302 1.414 1_556 S
C301 C300 1.355 . S
C301 C303 1.419 . S
C302 C297 1.425 . S
C302 C299 1.409 . S
C302 C300 1.414 1_554 S
C303 H293 0.930 . S
C303 C301 1.419 . S
C303 C304 1.362 . S
C304 H294 0.930 . S
C304 C297 1.409 1_556 S
C304 C303 1.362 . S
H305 C311 0.930 . S
H306 C314 0.930 . S
H307 C315 0.930 . S
H308 C316 0.930 . S
H309 C319 0.930 . S
H310 C320 0.930 . S
C311 H305 0.930 . S
C311 C312 1.355 1_554 S
C311 C313 1.415 . S
C312 C311 1.355 1_556 S
C312 C314 1.419 . S
C313 C311 1.415 . S
C313 C318 1.425 1_554 S
C313 C320 1.409 . S
C314 H306 0.930 . S
C314 C312 1.419 . S
C314 C315 1.362 . S
C315 H307 0.930 . S
C315 C314 1.362 . S
C315 C318 1.409 . S
C316 H308 0.930 . S
C316 C317 1.355 1_556 S
C316 C318 1.415 . S
C317 C316 1.355 1_554 S
C317 C319 1.419 . S
C318 C313 1.425 1_556 S
C318 C315 1.409 . S
C318 C316 1.415 . S
C319 H309 0.930 . S
C319 C317 1.419 . S
C319 C320 1.362 . S
C320 H310 0.930 . S
C320 C313 1.409 . S
C320 C319 1.362 . S
C136 C119 1.832 . S
C141 C27 1.976 . S
C152 C32 1.568 . S
C157 C75 1.502 1_545 S
C168 C39 1.818 1_655 S
C173 C99 1.794 1_455 S
C184 C82 1.040 . S
C189 N3 1.313 . S
C200 C40 1.961 . S
C205 C118 1.842 . S
C216 C76 1.217 . S
C221 C33 1.280 . S
C232 C125 1.882 1_655 S
C237 C13 1.979 1_455 S
C248 C56 1.130 . S
C253 N8 1.247 . S
C264 N89 0.726 . S
C269 N46 0.719 . S
C280 C113 0.729 . S
C285 C83 0.726 1_554 S
C296 C70 0.741 . S
C301 C126 0.680 . S
C312 N94 0.532 . S
C317 N51 0.579 . S
