# Generated by pormake.
# Topology sod, (4)-cn, num edge types: 1
# Building blocks:
#     Node 0, Type 0, BuildingBlock: TATPOV_clean_sbu_0, # of connection points: 4
#     Node 1, Type 0, BuildingBlock: TATPOV_clean_sbu_0, # of connection points: 4
#     Node 2, Type 0, BuildingBlock: TATPOV_clean_sbu_0, # of connection points: 4
#     Node 3, Type 0, BuildingBlock: TATPOV_clean_sbu_0, # of connection points: 4
#     Node 4, Type 0, BuildingBlock: TATPOV_clean_sbu_0, # of connection points: 4
#     Node 5, Type 0, BuildingBlock: TATPOV_clean_sbu_0, # of connection points: 4
#     Node 6, Type 0, BuildingBlock: TATPOV_clean_sbu_0, # of connection points: 4
#     Node 7, Type 0, BuildingBlock: TATPOV_clean_sbu_0, # of connection points: 4
#     Node 8, Type 0, BuildingBlock: TATPOV_clean_sbu_0, # of connection points: 4
#     Node 9, Type 0, BuildingBlock: TATPOV_clean_sbu_0, # of connection points: 4
#     Node 10, Type 0, BuildingBlock: TATPOV_clean_sbu_0, # of connection points: 4
#     Node 11, Type 0, BuildingBlock: TATPOV_clean_sbu_0, # of connection points: 4
#     Edge 12, Type (0, 0), BuildingBlock: EZIPEK_clean_linker_0, # of connection points: 2
#     Edge 13, Type (0, 0), BuildingBlock: EZIPEK_clean_linker_0, # of connection points: 2
#     Edge 14, Type (0, 0), BuildingBlock: EZIPEK_clean_linker_0, # of connection points: 2
#     Edge 15, Type (0, 0), BuildingBlock: EZIPEK_clean_linker_0, # of connection points: 2
#     Edge 16, Type (0, 0), BuildingBlock: EZIPEK_clean_linker_0, # of connection points: 2
#     Edge 17, Type (0, 0), BuildingBlock: EZIPEK_clean_linker_0, # of connection points: 2
#     Edge 18, Type (0, 0), BuildingBlock: EZIPEK_clean_linker_0, # of connection points: 2
#     Edge 19, Type (0, 0), BuildingBlock: EZIPEK_clean_linker_0, # of connection points: 2
#     Edge 20, Type (0, 0), BuildingBlock: EZIPEK_clean_linker_0, # of connection points: 2
#     Edge 21, Type (0, 0), BuildingBlock: EZIPEK_clean_linker_0, # of connection points: 2
#     Edge 22, Type (0, 0), BuildingBlock: EZIPEK_clean_linker_0, # of connection points: 2
#     Edge 23, Type (0, 0), BuildingBlock: EZIPEK_clean_linker_0, # of connection points: 2
#     Edge 24, Type (0, 0), BuildingBlock: EZIPEK_clean_linker_0, # of connection points: 2
#     Edge 25, Type (0, 0), BuildingBlock: EZIPEK_clean_linker_0, # of connection points: 2
#     Edge 26, Type (0, 0), BuildingBlock: EZIPEK_clean_linker_0, # of connection points: 2
#     Edge 27, Type (0, 0), BuildingBlock: EZIPEK_clean_linker_0, # of connection points: 2
#     Edge 28, Type (0, 0), BuildingBlock: EZIPEK_clean_linker_0, # of connection points: 2
#     Edge 29, Type (0, 0), BuildingBlock: EZIPEK_clean_linker_0, # of connection points: 2
#     Edge 30, Type (0, 0), BuildingBlock: EZIPEK_clean_linker_0, # of connection points: 2
#     Edge 31, Type (0, 0), BuildingBlock: EZIPEK_clean_linker_0, # of connection points: 2
#     Edge 32, Type (0, 0), BuildingBlock: EZIPEK_clean_linker_0, # of connection points: 2
#     Edge 33, Type (0, 0), BuildingBlock: EZIPEK_clean_linker_0, # of connection points: 2
#     Edge 34, Type (0, 0), BuildingBlock: EZIPEK_clean_linker_0, # of connection points: 2
#     Edge 35, Type (0, 0), BuildingBlock: EZIPEK_clean_linker_0, # of connection points: 2
# Relax obj value: 0.092
# Max RMSD: 0.145
# Mean RMSD: 0.125
data_MOF--net-sod--node1-TATPOV_clean_sbu_0--edge1-EZIPEK_clean_linker_0
_symmetry_space_group_name_H-M    P1
_symmetry_Int_Tables_number       1
_symmetry_cell_setting            triclinic
loop_
_symmetry_equiv_pos_as_xyz
'x, y, z'
_cell_length_a     30.38633
_cell_length_b     30.842353
_cell_length_c     31.791007
_cell_angle_alpha  90.310374
_cell_angle_beta   90.751304
_cell_angle_gamma 93.013647
loop_
_atom_site_label
_atom_site_type_symbol
_atom_site_fract_x
_atom_site_fract_y
_atom_site_fract_z
_atom_type_partial_charge
Zn0 Zn 0.97244 0.21011 0.41651 0.0
Zn1 Zn 0.97251 0.25912 0.48536 0.0
O2 O 0.03535 0.23879 0.48757 0.0
O3 O 0.03749 0.20363 0.42773 0.0
O4 O 0.96904 0.2995 0.53583 0.0
O5 O 0.95343 0.25729 0.379 0.0
O6 O 0.96459 0.29963 0.43457 0.0
C7 C 0.05722 0.21872 0.46042 0.0
C8 C 0.9132 0.17485 0.47596 0.0
O9 O 0.926 0.20894 0.49655 0.0
O10 O 0.92854 0.16718 0.44012 0.0
C11 C 0.96718 0.28641 0.5737 0.0
O12 O 0.96764 0.24469 0.58168 0.0
C13 C 0.95691 0.29481 0.39522 0.0
Zn14 Zn 0.80744 0.93867 0.56844 0.0
Zn15 Zn 0.76296 0.9366 0.49662 0.0
O16 O 0.80109 0.884 0.48803 0.0
O17 O 0.84388 0.89328 0.5442 0.0
O18 O 0.72098 0.93872 0.44638 0.0
O19 O 0.75562 0.92104 0.60284 0.0
O20 O 0.71839 0.92883 0.54424 0.0
C21 C 0.83384 0.87315 0.51033 0.0
C22 C 0.82018 0.01742 0.52562 0.0
O23 O 0.79884 -0.00439 0.49708 0.0
O24 O 0.82562 0.00149 0.56176 0.0
C25 C 0.72114 0.96943 0.41979 0.0
O26 O 0.75301 -0.00015 0.42091 0.0
C27 C 0.71903 0.92082 0.58349 0.0
Zn28 Zn 0.07554 0.78715 0.4627 0.0
Zn29 Zn 0.06464 0.73666 0.5312 0.0
O30 O 0.00246 0.75397 0.51629 0.0
O31 O 0.01281 0.80428 0.46827 0.0
O32 O 0.05346 0.6979 0.58079 0.0
O33 O 0.08816 0.73332 0.4304 0.0
O34 O 0.08743 0.69468 0.4886 0.0
C35 C 0.98733 0.78301 0.49274 0.0
C36 C 0.1269 0.81809 0.5328 0.0
O37 O 0.10644 0.78715 0.55203 0.0
O38 O 0.12216 0.82274 0.49356 0.0
C39 C 0.04981 0.7097 0.61885 0.0
O40 O 0.05643 0.75079 0.62939 0.0
C41 C 0.0923 0.69767 0.44911 0.0
Zn42 Zn 0.21967 0.07175 0.59945 0.0
Zn43 Zn 0.2629 0.05463 0.52526 0.0
O44 O 0.22423 0.10405 0.50913 0.0
O45 O 0.18486 0.11423 0.56587 0.0
O46 O 0.2996 0.04422 0.47387 0.0
O47 O 0.27767 0.08945 0.62775 0.0
O48 O 0.30976 0.06868 0.56962 0.0
C49 C 0.19373 0.12291 0.5279 0.0
C50 C 0.20696 0.98338 0.56819 0.0
O51 O 0.22893 -0.00269 0.5367 0.0
O52 O 0.20039 0.00791 0.59933 0.0
C53 C 0.28495 0.03576 0.43692 0.0
O54 O 0.24227 0.03192 0.42971 0.0
C55 C 0.31208 0.08244 0.60738 0.0
Zn56 Zn 0.51109 0.08208 0.30173 0.0
Zn57 Zn 0.49453 0.00869 0.25573 0.0
O58 O 0.43918 0.01044 0.29308 0.0
O59 O 0.45148 0.07189 0.32842 0.0
O60 O 0.48309 0.95638 0.21716 0.0
O61 O 0.51737 0.11835 0.24932 0.0
O62 O 0.50167 0.05864 0.21247 0.0
C63 C 0.42737 0.03811 0.32015 0.0
C64 C 0.5734 0.01642 0.31766 0.0
O65 O 0.5505 0.99472 0.29011 0.0
O66 O 0.56346 0.05433 0.32805 0.0
C67 C 0.51341 0.94704 0.19194 0.0
O68 O 0.55081 0.97046 0.19285 0.0
C69 C 0.51062 0.09949 0.21422 0.0
Zn70 Zn 0.06356 0.59177 0.22122 0.0
Zn71 Zn 0.03914 0.5114 0.25479 0.0
O72 O 0.08739 0.49468 0.21584 0.0
O73 O 0.10856 0.55876 0.18992 0.0
O74 O 0.01827 0.45648 0.28288 0.0
O75 O 0.07629 0.61265 0.28055 0.0
O76 O 0.0617 0.54673 0.30474 0.0
C77 C 0.11203 0.51806 0.19209 0.0
C78 C 0.9747 0.5643 0.20298 0.0
O79 O 0.98473 0.53171 0.22469 0.0
O80 O 0.00267 0.59526 0.19634 0.0
C81 C 0.97835 0.44758 0.29253 0.0
O82 O 0.94759 0.47374 0.28138 0.0
C83 C 0.07371 0.58626 0.31089 0.0
Zn84 Zn 0.57836 0.09528 0.6906 0.0
Zn85 Zn 0.54228 0.03487 0.74664 0.0
O86 O 0.58019 -0.00018 0.70956 0.0
O87 O 0.61267 0.04676 0.66634 0.0
O88 O 0.52195 0.99057 0.78837 0.0
O89 O 0.60008 0.13185 0.74048 0.0
O90 O 0.57049 0.08247 0.78296 0.0
C91 C 0.60619 0.00831 0.67953 0.0
C92 C 0.48288 0.07938 0.68595 0.0
O93 O 0.48823 0.05307 0.71599 0.0
O94 O 0.51526 0.10065 0.66992 0.0
C95 C 0.4932 0.96041 0.77968 0.0
O96 O 0.47315 0.95942 0.74282 0.0
C97 C 0.59146 0.11861 0.77722 0.0
Zn98 Zn 0.90848 0.49967 0.72264 0.0
Zn99 Zn 0.98168 0.48468 0.76965 0.0
O100 O -0.0011 0.54205 0.74039 0.0
O101 O 0.94033 0.55451 0.70141 0.0
O102 O 0.03523 0.47471 0.80625 0.0
O103 O 0.87247 0.50228 0.77572 0.0
O104 O 0.93211 0.48982 0.81314 0.0
C105 C 0.97918 0.56526 0.71386 0.0
C106 C 0.94973 0.42109 0.69885 0.0
O107 O 0.97717 0.43255 0.7281 0.0
O108 O 0.91661 0.44323 0.69127 0.0
C109 C 0.07412 0.47997 0.79219 0.0
O110 O 0.08009 0.49067 0.75268 0.0
C111 C 0.89124 0.49723 0.81103 0.0
Zn112 Zn 0.32929 0.45423 0.04876 0.0
Zn113 Zn 0.26885 0.46558 0.98656 0.0
O114 O 0.29229 0.40574 0.97282 0.0
O115 O 0.34373 0.39852 0.02133 0.0
O116 O 0.21986 0.47221 0.94368 0.0
O117 O 0.28319 0.4543 0.09276 0.0
O118 O 0.23634 0.46991 0.04208 0.0
C119 C 0.32258 0.38409 0.98923 0.0
C120 C 0.34633 0.53167 -0.00061 0.0
O121 O 0.31292 0.51769 0.97763 0.0
O122 O 0.35911 0.51097 0.0312 0.0
C123 C 0.22502 0.46847 0.90424 0.0
O124 O 0.26412 0.46111 0.8895 0.0
C125 C 0.24521 0.46427 0.08085 0.0
Zn126 Zn 0.54348 0.31784 0.93453 0.0
Zn127 Zn 0.5398 0.26229 0.99702 0.0
O128 O 0.47421 0.27098 0.98549 0.0
O129 O 0.47744 0.31047 0.92839 0.0
O130 O 0.54065 0.21802 0.04394 0.0
O131 O 0.58111 0.28095 0.89996 0.0
O132 O 0.56597 0.2305 0.94709 0.0
C133 C 0.45474 0.28883 0.9549 0.0
C134 C 0.58283 0.35467 0.00737 0.0
O135 O 0.57464 0.31651 0.02153 0.0
O136 O 0.57084 0.36464 0.97066 0.0
C137 C 0.51255 0.21737 0.07327 0.0
O138 O 0.48205 0.24599 0.07348 0.0
C139 C 0.58203 0.24199 0.91181 0.0
Zn140 Zn 0.71264 0.58317 0.10999 0.0
Zn141 Zn 0.75807 0.56531 0.03638 0.0
O142 O 0.73429 0.62484 0.02568 0.0
O143 O 0.69868 0.64041 0.08286 0.0
O144 O 0.79289 0.5528 0.98386 0.0
O145 O 0.77013 0.57882 0.14193 0.0
O146 O 0.80441 0.56595 0.08259 0.0
C147 C 0.7129 0.65152 0.04698 0.0
C148 C 0.68112 0.50502 0.06715 0.0
O149 O 0.71152 0.51561 0.0414 0.0
O150 O 0.67431 0.52836 0.09907 0.0
C151 C 0.78621 0.51982 0.95992 0.0
O152 O 0.75445 0.49077 0.96835 0.0
C153 C 0.80496 0.57147 0.12226 0.0
Zn154 Zn 0.52045 0.72907 0.91074 0.0
Zn155 Zn 0.49806 0.77586 0.97925 0.0
O156 O 0.56329 0.76466 0.98891 0.0
O157 O 0.58258 0.72802 0.93357 0.0
O158 O 0.48479 0.81493 0.02884 0.0
O159 O 0.5048 0.77738 0.87275 0.0
O160 O 0.48875 0.81593 0.92867 0.0
C161 C 0.593 0.74688 0.96802 0.0
C162 C 0.45257 0.68638 0.9599 0.0
O163 O 0.45701 0.72019 0.98328 0.0
O164 O 0.47543 0.68285 0.9272 0.0
C165 C 0.50281 0.81095 0.06492 0.0
O166 O 0.52701 0.77769 0.07221 0.0
C167 C 0.4927 0.81225 0.88899 0.0
C168 C 0.93438 0.36979 0.37686 0.0
C169 C 0.95866 0.33306 0.36731 0.0
C170 C 0.98513 0.36838 0.30315 0.0
C171 C 0.96729 0.40757 0.3164 0.0
N172 N 0.93092 0.44759 0.37046 0.0
N173 N 0.01661 0.30259 0.3264 0.0
C174 C 0.94315 0.40892 0.35436 0.0
C175 C 0.98649 0.33353 0.33168 0.0
N176 N 0.90248 0.36717 0.40675 0.0
N177 N 0.00034 0.36416 0.26315 0.0
H178 H 0.02195 0.27828 0.34824 0.0
H179 H 0.04017 0.30431 0.30284 0.0
H180 H -0.00163 0.38858 0.24071 0.0
H181 H 0.01015 0.33475 0.25104 0.0
H182 H 0.88104 0.39186 0.41208 0.0
H183 H 0.89448 0.33869 0.42314 0.0
H184 H 0.91734 0.4505 0.40021 0.0
H185 H 0.9382 0.47738 0.35619 0.0
C186 C 0.64036 0.98145 0.411 0.0
C187 C 0.68188 0.97517 0.39243 0.0
C188 C 0.65093 0.99136 0.32275 0.0
C189 C 0.60936 -0.00358 0.34137 0.0
N190 N 0.5615 0.98512 0.40052 0.0
N191 N 0.72474 0.96533 0.3302 0.0
C192 C 0.60317 0.98771 0.38466 0.0
C193 C 0.68655 0.97739 0.34808 0.0
N194 N 0.63687 0.98446 0.45378 0.0
N195 N 0.65682 0.00163 0.28137 0.0
H196 H 0.75122 0.95474 0.34792 0.0
H197 H 0.72883 0.96221 0.29789 0.0
H198 H 0.63113 0.01075 0.26178 0.0
H199 H 0.68748 0.00358 0.26707 0.0
H200 H 0.60857 0.99392 0.46868 0.0
H201 H 0.66333 0.98157 0.47457 0.0
H202 H 0.5544 0.97448 0.43085 0.0
H203 H 0.53348 0.9894 0.38197 0.0
C204 C 0.12504 0.62476 0.36201 0.0
C205 C 0.08374 0.60248 0.35377 0.0
C206 C 0.05302 0.63273 0.41731 0.0
C207 C 0.09295 0.65815 0.42334 0.0
N208 N 0.16997 0.67111 0.40977 0.0
N209 N 0.01379 0.57367 0.38024 0.0
C210 C 0.13017 0.65146 0.39844 0.0
C211 C 0.04973 0.60214 0.38393 0.0
N212 N 0.15866 0.62101 0.33426 0.0
N213 N 0.0169 0.64058 0.44094 0.0
H214 H 0.00846 0.55198 0.35534 0.0
H215 H 0.99085 0.56867 0.40401 0.0
H216 H 0.0176 0.66201 0.4664 0.0
H217 H 0.98523 0.6279 0.43383 0.0
H218 H 0.18816 0.63969 0.33559 0.0
H219 H 0.15661 0.59912 0.30906 0.0
H220 H 0.1994 0.66596 0.39465 0.0
H221 H 0.17395 0.69042 0.43678 0.0
C222 C 0.34706 -0.00195 0.40406 0.0
C223 C 0.31659 0.03134 0.40217 0.0
C224 C 0.35175 0.05958 0.33813 0.0
C225 C 0.38612 0.0308 0.34407 0.0
N226 N 0.41848 0.97387 0.38381 0.0
N227 N 0.29115 0.09595 0.36918 0.0
C228 C 0.38403 -0.00012 0.37699 0.0
C229 C 0.31877 0.06234 0.36927 0.0
N230 N 0.34015 0.96434 0.43134 0.0
N231 N 0.35067 0.08407 0.30246 0.0
H232 H 0.26661 0.0993 0.3914 0.0
H233 H 0.29456 0.12232 0.34898 0.0
H234 H 0.37439 0.08249 0.27911 0.0
H235 H 0.32434 0.10267 0.2941 0.0
H236 H 0.35866 0.93687 0.43146 0.0
H237 H 0.31316 0.96192 0.45133 0.0
H238 H 0.42151 0.95463 0.41039 0.0
H239 H 0.44565 0.9735 0.36415 0.0
C240 C 0.04126 0.60118 0.673 0.0
C241 C 0.00184 0.60454 0.69603 0.0
C242 C -0.0039 0.67953 0.67234 0.0
C243 C 0.03622 0.67655 0.65033 0.0
N244 N 0.10295 0.63938 0.6395 0.0
N245 N 0.94876 0.65 0.72711 0.0
C246 C 0.06077 0.63889 0.65397 0.0
C247 C 0.98156 0.64481 0.69879 0.0
N248 N 0.05855 0.56163 0.66682 0.0
N249 N 0.97035 0.714 0.66602 0.0
H250 H 0.93785 0.62535 0.74743 0.0
H251 H 0.93563 0.67985 0.7334 0.0
H252 H 0.97925 0.74004 0.64665 0.0
H253 H 0.93841 0.71512 0.67734 0.0
H254 H 0.08431 0.55676 0.64631 0.0
H255 H 0.04484 0.53283 0.67914 0.0
H256 H 0.12397 0.61431 0.64484 0.0
H257 H 0.1184 0.66685 0.62599 0.0
C258 C 0.41935 0.04267 0.64816 0.0
C259 C 0.439 0.08111 0.6664 0.0
C260 C 0.37571 0.12182 0.64453 0.0
C261 C 0.35477 0.08252 0.6295 0.0
N262 N 0.35174 0.0041 0.62608 0.0
N263 N 0.43409 0.15576 0.6881 0.0
C264 C 0.37514 0.04248 0.63399 0.0
C265 C 0.41673 0.1204 0.66632 0.0
N266 N 0.44348 0.00688 0.64264 0.0
N267 N 0.35713 0.16043 0.63678 0.0
H268 H 0.46412 0.15577 0.70437 0.0
H269 H 0.41722 0.18386 0.69285 0.0
H270 H 0.32684 0.16246 0.62125 0.0
H271 H 0.37308 0.19054 0.64295 0.0
H272 H 0.43202 0.97969 0.62536 0.0
H273 H 0.47656 0.00584 0.65157 0.0
H274 H 0.36369 0.9739 0.63312 0.0
H275 H 0.31872 0.00237 0.61653 0.0
C276 C -0.00016 0.35 0.61523 0.0
C277 C 0.9648 0.31833 0.60871 0.0
C278 C 0.92554 0.34841 0.66835 0.0
C279 C 0.9576 0.38347 0.67101 0.0
N280 N 0.02284 0.42082 0.64345 0.0
N281 N 0.89179 0.28983 0.62591 0.0
C282 C -0.00562 0.38497 0.64378 0.0
C283 C 0.92709 0.3179 0.63468 0.0
N284 N 0.03883 0.34604 0.59492 0.0
N285 N 0.89407 0.34386 0.69857 0.0
H286 H 0.89141 0.26721 0.6014 0.0
H287 H 0.86151 0.29129 0.64066 0.0
H288 H 0.89235 0.36543 0.72383 0.0
H289 H 0.87242 0.31669 0.7009 0.0
H290 H 0.06716 0.36542 0.60172 0.0
H291 H 0.04417 0.32066 0.57408 0.0
H292 H 0.04704 0.42597 0.62085 0.0
H293 H 0.02021 0.44727 0.66364 0.0
C294 C 0.6569 0.94691 0.67731 0.0
C295 C 0.62559 0.97246 0.65693 0.0
C296 C 0.63955 0.93716 0.58976 0.0
C297 C 0.67789 0.92123 0.60828 0.0
N298 N 0.70678 0.88828 0.67013 0.0
N299 N 0.57976 0.98583 0.59619 0.0
C300 C 0.68102 0.91841 0.65251 0.0
C301 C 0.61404 0.9651 0.6139 0.0
N302 N 0.66593 0.95225 0.7193 0.0
N303 N 0.62725 0.92416 0.55002 0.0
H304 H 0.55862 0.00409 0.61385 0.0
H305 H 0.57274 0.9858 0.56406 0.0
H306 H 0.64389 0.90045 0.53403 0.0
H307 H 0.59845 0.93281 0.53492 0.0
H308 H 0.69187 0.93794 0.73469 0.0
H309 H 0.64893 0.9729 0.73856 0.0
H310 H 0.70841 0.88228 0.70229 0.0
H311 H 0.72264 0.86599 0.65154 0.0
C312 C 0.38612 0.31343 0.92005 0.0
C313 C 0.40581 0.29127 0.95362 0.0
C314 C 0.34573 0.30899 0.99925 0.0
C315 C 0.33597 0.34263 0.97086 0.0
N316 N 0.33679 0.36905 0.89944 0.0
N317 N 0.38958 0.24671 0.01369 0.0
C318 C 0.35187 0.34149 0.92912 0.0
C319 C 0.38058 0.28178 0.98972 0.0
N320 N 0.40012 0.30689 0.88002 0.0
N321 N 0.32324 0.30534 0.03606 0.0
H322 H 0.41218 0.22447 0.00404 0.0
H323 H 0.37187 0.23709 0.04013 0.0
H324 H 0.29631 0.32406 0.04204 0.0
H325 H 0.33111 0.2845 0.06032 0.0
H326 H 0.38562 0.31998 0.85345 0.0
H327 H 0.42358 0.28429 0.87348 0.0
H328 H 0.35147 0.37398 0.87034 0.0
H329 H 0.30912 0.38692 0.9039 0.0
C330 C 0.41802 0.56938 0.98122 0.0
C331 C 0.37207 0.57165 0.98733 0.0
C332 C 0.37805 0.6502 0.97465 0.0
C333 C 0.4245 0.64822 0.97269 0.0
N334 N 0.48944 0.60769 0.98403 0.0
N335 N 0.3091 0.61512 0.99713 0.0
C336 C 0.4447 0.60828 0.9789 0.0
C337 C 0.35214 0.61231 0.98595 0.0
N338 N 0.43602 0.53 0.97603 0.0
N339 N 0.35858 0.68772 0.96438 0.0
H340 H 0.2891 0.58826 0.00591 0.0
H341 H 0.29425 0.64451 0.00109 0.0
H342 H 0.37655 0.71617 0.95641 0.0
H343 H 0.32464 0.68972 0.96065 0.0
H344 H 0.46862 0.5267 0.96733 0.0
H345 H 0.4173 0.50066 0.97599 0.0
H346 H 0.50544 0.58005 0.99292 0.0
H347 H 0.51016 0.63575 0.98383 0.0
C348 C 0.58349 0.42668 0.0423 0.0
C349 C 0.60596 0.38872 0.03324 0.0
C350 C 0.6752 0.42447 0.05828 0.0
C351 C 0.65415 0.46444 0.05982 0.0
N352 N 0.58868 0.50481 0.05066 0.0
N353 N 0.67338 0.35089 0.03095 0.0
C354 C 0.6082 0.46586 0.05185 0.0
C355 C 0.65179 0.38712 0.04146 0.0
N356 N 0.53844 0.42501 0.04165 0.0
N357 N 0.71733 0.42222 0.07346 0.0
H358 H 0.65718 0.32252 0.01951 0.0
H359 H 0.70757 0.34978 0.03121 0.0
H360 H 0.73519 0.44896 0.08646 0.0
H361 H 0.73301 0.3932 0.07687 0.0
H362 H 0.5199 0.45051 0.05161 0.0
H363 H 0.51962 0.39642 0.03505 0.0
H364 H 0.55644 0.5082 0.04018 0.0
H365 H 0.60564 0.53444 0.05696 0.0
C366 C 0.67561 0.72309 0.05148 0.0
C367 C 0.69934 0.69313 0.02775 0.0
C368 C 0.67125 0.72332 0.96256 0.0
C369 C 0.63809 0.74233 0.98649 0.0
N370 N 0.62791 0.78401 0.04952 0.0
N371 N 0.74055 0.6873 0.96389 0.0
C372 C 0.64615 0.74991 0.02997 0.0
C373 C 0.70397 0.70025 0.98396 0.0
N374 N 0.68193 0.72621 0.09399 0.0
N375 N 0.67153 0.72796 0.9199 0.0
H376 H 0.7675 0.67606 0.98043 0.0
H377 H 0.74678 0.69269 0.9322 0.0
H378 H 0.65228 0.75031 0.90468 0.0
H379 H 0.69103 0.71052 0.89993 0.0
H380 H 0.66176 0.74297 0.1139 0.0
H381 H 0.70847 0.71245 0.10909 0.0
H382 H 0.6336 0.79243 0.08093 0.0
H383 H 0.61137 0.80725 0.03267 0.0
C384 C 0.5313 0.86603 0.84282 0.0
C385 C 0.49163 0.851 0.86217 0.0
C386 C 0.45234 0.90933 0.82871 0.0
C387 C 0.49121 0.92158 0.80654 0.0
N388 N 0.56442 0.9052 0.78475 0.0
N389 N 0.41319 0.85432 0.87046 0.0
C390 C 0.52978 0.89808 0.81135 0.0
C391 C 0.4517 0.87158 0.85438 0.0
N392 N 0.5708 0.85089 0.85566 0.0
N393 N 0.41666 0.93443 0.82616 0.0
H394 H 0.41186 0.82704 0.88977 0.0
H395 H 0.3823 0.86507 0.8624 0.0
H396 H 0.41594 0.96181 0.80709 0.0
H397 H 0.38902 0.92991 0.84495 0.0
H398 H 0.60109 0.86421 0.84571 0.0
H399 H 0.57371 0.8281 0.87953 0.0
H400 H 0.59145 0.88578 0.78412 0.0
H401 H 0.56418 0.92752 0.76024 0.0
C402 C 0.17337 0.43569 0.84884 0.0
C403 C 0.1867 0.47156 0.87511 0.0
C404 C 0.12389 0.51137 0.84943 0.0
C405 C 0.11266 0.47688 0.82087 0.0
N406 N 0.12955 0.4088 0.78891 0.0
N407 N 0.17961 0.54633 0.89533 0.0
C408 C 0.13841 0.43988 0.81912 0.0
C409 C 0.16317 0.51014 0.87419 0.0
N410 N 0.19256 0.39688 0.8538 0.0
N411 N 0.09692 0.5453 0.85298 0.0
H412 H 0.20873 0.54702 0.91311 0.0
H413 H 0.16672 0.57679 0.89231 0.0
H414 H 0.06914 0.54862 0.83389 0.0
H415 H 0.10032 0.56871 0.87668 0.0
H416 H 0.18111 0.36825 0.8389 0.0
H417 H 0.21764 0.39215 0.87574 0.0
H418 H 0.15022 0.38371 0.78274 0.0
H419 H 0.10298 0.4097 0.76787 0.0
C420 C 0.55021 0.16955 0.81947 0.0
C421 C 0.59089 0.15064 0.81143 0.0
C422 C 0.62559 0.18868 0.87209 0.0
C423 C 0.58547 0.2089 0.87887 0.0
N424 N 0.51038 0.22199 0.85843 0.0
N425 N 0.66789 0.14326 0.82641 0.0
C426 C 0.54795 0.20011 0.85249 0.0
C427 C 0.62889 0.16049 0.83672 0.0
N428 N 0.51339 0.15751 0.79592 0.0
N429 N 0.65996 0.19614 0.89981 0.0
H430 H 0.67069 0.12204 0.80102 0.0
H431 H 0.69786 0.15139 0.84135 0.0
H432 H 0.65822 0.21707 0.92557 0.0
H433 H 0.68924 0.18018 0.89888 0.0
H434 H 0.48154 0.16491 0.80387 0.0
H435 H 0.51392 0.13803 0.76905 0.0
H436 H 0.48437 0.22221 0.83684 0.0
H437 H 0.50562 0.24208 0.88424 0.0
C438 C 0.84739 0.54372 0.85796 0.0
C439 C 0.8659 0.50318 0.85008 0.0
C440 C 0.83695 0.47564 0.91708 0.0
C441 C 0.81407 0.5143 0.92236 0.0
N442 N 0.79115 0.58205 0.8937 0.0
N443 N 0.87304 0.42821 0.86885 0.0
C444 C 0.81763 0.5476 0.89173 0.0
C445 C 0.85934 0.46847 0.87879 0.0
N446 N 0.85942 0.57902 0.83408 0.0
N447 N 0.83889 0.44658 0.94928 0.0
H448 H 0.88949 0.42166 0.84112 0.0
H449 H 0.86479 0.40055 0.8863 0.0
H450 H 0.82397 0.45113 0.97821 0.0
H451 H 0.85882 0.42012 0.94886 0.0
H452 H 0.85068 0.6104 0.84124 0.0
H453 H 0.88178 0.57782 0.80953 0.0
H454 H 0.78905 0.60482 0.86978 0.0
H455 H 0.768 0.5857 0.9172 0.0
C456 C 0.55198 0.14993 0.16538 0.0
C457 C 0.51246 0.12577 0.17524 0.0
C458 C 0.47622 0.15564 0.11322 0.0
C459 C 0.51367 0.18424 0.10694 0.0
N460 N 0.58544 0.21271 0.1304 0.0
N461 N 0.4349 0.1096 0.16181 0.0
C462 C 0.55129 0.1823 0.13371 0.0
C463 C 0.47405 0.12939 0.14986 0.0
N464 N 0.59044 0.14117 0.18565 0.0
N465 N 0.44325 0.15262 0.0835 0.0
H466 H 0.43167 0.09029 0.18851 0.0
H467 H 0.40486 0.11526 0.14724 0.0
H468 H 0.44411 0.1707 0.05587 0.0
H469 H 0.41729 0.1292 0.08419 0.0
H470 H 0.62113 0.15454 0.17689 0.0
H471 H 0.59224 0.11724 0.2086 0.0
H472 H 0.6114 0.21585 0.15211 0.0
H473 H 0.58609 0.23738 0.10809 0.0
C474 C 0.91467 0.53105 0.15697 0.0
C475 C 0.93031 0.56529 0.18413 0.0
C476 C 0.86411 0.60463 0.16968 0.0
C477 C 0.84691 0.56872 0.14546 0.0
N478 N 0.85101 0.49374 0.12431 0.0
N479 N 0.91602 0.62982 0.22395 0.0
C480 C 0.87074 0.53066 0.14158 0.0
C481 C 0.90388 0.60071 0.19279 0.0
N482 N 0.94228 0.50009 0.14415 0.0
N483 N 0.84375 0.64313 0.16908 0.0
H484 H 0.94455 0.62749 0.24223 0.0
H485 H 0.89567 0.65368 0.23442 0.0
H486 H 0.81498 0.64779 0.15183 0.0
H487 H 0.85761 0.67162 0.18255 0.0
H488 H 0.93369 0.47715 0.12089 0.0
H489 H 0.97527 0.4998 0.15354 0.0
H490 H 0.8655 0.46386 0.12461 0.0
H491 H 0.81837 0.49183 0.11356 0.0
C492 C 0.51611 0.88941 0.08627 0.0
C493 C 0.50149 0.84636 0.09684 0.0
C494 C 0.49457 0.86896 0.17066 0.0
C495 C 0.50594 0.91256 0.15928 0.0
N496 N 0.51561 0.96569 0.10427 0.0
N497 N 0.46804 0.79713 0.14725 0.0
C498 C 0.51303 0.9232 0.11645 0.0
C499 C 0.48805 0.83672 0.13854 0.0
N500 N 0.53549 0.89787 0.0484 0.0
N501 N 0.49209 0.8578 0.21214 0.0
H502 H 0.46214 0.77305 0.1244 0.0
H503 H 0.45354 0.78972 0.17602 0.0
H504 H 0.49711 0.88021 0.23662 0.0
H505 H 0.48879 0.82578 0.22235 0.0
H506 H 0.5509 0.92782 0.04115 0.0
H507 H 0.54046 0.87402 0.02587 0.0
H508 H 0.51637 0.97512 0.07285 0.0
H509 H 0.51208 0.99143 0.12519 0.0
C510 C 0.1699 0.45209 0.11055 0.0
C511 C 0.21218 0.4738 0.11249 0.0
C512 C 0.19072 0.51465 0.17416 0.0
C513 C 0.1467 0.49848 0.16781 0.0
N514 N 0.09266 0.45489 0.1275 0.0
N515 N 0.26068 0.53154 0.14166 0.0
C516 C 0.13573 0.46761 0.13562 0.0
C517 C 0.2223 0.50638 0.14334 0.0
N518 N 0.1627 0.41627 0.08539 0.0
N519 N 0.2024 0.53754 0.2099 0.0
H520 H 0.28419 0.52833 0.11843 0.0
H521 H 0.26717 0.5587 0.16084 0.0
H522 H 0.18005 0.54352 0.23364 0.0
H523 H 0.23499 0.54649 0.21796 0.0
H524 H 0.13372 0.39669 0.08579 0.0
H525 H 0.18731 0.40373 0.06704 0.0
H526 H 0.08251 0.43631 0.10134 0.0
H527 H 0.06656 0.46562 0.14504 0.0
C528 C 0.87428 0.81023 0.53299 0.0
C529 C 0.86086 0.83629 0.49923 0.0
C530 C 0.91906 0.80729 0.457 0.0
C531 C 0.94026 0.79372 0.49449 0.0
N532 N 0.93746 0.78685 0.5709 0.0
N533 N 0.87006 0.85829 0.42677 0.0
C534 C 0.9174 0.7952 0.53327 0.0
C535 C 0.88239 0.83378 0.46009 0.0
N536 N 0.84647 0.80198 0.5657 0.0
N537 N 0.93368 0.79458 0.41865 0.0
H538 H 0.84266 0.87715 0.42699 0.0
H539 H 0.88856 0.86142 0.39947 0.0
H540 H 0.95895 0.77317 0.41555 0.0
H541 H 0.91734 0.80103 0.39052 0.0
H542 H 0.85349 0.78055 0.58985 0.0
H543 H 0.81452 0.81295 0.56574 0.0
H544 H 0.92244 0.79182 0.5997 0.0
H545 H 0.97036 0.77989 0.57445 0.0
C546 C 0.90915 0.10799 0.51845 0.0
C547 C 0.88655 0.13972 0.4961 0.0
C548 C 0.81816 0.09412 0.49904 0.0
C549 C 0.84244 0.05993 0.51582 0.0
N550 N 0.91314 0.03173 0.53362 0.0
N551 N 0.82058 0.16315 0.46246 0.0
C552 C 0.88846 0.06625 0.52388 0.0
C553 C 0.84121 0.13294 0.48577 0.0
N554 N 0.95079 0.11753 0.53385 0.0
N555 N 0.77317 0.09001 0.49699 0.0
H556 H 0.83613 0.19283 0.45424 0.0
H557 H 0.78905 0.15792 0.44959 0.0
H558 H 0.75521 0.06234 0.50708 0.0
H559 H 0.75347 0.11533 0.48874 0.0
H560 H 0.96712 0.09709 0.55406 0.0
H561 H 0.96735 0.14768 0.52982 0.0
H562 H 0.94744 0.03385 0.53543 0.0
H563 H 0.90009 -0.00014 0.53532 0.0
C564 C 0.12427 0.88676 0.57252 0.0
C565 C 0.1501 0.85397 0.55604 0.0
C566 C 0.21558 0.90345 0.5602 0.0
C567 C 0.18796 0.9383 0.56794 0.0
N568 N 0.1146 0.96382 0.57688 0.0
N569 N 0.22024 0.82948 0.5348 0.0
C570 C 0.142 0.93015 0.57379 0.0
C571 C 0.19595 0.8617 0.55058 0.0
N572 N 0.0823 0.87668 0.58552 0.0
N573 N 0.26036 0.91015 0.56279 0.0
H574 H 0.20691 0.79794 0.52984 0.0
H575 H 0.25272 0.83442 0.52513 0.0
H576 H 0.2757 0.94018 0.57081 0.0
H577 H 0.2821 0.88524 0.56094 0.0
H578 H 0.0634 0.89858 0.60138 0.0
H579 H 0.06806 0.8452 0.58445 0.0
H580 H 0.08037 0.95958 0.57638 0.0
H581 H 0.12549 -0.00363 0.57569 0.0
C582 C 0.12583 0.22069 0.50745 0.0
C583 C 0.10354 0.20675 0.4698 0.0
C584 C 0.14819 0.14378 0.46516 0.0
C585 C 0.16722 0.15446 0.50517 0.0
N586 N 0.18603 0.21004 0.55696 0.0
N587 N 0.11576 0.17314 0.40254 0.0
C588 C 0.15973 0.19525 0.52414 0.0
C589 C 0.12199 0.1742 0.44512 0.0
N590 N 0.11528 0.25847 0.52648 0.0
N591 N 0.15212 0.10377 0.44733 0.0
H592 H 0.10096 0.19814 0.38657 0.0
H593 H 0.13106 0.15135 0.38305 0.0
H594 H 0.16832 0.07881 0.46177 0.0
H595 H 0.13506 0.09396 0.41994 0.0
H596 H 0.12518 0.26749 0.55688 0.0
H597 H 0.09714 0.28148 0.51095 0.0
H598 H 0.18444 0.24063 0.57062 0.0
H599 H 0.21241 0.19297 0.56831 0.0
loop_
_geom_bond_atom_site_label_1
_geom_bond_atom_site_label_2
_geom_bond_distance
_geom_bond_site_symmetry_2
_ccdc_geom_bond_type
Zn0 O3 2.031 . S
Zn0 O5 2.049 . S
Zn0 O10 2.067 1_455 S
Zn1 O2 1.962 . S
Zn1 O4 1.986 . S
Zn1 O6 1.996 . S
Zn1 O9 1.943 1_455 S
O2 Zn1 1.962 . S
O2 C7 1.254 . S
O3 Zn0 2.031 . S
O3 C7 1.269 . S
O4 Zn1 1.986 . S
O4 C11 1.262 . S
O5 Zn0 2.049 . S
O5 C13 1.260 . S
O6 Zn1 1.996 . S
O6 C13 1.257 . S
C7 O2 1.254 . S
C7 O3 1.269 . S
C8 O9 1.249 . S
C8 O10 1.270 . S
O9 Zn1 1.943 1_655 S
O9 C8 1.249 . S
O10 Zn0 2.067 1_655 S
O10 C8 1.270 . S
C11 O4 1.262 . S
C11 O12 1.232 . S
O12 C11 1.232 . S
C13 O5 1.260 . S
C13 O6 1.257 . S
Zn14 O17 2.031 1_545 S
Zn14 O19 2.049 . S
Zn14 O24 2.067 . S
Zn15 O16 1.962 1_545 S
Zn15 O18 1.986 . S
Zn15 O20 1.996 . S
Zn15 O23 1.943 . S
O16 Zn15 1.962 1_565 S
O16 C21 1.254 . S
O17 Zn14 2.031 1_565 S
O17 C21 1.269 . S
O18 Zn15 1.986 . S
O18 C25 1.262 . S
O19 Zn14 2.049 . S
O19 C27 1.260 . S
O20 Zn15 1.996 . S
O20 C27 1.257 . S
C21 O16 1.254 . S
C21 O17 1.269 . S
C22 O23 1.249 . S
C22 O24 1.270 . S
O23 Zn15 1.943 . S
O23 C22 1.249 . S
O24 Zn14 2.067 . S
O24 C22 1.270 . S
C25 O18 1.262 . S
C25 O26 1.232 . S
O26 C25 1.232 . S
C27 O19 1.260 . S
C27 O20 1.257 . S
Zn28 O31 2.031 1_455 S
Zn28 O33 2.049 . S
Zn28 O38 2.067 . S
Zn29 O30 1.962 1_455 S
Zn29 O32 1.986 . S
Zn29 O34 1.996 . S
Zn29 O37 1.943 . S
O30 Zn29 1.962 1_655 S
O30 C35 1.254 . S
O31 Zn28 2.031 1_655 S
O31 C35 1.269 . S
O32 Zn29 1.986 . S
O32 C39 1.262 . S
O33 Zn28 2.049 . S
O33 C41 1.260 . S
O34 Zn29 1.996 . S
O34 C41 1.257 . S
C35 O30 1.254 . S
C35 O31 1.269 . S
C36 O37 1.249 . S
C36 O38 1.270 . S
O37 Zn29 1.943 . S
O37 C36 1.249 . S
O38 Zn28 2.067 . S
O38 C36 1.270 . S
C39 O32 1.262 . S
C39 O40 1.232 . S
O40 C39 1.232 . S
C41 O33 1.260 . S
C41 O34 1.257 . S
Zn42 O45 2.031 . S
Zn42 O47 2.049 . S
Zn42 O52 2.067 1_545 S
Zn43 O44 1.962 . S
Zn43 O46 1.986 . S
Zn43 O48 1.996 . S
Zn43 O51 1.943 1_545 S
O44 Zn43 1.962 . S
O44 C49 1.254 . S
O45 Zn42 2.031 . S
O45 C49 1.269 . S
O46 Zn43 1.986 . S
O46 C53 1.262 . S
O47 Zn42 2.049 . S
O47 C55 1.260 . S
O48 Zn43 1.996 . S
O48 C55 1.257 . S
C49 O44 1.254 . S
C49 O45 1.269 . S
C50 O51 1.249 . S
C50 O52 1.270 . S
O51 Zn43 1.943 1_565 S
O51 C50 1.249 . S
O52 Zn42 2.067 1_565 S
O52 C50 1.270 . S
C53 O46 1.262 . S
C53 O54 1.232 . S
O54 C53 1.232 . S
C55 O47 1.260 . S
C55 O48 1.257 . S
Zn56 O59 2.031 . S
Zn56 O61 2.049 . S
Zn56 O66 2.067 . S
Zn57 O58 1.962 . S
Zn57 O60 1.986 1_545 S
Zn57 O62 1.996 . S
Zn57 O65 1.943 . S
O58 Zn57 1.962 . S
O58 C63 1.254 . S
O59 Zn56 2.031 . S
O59 C63 1.269 . S
O60 Zn57 1.986 1_565 S
O60 C67 1.262 . S
O61 Zn56 2.049 . S
O61 C69 1.260 . S
O62 Zn57 1.996 . S
O62 C69 1.257 . S
C63 O58 1.254 . S
C63 O59 1.269 . S
C64 O65 1.249 . S
C64 O66 1.270 . S
O65 Zn57 1.943 . S
O65 C64 1.249 . S
O66 Zn56 2.067 . S
O66 C64 1.270 . S
C67 O60 1.262 . S
C67 O68 1.232 . S
O68 C67 1.232 . S
C69 O61 1.260 . S
C69 O62 1.257 . S
Zn70 O73 2.031 . S
Zn70 O75 2.049 . S
Zn70 O80 2.067 1_455 S
Zn71 O72 1.962 . S
Zn71 O74 1.986 . S
Zn71 O76 1.996 . S
Zn71 O79 1.943 1_455 S
O72 Zn71 1.962 . S
O72 C77 1.254 . S
O73 Zn70 2.031 . S
O73 C77 1.269 . S
O74 Zn71 1.986 . S
O74 C81 1.262 . S
O75 Zn70 2.049 . S
O75 C83 1.260 . S
O76 Zn71 1.996 . S
O76 C83 1.257 . S
C77 O72 1.254 . S
C77 O73 1.269 . S
C78 O79 1.249 . S
C78 O80 1.270 . S
O79 Zn71 1.943 1_655 S
O79 C78 1.249 . S
O80 Zn70 2.067 1_655 S
O80 C78 1.270 . S
C81 O74 1.262 . S
C81 O82 1.232 . S
O82 C81 1.232 . S
C83 O75 1.260 . S
C83 O76 1.257 . S
Zn84 O87 2.031 . S
Zn84 O89 2.049 . S
Zn84 O94 2.067 . S
Zn85 O86 1.962 . S
Zn85 O88 1.986 1_545 S
Zn85 O90 1.996 . S
Zn85 O93 1.943 1_545 S
O86 Zn85 1.962 . S
O86 C91 1.256 . S
O87 Zn84 2.031 . S
O87 C91 1.269 . S
O88 Zn85 1.986 1_565 S
O88 C95 1.262 . S
O89 Zn84 2.049 . S
O89 C97 1.260 . S
O90 Zn85 1.996 . S
O90 C97 1.257 . S
C91 O86 1.256 . S
C91 O87 1.269 . S
C92 O93 1.249 1_545 S
C92 O94 1.270 . S
O93 Zn85 1.943 1_565 S
O93 C92 1.249 1_565 S
O94 Zn84 2.067 . S
O94 C92 1.270 . S
C95 O88 1.262 . S
C95 O96 1.232 . S
O96 C95 1.232 . S
C97 O89 1.260 . S
C97 O90 1.257 . S
Zn98 O101 2.031 . S
Zn98 O103 2.049 . S
Zn98 O108 2.067 . S
Zn99 O100 1.962 . S
Zn99 O102 1.986 . S
Zn99 O104 1.996 1_455 S
Zn99 O107 1.943 . S
O100 Zn99 1.962 . S
O100 C105 1.254 . S
O101 Zn98 2.031 . S
O101 C105 1.269 1_655 S
O102 Zn99 1.986 . S
O102 C109 1.262 . S
O103 Zn98 2.049 . S
O103 C111 1.260 . S
O104 Zn99 1.996 1_655 S
O104 C111 1.257 . S
C105 O100 1.254 . S
C105 O101 1.269 1_455 S
C106 O107 1.249 . S
C106 O108 1.270 1_455 S
O107 Zn99 1.943 . S
O107 C106 1.249 . S
O108 Zn98 2.067 . S
O108 C106 1.270 1_655 S
C109 O102 1.262 . S
C109 O110 1.232 . S
O110 C109 1.232 . S
C111 O103 1.260 . S
C111 O104 1.257 . S
Zn112 O115 2.031 . S
Zn112 O117 2.049 . S
Zn112 O122 2.067 . S
Zn113 O114 1.962 . S
Zn113 O116 1.986 . S
Zn113 O118 1.996 1_556 S
Zn113 O121 1.943 . S
O114 Zn113 1.962 . S
O114 C119 1.254 1_556 S
O115 Zn112 2.031 . S
O115 C119 1.269 . S
O116 Zn113 1.986 . S
O116 C123 1.262 . S
O117 Zn112 2.049 . S
O117 C125 1.260 . S
O118 Zn113 1.996 1_554 S
O118 C125 1.257 . S
C119 O114 1.254 1_554 S
C119 O115 1.269 . S
C120 O121 1.249 1_554 S
C120 O122 1.270 . S
O121 Zn113 1.943 . S
O121 C120 1.249 1_556 S
O122 Zn112 2.067 . S
O122 C120 1.270 . S
C123 O116 1.262 . S
C123 O124 1.232 . S
O124 C123 1.232 . S
C125 O117 1.260 . S
C125 O118 1.257 . S
Zn126 O129 2.031 . S
Zn126 O131 2.049 . S
Zn126 O136 2.067 . S
Zn127 O128 1.962 . S
Zn127 O130 1.986 . S
Zn127 O132 1.996 1_554 S
Zn127 O135 1.943 . S
O128 Zn127 1.962 . S
O128 C133 1.254 . S
O129 Zn126 2.031 . S
O129 C133 1.269 1_556 S
O130 Zn127 1.986 . S
O130 C137 1.262 . S
O131 Zn126 2.049 . S
O131 C139 1.260 . S
O132 Zn127 1.996 1_556 S
O132 C139 1.257 . S
C133 O128 1.254 . S
C133 O129 1.269 1_554 S
C134 O135 1.249 1_556 S
C134 O136 1.270 . S
O135 Zn127 1.943 . S
O135 C134 1.249 1_554 S
O136 Zn126 2.067 . S
O136 C134 1.270 . S
C137 O130 1.262 . S
C137 O138 1.232 . S
O138 C137 1.232 . S
C139 O131 1.260 . S
C139 O132 1.257 . S
Zn140 O143 2.031 . S
Zn140 O145 2.049 . S
Zn140 O150 2.067 . S
Zn141 O142 1.962 . S
Zn141 O144 1.986 . S
Zn141 O146 1.996 1_556 S
Zn141 O149 1.943 . S
O142 Zn141 1.962 . S
O142 C147 1.254 1_556 S
O143 Zn140 2.031 . S
O143 C147 1.269 . S
O144 Zn141 1.986 . S
O144 C151 1.262 . S
O145 Zn140 2.049 . S
O145 C153 1.260 . S
O146 Zn141 1.996 1_554 S
O146 C153 1.257 . S
C147 O142 1.254 1_554 S
C147 O143 1.269 . S
C148 O149 1.249 1_554 S
C148 O150 1.270 . S
O149 Zn141 1.943 . S
O149 C148 1.249 1_556 S
O150 Zn140 2.067 . S
O150 C148 1.270 . S
C151 O144 1.262 . S
C151 O152 1.232 . S
O152 C151 1.232 . S
C153 O145 1.260 . S
C153 O146 1.257 . S
Zn154 O157 2.031 . S
Zn154 O159 2.049 . S
Zn154 O164 2.067 . S
Zn155 O156 1.962 . S
Zn155 O158 1.986 . S
Zn155 O160 1.996 1_554 S
Zn155 O163 1.943 . S
O156 Zn155 1.962 . S
O156 C161 1.254 . S
O157 Zn154 2.031 . S
O157 C161 1.269 1_556 S
O158 Zn155 1.986 . S
O158 C165 1.262 . S
O159 Zn154 2.049 . S
O159 C167 1.260 . S
O160 Zn155 1.996 1_556 S
O160 C167 1.257 . S
C161 O156 1.254 . S
C161 O157 1.269 1_554 S
C162 O163 1.249 1_556 S
C162 O164 1.270 . S
O163 Zn155 1.943 . S
O163 C162 1.249 1_554 S
O164 Zn154 2.067 . S
O164 C162 1.270 . S
C165 O158 1.262 . S
C165 O166 1.232 . S
O166 C165 1.232 . S
C167 O159 1.260 . S
C167 O160 1.257 . S
C168 C169 1.363 . S
C168 C174 1.379 . S
C168 N176 1.356 1_455 S
C169 C168 1.363 . S
C169 C175 1.363 . S
C170 C171 1.363 . S
C170 C175 1.379 . S
C170 N177 1.356 . S
C171 C170 1.363 . S
C171 C174 1.363 . S
N172 C174 1.356 . S
N172 H184 0.984 1_455 S
N172 H185 0.985 . S
N173 C175 1.356 . S
N173 H178 0.984 . S
N173 H179 0.985 . S
C174 C168 1.379 . S
C174 C171 1.363 . S
C174 N172 1.356 . S
C175 C169 1.363 . S
C175 C170 1.379 . S
C175 N173 1.356 . S
N176 C168 1.356 1_655 S
N176 H182 0.984 . S
N176 H183 0.984 . S
N177 C170 1.356 . S
N177 H180 0.984 . S
N177 H181 0.985 . S
H178 N173 0.984 . S
H179 N173 0.985 . S
H180 N177 0.984 . S
H181 N177 0.985 . S
H182 N176 0.984 . S
H183 N176 0.984 . S
H184 N172 0.984 1_655 S
H185 N172 0.985 . S
C186 C187 1.363 . S
C186 C192 1.379 . S
C186 N194 1.356 . S
C187 C186 1.363 . S
C187 C193 1.363 1_545 S
C188 C189 1.363 1_565 S
C188 C193 1.379 . S
C188 N195 1.356 . S
C189 C188 1.363 1_545 S
C189 C192 1.363 . S
N190 C192 1.356 . S
N190 H202 0.984 . S
N190 H203 0.985 . S
N191 C193 1.356 . S
N191 H196 0.984 . S
N191 H197 0.985 . S
C192 C186 1.379 . S
C192 C189 1.363 . S
C192 N190 1.356 . S
C193 C187 1.363 1_565 S
C193 C188 1.379 . S
C193 N191 1.356 . S
N194 C186 1.356 . S
N194 H200 0.984 . S
N194 H201 0.984 . S
N195 C188 1.356 . S
N195 H198 0.984 . S
N195 H199 0.985 . S
H196 N191 0.984 . S
H197 N191 0.985 . S
H198 N195 0.984 . S
H199 N195 0.985 . S
H200 N194 0.984 . S
H201 N194 0.984 . S
H202 N190 0.984 . S
H203 N190 0.985 . S
C204 C205 1.363 . S
C204 C210 1.379 . S
C204 N212 1.356 . S
C205 C204 1.363 . S
C205 C211 1.363 1_455 S
C206 C207 1.363 1_655 S
C206 C211 1.379 . S
C206 N213 1.356 . S
C207 C206 1.363 1_455 S
C207 C210 1.363 . S
N208 C210 1.356 . S
N208 H220 0.984 . S
N208 H221 0.985 . S
N209 C211 1.356 . S
N209 H214 0.984 . S
N209 H215 0.985 . S
C210 C204 1.379 . S
C210 C207 1.363 . S
C210 N208 1.356 . S
C211 C205 1.363 1_655 S
C211 C206 1.379 . S
C211 N209 1.356 . S
N212 C204 1.356 . S
N212 H218 0.984 . S
N212 H219 0.984 . S
N213 C206 1.356 . S
N213 H216 0.984 . S
N213 H217 0.985 . S
H214 N209 0.984 . S
H215 N209 0.985 . S
H216 N213 0.984 . S
H217 N213 0.985 . S
H218 N212 0.984 . S
H219 N212 0.984 . S
H220 N208 0.984 . S
H221 N208 0.985 . S
C222 C223 1.363 1_565 S
C222 C228 1.379 . S
C222 N230 1.356 . S
C223 C222 1.363 1_545 S
C223 C229 1.363 . S
C224 C225 1.363 . S
C224 C229 1.379 . S
C224 N231 1.356 . S
C225 C224 1.363 . S
C225 C228 1.363 1_545 S
N226 C228 1.356 . S
N226 H238 0.984 . S
N226 H239 0.985 . S
N227 C229 1.356 . S
N227 H232 0.984 . S
N227 H233 0.985 . S
C228 C222 1.379 . S
C228 C225 1.363 1_565 S
C228 N226 1.356 . S
C229 C223 1.363 . S
C229 C224 1.379 . S
C229 N227 1.356 . S
N230 C222 1.356 . S
N230 H236 0.984 . S
N230 H237 0.984 . S
N231 C224 1.356 . S
N231 H234 0.984 . S
N231 H235 0.985 . S
H232 N227 0.984 . S
H233 N227 0.985 . S
H234 N231 0.984 . S
H235 N231 0.985 . S
H236 N230 0.984 . S
H237 N230 0.984 . S
H238 N226 0.984 . S
H239 N226 0.985 . S
C240 C241 1.363 . S
C240 C246 1.379 . S
C240 N248 1.356 . S
C241 C240 1.363 . S
C241 C247 1.363 1_455 S
C242 C243 1.363 1_655 S
C242 C247 1.379 . S
C242 N249 1.356 . S
C243 C242 1.363 1_455 S
C243 C246 1.363 . S
N244 C246 1.356 . S
N244 H256 0.984 . S
N244 H257 0.985 . S
N245 C247 1.356 . S
N245 H250 0.984 . S
N245 H251 0.985 . S
C246 C240 1.379 . S
C246 C243 1.363 . S
C246 N244 1.356 . S
C247 C241 1.363 1_655 S
C247 C242 1.379 . S
C247 N245 1.356 . S
N248 C240 1.356 . S
N248 H254 0.984 . S
N248 H255 0.984 . S
N249 C242 1.356 . S
N249 H252 0.984 . S
N249 H253 0.985 . S
H250 N245 0.984 . S
H251 N245 0.985 . S
H252 N249 0.984 . S
H253 N249 0.985 . S
H254 N248 0.984 . S
H255 N248 0.984 . S
H256 N244 0.984 . S
H257 N244 0.985 . S
C258 C259 1.363 1_565 S
C258 C264 1.379 . S
C258 N266 1.356 . S
C259 C258 1.363 1_545 S
C259 C265 1.363 . S
C260 C261 1.363 . S
C260 C265 1.379 . S
C260 N267 1.356 . S
C261 C260 1.363 . S
C261 C264 1.363 1_545 S
N262 C264 1.356 . S
N262 H274 0.984 . S
N262 H275 0.985 . S
N263 C265 1.356 . S
N263 H268 0.984 . S
N263 H269 0.985 . S
C264 C258 1.379 . S
C264 C261 1.363 1_565 S
C264 N262 1.356 . S
C265 C259 1.363 . S
C265 C260 1.379 . S
C265 N263 1.356 . S
N266 C258 1.356 . S
N266 H272 0.984 . S
N266 H273 0.984 . S
N267 C260 1.356 . S
N267 H270 0.984 . S
N267 H271 0.985 . S
H268 N263 0.984 . S
H269 N263 0.985 . S
H270 N267 0.984 . S
H271 N267 0.985 . S
H272 N266 0.984 . S
H273 N266 0.984 . S
H274 N262 0.984 . S
H275 N262 0.985 . S
C276 C277 1.363 . S
C276 C282 1.379 . S
C276 N284 1.356 . S
C277 C276 1.363 . S
C277 C283 1.363 1_455 S
C278 C279 1.363 1_655 S
C278 C283 1.379 . S
C278 N285 1.356 . S
C279 C278 1.363 1_455 S
C279 C282 1.363 . S
N280 C282 1.356 . S
N280 H292 0.984 . S
N280 H293 0.985 . S
N281 C283 1.356 . S
N281 H286 0.984 . S
N281 H287 0.985 . S
C282 C276 1.379 . S
C282 C279 1.363 . S
C282 N280 1.356 . S
C283 C277 1.363 1_655 S
C283 C278 1.379 . S
C283 N281 1.356 . S
N284 C276 1.356 . S
N284 H290 0.984 . S
N284 H291 0.984 . S
N285 C278 1.356 . S
N285 H288 0.984 . S
N285 H289 0.985 . S
H286 N281 0.984 . S
H287 N281 0.985 . S
H288 N285 0.984 . S
H289 N285 0.985 . S
H290 N284 0.984 . S
H291 N284 0.984 . S
H292 N280 0.984 . S
H293 N280 0.985 . S
C294 C295 1.363 . S
C294 C300 1.379 . S
C294 N302 1.356 . S
C295 C294 1.363 . S
C295 C301 1.363 . S
C296 C297 1.363 . S
C296 C301 1.379 . S
C296 N303 1.356 . S
C297 C296 1.363 . S
C297 C300 1.363 . S
N298 C300 1.356 . S
N298 H310 0.984 . S
N298 H311 0.985 . S
N299 C301 1.356 1_565 S
N299 H304 0.984 . S
N299 H305 0.985 . S
C300 C294 1.379 . S
C300 C297 1.363 . S
C300 N298 1.356 . S
C301 C295 1.363 . S
C301 C296 1.379 . S
C301 N299 1.356 1_545 S
N302 C294 1.356 . S
N302 H308 0.984 . S
N302 H309 0.984 . S
N303 C296 1.356 . S
N303 H306 0.984 . S
N303 H307 0.985 1_545 S
H304 N299 0.984 . S
H305 N299 0.985 . S
H306 N303 0.984 . S
H307 N303 0.985 1_565 S
H308 N302 0.984 . S
H309 N302 0.984 . S
H310 N298 0.984 . S
H311 N298 0.985 . S
C312 C313 1.363 1_556 S
C312 C318 1.379 . S
C312 N320 1.356 . S
C313 C312 1.363 1_554 S
C313 C319 1.363 . S
C314 C315 1.363 . S
C314 C319 1.379 . S
C314 N321 1.356 . S
C315 C314 1.363 . S
C315 C318 1.363 1_554 S
N316 C318 1.356 . S
N316 H328 0.984 . S
N316 H329 0.985 . S
N317 C319 1.356 . S
N317 H322 0.984 . S
N317 H323 0.985 . S
C318 C312 1.379 . S
C318 C315 1.363 1_556 S
C318 N316 1.356 . S
C319 C313 1.363 . S
C319 C314 1.379 . S
C319 N317 1.356 . S
N320 C312 1.356 . S
N320 H326 0.984 . S
N320 H327 0.984 . S
N321 C314 1.356 . S
N321 H324 0.984 . S
N321 H325 0.985 . S
H322 N317 0.984 . S
H323 N317 0.985 . S
H324 N321 0.984 . S
H325 N321 0.985 . S
H326 N320 0.984 . S
H327 N320 0.984 . S
H328 N316 0.984 . S
H329 N316 0.985 . S
C330 C331 1.363 1_556 S
C330 C336 1.379 . S
C330 N338 1.356 . S
C331 C330 1.363 1_554 S
C331 C337 1.363 . S
C332 C333 1.363 . S
C332 C337 1.379 . S
C332 N339 1.356 . S
C333 C332 1.363 . S
C333 C336 1.363 1_554 S
N334 C336 1.356 . S
N334 H346 0.984 . S
N334 H347 0.985 . S
N335 C337 1.356 . S
N335 H340 0.984 . S
N335 H341 0.985 . S
C336 C330 1.379 . S
C336 C333 1.363 1_556 S
C336 N334 1.356 . S
C337 C331 1.363 . S
C337 C332 1.379 . S
C337 N335 1.356 . S
N338 C330 1.356 . S
N338 H344 0.984 . S
N338 H345 0.984 . S
N339 C332 1.356 . S
N339 H342 0.984 . S
N339 H343 0.985 . S
H340 N335 0.984 . S
H341 N335 0.985 . S
H342 N339 0.984 . S
H343 N339 0.985 . S
H344 N338 0.984 . S
H345 N338 0.984 . S
H346 N334 0.984 . S
H347 N334 0.985 . S
C348 C349 1.363 . S
C348 C354 1.379 . S
C348 N356 1.356 . S
C349 C348 1.363 . S
C349 C355 1.363 1_554 S
C350 C351 1.363 1_556 S
C350 C355 1.379 . S
C350 N357 1.356 . S
C351 C350 1.363 1_554 S
C351 C354 1.363 . S
N352 C354 1.356 . S
N352 H364 0.984 . S
N352 H365 0.985 . S
N353 C355 1.356 . S
N353 H358 0.984 . S
N353 H359 0.985 . S
C354 C348 1.379 . S
C354 C351 1.363 . S
C354 N352 1.356 . S
C355 C349 1.363 1_556 S
C355 C350 1.379 . S
C355 N353 1.356 . S
N356 C348 1.356 . S
N356 H362 0.984 . S
N356 H363 0.984 . S
N357 C350 1.356 . S
N357 H360 0.984 . S
N357 H361 0.985 . S
H358 N353 0.984 . S
H359 N353 0.985 . S
H360 N357 0.984 . S
H361 N357 0.985 . S
H362 N356 0.984 . S
H363 N356 0.984 . S
H364 N352 0.984 . S
H365 N352 0.985 . S
C366 C367 1.363 . S
C366 C372 1.379 . S
C366 N374 1.356 . S
C367 C366 1.363 . S
C367 C373 1.363 1_554 S
C368 C369 1.363 1_556 S
C368 C373 1.379 . S
C368 N375 1.356 . S
C369 C368 1.363 1_554 S
C369 C372 1.363 . S
N370 C372 1.356 . S
N370 H382 0.984 . S
N370 H383 0.985 . S
N371 C373 1.356 . S
N371 H376 0.984 . S
N371 H377 0.985 . S
C372 C366 1.379 . S
C372 C369 1.363 . S
C372 N370 1.356 . S
C373 C367 1.363 1_556 S
C373 C368 1.379 . S
C373 N371 1.356 . S
N374 C366 1.356 . S
N374 H380 0.984 . S
N374 H381 0.984 . S
N375 C368 1.356 . S
N375 H378 0.984 . S
N375 H379 0.985 . S
H376 N371 0.984 . S
H377 N371 0.985 . S
H378 N375 0.984 . S
H379 N375 0.985 . S
H380 N374 0.984 . S
H381 N374 0.984 . S
H382 N370 0.984 . S
H383 N370 0.985 . S
C384 C385 1.363 . S
C384 C390 1.379 . S
C384 N392 1.356 . S
C385 C384 1.363 . S
C385 C391 1.363 . S
C386 C387 1.363 . S
C386 C391 1.379 . S
C386 N393 1.356 . S
C387 C386 1.363 . S
C387 C390 1.363 . S
N388 C390 1.356 . S
N388 H400 0.984 . S
N388 H401 0.985 . S
N389 C391 1.356 . S
N389 H394 0.984 . S
N389 H395 0.985 . S
C390 C384 1.379 . S
C390 C387 1.363 . S
C390 N388 1.356 . S
C391 C385 1.363 . S
C391 C386 1.379 . S
C391 N389 1.356 . S
N392 C384 1.356 . S
N392 H398 0.984 . S
N392 H399 0.984 . S
N393 C386 1.356 . S
N393 H396 0.984 . S
N393 H397 0.985 . S
H394 N389 0.984 . S
H395 N389 0.985 . S
H396 N393 0.984 . S
H397 N393 0.985 . S
H398 N392 0.984 . S
H399 N392 0.984 . S
H400 N388 0.984 . S
H401 N388 0.985 . S
C402 C403 1.363 . S
C402 C408 1.379 . S
C402 N410 1.356 . S
C403 C402 1.363 . S
C403 C409 1.363 . S
C404 C405 1.363 . S
C404 C409 1.379 . S
C404 N411 1.356 . S
C405 C404 1.363 . S
C405 C408 1.363 . S
N406 C408 1.356 . S
N406 H418 0.984 . S
N406 H419 0.985 . S
N407 C409 1.356 . S
N407 H412 0.984 . S
N407 H413 0.985 . S
C408 C402 1.379 . S
C408 C405 1.363 . S
C408 N406 1.356 . S
C409 C403 1.363 . S
C409 C404 1.379 . S
C409 N407 1.356 . S
N410 C402 1.356 . S
N410 H416 0.984 . S
N410 H417 0.984 . S
N411 C404 1.356 . S
N411 H414 0.984 . S
N411 H415 0.985 . S
H412 N407 0.984 . S
H413 N407 0.985 . S
H414 N411 0.984 . S
H415 N411 0.985 . S
H416 N410 0.984 . S
H417 N410 0.984 . S
H418 N406 0.984 . S
H419 N406 0.985 . S
C420 C421 1.363 . S
C420 C426 1.379 . S
C420 N428 1.356 . S
C421 C420 1.363 . S
C421 C427 1.363 . S
C422 C423 1.363 . S
C422 C427 1.379 . S
C422 N429 1.356 . S
C423 C422 1.363 . S
C423 C426 1.363 . S
N424 C426 1.356 . S
N424 H436 0.984 . S
N424 H437 0.985 . S
N425 C427 1.356 . S
N425 H430 0.984 . S
N425 H431 0.985 . S
C426 C420 1.379 . S
C426 C423 1.363 . S
C426 N424 1.356 . S
C427 C421 1.363 . S
C427 C422 1.379 . S
C427 N425 1.356 . S
N428 C420 1.356 . S
N428 H434 0.984 . S
N428 H435 0.984 . S
N429 C422 1.356 . S
N429 H432 0.984 . S
N429 H433 0.985 . S
H430 N425 0.984 . S
H431 N425 0.985 . S
H432 N429 0.984 . S
H433 N429 0.985 . S
H434 N428 0.984 . S
H435 N428 0.984 . S
H436 N424 0.984 . S
H437 N424 0.985 . S
C438 C439 1.363 . S
C438 C444 1.379 . S
C438 N446 1.356 . S
C439 C438 1.363 . S
C439 C445 1.363 . S
C440 C441 1.363 . S
C440 C445 1.379 . S
C440 N447 1.356 . S
C441 C440 1.363 . S
C441 C444 1.363 . S
N442 C444 1.356 . S
N442 H454 0.984 . S
N442 H455 0.985 . S
N443 C445 1.356 . S
N443 H448 0.984 . S
N443 H449 0.985 . S
C444 C438 1.379 . S
C444 C441 1.363 . S
C444 N442 1.356 . S
C445 C439 1.363 . S
C445 C440 1.379 . S
C445 N443 1.356 . S
N446 C438 1.356 . S
N446 H452 0.984 . S
N446 H453 0.984 . S
N447 C440 1.356 . S
N447 H450 0.984 . S
N447 H451 0.985 . S
H448 N443 0.984 . S
H449 N443 0.985 . S
H450 N447 0.984 . S
H451 N447 0.985 . S
H452 N446 0.984 . S
H453 N446 0.984 . S
H454 N442 0.984 . S
H455 N442 0.985 . S
C456 C457 1.363 . S
C456 C462 1.379 . S
C456 N464 1.356 . S
C457 C456 1.363 . S
C457 C463 1.363 . S
C458 C459 1.363 . S
C458 C463 1.379 . S
C458 N465 1.356 . S
C459 C458 1.363 . S
C459 C462 1.363 . S
N460 C462 1.356 . S
N460 H472 0.984 . S
N460 H473 0.985 . S
N461 C463 1.356 . S
N461 H466 0.984 . S
N461 H467 0.985 . S
C462 C456 1.379 . S
C462 C459 1.363 . S
C462 N460 1.356 . S
C463 C457 1.363 . S
C463 C458 1.379 . S
C463 N461 1.356 . S
N464 C456 1.356 . S
N464 H470 0.984 . S
N464 H471 0.984 . S
N465 C458 1.356 . S
N465 H468 0.984 . S
N465 H469 0.985 . S
H466 N461 0.984 . S
H467 N461 0.985 . S
H468 N465 0.984 . S
H469 N465 0.985 . S
H470 N464 0.984 . S
H471 N464 0.984 . S
H472 N460 0.984 . S
H473 N460 0.985 . S
C474 C475 1.363 . S
C474 C480 1.379 . S
C474 N482 1.356 . S
C475 C474 1.363 . S
C475 C481 1.363 . S
C476 C477 1.363 . S
C476 C481 1.379 . S
C476 N483 1.356 . S
C477 C476 1.363 . S
C477 C480 1.363 . S
N478 C480 1.356 . S
N478 H490 0.984 . S
N478 H491 0.985 . S
N479 C481 1.356 . S
N479 H484 0.984 . S
N479 H485 0.985 . S
C480 C474 1.379 . S
C480 C477 1.363 . S
C480 N478 1.356 . S
C481 C475 1.363 . S
C481 C476 1.379 . S
C481 N479 1.356 . S
N482 C474 1.356 . S
N482 H488 0.984 . S
N482 H489 0.984 . S
N483 C476 1.356 . S
N483 H486 0.984 . S
N483 H487 0.985 . S
H484 N479 0.984 . S
H485 N479 0.985 . S
H486 N483 0.984 . S
H487 N483 0.985 . S
H488 N482 0.984 . S
H489 N482 0.984 . S
H490 N478 0.984 . S
H491 N478 0.985 . S
C492 C493 1.363 . S
C492 C498 1.379 . S
C492 N500 1.356 . S
C493 C492 1.363 . S
C493 C499 1.363 . S
C494 C495 1.363 . S
C494 C499 1.379 . S
C494 N501 1.356 . S
C495 C494 1.363 . S
C495 C498 1.363 . S
N496 C498 1.356 . S
N496 H508 0.984 . S
N496 H509 0.985 . S
N497 C499 1.356 . S
N497 H502 0.984 . S
N497 H503 0.985 . S
C498 C492 1.379 . S
C498 C495 1.363 . S
C498 N496 1.356 . S
C499 C493 1.363 . S
C499 C494 1.379 . S
C499 N497 1.356 . S
N500 C492 1.356 . S
N500 H506 0.984 . S
N500 H507 0.984 . S
N501 C494 1.356 . S
N501 H504 0.984 . S
N501 H505 0.985 . S
H502 N497 0.984 . S
H503 N497 0.985 . S
H504 N501 0.984 . S
H505 N501 0.985 . S
H506 N500 0.984 . S
H507 N500 0.984 . S
H508 N496 0.984 . S
H509 N496 0.985 . S
C510 C511 1.363 . S
C510 C516 1.379 . S
C510 N518 1.356 . S
C511 C510 1.363 . S
C511 C517 1.363 . S
C512 C513 1.363 . S
C512 C517 1.379 . S
C512 N519 1.356 . S
C513 C512 1.363 . S
C513 C516 1.363 . S
N514 C516 1.356 . S
N514 H526 0.984 . S
N514 H527 0.985 . S
N515 C517 1.356 . S
N515 H520 0.984 . S
N515 H521 0.985 . S
C516 C510 1.379 . S
C516 C513 1.363 . S
C516 N514 1.356 . S
C517 C511 1.363 . S
C517 C512 1.379 . S
C517 N515 1.356 . S
N518 C510 1.356 . S
N518 H524 0.984 . S
N518 H525 0.984 . S
N519 C512 1.356 . S
N519 H522 0.984 . S
N519 H523 0.985 . S
H520 N515 0.984 . S
H521 N515 0.985 . S
H522 N519 0.984 . S
H523 N519 0.985 . S
H524 N518 0.984 . S
H525 N518 0.984 . S
H526 N514 0.984 . S
H527 N514 0.985 . S
C528 C529 1.363 . S
C528 C534 1.379 . S
C528 N536 1.356 . S
C529 C528 1.363 . S
C529 C535 1.363 . S
C530 C531 1.363 . S
C530 C535 1.379 . S
C530 N537 1.356 . S
C531 C530 1.363 . S
C531 C534 1.363 . S
N532 C534 1.356 . S
N532 H544 0.984 . S
N532 H545 0.985 . S
N533 C535 1.356 . S
N533 H538 0.984 . S
N533 H539 0.985 . S
C534 C528 1.379 . S
C534 C531 1.363 . S
C534 N532 1.356 . S
C535 C529 1.363 . S
C535 C530 1.379 . S
C535 N533 1.356 . S
N536 C528 1.356 . S
N536 H542 0.984 . S
N536 H543 0.984 . S
N537 C530 1.356 . S
N537 H540 0.984 . S
N537 H541 0.985 . S
H538 N533 0.984 . S
H539 N533 0.985 . S
H540 N537 0.984 . S
H541 N537 0.985 . S
H542 N536 0.984 . S
H543 N536 0.984 . S
H544 N532 0.984 . S
H545 N532 0.985 . S
C546 C547 1.363 . S
C546 C552 1.379 . S
C546 N554 1.356 . S
C547 C546 1.363 . S
C547 C553 1.363 . S
C548 C549 1.363 . S
C548 C553 1.379 . S
C548 N555 1.356 . S
C549 C548 1.363 . S
C549 C552 1.363 . S
N550 C552 1.356 . S
N550 H562 0.984 . S
N550 H563 0.985 . S
N551 C553 1.356 . S
N551 H556 0.984 . S
N551 H557 0.985 . S
C552 C546 1.379 . S
C552 C549 1.363 . S
C552 N550 1.356 . S
C553 C547 1.363 . S
C553 C548 1.379 . S
C553 N551 1.356 . S
N554 C546 1.356 . S
N554 H560 0.984 . S
N554 H561 0.984 . S
N555 C548 1.356 . S
N555 H558 0.984 . S
N555 H559 0.985 . S
H556 N551 0.984 . S
H557 N551 0.985 . S
H558 N555 0.984 . S
H559 N555 0.985 . S
H560 N554 0.984 . S
H561 N554 0.984 . S
H562 N550 0.984 . S
H563 N550 0.985 . S
C564 C565 1.363 . S
C564 C570 1.379 . S
C564 N572 1.356 . S
C565 C564 1.363 . S
C565 C571 1.363 . S
C566 C567 1.363 . S
C566 C571 1.379 . S
C566 N573 1.356 . S
C567 C566 1.363 . S
C567 C570 1.363 . S
N568 C570 1.356 . S
N568 H580 0.984 . S
N568 H581 0.985 . S
N569 C571 1.356 . S
N569 H574 0.984 . S
N569 H575 0.985 . S
C570 C564 1.379 . S
C570 C567 1.363 . S
C570 N568 1.356 . S
C571 C565 1.363 . S
C571 C566 1.379 . S
C571 N569 1.356 . S
N572 C564 1.356 . S
N572 H578 0.984 . S
N572 H579 0.984 . S
N573 C566 1.356 . S
N573 H576 0.984 . S
N573 H577 0.985 . S
H574 N569 0.984 . S
H575 N569 0.985 . S
H576 N573 0.984 . S
H577 N573 0.985 . S
H578 N572 0.984 . S
H579 N572 0.984 . S
H580 N568 0.984 . S
H581 N568 0.985 . S
C582 C583 1.363 . S
C582 C588 1.379 . S
C582 N590 1.356 . S
C583 C582 1.363 . S
C583 C589 1.363 . S
C584 C585 1.363 . S
C584 C589 1.379 . S
C584 N591 1.356 . S
C585 C584 1.363 . S
C585 C588 1.363 . S
N586 C588 1.356 . S
N586 H598 0.984 . S
N586 H599 0.985 . S
N587 C589 1.356 . S
N587 H592 0.984 . S
N587 H593 0.985 . S
C588 C582 1.379 . S
C588 C585 1.363 . S
C588 N586 1.356 . S
C589 C583 1.363 . S
C589 C584 1.379 . S
C589 N587 1.356 . S
N590 C582 1.356 . S
N590 H596 0.984 . S
N590 H597 0.984 . S
N591 C584 1.356 . S
N591 H594 0.984 . S
N591 H595 0.985 . S
H592 N587 0.984 . S
H593 N587 0.985 . S
H594 N591 0.984 . S
H595 N591 0.985 . S
H596 N590 0.984 . S
H597 N590 0.984 . S
H598 N586 0.984 . S
H599 N586 0.985 . S
C169 C13 1.362 . S
C171 C81 1.430 . S
C187 C25 1.339 . S
C189 C64 1.324 . S
C205 C83 1.370 . S
C207 C41 1.368 . S
C223 C53 1.369 . S
C225 C63 1.355 . S
C241 C105 1.421 . S
C243 C39 1.433 . S
C259 C92 1.467 . S
C261 C55 1.430 . S
C277 C11 1.421 . S
C279 C106 1.406 . S
C295 C91 1.463 . S
C297 C27 1.415 . S
C313 C133 1.346 . S
C315 C119 1.344 . S
C331 C120 1.270 . S
C333 C162 1.270 1_554 S
C349 C134 1.318 1_554 S
C351 C148 1.318 . S
C367 C147 1.351 . S
C369 C161 1.351 . S
C385 C167 1.380 . S
C387 C95 1.439 . S
C403 C123 1.230 . S
C405 C109 1.229 . S
C421 C97 1.427 . S
C423 C139 1.425 . S
C439 C111 1.273 . S
C441 C151 1.313 . S
C457 C69 1.316 . S
C459 C137 1.370 . S
C475 C78 1.533 . S
C477 C153 1.487 . S
C493 C165 1.303 . S
C495 C67 1.304 . S
C511 C125 1.434 . S
C513 C77 1.474 . S
C529 C21 1.437 . S
C531 C35 1.438 . S
C547 C8 1.368 . S
C549 C22 1.368 . S
C565 C36 1.436 . S
C567 C50 1.436 . S
C583 C7 1.443 . S
C585 C49 1.444 . S
