# Generated by pormake.
# Topology snz, (6)-cn, num edge types: 1
# Building blocks:
#     Node 0, Type 0, BuildingBlock: BETDIP_clean_sbu_0, # of connection points: 6
#     Node 1, Type 0, BuildingBlock: BETDIP_clean_sbu_0, # of connection points: 6
#     Node 2, Type 0, BuildingBlock: BETDIP_clean_sbu_0, # of connection points: 6
#     Node 3, Type 0, BuildingBlock: BETDIP_clean_sbu_0, # of connection points: 6
#     Node 4, Type 0, BuildingBlock: BETDIP_clean_sbu_0, # of connection points: 6
#     Node 5, Type 0, BuildingBlock: BETDIP_clean_sbu_0, # of connection points: 6
#     Node 6, Type 0, BuildingBlock: BETDIP_clean_sbu_0, # of connection points: 6
#     Node 7, Type 0, BuildingBlock: BETDIP_clean_sbu_0, # of connection points: 6
#     Node 8, Type 0, BuildingBlock: BETDIP_clean_sbu_0, # of connection points: 6
#     Edge 9, Type (0, 0), BuildingBlock: XIVTED_clean_linker_0, # of connection points: 2
#     Edge 10, Type (0, 0), BuildingBlock: XIVTED_clean_linker_0, # of connection points: 2
#     Edge 11, Type (0, 0), BuildingBlock: XIVTED_clean_linker_0, # of connection points: 2
#     Edge 12, Type (0, 0), BuildingBlock: XIVTED_clean_linker_0, # of connection points: 2
#     Edge 13, Type (0, 0), BuildingBlock: XIVTED_clean_linker_0, # of connection points: 2
#     Edge 14, Type (0, 0), BuildingBlock: XIVTED_clean_linker_0, # of connection points: 2
#     Edge 15, Type (0, 0), BuildingBlock: XIVTED_clean_linker_0, # of connection points: 2
#     Edge 16, Type (0, 0), BuildingBlock: XIVTED_clean_linker_0, # of connection points: 2
#     Edge 17, Type (0, 0), BuildingBlock: XIVTED_clean_linker_0, # of connection points: 2
#     Edge 18, Type (0, 0), BuildingBlock: XIVTED_clean_linker_0, # of connection points: 2
#     Edge 19, Type (0, 0), BuildingBlock: XIVTED_clean_linker_0, # of connection points: 2
#     Edge 20, Type (0, 0), BuildingBlock: XIVTED_clean_linker_0, # of connection points: 2
#     Edge 21, Type (0, 0), BuildingBlock: XIVTED_clean_linker_0, # of connection points: 2
#     Edge 22, Type (0, 0), BuildingBlock: XIVTED_clean_linker_0, # of connection points: 2
#     Edge 23, Type (0, 0), BuildingBlock: XIVTED_clean_linker_0, # of connection points: 2
#     Edge 24, Type (0, 0), BuildingBlock: XIVTED_clean_linker_0, # of connection points: 2
#     Edge 25, Type (0, 0), BuildingBlock: XIVTED_clean_linker_0, # of connection points: 2
#     Edge 26, Type (0, 0), BuildingBlock: XIVTED_clean_linker_0, # of connection points: 2
#     Edge 27, Type (0, 0), BuildingBlock: XIVTED_clean_linker_0, # of connection points: 2
#     Edge 28, Type (0, 0), BuildingBlock: XIVTED_clean_linker_0, # of connection points: 2
#     Edge 29, Type (0, 0), BuildingBlock: XIVTED_clean_linker_0, # of connection points: 2
#     Edge 30, Type (0, 0), BuildingBlock: XIVTED_clean_linker_0, # of connection points: 2
#     Edge 31, Type (0, 0), BuildingBlock: XIVTED_clean_linker_0, # of connection points: 2
#     Edge 32, Type (0, 0), BuildingBlock: XIVTED_clean_linker_0, # of connection points: 2
#     Edge 33, Type (0, 0), BuildingBlock: XIVTED_clean_linker_0, # of connection points: 2
#     Edge 34, Type (0, 0), BuildingBlock: XIVTED_clean_linker_0, # of connection points: 2
#     Edge 35, Type (0, 0), BuildingBlock: XIVTED_clean_linker_0, # of connection points: 2
# Relax obj value: 0.164
# Max RMSD: 0.233
# Mean RMSD: 0.208
data_MOF--net-snz--node1-BETDIP_clean_sbu_0--edge1-XIVTED_clean_linker_0
_symmetry_space_group_name_H-M    P1
_symmetry_Int_Tables_number       1
_symmetry_cell_setting            triclinic
loop_
_symmetry_equiv_pos_as_xyz
'x, y, z'
_cell_length_a     67.494905
_cell_length_b     67.458904
_cell_length_c     14.639667
_cell_angle_alpha  89.729135
_cell_angle_beta   90.260166
_cell_angle_gamma 119.67348
loop_
_atom_site_label
_atom_site_type_symbol
_atom_site_fract_x
_atom_site_fract_y
_atom_site_fract_z
_atom_type_partial_charge
Tb0 Tb 0.21072 0.49435 0.00262 0.0
Tb1 Tb 0.16817 0.49709 0.98107 0.0
C2 C 0.24292 0.48759 0.05105 0.0
C3 C 0.26266 0.48431 0.07738 0.0
C4 C 0.26029 0.46774 0.14188 0.0
C5 C 0.27894 0.46477 0.1656 0.0
C6 C 0.30069 0.47836 0.12603 0.0
C7 C 0.30294 0.49499 0.06164 0.0
C8 C 0.28428 0.49785 0.03766 0.0
C9 C 0.20213 0.50194 0.83271 0.0
C10 C 0.16152 0.4483 0.96304 0.0
C11 C 0.13803 0.50665 0.93194 0.0
C12 C 0.13494 0.52675 0.92025 0.0
C13 C 0.1271 0.53019 0.83601 0.0
C14 C 0.1222 0.54791 0.82468 0.0
C15 C 0.1249 0.56253 0.89767 0.0
C16 C 0.13327 0.5594 0.98155 0.0
C17 C 0.13831 0.54173 0.99271 0.0
C18 C 0.17688 0.4891 0.15061 0.0
C19 C 0.21401 0.54272 0.01729 0.0
O20 O 0.22309 0.4779 0.0925 0.0
O21 O 0.24424 0.5008 0.98295 0.0
O22 O 0.18789 0.48896 0.89092 0.0
O23 O 0.22229 0.5102 0.86786 0.0
O24 O 0.18347 0.45717 0.98808 0.0
O25 O 0.1526 0.46151 0.9477 0.0
O26 O 0.1519 0.50476 0.87506 0.0
O27 O 0.1401 0.50084 0.01533 0.0
O28 O 0.19113 0.50238 0.09303 0.0
O29 O 0.15672 0.48059 0.11487 0.0
O30 O 0.19428 0.53303 0.97409 0.0
O31 O 0.22249 0.52991 0.0494 0.0
H32 H 0.24393 0.45691 0.17372 0.0
H33 H 0.27612 0.4515 0.21424 0.0
H34 H 0.31927 0.50616 0.03034 0.0
H35 H 0.2869 0.51089 0.98808 0.0
H36 H 0.12425 0.5188 0.77931 0.0
H37 H 0.11554 0.54964 0.75952 0.0
H38 H 0.13581 0.57054 0.03878 0.0
H39 H 0.14445 0.53958 0.05844 0.0
Tb40 Tb 0.78369 0.705 0.00399 0.0
Tb41 Tb 0.78578 0.66204 0.98891 0.0
C42 C 0.78925 0.7432 0.05426 0.0
C43 C 0.79244 0.76593 0.08303 0.0
C44 C 0.80105 0.77485 0.17006 0.0
C45 C 0.80436 0.79633 0.19652 0.0
C46 C 0.7994 0.8098 0.13655 0.0
C47 C 0.79062 0.80067 0.04951 0.0
C48 C 0.78714 0.77909 0.02338 0.0
C49 C 0.77585 0.68774 0.83691 0.0
C50 C 0.83171 0.70616 0.95222 0.0
C51 C 0.7796 0.62302 0.95062 0.0
C52 C 0.76066 0.59922 0.94247 0.0
C53 C 0.74769 0.59153 0.86176 0.0
C54 C 0.73158 0.56848 0.85081 0.0
C55 C 0.7281 0.55257 0.9201 0.0
C56 C 0.74051 0.56039 0.00196 0.0
C57 C 0.75668 0.58343 0.01282 0.0
C58 C 0.79315 0.67996 0.15551 0.0
C59 C 0.73758 0.65807 0.01995 0.0
O60 O 0.79768 0.73219 0.09937 0.0
O61 O 0.7776 0.73248 0.98146 0.0
O62 O 0.79001 0.68805 0.89417 0.0
O63 O 0.76648 0.69879 0.87134 0.0
O64 O 0.82129 0.71774 0.97881 0.0
O65 O 0.82029 0.6838 0.94471 0.0
O66 O 0.7807 0.63773 0.88941 0.0
O67 O 0.78456 0.63179 0.03261 0.0
O68 O 0.77869 0.67882 0.09807 0.0
O69 O 0.80381 0.67029 0.12045 0.0
O70 O 0.74915 0.64925 0.98192 0.0
O71 O 0.74835 0.67976 0.04738 0.0
H72 H 0.80518 0.76518 0.21817 0.0
H73 H 0.81067 0.80223 0.2648 0.0
H74 H 0.78683 0.81037 0.00036 0.0
H75 H 0.78057 0.77286 0.95562 0.0
H76 H 0.75037 0.60319 0.80596 0.0
H77 H 0.72207 0.56304 0.78738 0.0
H78 H 0.73842 0.54855 0.05625 0.0
H79 H 0.76657 0.58877 0.07539 0.0
Tb80 Tb 0.57773 0.07071 0.02064 0.0
Tb81 Tb 0.62082 0.11451 0.00086 0.0
C82 C 0.53956 0.03783 0.06886 0.0
C83 C 0.51683 1.01807 0.09544 0.0
C84 C 0.50747 1.01687 0.18228 0.0
C85 C 0.48611 0.99835 0.20679 0.0
C86 C 0.47323 0.9804 0.14505 0.0
C87 C 0.48277 0.98163 0.0582 0.0
C88 C 0.5042 1.0001 0.03397 0.0
C89 C 0.59384 0.07972 0.85175 0.0
C90 C 0.57754 0.11866 0.98024 0.0
C91 C 0.65954 0.14658 0.95668 0.0
C92 C 0.68322 0.15114 0.94575 0.0
C93 C 0.69065 0.14704 0.86204 0.0
C94 C 0.71363 0.15381 0.84874 0.0
C95 C 0.7297 0.16495 0.91862 0.0
C96 C 0.72214 0.16835 0.00328 0.0
C97 C 0.69917 0.16162 0.01656 0.0
C98 C 0.60414 0.10501 0.16952 0.0
C99 C 0.62432 0.07011 0.03433 0.0
O100 O 0.55065 0.05655 0.11703 0.0
O101 O 0.5501 0.03784 0.99419 0.0
O102 O 0.59387 0.09374 0.90854 0.0
O103 O 0.58352 0.05957 0.88816 0.0
O104 O 0.5657 0.09663 0.00553 0.0
O105 O 0.59958 0.12866 0.96539 0.0
O106 O 0.64433 0.1329 0.89764 0.0
O107 O 0.65148 0.1432 0.0398 0.0
O108 O 0.60453 0.09119 0.11289 0.0
O109 O 0.61401 0.12512 0.13277 0.0
O110 O 0.63314 0.09019 0.99383 0.0
O111 O 0.60281 0.05995 0.06384 0.0
H112 H 0.51672 0.03025 0.23178 0.0
H113 H 0.47985 0.99807 0.27497 0.0
H114 H 0.47352 0.96854 0.00775 0.0
H115 H 0.51078 1.0004 0.96632 0.0
H116 H 0.67885 0.13914 0.80584 0.0
H117 H 0.71888 0.15068 0.7831 0.0
H118 H 0.73411 0.17711 0.05814 0.0
H119 H 0.69405 0.16528 0.08148 0.0
Tb120 Tb 0.88334 1.01709 0.34995 0.0
Tb121 Tb 0.84026 1.01879 0.3282 0.0
C122 C 0.91388 1.00815 0.39925 0.0
C123 C 0.9185 0.98885 0.4011 0.0
C124 C 0.90644 0.96988 0.45888 0.0
C125 C 0.91289 0.95313 0.46648 0.0
C126 C 0.93155 0.95503 0.41668 0.0
C127 C 0.94295 0.97357 0.3563 0.0
C128 C 0.93657 0.9903 0.34903 0.0
C129 C 0.8743 0.02432 0.18003 0.0
C130 C 0.83782 0.97063 0.31429 0.0
C131 C 0.80793 0.02528 0.27893 0.0
C132 C 0.78842 0.02891 0.25208 0.0
C133 C 0.78745 0.03747 0.16537 0.0
C134 C 0.76896 0.04056 0.14023 0.0
C135 C 0.7508 0.03534 0.20114 0.0
C136 C 0.75186 0.02671 0.28796 0.0
C137 C 0.77029 0.02351 0.31282 0.0
C138 C 0.84916 1.01137 0.49777 0.0
C139 C 0.88907 0.06537 0.36847 0.0
O140 O 0.89813 1.00718 0.45396 0.0
O141 O 0.91338 1.01649 0.31899 0.0
O142 O 0.86014 1.01108 0.23802 0.0
O143 O 0.8945 0.03317 0.21552 0.0
O144 O 0.85808 0.9809 0.35343 0.0
O145 O 0.82829 0.98282 0.28577 0.0
O146 O 0.82669 0.03256 0.23119 0.0
O147 O 0.8077 1.01461 0.35403 0.0
O148 O 0.86321 0.02471 0.43978 0.0
O149 O 0.82894 1.00248 0.46235 0.0
O150 O 0.86724 0.0562 0.34119 0.0
O151 O 0.89809 0.05237 0.38639 0.0
H152 H 0.89242 0.96825 0.50014 0.0
H153 H 0.90382 0.93918 0.51406 0.0
H154 H 0.95708 0.97536 0.31543 0.0
H155 H 0.94618 1.00473 0.30407 0.0
H156 H 0.80094 0.04164 0.11636 0.0
H157 H 0.76886 0.0468 0.07212 0.0
H158 H 0.73862 0.02274 0.33787 0.0
H159 H 0.77037 1.0169 0.38031 0.0
Tb160 Tb 0.26521 0.85078 0.34067 0.0
Tb161 Tb 0.26692 0.80766 0.32588 0.0
C162 C 0.27148 0.88985 0.37869 0.0
C163 C 0.29037 0.91362 0.38809 0.0
C164 C 0.30387 0.92089 0.46753 0.0
C165 C 0.31987 0.94393 0.47992 0.0
C166 C 0.32267 0.96022 0.41333 0.0
C167 C 0.30973 0.95281 0.33256 0.0
C168 C 0.29368 0.92978 0.32031 0.0
C169 C 0.25752 0.83278 0.1742 0.0
C170 C 0.31311 0.85447 0.3081 0.0
C171 C 0.26111 0.76933 0.27639 0.0
C172 C 0.25784 0.74658 0.24758 0.0
C173 C 0.24059 0.73279 0.18532 0.0
C174 C 0.23726 0.71126 0.1596 0.0
C175 C 0.25118 0.7028 0.19475 0.0
C176 C 0.26849 0.71674 0.25708 0.0
C177 C 0.27172 0.73822 0.28317 0.0
C178 C 0.27488 0.82499 0.49312 0.0
C179 C 0.21911 0.80684 0.37831 0.0
O180 O 0.27 0.87501 0.4401 0.0
O181 O 0.26698 0.88124 0.2964 0.0
O182 O 0.27197 0.83373 0.23125 0.0
O183 O 0.24705 0.84262 0.2095 0.0
O184 O 0.30179 0.86331 0.34793 0.0
O185 O 0.30205 0.83286 0.27973 0.0
O186 O 0.25077 0.77925 0.237 0.0
O187 O 0.27483 0.78123 0.34292 0.0
O188 O 0.26083 0.82474 0.43558 0.0
O189 O 0.28393 0.81361 0.4591 0.0
O190 O 0.22938 0.7951 0.35217 0.0
O191 O 0.23066 0.82923 0.38465 0.0
H192 H 0.30173 0.90891 0.52132 0.0
H193 H 0.3298 0.94906 0.54239 0.0
H194 H 0.31128 0.96493 0.28039 0.0
H195 H 0.28336 0.92474 0.25883 0.0
H196 H 0.22943 0.73852 0.15696 0.0
H197 H 0.22344 0.70112 0.11295 0.0
H198 H 0.27987 0.71126 0.28506 0.0
H199 H 0.28523 0.74834 0.33113 0.0
Tb200 Tb 0.42951 0.39959 0.33669 0.0
Tb201 Tb 0.47309 0.44289 0.31408 0.0
C202 C 0.3909 0.36808 0.38507 0.0
C203 C 0.3667 0.36201 0.38176 0.0
C204 C 0.35893 0.37592 0.42073 0.0
C205 C 0.33555 0.3685 0.42406 0.0
C206 C 0.31957 0.34708 0.38845 0.0
C207 C 0.32756 0.3337 0.34627 0.0
C208 C 0.35084 0.34105 0.34339 0.0
C209 C 0.44524 0.40846 0.16633 0.0
C210 C 0.42691 0.44444 0.29952 0.0
C211 C 0.51137 0.47553 0.2655 0.0
C212 C 0.53417 0.4952 0.23914 0.0
C213 C 0.5433 0.49674 0.15151 0.0
C214 C 0.56462 0.51535 0.12703 0.0
C215 C 0.57768 0.53303 0.18957 0.0
C216 C 0.56841 0.53138 0.27735 0.0
C217 C 0.54703 0.51284 0.30154 0.0
C218 C 0.45726 0.43425 0.48386 0.0
C219 C 0.47249 0.3948 0.35656 0.0
O220 O 0.40455 0.38493 0.43835 0.0
O221 O 0.40037 0.3683 0.30713 0.0
O222 O 0.44576 0.42262 0.2234 0.0
O223 O 0.4347 0.38838 0.20309 0.0
O224 O 0.4174 0.42417 0.3387 0.0
O225 O 0.44846 0.4542 0.27065 0.0
O226 O 0.50001 0.45694 0.21678 0.0
O227 O 0.50106 0.47547 0.34093 0.0
O228 O 0.45698 0.42014 0.42706 0.0
O229 O 0.46772 0.45434 0.44695 0.0
O230 O 0.48442 0.4164 0.32643 0.0
O231 O 0.45076 0.38572 0.37693 0.0
H232 H 0.3708 0.39224 0.45066 0.0
H233 H 0.32999 0.37918 0.45752 0.0
H234 H 0.31578 0.31734 0.31647 0.0
H235 H 0.35645 0.33007 0.31274 0.0
H236 H 0.53387 0.48361 0.10132 0.0
H237 H 0.57069 0.51593 0.05823 0.0
H238 H 0.57781 0.54422 0.32847 0.0
H239 H 0.54066 0.51228 0.36981 0.0
Tb240 Tb 0.54844 0.28043 0.68064 0.0
Tb241 Tb 0.50163 0.23246 0.65026 0.0
C242 C 0.57645 0.32235 0.68141 0.0
C243 C 0.59427 0.34183 0.73335 0.0
C244 C 0.58822 0.35368 0.79601 0.0
C245 C 0.60459 0.37502 0.82887 0.0
C246 C 0.62735 0.38505 0.79961 0.0
C247 C 0.63366 0.37248 0.74196 0.0
C248 C 0.61727 0.35116 0.70878 0.0
C249 C 0.55022 0.24401 0.74912 0.0
C250 C 0.51286 0.25931 0.8375 0.0
C251 C 0.47361 0.19055 0.64873 0.0
C252 C 0.45571 0.17118 0.59665 0.0
C253 C 0.46161 0.16009 0.52987 0.0
C254 C 0.44535 0.13877 0.49647 0.0
C255 C 0.42285 0.12803 0.52924 0.0
C256 C 0.4166 0.13988 0.59106 0.0
C257 C 0.43289 0.16117 0.62479 0.0
C258 C 0.49977 0.26887 0.58246 0.0
C259 C 0.5373 0.25353 0.49345 0.0
O260 O 0.55539 0.31338 0.71077 0.0
O261 O 0.58122 0.30711 0.64807 0.0
O262 O 0.5346 0.24517 0.70652 0.0
O263 O 0.56671 0.26507 0.75428 0.0
O264 O 0.52876 0.27835 0.79928 0.0
O265 O 0.50229 0.23941 0.79486 0.0
O266 O 0.49462 0.19958 0.61859 0.0
O267 O 0.46891 0.20571 0.68332 0.0
O268 O 0.51552 0.2677 0.62388 0.0
O269 O 0.48323 0.24784 0.57803 0.0
O270 O 0.52125 0.23453 0.53141 0.0
O271 O 0.54796 0.27341 0.53617 0.0
H272 H 0.57061 0.34713 0.8157 0.0
H273 H 0.59905 0.38426 0.87251 0.0
H274 H 0.65114 0.37953 0.71942 0.0
H275 H 0.62244 0.34256 0.66006 0.0
H276 H 0.47909 0.16719 0.50721 0.0
H277 H 0.45083 0.13009 0.44949 0.0
H278 H 0.3993 0.13227 0.61638 0.0
H279 H 0.42786 0.1692 0.67664 0.0
Tb280 Tb 1.00118 0.25556 0.67817 0.0
Tb281 Tb 0.04994 0.25778 0.65321 0.0
C282 C 0.95908 0.24091 0.67668 0.0
C283 C 0.93966 0.23907 0.72977 0.0
C284 C 0.92786 0.22082 0.79099 0.0
C285 C 0.90677 0.21608 0.82616 0.0
C286 C 0.89694 0.22943 0.80063 0.0
C287 C 0.90945 0.24857 0.7442 0.0
C288 C 0.93052 0.25327 0.70873 0.0
C289 C 0.03655 0.29411 0.74613 0.0
C290 C 1.02231 0.24157 0.83872 0.0
C291 C 0.092 0.27226 0.65587 0.0
C292 C 0.11145 0.27418 0.60322 0.0
C293 C 0.11851 0.28673 0.52128 0.0
C294 C 0.13947 0.29212 0.48225 0.0
C295 C 0.1537 0.28502 0.5242 0.0
C296 C 0.146 0.27141 0.60331 0.0
C297 C 0.12512 0.26613 0.64252 0.0
C298 C 1.01448 0.21927 0.58488 0.0
C299 C 1.02885 0.27183 0.49279 0.0
O300 O 0.96847 0.22902 0.70585 0.0
O301 O 0.974 0.26098 0.64351 0.0
O302 O 0.03614 0.27729 0.70756 0.0
O303 O 1.01533 0.28925 0.74781 0.0
O304 O 1.00334 0.23857 0.79955 0.0
O305 O 0.04233 0.25092 0.79709 0.0
O306 O 0.08275 0.28432 0.62724 0.0
O307 O 0.07698 0.25205 0.68744 0.0
O308 O 1.01496 0.23604 0.62408 0.0
O309 O 0.03571 0.22414 0.58277 0.0
O310 O 0.04784 0.27488 0.53206 0.0
O311 O 1.0088 0.26239 0.53427 0.0
H312 H 0.93426 0.20937 0.80794 0.0
H313 H 0.89754 0.20108 0.86868 0.0
H314 H 0.90252 0.25943 0.7245 0.0
H315 H 0.9391 0.26734 0.66124 0.0
H316 H 0.10833 0.29319 0.48928 0.0
H317 H 0.14481 0.30237 0.42057 0.0
H318 H 0.15664 0.26587 0.63787 0.0
H319 H 0.12019 0.25667 0.70622 0.0
Tb320 Tb 1.01967 0.73259 0.67912 0.0
Tb321 Tb 1.03098 0.77954 0.65596 0.0
C322 C 1.01805 0.69498 0.71056 0.0
C323 C 1.03251 0.68593 0.74585 0.0
C324 C 0.05571 0.69591 0.72296 0.0
C325 C 0.06831 0.68541 0.74913 0.0
C326 C 0.05799 0.66484 0.79905 0.0
C327 C 0.03499 0.65543 0.82455 0.0
C328 C 1.0224 0.66585 0.79804 0.0
C329 C 0.98357 0.73857 0.70164 0.0
C330 C 0.04201 0.76627 0.83996 0.0
C331 C 1.03235 0.81703 0.62494 0.0
C332 C 1.01817 0.82638 0.58821 0.0
C333 C 0.99812 0.82264 0.6323 0.0
C334 C 0.98696 0.83449 0.60447 0.0
C335 C 0.99564 0.85033 0.53218 0.0
C336 C 1.015 0.85308 0.48527 0.0
C337 C 1.02617 0.84131 0.51323 0.0
C338 C 0.06719 0.77368 0.6345 0.0
C339 C 1.00881 0.7459 0.49495 0.0
O340 O 1.02388 0.70565 0.63223 0.0
O341 O 1.01141 0.70508 0.76889 0.0
O342 O 1.0037 0.75167 0.72854 0.0
O343 O 0.98319 0.72113 0.66381 0.0
O344 O 0.04219 0.7496 0.79429 0.0
O345 O 0.0351 0.77932 0.80084 0.0
O346 O 1.02621 0.80614 0.70277 0.0
O347 O 0.03961 0.80732 0.56734 0.0
O348 O 0.04711 0.76054 0.60678 0.0
O349 O 0.06739 0.79105 0.67227 0.0
O350 O 1.00853 0.76252 0.54066 0.0
O351 O 1.01571 0.73286 0.53416 0.0
H352 H 0.06394 0.7115 0.68308 0.0
H353 H 0.08607 0.69327 0.72944 0.0
H354 H 1.02641 0.63949 0.86199 0.0
H355 H 1.00452 0.65784 0.81607 0.0
H356 H 0.99149 0.81124 0.69045 0.0
H357 H 0.97218 0.83204 0.64248 0.0
H358 H 1.02189 0.86479 0.42815 0.0
H359 H 0.04158 0.84451 0.4781 0.0
H360 H 0.16142 0.47739 0.7418 0.0
H361 H 0.21748 0.51366 0.24193 0.0
H362 H 0.23291 0.52377 0.69578 0.0
H363 H 0.1459 0.4676 0.28747 0.0
H364 H 0.22352 0.51741 0.40769 0.0
H365 H 0.15525 0.47393 0.57599 0.0
C366 C 0.17579 0.48697 0.6968 0.0
C367 C 0.19772 0.50087 0.73276 0.0
C368 C 0.20649 0.50642 0.38157 0.0
C369 C 0.19085 0.49683 0.5425 0.0
C370 C 0.20305 0.50422 0.28683 0.0
C371 C 0.18114 0.4903 0.25071 0.0
C372 C 0.18788 0.49462 0.44101 0.0
C373 C 0.16308 0.47851 0.31226 0.0
C374 C 0.17228 0.48492 0.60205 0.0
C375 C 0.21572 0.51283 0.67111 0.0
N376 N 0.16683 0.48097 0.40413 0.0
N377 N 0.21191 0.51049 0.57928 0.0
H378 H 0.80127 0.67239 0.74727 0.0
H379 H 0.76577 0.69291 0.24499 0.0
H380 H 0.75377 0.69653 0.6985 0.0
H381 H 0.8159 0.67215 0.29418 0.0
H382 H 0.76078 0.69391 0.41043 0.0
H383 H 0.80596 0.671 0.58182 0.0
C384 C 0.79174 0.67729 0.70173 0.0
C385 C 0.77723 0.68474 0.73693 0.0
C386 C 0.77293 0.68921 0.38518 0.0
C387 C 0.78253 0.68325 0.54689 0.0
C388 C 0.77585 0.68872 0.29063 0.0
C389 C 0.79129 0.68245 0.25557 0.0
C390 C 0.7855 0.68332 0.44555 0.0
C391 C 0.80384 0.67713 0.31808 0.0
C392 C 0.79446 0.67655 0.60716 0.0
C393 C 0.76519 0.69074 0.67451 0.0
N394 N 0.80062 0.6776 0.40974 0.0
N395 N 0.76816 0.68994 0.58282 0.0
H396 H 0.58807 0.04904 0.71858 0.0
H397 H 0.61036 0.1358 0.30287 0.0
H398 H 0.60594 0.1193 0.75626 0.0
H399 H 0.59249 0.06554 0.26503 0.0
H400 H 0.60872 0.13007 0.46855 0.0
H401 H 0.59015 0.05487 0.55289 0.0
C402 C 0.59257 0.06576 0.69196 0.0
C403 C 0.59679 0.0837 0.75149 0.0
C404 C 0.60509 0.11586 0.42421 0.0
C405 C 0.59905 0.09049 0.56116 0.0
C406 C 0.60594 0.1191 0.32946 0.0
C407 C 0.60156 0.10112 0.26988 0.0
C408 C 0.59979 0.09444 0.46021 0.0
C409 C 0.59597 0.07987 0.30835 0.0
C410 C 0.59369 0.06906 0.5972 0.0
C411 C 0.60256 0.10499 0.71299 0.0
N412 N 0.5953 0.07714 0.40089 0.0
N413 N 0.60344 0.10777 0.62046 0.0
H414 H 0.88973 0.03643 0.58895 0.0
H415 H 0.83376 0.99918 0.08873 0.0
H416 H 0.81847 0.989 0.63449 0.0
H417 H 0.90513 0.04613 0.04315 0.0
H418 H 0.82773 0.99539 0.92288 0.0
H419 H 0.89584 0.03987 0.75479 0.0
C420 C 0.87539 0.02662 0.63385 0.0
C421 C 0.85355 1.01243 0.59774 0.0
C422 C 0.84471 1.00657 0.94904 0.0
C423 C 0.86034 1.01643 0.78807 0.0
C424 C 0.84813 1.0088 0.04381 0.0
C425 C 0.86999 0.02299 0.07993 0.0
C426 C 0.86327 1.01862 0.8896 0.0
C427 C 0.888 0.035 0.01837 0.0
C428 C 0.87886 0.02865 0.72863 0.0
C429 C 0.8356 1.00016 0.65928 0.0
N430 N 0.88426 0.03252 0.92651 0.0
N431 N 0.83937 1.00249 0.75115 0.0
H432 H 0.24908 0.83996 0.58233 0.0
H433 H 0.28463 0.81957 0.08458 0.0
H434 H 0.29713 0.81654 0.63166 0.0
H435 H 0.23485 0.8408 0.0357 0.0
H436 H 0.2896 0.81857 0.91922 0.0
H437 H 0.24434 0.84137 0.74775 0.0
C438 C 0.25873 0.83524 0.62799 0.0
C439 C 0.27342 0.828 0.59299 0.0
C440 C 0.27752 0.82338 0.94449 0.0
C441 C 0.26804 0.82947 0.78292 0.0
C442 C 0.27461 0.82386 0.03901 0.0
C443 C 0.25928 0.83026 0.07414 0.0
C444 C 0.26505 0.82939 0.8842 0.0
C445 C 0.24682 0.83572 0.01172 0.0
C446 C 0.25598 0.83598 0.72253 0.0
C447 C 0.28558 0.82218 0.65552 0.0
N448 N 0.25002 0.83523 0.92004 0.0
N449 N 0.28256 0.82296 0.74715 0.0
H450 H 0.46393 0.46522 0.61724 0.0
H451 H 0.43783 0.37736 0.03261 0.0
H452 H 0.44395 0.39442 0.57928 0.0
H453 H 0.4584 0.4483 0.07099 0.0
H454 H 0.43995 0.38327 0.86697 0.0
H455 H 0.4614 0.45926 0.78294 0.0
C456 C 0.45888 0.44837 0.64379 0.0
C457 C 0.4542 0.4303 0.58417 0.0
C458 C 0.44407 0.39759 0.91141 0.0
C459 C 0.45139 0.42335 0.77454 0.0
C460 C 0.44292 0.39424 0.00616 0.0
C461 C 0.44794 0.41236 0.06591 0.0
C462 C 0.45029 0.41926 0.87554 0.0
C463 C 0.45441 0.43385 0.02757 0.0
C464 C 0.4575 0.44499 0.73856 0.0
C465 C 0.44773 0.40884 0.6226 0.0
N466 N 0.45534 0.43668 0.93502 0.0
N467 N 0.44658 0.40598 0.71513 0.0
H468 H 0.51875 0.21691 0.37858 0.0
H469 H 0.53155 0.29592 0.9524 0.0
H470 H 0.5588 0.29058 0.38144 0.0
H471 H 0.4915 0.22225 0.94959 0.0
H472 H 0.54012 0.29436 0.1128 0.0
H473 H 0.51031 0.21847 0.21802 0.0
C474 C 0.52621 0.23339 0.34496 0.0
C475 C 0.53894 0.25368 0.3939 0.0
C476 C 0.52928 0.27856 0.0772 0.0
C477 C 0.52889 0.25557 0.2117 0.0
C478 C 0.52412 0.27944 0.98599 0.0
C479 C 0.51135 0.25915 0.9371 0.0
C480 C 0.52154 0.25726 0.11913 0.0
C481 C 0.50179 0.23832 0.98429 0.0
C482 C 0.52112 0.23427 0.25366 0.0
C483 C 0.54855 0.27451 0.34669 0.0
N484 N 0.50744 0.23789 0.07268 0.0
N485 N 0.54295 0.27494 0.25821 0.0
H486 H 0.06557 0.28809 0.3787 0.0
H487 H 0.98564 0.2253 0.95303 0.0
H488 H 0.99224 0.25867 0.3798 0.0
H489 H 0.05899 0.25494 0.95151 0.0
H490 H 0.98756 0.23554 0.11295 0.0
H491 H 0.06367 0.27794 0.21867 0.0
C492 C 0.04912 0.27997 0.34483 0.0
C493 C 1.02894 0.27352 0.39323 0.0
C494 C 1.00321 0.23962 0.07772 0.0
C495 C 1.02665 0.26141 0.21168 0.0
C496 C 1.0021 0.23349 0.98679 0.0
C497 C 1.02227 0.23996 0.9383 0.0
C498 C 1.02459 0.25217 0.11973 0.0
C499 C 0.04305 0.25008 0.98582 0.0
C500 C 0.04803 0.2739 0.25384 0.0
C501 C 1.00818 0.2635 0.34558 0.0
N502 N 0.04373 0.2563 0.07388 0.0
N503 N 1.00752 0.25732 0.25745 0.0
H504 H 1.00591 0.77719 0.38515 0.0
H505 H 0.04515 0.73514 0.94988 0.0
H506 H 1.01009 0.71531 0.37823 0.0
H507 H 0.04084 0.79695 0.95653 0.0
H508 H 0.03431 0.72867 0.11014 0.0
H509 H 1.01687 0.78374 0.22504 0.0
C510 C 1.00855 0.76467 0.34937 0.0
C511 C 1.00762 0.74596 0.39527 0.0
C512 C 0.03596 0.74377 0.07669 0.0
C513 C 1.0208 0.75371 0.21379 0.0
C514 C 0.0425 0.74766 0.98563 0.0
C515 C 0.04334 0.76632 0.93961 0.0
C516 C 1.03032 0.75868 0.12126 0.0
C517 C 0.03995 0.7821 0.98925 0.0
C518 C 1.01517 0.76861 0.25839 0.0
C519 C 1.01104 0.73019 0.3456 0.0
N520 N 1.03319 0.77771 0.07736 0.0
N521 N 1.01787 0.73463 0.25757 0.0
H522 H 0.39087 0.43893 0.40079 0.0
H523 H 0.33747 0.4846 0.01941 0.0
H524 H 0.42654 0.47053 0.15169 0.0
H525 H 0.31057 0.46517 0.29231 0.0
H526 H 0.36977 0.47957 0.0635 0.0
H527 H 0.36153 0.44853 0.36025 0.0
C528 C 0.39275 0.44824 0.33794 0.0
C529 C 0.41145 0.45405 0.28009 0.0
C530 C 0.35683 0.47649 0.11377 0.0
C531 C 0.37714 0.46475 0.23149 0.0
C532 C 0.33829 0.47946 0.08883 0.0
C533 C 0.32084 0.47532 0.1518 0.0
C534 C 0.35815 0.46914 0.20249 0.0
C535 C 0.32307 0.46822 0.24017 0.0
C536 C 0.37585 0.45366 0.31459 0.0
C537 C 0.41269 0.46598 0.19918 0.0
N538 N 0.34116 0.46532 0.26239 0.0
N539 N 0.39568 0.4707 0.17686 0.0
H540 H 0.83319 0.84128 0.24962 0.0
H541 H 0.80388 0.94267 0.18946 0.0
H542 H 0.77605 0.83273 0.08639 0.0
H543 H 0.85043 0.94153 0.38958 0.0
H544 H 0.79327 0.90321 0.14625 0.0
H545 H 0.83999 0.87874 0.29541 0.0
C546 C 0.82183 0.84703 0.22381 0.0
C547 C 0.8038 0.83328 0.16423 0.0
C548 C 0.80566 0.91161 0.20015 0.0
C549 C 0.81201 0.87723 0.21587 0.0
C550 C 0.81161 0.93412 0.22529 0.0
C551 C 0.82815 0.94569 0.29336 0.0
C552 C 0.81641 0.90062 0.24295 0.0
C553 C 0.83772 0.93362 0.33637 0.0
C554 C 0.82587 0.8687 0.24978 0.0
C555 C 0.79031 0.84252 0.13162 0.0
N556 N 0.83187 0.91207 0.31019 0.0
N557 N 0.79468 0.8638 0.15763 0.0
H558 H 0.44067 0.98108 0.25711 0.0
H559 H 0.34294 0.85004 0.18798 0.0
H560 H 0.45172 0.93471 0.0912 0.0
H561 H 0.34008 0.89654 0.38175 0.0
H562 H 0.38221 0.87978 0.14841 0.0
H563 H 0.40338 0.94975 0.299 0.0
C564 C 0.4355 0.96432 0.22989 0.0
C565 C 0.44989 0.96087 0.17065 0.0
C566 C 0.37297 0.88332 0.20005 0.0
C567 C 0.40614 0.92433 0.21784 0.0
C568 C 0.35056 0.86627 0.22308 0.0
C569 C 0.33792 0.8706 0.28839 0.0
C570 C 0.38282 0.90493 0.24232 0.0
C571 C 0.34883 0.89219 0.33065 0.0
C572 C 0.41393 0.94631 0.25359 0.0
C573 C 0.44141 0.93854 0.13624 0.0
N574 N 0.37033 0.90836 0.30669 0.0
N575 N 0.42022 0.92124 0.16013 0.0
H576 H 0.59385 0.1611 0.04569 0.0
H577 H 0.51673 0.19782 0.7493 0.0
H578 H 0.53951 0.11179 0.87682 0.0
H579 H 0.58488 0.24371 0.84312 0.0
H580 H 0.5199 0.16546 0.81206 0.0
H581 H 0.5851 0.19031 0.9946 0.0
C582 C 0.5796 0.15624 -0.00055 0.0
C583 C 0.56731 0.13377 0.96646 0.0
C584 C 0.53414 0.18262 0.81863 0.0
C585 C 0.55743 0.1678 0.90475 0.0
C586 C 0.53238 0.20114 0.78218 0.0
C587 C 0.55069 0.22364 0.78895 0.0
C588 C 0.5542 0.18665 0.86433 0.0
C589 C 0.57032 0.22678 0.83531 0.0
C590 C 0.57477 0.17309 0.96935 0.0
C591 C 0.5492 0.12873 0.9055 0.0
N592 N 0.57149 0.20868 0.87102 0.0
N593 N 0.54491 0.14564 0.87604 0.0
H594 H 0.03529 0.33052 0.8159 0.0
H595 H 0.16978 0.41444 0.89034 0.0
H596 H 0.0829 0.30697 0.76338 0.0
H597 H 0.11626 0.42517 0.99504 0.0
H598 H 0.14032 0.3757 0.84076 0.0
H599 H 0.06627 0.36597 0.87568 0.0
C600 C 0.05234 0.33279 0.81651 0.0
C601 C 0.05635 0.31564 0.78287 0.0
C602 C 0.13515 0.38651 0.87567 0.0
C603 C 0.09263 0.35694 0.85241 0.0
C604 C 0.152 0.40856 0.90476 0.0
C605 C 0.14561 0.42328 0.94694 0.0
C606 C 0.11179 0.37922 0.88853 0.0
C607 C 0.12218 0.4147 0.96228 0.0
C608 C 0.07017 0.35318 0.85108 0.0
C609 C 0.07899 0.31981 0.78634 0.0
N610 N 0.10637 0.3936 0.93274 0.0
N611 N 0.09628 0.34004 0.81989 0.0
H612 H 0.97869 0.76436 0.83888 0.0
H613 H 0.84206 0.69842 0.78424 0.0
H614 H 0.94004 0.7115 0.64302 0.0
H615 H 0.87438 0.73811 0.02454 0.0
H616 H 0.87925 0.70901 0.72131 0.0
H617 H 0.94258 0.7603 0.89846 0.0
C618 C 0.96268 0.75208 0.80782 0.0
C619 C 0.96246 0.73819 0.73577 0.0
C620 C 0.87846 0.71574 0.78736 0.0
C621 C 0.92109 0.73356 0.80333 0.0
C622 C 0.85709 0.70982 0.82322 0.0
C623 C 0.85492 0.71745 0.90976 0.0
C624 C 0.89832 0.72942 0.83807 0.0
C625 C 0.87518 0.73205 0.95708 0.0
C626 C 0.94207 0.74972 0.84215 0.0
C627 C 0.94116 0.72254 0.69865 0.0
N628 N 0.89604 0.73743 0.921 0.0
N629 N 0.92156 0.7207 0.73257 0.0
H630 H 0.05728 0.64243 0.95741 0.0
H631 H 0.13212 0.59101 0.75148 0.0
H632 H 0.08731 0.65875 0.68864 0.0
H633 H 0.10163 0.57426 0.01937 0.0
H634 H 0.118 0.61786 0.73118 0.0
H635 H 0.07553 0.61942 0.98539 0.0
C636 C 0.06777 0.64124 0.90433 0.0
C637 C 0.07064 0.65248 0.82031 0.0
C638 C 0.11451 0.60842 0.79466 0.0
C639 C 0.09169 0.62616 0.85206 0.0
C640 C 0.12249 0.593 0.80615 0.0
C641 C 0.11797 0.58024 0.88711 0.0
C642 C 0.10178 0.61107 0.86441 0.0
C643 C 0.10572 0.58385 0.95615 0.0
C644 C 0.07826 0.62815 0.9205 0.0
C645 C 0.08475 0.65059 0.75472 0.0
N646 N 0.09793 0.59879 0.94298 0.0
N647 N 0.0946 0.63756 0.77174 0.0
H648 H 0.69772 0.52046 0.03997 0.0
H649 H 0.65887 0.41754 0.68596 0.0
H650 H 0.72376 0.52809 0.76567 0.0
H651 H 0.63275 0.40823 0.96087 0.0
H652 H 0.68345 0.45795 0.71667 0.0
H653 H 0.67398 0.47936 0.01412 0.0
C654 C 0.69845 0.5135 0.97437 0.0
C655 C 0.71272 0.52777 0.90479 0.0
C656 C 0.67245 0.44709 0.77059 0.0
C657 C 0.68563 0.48079 0.87479 0.0
C658 C 0.65854 0.42389 0.75341 0.0
C659 C 0.64374 0.40934 0.82106 0.0
C660 C 0.67159 0.45599 0.85606 0.0
C661 C 0.64373 0.41881 0.90638 0.0
C662 C 0.68487 0.49005 0.95961 0.0
C663 C 0.71279 0.51784 0.82083 0.0
N664 N 0.65739 0.44154 0.92138 0.0
N665 N 0.69952 0.49501 0.80833 0.0
H666 H 0.87451 0.21108 0.96263 0.0
H667 H 0.75374 0.18705 0.76578 0.0
H668 H 0.86423 0.22998 0.6917 0.0
H669 H 0.76207 0.16467 0.03273 0.0
H670 H 0.79454 0.20371 0.7399 0.0
H671 H 0.8338 0.19533 0.99306 0.0
C672 C 0.86375 0.21204 0.90975 0.0
C673 C 0.87287 0.22192 0.82449 0.0
C674 C 0.78748 0.19512 0.80415 0.0
C675 C 0.82629 0.20393 0.85885 0.0
C676 C 0.76412 0.18541 0.81866 0.0
C677 C 0.75442 0.17432 0.90138 0.0
C678 C 0.80138 0.19379 0.87282 0.0
C679 C 0.76885 0.17322 0.96821 0.0
C680 C 0.84052 0.20307 0.92721 0.0
C681 C 0.85812 0.22289 0.75892 0.0
N682 N 0.79162 0.18282 0.95245 0.0
N683 N 0.8356 0.21394 0.77737 0.0
H684 H 0.62007 0.03584 0.15542 0.0
H685 H 0.75133 0.06867 0.0884 0.0
H686 H 0.66632 0.08482 0.96016 0.0
H687 H 0.70503 1.01119 0.25364 0.0
H688 H 0.71987 0.07474 0.04543 0.0
H689 H 0.64993 0.02616 0.19567 0.0
C690 C 0.63626 0.04433 0.12011 0.0
C691 C 0.64048 0.06124 0.05418 0.0
C692 C 0.71648 0.06072 0.09093 0.0
C693 C 0.67498 0.05051 0.10115 0.0
C694 C 0.73457 0.0571 0.11527 0.0
C695 C 0.73119 0.03922 0.17472 0.0
C696 C 0.69448 0.04654 0.12622 0.0
C697 C 0.70883 0.02538 0.20856 0.0
C698 C 0.65339 0.0389 0.14354 0.0
C699 C 0.66205 0.07177 0.01171 0.0
N700 N 0.69146 0.02933 0.18407 0.0
N701 N 0.67829 0.06637 0.03614 0.0
H702 H 0.23673 0.6811 0.02779 0.0
H703 H 0.24099 0.56732 0.16507 0.0
H704 H 0.25779 0.67133 0.29524 0.0
H705 H 0.20896 0.57467 0.92177 0.0
H706 H 0.2516 0.60673 0.20819 0.0
H707 H 0.23018 0.64354 0.98365 0.0
C708 C 0.23988 0.67112 0.07785 0.0
C709 C 0.2477 0.67973 0.16614 0.0
C710 C 0.24246 0.59975 0.1449 0.0
C711 C 0.24058 0.63619 0.11431 0.0
C712 C 0.23661 0.57732 0.11977 0.0
C713 C 0.22412 0.56757 0.03933 0.0
C714 C 0.23597 0.61266 0.08882 0.0
C715 C 0.21857 0.58133 0.98438 0.0
C716 C 0.23628 0.64958 0.05206 0.0
C717 C 0.25199 0.66581 0.22618 0.0
N718 N 0.22446 0.60295 0.01004 0.0
N719 N 0.24836 0.64485 0.19935 0.0
H720 H 0.71086 0.61654 0.94195 0.0
H721 H 0.59895 0.57836 0.2473 0.0
H722 H 0.70741 0.66162 0.14128 0.0
H723 H 0.61005 0.53338 0.07275 0.0
H724 H 0.63679 0.6097 0.20524 0.0
H725 H 0.67242 0.58748 0.98184 0.0
C726 C 0.70199 0.62052 0.99386 0.0
C727 C 0.71274 0.64182 0.03826 0.0
C728 C 0.63088 0.59297 0.17607 0.0
C729 C 0.66787 0.60781 0.08545 0.0
C730 C 0.60922 0.57489 0.2005 0.0
C731 C 0.60085 0.55281 0.1638 0.0
C732 C 0.64448 0.58921 0.11388 0.0
C733 C 0.61518 0.54992 0.1021 0.0
C734 C 0.67987 0.6037 0.01691 0.0
C735 C 0.69994 0.64562 0.10466 0.0
N736 N 0.63604 0.56774 0.07944 0.0
N737 N 0.67828 0.62878 0.12653 0.0
H738 H 1.01839 0.8958 0.4902 0.0
H739 H 0.90674 0.90832 0.44206 0.0
H740 H 0.95031 0.83904 0.5261 0.0
H741 H 0.97584 0.96433 0.42585 0.0
H742 H 0.92169 0.8822 0.46821 0.0
H743 H 1.00244 0.9205 0.45918 0.0
C744 C 1.00003 0.88842 0.49049 0.0
C745 C 0.9857 0.8652 0.51019 0.0
C746 C 0.93353 0.90021 0.45861 0.0
C747 C 0.9672 0.89371 0.47624 0.0
C748 C 0.92502 0.91515 0.44407 0.0
C749 C 0.94003 0.93861 0.43105 0.0
C750 C 0.95722 0.90877 0.4603 0.0
C751 C 0.96356 0.94639 0.43359 0.0
C752 C 0.99091 0.90264 0.47351 0.0
C753 C 0.96203 0.85685 0.51182 0.0
N754 N 0.97137 0.93156 0.44786 0.0
N755 N 0.95352 0.87109 0.49502 0.0
H756 H 0.41653 0.10592 0.36462 0.0
H757 H 0.3278 0.98356 0.57188 0.0
H758 H 0.39297 0.09448 0.64381 0.0
H759 H 0.35185 0.99334 0.2937 0.0
H760 H 0.35148 0.0244 0.59802 0.0
H761 H 0.39243 0.06506 0.3351 0.0
C762 C 0.40623 0.09487 0.41957 0.0
C763 C 0.40677 0.10373 0.5068 0.0
C764 C 0.35166 1.01765 0.53124 0.0
C765 C 0.37916 0.05695 0.47347 0.0
C766 C 0.33827 0.99427 0.51649 0.0
C767 C 0.33789 0.98496 0.43054 0.0
C768 C 0.36485 0.03197 0.45959 0.0
C769 C 0.35146 0.9998 0.36081 0.0
C770 C 0.39245 0.07155 0.40262 0.0
C771 C 0.39287 0.08858 0.57509 0.0
N772 N 0.3644 0.02258 0.37686 0.0
N773 N 0.37974 0.06599 0.55703 0.0
H774 H 0.17635 0.26088 0.50778 0.0
H775 H 0.29552 0.37013 0.37268 0.0
H776 H 0.18478 0.32799 0.46562 0.0
H777 H 0.28681 0.30346 0.43077 0.0
H778 H 0.25458 0.35474 0.39651 0.0
H779 H 0.21633 0.27577 0.4676 0.0
C780 C 0.18659 0.27873 0.48961 0.0
C781 C 0.17722 0.29321 0.49045 0.0
C782 C 0.26165 0.34348 0.40347 0.0
C783 C 0.22307 0.31045 0.44444 0.0
C784 C 0.28503 0.35228 0.39037 0.0
C785 C 0.29466 0.33807 0.39944 0.0
C786 C 0.24779 0.32032 0.42602 0.0
C787 C 0.28015 0.315 0.42146 0.0
C788 C 0.20942 0.28723 0.46652 0.0
C789 C 0.19122 0.31614 0.46504 0.0
N790 N 0.25752 0.3069 0.43418 0.0
N791 N 0.21349 0.32409 0.4437 0.0
H792 H 0.5338 0.31487 0.57582 0.0
H793 H 0.45368 0.35141 0.29949 0.0
H794 H 0.46423 0.26934 0.49703 0.0
H795 H 0.51193 0.4016 0.44937 0.0
H796 H 0.46232 0.32205 0.34918 0.0
H797 H 0.53043 0.34723 0.51405 0.0
C798 C 0.51779 0.31164 0.54661 0.0
C799 C 0.49916 0.28925 0.5437 0.0
C800 C 0.4735 0.33947 0.37061 0.0
C801 C 0.49538 0.32619 0.4694 0.0
C802 C 0.46871 0.35639 0.34129 0.0
C803 C 0.48216 0.37917 0.36939 0.0
C804 C 0.49197 0.34499 0.4296 0.0
C805 C 0.50128 0.38439 0.42462 0.0
C806 C 0.51592 0.33014 0.51063 0.0
C807 C 0.47906 0.28619 0.50177 0.0
N808 N 0.50552 0.36741 0.45353 0.0
N809 N 0.47776 0.30426 0.46652 0.0
H810 H 0.88089 0.09897 0.44457 0.0
H811 H 1.01557 0.18303 0.51182 0.0
H812 H 0.93399 0.08885 0.33094 0.0
H813 H 0.96812 0.20647 0.56972 0.0
H814 H 0.98441 0.14772 0.45163 0.0
H815 H 0.91048 0.1377 0.49375 0.0
C816 C 0.89859 0.10501 0.42793 0.0
C817 C 0.90484 0.09047 0.38329 0.0
C818 C 0.98059 0.16046 0.47751 0.0
C819 C 0.93884 0.13449 0.44152 0.0
C820 C 0.99852 0.18076 0.51231 0.0
C821 C 0.99461 0.19784 0.54761 0.0
C822 C 0.95813 0.1567 0.47769 0.0
C823 C 0.97197 0.19369 0.54549 0.0
C824 C 0.91552 0.12705 0.45686 0.0
C825 C 0.92819 0.09922 0.36542 0.0
N826 N 0.95458 0.17354 0.51178 0.0
N827 N 0.9441 0.12029 0.39496 0.0
H828 H 0.11013 0.80092 0.69653 0.0
H829 H 0.17701 0.77157 0.31329 0.0
H830 H 0.07329 0.74861 0.49646 0.0
H831 H 0.20786 0.81806 0.53792 0.0
H832 H 0.1389 0.76043 0.37787 0.0
H833 H 0.14579 0.80535 0.63854 0.0
C834 C 0.10952 0.7902 0.64047 0.0
C835 C 0.08856 0.77442 0.60151 0.0
C836 C 0.15409 0.77284 0.41341 0.0
C837 C 0.13 0.77956 0.53266 0.0
C838 C 0.17585 0.77904 0.37694 0.0
C839 C 0.19579 0.79581 0.42014 0.0
C840 C 0.15235 0.78351 0.49347 0.0
C841 C 0.19311 0.80515 0.50173 0.0
C842 C 0.13002 0.79274 0.60702 0.0
C843 C 0.08903 0.76099 0.52883 0.0
N844 N 0.17207 0.79903 0.53486 0.0
N845 N 0.1094 0.76399 0.49622 0.0
loop_
_geom_bond_atom_site_label_1
_geom_bond_atom_site_label_2
_geom_bond_distance
_geom_bond_site_symmetry_2
_ccdc_geom_bond_type
Tb0 C2 2.809 . S
Tb0 O20 2.484 . S
Tb0 O21 2.440 . S
Tb0 O22 2.658 . S
Tb0 O23 2.409 1_554 S
Tb0 O24 2.378 . S
Tb0 O28 2.325 . S
Tb0 O31 2.341 . S
Tb1 C11 2.809 . S
Tb1 O22 2.325 . S
Tb1 O25 2.341 . S
Tb1 O26 2.484 . S
Tb1 O27 2.440 . S
Tb1 O28 2.658 . S
Tb1 O29 2.409 . S
Tb1 O30 2.378 . S
C2 Tb0 2.809 . S
C2 C3 1.514 . S
C2 O20 1.248 . S
C2 O21 1.266 . S
C3 C2 1.514 . S
C3 C4 1.359 . S
C3 C8 1.348 . S
C4 C3 1.359 . S
C4 C5 1.380 . S
C4 H32 0.929 . S
C5 C4 1.380 . S
C5 C6 1.347 . S
C5 H33 0.931 . S
C6 C5 1.347 . S
C6 C7 1.369 . S
C7 C6 1.369 . S
C7 C8 1.408 . S
C7 H34 0.930 . S
C8 C3 1.348 . S
C8 C7 1.408 . S
C8 H35 0.930 . S
C9 O22 1.281 1_556 S
C9 O23 1.254 . S
C10 O24 1.236 . S
C10 O25 1.266 . S
C11 Tb1 2.809 . S
C11 C12 1.514 . S
C11 O26 1.248 . S
C11 O27 1.266 . S
C12 C11 1.514 . S
C12 C13 1.359 . S
C12 C17 1.348 . S
C13 C12 1.359 . S
C13 C14 1.380 1_554 S
C13 H36 0.929 1_554 S
C14 C13 1.380 1_556 S
C14 C15 1.347 1_556 S
C14 H37 0.931 . S
C15 C14 1.347 1_554 S
C15 C16 1.369 . S
C16 C15 1.369 . S
C16 C17 1.408 . S
C16 H38 0.930 . S
C17 C12 1.348 . S
C17 C16 1.408 . S
C17 H39 0.930 . S
C18 O28 1.281 . S
C18 O29 1.254 . S
C19 O30 1.236 . S
C19 O31 1.266 . S
O20 Tb0 2.484 . S
O20 C2 1.248 . S
O21 Tb0 2.440 . S
O21 C2 1.266 . S
O22 Tb0 2.658 . S
O22 Tb1 2.325 . S
O22 C9 1.281 1_554 S
O23 Tb0 2.409 1_556 S
O23 C9 1.254 . S
O24 Tb0 2.378 . S
O24 C10 1.236 . S
O25 Tb1 2.341 . S
O25 C10 1.266 . S
O26 Tb1 2.484 . S
O26 C11 1.248 . S
O27 Tb1 2.440 . S
O27 C11 1.266 . S
O28 Tb0 2.325 . S
O28 Tb1 2.658 . S
O28 C18 1.281 . S
O29 Tb1 2.409 . S
O29 C18 1.254 . S
O30 Tb1 2.378 . S
O30 C19 1.236 . S
O31 Tb0 2.341 . S
O31 C19 1.266 . S
H32 C4 0.929 . S
H33 C5 0.931 . S
H34 C7 0.930 . S
H35 C8 0.930 . S
H36 C13 0.929 1_556 S
H37 C14 0.931 . S
H38 C16 0.930 . S
H39 C17 0.930 . S
Tb40 C42 2.809 . S
Tb40 O60 2.484 . S
Tb40 O61 2.440 . S
Tb40 O62 2.658 . S
Tb40 O63 2.409 1_554 S
Tb40 O64 2.378 . S
Tb40 O68 2.325 . S
Tb40 O71 2.341 . S
Tb41 C51 2.809 . S
Tb41 O62 2.325 . S
Tb41 O65 2.341 . S
Tb41 O66 2.484 . S
Tb41 O67 2.440 . S
Tb41 O68 2.658 . S
Tb41 O69 2.409 . S
Tb41 O70 2.378 . S
C42 Tb40 2.809 . S
C42 C43 1.514 . S
C42 O60 1.248 . S
C42 O61 1.266 . S
C43 C42 1.514 . S
C43 C44 1.359 . S
C43 C48 1.348 . S
C44 C43 1.359 . S
C44 C45 1.380 . S
C44 H72 0.929 . S
C45 C44 1.380 . S
C45 C46 1.347 . S
C45 H73 0.931 . S
C46 C45 1.347 . S
C46 C47 1.369 . S
C47 C46 1.369 . S
C47 C48 1.408 . S
C47 H74 0.930 . S
C48 C43 1.348 . S
C48 C47 1.408 . S
C48 H75 0.930 . S
C49 O62 1.281 1_556 S
C49 O63 1.254 . S
C50 O64 1.236 . S
C50 O65 1.266 . S
C51 Tb41 2.809 . S
C51 C52 1.514 . S
C51 O66 1.248 . S
C51 O67 1.266 . S
C52 C51 1.514 . S
C52 C53 1.359 . S
C52 C57 1.348 . S
C53 C52 1.359 . S
C53 C54 1.380 1_554 S
C53 H76 0.929 1_554 S
C54 C53 1.380 1_556 S
C54 C55 1.347 1_556 S
C54 H77 0.931 . S
C55 C54 1.347 1_554 S
C55 C56 1.369 . S
C56 C55 1.369 . S
C56 C57 1.408 . S
C56 H78 0.930 . S
C57 C52 1.348 . S
C57 C56 1.408 . S
C57 H79 0.930 . S
C58 O68 1.281 . S
C58 O69 1.254 . S
C59 O70 1.236 . S
C59 O71 1.266 . S
O60 Tb40 2.484 . S
O60 C42 1.248 . S
O61 Tb40 2.440 . S
O61 C42 1.266 . S
O62 Tb40 2.658 . S
O62 Tb41 2.325 . S
O62 C49 1.281 1_554 S
O63 Tb40 2.409 1_556 S
O63 C49 1.254 . S
O64 Tb40 2.378 . S
O64 C50 1.236 . S
O65 Tb41 2.341 . S
O65 C50 1.266 . S
O66 Tb41 2.484 . S
O66 C51 1.248 . S
O67 Tb41 2.440 . S
O67 C51 1.266 . S
O68 Tb40 2.325 . S
O68 Tb41 2.658 . S
O68 C58 1.281 . S
O69 Tb41 2.409 . S
O69 C58 1.254 . S
O70 Tb41 2.378 . S
O70 C59 1.236 . S
O71 Tb40 2.341 . S
O71 C59 1.266 . S
H72 C44 0.929 . S
H73 C45 0.931 . S
H74 C47 0.930 . S
H75 C48 0.930 . S
H76 C53 0.929 1_556 S
H77 C54 0.931 . S
H78 C56 0.930 . S
H79 C57 0.930 . S
Tb80 C82 2.809 . S
Tb80 O100 2.484 . S
Tb80 O101 2.440 . S
Tb80 O102 2.658 . S
Tb80 O103 2.409 1_554 S
Tb80 O104 2.378 . S
Tb80 O108 2.325 . S
Tb80 O111 2.341 . S
Tb81 C91 2.809 . S
Tb81 O102 2.325 . S
Tb81 O105 2.341 . S
Tb81 O106 2.484 . S
Tb81 O107 2.440 . S
Tb81 O108 2.658 . S
Tb81 O109 2.409 . S
Tb81 O110 2.378 . S
C82 Tb80 2.809 . S
C82 C83 1.514 . S
C82 O100 1.248 . S
C82 O101 1.266 . S
C83 C82 1.514 . S
C83 C84 1.359 . S
C83 C88 1.348 . S
C84 C83 1.359 . S
C84 C85 1.380 . S
C84 H112 0.929 . S
C85 C84 1.380 . S
C85 C86 1.347 . S
C85 H113 0.931 . S
C86 C85 1.347 . S
C86 C87 1.369 . S
C87 C86 1.369 . S
C87 C88 1.408 . S
C87 H114 0.930 . S
C88 C83 1.348 . S
C88 C87 1.408 . S
C88 H115 0.930 . S
C89 O102 1.281 1_556 S
C89 O103 1.254 . S
C90 O104 1.236 . S
C90 O105 1.266 . S
C91 Tb81 2.809 . S
C91 C92 1.514 . S
C91 O106 1.248 . S
C91 O107 1.266 . S
C92 C91 1.514 . S
C92 C93 1.359 . S
C92 C97 1.348 . S
C93 C92 1.359 . S
C93 C94 1.380 1_554 S
C93 H116 0.929 1_554 S
C94 C93 1.380 1_556 S
C94 C95 1.347 1_556 S
C94 H117 0.931 . S
C95 C94 1.347 1_554 S
C95 C96 1.369 . S
C96 C95 1.369 . S
C96 C97 1.408 . S
C96 H118 0.930 . S
C97 C92 1.348 . S
C97 C96 1.408 . S
C97 H119 0.930 . S
C98 O108 1.281 . S
C98 O109 1.254 . S
C99 O110 1.236 . S
C99 O111 1.266 . S
O100 Tb80 2.484 . S
O100 C82 1.248 . S
O101 Tb80 2.440 . S
O101 C82 1.266 . S
O102 Tb80 2.658 . S
O102 Tb81 2.325 . S
O102 C89 1.281 1_554 S
O103 Tb80 2.409 1_556 S
O103 C89 1.254 . S
O104 Tb80 2.378 . S
O104 C90 1.236 . S
O105 Tb81 2.341 . S
O105 C90 1.266 . S
O106 Tb81 2.484 . S
O106 C91 1.248 . S
O107 Tb81 2.440 . S
O107 C91 1.266 . S
O108 Tb80 2.325 . S
O108 Tb81 2.658 . S
O108 C98 1.281 . S
O109 Tb81 2.409 . S
O109 C98 1.254 . S
O110 Tb81 2.378 . S
O110 C99 1.236 . S
O111 Tb80 2.341 . S
O111 C99 1.266 . S
H112 C84 0.929 . S
H113 C85 0.931 . S
H114 C87 0.930 . S
H115 C88 0.930 . S
H116 C93 0.929 1_556 S
H117 C94 0.931 . S
H118 C96 0.930 . S
H119 C97 0.930 . S
Tb120 C122 2.809 . S
Tb120 O140 2.484 . S
Tb120 O141 2.440 . S
Tb120 O142 2.658 1_565 S
Tb120 O143 2.411 . S
Tb120 O144 2.378 . S
Tb120 O148 2.325 . S
Tb120 O151 2.341 1_565 S
Tb121 C131 2.809 1_565 S
Tb121 O142 2.325 1_565 S
Tb121 O145 2.341 . S
Tb121 O146 2.484 1_565 S
Tb121 O147 2.440 1_565 S
Tb121 O148 2.658 . S
Tb121 O149 2.409 . S
Tb121 O150 2.378 1_565 S
C122 Tb120 2.809 . S
C122 C123 1.514 . S
C122 O140 1.248 . S
C122 O141 1.266 . S
C123 C122 1.514 . S
C123 C124 1.359 . S
C123 C128 1.348 . S
C124 C123 1.359 . S
C124 C125 1.380 . S
C124 H152 0.929 . S
C125 C124 1.380 . S
C125 C126 1.347 . S
C125 H153 0.931 . S
C126 C125 1.347 . S
C126 C127 1.369 . S
C127 C126 1.369 . S
C127 C128 1.408 . S
C127 H154 0.930 . S
C128 C123 1.348 . S
C128 C127 1.408 . S
C128 H155 0.930 . S
C129 O142 1.278 1_565 S
C129 O143 1.244 . S
C130 O144 1.236 . S
C130 O145 1.266 . S
C131 Tb121 2.809 1_545 S
C131 C132 1.514 . S
C131 O146 1.248 . S
C131 O147 1.266 . S
C132 C131 1.514 . S
C132 C133 1.359 . S
C132 C137 1.348 . S
C133 C132 1.359 . S
C133 C134 1.380 . S
C133 H156 0.929 . S
C134 C133 1.380 . S
C134 C135 1.347 . S
C134 H157 0.931 . S
C135 C134 1.347 . S
C135 C136 1.369 . S
C136 C135 1.369 . S
C136 C137 1.408 . S
C136 H158 0.930 . S
C137 C132 1.348 . S
C137 C136 1.408 . S
C137 H159 0.930 . S
C138 O148 1.281 . S
C138 O149 1.254 . S
C139 O150 1.236 . S
C139 O151 1.266 . S
O140 Tb120 2.484 . S
O140 C122 1.248 . S
O141 Tb120 2.440 . S
O141 C122 1.266 . S
O142 Tb120 2.658 1_545 S
O142 Tb121 2.325 1_545 S
O142 C129 1.278 1_545 S
O143 Tb120 2.411 . S
O143 C129 1.244 . S
O144 Tb120 2.378 . S
O144 C130 1.236 . S
O145 Tb121 2.341 . S
O145 C130 1.266 . S
O146 Tb121 2.484 1_545 S
O146 C131 1.248 . S
O147 Tb121 2.440 1_545 S
O147 C131 1.266 . S
O148 Tb120 2.325 . S
O148 Tb121 2.658 . S
O148 C138 1.281 . S
O149 Tb121 2.409 . S
O149 C138 1.254 . S
O150 Tb121 2.378 1_545 S
O150 C139 1.236 . S
O151 Tb120 2.341 1_545 S
O151 C139 1.266 . S
H152 C124 0.929 . S
H153 C125 0.931 . S
H154 C127 0.930 . S
H155 C128 0.930 . S
H156 C133 0.929 . S
H157 C134 0.931 . S
H158 C136 0.930 . S
H159 C137 0.930 . S
Tb160 C162 2.809 . S
Tb160 O180 2.484 . S
Tb160 O181 2.440 . S
Tb160 O182 2.658 . S
Tb160 O183 2.409 . S
Tb160 O184 2.378 . S
Tb160 O188 2.325 . S
Tb160 O191 2.341 . S
Tb161 C171 2.809 . S
Tb161 O182 2.325 . S
Tb161 O185 2.341 . S
Tb161 O186 2.484 . S
Tb161 O187 2.440 . S
Tb161 O188 2.658 . S
Tb161 O189 2.409 . S
Tb161 O190 2.378 . S
C162 Tb160 2.809 . S
C162 C163 1.514 . S
C162 O180 1.248 . S
C162 O181 1.266 . S
C163 C162 1.514 . S
C163 C164 1.359 . S
C163 C168 1.348 . S
C164 C163 1.359 . S
C164 C165 1.380 . S
C164 H192 0.929 . S
C165 C164 1.380 . S
C165 C166 1.347 . S
C165 H193 0.931 . S
C166 C165 1.347 . S
C166 C167 1.369 . S
C167 C166 1.369 . S
C167 C168 1.408 . S
C167 H194 0.930 . S
C168 C163 1.348 . S
C168 C167 1.408 . S
C168 H195 0.930 . S
C169 O182 1.281 . S
C169 O183 1.254 . S
C170 O184 1.236 . S
C170 O185 1.266 . S
C171 Tb161 2.809 . S
C171 C172 1.514 . S
C171 O186 1.248 . S
C171 O187 1.266 . S
C172 C171 1.514 . S
C172 C173 1.359 . S
C172 C177 1.348 . S
C173 C172 1.359 . S
C173 C174 1.380 . S
C173 H196 0.929 . S
C174 C173 1.380 . S
C174 C175 1.347 . S
C174 H197 0.931 . S
C175 C174 1.347 . S
C175 C176 1.369 . S
C176 C175 1.369 . S
C176 C177 1.408 . S
C176 H198 0.930 . S
C177 C172 1.348 . S
C177 C176 1.408 . S
C177 H199 0.930 . S
C178 O188 1.281 . S
C178 O189 1.254 . S
C179 O190 1.236 . S
C179 O191 1.266 . S
O180 Tb160 2.484 . S
O180 C162 1.248 . S
O181 Tb160 2.440 . S
O181 C162 1.266 . S
O182 Tb160 2.658 . S
O182 Tb161 2.325 . S
O182 C169 1.281 . S
O183 Tb160 2.409 . S
O183 C169 1.254 . S
O184 Tb160 2.378 . S
O184 C170 1.236 . S
O185 Tb161 2.341 . S
O185 C170 1.266 . S
O186 Tb161 2.484 . S
O186 C171 1.248 . S
O187 Tb161 2.440 . S
O187 C171 1.266 . S
O188 Tb160 2.325 . S
O188 Tb161 2.658 . S
O188 C178 1.281 . S
O189 Tb161 2.409 . S
O189 C178 1.254 . S
O190 Tb161 2.378 . S
O190 C179 1.236 . S
O191 Tb160 2.341 . S
O191 C179 1.266 . S
H192 C164 0.929 . S
H193 C165 0.931 . S
H194 C167 0.930 . S
H195 C168 0.930 . S
H196 C173 0.929 . S
H197 C174 0.931 . S
H198 C176 0.930 . S
H199 C177 0.930 . S
Tb200 C202 2.809 . S
Tb200 O220 2.484 . S
Tb200 O221 2.440 . S
Tb200 O222 2.658 . S
Tb200 O223 2.409 . S
Tb200 O224 2.378 . S
Tb200 O228 2.325 . S
Tb200 O231 2.341 . S
Tb201 C211 2.809 . S
Tb201 O222 2.325 . S
Tb201 O225 2.341 . S
Tb201 O226 2.484 . S
Tb201 O227 2.440 . S
Tb201 O228 2.658 . S
Tb201 O229 2.409 . S
Tb201 O230 2.378 . S
C202 Tb200 2.809 . S
C202 C203 1.514 . S
C202 O220 1.248 . S
C202 O221 1.266 . S
C203 C202 1.514 . S
C203 C204 1.359 . S
C203 C208 1.348 . S
C204 C203 1.359 . S
C204 C205 1.380 . S
C204 H232 0.929 . S
C205 C204 1.380 . S
C205 C206 1.347 . S
C205 H233 0.931 . S
C206 C205 1.347 . S
C206 C207 1.369 . S
C207 C206 1.369 . S
C207 C208 1.408 . S
C207 H234 0.930 . S
C208 C203 1.348 . S
C208 C207 1.408 . S
C208 H235 0.930 . S
C209 O222 1.281 . S
C209 O223 1.254 . S
C210 O224 1.236 . S
C210 O225 1.266 . S
C211 Tb201 2.809 . S
C211 C212 1.514 . S
C211 O226 1.248 . S
C211 O227 1.266 . S
C212 C211 1.514 . S
C212 C213 1.359 . S
C212 C217 1.348 . S
C213 C212 1.359 . S
C213 C214 1.380 . S
C213 H236 0.929 . S
C214 C213 1.380 . S
C214 C215 1.347 . S
C214 H237 0.931 . S
C215 C214 1.347 . S
C215 C216 1.369 . S
C216 C215 1.369 . S
C216 C217 1.408 . S
C216 H238 0.930 . S
C217 C212 1.348 . S
C217 C216 1.408 . S
C217 H239 0.930 . S
C218 O228 1.281 . S
C218 O229 1.254 . S
C219 O230 1.236 . S
C219 O231 1.266 . S
O220 Tb200 2.484 . S
O220 C202 1.248 . S
O221 Tb200 2.440 . S
O221 C202 1.266 . S
O222 Tb200 2.658 . S
O222 Tb201 2.325 . S
O222 C209 1.281 . S
O223 Tb200 2.409 . S
O223 C209 1.254 . S
O224 Tb200 2.378 . S
O224 C210 1.236 . S
O225 Tb201 2.341 . S
O225 C210 1.266 . S
O226 Tb201 2.484 . S
O226 C211 1.248 . S
O227 Tb201 2.440 . S
O227 C211 1.266 . S
O228 Tb200 2.325 . S
O228 Tb201 2.658 . S
O228 C218 1.281 . S
O229 Tb201 2.409 . S
O229 C218 1.254 . S
O230 Tb201 2.378 . S
O230 C219 1.236 . S
O231 Tb200 2.341 . S
O231 C219 1.266 . S
H232 C204 0.929 . S
H233 C205 0.931 . S
H234 C207 0.930 . S
H235 C208 0.930 . S
H236 C213 0.929 . S
H237 C214 0.931 . S
H238 C216 0.930 . S
H239 C217 0.930 . S
Tb240 C242 2.809 . S
Tb240 O260 2.484 . S
Tb240 O261 2.440 . S
Tb240 O262 2.658 . S
Tb240 O263 2.409 . S
Tb240 O264 2.378 . S
Tb240 O268 2.325 . S
Tb240 O271 2.341 . S
Tb241 C251 2.809 . S
Tb241 O262 2.325 . S
Tb241 O265 2.341 . S
Tb241 O266 2.484 . S
Tb241 O267 2.440 . S
Tb241 O268 2.658 . S
Tb241 O269 2.409 . S
Tb241 O270 2.378 . S
C242 Tb240 2.809 . S
C242 C243 1.514 . S
C242 O260 1.248 . S
C242 O261 1.266 . S
C243 C242 1.514 . S
C243 C244 1.359 . S
C243 C248 1.348 . S
C244 C243 1.359 . S
C244 C245 1.380 . S
C244 H272 0.929 . S
C245 C244 1.380 . S
C245 C246 1.347 . S
C245 H273 0.931 . S
C246 C245 1.347 . S
C246 C247 1.369 . S
C247 C246 1.369 . S
C247 C248 1.408 . S
C247 H274 0.930 . S
C248 C243 1.348 . S
C248 C247 1.408 . S
C248 H275 0.930 . S
C249 O262 1.281 . S
C249 O263 1.254 . S
C250 O264 1.236 . S
C250 O265 1.266 . S
C251 Tb241 2.809 . S
C251 C252 1.514 . S
C251 O266 1.248 . S
C251 O267 1.266 . S
C252 C251 1.514 . S
C252 C253 1.359 . S
C252 C257 1.348 . S
C253 C252 1.359 . S
C253 C254 1.380 . S
C253 H276 0.929 . S
C254 C253 1.380 . S
C254 C255 1.347 . S
C254 H277 0.931 . S
C255 C254 1.347 . S
C255 C256 1.369 . S
C256 C255 1.369 . S
C256 C257 1.408 . S
C256 H278 0.930 . S
C257 C252 1.348 . S
C257 C256 1.408 . S
C257 H279 0.930 . S
C258 O268 1.281 . S
C258 O269 1.254 . S
C259 O270 1.236 . S
C259 O271 1.266 . S
O260 Tb240 2.484 . S
O260 C242 1.248 . S
O261 Tb240 2.440 . S
O261 C242 1.266 . S
O262 Tb240 2.658 . S
O262 Tb241 2.325 . S
O262 C249 1.281 . S
O263 Tb240 2.409 . S
O263 C249 1.254 . S
O264 Tb240 2.378 . S
O264 C250 1.236 . S
O265 Tb241 2.341 . S
O265 C250 1.266 . S
O266 Tb241 2.484 . S
O266 C251 1.248 . S
O267 Tb241 2.440 . S
O267 C251 1.266 . S
O268 Tb240 2.325 . S
O268 Tb241 2.658 . S
O268 C258 1.281 . S
O269 Tb241 2.409 . S
O269 C258 1.254 . S
O270 Tb241 2.378 . S
O270 C259 1.236 . S
O271 Tb240 2.341 . S
O271 C259 1.266 . S
H272 C244 0.929 . S
H273 C245 0.931 . S
H274 C247 0.930 . S
H275 C248 0.930 . S
H276 C253 0.929 . S
H277 C254 0.931 . S
H278 C256 0.930 . S
H279 C257 0.930 . S
Tb280 C282 2.809 . S
Tb280 O300 2.484 . S
Tb280 O301 2.440 . S
Tb280 O302 2.658 1_655 S
Tb280 O303 2.409 . S
Tb280 O304 2.378 . S
Tb280 O308 2.325 . S
Tb280 O311 2.341 . S
Tb281 C291 2.809 . S
Tb281 O302 2.325 . S
Tb281 O305 2.342 1_455 S
Tb281 O306 2.484 . S
Tb281 O307 2.440 . S
Tb281 O308 2.658 1_455 S
Tb281 O309 2.409 1_455 S
Tb281 O310 2.378 . S
C282 Tb280 2.809 . S
C282 C283 1.514 . S
C282 O300 1.248 . S
C282 O301 1.266 . S
C283 C282 1.514 . S
C283 C284 1.359 . S
C283 C288 1.348 . S
C284 C283 1.359 . S
C284 C285 1.380 . S
C284 H312 0.929 . S
C285 C284 1.380 . S
C285 C286 1.347 . S
C285 H313 0.931 . S
C286 C285 1.347 . S
C286 C287 1.369 . S
C287 C286 1.369 . S
C287 C288 1.408 . S
C287 H314 0.930 . S
C288 C283 1.348 . S
C288 C287 1.408 . S
C288 H315 0.930 . S
C289 O302 1.281 . S
C289 O303 1.254 1_455 S
C290 O304 1.236 . S
C290 O305 1.265 . S
C291 Tb281 2.809 . S
C291 C292 1.514 . S
C291 O306 1.248 . S
C291 O307 1.266 . S
C292 C291 1.514 . S
C292 C293 1.359 . S
C292 C297 1.348 . S
C293 C292 1.359 . S
C293 C294 1.380 . S
C293 H316 0.929 . S
C294 C293 1.380 . S
C294 C295 1.347 . S
C294 H317 0.931 . S
C295 C294 1.347 . S
C295 C296 1.369 . S
C296 C295 1.369 . S
C296 C297 1.408 . S
C296 H318 0.930 . S
C297 C292 1.348 . S
C297 C296 1.408 . S
C297 H319 0.930 . S
C298 O308 1.281 . S
C298 O309 1.254 . S
C299 O310 1.236 . S
C299 O311 1.266 1_455 S
O300 Tb280 2.484 . S
O300 C282 1.248 . S
O301 Tb280 2.440 . S
O301 C282 1.266 . S
O302 Tb280 2.658 1_455 S
O302 Tb281 2.325 . S
O302 C289 1.281 . S
O303 Tb280 2.409 . S
O303 C289 1.254 1_655 S
O304 Tb280 2.378 . S
O304 C290 1.236 . S
O305 Tb281 2.342 1_655 S
O305 C290 1.265 . S
O306 Tb281 2.484 . S
O306 C291 1.248 . S
O307 Tb281 2.440 . S
O307 C291 1.266 . S
O308 Tb280 2.325 . S
O308 Tb281 2.658 1_655 S
O308 C298 1.281 . S
O309 Tb281 2.409 1_655 S
O309 C298 1.254 . S
O310 Tb281 2.378 . S
O310 C299 1.236 . S
O311 Tb280 2.341 . S
O311 C299 1.266 1_655 S
H312 C284 0.929 . S
H313 C285 0.931 . S
H314 C287 0.930 . S
H315 C288 0.930 . S
H316 C293 0.929 . S
H317 C294 0.931 . S
H318 C296 0.930 . S
H319 C297 0.930 . S
Tb320 C322 2.809 1_655 S
Tb320 O340 2.484 1_655 S
Tb320 O341 2.440 . S
Tb320 O342 2.658 . S
Tb320 O343 2.409 . S
Tb320 O344 2.378 . S
Tb320 O348 2.325 1_655 S
Tb320 O351 2.341 . S
Tb321 C331 2.809 . S
Tb321 O342 2.325 . S
Tb321 O345 2.341 1_655 S
Tb321 O346 2.484 . S
Tb321 O347 2.457 1_655 S
Tb321 O348 2.658 1_655 S
Tb321 O349 2.409 1_655 S
Tb321 O350 2.378 . S
C322 Tb320 2.809 1_455 S
C322 C323 1.514 . S
C322 O340 1.248 . S
C322 O341 1.266 1_455 S
C323 C322 1.514 . S
C323 C324 1.359 . S
C323 C328 1.348 1_455 S
C324 C323 1.359 . S
C324 C325 1.380 . S
C324 H352 0.929 . S
C325 C324 1.380 . S
C325 C326 1.347 . S
C325 H353 0.931 . S
C326 C325 1.347 . S
C326 C327 1.369 . S
C327 C326 1.369 . S
C327 C328 1.408 1_455 S
C327 H354 0.930 1_455 S
C328 C323 1.348 1_655 S
C328 C327 1.408 1_655 S
C328 H355 0.930 . S
C329 O342 1.281 . S
C329 O343 1.254 . S
C330 O344 1.237 1_455 S
C330 O345 1.243 . S
C331 Tb321 2.809 . S
C331 C332 1.514 . S
C331 O346 1.248 . S
C331 O347 1.216 1_655 S
C332 C331 1.514 . S
C332 C333 1.359 . S
C332 C337 1.348 . S
C333 C332 1.359 . S
C333 C334 1.380 . S
C333 H356 0.929 . S
C334 C333 1.380 . S
C334 C335 1.347 . S
C334 H357 0.931 . S
C335 C334 1.347 . S
C335 C336 1.369 . S
C336 C335 1.369 . S
C336 C337 1.408 . S
C336 H358 0.930 . S
C337 C332 1.348 . S
C337 C336 1.408 . S
C337 H359 0.930 1_655 S
C338 O348 1.281 . S
C338 O349 1.254 . S
C339 O350 1.236 . S
C339 O351 1.266 . S
O340 Tb320 2.484 1_455 S
O340 C322 1.248 . S
O341 Tb320 2.440 . S
O341 C322 1.266 1_655 S
O342 Tb320 2.658 . S
O342 Tb321 2.325 . S
O342 C329 1.281 . S
O343 Tb320 2.409 . S
O343 C329 1.254 . S
O344 Tb320 2.378 . S
O344 C330 1.237 1_655 S
O345 Tb321 2.341 1_455 S
O345 C330 1.243 . S
O346 Tb321 2.484 . S
O346 C331 1.248 . S
O347 Tb321 2.457 1_455 S
O347 C331 1.216 1_455 S
O348 Tb320 2.325 1_455 S
O348 Tb321 2.658 1_455 S
O348 C338 1.281 . S
O349 Tb321 2.409 1_455 S
O349 C338 1.254 . S
O350 Tb321 2.378 . S
O350 C339 1.236 . S
O351 Tb320 2.341 . S
O351 C339 1.266 . S
H352 C324 0.929 . S
H353 C325 0.931 . S
H354 C327 0.930 1_655 S
H355 C328 0.930 . S
H356 C333 0.929 . S
H357 C334 0.931 . S
H358 C336 0.930 . S
H359 C337 0.930 1_455 S
H360 C366 0.930 . S
H361 C370 0.930 . S
H362 C375 0.929 . S
H363 C373 0.929 . S
H364 C368 0.929 . S
H365 C374 0.929 . S
C366 H360 0.930 . S
C366 C367 1.367 . S
C366 C374 1.378 . S
C367 C366 1.367 . S
C367 C375 1.433 . S
C368 H364 0.929 . S
C368 C370 1.378 . S
C368 C372 1.350 . S
C369 C372 1.463 . S
C369 C374 1.350 . S
C369 N377 1.427 . S
C370 H361 0.930 . S
C370 C368 1.378 . S
C370 C371 1.367 . S
C371 C370 1.367 . S
C371 C373 1.433 . S
C372 C368 1.350 . S
C372 C369 1.463 . S
C372 N376 1.427 . S
C373 H363 0.929 . S
C373 C371 1.433 . S
C373 N376 1.384 . S
C374 H365 0.929 . S
C374 C366 1.378 . S
C374 C369 1.350 . S
C375 H362 0.929 . S
C375 C367 1.433 . S
C375 N377 1.384 . S
N376 C372 1.427 . S
N376 C373 1.384 . S
N377 C369 1.427 . S
N377 C375 1.384 . S
H378 C384 0.930 . S
H379 C388 0.930 . S
H380 C393 0.929 . S
H381 C391 0.929 . S
H382 C386 0.929 . S
H383 C392 0.929 . S
C384 H378 0.930 . S
C384 C385 1.367 . S
C384 C392 1.378 . S
C385 C384 1.367 . S
C385 C393 1.433 . S
C386 H382 0.929 . S
C386 C388 1.378 . S
C386 C390 1.350 . S
C387 C390 1.463 . S
C387 C392 1.350 . S
C387 N395 1.427 . S
C388 H379 0.930 . S
C388 C386 1.378 . S
C388 C389 1.367 . S
C389 C388 1.367 . S
C389 C391 1.433 . S
C390 C386 1.350 . S
C390 C387 1.463 . S
C390 N394 1.427 . S
C391 H381 0.929 . S
C391 C389 1.433 . S
C391 N394 1.384 . S
C392 H383 0.929 . S
C392 C384 1.378 . S
C392 C387 1.350 . S
C393 H380 0.929 . S
C393 C385 1.433 . S
C393 N395 1.384 . S
N394 C390 1.427 . S
N394 C391 1.384 . S
N395 C387 1.427 . S
N395 C393 1.384 . S
H396 C402 0.930 . S
H397 C406 0.930 . S
H398 C411 0.929 . S
H399 C409 0.929 . S
H400 C404 0.929 . S
H401 C410 0.929 . S
C402 H396 0.930 . S
C402 C403 1.367 . S
C402 C410 1.378 . S
C403 C402 1.367 . S
C403 C411 1.433 . S
C404 H400 0.929 . S
C404 C406 1.378 . S
C404 C408 1.350 . S
C405 C408 1.463 . S
C405 C410 1.350 . S
C405 N413 1.427 . S
C406 H397 0.930 . S
C406 C404 1.378 . S
C406 C407 1.367 . S
C407 C406 1.367 . S
C407 C409 1.433 . S
C408 C404 1.350 . S
C408 C405 1.463 . S
C408 N412 1.427 . S
C409 H399 0.929 . S
C409 C407 1.433 . S
C409 N412 1.384 . S
C410 H401 0.929 . S
C410 C402 1.378 . S
C410 C405 1.350 . S
C411 H398 0.929 . S
C411 C403 1.433 . S
C411 N413 1.384 . S
N412 C408 1.427 . S
N412 C409 1.384 . S
N413 C405 1.427 . S
N413 C411 1.384 . S
H414 C420 0.930 . S
H415 C424 0.930 . S
H416 C429 0.929 . S
H417 C427 0.929 . S
H418 C422 0.929 . S
H419 C428 0.929 . S
C420 H414 0.930 . S
C420 C421 1.367 1_545 S
C420 C428 1.378 . S
C421 C420 1.367 1_565 S
C421 C429 1.433 . S
C422 H418 0.929 . S
C422 C424 1.378 . S
C422 C426 1.350 . S
C423 C426 1.463 . S
C423 C428 1.350 1_565 S
C423 N431 1.427 . S
C424 H415 0.930 . S
C424 C422 1.378 . S
C424 C425 1.367 . S
C425 C424 1.367 . S
C425 C427 1.433 1_565 S
C426 C422 1.350 . S
C426 C423 1.463 . S
C426 N430 1.427 1_565 S
C427 H417 0.929 . S
C427 C425 1.433 1_545 S
C427 N430 1.384 . S
C428 H419 0.929 . S
C428 C420 1.378 . S
C428 C423 1.350 1_545 S
C429 H416 0.929 . S
C429 C421 1.433 . S
C429 N431 1.384 . S
N430 C426 1.427 1_545 S
N430 C427 1.384 . S
N431 C423 1.427 . S
N431 C429 1.384 . S
H432 C438 0.930 . S
H433 C442 0.930 . S
H434 C447 0.929 . S
H435 C445 0.929 . S
H436 C440 0.929 . S
H437 C446 0.929 . S
C438 H432 0.930 . S
C438 C439 1.367 . S
C438 C446 1.378 . S
C439 C438 1.367 . S
C439 C447 1.433 . S
C440 H436 0.929 . S
C440 C442 1.378 . S
C440 C444 1.350 . S
C441 C444 1.463 . S
C441 C446 1.350 . S
C441 N449 1.427 . S
C442 H433 0.930 . S
C442 C440 1.378 . S
C442 C443 1.367 . S
C443 C442 1.367 . S
C443 C445 1.433 . S
C444 C440 1.350 . S
C444 C441 1.463 . S
C444 N448 1.427 . S
C445 H435 0.929 . S
C445 C443 1.433 . S
C445 N448 1.384 . S
C446 H437 0.929 . S
C446 C438 1.378 . S
C446 C441 1.350 . S
C447 H434 0.929 . S
C447 C439 1.433 . S
C447 N449 1.384 . S
N448 C444 1.427 . S
N448 C445 1.384 . S
N449 C441 1.427 . S
N449 C447 1.384 . S
H450 C456 0.930 . S
H451 C460 0.930 . S
H452 C465 0.929 . S
H453 C463 0.929 . S
H454 C458 0.929 . S
H455 C464 0.929 . S
C456 H450 0.930 . S
C456 C457 1.367 . S
C456 C464 1.378 . S
C457 C456 1.367 . S
C457 C465 1.433 . S
C458 H454 0.929 . S
C458 C460 1.378 . S
C458 C462 1.350 . S
C459 C462 1.463 . S
C459 C464 1.350 . S
C459 N467 1.427 . S
C460 H451 0.930 . S
C460 C458 1.378 . S
C460 C461 1.367 . S
C461 C460 1.367 . S
C461 C463 1.433 . S
C462 C458 1.350 . S
C462 C459 1.463 . S
C462 N466 1.427 . S
C463 H453 0.929 . S
C463 C461 1.433 . S
C463 N466 1.384 . S
C464 H455 0.929 . S
C464 C456 1.378 . S
C464 C459 1.350 . S
C465 H452 0.929 . S
C465 C457 1.433 . S
C465 N467 1.384 . S
N466 C462 1.427 . S
N466 C463 1.384 . S
N467 C459 1.427 . S
N467 C465 1.384 . S
H468 C474 0.930 . S
H469 C478 0.930 . S
H470 C483 0.929 . S
H471 C481 0.929 . S
H472 C476 0.929 . S
H473 C482 0.929 . S
C474 H468 0.930 . S
C474 C475 1.367 . S
C474 C482 1.378 . S
C475 C474 1.367 . S
C475 C483 1.433 . S
C476 H472 0.929 . S
C476 C478 1.378 1_554 S
C476 C480 1.350 . S
C477 C480 1.463 . S
C477 C482 1.350 . S
C477 N485 1.427 . S
C478 H469 0.930 . S
C478 C476 1.378 1_556 S
C478 C479 1.367 . S
C479 C478 1.367 . S
C479 C481 1.433 . S
C480 C476 1.350 . S
C480 C477 1.463 . S
C480 N484 1.427 . S
C481 H471 0.929 . S
C481 C479 1.433 . S
C481 N484 1.384 1_556 S
C482 H473 0.929 . S
C482 C474 1.378 . S
C482 C477 1.350 . S
C483 H470 0.929 . S
C483 C475 1.433 . S
C483 N485 1.384 . S
N484 C480 1.427 . S
N484 C481 1.384 1_554 S
N485 C477 1.427 . S
N485 C483 1.384 . S
H486 C492 0.930 . S
H487 C496 0.930 1_556 S
H488 C501 0.929 . S
H489 C499 0.931 1_455 S
H490 C494 0.929 . S
H491 C500 0.929 . S
C492 H486 0.930 . S
C492 C493 1.367 . S
C492 C500 1.378 . S
C493 C492 1.367 . S
C493 C501 1.433 1_455 S
C494 H490 0.929 . S
C494 C496 1.378 . S
C494 C498 1.350 . S
C495 C498 1.463 . S
C495 C500 1.350 1_655 S
C495 N503 1.427 . S
C496 H487 0.930 1_554 S
C496 C494 1.378 . S
C496 C497 1.367 1_554 S
C497 C496 1.367 1_556 S
C497 C499 1.430 . S
C498 C494 1.350 . S
C498 C495 1.463 . S
C498 N502 1.427 1_655 S
C499 H489 0.931 1_655 S
C499 C497 1.430 . S
C499 N502 1.384 1_656 S
C500 H491 0.929 . S
C500 C492 1.378 . S
C500 C495 1.350 1_455 S
C501 H488 0.929 . S
C501 C493 1.433 1_655 S
C501 N503 1.384 . S
N502 C498 1.427 1_455 S
N502 C499 1.384 1_454 S
N503 C495 1.427 . S
N503 C501 1.384 . S
H504 C510 0.930 . S
H505 C514 0.930 1_556 S
H506 C519 0.929 . S
H507 C517 0.929 . S
H508 C512 0.929 . S
H509 C518 0.929 . S
C510 H504 0.930 . S
C510 C511 1.367 . S
C510 C518 1.378 . S
C511 C510 1.367 . S
C511 C519 1.433 1_655 S
C512 H508 0.929 . S
C512 C514 1.378 . S
C512 C516 1.350 1_455 S
C513 C516 1.463 . S
C513 C518 1.350 . S
C513 N521 1.427 1_655 S
C514 H505 0.930 1_554 S
C514 C512 1.378 . S
C514 C515 1.367 1_554 S
C515 C514 1.367 1_556 S
C515 C517 1.433 1_455 S
C516 C512 1.350 1_655 S
C516 C513 1.463 . S
C516 N520 1.427 . S
C517 H507 0.929 . S
C517 C515 1.433 1_655 S
C517 N520 1.384 1_556 S
C518 H509 0.929 . S
C518 C510 1.378 . S
C518 C513 1.350 . S
C519 H506 0.929 . S
C519 C511 1.433 1_455 S
C519 N521 1.384 . S
N520 C516 1.427 . S
N520 C517 1.384 1_554 S
N521 C513 1.427 1_455 S
N521 C519 1.384 . S
H522 C528 0.930 . S
H523 C532 0.930 . S
H524 C537 0.929 . S
H525 C535 0.929 . S
H526 C530 0.929 . S
H527 C536 0.929 . S
C528 H522 0.930 . S
C528 C529 1.367 . S
C528 C536 1.378 . S
C529 C528 1.367 . S
C529 C537 1.433 . S
C530 H526 0.929 . S
C530 C532 1.378 . S
C530 C534 1.350 . S
C531 C534 1.463 . S
C531 C536 1.350 . S
C531 N539 1.427 . S
C532 H523 0.930 . S
C532 C530 1.378 . S
C532 C533 1.367 . S
C533 C532 1.367 . S
C533 C535 1.433 . S
C534 C530 1.350 . S
C534 C531 1.463 . S
C534 N538 1.427 . S
C535 H525 0.929 . S
C535 C533 1.433 . S
C535 N538 1.384 . S
C536 H527 0.929 . S
C536 C528 1.378 . S
C536 C531 1.350 . S
C537 H524 0.929 . S
C537 C529 1.433 . S
C537 N539 1.384 . S
N538 C534 1.427 . S
N538 C535 1.384 . S
N539 C531 1.427 . S
N539 C537 1.384 . S
H540 C546 0.930 . S
H541 C550 0.930 . S
H542 C555 0.929 . S
H543 C553 0.929 . S
H544 C548 0.929 . S
H545 C554 0.929 . S
C546 H540 0.930 . S
C546 C547 1.367 . S
C546 C554 1.378 . S
C547 C546 1.367 . S
C547 C555 1.433 . S
C548 H544 0.929 . S
C548 C550 1.378 . S
C548 C552 1.350 . S
C549 C552 1.463 . S
C549 C554 1.350 . S
C549 N557 1.427 . S
C550 H541 0.930 . S
C550 C548 1.378 . S
C550 C551 1.367 . S
C551 C550 1.367 . S
C551 C553 1.433 . S
C552 C548 1.350 . S
C552 C549 1.463 . S
C552 N556 1.427 . S
C553 H543 0.929 . S
C553 C551 1.433 . S
C553 N556 1.384 . S
C554 H545 0.929 . S
C554 C546 1.378 . S
C554 C549 1.350 . S
C555 H542 0.929 . S
C555 C547 1.433 . S
C555 N557 1.384 . S
N556 C552 1.427 . S
N556 C553 1.384 . S
N557 C549 1.427 . S
N557 C555 1.384 . S
H558 C564 0.930 1_545 S
H559 C568 0.930 . S
H560 C573 0.929 . S
H561 C571 0.929 . S
H562 C566 0.929 . S
H563 C572 0.929 . S
C564 H558 0.930 1_565 S
C564 C565 1.367 . S
C564 C572 1.378 . S
C565 C564 1.367 . S
C565 C573 1.433 . S
C566 H562 0.929 . S
C566 C568 1.378 . S
C566 C570 1.350 . S
C567 C570 1.463 . S
C567 C572 1.350 . S
C567 N575 1.427 . S
C568 H559 0.930 . S
C568 C566 1.378 . S
C568 C569 1.367 . S
C569 C568 1.367 . S
C569 C571 1.433 . S
C570 C566 1.350 . S
C570 C567 1.463 . S
C570 N574 1.427 . S
C571 H561 0.929 . S
C571 C569 1.433 . S
C571 N574 1.384 . S
C572 H563 0.929 . S
C572 C564 1.378 . S
C572 C567 1.350 . S
C573 H560 0.929 . S
C573 C565 1.433 . S
C573 N575 1.384 . S
N574 C570 1.427 . S
N574 C571 1.384 . S
N575 C567 1.427 . S
N575 C573 1.384 . S
H576 C582 0.930 . S
H577 C586 0.930 . S
H578 C591 0.929 . S
H579 C589 0.929 . S
H580 C584 0.929 . S
H581 C590 0.929 . S
C582 H576 0.930 . S
C582 C583 1.367 . S
C582 C590 1.378 . S
C583 C582 1.367 . S
C583 C591 1.433 1_554 S
C584 H580 0.929 . S
C584 C586 1.378 . S
C584 C588 1.350 . S
C585 C588 1.463 . S
C585 C590 1.350 1_556 S
C585 N593 1.427 . S
C586 H577 0.930 . S
C586 C584 1.378 . S
C586 C587 1.367 . S
C587 C586 1.367 . S
C587 C589 1.433 . S
C588 C584 1.350 . S
C588 C585 1.463 . S
C588 N592 1.427 . S
C589 H579 0.929 . S
C589 C587 1.433 . S
C589 N592 1.384 . S
C590 H581 0.929 . S
C590 C582 1.378 . S
C590 C585 1.350 1_554 S
C591 H578 0.929 . S
C591 C583 1.433 1_556 S
C591 N593 1.384 . S
N592 C588 1.427 . S
N592 C589 1.384 . S
N593 C585 1.427 . S
N593 C591 1.384 . S
H594 C600 0.930 . S
H595 C604 0.930 . S
H596 C609 0.929 . S
H597 C607 0.929 . S
H598 C602 0.929 . S
H599 C608 0.929 . S
C600 H594 0.930 . S
C600 C601 1.367 . S
C600 C608 1.378 . S
C601 C600 1.367 . S
C601 C609 1.433 . S
C602 H598 0.929 . S
C602 C604 1.378 . S
C602 C606 1.350 . S
C603 C606 1.463 . S
C603 C608 1.350 . S
C603 N611 1.427 . S
C604 H595 0.930 . S
C604 C602 1.378 . S
C604 C605 1.367 1_556 S
C605 C604 1.367 1_554 S
C605 C607 1.433 . S
C606 C602 1.350 . S
C606 C603 1.463 . S
C606 N610 1.427 1_556 S
C607 H597 0.929 . S
C607 C605 1.433 . S
C607 N610 1.384 . S
C608 H599 0.929 . S
C608 C600 1.378 . S
C608 C603 1.350 . S
C609 H596 0.929 . S
C609 C601 1.433 . S
C609 N611 1.384 . S
N610 C606 1.427 1_554 S
N610 C607 1.384 . S
N611 C603 1.427 . S
N611 C609 1.384 . S
H612 C618 0.930 . S
H613 C622 0.930 . S
H614 C627 0.929 . S
H615 C625 0.929 . S
H616 C620 0.929 . S
H617 C626 0.929 . S
C618 H612 0.930 . S
C618 C619 1.367 . S
C618 C626 1.378 . S
C619 C618 1.367 . S
C619 C627 1.433 . S
C620 H616 0.929 . S
C620 C622 1.378 . S
C620 C624 1.350 . S
C621 C624 1.463 . S
C621 C626 1.350 . S
C621 N629 1.427 . S
C622 H613 0.930 . S
C622 C620 1.378 . S
C622 C623 1.367 1_556 S
C623 C622 1.367 1_554 S
C623 C625 1.433 . S
C624 C620 1.350 . S
C624 C621 1.463 . S
C624 N628 1.427 1_556 S
C625 H615 0.929 . S
C625 C623 1.433 . S
C625 N628 1.384 . S
C626 H617 0.929 . S
C626 C618 1.378 . S
C626 C621 1.350 . S
C627 H614 0.929 . S
C627 C619 1.433 . S
C627 N629 1.384 . S
N628 C624 1.427 1_554 S
N628 C625 1.384 . S
N629 C621 1.427 . S
N629 C627 1.384 . S
H630 C636 0.930 . S
H631 C640 0.930 . S
H632 C645 0.929 . S
H633 C643 0.929 . S
H634 C638 0.929 . S
H635 C644 0.929 . S
C636 H630 0.930 . S
C636 C637 1.367 1_554 S
C636 C644 1.378 . S
C637 C636 1.367 1_556 S
C637 C645 1.433 . S
C638 H634 0.929 . S
C638 C640 1.378 . S
C638 C642 1.350 1_556 S
C639 C642 1.463 1_556 S
C639 C644 1.350 1_556 S
C639 N647 1.427 . S
C640 H631 0.930 . S
C640 C638 1.378 . S
C640 C641 1.367 1_556 S
C641 C640 1.367 1_554 S
C641 C643 1.433 . S
C642 C638 1.350 1_554 S
C642 C639 1.463 1_554 S
C642 N646 1.427 . S
C643 H633 0.929 . S
C643 C641 1.433 . S
C643 N646 1.384 . S
C644 H635 0.929 . S
C644 C636 1.378 . S
C644 C639 1.350 1_554 S
C645 H632 0.929 . S
C645 C637 1.433 . S
C645 N647 1.384 . S
N646 C642 1.427 . S
N646 C643 1.384 . S
N647 C639 1.427 . S
N647 C645 1.384 . S
H648 C654 0.930 . S
H649 C658 0.930 . S
H650 C663 0.929 . S
H651 C661 0.929 . S
H652 C656 0.929 . S
H653 C662 0.929 . S
C654 H648 0.930 . S
C654 C655 1.367 . S
C654 C662 1.378 . S
C655 C654 1.367 . S
C655 C663 1.433 1_554 S
C656 H652 0.929 . S
C656 C658 1.378 . S
C656 C660 1.350 . S
C657 C660 1.463 1_554 S
C657 C662 1.350 . S
C657 N665 1.427 1_554 S
C658 H649 0.930 . S
C658 C656 1.378 . S
C658 C659 1.367 . S
C659 C658 1.367 . S
C659 C661 1.433 1_556 S
C660 C656 1.350 . S
C660 C657 1.463 1_556 S
C660 N664 1.427 1_556 S
C661 H651 0.929 . S
C661 C659 1.433 1_554 S
C661 N664 1.384 . S
C662 H653 0.929 . S
C662 C654 1.378 . S
C662 C657 1.350 . S
C663 H650 0.929 . S
C663 C655 1.433 1_556 S
C663 N665 1.384 . S
N664 C660 1.427 1_554 S
N664 C661 1.384 . S
N665 C657 1.427 1_556 S
N665 C663 1.384 . S
H666 C672 0.930 . S
H667 C676 0.930 . S
H668 C681 0.929 . S
H669 C679 0.929 . S
H670 C674 0.929 . S
H671 C680 0.929 . S
C672 H666 0.930 . S
C672 C673 1.367 1_554 S
C672 C680 1.378 . S
C673 C672 1.367 1_556 S
C673 C681 1.433 . S
C674 H670 0.929 . S
C674 C676 1.378 . S
C674 C678 1.350 1_556 S
C675 C678 1.463 1_556 S
C675 C680 1.350 1_556 S
C675 N683 1.427 . S
C676 H667 0.930 . S
C676 C674 1.378 . S
C676 C677 1.367 1_556 S
C677 C676 1.367 1_554 S
C677 C679 1.433 . S
C678 C674 1.350 1_554 S
C678 C675 1.463 1_554 S
C678 N682 1.427 . S
C679 H669 0.929 . S
C679 C677 1.433 . S
C679 N682 1.384 . S
C680 H671 0.929 . S
C680 C672 1.378 . S
C680 C675 1.350 1_554 S
C681 H668 0.929 . S
C681 C673 1.433 . S
C681 N683 1.384 . S
N682 C678 1.427 . S
N682 C679 1.384 . S
N683 C675 1.427 . S
N683 C681 1.384 . S
H684 C690 0.930 . S
H685 C694 0.930 . S
H686 C699 0.929 . S
H687 C697 0.929 . S
H688 C692 0.929 . S
H689 C698 0.929 . S
C690 H684 0.930 . S
C690 C691 1.367 . S
C690 C698 1.378 . S
C691 C690 1.367 . S
C691 C699 1.433 . S
C692 H688 0.929 . S
C692 C694 1.378 . S
C692 C696 1.350 . S
C693 C696 1.463 . S
C693 C698 1.350 . S
C693 N701 1.427 . S
C694 H685 0.930 . S
C694 C692 1.378 . S
C694 C695 1.367 . S
C695 C694 1.367 . S
C695 C697 1.433 . S
C696 C692 1.350 . S
C696 C693 1.463 . S
C696 N700 1.427 . S
C697 H687 0.929 . S
C697 C695 1.433 . S
C697 N700 1.384 . S
C698 H689 0.929 . S
C698 C690 1.378 . S
C698 C693 1.350 . S
C699 H686 0.929 . S
C699 C691 1.433 . S
C699 N701 1.384 . S
N700 C696 1.427 . S
N700 C697 1.384 . S
N701 C693 1.427 . S
N701 C699 1.384 . S
H702 C708 0.930 . S
H703 C712 0.930 . S
H704 C717 0.929 . S
H705 C715 0.929 . S
H706 C710 0.929 . S
H707 C716 0.929 . S
C708 H702 0.930 . S
C708 C709 1.367 . S
C708 C716 1.378 . S
C709 C708 1.367 . S
C709 C717 1.433 . S
C710 H706 0.929 . S
C710 C712 1.378 . S
C710 C714 1.350 . S
C711 C714 1.463 . S
C711 C716 1.350 . S
C711 N719 1.427 . S
C712 H703 0.930 . S
C712 C710 1.378 . S
C712 C713 1.367 . S
C713 C712 1.367 . S
C713 C715 1.433 . S
C714 C710 1.350 . S
C714 C711 1.463 . S
C714 N718 1.427 . S
C715 H705 0.929 . S
C715 C713 1.433 . S
C715 N718 1.384 . S
C716 H707 0.929 . S
C716 C708 1.378 . S
C716 C711 1.350 . S
C717 H704 0.929 . S
C717 C709 1.433 . S
C717 N719 1.384 . S
N718 C714 1.427 . S
N718 C715 1.384 . S
N719 C711 1.427 . S
N719 C717 1.384 . S
H720 C726 0.930 . S
H721 C730 0.930 . S
H722 C735 0.929 . S
H723 C733 0.929 . S
H724 C728 0.929 . S
H725 C734 0.929 . S
C726 H720 0.930 . S
C726 C727 1.367 . S
C726 C734 1.378 . S
C727 C726 1.367 . S
C727 C735 1.433 . S
C728 H724 0.929 . S
C728 C730 1.378 . S
C728 C732 1.350 . S
C729 C732 1.463 . S
C729 C734 1.350 . S
C729 N737 1.427 . S
C730 H721 0.930 . S
C730 C728 1.378 . S
C730 C731 1.367 . S
C731 C730 1.367 . S
C731 C733 1.433 . S
C732 C728 1.350 . S
C732 C729 1.463 . S
C732 N736 1.427 . S
C733 H723 0.929 . S
C733 C731 1.433 . S
C733 N736 1.384 . S
C734 H725 0.929 . S
C734 C726 1.378 . S
C734 C729 1.350 . S
C735 H722 0.929 . S
C735 C727 1.433 . S
C735 N737 1.384 . S
N736 C732 1.427 . S
N736 C733 1.384 . S
N737 C729 1.427 . S
N737 C735 1.384 . S
H738 C744 0.930 . S
H739 C748 0.930 . S
H740 C753 0.929 . S
H741 C751 0.929 . S
H742 C746 0.929 . S
H743 C752 0.929 . S
C744 H738 0.930 . S
C744 C745 1.367 . S
C744 C752 1.378 . S
C745 C744 1.367 . S
C745 C753 1.433 . S
C746 H742 0.929 . S
C746 C748 1.378 . S
C746 C750 1.350 . S
C747 C750 1.463 . S
C747 C752 1.350 . S
C747 N755 1.427 . S
C748 H739 0.930 . S
C748 C746 1.378 . S
C748 C749 1.367 . S
C749 C748 1.367 . S
C749 C751 1.433 . S
C750 C746 1.350 . S
C750 C747 1.463 . S
C750 N754 1.427 . S
C751 H741 0.929 . S
C751 C749 1.433 . S
C751 N754 1.384 . S
C752 H743 0.929 . S
C752 C744 1.378 . S
C752 C747 1.350 . S
C753 H740 0.929 . S
C753 C745 1.433 . S
C753 N755 1.384 . S
N754 C750 1.427 . S
N754 C751 1.384 . S
N755 C747 1.427 . S
N755 C753 1.384 . S
H756 C762 0.930 . S
H757 C766 0.930 1_565 S
H758 C771 0.929 . S
H759 C769 0.929 1_565 S
H760 C764 0.929 . S
H761 C770 0.929 . S
C762 H756 0.930 . S
C762 C763 1.367 . S
C762 C770 1.378 . S
C763 C762 1.367 . S
C763 C771 1.433 . S
C764 H760 0.929 . S
C764 C766 1.378 . S
C764 C768 1.350 . S
C765 C768 1.463 . S
C765 C770 1.350 . S
C765 N773 1.427 . S
C766 H757 0.930 1_545 S
C766 C764 1.378 . S
C766 C767 1.367 1_545 S
C767 C766 1.367 1_565 S
C767 C769 1.433 1_565 S
C768 C764 1.350 . S
C768 C765 1.463 . S
C768 N772 1.427 . S
C769 H759 0.929 1_545 S
C769 C767 1.433 1_545 S
C769 N772 1.384 . S
C770 H761 0.929 . S
C770 C762 1.378 . S
C770 C765 1.350 . S
C771 H758 0.929 . S
C771 C763 1.433 . S
C771 N773 1.384 . S
N772 C768 1.427 . S
N772 C769 1.384 . S
N773 C765 1.427 . S
N773 C771 1.384 . S
H774 C780 0.930 . S
H775 C784 0.930 . S
H776 C789 0.929 . S
H777 C787 0.929 . S
H778 C782 0.929 . S
H779 C788 0.929 . S
C780 H774 0.930 . S
C780 C781 1.367 . S
C780 C788 1.378 . S
C781 C780 1.367 . S
C781 C789 1.433 . S
C782 H778 0.929 . S
C782 C784 1.378 . S
C782 C786 1.350 . S
C783 C786 1.463 . S
C783 C788 1.350 . S
C783 N791 1.427 . S
C784 H775 0.930 . S
C784 C782 1.378 . S
C784 C785 1.367 . S
C785 C784 1.367 . S
C785 C787 1.433 . S
C786 C782 1.350 . S
C786 C783 1.463 . S
C786 N790 1.427 . S
C787 H777 0.929 . S
C787 C785 1.433 . S
C787 N790 1.384 . S
C788 H779 0.929 . S
C788 C780 1.378 . S
C788 C783 1.350 . S
C789 H776 0.929 . S
C789 C781 1.433 . S
C789 N791 1.384 . S
N790 C786 1.427 . S
N790 C787 1.384 . S
N791 C783 1.427 . S
N791 C789 1.384 . S
H792 C798 0.930 . S
H793 C802 0.930 . S
H794 C807 0.929 . S
H795 C805 0.929 . S
H796 C800 0.929 . S
H797 C806 0.929 . S
C798 H792 0.930 . S
C798 C799 1.367 . S
C798 C806 1.378 . S
C799 C798 1.367 . S
C799 C807 1.433 . S
C800 H796 0.929 . S
C800 C802 1.378 . S
C800 C804 1.350 . S
C801 C804 1.463 . S
C801 C806 1.350 . S
C801 N809 1.427 . S
C802 H793 0.930 . S
C802 C800 1.378 . S
C802 C803 1.367 . S
C803 C802 1.367 . S
C803 C805 1.433 . S
C804 C800 1.350 . S
C804 C801 1.463 . S
C804 N808 1.427 . S
C805 H795 0.929 . S
C805 C803 1.433 . S
C805 N808 1.384 . S
C806 H797 0.929 . S
C806 C798 1.378 . S
C806 C801 1.350 . S
C807 H794 0.929 . S
C807 C799 1.433 . S
C807 N809 1.384 . S
N808 C804 1.427 . S
N808 C805 1.384 . S
N809 C801 1.427 . S
N809 C807 1.384 . S
H810 C816 0.930 . S
H811 C820 0.930 . S
H812 C825 0.929 . S
H813 C823 0.929 . S
H814 C818 0.929 . S
H815 C824 0.929 . S
C816 H810 0.930 . S
C816 C817 1.367 . S
C816 C824 1.378 . S
C817 C816 1.367 . S
C817 C825 1.433 . S
C818 H814 0.929 . S
C818 C820 1.378 . S
C818 C822 1.350 . S
C819 C822 1.463 . S
C819 C824 1.350 . S
C819 N827 1.427 . S
C820 H811 0.930 . S
C820 C818 1.378 . S
C820 C821 1.367 . S
C821 C820 1.367 . S
C821 C823 1.433 . S
C822 C818 1.350 . S
C822 C819 1.463 . S
C822 N826 1.427 . S
C823 H813 0.929 . S
C823 C821 1.433 . S
C823 N826 1.384 . S
C824 H815 0.929 . S
C824 C816 1.378 . S
C824 C819 1.350 . S
C825 H812 0.929 . S
C825 C817 1.433 . S
C825 N827 1.384 . S
N826 C822 1.427 . S
N826 C823 1.384 . S
N827 C819 1.427 . S
N827 C825 1.384 . S
H828 C834 0.930 . S
H829 C838 0.930 . S
H830 C843 0.929 . S
H831 C841 0.929 . S
H832 C836 0.929 . S
H833 C842 0.929 . S
C834 H828 0.930 . S
C834 C835 1.367 . S
C834 C842 1.378 . S
C835 C834 1.367 . S
C835 C843 1.433 . S
C836 H832 0.929 . S
C836 C838 1.378 . S
C836 C840 1.350 . S
C837 C840 1.463 . S
C837 C842 1.350 . S
C837 N845 1.427 . S
C838 H829 0.930 . S
C838 C836 1.378 . S
C838 C839 1.367 . S
C839 C838 1.367 . S
C839 C841 1.433 . S
C840 C836 1.350 . S
C840 C837 1.463 . S
C840 N844 1.427 . S
C841 H831 0.929 . S
C841 C839 1.433 . S
C841 N844 1.384 . S
C842 H833 0.929 . S
C842 C834 1.378 . S
C842 C837 1.350 . S
C843 H830 0.929 . S
C843 C835 1.433 . S
C843 N845 1.384 . S
N844 C840 1.427 . S
N844 C841 1.384 . S
N845 C837 1.427 . S
N845 C843 1.384 . S
C367 C9 1.364 . S
C371 C18 1.364 . S
C385 C49 1.370 . S
C389 C58 1.370 . S
C403 C89 1.359 . S
C407 C98 1.359 . S
C421 C138 1.369 . S
C425 C129 1.368 1_556 S
C439 C178 1.372 . S
C443 C169 1.372 1_556 S
C457 C218 1.359 . S
C461 C209 1.359 1_556 S
C475 C259 1.292 . S
C479 C250 1.292 . S
C493 C299 1.301 . S
C497 C290 1.301 . S
C511 C339 1.300 . S
C515 C330 1.311 . S
C529 C210 2.617 . S
C533 C6 2.563 . S
C547 C46 2.564 . S
C551 C130 2.615 . S
C565 C86 2.565 1_565 S
C569 C170 2.615 . S
C583 C90 2.184 . S
C587 C249 2.320 . S
C601 C289 2.313 . S
C605 C10 2.177 . S
C619 C329 2.316 . S
C623 C50 2.172 . S
C637 C326 1.035 . S
C641 C15 1.030 . S
C655 C55 1.034 . S
C659 C246 1.025 . S
C673 C286 1.036 . S
C677 C95 1.033 . S
C691 C99 2.617 . S
C695 C135 2.566 . S
C709 C175 2.560 . S
C713 C19 2.613 . S
C727 C59 2.613 . S
C731 C215 2.557 . S
C745 C335 1.028 . S
C749 C126 1.031 . S
C763 C255 1.036 . S
C767 C166 1.033 . S
C781 C295 1.032 . S
C785 C206 1.029 . S
C799 C258 2.321 . S
C803 C219 2.180 . S
C817 C139 2.183 . S
C821 C298 2.314 . S
C835 C338 2.317 . S
C839 C179 2.187 . S
