# Generated by pormake.
# Topology unp, (4)-cn, num edge types: 1
# Building blocks:
#     Node 0, Type 0, BuildingBlock: AZAVOO_clean_sbu_0, # of connection points: 4
#     Node 1, Type 0, BuildingBlock: AZAVOO_clean_sbu_0, # of connection points: 4
#     Node 2, Type 0, BuildingBlock: AZAVOO_clean_sbu_0, # of connection points: 4
#     Node 3, Type 0, BuildingBlock: AZAVOO_clean_sbu_0, # of connection points: 4
#     Node 4, Type 0, BuildingBlock: AZAVOO_clean_sbu_0, # of connection points: 4
#     Node 5, Type 0, BuildingBlock: AZAVOO_clean_sbu_0, # of connection points: 4
#     Node 6, Type 0, BuildingBlock: AZAVOO_clean_sbu_0, # of connection points: 4
#     Node 7, Type 0, BuildingBlock: AZAVOO_clean_sbu_0, # of connection points: 4
#     Node 8, Type 0, BuildingBlock: AZAVOO_clean_sbu_0, # of connection points: 4
#     Node 9, Type 0, BuildingBlock: AZAVOO_clean_sbu_0, # of connection points: 4
#     Node 10, Type 0, BuildingBlock: AZAVOO_clean_sbu_0, # of connection points: 4
#     Node 11, Type 0, BuildingBlock: AZAVOO_clean_sbu_0, # of connection points: 4
#     Node 12, Type 0, BuildingBlock: AZAVOO_clean_sbu_0, # of connection points: 4
#     Node 13, Type 0, BuildingBlock: AZAVOO_clean_sbu_0, # of connection points: 4
#     Node 14, Type 0, BuildingBlock: AZAVOO_clean_sbu_0, # of connection points: 4
#     Node 15, Type 0, BuildingBlock: AZAVOO_clean_sbu_0, # of connection points: 4
#     Node 16, Type 0, BuildingBlock: AZAVOO_clean_sbu_0, # of connection points: 4
#     Node 17, Type 0, BuildingBlock: AZAVOO_clean_sbu_0, # of connection points: 4
#     Edge 18, Type (0, 0), BuildingBlock: TEMPAE_clean_linker_10, # of connection points: 2
#     Edge 19, Type (0, 0), BuildingBlock: TEMPAE_clean_linker_10, # of connection points: 2
#     Edge 20, Type (0, 0), BuildingBlock: TEMPAE_clean_linker_10, # of connection points: 2
#     Edge 21, Type (0, 0), BuildingBlock: TEMPAE_clean_linker_10, # of connection points: 2
#     Edge 22, Type (0, 0), BuildingBlock: TEMPAE_clean_linker_10, # of connection points: 2
#     Edge 23, Type (0, 0), BuildingBlock: TEMPAE_clean_linker_10, # of connection points: 2
#     Edge 24, Type (0, 0), BuildingBlock: TEMPAE_clean_linker_10, # of connection points: 2
#     Edge 25, Type (0, 0), BuildingBlock: TEMPAE_clean_linker_10, # of connection points: 2
#     Edge 26, Type (0, 0), BuildingBlock: TEMPAE_clean_linker_10, # of connection points: 2
#     Edge 27, Type (0, 0), BuildingBlock: TEMPAE_clean_linker_10, # of connection points: 2
#     Edge 28, Type (0, 0), BuildingBlock: TEMPAE_clean_linker_10, # of connection points: 2
#     Edge 29, Type (0, 0), BuildingBlock: TEMPAE_clean_linker_10, # of connection points: 2
#     Edge 30, Type (0, 0), BuildingBlock: TEMPAE_clean_linker_10, # of connection points: 2
#     Edge 31, Type (0, 0), BuildingBlock: TEMPAE_clean_linker_10, # of connection points: 2
#     Edge 32, Type (0, 0), BuildingBlock: TEMPAE_clean_linker_10, # of connection points: 2
#     Edge 33, Type (0, 0), BuildingBlock: TEMPAE_clean_linker_10, # of connection points: 2
#     Edge 34, Type (0, 0), BuildingBlock: TEMPAE_clean_linker_10, # of connection points: 2
#     Edge 35, Type (0, 0), BuildingBlock: TEMPAE_clean_linker_10, # of connection points: 2
#     Edge 36, Type (0, 0), BuildingBlock: TEMPAE_clean_linker_10, # of connection points: 2
#     Edge 37, Type (0, 0), BuildingBlock: TEMPAE_clean_linker_10, # of connection points: 2
#     Edge 38, Type (0, 0), BuildingBlock: TEMPAE_clean_linker_10, # of connection points: 2
#     Edge 39, Type (0, 0), BuildingBlock: TEMPAE_clean_linker_10, # of connection points: 2
#     Edge 40, Type (0, 0), BuildingBlock: TEMPAE_clean_linker_10, # of connection points: 2
#     Edge 41, Type (0, 0), BuildingBlock: TEMPAE_clean_linker_10, # of connection points: 2
#     Edge 42, Type (0, 0), BuildingBlock: TEMPAE_clean_linker_10, # of connection points: 2
#     Edge 43, Type (0, 0), BuildingBlock: TEMPAE_clean_linker_10, # of connection points: 2
#     Edge 44, Type (0, 0), BuildingBlock: TEMPAE_clean_linker_10, # of connection points: 2
#     Edge 45, Type (0, 0), BuildingBlock: TEMPAE_clean_linker_10, # of connection points: 2
#     Edge 46, Type (0, 0), BuildingBlock: TEMPAE_clean_linker_10, # of connection points: 2
#     Edge 47, Type (0, 0), BuildingBlock: TEMPAE_clean_linker_10, # of connection points: 2
#     Edge 48, Type (0, 0), BuildingBlock: TEMPAE_clean_linker_10, # of connection points: 2
#     Edge 49, Type (0, 0), BuildingBlock: TEMPAE_clean_linker_10, # of connection points: 2
#     Edge 50, Type (0, 0), BuildingBlock: TEMPAE_clean_linker_10, # of connection points: 2
#     Edge 51, Type (0, 0), BuildingBlock: TEMPAE_clean_linker_10, # of connection points: 2
#     Edge 52, Type (0, 0), BuildingBlock: TEMPAE_clean_linker_10, # of connection points: 2
#     Edge 53, Type (0, 0), BuildingBlock: TEMPAE_clean_linker_10, # of connection points: 2
# Relax obj value: 0.365
# Max RMSD: 0.197
# Mean RMSD: 0.187
data_MOF--net-unp--node1-AZAVOO_clean_sbu_0--edge1-TEMPAE_clean_linker_10
_symmetry_space_group_name_H-M    P1
_symmetry_Int_Tables_number       1
_symmetry_cell_setting            triclinic
loop_
_symmetry_equiv_pos_as_xyz
'x, y, z'
_cell_length_a     42.548974
_cell_length_b     42.566281
_cell_length_c     77.393991
_cell_angle_alpha  90.062608
_cell_angle_beta   89.889883
_cell_angle_gamma 120.60257
loop_
_atom_site_label
_atom_site_type_symbol
_atom_site_fract_x
_atom_site_fract_y
_atom_site_fract_z
_atom_type_partial_charge
Mg0 Mg 0.15752 0.23434 0.08511 0.0
O1 O 0.14481 0.17509 0.08452 0.0
O2 O 0.09929 0.14436 0.06576 0.0
Mg3 Mg 0.08521 0.18421 0.05303 0.0
C4 C 0.12182 0.14545 0.07698 0.0
C5 C 0.20818 0.26318 0.11664 0.0
O6 O 0.17982 0.26568 0.12126 0.0
O7 O 0.18957 0.24638 0.05939 0.0
O8 O 0.14229 0.21693 0.0413 0.0
O9 O 0.11198 0.21566 0.10448 0.0
O10 O 0.10463 0.21734 0.07637 0.0
C11 C 0.17645 0.23717 0.04413 0.0
C12 C 0.09018 0.20713 0.09142 0.0
O13 O 0.20835 0.25087 0.10166 0.0
Mg14 Mg 0.75247 0.93669 0.08764 0.0
O15 O 0.81275 0.98143 0.08545 0.0
O16 O 0.84133 0.96049 0.06897 0.0
Mg17 Mg 0.79868 0.90369 0.05911 0.0
C18 C 0.84173 0.98529 0.07845 0.0
C19 C 0.70734 0.96551 0.10618 0.0
O20 O 0.68184 0.93214 0.10207 0.0
O21 O 0.74156 0.95133 0.06032 0.0
O22 O 0.7687 0.9274 0.04475 0.0
O23 O 0.7693 0.91342 0.10937 0.0
O24 O 0.76612 0.89698 0.0821 0.0
C25 C 0.75009 0.94323 0.04579 0.0
C26 C 0.77626 0.89613 0.09763 0.0
O27 O 0.73994 0.9769 0.10127 0.0
Mg28 Mg 0.04591 0.83424 0.08522 0.0
O29 O 0.00094 0.84918 0.08691 0.0
O30 O 0.01844 0.89894 0.07078 0.0
Mg31 Mg 0.07132 0.9128 0.05685 0.0
C32 C -0.00405 0.87447 0.08117 0.0
C33 C 0.02591 0.77523 0.11247 0.0
O34 O 0.0607 0.7988 0.11509 0.0
O35 O 0.02438 0.80707 0.05849 0.0
O36 O 0.04156 0.8578 0.0432 0.0
O37 O 0.07537 0.8762 0.10602 0.0
O38 O 0.08411 0.88761 0.07807 0.0
C39 C 0.02636 0.82314 0.04419 0.0
C40 C 0.08982 0.89974 0.09362 0.0
O41 O 0.00979 0.78124 0.1002 0.0
Mg42 Mg 0.22567 0.1564 0.89036 0.0
O43 O 0.16533 0.13979 0.8876 0.0
O44 O 0.13144 0.09028 0.90379 0.0
Mg45 Mg 0.17006 0.07833 0.91903 0.0
C46 C 0.13433 0.11432 0.89301 0.0
C47 C 0.23142 0.2036 0.85876 0.0
O48 O 0.20954 0.17019 0.85321 0.0
O49 O 0.22879 0.18441 0.91662 0.0
O50 O 0.19375 0.13384 0.93195 0.0
O51 O 0.2151 0.11372 0.8703 0.0
O52 O 0.21012 0.10342 0.89835 0.0
C53 C 0.21316 0.16853 0.93079 0.0
C54 C 0.20476 0.09067 0.88292 0.0
O55 O 0.24247 0.20819 0.87435 0.0
Mg56 Mg 0.83028 0.05345 0.88816 0.0
O57 O 0.8453 0.00848 0.88687 0.0
O58 O 0.89597 0.02707 0.90244 0.0
Mg59 Mg 0.91064 0.0809 0.91556 0.0
C60 C 0.87095 0.00392 0.89249 0.0
C61 C 0.77855 0.00663 0.85868 0.0
O62 O 0.8109 0.01584 0.85249 0.0
O63 O 0.80482 0.03378 0.91538 0.0
O64 O 0.85648 0.05243 0.93007 0.0
O65 O 0.87054 0.08141 0.86658 0.0
O66 O 0.88436 0.09212 0.89423 0.0
C67 C 0.82175 0.03711 0.92956 0.0
C68 C 0.89519 0.09628 0.87846 0.0
O69 O 0.77636 0.01628 0.87401 0.0
Mg70 Mg 0.92986 0.75624 0.88622 0.0
O71 O 0.97696 0.81557 0.88811 0.0
O72 O 0.95896 0.84613 0.905 0.0
Mg73 Mg 0.90187 0.8057 0.91546 0.0
C74 C 0.98262 0.84514 0.89518 0.0
C75 C 0.98599 0.75795 0.85933 0.0
O76 O 0.98524 0.78716 0.85452 0.0
O77 O 0.94437 0.74416 0.91326 0.0
O78 O 0.92344 0.7733 0.92945 0.0
O79 O 0.90722 0.77483 0.86486 0.0
O80 O 0.89257 0.77271 0.89236 0.0
C81 C 0.9376 0.75324 0.92796 0.0
C82 C 0.89135 0.78293 0.8769 0.0
O83 O 0.96716 0.73995 0.87237 0.0
Mg84 Mg 0.82243 0.5534 0.42067 0.0
O85 O 0.80864 0.49358 0.42255 0.0
O86 O 0.76089 0.45981 0.40536 0.0
Mg87 Mg 0.74797 0.49787 0.39038 0.0
C88 C 0.78439 0.46269 0.41646 0.0
C89 C 0.87019 0.55964 0.45234 0.0
O90 O 0.8373 0.53562 0.45783 0.0
O91 O 0.85285 0.56068 0.39482 0.0
O92 O 0.80469 0.52453 0.37819 0.0
O93 O 0.77804 0.53923 0.44023 0.0
O94 O 0.76956 0.536 0.41202 0.0
C95 C 0.83898 0.54561 0.3803 0.0
C96 C 0.75577 0.529 0.42729 0.0
O97 O 0.87396 0.57176 0.43698 0.0
Mg98 Mg 0.4207 0.25407 0.41891 0.0
O99 O 0.4806 0.30102 0.41896 0.0
O100 O 0.51283 0.28339 0.40305 0.0
Mg101 Mg 0.47359 0.22799 0.39094 0.0
C102 C 0.51095 0.30656 0.41284 0.0
C103 C 0.38327 0.27479 0.4463 0.0
O104 O 0.37435 0.24108 0.44992 0.0
O105 O 0.41231 0.27144 0.39166 0.0
O106 O 0.44483 0.25298 0.37664 0.0
O107 O 0.43612 0.22917 0.44051 0.0
O108 O 0.4374 0.21683 0.41293 0.0
C109 C 0.42464 0.26712 0.37729 0.0
C110 C 0.44559 0.21421 0.42861 0.0
O111 O 0.40321 0.29005 0.43311 0.0
Mg112 Mg 0.7187 0.1582 0.41837 0.0
O113 O 0.6743 0.17377 0.42067 0.0
O114 O 0.69334 0.22581 0.40616 0.0
Mg115 Mg 0.74696 0.24089 0.39263 0.0
C116 C 0.67001 0.20002 0.41576 0.0
C117 C 0.69685 0.09639 0.44398 0.0
O118 O 0.73164 0.11943 0.44691 0.0
O119 O 0.69809 0.13494 0.39087 0.0
O120 O 0.71711 0.18794 0.37733 0.0
O121 O 0.74722 0.19679 0.44046 0.0
O122 O 0.75787 0.2124 0.41298 0.0
C123 C 0.70121 0.15317 0.37716 0.0
C124 C 0.76253 0.22215 0.42891 0.0
O125 O 0.68126 0.10362 0.4319 0.0
Mg126 Mg 0.88343 0.50096 0.22097 0.0
O127 O 0.82379 0.48772 0.2206 0.0
O128 O 0.79181 0.4416 0.23893 0.0
Mg129 Mg 0.83118 0.42879 0.25288 0.0
C130 C 0.7936 0.46428 0.22762 0.0
C131 C 0.9111 0.55188 0.18902 0.0
O132 O 0.9116 0.52292 0.18353 0.0
O133 O 0.89387 0.53295 0.24651 0.0
O134 O 0.86062 0.48616 0.26445 0.0
O135 O 0.86631 0.45527 0.20185 0.0
O136 O 0.86638 0.4484 0.23009 0.0
C137 C 0.88149 0.52019 0.26156 0.0
C138 C 0.85739 0.43372 0.21504 0.0
O139 O 0.90049 0.55197 0.2044 0.0
Mg140 Mg 0.48521 0.39641 0.22309 0.0
O141 O 0.49935 0.35089 0.22284 0.0
O142 O 0.54959 0.3698 0.23879 0.0
Mg143 Mg 0.56525 0.42497 0.25085 0.0
C144 C 0.52457 0.34621 0.22897 0.0
C145 C 0.4265 0.37528 0.19612 0.0
O146 O 0.45098 0.40964 0.19312 0.0
O147 O 0.45936 0.37818 0.25037 0.0
O148 O 0.51108 0.39889 0.26533 0.0
O149 O 0.5258 0.42274 0.20145 0.0
O150 O 0.5393 0.43502 0.22905 0.0
C151 C 0.47635 0.38359 0.26472 0.0
C152 C 0.5503 0.43843 0.21334 0.0
O153 O 0.43151 0.35945 0.20886 0.0
Mg154 Mg 0.584 0.09717 0.22122 0.0
O155 O 0.63131 0.15665 0.2227 0.0
O156 O 0.61452 0.18624 0.24097 0.0
Mg157 Mg 0.55873 0.14562 0.25253 0.0
C158 C 0.63732 0.18587 0.23031 0.0
C159 C 0.63035 0.09476 0.19059 0.0
O160 O 0.62318 0.11975 0.18525 0.0
O161 O 0.60149 0.08462 0.24744 0.0
O162 O 0.58187 0.11304 0.26492 0.0
O163 O 0.55885 0.1158 0.20112 0.0
O164 O 0.54728 0.11348 0.229 0.0
C165 C 0.59606 0.0932 0.26255 0.0
C166 C 0.54445 0.12392 0.21382 0.0
O167 O 0.61948 0.08098 0.20554 0.0
Mg168 Mg 0.50003 0.87859 0.75261 0.0
O169 O 0.48477 0.81838 0.75313 0.0
O170 O 0.43819 0.78704 0.735 0.0
Mg171 Mg 0.42719 0.82758 0.72095 0.0
C172 C 0.46069 0.78834 0.74628 0.0
C173 C 0.56762 0.92474 0.77606 0.0
O174 O 0.55739 0.94845 0.77262 0.0
O175 O 0.53179 0.88801 0.72704 0.0
O176 O 0.48454 0.85512 0.70932 0.0
O177 O 0.45485 0.86328 0.77179 0.0
O178 O 0.44797 0.86333 0.74352 0.0
C179 C 0.51872 0.87532 0.71208 0.0
C180 C 0.43333 0.855 0.75861 0.0
O181 O 0.55009 0.89319 0.76926 0.0
Mg182 Mg 0.09212 0.59157 0.75423 0.0
O183 O 0.15221 0.63718 0.75187 0.0
O184 O 0.18019 0.61688 0.73455 0.0
Mg185 Mg 0.13778 0.56047 0.72428 0.0
C186 C 0.18094 0.64128 0.74447 0.0
C187 C 0.09549 0.64755 0.78171 0.0
O188 O 0.12365 0.64505 0.78669 0.0
O189 O 0.07986 0.60677 0.72741 0.0
O190 O 0.10668 0.58407 0.71077 0.0
O191 O 0.11017 0.56802 0.77535 0.0
O192 O 0.10655 0.55282 0.74786 0.0
C193 C 0.08782 0.59948 0.71255 0.0
C194 C 0.11728 0.55159 0.76321 0.0
O195 O 0.07784 0.63007 0.76834 0.0
Mg196 Mg 0.37955 0.47866 0.75095 0.0
O197 O 0.3375 0.49742 0.75276 0.0
O198 O 0.35887 0.54924 0.73777 0.0
Mg199 Mg 0.41181 0.56114 0.72447 0.0
C200 C 0.3348 0.52444 0.74753 0.0
C201 C 0.35532 0.41112 0.77341 0.0
O202 O 0.39092 0.42598 0.77218 0.0
O203 O 0.35837 0.45484 0.72353 0.0
O204 O 0.38025 0.50784 0.70958 0.0
O205 O 0.40944 0.51752 0.77274 0.0
O206 O 0.42074 0.53185 0.74514 0.0
C207 C 0.36284 0.47301 0.70962 0.0
C208 C 0.4258 0.54223 0.76098 0.0
O209 O 0.3401 0.42556 0.76508 0.0
Mg210 Mg 0.5483 0.82215 0.55233 0.0
O211 O 0.48879 0.80954 0.55127 0.0
O212 O 0.45555 0.7629 0.56916 0.0
Mg213 Mg 0.49379 0.74949 0.58368 0.0
C214 C 0.45814 0.78604 0.55791 0.0
C215 C 0.57698 0.87286 0.52035 0.0
O216 O 0.57671 0.84345 0.51495 0.0
O217 O 0.558 0.85381 0.57798 0.0
O218 O 0.52248 0.80669 0.59533 0.0
O219 O 0.53172 0.77646 0.53321 0.0
O220 O 0.53055 0.7695 0.56148 0.0
C221 C 0.54396 0.84076 0.59278 0.0
C222 C 0.52237 0.75489 0.54641 0.0
O223 O 0.56653 0.87338 0.53572 0.0
Mg224 Mg 0.15264 0.71596 0.5553 0.0
O225 O 0.17024 0.67311 0.5536 0.0
O226 O 0.22246 0.69363 0.56811 0.0
Mg227 Mg 0.2357 0.74721 0.58114 0.0
C228 C 0.19694 0.66969 0.55863 0.0
C229 C 0.07966 0.68895 0.5361 0.0
O230 O 0.09029 0.72331 0.53918 0.0
O231 O 0.12963 0.69579 0.58286 0.0
O232 O 0.18281 0.71646 0.59651 0.0
O233 O 0.19088 0.74461 0.53313 0.0
O234 O 0.20635 0.75656 0.56059 0.0
C235 C 0.14798 0.69973 0.59663 0.0
C236 C 0.21614 0.76092 0.54466 0.0
O237 O 0.09881 0.67615 0.54193 0.0
Mg238 Mg 0.25074 0.41771 0.55271 0.0
O239 O 0.29823 0.47708 0.5545 0.0
O240 O 0.2803 0.50695 0.57195 0.0
Mg241 Mg 0.2238 0.46664 0.58287 0.0
C242 C 0.30378 0.50642 0.56182 0.0
C243 C 0.27404 0.38661 0.52316 0.0
O244 O 0.24239 0.38212 0.51838 0.0
O245 O 0.26613 0.40486 0.57945 0.0
O246 O 0.24583 0.43389 0.59606 0.0
O247 O 0.2278 0.43702 0.53186 0.0
O248 O 0.21381 0.43449 0.55946 0.0
C249 C 0.25986 0.41376 0.59432 0.0
C250 C 0.21257 0.44529 0.54412 0.0
O251 O 0.28687 0.40125 0.53778 0.0
C252 C 0.36877 0.31863 0.18673 0.0
C253 C 0.39427 0.35591 0.18461 0.0
C254 C 0.33831 0.30055 0.17574 0.0
C255 C 0.3332 0.32027 0.16238 0.0
C256 C 0.35905 0.35778 0.16011 0.0
C257 C 0.3892 0.37507 0.1712 0.0
C258 C 0.31138 0.26049 0.17852 0.0
C259 C 0.35457 0.3799 0.1461 0.0
C260 C 0.2704 0.27363 0.12401 0.0
C261 C 0.23951 0.27554 0.12864 0.0
C262 C 0.30066 0.28686 0.13514 0.0
C263 C 0.30004 0.30246 0.15123 0.0
C264 C 0.26855 0.30354 0.15614 0.0
C265 C 0.23873 0.29005 0.14483 0.0
C266 C 0.33368 0.28507 0.12947 0.0
C267 C 0.26678 0.32004 0.17315 0.0
H268 H 0.37256 0.30356 0.197 0.0
H269 H 0.40873 0.40385 0.1694 0.0
H270 H 0.28427 0.25652 0.18195 0.0
H271 H 0.30793 0.24509 0.16641 0.0
H272 H 0.3201 0.24866 0.18895 0.0
H273 H 0.37766 0.40857 0.14573 0.0
H274 H 0.35244 0.36724 0.1333 0.0
H275 H 0.3289 0.38017 0.14821 0.0
H276 H 0.27119 0.26228 0.11158 0.0
H277 H 0.21497 0.29151 0.1486 0.0
H278 H 0.34158 0.27208 0.13965 0.0
H279 H 0.35715 0.31312 0.12753 0.0
H280 H 0.3288 0.26957 0.11724 0.0
H281 H 0.27319 0.30719 0.18398 0.0
H282 H 0.23952 0.31682 0.17551 0.0
H283 H 0.28754 0.34959 0.17329 0.0
C284 C 0.66209 0.97665 0.12152 0.0
C285 C 0.69858 0.988 0.11767 0.0
C286 C 0.65315 -0.00395 0.13328 0.0
C287 C 0.68137 0.02746 0.14155 0.0
C288 C 0.71828 0.03944 0.13753 0.0
C289 C 0.72645 0.01967 0.12557 0.0
C290 C 0.61342 0.98259 0.13703 0.0
C291 C 0.74914 0.07269 0.14613 0.0
C292 C 0.65385 0.09183 0.16128 0.0
C293 C 0.64704 0.0801 0.17855 0.0
C294 C 0.6661 0.07573 0.14922 0.0
C295 C 0.67198 0.04733 0.15455 0.0
C296 C 0.66663 0.03638 0.17211 0.0
C297 C 0.65411 0.0528 0.18388 0.0
C298 C 0.67135 0.08814 0.13062 0.0
C299 C 0.67296 0.00646 0.17834 0.0
H300 H 0.64036 0.95232 0.11544 0.0
H301 H 0.75474 0.02858 0.12274 0.0
H302 H 0.60753 0.97522 0.15089 0.0
H303 H 0.60734 0.00459 0.13446 0.0
H304 H 0.59475 0.95839 0.12913 0.0
H305 H 0.77633 0.07902 0.14125 0.0
H306 H 0.74611 0.09677 0.14396 0.0
H307 H 0.74816 0.06827 0.16029 0.0
H308 H 0.64856 0.11295 0.15701 0.0
H309 H 0.64912 0.04365 0.1972 0.0
H310 H 0.65116 0.06555 0.12236 0.0
H311 H 0.6989 0.09525 0.12602 0.0
H312 H 0.66801 0.11217 0.12879 0.0
H313 H 0.65291 0.98021 0.17221 0.0
H314 H 0.67027 0.00303 0.1926 0.0
H315 H 0.70058 0.01239 0.1745 0.0
C316 C 0.92432 0.61564 0.18315 0.0
C317 C 0.92404 0.58413 0.17754 0.0
C318 C 0.93819 0.64676 0.17255 0.0
C319 C 0.95224 0.64641 0.15597 0.0
C320 C 0.95115 0.61438 0.15009 0.0
C321 C 0.93705 0.58369 0.16091 0.0
C322 C 0.93871 0.68033 0.17925 0.0
C323 C 0.96593 0.61286 0.13254 0.0
C324 C 0.9687 0.71829 0.12209 0.0
C325 C 0.00641 0.74253 0.12372 0.0
C326 C 0.95045 0.68725 0.13274 0.0
C327 C 0.97043 0.6802 0.14522 0.0
C328 C 0.0084 0.70477 0.147 0.0
C329 C 0.02586 0.73558 0.13629 0.0
C330 C 0.9099 0.66179 0.13052 0.0
C331 C 0.03079 0.6982 0.16006 0.0
H332 H 0.91417 0.6162 0.19593 0.0
H333 H 0.93684 0.55948 0.15638 0.0
H334 H 0.96736 0.70281 0.18091 0.0
H335 H 0.92571 0.68975 0.16979 0.0
H336 H 0.92436 0.67537 0.19184 0.0
H337 H 0.96126 0.58529 0.1295 0.0
H338 H 0.95296 0.62072 0.12234 0.0
H339 H -0.00428 0.6327 0.13204 0.0
H340 H 0.95342 0.72351 0.11249 0.0
H341 H 0.05498 0.75411 0.13768 0.0
H342 H 0.89566 0.6582 0.14303 0.0
H343 H 0.90444 0.63448 0.12642 0.0
H344 H 0.89803 0.67193 0.12078 0.0
H345 H 0.01936 0.6958 0.17321 0.0
H346 H 0.05988 0.72041 0.16014 0.0
H347 H 0.02958 0.67207 0.15717 0.0
C348 C 0.29867 0.36968 0.79049 0.0
C349 C 0.33425 0.37988 0.78531 0.0
C350 C 0.2797 0.34162 0.80266 0.0
C351 C 0.29653 0.32305 0.80964 0.0
C352 C 0.33219 0.33287 0.80422 0.0
C353 C 0.35063 0.36123 0.79223 0.0
C354 C 0.24184 0.33215 0.80821 0.0
C355 C 0.35097 0.31345 0.81113 0.0
C356 C 0.26629 0.27089 0.8522 0.0
C357 C 0.24553 0.23467 0.84646 0.0
C358 C 0.28179 0.3001 0.84039 0.0
C359 C 0.27689 0.29289 0.8224 0.0
C360 C 0.2552 0.25646 0.81657 0.0
C361 C 0.2396 0.22789 0.82865 0.0
C362 C 0.30428 0.33861 0.84713 0.0
C363 C 0.24963 0.24749 0.79753 0.0
H364 H 0.2859 0.38411 0.7853 0.0
H365 H 0.37807 0.36883 0.78828 0.0
H366 H 0.22204 0.30307 0.80533 0.0
H367 H 0.24125 0.33575 0.82239 0.0
H368 H 0.23266 0.3493 0.80167 0.0
H369 H 0.37854 0.32403 0.80543 0.0
H370 H 0.35376 0.3166 0.82537 0.0
H371 H 0.33422 0.2838 0.80835 0.0
H372 H 0.27082 0.27641 0.86592 0.0
H373 H 0.22365 0.20003 0.82404 0.0
H374 H 0.2948 0.35619 0.84137 0.0
H375 H 0.33325 0.35015 0.8433 0.0
H376 H 0.30289 0.3399 0.86143 0.0
H377 H 0.239 0.26344 0.79106 0.0
H378 H 0.23038 0.218 0.79512 0.0
H379 H 0.27621 0.25523 0.7914 0.0
C380 C 0.75064 0.9862 0.82941 0.0
C381 C 0.74613 0.98931 0.84718 0.0
C382 C 0.7211 0.97344 0.81794 0.0
C383 C 0.68598 0.96304 0.8244 0.0
C384 C 0.68088 0.9646 0.84241 0.0
C385 C 0.71106 0.97795 0.85359 0.0
C386 C 0.72781 0.97252 0.79883 0.0
C387 C 0.64374 0.95322 0.84983 0.0
C388 C 0.62026 0.97051 0.79381 0.0
C389 C 0.59812 0.93433 0.78825 0.0
C390 C 0.64879 0.98011 0.8056 0.0
C391 C 0.65521 0.95282 0.81215 0.0
C392 C 0.63286 0.91619 0.80667 0.0
C393 C 0.60472 0.90741 0.7947 0.0
C394 C 0.67226 0.01957 0.81094 0.0
C395 C 0.63863 0.88628 0.81348 0.0
H396 H 0.77759 -0.00511 0.8243 0.0
H397 H 0.70727 0.98006 0.8673 0.0
H398 H 0.70891 0.94501 0.79349 0.0
H399 H 0.72231 0.99209 0.79196 0.0
H400 H 0.7563 0.97968 0.79597 0.0
H401 H 0.64372 0.95311 0.86418 0.0
H402 H 0.63487 0.97223 0.84534 0.0
H403 H 0.62327 0.92555 0.84518 0.0
H404 H 0.61543 0.99151 0.78888 0.0
H405 H 0.58761 0.87934 0.79056 0.0
H406 H 0.7012 0.02962 0.80754 0.0
H407 H 0.67094 0.02209 0.82515 0.0
H408 H 0.66372 0.03748 0.80465 0.0
H409 H 0.66641 0.89209 0.81004 0.0
H410 H 0.61835 0.85903 0.80826 0.0
H411 H 0.63671 0.8853 0.82779 0.0
C412 C 0.0488 0.66485 0.78903 0.0
C413 C 0.08247 0.66758 0.79249 0.0
C414 C 0.03476 0.68117 0.79996 0.0
C415 C 0.05497 0.70098 0.81465 0.0
C416 C 0.08947 0.70477 0.81793 0.0
C417 C 0.10274 0.68794 0.80685 0.0
C418 C -0.00217 0.67642 0.79602 0.0
C419 C 0.11203 0.72598 0.83334 0.0
C420 C 0.02843 0.76562 0.83506 0.0
C421 C 0.00591 0.74451 0.84876 0.0
C422 C 0.04533 0.75219 0.82412 0.0
C423 C 0.03938 0.71668 0.82685 0.0
C424 C 0.01741 0.69558 0.8409 0.0
C425 C 0.00107 0.70979 0.85172 0.0
C426 C 0.0689 0.77571 0.80941 0.0
C427 C 0.01032 0.65756 0.84423 0.0
H428 H 0.0329 0.64917 0.77798 0.0
H429 H 0.12885 0.69036 0.8096 0.0
H430 H 0.97862 0.66149 0.80675 0.0
H431 H 2e-05 0.70345 0.79498 0.0
H432 H 0.98604 0.66113 0.78382 0.0
H433 H 0.13912 0.72804 0.83357 0.0
H434 H 0.11625 0.75394 0.8333 0.0
H435 H 0.09726 0.71255 0.84544 0.0
H436 H 0.03253 0.79255 0.83271 0.0
H437 H 0.98372 0.69326 0.86225 0.0
H438 H 0.05636 0.76262 0.7969 0.0
H439 H 0.0962 0.77833 0.80995 0.0
H440 H 0.07253 0.80346 0.80964 0.0
H441 H -0.00418 0.63973 0.83304 0.0
H442 H -0.00638 0.64517 0.85603 0.0
H443 H 0.03654 0.65813 0.84566 0.0
C444 C 0.89592 0.56497 0.48199 0.0
C445 C 0.90162 0.57469 0.46445 0.0
C446 C 0.92462 0.58121 0.49398 0.0
C447 C 0.96004 0.60763 0.48829 0.0
C448 C 0.96631 0.61657 0.4705 0.0
C449 C 0.93701 0.60011 0.4588 0.0
C450 C 0.91672 0.57102 0.51283 0.0
C451 C 0.00377 0.64434 0.46389 0.0
C452 C 0.02462 0.67982 0.52007 0.0
C453 C 0.04778 0.66677 0.52473 0.0
C454 C -0.00425 0.66057 0.50843 0.0
C455 C 0.98999 0.62756 0.50109 0.0
C456 C 0.01293 0.61393 0.5059 0.0
C457 C 0.04145 0.63359 0.51773 0.0
C458 C 0.97163 0.67583 0.50382 0.0
C459 C 0.0078 0.57895 0.49829 0.0
H460 H 0.86872 0.54533 0.48651 0.0
H461 H 0.94175 0.60767 0.44527 0.0
H462 H 0.9357 0.56266 0.51795 0.0
H463 H 0.9212 0.59511 0.5204 0.0
H464 H 0.88824 0.54845 0.51502 0.0
H465 H 0.0047 0.64632 0.44957 0.0
H466 H 0.01201 0.67159 0.46932 0.0
H467 H 0.0242 0.63719 0.46822 0.0
H468 H 0.0292 0.70533 0.52545 0.0
H469 H 0.05931 0.62339 0.52118 0.0
H470 H 0.94267 0.65537 0.50664 0.0
H471 H 0.97368 0.68178 0.48978 0.0
H472 H 0.9791 0.70128 0.51103 0.0
H473 H 0.97967 0.55615 0.50085 0.0
H474 H 0.02748 0.57164 0.50362 0.0
H475 H 0.01131 0.58171 0.48406 0.0
C476 C 0.32699 0.37773 0.51648 0.0
C477 C 0.29348 0.37403 0.51168 0.0
C478 C 0.34453 0.3645 0.5058 0.0
C479 C 0.32811 0.34708 0.48998 0.0
C480 C 0.29477 0.34409 0.4849 0.0
C481 C 0.27794 0.3576 0.49578 0.0
C482 C 0.38016 0.36833 0.51162 0.0
C483 C 0.27624 0.32563 0.46819 0.0
C484 C 0.38131 0.3309 0.45485 0.0
C485 C 0.37025 0.29411 0.4576 0.0
C486 C 0.36863 0.3489 0.46556 0.0
C487 C 0.34419 0.32958 0.47927 0.0
C488 C 0.33333 0.29261 0.4822 0.0
C489 C 0.34652 0.2754 0.47138 0.0
C490 C 0.38094 0.3884 0.46208 0.0
C491 C 0.30713 0.2709 0.49657 0.0
H492 H 0.33931 0.39054 0.52869 0.0
H493 H 0.25216 0.35474 0.49187 0.0
H494 H 0.37633 0.34092 0.51407 0.0
H495 H 0.40106 0.38126 0.5013 0.0
H496 H 0.3907 0.38487 0.52359 0.0
H497 H 0.2514 0.32724 0.46568 0.0
H498 H 0.29534 0.33828 0.45718 0.0
H499 H 0.26829 0.29645 0.46862 0.0
H500 H 0.39979 0.34563 0.4443 0.0
H501 H 0.33782 0.247 0.47366 0.0
H502 H 0.39277 0.40487 0.47396 0.0
H503 H 0.35713 0.39091 0.4584 0.0
H504 H 0.40157 0.40014 0.45156 0.0
H505 H 0.31778 0.28488 0.50914 0.0
H506 H 0.30243 0.24279 0.49754 0.0
H507 H 0.28049 0.26906 0.49437 0.0
C508 C 0.69545 0.05545 0.46746 0.0
C509 C 0.67662 0.0633 0.45492 0.0
C510 C 0.67725 0.02457 0.47809 0.0
C511 C 0.63914 0.00083 0.47624 0.0
C512 C 0.61982 0.00867 0.46372 0.0
C513 C 0.63881 0.03979 0.45317 0.0
C514 C 0.69896 0.01715 0.49119 0.0
C515 C 0.57916 0.98407 0.46141 0.0
C516 C 0.60333 0.90403 0.49215 0.0
C517 C 0.59058 0.90506 0.50877 0.0
C518 C 0.61808 0.93462 0.48125 0.0
C519 C 0.62009 0.96715 0.48703 0.0
C520 C 0.60627 0.96809 0.50358 0.0
C521 C 0.59173 0.93706 0.51427 0.0
C522 C 0.63259 0.93245 0.46373 0.0
C523 C 0.60777 0.00222 0.51017 0.0
H524 H 0.72464 0.0734 0.46895 0.0
H525 H 0.62401 0.04571 0.44358 0.0
H526 H 0.68766 0.01524 0.50433 0.0
H527 H 0.69681 0.99056 0.48836 0.0
H528 H 0.72831 0.03869 0.49125 0.0
H529 H 0.56793 -0.0054 0.45153 0.0
H530 H 0.57295 0.95642 0.45746 0.0
H531 H 0.5649 0.98109 0.47385 0.0
H532 H 0.60244 0.87944 0.48772 0.0
H533 H 0.58178 0.93807 0.52704 0.0
H534 H 0.66254 0.95157 0.46326 0.0
H535 H 0.6202 0.94087 0.45348 0.0
H536 H 0.62703 0.90454 0.46075 0.0
H537 H 0.63665 0.02416 0.51185 0.0
H538 H 0.59342 -0.00229 0.52274 0.0
H539 H 0.59533 0.01211 0.50064 0.0
C540 C 0.03798 0.15348 0.10607 0.0
C541 C 0.05093 0.17951 0.0928 0.0
C542 C 0.00263 0.12266 0.10536 0.0
C543 C 0.97988 0.11798 0.09106 0.0
C544 C -0.00794 0.14543 0.07824 0.0
C545 C 0.02739 0.17588 0.0793 0.0
C546 C 0.99051 0.09408 0.11934 0.0
C547 C 0.96863 0.14162 0.06283 0.0
C548 C 0.90994 0.02258 0.07598 0.0
C549 C 0.87712 0.01911 0.08192 0.0
C550 C 0.94362 0.05424 0.07928 0.0
C551 C 0.94457 0.08328 0.08869 0.0
C552 C 0.91168 0.0798 0.09495 0.0
C553 C 0.87836 0.04777 0.0915 0.0
C554 C 0.97817 0.05682 0.07245 0.0
C555 C 0.91166 0.11011 0.10509 0.0
H556 H 0.05614 0.15604 0.11649 0.0
H557 H 0.0372 0.19616 0.0691 0.0
H558 H 0.96264 0.08593 0.12389 0.0
H559 H 0.98943 0.06932 0.11403 0.0
H560 H 0.00935 0.10381 0.13057 0.0
H561 H 0.98092 0.1667 0.05477 0.0
H562 H 0.96491 0.11853 0.05466 0.0
H563 H 0.94114 0.13536 0.06711 0.0
H564 H 0.90939 0.00055 0.0687 0.0
H565 H 0.85324 0.04535 0.09625 0.0
H566 H -0.00217 0.06303 0.08313 0.0
H567 H -0.00856 0.0795 0.06299 0.0
H568 H 0.97289 0.03122 0.06603 0.0
H569 H 0.93027 0.11766 0.11633 0.0
H570 H 0.88398 0.1024 0.10982 0.0
H571 H 0.92201 0.13477 0.09686 0.0
C572 C 0.83061 0.90137 0.11284 0.0
C573 C 0.80291 0.88415 0.10048 0.0
C574 C 0.86138 0.89723 0.11247 0.0
C575 C 0.86435 0.87555 0.09939 0.0
C576 C 0.83495 0.8557 0.08786 0.0
C577 C 0.80451 0.8601 0.08862 0.0
C578 C 0.89186 0.91835 0.1252 0.0
C579 C 0.8369 0.83228 0.07371 0.0
C580 C 0.95692 0.9029 0.08028 0.0
C581 C 0.96316 0.87573 0.08673 0.0
C582 C 0.9255 0.90386 0.08484 0.0
C583 C 0.89964 0.87709 0.09621 0.0
C584 C 0.90634 0.85043 0.1033 0.0
C585 C 0.93795 0.84995 0.09843 0.0
C586 C 0.91947 0.9329 0.07702 0.0
C587 C 0.87972 0.8219 0.11572 0.0
H588 H 0.82957 0.92008 0.12202 0.0
H589 H 0.78291 0.84641 0.07917 0.0
H590 H 0.90308 0.90148 0.12998 0.0
H591 H 0.91439 0.94261 0.11868 0.0
H592 H 0.88261 0.92788 0.13642 0.0
H593 H 0.81034 0.81572 0.067 0.0
H594 H 0.85767 0.85001 0.06402 0.0
H595 H 0.84549 0.81362 0.07903 0.0
H596 H 0.97633 0.92323 0.0714 0.0
H597 H 0.94266 0.82909 0.10366 0.0
H598 H 0.9149 0.94823 0.08734 0.0
H599 H 0.89463 0.91992 0.06882 0.0
H600 H 0.94294 0.95264 0.06898 0.0
H601 H 0.87299 0.83501 0.12635 0.0
H602 H 0.89058 0.80536 0.12138 0.0
H603 H 0.85386 0.80328 0.10889 0.0
C604 C 0.14584 0.11111 0.09336 0.0
C605 C 0.12013 0.11092 0.08192 0.0
C606 C 0.14431 0.07852 0.09813 0.0
C607 C 0.11647 0.04496 0.09129 0.0
C608 C 0.08993 0.04447 0.08009 0.0
C609 C 0.09211 0.0774 0.07554 0.0
C610 C 0.17284 0.08003 0.11022 0.0
C611 C 0.0596 0.00917 0.07259 0.0
C612 C 0.12808 0.96374 0.08394 0.0
C613 C 0.10421 0.93905 0.0963 0.0
C614 C 0.13438 -0.00066 0.08297 0.0
C615 C 0.11633 0.01048 0.09467 0.0
C616 C 0.09471 0.98669 0.10814 0.0
C617 C 0.08891 0.95109 0.10882 0.0
C618 C 0.15779 0.02382 0.06846 0.0
C619 C 0.07525 -0.00234 0.12095 0.0
H620 H 0.16742 0.13679 0.0985 0.0
H621 H 0.07179 0.0768 0.0669 0.0
H622 H 0.15956 0.06098 0.1212 0.0
H623 H 0.18985 0.07112 0.10331 0.0
H624 H 0.19103 0.1079 0.11543 0.0
H625 H 0.04014 0.0133 0.06476 0.0
H626 H 0.07139 -0.00351 0.06427 0.0
H627 H 0.04418 0.98952 0.08309 0.0
H628 H 0.14001 0.95444 0.07428 0.0
H629 H 0.07016 0.93193 0.11829 0.0
H630 H 0.17744 0.05149 0.07339 0.0
H631 H 0.14016 0.02675 0.05882 0.0
H632 H 0.17326 0.01278 0.06179 0.0
H633 H 0.09345 0.02605 0.12549 0.0
H634 H 0.06527 0.97916 0.13232 0.0
H635 H 0.0514 -0.00335 0.11458 0.0
C636 C 0.02223 0.91316 0.89715 0.0
C637 C 0.01711 0.87965 0.8913 0.0
C638 C 0.0545 0.94606 0.89349 0.0
C639 C 0.08248 0.94553 0.88377 0.0
C640 C 0.07726 0.91195 0.87752 0.0
C641 C 0.04466 0.87941 0.88136 0.0
C642 C 0.05888 0.98137 0.90031 0.0
C643 C 0.10634 0.91036 0.867 0.0
C644 C 0.15357 0.03898 0.86691 0.0
C645 C 0.17912 0.05128 0.88036 0.0
C646 C 0.1229 0.00349 0.86718 0.0
C647 C 0.11794 0.98001 0.88122 0.0
C648 C 0.14535 0.99138 0.894 0.0
C649 C 0.17562 0.02687 0.89339 0.0
C650 C 0.09444 0.99226 0.85322 0.0
C651 C 0.1413 0.96722 0.90914 0.0
H652 H 0.001 0.91379 0.90464 0.0
H653 H 0.04092 0.85373 0.87665 0.0
H654 H 0.08203 0.99406 0.90953 0.0
H655 H 0.06537 0.001 0.88957 0.0
H656 H 0.03393 0.97728 0.90699 0.0
H657 H 0.09707 0.88245 0.86208 0.0
H658 H 0.1145 0.92934 0.85587 0.0
H659 H 0.13104 0.91931 0.87504 0.0
H660 H 0.15602 0.05787 0.85688 0.0
H661 H 0.19549 0.03632 0.90376 0.0
H662 H 0.07052 0.99301 0.85844 0.0
H663 H 0.08472 0.96391 0.8489 0.0
H664 H 0.10505 0.01073 0.84185 0.0
H665 H 0.11912 0.96447 0.91773 0.0
H666 H 0.1668 0.97842 0.91683 0.0
H667 H 0.13358 0.93945 0.90464 0.0
C668 C 0.1025 0.13979 0.87567 0.0
C669 C 0.10061 0.11297 0.88691 0.0
C670 C 0.07084 0.14008 0.87082 0.0
C671 C 0.03657 0.11308 0.87744 0.0
C672 C 0.03429 0.08496 0.88811 0.0
C673 C 0.06629 0.08522 0.89268 0.0
C674 C 0.07422 0.17003 0.85914 0.0
C675 C -0.00181 0.05541 0.89533 0.0
C676 C 0.96022 0.13112 0.88712 0.0
C677 C 0.9339 0.10864 0.875 0.0
C678 C -0.00511 0.13493 0.88726 0.0
C679 C 0.00351 0.11599 0.87487 0.0
C680 C 0.97829 0.09613 0.86155 0.0
C681 C 0.94359 0.09263 0.86178 0.0
C682 C 0.02097 0.1565 0.90167 0.0
C683 C 0.98665 0.07603 0.84793 0.0
H684 H 0.12881 0.1611 0.87094 0.0
H685 H 0.06438 0.06406 0.90115 0.0
H686 H 0.05368 0.15844 0.84864 0.0
H687 H 0.06874 0.18895 0.86666 0.0
H688 H 0.10186 0.186 0.8533 0.0
H689 H 0.00078 0.0342 0.90247 0.0
H690 H 0.98696 0.06769 0.90427 0.0
H691 H 0.97808 0.04195 0.88478 0.0
H692 H 0.95283 0.14378 0.89727 0.0
H693 H 0.92325 0.07508 0.85241 0.0
H694 H 0.04866 0.17525 0.89645 0.0
H695 H 0.02318 0.13748 0.91071 0.0
H696 H 0.0118 0.17276 0.90909 0.0
H697 H 0.01531 0.09263 0.8434 0.0
H698 H 0.96811 0.0687 0.83664 0.0
H699 H 0.98317 0.05047 0.85354 0.0
C700 C 0.89682 0.8374 0.86165 0.0
C701 C 0.88007 0.81018 0.87429 0.0
C702 C 0.893 0.86835 0.86198 0.0
C703 C 0.87207 0.87199 0.87526 0.0
C704 C 0.85283 0.84314 0.88716 0.0
C705 C 0.85695 0.81255 0.88646 0.0
C706 C 0.91353 0.89829 0.84891 0.0
C707 C 0.83021 0.8458 0.90153 0.0
C708 C 0.89968 0.96517 0.89354 0.0
C709 C 0.87213 0.97095 0.88721 0.0
C710 C 0.90075 0.93375 0.88917 0.0
C711 C 0.87359 0.90732 0.87815 0.0
C712 C 0.84645 0.9135 0.8712 0.0
C713 C 0.84596 0.94519 0.87585 0.0
C714 C 0.93031 0.92832 0.89682 0.0
C715 C 0.8174 0.8862 0.85921 0.0
H716 H 0.91485 0.83578 0.85225 0.0
H717 H 0.84363 0.79133 0.89613 0.0
H718 H 0.89625 0.90899 0.84406 0.0
H719 H 0.93784 0.92128 0.85514 0.0
H720 H 0.92291 0.88872 0.83775 0.0
H721 H 0.81416 0.81963 0.90863 0.0
H722 H 0.84846 0.86715 0.91085 0.0
H723 H 0.81113 0.85394 0.89633 0.0
H724 H 0.92024 0.98496 0.9022 0.0
H725 H 0.82479 0.94954 0.87071 0.0
H726 H 0.94498 0.92292 0.88645 0.0
H727 H 0.91783 0.90415 0.90547 0.0
H728 H 0.95055 0.95238 0.90437 0.0
H729 H 0.83009 0.87903 0.84855 0.0
H730 H 0.80049 0.89666 0.85357 0.0
H731 H 0.79919 0.86068 0.86638 0.0
C732 C 0.70349 0.47745 0.44296 0.0
C733 C 0.71636 0.50256 0.4293 0.0
C734 C 0.66805 0.4467 0.44255 0.0
C735 C 0.64521 0.44121 0.42818 0.0
C736 C 0.65717 0.46811 0.4151 0.0
C737 C 0.69258 0.49846 0.41584 0.0
C738 C 0.65617 0.41878 0.45682 0.0
C739 C 0.63369 0.46348 0.39959 0.0
C740 C 0.57913 0.3454 0.41237 0.0
C741 C 0.54527 0.34057 0.41748 0.0
C742 C 0.61187 0.3775 0.41634 0.0
C743 C 0.61085 0.40568 0.42561 0.0
C744 C 0.57693 0.40069 0.43122 0.0
C745 C 0.54452 0.36819 0.42709 0.0
C746 C 0.64755 0.38161 0.41021 0.0
C747 C 0.57483 0.43002 0.44124 0.0
H748 H 0.72186 0.4804 0.45335 0.0
H749 H 0.70241 0.51804 0.40533 0.0
H750 H 0.62765 0.40928 0.46081 0.0
H751 H 0.65706 0.39465 0.45206 0.0
H752 H 0.67417 0.42978 0.46833 0.0
H753 H 0.64532 0.4886 0.39158 0.0
H754 H 0.63117 0.44088 0.3914 0.0
H755 H 0.60577 0.45608 0.4037 0.0
H756 H 0.58015 0.32416 0.4051 0.0
H757 H 0.51856 0.36467 0.43122 0.0
H758 H 0.66663 0.38857 0.42122 0.0
H759 H 0.66071 0.40435 0.40078 0.0
H760 H 0.64378 0.3564 0.40398 0.0
H761 H 0.5934 0.43863 0.45254 0.0
H762 H 0.5467 0.4208 0.44586 0.0
H763 H 0.58399 0.45441 0.43294 0.0
C764 C 0.47689 0.18114 0.41957 0.0
C765 C 0.47272 0.20303 0.43182 0.0
C766 C 0.50804 0.17792 0.41943 0.0
C767 C 0.53552 0.1967 0.43199 0.0
C768 C 0.52988 0.21608 0.44537 0.0
C769 C 0.49846 0.2191 0.44511 0.0
C770 C 0.51286 0.15694 0.40493 0.0
C771 C 0.55824 0.23595 0.45917 0.0
C772 C 0.61051 0.17312 0.43192 0.0
C773 C 0.63673 0.20051 0.42115 0.0
C774 C 0.57811 0.17246 0.43632 0.0
C775 C 0.57165 0.19964 0.42968 0.0
C776 C 0.59861 0.22813 0.41936 0.0
C777 C 0.63079 0.22825 0.41527 0.0
C778 C 0.5503 0.14209 0.44763 0.0
C779 C 0.5929 0.25778 0.41207 0.0
H780 H 0.45679 0.16832 0.4094 0.0
H781 H 0.49542 0.23614 0.45459 0.0
H782 H 0.53487 0.17631 0.39614 0.0
H783 H 0.52121 0.13799 0.41009 0.0
H784 H 0.48751 0.14096 0.39724 0.0
H785 H 0.54688 0.24338 0.47034 0.0
H786 H 0.56955 0.2191 0.46386 0.0
H787 H 0.58118 0.26142 0.45367 0.0
H788 H 0.61497 0.15179 0.43672 0.0
H789 H 0.65095 0.24977 0.40709 0.0
H790 H 0.52576 0.12375 0.43989 0.0
H791 H 0.54138 0.15339 0.45822 0.0
H792 H 0.56114 0.12558 0.45336 0.0
H793 H 0.56944 0.24563 0.40301 0.0
H794 H 0.61733 0.27904 0.40506 0.0
H795 H 0.58621 0.27115 0.42258 0.0
C796 C 0.75582 0.39478 0.41627 0.0
C797 C 0.78343 0.42896 0.42225 0.0
C798 C 0.75548 0.3627 0.42068 0.0
C799 C 0.78339 0.36468 0.4314 0.0
C800 C 0.81035 0.39879 0.43817 0.0
C801 C 0.81013 0.43059 0.43347 0.0
C802 C 0.726 0.3268 0.41327 0.0
C803 C 0.8401 0.40185 0.44988 0.0
C804 C 0.7607 0.27065 0.44637 0.0
C805 C 0.77632 0.26089 0.43298 0.0
C806 C 0.76536 0.3058 0.44699 0.0
C807 C 0.78597 0.33141 0.4339 0.0
C808 C 0.8047 0.32268 0.42143 0.0
C809 C 0.79973 0.28755 0.42118 0.0
C810 C 0.74547 0.31427 0.46069 0.0
C811 C 0.82704 0.34911 0.40726 0.0
H812 H 0.73471 0.39304 0.40782 0.0
H813 H 0.83134 0.45678 0.43834 0.0
H814 H 0.73842 0.31564 0.40438 0.0
H815 H 0.71215 0.30653 0.42373 0.0
H816 H 0.70505 0.32965 0.40603 0.0
H817 H 0.85599 0.42933 0.45586 0.0
H818 H 0.8283 0.38106 0.46029 0.0
H819 H 0.85913 0.39654 0.44236 0.0
H820 H 0.74247 0.25007 0.45549 0.0
H821 H 0.81208 0.28009 0.41091 0.0
H822 H 0.72017 0.31144 0.45509 0.0
H823 H 0.76244 0.34273 0.46539 0.0
H824 H 0.73769 0.29534 0.47185 0.0
H825 H 0.8085 0.35173 0.39807 0.0
H826 H 0.84344 0.33994 0.39995 0.0
H827 H 0.84575 0.3766 0.41266 0.0
C828 C 0.67511 0.25403 0.23174 0.0
C829 C 0.67114 0.22079 0.22619 0.0
C830 C 0.70673 0.28737 0.22791 0.0
C831 C 0.73529 0.28758 0.21839 0.0
C832 C 0.73127 0.25425 0.21248 0.0
C833 C 0.69921 0.22124 0.21641 0.0
C834 C 0.70978 0.32238 0.23434 0.0
C835 C 0.7611 0.25343 0.20225 0.0
C836 C 0.80474 0.38062 0.20037 0.0
C837 C 0.83063 0.39424 0.21368 0.0
C838 C 0.77437 0.34499 0.20119 0.0
C839 C 0.77007 0.32265 0.21562 0.0
C840 C 0.79759 0.33547 0.22841 0.0
C841 C 0.82751 0.3711 0.22728 0.0
C842 C 0.74568 0.33225 0.18725 0.0
C843 C 0.79424 0.31249 0.24394 0.0
H844 H 0.65343 0.2541 0.23909 0.0
H845 H 0.69634 0.19575 0.21197 0.0
H846 H 0.73272 0.33597 0.24362 0.0
H847 H 0.71584 0.34153 0.22342 0.0
H848 H 0.68441 0.31764 0.24082 0.0
H849 H 0.75289 0.22551 0.19772 0.0
H850 H 0.76863 0.27172 0.19087 0.0
H851 H 0.78591 0.26371 0.21036 0.0
H852 H 0.80692 0.39848 0.18988 0.0
H853 H 0.84768 0.38148 0.23752 0.0
H854 H 0.72107 0.33171 0.19244 0.0
H855 H 0.73726 0.3041 0.18309 0.0
H856 H 0.75544 0.35048 0.17578 0.0
H857 H 0.77156 0.30926 0.25231 0.0
H858 H 0.81966 0.32492 0.25175 0.0
H859 H 0.78762 0.2848 0.23985 0.0
C860 C 0.7256 0.4352 0.22878 0.0
C861 C 0.75934 0.4628 0.22234 0.0
C862 C 0.69299 0.43384 0.2244 0.0
C863 C 0.69401 0.46073 0.21327 0.0
C864 C 0.72771 0.48788 0.20619 0.0
C865 C 0.76002 0.48865 0.21084 0.0
C866 C 0.65753 0.4042 0.23213 0.0
C867 C 0.72974 0.51666 0.1941 0.0
C868 C 0.59981 0.43558 0.19726 0.0
C869 C 0.58925 0.45164 0.21009 0.0
C870 C 0.63509 0.4405 0.19727 0.0
C871 C 0.66008 0.46192 0.2104 0.0
C872 C 0.65046 0.48079 0.22237 0.0
C873 C 0.61518 0.47546 0.22203 0.0
C874 C 0.64446 0.42029 0.18414 0.0
C875 C 0.67625 0.50401 0.23654 0.0
H876 H 0.72461 0.41475 0.23747 0.0
H877 H 0.78586 0.50986 0.20563 0.0
H878 H 0.64582 0.41661 0.24069 0.0
H879 H 0.63729 0.38926 0.22179 0.0
H880 H 0.66116 0.38421 0.23978 0.0
H881 H 0.75737 0.53357 0.18837 0.0
H882 H 0.70959 0.50375 0.18351 0.0
H883 H 0.72269 0.53489 0.20122 0.0
H884 H 0.57977 0.41699 0.18805 0.0
H885 H 0.60711 0.48814 0.23187 0.0
H886 H 0.64263 0.39589 0.19032 0.0
H887 H 0.67281 0.43766 0.17935 0.0
H888 H 0.62547 0.41104 0.17296 0.0
H889 H 0.6792 0.48616 0.24603 0.0
H890 H 0.66631 0.52016 0.24348 0.0
H891 H 0.70375 0.52302 0.2312 0.0
C892 C 0.49759 0.28528 0.21417 0.0
C893 C 0.5253 0.31269 0.22436 0.0
C894 C 0.49779 0.25322 0.21004 0.0
C895 C 0.5263 0.24838 0.21627 0.0
C896 C 0.55484 0.27631 0.22616 0.0
C897 C 0.55399 0.30806 0.23008 0.0
C898 C 0.46713 0.22421 0.1993 0.0
C899 C 0.58588 0.27231 0.233 0.0
C900 C 0.5123 0.15469 0.22516 0.0
C901 C 0.53322 0.15141 0.21205 0.0
C902 C 0.50822 0.18529 0.22615 0.0
C903 C 0.52522 0.2132 0.2136 0.0
C904 C 0.544 0.20871 0.19955 0.0
C905 C 0.54782 0.17779 0.19894 0.0
C906 C 0.48789 0.18889 0.24132 0.0
C907 C 0.56214 0.23767 0.18581 0.0
H908 H 0.47545 0.28865 0.20955 0.0
H909 H 0.57577 0.32915 0.23779 0.0
H910 H 0.47835 0.21654 0.18818 0.0
H911 H 0.4509 0.19927 0.2072 0.0
H912 H 0.44855 0.23329 0.19433 0.0
H913 H 0.60682 0.29724 0.2398 0.0
H914 H 0.57509 0.24898 0.24213 0.0
H915 H 0.59935 0.26632 0.22227 0.0
H916 H 0.50059 0.13411 0.23521 0.0
H917 H 0.56413 0.17547 0.1888 0.0
H918 H 0.4676 0.19608 0.23684 0.0
H919 H 0.50743 0.21128 0.24988 0.0
H920 H 0.47351 0.1634 0.24906 0.0
H921 H 0.54356 0.24713 0.18137 0.0
H922 H 0.57061 0.22768 0.17447 0.0
H923 H 0.58678 0.26163 0.19129 0.0
C924 C 0.21849 0.70351 0.75774 0.0
C925 C 0.21662 0.67457 0.74814 0.0
C926 C 0.25223 0.73484 0.76148 0.0
C927 C 0.28488 0.73725 0.75554 0.0
C928 C 0.28323 0.7079 0.74613 0.0
C929 C 0.24918 0.67703 0.74251 0.0
C930 C 0.25294 0.76555 0.77159 0.0
C931 C 0.31746 0.70926 0.73967 0.0
C932 C 0.37083 0.82745 0.74645 0.0
C933 C 0.39355 0.82958 0.76005 0.0
C934 C 0.33463 0.79859 0.74538 0.0
C935 C 0.32078 0.77114 0.75824 0.0
C936 C 0.34278 0.77451 0.77266 0.0
C937 C 0.37901 0.80384 0.77342 0.0
C938 C 0.31207 0.79619 0.72985 0.0
C939 C 0.32895 0.74587 0.78667 0.0
H940 H 0.19354 0.70183 0.76225 0.0
H941 H 0.24816 0.65471 0.73527 0.0
H942 H 0.27105 0.77239 0.78299 0.0
H943 H 0.26432 0.7904 0.76343 0.0
H944 H 0.22533 0.75864 0.77608 0.0
H945 H 0.31155 0.68357 0.73313 0.0
H946 H 0.33192 0.73218 0.73041 0.0
H947 H 0.33635 0.71437 0.75058 0.0
H948 H 0.38193 0.8475 0.73616 0.0
H949 H 0.39654 0.80525 0.78391 0.0
H950 H 0.28476 0.79079 0.73394 0.0
H951 H 0.3078 0.77308 0.72154 0.0
H952 H 0.32543 0.82155 0.72199 0.0
H953 H 0.30117 0.7388 0.79088 0.0
H954 H 0.34726 0.75498 0.79809 0.0
H955 H 0.32703 0.72061 0.78152 0.0
C956 C 0.27598 0.50109 0.76395 0.0
C957 C 0.30269 0.52716 0.75286 0.0
C958 C 0.24483 0.50271 0.76848 0.0
C959 C 0.24013 0.53089 0.76167 0.0
C960 C 0.26754 0.55798 0.75096 0.0
C961 C 0.29845 0.55582 0.74672 0.0
C962 C 0.2165 0.47372 0.78018 0.0
C963 C 0.26365 0.5886 0.74346 0.0
C964 C 0.14633 0.51691 0.75316 0.0
C965 C 0.14422 0.53979 0.76556 0.0
C966 C 0.1766 0.51224 0.75235 0.0
C967 C 0.20531 0.53055 0.7644 0.0
C968 C 0.20194 0.55127 0.77785 0.0
C969 C 0.17137 0.55574 0.77826 0.0
C970 C 0.17902 0.4899 0.73778 0.0
C971 C 0.2317 0.57075 0.7911 0.0
H972 H 0.27912 0.47906 0.76893 0.0
H973 H 0.31899 0.57632 0.73828 0.0
H974 H 0.20959 0.48652 0.79089 0.0
H975 H 0.19104 0.45647 0.77279 0.0
H976 H 0.22585 0.45584 0.78575 0.0
H977 H 0.2882 0.60845 0.73605 0.0
H978 H 0.23965 0.57718 0.73473 0.0
H979 H 0.2588 0.6035 0.75391 0.0
H980 H 0.12515 0.50415 0.74345 0.0
H981 H 0.16996 0.57356 0.78785 0.0
H982 H 0.18603 0.46988 0.74285 0.0
H983 H 0.2011 0.50817 0.72874 0.0
H984 H 0.1531 0.47495 0.73041 0.0
H985 H 0.24156 0.55272 0.79587 0.0
H986 H 0.2223 0.58022 0.80229 0.0
H987 H 0.25525 0.5949 0.78505 0.0
C988 C 0.43042 0.72024 0.74523 0.0
C989 C 0.45831 0.75373 0.75171 0.0
C990 C 0.4282 0.68731 0.74978 0.0
C991 C 0.45451 0.68774 0.76112 0.0
C992 C 0.482 0.72122 0.76819 0.0
C993 C 0.48363 0.75386 0.76338 0.0
C994 C 0.39824 0.65211 0.74203 0.0
C995 C 0.51016 0.72264 0.7805 0.0
C996 C 0.4258 0.59282 0.77735 0.0
C997 C 0.44129 0.5814 0.76462 0.0
C998 C 0.43224 0.62867 0.77732 0.0
C999 C 0.45462 0.65332 0.76427 0.0
C1000 C 0.4731 0.6428 0.7525 0.0
C1001 C 0.46623 0.60696 0.75286 0.0
C1002 C 0.41242 0.63897 0.79024 0.0
C1003 C 0.49729 0.66818 0.73842 0.0
H1004 H 0.4104 0.71968 0.7364 0.0
H1005 H 0.50509 0.77951 0.7686 0.0
H1006 H 0.41041 0.6398 0.7337 0.0
H1007 H 0.38263 0.63214 0.75238 0.0
H1008 H 0.37886 0.65625 0.73413 0.0
H1009 H 0.52751 0.75025 0.78615 0.0
H1010 H 0.49663 0.70275 0.79115 0.0
H1011 H 0.52806 0.71485 0.7736 0.0
H1012 H 0.4063 0.57305 0.7864 0.0
H1013 H 0.47837 0.59816 0.74307 0.0
H1014 H 0.3884 0.63769 0.78393 0.0
H1015 H 0.43029 0.6673 0.79494 0.0
H1016 H 0.40261 0.62016 0.8015 0.0
H1017 H 0.48015 0.67152 0.72865 0.0
H1018 H 0.51324 0.6576 0.7318 0.0
H1019 H 0.51656 0.69559 0.74374 0.0
C1020 C 0.49337 0.69234 0.55858 0.0
C1021 C 0.49613 0.71532 0.54498 0.0
C1022 C 0.46378 0.65655 0.55974 0.0
C1023 C 0.43619 0.64342 0.54697 0.0
C1024 C 0.44017 0.6656 0.53252 0.0
C1025 C 0.47025 0.7014 0.53167 0.0
C1026 C 0.46076 0.63378 0.5753 0.0
C1027 C 0.41141 0.65251 0.51861 0.0
C1028 C 0.36584 0.54188 0.54807 0.0
C1029 C 0.33769 0.54136 0.5578 0.0
C1030 C 0.39777 0.57494 0.54404 0.0
C1031 C 0.40158 0.60825 0.54985 0.0
C1032 C 0.373 0.60796 0.55939 0.0
C1033 C 0.34152 0.57458 0.56328 0.0
C1034 C 0.42764 0.57423 0.53381 0.0
C1035 C 0.37587 0.64294 0.56573 0.0
H1036 H 0.51353 0.70299 0.56883 0.0
H1037 H 0.47216 0.71916 0.52118 0.0
H1038 H 0.43813 0.63049 0.58372 0.0
H1039 H 0.45425 0.6061 0.57126 0.0
H1040 H 0.48628 0.64642 0.58304 0.0
H1041 H 0.42101 0.67061 0.50709 0.0
H1042 H 0.40317 0.62436 0.51452 0.0
H1043 H 0.38673 0.65182 0.52378 0.0
H1044 H 0.3631 0.51641 0.54367 0.0
H1045 H 0.31981 0.57461 0.57062 0.0
H1046 H 0.45261 0.58497 0.54183 0.0
H1047 H 0.4348 0.5922 0.52232 0.0
H1048 H 0.41965 0.54627 0.52943 0.0
H1049 H 0.39912 0.65696 0.57483 0.0
H1050 H 0.35064 0.6381 0.5724 0.0
H1051 H 0.38135 0.66176 0.55473 0.0
C1052 C 0.26539 0.75956 0.52764 0.0
C1053 C 0.25506 0.77542 0.54066 0.0
C1054 C 0.30083 0.76487 0.52728 0.0
C1055 C 0.32617 0.78644 0.54027 0.0
C1056 C 0.31684 0.80542 0.55231 0.0
C1057 C 0.28141 0.79975 0.55231 0.0
C1058 C 0.3099 0.74464 0.51404 0.0
C1059 C 0.34295 0.82876 0.56636 0.0
C1060 C 0.39027 0.75798 0.55873 0.0
C1061 C 0.42431 0.7852 0.55239 0.0
C1062 C 0.35805 0.75735 0.55429 0.0
C1063 C 0.35974 0.78458 0.54317 0.0
C1064 C 0.39372 0.81132 0.53617 0.0
C1065 C 0.42566 0.81139 0.54089 0.0
C1066 C 0.32229 0.72814 0.56198 0.0
C1067 C 0.39646 0.84039 0.52407 0.0
H1068 H 0.24505 0.74059 0.51864 0.0
H1069 H 0.27349 0.81226 0.56231 0.0
H1070 H 0.33833 0.76177 0.5093 0.0
H1071 H 0.30758 0.71991 0.52009 0.0
H1072 H 0.29098 0.73588 0.50285 0.0
H1073 H 0.33342 0.84539 0.57318 0.0
H1074 H 0.3456 0.81092 0.57597 0.0
H1075 H 0.3705 0.84732 0.56095 0.0
H1076 H 0.38874 0.73729 0.56742 0.0
H1077 H 0.45174 0.83232 0.53577 0.0
H1078 H 0.30207 0.71343 0.5516 0.0
H1079 H 0.31088 0.74091 0.57049 0.0
H1080 H 0.32541 0.70787 0.56968 0.0
H1081 H 0.37611 0.82785 0.51353 0.0
H1082 H 0.4241 0.85669 0.51827 0.0
H1083 H 0.39018 0.85916 0.5312 0.0
C1084 C 0.18096 0.47734 0.55443 0.0
C1085 C 0.20249 0.47352 0.54183 0.0
C1086 C 0.178 0.50862 0.55511 0.0
C1087 C 0.1967 0.53662 0.54274 0.0
C1088 C 0.21608 0.53161 0.52915 0.0
C1089 C 0.21881 0.50004 0.52886 0.0
C1090 C 0.15699 0.51279 0.56981 0.0
C1091 C 0.23596 0.5606 0.51558 0.0
C1092 C 0.17112 0.61011 0.54273 0.0
C1093 C 0.19818 0.63671 0.55348 0.0
C1094 C 0.17113 0.57803 0.53846 0.0
C1095 C 0.19871 0.57228 0.54518 0.0
C1096 C 0.22682 0.59955 0.55552 0.0
C1097 C 0.22624 0.63141 0.55952 0.0
C1098 C 0.14107 0.54984 0.52717 0.0
C1099 C 0.25687 0.59455 0.56289 0.0
H1100 H 0.1679 0.45665 0.56434 0.0
H1101 H 0.2356 0.49729 0.51912 0.0
H1102 H 0.17625 0.53493 0.57855 0.0
H1103 H 0.13752 0.52063 0.56482 0.0
H1104 H 0.14156 0.48733 0.57749 0.0
H1105 H 0.24437 0.55013 0.50442 0.0
H1106 H 0.21861 0.5713 0.51083 0.0
H1107 H 0.26083 0.58382 0.52134 0.0
H1108 H 0.14952 0.61405 0.53783 0.0
H1109 H 0.24746 0.65183 0.5677 0.0
H1110 H 0.12339 0.52496 0.53487 0.0
H1111 H 0.15281 0.54171 0.51646 0.0
H1112 H 0.12379 0.55993 0.52161 0.0
H1113 H 0.245 0.57095 0.57188 0.0
H1114 H 0.27765 0.61908 0.56999 0.0
H1115 H 0.27077 0.58845 0.5524 0.0
C1116 C 0.19149 0.26178 0.01446 0.0
C1117 C 0.20038 0.24783 0.02882 0.0
C1118 C 0.20342 0.2596 -0.00216 0.0
C1119 C 0.22403 0.24226 -0.00445 0.0
C1120 C 0.23716 0.23271 0.0103 0.0
C1121 C 0.22512 0.23563 0.02687 0.0
C1122 C 0.1895 0.27105 0.9826 0.0
C1123 C 0.25982 0.21485 0.00847 0.0
C1124 C 0.18947 0.17263 0.95949 0.0
C1125 C 0.21626 0.18961 0.94665 0.0
C1126 C 0.19204 0.18961 0.9753 0.0
C1127 C 0.22228 0.22486 0.97856 0.0
C1128 C 0.2492 0.24276 0.96556 0.0
C1129 C 0.24587 0.22489 0.94968 0.0
C1130 C 0.16219 0.16949 -0.01142 0.0
C1131 C 0.28188 0.28023 0.96855 0.0
H1132 H 0.17245 0.27142 0.01602 0.0
H1133 H 0.23191 0.22472 0.03797 0.0
H1134 H 0.21047 0.28326 0.97229 0.0
H1135 H 0.16526 0.24667 0.97711 0.0
H1136 H 0.18127 0.29101 0.98644 0.0
H1137 H 0.27432 0.21647 0.02067 0.0
H1138 H 0.24169 0.18562 0.00515 0.0
H1139 H 0.28013 0.22772 -0.00208 0.0
H1140 H 0.16619 0.14559 0.95723 0.0
H1141 H 0.26679 0.23809 0.93986 0.0
H1142 H 0.14908 0.18558 -0.00821 0.0
H1143 H 0.17396 0.16586 0.00066 0.0
H1144 H 0.14068 0.14214 0.984 0.0
H1145 H 0.27358 0.29859 0.97456 0.0
H1146 H 0.29685 0.29284 0.95636 0.0
H1147 H 0.30087 0.27811 0.97762 0.0
C1148 C 0.82066 0.02049 0.96046 0.0
C1149 C 0.80174 0.02292 0.94616 0.0
C1150 C 0.80361 0.0077 0.97645 0.0
C1151 C 0.76642 -0.00295 0.97847 0.0
C1152 C 0.74705 -6e-05 0.96424 0.0
C1153 C 0.76488 0.01256 0.94816 0.0
C1154 C 0.82548 0.00485 -0.00886 0.0
C1155 C 0.70748 0.98916 0.96587 0.0
C1156 C 0.73197 0.93033 0.01508 0.0
C1157 C 0.74102 0.95398 0.02924 0.0
C1158 C 0.73524 0.9431 -0.00188 0.0
C1159 C 0.74822 0.98058 -0.00474 0.0
C1160 C 0.75256 0.0034 0.00954 0.0
C1161 C 0.74894 0.98979 0.02647 0.0
C1162 C 0.72965 0.91752 0.98338 0.0
C1163 C 0.7653 0.04324 0.00702 0.0
H1164 H 0.84907 0.0282 0.95914 0.0
H1165 H 0.75005 0.01451 0.93724 0.0
H1166 H 0.82522 0.0208 0.00242 0.0
H1167 H 0.81303 0.97598 -0.00471 0.0
H1168 H 0.85436 0.015 -0.0125 0.0
H1169 H 0.69902 0.00087 0.95528 0.0
H1170 H 0.69014 0.959 0.96526 0.0
H1171 H 0.70215 -0.00189 0.97845 0.0
H1172 H 0.7253 0.90241 0.01724 0.0
H1173 H 0.75582 0.00812 0.03739 0.0
H1174 H 0.75662 0.92277 0.97877 0.0
H1175 H 0.71586 0.92214 0.97237 0.0
H1176 H 0.71321 0.88846 -0.01262 0.0
H1177 H 0.79529 0.05863 0.00494 0.0
H1178 H 0.75914 0.05488 0.01851 0.0
H1179 H 0.75234 0.04729 -0.00453 0.0
C1180 C 0.92283 0.72989 0.95786 0.0
C1181 C 0.948 0.74289 0.94421 0.0
C1182 C 0.93443 0.73235 0.97501 0.0
C1183 C 0.97222 0.74898 0.97854 0.0
C1184 C -0.00292 0.75752 0.96464 0.0
C1185 C 0.98461 0.75434 0.94752 0.0
C1186 C 0.90677 0.72198 -0.01066 0.0
C1187 C 0.03748 0.77461 0.96782 0.0
C1188 C 0.00432 0.81948 0.01416 0.0
C1189 C 0.01091 0.80224 0.02796 0.0
C1190 C -0.00796 0.80235 -0.00184 0.0
C1191 C 0.98596 0.76671 -0.00431 0.0
C1192 C -0.00811 0.74864 0.00959 0.0
C1193 C 0.00432 0.76666 0.02563 0.0
C1194 C 0.98561 0.82267 0.98388 0.0
C1195 C 0.9859 0.71076 0.00744 0.0
H1196 H 0.89441 0.72078 0.95525 0.0
H1197 H 0.00411 0.76447 0.93696 0.0
H1198 H 0.91327 0.70969 0.00038 0.0
H1199 H 0.90734 0.74688 -0.0059 0.0
H1200 H 0.87866 0.70243 0.98479 0.0
H1201 H 0.05178 0.77212 0.95634 0.0
H1202 H 0.04932 0.80405 0.97073 0.0
H1203 H 0.04267 0.76182 0.97909 0.0
H1204 H 0.00886 0.84677 0.01583 0.0
H1205 H 0.00957 0.75324 0.03618 0.0
H1206 H 0.95664 0.80714 0.97972 0.0
H1207 H 0.00272 0.82552 0.97248 0.0
H1208 H -0.00796 0.85038 -0.01208 0.0
H1209 H 0.95959 0.69263 0.00085 0.0
H1210 H 0.98612 0.69836 0.02003 0.0
H1211 H 0.00791 0.71208 -0.00079 0.0
C1212 C 0.86278 0.54917 0.2836 0.0
C1213 C 0.89037 0.54441 0.27657 0.0
C1214 C 0.86394 0.55918 0.30096 0.0
C1215 C 0.89325 0.56405 0.31156 0.0
C1216 C 0.92321 0.56338 0.30395 0.0
C1217 C 0.92128 0.55322 0.2865 0.0
C1218 C 0.83155 0.56001 0.30841 0.0
C1219 C 0.95537 0.56928 0.31464 0.0
C1220 C 0.88385 0.5872 0.35814 0.0
C1221 C 0.86203 0.55205 0.36494 0.0
C1222 C 0.89701 0.5921 0.34102 0.0
C1223 C 0.888 0.56111 0.33069 0.0
C1224 C 0.86883 0.52584 0.33819 0.0
C1225 C 0.85594 0.5218 0.35516 0.0
C1226 C 0.91787 0.63016 0.33366 0.0
C1227 C 0.85899 0.49193 0.32783 0.0
H1228 H 0.83867 0.54182 0.27594 0.0
H1229 H 0.94238 0.54898 0.2811 0.0
H1230 H 0.81476 0.53493 0.31615 0.0
H1231 H 0.84064 0.58377 0.31713 0.0
H1232 H 0.814 0.56131 0.29815 0.0
H1233 H 0.97965 0.57682 0.30642 0.0
H1234 H 0.96262 0.59093 0.32445 0.0
H1235 H 0.94818 0.54368 0.32158 0.0
H1236 H 0.88823 0.61059 0.36566 0.0
H1237 H 0.83904 0.49463 0.36048 0.0
H1238 H 0.89887 0.63568 0.32627 0.0
H1239 H 0.93955 0.63317 0.32465 0.0
H1240 H 0.93047 0.65101 0.34402 0.0
H1241 H 0.83875 0.48795 0.31776 0.0
H1242 H 0.84709 0.46705 0.33602 0.0
H1243 H 0.88344 0.49485 0.32118 0.0
C1244 C 0.47602 0.38503 0.2968 0.0
C1245 C 0.4565 0.37057 0.2814 0.0
C1246 C 0.46172 0.36846 0.31276 0.0
C1247 C 0.42657 0.33684 0.31349 0.0
C1248 C 0.40489 0.32476 0.29832 0.0
C1249 C 0.42025 0.3416 0.28233 0.0
C1250 C 0.48594 0.38264 0.32853 0.0
C1251 C 0.36655 0.29239 0.29871 0.0
C1252 C 0.42825 0.27073 0.34518 0.0
C1253 C 0.41766 0.28005 0.36066 0.0
C1254 C 0.42841 0.28698 0.32947 0.0
C1255 C 0.41688 0.31283 0.32899 0.0
C1256 C 0.4026 0.31967 0.34418 0.0
C1257 C 0.40351 0.30347 0.35994 0.0
C1258 C 0.44406 0.27875 0.31371 0.0
C1259 C 0.38843 0.34571 0.34411 0.0
H1260 H 0.50367 0.40816 0.2963 0.0
H1261 H 0.40468 0.33064 0.27055 0.0
H1262 H 0.4711 0.38606 0.33946 0.0
H1263 H 0.49389 0.36262 0.33256 0.0
H1264 H 0.51123 0.40923 0.32608 0.0
H1265 H 0.35023 0.2929 0.28764 0.0
H1266 H 0.36747 0.26686 0.29788 0.0
H1267 H 0.35252 0.29165 0.31095 0.0
H1268 H 0.43833 0.25192 0.34541 0.0
H1269 H 0.39463 0.3104 0.37174 0.0
H1270 H 0.46993 0.30357 0.30985 0.0
H1271 H 0.42492 0.27085 0.30268 0.0
H1272 H 0.44983 0.25642 0.31603 0.0
H1273 H 0.41131 0.3738 0.3466 0.0
H1274 H 0.36769 0.33871 0.35442 0.0
H1275 H 0.37617 0.34563 0.33145 0.0
C1276 C 0.67405 0.09786 0.3574 0.0
C1277 C 0.68545 0.1347 0.36039 0.0
C1278 C 0.65941 0.08147 0.34124 0.0
C1279 C 0.65586 0.10236 0.32794 0.0
C1280 C 0.66759 0.13953 0.33094 0.0
C1281 C 0.68221 0.1551 0.34699 0.0
C1282 C 0.6478 0.04196 0.33838 0.0
C1283 C 0.66393 0.16295 0.31731 0.0
C1284 C 0.64367 0.08919 0.27974 0.0
C1285 C 0.60795 0.08237 0.27823 0.0
C1286 C 0.65878 0.09095 0.29615 0.0
C1287 C 0.63753 0.0858 0.31119 0.0
C1288 C 0.6 0.07394 0.30944 0.0
C1289 C 0.58576 0.0726 0.29298 0.0
C1290 C 0.69867 0.10282 0.29742 0.0
C1291 C 0.57604 0.06769 0.325 0.0
H1292 H 0.67674 0.08197 0.3676 0.0
H1293 H 0.69065 0.1835 0.34909 0.0
H1294 H 0.61883 0.02626 0.33426 0.0
H1295 H 0.66432 0.03987 0.32783 0.0
H1296 H 0.65112 0.02909 0.35018 0.0
H1297 H 0.67508 0.19159 0.32164 0.0
H1298 H 0.67852 0.16327 0.30536 0.0
H1299 H 0.63474 0.15141 0.31395 0.0
H1300 H 0.66087 0.09668 0.26834 0.0
H1301 H 0.55792 0.06685 0.29177 0.0
H1302 H 0.70363 0.08902 0.30832 0.0
H1303 H 0.7148 0.13267 0.29981 0.0
H1304 H 0.70876 0.09702 0.28527 0.0
H1305 H 0.58164 0.05331 0.3354 0.0
H1306 H 0.54658 0.05156 0.32164 0.0
H1307 H 0.5819 0.09446 0.3302 0.0
C1308 C 0.5228 0.86186 0.61737 0.0
C1309 C 0.55216 0.8645 0.60798 0.0
C1310 C 0.52704 0.87352 0.63457 0.0
C1311 C 0.56153 0.8878 0.64267 0.0
C1312 C 0.59213 0.8939 0.6327 0.0
C1313 C 0.58705 0.88204 0.61537 0.0
C1314 C 0.49364 0.86691 0.64454 0.0
C1315 C 0.62947 0.90973 0.64068 0.0
C1316 C 0.55598 0.91691 0.68828 0.0
C1317 C 0.54265 0.88363 0.69696 0.0
C1318 C 0.56651 0.92034 0.6708 0.0
C1319 C 0.56316 0.88963 0.66193 0.0
C1320 C 0.55361 0.85736 0.67131 0.0
C1321 C 0.5432 0.85471 0.68868 0.0
C1322 C 0.5774 0.9555 0.66144 0.0
C1323 C 0.55013 0.82404 0.66252 0.0
H1324 H 0.4958 0.84808 0.61162 0.0
H1325 H 0.60969 0.88365 0.60815 0.0
H1326 H 0.48569 0.84421 0.65383 0.0
H1327 H 0.49956 0.89149 0.65208 0.0
H1328 H 0.47003 0.85961 0.63593 0.0
H1329 H 0.65129 0.9215 0.6307 0.0
H1330 H 0.63452 0.93118 0.65028 0.0
H1331 H 0.63129 0.8878 0.64751 0.0
H1332 H 0.55504 0.93913 0.69465 0.0
H1333 H 0.53249 0.82887 0.6954 0.0
H1334 H 0.55327 0.95294 0.65465 0.0
H1335 H 0.59876 0.96151 0.65161 0.0
H1336 H 0.58763 0.97885 0.67056 0.0
H1337 H 0.52554 0.81151 0.65415 0.0
H1338 H 0.54748 0.80321 0.67198 0.0
H1339 H 0.57415 0.83162 0.65417 0.0
C1340 C 0.14997 0.68081 0.62679 0.0
C1341 C 0.12957 0.68411 0.61342 0.0
C1342 C 0.13456 0.66681 0.64295 0.0
C1343 C 0.09756 0.65573 0.64608 0.0
C1344 C 0.07661 0.65911 0.63275 0.0
C1345 C 0.09285 0.67316 0.61649 0.0
C1346 C 0.15799 0.66327 0.65661 0.0
C1347 C 0.03726 0.64808 0.63571 0.0
C1348 C 0.06752 0.58773 0.68208 0.0
C1349 C 0.0776 0.61079 0.6965 0.0
C1350 C 0.06892 0.60107 0.66538 0.0
C1351 C 0.08126 0.63857 0.66306 0.0
C1352 C 0.08692 0.66082 0.67775 0.0
C1353 C 0.08498 0.6466 0.6944 0.0
C1354 C 0.06201 0.57607 0.6502 0.0
C1355 C 0.09944 0.70076 0.67587 0.0
H1356 H 0.17826 0.68885 0.6246 0.0
H1357 H 0.07698 0.67588 0.60629 0.0
H1358 H 0.15879 0.67845 0.66841 0.0
H1359 H 0.14611 0.63418 0.66026 0.0
H1360 H 0.18649 0.67382 0.65217 0.0
H1361 H 0.02407 0.65029 0.62376 0.0
H1362 H 0.0215 0.61961 0.64053 0.0
H1363 H 0.03572 0.66581 0.64578 0.0
H1364 H 0.06131 0.55984 0.68373 0.0
H1365 H 0.09271 0.66447 0.70555 0.0
H1366 H 0.08855 0.5812 0.64499 0.0
H1367 H 0.04765 0.58134 0.63967 0.0
H1368 H 0.04558 0.54687 0.65397 0.0
H1369 H 0.12921 0.71624 0.67316 0.0
H1370 H 0.0944 0.71193 0.68785 0.0
H1371 H 0.08545 0.70529 0.66491 0.0
C1372 C 0.24854 0.39588 0.62514 0.0
C1373 C 0.27048 0.40296 0.61044 0.0
C1374 C 0.26217 0.39703 0.64173 0.0
C1375 C 0.2988 0.40576 0.64369 0.0
C1376 C 0.31938 0.408 0.6288 0.0
C1377 C 0.30496 0.40666 0.61224 0.0
C1378 C 0.23889 0.39377 0.65714 0.0
C1379 C 0.35809 0.41601 0.63033 0.0
C1380 C 0.34724 0.47562 0.67889 0.0
C1381 C 0.34728 0.45452 0.69282 0.0
C1382 C 0.33265 0.46005 0.66283 0.0
C1383 C 0.31772 0.42212 0.66035 0.0
C1384 C 0.31845 0.40054 0.67414 0.0
C1385 C 0.33292 0.41695 0.69032 0.0
C1386 C 0.33227 0.48431 0.64865 0.0
C1387 C 0.30325 0.36011 0.67201 0.0
H1388 H 0.22155 0.39234 0.62374 0.0
H1389 H 0.32194 0.4119 0.6009 0.0
H1390 H 0.24183 0.37761 0.66756 0.0
H1391 H 0.24802 0.42142 0.66236 0.0
H1392 H 0.20954 0.38079 0.65368 0.0
H1393 H 0.36713 0.40845 0.61836 0.0
H1394 H 0.37657 0.44565 0.63262 0.0
H1395 H 0.36089 0.40113 0.64143 0.0
H1396 H 0.35811 0.50464 0.68055 0.0
H1397 H 0.33301 0.40042 0.70093 0.0
H1398 H 0.3037 0.4752 0.64496 0.0
H1399 H 0.34639 0.48238 0.63699 0.0
H1400 H 0.34578 0.51343 0.65259 0.0
H1401 H 0.27318 0.34548 0.6737 0.0
H1402 H 0.31462 0.34952 0.68178 0.0
H1403 H 0.30905 0.35365 0.65891 0.0
loop_
_geom_bond_atom_site_label_1
_geom_bond_atom_site_label_2
_geom_bond_distance
_geom_bond_site_symmetry_2
_ccdc_geom_bond_type
Mg0 O1 2.028 . S
Mg0 O7 1.986 . S
Mg0 O9 2.114 . S
Mg0 O10 2.251 . S
Mg0 O13 2.010 . S
O1 Mg0 2.028 . S
O1 C4 1.250 . S
O2 Mg3 2.028 . S
O2 C4 1.248 . S
Mg3 O2 2.028 . S
Mg3 O8 2.032 . S
Mg3 O10 2.079 . S
C4 O1 1.250 . S
C4 O2 1.248 . S
C5 O6 1.264 . S
C5 O13 1.249 . S
O6 C5 1.264 . S
O7 Mg0 1.986 . S
O7 C11 1.246 . S
O8 Mg3 2.032 . S
O8 C11 1.259 . S
O9 Mg0 2.114 . S
O9 C12 1.252 . S
O10 Mg0 2.251 . S
O10 Mg3 2.079 . S
O10 C12 1.273 . S
C11 O7 1.246 . S
C11 O8 1.259 . S
C12 O9 1.252 . S
C12 O10 1.273 . S
O13 Mg0 2.010 . S
O13 C5 1.249 . S
Mg14 O15 2.028 1_565 S
Mg14 O21 1.986 . S
Mg14 O23 2.114 . S
Mg14 O24 2.251 . S
Mg14 O27 2.010 . S
O15 Mg14 2.028 1_545 S
O15 C18 1.250 . S
O16 Mg17 2.028 1_545 S
O16 C18 1.248 . S
Mg17 O16 2.028 1_565 S
Mg17 O22 2.032 . S
Mg17 O24 2.079 . S
C18 O15 1.250 . S
C18 O16 1.248 . S
C19 O20 1.264 1_545 S
C19 O27 1.249 1_545 S
O20 C19 1.264 1_565 S
O21 Mg14 1.986 . S
O21 C25 1.246 . S
O22 Mg17 2.032 . S
O22 C25 1.259 . S
O23 Mg14 2.114 . S
O23 C26 1.252 . S
O24 Mg14 2.251 . S
O24 Mg17 2.079 . S
O24 C26 1.273 . S
C25 O21 1.246 . S
C25 O22 1.259 . S
C26 O23 1.252 . S
C26 O24 1.273 . S
O27 Mg14 2.010 . S
O27 C19 1.249 1_565 S
Mg28 O29 2.028 1_455 S
Mg28 O35 1.986 . S
Mg28 O37 2.114 . S
Mg28 O38 2.251 . S
Mg28 O41 2.010 . S
O29 Mg28 2.028 1_655 S
O29 C32 1.250 . S
O30 Mg31 2.028 1_655 S
O30 C32 1.248 . S
Mg31 O30 2.028 1_455 S
Mg31 O36 2.032 . S
Mg31 O38 2.079 . S
C32 O29 1.250 . S
C32 O30 1.248 . S
C33 O34 1.264 1_655 S
C33 O41 1.249 1_655 S
O34 C33 1.264 1_455 S
O35 Mg28 1.986 . S
O35 C39 1.246 . S
O36 Mg31 2.032 . S
O36 C39 1.259 . S
O37 Mg28 2.114 . S
O37 C40 1.252 . S
O38 Mg28 2.251 . S
O38 Mg31 2.079 . S
O38 C40 1.273 . S
C39 O35 1.246 . S
C39 O36 1.259 . S
C40 O37 1.252 . S
C40 O38 1.273 . S
O41 Mg28 2.010 . S
O41 C33 1.249 1_455 S
Mg42 O43 2.028 . S
Mg42 O49 1.986 . S
Mg42 O51 2.114 . S
Mg42 O52 2.251 . S
Mg42 O55 2.010 . S
O43 Mg42 2.028 . S
O43 C46 1.250 . S
O44 Mg45 2.028 . S
O44 C46 1.248 . S
Mg45 O44 2.028 . S
Mg45 O50 2.032 . S
Mg45 O52 2.079 . S
C46 O43 1.250 . S
C46 O44 1.248 . S
C47 O48 1.264 . S
C47 O55 1.249 . S
O48 C47 1.264 . S
O49 Mg42 1.986 . S
O49 C53 1.246 . S
O50 Mg45 2.032 . S
O50 C53 1.259 . S
O51 Mg42 2.114 . S
O51 C54 1.252 . S
O52 Mg42 2.251 . S
O52 Mg45 2.079 . S
O52 C54 1.273 . S
C53 O49 1.246 . S
C53 O50 1.259 . S
C54 O51 1.252 . S
C54 O52 1.273 . S
O55 Mg42 2.010 . S
O55 C47 1.249 . S
Mg56 O57 2.028 1_545 S
Mg56 O63 1.986 . S
Mg56 O65 2.114 . S
Mg56 O66 2.251 . S
Mg56 O69 2.010 . S
O57 Mg56 2.028 1_565 S
O57 C60 1.250 . S
O58 Mg59 2.028 1_565 S
O58 C60 1.248 . S
Mg59 O58 2.028 1_545 S
Mg59 O64 2.032 . S
Mg59 O66 2.079 . S
C60 O57 1.250 . S
C60 O58 1.248 . S
C61 O62 1.264 1_565 S
C61 O69 1.249 1_565 S
O62 C61 1.264 1_545 S
O63 Mg56 1.986 . S
O63 C67 1.246 . S
O64 Mg59 2.032 . S
O64 C67 1.259 . S
O65 Mg56 2.114 . S
O65 C68 1.252 . S
O66 Mg56 2.251 . S
O66 Mg59 2.079 . S
O66 C68 1.273 . S
C67 O63 1.246 . S
C67 O64 1.259 . S
C68 O65 1.252 . S
C68 O66 1.273 . S
O69 Mg56 2.010 . S
O69 C61 1.249 1_545 S
Mg70 O71 2.028 1_655 S
Mg70 O77 1.986 . S
Mg70 O79 2.114 . S
Mg70 O80 2.251 . S
Mg70 O83 2.010 . S
O71 Mg70 2.028 1_455 S
O71 C74 1.250 . S
O72 Mg73 2.028 1_455 S
O72 C74 1.248 . S
Mg73 O72 2.028 1_655 S
Mg73 O78 2.032 . S
Mg73 O80 2.079 . S
C74 O71 1.250 . S
C74 O72 1.248 . S
C75 O76 1.264 1_455 S
C75 O83 1.249 1_455 S
O76 C75 1.264 1_655 S
O77 Mg70 1.986 . S
O77 C81 1.246 . S
O78 Mg73 2.032 . S
O78 C81 1.259 . S
O79 Mg70 2.114 . S
O79 C82 1.252 . S
O80 Mg70 2.251 . S
O80 Mg73 2.079 . S
O80 C82 1.273 . S
C81 O77 1.246 . S
C81 O78 1.259 . S
C82 O79 1.252 . S
C82 O80 1.273 . S
O83 Mg70 2.010 . S
O83 C75 1.249 1_655 S
Mg84 O85 2.028 . S
Mg84 O91 1.986 . S
Mg84 O93 2.114 . S
Mg84 O94 2.251 . S
Mg84 O97 2.010 . S
O85 Mg84 2.028 . S
O85 C88 1.250 . S
O86 Mg87 2.028 . S
O86 C88 1.248 . S
Mg87 O86 2.028 . S
Mg87 O92 2.032 . S
Mg87 O94 2.079 . S
C88 O85 1.250 . S
C88 O86 1.248 . S
C89 O90 1.264 . S
C89 O97 1.249 . S
O90 C89 1.264 . S
O91 Mg84 1.986 . S
O91 C95 1.246 . S
O92 Mg87 2.032 . S
O92 C95 1.259 . S
O93 Mg84 2.114 . S
O93 C96 1.252 . S
O94 Mg84 2.251 . S
O94 Mg87 2.079 . S
O94 C96 1.273 . S
C95 O91 1.246 . S
C95 O92 1.259 . S
C96 O93 1.252 . S
C96 O94 1.273 . S
O97 Mg84 2.010 . S
O97 C89 1.249 . S
Mg98 O99 2.028 . S
Mg98 O105 1.986 . S
Mg98 O107 2.114 . S
Mg98 O108 2.251 . S
Mg98 O111 2.010 . S
O99 Mg98 2.028 . S
O99 C102 1.250 . S
O100 Mg101 2.028 . S
O100 C102 1.248 . S
Mg101 O100 2.028 . S
Mg101 O106 2.032 . S
Mg101 O108 2.079 . S
C102 O99 1.250 . S
C102 O100 1.248 . S
C103 O104 1.264 . S
C103 O111 1.249 . S
O104 C103 1.264 . S
O105 Mg98 1.986 . S
O105 C109 1.246 . S
O106 Mg101 2.032 . S
O106 C109 1.259 . S
O107 Mg98 2.114 . S
O107 C110 1.252 . S
O108 Mg98 2.251 . S
O108 Mg101 2.079 . S
O108 C110 1.273 . S
C109 O105 1.246 . S
C109 O106 1.259 . S
C110 O107 1.252 . S
C110 O108 1.273 . S
O111 Mg98 2.010 . S
O111 C103 1.249 . S
Mg112 O113 2.028 . S
Mg112 O119 1.986 . S
Mg112 O121 2.114 . S
Mg112 O122 2.251 . S
Mg112 O125 2.010 . S
O113 Mg112 2.028 . S
O113 C116 1.250 . S
O114 Mg115 2.028 . S
O114 C116 1.248 . S
Mg115 O114 2.028 . S
Mg115 O120 2.032 . S
Mg115 O122 2.079 . S
C116 O113 1.250 . S
C116 O114 1.248 . S
C117 O118 1.264 . S
C117 O125 1.249 . S
O118 C117 1.264 . S
O119 Mg112 1.986 . S
O119 C123 1.246 . S
O120 Mg115 2.032 . S
O120 C123 1.259 . S
O121 Mg112 2.114 . S
O121 C124 1.252 . S
O122 Mg112 2.251 . S
O122 Mg115 2.079 . S
O122 C124 1.273 . S
C123 O119 1.246 . S
C123 O120 1.259 . S
C124 O121 1.252 . S
C124 O122 1.273 . S
O125 Mg112 2.010 . S
O125 C117 1.249 . S
Mg126 O127 2.028 . S
Mg126 O133 1.986 . S
Mg126 O135 2.114 . S
Mg126 O136 2.251 . S
Mg126 O139 2.010 . S
O127 Mg126 2.028 . S
O127 C130 1.250 . S
O128 Mg129 2.028 . S
O128 C130 1.248 . S
Mg129 O128 2.028 . S
Mg129 O134 2.032 . S
Mg129 O136 2.079 . S
C130 O127 1.250 . S
C130 O128 1.248 . S
C131 O132 1.264 . S
C131 O139 1.249 . S
O132 C131 1.264 . S
O133 Mg126 1.986 . S
O133 C137 1.246 . S
O134 Mg129 2.032 . S
O134 C137 1.259 . S
O135 Mg126 2.114 . S
O135 C138 1.252 . S
O136 Mg126 2.251 . S
O136 Mg129 2.079 . S
O136 C138 1.273 . S
C137 O133 1.246 . S
C137 O134 1.259 . S
C138 O135 1.252 . S
C138 O136 1.273 . S
O139 Mg126 2.010 . S
O139 C131 1.249 . S
Mg140 O141 2.028 . S
Mg140 O147 1.986 . S
Mg140 O149 2.114 . S
Mg140 O150 2.251 . S
Mg140 O153 2.010 . S
O141 Mg140 2.028 . S
O141 C144 1.250 . S
O142 Mg143 2.028 . S
O142 C144 1.248 . S
Mg143 O142 2.028 . S
Mg143 O148 2.032 . S
Mg143 O150 2.079 . S
C144 O141 1.250 . S
C144 O142 1.248 . S
C145 O146 1.264 . S
C145 O153 1.249 . S
O146 C145 1.264 . S
O147 Mg140 1.986 . S
O147 C151 1.246 . S
O148 Mg143 2.032 . S
O148 C151 1.259 . S
O149 Mg140 2.114 . S
O149 C152 1.252 . S
O150 Mg140 2.251 . S
O150 Mg143 2.079 . S
O150 C152 1.273 . S
C151 O147 1.246 . S
C151 O148 1.259 . S
C152 O149 1.252 . S
C152 O150 1.273 . S
O153 Mg140 2.010 . S
O153 C145 1.249 . S
Mg154 O155 2.028 . S
Mg154 O161 1.986 . S
Mg154 O163 2.114 . S
Mg154 O164 2.251 . S
Mg154 O167 2.010 . S
O155 Mg154 2.028 . S
O155 C158 1.250 . S
O156 Mg157 2.028 . S
O156 C158 1.248 . S
Mg157 O156 2.028 . S
Mg157 O162 2.032 . S
Mg157 O164 2.079 . S
C158 O155 1.250 . S
C158 O156 1.248 . S
C159 O160 1.264 . S
C159 O167 1.249 . S
O160 C159 1.264 . S
O161 Mg154 1.986 . S
O161 C165 1.246 . S
O162 Mg157 2.032 . S
O162 C165 1.259 . S
O163 Mg154 2.114 . S
O163 C166 1.252 . S
O164 Mg154 2.251 . S
O164 Mg157 2.079 . S
O164 C166 1.273 . S
C165 O161 1.246 . S
C165 O162 1.259 . S
C166 O163 1.252 . S
C166 O164 1.273 . S
O167 Mg154 2.010 . S
O167 C159 1.249 . S
Mg168 O169 2.028 . S
Mg168 O175 1.986 . S
Mg168 O177 2.114 . S
Mg168 O178 2.251 . S
Mg168 O181 2.010 . S
O169 Mg168 2.028 . S
O169 C172 1.250 . S
O170 Mg171 2.028 . S
O170 C172 1.248 . S
Mg171 O170 2.028 . S
Mg171 O176 2.032 . S
Mg171 O178 2.079 . S
C172 O169 1.250 . S
C172 O170 1.248 . S
C173 O174 1.264 . S
C173 O181 1.249 . S
O174 C173 1.264 . S
O175 Mg168 1.986 . S
O175 C179 1.246 . S
O176 Mg171 2.032 . S
O176 C179 1.259 . S
O177 Mg168 2.114 . S
O177 C180 1.252 . S
O178 Mg168 2.251 . S
O178 Mg171 2.079 . S
O178 C180 1.273 . S
C179 O175 1.246 . S
C179 O176 1.259 . S
C180 O177 1.252 . S
C180 O178 1.273 . S
O181 Mg168 2.010 . S
O181 C173 1.249 . S
Mg182 O183 2.028 . S
Mg182 O189 1.986 . S
Mg182 O191 2.114 . S
Mg182 O192 2.251 . S
Mg182 O195 2.010 . S
O183 Mg182 2.028 . S
O183 C186 1.250 . S
O184 Mg185 2.028 . S
O184 C186 1.248 . S
Mg185 O184 2.028 . S
Mg185 O190 2.032 . S
Mg185 O192 2.079 . S
C186 O183 1.250 . S
C186 O184 1.248 . S
C187 O188 1.264 . S
C187 O195 1.249 . S
O188 C187 1.264 . S
O189 Mg182 1.986 . S
O189 C193 1.246 . S
O190 Mg185 2.032 . S
O190 C193 1.259 . S
O191 Mg182 2.114 . S
O191 C194 1.252 . S
O192 Mg182 2.251 . S
O192 Mg185 2.079 . S
O192 C194 1.273 . S
C193 O189 1.246 . S
C193 O190 1.259 . S
C194 O191 1.252 . S
C194 O192 1.273 . S
O195 Mg182 2.010 . S
O195 C187 1.249 . S
Mg196 O197 2.028 . S
Mg196 O203 1.986 . S
Mg196 O205 2.114 . S
Mg196 O206 2.251 . S
Mg196 O209 2.010 . S
O197 Mg196 2.028 . S
O197 C200 1.250 . S
O198 Mg199 2.028 . S
O198 C200 1.248 . S
Mg199 O198 2.028 . S
Mg199 O204 2.032 . S
Mg199 O206 2.079 . S
C200 O197 1.250 . S
C200 O198 1.248 . S
C201 O202 1.264 . S
C201 O209 1.249 . S
O202 C201 1.264 . S
O203 Mg196 1.986 . S
O203 C207 1.246 . S
O204 Mg199 2.032 . S
O204 C207 1.259 . S
O205 Mg196 2.114 . S
O205 C208 1.252 . S
O206 Mg196 2.251 . S
O206 Mg199 2.079 . S
O206 C208 1.273 . S
C207 O203 1.246 . S
C207 O204 1.259 . S
C208 O205 1.252 . S
C208 O206 1.273 . S
O209 Mg196 2.010 . S
O209 C201 1.249 . S
Mg210 O211 2.028 . S
Mg210 O217 1.986 . S
Mg210 O219 2.114 . S
Mg210 O220 2.251 . S
Mg210 O223 2.010 . S
O211 Mg210 2.028 . S
O211 C214 1.250 . S
O212 Mg213 2.028 . S
O212 C214 1.248 . S
Mg213 O212 2.028 . S
Mg213 O218 2.032 . S
Mg213 O220 2.079 . S
C214 O211 1.250 . S
C214 O212 1.248 . S
C215 O216 1.264 . S
C215 O223 1.249 . S
O216 C215 1.264 . S
O217 Mg210 1.986 . S
O217 C221 1.246 . S
O218 Mg213 2.032 . S
O218 C221 1.259 . S
O219 Mg210 2.114 . S
O219 C222 1.252 . S
O220 Mg210 2.251 . S
O220 Mg213 2.079 . S
O220 C222 1.273 . S
C221 O217 1.246 . S
C221 O218 1.259 . S
C222 O219 1.252 . S
C222 O220 1.273 . S
O223 Mg210 2.010 . S
O223 C215 1.249 . S
Mg224 O225 2.028 . S
Mg224 O231 1.986 . S
Mg224 O233 2.114 . S
Mg224 O234 2.251 . S
Mg224 O237 2.010 . S
O225 Mg224 2.028 . S
O225 C228 1.250 . S
O226 Mg227 2.028 . S
O226 C228 1.248 . S
Mg227 O226 2.028 . S
Mg227 O232 2.032 . S
Mg227 O234 2.079 . S
C228 O225 1.250 . S
C228 O226 1.248 . S
C229 O230 1.264 . S
C229 O237 1.249 . S
O230 C229 1.264 . S
O231 Mg224 1.986 . S
O231 C235 1.246 . S
O232 Mg227 2.032 . S
O232 C235 1.259 . S
O233 Mg224 2.114 . S
O233 C236 1.252 . S
O234 Mg224 2.251 . S
O234 Mg227 2.079 . S
O234 C236 1.273 . S
C235 O231 1.246 . S
C235 O232 1.259 . S
C236 O233 1.252 . S
C236 O234 1.273 . S
O237 Mg224 2.010 . S
O237 C229 1.249 . S
Mg238 O239 2.028 . S
Mg238 O245 1.986 . S
Mg238 O247 2.114 . S
Mg238 O248 2.251 . S
Mg238 O251 2.010 . S
O239 Mg238 2.028 . S
O239 C242 1.250 . S
O240 Mg241 2.028 . S
O240 C242 1.248 . S
Mg241 O240 2.028 . S
Mg241 O246 2.032 . S
Mg241 O248 2.079 . S
C242 O239 1.250 . S
C242 O240 1.248 . S
C243 O244 1.264 . S
C243 O251 1.249 . S
O244 C243 1.264 . S
O245 Mg238 1.986 . S
O245 C249 1.246 . S
O246 Mg241 2.032 . S
O246 C249 1.259 . S
O247 Mg238 2.114 . S
O247 C250 1.252 . S
O248 Mg238 2.251 . S
O248 Mg241 2.079 . S
O248 C250 1.273 . S
C249 O245 1.246 . S
C249 O246 1.259 . S
C250 O247 1.252 . S
C250 O248 1.273 . S
O251 Mg238 2.010 . S
O251 C243 1.249 . S
C252 C253 1.391 . S
C252 C254 1.394 . S
C252 H268 0.931 . S
C253 C252 1.391 . S
C253 C257 1.376 . S
C254 C252 1.394 . S
C254 C255 1.369 . S
C254 C258 1.531 . S
C255 C254 1.369 . S
C255 C256 1.410 . S
C255 C263 1.503 . S
C256 C255 1.410 . S
C256 C257 1.392 . S
C256 C259 1.511 . S
C257 C253 1.376 . S
C257 C256 1.392 . S
C257 H269 0.929 . S
C258 C254 1.531 . S
C258 H270 0.960 . S
C258 H271 0.962 . S
C258 H272 0.960 . S
C259 C256 1.511 . S
C259 H273 0.961 . S
C259 H274 0.961 . S
C259 H275 0.961 . S
C260 C261 1.370 . S
C260 C262 1.363 . S
C260 H276 0.931 . S
C261 C260 1.370 . S
C261 C265 1.408 . S
C262 C260 1.363 . S
C262 C263 1.370 . S
C262 C266 1.524 . S
C263 C255 1.503 . S
C263 C262 1.370 . S
C263 C264 1.403 . S
C264 C263 1.403 . S
C264 C265 1.404 . S
C264 C267 1.539 . S
C265 C261 1.408 . S
C265 C264 1.404 . S
C265 H277 0.930 . S
C266 C262 1.524 . S
C266 H278 0.956 . S
C266 H279 0.961 . S
C266 H280 0.961 . S
C267 C264 1.539 . S
C267 H281 0.958 . S
C267 H282 0.961 . S
C267 H283 0.960 . S
H268 C252 0.931 . S
H269 C257 0.929 . S
H270 C258 0.960 . S
H271 C258 0.962 . S
H272 C258 0.960 . S
H273 C259 0.961 . S
H274 C259 0.961 . S
H275 C259 0.961 . S
H276 C260 0.931 . S
H277 C265 0.930 . S
H278 C266 0.956 . S
H279 C266 0.961 . S
H280 C266 0.961 . S
H281 C267 0.958 . S
H282 C267 0.961 . S
H283 C267 0.960 . S
C284 C285 1.391 . S
C284 C286 1.394 . S
C284 H300 0.931 1_545 S
C285 C284 1.391 . S
C285 C289 1.376 . S
C286 C284 1.394 . S
C286 C287 1.369 . S
C286 C290 1.531 . S
C287 C286 1.369 . S
C287 C288 1.410 . S
C287 C295 1.503 . S
C288 C287 1.410 . S
C288 C289 1.392 . S
C288 C291 1.511 . S
C289 C285 1.376 . S
C289 C288 1.392 . S
C289 H301 0.929 . S
C290 C286 1.531 . S
C290 H302 0.960 . S
C290 H303 0.962 . S
C290 H304 0.960 1_545 S
C291 C288 1.511 . S
C291 H305 0.961 . S
C291 H306 0.961 . S
C291 H307 0.961 . S
C292 C293 1.370 . S
C292 C294 1.363 . S
C292 H308 0.931 . S
C293 C292 1.370 . S
C293 C297 1.408 . S
C294 C292 1.363 . S
C294 C295 1.370 . S
C294 C298 1.524 . S
C295 C287 1.503 . S
C295 C294 1.370 . S
C295 C296 1.403 . S
C296 C295 1.403 . S
C296 C297 1.404 . S
C296 C299 1.539 . S
C297 C293 1.408 . S
C297 C296 1.404 . S
C297 H309 0.930 . S
C298 C294 1.524 . S
C298 H310 0.956 . S
C298 H311 0.961 . S
C298 H312 0.961 . S
C299 C296 1.539 . S
C299 H313 0.958 1_545 S
C299 H314 0.959 1_545 S
C299 H315 0.960 . S
H300 C284 0.931 1_565 S
H301 C289 0.929 . S
H302 C290 0.960 . S
H303 C290 0.962 . S
H304 C290 0.960 1_565 S
H305 C291 0.961 . S
H306 C291 0.961 . S
H307 C291 0.961 . S
H308 C292 0.931 . S
H309 C297 0.930 . S
H310 C298 0.956 . S
H311 C298 0.961 . S
H312 C298 0.961 . S
H313 C299 0.958 1_565 S
H314 C299 0.959 1_565 S
H315 C299 0.960 . S
C316 C317 1.391 . S
C316 C318 1.394 . S
C316 H332 0.931 . S
C317 C316 1.391 . S
C317 C321 1.376 . S
C318 C316 1.394 . S
C318 C319 1.369 . S
C318 C322 1.531 . S
C319 C318 1.369 . S
C319 C320 1.410 . S
C319 C327 1.503 . S
C320 C319 1.410 . S
C320 C321 1.392 . S
C320 C323 1.511 . S
C321 C317 1.376 . S
C321 C320 1.392 . S
C321 H333 0.929 . S
C322 C318 1.531 . S
C322 H334 0.960 . S
C322 H335 0.962 . S
C322 H336 0.960 . S
C323 C320 1.511 . S
C323 H337 0.961 . S
C323 H338 0.961 . S
C323 H339 0.961 . S
C324 C325 1.370 . S
C324 C326 1.363 . S
C324 H340 0.931 . S
C325 C324 1.370 . S
C325 C329 1.408 1_655 S
C326 C324 1.363 . S
C326 C327 1.370 . S
C326 C330 1.524 . S
C327 C319 1.503 . S
C327 C326 1.370 . S
C327 C328 1.403 . S
C328 C327 1.403 . S
C328 C329 1.404 1_655 S
C328 C331 1.539 1_655 S
C329 C325 1.408 1_455 S
C329 C328 1.404 1_455 S
C329 H341 0.930 . S
C330 C326 1.524 . S
C330 H342 0.956 . S
C330 H343 0.961 . S
C330 H344 0.961 . S
C331 C328 1.539 1_455 S
C331 H345 0.958 . S
C331 H346 0.961 . S
C331 H347 0.960 . S
H332 C316 0.931 . S
H333 C321 0.929 . S
H334 C322 0.960 . S
H335 C322 0.962 . S
H336 C322 0.960 . S
H337 C323 0.961 . S
H338 C323 0.961 . S
H339 C323 0.961 . S
H340 C324 0.931 . S
H341 C329 0.930 . S
H342 C330 0.956 . S
H343 C330 0.961 . S
H344 C330 0.961 . S
H345 C331 0.958 . S
H346 C331 0.961 . S
H347 C331 0.960 . S
C348 C349 1.391 . S
C348 C350 1.394 . S
C348 H364 0.931 . S
C349 C348 1.391 . S
C349 C353 1.376 . S
C350 C348 1.394 . S
C350 C351 1.369 . S
C350 C354 1.531 . S
C351 C350 1.369 . S
C351 C352 1.410 . S
C351 C359 1.503 . S
C352 C351 1.410 . S
C352 C353 1.392 . S
C352 C355 1.511 . S
C353 C349 1.376 . S
C353 C352 1.392 . S
C353 H365 0.929 . S
C354 C350 1.531 . S
C354 H366 0.960 . S
C354 H367 0.962 . S
C354 H368 0.960 . S
C355 C352 1.511 . S
C355 H369 0.961 . S
C355 H370 0.961 . S
C355 H371 0.961 . S
C356 C357 1.370 . S
C356 C358 1.363 . S
C356 H372 0.931 . S
C357 C356 1.370 . S
C357 C361 1.408 . S
C358 C356 1.363 . S
C358 C359 1.370 . S
C358 C362 1.524 . S
C359 C351 1.503 . S
C359 C358 1.370 . S
C359 C360 1.403 . S
C360 C359 1.403 . S
C360 C361 1.404 . S
C360 C363 1.539 . S
C361 C357 1.408 . S
C361 C360 1.404 . S
C361 H373 0.930 . S
C362 C358 1.524 . S
C362 H374 0.956 . S
C362 H375 0.961 . S
C362 H376 0.961 . S
C363 C360 1.539 . S
C363 H377 0.958 . S
C363 H378 0.961 . S
C363 H379 0.960 . S
H364 C348 0.931 . S
H365 C353 0.929 . S
H366 C354 0.960 . S
H367 C354 0.962 . S
H368 C354 0.960 . S
H369 C355 0.961 . S
H370 C355 0.961 . S
H371 C355 0.961 . S
H372 C356 0.931 . S
H373 C361 0.930 . S
H374 C362 0.956 . S
H375 C362 0.961 . S
H376 C362 0.961 . S
H377 C363 0.958 . S
H378 C363 0.961 . S
H379 C363 0.960 . S
C380 C381 1.391 . S
C380 C382 1.394 . S
C380 H396 0.931 1_565 S
C381 C380 1.391 . S
C381 C385 1.376 . S
C382 C380 1.394 . S
C382 C383 1.369 . S
C382 C386 1.531 . S
C383 C382 1.369 . S
C383 C384 1.410 . S
C383 C391 1.503 . S
C384 C383 1.410 . S
C384 C385 1.392 . S
C384 C387 1.511 . S
C385 C381 1.376 . S
C385 C384 1.392 . S
C385 H397 0.929 . S
C386 C382 1.531 . S
C386 H398 0.960 . S
C386 H399 0.962 1_565 S
C386 H400 0.960 . S
C387 C384 1.511 . S
C387 H401 0.961 . S
C387 H402 0.961 . S
C387 H403 0.961 . S
C388 C389 1.370 . S
C388 C390 1.363 . S
C388 H404 0.931 . S
C389 C388 1.370 . S
C389 C393 1.408 . S
C390 C388 1.363 . S
C390 C391 1.370 . S
C390 C394 1.524 . S
C391 C383 1.503 . S
C391 C390 1.370 . S
C391 C392 1.403 . S
C392 C391 1.403 . S
C392 C393 1.404 . S
C392 C395 1.539 . S
C393 C389 1.408 . S
C393 C392 1.404 . S
C393 H405 0.930 . S
C394 C390 1.524 . S
C394 H406 0.956 1_565 S
C394 H407 0.961 . S
C394 H408 0.961 . S
C395 C392 1.539 . S
C395 H409 0.958 . S
C395 H410 0.961 . S
C395 H411 0.960 . S
H396 C380 0.931 1_545 S
H397 C385 0.929 . S
H398 C386 0.960 . S
H399 C386 0.962 1_545 S
H400 C386 0.960 . S
H401 C387 0.961 . S
H402 C387 0.961 . S
H403 C387 0.961 . S
H404 C388 0.931 . S
H405 C393 0.930 . S
H406 C394 0.956 1_545 S
H407 C394 0.961 . S
H408 C394 0.961 . S
H409 C395 0.958 . S
H410 C395 0.961 . S
H411 C395 0.960 . S
C412 C413 1.391 . S
C412 C414 1.394 . S
C412 H428 0.931 . S
C413 C412 1.391 . S
C413 C417 1.376 . S
C414 C412 1.394 . S
C414 C415 1.369 . S
C414 C418 1.531 1_455 S
C415 C414 1.369 . S
C415 C416 1.410 . S
C415 C423 1.503 . S
C416 C415 1.410 . S
C416 C417 1.392 . S
C416 C419 1.511 . S
C417 C413 1.376 . S
C417 C416 1.392 . S
C417 H429 0.929 . S
C418 C414 1.531 1_655 S
C418 H430 0.960 . S
C418 H431 0.962 . S
C418 H432 0.960 . S
C419 C416 1.511 . S
C419 H433 0.961 . S
C419 H434 0.961 . S
C419 H435 0.961 . S
C420 C421 1.370 . S
C420 C422 1.363 . S
C420 H436 0.931 . S
C421 C420 1.370 . S
C421 C425 1.408 . S
C422 C420 1.363 . S
C422 C423 1.370 . S
C422 C426 1.524 . S
C423 C415 1.503 . S
C423 C422 1.370 . S
C423 C424 1.403 . S
C424 C423 1.403 . S
C424 C425 1.404 . S
C424 C427 1.539 . S
C425 C421 1.408 . S
C425 C424 1.404 . S
C425 H437 0.930 . S
C426 C422 1.524 . S
C426 H438 0.956 . S
C426 H439 0.961 . S
C426 H440 0.961 . S
C427 C424 1.539 . S
C427 H441 0.958 1_455 S
C427 H442 0.961 . S
C427 H443 0.960 . S
H428 C412 0.931 . S
H429 C417 0.929 . S
H430 C418 0.960 . S
H431 C418 0.962 . S
H432 C418 0.960 . S
H433 C419 0.961 . S
H434 C419 0.961 . S
H435 C419 0.961 . S
H436 C420 0.931 . S
H437 C425 0.930 . S
H438 C426 0.956 . S
H439 C426 0.961 . S
H440 C426 0.961 . S
H441 C427 0.958 1_655 S
H442 C427 0.961 . S
H443 C427 0.960 . S
C444 C445 1.391 . S
C444 C446 1.394 . S
C444 H460 0.931 . S
C445 C444 1.391 . S
C445 C449 1.376 . S
C446 C444 1.394 . S
C446 C447 1.369 . S
C446 C450 1.531 . S
C447 C446 1.369 . S
C447 C448 1.410 . S
C447 C455 1.503 1_655 S
C448 C447 1.410 . S
C448 C449 1.392 . S
C448 C451 1.511 1_655 S
C449 C445 1.376 . S
C449 C448 1.392 . S
C449 H461 0.929 . S
C450 C446 1.531 . S
C450 H462 0.960 . S
C450 H463 0.962 . S
C450 H464 0.960 . S
C451 C448 1.511 1_455 S
C451 H465 0.961 . S
C451 H466 0.961 . S
C451 H467 0.961 . S
C452 C453 1.370 . S
C452 C454 1.363 . S
C452 H468 0.931 . S
C453 C452 1.370 . S
C453 C457 1.408 . S
C454 C452 1.363 . S
C454 C455 1.370 . S
C454 C458 1.524 1_455 S
C455 C447 1.503 1_455 S
C455 C454 1.370 . S
C455 C456 1.403 . S
C456 C455 1.403 . S
C456 C457 1.404 . S
C456 C459 1.539 . S
C457 C453 1.408 . S
C457 C456 1.404 . S
C457 H469 0.930 . S
C458 C454 1.524 1_655 S
C458 H470 0.956 . S
C458 H471 0.961 . S
C458 H472 0.961 1_655 S
C459 C456 1.539 . S
C459 H473 0.958 . S
C459 H474 0.961 . S
C459 H475 0.960 . S
H460 C444 0.931 . S
H461 C449 0.929 . S
H462 C450 0.960 . S
H463 C450 0.962 . S
H464 C450 0.960 . S
H465 C451 0.961 . S
H466 C451 0.961 . S
H467 C451 0.961 . S
H468 C452 0.931 . S
H469 C457 0.930 . S
H470 C458 0.956 . S
H471 C458 0.961 . S
H472 C458 0.961 1_455 S
H473 C459 0.958 . S
H474 C459 0.961 . S
H475 C459 0.960 . S
C476 C477 1.391 . S
C476 C478 1.394 . S
C476 H492 0.931 . S
C477 C476 1.391 . S
C477 C481 1.376 . S
C478 C476 1.394 . S
C478 C479 1.369 . S
C478 C482 1.531 . S
C479 C478 1.369 . S
C479 C480 1.410 . S
C479 C487 1.503 . S
C480 C479 1.410 . S
C480 C481 1.392 . S
C480 C483 1.511 . S
C481 C477 1.376 . S
C481 C480 1.392 . S
C481 H493 0.929 . S
C482 C478 1.531 . S
C482 H494 0.960 . S
C482 H495 0.962 . S
C482 H496 0.960 . S
C483 C480 1.511 . S
C483 H497 0.961 . S
C483 H498 0.961 . S
C483 H499 0.961 . S
C484 C485 1.370 . S
C484 C486 1.363 . S
C484 H500 0.931 . S
C485 C484 1.370 . S
C485 C489 1.408 . S
C486 C484 1.363 . S
C486 C487 1.370 . S
C486 C490 1.524 . S
C487 C479 1.503 . S
C487 C486 1.370 . S
C487 C488 1.403 . S
C488 C487 1.403 . S
C488 C489 1.404 . S
C488 C491 1.539 . S
C489 C485 1.408 . S
C489 C488 1.404 . S
C489 H501 0.930 . S
C490 C486 1.524 . S
C490 H502 0.956 . S
C490 H503 0.961 . S
C490 H504 0.961 . S
C491 C488 1.539 . S
C491 H505 0.958 . S
C491 H506 0.961 . S
C491 H507 0.960 . S
H492 C476 0.931 . S
H493 C481 0.929 . S
H494 C482 0.960 . S
H495 C482 0.962 . S
H496 C482 0.960 . S
H497 C483 0.961 . S
H498 C483 0.961 . S
H499 C483 0.961 . S
H500 C484 0.931 . S
H501 C489 0.930 . S
H502 C490 0.956 . S
H503 C490 0.961 . S
H504 C490 0.961 . S
H505 C491 0.958 . S
H506 C491 0.961 . S
H507 C491 0.960 . S
C508 C509 1.391 . S
C508 C510 1.394 . S
C508 H524 0.931 . S
C509 C508 1.391 . S
C509 C513 1.376 . S
C510 C508 1.394 . S
C510 C511 1.369 . S
C510 C514 1.531 . S
C511 C510 1.369 . S
C511 C512 1.410 . S
C511 C519 1.503 1_545 S
C512 C511 1.410 . S
C512 C513 1.392 . S
C512 C515 1.511 1_545 S
C513 C509 1.376 . S
C513 C512 1.392 . S
C513 H525 0.929 . S
C514 C510 1.531 . S
C514 H526 0.960 . S
C514 H527 0.962 . S
C514 H528 0.960 . S
C515 C512 1.511 1_565 S
C515 H529 0.961 . S
C515 H530 0.961 . S
C515 H531 0.961 . S
C516 C517 1.370 . S
C516 C518 1.363 . S
C516 H532 0.931 . S
C517 C516 1.370 . S
C517 C521 1.408 . S
C518 C516 1.363 . S
C518 C519 1.370 . S
C518 C522 1.524 . S
C519 C511 1.503 1_565 S
C519 C518 1.370 . S
C519 C520 1.403 . S
C520 C519 1.403 . S
C520 C521 1.404 . S
C520 C523 1.539 1_565 S
C521 C517 1.408 . S
C521 C520 1.404 . S
C521 H533 0.930 . S
C522 C518 1.524 . S
C522 H534 0.956 . S
C522 H535 0.961 . S
C522 H536 0.961 . S
C523 C520 1.539 1_545 S
C523 H537 0.958 . S
C523 H538 0.961 . S
C523 H539 0.960 . S
H524 C508 0.931 . S
H525 C513 0.929 . S
H526 C514 0.960 . S
H527 C514 0.962 . S
H528 C514 0.960 . S
H529 C515 0.961 . S
H530 C515 0.961 . S
H531 C515 0.961 . S
H532 C516 0.931 . S
H533 C521 0.930 . S
H534 C522 0.956 . S
H535 C522 0.961 . S
H536 C522 0.961 . S
H537 C523 0.958 . S
H538 C523 0.961 . S
H539 C523 0.960 . S
C540 C541 1.391 . S
C540 C542 1.394 . S
C540 H556 0.931 . S
C541 C540 1.391 . S
C541 C545 1.376 . S
C542 C540 1.394 . S
C542 C543 1.369 . S
C542 C546 1.531 . S
C543 C542 1.369 . S
C543 C544 1.410 . S
C543 C551 1.503 1_455 S
C544 C543 1.410 . S
C544 C545 1.392 . S
C544 C547 1.511 1_455 S
C545 C541 1.376 . S
C545 C544 1.392 . S
C545 H557 0.929 . S
C546 C542 1.531 . S
C546 H558 0.960 1_455 S
C546 H559 0.962 . S
C546 H560 0.960 . S
C547 C544 1.511 1_655 S
C547 H561 0.961 1_655 S
C547 H562 0.961 . S
C547 H563 0.961 . S
C548 C549 1.370 . S
C548 C550 1.363 . S
C548 H564 0.931 . S
C549 C548 1.370 . S
C549 C553 1.408 . S
C550 C548 1.363 . S
C550 C551 1.370 . S
C550 C554 1.524 . S
C551 C543 1.503 1_655 S
C551 C550 1.370 . S
C551 C552 1.403 . S
C552 C551 1.403 . S
C552 C553 1.404 . S
C552 C555 1.539 . S
C553 C549 1.408 . S
C553 C552 1.404 . S
C553 H565 0.930 . S
C554 C550 1.524 . S
C554 H566 0.956 . S
C554 H567 0.961 . S
C554 H568 0.961 . S
C555 C552 1.539 . S
C555 H569 0.958 . S
C555 H570 0.961 . S
C555 H571 0.960 . S
H556 C540 0.931 . S
H557 C545 0.929 . S
H558 C546 0.960 1_655 S
H559 C546 0.962 . S
H560 C546 0.960 . S
H561 C547 0.961 1_455 S
H562 C547 0.961 . S
H563 C547 0.961 . S
H564 C548 0.931 . S
H565 C553 0.930 . S
H566 C554 0.956 . S
H567 C554 0.961 . S
H568 C554 0.961 . S
H569 C555 0.958 . S
H570 C555 0.961 . S
H571 C555 0.960 . S
C572 C573 1.391 . S
C572 C574 1.394 . S
C572 H588 0.931 . S
C573 C572 1.391 . S
C573 C577 1.376 . S
C574 C572 1.394 . S
C574 C575 1.369 . S
C574 C578 1.531 . S
C575 C574 1.369 . S
C575 C576 1.410 . S
C575 C583 1.503 . S
C576 C575 1.410 . S
C576 C577 1.392 . S
C576 C579 1.511 . S
C577 C573 1.376 . S
C577 C576 1.392 . S
C577 H589 0.929 . S
C578 C574 1.531 . S
C578 H590 0.960 . S
C578 H591 0.962 . S
C578 H592 0.960 . S
C579 C576 1.511 . S
C579 H593 0.961 . S
C579 H594 0.961 . S
C579 H595 0.961 . S
C580 C581 1.370 . S
C580 C582 1.363 . S
C580 H596 0.931 . S
C581 C580 1.370 . S
C581 C585 1.408 . S
C582 C580 1.363 . S
C582 C583 1.370 . S
C582 C586 1.524 . S
C583 C575 1.503 . S
C583 C582 1.370 . S
C583 C584 1.403 . S
C584 C583 1.403 . S
C584 C585 1.404 . S
C584 C587 1.539 . S
C585 C581 1.408 . S
C585 C584 1.404 . S
C585 H597 0.930 . S
C586 C582 1.524 . S
C586 H598 0.956 . S
C586 H599 0.961 . S
C586 H600 0.961 . S
C587 C584 1.539 . S
C587 H601 0.958 . S
C587 H602 0.961 . S
C587 H603 0.960 . S
H588 C572 0.931 . S
H589 C577 0.929 . S
H590 C578 0.960 . S
H591 C578 0.962 . S
H592 C578 0.960 . S
H593 C579 0.961 . S
H594 C579 0.961 . S
H595 C579 0.961 . S
H596 C580 0.931 . S
H597 C585 0.930 . S
H598 C586 0.956 . S
H599 C586 0.961 . S
H600 C586 0.961 . S
H601 C587 0.958 . S
H602 C587 0.961 . S
H603 C587 0.960 . S
C604 C605 1.391 . S
C604 C606 1.394 . S
C604 H620 0.931 . S
C605 C604 1.391 . S
C605 C609 1.376 . S
C606 C604 1.394 . S
C606 C607 1.369 . S
C606 C610 1.531 . S
C607 C606 1.369 . S
C607 C608 1.410 . S
C607 C615 1.503 1_545 S
C608 C607 1.410 . S
C608 C609 1.392 . S
C608 C611 1.511 . S
C609 C605 1.376 . S
C609 C608 1.392 . S
C609 H621 0.929 . S
C610 C606 1.531 . S
C610 H622 0.960 . S
C610 H623 0.962 . S
C610 H624 0.960 . S
C611 C608 1.511 . S
C611 H625 0.961 . S
C611 H626 0.961 . S
C611 H627 0.961 . S
C612 C613 1.370 . S
C612 C614 1.363 . S
C612 H628 0.931 . S
C613 C612 1.370 . S
C613 C617 1.408 . S
C614 C612 1.363 . S
C614 C615 1.370 . S
C614 C618 1.524 1_565 S
C615 C607 1.503 1_565 S
C615 C614 1.370 . S
C615 C616 1.403 . S
C616 C615 1.403 . S
C616 C617 1.404 . S
C616 C619 1.539 . S
C617 C613 1.408 . S
C617 C616 1.404 . S
C617 H629 0.930 . S
C618 C614 1.524 1_545 S
C618 H630 0.956 . S
C618 H631 0.961 . S
C618 H632 0.961 1_545 S
C619 C616 1.539 . S
C619 H633 0.958 . S
C619 H634 0.961 . S
C619 H635 0.960 1_565 S
H620 C604 0.931 . S
H621 C609 0.929 . S
H622 C610 0.960 . S
H623 C610 0.962 . S
H624 C610 0.960 . S
H625 C611 0.961 . S
H626 C611 0.961 . S
H627 C611 0.961 . S
H628 C612 0.931 . S
H629 C617 0.930 . S
H630 C618 0.956 . S
H631 C618 0.961 . S
H632 C618 0.961 1_565 S
H633 C619 0.958 . S
H634 C619 0.961 . S
H635 C619 0.960 1_545 S
C636 C637 1.391 . S
C636 C638 1.394 . S
C636 H652 0.931 . S
C637 C636 1.391 . S
C637 C641 1.376 . S
C638 C636 1.394 . S
C638 C639 1.369 . S
C638 C642 1.531 . S
C639 C638 1.369 . S
C639 C640 1.410 . S
C639 C647 1.503 1_565 S
C640 C639 1.410 . S
C640 C641 1.392 . S
C640 C643 1.511 . S
C641 C637 1.376 . S
C641 C640 1.392 . S
C641 H653 0.929 . S
C642 C638 1.531 . S
C642 H654 0.960 1_565 S
C642 H655 0.962 . S
C642 H656 0.960 . S
C643 C640 1.511 . S
C643 H657 0.961 . S
C643 H658 0.961 . S
C643 H659 0.961 . S
C644 C645 1.370 . S
C644 C646 1.363 . S
C644 H660 0.931 . S
C645 C644 1.370 . S
C645 C649 1.408 . S
C646 C644 1.363 . S
C646 C647 1.370 . S
C646 C650 1.524 . S
C647 C639 1.503 1_545 S
C647 C646 1.370 . S
C647 C648 1.403 . S
C648 C647 1.403 . S
C648 C649 1.404 . S
C648 C651 1.539 . S
C649 C645 1.408 . S
C649 C648 1.404 . S
C649 H661 0.930 . S
C650 C646 1.524 . S
C650 H662 0.956 1_545 S
C650 H663 0.961 1_545 S
C650 H664 0.961 . S
C651 C648 1.539 . S
C651 H665 0.958 . S
C651 H666 0.961 . S
C651 H667 0.960 1_545 S
H652 C636 0.931 . S
H653 C641 0.929 . S
H654 C642 0.960 1_545 S
H655 C642 0.962 . S
H656 C642 0.960 . S
H657 C643 0.961 . S
H658 C643 0.961 . S
H659 C643 0.961 . S
H660 C644 0.931 . S
H661 C649 0.930 . S
H662 C650 0.956 1_565 S
H663 C650 0.961 1_565 S
H664 C650 0.961 . S
H665 C651 0.958 . S
H666 C651 0.961 . S
H667 C651 0.960 1_565 S
C668 C669 1.391 . S
C668 C670 1.394 . S
C668 H684 0.931 . S
C669 C668 1.391 . S
C669 C673 1.376 . S
C670 C668 1.394 . S
C670 C671 1.369 . S
C670 C674 1.531 . S
C671 C670 1.369 . S
C671 C672 1.410 . S
C671 C679 1.503 1_455 S
C672 C671 1.410 . S
C672 C673 1.392 . S
C672 C675 1.511 . S
C673 C669 1.376 . S
C673 C672 1.392 . S
C673 H685 0.929 . S
C674 C670 1.531 . S
C674 H686 0.960 . S
C674 H687 0.962 . S
C674 H688 0.960 . S
C675 C672 1.511 . S
C675 H689 0.961 . S
C675 H690 0.961 1_455 S
C675 H691 0.961 . S
C676 C677 1.370 . S
C676 C678 1.363 . S
C676 H692 0.931 . S
C677 C676 1.370 . S
C677 C681 1.408 . S
C678 C676 1.363 . S
C678 C679 1.370 . S
C678 C682 1.524 . S
C679 C671 1.503 1_655 S
C679 C678 1.370 . S
C679 C680 1.403 . S
C680 C679 1.403 . S
C680 C681 1.404 . S
C680 C683 1.539 . S
C681 C677 1.408 . S
C681 C680 1.404 . S
C681 H693 0.930 . S
C682 C678 1.524 . S
C682 H694 0.956 1_655 S
C682 H695 0.961 1_655 S
C682 H696 0.961 . S
C683 C680 1.539 . S
C683 H697 0.958 . S
C683 H698 0.961 . S
C683 H699 0.960 1_655 S
H684 C668 0.931 . S
H685 C673 0.929 . S
H686 C674 0.960 . S
H687 C674 0.962 . S
H688 C674 0.960 . S
H689 C675 0.961 . S
H690 C675 0.961 1_655 S
H691 C675 0.961 . S
H692 C676 0.931 . S
H693 C681 0.930 . S
H694 C682 0.956 1_455 S
H695 C682 0.961 1_455 S
H696 C682 0.961 . S
H697 C683 0.958 . S
H698 C683 0.961 . S
H699 C683 0.960 1_455 S
C700 C701 1.391 . S
C700 C702 1.394 . S
C700 H716 0.931 . S
C701 C700 1.391 . S
C701 C705 1.376 . S
C702 C700 1.394 . S
C702 C703 1.369 . S
C702 C706 1.531 . S
C703 C702 1.369 . S
C703 C704 1.410 . S
C703 C711 1.503 . S
C704 C703 1.410 . S
C704 C705 1.392 . S
C704 C707 1.511 . S
C705 C701 1.376 . S
C705 C704 1.392 . S
C705 H717 0.929 . S
C706 C702 1.531 . S
C706 H718 0.960 . S
C706 H719 0.962 . S
C706 H720 0.960 . S
C707 C704 1.511 . S
C707 H721 0.961 . S
C707 H722 0.961 . S
C707 H723 0.961 . S
C708 C709 1.370 . S
C708 C710 1.363 . S
C708 H724 0.931 . S
C709 C708 1.370 . S
C709 C713 1.408 . S
C710 C708 1.363 . S
C710 C711 1.370 . S
C710 C714 1.524 . S
C711 C703 1.503 . S
C711 C710 1.370 . S
C711 C712 1.403 . S
C712 C711 1.403 . S
C712 C713 1.404 . S
C712 C715 1.539 . S
C713 C709 1.408 . S
C713 C712 1.404 . S
C713 H725 0.930 . S
C714 C710 1.524 . S
C714 H726 0.956 . S
C714 H727 0.961 . S
C714 H728 0.961 . S
C715 C712 1.539 . S
C715 H729 0.958 . S
C715 H730 0.961 . S
C715 H731 0.960 . S
H716 C700 0.931 . S
H717 C705 0.929 . S
H718 C706 0.960 . S
H719 C706 0.962 . S
H720 C706 0.960 . S
H721 C707 0.961 . S
H722 C707 0.961 . S
H723 C707 0.961 . S
H724 C708 0.931 . S
H725 C713 0.930 . S
H726 C714 0.956 . S
H727 C714 0.961 . S
H728 C714 0.961 . S
H729 C715 0.958 . S
H730 C715 0.961 . S
H731 C715 0.960 . S
C732 C733 1.391 . S
C732 C734 1.394 . S
C732 H748 0.931 . S
C733 C732 1.391 . S
C733 C737 1.376 . S
C734 C732 1.394 . S
C734 C735 1.369 . S
C734 C738 1.531 . S
C735 C734 1.369 . S
C735 C736 1.410 . S
C735 C743 1.503 . S
C736 C735 1.410 . S
C736 C737 1.392 . S
C736 C739 1.511 . S
C737 C733 1.376 . S
C737 C736 1.392 . S
C737 H749 0.929 . S
C738 C734 1.531 . S
C738 H750 0.960 . S
C738 H751 0.962 . S
C738 H752 0.960 . S
C739 C736 1.511 . S
C739 H753 0.961 . S
C739 H754 0.961 . S
C739 H755 0.961 . S
C740 C741 1.370 . S
C740 C742 1.363 . S
C740 H756 0.931 . S
C741 C740 1.370 . S
C741 C745 1.408 . S
C742 C740 1.363 . S
C742 C743 1.370 . S
C742 C746 1.524 . S
C743 C735 1.503 . S
C743 C742 1.370 . S
C743 C744 1.403 . S
C744 C743 1.403 . S
C744 C745 1.404 . S
C744 C747 1.539 . S
C745 C741 1.408 . S
C745 C744 1.404 . S
C745 H757 0.930 . S
C746 C742 1.524 . S
C746 H758 0.956 . S
C746 H759 0.961 . S
C746 H760 0.961 . S
C747 C744 1.539 . S
C747 H761 0.958 . S
C747 H762 0.961 . S
C747 H763 0.960 . S
H748 C732 0.931 . S
H749 C737 0.929 . S
H750 C738 0.960 . S
H751 C738 0.962 . S
H752 C738 0.960 . S
H753 C739 0.961 . S
H754 C739 0.961 . S
H755 C739 0.961 . S
H756 C740 0.931 . S
H757 C745 0.930 . S
H758 C746 0.956 . S
H759 C746 0.961 . S
H760 C746 0.961 . S
H761 C747 0.958 . S
H762 C747 0.961 . S
H763 C747 0.960 . S
C764 C765 1.391 . S
C764 C766 1.394 . S
C764 H780 0.931 . S
C765 C764 1.391 . S
C765 C769 1.376 . S
C766 C764 1.394 . S
C766 C767 1.369 . S
C766 C770 1.531 . S
C767 C766 1.369 . S
C767 C768 1.410 . S
C767 C775 1.503 . S
C768 C767 1.410 . S
C768 C769 1.392 . S
C768 C771 1.511 . S
C769 C765 1.376 . S
C769 C768 1.392 . S
C769 H781 0.929 . S
C770 C766 1.531 . S
C770 H782 0.960 . S
C770 H783 0.962 . S
C770 H784 0.960 . S
C771 C768 1.511 . S
C771 H785 0.961 . S
C771 H786 0.961 . S
C771 H787 0.961 . S
C772 C773 1.370 . S
C772 C774 1.363 . S
C772 H788 0.931 . S
C773 C772 1.370 . S
C773 C777 1.408 . S
C774 C772 1.363 . S
C774 C775 1.370 . S
C774 C778 1.524 . S
C775 C767 1.503 . S
C775 C774 1.370 . S
C775 C776 1.403 . S
C776 C775 1.403 . S
C776 C777 1.404 . S
C776 C779 1.539 . S
C777 C773 1.408 . S
C777 C776 1.404 . S
C777 H789 0.930 . S
C778 C774 1.524 . S
C778 H790 0.956 . S
C778 H791 0.961 . S
C778 H792 0.961 . S
C779 C776 1.539 . S
C779 H793 0.958 . S
C779 H794 0.961 . S
C779 H795 0.960 . S
H780 C764 0.931 . S
H781 C769 0.929 . S
H782 C770 0.960 . S
H783 C770 0.962 . S
H784 C770 0.960 . S
H785 C771 0.961 . S
H786 C771 0.961 . S
H787 C771 0.961 . S
H788 C772 0.931 . S
H789 C777 0.930 . S
H790 C778 0.956 . S
H791 C778 0.961 . S
H792 C778 0.961 . S
H793 C779 0.958 . S
H794 C779 0.961 . S
H795 C779 0.960 . S
C796 C797 1.391 . S
C796 C798 1.394 . S
C796 H812 0.931 . S
C797 C796 1.391 . S
C797 C801 1.376 . S
C798 C796 1.394 . S
C798 C799 1.369 . S
C798 C802 1.531 . S
C799 C798 1.369 . S
C799 C800 1.410 . S
C799 C807 1.503 . S
C800 C799 1.410 . S
C800 C801 1.392 . S
C800 C803 1.511 . S
C801 C797 1.376 . S
C801 C800 1.392 . S
C801 H813 0.929 . S
C802 C798 1.531 . S
C802 H814 0.960 . S
C802 H815 0.962 . S
C802 H816 0.960 . S
C803 C800 1.511 . S
C803 H817 0.961 . S
C803 H818 0.961 . S
C803 H819 0.961 . S
C804 C805 1.370 . S
C804 C806 1.363 . S
C804 H820 0.931 . S
C805 C804 1.370 . S
C805 C809 1.408 . S
C806 C804 1.363 . S
C806 C807 1.370 . S
C806 C810 1.524 . S
C807 C799 1.503 . S
C807 C806 1.370 . S
C807 C808 1.403 . S
C808 C807 1.403 . S
C808 C809 1.404 . S
C808 C811 1.539 . S
C809 C805 1.408 . S
C809 C808 1.404 . S
C809 H821 0.930 . S
C810 C806 1.524 . S
C810 H822 0.956 . S
C810 H823 0.961 . S
C810 H824 0.961 . S
C811 C808 1.539 . S
C811 H825 0.958 . S
C811 H826 0.961 . S
C811 H827 0.960 . S
H812 C796 0.931 . S
H813 C801 0.929 . S
H814 C802 0.960 . S
H815 C802 0.962 . S
H816 C802 0.960 . S
H817 C803 0.961 . S
H818 C803 0.961 . S
H819 C803 0.961 . S
H820 C804 0.931 . S
H821 C809 0.930 . S
H822 C810 0.956 . S
H823 C810 0.961 . S
H824 C810 0.961 . S
H825 C811 0.958 . S
H826 C811 0.961 . S
H827 C811 0.960 . S
C828 C829 1.391 . S
C828 C830 1.394 . S
C828 H844 0.931 . S
C829 C828 1.391 . S
C829 C833 1.376 . S
C830 C828 1.394 . S
C830 C831 1.369 . S
C830 C834 1.531 . S
C831 C830 1.369 . S
C831 C832 1.410 . S
C831 C839 1.503 . S
C832 C831 1.410 . S
C832 C833 1.392 . S
C832 C835 1.511 . S
C833 C829 1.376 . S
C833 C832 1.392 . S
C833 H845 0.929 . S
C834 C830 1.531 . S
C834 H846 0.960 . S
C834 H847 0.962 . S
C834 H848 0.960 . S
C835 C832 1.511 . S
C835 H849 0.961 . S
C835 H850 0.961 . S
C835 H851 0.961 . S
C836 C837 1.370 . S
C836 C838 1.363 . S
C836 H852 0.931 . S
C837 C836 1.370 . S
C837 C841 1.408 . S
C838 C836 1.363 . S
C838 C839 1.370 . S
C838 C842 1.524 . S
C839 C831 1.503 . S
C839 C838 1.370 . S
C839 C840 1.403 . S
C840 C839 1.403 . S
C840 C841 1.404 . S
C840 C843 1.539 . S
C841 C837 1.408 . S
C841 C840 1.404 . S
C841 H853 0.930 . S
C842 C838 1.524 . S
C842 H854 0.956 . S
C842 H855 0.961 . S
C842 H856 0.961 . S
C843 C840 1.539 . S
C843 H857 0.958 . S
C843 H858 0.961 . S
C843 H859 0.960 . S
H844 C828 0.931 . S
H845 C833 0.929 . S
H846 C834 0.960 . S
H847 C834 0.962 . S
H848 C834 0.960 . S
H849 C835 0.961 . S
H850 C835 0.961 . S
H851 C835 0.961 . S
H852 C836 0.931 . S
H853 C841 0.930 . S
H854 C842 0.956 . S
H855 C842 0.961 . S
H856 C842 0.961 . S
H857 C843 0.958 . S
H858 C843 0.961 . S
H859 C843 0.960 . S
C860 C861 1.391 . S
C860 C862 1.394 . S
C860 H876 0.931 . S
C861 C860 1.391 . S
C861 C865 1.376 . S
C862 C860 1.394 . S
C862 C863 1.369 . S
C862 C866 1.531 . S
C863 C862 1.369 . S
C863 C864 1.410 . S
C863 C871 1.503 . S
C864 C863 1.410 . S
C864 C865 1.392 . S
C864 C867 1.511 . S
C865 C861 1.376 . S
C865 C864 1.392 . S
C865 H877 0.929 . S
C866 C862 1.531 . S
C866 H878 0.960 . S
C866 H879 0.962 . S
C866 H880 0.960 . S
C867 C864 1.511 . S
C867 H881 0.961 . S
C867 H882 0.961 . S
C867 H883 0.961 . S
C868 C869 1.370 . S
C868 C870 1.363 . S
C868 H884 0.931 . S
C869 C868 1.370 . S
C869 C873 1.408 . S
C870 C868 1.363 . S
C870 C871 1.370 . S
C870 C874 1.524 . S
C871 C863 1.503 . S
C871 C870 1.370 . S
C871 C872 1.403 . S
C872 C871 1.403 . S
C872 C873 1.404 . S
C872 C875 1.539 . S
C873 C869 1.408 . S
C873 C872 1.404 . S
C873 H885 0.930 . S
C874 C870 1.524 . S
C874 H886 0.956 . S
C874 H887 0.961 . S
C874 H888 0.961 . S
C875 C872 1.539 . S
C875 H889 0.958 . S
C875 H890 0.961 . S
C875 H891 0.960 . S
H876 C860 0.931 . S
H877 C865 0.929 . S
H878 C866 0.960 . S
H879 C866 0.962 . S
H880 C866 0.960 . S
H881 C867 0.961 . S
H882 C867 0.961 . S
H883 C867 0.961 . S
H884 C868 0.931 . S
H885 C873 0.930 . S
H886 C874 0.956 . S
H887 C874 0.961 . S
H888 C874 0.961 . S
H889 C875 0.958 . S
H890 C875 0.961 . S
H891 C875 0.960 . S
C892 C893 1.391 . S
C892 C894 1.394 . S
C892 H908 0.931 . S
C893 C892 1.391 . S
C893 C897 1.376 . S
C894 C892 1.394 . S
C894 C895 1.369 . S
C894 C898 1.531 . S
C895 C894 1.369 . S
C895 C896 1.410 . S
C895 C903 1.503 . S
C896 C895 1.410 . S
C896 C897 1.392 . S
C896 C899 1.511 . S
C897 C893 1.376 . S
C897 C896 1.392 . S
C897 H909 0.929 . S
C898 C894 1.531 . S
C898 H910 0.960 . S
C898 H911 0.962 . S
C898 H912 0.960 . S
C899 C896 1.511 . S
C899 H913 0.961 . S
C899 H914 0.961 . S
C899 H915 0.961 . S
C900 C901 1.370 . S
C900 C902 1.363 . S
C900 H916 0.931 . S
C901 C900 1.370 . S
C901 C905 1.408 . S
C902 C900 1.363 . S
C902 C903 1.370 . S
C902 C906 1.524 . S
C903 C895 1.503 . S
C903 C902 1.370 . S
C903 C904 1.403 . S
C904 C903 1.403 . S
C904 C905 1.404 . S
C904 C907 1.539 . S
C905 C901 1.408 . S
C905 C904 1.404 . S
C905 H917 0.930 . S
C906 C902 1.524 . S
C906 H918 0.956 . S
C906 H919 0.961 . S
C906 H920 0.961 . S
C907 C904 1.539 . S
C907 H921 0.958 . S
C907 H922 0.961 . S
C907 H923 0.960 . S
H908 C892 0.931 . S
H909 C897 0.929 . S
H910 C898 0.960 . S
H911 C898 0.962 . S
H912 C898 0.960 . S
H913 C899 0.961 . S
H914 C899 0.961 . S
H915 C899 0.961 . S
H916 C900 0.931 . S
H917 C905 0.930 . S
H918 C906 0.956 . S
H919 C906 0.961 . S
H920 C906 0.961 . S
H921 C907 0.958 . S
H922 C907 0.961 . S
H923 C907 0.960 . S
C924 C925 1.391 . S
C924 C926 1.394 . S
C924 H940 0.931 . S
C925 C924 1.391 . S
C925 C929 1.376 . S
C926 C924 1.394 . S
C926 C927 1.369 . S
C926 C930 1.531 . S
C927 C926 1.369 . S
C927 C928 1.410 . S
C927 C935 1.503 . S
C928 C927 1.410 . S
C928 C929 1.392 . S
C928 C931 1.511 . S
C929 C925 1.376 . S
C929 C928 1.392 . S
C929 H941 0.929 . S
C930 C926 1.531 . S
C930 H942 0.960 . S
C930 H943 0.962 . S
C930 H944 0.960 . S
C931 C928 1.511 . S
C931 H945 0.961 . S
C931 H946 0.961 . S
C931 H947 0.961 . S
C932 C933 1.370 . S
C932 C934 1.363 . S
C932 H948 0.931 . S
C933 C932 1.370 . S
C933 C937 1.408 . S
C934 C932 1.363 . S
C934 C935 1.370 . S
C934 C938 1.524 . S
C935 C927 1.503 . S
C935 C934 1.370 . S
C935 C936 1.403 . S
C936 C935 1.403 . S
C936 C937 1.404 . S
C936 C939 1.539 . S
C937 C933 1.408 . S
C937 C936 1.404 . S
C937 H949 0.930 . S
C938 C934 1.524 . S
C938 H950 0.956 . S
C938 H951 0.961 . S
C938 H952 0.961 . S
C939 C936 1.539 . S
C939 H953 0.958 . S
C939 H954 0.961 . S
C939 H955 0.960 . S
H940 C924 0.931 . S
H941 C929 0.929 . S
H942 C930 0.960 . S
H943 C930 0.962 . S
H944 C930 0.960 . S
H945 C931 0.961 . S
H946 C931 0.961 . S
H947 C931 0.961 . S
H948 C932 0.931 . S
H949 C937 0.930 . S
H950 C938 0.956 . S
H951 C938 0.961 . S
H952 C938 0.961 . S
H953 C939 0.958 . S
H954 C939 0.961 . S
H955 C939 0.960 . S
C956 C957 1.391 . S
C956 C958 1.394 . S
C956 H972 0.931 . S
C957 C956 1.391 . S
C957 C961 1.376 . S
C958 C956 1.394 . S
C958 C959 1.369 . S
C958 C962 1.531 . S
C959 C958 1.369 . S
C959 C960 1.410 . S
C959 C967 1.503 . S
C960 C959 1.410 . S
C960 C961 1.392 . S
C960 C963 1.511 . S
C961 C957 1.376 . S
C961 C960 1.392 . S
C961 H973 0.929 . S
C962 C958 1.531 . S
C962 H974 0.960 . S
C962 H975 0.962 . S
C962 H976 0.960 . S
C963 C960 1.511 . S
C963 H977 0.961 . S
C963 H978 0.961 . S
C963 H979 0.961 . S
C964 C965 1.370 . S
C964 C966 1.363 . S
C964 H980 0.931 . S
C965 C964 1.370 . S
C965 C969 1.408 . S
C966 C964 1.363 . S
C966 C967 1.370 . S
C966 C970 1.524 . S
C967 C959 1.503 . S
C967 C966 1.370 . S
C967 C968 1.403 . S
C968 C967 1.403 . S
C968 C969 1.404 . S
C968 C971 1.539 . S
C969 C965 1.408 . S
C969 C968 1.404 . S
C969 H981 0.930 . S
C970 C966 1.524 . S
C970 H982 0.956 . S
C970 H983 0.961 . S
C970 H984 0.961 . S
C971 C968 1.539 . S
C971 H985 0.958 . S
C971 H986 0.961 . S
C971 H987 0.960 . S
H972 C956 0.931 . S
H973 C961 0.929 . S
H974 C962 0.960 . S
H975 C962 0.962 . S
H976 C962 0.960 . S
H977 C963 0.961 . S
H978 C963 0.961 . S
H979 C963 0.961 . S
H980 C964 0.931 . S
H981 C969 0.930 . S
H982 C970 0.956 . S
H983 C970 0.961 . S
H984 C970 0.961 . S
H985 C971 0.958 . S
H986 C971 0.961 . S
H987 C971 0.960 . S
C988 C989 1.391 . S
C988 C990 1.394 . S
C988 H1004 0.931 . S
C989 C988 1.391 . S
C989 C993 1.376 . S
C990 C988 1.394 . S
C990 C991 1.369 . S
C990 C994 1.531 . S
C991 C990 1.369 . S
C991 C992 1.410 . S
C991 C999 1.503 . S
C992 C991 1.410 . S
C992 C993 1.392 . S
C992 C995 1.511 . S
C993 C989 1.376 . S
C993 C992 1.392 . S
C993 H1005 0.929 . S
C994 C990 1.531 . S
C994 H1006 0.960 . S
C994 H1007 0.962 . S
C994 H1008 0.960 . S
C995 C992 1.511 . S
C995 H1009 0.961 . S
C995 H1010 0.961 . S
C995 H1011 0.961 . S
C996 C997 1.370 . S
C996 C998 1.363 . S
C996 H1012 0.931 . S
C997 C996 1.370 . S
C997 C1001 1.408 . S
C998 C996 1.363 . S
C998 C999 1.370 . S
C998 C1002 1.524 . S
C999 C991 1.503 . S
C999 C998 1.370 . S
C999 C1000 1.403 . S
C1000 C999 1.403 . S
C1000 C1001 1.404 . S
C1000 C1003 1.539 . S
C1001 C997 1.408 . S
C1001 C1000 1.404 . S
C1001 H1013 0.930 . S
C1002 C998 1.524 . S
C1002 H1014 0.956 . S
C1002 H1015 0.961 . S
C1002 H1016 0.961 . S
C1003 C1000 1.539 . S
C1003 H1017 0.958 . S
C1003 H1018 0.961 . S
C1003 H1019 0.960 . S
H1004 C988 0.931 . S
H1005 C993 0.929 . S
H1006 C994 0.960 . S
H1007 C994 0.962 . S
H1008 C994 0.960 . S
H1009 C995 0.961 . S
H1010 C995 0.961 . S
H1011 C995 0.961 . S
H1012 C996 0.931 . S
H1013 C1001 0.930 . S
H1014 C1002 0.956 . S
H1015 C1002 0.961 . S
H1016 C1002 0.961 . S
H1017 C1003 0.958 . S
H1018 C1003 0.961 . S
H1019 C1003 0.960 . S
C1020 C1021 1.391 . S
C1020 C1022 1.394 . S
C1020 H1036 0.931 . S
C1021 C1020 1.391 . S
C1021 C1025 1.376 . S
C1022 C1020 1.394 . S
C1022 C1023 1.369 . S
C1022 C1026 1.531 . S
C1023 C1022 1.369 . S
C1023 C1024 1.410 . S
C1023 C1031 1.503 . S
C1024 C1023 1.410 . S
C1024 C1025 1.392 . S
C1024 C1027 1.511 . S
C1025 C1021 1.376 . S
C1025 C1024 1.392 . S
C1025 H1037 0.929 . S
C1026 C1022 1.531 . S
C1026 H1038 0.960 . S
C1026 H1039 0.962 . S
C1026 H1040 0.960 . S
C1027 C1024 1.511 . S
C1027 H1041 0.961 . S
C1027 H1042 0.961 . S
C1027 H1043 0.961 . S
C1028 C1029 1.370 . S
C1028 C1030 1.363 . S
C1028 H1044 0.931 . S
C1029 C1028 1.370 . S
C1029 C1033 1.408 . S
C1030 C1028 1.363 . S
C1030 C1031 1.370 . S
C1030 C1034 1.524 . S
C1031 C1023 1.503 . S
C1031 C1030 1.370 . S
C1031 C1032 1.403 . S
C1032 C1031 1.403 . S
C1032 C1033 1.404 . S
C1032 C1035 1.539 . S
C1033 C1029 1.408 . S
C1033 C1032 1.404 . S
C1033 H1045 0.930 . S
C1034 C1030 1.524 . S
C1034 H1046 0.956 . S
C1034 H1047 0.961 . S
C1034 H1048 0.961 . S
C1035 C1032 1.539 . S
C1035 H1049 0.958 . S
C1035 H1050 0.961 . S
C1035 H1051 0.960 . S
H1036 C1020 0.931 . S
H1037 C1025 0.929 . S
H1038 C1026 0.960 . S
H1039 C1026 0.962 . S
H1040 C1026 0.960 . S
H1041 C1027 0.961 . S
H1042 C1027 0.961 . S
H1043 C1027 0.961 . S
H1044 C1028 0.931 . S
H1045 C1033 0.930 . S
H1046 C1034 0.956 . S
H1047 C1034 0.961 . S
H1048 C1034 0.961 . S
H1049 C1035 0.958 . S
H1050 C1035 0.961 . S
H1051 C1035 0.960 . S
C1052 C1053 1.391 . S
C1052 C1054 1.394 . S
C1052 H1068 0.931 . S
C1053 C1052 1.391 . S
C1053 C1057 1.376 . S
C1054 C1052 1.394 . S
C1054 C1055 1.369 . S
C1054 C1058 1.531 . S
C1055 C1054 1.369 . S
C1055 C1056 1.410 . S
C1055 C1063 1.503 . S
C1056 C1055 1.410 . S
C1056 C1057 1.392 . S
C1056 C1059 1.511 . S
C1057 C1053 1.376 . S
C1057 C1056 1.392 . S
C1057 H1069 0.929 . S
C1058 C1054 1.531 . S
C1058 H1070 0.960 . S
C1058 H1071 0.962 . S
C1058 H1072 0.960 . S
C1059 C1056 1.511 . S
C1059 H1073 0.961 . S
C1059 H1074 0.961 . S
C1059 H1075 0.961 . S
C1060 C1061 1.370 . S
C1060 C1062 1.363 . S
C1060 H1076 0.931 . S
C1061 C1060 1.370 . S
C1061 C1065 1.408 . S
C1062 C1060 1.363 . S
C1062 C1063 1.370 . S
C1062 C1066 1.524 . S
C1063 C1055 1.503 . S
C1063 C1062 1.370 . S
C1063 C1064 1.403 . S
C1064 C1063 1.403 . S
C1064 C1065 1.404 . S
C1064 C1067 1.539 . S
C1065 C1061 1.408 . S
C1065 C1064 1.404 . S
C1065 H1077 0.930 . S
C1066 C1062 1.524 . S
C1066 H1078 0.956 . S
C1066 H1079 0.961 . S
C1066 H1080 0.961 . S
C1067 C1064 1.539 . S
C1067 H1081 0.958 . S
C1067 H1082 0.961 . S
C1067 H1083 0.960 . S
H1068 C1052 0.931 . S
H1069 C1057 0.929 . S
H1070 C1058 0.960 . S
H1071 C1058 0.962 . S
H1072 C1058 0.960 . S
H1073 C1059 0.961 . S
H1074 C1059 0.961 . S
H1075 C1059 0.961 . S
H1076 C1060 0.931 . S
H1077 C1065 0.930 . S
H1078 C1066 0.956 . S
H1079 C1066 0.961 . S
H1080 C1066 0.961 . S
H1081 C1067 0.958 . S
H1082 C1067 0.961 . S
H1083 C1067 0.960 . S
C1084 C1085 1.391 . S
C1084 C1086 1.394 . S
C1084 H1100 0.931 . S
C1085 C1084 1.391 . S
C1085 C1089 1.376 . S
C1086 C1084 1.394 . S
C1086 C1087 1.369 . S
C1086 C1090 1.531 . S
C1087 C1086 1.369 . S
C1087 C1088 1.410 . S
C1087 C1095 1.503 . S
C1088 C1087 1.410 . S
C1088 C1089 1.392 . S
C1088 C1091 1.511 . S
C1089 C1085 1.376 . S
C1089 C1088 1.392 . S
C1089 H1101 0.929 . S
C1090 C1086 1.531 . S
C1090 H1102 0.960 . S
C1090 H1103 0.962 . S
C1090 H1104 0.960 . S
C1091 C1088 1.511 . S
C1091 H1105 0.961 . S
C1091 H1106 0.961 . S
C1091 H1107 0.961 . S
C1092 C1093 1.370 . S
C1092 C1094 1.363 . S
C1092 H1108 0.931 . S
C1093 C1092 1.370 . S
C1093 C1097 1.408 . S
C1094 C1092 1.363 . S
C1094 C1095 1.370 . S
C1094 C1098 1.524 . S
C1095 C1087 1.503 . S
C1095 C1094 1.370 . S
C1095 C1096 1.403 . S
C1096 C1095 1.403 . S
C1096 C1097 1.404 . S
C1096 C1099 1.539 . S
C1097 C1093 1.408 . S
C1097 C1096 1.404 . S
C1097 H1109 0.930 . S
C1098 C1094 1.524 . S
C1098 H1110 0.956 . S
C1098 H1111 0.961 . S
C1098 H1112 0.961 . S
C1099 C1096 1.539 . S
C1099 H1113 0.958 . S
C1099 H1114 0.961 . S
C1099 H1115 0.960 . S
H1100 C1084 0.931 . S
H1101 C1089 0.929 . S
H1102 C1090 0.960 . S
H1103 C1090 0.962 . S
H1104 C1090 0.960 . S
H1105 C1091 0.961 . S
H1106 C1091 0.961 . S
H1107 C1091 0.961 . S
H1108 C1092 0.931 . S
H1109 C1097 0.930 . S
H1110 C1098 0.956 . S
H1111 C1098 0.961 . S
H1112 C1098 0.961 . S
H1113 C1099 0.958 . S
H1114 C1099 0.961 . S
H1115 C1099 0.960 . S
C1116 C1117 1.391 . S
C1116 C1118 1.394 . S
C1116 H1132 0.931 . S
C1117 C1116 1.391 . S
C1117 C1121 1.376 . S
C1118 C1116 1.394 . S
C1118 C1119 1.369 . S
C1118 C1122 1.531 . S
C1119 C1118 1.369 . S
C1119 C1120 1.410 . S
C1119 C1127 1.503 1_554 S
C1120 C1119 1.410 . S
C1120 C1121 1.392 . S
C1120 C1123 1.511 . S
C1121 C1117 1.376 . S
C1121 C1120 1.392 . S
C1121 H1133 0.929 . S
C1122 C1118 1.531 . S
C1122 H1134 0.960 1_554 S
C1122 H1135 0.966 . S
C1122 H1136 0.960 . S
C1123 C1120 1.511 . S
C1123 H1137 0.961 . S
C1123 H1138 0.961 . S
C1123 H1139 0.961 . S
C1124 C1125 1.370 . S
C1124 C1126 1.363 . S
C1124 H1140 0.931 . S
C1125 C1124 1.370 . S
C1125 C1129 1.408 . S
C1126 C1124 1.363 . S
C1126 C1127 1.370 . S
C1126 C1130 1.524 . S
C1127 C1119 1.503 1_556 S
C1127 C1126 1.370 . S
C1127 C1128 1.403 . S
C1128 C1127 1.403 . S
C1128 C1129 1.404 . S
C1128 C1131 1.539 . S
C1129 C1125 1.408 . S
C1129 C1128 1.404 . S
C1129 H1141 0.930 . S
C1130 C1126 1.524 . S
C1130 H1142 0.956 . S
C1130 H1143 0.961 1_556 S
C1130 H1144 0.961 . S
C1131 C1128 1.539 . S
C1131 H1145 0.958 . S
C1131 H1146 0.961 . S
C1131 H1147 0.960 1_556 S
H1132 C1116 0.931 . S
H1133 C1121 0.929 . S
H1134 C1122 0.960 1_556 S
H1135 C1122 0.966 . S
H1136 C1122 0.960 . S
H1137 C1123 0.961 . S
H1138 C1123 0.961 . S
H1139 C1123 0.961 . S
H1140 C1124 0.931 . S
H1141 C1129 0.930 . S
H1142 C1130 0.956 . S
H1143 C1130 0.961 1_554 S
H1144 C1130 0.961 . S
H1145 C1131 0.958 . S
H1146 C1131 0.961 . S
H1147 C1131 0.960 1_554 S
C1148 C1149 1.391 . S
C1148 C1150 1.394 . S
C1148 H1164 0.931 . S
C1149 C1148 1.391 . S
C1149 C1153 1.376 . S
C1150 C1148 1.394 . S
C1150 C1151 1.369 . S
C1150 C1154 1.531 . S
C1151 C1150 1.369 . S
C1151 C1152 1.410 . S
C1151 C1159 1.503 1_556 S
C1152 C1151 1.410 . S
C1152 C1153 1.392 . S
C1152 C1155 1.511 . S
C1153 C1149 1.376 . S
C1153 C1152 1.392 . S
C1153 H1165 0.929 . S
C1154 C1150 1.531 . S
C1154 H1166 0.910 1_556 S
C1154 H1167 0.962 1_545 S
C1154 H1168 0.960 . S
C1155 C1152 1.511 . S
C1155 H1169 0.961 1_545 S
C1155 H1170 0.961 1_545 S
C1155 H1171 0.961 . S
C1156 C1157 1.370 . S
C1156 C1158 1.363 . S
C1156 H1172 0.931 . S
C1157 C1156 1.370 . S
C1157 C1161 1.408 1_565 S
C1158 C1156 1.363 . S
C1158 C1159 1.370 1_565 S
C1158 C1162 1.524 . S
C1159 C1151 1.503 1_554 S
C1159 C1158 1.370 1_545 S
C1159 C1160 1.403 . S
C1160 C1159 1.403 . S
C1160 C1161 1.404 . S
C1160 C1163 1.539 . S
C1161 C1157 1.408 1_545 S
C1161 C1160 1.404 . S
C1161 H1173 0.930 . S
C1162 C1158 1.524 . S
C1162 H1174 0.956 1_554 S
C1162 H1175 0.961 1_554 S
C1162 H1176 0.961 . S
C1163 C1160 1.539 . S
C1163 H1177 0.958 . S
C1163 H1178 0.961 . S
C1163 H1179 0.960 1_554 S
H1164 C1148 0.931 . S
H1165 C1153 0.929 . S
H1166 C1154 0.910 1_554 S
H1167 C1154 0.962 1_565 S
H1168 C1154 0.960 . S
H1169 C1155 0.961 1_565 S
H1170 C1155 0.961 1_565 S
H1171 C1155 0.961 . S
H1172 C1156 0.931 . S
H1173 C1161 0.930 . S
H1174 C1162 0.956 1_556 S
H1175 C1162 0.961 1_556 S
H1176 C1162 0.961 . S
H1177 C1163 0.958 . S
H1178 C1163 0.961 . S
H1179 C1163 0.960 1_556 S
C1180 C1181 1.391 . S
C1180 C1182 1.394 . S
C1180 H1196 0.931 . S
C1181 C1180 1.391 . S
C1181 C1185 1.376 1_655 S
C1182 C1180 1.394 . S
C1182 C1183 1.369 1_655 S
C1182 C1186 1.531 . S
C1183 C1182 1.369 1_455 S
C1183 C1184 1.410 . S
C1183 C1191 1.503 1_556 S
C1184 C1183 1.410 . S
C1184 C1185 1.392 . S
C1184 C1187 1.511 . S
C1185 C1181 1.376 1_455 S
C1185 C1184 1.392 . S
C1185 H1197 0.929 . S
C1186 C1182 1.531 . S
C1186 H1198 0.960 1_556 S
C1186 H1199 0.962 . S
C1186 H1200 0.960 . S
C1187 C1184 1.511 . S
C1187 H1201 0.961 . S
C1187 H1202 0.961 1_556 S
C1187 H1203 0.961 . S
C1188 C1189 1.370 1_655 S
C1188 C1190 1.363 . S
C1188 H1204 0.931 . S
C1189 C1188 1.370 1_455 S
C1189 C1193 1.408 . S
C1190 C1188 1.363 . S
C1190 C1191 1.370 1_655 S
C1190 C1194 1.524 . S
C1191 C1183 1.503 1_554 S
C1191 C1190 1.370 1_455 S
C1191 C1192 1.403 . S
C1192 C1191 1.403 . S
C1192 C1193 1.404 . S
C1192 C1195 1.539 . S
C1193 C1189 1.408 . S
C1193 C1192 1.404 . S
C1193 H1205 0.930 . S
C1194 C1190 1.524 . S
C1194 H1206 0.956 . S
C1194 H1207 0.959 1_655 S
C1194 H1208 0.961 . S
C1195 C1192 1.539 . S
C1195 H1209 0.958 . S
C1195 H1210 0.961 . S
C1195 H1211 0.960 . S
H1196 C1180 0.931 . S
H1197 C1185 0.929 . S
H1198 C1186 0.960 1_554 S
H1199 C1186 0.962 . S
H1200 C1186 0.960 . S
H1201 C1187 0.961 . S
H1202 C1187 0.961 1_554 S
H1203 C1187 0.961 . S
H1204 C1188 0.931 . S
H1205 C1193 0.930 . S
H1206 C1194 0.956 . S
H1207 C1194 0.959 1_455 S
H1208 C1194 0.961 . S
H1209 C1195 0.958 . S
H1210 C1195 0.961 . S
H1211 C1195 0.960 . S
C1212 C1213 1.391 . S
C1212 C1214 1.394 . S
C1212 H1228 0.931 . S
C1213 C1212 1.391 . S
C1213 C1217 1.376 . S
C1214 C1212 1.394 . S
C1214 C1215 1.369 . S
C1214 C1218 1.531 . S
C1215 C1214 1.369 . S
C1215 C1216 1.410 . S
C1215 C1223 1.503 . S
C1216 C1215 1.410 . S
C1216 C1217 1.392 . S
C1216 C1219 1.511 . S
C1217 C1213 1.376 . S
C1217 C1216 1.392 . S
C1217 H1229 0.929 . S
C1218 C1214 1.531 . S
C1218 H1230 0.960 . S
C1218 H1231 0.962 . S
C1218 H1232 0.960 . S
C1219 C1216 1.511 . S
C1219 H1233 0.961 . S
C1219 H1234 0.961 . S
C1219 H1235 0.961 . S
C1220 C1221 1.370 . S
C1220 C1222 1.363 . S
C1220 H1236 0.931 . S
C1221 C1220 1.370 . S
C1221 C1225 1.408 . S
C1222 C1220 1.363 . S
C1222 C1223 1.370 . S
C1222 C1226 1.524 . S
C1223 C1215 1.503 . S
C1223 C1222 1.370 . S
C1223 C1224 1.403 . S
C1224 C1223 1.403 . S
C1224 C1225 1.404 . S
C1224 C1227 1.539 . S
C1225 C1221 1.408 . S
C1225 C1224 1.404 . S
C1225 H1237 0.930 . S
C1226 C1222 1.524 . S
C1226 H1238 0.956 . S
C1226 H1239 0.961 . S
C1226 H1240 0.961 . S
C1227 C1224 1.539 . S
C1227 H1241 0.958 . S
C1227 H1242 0.961 . S
C1227 H1243 0.960 . S
H1228 C1212 0.931 . S
H1229 C1217 0.929 . S
H1230 C1218 0.960 . S
H1231 C1218 0.962 . S
H1232 C1218 0.960 . S
H1233 C1219 0.961 . S
H1234 C1219 0.961 . S
H1235 C1219 0.961 . S
H1236 C1220 0.931 . S
H1237 C1225 0.930 . S
H1238 C1226 0.956 . S
H1239 C1226 0.961 . S
H1240 C1226 0.961 . S
H1241 C1227 0.958 . S
H1242 C1227 0.961 . S
H1243 C1227 0.960 . S
C1244 C1245 1.391 . S
C1244 C1246 1.394 . S
C1244 H1260 0.931 . S
C1245 C1244 1.391 . S
C1245 C1249 1.376 . S
C1246 C1244 1.394 . S
C1246 C1247 1.369 . S
C1246 C1250 1.531 . S
C1247 C1246 1.369 . S
C1247 C1248 1.410 . S
C1247 C1255 1.503 . S
C1248 C1247 1.410 . S
C1248 C1249 1.392 . S
C1248 C1251 1.511 . S
C1249 C1245 1.376 . S
C1249 C1248 1.392 . S
C1249 H1261 0.929 . S
C1250 C1246 1.531 . S
C1250 H1262 0.960 . S
C1250 H1263 0.962 . S
C1250 H1264 0.960 . S
C1251 C1248 1.511 . S
C1251 H1265 0.961 . S
C1251 H1266 0.961 . S
C1251 H1267 0.961 . S
C1252 C1253 1.370 . S
C1252 C1254 1.363 . S
C1252 H1268 0.931 . S
C1253 C1252 1.370 . S
C1253 C1257 1.408 . S
C1254 C1252 1.363 . S
C1254 C1255 1.370 . S
C1254 C1258 1.524 . S
C1255 C1247 1.503 . S
C1255 C1254 1.370 . S
C1255 C1256 1.403 . S
C1256 C1255 1.403 . S
C1256 C1257 1.404 . S
C1256 C1259 1.539 . S
C1257 C1253 1.408 . S
C1257 C1256 1.404 . S
C1257 H1269 0.930 . S
C1258 C1254 1.524 . S
C1258 H1270 0.956 . S
C1258 H1271 0.961 . S
C1258 H1272 0.961 . S
C1259 C1256 1.539 . S
C1259 H1273 0.958 . S
C1259 H1274 0.961 . S
C1259 H1275 0.960 . S
H1260 C1244 0.931 . S
H1261 C1249 0.929 . S
H1262 C1250 0.960 . S
H1263 C1250 0.962 . S
H1264 C1250 0.960 . S
H1265 C1251 0.961 . S
H1266 C1251 0.961 . S
H1267 C1251 0.961 . S
H1268 C1252 0.931 . S
H1269 C1257 0.930 . S
H1270 C1258 0.956 . S
H1271 C1258 0.961 . S
H1272 C1258 0.961 . S
H1273 C1259 0.958 . S
H1274 C1259 0.961 . S
H1275 C1259 0.960 . S
C1276 C1277 1.391 . S
C1276 C1278 1.394 . S
C1276 H1292 0.931 . S
C1277 C1276 1.391 . S
C1277 C1281 1.376 . S
C1278 C1276 1.394 . S
C1278 C1279 1.369 . S
C1278 C1282 1.531 . S
C1279 C1278 1.369 . S
C1279 C1280 1.410 . S
C1279 C1287 1.503 . S
C1280 C1279 1.410 . S
C1280 C1281 1.392 . S
C1280 C1283 1.511 . S
C1281 C1277 1.376 . S
C1281 C1280 1.392 . S
C1281 H1293 0.929 . S
C1282 C1278 1.531 . S
C1282 H1294 0.960 . S
C1282 H1295 0.962 . S
C1282 H1296 0.960 . S
C1283 C1280 1.511 . S
C1283 H1297 0.961 . S
C1283 H1298 0.961 . S
C1283 H1299 0.961 . S
C1284 C1285 1.370 . S
C1284 C1286 1.363 . S
C1284 H1300 0.931 . S
C1285 C1284 1.370 . S
C1285 C1289 1.408 . S
C1286 C1284 1.363 . S
C1286 C1287 1.370 . S
C1286 C1290 1.524 . S
C1287 C1279 1.503 . S
C1287 C1286 1.370 . S
C1287 C1288 1.403 . S
C1288 C1287 1.403 . S
C1288 C1289 1.404 . S
C1288 C1291 1.539 . S
C1289 C1285 1.408 . S
C1289 C1288 1.404 . S
C1289 H1301 0.930 . S
C1290 C1286 1.524 . S
C1290 H1302 0.956 . S
C1290 H1303 0.961 . S
C1290 H1304 0.961 . S
C1291 C1288 1.539 . S
C1291 H1305 0.958 . S
C1291 H1306 0.961 . S
C1291 H1307 0.960 . S
H1292 C1276 0.931 . S
H1293 C1281 0.929 . S
H1294 C1282 0.960 . S
H1295 C1282 0.962 . S
H1296 C1282 0.960 . S
H1297 C1283 0.961 . S
H1298 C1283 0.961 . S
H1299 C1283 0.961 . S
H1300 C1284 0.931 . S
H1301 C1289 0.930 . S
H1302 C1290 0.956 . S
H1303 C1290 0.961 . S
H1304 C1290 0.961 . S
H1305 C1291 0.958 . S
H1306 C1291 0.961 . S
H1307 C1291 0.960 . S
C1308 C1309 1.391 . S
C1308 C1310 1.394 . S
C1308 H1324 0.931 . S
C1309 C1308 1.391 . S
C1309 C1313 1.376 . S
C1310 C1308 1.394 . S
C1310 C1311 1.369 . S
C1310 C1314 1.531 . S
C1311 C1310 1.369 . S
C1311 C1312 1.410 . S
C1311 C1319 1.503 . S
C1312 C1311 1.410 . S
C1312 C1313 1.392 . S
C1312 C1315 1.511 . S
C1313 C1309 1.376 . S
C1313 C1312 1.392 . S
C1313 H1325 0.929 . S
C1314 C1310 1.531 . S
C1314 H1326 0.960 . S
C1314 H1327 0.962 . S
C1314 H1328 0.960 . S
C1315 C1312 1.511 . S
C1315 H1329 0.961 . S
C1315 H1330 0.961 . S
C1315 H1331 0.961 . S
C1316 C1317 1.370 . S
C1316 C1318 1.363 . S
C1316 H1332 0.931 . S
C1317 C1316 1.370 . S
C1317 C1321 1.408 . S
C1318 C1316 1.363 . S
C1318 C1319 1.370 . S
C1318 C1322 1.524 . S
C1319 C1311 1.503 . S
C1319 C1318 1.370 . S
C1319 C1320 1.403 . S
C1320 C1319 1.403 . S
C1320 C1321 1.404 . S
C1320 C1323 1.539 . S
C1321 C1317 1.408 . S
C1321 C1320 1.404 . S
C1321 H1333 0.930 . S
C1322 C1318 1.524 . S
C1322 H1334 0.956 . S
C1322 H1335 0.961 . S
C1322 H1336 0.961 . S
C1323 C1320 1.539 . S
C1323 H1337 0.958 . S
C1323 H1338 0.961 . S
C1323 H1339 0.960 . S
H1324 C1308 0.931 . S
H1325 C1313 0.929 . S
H1326 C1314 0.960 . S
H1327 C1314 0.962 . S
H1328 C1314 0.960 . S
H1329 C1315 0.961 . S
H1330 C1315 0.961 . S
H1331 C1315 0.961 . S
H1332 C1316 0.931 . S
H1333 C1321 0.930 . S
H1334 C1322 0.956 . S
H1335 C1322 0.961 . S
H1336 C1322 0.961 . S
H1337 C1323 0.958 . S
H1338 C1323 0.961 . S
H1339 C1323 0.960 . S
C1340 C1341 1.391 . S
C1340 C1342 1.394 . S
C1340 H1356 0.931 . S
C1341 C1340 1.391 . S
C1341 C1345 1.376 . S
C1342 C1340 1.394 . S
C1342 C1343 1.369 . S
C1342 C1346 1.531 . S
C1343 C1342 1.369 . S
C1343 C1344 1.410 . S
C1343 C1351 1.503 . S
C1344 C1343 1.410 . S
C1344 C1345 1.392 . S
C1344 C1347 1.511 . S
C1345 C1341 1.376 . S
C1345 C1344 1.392 . S
C1345 H1357 0.929 . S
C1346 C1342 1.531 . S
C1346 H1358 0.960 . S
C1346 H1359 0.962 . S
C1346 H1360 0.960 . S
C1347 C1344 1.511 . S
C1347 H1361 0.961 . S
C1347 H1362 0.961 . S
C1347 H1363 0.961 . S
C1348 C1349 1.370 . S
C1348 C1350 1.363 . S
C1348 H1364 0.931 . S
C1349 C1348 1.370 . S
C1349 C1353 1.408 . S
C1350 C1348 1.363 . S
C1350 C1351 1.370 . S
C1350 C1354 1.524 . S
C1351 C1343 1.503 . S
C1351 C1350 1.370 . S
C1351 C1352 1.403 . S
C1352 C1351 1.403 . S
C1352 C1353 1.404 . S
C1352 C1355 1.539 . S
C1353 C1349 1.408 . S
C1353 C1352 1.404 . S
C1353 H1365 0.930 . S
C1354 C1350 1.524 . S
C1354 H1366 0.956 . S
C1354 H1367 0.961 . S
C1354 H1368 0.961 . S
C1355 C1352 1.539 . S
C1355 H1369 0.958 . S
C1355 H1370 0.961 . S
C1355 H1371 0.960 . S
H1356 C1340 0.931 . S
H1357 C1345 0.929 . S
H1358 C1346 0.960 . S
H1359 C1346 0.962 . S
H1360 C1346 0.960 . S
H1361 C1347 0.961 . S
H1362 C1347 0.961 . S
H1363 C1347 0.961 . S
H1364 C1348 0.931 . S
H1365 C1353 0.930 . S
H1366 C1354 0.956 . S
H1367 C1354 0.961 . S
H1368 C1354 0.961 . S
H1369 C1355 0.958 . S
H1370 C1355 0.961 . S
H1371 C1355 0.960 . S
C1372 C1373 1.391 . S
C1372 C1374 1.394 . S
C1372 H1388 0.931 . S
C1373 C1372 1.391 . S
C1373 C1377 1.376 . S
C1374 C1372 1.394 . S
C1374 C1375 1.369 . S
C1374 C1378 1.531 . S
C1375 C1374 1.369 . S
C1375 C1376 1.410 . S
C1375 C1383 1.503 . S
C1376 C1375 1.410 . S
C1376 C1377 1.392 . S
C1376 C1379 1.511 . S
C1377 C1373 1.376 . S
C1377 C1376 1.392 . S
C1377 H1389 0.929 . S
C1378 C1374 1.531 . S
C1378 H1390 0.960 . S
C1378 H1391 0.962 . S
C1378 H1392 0.960 . S
C1379 C1376 1.511 . S
C1379 H1393 0.961 . S
C1379 H1394 0.961 . S
C1379 H1395 0.961 . S
C1380 C1381 1.370 . S
C1380 C1382 1.363 . S
C1380 H1396 0.931 . S
C1381 C1380 1.370 . S
C1381 C1385 1.408 . S
C1382 C1380 1.363 . S
C1382 C1383 1.370 . S
C1382 C1386 1.524 . S
C1383 C1375 1.503 . S
C1383 C1382 1.370 . S
C1383 C1384 1.403 . S
C1384 C1383 1.403 . S
C1384 C1385 1.404 . S
C1384 C1387 1.539 . S
C1385 C1381 1.408 . S
C1385 C1384 1.404 . S
C1385 H1397 0.930 . S
C1386 C1382 1.524 . S
C1386 H1398 0.956 . S
C1386 H1399 0.961 . S
C1386 H1400 0.961 . S
C1387 C1384 1.539 . S
C1387 H1401 0.958 . S
C1387 H1402 0.961 . S
C1387 H1403 0.960 . S
H1388 C1372 0.931 . S
H1389 C1377 0.929 . S
H1390 C1378 0.960 . S
H1391 C1378 0.962 . S
H1392 C1378 0.960 . S
H1393 C1379 0.961 . S
H1394 C1379 0.961 . S
H1395 C1379 0.961 . S
H1396 C1380 0.931 . S
H1397 C1385 0.930 . S
H1398 C1386 0.956 . S
H1399 C1386 0.961 . S
H1400 C1386 0.961 . S
H1401 C1387 0.958 . S
H1402 C1387 0.961 . S
H1403 C1387 0.960 . S
C253 C145 0.938 . S
C261 C5 0.983 . S
C285 C19 0.932 . S
C293 C159 0.964 . S
C317 C131 0.913 . S
C325 C33 0.930 . S
C349 C201 0.945 . S
C357 C47 0.987 . S
C381 C61 1.038 . S
C389 C173 1.016 . S
C413 C187 0.948 . S
C421 C75 0.947 . S
C445 C89 1.086 . S
C453 C229 1.053 . S
C477 C243 0.930 . S
C485 C103 0.977 . S
C509 C117 1.072 . S
C517 C215 1.043 . S
C541 C12 0.980 . S
C549 C18 0.970 . S
C573 C26 0.950 . S
C581 C32 0.952 . S
C605 C4 0.955 . S
C613 C40 0.984 . S
C637 C74 0.929 . S
C645 C54 0.948 . S
C669 C46 1.028 . S
C677 C68 1.004 . S
C701 C82 0.997 . S
C709 C60 0.966 . S
C733 C96 1.028 . S
C741 C102 1.028 . S
C765 C110 0.921 . S
C773 C116 0.972 . S
C797 C88 0.996 . S
C805 C124 1.001 . S
C829 C158 1.012 . S
C837 C138 1.017 . S
C861 C130 1.023 . S
C869 C152 0.986 . S
C893 C144 1.031 . S
C901 C166 0.989 . S
C925 C186 1.064 . S
C933 C180 1.025 . S
C957 C200 1.021 . S
C965 C194 0.982 . S
C989 C172 0.972 . S
C997 C208 0.977 . S
C1021 C222 0.945 . S
C1029 C242 0.999 . S
C1053 C236 1.029 . S
C1061 C214 1.018 . S
C1085 C250 0.935 . S
C1093 C228 0.970 . S
C1117 C11 1.433 . S
C1125 C53 1.415 . S
C1149 C67 1.361 . S
C1157 C25 1.346 . S
C1181 C81 1.380 . S
C1189 C39 1.375 . S
C1213 C137 1.366 . S
C1221 C95 1.386 . S
C1245 C151 1.408 . S
C1253 C109 1.395 . S
C1277 C123 1.407 . S
C1285 C165 1.409 . S
C1309 C221 1.361 . S
C1317 C179 1.379 . S
C1341 C235 1.387 . S
C1349 C193 1.398 . S
C1373 C249 1.418 . S
C1381 C207 1.396 . S
