# Generated by pormake.
# Topology usf, (4)-cn, num edge types: 1
# Building blocks:
#     Node 0, Type 0, BuildingBlock: NAWXER_clean_sbu_0, # of connection points: 4
#     Node 1, Type 0, BuildingBlock: NAWXER_clean_sbu_0, # of connection points: 4
#     Node 2, Type 0, BuildingBlock: NAWXER_clean_sbu_0, # of connection points: 4
#     Node 3, Type 0, BuildingBlock: NAWXER_clean_sbu_0, # of connection points: 4
#     Node 4, Type 0, BuildingBlock: NAWXER_clean_sbu_0, # of connection points: 4
#     Node 5, Type 0, BuildingBlock: NAWXER_clean_sbu_0, # of connection points: 4
#     Node 6, Type 0, BuildingBlock: NAWXER_clean_sbu_0, # of connection points: 4
#     Node 7, Type 0, BuildingBlock: NAWXER_clean_sbu_0, # of connection points: 4
#     Node 8, Type 0, BuildingBlock: NAWXER_clean_sbu_0, # of connection points: 4
#     Node 9, Type 0, BuildingBlock: NAWXER_clean_sbu_0, # of connection points: 4
#     Node 10, Type 0, BuildingBlock: NAWXER_clean_sbu_0, # of connection points: 4
#     Node 11, Type 0, BuildingBlock: NAWXER_clean_sbu_0, # of connection points: 4
#     Node 12, Type 0, BuildingBlock: NAWXER_clean_sbu_0, # of connection points: 4
#     Node 13, Type 0, BuildingBlock: NAWXER_clean_sbu_0, # of connection points: 4
#     Node 14, Type 0, BuildingBlock: NAWXER_clean_sbu_0, # of connection points: 4
#     Node 15, Type 0, BuildingBlock: NAWXER_clean_sbu_0, # of connection points: 4
#     Node 16, Type 0, BuildingBlock: NAWXER_clean_sbu_0, # of connection points: 4
#     Node 17, Type 0, BuildingBlock: NAWXER_clean_sbu_0, # of connection points: 4
#     Edge 18, Type (0, 0), BuildingBlock: ZUJKAS_clean_linker_0, # of connection points: 2
#     Edge 19, Type (0, 0), BuildingBlock: ZUJKAS_clean_linker_0, # of connection points: 2
#     Edge 20, Type (0, 0), BuildingBlock: ZUJKAS_clean_linker_0, # of connection points: 2
#     Edge 21, Type (0, 0), BuildingBlock: ZUJKAS_clean_linker_0, # of connection points: 2
#     Edge 22, Type (0, 0), BuildingBlock: ZUJKAS_clean_linker_0, # of connection points: 2
#     Edge 23, Type (0, 0), BuildingBlock: ZUJKAS_clean_linker_0, # of connection points: 2
#     Edge 24, Type (0, 0), BuildingBlock: ZUJKAS_clean_linker_0, # of connection points: 2
#     Edge 25, Type (0, 0), BuildingBlock: ZUJKAS_clean_linker_0, # of connection points: 2
#     Edge 26, Type (0, 0), BuildingBlock: ZUJKAS_clean_linker_0, # of connection points: 2
#     Edge 27, Type (0, 0), BuildingBlock: ZUJKAS_clean_linker_0, # of connection points: 2
#     Edge 28, Type (0, 0), BuildingBlock: ZUJKAS_clean_linker_0, # of connection points: 2
#     Edge 29, Type (0, 0), BuildingBlock: ZUJKAS_clean_linker_0, # of connection points: 2
#     Edge 30, Type (0, 0), BuildingBlock: ZUJKAS_clean_linker_0, # of connection points: 2
#     Edge 31, Type (0, 0), BuildingBlock: ZUJKAS_clean_linker_0, # of connection points: 2
#     Edge 32, Type (0, 0), BuildingBlock: ZUJKAS_clean_linker_0, # of connection points: 2
#     Edge 33, Type (0, 0), BuildingBlock: ZUJKAS_clean_linker_0, # of connection points: 2
#     Edge 34, Type (0, 0), BuildingBlock: ZUJKAS_clean_linker_0, # of connection points: 2
#     Edge 35, Type (0, 0), BuildingBlock: ZUJKAS_clean_linker_0, # of connection points: 2
#     Edge 36, Type (0, 0), BuildingBlock: ZUJKAS_clean_linker_0, # of connection points: 2
#     Edge 37, Type (0, 0), BuildingBlock: ZUJKAS_clean_linker_0, # of connection points: 2
#     Edge 38, Type (0, 0), BuildingBlock: ZUJKAS_clean_linker_0, # of connection points: 2
#     Edge 39, Type (0, 0), BuildingBlock: ZUJKAS_clean_linker_0, # of connection points: 2
#     Edge 40, Type (0, 0), BuildingBlock: ZUJKAS_clean_linker_0, # of connection points: 2
#     Edge 41, Type (0, 0), BuildingBlock: ZUJKAS_clean_linker_0, # of connection points: 2
#     Edge 42, Type (0, 0), BuildingBlock: ZUJKAS_clean_linker_0, # of connection points: 2
#     Edge 43, Type (0, 0), BuildingBlock: ZUJKAS_clean_linker_0, # of connection points: 2
#     Edge 44, Type (0, 0), BuildingBlock: ZUJKAS_clean_linker_0, # of connection points: 2
#     Edge 45, Type (0, 0), BuildingBlock: ZUJKAS_clean_linker_0, # of connection points: 2
#     Edge 46, Type (0, 0), BuildingBlock: ZUJKAS_clean_linker_0, # of connection points: 2
#     Edge 47, Type (0, 0), BuildingBlock: ZUJKAS_clean_linker_0, # of connection points: 2
#     Edge 48, Type (0, 0), BuildingBlock: ZUJKAS_clean_linker_0, # of connection points: 2
#     Edge 49, Type (0, 0), BuildingBlock: ZUJKAS_clean_linker_0, # of connection points: 2
#     Edge 50, Type (0, 0), BuildingBlock: ZUJKAS_clean_linker_0, # of connection points: 2
#     Edge 51, Type (0, 0), BuildingBlock: ZUJKAS_clean_linker_0, # of connection points: 2
#     Edge 52, Type (0, 0), BuildingBlock: ZUJKAS_clean_linker_0, # of connection points: 2
#     Edge 53, Type (0, 0), BuildingBlock: ZUJKAS_clean_linker_0, # of connection points: 2
# Relax obj value: 0.054
# Max RMSD: 0.096
# Mean RMSD: 0.096
data_MOF--net-usf--node1-NAWXER_clean_sbu_0--edge1-ZUJKAS_clean_linker_0
_symmetry_space_group_name_H-M    P1
_symmetry_Int_Tables_number       1
_symmetry_cell_setting            triclinic
loop_
_symmetry_equiv_pos_as_xyz
'x, y, z'
_cell_length_a     62.790711
_cell_length_b     62.605714
_cell_length_c     37.507332
_cell_angle_alpha  89.8815
_cell_angle_beta   90.026611
_cell_angle_gamma 120.10178
loop_
_atom_site_label
_atom_site_type_symbol
_atom_site_fract_x
_atom_site_fract_y
_atom_site_fract_z
_atom_type_partial_charge
C0 C 0.04162 0.56048 0.93834 0.0
C1 C 0.04818 0.54555 0.06462 0.0
O2 O 0.05906 0.5746 0.95914 0.0
Zn3 Zn 0.04634 0.55385 0.00133 0.0
O4 O 0.02374 0.54019 0.95026 0.0
Zn5 Zn 1.0117 0.51965 -0.0014 0.0
O6 O 0.98121 0.52013 0.00903 0.0
O7 O 0.01464 0.55673 0.01294 0.0
O8 O 0.02897 0.52837 0.04938 0.0
O9 O 0.06366 0.56417 0.04662 0.0
O10 O 0.0491 0.52211 0.98708 0.0
O11 O 1.01184 0.48939 0.98607 0.0
C12 C 0.99121 0.54317 0.01532 0.0
C13 C 0.03499 0.49886 0.98199 0.0
C14 C 0.52505 0.51587 0.05478 0.0
C15 C 0.51132 0.49109 0.93024 0.0
O16 O 0.50699 0.51227 0.03527 0.0
Zn17 Zn 0.51863 0.50536 0.99165 0.0
O18 O 0.54312 0.51466 0.04106 0.0
Zn19 Zn 0.55318 0.50653 0.99036 0.0
O20 O 0.58251 0.53755 0.9764 0.0
O21 O 0.54891 0.54028 0.97586 0.0
O22 O 0.53197 0.49445 0.94205 0.0
O23 O 0.49776 0.49572 0.95013 0.0
O24 O 0.51757 0.47152 0.00557 0.0
O25 O 0.55514 0.47714 0.0028 0.0
C26 C 0.57218 0.55029 0.97085 0.0
C27 C 0.53227 0.46302 0.00907 0.0
C28 C 0.50113 1.00691 0.06329 0.0
C29 C 0.5223 0.0132 0.93706 0.0
O30 O 0.50326 0.99103 0.0449 0.0
Zn31 Zn 0.51001 1.00826 -0.00043 0.0
O32 O 0.50317 0.0262 0.0481 0.0
Zn33 Zn 0.51103 0.04309 0.99677 0.0
O34 O 0.48081 0.04314 0.98429 0.0
O35 O 0.47578 1.00567 0.98481 0.0
O36 O 0.51988 0.03117 0.94844 0.0
O37 O 0.51838 0.99559 0.95803 0.0
O38 O 0.54476 0.03995 0.01093 0.0
O39 O 0.54212 0.07369 0.00696 0.0
C40 C 0.46694 0.02 0.97979 0.0
C41 C 0.55491 0.06345 0.01321 0.0
C42 C 0.54238 0.02887 0.56704 0.0
C43 C 0.52979 0.03798 0.44042 0.0
O44 O 0.55774 0.04582 0.54648 0.0
Zn45 Zn 0.53722 0.03501 0.50389 0.0
O46 O 0.52149 0.01236 0.55477 0.0
Zn47 Zn 0.50125 1.0022 0.50625 0.0
O48 O 0.49827 0.97012 0.49569 0.0
O49 O 0.53635 1.00135 0.49253 0.0
O50 O 0.51151 0.01964 0.45565 0.0
O51 O 0.54896 0.05213 0.4584 0.0
O52 O 0.50766 0.04119 0.51793 0.0
O53 O 0.4729 1.00546 0.51862 0.0
C54 C 0.52105 0.97819 0.48993 0.0
C55 C 0.4843 0.02878 0.52285 0.0
C56 C 0.02198 0.54035 0.56812 0.0
C57 C 1.0135 0.5203 0.44172 0.0
O58 O 1.00833 0.5431 0.54574 0.0
Zn59 Zn 0.01581 0.52869 0.5056 0.0
O60 O 0.0345 0.5303 0.55831 0.0
Zn61 Zn 0.04099 0.51545 0.51075 0.0
O62 O 0.0762 0.53746 0.50322 0.0
O63 O 0.05395 0.55557 0.49719 0.0
O64 O 0.02774 0.51434 0.45796 0.0
O65 O 1.00214 0.5288 0.45942 0.0
O66 O 0.99889 0.49021 0.51992 0.0
O67 O 0.02851 0.48114 0.52315 0.0
C68 C 0.07494 0.55677 0.49676 0.0
C69 C 1.00582 0.47443 0.52596 0.0
C70 C 0.50858 0.48956 0.43491 0.0
C71 C 0.4842 0.46741 0.55894 0.0
O72 O 0.50335 0.46942 0.4504 0.0
Zn73 Zn 0.49682 0.47795 0.49703 0.0
O74 O 0.50815 0.50683 0.4526 0.0
Zn75 Zn 0.49991 0.51321 0.50551 0.0
O76 O 0.53123 0.54061 0.52182 0.0
O77 O 0.53226 0.50619 0.51481 0.0
O78 O 0.4883 0.48904 0.55071 0.0
O79 O 0.48703 0.45431 0.53564 0.0
O80 O 0.46409 0.47959 0.487 0.0
O81 O 0.4715 0.5174 0.49724 0.0
C82 C 0.54306 0.52904 0.52357 0.0
C83 C 0.45665 0.49529 0.4877 0.0
C84 C 0.65132 0.80535 0.38154 0.0
C85 C 0.64491 0.82242 0.25662 0.0
O86 O 0.66734 0.82742 0.37227 0.0
Zn87 Zn 0.67799 0.84999 0.32513 0.0
O88 O 0.63669 0.79041 0.35835 0.0
Zn89 Zn 0.64857 0.81323 0.31879 0.0
O90 O 0.68466 0.81837 0.309 0.0
O91 O 0.71161 0.85782 0.31685 0.0
O92 O 0.63232 0.80222 0.27337 0.0
O93 O 0.66212 0.84114 0.27287 0.0
O94 O 0.6717 0.87594 0.33995 0.0
O95 O 0.63798 0.83953 0.33545 0.0
C96 C 0.70705 0.83619 0.30901 0.0
C97 C 0.64844 0.86262 0.34283 0.0
C98 C 0.25195 0.87716 0.30565 0.0
C99 C 0.21635 0.79149 0.34681 0.0
O100 O 0.26311 0.86526 0.31147 0.0
Zn101 Zn 0.2347 0.83435 0.32649 0.0
O102 O 0.22866 0.8665 0.311 0.0
Zn103 Zn 0.19941 0.83105 0.32809 0.0
O104 O 0.18745 0.83821 0.37095 0.0
O105 O 0.22488 0.84373 0.37656 0.0
O106 O 0.20039 0.79838 0.34299 0.0
O107 O 0.2389 0.8067 0.34027 0.0
O108 O 0.21335 0.82125 0.27812 0.0
O109 O 0.1781 0.82022 0.28736 0.0
C110 C 0.20633 0.84418 0.39001 0.0
C111 C 0.19219 0.8168 0.26684 0.0
C112 C 0.16016 0.30033 0.41791 0.0
C113 C 0.18304 0.31084 0.29183 0.0
O114 O 0.16739 0.28792 0.39999 0.0
Zn115 Zn 0.17292 0.30562 0.3553 0.0
O116 O 0.1592 0.31826 0.40298 0.0
Zn117 Zn 0.1665 0.33607 0.3522 0.0
O118 O 0.13438 0.33071 0.33853 0.0
O119 O 0.1363 0.29645 0.34014 0.0
O120 O 0.17747 0.32663 0.30356 0.0
O121 O 0.18336 0.29518 0.3132 0.0
O122 O 0.20431 0.34095 0.36672 0.0
O123 O 0.19336 0.36924 0.36227 0.0
C124 C 0.12401 0.30743 0.33439 0.0
C125 C 0.20984 0.36361 0.36862 0.0
C126 C 0.20818 0.33156 0.832 0.0
C127 C 0.15502 0.36496 0.86712 0.0
O128 O 0.18595 0.31488 0.83927 0.0
Zn129 Zn 0.15174 0.31257 0.85583 0.0
O130 O 0.21445 0.35424 0.8349 0.0
Zn131 Zn 0.18237 0.34864 0.84986 0.0
O132 O 0.17905 0.33203 0.90135 0.0
O133 O 0.14515 0.2955 0.90091 0.0
O134 O 0.17777 0.37668 0.85923 0.0
O135 O 0.14346 0.34129 0.86655 0.0
O136 O 0.13095 0.29518 0.81577 0.0
O137 O 0.16168 0.33218 0.80201 0.0
C138 C 0.16408 0.3118 0.91721 0.0
C139 C 0.1429 0.31171 0.79247 0.0
C140 C 0.70033 0.88356 0.80056 0.0
C141 C 0.67077 0.79741 0.83786 0.0
O142 O 0.71305 0.87347 0.80784 0.0
Zn143 Zn 0.68614 0.84041 0.81925 0.0
O144 O 0.6768 0.87063 0.8029 0.0
Zn145 Zn 0.64942 0.83328 0.81643 0.0
O146 O 0.63332 0.83708 0.85756 0.0
O147 O 0.67128 0.84535 0.86817 0.0
O148 O 0.65348 0.8023 0.83236 0.0
O149 O 0.69303 0.81433 0.83316 0.0
O150 O 0.66814 0.82699 0.76874 0.0
O151 O 0.63059 0.82127 0.77325 0.0
C152 C 0.65099 0.84324 0.87927 0.0
C153 C 0.64705 0.82032 0.7548 0.0
C154 C 0.16859 0.81569 0.89352 0.0
C155 C 0.18964 0.83891 0.76935 0.0
O156 O 0.1745 0.80498 0.87007 0.0
Zn157 Zn 0.17895 0.82699 0.83134 0.0
O158 O 0.16747 0.83498 0.88506 0.0
Zn159 Zn 0.17343 0.85753 0.83858 0.0
O160 O 0.14086 0.85335 0.82967 0.0
O161 O 0.14216 0.81925 0.82088 0.0
O162 O 0.18468 0.85378 0.78596 0.0
O163 O 0.18855 0.82061 0.78576 0.0
O164 O 0.21105 0.86061 0.84812 0.0
O165 O 0.20086 0.88938 0.85386 0.0
C166 C 0.12998 0.83066 0.82093 0.0
C167 C 0.21707 0.88289 0.85592 0.0
C168 C 0.31472 0.14697 0.71966 0.0
C169 C 0.31322 0.16879 0.59527 0.0
O170 O 0.33464 0.16624 0.70967 0.0
Zn171 Zn 0.34939 0.18868 0.66289 0.0
O172 O 0.29699 0.13598 0.69783 0.0
Zn173 Zn 0.31313 0.15762 0.65769 0.0
O174 O 0.34244 0.15048 0.64599 0.0
O175 O 0.37784 0.18506 0.65256 0.0
O176 O 0.29634 0.1506 0.61231 0.0
O177 O 0.33323 0.18399 0.6112 0.0
O178 O 0.35365 0.22028 0.67856 0.0
O179 O 0.31472 0.19101 0.67509 0.0
C180 C 0.36603 0.1622 0.64477 0.0
C181 C 0.33097 0.21339 0.68232 0.0
C182 C 0.87643 0.1949 0.72789 0.0
C183 C 0.8659 0.17853 0.59948 0.0
O184 O 0.8558 0.19105 0.7154 0.0
Zn185 Zn 0.83612 0.18238 0.66631 0.0
O186 O 0.89174 0.19333 0.70737 0.0
Zn187 Zn 0.87172 0.18484 0.66427 0.0
O188 O 0.87187 0.21851 0.65551 0.0
O189 O 0.83418 0.21254 0.65794 0.0
O190 O 0.88416 0.18151 0.61809 0.0
O191 O 0.84745 0.17801 0.61485 0.0
O192 O 0.80729 0.15005 0.67653 0.0
O193 O 0.84169 0.14868 0.67621 0.0
C194 C 0.85721 0.22707 0.65339 0.0
C195 C 0.81826 0.13773 0.6804 0.0
C196 C 0.87896 0.70053 0.69307 0.0
C197 C 0.79138 0.65306 0.65798 0.0
O198 O 0.86932 0.71383 0.68562 0.0
Zn199 Zn 0.83482 0.70941 0.66906 0.0
O200 O 0.86591 0.67715 0.69031 0.0
Zn201 Zn 0.83511 0.67527 0.67516 0.0
O202 O 0.84327 0.69072 0.623 0.0
O203 O 0.8416 0.72512 0.62239 0.0
O204 O 0.80487 0.64383 0.66565 0.0
O205 O 0.80067 0.67654 0.65875 0.0
O206 O 0.82623 0.72305 0.70942 0.0
O207 O 0.82463 0.68767 0.72128 0.0
C208 C 0.84485 0.70921 0.60596 0.0
C209 C 0.82186 0.7057 0.73122 0.0
C210 C 0.83257 0.67357 0.22878 0.0
C211 C 0.8206 0.68559 0.10333 0.0
O212 O 0.85181 0.69092 0.21373 0.0
Zn213 Zn 0.86326 0.70789 0.16282 0.0
O214 O 0.81331 0.66049 0.21036 0.0
Zn215 Zn 0.82627 0.67726 0.16508 0.0
O216 O 0.85311 0.66744 0.15012 0.0
O217 O 0.8894 0.70136 0.14897 0.0
O218 O 0.80537 0.66801 0.12314 0.0
O219 O 0.84212 0.70093 0.1151 0.0
O220 O 0.87016 0.74122 0.17454 0.0
O221 O 0.83068 0.71284 0.17664 0.0
C222 C 0.87638 0.67813 0.14465 0.0
C223 C 0.84782 0.73542 0.17965 0.0
C224 C 0.40124 0.21319 0.13863 0.0
C225 C 0.35915 0.12605 0.17365 0.0
O226 O 0.41035 0.19968 0.14634 0.0
Zn227 Zn 0.37991 0.1695 0.15676 0.0
O228 O 0.37785 0.20404 0.14086 0.0
Zn229 Zn 0.34632 0.16893 0.15534 0.0
O230 O 0.33329 0.17648 0.19643 0.0
O231 O 0.36777 0.17642 0.20737 0.0
O232 O 0.34415 0.13422 0.16986 0.0
O233 O 0.38197 0.1405 0.16805 0.0
O234 O 0.36093 0.15961 0.10575 0.0
O235 O 0.32627 0.15993 0.11361 0.0
C236 C 0.34955 0.17852 0.21841 0.0
C237 C 0.34048 0.15652 0.0934 0.0
C238 C 0.86349 0.21861 0.09843 0.0
C239 C 0.8469 0.21066 0.22703 0.0
O240 O 0.85604 0.197 0.11122 0.0
Zn241 Zn 0.84457 0.17752 0.16049 0.0
O242 O 0.86532 0.23571 0.11878 0.0
Zn243 Zn 0.85396 0.21579 0.16221 0.0
O244 O 0.88352 0.20902 0.1708 0.0
O245 O 0.87027 0.16902 0.16906 0.0
O246 O 0.8535 0.23002 0.20843 0.0
O247 O 0.84272 0.19067 0.21171 0.0
O248 O 0.81072 0.15258 0.15035 0.0
O249 O 0.81607 0.1902 0.15054 0.0
C250 C 0.88782 0.19113 0.17312 0.0
C251 C 0.80193 0.16686 0.14646 0.0
H252 H 0.99706 0.54356 0.39675 0.0
H253 H 1.00362 0.54903 0.33219 0.0
H254 H 0.03646 0.50283 0.33333 0.0
H255 H 0.03032 0.49754 0.39764 0.0
H256 H 0.0655 0.54811 0.29965 0.0
H257 H 0.96924 0.50129 0.2494 0.0
H258 H 0.97633 0.52444 0.28283 0.0
H259 H 0.97686 0.49681 0.29417 0.0
C260 C 1.00516 0.53412 0.38311 0.0
C261 C 1.0132 0.52015 0.40231 0.0
C262 C 1.00893 0.53729 0.34624 0.0
C263 C 0.02053 0.52633 0.32803 0.0
C264 C 0.0276 0.51155 0.34693 0.0
H265 H 0.02829 0.50419 0.10516 0.0
H266 H 0.02428 0.50147 0.16987 0.0
C267 C 0.02395 0.50846 0.38367 0.0
C268 C 0.02656 0.53114 0.28965 0.0
H269 H 1.00089 0.52212 0.20697 0.0
C270 C 0.0514 0.54249 0.27932 0.0
C271 C 1.00811 0.52371 0.26331 0.0
C272 C 0.98111 0.5107 0.27281 0.0
C273 C 0.05827 0.5463 0.24324 0.0
C274 C 0.03981 0.53886 0.21692 0.0
C275 C 0.01501 0.52786 0.22729 0.0
C276 C 0.04546 0.54093 0.17833 0.0
C277 C 0.0851 0.55753 0.23352 0.0
C278 C 0.05946 0.56403 0.16171 0.0
C279 C 0.06203 0.56564 0.12452 0.0
C280 C 0.05033 0.54417 0.10362 0.0
C281 C 0.03741 0.52106 0.12058 0.0
C282 C 0.03503 0.51947 0.15754 0.0
H283 H 0.0963 0.55738 0.25637 0.0
H284 H 0.08743 0.54748 0.21089 0.0
H285 H 0.0924 0.57699 0.22516 0.0
H286 H 0.0674 0.58084 0.17727 0.0
H287 H 0.07185 0.58369 0.11209 0.0
H288 H 0.53218 0.53282 0.39817 0.0
H289 H 0.53595 0.53848 0.33362 0.0
H290 H 0.49855 0.45951 0.31927 0.0
H291 H 0.49547 0.45372 0.38412 0.0
H292 H 0.53593 0.4824 0.27346 0.0
H293 H 0.47996 0.52812 0.27024 0.0
H294 H 0.50639 0.54394 0.29854 0.0
H295 H 0.48262 0.51305 0.30963 0.0
C296 C 0.52494 0.51665 0.38128 0.0
C297 C 0.51333 0.49281 0.39616 0.0
C298 C 0.52691 0.51992 0.34438 0.0
C299 C 0.51684 0.49941 0.32161 0.0
C300 C 0.50621 0.47559 0.33638 0.0
H301 H 0.48451 0.502 0.09664 0.0
H302 H 0.48252 0.49865 0.16174 0.0
C303 C 0.50454 0.47231 0.3734 0.0
C304 C 0.51729 0.50287 0.28243 0.0
H305 H 0.50131 0.53003 0.21666 0.0
C306 C 0.52827 0.49272 0.26102 0.0
C307 C 0.50682 0.51592 0.26614 0.0
C308 C 0.49305 0.52565 0.28729 0.0
C309 C 0.52954 0.49567 0.22385 0.0
C310 C 0.52028 0.50986 0.20777 0.0
C311 C 0.50881 0.51955 0.22909 0.0
C312 C 0.5218 0.5143 0.16875 0.0
C313 C 0.54032 0.48306 0.20218 0.0
C314 C 0.54462 0.52526 0.15125 0.0
C315 C 0.54578 0.52697 0.11412 0.0
C316 C 0.52416 0.51822 0.09384 0.0
C317 C 0.50148 0.50894 0.11155 0.0
C318 C 0.50032 0.50692 0.14873 0.0
H319 H 0.53967 0.46734 0.21695 0.0
H320 H 0.53037 0.47606 0.17655 0.0
H321 H 0.5599 0.49648 0.19622 0.0
H322 H 0.56151 0.53184 0.16625 0.0
H323 H 0.56355 0.53447 0.10123 0.0
H324 H 0.51551 0.98184 0.10812 0.0
H325 H 0.52099 0.98705 0.17288 0.0
H326 H 0.48965 0.03459 0.17167 0.0
H327 H 0.48461 0.02989 0.10716 0.0
H328 H 0.53439 0.0557 0.20531 0.0
H329 H 0.47291 0.96062 0.25611 0.0
H330 H 0.49479 0.96317 0.22311 0.0
H331 H 0.47094 0.96972 0.21109 0.0
C332 C 0.50917 0.99283 0.12184 0.0
C333 C 0.49965 1.00547 0.1026 0.0
C334 C 0.51237 0.99585 0.15882 0.0
C335 C 0.50573 0.01123 0.17707 0.0
C336 C 0.49503 0.02277 0.15808 0.0
H337 H 0.48892 0.02377 0.40074 0.0
H338 H 0.48524 0.01968 0.33609 0.0
C339 C 0.49204 0.01994 0.12125 0.0
C340 C 0.5113 0.01676 0.21548 0.0
H341 H 0.49834 0.99067 0.29831 0.0
C342 C 0.52653 0.0415 0.2257 0.0
C343 C 0.50099 0.99819 0.24194 0.0
C344 C 0.48383 0.97145 0.23267 0.0
C345 C 0.53141 0.04824 0.26174 0.0
C346 C 0.52112 0.02966 0.28818 0.0
C347 C 0.50624 1.00488 0.27792 0.0
C348 C 0.5243 0.03544 0.32679 0.0
C349 C 0.54685 0.0752 0.27122 0.0
C350 C 0.54762 0.04649 0.34298 0.0
C351 C 0.54982 0.04919 0.38013 0.0
C352 C 0.52867 0.0405 0.40146 0.0
C353 C 0.50554 0.03056 0.38495 0.0
C354 C 0.50339 0.0281 0.34803 0.0
H355 H 0.54857 0.08738 0.24849 0.0
H356 H 0.53886 0.07982 0.29432 0.0
H357 H 0.56561 0.07926 0.27868 0.0
H358 H 0.56398 0.05197 0.32712 0.0
H359 H 0.56783 0.05661 0.39223 0.0
H360 H 0.03842 0.52595 0.62491 0.0
H361 H 0.0437 0.54071 0.68599 0.0
H362 H 0.01715 0.58993 0.65659 0.0
H363 H 1.01098 0.57447 0.59511 0.0
H364 H 0.07275 0.58654 0.71234 0.0
H365 H 0.97423 0.55458 0.74148 0.0
H366 H 0.98359 0.54505 0.70201 0.0
H367 H 0.98788 0.5756 0.70476 0.0
C368 C 0.03356 0.53983 0.63139 0.0
C369 C 0.02416 0.54897 0.60526 0.0
C370 C 0.0367 0.54834 0.66631 0.0
C371 C 0.03074 0.56636 0.67594 0.0
C372 C 0.02148 0.57572 0.64991 0.0
H373 H 0.07011 0.60502 0.90391 0.0
H374 H 0.06885 0.61376 0.84018 0.0
C375 C 0.01799 0.5669 0.61483 0.0
C376 C 0.0341 0.57463 0.71357 0.0
H377 H 1.00179 0.56966 0.7892 0.0
C378 C 0.05735 0.58329 0.72916 0.0
C379 C 1.01398 0.57053 0.73528 0.0
C380 C 0.98845 0.56079 0.72024 0.0
C381 C 0.06059 0.58585 0.76623 0.0
C382 C 0.04013 0.5803 0.78814 0.0
C383 C 0.01741 0.57383 0.77226 0.0
C384 C 0.04054 0.57646 0.82709 0.0
C385 C 0.08536 0.59248 0.78169 0.0
C386 C 0.02473 0.55287 0.84092 0.0
C387 C 0.02518 0.54798 0.87698 0.0
C388 C 0.04161 0.56653 0.90022 0.0
C389 C 0.05741 0.59031 0.88656 0.0
C390 C 0.05674 0.5953 0.8502 0.0
H391 H 0.09817 0.59259 0.76118 0.0
H392 H 0.09388 0.61118 0.79363 0.0
H393 H 0.08327 0.57925 0.80304 0.0
H394 H 1.01221 0.53799 0.8236 0.0
H395 H 1.0128 0.52942 0.8865 0.0
H396 H 0.49459 0.43575 0.59522 0.0
H397 H 0.49271 0.42969 0.66011 0.0
H398 H 0.45945 0.47509 0.67167 0.0
H399 H 0.46152 0.48145 0.60725 0.0
H400 H 0.51871 0.47486 0.70343 0.0
H401 H 0.42081 0.41608 0.7431 0.0
H402 H 0.43207 0.4148 0.69924 0.0
H403 H 0.42688 0.43966 0.71063 0.0
C404 C 0.48617 0.44376 0.61154 0.0
C405 C 0.47836 0.45921 0.59633 0.0
C406 C 0.48514 0.44032 0.64852 0.0
C407 C 0.47576 0.45179 0.67053 0.0
C408 C 0.46638 0.46577 0.65508 0.0
H409 H 0.47855 0.49587 0.88754 0.0
H410 H 0.469 0.48349 0.82492 0.0
C411 C 0.46775 0.46952 0.61831 0.0
C412 C 0.47943 0.45282 0.70952 0.0
H413 H 0.44909 0.43984 0.7891 0.0
C414 C 0.50357 0.46684 0.7223 0.0
C415 C 0.45955 0.44272 0.73377 0.0
C416 C 0.43334 0.4273 0.72114 0.0
C417 C 0.50836 0.47194 0.75871 0.0
C418 C 0.48846 0.46198 0.78314 0.0
C419 C 0.46431 0.4474 0.77037 0.0
C420 C 0.49243 0.46735 0.82181 0.0
C421 C 0.53461 0.48904 0.7703 0.0
C422 C 0.50817 0.46175 0.84106 0.0
C423 C 0.51401 0.46923 0.87645 0.0
C424 C 0.50372 0.4819 0.89356 0.0
C425 C 0.48683 0.48624 0.87494 0.0
C426 C 0.48133 0.47912 0.83925 0.0
H427 H 0.54635 0.50035 0.74775 0.0
H428 H 0.53551 0.50169 0.7917 0.0
H429 H 0.54253 0.47792 0.78071 0.0
H430 H 0.51636 0.45203 0.82848 0.0
H431 H 0.52673 0.46521 0.89036 0.0
H432 H 0.54469 0.9892 0.90782 0.0
H433 H 0.55984 0.99298 0.84637 0.0
H434 H 0.53174 0.04155 0.82107 0.0
H435 H 0.5176 0.03863 0.88211 0.0
H436 H 0.53746 0.98058 0.7854 0.0
H437 H 0.59883 0.08103 0.78038 0.0
H438 H 0.58646 0.06488 0.82191 0.0
H439 H 0.56921 0.07498 0.79516 0.0
C440 C 0.54187 1.00073 0.88906 0.0
C441 C 0.53017 0.01379 0.8998 0.0
C442 C 0.55064 1.00299 0.85408 0.0
C443 C 0.5477 0.01825 0.82937 0.0
C444 C 0.53525 0.03056 0.83994 0.0
H445 H 0.50938 1.00262 0.61862 0.0
H446 H 0.51682 0.9998 0.68132 0.0
C447 C 0.52687 0.02861 0.87481 0.0
C448 C 0.55578 0.0201 0.79173 0.0
H449 H 0.5795 0.06151 0.72323 0.0
C450 C 0.54724 0.99831 0.77199 0.0
C451 C 0.56938 0.04317 0.77416 0.0
C452 C 0.58173 0.06728 0.79422 0.0
C453 C 0.54963 0.99897 0.73477 0.0
C454 C 0.55998 0.02197 0.71681 0.0
C455 C 0.57091 0.04382 0.73682 0.0
C456 C 0.55637 0.02353 0.67799 0.0
C457 C 0.54019 0.97492 0.71504 0.0
C458 C 0.57602 0.03886 0.65527 0.0
C459 C 0.57172 0.04097 0.61905 0.0
C460 C 0.54771 0.02775 0.60518 0.0
C461 C 0.52817 0.01276 0.62822 0.0
C462 C 0.53242 0.01089 0.66415 0.0
H463 H 0.54287 0.96153 0.73115 0.0
H464 H 0.52012 0.96662 0.71036 0.0
H465 H 0.54958 0.97758 0.68896 0.0
H466 H 0.59462 0.04913 0.66554 0.0
H467 H 0.58712 0.05271 0.60194 0.0
H468 H 0.60509 0.80575 0.71556 0.0
H469 H 0.59831 0.79329 0.65279 0.0
H470 H 0.67143 0.80347 0.64685 0.0
H471 H 0.67825 0.81554 0.70932 0.0
H472 H 0.62471 0.82231 0.59715 0.0
H473 H 0.63125 0.73752 0.59728 0.0
H474 H 0.62647 0.75035 0.63756 0.0
H475 H 0.65698 0.76242 0.61955 0.0
C476 C 0.6196 0.80503 0.70099 0.0
C477 C 0.64223 0.8117 0.71742 0.0
C478 C 0.61566 0.79783 0.66519 0.0
C479 C 0.63419 0.79698 0.64538 0.0
C480 C 0.65663 0.80331 0.66188 0.0
H481 H 0.68283 0.83104 0.43531 0.0
H482 H 0.67507 0.82459 0.49918 0.0
C483 C 0.66059 0.81049 0.69755 0.0
C484 C 0.63132 0.79216 0.60656 0.0
H485 H 0.63998 0.75952 0.54087 0.0
C486 C 0.62748 0.80821 0.5849 0.0
C487 C 0.63471 0.7736 0.59057 0.0
C488 C 0.63732 0.75483 0.61251 0.0
C489 C 0.62862 0.80729 0.54769 0.0
C490 C 0.63397 0.79005 0.53186 0.0
C491 C 0.63618 0.7729 0.55326 0.0
C492 C 0.63964 0.79144 0.4935 0.0
C493 C 0.62513 0.82545 0.52552 0.0
C494 C 0.62263 0.77428 0.46938 0.0
C495 C 0.62701 0.77788 0.43264 0.0
C496 C 0.64844 0.79871 0.41977 0.0
C497 C 0.66605 0.81494 0.44429 0.0
C498 C 0.66167 0.81132 0.4808 0.0
H499 H 0.61578 0.83359 0.54079 0.0
H500 H 0.6434 0.84068 0.51688 0.0
H501 H 0.61419 0.81642 0.50123 0.0
H502 H 0.60556 0.75879 0.47889 0.0
H503 H 0.6131 0.76508 0.4144 0.0
H504 H 0.18562 0.80471 0.72068 0.0
H505 H 0.19174 0.8102 0.65624 0.0
H506 H 0.21335 0.88709 0.66697 0.0
H507 H 0.20621 0.88142 0.73123 0.0
H508 H 0.182 0.86754 0.61499 0.0
H509 H 0.25292 0.84081 0.59793 0.0
H510 H 0.22609 0.81672 0.61941 0.0
H511 H 0.24401 0.8461 0.64126 0.0
C512 C 0.19199 0.82285 0.70933 0.0
C513 C 0.19549 0.84264 0.73095 0.0
C514 C 0.19563 0.82602 0.67251 0.0
C515 C 0.20345 0.84918 0.65679 0.0
C516 C 0.20738 0.86907 0.6785 0.0
H517 H 0.24625 0.87006 0.43277 0.0
H518 H 0.24655 0.87519 0.49739 0.0
C519 C 0.20333 0.86581 0.7152 0.0
C520 C 0.20608 0.85231 0.61752 0.0
H521 H 0.23138 0.84073 0.54496 0.0
C522 C 0.19306 0.86197 0.59971 0.0
C523 C 0.22086 0.84551 0.59758 0.0
C524 C 0.23696 0.83698 0.6151 0.0
C525 C 0.19378 0.86426 0.56245 0.0
C526 C 0.20719 0.85584 0.54236 0.0
C527 C 0.22084 0.84693 0.56027 0.0
C528 C 0.20686 0.85535 0.50281 0.0
C529 C 0.18037 0.87593 0.54517 0.0
C530 C 0.18446 0.84289 0.48421 0.0
C531 C 0.18425 0.84039 0.44718 0.0
C532 C 0.20645 0.84974 0.42823 0.0
C533 C 0.22885 0.86262 0.44674 0.0
C534 C 0.22904 0.86552 0.48365 0.0
H535 H 0.17883 0.88894 0.56364 0.0
H536 H 0.18979 0.88608 0.52047 0.0
H537 H 0.16141 0.86128 0.53824 0.0
H538 H 0.1671 0.83424 0.49841 0.0
H539 H 0.16672 0.8301 0.43365 0.0
H540 H 0.16377 0.26688 0.46158 0.0
H541 H 0.15411 0.26007 0.52549 0.0
H542 H 0.1317 0.31487 0.52383 0.0
H543 H 0.1409 0.32153 0.4605 0.0
H544 H 0.17598 0.29477 0.57779 0.0
H545 H 0.07578 0.25945 0.57919 0.0
H546 H 0.09211 0.25997 0.53925 0.0
H547 H 0.09184 0.28729 0.55348 0.0
C548 C 0.15645 0.2772 0.47477 0.0
C549 C 0.15315 0.29477 0.45593 0.0
C550 C 0.15092 0.27326 0.51123 0.0
C551 C 0.14174 0.28662 0.52926 0.0
C552 C 0.13812 0.30386 0.51033 0.0
H553 H 0.16301 0.34415 0.73728 0.0
H554 H 0.16024 0.33454 0.67391 0.0
C555 C 0.14366 0.30783 0.47409 0.0
C556 C 0.1382 0.28461 0.56845 0.0
H557 H 0.09769 0.27877 0.63378 0.0
C558 C 0.15872 0.29078 0.59006 0.0
C559 C 0.11561 0.27913 0.58452 0.0
C560 C 0.09252 0.27083 0.56288 0.0
C561 C 0.15768 0.29316 0.62708 0.0
C562 C 0.13566 0.28964 0.64277 0.0
C563 C 0.11467 0.28188 0.62155 0.0
C564 C 0.13478 0.29548 0.68075 0.0
C565 C 0.18037 0.30006 0.64904 0.0
C566 C 0.12036 0.27687 0.70535 0.0
C567 C 0.12177 0.28232 0.74178 0.0
C568 C 0.13761 0.30649 0.75399 0.0
C569 C 0.1508 0.3253 0.72888 0.0
C570 C 0.14936 0.31984 0.69263 0.0
H571 H 0.19315 0.29547 0.63504 0.0
H572 H 0.1903 0.32025 0.65398 0.0
H573 H 0.17541 0.29047 0.67524 0.0
H574 H 0.10882 0.25798 0.69655 0.0
H575 H 0.11138 0.26742 0.76044 0.0
H576 H 0.61143 0.78634 0.21225 0.0
H577 H 0.60643 0.78967 0.14801 0.0
H578 H 0.66336 0.86628 0.15044 0.0
H579 H 0.66829 0.8633 0.21441 0.0
H580 H 0.622 0.85659 0.10758 0.0
H581 H 0.65908 0.79434 0.07747 0.0
H582 H 0.63292 0.78207 0.10678 0.0
H583 H 0.66176 0.80769 0.12098 0.0
C584 C 0.62274 0.80394 0.19915 0.0
C585 C 0.64045 0.82448 0.21837 0.0
C586 C 0.61988 0.80579 0.16248 0.0
C587 C 0.63474 0.82815 0.14452 0.0
C588 C 0.65173 0.84887 0.16386 0.0
H589 H 0.68613 0.85989 0.93095 0.0
H590 H 0.67987 0.85716 0.99531 0.0
C591 C 0.6546 0.84707 0.20041 0.0
C592 C 0.6339 0.8298 0.10526 0.0
H593 H 0.64862 0.81082 0.02871 0.0
C594 C 0.62757 0.84643 0.09021 0.0
C595 C 0.64147 0.8167 0.08287 0.0
C596 C 0.64939 0.79932 0.09769 0.0
C597 C 0.62899 0.85059 0.05324 0.0
C598 C 0.6368 0.83765 0.03098 0.0
C599 C 0.64262 0.82067 0.04598 0.0
C600 C 0.64052 0.84232 0.99222 0.0
C601 C 0.62305 0.86938 0.03834 0.0
C602 C 0.6205 0.83546 0.96921 0.0
C603 C 0.62402 0.83707 0.93224 0.0
C604 C 0.6476 0.84536 0.91785 0.0
C605 C 0.66772 0.8533 0.94112 0.0
C606 C 0.66419 0.85174 0.97792 0.0
H607 H 0.62131 0.88074 0.05963 0.0
H608 H 0.6375 0.88183 0.01924 0.0
H609 H 0.60534 0.85971 0.02366 0.0
H610 H 0.60205 0.82787 0.97979 0.0
H611 H 0.60814 0.83071 0.91502 0.0
H612 H 0.14915 0.82987 0.94719 0.0
H613 H 0.14827 0.82079 0.01073 0.0
H614 H 0.17893 0.77412 0.98874 0.0
H615 H 0.17981 0.78298 0.92486 0.0
H616 H 0.12801 0.76998 0.05128 0.0
H617 H 0.22916 0.8362 0.05427 0.0
H618 H 0.20974 0.83725 0.0196 0.0
H619 H 0.21689 0.8129 0.02008 0.0
C620 C 0.15534 0.81734 0.95573 0.0
C621 C 0.16481 0.80735 0.93105 0.0
C622 C 0.15469 0.81209 0.99201 0.0
C623 C 0.16363 0.79692 0.00422 0.0
C624 C 0.17195 0.78588 0.97962 0.0
H625 H 0.21206 0.79745 0.22162 0.0
H626 H 0.20261 0.78758 0.15855 0.0
C627 C 0.17243 0.79097 0.94321 0.0
C628 C 0.16667 0.79496 0.04285 0.0
H629 H 0.2096 0.81985 0.10876 0.0
C630 C 0.14584 0.7806 0.06397 0.0
C631 C 0.18998 0.80885 0.05905 0.0
C632 C 0.21281 0.8248 0.0373 0.0
C633 C 0.14772 0.78001 0.10125 0.0
C634 C 0.17094 0.79473 0.11763 0.0
C635 C 0.19182 0.80854 0.09623 0.0
C636 C 0.17407 0.79734 0.15686 0.0
C637 C 0.12486 0.76358 0.12258 0.0
C638 C 0.16095 0.80581 0.17704 0.0
C639 C 0.16613 0.8112 0.21323 0.0
C640 C 0.18489 0.80872 0.22966 0.0
C641 C 0.1976 0.7997 0.20963 0.0
C642 C 0.19218 0.79399 0.17361 0.0
H643 H 0.11125 0.74771 0.10644 0.0
H644 H 0.12925 0.75638 0.14688 0.0
H645 H 0.11605 0.77435 0.13084 0.0
H646 H 0.1474 0.80924 0.16453 0.0
H647 H 0.15616 0.81829 0.22792 0.0
H648 H 0.20886 0.32847 0.9477 0.0
H649 H 0.21784 0.32361 0.00961 0.0
H650 H 0.13993 0.28266 0.03244 0.0
H651 H 0.13098 0.28611 0.96991 0.0
H652 H 0.21079 0.3416 0.06441 0.0
H653 H 0.15924 0.24109 0.08613 0.0
H654 H 0.16384 0.25438 0.04212 0.0
H655 H 0.13864 0.25074 0.06964 0.0
C656 C 0.19367 0.31807 0.96589 0.0
C657 C 0.16923 0.30765 0.95415 0.0
C658 C 0.19881 0.31526 0.00125 0.0
C659 C 0.17961 0.30242 0.02582 0.0
C660 C 0.15512 0.29188 0.01394 0.0
H661 H 0.17722 0.33793 0.24028 0.0
H662 H 0.18024 0.3351 0.1763 0.0
C663 C 0.14998 0.2941 0.97826 0.0
C664 C 0.1852 0.30234 0.06439 0.0
H665 H 0.16717 0.26639 0.13932 0.0
C666 C 0.20159 0.32499 0.08053 0.0
C667 C 0.17384 0.2807 0.08566 0.0
C668 C 0.15816 0.25536 0.06982 0.0
C669 C 0.20567 0.32683 0.11741 0.0
C670 C 0.1922 0.30569 0.13908 0.0
C671 C 0.17713 0.28273 0.12283 0.0
C672 C 0.19148 0.3076 0.17845 0.0
C673 C 0.22415 0.3516 0.13273 0.0
C674 C 0.19601 0.29246 0.20124 0.0
C675 C 0.19386 0.29372 0.23832 0.0
C676 C 0.18711 0.31013 0.25305 0.0
C677 C 0.18277 0.32529 0.23003 0.0
C678 C 0.18466 0.32384 0.19326 0.0
H679 H 0.23918 0.36242 0.11336 0.0
H680 H 0.21488 0.36235 0.13839 0.0
H681 H 0.23241 0.3496 0.1578 0.0
H682 H 0.20104 0.27958 0.19034 0.0
H683 H 0.19717 0.28168 0.25533 0.0
H684 H 0.37013 0.15771 0.03922 0.0
H685 H 0.35932 0.14828 0.97631 0.0
H686 H 0.28449 0.12894 -0.00021 0.0
H687 H 0.29534 0.13912 0.06253 0.0
H688 H 0.32626 0.10665 0.94139 0.0
H689 H 0.30242 0.18037 0.92319 0.0
H690 H 0.31751 0.17813 0.96274 0.0
H691 H 0.2849 0.15816 0.95707 0.0
C692 C 0.35136 0.15141 0.031 0.0
C693 C 0.33367 0.14946 0.05574 0.0
C694 C 0.34519 0.14597 0.99507 0.0
C695 C 0.32121 0.13834 0.98325 0.0
C696 C 0.30326 0.13541 0.00814 0.0
H697 H 0.27272 0.12115 0.75951 0.0
H698 H 0.27035 0.11348 0.82413 0.0
C699 C 0.30948 0.14114 0.04401 0.0
C700 C 0.31535 0.1342 0.9447 0.0
H701 H 0.29781 0.15572 0.87333 0.0
C702 C 0.31984 0.11723 0.92657 0.0
C703 C 0.30691 0.14799 0.92538 0.0
C704 C 0.30285 0.16734 0.94295 0.0
C705 C 0.31676 0.11419 0.8895 0.0
C706 C 0.30902 0.12847 0.8702 0.0
C707 C 0.30352 0.14464 0.88841 0.0
C708 C 0.30967 0.12949 0.83084 0.0
C709 C 0.32233 0.09616 0.87107 0.0
C710 C 0.33249 0.14078 0.81345 0.0
C711 C 0.33392 0.14546 0.77694 0.0
C712 C 0.3125 0.13877 0.75707 0.0
C713 C 0.28949 0.12635 0.77417 0.0
C714 C 0.28811 0.122 0.81098 0.0
H715 H 0.32187 0.08225 0.88997 0.0
H716 H 0.30899 0.08645 0.84921 0.0
H717 H 0.34103 0.10639 0.8592 0.0
H718 H 0.34935 0.14702 0.82844 0.0
H719 H 0.35189 0.15499 0.76443 0.0
H720 H 0.92147 0.21774 0.76197 0.0
H721 H 0.92946 0.23129 0.82455 0.0
H722 H 0.85153 0.20056 0.84169 0.0
H723 H 0.84355 0.18765 0.77981 0.0
H724 H 0.87861 0.24738 0.86865 0.0
H725 H 0.91673 0.18814 0.91245 0.0
H726 H 0.93191 0.20895 0.87591 0.0
H727 H 0.90117 0.18352 0.87031 0.0
C728 C 0.9061 0.21373 0.77927 0.0
C729 C 0.88189 0.20163 0.76595 0.0
C730 C 0.91067 0.22148 0.81497 0.0
C731 C 0.89107 0.2169 0.83782 0.0
C732 C 0.86697 0.20451 0.82452 0.0
H733 H 0.8498 0.18377 0.04729 0.0
H734 H 0.86184 0.1892 0.985 0.0
C735 C 0.86243 0.19703 0.78909 0.0
C736 C 0.8949 0.22452 0.87581 0.0
H737 H 0.90833 0.20915 0.95668 0.0
C738 C 0.88555 0.23943 0.88795 0.0
C739 C 0.90405 0.21418 0.90082 0.0
C740 C 0.91393 0.19768 0.88946 0.0
C741 C 0.88328 0.2427 0.9245 0.0
C742 C 0.89113 0.23118 0.94954 0.0
C743 C 0.9023 0.21792 0.93736 0.0
C744 C 0.88422 0.229 0.98776 0.0
C745 C 0.87082 0.25684 0.93597 0.0
C746 C 0.89253 0.24967 0.01013 0.0
C747 C 0.88534 0.24663 0.04611 0.0
C748 C 0.87005 0.22285 0.06016 0.0
C749 C 0.86173 0.20235 0.03747 0.0
C750 C 0.86868 0.2054 0.00179 0.0
H751 H 0.86267 0.26155 0.9131 0.0
H752 H 0.85603 0.24596 0.95561 0.0
H753 H 0.88451 0.27429 0.94899 0.0
H754 H 0.90477 0.26805 -5e-05 0.0
H755 H 0.8922 0.26274 0.06304 0.0
H756 H 0.83815 0.72892 0.06817 0.0
H757 H 0.83121 0.73542 0.00616 0.0
H758 H 0.78229 0.65702 0.99364 0.0
H759 H 0.78846 0.65055 0.05651 0.0
H760 H 0.84494 0.71876 0.95246 0.0
H761 H 0.74486 0.68311 0.93971 0.0
H762 H 0.76003 0.68902 0.98244 0.0
H763 H 0.75144 0.66079 0.95892 0.0
C764 C 0.82557 0.71309 0.05237 0.0
C765 C 0.81398 0.68919 0.06698 0.0
C766 C 0.82156 0.71685 0.01696 0.0
C767 C 0.80611 0.69677 0.99522 0.0
C768 C 0.79383 0.67289 0.01007 0.0
H769 H 0.79774 0.66645 0.77543 0.0
H770 H 0.79113 0.66697 0.83938 0.0
C771 C 0.7975 0.66916 0.04588 0.0
C772 C 0.8054 0.70068 0.95629 0.0
H773 H 0.7671 0.68835 0.88497 0.0
C774 C 0.82791 0.71252 0.93786 0.0
C775 C 0.78319 0.69249 0.9372 0.0
C776 C 0.75854 0.68087 0.95566 0.0
C777 C 0.82882 0.71558 0.9008 0.0
C778 C 0.80661 0.70668 0.8816 0.0
C779 C 0.78408 0.69531 0.89993 0.0
C780 C 0.80661 0.70651 0.84221 0.0
C781 C 0.85347 0.72728 0.88219 0.0
C782 C 0.81677 0.72856 0.82248 0.0
C783 C 0.82056 0.72835 0.78569 0.0
C784 C 0.81444 0.70609 0.76845 0.0
C785 C 0.80293 0.68394 0.78807 0.0
C786 C 0.79897 0.68415 0.82457 0.0
H787 H 0.86865 0.73042 0.90056 0.0
H788 H 0.85301 0.71545 0.85985 0.0
H789 H 0.85765 0.74536 0.87083 0.0
H790 H 0.8227 0.746 0.83578 0.0
H791 H 0.82942 0.74567 0.77121 0.0
H792 H 0.36969 0.16671 0.27397 0.0
H793 H 0.36087 0.16667 0.33738 0.0
H794 H 0.31398 0.19687 0.31337 0.0
H795 H 0.32181 0.19579 0.24967 0.0
H796 H 0.36887 0.20094 0.38285 0.0
H797 H 0.26792 0.13915 0.37259 0.0
H798 H 0.28837 0.14463 0.33561 0.0
H799 H 0.27884 0.16663 0.34628 0.0
C800 C 0.35759 0.17346 0.28221 0.0
C801 C 0.3463 0.1811 0.25687 0.0
C802 C 0.3525 0.17337 0.31847 0.0
C803 C 0.33626 0.18119 0.33017 0.0
C804 C 0.32588 0.18994 0.30498 0.0
H805 H 0.33361 0.21131 0.55678 0.0
H806 H 0.33684 0.21544 0.49187 0.0
C807 C 0.33058 0.18957 0.26861 0.0
C808 C 0.33049 0.18029 0.36875 0.0
H809 H 0.28328 0.15769 0.429 0.0
C810 C 0.35014 0.19145 0.39292 0.0
C811 C 0.30605 0.16757 0.38197 0.0
C812 C 0.2841 0.15359 0.3578 0.0
C813 C 0.34613 0.19013 0.42983 0.0
C814 C 0.32167 0.17824 0.443 0.0
C815 C 0.30199 0.16713 0.41887 0.0
C816 C 0.31629 0.17609 0.48182 0.0
C817 C 0.36823 0.20067 0.45423 0.0
C818 C 0.30195 0.15274 0.49763 0.0
C819 C 0.29939 0.15041 0.53471 0.0
C820 C 0.31141 0.17139 0.55649 0.0
C821 C 0.32441 0.19483 0.54055 0.0
C822 C 0.32648 0.19718 0.50351 0.0
H823 H 0.38469 0.20231 0.44059 0.0
H824 H 0.37278 0.21945 0.46274 0.0
H825 H 0.36453 0.18903 0.47838 0.0
H826 H 0.29371 0.13621 0.48141 0.0
H827 H 0.28933 0.13212 0.54636 0.0
H828 H 0.87264 0.25042 0.27159 0.0
H829 H 0.87993 0.24854 0.33571 0.0
H830 H 0.82985 0.16994 0.33504 0.0
H831 H 0.82256 0.1716 0.27154 0.0
H832 H 0.84726 0.22886 0.3971 0.0
H833 H 0.89654 0.17799 0.3693 0.0
H834 H 0.89047 0.19473 0.33529 0.0
H835 H 0.86674 0.16443 0.34873 0.0
C836 C 0.86273 0.23288 0.28537 0.0
C837 C 0.84719 0.21113 0.26648 0.0
C838 C 0.86707 0.2318 0.32187 0.0
C839 C 0.85595 0.20898 0.33977 0.0
C840 C 0.83909 0.18762 0.32149 0.0
H841 H 0.827 0.16159 0.55444 0.0
H842 H 0.82787 0.17075 0.49109 0.0
C843 C 0.8348 0.18866 0.28525 0.0
C844 C 0.86227 0.20694 0.37723 0.0
H845 H 0.88342 0.17681 0.42969 0.0
C846 C 0.85548 0.21779 0.40425 0.0
C847 C 0.87344 0.19287 0.38646 0.0
C848 C 0.88247 0.18203 0.35842 0.0
C849 C 0.85824 0.2137 0.44036 0.0
C850 C 0.86768 0.19808 0.44956 0.0
C851 C 0.87586 0.18847 0.42256 0.0
C852 C 0.86757 0.19027 0.48694 0.0
C853 C 0.85061 0.22579 0.46842 0.0
C854 C 0.8896 0.19688 0.50508 0.0
C855 C 0.88917 0.19141 0.54148 0.0
C856 C 0.86668 0.17925 0.56004 0.0
C857 C 0.84465 0.17119 0.54101 0.0
C858 C 0.8451 0.17658 0.50485 0.0
H859 H 0.85055 0.24233 0.45774 0.0
H860 H 0.83167 0.21247 0.47757 0.0
H861 H 0.86306 0.23136 0.49186 0.0
H862 H 0.90713 0.2072 0.49153 0.0
H863 H 0.90644 0.19798 0.55546 0.0
H864 H 0.864 0.68642 0.56695 0.0
H865 H 0.86202 0.68078 0.5025 0.0
H866 H 0.82868 0.72622 0.49173 0.0
H867 H 0.83105 0.73236 0.55653 0.0
H868 H 0.81908 0.65809 0.46421 0.0
H869 H 0.88089 0.75314 0.41358 0.0
H870 H 0.88094 0.74466 0.45959 0.0
H871 H 0.85718 0.75018 0.44341 0.0
C872 C 0.85672 0.69567 0.55083 0.0
C873 C 0.84767 0.70985 0.56679 0.0
C874 C 0.8555 0.69232 0.514 0.0
C875 C 0.84519 0.70304 0.4923 0.0
C876 C 0.83704 0.71806 0.50793 0.0
H877 H 0.79299 0.6547 0.27424 0.0
H878 H 0.79447 0.65993 0.33917 0.0
C879 C 0.83843 0.7216 0.54493 0.0
C880 C 0.8417 0.69706 0.45375 0.0
H881 H 0.85813 0.72237 0.37065 0.0
C882 C 0.8276 0.67214 0.4437 0.0
C883 C 0.85292 0.7154 0.42713 0.0
C884 C 0.86901 0.74234 0.43634 0.0
C885 C 0.82464 0.66503 0.40774 0.0
C886 C 0.83573 0.68338 0.38112 0.0
C887 C 0.84959 0.70832 0.39115 0.0
C888 C 0.83414 0.67726 0.34269 0.0
C889 C 0.8103 0.63792 0.39863 0.0
C890 C 0.85585 0.68485 0.32327 0.0
C891 C 0.85506 0.68201 0.28635 0.0
C892 C 0.8325 0.6715 0.26804 0.0
C893 C 0.81059 0.66259 0.28768 0.0
C894 C 0.81143 0.66562 0.32476 0.0
H895 H 0.80808 0.62612 0.4221 0.0
H896 H 0.79168 0.63316 0.38923 0.0
H897 H 0.81949 0.63348 0.37695 0.0
H898 H 0.87355 0.69375 0.33658 0.0
H899 H 0.87225 0.689 0.27197 0.0
H900 H 1.01182 0.44869 0.9693 0.0
H901 H 0.03094 0.42454 0.95067 0.0
H902 H 0.10212 0.49076 0.94983 0.0
H903 H 0.08343 0.5148 0.96885 0.0
H904 H 0.05816 0.42866 0.89004 0.0
H905 H 0.11542 0.44505 0.0104 0.0
H906 H 0.09062 0.45175 0.00896 0.0
H907 H 0.12021 0.47313 0.99022 0.0
C908 C 0.03156 0.45807 0.96537 0.0
C909 C 0.04606 0.4837 0.9709 0.0
C910 C 0.04247 0.44424 0.95466 0.0
C911 C 0.06807 0.45573 0.94948 0.0
C912 C 0.08245 0.48132 0.95451 0.0
H913 H 0.17421 0.41484 0.8768 0.0
H914 H 0.15239 0.43619 0.89579 0.0
C915 C 0.07164 0.4951 0.96523 0.0
C916 C 0.07986 0.44128 0.93795 0.0
H917 H 0.12525 0.42856 0.95983 0.0
C918 C 0.07266 0.42843 0.90547 0.0
C919 C 0.09884 0.44099 0.95802 0.0
C920 C 0.10658 0.45326 0.994 0.0
C921 C 0.08439 0.41595 0.89207 0.0
C922 C 0.10365 0.41605 0.91186 0.0
C923 C 0.11064 0.42864 0.94452 0.0
C924 C 0.11669 0.40306 0.89934 0.0
C925 C 0.07653 0.40334 0.85634 0.0
C926 C 0.10395 0.37731 0.89524 0.0
C927 C 0.11637 0.36505 0.88448 0.0
C928 C 0.14187 0.37825 0.87762 0.0
C929 C 0.15459 0.40408 0.88169 0.0
C930 C 0.14214 0.41632 0.89262 0.0
H931 H 0.06592 0.40996 0.84073 0.0
H932 H 0.09275 0.40643 0.84042 0.0
H933 H 0.0646 0.38317 0.86052 0.0
H934 H 0.08442 0.36661 0.90089 0.0
H935 H 0.10596 0.34515 0.88179 0.0
H936 H 0.70183 0.77943 0.85423 0.0
H937 H 0.69017 0.7376 0.87468 0.0
H938 H 0.61358 0.71691 0.87037 0.0
H939 H 0.62489 0.75814 0.84974 0.0
H940 H 0.6632 0.71126 0.93538 0.0
H941 H 0.61475 0.66258 0.81235 0.0
H942 H 0.63519 0.69559 0.81379 0.0
H943 H 0.60388 0.68223 0.82905 0.0
C944 C 0.6825 0.76591 0.85744 0.0
C945 C 0.66432 0.77219 0.85003 0.0
C946 C 0.67587 0.74202 0.8692 0.0
C947 C 0.65096 0.72393 0.87345 0.0
C948 C 0.63289 0.73031 0.86651 0.0
H949 H 0.55403 0.58037 0.95312 0.0
H950 H 0.57618 0.62232 0.92963 0.0
C951 C 0.63944 0.75404 0.85485 0.0
C952 C 0.64348 0.69847 0.88586 0.0
H953 H 0.60528 0.63769 0.86519 0.0
C954 C 0.6509 0.69515 0.91981 0.0
C955 C 0.62752 0.6774 0.86548 0.0
C956 C 0.62007 0.67959 0.82799 0.0
C957 C 0.64162 0.6714 0.93466 0.0
C958 C 0.62468 0.65045 0.91494 0.0
C959 C 0.61814 0.65376 0.88042 0.0
C960 C 0.61192 0.62512 0.93049 0.0
C961 C 0.64904 0.6689 0.972 0.0
C962 C 0.62464 0.6126 0.93885 0.0
C963 C 0.61193 0.58836 0.95231 0.0
C964 C 0.58628 0.57624 0.95768 0.0
C965 C 0.57376 0.58902 0.94947 0.0
C966 C 0.5864 0.61307 0.93594 0.0
H967 H 0.65954 0.68703 0.98559 0.0
H968 H 0.63251 0.65669 0.9882 0.0
H969 H 0.66076 0.66029 0.97094 0.0
H970 H 0.6443 0.62142 0.93445 0.0
H971 H 0.62215 0.57907 0.95823 0.0
H972 H 0.23765 0.93195 0.87497 0.0
H973 H 0.28022 0.96011 0.89423 0.0
H974 H 0.29671 0.90139 0.88345 0.0
H975 H 0.25474 0.87345 0.8639 0.0
H976 H 0.30667 0.95687 0.95218 0.0
H977 H 0.35151 0.95642 0.82556 0.0
H978 H 0.3189 0.94523 0.82873 0.0
H979 H 0.33113 0.92579 0.84173 0.0
C980 C 0.25041 0.9251 0.87651 0.0
C981 C 0.24274 0.90044 0.86756 0.0
C982 C 0.27472 0.94121 0.88758 0.0
C983 C 0.29185 0.93303 0.88965 0.0
C984 C 0.28408 0.90836 0.88124 0.0
H985 H 0.43473 0.97201 0.96271 0.0
H986 H 0.39258 0.95405 0.94111 0.0
C987 C 0.25993 0.89232 0.87021 0.0
C988 C 0.31773 0.94981 0.90129 0.0
H989 H 0.37741 0.96996 0.87744 0.0
C990 C 0.32218 0.96012 0.93563 0.0
C991 C 0.33802 0.95419 0.87964 0.0
C992 C 0.3347 0.94504 0.84173 0.0
C993 C 0.34624 0.97348 0.94955 0.0
C994 C 0.36635 0.97675 0.92849 0.0
C995 C 0.36197 0.96731 0.89367 0.0
C996 C 0.39185 0.98819 0.94284 0.0
C997 C 0.34994 0.98302 0.98725 0.0
C998 C 0.40559 0.01347 0.951 0.0
C999 C 0.42994 0.02395 0.96332 0.0
C1000 C 0.44094 1.00928 0.96776 0.0
C1001 C 0.42695 0.98393 0.95976 0.0
C1002 C 0.40279 0.97358 0.94732 0.0
H1003 H 0.33222 0.9762 0.00164 0.0
H1004 H 0.36159 0.97742 0.00231 0.0
H1005 H 0.35966 1.0035 0.98678 0.0
H1006 H 0.39761 0.02517 0.94735 0.0
H1007 H 0.44017 0.04352 0.96912 0.0
H1008 H 0.43496 1.00935 0.53749 0.0
H1009 H 0.41445 0.03164 0.55835 0.0
H1010 H 0.48368 0.10009 0.5552 0.0
H1011 H 0.50428 0.07814 0.53475 0.0
H1012 H 0.45746 0.09284 0.61887 0.0
H1013 H 0.39852 0.0778 0.50028 0.0
H1014 H 0.39592 0.05028 0.51956 0.0
H1015 H 0.42443 0.07278 0.49941 0.0
C1016 C 0.44578 0.02916 0.54102 0.0
C1017 C 0.47126 0.04192 0.53432 0.0
C1018 C 0.43402 0.0419 0.55281 0.0
C1019 C 0.44751 0.06759 0.55798 0.0
C1020 C 0.47289 0.0803 0.55133 0.0
H1021 H 0.41561 0.18094 0.6331 0.0
H1022 H 0.43591 0.15838 0.61262 0.0
C1023 C 0.48463 0.06766 0.53954 0.0
C1024 C 0.43547 0.08132 0.57115 0.0
H1025 H 0.39242 0.09737 0.54992 0.0
C1026 C 0.44327 0.09388 0.60379 0.0
C1027 C 0.41699 0.08269 0.55141 0.0
C1028 C 0.40855 0.07037 0.51557 0.0
C1029 C 0.43281 0.10743 0.61751 0.0
C1030 C 0.41438 0.10888 0.5977 0.0
C1031 C 0.40658 0.0963 0.56506 0.0
C1032 C 0.40245 0.12279 0.61069 0.0
C1033 C 0.44116 0.11956 0.65348 0.0
C1034 C 0.37689 0.11043 0.61579 0.0
C1035 C 0.36527 0.12326 0.62718 0.0
C1036 C 0.37892 0.14884 0.63367 0.0
C1037 C 0.40457 0.16124 0.6286 0.0
C1038 C 0.41621 0.14834 0.61706 0.0
H1039 H 0.4505 0.11151 0.66907 0.0
H1040 H 0.45445 0.13952 0.64968 0.0
H1041 H 0.42537 0.11774 0.66927 0.0
H1042 H 0.36588 0.09075 0.61098 0.0
H1043 H 0.34548 0.11305 0.63076 0.0
H1044 H 0.83379 0.25178 0.62851 0.0
H1045 H 0.85365 0.29501 0.60799 0.0
H1046 H 0.92464 0.30494 0.63616 0.0
H1047 H 0.90523 0.26258 0.65705 0.0
H1048 H 0.91963 0.34407 0.65683 0.0
H1049 H 0.89258 0.32029 0.51469 0.0
H1050 H 0.86798 0.30856 0.54678 0.0
H1051 H 0.88939 0.29748 0.54703 0.0
C1052 C 0.85358 0.26333 0.63069 0.0
C1053 C 0.86789 0.25362 0.64419 0.0
C1054 C 0.86494 0.28794 0.61864 0.0
C1055 C 0.89073 0.30313 0.61995 0.0
C1056 C 0.90478 0.29363 0.63467 0.0
H1057 H 0.01474 0.4385 0.55114 0.0
H1058 H 0.98476 0.39753 0.5738 0.0
C1059 C 0.89357 0.26927 0.64657 0.0
C1060 C 0.9037 0.32883 0.6057 0.0
H1061 H 0.919 0.36222 0.52816 0.0
C1062 C 0.91924 0.34806 0.62876 0.0
C1063 C 0.90329 0.33406 0.56901 0.0
C1064 C 0.88759 0.31406 0.54275 0.0
C1065 C 0.93485 0.37212 0.61605 0.0
C1066 C 0.93511 0.37713 0.57924 0.0
C1067 C 0.91883 0.35825 0.55635 0.0
C1068 C 0.95303 0.4016 0.56402 0.0
C1069 C 0.9513 0.39198 0.64199 0.0
C1070 C 0.94508 0.41728 0.55029 0.0
C1071 C 0.96219 0.44079 0.53744 0.0
C1072 C 0.98758 0.44896 0.53768 0.0
C1073 C 0.99537 0.43287 0.55055 0.0
C1074 C 0.97827 0.40947 0.56366 0.0
H1075 H 0.94512 0.38666 0.67001 0.0
H1076 H 0.97032 0.39522 0.63965 0.0
H1077 H 0.95185 0.40961 0.63588 0.0
H1078 H 0.92568 0.41152 0.55019 0.0
H1079 H 0.95552 0.45265 0.52762 0.0
H1080 H 0.76587 0.60356 0.63984 0.0
H1081 H 0.72357 0.58015 0.61642 0.0
H1082 H 0.71589 0.64446 0.62787 0.0
H1083 H 0.75763 0.66777 0.65079 0.0
H1084 H 0.6772 0.57104 0.64654 0.0
H1085 H 0.70013 0.62603 0.52195 0.0
H1086 H 0.72335 0.62613 0.55047 0.0
H1087 H 0.70966 0.64452 0.5616 0.0
C1088 C 0.75507 0.6126 0.63758 0.0
C1089 C 0.76528 0.63762 0.64682 0.0
C1090 C 0.73096 0.59924 0.62414 0.0
C1091 C 0.71681 0.61076 0.61966 0.0
C1092 C 0.72666 0.63537 0.63026 0.0
H1093 H 0.57257 0.57711 0.5456 0.0
H1094 H 0.61467 0.59605 0.56906 0.0
C1095 C 0.75057 0.64865 0.64354 0.0
C1096 C 0.69179 0.59749 0.60373 0.0
H1097 H 0.65745 0.6008 0.53548 0.0
C1098 C 0.67289 0.57732 0.62204 0.0
C1099 C 0.68621 0.60579 0.57181 0.0
C1100 C 0.70594 0.62666 0.55009 0.0
C1101 C 0.6484 0.56578 0.60994 0.0
C1102 C 0.64276 0.57444 0.57841 0.0
C1103 C 0.66175 0.59432 0.55978 0.0
C1104 C 0.61729 0.56301 0.56411 0.0
C1105 C 0.62862 0.54492 0.63159 0.0
C1106 C 0.605 0.53833 0.55293 0.0
C1107 C 0.58106 0.52752 0.53948 0.0
C1108 C 0.56885 0.54118 0.53672 0.0
C1109 C 0.58137 0.56606 0.5474 0.0
C1110 C 0.60542 0.57689 0.56083 0.0
H1111 H 0.63488 0.54455 0.65918 0.0
H1112 H 0.61176 0.54643 0.63293 0.0
H1113 H 0.62371 0.52709 0.61871 0.0
H1114 H 0.61397 0.52742 0.55448 0.0
H1115 H 0.57209 0.50835 0.53138 0.0
H1116 H 0.85324 0.62819 0.13459 0.0
H1117 H 0.87099 0.60355 0.11378 0.0
H1118 H 0.94221 0.66938 0.10557 0.0
H1119 H 0.92465 0.69424 0.12693 0.0
H1120 H 0.89404 0.60596 0.05031 0.0
H1121 H 0.95758 0.62372 0.16348 0.0
H1122 H 0.93322 0.63104 0.16525 0.0
H1123 H 0.96163 0.65137 0.14272 0.0
C1124 C 0.87274 0.6375 0.12861 0.0
C1125 C 0.88754 0.66326 0.13267 0.0
C1126 C 0.88284 0.62333 0.11661 0.0
C1127 C 0.908 0.63451 0.10854 0.0
C1128 C 0.92284 0.66024 0.11234 0.0
H1129 H 1.00809 0.59217 0.02438 0.0
H1130 H 0.986 0.61212 0.04638 0.0
C1131 C 0.91275 0.67446 0.12441 0.0
C1132 C 0.91852 0.61929 0.09541 0.0
H1133 H 0.96287 0.60425 0.11253 0.0
C1134 C 0.90896 0.60542 0.06406 0.0
C1135 C 0.93786 0.61841 0.11347 0.0
C1136 C 0.94804 0.63172 0.14828 0.0
C1137 C 0.91882 0.59148 0.04961 0.0
C1138 C 0.93856 0.59112 0.06724 0.0
C1139 C 0.94776 0.60456 0.09897 0.0
C1140 C 0.95111 0.57832 0.05219 0.0
C1141 C 0.90865 0.57797 0.01495 0.0
C1142 C 0.93882 0.55252 0.04782 0.0
C1143 C 0.9515 0.54088 0.03503 0.0
C1144 C 0.97671 0.55487 0.02663 0.0
C1145 C 0.98872 0.58071 0.03064 0.0
C1146 C 0.97612 0.59223 0.0433 0.0
H1147 H 0.89687 0.58402 0.00123 0.0
H1148 H 0.9238 0.58086 0.99671 0.0
H1149 H 0.8973 0.55788 0.0204 0.0
H1150 H 0.91959 0.54135 0.05499 0.0
H1151 H 0.94172 0.52097 0.03246 0.0
H1152 H 0.38717 0.24608 0.11713 0.0
H1153 H 0.41316 0.28789 0.09409 0.0
H1154 H 0.47748 0.28079 0.10798 0.0
H1155 H 0.4516 0.23886 0.13138 0.0
H1156 H 0.48343 0.32663 0.13205 0.0
H1157 H 0.44563 0.30477 0.99493 0.0
H1158 H 0.42243 0.29553 0.02879 0.0
H1159 H 0.44105 0.28117 0.0268 0.0
C1160 C 0.40684 0.25335 0.11539 0.0
C1161 C 0.41724 0.23899 0.12596 0.0
C1162 C 0.42167 0.27725 0.10199 0.0
C1163 C 0.44722 0.28732 0.09871 0.0
C1164 C 0.45779 0.27332 0.11004 0.0
H1165 H 0.55704 0.43807 0.02518 0.0
H1166 H 0.53904 0.39516 0.04611 0.0
C1167 C 0.44294 0.24934 0.12339 0.0
C1168 C 0.46275 0.3125 0.08354 0.0
H1169 H 0.46947 0.34749 0.00982 0.0
C1170 C 0.48065 0.33118 0.10517 0.0
C1171 C 0.45921 0.31835 0.04838 0.0
C1172 C 0.44121 0.29887 0.02321 0.0
C1173 C 0.49418 0.35581 0.09319 0.0
C1174 C 0.48994 0.36179 0.05848 0.0
C1175 C 0.47268 0.34291 0.03645 0.0
C1176 C 0.50145 0.38773 0.04554 0.0
C1177 C 0.51204 0.37542 0.11831 0.0
C1178 C 0.48632 0.39763 0.03759 0.0
C1179 C 0.49647 0.42191 0.02557 0.0
C1180 C 0.52207 0.437 0.02097 0.0
C1181 C 0.53728 0.427 0.0285 0.0
C1182 C 0.52703 0.40254 0.04067 0.0
H1183 H 0.51001 0.36848 0.14611 0.0
H1184 H 0.53113 0.3817 0.1094 0.0
H1185 H 0.50937 0.39166 0.11815 0.0
H1186 H 0.46656 0.38658 0.04103 0.0
H1187 H 0.4841 0.42885 0.02 0.0
H1188 H 0.76801 0.11969 0.1258 0.0
H1189 H 0.72641 0.10506 0.10276 0.0
H1190 H 0.73567 0.17747 0.11799 0.0
H1191 H 0.77712 0.19223 0.14118 0.0
H1192 H 0.68912 0.13786 0.14098 0.0
H1193 H 0.71239 0.12421 0.0033 0.0
H1194 H 0.7201 0.10897 0.03731 0.0
H1195 H 0.73559 0.14212 0.03613 0.0
C1196 C 0.76114 0.13246 0.12451 0.0
C1197 C 0.776 0.15718 0.13516 0.0
C1198 C 0.73742 0.12412 0.11111 0.0
C1199 C 0.72811 0.1403 0.10811 0.0
C1200 C 0.74255 0.16472 0.11985 0.0
H1201 H 0.5826 0.11266 0.03254 0.0
H1202 H 0.62532 0.13419 0.05451 0.0
C1203 C 0.76627 0.17311 0.13309 0.0
C1204 C 0.70346 0.13189 0.09228 0.0
H1205 H 0.67009 0.10878 0.01589 0.0
C1206 C 0.68495 0.13168 0.11356 0.0
C1207 C 0.69818 0.12408 0.0564 0.0
C1208 C 0.71763 0.12502 0.03177 0.0
C1209 C 0.66098 0.1228 0.10035 0.0
C1210 C 0.65554 0.11439 0.0647 0.0
C1211 C 0.67428 0.11528 0.04319 0.0
C1212 C 0.63008 0.10234 0.05018 0.0
C1213 C 0.64142 0.12151 0.12509 0.0
C1214 C 0.61887 0.07762 0.03947 0.0
C1215 C 0.59477 0.06546 0.02679 0.0
C1216 C 0.58114 0.07768 0.02434 0.0
C1217 C 0.59255 0.10271 0.03416 0.0
C1218 C 0.61687 0.11495 0.04699 0.0
H1219 H 0.64745 0.12428 0.15339 0.0
H1220 H 0.63718 0.13615 0.11772 0.0
H1221 H 0.6242 0.10341 0.12266 0.0
H1222 H 0.62868 0.06753 0.04152 0.0
H1223 H 0.58673 0.04624 0.0193 0.0
H1224 H 0.56881 0.98973 0.48766 0.0
H1225 H 0.58579 0.96533 0.46404 0.0
H1226 H 0.51254 0.90506 0.44336 0.0
H1227 H 0.49513 0.9298 0.46673 0.0
H1228 H 0.57942 0.91992 0.48452 0.0
H1229 H 0.54679 0.91759 0.34573 0.0
H1230 H 0.54643 0.93809 0.37917 0.0
H1231 H 0.52364 0.90587 0.38002 0.0
C1232 C 0.55616 0.97125 0.47825 0.0
C1233 C 0.53056 0.96181 0.47878 0.0
C1234 C 0.56597 0.95729 0.46481 0.0
C1235 C 0.55049 0.93354 0.45143 0.0
C1236 C 0.52484 0.92356 0.453 0.0
H1237 H 0.59829 0.83992 0.34618 0.0
H1238 H 0.57334 0.85568 0.37275 0.0
C1239 C 0.51491 0.9376 0.46661 0.0
C1240 C 0.56176 0.9199 0.43528 0.0
H1241 H 0.57136 0.89957 0.35567 0.0
C1242 C 0.57748 0.91526 0.45642 0.0
C1243 C 0.55927 0.91392 0.39857 0.0
C1244 C 0.54328 0.91923 0.37435 0.0
C1245 C 0.5911 0.90523 0.44174 0.0
C1246 C 0.58922 0.9 0.40485 0.0
C1247 C 0.57287 0.9038 0.38391 0.0
C1248 C 0.60442 0.89096 0.38748 0.0
C1249 C 0.6075 0.90038 0.46579 0.0
C1250 C 0.63016 0.90584 0.3862 0.0
C1251 C 0.64453 0.89696 0.37085 0.0
C1252 C 0.63338 0.873 0.35654 0.0
C1253 C 0.60751 0.85842 0.35707 0.0
C1254 C 0.59319 0.86737 0.37224 0.0
H1255 H 0.60241 0.89969 0.49431 0.0
H1256 H 0.60657 0.88272 0.45874 0.0
H1257 H 0.62684 0.91547 0.4625 0.0
H1258 H 0.63915 0.92428 0.39733 0.0
H1259 H 0.66437 0.90867 0.37084 0.0
H1260 H 0.11858 0.56468 0.46769 0.0
H1261 H 0.15227 0.60395 0.44433 0.0
H1262 H 0.11417 0.64131 0.47977 0.0
H1263 H 0.08071 0.60251 0.50278 0.0
H1264 H 0.14487 0.63251 0.39081 0.0
H1265 H 0.18568 0.68734 0.5131 0.0
H1266 H 0.16747 0.65401 0.51348 0.0
H1267 H 0.15268 0.67228 0.51268 0.0
C1268 C 0.11771 0.58139 0.47115 0.0
C1269 C 0.09699 0.58051 0.48701 0.0
C1270 C 0.1369 0.60376 0.45772 0.0
C1271 C 0.13585 0.6256 0.4607 0.0
C1272 C 0.11561 0.62482 0.47774 0.0
H1273 H 0.16978 0.75224 0.3463 0.0
H1274 H 0.15505 0.71131 0.37169 0.0
C1275 C 0.09639 0.60255 0.49067 0.0
C1276 C 0.15434 0.64883 0.44308 0.0
H1277 H 0.19115 0.71053 0.45886 0.0
C1278 C 0.15549 0.64948 0.4057 0.0
C1279 C 0.16834 0.67093 0.46249 0.0
C1280 C 0.16871 0.67113 0.50269 0.0
C1281 C 0.1688 0.67194 0.38721 0.0
C1282 C 0.18113 0.69425 0.40662 0.0
C1283 C 0.18153 0.69341 0.444 0.0
C1284 C 0.19096 0.7186 0.38888 0.0
C1285 C 0.16874 0.67175 0.34701 0.0
C1286 C 0.21612 0.73639 0.39023 0.0
C1287 C 0.2247 0.75993 0.37543 0.0
C1288 C 0.20815 0.76613 0.35975 0.0
C1289 C 0.18304 0.74811 0.3582 0.0
C1290 C 0.17457 0.72463 0.37253 0.0
H1291 H 0.16478 0.65356 0.33642 0.0
H1292 H 0.15418 0.67541 0.3372 0.0
H1293 H 0.18668 0.68632 0.33623 0.0
H1294 H 0.22902 0.73214 0.40305 0.0
H1295 H 0.24412 0.77347 0.37724 0.0
H1296 H 0.22769 0.41263 0.38506 0.0
H1297 H 0.26996 0.44325 0.40272 0.0
H1298 H 0.29145 0.38809 0.39233 0.0
H1299 H 0.24972 0.35764 0.37484 0.0
H1300 H 0.29812 0.43958 0.46231 0.0
H1301 H 0.34281 0.44717 0.33206 0.0
H1302 H 0.31008 0.43518 0.33652 0.0
H1303 H 0.32297 0.41576 0.3458 0.0
C1304 C 0.24149 0.40711 0.38633 0.0
C1305 C 0.23531 0.38268 0.37843 0.0
C1306 C 0.26559 0.4246 0.39648 0.0
C1307 C 0.28389 0.41801 0.39834 0.0
C1308 C 0.27772 0.39369 0.39048 0.0
H1309 H 0.42203 0.44949 0.46565 0.0
H1310 H 0.38067 0.43585 0.44411 0.0
C1311 C 0.25376 0.37625 0.38063 0.0
C1312 C 0.30941 0.43594 0.40958 0.0
H1313 H 0.3691 0.4589 0.3837 0.0
C1314 C 0.3137 0.4444 0.44495 0.0
C1315 C 0.32967 0.44229 0.38679 0.0
C1316 C 0.3262 0.43484 0.34806 0.0
C1317 C 0.33775 0.45741 0.45885 0.0
C1318 C 0.35786 0.46217 0.43667 0.0
C1319 C 0.35362 0.45513 0.40071 0.0
C1320 C 0.38292 0.47118 0.45118 0.0
C1321 C 0.34146 0.46455 0.49768 0.0
C1322 C 0.39796 0.49568 0.46253 0.0
C1323 C 0.42192 0.50369 0.47496 0.0
C1324 C 0.43109 0.48727 0.47618 0.0
C1325 C 0.4157 0.46271 0.46512 0.0
C1326 C 0.39199 0.45483 0.4527 0.0
H1327 H 0.32375 0.45816 0.5119 0.0
H1328 H 0.3517 0.4566 0.51107 0.0
H1329 H 0.35268 0.48493 0.50002 0.0
H1330 H 0.39133 0.50863 0.46128 0.0
H1331 H 0.4333 0.52272 0.48318 0.0
H1332 H 0.8052 0.7341 0.16387 0.0
H1333 H 0.79034 0.76072 0.18662 0.0
H1334 H 0.85884 0.80451 0.24244 0.0
H1335 H 0.87412 0.77784 0.21912 0.0
H1336 H 0.81284 0.78424 0.28494 0.0
H1337 H 0.81071 0.83408 0.16392 0.0
H1338 H 0.79852 0.80157 0.15729 0.0
H1339 H 0.83054 0.82098 0.16804 0.0
C1340 C 0.81733 0.74967 0.18045 0.0
C1341 C 0.84083 0.75391 0.18974 0.0
C1342 C 0.80884 0.76493 0.19329 0.0
C1343 C 0.82354 0.78469 0.21595 0.0
C1344 C 0.84731 0.78945 0.22469 0.0
H1345 H 0.75516 0.86987 0.29253 0.0
H1346 H 0.78744 0.86118 0.2732 0.0
C1347 C 0.85604 0.77432 0.21129 0.0
C1348 C 0.81277 0.79857 0.23273 0.0
H1349 H 0.78375 0.83074 0.21185 0.0
C1350 C 0.80698 0.79492 0.26918 0.0
C1351 C 0.80521 0.81255 0.21218 0.0
C1352 C 0.81174 0.81776 0.17323 0.0
C1353 C 0.7924 0.80349 0.28505 0.0
C1354 C 0.78333 0.81591 0.26386 0.0
C1355 C 0.79055 0.82104 0.228 0.0
C1356 C 0.76448 0.82152 0.27744 0.0
C1357 C 0.78609 0.79848 0.32409 0.0
C1358 C 0.74089 0.80211 0.28598 0.0
C1359 C 0.72242 0.80696 0.29666 0.0
C1360 C 0.72716 0.83138 0.29916 0.0
C1361 C 0.75094 0.85086 0.29104 0.0
C1362 C 0.76939 0.84595 0.27997 0.0
H1363 H 0.79955 0.79505 0.33854 0.0
H1364 H 0.78553 0.81417 0.33687 0.0
H1365 H 0.76763 0.78178 0.3269 0.0
H1366 H 0.7366 0.78311 0.28367 0.0
H1367 H 0.70434 0.79151 0.30268 0.0
H1368 H 0.38559 0.10269 0.18614 0.0
H1369 H 0.36989 0.06009 0.20625 0.0
H1370 H 0.29616 0.04843 0.20826 0.0
H1371 H 0.31154 0.09073 0.18786 0.0
H1372 H 0.34415 0.03728 0.26883 0.0
H1373 H 0.28809 0.98988 0.14978 0.0
H1374 H 0.3112 0.02223 0.14965 0.0
H1375 H 0.28123 0.01217 0.16827 0.0
C1376 C 0.366 0.09101 0.19062 0.0
C1377 C 0.34982 0.10013 0.18517 0.0
C1378 C 0.35708 0.06668 0.20217 0.0
C1379 C 0.33181 0.05095 0.20822 0.0
C1380 C 0.31566 0.06005 0.20301 0.0
H1381 H 0.23266 0.90657 0.28968 0.0
H1382 H 0.25394 0.94858 0.26619 0.0
C1383 C 0.32453 0.08433 0.19151 0.0
C1384 C 0.32228 0.02524 0.22103 0.0
H1385 H 0.28055 0.9651 0.20189 0.0
C1386 C 0.33046 0.02145 0.25403 0.0
C1387 C 0.30447 1.0046 0.20163 0.0
C1388 C 0.29589 1.00734 0.1652 0.0
C1389 C 0.32055 0.99767 0.26884 0.0
C1390 C 0.30223 0.97713 0.24988 0.0
C1391 C 0.29453 0.98088 0.21646 0.0
C1392 C 0.28984 0.95173 0.26492 0.0
C1393 C 0.32904 0.99481 0.30526 0.0
C1394 C 0.30294 0.93943 0.27194 0.0
C1395 C 0.29079 0.91526 0.28547 0.0
C1396 C 0.26529 0.90296 0.2921 0.0
C1397 C 0.25231 0.91542 0.28501 0.0
C1398 C 0.26443 0.93947 0.27149 0.0
H1399 H 0.33943 0.01276 0.31933 0.0
H1400 H 0.31311 0.98198 0.32202 0.0
H1401 H 0.3413 0.98691 0.30238 0.0
H1402 H 0.3225 0.94839 0.26653 0.0
H1403 H 0.30133 0.90618 0.29047 0.0
H1404 H 0.0959 0.32444 0.30276 0.0
H1405 H 0.05536 0.29965 0.2748 0.0
H1406 H 0.05417 0.23289 0.30673 0.0
H1407 H 0.0946 0.25736 0.33447 0.0
H1408 H 0.04608 0.25806 0.21859 0.0
H1409 H 0.98541 0.22833 0.33855 0.0
H1410 H 0.01456 0.25691 0.33778 0.0
H1411 H 1.01396 0.22803 0.34001 0.0
C1412 C 0.08686 0.3045 0.30428 0.0
C1413 C 0.09849 0.29288 0.32079 0.0
C1414 C 0.06378 0.29039 0.28819 0.0
C1415 C 0.05187 0.2645 0.28883 0.0
C1416 C 0.06307 0.25286 0.30615 0.0
H1417 H 0.90258 0.16243 0.20939 0.0
H1418 H 0.94367 0.17656 0.23491 0.0
C1419 C 0.08618 0.2669 0.32192 0.0
C1420 C 0.02827 0.24963 0.26985 0.0
H1421 H 0.96623 0.21479 0.28273 0.0
C1422 C 0.0286 0.24847 0.23255 0.0
C1423 C 1.00566 0.23677 0.28827 0.0
C1424 C 1.00461 0.23748 0.32838 0.0
C1425 C 1.00672 0.23524 0.21302 0.0
C1426 C 0.9839 0.2234 0.23128 0.0
C1427 C 0.98371 0.2238 0.26874 0.0
C1428 C 0.9601 0.21326 0.2121 0.0
C1429 C 1.00828 0.23421 0.17297 0.0
C1430 C 0.95585 0.22901 0.19044 0.0
C1431 C 0.93265 0.22101 0.17593 0.0
C1432 C 0.91302 0.1971 0.18292 0.0
C1433 C 0.91744 0.18084 0.20325 0.0
C1434 C 0.94082 0.18896 0.21801 0.0
H1435 H 0.02602 0.23584 0.16462 0.0
H1436 H 0.99294 0.21678 0.16208 0.0
H1437 H 1.00734 0.24995 0.16103 0.0
H1438 H 0.97019 0.24797 0.18613 0.0
H1439 H 0.92983 0.234 0.1604 0.0
H1440 H 0.35947 0.26238 0.70146 0.0
H1441 H 0.34526 0.28896 0.72814 0.0
H1442 H 0.27025 0.22919 0.72247 0.0
H1443 H 0.28399 0.20269 0.69583 0.0
H1444 H 0.29828 0.29456 0.69644 0.0
H1445 H 0.29315 0.25789 0.83341 0.0
H1446 H 0.31502 0.2595 0.80064 0.0
H1447 H 0.28318 0.23629 0.79696 0.0
C1448 C 0.33994 0.25498 0.70564 0.0
C1449 C 0.3229 0.23036 0.69654 0.0
C1450 C 0.33188 0.27018 0.72085 0.0
C1451 C 0.30674 0.26094 0.72733 0.0
C1452 C 0.28973 0.23661 0.71771 0.0
H1453 H 0.19984 0.28469 0.8247 0.0
H1454 H 0.22726 0.27143 0.80041 0.0
C1455 C 0.29768 0.2215 0.70245 0.0
C1456 C 0.2978 0.2761 0.74508 0.0
H1457 H 0.27323 0.281 0.82368 0.0
C1458 C 0.29323 0.29208 0.72443 0.0
C1459 C 0.29113 0.2726 0.78147 0.0
C1460 C 0.29593 0.25575 0.80467 0.0
C1461 C 0.28098 0.30373 0.73889 0.0
C1462 C 0.27346 0.29949 0.77507 0.0
C1463 C 0.27903 0.2843 0.79601 0.0
C1464 C 0.25751 0.30836 0.79071 0.0
C1465 C 0.2749 0.31929 0.71486 0.0
C1466 C 0.26548 0.33365 0.79386 0.0
C1467 C 0.24971 0.34139 0.8078 0.0
C1468 C 0.22573 0.32395 0.81894 0.0
C1469 C 0.21812 0.29869 0.81637 0.0
C1470 C 0.23381 0.29103 0.8025 0.0
H1471 H 0.27813 0.31715 0.6863 0.0
H1472 H 0.25539 0.31434 0.71829 0.0
H1473 H 0.28667 0.33903 0.72206 0.0
H1474 H 0.28385 0.34738 0.7855 0.0
H1475 H 0.25619 0.36097 0.8095 0.0
H1476 H 0.83729 0.10749 0.69193 0.0
H1477 H 0.81596 0.0646 0.71181 0.0
H1478 H 0.74732 0.06458 0.71406 0.0
H1479 H 0.76858 0.10772 0.69379 0.0
H1480 H 0.78959 0.04529 0.77496 0.0
H1481 H 0.72989 1.00198 0.65687 0.0
H1482 H 0.75606 0.03291 0.65586 0.0
H1483 H 0.72779 0.02703 0.67645 0.0
C1484 C 0.8176 0.09841 0.69634 0.0
C1485 C 0.80468 0.11117 0.69107 0.0
C1486 C 0.80543 0.07381 0.70782 0.0
C1487 C 0.77998 0.06119 0.71414 0.0
C1488 C 0.76691 0.07375 0.70879 0.0
H1489 H 0.67817 0.91071 0.78566 0.0
H1490 H 0.69744 0.95368 0.76602 0.0
C1491 C 0.77911 0.09848 0.69732 0.0
C1492 C 0.7675 0.03517 0.72736 0.0
H1493 H 0.72393 0.97594 0.70614 0.0
C1494 C 0.77524 0.03012 0.75988 0.0
C1495 C 0.74873 0.01534 0.7078 0.0
C1496 C 0.74019 0.01943 0.67215 0.0
C1497 C 0.76462 1.00593 0.7735 0.0
C1498 C 0.74607 0.98603 0.7537 0.0
C1499 C 0.73817 0.99112 0.72132 0.0
C1500 C 0.73456 0.95985 0.76613 0.0
C1501 C 0.77304 1.00203 0.80937 0.0
C1502 C 0.74891 0.94875 0.77252 0.0
C1503 C 0.73792 0.9241 0.78397 0.0
C1504 C 0.71228 0.9099 0.78897 0.0
C1505 C 0.69796 0.92102 0.78222 0.0
C1506 C 0.70896 0.94565 0.77089 0.0
H1507 H 0.78181 0.01927 0.82537 0.0
H1508 H 0.75742 0.98744 0.82484 0.0
H1509 H 0.78688 0.99618 0.80538 0.0
H1510 H 0.76862 0.95906 0.76828 0.0
H1511 H 0.74952 0.91614 0.78859 0.0
H1512 H 0.10123 0.78145 0.80696 0.0
H1513 H 0.05875 0.75935 0.78586 0.0
H1514 H 0.05628 0.8269 0.78841 0.0
H1515 H 0.09905 0.84935 0.80947 0.0
H1516 H 0.01537 0.7543 0.81737 0.0
H1517 H 0.0349 0.80117 0.68562 0.0
H1518 H 0.05885 0.80244 0.71376 0.0
H1519 H 0.04559 0.82138 0.72355 0.0
C1520 C 0.09172 0.7917 0.80313 0.0
C1521 C 0.10369 0.81728 0.80977 0.0
C1522 C 0.06737 0.77896 0.79108 0.0
C1523 C 0.05441 0.79148 0.78506 0.0
C1524 C 0.06606 0.81692 0.7923 0.0
H1525 H 0.90973 0.7497 0.70457 0.0
H1526 H 0.95172 0.77039 0.72715 0.0
C1527 C 0.09047 0.82971 0.80455 0.0
C1528 C 0.02876 0.77779 0.77111 0.0
H1529 H 0.99312 0.77375 0.69969 0.0
C1530 C 1.01048 0.7585 0.79161 0.0
C1531 C 0.02243 0.7832 0.73743 0.0
C1532 C 0.04146 0.80302 0.71358 0.0
C1533 C 0.98594 0.74488 0.77974 0.0
C1534 C 0.97959 0.75031 0.74604 0.0
C1535 C 0.99795 0.76952 0.72547 0.0
C1536 C 0.95385 0.7371 0.73218 0.0
C1537 C 0.96693 0.72531 0.80391 0.0
C1538 C 0.94095 0.71137 0.72698 0.0
C1539 C 0.91667 0.69931 0.71409 0.0
C1540 C 0.90491 0.71282 0.70586 0.0
C1541 C 0.91809 0.73861 0.71059 0.0
C1542 C 0.9422 0.75056 0.72353 0.0
H1543 H 0.97338 0.72776 0.83199 0.0
H1544 H 0.94938 0.72556 0.80308 0.0
H1545 H 0.96319 0.70688 0.79488 0.0
H1546 H 0.9497 0.7006 0.73268 0.0
H1547 H 0.90714 0.67948 0.71062 0.0
loop_
_geom_bond_atom_site_label_1
_geom_bond_atom_site_label_2
_geom_bond_distance
_geom_bond_site_symmetry_2
_ccdc_geom_bond_type
C0 O2 1.247 1_655 S
C0 O4 1.258 . S
C1 O8 1.247 1_455 S
C1 O9 1.258 . S
O2 C0 1.247 1_455 S
O2 Zn3 2.019 1_556 S
Zn3 O2 2.019 1_554 S
Zn3 O7 2.038 1_455 S
Zn3 O9 2.044 . S
Zn3 O10 2.026 1_554 S
O4 C0 1.258 . S
O4 Zn5 2.010 1_556 S
Zn5 O4 2.010 1_554 S
Zn5 O6 2.032 . S
Zn5 O8 2.053 . S
Zn5 O11 2.006 1_654 S
O6 Zn5 2.032 . S
O6 C12 1.247 . S
O7 Zn3 2.038 1_655 S
O7 C12 1.257 . S
O8 C1 1.247 1_655 S
O8 Zn5 2.053 . S
O9 C1 1.258 . S
O9 Zn3 2.044 . S
O10 Zn3 2.026 1_556 S
O10 C13 1.247 . S
O11 Zn5 2.006 1_456 S
O11 C13 1.281 . S
C12 O6 1.247 . S
C12 O7 1.257 . S
C13 O10 1.247 . S
C13 O11 1.281 . S
C14 O16 1.247 . S
C14 O18 1.258 . S
C15 O22 1.247 . S
C15 O23 1.258 . S
O16 C14 1.247 . S
O16 Zn17 2.055 . S
Zn17 O16 2.055 . S
Zn17 O21 2.031 1_554 S
Zn17 O23 2.008 1_554 S
Zn17 O24 2.033 . S
O18 C14 1.258 . S
O18 Zn19 2.045 . S
Zn19 O18 2.045 . S
Zn19 O20 2.026 1_554 S
Zn19 O22 2.018 1_554 S
Zn19 O25 2.037 . S
O20 Zn19 2.026 1_556 S
O20 C26 1.247 . S
O21 Zn17 2.031 1_556 S
O21 C26 1.258 . S
O22 C15 1.247 . S
O22 Zn19 2.018 1_556 S
O23 C15 1.258 . S
O23 Zn17 2.008 1_556 S
O24 Zn17 2.033 . S
O24 C27 1.247 . S
O25 Zn19 2.037 . S
O25 C27 1.258 . S
C26 O20 1.247 . S
C26 O21 1.258 . S
C27 O24 1.247 . S
C27 O25 1.258 . S
C28 O30 1.247 . S
C28 O32 1.258 1_565 S
C29 O36 1.247 . S
C29 O37 1.258 1_545 S
O30 C28 1.247 . S
O30 Zn31 2.052 . S
Zn31 O30 2.052 . S
Zn31 O35 2.031 1_554 S
Zn31 O37 2.011 1_554 S
Zn31 O38 2.023 1_565 S
O32 C28 1.258 1_545 S
O32 Zn33 2.043 . S
Zn33 O32 2.043 . S
Zn33 O34 2.028 1_554 S
Zn33 O36 2.020 1_554 S
Zn33 O39 2.037 . S
O34 Zn33 2.028 1_556 S
O34 C40 1.241 1_545 S
O35 Zn31 2.031 1_556 S
O35 C40 1.258 . S
O36 C29 1.247 . S
O36 Zn33 2.020 1_556 S
O37 C29 1.258 1_565 S
O37 Zn31 2.011 1_556 S
O38 Zn31 2.023 1_545 S
O38 C41 1.296 . S
O39 Zn33 2.037 . S
O39 C41 1.258 . S
C40 O34 1.241 1_565 S
C40 O35 1.258 . S
C41 O38 1.296 . S
C41 O39 1.258 . S
C42 O44 1.247 1_565 S
C42 O46 1.258 . S
C43 O50 1.247 1_545 S
C43 O51 1.258 . S
O44 C42 1.247 1_545 S
O44 Zn45 2.028 . S
Zn45 O44 2.028 . S
Zn45 O49 2.044 . S
Zn45 O51 2.035 . S
Zn45 O52 2.028 . S
O46 C42 1.258 . S
O46 Zn47 2.035 . S
Zn47 O46 2.035 . S
Zn47 O48 2.028 . S
Zn47 O50 2.028 . S
Zn47 O53 1.991 1_565 S
O48 Zn47 2.028 . S
O48 C54 1.247 . S
O49 Zn45 2.044 . S
O49 C54 1.251 1_545 S
O50 C43 1.247 1_565 S
O50 Zn47 2.028 . S
O51 C43 1.258 . S
O51 Zn45 2.035 . S
O52 Zn45 2.028 . S
O52 C55 1.247 . S
O53 Zn47 1.991 1_545 S
O53 C55 1.297 . S
C54 O48 1.247 . S
C54 O49 1.251 1_565 S
C55 O52 1.247 . S
C55 O53 1.297 . S
C56 O58 1.247 1_455 S
C56 O60 1.258 . S
C57 O64 1.247 1_655 S
C57 O65 1.258 . S
O58 C56 1.247 1_655 S
O58 Zn59 2.028 . S
Zn59 O58 2.028 . S
Zn59 O63 2.031 1_655 S
Zn59 O65 2.035 . S
Zn59 O66 2.028 . S
O60 C56 1.258 . S
O60 Zn61 2.035 . S
Zn61 O60 2.035 . S
Zn61 O62 2.028 . S
Zn61 O64 2.028 . S
Zn61 O67 2.035 1_455 S
O62 Zn61 2.028 . S
O62 C68 1.247 . S
O63 Zn59 2.031 1_455 S
O63 C68 1.280 . S
O64 C57 1.247 1_455 S
O64 Zn61 2.028 . S
O65 C57 1.258 . S
O65 Zn59 2.035 . S
O66 Zn59 2.028 . S
O66 C69 1.247 . S
O67 Zn61 2.035 1_655 S
O67 C69 1.259 . S
C68 O62 1.247 . S
C68 O63 1.280 . S
C69 O66 1.247 . S
C69 O67 1.259 . S
C70 O72 1.247 . S
C70 O74 1.258 . S
C71 O78 1.247 . S
C71 O79 1.258 . S
O72 C70 1.247 . S
O72 Zn73 2.028 . S
Zn73 O72 2.028 . S
Zn73 O77 2.035 . S
Zn73 O79 2.035 . S
Zn73 O80 2.028 . S
O74 C70 1.258 . S
O74 Zn75 2.035 . S
Zn75 O74 2.035 . S
Zn75 O76 2.028 . S
Zn75 O78 2.028 . S
Zn75 O81 2.035 . S
O76 Zn75 2.028 . S
O76 C82 1.247 . S
O77 Zn73 2.035 . S
O77 C82 1.258 . S
O78 C71 1.247 . S
O78 Zn75 2.028 . S
O79 C71 1.258 . S
O79 Zn73 2.035 . S
O80 Zn73 2.028 . S
O80 C83 1.247 . S
O81 Zn75 2.035 . S
O81 C83 1.258 . S
C82 O76 1.247 . S
C82 O77 1.258 . S
C83 O80 1.247 . S
C83 O81 1.258 . S
C84 O86 1.247 . S
C84 O88 1.258 . S
C85 O92 1.247 . S
C85 O93 1.258 . S
O86 C84 1.247 . S
O86 Zn87 2.028 . S
Zn87 O86 2.028 . S
Zn87 O91 2.035 . S
Zn87 O93 2.035 . S
Zn87 O94 2.028 . S
O88 C84 1.258 . S
O88 Zn89 2.035 . S
Zn89 O88 2.035 . S
Zn89 O90 2.028 . S
Zn89 O92 2.028 . S
Zn89 O95 2.035 . S
O90 Zn89 2.028 . S
O90 C96 1.247 . S
O91 Zn87 2.035 . S
O91 C96 1.258 . S
O92 C85 1.247 . S
O92 Zn89 2.028 . S
O93 C85 1.258 . S
O93 Zn87 2.035 . S
O94 Zn87 2.028 . S
O94 C97 1.247 . S
O95 Zn89 2.035 . S
O95 C97 1.258 . S
C96 O90 1.247 . S
C96 O91 1.258 . S
C97 O94 1.247 . S
C97 O95 1.258 . S
C98 O100 1.247 . S
C98 O102 1.258 . S
C99 O106 1.247 . S
C99 O107 1.258 . S
O100 C98 1.247 . S
O100 Zn101 2.028 . S
Zn101 O100 2.028 . S
Zn101 O105 2.035 . S
Zn101 O107 2.035 . S
Zn101 O108 2.028 . S
O102 C98 1.258 . S
O102 Zn103 2.035 . S
Zn103 O102 2.035 . S
Zn103 O104 2.028 . S
Zn103 O106 2.028 . S
Zn103 O109 2.035 . S
O104 Zn103 2.028 . S
O104 C110 1.247 . S
O105 Zn101 2.035 . S
O105 C110 1.258 . S
O106 C99 1.247 . S
O106 Zn103 2.028 . S
O107 C99 1.258 . S
O107 Zn101 2.035 . S
O108 Zn101 2.028 . S
O108 C111 1.247 . S
O109 Zn103 2.035 . S
O109 C111 1.258 . S
C110 O104 1.247 . S
C110 O105 1.258 . S
C111 O108 1.247 . S
C111 O109 1.258 . S
C112 O114 1.247 . S
C112 O116 1.258 . S
C113 O120 1.247 . S
C113 O121 1.258 . S
O114 C112 1.247 . S
O114 Zn115 2.028 . S
Zn115 O114 2.028 . S
Zn115 O119 2.035 . S
Zn115 O121 2.035 . S
Zn115 O122 2.028 . S
O116 C112 1.258 . S
O116 Zn117 2.035 . S
Zn117 O116 2.035 . S
Zn117 O118 2.028 . S
Zn117 O120 2.028 . S
Zn117 O123 2.035 . S
O118 Zn117 2.028 . S
O118 C124 1.247 . S
O119 Zn115 2.035 . S
O119 C124 1.258 . S
O120 C113 1.247 . S
O120 Zn117 2.028 . S
O121 C113 1.258 . S
O121 Zn115 2.035 . S
O122 Zn115 2.028 . S
O122 C125 1.247 . S
O123 Zn117 2.035 . S
O123 C125 1.258 . S
C124 O118 1.247 . S
C124 O119 1.258 . S
C125 O122 1.247 . S
C125 O123 1.258 . S
C126 O128 1.247 . S
C126 O130 1.258 . S
C127 O134 1.247 . S
C127 O135 1.258 . S
O128 C126 1.247 . S
O128 Zn129 2.028 . S
Zn129 O128 2.028 . S
Zn129 O133 2.035 . S
Zn129 O135 2.035 . S
Zn129 O136 2.028 . S
O130 C126 1.258 . S
O130 Zn131 2.035 . S
Zn131 O130 2.035 . S
Zn131 O132 2.028 . S
Zn131 O134 2.028 . S
Zn131 O137 2.035 . S
O132 Zn131 2.028 . S
O132 C138 1.247 . S
O133 Zn129 2.035 . S
O133 C138 1.258 . S
O134 C127 1.247 . S
O134 Zn131 2.028 . S
O135 C127 1.258 . S
O135 Zn129 2.035 . S
O136 Zn129 2.028 . S
O136 C139 1.247 . S
O137 Zn131 2.035 . S
O137 C139 1.258 . S
C138 O132 1.247 . S
C138 O133 1.258 . S
C139 O136 1.247 . S
C139 O137 1.258 . S
C140 O142 1.247 . S
C140 O144 1.258 . S
C141 O148 1.247 . S
C141 O149 1.258 . S
O142 C140 1.247 . S
O142 Zn143 2.028 . S
Zn143 O142 2.028 . S
Zn143 O147 2.035 . S
Zn143 O149 2.035 . S
Zn143 O150 2.028 . S
O144 C140 1.258 . S
O144 Zn145 2.035 . S
Zn145 O144 2.035 . S
Zn145 O146 2.028 . S
Zn145 O148 2.028 . S
Zn145 O151 2.035 . S
O146 Zn145 2.028 . S
O146 C152 1.247 . S
O147 Zn143 2.035 . S
O147 C152 1.258 . S
O148 C141 1.247 . S
O148 Zn145 2.028 . S
O149 C141 1.258 . S
O149 Zn143 2.035 . S
O150 Zn143 2.028 . S
O150 C153 1.247 . S
O151 Zn145 2.035 . S
O151 C153 1.258 . S
C152 O146 1.247 . S
C152 O147 1.258 . S
C153 O150 1.247 . S
C153 O151 1.258 . S
C154 O156 1.247 . S
C154 O158 1.258 . S
C155 O162 1.247 . S
C155 O163 1.258 . S
O156 C154 1.247 . S
O156 Zn157 2.028 . S
Zn157 O156 2.028 . S
Zn157 O161 2.035 . S
Zn157 O163 2.035 . S
Zn157 O164 2.028 . S
O158 C154 1.258 . S
O158 Zn159 2.035 . S
Zn159 O158 2.035 . S
Zn159 O160 2.028 . S
Zn159 O162 2.028 . S
Zn159 O165 2.035 . S
O160 Zn159 2.028 . S
O160 C166 1.247 . S
O161 Zn157 2.035 . S
O161 C166 1.258 . S
O162 C155 1.247 . S
O162 Zn159 2.028 . S
O163 C155 1.258 . S
O163 Zn157 2.035 . S
O164 Zn157 2.028 . S
O164 C167 1.247 . S
O165 Zn159 2.035 . S
O165 C167 1.258 . S
C166 O160 1.247 . S
C166 O161 1.258 . S
C167 O164 1.247 . S
C167 O165 1.258 . S
C168 O170 1.247 . S
C168 O172 1.258 . S
C169 O176 1.247 . S
C169 O177 1.258 . S
O170 C168 1.247 . S
O170 Zn171 2.028 . S
Zn171 O170 2.028 . S
Zn171 O175 2.035 . S
Zn171 O177 2.035 . S
Zn171 O178 2.028 . S
O172 C168 1.258 . S
O172 Zn173 2.035 . S
Zn173 O172 2.035 . S
Zn173 O174 2.028 . S
Zn173 O176 2.028 . S
Zn173 O179 2.035 . S
O174 Zn173 2.028 . S
O174 C180 1.247 . S
O175 Zn171 2.035 . S
O175 C180 1.258 . S
O176 C169 1.247 . S
O176 Zn173 2.028 . S
O177 C169 1.258 . S
O177 Zn171 2.035 . S
O178 Zn171 2.028 . S
O178 C181 1.247 . S
O179 Zn173 2.035 . S
O179 C181 1.258 . S
C180 O174 1.247 . S
C180 O175 1.258 . S
C181 O178 1.247 . S
C181 O179 1.258 . S
C182 O184 1.247 . S
C182 O186 1.258 . S
C183 O190 1.247 . S
C183 O191 1.258 . S
O184 C182 1.247 . S
O184 Zn185 2.028 . S
Zn185 O184 2.028 . S
Zn185 O189 2.035 . S
Zn185 O191 2.035 . S
Zn185 O192 2.028 . S
O186 C182 1.258 . S
O186 Zn187 2.035 . S
Zn187 O186 2.035 . S
Zn187 O188 2.028 . S
Zn187 O190 2.028 . S
Zn187 O193 2.035 . S
O188 Zn187 2.028 . S
O188 C194 1.247 . S
O189 Zn185 2.035 . S
O189 C194 1.258 . S
O190 C183 1.247 . S
O190 Zn187 2.028 . S
O191 C183 1.258 . S
O191 Zn185 2.035 . S
O192 Zn185 2.028 . S
O192 C195 1.247 . S
O193 Zn187 2.035 . S
O193 C195 1.258 . S
C194 O188 1.247 . S
C194 O189 1.258 . S
C195 O192 1.247 . S
C195 O193 1.258 . S
C196 O198 1.247 . S
C196 O200 1.258 . S
C197 O204 1.247 . S
C197 O205 1.258 . S
O198 C196 1.247 . S
O198 Zn199 2.028 . S
Zn199 O198 2.028 . S
Zn199 O203 2.035 . S
Zn199 O205 2.035 . S
Zn199 O206 2.028 . S
O200 C196 1.258 . S
O200 Zn201 2.035 . S
Zn201 O200 2.035 . S
Zn201 O202 2.028 . S
Zn201 O204 2.028 . S
Zn201 O207 2.035 . S
O202 Zn201 2.028 . S
O202 C208 1.247 . S
O203 Zn199 2.035 . S
O203 C208 1.258 . S
O204 C197 1.247 . S
O204 Zn201 2.028 . S
O205 C197 1.258 . S
O205 Zn199 2.035 . S
O206 Zn199 2.028 . S
O206 C209 1.247 . S
O207 Zn201 2.035 . S
O207 C209 1.258 . S
C208 O202 1.247 . S
C208 O203 1.258 . S
C209 O206 1.247 . S
C209 O207 1.258 . S
C210 O212 1.247 . S
C210 O214 1.258 . S
C211 O218 1.247 . S
C211 O219 1.258 . S
O212 C210 1.247 . S
O212 Zn213 2.028 . S
Zn213 O212 2.028 . S
Zn213 O217 2.035 . S
Zn213 O219 2.035 . S
Zn213 O220 2.028 . S
O214 C210 1.258 . S
O214 Zn215 2.035 . S
Zn215 O214 2.035 . S
Zn215 O216 2.028 . S
Zn215 O218 2.028 . S
Zn215 O221 2.035 . S
O216 Zn215 2.028 . S
O216 C222 1.247 . S
O217 Zn213 2.035 . S
O217 C222 1.258 . S
O218 C211 1.247 . S
O218 Zn215 2.028 . S
O219 C211 1.258 . S
O219 Zn213 2.035 . S
O220 Zn213 2.028 . S
O220 C223 1.247 . S
O221 Zn215 2.035 . S
O221 C223 1.258 . S
C222 O216 1.247 . S
C222 O217 1.258 . S
C223 O220 1.247 . S
C223 O221 1.258 . S
C224 O226 1.247 . S
C224 O228 1.258 . S
C225 O232 1.247 . S
C225 O233 1.258 . S
O226 C224 1.247 . S
O226 Zn227 2.028 . S
Zn227 O226 2.028 . S
Zn227 O231 2.035 . S
Zn227 O233 2.035 . S
Zn227 O234 2.028 . S
O228 C224 1.258 . S
O228 Zn229 2.035 . S
Zn229 O228 2.035 . S
Zn229 O230 2.028 . S
Zn229 O232 2.028 . S
Zn229 O235 2.035 . S
O230 Zn229 2.028 . S
O230 C236 1.247 . S
O231 Zn227 2.035 . S
O231 C236 1.258 . S
O232 C225 1.247 . S
O232 Zn229 2.028 . S
O233 C225 1.258 . S
O233 Zn227 2.035 . S
O234 Zn227 2.028 . S
O234 C237 1.247 . S
O235 Zn229 2.035 . S
O235 C237 1.258 . S
C236 O230 1.247 . S
C236 O231 1.258 . S
C237 O234 1.247 . S
C237 O235 1.258 . S
C238 O240 1.247 . S
C238 O242 1.258 . S
C239 O246 1.247 . S
C239 O247 1.258 . S
O240 C238 1.247 . S
O240 Zn241 2.028 . S
Zn241 O240 2.028 . S
Zn241 O245 2.035 . S
Zn241 O247 2.035 . S
Zn241 O248 2.028 . S
O242 C238 1.258 . S
O242 Zn243 2.035 . S
Zn243 O242 2.035 . S
Zn243 O244 2.028 . S
Zn243 O246 2.028 . S
Zn243 O249 2.035 . S
O244 Zn243 2.028 . S
O244 C250 1.247 . S
O245 Zn241 2.035 . S
O245 C250 1.258 . S
O246 C239 1.247 . S
O246 Zn243 2.028 . S
O247 C239 1.258 . S
O247 Zn241 2.035 . S
O248 Zn241 2.028 . S
O248 C251 1.247 . S
O249 Zn243 2.035 . S
O249 C251 1.258 . S
C250 O244 1.247 . S
C250 O245 1.258 . S
C251 O248 1.247 . S
C251 O249 1.258 . S
H252 C260 0.929 . S
H253 C262 0.930 . S
H254 C264 0.930 . S
H255 C267 0.929 . S
H256 C270 0.930 . S
H257 C272 0.960 . S
H258 C272 0.960 . S
H259 C272 0.960 . S
C260 H252 0.929 . S
C260 C261 1.377 . S
C260 C262 1.384 . S
C261 C260 1.377 . S
C261 C267 1.390 1_655 S
C262 H253 0.930 . S
C262 C260 1.384 . S
C262 C263 1.372 . S
C263 C262 1.372 . S
C263 C264 1.400 1_655 S
C263 C268 1.490 . S
C264 H254 0.930 . S
C264 C263 1.400 1_455 S
C264 C267 1.386 . S
H265 C281 0.930 . S
H266 C282 0.931 . S
C267 H255 0.929 . S
C267 C261 1.390 1_455 S
C267 C264 1.386 . S
C268 C263 1.490 . S
C268 C270 1.392 1_655 S
C268 C271 1.405 . S
H269 C275 0.930 . S
C270 H256 0.930 . S
C270 C268 1.392 1_455 S
C270 C273 1.403 . S
C271 C268 1.405 . S
C271 C272 1.524 . S
C271 C275 1.400 . S
C272 H257 0.960 . S
C272 H258 0.960 . S
C272 H259 0.960 . S
C272 C271 1.524 . S
C273 C270 1.403 . S
C273 C274 1.392 . S
C273 C277 1.495 . S
C274 C273 1.392 . S
C274 C275 1.385 1_455 S
C274 C276 1.478 . S
C275 H269 0.930 . S
C275 C271 1.400 . S
C275 C274 1.385 1_655 S
C276 C274 1.478 . S
C276 C278 1.359 1_455 S
C276 C282 1.383 . S
C277 C273 1.495 . S
C277 H283 0.959 . S
C277 H284 0.961 . S
C277 H285 0.960 . S
C278 C276 1.359 1_655 S
C278 C279 1.395 . S
C278 H286 0.953 . S
C279 C278 1.395 . S
C279 C280 1.383 1_655 S
C279 H287 0.929 . S
C280 C279 1.383 1_455 S
C280 C281 1.377 . S
C281 H265 0.930 . S
C281 C280 1.377 . S
C281 C282 1.379 . S
C282 H266 0.931 . S
C282 C276 1.383 . S
C282 C281 1.379 . S
H283 C277 0.959 . S
H284 C277 0.961 . S
H285 C277 0.960 . S
H286 C278 0.953 . S
H287 C279 0.929 . S
H288 C296 0.929 . S
H289 C298 0.930 . S
H290 C300 0.930 . S
H291 C303 0.929 . S
H292 C306 0.930 . S
H293 C308 0.960 . S
H294 C308 0.960 . S
H295 C308 0.960 . S
C296 H288 0.929 . S
C296 C297 1.377 . S
C296 C298 1.384 . S
C297 C296 1.377 . S
C297 C303 1.390 . S
C298 H289 0.930 . S
C298 C296 1.384 . S
C298 C299 1.372 . S
C299 C298 1.372 . S
C299 C300 1.400 . S
C299 C304 1.490 . S
C300 H290 0.930 . S
C300 C299 1.400 . S
C300 C303 1.386 . S
H301 C317 0.930 . S
H302 C318 0.931 . S
C303 H291 0.929 . S
C303 C297 1.390 . S
C303 C300 1.386 . S
C304 C299 1.490 . S
C304 C306 1.395 . S
C304 C307 1.403 . S
H305 C311 0.930 . S
C306 H292 0.930 . S
C306 C304 1.395 . S
C306 C309 1.403 . S
C307 C304 1.403 . S
C307 C308 1.524 . S
C307 C311 1.400 . S
C308 H293 0.960 . S
C308 H294 0.960 . S
C308 H295 0.960 . S
C308 C307 1.524 . S
C309 C306 1.403 . S
C309 C310 1.392 . S
C309 C313 1.495 . S
C310 C309 1.392 . S
C310 C311 1.385 . S
C310 C312 1.478 . S
C311 H305 0.930 . S
C311 C307 1.400 . S
C311 C310 1.385 . S
C312 C310 1.478 . S
C312 C314 1.381 . S
C312 C318 1.383 . S
C313 C309 1.495 . S
C313 H319 0.959 . S
C313 H320 0.961 . S
C313 H321 0.960 . S
C314 C312 1.381 . S
C314 C315 1.394 . S
C314 H322 0.930 . S
C315 C314 1.394 . S
C315 C316 1.383 . S
C315 H323 0.929 . S
C316 C315 1.383 . S
C316 C317 1.377 . S
C317 H301 0.930 . S
C317 C316 1.377 . S
C317 C318 1.379 . S
C318 H302 0.931 . S
C318 C312 1.383 . S
C318 C317 1.379 . S
H319 C313 0.959 . S
H320 C313 0.961 . S
H321 C313 0.960 . S
H322 C314 0.930 . S
H323 C315 0.929 . S
H324 C332 0.929 . S
H325 C334 0.930 . S
H326 C336 0.930 . S
H327 C339 0.929 . S
H328 C342 0.930 . S
H329 C344 0.960 . S
H330 C344 0.960 . S
H331 C344 0.960 . S
C332 H324 0.929 . S
C332 C333 1.377 1_545 S
C332 C334 1.384 . S
C333 C332 1.377 1_565 S
C333 C339 1.390 . S
C334 H325 0.930 . S
C334 C332 1.384 . S
C334 C335 1.387 1_545 S
C335 C334 1.387 1_565 S
C335 C336 1.387 . S
C335 C340 1.489 1_565 S
C336 H326 0.930 . S
C336 C335 1.387 . S
C336 C339 1.386 . S
H337 C353 0.930 . S
H338 C354 0.931 . S
C339 H327 0.929 . S
C339 C333 1.390 . S
C339 C336 1.386 . S
C340 C335 1.489 1_545 S
C340 C342 1.418 . S
C340 C343 1.382 1_545 S
H341 C347 0.930 . S
C342 H328 0.930 . S
C342 C340 1.418 . S
C342 C345 1.403 . S
C343 C340 1.382 1_565 S
C343 C344 1.524 . S
C343 C347 1.400 . S
C344 H329 0.960 . S
C344 H330 0.960 . S
C344 H331 0.960 . S
C344 C343 1.524 . S
C345 C342 1.403 . S
C345 C346 1.392 . S
C345 C349 1.495 . S
C346 C345 1.392 . S
C346 C347 1.385 1_545 S
C346 C348 1.478 . S
C347 H341 0.930 . S
C347 C343 1.400 . S
C347 C346 1.385 1_565 S
C348 C346 1.478 . S
C348 C350 1.381 . S
C348 C354 1.383 . S
C349 C345 1.495 . S
C349 H355 0.959 . S
C349 H356 0.961 . S
C349 H357 0.960 . S
C350 C348 1.381 . S
C350 C351 1.394 . S
C350 H358 0.930 . S
C351 C350 1.394 . S
C351 C352 1.383 . S
C351 H359 0.929 . S
C352 C351 1.383 . S
C352 C353 1.377 . S
C353 H337 0.930 . S
C353 C352 1.377 . S
C353 C354 1.379 . S
C354 H338 0.931 . S
C354 C348 1.383 . S
C354 C353 1.379 . S
H355 C349 0.959 . S
H356 C349 0.961 . S
H357 C349 0.960 . S
H358 C350 0.930 . S
H359 C351 0.929 . S
H360 C368 0.929 . S
H361 C370 0.930 . S
H362 C372 0.930 . S
H363 C375 0.929 . S
H364 C378 0.930 . S
H365 C380 0.960 . S
H366 C380 0.960 . S
H367 C380 0.960 . S
C368 H360 0.929 . S
C368 C369 1.377 1_655 S
C368 C370 1.384 . S
C369 C368 1.377 1_455 S
C369 C375 1.390 . S
C370 H361 0.930 . S
C370 C368 1.384 . S
C370 C371 1.382 1_655 S
C371 C370 1.382 1_455 S
C371 C372 1.392 . S
C371 C376 1.490 . S
C372 H362 0.930 . S
C372 C371 1.392 . S
C372 C375 1.386 . S
H373 C389 0.930 . S
H374 C390 0.931 . S
C375 H363 0.929 . S
C375 C369 1.390 . S
C375 C372 1.386 . S
C376 C371 1.490 . S
C376 C378 1.432 . S
C376 C379 1.367 1_455 S
H377 C383 0.930 . S
C378 H364 0.930 . S
C378 C376 1.432 . S
C378 C381 1.403 . S
C379 C376 1.367 1_655 S
C379 C380 1.524 . S
C379 C383 1.400 . S
C380 H365 0.960 . S
C380 H366 0.960 . S
C380 H367 0.960 . S
C380 C379 1.524 . S
C381 C378 1.403 . S
C381 C382 1.392 . S
C381 C385 1.495 . S
C382 C381 1.392 . S
C382 C383 1.385 1_455 S
C382 C384 1.478 . S
C383 H377 0.930 . S
C383 C379 1.400 . S
C383 C382 1.385 1_655 S
C384 C382 1.478 . S
C384 C386 1.381 1_455 S
C384 C390 1.383 . S
C385 C381 1.495 . S
C385 H391 0.959 . S
C385 H392 0.961 . S
C385 H393 0.960 . S
C386 C384 1.381 1_655 S
C386 C387 1.394 . S
C386 H394 0.930 . S
C387 C386 1.394 . S
C387 C388 1.383 . S
C387 H395 0.929 . S
C388 C387 1.383 . S
C388 C389 1.377 1_655 S
C389 H373 0.930 . S
C389 C388 1.377 1_455 S
C389 C390 1.379 . S
C390 H374 0.931 . S
C390 C384 1.383 . S
C390 C389 1.379 . S
H391 C385 0.959 . S
H392 C385 0.961 . S
H393 C385 0.960 . S
H394 C386 0.930 . S
H395 C387 0.929 . S
H396 C404 0.929 . S
H397 C406 0.930 . S
H398 C408 0.930 . S
H399 C411 0.929 . S
H400 C414 0.930 . S
H401 C416 0.960 . S
H402 C416 0.960 . S
H403 C416 0.960 . S
C404 H396 0.929 . S
C404 C405 1.377 . S
C404 C406 1.384 . S
C405 C404 1.377 . S
C405 C411 1.390 . S
C406 H397 0.930 . S
C406 C404 1.384 . S
C406 C407 1.372 . S
C407 C406 1.372 . S
C407 C408 1.400 . S
C407 C412 1.490 . S
C408 H398 0.930 . S
C408 C407 1.400 . S
C408 C411 1.386 . S
H409 C425 0.930 . S
H410 C426 0.931 . S
C411 H399 0.929 . S
C411 C405 1.390 . S
C411 C408 1.386 . S
C412 C407 1.490 . S
C412 C414 1.395 . S
C412 C415 1.403 . S
H413 C419 0.930 . S
C414 H400 0.930 . S
C414 C412 1.395 . S
C414 C417 1.403 . S
C415 C412 1.403 . S
C415 C416 1.524 . S
C415 C419 1.400 . S
C416 H401 0.960 . S
C416 H402 0.960 . S
C416 H403 0.960 . S
C416 C415 1.524 . S
C417 C414 1.403 . S
C417 C418 1.392 . S
C417 C421 1.495 . S
C418 C417 1.392 . S
C418 C419 1.385 . S
C418 C420 1.478 . S
C419 H413 0.930 . S
C419 C415 1.400 . S
C419 C418 1.385 . S
C420 C418 1.478 . S
C420 C422 1.381 . S
C420 C426 1.383 . S
C421 C417 1.495 . S
C421 H427 0.959 . S
C421 H428 0.961 . S
C421 H429 0.960 . S
C422 C420 1.381 . S
C422 C423 1.394 . S
C422 H430 0.930 . S
C423 C422 1.394 . S
C423 C424 1.383 . S
C423 H431 0.929 . S
C424 C423 1.383 . S
C424 C425 1.377 . S
C425 H409 0.930 . S
C425 C424 1.377 . S
C425 C426 1.379 . S
C426 H410 0.931 . S
C426 C420 1.383 . S
C426 C425 1.379 . S
H427 C421 0.959 . S
H428 C421 0.961 . S
H429 C421 0.960 . S
H430 C422 0.930 . S
H431 C423 0.929 . S
H432 C440 0.929 . S
H433 C442 0.930 . S
H434 C444 0.920 . S
H435 C447 0.927 . S
H436 C450 0.930 . S
H437 C452 0.960 . S
H438 C452 0.960 . S
H439 C452 0.960 . S
C440 H432 0.929 . S
C440 C441 1.377 . S
C440 C442 1.384 . S
C441 C440 1.377 . S
C441 C447 1.392 1_545 S
C442 H433 0.930 . S
C442 C440 1.384 . S
C442 C443 1.372 . S
C443 C442 1.372 . S
C443 C444 1.411 1_545 S
C443 C448 1.490 . S
C444 H434 0.920 . S
C444 C443 1.411 1_565 S
C444 C447 1.385 . S
H445 C461 0.930 . S
H446 C462 0.931 . S
C447 H435 0.927 . S
C447 C441 1.392 1_565 S
C447 C444 1.385 . S
C448 C443 1.490 . S
C448 C450 1.395 1_545 S
C448 C451 1.403 . S
H449 C455 0.930 . S
C450 H436 0.930 . S
C450 C448 1.395 1_565 S
C450 C453 1.403 . S
C451 C448 1.403 . S
C451 C452 1.524 . S
C451 C455 1.400 . S
C452 H437 0.960 . S
C452 H438 0.960 . S
C452 H439 0.960 . S
C452 C451 1.524 . S
C453 C450 1.403 . S
C453 C454 1.392 . S
C453 C457 1.495 . S
C454 C453 1.392 . S
C454 C455 1.385 1_565 S
C454 C456 1.478 . S
C455 H449 0.930 . S
C455 C451 1.400 . S
C455 C454 1.385 1_545 S
C456 C454 1.478 . S
C456 C458 1.381 1_565 S
C456 C462 1.383 . S
C457 C453 1.495 . S
C457 H463 0.959 . S
C457 H464 0.961 . S
C457 H465 0.960 . S
C458 C456 1.381 1_545 S
C458 C459 1.394 . S
C458 H466 0.930 . S
C459 C458 1.394 . S
C459 C460 1.383 1_545 S
C459 H467 0.929 . S
C460 C459 1.383 1_565 S
C460 C461 1.377 . S
C461 H445 0.930 . S
C461 C460 1.377 . S
C461 C462 1.379 . S
C462 H446 0.931 . S
C462 C456 1.383 . S
C462 C461 1.379 . S
H463 C457 0.959 . S
H464 C457 0.961 . S
H465 C457 0.960 . S
H466 C458 0.930 . S
H467 C459 0.929 . S
H468 C476 0.929 . S
H469 C478 0.930 . S
H470 C480 0.930 . S
H471 C483 0.929 . S
H472 C486 0.930 . S
H473 C488 0.960 . S
H474 C488 0.960 . S
H475 C488 0.960 . S
C476 H468 0.929 . S
C476 C477 1.377 . S
C476 C478 1.384 . S
C477 C476 1.377 . S
C477 C483 1.390 . S
C478 H469 0.930 . S
C478 C476 1.384 . S
C478 C479 1.372 . S
C479 C478 1.372 . S
C479 C480 1.400 . S
C479 C484 1.490 . S
C480 H470 0.930 . S
C480 C479 1.400 . S
C480 C483 1.386 . S
H481 C497 0.930 . S
H482 C498 0.931 . S
C483 H471 0.929 . S
C483 C477 1.390 . S
C483 C480 1.386 . S
C484 C479 1.490 . S
C484 C486 1.395 . S
C484 C487 1.403 . S
H485 C491 0.930 . S
C486 H472 0.930 . S
C486 C484 1.395 . S
C486 C489 1.403 . S
C487 C484 1.403 . S
C487 C488 1.524 . S
C487 C491 1.400 . S
C488 H473 0.960 . S
C488 H474 0.960 . S
C488 H475 0.960 . S
C488 C487 1.524 . S
C489 C486 1.403 . S
C489 C490 1.392 . S
C489 C493 1.495 . S
C490 C489 1.392 . S
C490 C491 1.385 . S
C490 C492 1.478 . S
C491 H485 0.930 . S
C491 C487 1.400 . S
C491 C490 1.385 . S
C492 C490 1.478 . S
C492 C494 1.381 . S
C492 C498 1.383 . S
C493 C489 1.495 . S
C493 H499 0.959 . S
C493 H500 0.961 . S
C493 H501 0.960 . S
C494 C492 1.381 . S
C494 C495 1.394 . S
C494 H502 0.930 . S
C495 C494 1.394 . S
C495 C496 1.383 . S
C495 H503 0.929 . S
C496 C495 1.383 . S
C496 C497 1.377 . S
C497 H481 0.930 . S
C497 C496 1.377 . S
C497 C498 1.379 . S
C498 H482 0.931 . S
C498 C492 1.383 . S
C498 C497 1.379 . S
H499 C493 0.959 . S
H500 C493 0.961 . S
H501 C493 0.960 . S
H502 C494 0.930 . S
H503 C495 0.929 . S
H504 C512 0.929 . S
H505 C514 0.930 . S
H506 C516 0.930 . S
H507 C519 0.929 . S
H508 C522 0.930 . S
H509 C524 0.960 . S
H510 C524 0.960 . S
H511 C524 0.960 . S
C512 H504 0.929 . S
C512 C513 1.377 . S
C512 C514 1.384 . S
C513 C512 1.377 . S
C513 C519 1.390 . S
C514 H505 0.930 . S
C514 C512 1.384 . S
C514 C515 1.372 . S
C515 C514 1.372 . S
C515 C516 1.400 . S
C515 C520 1.490 . S
C516 H506 0.930 . S
C516 C515 1.400 . S
C516 C519 1.386 . S
H517 C533 0.930 . S
H518 C534 0.931 . S
C519 H507 0.929 . S
C519 C513 1.390 . S
C519 C516 1.386 . S
C520 C515 1.490 . S
C520 C522 1.395 . S
C520 C523 1.403 . S
H521 C527 0.930 . S
C522 H508 0.930 . S
C522 C520 1.395 . S
C522 C525 1.403 . S
C523 C520 1.403 . S
C523 C524 1.524 . S
C523 C527 1.400 . S
C524 H509 0.960 . S
C524 H510 0.960 . S
C524 H511 0.960 . S
C524 C523 1.524 . S
C525 C522 1.403 . S
C525 C526 1.392 . S
C525 C529 1.495 . S
C526 C525 1.392 . S
C526 C527 1.385 . S
C526 C528 1.478 . S
C527 H521 0.930 . S
C527 C523 1.400 . S
C527 C526 1.385 . S
C528 C526 1.478 . S
C528 C530 1.381 . S
C528 C534 1.383 . S
C529 C525 1.495 . S
C529 H535 0.959 . S
C529 H536 0.961 . S
C529 H537 0.960 . S
C530 C528 1.381 . S
C530 C531 1.394 . S
C530 H538 0.930 . S
C531 C530 1.394 . S
C531 C532 1.383 . S
C531 H539 0.929 . S
C532 C531 1.383 . S
C532 C533 1.377 . S
C533 H517 0.930 . S
C533 C532 1.377 . S
C533 C534 1.379 . S
C534 H518 0.931 . S
C534 C528 1.383 . S
C534 C533 1.379 . S
H535 C529 0.959 . S
H536 C529 0.961 . S
H537 C529 0.960 . S
H538 C530 0.930 . S
H539 C531 0.929 . S
H540 C548 0.929 . S
H541 C550 0.930 . S
H542 C552 0.930 . S
H543 C555 0.929 . S
H544 C558 0.930 . S
H545 C560 0.960 . S
H546 C560 0.960 . S
H547 C560 0.960 . S
C548 H540 0.929 . S
C548 C549 1.377 . S
C548 C550 1.384 . S
C549 C548 1.377 . S
C549 C555 1.390 . S
C550 H541 0.930 . S
C550 C548 1.384 . S
C550 C551 1.372 . S
C551 C550 1.372 . S
C551 C552 1.400 . S
C551 C556 1.490 . S
C552 H542 0.930 . S
C552 C551 1.400 . S
C552 C555 1.386 . S
H553 C569 0.930 . S
H554 C570 0.931 . S
C555 H543 0.929 . S
C555 C549 1.390 . S
C555 C552 1.386 . S
C556 C551 1.490 . S
C556 C558 1.395 . S
C556 C559 1.403 . S
H557 C563 0.930 . S
C558 H544 0.930 . S
C558 C556 1.395 . S
C558 C561 1.403 . S
C559 C556 1.403 . S
C559 C560 1.524 . S
C559 C563 1.400 . S
C560 H545 0.960 . S
C560 H546 0.960 . S
C560 H547 0.960 . S
C560 C559 1.524 . S
C561 C558 1.403 . S
C561 C562 1.392 . S
C561 C565 1.495 . S
C562 C561 1.392 . S
C562 C563 1.385 . S
C562 C564 1.478 . S
C563 H557 0.930 . S
C563 C559 1.400 . S
C563 C562 1.385 . S
C564 C562 1.478 . S
C564 C566 1.381 . S
C564 C570 1.383 . S
C565 C561 1.495 . S
C565 H571 0.959 . S
C565 H572 0.961 . S
C565 H573 0.960 . S
C566 C564 1.381 . S
C566 C567 1.394 . S
C566 H574 0.930 . S
C567 C566 1.394 . S
C567 C568 1.383 . S
C567 H575 0.929 . S
C568 C567 1.383 . S
C568 C569 1.377 . S
C569 H553 0.930 . S
C569 C568 1.377 . S
C569 C570 1.379 . S
C570 H554 0.931 . S
C570 C564 1.383 . S
C570 C569 1.379 . S
H571 C565 0.959 . S
H572 C565 0.961 . S
H573 C565 0.960 . S
H574 C566 0.930 . S
H575 C567 0.929 . S
H576 C584 0.929 . S
H577 C586 0.930 . S
H578 C588 0.930 . S
H579 C591 0.929 . S
H580 C594 0.930 . S
H581 C596 0.960 . S
H582 C596 0.960 . S
H583 C596 0.960 . S
C584 H576 0.929 . S
C584 C585 1.377 . S
C584 C586 1.384 . S
C585 C584 1.377 . S
C585 C591 1.390 . S
C586 H577 0.930 . S
C586 C584 1.384 . S
C586 C587 1.372 . S
C587 C586 1.372 . S
C587 C588 1.400 . S
C587 C592 1.490 . S
C588 H578 0.930 . S
C588 C587 1.400 . S
C588 C591 1.386 . S
H589 C605 0.930 . S
H590 C606 0.931 1_554 S
C591 H579 0.929 . S
C591 C585 1.390 . S
C591 C588 1.386 . S
C592 C587 1.490 . S
C592 C594 1.395 . S
C592 C595 1.403 . S
H593 C599 0.930 . S
C594 H580 0.930 . S
C594 C592 1.395 . S
C594 C597 1.403 . S
C595 C592 1.403 . S
C595 C596 1.524 . S
C595 C599 1.400 . S
C596 H581 0.960 . S
C596 H582 0.960 . S
C596 H583 0.960 . S
C596 C595 1.524 . S
C597 C594 1.403 . S
C597 C598 1.392 . S
C597 C601 1.495 . S
C598 C597 1.392 . S
C598 C599 1.385 . S
C598 C600 1.478 . S
C599 H593 0.930 . S
C599 C595 1.400 . S
C599 C598 1.385 . S
C600 C598 1.478 . S
C600 C602 1.381 1_554 S
C600 C606 1.383 1_554 S
C601 C597 1.495 . S
C601 H607 0.959 . S
C601 H608 0.961 . S
C601 H609 0.960 . S
C602 C600 1.381 1_556 S
C602 C603 1.394 . S
C602 H610 0.930 . S
C603 C602 1.394 . S
C603 C604 1.383 . S
C603 H611 0.929 . S
C604 C603 1.383 . S
C604 C605 1.377 . S
C605 H589 0.930 . S
C605 C604 1.377 . S
C605 C606 1.379 . S
C606 H590 0.931 1_556 S
C606 C600 1.383 1_556 S
C606 C605 1.379 . S
H607 C601 0.959 . S
H608 C601 0.961 . S
H609 C601 0.960 . S
H610 C602 0.930 . S
H611 C603 0.929 . S
H612 C620 0.929 . S
H613 C622 0.916 1_554 S
H614 C624 0.929 . S
H615 C627 0.929 . S
H616 C630 0.930 . S
H617 C632 0.960 . S
H618 C632 0.960 . S
H619 C632 0.960 . S
C620 H612 0.929 . S
C620 C621 1.377 . S
C620 C622 1.384 . S
C621 C620 1.377 . S
C621 C627 1.390 . S
C622 H613 0.916 1_556 S
C622 C620 1.384 . S
C622 C623 1.372 1_556 S
C623 C622 1.372 1_554 S
C623 C624 1.400 1_554 S
C623 C628 1.490 . S
C624 H614 0.929 . S
C624 C623 1.400 1_556 S
C624 C627 1.386 . S
H625 C641 0.930 . S
H626 C642 0.931 . S
C627 H615 0.929 . S
C627 C621 1.390 . S
C627 C624 1.386 . S
C628 C623 1.490 . S
C628 C630 1.395 . S
C628 C631 1.403 . S
H629 C635 0.930 . S
C630 H616 0.930 . S
C630 C628 1.395 . S
C630 C633 1.403 . S
C631 C628 1.403 . S
C631 C632 1.524 . S
C631 C635 1.400 . S
C632 H617 0.960 . S
C632 H618 0.960 . S
C632 H619 0.960 . S
C632 C631 1.524 . S
C633 C630 1.403 . S
C633 C634 1.392 . S
C633 C637 1.495 . S
C634 C633 1.392 . S
C634 C635 1.385 . S
C634 C636 1.478 . S
C635 H629 0.930 . S
C635 C631 1.400 . S
C635 C634 1.385 . S
C636 C634 1.478 . S
C636 C638 1.381 . S
C636 C642 1.383 . S
C637 C633 1.495 . S
C637 H643 0.959 . S
C637 H644 0.961 . S
C637 H645 0.960 . S
C638 C636 1.381 . S
C638 C639 1.394 . S
C638 H646 0.930 . S
C639 C638 1.394 . S
C639 C640 1.383 . S
C639 H647 0.929 . S
C640 C639 1.383 . S
C640 C641 1.377 . S
C641 H625 0.930 . S
C641 C640 1.377 . S
C641 C642 1.379 . S
C642 H626 0.931 . S
C642 C636 1.383 . S
C642 C641 1.379 . S
H643 C637 0.959 . S
H644 C637 0.961 . S
H645 C637 0.960 . S
H646 C638 0.930 . S
H647 C639 0.929 . S
H648 C656 0.929 . S
H649 C658 0.946 . S
H650 C660 0.930 1_554 S
H651 C663 0.929 . S
H652 C666 0.930 . S
H653 C668 0.960 . S
H654 C668 0.960 . S
H655 C668 0.960 . S
C656 H648 0.929 . S
C656 C657 1.377 . S
C656 C658 1.384 . S
C657 C656 1.377 . S
C657 C663 1.390 . S
C658 H649 0.946 . S
C658 C656 1.384 . S
C658 C659 1.372 1_556 S
C659 C658 1.372 1_554 S
C659 C660 1.400 1_554 S
C659 C664 1.490 . S
C660 H650 0.930 1_556 S
C660 C659 1.400 1_556 S
C660 C663 1.386 . S
H661 C677 0.930 . S
H662 C678 0.931 . S
C663 H651 0.929 . S
C663 C657 1.390 . S
C663 C660 1.386 . S
C664 C659 1.490 . S
C664 C666 1.395 . S
C664 C667 1.403 . S
H665 C671 0.930 . S
C666 H652 0.930 . S
C666 C664 1.395 . S
C666 C669 1.403 . S
C667 C664 1.403 . S
C667 C668 1.524 . S
C667 C671 1.400 . S
C668 H653 0.960 . S
C668 H654 0.960 . S
C668 H655 0.960 . S
C668 C667 1.524 . S
C669 C666 1.403 . S
C669 C670 1.392 . S
C669 C673 1.495 . S
C670 C669 1.392 . S
C670 C671 1.385 . S
C670 C672 1.478 . S
C671 H665 0.930 . S
C671 C667 1.400 . S
C671 C670 1.385 . S
C672 C670 1.478 . S
C672 C674 1.381 . S
C672 C678 1.383 . S
C673 C669 1.495 . S
C673 H679 0.959 . S
C673 H680 0.961 . S
C673 H681 0.960 . S
C674 C672 1.381 . S
C674 C675 1.394 . S
C674 H682 0.930 . S
C675 C674 1.394 . S
C675 C676 1.383 . S
C675 H683 0.929 . S
C676 C675 1.383 . S
C676 C677 1.377 . S
C677 H661 0.930 . S
C677 C676 1.377 . S
C677 C678 1.379 . S
C678 H662 0.931 . S
C678 C672 1.383 . S
C678 C677 1.379 . S
H679 C673 0.959 . S
H680 C673 0.961 . S
H681 C673 0.960 . S
H682 C674 0.930 . S
H683 C675 0.929 . S
H684 C692 0.929 . S
H685 C694 0.930 . S
H686 C696 0.930 1_556 S
H687 C699 0.929 . S
H688 C702 0.930 . S
H689 C704 0.960 . S
H690 C704 0.960 . S
H691 C704 0.960 . S
C692 H684 0.929 . S
C692 C693 1.377 . S
C692 C694 1.384 . S
C693 C692 1.377 . S
C693 C699 1.390 . S
C694 H685 0.930 . S
C694 C692 1.384 . S
C694 C695 1.372 1_554 S
C695 C694 1.372 1_556 S
C695 C696 1.400 1_556 S
C695 C700 1.490 . S
C696 H686 0.930 1_554 S
C696 C695 1.400 1_554 S
C696 C699 1.386 . S
H697 C713 0.930 . S
H698 C714 0.931 . S
C699 H687 0.929 . S
C699 C693 1.390 . S
C699 C696 1.386 . S
C700 C695 1.490 . S
C700 C702 1.395 . S
C700 C703 1.403 . S
H701 C707 0.930 . S
C702 H688 0.930 . S
C702 C700 1.395 . S
C702 C705 1.403 . S
C703 C700 1.403 . S
C703 C704 1.524 . S
C703 C707 1.400 . S
C704 H689 0.960 . S
C704 H690 0.960 . S
C704 H691 0.960 . S
C704 C703 1.524 . S
C705 C702 1.403 . S
C705 C706 1.392 . S
C705 C709 1.495 . S
C706 C705 1.392 . S
C706 C707 1.385 . S
C706 C708 1.478 . S
C707 H701 0.930 . S
C707 C703 1.400 . S
C707 C706 1.385 . S
C708 C706 1.478 . S
C708 C710 1.381 . S
C708 C714 1.383 . S
C709 C705 1.495 . S
C709 H715 0.959 . S
C709 H716 0.961 . S
C709 H717 0.960 . S
C710 C708 1.381 . S
C710 C711 1.394 . S
C710 H718 0.930 . S
C711 C710 1.394 . S
C711 C712 1.383 . S
C711 H719 0.929 . S
C712 C711 1.383 . S
C712 C713 1.377 . S
C713 H697 0.930 . S
C713 C712 1.377 . S
C713 C714 1.379 . S
C714 H698 0.931 . S
C714 C708 1.383 . S
C714 C713 1.379 . S
H715 C709 0.959 . S
H716 C709 0.961 . S
H717 C709 0.960 . S
H718 C710 0.930 . S
H719 C711 0.929 . S
H720 C728 0.929 . S
H721 C730 0.930 . S
H722 C732 0.930 . S
H723 C735 0.929 . S
H724 C738 0.930 . S
H725 C740 0.960 . S
H726 C740 0.960 . S
H727 C740 0.960 . S
C728 H720 0.929 . S
C728 C729 1.377 . S
C728 C730 1.384 . S
C729 C728 1.377 . S
C729 C735 1.390 . S
C730 H721 0.930 . S
C730 C728 1.384 . S
C730 C731 1.372 . S
C731 C730 1.372 . S
C731 C732 1.400 . S
C731 C736 1.490 . S
C732 H722 0.930 . S
C732 C731 1.400 . S
C732 C735 1.386 . S
H733 C749 0.930 . S
H734 C750 0.933 . S
C735 H723 0.929 . S
C735 C729 1.390 . S
C735 C732 1.386 . S
C736 C731 1.490 . S
C736 C738 1.395 . S
C736 C739 1.403 . S
H737 C743 0.930 . S
C738 H724 0.930 . S
C738 C736 1.395 . S
C738 C741 1.403 . S
C739 C736 1.403 . S
C739 C740 1.524 . S
C739 C743 1.400 . S
C740 H725 0.960 . S
C740 H726 0.960 . S
C740 H727 0.960 . S
C740 C739 1.524 . S
C741 C738 1.403 . S
C741 C742 1.392 . S
C741 C745 1.495 . S
C742 C741 1.392 . S
C742 C743 1.385 . S
C742 C744 1.478 . S
C743 H737 0.930 . S
C743 C739 1.400 . S
C743 C742 1.385 . S
C744 C742 1.478 . S
C744 C746 1.381 1_556 S
C744 C750 1.383 1_556 S
C745 C741 1.495 . S
C745 H751 0.959 . S
C745 H752 0.961 . S
C745 H753 0.960 . S
C746 C744 1.381 1_554 S
C746 C747 1.394 . S
C746 H754 0.930 . S
C747 C746 1.394 . S
C747 C748 1.383 . S
C747 H755 0.929 . S
C748 C747 1.383 . S
C748 C749 1.377 . S
C749 H733 0.930 . S
C749 C748 1.377 . S
C749 C750 1.379 . S
C750 H734 0.933 . S
C750 C744 1.383 1_554 S
C750 C749 1.379 . S
H751 C745 0.959 . S
H752 C745 0.961 . S
H753 C745 0.960 . S
H754 C746 0.930 . S
H755 C747 0.929 . S
H756 C764 0.929 . S
H757 C766 0.937 . S
H758 C768 0.947 . S
H759 C771 0.929 . S
H760 C774 0.930 . S
H761 C776 0.960 . S
H762 C776 0.960 . S
H763 C776 0.960 . S
C764 H756 0.929 . S
C764 C765 1.377 . S
C764 C766 1.384 . S
C765 C764 1.377 . S
C765 C771 1.390 . S
C766 H757 0.937 . S
C766 C764 1.384 . S
C766 C767 1.372 1_554 S
C767 C766 1.372 1_556 S
C767 C768 1.400 1_556 S
C767 C772 1.490 . S
C768 H758 0.947 . S
C768 C767 1.400 1_554 S
C768 C771 1.386 . S
H769 C785 0.930 . S
H770 C786 0.931 . S
C771 H759 0.929 . S
C771 C765 1.390 . S
C771 C768 1.386 . S
C772 C767 1.490 . S
C772 C774 1.395 . S
C772 C775 1.403 . S
H773 C779 0.930 . S
C774 H760 0.930 . S
C774 C772 1.395 . S
C774 C777 1.403 . S
C775 C772 1.403 . S
C775 C776 1.524 . S
C775 C779 1.400 . S
C776 H761 0.960 . S
C776 H762 0.960 . S
C776 H763 0.960 . S
C776 C775 1.524 . S
C777 C774 1.403 . S
C777 C778 1.392 . S
C777 C781 1.495 . S
C778 C777 1.392 . S
C778 C779 1.385 . S
C778 C780 1.478 . S
C779 H773 0.930 . S
C779 C775 1.400 . S
C779 C778 1.385 . S
C780 C778 1.478 . S
C780 C782 1.381 . S
C780 C786 1.383 . S
C781 C777 1.495 . S
C781 H787 0.959 . S
C781 H788 0.961 . S
C781 H789 0.960 . S
C782 C780 1.381 . S
C782 C783 1.394 . S
C782 H790 0.930 . S
C783 C782 1.394 . S
C783 C784 1.383 . S
C783 H791 0.929 . S
C784 C783 1.383 . S
C784 C785 1.377 . S
C785 H769 0.930 . S
C785 C784 1.377 . S
C785 C786 1.379 . S
C786 H770 0.931 . S
C786 C780 1.383 . S
C786 C785 1.379 . S
H787 C781 0.959 . S
H788 C781 0.961 . S
H789 C781 0.960 . S
H790 C782 0.930 . S
H791 C783 0.929 . S
H792 C800 0.929 . S
H793 C802 0.930 . S
H794 C804 0.930 . S
H795 C807 0.929 . S
H796 C810 0.930 . S
H797 C812 0.960 . S
H798 C812 0.960 . S
H799 C812 0.960 . S
C800 H792 0.929 . S
C800 C801 1.377 . S
C800 C802 1.384 . S
C801 C800 1.377 . S
C801 C807 1.390 . S
C802 H793 0.930 . S
C802 C800 1.384 . S
C802 C803 1.372 . S
C803 C802 1.372 . S
C803 C804 1.400 . S
C803 C808 1.490 . S
C804 H794 0.930 . S
C804 C803 1.400 . S
C804 C807 1.386 . S
H805 C821 0.930 . S
H806 C822 0.931 . S
C807 H795 0.929 . S
C807 C801 1.390 . S
C807 C804 1.386 . S
C808 C803 1.490 . S
C808 C810 1.395 . S
C808 C811 1.403 . S
H809 C815 0.930 . S
C810 H796 0.930 . S
C810 C808 1.395 . S
C810 C813 1.403 . S
C811 C808 1.403 . S
C811 C812 1.524 . S
C811 C815 1.400 . S
C812 H797 0.960 . S
C812 H798 0.960 . S
C812 H799 0.960 . S
C812 C811 1.524 . S
C813 C810 1.403 . S
C813 C814 1.392 . S
C813 C817 1.495 . S
C814 C813 1.392 . S
C814 C815 1.385 . S
C814 C816 1.478 . S
C815 H809 0.930 . S
C815 C811 1.400 . S
C815 C814 1.385 . S
C816 C814 1.478 . S
C816 C818 1.381 . S
C816 C822 1.383 . S
C817 C813 1.495 . S
C817 H823 0.959 . S
C817 H824 0.961 . S
C817 H825 0.960 . S
C818 C816 1.381 . S
C818 C819 1.394 . S
C818 H826 0.930 . S
C819 C818 1.394 . S
C819 C820 1.383 . S
C819 H827 0.929 . S
C820 C819 1.383 . S
C820 C821 1.377 . S
C821 H805 0.930 . S
C821 C820 1.377 . S
C821 C822 1.379 . S
C822 H806 0.931 . S
C822 C816 1.383 . S
C822 C821 1.379 . S
H823 C817 0.959 . S
H824 C817 0.961 . S
H825 C817 0.960 . S
H826 C818 0.930 . S
H827 C819 0.929 . S
H828 C836 0.929 . S
H829 C838 0.930 . S
H830 C840 0.930 . S
H831 C843 0.929 . S
H832 C846 0.930 . S
H833 C848 0.960 . S
H834 C848 0.960 . S
H835 C848 0.960 . S
C836 H828 0.929 . S
C836 C837 1.377 . S
C836 C838 1.384 . S
C837 C836 1.377 . S
C837 C843 1.390 . S
C838 H829 0.930 . S
C838 C836 1.384 . S
C838 C839 1.372 . S
C839 C838 1.372 . S
C839 C840 1.400 . S
C839 C844 1.490 . S
C840 H830 0.930 . S
C840 C839 1.400 . S
C840 C843 1.386 . S
H841 C857 0.930 . S
H842 C858 0.931 . S
C843 H831 0.929 . S
C843 C837 1.390 . S
C843 C840 1.386 . S
C844 C839 1.490 . S
C844 C846 1.395 . S
C844 C847 1.403 . S
H845 C851 0.930 . S
C846 H832 0.930 . S
C846 C844 1.395 . S
C846 C849 1.403 . S
C847 C844 1.403 . S
C847 C848 1.524 . S
C847 C851 1.400 . S
C848 H833 0.960 . S
C848 H834 0.960 . S
C848 H835 0.960 . S
C848 C847 1.524 . S
C849 C846 1.403 . S
C849 C850 1.392 . S
C849 C853 1.495 . S
C850 C849 1.392 . S
C850 C851 1.385 . S
C850 C852 1.478 . S
C851 H845 0.930 . S
C851 C847 1.400 . S
C851 C850 1.385 . S
C852 C850 1.478 . S
C852 C854 1.381 . S
C852 C858 1.383 . S
C853 C849 1.495 . S
C853 H859 0.959 . S
C853 H860 0.961 . S
C853 H861 0.960 . S
C854 C852 1.381 . S
C854 C855 1.394 . S
C854 H862 0.930 . S
C855 C854 1.394 . S
C855 C856 1.383 . S
C855 H863 0.929 . S
C856 C855 1.383 . S
C856 C857 1.377 . S
C857 H841 0.930 . S
C857 C856 1.377 . S
C857 C858 1.379 . S
C858 H842 0.931 . S
C858 C852 1.383 . S
C858 C857 1.379 . S
H859 C853 0.959 . S
H860 C853 0.961 . S
H861 C853 0.960 . S
H862 C854 0.930 . S
H863 C855 0.929 . S
H864 C872 0.929 . S
H865 C874 0.930 . S
H866 C876 0.930 . S
H867 C879 0.929 . S
H868 C882 0.930 . S
H869 C884 0.960 . S
H870 C884 0.960 . S
H871 C884 0.960 . S
C872 H864 0.929 . S
C872 C873 1.377 . S
C872 C874 1.384 . S
C873 C872 1.377 . S
C873 C879 1.390 . S
C874 H865 0.930 . S
C874 C872 1.384 . S
C874 C875 1.372 . S
C875 C874 1.372 . S
C875 C876 1.400 . S
C875 C880 1.490 . S
C876 H866 0.930 . S
C876 C875 1.400 . S
C876 C879 1.386 . S
H877 C893 0.930 . S
H878 C894 0.931 . S
C879 H867 0.929 . S
C879 C873 1.390 . S
C879 C876 1.386 . S
C880 C875 1.490 . S
C880 C882 1.395 . S
C880 C883 1.403 . S
H881 C887 0.930 . S
C882 H868 0.930 . S
C882 C880 1.395 . S
C882 C885 1.403 . S
C883 C880 1.403 . S
C883 C884 1.524 . S
C883 C887 1.400 . S
C884 H869 0.960 . S
C884 H870 0.960 . S
C884 H871 0.960 . S
C884 C883 1.524 . S
C885 C882 1.403 . S
C885 C886 1.392 . S
C885 C889 1.495 . S
C886 C885 1.392 . S
C886 C887 1.385 . S
C886 C888 1.478 . S
C887 H881 0.930 . S
C887 C883 1.400 . S
C887 C886 1.385 . S
C888 C886 1.478 . S
C888 C890 1.381 . S
C888 C894 1.383 . S
C889 C885 1.495 . S
C889 H895 0.959 . S
C889 H896 0.961 . S
C889 H897 0.960 . S
C890 C888 1.381 . S
C890 C891 1.394 . S
C890 H898 0.930 . S
C891 C890 1.394 . S
C891 C892 1.383 . S
C891 H899 0.929 . S
C892 C891 1.383 . S
C892 C893 1.377 . S
C893 H877 0.930 . S
C893 C892 1.377 . S
C893 C894 1.379 . S
C894 H878 0.931 . S
C894 C888 1.383 . S
C894 C893 1.379 . S
H895 C889 0.959 . S
H896 C889 0.961 . S
H897 C889 0.960 . S
H898 C890 0.930 . S
H899 C891 0.929 . S
H900 C908 0.929 . S
H901 C910 0.930 . S
H902 C912 0.930 . S
H903 C915 0.929 1_554 S
H904 C918 0.930 . S
H905 C920 0.960 . S
H906 C920 0.960 . S
H907 C920 0.960 1_554 S
C908 H900 0.929 . S
C908 C909 1.377 . S
C908 C910 1.384 . S
C909 C908 1.377 . S
C909 C915 1.390 . S
C910 H901 0.930 . S
C910 C908 1.384 . S
C910 C911 1.372 . S
C911 C910 1.372 . S
C911 C912 1.400 . S
C911 C916 1.490 . S
C912 H902 0.930 . S
C912 C911 1.400 . S
C912 C915 1.386 . S
H913 C929 0.930 . S
H914 C930 0.931 . S
C915 H903 0.929 1_556 S
C915 C909 1.390 . S
C915 C912 1.386 . S
C916 C911 1.490 . S
C916 C918 1.395 . S
C916 C919 1.403 . S
H917 C923 0.930 . S
C918 H904 0.930 . S
C918 C916 1.395 . S
C918 C921 1.403 . S
C919 C916 1.403 . S
C919 C920 1.524 . S
C919 C923 1.400 . S
C920 H905 0.960 . S
C920 H906 0.960 . S
C920 H907 0.960 1_556 S
C920 C919 1.524 . S
C921 C918 1.403 . S
C921 C922 1.392 . S
C921 C925 1.495 . S
C922 C921 1.392 . S
C922 C923 1.385 . S
C922 C924 1.478 . S
C923 H917 0.930 . S
C923 C919 1.400 . S
C923 C922 1.385 . S
C924 C922 1.478 . S
C924 C926 1.381 . S
C924 C930 1.383 . S
C925 C921 1.495 . S
C925 H931 0.959 . S
C925 H932 0.961 . S
C925 H933 0.960 . S
C926 C924 1.381 . S
C926 C927 1.394 . S
C926 H934 0.930 . S
C927 C926 1.394 . S
C927 C928 1.383 . S
C927 H935 0.929 . S
C928 C927 1.383 . S
C928 C929 1.377 . S
C929 H913 0.930 . S
C929 C928 1.377 . S
C929 C930 1.379 . S
C930 H914 0.931 . S
C930 C924 1.383 . S
C930 C929 1.379 . S
H931 C925 0.959 . S
H932 C925 0.961 . S
H933 C925 0.960 . S
H934 C926 0.930 . S
H935 C927 0.929 . S
H936 C944 0.929 . S
H937 C946 0.930 . S
H938 C948 0.930 . S
H939 C951 0.929 . S
H940 C954 0.930 . S
H941 C956 0.960 . S
H942 C956 0.960 . S
H943 C956 0.960 . S
C944 H936 0.929 . S
C944 C945 1.377 . S
C944 C946 1.384 . S
C945 C944 1.377 . S
C945 C951 1.390 . S
C946 H937 0.930 . S
C946 C944 1.384 . S
C946 C947 1.372 . S
C947 C946 1.372 . S
C947 C948 1.400 . S
C947 C952 1.490 . S
C948 H938 0.930 . S
C948 C947 1.400 . S
C948 C951 1.386 . S
H949 C965 0.930 . S
H950 C966 0.931 . S
C951 H939 0.929 . S
C951 C945 1.390 . S
C951 C948 1.386 . S
C952 C947 1.490 . S
C952 C954 1.395 . S
C952 C955 1.403 . S
H953 C959 0.930 . S
C954 H940 0.930 . S
C954 C952 1.395 . S
C954 C957 1.403 . S
C955 C952 1.403 . S
C955 C956 1.524 . S
C955 C959 1.400 . S
C956 H941 0.960 . S
C956 H942 0.960 . S
C956 H943 0.960 . S
C956 C955 1.524 . S
C957 C954 1.403 . S
C957 C958 1.392 . S
C957 C961 1.495 . S
C958 C957 1.392 . S
C958 C959 1.385 . S
C958 C960 1.478 . S
C959 H953 0.930 . S
C959 C955 1.400 . S
C959 C958 1.385 . S
C960 C958 1.478 . S
C960 C962 1.381 . S
C960 C966 1.383 . S
C961 C957 1.495 . S
C961 H967 0.959 1_556 S
C961 H968 0.961 . S
C961 H969 0.960 1_556 S
C962 C960 1.381 . S
C962 C963 1.394 . S
C962 H970 0.930 . S
C963 C962 1.394 . S
C963 C964 1.383 . S
C963 H971 0.929 1_556 S
C964 C963 1.383 . S
C964 C965 1.377 . S
C965 H949 0.930 . S
C965 C964 1.377 . S
C965 C966 1.379 . S
C966 H950 0.931 . S
C966 C960 1.383 . S
C966 C965 1.379 . S
H967 C961 0.959 1_554 S
H968 C961 0.961 . S
H969 C961 0.960 1_554 S
H970 C962 0.930 . S
H971 C963 0.929 1_554 S
H972 C980 0.929 . S
H973 C982 0.930 . S
H974 C984 0.930 . S
H975 C987 0.929 . S
H976 C990 0.930 . S
H977 C992 0.960 . S
H978 C992 0.960 . S
H979 C992 0.960 . S
C980 H972 0.929 . S
C980 C981 1.377 . S
C980 C982 1.384 . S
C981 C980 1.377 . S
C981 C987 1.390 . S
C982 H973 0.930 . S
C982 C980 1.384 . S
C982 C983 1.372 . S
C983 C982 1.372 . S
C983 C984 1.400 . S
C983 C988 1.490 . S
C984 H974 0.930 . S
C984 C983 1.400 . S
C984 C987 1.386 . S
H985 C1001 0.930 . S
H986 C1002 0.931 . S
C987 H975 0.929 . S
C987 C981 1.390 . S
C987 C984 1.386 . S
C988 C983 1.490 . S
C988 C990 1.395 . S
C988 C991 1.403 . S
H989 C995 0.930 . S
C990 H976 0.930 . S
C990 C988 1.395 . S
C990 C993 1.403 . S
C991 C988 1.403 . S
C991 C992 1.524 . S
C991 C995 1.400 . S
C992 H977 0.960 . S
C992 H978 0.960 . S
C992 H979 0.960 . S
C992 C991 1.524 . S
C993 C990 1.403 . S
C993 C994 1.392 . S
C993 C997 1.495 . S
C994 C993 1.392 . S
C994 C995 1.385 . S
C994 C996 1.478 . S
C995 H989 0.930 . S
C995 C991 1.400 . S
C995 C994 1.385 . S
C996 C994 1.478 . S
C996 C998 1.381 . S
C996 C1002 1.383 . S
C997 C993 1.495 . S
C997 H1003 0.959 . S
C997 H1004 0.961 . S
C997 H1005 0.960 . S
C998 C996 1.381 . S
C998 C999 1.394 . S
C998 H1006 0.930 . S
C999 C998 1.394 . S
C999 C1000 1.383 . S
C999 H1007 0.929 . S
C1000 C999 1.383 . S
C1000 C1001 1.377 . S
C1001 H985 0.930 . S
C1001 C1000 1.377 . S
C1001 C1002 1.379 . S
C1002 H986 0.931 . S
C1002 C996 1.383 . S
C1002 C1001 1.379 . S
H1003 C997 0.959 . S
H1004 C997 0.961 . S
H1005 C997 0.960 . S
H1006 C998 0.930 . S
H1007 C999 0.929 . S
H1008 C1016 0.929 . S
H1009 C1018 0.930 . S
H1010 C1020 0.930 . S
H1011 C1023 0.929 . S
H1012 C1026 0.930 . S
H1013 C1028 0.960 . S
H1014 C1028 0.960 . S
H1015 C1028 0.960 . S
C1016 H1008 0.929 . S
C1016 C1017 1.377 . S
C1016 C1018 1.384 . S
C1017 C1016 1.377 . S
C1017 C1023 1.390 . S
C1018 H1009 0.930 . S
C1018 C1016 1.384 . S
C1018 C1019 1.372 . S
C1019 C1018 1.372 . S
C1019 C1020 1.400 . S
C1019 C1024 1.490 . S
C1020 H1010 0.930 . S
C1020 C1019 1.400 . S
C1020 C1023 1.386 . S
H1021 C1037 0.930 . S
H1022 C1038 0.931 . S
C1023 H1011 0.929 . S
C1023 C1017 1.390 . S
C1023 C1020 1.386 . S
C1024 C1019 1.490 . S
C1024 C1026 1.395 . S
C1024 C1027 1.403 . S
H1025 C1031 0.930 . S
C1026 H1012 0.930 . S
C1026 C1024 1.395 . S
C1026 C1029 1.403 . S
C1027 C1024 1.403 . S
C1027 C1028 1.524 . S
C1027 C1031 1.400 . S
C1028 H1013 0.960 . S
C1028 H1014 0.960 . S
C1028 H1015 0.960 . S
C1028 C1027 1.524 . S
C1029 C1026 1.403 . S
C1029 C1030 1.392 . S
C1029 C1033 1.495 . S
C1030 C1029 1.392 . S
C1030 C1031 1.385 . S
C1030 C1032 1.478 . S
C1031 H1025 0.930 . S
C1031 C1027 1.400 . S
C1031 C1030 1.385 . S
C1032 C1030 1.478 . S
C1032 C1034 1.381 . S
C1032 C1038 1.383 . S
C1033 C1029 1.495 . S
C1033 H1039 0.959 . S
C1033 H1040 0.961 . S
C1033 H1041 0.960 . S
C1034 C1032 1.381 . S
C1034 C1035 1.394 . S
C1034 H1042 0.930 . S
C1035 C1034 1.394 . S
C1035 C1036 1.383 . S
C1035 H1043 0.929 . S
C1036 C1035 1.383 . S
C1036 C1037 1.377 . S
C1037 H1021 0.930 . S
C1037 C1036 1.377 . S
C1037 C1038 1.379 . S
C1038 H1022 0.931 . S
C1038 C1032 1.383 . S
C1038 C1037 1.379 . S
H1039 C1033 0.959 . S
H1040 C1033 0.961 . S
H1041 C1033 0.960 . S
H1042 C1034 0.930 . S
H1043 C1035 0.929 . S
H1044 C1052 0.929 . S
H1045 C1054 0.930 . S
H1046 C1056 0.930 . S
H1047 C1059 0.929 . S
H1048 C1062 0.930 . S
H1049 C1064 0.960 . S
H1050 C1064 0.960 . S
H1051 C1064 0.960 . S
C1052 H1044 0.929 . S
C1052 C1053 1.377 . S
C1052 C1054 1.384 . S
C1053 C1052 1.377 . S
C1053 C1059 1.390 . S
C1054 H1045 0.930 . S
C1054 C1052 1.384 . S
C1054 C1055 1.372 . S
C1055 C1054 1.372 . S
C1055 C1056 1.400 . S
C1055 C1060 1.490 . S
C1056 H1046 0.930 . S
C1056 C1055 1.400 . S
C1056 C1059 1.386 . S
H1057 C1073 0.930 . S
H1058 C1074 0.931 . S
C1059 H1047 0.929 . S
C1059 C1053 1.390 . S
C1059 C1056 1.386 . S
C1060 C1055 1.490 . S
C1060 C1062 1.395 . S
C1060 C1063 1.403 . S
H1061 C1067 0.930 . S
C1062 H1048 0.930 . S
C1062 C1060 1.395 . S
C1062 C1065 1.403 . S
C1063 C1060 1.403 . S
C1063 C1064 1.524 . S
C1063 C1067 1.400 . S
C1064 H1049 0.960 . S
C1064 H1050 0.960 . S
C1064 H1051 0.960 . S
C1064 C1063 1.524 . S
C1065 C1062 1.403 . S
C1065 C1066 1.392 . S
C1065 C1069 1.495 . S
C1066 C1065 1.392 . S
C1066 C1067 1.385 . S
C1066 C1068 1.478 . S
C1067 H1061 0.930 . S
C1067 C1063 1.400 . S
C1067 C1066 1.385 . S
C1068 C1066 1.478 . S
C1068 C1070 1.381 . S
C1068 C1074 1.383 . S
C1069 C1065 1.495 . S
C1069 H1075 0.959 . S
C1069 H1076 0.961 . S
C1069 H1077 0.960 . S
C1070 C1068 1.381 . S
C1070 C1071 1.394 . S
C1070 H1078 0.930 . S
C1071 C1070 1.394 . S
C1071 C1072 1.383 . S
C1071 H1079 0.929 . S
C1072 C1071 1.383 . S
C1072 C1073 1.377 . S
C1073 H1057 0.930 . S
C1073 C1072 1.377 . S
C1073 C1074 1.379 . S
C1074 H1058 0.931 . S
C1074 C1068 1.383 . S
C1074 C1073 1.379 . S
H1075 C1069 0.959 . S
H1076 C1069 0.961 . S
H1077 C1069 0.960 . S
H1078 C1070 0.930 . S
H1079 C1071 0.929 . S
H1080 C1088 0.929 . S
H1081 C1090 0.930 . S
H1082 C1092 0.930 . S
H1083 C1095 0.929 . S
H1084 C1098 0.930 . S
H1085 C1100 0.960 . S
H1086 C1100 0.960 . S
H1087 C1100 0.960 . S
C1088 H1080 0.929 . S
C1088 C1089 1.377 . S
C1088 C1090 1.384 . S
C1089 C1088 1.377 . S
C1089 C1095 1.390 . S
C1090 H1081 0.930 . S
C1090 C1088 1.384 . S
C1090 C1091 1.372 . S
C1091 C1090 1.372 . S
C1091 C1092 1.400 . S
C1091 C1096 1.490 . S
C1092 H1082 0.930 . S
C1092 C1091 1.400 . S
C1092 C1095 1.386 . S
H1093 C1109 0.930 . S
H1094 C1110 0.931 . S
C1095 H1083 0.929 . S
C1095 C1089 1.390 . S
C1095 C1092 1.386 . S
C1096 C1091 1.490 . S
C1096 C1098 1.395 . S
C1096 C1099 1.403 . S
H1097 C1103 0.930 . S
C1098 H1084 0.930 . S
C1098 C1096 1.395 . S
C1098 C1101 1.403 . S
C1099 C1096 1.403 . S
C1099 C1100 1.524 . S
C1099 C1103 1.400 . S
C1100 H1085 0.960 . S
C1100 H1086 0.960 . S
C1100 H1087 0.960 . S
C1100 C1099 1.524 . S
C1101 C1098 1.403 . S
C1101 C1102 1.392 . S
C1101 C1105 1.495 . S
C1102 C1101 1.392 . S
C1102 C1103 1.385 . S
C1102 C1104 1.478 . S
C1103 H1097 0.930 . S
C1103 C1099 1.400 . S
C1103 C1102 1.385 . S
C1104 C1102 1.478 . S
C1104 C1106 1.381 . S
C1104 C1110 1.383 . S
C1105 C1101 1.495 . S
C1105 H1111 0.959 . S
C1105 H1112 0.961 . S
C1105 H1113 0.960 . S
C1106 C1104 1.381 . S
C1106 C1107 1.394 . S
C1106 H1114 0.930 . S
C1107 C1106 1.394 . S
C1107 C1108 1.383 . S
C1107 H1115 0.929 . S
C1108 C1107 1.383 . S
C1108 C1109 1.377 . S
C1109 H1093 0.930 . S
C1109 C1108 1.377 . S
C1109 C1110 1.379 . S
C1110 H1094 0.931 . S
C1110 C1104 1.383 . S
C1110 C1109 1.379 . S
H1111 C1105 0.959 . S
H1112 C1105 0.961 . S
H1113 C1105 0.960 . S
H1114 C1106 0.930 . S
H1115 C1107 0.929 . S
H1116 C1124 0.929 . S
H1117 C1126 0.930 . S
H1118 C1128 0.930 . S
H1119 C1131 0.929 . S
H1120 C1134 0.930 . S
H1121 C1136 0.960 . S
H1122 C1136 0.960 . S
H1123 C1136 0.960 . S
C1124 H1116 0.929 . S
C1124 C1125 1.377 . S
C1124 C1126 1.384 . S
C1125 C1124 1.377 . S
C1125 C1131 1.390 . S
C1126 H1117 0.930 . S
C1126 C1124 1.384 . S
C1126 C1127 1.372 . S
C1127 C1126 1.372 . S
C1127 C1128 1.400 . S
C1127 C1132 1.490 . S
C1128 H1118 0.930 . S
C1128 C1127 1.400 . S
C1128 C1131 1.386 . S
H1129 C1145 0.930 . S
H1130 C1146 0.931 . S
C1131 H1119 0.929 . S
C1131 C1125 1.390 . S
C1131 C1128 1.386 . S
C1132 C1127 1.490 . S
C1132 C1134 1.395 . S
C1132 C1135 1.403 . S
H1133 C1139 0.930 . S
C1134 H1120 0.930 . S
C1134 C1132 1.395 . S
C1134 C1137 1.403 . S
C1135 C1132 1.403 . S
C1135 C1136 1.524 . S
C1135 C1139 1.400 . S
C1136 H1121 0.960 . S
C1136 H1122 0.960 . S
C1136 H1123 0.960 . S
C1136 C1135 1.524 . S
C1137 C1134 1.403 . S
C1137 C1138 1.392 . S
C1137 C1141 1.495 . S
C1138 C1137 1.392 . S
C1138 C1139 1.385 . S
C1138 C1140 1.478 . S
C1139 H1133 0.930 . S
C1139 C1135 1.400 . S
C1139 C1138 1.385 . S
C1140 C1138 1.478 . S
C1140 C1142 1.381 . S
C1140 C1146 1.383 . S
C1141 C1137 1.495 . S
C1141 H1147 0.959 . S
C1141 H1148 0.961 . S
C1141 H1149 0.960 . S
C1142 C1140 1.381 . S
C1142 C1143 1.394 . S
C1142 H1150 0.930 . S
C1143 C1142 1.394 . S
C1143 C1144 1.383 . S
C1143 H1151 0.929 . S
C1144 C1143 1.383 . S
C1144 C1145 1.377 . S
C1145 H1129 0.930 . S
C1145 C1144 1.377 . S
C1145 C1146 1.379 . S
C1146 H1130 0.931 . S
C1146 C1140 1.383 . S
C1146 C1145 1.379 . S
H1147 C1141 0.959 . S
H1148 C1141 0.961 . S
H1149 C1141 0.960 . S
H1150 C1142 0.930 . S
H1151 C1143 0.929 . S
H1152 C1160 0.929 . S
H1153 C1162 0.930 . S
H1154 C1164 0.930 . S
H1155 C1167 0.929 . S
H1156 C1170 0.930 . S
H1157 C1172 0.960 . S
H1158 C1172 0.960 . S
H1159 C1172 0.960 . S
C1160 H1152 0.929 . S
C1160 C1161 1.377 . S
C1160 C1162 1.384 . S
C1161 C1160 1.377 . S
C1161 C1167 1.390 . S
C1162 H1153 0.930 . S
C1162 C1160 1.384 . S
C1162 C1163 1.372 . S
C1163 C1162 1.372 . S
C1163 C1164 1.400 . S
C1163 C1168 1.490 . S
C1164 H1154 0.930 . S
C1164 C1163 1.400 . S
C1164 C1167 1.386 . S
H1165 C1181 0.930 1_556 S
H1166 C1182 0.931 . S
C1167 H1155 0.929 . S
C1167 C1161 1.390 . S
C1167 C1164 1.386 . S
C1168 C1163 1.490 . S
C1168 C1170 1.395 . S
C1168 C1171 1.403 . S
H1169 C1175 0.930 . S
C1170 H1156 0.930 . S
C1170 C1168 1.395 . S
C1170 C1173 1.403 . S
C1171 C1168 1.403 . S
C1171 C1172 1.524 . S
C1171 C1175 1.400 . S
C1172 H1157 0.960 . S
C1172 H1158 0.960 . S
C1172 H1159 0.960 . S
C1172 C1171 1.524 . S
C1173 C1170 1.403 . S
C1173 C1174 1.392 . S
C1173 C1177 1.495 . S
C1174 C1173 1.392 . S
C1174 C1175 1.385 . S
C1174 C1176 1.478 . S
C1175 H1169 0.930 . S
C1175 C1171 1.400 . S
C1175 C1174 1.385 . S
C1176 C1174 1.478 . S
C1176 C1178 1.381 . S
C1176 C1182 1.383 . S
C1177 C1173 1.495 . S
C1177 H1183 0.959 . S
C1177 H1184 0.961 . S
C1177 H1185 0.960 . S
C1178 C1176 1.381 . S
C1178 C1179 1.394 . S
C1178 H1186 0.930 . S
C1179 C1178 1.394 . S
C1179 C1180 1.383 . S
C1179 H1187 0.929 . S
C1180 C1179 1.383 . S
C1180 C1181 1.377 . S
C1181 H1165 0.930 1_554 S
C1181 C1180 1.377 . S
C1181 C1182 1.379 . S
C1182 H1166 0.931 . S
C1182 C1176 1.383 . S
C1182 C1181 1.379 . S
H1183 C1177 0.959 . S
H1184 C1177 0.961 . S
H1185 C1177 0.960 . S
H1186 C1178 0.930 . S
H1187 C1179 0.929 . S
H1188 C1196 0.929 . S
H1189 C1198 0.930 . S
H1190 C1200 0.930 . S
H1191 C1203 0.929 . S
H1192 C1206 0.930 . S
H1193 C1208 0.960 . S
H1194 C1208 0.960 . S
H1195 C1208 0.960 . S
C1196 H1188 0.929 . S
C1196 C1197 1.377 . S
C1196 C1198 1.384 . S
C1197 C1196 1.377 . S
C1197 C1203 1.390 . S
C1198 H1189 0.930 . S
C1198 C1196 1.384 . S
C1198 C1199 1.372 . S
C1199 C1198 1.372 . S
C1199 C1200 1.400 . S
C1199 C1204 1.490 . S
C1200 H1190 0.930 . S
C1200 C1199 1.400 . S
C1200 C1203 1.386 . S
H1201 C1217 0.930 1_556 S
H1202 C1218 0.931 . S
C1203 H1191 0.929 . S
C1203 C1197 1.390 . S
C1203 C1200 1.386 . S
C1204 C1199 1.490 . S
C1204 C1206 1.395 . S
C1204 C1207 1.403 . S
H1205 C1211 0.930 . S
C1206 H1192 0.930 . S
C1206 C1204 1.395 . S
C1206 C1209 1.403 . S
C1207 C1204 1.403 . S
C1207 C1208 1.524 . S
C1207 C1211 1.400 . S
C1208 H1193 0.960 . S
C1208 H1194 0.960 . S
C1208 H1195 0.960 . S
C1208 C1207 1.524 . S
C1209 C1206 1.403 . S
C1209 C1210 1.392 . S
C1209 C1213 1.495 . S
C1210 C1209 1.392 . S
C1210 C1211 1.385 . S
C1210 C1212 1.478 . S
C1211 H1205 0.930 . S
C1211 C1207 1.400 . S
C1211 C1210 1.385 . S
C1212 C1210 1.478 . S
C1212 C1214 1.381 . S
C1212 C1218 1.383 . S
C1213 C1209 1.495 . S
C1213 H1219 0.959 . S
C1213 H1220 0.961 . S
C1213 H1221 0.960 . S
C1214 C1212 1.381 . S
C1214 C1215 1.394 . S
C1214 H1222 0.930 . S
C1215 C1214 1.394 . S
C1215 C1216 1.383 . S
C1215 H1223 0.929 . S
C1216 C1215 1.383 . S
C1216 C1217 1.377 . S
C1217 H1201 0.930 1_554 S
C1217 C1216 1.377 . S
C1217 C1218 1.379 . S
C1218 H1202 0.931 . S
C1218 C1212 1.383 . S
C1218 C1217 1.379 . S
H1219 C1213 0.959 . S
H1220 C1213 0.961 . S
H1221 C1213 0.960 . S
H1222 C1214 0.930 . S
H1223 C1215 0.929 . S
H1224 C1232 0.929 . S
H1225 C1234 0.930 . S
H1226 C1236 0.930 . S
H1227 C1239 0.929 . S
H1228 C1242 0.930 . S
H1229 C1244 0.960 . S
H1230 C1244 0.960 . S
H1231 C1244 0.960 . S
C1232 H1224 0.929 . S
C1232 C1233 1.377 . S
C1232 C1234 1.384 . S
C1233 C1232 1.377 . S
C1233 C1239 1.390 . S
C1234 H1225 0.930 . S
C1234 C1232 1.384 . S
C1234 C1235 1.372 . S
C1235 C1234 1.372 . S
C1235 C1236 1.400 . S
C1235 C1240 1.490 . S
C1236 H1226 0.930 . S
C1236 C1235 1.400 . S
C1236 C1239 1.386 . S
H1237 C1253 0.930 . S
H1238 C1254 0.931 . S
C1239 H1227 0.929 . S
C1239 C1233 1.390 . S
C1239 C1236 1.386 . S
C1240 C1235 1.490 . S
C1240 C1242 1.395 . S
C1240 C1243 1.403 . S
H1241 C1247 0.930 . S
C1242 H1228 0.930 . S
C1242 C1240 1.395 . S
C1242 C1245 1.403 . S
C1243 C1240 1.403 . S
C1243 C1244 1.524 . S
C1243 C1247 1.400 . S
C1244 H1229 0.960 . S
C1244 H1230 0.960 . S
C1244 H1231 0.960 . S
C1244 C1243 1.524 . S
C1245 C1242 1.403 . S
C1245 C1246 1.392 . S
C1245 C1249 1.495 . S
C1246 C1245 1.392 . S
C1246 C1247 1.385 . S
C1246 C1248 1.478 . S
C1247 H1241 0.930 . S
C1247 C1243 1.400 . S
C1247 C1246 1.385 . S
C1248 C1246 1.478 . S
C1248 C1250 1.381 . S
C1248 C1254 1.383 . S
C1249 C1245 1.495 . S
C1249 H1255 0.959 . S
C1249 H1256 0.961 . S
C1249 H1257 0.960 . S
C1250 C1248 1.381 . S
C1250 C1251 1.394 . S
C1250 H1258 0.930 . S
C1251 C1250 1.394 . S
C1251 C1252 1.383 . S
C1251 H1259 0.929 . S
C1252 C1251 1.383 . S
C1252 C1253 1.377 . S
C1253 H1237 0.930 . S
C1253 C1252 1.377 . S
C1253 C1254 1.379 . S
C1254 H1238 0.931 . S
C1254 C1248 1.383 . S
C1254 C1253 1.379 . S
H1255 C1249 0.959 . S
H1256 C1249 0.961 . S
H1257 C1249 0.960 . S
H1258 C1250 0.930 . S
H1259 C1251 0.929 . S
H1260 C1268 0.929 . S
H1261 C1270 0.930 . S
H1262 C1272 0.930 . S
H1263 C1275 0.929 . S
H1264 C1278 0.930 . S
H1265 C1280 0.960 . S
H1266 C1280 0.960 . S
H1267 C1280 0.960 . S
C1268 H1260 0.929 . S
C1268 C1269 1.377 . S
C1268 C1270 1.384 . S
C1269 C1268 1.377 . S
C1269 C1275 1.390 . S
C1270 H1261 0.930 . S
C1270 C1268 1.384 . S
C1270 C1271 1.372 . S
C1271 C1270 1.372 . S
C1271 C1272 1.400 . S
C1271 C1276 1.490 . S
C1272 H1262 0.930 . S
C1272 C1271 1.400 . S
C1272 C1275 1.386 . S
H1273 C1289 0.930 . S
H1274 C1290 0.931 . S
C1275 H1263 0.929 . S
C1275 C1269 1.390 . S
C1275 C1272 1.386 . S
C1276 C1271 1.490 . S
C1276 C1278 1.395 . S
C1276 C1279 1.403 . S
H1277 C1283 0.930 . S
C1278 H1264 0.930 . S
C1278 C1276 1.395 . S
C1278 C1281 1.403 . S
C1279 C1276 1.403 . S
C1279 C1280 1.524 . S
C1279 C1283 1.400 . S
C1280 H1265 0.960 . S
C1280 H1266 0.960 . S
C1280 H1267 0.960 . S
C1280 C1279 1.524 . S
C1281 C1278 1.403 . S
C1281 C1282 1.392 . S
C1281 C1285 1.495 . S
C1282 C1281 1.392 . S
C1282 C1283 1.385 . S
C1282 C1284 1.478 . S
C1283 H1277 0.930 . S
C1283 C1279 1.400 . S
C1283 C1282 1.385 . S
C1284 C1282 1.478 . S
C1284 C1286 1.381 . S
C1284 C1290 1.383 . S
C1285 C1281 1.495 . S
C1285 H1291 0.959 . S
C1285 H1292 0.961 . S
C1285 H1293 0.960 . S
C1286 C1284 1.381 . S
C1286 C1287 1.394 . S
C1286 H1294 0.930 . S
C1287 C1286 1.394 . S
C1287 C1288 1.383 . S
C1287 H1295 0.929 . S
C1288 C1287 1.383 . S
C1288 C1289 1.377 . S
C1289 H1273 0.930 . S
C1289 C1288 1.377 . S
C1289 C1290 1.379 . S
C1290 H1274 0.931 . S
C1290 C1284 1.383 . S
C1290 C1289 1.379 . S
H1291 C1285 0.959 . S
H1292 C1285 0.961 . S
H1293 C1285 0.960 . S
H1294 C1286 0.930 . S
H1295 C1287 0.929 . S
H1296 C1304 0.929 . S
H1297 C1306 0.930 . S
H1298 C1308 0.930 . S
H1299 C1311 0.929 . S
H1300 C1314 0.930 . S
H1301 C1316 0.960 . S
H1302 C1316 0.960 . S
H1303 C1316 0.960 . S
C1304 H1296 0.929 . S
C1304 C1305 1.377 . S
C1304 C1306 1.384 . S
C1305 C1304 1.377 . S
C1305 C1311 1.390 . S
C1306 H1297 0.930 . S
C1306 C1304 1.384 . S
C1306 C1307 1.372 . S
C1307 C1306 1.372 . S
C1307 C1308 1.400 . S
C1307 C1312 1.490 . S
C1308 H1298 0.930 . S
C1308 C1307 1.400 . S
C1308 C1311 1.386 . S
H1309 C1325 0.930 . S
H1310 C1326 0.931 . S
C1311 H1299 0.929 . S
C1311 C1305 1.390 . S
C1311 C1308 1.386 . S
C1312 C1307 1.490 . S
C1312 C1314 1.395 . S
C1312 C1315 1.403 . S
H1313 C1319 0.930 . S
C1314 H1300 0.930 . S
C1314 C1312 1.395 . S
C1314 C1317 1.403 . S
C1315 C1312 1.403 . S
C1315 C1316 1.524 . S
C1315 C1319 1.400 . S
C1316 H1301 0.960 . S
C1316 H1302 0.960 . S
C1316 H1303 0.960 . S
C1316 C1315 1.524 . S
C1317 C1314 1.403 . S
C1317 C1318 1.392 . S
C1317 C1321 1.495 . S
C1318 C1317 1.392 . S
C1318 C1319 1.385 . S
C1318 C1320 1.478 . S
C1319 H1313 0.930 . S
C1319 C1315 1.400 . S
C1319 C1318 1.385 . S
C1320 C1318 1.478 . S
C1320 C1322 1.381 . S
C1320 C1326 1.383 . S
C1321 C1317 1.495 . S
C1321 H1327 0.959 . S
C1321 H1328 0.961 . S
C1321 H1329 0.960 . S
C1322 C1320 1.381 . S
C1322 C1323 1.394 . S
C1322 H1330 0.930 . S
C1323 C1322 1.394 . S
C1323 C1324 1.383 . S
C1323 H1331 0.929 . S
C1324 C1323 1.383 . S
C1324 C1325 1.377 . S
C1325 H1309 0.930 . S
C1325 C1324 1.377 . S
C1325 C1326 1.379 . S
C1326 H1310 0.931 . S
C1326 C1320 1.383 . S
C1326 C1325 1.379 . S
H1327 C1321 0.959 . S
H1328 C1321 0.961 . S
H1329 C1321 0.960 . S
H1330 C1322 0.930 . S
H1331 C1323 0.929 . S
H1332 C1340 0.929 . S
H1333 C1342 0.930 . S
H1334 C1344 0.930 . S
H1335 C1347 0.929 . S
H1336 C1350 0.930 . S
H1337 C1352 0.960 . S
H1338 C1352 0.960 . S
H1339 C1352 0.960 . S
C1340 H1332 0.929 . S
C1340 C1341 1.377 . S
C1340 C1342 1.384 . S
C1341 C1340 1.377 . S
C1341 C1347 1.390 . S
C1342 H1333 0.930 . S
C1342 C1340 1.384 . S
C1342 C1343 1.372 . S
C1343 C1342 1.372 . S
C1343 C1344 1.400 . S
C1343 C1348 1.490 . S
C1344 H1334 0.930 . S
C1344 C1343 1.400 . S
C1344 C1347 1.386 . S
H1345 C1361 0.930 . S
H1346 C1362 0.931 . S
C1347 H1335 0.929 . S
C1347 C1341 1.390 . S
C1347 C1344 1.386 . S
C1348 C1343 1.490 . S
C1348 C1350 1.395 . S
C1348 C1351 1.403 . S
H1349 C1355 0.930 . S
C1350 H1336 0.930 . S
C1350 C1348 1.395 . S
C1350 C1353 1.403 . S
C1351 C1348 1.403 . S
C1351 C1352 1.524 . S
C1351 C1355 1.400 . S
C1352 H1337 0.960 . S
C1352 H1338 0.960 . S
C1352 H1339 0.960 . S
C1352 C1351 1.524 . S
C1353 C1350 1.403 . S
C1353 C1354 1.392 . S
C1353 C1357 1.495 . S
C1354 C1353 1.392 . S
C1354 C1355 1.385 . S
C1354 C1356 1.478 . S
C1355 H1349 0.930 . S
C1355 C1351 1.400 . S
C1355 C1354 1.385 . S
C1356 C1354 1.478 . S
C1356 C1358 1.381 . S
C1356 C1362 1.383 . S
C1357 C1353 1.495 . S
C1357 H1363 0.959 . S
C1357 H1364 0.961 . S
C1357 H1365 0.960 . S
C1358 C1356 1.381 . S
C1358 C1359 1.394 . S
C1358 H1366 0.930 . S
C1359 C1358 1.394 . S
C1359 C1360 1.383 . S
C1359 H1367 0.929 . S
C1360 C1359 1.383 . S
C1360 C1361 1.377 . S
C1361 H1345 0.930 . S
C1361 C1360 1.377 . S
C1361 C1362 1.379 . S
C1362 H1346 0.931 . S
C1362 C1356 1.383 . S
C1362 C1361 1.379 . S
H1363 C1357 0.959 . S
H1364 C1357 0.961 . S
H1365 C1357 0.960 . S
H1366 C1358 0.930 . S
H1367 C1359 0.929 . S
H1368 C1376 0.929 . S
H1369 C1378 0.930 . S
H1370 C1380 0.930 . S
H1371 C1383 0.929 . S
H1372 C1386 0.930 . S
H1373 C1388 0.960 1_565 S
H1374 C1388 0.960 . S
H1375 C1388 0.960 . S
C1376 H1368 0.929 . S
C1376 C1377 1.377 . S
C1376 C1378 1.384 . S
C1377 C1376 1.377 . S
C1377 C1383 1.390 . S
C1378 H1369 0.930 . S
C1378 C1376 1.384 . S
C1378 C1379 1.372 . S
C1379 C1378 1.372 . S
C1379 C1380 1.400 . S
C1379 C1384 1.490 . S
C1380 H1370 0.930 . S
C1380 C1379 1.400 . S
C1380 C1383 1.386 . S
H1381 C1397 0.930 . S
H1382 C1398 0.931 . S
C1383 H1371 0.929 . S
C1383 C1377 1.390 . S
C1383 C1380 1.386 . S
C1384 C1379 1.490 . S
C1384 C1386 1.395 . S
C1384 C1387 1.403 . S
H1385 C1391 0.930 . S
C1386 H1372 0.930 . S
C1386 C1384 1.395 . S
C1386 C1389 1.403 1_545 S
C1387 C1384 1.403 . S
C1387 C1388 1.524 . S
C1387 C1391 1.400 1_545 S
C1388 H1373 0.960 1_545 S
C1388 H1374 0.960 . S
C1388 H1375 0.960 . S
C1388 C1387 1.524 . S
C1389 C1386 1.403 1_565 S
C1389 C1390 1.392 . S
C1389 C1393 1.495 . S
C1390 C1389 1.392 . S
C1390 C1391 1.385 . S
C1390 C1392 1.478 . S
C1391 H1385 0.930 . S
C1391 C1387 1.400 1_565 S
C1391 C1390 1.385 . S
C1392 C1390 1.478 . S
C1392 C1394 1.381 . S
C1392 C1398 1.383 . S
C1393 C1389 1.495 . S
C1393 H1399 0.959 1_565 S
C1393 H1400 0.961 . S
C1393 H1401 0.960 . S
C1394 C1392 1.381 . S
C1394 C1395 1.394 . S
C1394 H1402 0.930 . S
C1395 C1394 1.394 . S
C1395 C1396 1.383 . S
C1395 H1403 0.929 . S
C1396 C1395 1.383 . S
C1396 C1397 1.377 . S
C1397 H1381 0.930 . S
C1397 C1396 1.377 . S
C1397 C1398 1.379 . S
C1398 H1382 0.931 . S
C1398 C1392 1.383 . S
C1398 C1397 1.379 . S
H1399 C1393 0.959 1_545 S
H1400 C1393 0.961 . S
H1401 C1393 0.960 . S
H1402 C1394 0.930 . S
H1403 C1395 0.929 . S
H1404 C1412 0.929 . S
H1405 C1414 0.930 . S
H1406 C1416 0.930 . S
H1407 C1419 0.929 . S
H1408 C1422 0.930 . S
H1409 C1424 0.960 . S
H1410 C1424 0.960 . S
H1411 C1424 0.960 . S
C1412 H1404 0.929 . S
C1412 C1413 1.377 . S
C1412 C1414 1.384 . S
C1413 C1412 1.377 . S
C1413 C1419 1.390 . S
C1414 H1405 0.930 . S
C1414 C1412 1.384 . S
C1414 C1415 1.372 . S
C1415 C1414 1.372 . S
C1415 C1416 1.400 . S
C1415 C1420 1.490 . S
C1416 H1406 0.930 . S
C1416 C1415 1.400 . S
C1416 C1419 1.386 . S
H1417 C1433 0.930 . S
H1418 C1434 0.931 . S
C1419 H1407 0.929 . S
C1419 C1413 1.390 . S
C1419 C1416 1.386 . S
C1420 C1415 1.490 . S
C1420 C1422 1.395 . S
C1420 C1423 1.403 . S
H1421 C1427 0.930 . S
C1422 H1408 0.930 . S
C1422 C1420 1.395 . S
C1422 C1425 1.403 1_455 S
C1423 C1420 1.403 . S
C1423 C1424 1.524 . S
C1423 C1427 1.400 1_455 S
C1424 H1409 0.960 . S
C1424 H1410 0.960 . S
C1424 H1411 0.960 . S
C1424 C1423 1.524 . S
C1425 C1422 1.403 1_655 S
C1425 C1426 1.392 . S
C1425 C1429 1.495 . S
C1426 C1425 1.392 . S
C1426 C1427 1.385 . S
C1426 C1428 1.478 . S
C1427 H1421 0.930 . S
C1427 C1423 1.400 1_655 S
C1427 C1426 1.385 . S
C1428 C1426 1.478 . S
C1428 C1430 1.381 . S
C1428 C1434 1.383 . S
C1429 C1425 1.495 . S
C1429 H1435 0.959 . S
C1429 H1436 0.961 . S
C1429 H1437 0.960 . S
C1430 C1428 1.381 . S
C1430 C1431 1.394 . S
C1430 H1438 0.930 . S
C1431 C1430 1.394 . S
C1431 C1432 1.383 . S
C1431 H1439 0.929 . S
C1432 C1431 1.383 . S
C1432 C1433 1.377 . S
C1433 H1417 0.930 . S
C1433 C1432 1.377 . S
C1433 C1434 1.379 . S
C1434 H1418 0.931 . S
C1434 C1428 1.383 . S
C1434 C1433 1.379 . S
H1435 C1429 0.959 . S
H1436 C1429 0.961 . S
H1437 C1429 0.960 . S
H1438 C1430 0.930 . S
H1439 C1431 0.929 . S
H1440 C1448 0.929 . S
H1441 C1450 0.930 . S
H1442 C1452 0.930 . S
H1443 C1455 0.929 . S
H1444 C1458 0.930 . S
H1445 C1460 0.960 . S
H1446 C1460 0.960 . S
H1447 C1460 0.960 . S
C1448 H1440 0.929 . S
C1448 C1449 1.377 . S
C1448 C1450 1.384 . S
C1449 C1448 1.377 . S
C1449 C1455 1.390 . S
C1450 H1441 0.930 . S
C1450 C1448 1.384 . S
C1450 C1451 1.372 . S
C1451 C1450 1.372 . S
C1451 C1452 1.400 . S
C1451 C1456 1.490 . S
C1452 H1442 0.930 . S
C1452 C1451 1.400 . S
C1452 C1455 1.386 . S
H1453 C1469 0.930 . S
H1454 C1470 0.931 . S
C1455 H1443 0.929 . S
C1455 C1449 1.390 . S
C1455 C1452 1.386 . S
C1456 C1451 1.490 . S
C1456 C1458 1.395 . S
C1456 C1459 1.403 . S
H1457 C1463 0.930 . S
C1458 H1444 0.930 . S
C1458 C1456 1.395 . S
C1458 C1461 1.403 . S
C1459 C1456 1.403 . S
C1459 C1460 1.524 . S
C1459 C1463 1.400 . S
C1460 H1445 0.960 . S
C1460 H1446 0.960 . S
C1460 H1447 0.960 . S
C1460 C1459 1.524 . S
C1461 C1458 1.403 . S
C1461 C1462 1.392 . S
C1461 C1465 1.495 . S
C1462 C1461 1.392 . S
C1462 C1463 1.385 . S
C1462 C1464 1.478 . S
C1463 H1457 0.930 . S
C1463 C1459 1.400 . S
C1463 C1462 1.385 . S
C1464 C1462 1.478 . S
C1464 C1466 1.381 . S
C1464 C1470 1.383 . S
C1465 C1461 1.495 . S
C1465 H1471 0.959 . S
C1465 H1472 0.961 . S
C1465 H1473 0.960 . S
C1466 C1464 1.381 . S
C1466 C1467 1.394 . S
C1466 H1474 0.930 . S
C1467 C1466 1.394 . S
C1467 C1468 1.383 . S
C1467 H1475 0.929 . S
C1468 C1467 1.383 . S
C1468 C1469 1.377 . S
C1469 H1453 0.930 . S
C1469 C1468 1.377 . S
C1469 C1470 1.379 . S
C1470 H1454 0.931 . S
C1470 C1464 1.383 . S
C1470 C1469 1.379 . S
H1471 C1465 0.959 . S
H1472 C1465 0.961 . S
H1473 C1465 0.960 . S
H1474 C1466 0.930 . S
H1475 C1467 0.929 . S
H1476 C1484 0.929 . S
H1477 C1486 0.930 . S
H1478 C1488 0.930 . S
H1479 C1491 0.929 . S
H1480 C1494 0.930 . S
H1481 C1496 0.960 . S
H1482 C1496 0.960 . S
H1483 C1496 0.960 . S
C1484 H1476 0.929 . S
C1484 C1485 1.377 . S
C1484 C1486 1.384 . S
C1485 C1484 1.377 . S
C1485 C1491 1.390 . S
C1486 H1477 0.930 . S
C1486 C1484 1.384 . S
C1486 C1487 1.372 . S
C1487 C1486 1.372 . S
C1487 C1488 1.400 . S
C1487 C1492 1.490 . S
C1488 H1478 0.930 . S
C1488 C1487 1.400 . S
C1488 C1491 1.386 . S
H1489 C1505 0.930 . S
H1490 C1506 0.931 . S
C1491 H1479 0.929 . S
C1491 C1485 1.390 . S
C1491 C1488 1.386 . S
C1492 C1487 1.490 . S
C1492 C1494 1.395 . S
C1492 C1495 1.403 . S
H1493 C1499 0.930 . S
C1494 H1480 0.930 . S
C1494 C1492 1.395 . S
C1494 C1497 1.403 1_545 S
C1495 C1492 1.403 . S
C1495 C1496 1.524 . S
C1495 C1499 1.400 1_545 S
C1496 H1481 0.960 . S
C1496 H1482 0.960 . S
C1496 H1483 0.960 . S
C1496 C1495 1.524 . S
C1497 C1494 1.403 1_565 S
C1497 C1498 1.392 . S
C1497 C1501 1.495 . S
C1498 C1497 1.392 . S
C1498 C1499 1.385 . S
C1498 C1500 1.478 . S
C1499 H1493 0.930 . S
C1499 C1495 1.400 1_565 S
C1499 C1498 1.385 . S
C1500 C1498 1.478 . S
C1500 C1502 1.381 . S
C1500 C1506 1.383 . S
C1501 C1497 1.495 . S
C1501 H1507 0.959 . S
C1501 H1508 0.961 . S
C1501 H1509 0.960 . S
C1502 C1500 1.381 . S
C1502 C1503 1.394 . S
C1502 H1510 0.930 . S
C1503 C1502 1.394 . S
C1503 C1504 1.383 . S
C1503 H1511 0.929 . S
C1504 C1503 1.383 . S
C1504 C1505 1.377 . S
C1505 H1489 0.930 . S
C1505 C1504 1.377 . S
C1505 C1506 1.379 . S
C1506 H1490 0.931 . S
C1506 C1500 1.383 . S
C1506 C1505 1.379 . S
H1507 C1501 0.959 . S
H1508 C1501 0.961 . S
H1509 C1501 0.960 . S
H1510 C1502 0.930 . S
H1511 C1503 0.929 . S
H1512 C1520 0.929 . S
H1513 C1522 0.930 . S
H1514 C1524 0.930 . S
H1515 C1527 0.929 . S
H1516 C1530 0.930 . S
H1517 C1532 0.960 . S
H1518 C1532 0.960 . S
H1519 C1532 0.960 . S
C1520 H1512 0.929 . S
C1520 C1521 1.377 . S
C1520 C1522 1.384 . S
C1521 C1520 1.377 . S
C1521 C1527 1.390 . S
C1522 H1513 0.930 . S
C1522 C1520 1.384 . S
C1522 C1523 1.372 . S
C1523 C1522 1.372 . S
C1523 C1524 1.400 . S
C1523 C1528 1.490 . S
C1524 H1514 0.930 . S
C1524 C1523 1.400 . S
C1524 C1527 1.386 . S
H1525 C1541 0.930 . S
H1526 C1542 0.931 . S
C1527 H1515 0.929 . S
C1527 C1521 1.390 . S
C1527 C1524 1.386 . S
C1528 C1523 1.490 . S
C1528 C1530 1.395 . S
C1528 C1531 1.403 . S
H1529 C1535 0.930 . S
C1530 H1516 0.930 . S
C1530 C1528 1.395 . S
C1530 C1533 1.403 1_455 S
C1531 C1528 1.403 . S
C1531 C1532 1.524 . S
C1531 C1535 1.400 1_455 S
C1532 H1517 0.960 . S
C1532 H1518 0.960 . S
C1532 H1519 0.960 . S
C1532 C1531 1.524 . S
C1533 C1530 1.403 1_655 S
C1533 C1534 1.392 . S
C1533 C1537 1.495 . S
C1534 C1533 1.392 . S
C1534 C1535 1.385 . S
C1534 C1536 1.478 . S
C1535 H1529 0.930 . S
C1535 C1531 1.400 1_655 S
C1535 C1534 1.385 . S
C1536 C1534 1.478 . S
C1536 C1538 1.381 . S
C1536 C1542 1.383 . S
C1537 C1533 1.495 . S
C1537 H1543 0.959 . S
C1537 H1544 0.961 . S
C1537 H1545 0.960 . S
C1538 C1536 1.381 . S
C1538 C1539 1.394 . S
C1538 H1546 0.930 . S
C1539 C1538 1.394 . S
C1539 C1540 1.383 . S
C1539 H1547 0.929 . S
C1540 C1539 1.383 . S
C1540 C1541 1.377 . S
C1541 H1525 0.930 . S
C1541 C1540 1.377 . S
C1541 C1542 1.379 . S
C1542 H1526 0.931 . S
C1542 C1536 1.383 . S
C1542 C1541 1.379 . S
H1543 C1537 0.959 . S
H1544 C1537 0.961 . S
H1545 C1537 0.960 . S
H1546 C1538 0.930 . S
H1547 C1539 0.929 . S
C261 C57 1.133 . S
C280 C1 1.132 . S
C297 C70 1.133 . S
C316 C14 1.129 . S
C333 C28 1.133 . S
C352 C43 1.133 . S
C369 C56 1.132 . S
C388 C0 1.129 . S
C405 C71 1.132 . S
C424 C15 1.130 . S
C441 C29 1.133 . S
C460 C42 1.132 . S
C477 C153 1.133 . S
C496 C84 1.131 . S
C513 C155 1.133 . S
C532 C110 1.130 . S
C549 C112 1.133 . S
C568 C139 1.131 . S
C585 C85 1.132 . S
C604 C152 1.128 . S
C621 C154 1.133 . S
C640 C111 1.130 . S
C657 C138 1.133 . S
C676 C113 1.132 . S
C693 C237 1.132 . S
C712 C168 1.132 . S
C729 C182 1.132 . S
C748 C238 1.129 . S
C765 C211 1.132 . S
C784 C209 1.128 . S
C801 C236 1.132 . S
C820 C169 1.129 . S
C837 C239 1.132 . S
C856 C183 1.129 . S
C873 C208 1.133 . S
C892 C210 1.131 . S
C909 C13 1.523 . S
C928 C127 1.522 . S
C945 C141 1.523 . S
C964 C26 1.522 . S
C981 C167 1.523 . S
C1000 C40 1.521 . S
C1017 C55 1.523 . S
C1036 C180 1.521 . S
C1053 C194 1.523 . S
C1072 C69 1.518 . S
C1089 C197 1.522 . S
C1108 C82 1.516 . S
C1125 C222 1.524 . S
C1144 C12 1.522 . S
C1161 C224 1.523 . S
C1180 C27 1.518 . S
C1197 C251 1.522 . S
C1216 C41 1.517 . S
C1233 C54 1.523 . S
C1252 C97 1.519 . S
C1269 C68 1.523 . S
C1288 C99 1.519 . S
C1305 C125 1.523 . S
C1324 C83 1.521 . S
C1341 C223 1.523 . S
C1360 C96 1.523 . S
C1377 C225 1.523 . S
C1396 C98 1.522 . S
C1413 C124 1.523 . S
C1432 C250 1.518 . S
C1449 C181 1.522 . S
C1468 C126 1.520 . S
C1485 C195 1.523 . S
C1504 C140 1.519 . S
C1521 C166 1.522 . S
C1540 C196 1.519 . S
