# Generated by pormake.
# Topology rac, (4)-cn, num edge types: 1
# Building blocks:
#     Node 0, Type 0, BuildingBlock: QUQFOY_clean_sbu_1, # of connection points: 4
#     Node 1, Type 0, BuildingBlock: QUQFOY_clean_sbu_1, # of connection points: 4
#     Node 2, Type 0, BuildingBlock: QUQFOY_clean_sbu_1, # of connection points: 4
#     Node 3, Type 0, BuildingBlock: QUQFOY_clean_sbu_1, # of connection points: 4
#     Node 4, Type 0, BuildingBlock: QUQFOY_clean_sbu_1, # of connection points: 4
#     Node 5, Type 0, BuildingBlock: QUQFOY_clean_sbu_1, # of connection points: 4
#     Node 6, Type 0, BuildingBlock: QUQFOY_clean_sbu_1, # of connection points: 4
#     Node 7, Type 0, BuildingBlock: QUQFOY_clean_sbu_1, # of connection points: 4
#     Edge 8, Type (0, 0), BuildingBlock: ZUJKAS_clean_linker_0, # of connection points: 2
#     Edge 9, Type (0, 0), BuildingBlock: ZUJKAS_clean_linker_0, # of connection points: 2
#     Edge 10, Type (0, 0), BuildingBlock: ZUJKAS_clean_linker_0, # of connection points: 2
#     Edge 11, Type (0, 0), BuildingBlock: ZUJKAS_clean_linker_0, # of connection points: 2
#     Edge 12, Type (0, 0), BuildingBlock: ZUJKAS_clean_linker_0, # of connection points: 2
#     Edge 13, Type (0, 0), BuildingBlock: ZUJKAS_clean_linker_0, # of connection points: 2
#     Edge 14, Type (0, 0), BuildingBlock: ZUJKAS_clean_linker_0, # of connection points: 2
#     Edge 15, Type (0, 0), BuildingBlock: ZUJKAS_clean_linker_0, # of connection points: 2
#     Edge 16, Type (0, 0), BuildingBlock: ZUJKAS_clean_linker_0, # of connection points: 2
#     Edge 17, Type (0, 0), BuildingBlock: ZUJKAS_clean_linker_0, # of connection points: 2
#     Edge 18, Type (0, 0), BuildingBlock: ZUJKAS_clean_linker_0, # of connection points: 2
#     Edge 19, Type (0, 0), BuildingBlock: ZUJKAS_clean_linker_0, # of connection points: 2
#     Edge 20, Type (0, 0), BuildingBlock: ZUJKAS_clean_linker_0, # of connection points: 2
#     Edge 21, Type (0, 0), BuildingBlock: ZUJKAS_clean_linker_0, # of connection points: 2
#     Edge 22, Type (0, 0), BuildingBlock: ZUJKAS_clean_linker_0, # of connection points: 2
#     Edge 23, Type (0, 0), BuildingBlock: ZUJKAS_clean_linker_0, # of connection points: 2
# Relax obj value: 0.261
# Max RMSD: 0.148
# Mean RMSD: 0.148
data_MOF--net-rac--node1-QUQFOY_clean_sbu_1--edge1-ZUJKAS_clean_linker_0
_symmetry_space_group_name_H-M    P1
_symmetry_Int_Tables_number       1
_symmetry_cell_setting            triclinic
loop_
_symmetry_equiv_pos_as_xyz
'x, y, z'
_cell_length_a     53.827565
_cell_length_b     25.984736
_cell_length_c     59.253099
_cell_angle_alpha  89.977488
_cell_angle_beta   90.038809
_cell_angle_gamma 89.990642
loop_
_atom_site_label
_atom_site_type_symbol
_atom_site_fract_x
_atom_site_fract_y
_atom_site_fract_z
_atom_type_partial_charge
O0 O 0.36546 0.32419 0.07559 0.0
Cd1 Cd 0.38929 0.27068 0.0624 0.0
Cd2 Cd 0.38624 0.23065 0.1072 0.0
O3 O 0.36409 0.29448 0.11042 0.0
O4 O 0.40214 0.30509 0.03442 0.0
O5 O 0.42583 0.28841 0.06399 0.0
C6 C 0.42329 0.31006 0.04446 0.0
C7 C 0.40733 0.21481 0.14134 0.0
C8 C 0.35761 0.32732 0.09572 0.0
C9 C 0.36539 0.16612 0.0684 0.0
O10 O 0.37054 0.17041 0.08931 0.0
O11 O 0.37227 0.20065 0.0544 0.0
O12 O 0.38418 0.20428 0.13877 0.0
O13 O 0.41927 0.23152 0.12393 0.0
O14 O 0.15297 0.68494 0.076 0.0
Cd15 Cd 0.12894 0.73813 0.06282 0.0
Cd16 Cd 0.1321 0.77835 0.10745 0.0
O17 O 0.1545 0.71491 0.11077 0.0
O18 O 0.116 0.70341 0.03495 0.0
O19 O 0.09244 0.72001 0.06458 0.0
C20 C 0.09493 0.69826 0.04507 0.0
C21 C 0.11082 0.79401 0.14147 0.0
C22 C 0.16098 0.68206 0.0961 0.0
C23 C 0.15267 0.84291 0.06858 0.0
O24 O 0.14759 0.83871 0.0895 0.0
O25 O 0.14579 0.80824 0.05465 0.0
O26 O 0.13394 0.80488 0.139 0.0
O27 O 0.099 0.77703 0.12404 0.0
O28 O 0.36589 0.18844 0.43841 0.0
Cd29 Cd 0.39019 0.24266 0.45022 0.0
Cd30 Cd 0.3858 0.27955 0.40521 0.0
O31 O 0.36375 0.21529 0.40317 0.0
O32 O 0.40396 0.20991 0.47821 0.0
O33 O 0.42663 0.22452 0.44781 0.0
C34 C 0.42472 0.20403 0.46763 0.0
C35 C 0.40649 0.29347 0.37074 0.0
C36 C 0.35759 0.18369 0.41849 0.0
C37 C 0.36583 0.34646 0.44355 0.0
O38 O 0.37029 0.3408 0.42259 0.0
O39 O 0.37335 0.31304 0.45782 0.0
O40 O 0.38331 0.30376 0.37333 0.0
O41 O 0.41866 0.27801 0.38825 0.0
O42 O 0.15169 0.82239 0.43773 0.0
Cd43 Cd 0.12752 0.76829 0.44984 0.0
Cd44 Cd 0.13191 0.73017 0.40513 0.0
O45 O 0.15439 0.79372 0.40281 0.0
O46 O 0.11372 0.80167 0.47766 0.0
O47 O 0.09102 0.7859 0.44736 0.0
C48 C 0.09291 0.80696 0.46707 0.0
C49 C 0.11102 0.71611 0.37076 0.0
C50 C 0.16034 0.82607 0.41789 0.0
C51 C 0.1518 0.66413 0.44374 0.0
O52 O 0.14712 0.66899 0.42277 0.0
O53 O 0.14452 0.6982 0.45779 0.0
O54 O 0.13414 0.70523 0.37336 0.0
O55 O 0.09901 0.73226 0.38822 0.0
O56 O 0.65149 0.6866 0.93746 0.0
Cd57 Cd 0.62742 0.74089 0.94958 0.0
Cd58 Cd 0.63183 0.7788 0.90467 0.0
O59 O 0.65397 0.71469 0.90242 0.0
O60 O 0.61383 0.70781 0.97756 0.0
O61 O 0.59089 0.7233 0.94739 0.0
C62 C 0.59293 0.70246 0.96713 0.0
C63 C 0.61112 0.79315 0.87021 0.0
C64 C 0.65995 0.68249 0.91757 0.0
C65 C 0.65188 0.84482 0.94326 0.0
O66 O 0.64728 0.83976 0.92228 0.0
O67 O 0.64447 0.81099 0.95737 0.0
O68 O 0.63428 0.80356 0.87287 0.0
O69 O 0.59898 0.77736 0.88766 0.0
O70 O 0.86554 0.32173 0.93876 0.0
Cd71 Cd 0.88971 0.26767 0.95095 0.0
Cd72 Cd 0.88568 0.22955 0.906 0.0
O73 O 0.8634 0.29344 0.90374 0.0
O74 O 0.90331 0.30087 0.97891 0.0
O75 O 0.92619 0.2856 0.94871 0.0
C76 C 0.92416 0.30643 0.96845 0.0
C77 C 0.90579 0.21534 0.87126 0.0
C78 C 0.85721 0.32561 0.91881 0.0
C79 C 0.8656 0.16341 0.94453 0.0
O80 O 0.87036 0.16843 0.92359 0.0
O81 O 0.87279 0.19739 0.95867 0.0
O82 O 0.88269 0.2049 0.87424 0.0
O83 O 0.91826 0.23096 0.88855 0.0
O84 O 0.65236 0.82309 0.57538 0.0
Cd85 Cd 0.62831 0.77001 0.5622 0.0
Cd86 Cd 0.63189 0.72918 0.60677 0.0
O87 O 0.65444 0.79241 0.61002 0.0
O88 O 0.61552 0.80493 0.53431 0.0
O89 O 0.59183 0.78839 0.56385 0.0
C90 C 0.59442 0.8102 0.54437 0.0
C91 C 0.61067 0.71378 0.64084 0.0
C92 C 0.66066 0.82559 0.59539 0.0
C93 C 0.65204 0.665 0.56767 0.0
O94 O 0.6471 0.66881 0.58863 0.0
O95 O 0.64512 0.69998 0.55389 0.0
O96 O 0.63375 0.70251 0.63831 0.0
O97 O 0.59886 0.73094 0.62343 0.0
O98 O 0.86441 0.18539 0.57416 0.0
Cd99 Cd 0.88836 0.23887 0.56116 0.0
Cd100 Cd 0.88503 0.27908 0.6059 0.0
O101 O 0.86287 0.21522 0.60896 0.0
O102 O 0.90157 0.20438 0.53337 0.0
O103 O 0.92487 0.22114 0.56318 0.0
C104 C 0.92258 0.19939 0.54365 0.0
C105 C 0.90554 0.29467 0.64034 0.0
C106 C 0.85646 0.18234 0.59426 0.0
C107 C 0.8645 0.34358 0.56695 0.0
O108 O 0.86952 0.33941 0.58789 0.0
O109 O 0.87144 0.30892 0.55304 0.0
O110 O 0.88243 0.30515 0.63745 0.0
O111 O 0.91781 0.27832 0.62307 0.0
H112 H 0.33839 0.15945 0.02899 0.0
H113 H 0.30237 0.10403 0.02181 0.0
H114 H 0.31447 0.02719 0.08534 0.0
H115 H 0.35053 0.08172 0.09253 0.0
H116 H 0.29972 0.95988 0.05105 0.0
H117 H 0.23716 0.12983 0.0561 0.0
H118 H 0.26122 0.13322 0.03513 0.0
H119 H 0.26935 0.13249 0.06453 0.0
C120 C 0.3338 0.12989 0.04118 0.0
C121 C 0.34735 0.12546 0.06144 0.0
C122 C 0.31297 0.0986 0.03716 0.0
C123 C 0.30529 0.06222 0.05329 0.0
C124 C 0.31985 0.05523 0.07272 0.0
H125 H 0.16742 0.92764 0.09252 0.0
H126 H 0.20346 0.98218 0.08527 0.0
C127 C 0.34056 0.08649 0.07678 0.0
C128 C 0.28141 0.03344 0.05083 0.0
H129 H 0.21825 0.04916 0.05084 0.0
C130 C 0.28191 0.97939 0.05071 0.0
C131 C 0.25811 0.05887 0.05072 0.0
C132 C 0.25624 0.11677 0.05181 0.0
C133 C 0.25986 0.95017 0.05086 0.0
C134 C 0.23656 0.9756 0.05085 0.0
C135 C 0.23606 0.02965 0.05059 0.0
C136 C 0.21268 0.94684 0.05332 0.0
C137 C 0.26172 0.89228 0.05209 0.0
C138 C 0.20502 0.91029 0.03726 0.0
C139 C 0.1842 0.87899 0.04131 0.0
C140 C 0.17064 0.8836 0.06154 0.0
C141 C 0.1774 0.92274 0.0768 0.0
C142 C 0.1981 0.95401 0.0727 0.0
H143 H 0.2808 0.87927 0.05645 0.0
H144 H 0.2486 0.8767 0.06483 0.0
H145 H 0.25676 0.87564 0.03545 0.0
H146 H 0.21564 0.90472 0.02194 0.0
H147 H 0.17964 0.8493 0.02918 0.0
H148 H 0.1661 0.57857 0.42015 0.0
H149 H 0.20216 0.52403 0.42738 0.0
H150 H 0.21574 0.60442 0.48978 0.0
H151 H 0.17961 0.65954 0.48264 0.0
H152 H 0.25726 0.60097 0.46139 0.0
H153 H 0.21711 0.40609 0.47108 0.0
H154 H 0.2062 0.4389 0.44632 0.0
H155 H 0.19871 0.46391 0.47379 0.0
C156 C 0.17629 0.58383 0.43576 0.0
C157 C 0.16981 0.62355 0.45082 0.0
C158 C 0.19696 0.55244 0.43988 0.0
C159 C 0.2117 0.55984 0.45918 0.0
C160 C 0.20464 0.59782 0.4748 0.0
H161 H 0.33881 0.35293 0.48283 0.0
H162 H 0.30278 0.4083 0.49001 0.0
C163 C 0.1838 0.62906 0.47078 0.0
C164 C 0.23561 0.53126 0.46179 0.0
H165 H 0.2606 0.41025 0.46242 0.0
C166 C 0.25796 0.55927 0.46195 0.0
C167 C 0.23665 0.47687 0.46272 0.0
C168 C 0.21338 0.44463 0.4637 0.0
C169 C 0.28121 0.53438 0.46196 0.0
C170 C 0.28224 0.47994 0.46162 0.0
C171 C 0.2599 0.45197 0.46252 0.0
C172 C 0.30609 0.45122 0.45887 0.0
C173 C 0.30449 0.56665 0.46213 0.0
C174 C 0.32037 0.45761 0.43924 0.0
C175 C 0.34098 0.42608 0.43509 0.0
C176 C 0.34784 0.38722 0.45047 0.0
C177 C 0.3343 0.38272 0.47071 0.0
C178 C 0.31353 0.41411 0.47477 0.0
H179 H 0.30095 0.60559 0.46918 0.0
H180 H 0.31943 0.54793 0.47214 0.0
H181 H 0.31123 0.57146 0.44456 0.0
H182 H 0.31486 0.48532 0.42653 0.0
H183 H 0.35081 0.43055 0.41927 0.0
H184 H 0.67909 0.85036 0.98249 0.0
H185 H 0.71507 0.90572 0.98988 0.0
H186 H 0.70264 0.9843 0.9268 0.0
H187 H 0.66673 0.92956 0.91935 0.0
H188 H 0.75715 0.90868 0.96234 0.0
H189 H 0.71651 0.10358 0.96994 0.0
H190 H 0.69812 0.04576 0.97261 0.0
H191 H 0.70625 0.07003 0.94515 0.0
C192 C 0.68351 0.88048 0.97051 0.0
C193 C 0.66988 0.88543 0.95032 0.0
C194 C 0.70426 0.91186 0.97468 0.0
C195 C 0.71159 0.94943 0.95896 0.0
C196 C 0.69722 0.95624 0.93939 0.0
H197 H 0.85137 0.07811 0.9207 0.0
H198 H 0.81539 0.0233 0.92775 0.0
C199 C 0.67664 0.92472 0.93513 0.0
C200 C 0.7354 0.97824 0.96182 0.0
H201 H 0.76019 0.09942 0.96204 0.0
C202 C 0.75778 0.95039 0.9626 0.0
C203 C 0.73634 0.03268 0.96238 0.0
C204 C 0.71301 0.06481 0.9627 0.0
C205 C 0.78099 0.97543 0.96288 0.0
C206 C 0.78195 0.02985 0.96216 0.0
C207 C 0.75955 0.05771 0.96244 0.0
C208 C 0.80581 0.05863 0.95963 0.0
C209 C 0.80431 0.94331 0.96374 0.0
C210 C 0.81282 0.09645 0.97536 0.0
C211 C 0.8336 0.12787 0.97143 0.0
C212 C 0.84761 0.12269 0.95147 0.0
C213 C 0.84118 0.08312 0.93631 0.0
C214 C 0.82055 0.05157 0.94033 0.0
H215 H 0.80066 0.90465 0.97104 0.0
H216 H 0.81144 0.93784 0.94634 0.0
H217 H 0.81899 0.96252 0.97387 0.0
H218 H 0.80172 0.10279 0.99034 0.0
H219 H 0.83776 0.1582 0.98337 0.0
H220 H 0.67957 0.66072 0.52862 0.0
H221 H 0.71529 0.60483 0.52101 0.0
H222 H 0.70185 0.52351 0.58322 0.0
H223 H 0.66617 0.57869 0.59087 0.0
H224 H 0.75702 0.59972 0.54844 0.0
H225 H 0.71571 0.40584 0.53958 0.0
H226 H 0.69749 0.464 0.53736 0.0
H227 H 0.7055 0.43836 0.56463 0.0
C228 C 0.68371 0.6299 0.54034 0.0
C229 C 0.66986 0.62429 0.56036 0.0
C230 C 0.70431 0.5982 0.53605 0.0
C231 C 0.71129 0.55968 0.55147 0.0
C232 C 0.6967 0.55227 0.57085 0.0
H233 H 0.85039 0.42942 0.59043 0.0
H234 H 0.81464 0.48462 0.58304 0.0
C235 C 0.67625 0.58407 0.57522 0.0
C236 C 0.735 0.53052 0.54858 0.0
H237 H 0.75933 0.40894 0.54817 0.0
C238 C 0.75749 0.558 0.54804 0.0
C239 C 0.73574 0.47608 0.54782 0.0
C240 C 0.71231 0.44432 0.54715 0.0
C241 C 0.7806 0.53259 0.54785 0.0
C242 C 0.78135 0.47814 0.54846 0.0
C243 C 0.75886 0.45066 0.54789 0.0
C244 C 0.80508 0.44894 0.55121 0.0
C245 C 0.80404 0.56437 0.5472 0.0
C246 C 0.81201 0.41069 0.53566 0.0
C247 C 0.83265 0.37898 0.53981 0.0
C248 C 0.84659 0.38431 0.55981 0.0
C249 C 0.84024 0.42426 0.57481 0.0
C250 C 0.81975 0.45606 0.57057 0.0
H251 H 0.8006 0.60296 0.53974 0.0
H252 H 0.81091 0.57006 0.56468 0.0
H253 H 0.81881 0.54484 0.53733 0.0
H254 H 0.80096 0.40428 0.52064 0.0
H255 H 0.83676 0.34837 0.52799 0.0
H256 H 0.45159 0.25669 0.15553 0.0
H257 H 0.46552 0.26738 0.19472 0.0
H258 H 0.40144 0.18281 0.21783 0.0
H259 H 0.38781 0.17124 0.17906 0.0
H260 H 0.44048 0.32021 0.22611 0.0
H261 H 0.45393 0.12323 0.25808 0.0
H262 H 0.45225 0.13732 0.22827 0.0
H263 H 0.42428 0.12812 0.24452 0.0
C264 C 0.44092 0.23903 0.16895 0.0
C265 C 0.41857 0.21316 0.16417 0.0
C266 C 0.44884 0.24536 0.19134 0.0
C267 C 0.43471 0.22538 0.20928 0.0
C268 C 0.41305 0.19749 0.20436 0.0
H269 H 0.38631 0.33415 0.33265 0.0
H270 H 0.40014 0.32214 0.29398 0.0
C271 C 0.40514 0.19124 0.1821 0.0
C272 C 0.44045 0.23879 0.23313 0.0
H273 H 0.44095 0.18703 0.28609 0.0
C274 C 0.44125 0.29102 0.23919 0.0
C275 C 0.44199 0.20096 0.25027 0.0
C276 C 0.44335 0.14431 0.24489 0.0
C277 C 0.44131 0.30631 0.26193 0.0
C278 C 0.44003 0.26842 0.27906 0.0
C279 C 0.4415 0.21624 0.27301 0.0
C280 C 0.43392 0.28162 0.30284 0.0
C281 C 0.44195 0.36302 0.26732 0.0
C282 C 0.44824 0.26281 0.32091 0.0
C283 C 0.44022 0.2694 0.34326 0.0
C284 C 0.41758 0.29435 0.34784 0.0
C285 C 0.40387 0.3149 0.32976 0.0
C286 C 0.41188 0.3084 0.30755 0.0
H287 H 0.45233 0.38467 0.25419 0.0
H288 H 0.42268 0.37819 0.26759 0.0
H289 H 0.45066 0.37044 0.284 0.0
H290 H 0.46521 0.24163 0.31769 0.0
H291 H 0.4511 0.25278 0.3568 0.0
H292 H 0.06653 0.75741 0.35677 0.0
H293 H 0.05238 0.7684 0.31764 0.0
H294 H 0.11705 0.68649 0.29408 0.0
H295 H 0.13091 0.6746 0.33276 0.0
H296 H 0.07663 0.82229 0.286 0.0
H297 H 0.06473 0.62473 0.25429 0.0
H298 H 0.06652 0.63898 0.28408 0.0
H299 H 0.09444 0.63078 0.26766 0.0
C300 C 0.07731 0.74045 0.34326 0.0
C301 C 0.09985 0.71514 0.34788 0.0
C302 C 0.06925 0.74694 0.3209 0.0
C303 C 0.08345 0.7277 0.30287 0.0
C304 C 0.10539 0.70055 0.30762 0.0
H305 H 0.13017 0.83755 0.17928 0.0
H306 H 0.11632 0.8261 0.21797 0.0
C307 C 0.11342 0.69413 0.32984 0.0
C308 C 0.07738 0.74086 0.27905 0.0
H309 H 0.07695 0.6889 0.22616 0.0
C310 C 0.07604 0.79304 0.27295 0.0
C311 C 0.07604 0.70293 0.26196 0.0
C312 C 0.07522 0.64625 0.2674 0.0
C313 C 0.07564 0.80825 0.2502 0.0
C314 C 0.07716 0.77035 0.2331 0.0
C315 C 0.07622 0.71814 0.2392 0.0
C316 C 0.08306 0.78362 0.20926 0.0
C317 C 0.0744 0.86489 0.24476 0.0
C318 C 0.06902 0.76363 0.19127 0.0
C319 C 0.07708 0.76986 0.16891 0.0
C320 C 0.09946 0.79567 0.16425 0.0
C321 C 0.11281 0.8176 0.18224 0.0
C322 C 0.10477 0.81143 0.20445 0.0
H323 H 0.06376 0.88606 0.25787 0.0
H324 H 0.0935 0.88096 0.24451 0.0
H325 H 0.06562 0.8719 0.22807 0.0
H326 H 0.05231 0.74167 0.19457 0.0
H327 H 0.06647 0.7522 0.15544 0.0
H328 H 0.63133 0.83404 0.83221 0.0
H329 H 0.61756 0.82213 0.7935 0.0
H330 H 0.55247 0.74156 0.817 0.0
H331 H 0.56652 0.75259 0.85615 0.0
H332 H 0.57667 0.68701 0.78551 0.0
H333 H 0.56559 0.88458 0.75347 0.0
H334 H 0.59523 0.87805 0.76693 0.0
H335 H 0.56722 0.87047 0.78329 0.0
C336 C 0.61377 0.81481 0.82926 0.0
C337 C 0.60004 0.79419 0.8473 0.0
C338 C 0.60579 0.80837 0.80703 0.0
C339 C 0.58377 0.78159 0.80225 0.0
C340 C 0.56942 0.76274 0.82027 0.0
H341 H 0.56652 0.75636 0.65487 0.0
H342 H 0.55253 0.7674 0.69402 0.0
C343 C 0.57741 0.76926 0.84264 0.0
C344 C 0.57772 0.76837 0.77844 0.0
H345 H 0.57752 0.82001 0.72547 0.0
C346 C 0.57621 0.71618 0.77242 0.0
C347 C 0.57655 0.80622 0.76128 0.0
C348 C 0.57595 0.86295 0.76664 0.0
C349 C 0.57576 0.70084 0.74969 0.0
C350 C 0.57741 0.7386 0.73253 0.0
C351 C 0.57667 0.79086 0.73856 0.0
C352 C 0.58319 0.72507 0.7087 0.0
C353 C 0.57431 0.64418 0.74433 0.0
C354 C 0.60479 0.69689 0.70387 0.0
C355 C 0.61272 0.69042 0.68164 0.0
C356 C 0.59939 0.71243 0.66365 0.0
C357 C 0.57711 0.73863 0.66834 0.0
C358 C 0.56916 0.74516 0.69071 0.0
H359 H 0.56364 0.62324 0.75749 0.0
H360 H 0.56547 0.63721 0.72768 0.0
H361 H 0.59336 0.62783 0.74406 0.0
H362 H 0.61632 0.68213 0.71738 0.0
H363 H 0.63 0.67018 0.67867 0.0
H364 H 0.95071 0.25702 0.65471 0.0
H365 H 0.9642 0.24519 0.694 0.0
H366 H 0.89751 0.32052 0.71713 0.0
H367 H 0.88435 0.33361 0.67828 0.0
H368 H 0.93753 0.3462 0.74288 0.0
H369 H 0.93178 0.13364 0.73196 0.0
H370 H 0.95333 0.16706 0.71404 0.0
H371 H 0.92055 0.17779 0.71082 0.0
C372 C 0.93924 0.27208 0.66819 0.0
C373 C 0.91632 0.29573 0.66337 0.0
C374 C 0.94685 0.26485 0.69063 0.0
C375 C 0.93158 0.28087 0.70855 0.0
C376 C 0.90956 0.30755 0.70364 0.0
H377 H 0.88411 0.178 0.83321 0.0
H378 H 0.89714 0.19141 0.79437 0.0
C379 C 0.90203 0.31492 0.68135 0.0
C380 C 0.93701 0.26697 0.7324 0.0
H381 H 0.937 0.16464 0.76865 0.0
C382 C 0.93793 0.3065 0.74854 0.0
C383 C 0.93735 0.21509 0.73974 0.0
C384 C 0.93554 0.17081 0.72333 0.0
C385 C 0.9376 0.29574 0.77179 0.0
C386 C 0.93695 0.24387 0.77913 0.0
C387 C 0.93764 0.20432 0.76299 0.0
C388 C 0.93147 0.23008 0.80298 0.0
C389 C 0.93608 0.34005 0.78821 0.0
C390 C 0.9469 0.24553 0.8209 0.0
C391 C 0.93937 0.2381 0.84334 0.0
C392 C 0.91636 0.21484 0.84815 0.0
C393 C 0.90186 0.19636 0.83015 0.0
C394 C 0.90932 0.20392 0.80787 0.0
H395 H 0.93257 0.37733 0.77958 0.0
H396 H 0.92106 0.33347 0.80071 0.0
H397 H 0.9539 0.34328 0.79751 0.0
H398 H 0.96435 0.26479 0.81754 0.0
H399 H 0.951 0.25262 0.85683 0.0
H400 H 0.42285 0.36055 1.00391 0.0
H401 H 0.45167 0.42659 0.99069 0.0
H402 H 0.4964 0.40553 0.05035 0.0
H403 H 0.46741 0.33962 0.06388 0.0
H404 H 0.48508 0.50815 0.04201 0.0
H405 H 0.52118 0.41662 0.96415 0.0
H406 H 0.48789 0.41888 0.96552 0.0
H407 H 0.50488 0.3808 0.98565 0.0
C408 C 0.43906 0.36916 0.01406 0.0
C409 C 0.44282 0.34445 0.03495 0.0
C410 C 0.45561 0.40696 0.00641 0.0
C411 C 0.4764 0.42087 0.01938 0.0
C412 C 0.48055 0.39541 0.03999 0.0
H413 H 0.5926 0.65277 0.00786 0.0
H414 H 0.56351 0.58709 0.02089 0.0
C415 C 0.46402 0.35746 0.04764 0.0
C416 C 0.49289 0.46402 0.0121 0.0
H417 H 0.53038 0.50535 0.96917 0.0
C418 C 0.49511 0.50737 0.02614 0.0
C419 C 0.50586 0.46335 0.99131 0.0
C420 C 0.50507 0.41725 0.97586 0.0
C421 C 0.50956 0.55021 0.01984 0.0
C422 C 0.52259 0.54949 0.99908 0.0
C423 C 0.52034 0.50616 0.98502 0.0
C424 C 0.53922 0.59249 0.99187 0.0
C425 C 0.51027 0.59635 0.03528 0.0
C426 C 0.53544 0.61762 0.97113 0.0
C427 C 0.55216 0.65533 0.96357 0.0
C428 C 0.57317 0.66843 0.9765 0.0
C429 C 0.57654 0.64409 0.99752 0.0
C430 C 0.55983 0.6065 1.00506 0.0
H431 H 0.49397 0.59723 0.04677 0.0
H432 H 0.52727 0.59446 0.04586 0.0
H433 H 0.51074 0.63279 0.02549 0.0
H434 H 0.51975 0.60743 0.96059 0.0
H435 H 0.54906 0.67289 0.94723 0.0
H436 H 0.05099 0.66827 0.0647 0.0
H437 H 0.02235 0.60129 0.05156 0.0
H438 H 0.06623 0.58185 0.99134 0.0
H439 H 0.09507 0.64809 1.00444 0.0
H440 H 0.99345 0.59012 0.01285 0.0
H441 H 0.06477 0.43626 0.01694 0.0
H442 H 0.06933 0.4988 0.02951 0.0
H443 H 0.07342 0.49005 0.99963 0.0
C444 C 0.05439 0.65023 0.04852 0.0
C445 C 0.07547 0.66347 0.03572 0.0
C446 C 0.03803 0.61175 0.04106 0.0
C447 C 0.04243 0.58551 0.02071 0.0
C448 C 0.06276 0.60047 0.00738 0.0
H449 H 0.96787 0.33659 0.94843 0.0
H450 H 0.99673 0.40326 0.9615 0.0
C451 C 0.07913 0.63881 0.01482 0.0
C452 C 0.02601 0.54212 0.01357 0.0
H453 H 0.0261 0.4138 1.00042 0.0
C454 C 1.00058 0.55154 0.01023 0.0
C455 C 0.03526 0.49163 0.01012 0.0
C456 C 0.06214 0.47829 0.01442 0.0
C457 C 0.9843 0.51229 1.00316 0.0
C458 C 0.99355 0.46182 0.99971 0.0
C459 C 0.01898 0.45239 1.00303 0.0
C460 C 0.97709 0.41845 0.99264 0.0
C461 C 0.95741 0.52557 0.99891 0.0
C462 C 0.95696 0.40325 1.00615 0.0
C463 C 0.94048 0.36506 0.99877 0.0
C464 C 0.94382 0.34084 0.97773 0.0
C465 C 0.96472 0.3543 0.96473 0.0
C466 C 0.98121 0.3926 0.97214 0.0
H467 H 0.95472 0.56762 0.99651 0.0
H468 H 0.95023 0.50522 0.98377 0.0
H469 H 0.94614 0.51351 0.01367 0.0
H470 H 0.95371 0.42163 0.02229 0.0
H471 H 0.92468 0.35563 0.0093 0.0
H472 H 0.59465 0.86 0.50364 0.0
H473 H 0.56603 0.92661 0.49046 0.0
H474 H 0.52222 0.9084 0.5508 0.0
H475 H 0.55063 0.84103 0.56401 0.0
H476 H 0.49325 0.91987 0.51228 0.0
H477 H 0.56525 0.07238 0.51565 0.0
H478 H 0.57357 0.01832 0.49839 0.0
H479 H 0.56965 0.00985 0.5283 0.0
C480 C 0.57877 0.86963 0.51402 0.0
C481 C 0.57506 0.84519 0.53497 0.0
C482 C 0.56253 0.90819 0.50654 0.0
C483 C 0.54229 0.92361 0.51988 0.0
C484 C 0.53783 0.89759 0.54029 0.0
H485 H 0.42551 0.1556 0.50867 0.0
H486 H 0.45441 0.08931 0.52164 0.0
C487 C 0.55406 0.85888 0.54779 0.0
C488 C 0.52602 0.96723 0.51271 0.0
H489 H 0.52659 0.09541 0.49925 0.0
C490 C 0.50053 0.95828 0.50954 0.0
C491 C 0.53547 0.01751 0.50909 0.0
C492 C 0.56243 0.03039 0.51322 0.0
C493 C 0.48438 0.99778 0.50247 0.0
C494 C 0.49383 0.04803 0.49885 0.0
C495 C 0.51932 0.05699 0.502 0.0
C496 C 0.4775 0.09164 0.49179 0.0
C497 C 0.45739 0.985 0.49841 0.0
C498 C 0.48152 0.11711 0.47118 0.0
C499 C 0.4651 0.15557 0.46377 0.0
C500 C 0.44438 0.16956 0.47689 0.0
C501 C 0.44116 0.14575 0.49805 0.0
C502 C 0.45757 0.10739 0.50542 0.0
H503 H 0.45449 0.94298 0.49615 0.0
H504 H 0.44629 0.99749 0.5132 0.0
H505 H 0.45021 0.0053 0.48326 0.0
H506 H 0.49689 0.106 0.46044 0.0
H507 H 0.46815 0.17295 0.44739 0.0
H508 H 0.92254 0.1481 0.50329 0.0
H509 H 0.95145 0.08148 0.49065 0.0
H510 H 0.99572 0.10432 0.55046 0.0
H511 H 0.96668 0.1707 0.5634 0.0
H512 H 1.00224 0.08116 0.48179 0.0
H513 H 0.98018 0.95035 0.55308 0.0
H514 H 0.96162 0.00627 0.54656 0.0
H515 H 0.99054 0.01321 0.56144 0.0
C516 C 0.93858 0.13948 0.51367 0.0
C517 C 0.94217 0.16471 0.53445 0.0
C518 C 0.95509 0.10119 0.50642 0.0
C519 C 0.97549 0.08694 0.51982 0.0
C520 C 0.9798 0.11372 0.54006 0.0
H521 H 0.09234 0.85761 0.50758 0.0
H522 H 0.06321 0.9239 0.52008 0.0
C523 C 0.9633 0.15211 0.54733 0.0
C524 C 0.9919 0.04351 0.51273 0.0
H525 H 0.01264 0.92436 0.52865 0.0
C526 C 1.00445 0.04681 0.492 0.0
C527 C 0.99476 0.9985 0.526 0.0
C528 C 0.98091 0.99143 0.54792 0.0
C529 C 0.02013 0.00701 0.48443 0.0
C530 C 0.023 0.96201 0.49771 0.0
C531 C 0.01043 0.95869 0.51843 0.0
C532 C 0.03952 0.91867 0.49068 0.0
C533 C 0.03402 0.01416 0.46253 0.0
C534 C 0.03548 0.89209 0.47033 0.0
C535 C 0.05213 0.85391 0.46312 0.0
C536 C 0.07313 0.84129 0.47617 0.0
C537 C 0.07642 0.86625 0.49706 0.0
C538 C 0.05978 0.90435 0.50424 0.0
H539 H 0.03478 0.05527 0.45741 0.0
H540 H 0.0533 0.99928 0.46389 0.0
H541 H 0.02439 0.9925 0.44897 0.0
H542 H 0.01966 0.90149 0.45981 0.0
H543 H 0.04896 0.83551 0.44698 0.0
H544 H 0.18581 0.67041 0.13609 0.0
H545 H 0.21908 0.60908 0.14446 0.0
H546 H 0.21071 0.54238 0.07827 0.0
H547 H 0.17743 0.6031 0.06971 0.0
H548 H 0.21668 0.47007 0.11607 0.0
H549 H 0.28814 0.62523 0.11205 0.0
H550 H 0.26197 0.6345 0.1305 0.0
H551 H 0.25734 0.63353 0.10053 0.0
C552 C 0.19084 0.6423 0.1234 0.0
C553 C 0.17919 0.64194 0.10213 0.0
C554 C 0.20986 0.60747 0.12822 0.0
C555 C 0.21739 0.57188 0.11187 0.0
C556 C 0.20508 0.56982 0.09105 0.0
H557 H 0.3408 0.40572 0.06914 0.0
H558 H 0.30776 0.46685 0.07782 0.0
C559 C 0.18614 0.60463 0.08618 0.0
C560 C 0.2391 0.53858 0.11563 0.0
H561 H 0.30243 0.54023 0.11514 0.0
C562 C 0.23545 0.48523 0.11633 0.0
C563 C 0.26344 0.55896 0.11577 0.0
C564 C 0.26817 0.61616 0.11456 0.0
C565 C 0.25568 0.45134 0.1162 0.0
C566 C 0.28002 0.47171 0.11552 0.0
C567 C 0.28367 0.52508 0.1158 0.0
C568 C 0.30164 0.43827 0.11166 0.0
C569 C 0.25092 0.39412 0.11544 0.0
C570 C 0.30943 0.40307 0.1281 0.0
C571 C 0.32831 0.368 0.12321 0.0
C572 C 0.33958 0.36772 0.10178 0.0
C573 C 0.33239 0.40468 0.08573 0.0
C574 C 0.31359 0.43972 0.09067 0.0
H575 H 0.23091 0.38499 0.11323 0.0
H576 H 0.26151 0.37624 0.1014 0.0
H577 H 0.25737 0.37632 0.13143 0.0
H578 H 0.30051 0.40194 0.14448 0.0
H579 H 0.33353 0.34019 0.13598 0.0
H580 H 0.3331 0.16673 0.3787 0.0
H581 H 0.29995 0.10433 0.37169 0.0
H582 H 0.30764 0.04669 0.43959 0.0
H583 H 0.34083 0.10849 0.44681 0.0
H584 H 0.30231 0.96943 0.40412 0.0
H585 H 0.2304 0.12385 0.40238 0.0
H586 H 0.25674 0.13112 0.38396 0.0
H587 H 0.26103 0.13417 0.41396 0.0
C588 C 0.32793 0.14042 0.39208 0.0
C589 C 0.3394 0.14289 0.41341 0.0
C590 C 0.30898 0.10498 0.38803 0.0
C591 C 0.30128 0.07164 0.40523 0.0
C592 C 0.31338 0.0724 0.42616 0.0
H593 H 0.17519 0.90514 0.44502 0.0
H594 H 0.20877 0.96619 0.43796 0.0
C595 C 0.33228 0.1078 0.43026 0.0
C596 C 0.27974 0.03761 0.40204 0.0
H597 H 0.21643 0.03839 0.39982 0.0
C598 C 0.28353 0.98429 0.40281 0.0
C599 C 0.25537 0.05761 0.40056 0.0
C600 C 0.25044 0.1148 0.40029 0.0
C601 C 0.2634 0.95019 0.4028 0.0
C602 C 0.23902 0.97025 0.40183 0.0
C603 C 0.23525 0.02348 0.40038 0.0
C604 C 0.21726 0.93674 0.40471 0.0
C605 C 0.26822 0.89318 0.40496 0.0
C606 C 0.21067 0.90111 0.38803 0.0
C607 C 0.19148 0.86617 0.39197 0.0
C608 C 0.17872 0.86641 0.4127 0.0
C609 C 0.18476 0.90372 0.42896 0.0
C610 C 0.20387 0.93869 0.42495 0.0
H611 H 0.28807 0.88456 0.40843 0.0
H612 H 0.25675 0.8766 0.41874 0.0
H613 H 0.26287 0.87369 0.38902 0.0
H614 H 0.22076 0.89957 0.37223 0.0
H615 H 0.18719 0.83803 0.37907 0.0
H616 H 0.67584 0.60535 0.9453 0.0
H617 H 0.70916 0.54385 0.93807 0.0
H618 H 0.71859 0.60561 0.87107 0.0
H619 H 0.6853 0.6677 0.87809 0.0
H620 H 0.71553 0.46878 0.90158 0.0
H621 H 0.78723 0.62357 0.90396 0.0
H622 H 0.75628 0.63289 0.91494 0.0
H623 H 0.76138 0.63196 0.88503 0.0
C624 C 0.6848 0.60561 0.92893 0.0
C625 C 0.67814 0.64179 0.91236 0.0
C626 C 0.70376 0.57037 0.92483 0.0
C627 C 0.71638 0.57086 0.90417 0.0
C628 C 0.70913 0.60526 0.8872 0.0
H629 H 0.83175 0.33905 0.87928 0.0
H630 H 0.79836 0.40069 0.87188 0.0
C631 C 0.6901 0.64052 0.89125 0.0
C632 C 0.73806 0.53714 0.90111 0.0
H633 H 0.80141 0.53836 0.90103 0.0
C634 C 0.73433 0.48379 0.90106 0.0
C635 C 0.76243 0.55734 0.90067 0.0
C636 C 0.76727 0.61455 0.90128 0.0
C637 C 0.75451 0.44979 0.90131 0.0
C638 C 0.77888 0.47001 0.90145 0.0
C639 C 0.78261 0.52333 0.90076 0.0
C640 C 0.80057 0.43645 0.90475 0.0
C641 C 0.74969 0.39264 0.9026 0.0
C642 C 0.8132 0.43761 0.92543 0.0
C643 C 0.83221 0.40259 0.92975 0.0
C644 C 0.83892 0.36601 0.91339 0.0
C645 C 0.82692 0.36658 0.89228 0.0
C646 C 0.80783 0.40159 0.88801 0.0
H647 H 0.72973 0.38374 0.90532 0.0
H648 H 0.75564 0.37423 0.88659 0.0
H649 H 0.76066 0.37518 0.91651 0.0
H650 H 0.80777 0.46451 0.9385 0.0
H651 H 0.84119 0.40338 0.94612 0.0
H652 H 0.67663 0.90507 0.56905 0.0
H653 H 0.7098 0.96609 0.57748 0.0
H654 H 0.71906 0.89854 0.64343 0.0
H655 H 0.68591 0.83688 0.63519 0.0
H656 H 0.71589 0.03795 0.61527 0.0
H657 H 0.78786 0.88386 0.61054 0.0
H658 H 0.75697 0.87518 0.59928 0.0
H659 H 0.76192 0.87408 0.62921 0.0
C660 C 0.68552 0.9034 0.58544 0.0
C661 C 0.67885 0.86577 0.60135 0.0
C662 C 0.70439 0.93839 0.59024 0.0
C663 C 0.71692 0.9362 0.61094 0.0
C664 C 0.70968 0.90025 0.62727 0.0
H665 H 0.83251 0.16917 0.63457 0.0
H666 H 0.79966 0.10711 0.64315 0.0
C667 C 0.69073 0.86523 0.62252 0.0
C668 C 0.73854 0.96976 0.6146 0.0
H669 H 0.80187 0.96904 0.61366 0.0
C670 C 0.73472 0.02306 0.61538 0.0
C671 C 0.76295 0.94973 0.61454 0.0
C672 C 0.76787 0.89262 0.61323 0.0
C673 C 0.75483 0.05724 0.61513 0.0
C674 C 0.77922 0.03723 0.61426 0.0
C675 C 0.78306 0.9839 0.61447 0.0
C676 C 0.8007 0.07099 0.6103 0.0
C677 C 0.74986 0.1144 0.61445 0.0
C678 C 0.81254 0.06979 0.58925 0.0
C679 C 0.83125 0.10501 0.58427 0.0
C680 C 0.83845 0.1419 0.60032 0.0
C681 C 0.82727 0.14143 0.62179 0.0
C682 C 0.80849 0.10617 0.62674 0.0
H683 H 0.72979 0.12325 0.61237 0.0
H684 H 0.75635 0.13218 0.63043 0.0
H685 H 0.76028 0.13253 0.60037 0.0
H686 H 0.8067 0.04268 0.57641 0.0
H687 H 0.83959 0.10412 0.56764 0.0
loop_
_geom_bond_atom_site_label_1
_geom_bond_atom_site_label_2
_geom_bond_distance
_geom_bond_site_symmetry_2
_ccdc_geom_bond_type
O0 Cd1 2.223 . S
O0 C8 1.315 . S
Cd1 O0 2.223 . S
Cd1 O4 2.297 . S
Cd1 O5 2.439 . S
Cd1 O11 2.240 . S
Cd2 O3 2.240 . S
Cd2 O10 2.223 . S
Cd2 O12 2.297 . S
Cd2 O13 2.439 . S
O3 Cd2 2.240 . S
O3 C8 1.279 . S
O4 Cd1 2.297 . S
O4 C6 1.247 . S
O5 Cd1 2.439 . S
O5 C6 1.208 . S
C6 O4 1.247 . S
C6 O5 1.208 . S
C7 O12 1.247 . S
C7 O13 1.208 . S
C8 O0 1.315 . S
C8 O3 1.279 . S
C9 O10 1.315 . S
C9 O11 1.279 . S
O10 Cd2 2.223 . S
O10 C9 1.315 . S
O11 Cd1 2.240 . S
O11 C9 1.279 . S
O12 Cd2 2.297 . S
O12 C7 1.247 . S
O13 Cd2 2.439 . S
O13 C7 1.208 . S
O14 Cd15 2.223 . S
O14 C22 1.315 . S
Cd15 O14 2.223 . S
Cd15 O18 2.297 . S
Cd15 O19 2.439 . S
Cd15 O25 2.240 . S
Cd16 O17 2.240 . S
Cd16 O24 2.223 . S
Cd16 O26 2.297 . S
Cd16 O27 2.439 . S
O17 Cd16 2.240 . S
O17 C22 1.279 . S
O18 Cd15 2.297 . S
O18 C20 1.247 . S
O19 Cd15 2.439 . S
O19 C20 1.208 . S
C20 O18 1.247 . S
C20 O19 1.208 . S
C21 O26 1.247 . S
C21 O27 1.208 . S
C22 O14 1.315 . S
C22 O17 1.279 . S
C23 O24 1.315 . S
C23 O25 1.279 . S
O24 Cd16 2.223 . S
O24 C23 1.315 . S
O25 Cd15 2.240 . S
O25 C23 1.279 . S
O26 Cd16 2.297 . S
O26 C21 1.247 . S
O27 Cd16 2.439 . S
O27 C21 1.208 . S
O28 Cd29 2.223 . S
O28 C36 1.315 . S
Cd29 O28 2.223 . S
Cd29 O32 2.297 . S
Cd29 O33 2.439 . S
Cd29 O39 2.240 . S
Cd30 O31 2.240 . S
Cd30 O38 2.223 . S
Cd30 O40 2.297 . S
Cd30 O41 2.439 . S
O31 Cd30 2.240 . S
O31 C36 1.279 . S
O32 Cd29 2.297 . S
O32 C34 1.247 . S
O33 Cd29 2.439 . S
O33 C34 1.208 . S
C34 O32 1.247 . S
C34 O33 1.208 . S
C35 O40 1.247 . S
C35 O41 1.208 . S
C36 O28 1.315 . S
C36 O31 1.279 . S
C37 O38 1.315 . S
C37 O39 1.279 . S
O38 Cd30 2.223 . S
O38 C37 1.315 . S
O39 Cd29 2.240 . S
O39 C37 1.279 . S
O40 Cd30 2.297 . S
O40 C35 1.247 . S
O41 Cd30 2.439 . S
O41 C35 1.208 . S
O42 Cd43 2.223 . S
O42 C50 1.315 . S
Cd43 O42 2.223 . S
Cd43 O46 2.297 . S
Cd43 O47 2.439 . S
Cd43 O53 2.240 . S
Cd44 O45 2.240 . S
Cd44 O52 2.223 . S
Cd44 O54 2.297 . S
Cd44 O55 2.439 . S
O45 Cd44 2.240 . S
O45 C50 1.279 . S
O46 Cd43 2.297 . S
O46 C48 1.247 . S
O47 Cd43 2.439 . S
O47 C48 1.208 . S
C48 O46 1.247 . S
C48 O47 1.208 . S
C49 O54 1.247 . S
C49 O55 1.208 . S
C50 O42 1.315 . S
C50 O45 1.279 . S
C51 O52 1.315 . S
C51 O53 1.279 . S
O52 Cd44 2.223 . S
O52 C51 1.315 . S
O53 Cd43 2.240 . S
O53 C51 1.279 . S
O54 Cd44 2.297 . S
O54 C49 1.247 . S
O55 Cd44 2.439 . S
O55 C49 1.208 . S
O56 Cd57 2.223 . S
O56 C64 1.315 . S
Cd57 O56 2.223 . S
Cd57 O60 2.297 . S
Cd57 O61 2.439 . S
Cd57 O67 2.240 . S
Cd58 O59 2.240 . S
Cd58 O66 2.223 . S
Cd58 O68 2.297 . S
Cd58 O69 2.439 . S
O59 Cd58 2.240 . S
O59 C64 1.279 . S
O60 Cd57 2.297 . S
O60 C62 1.247 . S
O61 Cd57 2.439 . S
O61 C62 1.208 . S
C62 O60 1.247 . S
C62 O61 1.208 . S
C63 O68 1.247 . S
C63 O69 1.208 . S
C64 O56 1.315 . S
C64 O59 1.279 . S
C65 O66 1.315 . S
C65 O67 1.279 . S
O66 Cd58 2.223 . S
O66 C65 1.315 . S
O67 Cd57 2.240 . S
O67 C65 1.279 . S
O68 Cd58 2.297 . S
O68 C63 1.247 . S
O69 Cd58 2.439 . S
O69 C63 1.208 . S
O70 Cd71 2.223 . S
O70 C78 1.315 . S
Cd71 O70 2.223 . S
Cd71 O74 2.297 . S
Cd71 O75 2.439 . S
Cd71 O81 2.240 . S
Cd72 O73 2.240 . S
Cd72 O80 2.223 . S
Cd72 O82 2.297 . S
Cd72 O83 2.439 . S
O73 Cd72 2.240 . S
O73 C78 1.279 . S
O74 Cd71 2.297 . S
O74 C76 1.247 . S
O75 Cd71 2.439 . S
O75 C76 1.208 . S
C76 O74 1.247 . S
C76 O75 1.208 . S
C77 O82 1.247 . S
C77 O83 1.208 . S
C78 O70 1.315 . S
C78 O73 1.279 . S
C79 O80 1.315 . S
C79 O81 1.279 . S
O80 Cd72 2.223 . S
O80 C79 1.315 . S
O81 Cd71 2.240 . S
O81 C79 1.279 . S
O82 Cd72 2.297 . S
O82 C77 1.247 . S
O83 Cd72 2.439 . S
O83 C77 1.208 . S
O84 Cd85 2.223 . S
O84 C92 1.315 . S
Cd85 O84 2.223 . S
Cd85 O88 2.297 . S
Cd85 O89 2.439 . S
Cd85 O95 2.240 . S
Cd86 O87 2.240 . S
Cd86 O94 2.223 . S
Cd86 O96 2.297 . S
Cd86 O97 2.439 . S
O87 Cd86 2.240 . S
O87 C92 1.279 . S
O88 Cd85 2.297 . S
O88 C90 1.247 . S
O89 Cd85 2.439 . S
O89 C90 1.208 . S
C90 O88 1.247 . S
C90 O89 1.208 . S
C91 O96 1.247 . S
C91 O97 1.208 . S
C92 O84 1.315 . S
C92 O87 1.279 . S
C93 O94 1.315 . S
C93 O95 1.279 . S
O94 Cd86 2.223 . S
O94 C93 1.315 . S
O95 Cd85 2.240 . S
O95 C93 1.279 . S
O96 Cd86 2.297 . S
O96 C91 1.247 . S
O97 Cd86 2.439 . S
O97 C91 1.208 . S
O98 Cd99 2.223 . S
O98 C106 1.315 . S
Cd99 O98 2.223 . S
Cd99 O102 2.297 . S
Cd99 O103 2.439 . S
Cd99 O109 2.240 . S
Cd100 O101 2.240 . S
Cd100 O108 2.223 . S
Cd100 O110 2.297 . S
Cd100 O111 2.439 . S
O101 Cd100 2.240 . S
O101 C106 1.279 . S
O102 Cd99 2.297 . S
O102 C104 1.247 . S
O103 Cd99 2.439 . S
O103 C104 1.208 . S
C104 O102 1.247 . S
C104 O103 1.208 . S
C105 O110 1.247 . S
C105 O111 1.208 . S
C106 O98 1.315 . S
C106 O101 1.279 . S
C107 O108 1.315 . S
C107 O109 1.279 . S
O108 Cd100 2.223 . S
O108 C107 1.315 . S
O109 Cd99 2.240 . S
O109 C107 1.279 . S
O110 Cd100 2.297 . S
O110 C105 1.247 . S
O111 Cd100 2.439 . S
O111 C105 1.208 . S
H112 C120 0.929 . S
H113 C122 0.930 . S
H114 C124 0.930 . S
H115 C127 0.929 . S
H116 C130 0.930 . S
H117 C132 0.960 . S
H118 C132 0.960 . S
H119 C132 0.960 . S
C120 H112 0.929 . S
C120 C121 1.377 . S
C120 C122 1.384 . S
C121 C120 1.377 . S
C121 C127 1.390 . S
C122 H113 0.930 . S
C122 C120 1.384 . S
C122 C123 1.372 . S
C123 C122 1.372 . S
C123 C124 1.400 . S
C123 C128 1.490 . S
C124 H114 0.930 . S
C124 C123 1.400 . S
C124 C127 1.386 . S
H125 C141 0.930 . S
H126 C142 0.931 . S
C127 H115 0.929 . S
C127 C121 1.390 . S
C127 C124 1.386 . S
C128 C123 1.490 . S
C128 C130 1.395 1_545 S
C128 C131 1.403 . S
H129 C135 0.930 . S
C130 H116 0.930 . S
C130 C128 1.395 1_565 S
C130 C133 1.403 . S
C131 C128 1.403 . S
C131 C132 1.524 . S
C131 C135 1.400 . S
C132 H117 0.960 . S
C132 H118 0.960 . S
C132 H119 0.960 . S
C132 C131 1.524 . S
C133 C130 1.403 . S
C133 C134 1.392 . S
C133 C137 1.495 . S
C134 C133 1.392 . S
C134 C135 1.385 1_565 S
C134 C136 1.478 . S
C135 H129 0.930 . S
C135 C131 1.400 . S
C135 C134 1.385 1_545 S
C136 C134 1.478 . S
C136 C138 1.381 . S
C136 C142 1.383 . S
C137 C133 1.495 . S
C137 H143 0.959 . S
C137 H144 0.961 . S
C137 H145 0.960 . S
C138 C136 1.381 . S
C138 C139 1.394 . S
C138 H146 0.930 . S
C139 C138 1.394 . S
C139 C140 1.383 . S
C139 H147 0.929 . S
C140 C139 1.383 . S
C140 C141 1.377 . S
C141 H125 0.930 . S
C141 C140 1.377 . S
C141 C142 1.379 . S
C142 H126 0.931 . S
C142 C136 1.383 . S
C142 C141 1.379 . S
H143 C137 0.959 . S
H144 C137 0.961 . S
H145 C137 0.960 . S
H146 C138 0.930 . S
H147 C139 0.929 . S
H148 C156 0.929 . S
H149 C158 0.930 . S
H150 C160 0.930 . S
H151 C163 0.929 . S
H152 C166 0.930 . S
H153 C168 0.960 . S
H154 C168 0.960 . S
H155 C168 0.960 . S
C156 H148 0.929 . S
C156 C157 1.377 . S
C156 C158 1.384 . S
C157 C156 1.377 . S
C157 C163 1.390 . S
C158 H149 0.930 . S
C158 C156 1.384 . S
C158 C159 1.372 . S
C159 C158 1.372 . S
C159 C160 1.400 . S
C159 C164 1.490 . S
C160 H150 0.930 . S
C160 C159 1.400 . S
C160 C163 1.386 . S
H161 C177 0.930 . S
H162 C178 0.931 . S
C163 H151 0.929 . S
C163 C157 1.390 . S
C163 C160 1.386 . S
C164 C159 1.490 . S
C164 C166 1.395 . S
C164 C167 1.403 . S
H165 C171 0.930 . S
C166 H152 0.930 . S
C166 C164 1.395 . S
C166 C169 1.403 . S
C167 C164 1.403 . S
C167 C168 1.524 . S
C167 C171 1.400 . S
C168 H153 0.960 . S
C168 H154 0.960 . S
C168 H155 0.960 . S
C168 C167 1.524 . S
C169 C166 1.403 . S
C169 C170 1.392 . S
C169 C173 1.495 . S
C170 C169 1.392 . S
C170 C171 1.385 . S
C170 C172 1.478 . S
C171 H165 0.930 . S
C171 C167 1.400 . S
C171 C170 1.385 . S
C172 C170 1.478 . S
C172 C174 1.381 . S
C172 C178 1.383 . S
C173 C169 1.495 . S
C173 H179 0.959 . S
C173 H180 0.961 . S
C173 H181 0.960 . S
C174 C172 1.381 . S
C174 C175 1.394 . S
C174 H182 0.930 . S
C175 C174 1.394 . S
C175 C176 1.383 . S
C175 H183 0.929 . S
C176 C175 1.383 . S
C176 C177 1.377 . S
C177 H161 0.930 . S
C177 C176 1.377 . S
C177 C178 1.379 . S
C178 H162 0.931 . S
C178 C172 1.383 . S
C178 C177 1.379 . S
H179 C173 0.959 . S
H180 C173 0.961 . S
H181 C173 0.960 . S
H182 C174 0.930 . S
H183 C175 0.929 . S
H184 C192 0.929 . S
H185 C194 0.930 . S
H186 C196 0.930 . S
H187 C199 0.929 . S
H188 C202 0.930 . S
H189 C204 0.960 . S
H190 C204 0.960 . S
H191 C204 0.960 . S
C192 H184 0.929 . S
C192 C193 1.377 . S
C192 C194 1.384 . S
C193 C192 1.377 . S
C193 C199 1.390 . S
C194 H185 0.930 . S
C194 C192 1.384 . S
C194 C195 1.372 . S
C195 C194 1.372 . S
C195 C196 1.400 . S
C195 C200 1.490 . S
C196 H186 0.930 . S
C196 C195 1.400 . S
C196 C199 1.386 . S
H197 C213 0.930 . S
H198 C214 0.931 . S
C199 H187 0.929 . S
C199 C193 1.390 . S
C199 C196 1.386 . S
C200 C195 1.490 . S
C200 C202 1.395 . S
C200 C203 1.403 1_565 S
H201 C207 0.930 . S
C202 H188 0.930 . S
C202 C200 1.395 . S
C202 C205 1.403 . S
C203 C200 1.403 1_545 S
C203 C204 1.524 . S
C203 C207 1.400 . S
C204 H189 0.960 . S
C204 H190 0.960 . S
C204 H191 0.960 . S
C204 C203 1.524 . S
C205 C202 1.403 . S
C205 C206 1.392 1_565 S
C205 C209 1.495 . S
C206 C205 1.392 1_545 S
C206 C207 1.385 . S
C206 C208 1.478 . S
C207 H201 0.930 . S
C207 C203 1.400 . S
C207 C206 1.385 . S
C208 C206 1.478 . S
C208 C210 1.381 . S
C208 C214 1.383 . S
C209 C205 1.495 . S
C209 H215 0.959 . S
C209 H216 0.961 . S
C209 H217 0.960 . S
C210 C208 1.381 . S
C210 C211 1.394 . S
C210 H218 0.930 . S
C211 C210 1.394 . S
C211 C212 1.383 . S
C211 H219 0.929 . S
C212 C211 1.383 . S
C212 C213 1.377 . S
C213 H197 0.930 . S
C213 C212 1.377 . S
C213 C214 1.379 . S
C214 H198 0.931 . S
C214 C208 1.383 . S
C214 C213 1.379 . S
H215 C209 0.959 . S
H216 C209 0.961 . S
H217 C209 0.960 . S
H218 C210 0.930 . S
H219 C211 0.929 . S
H220 C228 0.929 . S
H221 C230 0.930 . S
H222 C232 0.930 . S
H223 C235 0.929 . S
H224 C238 0.930 . S
H225 C240 0.960 . S
H226 C240 0.960 . S
H227 C240 0.960 . S
C228 H220 0.929 . S
C228 C229 1.377 . S
C228 C230 1.384 . S
C229 C228 1.377 . S
C229 C235 1.390 . S
C230 H221 0.930 . S
C230 C228 1.384 . S
C230 C231 1.372 . S
C231 C230 1.372 . S
C231 C232 1.400 . S
C231 C236 1.490 . S
C232 H222 0.930 . S
C232 C231 1.400 . S
C232 C235 1.386 . S
H233 C249 0.930 . S
H234 C250 0.931 . S
C235 H223 0.929 . S
C235 C229 1.390 . S
C235 C232 1.386 . S
C236 C231 1.490 . S
C236 C238 1.395 . S
C236 C239 1.403 . S
H237 C243 0.930 . S
C238 H224 0.930 . S
C238 C236 1.395 . S
C238 C241 1.403 . S
C239 C236 1.403 . S
C239 C240 1.524 . S
C239 C243 1.400 . S
C240 H225 0.960 . S
C240 H226 0.960 . S
C240 H227 0.960 . S
C240 C239 1.524 . S
C241 C238 1.403 . S
C241 C242 1.392 . S
C241 C245 1.495 . S
C242 C241 1.392 . S
C242 C243 1.385 . S
C242 C244 1.478 . S
C243 H237 0.930 . S
C243 C239 1.400 . S
C243 C242 1.385 . S
C244 C242 1.478 . S
C244 C246 1.381 . S
C244 C250 1.383 . S
C245 C241 1.495 . S
C245 H251 0.959 . S
C245 H252 0.961 . S
C245 H253 0.960 . S
C246 C244 1.381 . S
C246 C247 1.394 . S
C246 H254 0.930 . S
C247 C246 1.394 . S
C247 C248 1.383 . S
C247 H255 0.929 . S
C248 C247 1.383 . S
C248 C249 1.377 . S
C249 H233 0.930 . S
C249 C248 1.377 . S
C249 C250 1.379 . S
C250 H234 0.931 . S
C250 C244 1.383 . S
C250 C249 1.379 . S
H251 C245 0.959 . S
H252 C245 0.961 . S
H253 C245 0.960 . S
H254 C246 0.930 . S
H255 C247 0.929 . S
H256 C264 0.929 . S
H257 C266 0.930 . S
H258 C268 0.930 . S
H259 C271 0.929 . S
H260 C274 0.930 . S
H261 C276 0.960 . S
H262 C276 0.960 . S
H263 C276 0.960 . S
C264 H256 0.929 . S
C264 C265 1.377 . S
C264 C266 1.384 . S
C265 C264 1.377 . S
C265 C271 1.390 . S
C266 H257 0.930 . S
C266 C264 1.384 . S
C266 C267 1.372 . S
C267 C266 1.372 . S
C267 C268 1.400 . S
C267 C272 1.490 . S
C268 H258 0.930 . S
C268 C267 1.400 . S
C268 C271 1.386 . S
H269 C285 0.930 . S
H270 C286 0.931 . S
C271 H259 0.929 . S
C271 C265 1.390 . S
C271 C268 1.386 . S
C272 C267 1.490 . S
C272 C274 1.395 . S
C272 C275 1.403 . S
H273 C279 0.930 . S
C274 H260 0.930 . S
C274 C272 1.395 . S
C274 C277 1.403 . S
C275 C272 1.403 . S
C275 C276 1.524 . S
C275 C279 1.400 . S
C276 H261 0.960 . S
C276 H262 0.960 . S
C276 H263 0.960 . S
C276 C275 1.524 . S
C277 C274 1.403 . S
C277 C278 1.392 . S
C277 C281 1.495 . S
C278 C277 1.392 . S
C278 C279 1.385 . S
C278 C280 1.478 . S
C279 H273 0.930 . S
C279 C275 1.400 . S
C279 C278 1.385 . S
C280 C278 1.478 . S
C280 C282 1.381 . S
C280 C286 1.383 . S
C281 C277 1.495 . S
C281 H287 0.959 . S
C281 H288 0.961 . S
C281 H289 0.960 . S
C282 C280 1.381 . S
C282 C283 1.394 . S
C282 H290 0.930 . S
C283 C282 1.394 . S
C283 C284 1.383 . S
C283 H291 0.929 . S
C284 C283 1.383 . S
C284 C285 1.377 . S
C285 H269 0.930 . S
C285 C284 1.377 . S
C285 C286 1.379 . S
C286 H270 0.931 . S
C286 C280 1.383 . S
C286 C285 1.379 . S
H287 C281 0.959 . S
H288 C281 0.961 . S
H289 C281 0.960 . S
H290 C282 0.930 . S
H291 C283 0.929 . S
H292 C300 0.929 . S
H293 C302 0.930 . S
H294 C304 0.930 . S
H295 C307 0.929 . S
H296 C310 0.930 . S
H297 C312 0.960 . S
H298 C312 0.960 . S
H299 C312 0.960 . S
C300 H292 0.929 . S
C300 C301 1.377 . S
C300 C302 1.384 . S
C301 C300 1.377 . S
C301 C307 1.390 . S
C302 H293 0.930 . S
C302 C300 1.384 . S
C302 C303 1.372 . S
C303 C302 1.372 . S
C303 C304 1.400 . S
C303 C308 1.490 . S
C304 H294 0.930 . S
C304 C303 1.400 . S
C304 C307 1.386 . S
H305 C321 0.930 . S
H306 C322 0.931 . S
C307 H295 0.929 . S
C307 C301 1.390 . S
C307 C304 1.386 . S
C308 C303 1.490 . S
C308 C310 1.395 . S
C308 C311 1.403 . S
H309 C315 0.930 . S
C310 H296 0.930 . S
C310 C308 1.395 . S
C310 C313 1.403 . S
C311 C308 1.403 . S
C311 C312 1.524 . S
C311 C315 1.400 . S
C312 H297 0.960 . S
C312 H298 0.960 . S
C312 H299 0.960 . S
C312 C311 1.524 . S
C313 C310 1.403 . S
C313 C314 1.392 . S
C313 C317 1.495 . S
C314 C313 1.392 . S
C314 C315 1.385 . S
C314 C316 1.478 . S
C315 H309 0.930 . S
C315 C311 1.400 . S
C315 C314 1.385 . S
C316 C314 1.478 . S
C316 C318 1.381 . S
C316 C322 1.383 . S
C317 C313 1.495 . S
C317 H323 0.959 . S
C317 H324 0.961 . S
C317 H325 0.960 . S
C318 C316 1.381 . S
C318 C319 1.394 . S
C318 H326 0.930 . S
C319 C318 1.394 . S
C319 C320 1.383 . S
C319 H327 0.929 . S
C320 C319 1.383 . S
C320 C321 1.377 . S
C321 H305 0.930 . S
C321 C320 1.377 . S
C321 C322 1.379 . S
C322 H306 0.931 . S
C322 C316 1.383 . S
C322 C321 1.379 . S
H323 C317 0.959 . S
H324 C317 0.961 . S
H325 C317 0.960 . S
H326 C318 0.930 . S
H327 C319 0.929 . S
H328 C336 0.929 . S
H329 C338 0.930 . S
H330 C340 0.930 . S
H331 C343 0.929 . S
H332 C346 0.930 . S
H333 C348 0.960 . S
H334 C348 0.960 . S
H335 C348 0.960 . S
C336 H328 0.929 . S
C336 C337 1.377 . S
C336 C338 1.384 . S
C337 C336 1.377 . S
C337 C343 1.390 . S
C338 H329 0.930 . S
C338 C336 1.384 . S
C338 C339 1.372 . S
C339 C338 1.372 . S
C339 C340 1.400 . S
C339 C344 1.490 . S
C340 H330 0.930 . S
C340 C339 1.400 . S
C340 C343 1.386 . S
H341 C357 0.930 . S
H342 C358 0.931 . S
C343 H331 0.929 . S
C343 C337 1.390 . S
C343 C340 1.386 . S
C344 C339 1.490 . S
C344 C346 1.395 . S
C344 C347 1.403 . S
H345 C351 0.930 . S
C346 H332 0.930 . S
C346 C344 1.395 . S
C346 C349 1.403 . S
C347 C344 1.403 . S
C347 C348 1.524 . S
C347 C351 1.400 . S
C348 H333 0.960 . S
C348 H334 0.960 . S
C348 H335 0.960 . S
C348 C347 1.524 . S
C349 C346 1.403 . S
C349 C350 1.392 . S
C349 C353 1.495 . S
C350 C349 1.392 . S
C350 C351 1.385 . S
C350 C352 1.478 . S
C351 H345 0.930 . S
C351 C347 1.400 . S
C351 C350 1.385 . S
C352 C350 1.478 . S
C352 C354 1.381 . S
C352 C358 1.383 . S
C353 C349 1.495 . S
C353 H359 0.959 . S
C353 H360 0.961 . S
C353 H361 0.960 . S
C354 C352 1.381 . S
C354 C355 1.394 . S
C354 H362 0.930 . S
C355 C354 1.394 . S
C355 C356 1.383 . S
C355 H363 0.929 . S
C356 C355 1.383 . S
C356 C357 1.377 . S
C357 H341 0.930 . S
C357 C356 1.377 . S
C357 C358 1.379 . S
C358 H342 0.931 . S
C358 C352 1.383 . S
C358 C357 1.379 . S
H359 C353 0.959 . S
H360 C353 0.961 . S
H361 C353 0.960 . S
H362 C354 0.930 . S
H363 C355 0.929 . S
H364 C372 0.929 . S
H365 C374 0.930 . S
H366 C376 0.930 . S
H367 C379 0.929 . S
H368 C382 0.930 . S
H369 C384 0.960 . S
H370 C384 0.960 . S
H371 C384 0.960 . S
C372 H364 0.929 . S
C372 C373 1.377 . S
C372 C374 1.384 . S
C373 C372 1.377 . S
C373 C379 1.390 . S
C374 H365 0.930 . S
C374 C372 1.384 . S
C374 C375 1.372 . S
C375 C374 1.372 . S
C375 C376 1.400 . S
C375 C380 1.490 . S
C376 H366 0.930 . S
C376 C375 1.400 . S
C376 C379 1.386 . S
H377 C393 0.930 . S
H378 C394 0.931 . S
C379 H367 0.929 . S
C379 C373 1.390 . S
C379 C376 1.386 . S
C380 C375 1.490 . S
C380 C382 1.395 . S
C380 C383 1.403 . S
H381 C387 0.930 . S
C382 H368 0.930 . S
C382 C380 1.395 . S
C382 C385 1.403 . S
C383 C380 1.403 . S
C383 C384 1.524 . S
C383 C387 1.400 . S
C384 H369 0.960 . S
C384 H370 0.960 . S
C384 H371 0.960 . S
C384 C383 1.524 . S
C385 C382 1.403 . S
C385 C386 1.392 . S
C385 C389 1.495 . S
C386 C385 1.392 . S
C386 C387 1.385 . S
C386 C388 1.478 . S
C387 H381 0.930 . S
C387 C383 1.400 . S
C387 C386 1.385 . S
C388 C386 1.478 . S
C388 C390 1.381 . S
C388 C394 1.383 . S
C389 C385 1.495 . S
C389 H395 0.959 . S
C389 H396 0.961 . S
C389 H397 0.960 . S
C390 C388 1.381 . S
C390 C391 1.394 . S
C390 H398 0.930 . S
C391 C390 1.394 . S
C391 C392 1.383 . S
C391 H399 0.929 . S
C392 C391 1.383 . S
C392 C393 1.377 . S
C393 H377 0.930 . S
C393 C392 1.377 . S
C393 C394 1.379 . S
C394 H378 0.931 . S
C394 C388 1.383 . S
C394 C393 1.379 . S
H395 C389 0.959 . S
H396 C389 0.961 . S
H397 C389 0.960 . S
H398 C390 0.930 . S
H399 C391 0.929 . S
H400 C408 0.929 . S
H401 C410 0.930 . S
H402 C412 0.930 . S
H403 C415 0.929 . S
H404 C418 0.930 . S
H405 C420 0.960 . S
H406 C420 0.960 . S
H407 C420 0.960 . S
C408 H400 0.929 . S
C408 C409 1.377 . S
C408 C410 1.384 . S
C409 C408 1.377 . S
C409 C415 1.390 . S
C410 H401 0.930 . S
C410 C408 1.384 . S
C410 C411 1.372 . S
C411 C410 1.372 . S
C411 C412 1.400 . S
C411 C416 1.490 . S
C412 H402 0.930 . S
C412 C411 1.400 . S
C412 C415 1.386 . S
H413 C429 0.930 . S
H414 C430 0.931 . S
C415 H403 0.929 . S
C415 C409 1.390 . S
C415 C412 1.386 . S
C416 C411 1.490 . S
C416 C418 1.395 . S
C416 C419 1.403 1_554 S
H417 C423 0.930 . S
C418 H404 0.930 . S
C418 C416 1.395 . S
C418 C421 1.403 . S
C419 C416 1.403 1_556 S
C419 C420 1.524 . S
C419 C423 1.400 . S
C420 H405 0.960 . S
C420 H406 0.960 . S
C420 H407 0.960 . S
C420 C419 1.524 . S
C421 C418 1.403 . S
C421 C422 1.392 1_554 S
C421 C425 1.495 . S
C422 C421 1.392 1_556 S
C422 C423 1.385 . S
C422 C424 1.478 . S
C423 H417 0.930 . S
C423 C419 1.400 . S
C423 C422 1.385 . S
C424 C422 1.478 . S
C424 C426 1.381 . S
C424 C430 1.383 . S
C425 C421 1.495 . S
C425 H431 0.959 . S
C425 H432 0.961 . S
C425 H433 0.960 . S
C426 C424 1.381 . S
C426 C427 1.394 . S
C426 H434 0.930 . S
C427 C426 1.394 . S
C427 C428 1.383 . S
C427 H435 0.929 . S
C428 C427 1.383 . S
C428 C429 1.377 . S
C429 H413 0.930 . S
C429 C428 1.377 . S
C429 C430 1.379 . S
C430 H414 0.931 . S
C430 C424 1.383 . S
C430 C429 1.379 . S
H431 C425 0.959 . S
H432 C425 0.961 . S
H433 C425 0.960 . S
H434 C426 0.930 . S
H435 C427 0.929 . S
H436 C444 0.929 . S
H437 C446 0.930 . S
H438 C448 0.930 1_556 S
H439 C451 0.929 . S
H440 C454 0.930 . S
H441 C456 0.960 . S
H442 C456 0.960 . S
H443 C456 0.960 . S
C444 H436 0.929 . S
C444 C445 1.377 . S
C444 C446 1.384 . S
C445 C444 1.377 . S
C445 C451 1.390 . S
C446 H437 0.930 . S
C446 C444 1.384 . S
C446 C447 1.372 . S
C447 C446 1.372 . S
C447 C448 1.400 . S
C447 C452 1.490 . S
C448 H438 0.930 1_554 S
C448 C447 1.400 . S
C448 C451 1.386 . S
H449 C465 0.930 . S
H450 C466 0.931 . S
C451 H439 0.929 . S
C451 C445 1.390 . S
C451 C448 1.386 . S
C452 C447 1.490 . S
C452 C454 1.395 1_455 S
C452 C455 1.403 . S
H453 C459 0.930 . S
C454 H440 0.930 . S
C454 C452 1.395 1_655 S
C454 C457 1.403 1_554 S
C455 C452 1.403 . S
C455 C456 1.524 . S
C455 C459 1.400 1_554 S
C456 H441 0.960 . S
C456 H442 0.960 . S
C456 H443 0.960 . S
C456 C455 1.524 . S
C457 C454 1.403 1_556 S
C457 C458 1.392 . S
C457 C461 1.495 . S
C458 C457 1.392 . S
C458 C459 1.385 1_655 S
C458 C460 1.478 . S
C459 H453 0.930 . S
C459 C455 1.400 1_556 S
C459 C458 1.385 1_455 S
C460 C458 1.478 . S
C460 C462 1.381 . S
C460 C466 1.383 . S
C461 C457 1.495 . S
C461 H467 0.959 . S
C461 H468 0.961 . S
C461 H469 0.960 . S
C462 C460 1.381 . S
C462 C463 1.394 . S
C462 H470 0.930 1_556 S
C463 C462 1.394 . S
C463 C464 1.383 . S
C463 H471 0.929 . S
C464 C463 1.383 . S
C464 C465 1.377 . S
C465 H449 0.930 . S
C465 C464 1.377 . S
C465 C466 1.379 . S
C466 H450 0.931 . S
C466 C460 1.383 . S
C466 C465 1.379 . S
H467 C461 0.959 . S
H468 C461 0.961 . S
H469 C461 0.960 . S
H470 C462 0.930 1_554 S
H471 C463 0.929 . S
H472 C480 0.929 . S
H473 C482 0.930 . S
H474 C484 0.930 . S
H475 C487 0.929 . S
H476 C490 0.930 . S
H477 C492 0.960 1_545 S
H478 C492 0.960 . S
H479 C492 0.960 . S
C480 H472 0.929 . S
C480 C481 1.377 . S
C480 C482 1.384 . S
C481 C480 1.377 . S
C481 C487 1.390 . S
C482 H473 0.930 . S
C482 C480 1.384 . S
C482 C483 1.372 . S
C483 C482 1.372 . S
C483 C484 1.400 . S
C483 C488 1.490 . S
C484 H474 0.930 . S
C484 C483 1.400 . S
C484 C487 1.386 . S
H485 C501 0.930 . S
H486 C502 0.931 . S
C487 H475 0.929 . S
C487 C481 1.390 . S
C487 C484 1.386 . S
C488 C483 1.490 . S
C488 C490 1.395 . S
C488 C491 1.403 . S
H489 C495 0.930 . S
C490 H476 0.930 . S
C490 C488 1.395 . S
C490 C493 1.403 1_565 S
C491 C488 1.403 . S
C491 C492 1.524 . S
C491 C495 1.400 1_565 S
C492 H477 0.960 1_565 S
C492 H478 0.960 . S
C492 H479 0.960 . S
C492 C491 1.524 . S
C493 C490 1.403 1_545 S
C493 C494 1.392 . S
C493 C497 1.495 . S
C494 C493 1.392 . S
C494 C495 1.385 . S
C494 C496 1.478 . S
C495 H489 0.930 . S
C495 C491 1.400 1_545 S
C495 C494 1.385 . S
C496 C494 1.478 . S
C496 C498 1.381 . S
C496 C502 1.383 . S
C497 C493 1.495 . S
C497 H503 0.959 1_545 S
C497 H504 0.961 . S
C497 H505 0.957 1_545 S
C498 C496 1.381 . S
C498 C499 1.394 . S
C498 H506 0.930 . S
C499 C498 1.394 . S
C499 C500 1.383 . S
C499 H507 0.929 . S
C500 C499 1.383 . S
C500 C501 1.377 . S
C501 H485 0.930 . S
C501 C500 1.377 . S
C501 C502 1.379 . S
C502 H486 0.931 . S
C502 C496 1.383 . S
C502 C501 1.379 . S
H503 C497 0.959 1_565 S
H504 C497 0.961 . S
H505 C497 0.957 1_565 S
H506 C498 0.930 . S
H507 C499 0.929 . S
H508 C516 0.929 . S
H509 C518 0.930 . S
H510 C520 0.930 . S
H511 C523 0.929 . S
H512 C526 0.930 . S
H513 C528 0.960 . S
H514 C528 0.960 . S
H515 C528 0.974 . S
C516 H508 0.929 . S
C516 C517 1.377 . S
C516 C518 1.384 . S
C517 C516 1.377 . S
C517 C523 1.390 . S
C518 H509 0.930 . S
C518 C516 1.384 . S
C518 C519 1.372 . S
C519 C518 1.372 . S
C519 C520 1.400 . S
C519 C524 1.490 . S
C520 H510 0.930 . S
C520 C519 1.400 . S
C520 C523 1.386 . S
H521 C537 0.930 . S
H522 C538 0.931 . S
C523 H511 0.929 . S
C523 C517 1.390 . S
C523 C520 1.386 . S
C524 C519 1.490 . S
C524 C526 1.395 . S
C524 C527 1.403 1_545 S
H525 C531 0.930 . S
C526 H512 0.930 . S
C526 C524 1.395 . S
C526 C529 1.403 1_655 S
C527 C524 1.403 1_565 S
C527 C528 1.524 . S
C527 C531 1.400 1_655 S
C528 H513 0.960 . S
C528 H514 0.960 . S
C528 H515 0.974 . S
C528 C527 1.524 . S
C529 C526 1.403 1_455 S
C529 C530 1.392 1_545 S
C529 C533 1.495 . S
C530 C529 1.392 1_565 S
C530 C531 1.385 . S
C530 C532 1.478 . S
C531 H525 0.930 . S
C531 C527 1.400 1_455 S
C531 C530 1.385 . S
C532 C530 1.478 . S
C532 C534 1.381 . S
C532 C538 1.383 . S
C533 C529 1.495 . S
C533 H539 0.959 . S
C533 H540 0.961 . S
C533 H541 0.960 . S
C534 C532 1.381 . S
C534 C535 1.394 . S
C534 H542 0.930 . S
C535 C534 1.394 . S
C535 C536 1.383 . S
C535 H543 0.929 . S
C536 C535 1.383 . S
C536 C537 1.377 . S
C537 H521 0.930 . S
C537 C536 1.377 . S
C537 C538 1.379 . S
C538 H522 0.931 . S
C538 C532 1.383 . S
C538 C537 1.379 . S
H539 C533 0.959 . S
H540 C533 0.961 . S
H541 C533 0.960 . S
H542 C534 0.930 . S
H543 C535 0.929 . S
H544 C552 0.929 . S
H545 C554 0.930 . S
H546 C556 0.930 . S
H547 C559 0.929 . S
H548 C562 0.930 . S
H549 C564 0.960 . S
H550 C564 0.960 . S
H551 C564 0.960 . S
C552 H544 0.929 . S
C552 C553 1.377 . S
C552 C554 1.384 . S
C553 C552 1.377 . S
C553 C559 1.390 . S
C554 H545 0.930 . S
C554 C552 1.384 . S
C554 C555 1.372 . S
C555 C554 1.372 . S
C555 C556 1.400 . S
C555 C560 1.490 . S
C556 H546 0.930 . S
C556 C555 1.400 . S
C556 C559 1.386 . S
H557 C573 0.930 . S
H558 C574 0.931 . S
C559 H547 0.929 . S
C559 C553 1.390 . S
C559 C556 1.386 . S
C560 C555 1.490 . S
C560 C562 1.395 . S
C560 C563 1.403 . S
H561 C567 0.930 . S
C562 H548 0.930 . S
C562 C560 1.395 . S
C562 C565 1.403 . S
C563 C560 1.403 . S
C563 C564 1.524 . S
C563 C567 1.400 . S
C564 H549 0.960 . S
C564 H550 0.960 . S
C564 H551 0.960 . S
C564 C563 1.524 . S
C565 C562 1.403 . S
C565 C566 1.392 . S
C565 C569 1.495 . S
C566 C565 1.392 . S
C566 C567 1.385 . S
C566 C568 1.478 . S
C567 H561 0.930 . S
C567 C563 1.400 . S
C567 C566 1.385 . S
C568 C566 1.478 . S
C568 C570 1.381 . S
C568 C574 1.383 . S
C569 C565 1.495 . S
C569 H575 0.959 . S
C569 H576 0.961 . S
C569 H577 0.960 . S
C570 C568 1.381 . S
C570 C571 1.394 . S
C570 H578 0.930 . S
C571 C570 1.394 . S
C571 C572 1.383 . S
C571 H579 0.929 . S
C572 C571 1.383 . S
C572 C573 1.377 . S
C573 H557 0.930 . S
C573 C572 1.377 . S
C573 C574 1.379 . S
C574 H558 0.931 . S
C574 C568 1.383 . S
C574 C573 1.379 . S
H575 C569 0.959 . S
H576 C569 0.961 . S
H577 C569 0.960 . S
H578 C570 0.930 . S
H579 C571 0.929 . S
H580 C588 0.929 . S
H581 C590 0.930 . S
H582 C592 0.930 . S
H583 C595 0.929 . S
H584 C598 0.930 . S
H585 C600 0.960 . S
H586 C600 0.960 . S
H587 C600 0.960 . S
C588 H580 0.929 . S
C588 C589 1.377 . S
C588 C590 1.384 . S
C589 C588 1.377 . S
C589 C595 1.390 . S
C590 H581 0.930 . S
C590 C588 1.384 . S
C590 C591 1.372 . S
C591 C590 1.372 . S
C591 C592 1.400 . S
C591 C596 1.490 . S
C592 H582 0.930 . S
C592 C591 1.400 . S
C592 C595 1.386 . S
H593 C609 0.930 . S
H594 C610 0.931 . S
C595 H583 0.929 . S
C595 C589 1.390 . S
C595 C592 1.386 . S
C596 C591 1.490 . S
C596 C598 1.395 1_545 S
C596 C599 1.403 . S
H597 C603 0.930 . S
C598 H584 0.930 . S
C598 C596 1.395 1_565 S
C598 C601 1.403 . S
C599 C596 1.403 . S
C599 C600 1.524 . S
C599 C603 1.400 . S
C600 H585 0.960 . S
C600 H586 0.960 . S
C600 H587 0.960 . S
C600 C599 1.524 . S
C601 C598 1.403 . S
C601 C602 1.392 . S
C601 C605 1.495 . S
C602 C601 1.392 . S
C602 C603 1.385 1_565 S
C602 C604 1.478 . S
C603 H597 0.930 . S
C603 C599 1.400 . S
C603 C602 1.385 1_545 S
C604 C602 1.478 . S
C604 C606 1.381 . S
C604 C610 1.383 . S
C605 C601 1.495 . S
C605 H611 0.959 . S
C605 H612 0.961 . S
C605 H613 0.960 . S
C606 C604 1.381 . S
C606 C607 1.394 . S
C606 H614 0.930 . S
C607 C606 1.394 . S
C607 C608 1.383 . S
C607 H615 0.929 . S
C608 C607 1.383 . S
C608 C609 1.377 . S
C609 H593 0.930 . S
C609 C608 1.377 . S
C609 C610 1.379 . S
C610 H594 0.931 . S
C610 C604 1.383 . S
C610 C609 1.379 . S
H611 C605 0.959 . S
H612 C605 0.961 . S
H613 C605 0.960 . S
H614 C606 0.930 . S
H615 C607 0.929 . S
H616 C624 0.929 . S
H617 C626 0.930 . S
H618 C628 0.930 . S
H619 C631 0.929 . S
H620 C634 0.930 . S
H621 C636 0.960 . S
H622 C636 0.960 . S
H623 C636 0.960 . S
C624 H616 0.929 . S
C624 C625 1.377 . S
C624 C626 1.384 . S
C625 C624 1.377 . S
C625 C631 1.390 . S
C626 H617 0.930 . S
C626 C624 1.384 . S
C626 C627 1.372 . S
C627 C626 1.372 . S
C627 C628 1.400 . S
C627 C632 1.490 . S
C628 H618 0.930 . S
C628 C627 1.400 . S
C628 C631 1.386 . S
H629 C645 0.930 . S
H630 C646 0.931 . S
C631 H619 0.929 . S
C631 C625 1.390 . S
C631 C628 1.386 . S
C632 C627 1.490 . S
C632 C634 1.395 . S
C632 C635 1.403 . S
H633 C639 0.930 . S
C634 H620 0.930 . S
C634 C632 1.395 . S
C634 C637 1.403 . S
C635 C632 1.403 . S
C635 C636 1.524 . S
C635 C639 1.400 . S
C636 H621 0.960 . S
C636 H622 0.960 . S
C636 H623 0.960 . S
C636 C635 1.524 . S
C637 C634 1.403 . S
C637 C638 1.392 . S
C637 C641 1.495 . S
C638 C637 1.392 . S
C638 C639 1.385 . S
C638 C640 1.478 . S
C639 H633 0.930 . S
C639 C635 1.400 . S
C639 C638 1.385 . S
C640 C638 1.478 . S
C640 C642 1.381 . S
C640 C646 1.383 . S
C641 C637 1.495 . S
C641 H647 0.959 . S
C641 H648 0.961 . S
C641 H649 0.960 . S
C642 C640 1.381 . S
C642 C643 1.394 . S
C642 H650 0.930 . S
C643 C642 1.394 . S
C643 C644 1.383 . S
C643 H651 0.929 . S
C644 C643 1.383 . S
C644 C645 1.377 . S
C645 H629 0.930 . S
C645 C644 1.377 . S
C645 C646 1.379 . S
C646 H630 0.931 . S
C646 C640 1.383 . S
C646 C645 1.379 . S
H647 C641 0.959 . S
H648 C641 0.961 . S
H649 C641 0.960 . S
H650 C642 0.930 . S
H651 C643 0.929 . S
H652 C660 0.929 . S
H653 C662 0.930 . S
H654 C664 0.930 . S
H655 C667 0.929 . S
H656 C670 0.930 . S
H657 C672 0.960 . S
H658 C672 0.960 . S
H659 C672 0.960 . S
C660 H652 0.929 . S
C660 C661 1.377 . S
C660 C662 1.384 . S
C661 C660 1.377 . S
C661 C667 1.390 . S
C662 H653 0.930 . S
C662 C660 1.384 . S
C662 C663 1.372 . S
C663 C662 1.372 . S
C663 C664 1.400 . S
C663 C668 1.490 . S
C664 H654 0.930 . S
C664 C663 1.400 . S
C664 C667 1.386 . S
H665 C681 0.930 . S
H666 C682 0.931 . S
C667 H655 0.929 . S
C667 C661 1.390 . S
C667 C664 1.386 . S
C668 C663 1.490 . S
C668 C670 1.395 1_565 S
C668 C671 1.403 . S
H669 C675 0.930 . S
C670 H656 0.930 . S
C670 C668 1.395 1_545 S
C670 C673 1.403 . S
C671 C668 1.403 . S
C671 C672 1.524 . S
C671 C675 1.400 . S
C672 H657 0.960 . S
C672 H658 0.960 . S
C672 H659 0.960 . S
C672 C671 1.524 . S
C673 C670 1.403 . S
C673 C674 1.392 . S
C673 C677 1.495 . S
C674 C673 1.392 . S
C674 C675 1.385 1_545 S
C674 C676 1.478 . S
C675 H669 0.930 . S
C675 C671 1.400 . S
C675 C674 1.385 1_565 S
C676 C674 1.478 . S
C676 C678 1.381 . S
C676 C682 1.383 . S
C677 C673 1.495 . S
C677 H683 0.959 . S
C677 H684 0.961 . S
C677 H685 0.960 . S
C678 C676 1.381 . S
C678 C679 1.394 . S
C678 H686 0.930 . S
C679 C678 1.394 . S
C679 C680 1.383 . S
C679 H687 0.929 . S
C680 C679 1.383 . S
C680 C681 1.377 . S
C681 H665 0.930 . S
C681 C680 1.377 . S
C681 C682 1.379 . S
C682 H666 0.931 . S
C682 C676 1.383 . S
C682 C681 1.379 . S
H683 C677 0.959 . S
H684 C677 0.961 . S
H685 C677 0.960 . S
H686 C678 0.930 . S
H687 C679 0.929 . S
C121 C9 1.660 . S
C140 C23 1.651 . S
C157 C51 1.655 . S
C176 C37 1.667 . S
C193 C65 1.663 . S
C212 C79 1.675 . S
C229 C93 1.663 . S
C248 C107 1.659 . S
C265 C7 1.676 . S
C284 C35 1.657 . S
C301 C49 1.672 . S
C320 C21 1.690 . S
C337 C63 1.679 . S
C356 C91 1.649 . S
C373 C105 1.668 . S
C392 C77 1.692 . S
C409 C6 1.178 . S
C428 C62 1.178 . S
C445 C20 1.184 . S
C464 C76 1.170 . S
C481 C90 1.180 . S
C500 C34 1.160 . S
C517 C104 1.179 . S
C536 C48 1.185 . S
C553 C22 1.242 . S
C572 C8 1.247 . S
C589 C36 1.241 . S
C608 C50 1.248 . S
C625 C64 1.243 . S
C644 C78 1.247 . S
C661 C92 1.242 . S
C680 C106 1.247 . S
