# Generated by pormake.
# Topology qtz, (4)-cn, num edge types: 1
# Building blocks:
#     Node 0, Type 0, BuildingBlock: UXUYUI_clean_sbu_0, # of connection points: 4
#     Node 1, Type 0, BuildingBlock: UXUYUI_clean_sbu_0, # of connection points: 4
#     Node 2, Type 0, BuildingBlock: UXUYUI_clean_sbu_0, # of connection points: 4
#     Edge 3, Type (0, 0), BuildingBlock: FUNLAD_clean_linker_0, # of connection points: 2
#     Edge 4, Type (0, 0), BuildingBlock: FUNLAD_clean_linker_0, # of connection points: 2
#     Edge 5, Type (0, 0), BuildingBlock: FUNLAD_clean_linker_0, # of connection points: 2
#     Edge 6, Type (0, 0), BuildingBlock: FUNLAD_clean_linker_0, # of connection points: 2
#     Edge 7, Type (0, 0), BuildingBlock: FUNLAD_clean_linker_0, # of connection points: 2
#     Edge 8, Type (0, 0), BuildingBlock: FUNLAD_clean_linker_0, # of connection points: 2
# Relax obj value: 0.181
# Max RMSD: 0.212
# Mean RMSD: 0.212
data_MOF--net-qtz--node1-UXUYUI_clean_sbu_0--edge1-FUNLAD_clean_linker_0
_symmetry_space_group_name_H-M    P1
_symmetry_Int_Tables_number       1
_symmetry_cell_setting            triclinic
loop_
_symmetry_equiv_pos_as_xyz
'x, y, z'
_cell_length_a     38.121298
_cell_length_b     38.062247
_cell_length_c     45.532727
_cell_angle_alpha  90.05842
_cell_angle_beta   90.003806
_cell_angle_gamma 120.0304
loop_
_atom_site_label
_atom_site_type_symbol
_atom_site_fract_x
_atom_site_fract_y
_atom_site_fract_z
_atom_type_partial_charge
Li0 Li 0.01938 0.48304 0.13769 0.0
Li1 Li 0.02155 0.5302 0.17493 0.0
Li2 Li 0.96528 0.46055 0.17237 0.0
Li3 Li 0.97394 0.51076 0.13549 0.0
C4 C 0.02026 0.45657 0.20429 0.0
N5 N 0.01023 0.40908 0.25294 0.0
C6 C 0.02763 0.47354 0.23243 0.0
C7 C 0.00795 0.41547 0.2009 0.0
C8 C 0.0224 0.44902 0.25674 0.0
C9 C 0.00295 0.39196 0.22577 0.0
C10 C 0.06844 0.57632 0.13287 0.0
C11 C 0.10457 0.64887 0.13994 0.0
N12 N 0.14028 0.64926 0.13709 0.0
C13 C 0.10548 0.57744 0.12994 0.0
C14 C 0.06792 0.61232 0.13779 0.0
C15 C 0.14148 0.61463 0.13215 0.0
C16 C 0.05748 0.47971 0.08597 0.0
N17 N 0.05094 0.4678 0.11451 0.0
C18 C 0.08851 0.43345 0.10892 0.0
C19 C 0.0661 0.44536 0.12628 0.0
C20 C 0.09546 0.44495 0.07923 0.0
C21 C 0.07964 0.46844 0.0678 0.0
H22 H 0.04538 0.49795 0.07735 0.0
H23 H 0.06078 0.43669 0.14912 0.0
C24 C 0.04273 0.59617 0.2136 0.0
N25 N 0.05623 0.57311 0.20046 0.0
C26 C 0.06845 0.62851 0.23172 0.0
C27 C 0.12124 0.61221 0.22283 0.0
C28 C 0.09449 0.58022 0.20488 0.0
C29 C 0.10835 0.63696 0.23646 0.0
H30 H 0.01205 0.58959 0.20995 0.0
H31 H 0.10419 0.56101 0.19437 0.0
C32 C 0.95839 0.43194 0.10531 0.0
N33 N 0.95865 0.38997 0.05583 0.0
C34 C 0.95493 0.44524 0.07742 0.0
C35 C 0.96178 0.39717 0.10803 0.0
C36 C 0.95511 0.4236 0.05268 0.0
C37 C 0.96196 0.37644 0.08275 0.0
C38 C 0.93314 0.52026 0.17835 0.0
C39 C 0.89317 0.48992 0.18371 0.0
C40 C 0.94163 0.55968 0.17196 0.0
C41 C 0.86229 0.49951 0.18243 0.0
C42 C 0.90989 0.56802 0.17082 0.0
N43 N 0.87121 0.53801 0.17604 0.0
C44 C 0.92334 0.422 0.22402 0.0
C45 C 0.90428 0.37903 0.18225 0.0
C46 C 0.89666 0.38965 0.24166 0.0
N47 N 0.92695 0.416 0.19501 0.0
C48 C 0.87707 0.34584 0.19905 0.0
C49 C 0.87322 0.35091 0.22922 0.0
H50 H 0.94141 0.45193 0.23343 0.0
H51 H 0.90745 0.37526 0.15908 0.0
C52 C 0.96576 0.56259 0.09459 0.0
N53 N 0.9457 0.52751 0.11011 0.0
C54 C 0.94433 0.57503 0.07659 0.0
C55 C 0.88223 0.51476 0.09078 0.0
C56 C 0.90485 0.5033 0.10819 0.0
C57 C 0.90197 0.55113 0.0748 0.0
H58 H -0.00167 0.58092 0.09622 0.0
H59 H 0.88988 0.47518 0.12038 0.0
O60 O 0.02443 0.47988 0.18024 0.0
O61 O 0.03289 0.5401 0.13146 0.0
O62 O 0.95915 0.45322 0.12977 0.0
O63 O 0.96372 0.51132 0.17902 0.0
H64 H 0.03685 0.50517 0.23552 0.0
H65 H 0.00149 0.40167 0.17933 0.0
H66 H 0.02783 0.46171 0.27865 0.0
H67 H 0.99309 0.36005 0.22348 0.0
H68 H 0.10463 0.67691 0.14398 0.0
H69 H 0.10648 0.54986 0.12635 0.0
H70 H 0.03953 0.61195 0.14044 0.0
H71 H 0.17037 0.61593 0.13007 0.0
H72 H 0.09997 0.41517 0.11856 0.0
H73 H 0.08489 0.47859 0.04519 0.0
H74 H 0.05735 0.64699 0.24157 0.0
H75 H 0.1515 0.61718 0.22627 0.0
H76 H 0.95254 0.47221 0.07485 0.0
H77 H 0.96504 0.38675 0.12941 0.0
H78 H 0.95263 0.43364 0.03096 0.0
H79 H 0.96492 0.3497 0.08453 0.0
H80 H 0.88595 0.45921 0.18851 0.0
H81 H 0.97229 0.58342 0.16734 0.0
H82 H 0.8312 0.4763 0.18642 0.0
H83 H 0.91598 0.59829 0.16564 0.0
H84 H 0.89409 0.39501 0.26472 0.0
H85 H 0.85971 0.31644 0.18863 0.0
H86 H 0.9606 0.60325 0.06455 0.0
H87 H 0.84967 0.49513 0.08953 0.0
Li88 Li 0.5284 0.02252 0.473 0.0
Li89 Li 0.48324 0.02238 0.51116 0.0
Li90 Li 0.50296 0.96855 0.51058 0.0
Li91 Li 0.45492 0.96899 0.47539 0.0
C92 C 0.57721 0.04839 0.52515 0.0
N93 N 0.65695 0.08902 0.54386 0.0
C94 C 0.59381 0.0871 0.53755 0.0
C95 C 0.60101 0.03006 0.52286 0.0
C96 C 0.63423 0.10724 0.54669 0.0
C97 C 0.64127 0.05115 0.53229 0.0
C98 C 0.47169 0.05925 0.46577 0.0
C99 C 0.42638 0.0858 0.47143 0.0
N100 N 0.45641 0.12287 0.46253 0.0
C101 C 0.50198 0.0975 0.45641 0.0
C102 C 0.43345 0.05322 0.47308 0.0
C103 C 0.4937 0.12931 0.455 0.0
C104 C 0.57295 0.04218 0.42033 0.0
N105 N 0.57216 0.05594 0.44774 0.0
C106 C 0.63248 0.11879 0.43807 0.0
C107 C 0.60091 0.0935 0.45679 0.0
C108 C 0.63427 0.10539 0.40965 0.0
C109 C 0.604 0.06646 0.40085 0.0
H110 H 0.54928 0.01241 0.41355 0.0
H111 H 0.59877 0.10434 0.47824 0.0
C112 C 0.44412 0.04119 0.55637 0.0
N113 N 0.47412 0.05711 0.53595 0.0
C114 C 0.43876 0.0667 0.57564 0.0
C115 C 0.49499 0.12439 0.55222 0.0
C116 C 0.49922 0.09781 0.53345 0.0
C117 C 0.46474 0.10889 0.57391 0.0
H118 H 0.42491 0.00866 0.5581 0.0
H119 H 0.52292 0.10961 0.51709 0.0
C120 C 0.5213 0.94234 0.45682 0.0
N121 N 0.55869 0.9012 0.43558 0.0
C122 C 0.49816 0.9033 0.44514 0.0
C123 C 0.56353 0.96072 0.4571 0.0
C124 C 0.51759 0.88291 0.4347 0.0
C125 C 0.58185 0.93938 0.44642 0.0
C126 C 0.41059 0.93222 0.52249 0.0
C127 C 0.4034 0.89367 0.53032 0.0
C128 C 0.37787 0.93854 0.51813 0.0
C129 C 0.36351 0.86188 0.53316 0.0
C130 C 0.33842 0.90597 0.52113 0.0
N131 N 0.33212 0.86862 0.5285 0.0
C132 C 0.53126 0.95012 0.56168 0.0
C133 C 0.50702 0.8981 0.52572 0.0
C134 C 0.53946 0.92664 0.58093 0.0
N135 N 0.5155 0.93563 0.53465 0.0
C136 C 0.51463 0.87352 0.54428 0.0
C137 C 0.53084 0.88763 0.57239 0.0
H138 H 0.53709 0.97983 0.56839 0.0
H139 H 0.49318 0.88669 0.50458 0.0
C140 C 0.39221 0.95077 0.43433 0.0
N141 N 0.40855 0.93453 0.45257 0.0
C142 C 0.35879 0.92555 0.41688 0.0
C143 C 0.35963 0.86745 0.43748 0.0
C144 C 0.393 0.89377 0.45446 0.0
C145 C 0.34221 0.88326 0.41822 0.0
H146 H 0.40538 0.98332 0.43308 0.0
H147 H 0.4068 0.88172 0.46899 0.0
O148 O 0.53758 0.02825 0.51615 0.0
O149 O 0.47939 0.02786 0.46764 0.0
O150 O 0.50265 0.96272 0.46709 0.0
O151 O 0.44944 0.96359 0.51919 0.0
H152 H 0.57581 0.1016 0.53998 0.0
H153 H 0.58843 -0.00037 0.51438 0.0
H154 H 0.64751 0.13734 0.5561 0.0
H155 H 0.65999 0.03729 0.53056 0.0
H156 H 0.39701 0.08163 0.47724 0.0
H157 H 0.53162 0.10266 0.45042 0.0
H158 H 0.40958 0.02378 0.48014 0.0
H159 H 0.51694 0.15912 0.44796 0.0
H160 H 0.65459 0.14893 0.4455 0.0
H161 H 0.60431 0.05489 0.37917 0.0
H162 H 0.41537 0.05349 0.59226 0.0
H163 H 0.51532 0.15673 0.54987 0.0
H164 H 0.46552 0.88875 0.44427 0.0
H165 H 0.58208 0.99137 0.46502 0.0
H166 H 0.49999 0.85257 0.42583 0.0
H167 H 0.6145 0.95327 0.44659 0.0
H168 H 0.42831 0.88826 0.53398 0.0
H169 H 0.38287 0.96822 0.51231 0.0
H170 H 0.35751 0.83184 0.53903 0.0
H171 H 0.31283 0.91037 0.5176 0.0
H172 H 0.55224 0.93885 0.6023 0.0
H173 H 0.50667 0.84332 0.53704 0.0
H174 H 0.3461 0.939 0.40251 0.0
H175 H 0.34829 0.83512 0.43888 0.0
Li176 Li 0.49453 0.46566 0.81419 0.0
Li177 Li 0.53464 0.51548 0.85242 0.0
Li178 Li 0.46228 0.48612 0.85256 0.0
Li179 Li 0.5058 0.53484 0.81462 0.0
C180 C 0.46846 0.41703 0.86351 0.0
N181 N 0.41875 0.33546 0.87526 0.0
C182 C 0.48116 0.3972 0.88293 0.0
C183 C 0.43051 0.39539 0.85005 0.0
C184 C 0.45557 0.35594 0.8886 0.0
C185 C 0.40582 0.35417 0.85628 0.0
C186 C 0.56792 0.53941 0.78632 0.0
C187 C 0.6154 0.60339 0.76413 0.0
N188 N 0.60863 0.5847 0.73757 0.0
C189 C 0.56165 0.5208 0.75884 0.0
C190 C 0.59525 0.581 0.78905 0.0
C191 C 0.58246 0.54423 0.73445 0.0
C192 C 0.46709 0.41262 0.76547 0.0
N193 N 0.48875 0.42205 0.79082 0.0
C194 C 0.50451 0.36954 0.78269 0.0
C195 C 0.50728 0.40132 0.79971 0.0
C196 C 0.48263 0.35922 0.7562 0.0
C197 C 0.46355 0.38107 0.74773 0.0
H198 H 0.45327 0.43016 0.75876 0.0
H199 H 0.52442 0.40969 0.81996 0.0
C200 C 0.57014 0.51743 0.90626 0.0
N201 N 0.57896 0.53142 0.87827 0.0
C202 C 0.60116 0.52795 0.9266 0.0
C203 C 0.64982 0.56696 0.88883 0.0
C204 C 0.61778 0.55566 0.86919 0.0
C205 C 0.64167 0.55296 0.91796 0.0
H206 H 0.5389 0.49797 0.91271 0.0
H207 H 0.62385 0.56616 0.84674 0.0
C208 C 0.41914 0.47974 0.79859 0.0
N209 N 0.34878 0.474 0.77675 0.0
C210 C 0.41414 0.51373 0.79855 0.0
C211 C 0.38834 0.44287 0.78746 0.0
C212 C 0.37836 0.5102 0.78742 0.0
C213 C 0.35299 0.44056 0.77657 0.0
C214 C 0.52369 0.56861 0.88025 0.0
C215 C 0.50695 0.5589 0.90842 0.0
C216 C 0.56187 0.6029 0.87619 0.0
C217 C 0.52896 0.58336 0.93213 0.0
C218 C 0.58295 0.62655 0.90046 0.0
N219 N 0.5662 0.61635 0.9277 0.0
C220 C 0.41761 0.4507 0.90407 0.0
C221 C 0.38564 0.47474 0.87176 0.0
C222 C 0.38676 0.43957 0.92471 0.0
N223 N 0.41657 0.46796 0.87816 0.0
C224 C 0.35416 0.46409 0.89173 0.0
C225 C 0.35466 0.44662 0.91877 0.0
H226 H 0.44307 0.44671 0.90917 0.0
H227 H 0.38583 0.4896 0.85166 0.0
C228 C 0.5039 0.56906 0.76018 0.0
N229 N 0.51191 0.57717 0.78927 0.0
C230 C 0.50736 0.59926 0.74108 0.0
C231 C 0.52684 0.64543 0.7823 0.0
C232 C 0.52308 0.61436 0.80058 0.0
C233 C 0.5188 0.63802 0.75213 0.0
H234 H 0.49443 0.53895 0.75193 0.0
H235 H 0.52865 0.61978 0.82385 0.0
O236 O 0.4934 0.45736 0.85766 0.0
O237 O 0.54728 0.51709 0.81038 0.0
O238 O 0.45435 0.48267 0.80867 0.0
O239 O 0.503 0.54445 0.85686 0.0
H240 H 0.5105 0.41357 0.89349 0.0
H241 H 0.42019 0.41023 0.83501 0.0
H242 H 0.46499 0.3402 0.90359 0.0
H243 H 0.37637 0.33706 0.84602 0.0
H244 H 0.63633 0.63565 0.76588 0.0
H245 H 0.5408 0.48867 0.7563 0.0
H246 H 0.60036 0.59598 0.81009 0.0
H247 H 0.57774 0.53024 0.71303 0.0
H248 H 0.51931 0.35321 0.7902 0.0
H249 H 0.44695 0.37457 0.72727 0.0
H250 H 0.59352 0.51586 0.94867 0.0
H251 H 0.68058 0.5865 0.88132 0.0
H252 H 0.43714 0.5423 0.80763 0.0
H253 H 0.39165 0.41624 0.78724 0.0
H254 H 0.37403 0.5362 0.7874 0.0
H255 H 0.32891 0.4122 0.76792 0.0
H256 H 0.47739 0.5327 0.91199 0.0
H257 H 0.57544 0.61076 0.85461 0.0
H258 H 0.51644 0.57606 0.95406 0.0
H259 H 0.61269 0.65291 0.89766 0.0
H260 H 0.38835 0.42614 0.94526 0.0
H261 H 0.33054 0.47098 0.8865 0.0
H262 H 0.50023 0.59206 0.71805 0.0
H263 H 0.53601 0.67495 0.79168 0.0
C264 C 0.28262 0.42288 0.93311 0.0
C265 C 0.3233 0.43841 0.94126 0.0
C266 C 0.25382 0.41882 0.95385 0.0
C267 C 0.26509 0.43003 0.98336 0.0
C268 C 0.30554 0.44443 0.99157 0.0
C269 C 0.3343 0.44851 0.97083 0.0
C270 C 0.23684 0.43052 0.00568 0.0
C271 C 0.19624 0.41142 0.00258 0.0
C272 C 0.16954 0.41717 0.02342 0.0
C273 C 0.13311 0.41318 0.01289 0.0
C274 C 0.10867 0.42146 0.03113 0.0
C275 C 0.11997 0.43353 0.06041 0.0
H276 H 0.20702 0.42949 0.06237 0.0
C277 C 0.1555 0.43575 0.07134 0.0
C278 C 0.17997 0.42752 0.0531 0.0
H279 H 0.16503 0.44492 0.09381 0.0
H280 H 0.27314 0.41451 0.91053 0.0
H281 H 0.22333 0.40835 0.94622 0.0
H282 H 0.31521 0.45355 0.01404 0.0
H283 H 0.36549 0.46111 0.97779 0.0
H284 H 0.2507 0.44913 0.02499 0.0
H285 H 0.18195 0.39308 0.98327 0.0
H286 H 0.12407 0.40473 0.99024 0.0
H287 H 0.08102 0.41865 0.02223 0.0
C288 C 0.85617 0.31068 0.27582 0.0
C289 C 0.84472 0.31611 0.24762 0.0
C290 C 0.82895 0.27868 0.29357 0.0
C291 C 0.78946 0.25159 0.28355 0.0
C292 C 0.77851 0.25634 0.25502 0.0
C293 C 0.80576 0.28831 0.23725 0.0
C294 C 0.75878 0.21825 0.3021 0.0
C295 C 0.75969 0.21913 0.33169 0.0
C296 C 0.72744 0.18764 0.3505 0.0
C297 C 0.73662 0.18448 0.37989 0.0
C298 C 0.70666 0.15718 0.39893 0.0
C299 C 0.66667 0.13257 0.38902 0.0
H300 H 0.67862 0.16498 0.31832 0.0
C301 C 0.6575 0.13536 0.35952 0.0
C302 C 0.68746 0.16267 0.34048 0.0
H303 H 0.6268 0.11741 0.35137 0.0
H304 H 0.88635 0.33103 0.28411 0.0
H305 H 0.83926 0.27523 0.31493 0.0
H306 H 0.74842 0.23576 0.24665 0.0
H307 H 0.79597 0.29178 0.21566 0.0
H308 H 0.73379 0.19308 0.29077 0.0
H309 H 0.78468 0.24432 0.34301 0.0
H310 H 0.76708 0.20344 0.38825 0.0
H311 H 0.71478 0.15545 0.42146 0.0
C312 C 0.5266 0.85963 0.62289 0.0
C313 C 0.53692 0.86106 0.59311 0.0
C314 C 0.53036 0.83324 0.6422 0.0
C315 C 0.54418 0.80733 0.63207 0.0
C316 C 0.55577 0.80974 0.60255 0.0
C317 C 0.552 0.83616 0.58322 0.0
C318 C 0.54692 0.77757 0.65161 0.0
C319 C 0.52298 0.76126 0.67531 0.0
C320 C 0.52391 0.73035 0.69469 0.0
C321 C 0.50698 0.72466 0.72286 0.0
C322 C 0.50576 0.69507 0.74158 0.0
C323 C 0.5212 0.67019 0.73246 0.0
H324 H 0.55171 0.70789 0.66372 0.0
C325 C 0.5381 0.67573 0.70424 0.0
C326 C 0.5394 0.70542 0.6855 0.0
H327 H 0.55038 0.6571 0.69663 0.0
H328 H 0.51477 0.8783 0.63123 0.0
H329 H 0.52253 0.83346 0.665 0.0
H330 H 0.56705 0.79055 0.59427 0.0
H331 H 0.56088 0.83707 0.56051 0.0
H332 H 0.56842 0.76806 0.64551 0.0
H333 H 0.50127 0.77069 0.68099 0.0
H334 H 0.49445 0.74311 0.73042 0.0
H335 H 0.49192 0.69112 0.763 0.0
C336 C 0.70972 0.56157 0.92997 0.0
C337 C 0.67511 0.56282 0.93897 0.0
C338 C 0.73959 0.56725 0.95027 0.0
C339 C 0.73558 0.5746 0.98006 0.0
C340 C 0.70149 0.57687 0.98886 0.0
C341 C 0.67166 0.57123 0.96855 0.0
C342 C 0.76398 0.5759 0.00294 0.0
C343 C 0.80237 0.58507 -0.00269 0.0
C344 C 0.82909 0.58014 0.01883 0.0
C345 C 0.86599 0.5847 0.00871 0.0
C346 C 0.89037 0.57651 0.02711 0.0
C347 C 0.87826 0.56343 0.05605 0.0
H348 H 0.7907 0.56591 0.05771 0.0
C349 C 0.84234 0.5605 0.06665 0.0
C350 C 0.81809 0.56893 0.04837 0.0
H351 H 0.83277 0.55129 0.08911 0.0
H352 H 0.71294 0.55443 0.90745 0.0
H353 H 0.76464 0.56391 0.94266 0.0
H354 H 0.69751 0.58228 0.01166 0.0
H355 H 0.64559 0.5729 0.9761 0.0
H356 H 0.75169 0.56766 0.0249 0.0
H357 H 0.81448 0.59493 0.97538 0.0
H358 H 0.87548 0.59345 0.98618 0.0
H359 H 0.91792 0.57895 0.01834 0.0
C360 C 0.30707 0.8659 0.36933 0.0
C361 C 0.30802 0.85574 0.39887 0.0
C362 C 0.27647 0.83873 0.35056 0.0
C363 C 0.24629 0.8006 0.36091 0.0
C364 C 0.24632 0.79121 0.39071 0.0
C365 C 0.2769 0.81838 0.40947 0.0
C366 C 0.21466 0.76969 0.34137 0.0
C367 C 0.21988 0.76797 0.31223 0.0
C368 C 0.19013 0.7349 0.29295 0.0
C369 C 0.20377 0.72734 0.26634 0.0
C370 C 0.17724 0.69578 0.24794 0.0
C371 C 0.1363 0.67116 0.25566 0.0
H372 H 0.13674 0.71652 0.32013 0.0
C373 C 0.12235 0.67935 0.28193 0.0
C374 C 0.14888 0.71096 0.30033 0.0
H375 H 0.09099 0.66091 0.28856 0.0
H376 H 0.3306 0.89442 0.36045 0.0
H377 H 0.27675 0.84777 0.32801 0.0
H378 H 0.22312 0.76233 0.39938 0.0
H379 H 0.27632 0.80999 0.43227 0.0
H380 H 0.18775 0.74575 0.35189 0.0
H381 H 0.24844 0.78986 0.30226 0.0
H382 H 0.23525 0.74559 0.2599 0.0
H383 H 0.18879 0.69082 0.22756 0.0
C384 C 0.44477 0.29934 0.72264 0.0
C385 C 0.48086 0.32679 0.73706 0.0
C386 C 0.44356 0.26958 0.70394 0.0
C387 C 0.47864 0.26689 0.69911 0.0
C388 C 0.5144 0.29384 0.71402 0.0
C389 C 0.51559 0.32351 0.73269 0.0
C390 C 0.4797 0.23676 0.67885 0.0
C391 C 0.45208 0.21669 0.65765 0.0
C392 C 0.4559 0.18904 0.63651 0.0
C393 C 0.42078 0.15711 0.62386 0.0
C394 C 0.42349 0.13091 0.6036 0.0
C395 C 0.46148 0.13656 0.59528 0.0
H396 H 0.52178 0.21999 0.63633 0.0
C397 C 0.49662 0.16888 0.60763 0.0
C398 C 0.49392 0.19492 0.62791 0.0
H399 H 0.52634 0.17392 0.60181 0.0
H400 H 0.4173 0.30061 0.72602 0.0
H401 H 0.41498 0.24873 0.69371 0.0
H402 H 0.54185 0.29244 0.71085 0.0
H403 H 0.544 0.34445 0.74321 0.0
H404 H 0.50535 0.23194 0.6811 0.0
H405 H 0.42574 0.22029 0.65538 0.0
H406 H 0.39116 0.15225 0.6298 0.0
H407 H 0.39589 0.10657 0.59417 0.0
loop_
_geom_bond_atom_site_label_1
_geom_bond_atom_site_label_2
_geom_bond_distance
_geom_bond_site_symmetry_2
_ccdc_geom_bond_type
Li0 N17 1.990 . S
Li0 O60 1.956 . S
Li0 O61 1.970 . S
Li0 O62 1.961 1_455 S
Li1 N25 1.990 . S
Li1 O60 1.970 . S
Li1 O61 1.956 . S
Li1 O63 1.961 1_455 S
Li2 N47 1.990 . S
Li2 O60 1.961 1_655 S
Li2 O62 1.956 . S
Li2 O63 1.970 . S
Li3 N53 1.990 . S
Li3 O61 1.961 1_655 S
Li3 O62 1.970 . S
Li3 O63 1.956 . S
C4 C6 1.348 . S
C4 C7 1.356 . S
C4 O60 1.325 . S
N5 C8 1.314 . S
N5 C9 1.279 . S
C6 C4 1.348 . S
C6 C8 1.353 . S
C6 H64 0.929 . S
C7 C4 1.356 . S
C7 C9 1.358 . S
C7 H65 0.930 . S
C8 N5 1.314 . S
C8 C6 1.353 . S
C8 H66 0.930 . S
C9 N5 1.279 . S
C9 C7 1.358 . S
C9 H67 0.930 . S
C10 C13 1.348 . S
C10 C14 1.356 . S
C10 O61 1.325 . S
C11 N12 1.279 . S
C11 C14 1.358 . S
C11 H68 0.930 . S
N12 C11 1.279 . S
N12 C15 1.314 . S
C13 C10 1.348 . S
C13 C15 1.353 . S
C13 H69 0.929 . S
C14 C10 1.356 . S
C14 C11 1.358 . S
C14 H70 0.930 . S
C15 N12 1.314 . S
C15 C13 1.353 . S
C15 H71 0.930 . S
C16 N17 1.314 . S
C16 C21 1.353 . S
C16 H22 0.930 . S
N17 Li0 1.990 . S
N17 C16 1.314 . S
N17 C19 1.279 . S
C18 C19 1.358 . S
C18 C20 1.356 . S
C18 H72 0.930 . S
C19 N17 1.279 . S
C19 C18 1.358 . S
C19 H23 0.930 . S
C20 C18 1.356 . S
C20 C21 1.348 . S
C21 C16 1.353 . S
C21 C20 1.348 . S
C21 H73 0.929 . S
H22 C16 0.930 . S
H23 C19 0.930 . S
C24 N25 1.314 . S
C24 C26 1.353 . S
C24 H30 0.930 . S
N25 Li1 1.990 . S
N25 C24 1.314 . S
N25 C28 1.279 . S
C26 C24 1.353 . S
C26 C29 1.348 . S
C26 H74 0.929 . S
C27 C28 1.358 . S
C27 C29 1.356 . S
C27 H75 0.930 . S
C28 N25 1.279 . S
C28 C27 1.358 . S
C28 H31 0.930 . S
C29 C26 1.348 . S
C29 C27 1.356 . S
H30 C24 0.930 . S
H31 C28 0.930 . S
C32 C34 1.348 . S
C32 C35 1.356 . S
C32 O62 1.325 . S
N33 C36 1.314 . S
N33 C37 1.279 . S
C34 C32 1.348 . S
C34 C36 1.353 . S
C34 H76 0.929 . S
C35 C32 1.356 . S
C35 C37 1.358 . S
C35 H77 0.930 . S
C36 N33 1.314 . S
C36 C34 1.353 . S
C36 H78 0.930 . S
C37 N33 1.279 . S
C37 C35 1.358 . S
C37 H79 0.930 . S
C38 C39 1.348 . S
C38 C40 1.356 . S
C38 O63 1.325 . S
C39 C38 1.348 . S
C39 C41 1.353 . S
C39 H80 0.929 . S
C40 C38 1.356 . S
C40 C42 1.358 . S
C40 H81 0.930 . S
C41 C39 1.353 . S
C41 N43 1.314 . S
C41 H82 0.930 . S
C42 C40 1.358 . S
C42 N43 1.279 . S
C42 H83 0.930 . S
N43 C41 1.314 . S
N43 C42 1.279 . S
C44 C46 1.353 . S
C44 N47 1.314 . S
C44 H50 0.930 . S
C45 N47 1.279 . S
C45 C48 1.358 . S
C45 H51 0.930 . S
C46 C44 1.353 . S
C46 C49 1.348 . S
C46 H84 0.929 . S
N47 Li2 1.990 . S
N47 C44 1.314 . S
N47 C45 1.279 . S
C48 C45 1.358 . S
C48 C49 1.356 . S
C48 H85 0.930 . S
C49 C46 1.348 . S
C49 C48 1.356 . S
H50 C44 0.930 . S
H51 C45 0.930 . S
C52 N53 1.314 . S
C52 C54 1.353 . S
C52 H58 0.930 . S
N53 Li3 1.990 . S
N53 C52 1.314 . S
N53 C56 1.279 . S
C54 C52 1.353 . S
C54 C57 1.348 . S
C54 H86 0.929 . S
C55 C56 1.358 . S
C55 C57 1.356 . S
C55 H87 0.930 . S
C56 N53 1.279 . S
C56 C55 1.358 . S
C56 H59 0.930 . S
C57 C54 1.348 . S
C57 C55 1.356 . S
H58 C52 0.930 . S
H59 C56 0.930 . S
O60 Li0 1.956 . S
O60 Li1 1.970 . S
O60 Li2 1.961 1_455 S
O60 C4 1.325 . S
O61 Li0 1.970 . S
O61 Li1 1.956 . S
O61 Li3 1.961 1_455 S
O61 C10 1.325 . S
O62 Li0 1.961 1_655 S
O62 Li2 1.956 . S
O62 Li3 1.970 . S
O62 C32 1.325 . S
O63 Li1 1.961 1_655 S
O63 Li2 1.970 . S
O63 Li3 1.956 . S
O63 C38 1.325 . S
H64 C6 0.929 . S
H65 C7 0.930 . S
H66 C8 0.930 . S
H67 C9 0.930 . S
H68 C11 0.930 . S
H69 C13 0.929 . S
H70 C14 0.930 . S
H71 C15 0.930 . S
H72 C18 0.930 . S
H73 C21 0.929 . S
H74 C26 0.929 . S
H75 C27 0.930 . S
H76 C34 0.929 . S
H77 C35 0.930 . S
H78 C36 0.930 . S
H79 C37 0.930 . S
H80 C39 0.929 . S
H81 C40 0.930 . S
H82 C41 0.930 . S
H83 C42 0.930 . S
H84 C46 0.929 . S
H85 C48 0.930 . S
H86 C54 0.929 . S
H87 C55 0.930 . S
Li88 N105 1.990 . S
Li88 O148 1.956 . S
Li88 O149 1.970 . S
Li88 O150 1.961 1_545 S
Li89 N113 1.990 . S
Li89 O148 1.970 . S
Li89 O149 1.956 . S
Li89 O151 1.961 1_545 S
Li90 N135 1.990 . S
Li90 O148 1.961 1_565 S
Li90 O150 1.956 . S
Li90 O151 1.970 . S
Li91 N141 1.990 . S
Li91 O149 1.961 1_565 S
Li91 O150 1.970 . S
Li91 O151 1.956 . S
C92 C94 1.348 . S
C92 C95 1.356 . S
C92 O148 1.325 . S
N93 C96 1.314 . S
N93 C97 1.279 . S
C94 C92 1.348 . S
C94 C96 1.353 . S
C94 H152 0.929 . S
C95 C92 1.356 . S
C95 C97 1.358 . S
C95 H153 0.930 . S
C96 N93 1.314 . S
C96 C94 1.353 . S
C96 H154 0.930 . S
C97 N93 1.279 . S
C97 C95 1.358 . S
C97 H155 0.930 . S
C98 C101 1.348 . S
C98 C102 1.356 . S
C98 O149 1.325 . S
C99 N100 1.279 . S
C99 C102 1.358 . S
C99 H156 0.930 . S
N100 C99 1.279 . S
N100 C103 1.314 . S
C101 C98 1.348 . S
C101 C103 1.353 . S
C101 H157 0.929 . S
C102 C98 1.356 . S
C102 C99 1.358 . S
C102 H158 0.930 . S
C103 N100 1.314 . S
C103 C101 1.353 . S
C103 H159 0.930 . S
C104 N105 1.314 . S
C104 C109 1.353 . S
C104 H110 0.930 . S
N105 Li88 1.990 . S
N105 C104 1.314 . S
N105 C107 1.279 . S
C106 C107 1.358 . S
C106 C108 1.356 . S
C106 H160 0.930 . S
C107 N105 1.279 . S
C107 C106 1.358 . S
C107 H111 0.930 . S
C108 C106 1.356 . S
C108 C109 1.348 . S
C109 C104 1.353 . S
C109 C108 1.348 . S
C109 H161 0.929 . S
H110 C104 0.930 . S
H111 C107 0.930 . S
C112 N113 1.314 . S
C112 C114 1.353 . S
C112 H118 0.930 . S
N113 Li89 1.990 . S
N113 C112 1.314 . S
N113 C116 1.279 . S
C114 C112 1.353 . S
C114 C117 1.348 . S
C114 H162 0.929 . S
C115 C116 1.358 . S
C115 C117 1.356 . S
C115 H163 0.930 . S
C116 N113 1.279 . S
C116 C115 1.358 . S
C116 H119 0.930 . S
C117 C114 1.348 . S
C117 C115 1.356 . S
H118 C112 0.930 . S
H119 C116 0.930 . S
C120 C122 1.348 . S
C120 C123 1.356 . S
C120 O150 1.325 . S
N121 C124 1.314 . S
N121 C125 1.279 . S
C122 C120 1.348 . S
C122 C124 1.353 . S
C122 H164 0.929 . S
C123 C120 1.356 . S
C123 C125 1.358 . S
C123 H165 0.930 . S
C124 N121 1.314 . S
C124 C122 1.353 . S
C124 H166 0.930 . S
C125 N121 1.279 . S
C125 C123 1.358 . S
C125 H167 0.930 . S
C126 C127 1.348 . S
C126 C128 1.356 . S
C126 O151 1.325 . S
C127 C126 1.348 . S
C127 C129 1.353 . S
C127 H168 0.929 . S
C128 C126 1.356 . S
C128 C130 1.358 . S
C128 H169 0.930 . S
C129 C127 1.353 . S
C129 N131 1.314 . S
C129 H170 0.930 . S
C130 C128 1.358 . S
C130 N131 1.279 . S
C130 H171 0.930 . S
N131 C129 1.314 . S
N131 C130 1.279 . S
C132 C134 1.353 . S
C132 N135 1.314 . S
C132 H138 0.930 . S
C133 N135 1.279 . S
C133 C136 1.358 . S
C133 H139 0.930 . S
C134 C132 1.353 . S
C134 C137 1.348 . S
C134 H172 0.929 . S
N135 Li90 1.990 . S
N135 C132 1.314 . S
N135 C133 1.279 . S
C136 C133 1.358 . S
C136 C137 1.356 . S
C136 H173 0.930 . S
C137 C134 1.348 . S
C137 C136 1.356 . S
H138 C132 0.930 . S
H139 C133 0.930 . S
C140 N141 1.314 . S
C140 C142 1.353 . S
C140 H146 0.930 . S
N141 Li91 1.990 . S
N141 C140 1.314 . S
N141 C144 1.279 . S
C142 C140 1.353 . S
C142 C145 1.348 . S
C142 H174 0.929 . S
C143 C144 1.358 . S
C143 C145 1.356 . S
C143 H175 0.930 . S
C144 N141 1.279 . S
C144 C143 1.358 . S
C144 H147 0.930 . S
C145 C142 1.348 . S
C145 C143 1.356 . S
H146 C140 0.930 . S
H147 C144 0.930 . S
O148 Li88 1.956 . S
O148 Li89 1.970 . S
O148 Li90 1.961 1_545 S
O148 C92 1.325 . S
O149 Li88 1.970 . S
O149 Li89 1.956 . S
O149 Li91 1.961 1_545 S
O149 C98 1.325 . S
O150 Li88 1.961 1_565 S
O150 Li90 1.956 . S
O150 Li91 1.970 . S
O150 C120 1.325 . S
O151 Li89 1.961 1_565 S
O151 Li90 1.970 . S
O151 Li91 1.956 . S
O151 C126 1.325 . S
H152 C94 0.929 . S
H153 C95 0.930 . S
H154 C96 0.930 . S
H155 C97 0.930 . S
H156 C99 0.930 . S
H157 C101 0.929 . S
H158 C102 0.930 . S
H159 C103 0.930 . S
H160 C106 0.930 . S
H161 C109 0.929 . S
H162 C114 0.929 . S
H163 C115 0.930 . S
H164 C122 0.929 . S
H165 C123 0.930 . S
H166 C124 0.930 . S
H167 C125 0.930 . S
H168 C127 0.929 . S
H169 C128 0.930 . S
H170 C129 0.930 . S
H171 C130 0.930 . S
H172 C134 0.929 . S
H173 C136 0.930 . S
H174 C142 0.929 . S
H175 C143 0.930 . S
Li176 N193 1.990 . S
Li176 O236 1.956 . S
Li176 O237 1.970 . S
Li176 O238 1.961 . S
Li177 N201 1.990 . S
Li177 O236 1.970 . S
Li177 O237 1.956 . S
Li177 O239 1.961 . S
Li178 N223 1.990 . S
Li178 O236 1.961 . S
Li178 O238 1.956 . S
Li178 O239 1.970 . S
Li179 N229 1.990 . S
Li179 O237 1.961 . S
Li179 O238 1.970 . S
Li179 O239 1.956 . S
C180 C182 1.348 . S
C180 C183 1.356 . S
C180 O236 1.325 . S
N181 C184 1.314 . S
N181 C185 1.279 . S
C182 C180 1.348 . S
C182 C184 1.353 . S
C182 H240 0.929 . S
C183 C180 1.356 . S
C183 C185 1.358 . S
C183 H241 0.930 . S
C184 N181 1.314 . S
C184 C182 1.353 . S
C184 H242 0.930 . S
C185 N181 1.279 . S
C185 C183 1.358 . S
C185 H243 0.930 . S
C186 C189 1.348 . S
C186 C190 1.356 . S
C186 O237 1.325 . S
C187 N188 1.279 . S
C187 C190 1.358 . S
C187 H244 0.930 . S
N188 C187 1.279 . S
N188 C191 1.314 . S
C189 C186 1.348 . S
C189 C191 1.353 . S
C189 H245 0.929 . S
C190 C186 1.356 . S
C190 C187 1.358 . S
C190 H246 0.930 . S
C191 N188 1.314 . S
C191 C189 1.353 . S
C191 H247 0.930 . S
C192 N193 1.314 . S
C192 C197 1.353 . S
C192 H198 0.930 . S
N193 Li176 1.990 . S
N193 C192 1.314 . S
N193 C195 1.279 . S
C194 C195 1.358 . S
C194 C196 1.356 . S
C194 H248 0.930 . S
C195 N193 1.279 . S
C195 C194 1.358 . S
C195 H199 0.930 . S
C196 C194 1.356 . S
C196 C197 1.348 . S
C197 C192 1.353 . S
C197 C196 1.348 . S
C197 H249 0.929 . S
H198 C192 0.930 . S
H199 C195 0.930 . S
C200 N201 1.314 . S
C200 C202 1.353 . S
C200 H206 0.930 . S
N201 Li177 1.990 . S
N201 C200 1.314 . S
N201 C204 1.279 . S
C202 C200 1.353 . S
C202 C205 1.348 . S
C202 H250 0.929 . S
C203 C204 1.358 . S
C203 C205 1.356 . S
C203 H251 0.930 . S
C204 N201 1.279 . S
C204 C203 1.358 . S
C204 H207 0.930 . S
C205 C202 1.348 . S
C205 C203 1.356 . S
H206 C200 0.930 . S
H207 C204 0.930 . S
C208 C210 1.348 . S
C208 C211 1.356 . S
C208 O238 1.325 . S
N209 C212 1.314 . S
N209 C213 1.279 . S
C210 C208 1.348 . S
C210 C212 1.353 . S
C210 H252 0.929 . S
C211 C208 1.356 . S
C211 C213 1.358 . S
C211 H253 0.930 . S
C212 N209 1.314 . S
C212 C210 1.353 . S
C212 H254 0.930 . S
C213 N209 1.279 . S
C213 C211 1.358 . S
C213 H255 0.930 . S
C214 C215 1.348 . S
C214 C216 1.356 . S
C214 O239 1.325 . S
C215 C214 1.348 . S
C215 C217 1.353 . S
C215 H256 0.929 . S
C216 C214 1.356 . S
C216 C218 1.358 . S
C216 H257 0.930 . S
C217 C215 1.353 . S
C217 N219 1.314 . S
C217 H258 0.930 . S
C218 C216 1.358 . S
C218 N219 1.279 . S
C218 H259 0.930 . S
N219 C217 1.314 . S
N219 C218 1.279 . S
C220 C222 1.353 . S
C220 N223 1.314 . S
C220 H226 0.930 . S
C221 N223 1.279 . S
C221 C224 1.358 . S
C221 H227 0.930 . S
C222 C220 1.353 . S
C222 C225 1.348 . S
C222 H260 0.929 . S
N223 Li178 1.990 . S
N223 C220 1.314 . S
N223 C221 1.279 . S
C224 C221 1.358 . S
C224 C225 1.356 . S
C224 H261 0.930 . S
C225 C222 1.348 . S
C225 C224 1.356 . S
H226 C220 0.930 . S
H227 C221 0.930 . S
C228 N229 1.314 . S
C228 C230 1.353 . S
C228 H234 0.930 . S
N229 Li179 1.990 . S
N229 C228 1.314 . S
N229 C232 1.279 . S
C230 C228 1.353 . S
C230 C233 1.348 . S
C230 H262 0.929 . S
C231 C232 1.358 . S
C231 C233 1.356 . S
C231 H263 0.930 . S
C232 N229 1.279 . S
C232 C231 1.358 . S
C232 H235 0.930 . S
C233 C230 1.348 . S
C233 C231 1.356 . S
H234 C228 0.930 . S
H235 C232 0.930 . S
O236 Li176 1.956 . S
O236 Li177 1.970 . S
O236 Li178 1.961 . S
O236 C180 1.325 . S
O237 Li176 1.970 . S
O237 Li177 1.956 . S
O237 Li179 1.961 . S
O237 C186 1.325 . S
O238 Li176 1.961 . S
O238 Li178 1.956 . S
O238 Li179 1.970 . S
O238 C208 1.325 . S
O239 Li177 1.961 . S
O239 Li178 1.970 . S
O239 Li179 1.956 . S
O239 C214 1.325 . S
H240 C182 0.929 . S
H241 C183 0.930 . S
H242 C184 0.930 . S
H243 C185 0.930 . S
H244 C187 0.930 . S
H245 C189 0.929 . S
H246 C190 0.930 . S
H247 C191 0.930 . S
H248 C194 0.930 . S
H249 C197 0.929 . S
H250 C202 0.929 . S
H251 C203 0.930 . S
H252 C210 0.929 . S
H253 C211 0.930 . S
H254 C212 0.930 . S
H255 C213 0.930 . S
H256 C215 0.929 . S
H257 C216 0.930 . S
H258 C217 0.930 . S
H259 C218 0.930 . S
H260 C222 0.929 . S
H261 C224 0.930 . S
H262 C230 0.929 . S
H263 C231 0.930 . S
C264 C265 1.386 . S
C264 C266 1.383 . S
C264 H280 0.951 . S
C265 C264 1.386 . S
C265 C269 1.383 . S
C266 C264 1.383 . S
C266 C267 1.402 . S
C266 H281 0.951 . S
C267 C266 1.402 . S
C267 C268 1.375 . S
C267 C270 1.481 1_556 S
C268 C267 1.375 . S
C268 C269 1.367 . S
C268 H282 0.951 . S
C269 C265 1.383 . S
C269 C268 1.367 . S
C269 H283 0.950 . S
C270 C267 1.481 1_554 S
C270 C271 1.297 . S
C270 H284 0.950 . S
C271 C270 1.297 . S
C271 C272 1.479 . S
C271 H285 0.957 . S
C272 C271 1.479 . S
C272 C273 1.375 . S
C272 C278 1.404 . S
C273 C272 1.375 . S
C273 C274 1.369 . S
C273 H286 0.950 . S
C274 C273 1.369 . S
C274 C275 1.392 . S
C274 H287 0.951 . S
C275 C274 1.392 . S
C275 C277 1.384 . S
H276 C278 0.949 . S
C277 C275 1.384 . S
C277 C278 1.385 . S
C277 H279 0.950 . S
C278 C272 1.404 . S
C278 H276 0.949 . S
C278 C277 1.385 . S
H279 C277 0.950 . S
H280 C264 0.951 . S
H281 C266 0.951 . S
H282 C268 0.951 . S
H283 C269 0.950 . S
H284 C270 0.950 . S
H285 C271 0.957 . S
H286 C273 0.950 . S
H287 C274 0.951 . S
C288 C289 1.386 . S
C288 C290 1.383 . S
C288 H304 0.951 . S
C289 C288 1.386 . S
C289 C293 1.383 . S
C290 C288 1.383 . S
C290 C291 1.402 . S
C290 H305 0.951 . S
C291 C290 1.402 . S
C291 C292 1.375 . S
C291 C294 1.481 . S
C292 C291 1.375 . S
C292 C293 1.367 . S
C292 H306 0.951 . S
C293 C289 1.383 . S
C293 C292 1.367 . S
C293 H307 0.950 . S
C294 C291 1.481 . S
C294 C295 1.297 . S
C294 H308 0.950 . S
C295 C294 1.297 . S
C295 C296 1.479 . S
C295 H309 0.950 . S
C296 C295 1.479 . S
C296 C297 1.375 . S
C296 C302 1.404 . S
C297 C296 1.375 . S
C297 C298 1.369 . S
C297 H310 0.950 . S
C298 C297 1.369 . S
C298 C299 1.392 . S
C298 H311 0.951 . S
C299 C298 1.392 . S
C299 C301 1.384 . S
H300 C302 0.949 . S
C301 C299 1.384 . S
C301 C302 1.385 . S
C301 H303 0.950 . S
C302 C296 1.404 . S
C302 H300 0.949 . S
C302 C301 1.385 . S
H303 C301 0.950 . S
H304 C288 0.951 . S
H305 C290 0.951 . S
H306 C292 0.951 . S
H307 C293 0.950 . S
H308 C294 0.950 . S
H309 C295 0.950 . S
H310 C297 0.950 . S
H311 C298 0.951 . S
C312 C313 1.386 . S
C312 C314 1.383 . S
C312 H328 0.951 . S
C313 C312 1.386 . S
C313 C317 1.383 . S
C314 C312 1.383 . S
C314 C315 1.402 . S
C314 H329 0.951 . S
C315 C314 1.402 . S
C315 C316 1.375 . S
C315 C318 1.481 . S
C316 C315 1.375 . S
C316 C317 1.367 . S
C316 H330 0.951 . S
C317 C313 1.383 . S
C317 C316 1.367 . S
C317 H331 0.950 . S
C318 C315 1.481 . S
C318 C319 1.297 . S
C318 H332 0.950 . S
C319 C318 1.297 . S
C319 C320 1.479 . S
C319 H333 0.950 . S
C320 C319 1.479 . S
C320 C321 1.375 . S
C320 C326 1.404 . S
C321 C320 1.375 . S
C321 C322 1.369 . S
C321 H334 0.950 . S
C322 C321 1.369 . S
C322 C323 1.392 . S
C322 H335 0.951 . S
C323 C322 1.392 . S
C323 C325 1.384 . S
H324 C326 0.949 . S
C325 C323 1.384 . S
C325 C326 1.385 . S
C325 H327 0.950 . S
C326 C320 1.404 . S
C326 H324 0.949 . S
C326 C325 1.385 . S
H327 C325 0.950 . S
H328 C312 0.951 . S
H329 C314 0.951 . S
H330 C316 0.951 . S
H331 C317 0.950 . S
H332 C318 0.950 . S
H333 C319 0.950 . S
H334 C321 0.950 . S
H335 C322 0.951 . S
C336 C337 1.386 . S
C336 C338 1.383 . S
C336 H352 0.951 . S
C337 C336 1.386 . S
C337 C341 1.383 . S
C338 C336 1.383 . S
C338 C339 1.402 . S
C338 H353 0.951 . S
C339 C338 1.402 . S
C339 C340 1.375 . S
C339 C342 1.481 1_556 S
C340 C339 1.375 . S
C340 C341 1.367 . S
C340 H354 0.951 1_556 S
C341 C337 1.383 . S
C341 C340 1.367 . S
C341 H355 0.950 . S
C342 C339 1.481 1_554 S
C342 C343 1.295 1_554 S
C342 H356 0.950 . S
C343 C342 1.295 1_556 S
C343 C344 1.460 1_556 S
C343 H357 0.976 . S
C344 C343 1.460 1_554 S
C344 C345 1.375 . S
C344 C350 1.404 . S
C345 C344 1.375 . S
C345 C346 1.369 . S
C345 H358 0.950 1_554 S
C346 C345 1.369 . S
C346 C347 1.392 . S
C346 H359 0.951 . S
C347 C346 1.392 . S
C347 C349 1.384 . S
H348 C350 0.949 . S
C349 C347 1.384 . S
C349 C350 1.385 . S
C349 H351 0.950 . S
C350 C344 1.404 . S
C350 H348 0.949 . S
C350 C349 1.385 . S
H351 C349 0.950 . S
H352 C336 0.951 . S
H353 C338 0.951 . S
H354 C340 0.951 1_554 S
H355 C341 0.950 . S
H356 C342 0.950 . S
H357 C343 0.976 . S
H358 C345 0.950 1_556 S
H359 C346 0.951 . S
C360 C361 1.386 . S
C360 C362 1.383 . S
C360 H376 0.951 . S
C361 C360 1.386 . S
C361 C365 1.383 . S
C362 C360 1.383 . S
C362 C363 1.402 . S
C362 H377 0.951 . S
C363 C362 1.402 . S
C363 C364 1.375 . S
C363 C366 1.481 . S
C364 C363 1.375 . S
C364 C365 1.367 . S
C364 H378 0.951 . S
C365 C361 1.383 . S
C365 C364 1.367 . S
C365 H379 0.950 . S
C366 C363 1.481 . S
C366 C367 1.297 . S
C366 H380 0.950 . S
C367 C366 1.297 . S
C367 C368 1.479 . S
C367 H381 0.950 . S
C368 C367 1.479 . S
C368 C369 1.375 . S
C368 C374 1.404 . S
C369 C368 1.375 . S
C369 C370 1.369 . S
C369 H382 0.950 . S
C370 C369 1.369 . S
C370 C371 1.392 . S
C370 H383 0.951 . S
C371 C370 1.392 . S
C371 C373 1.384 . S
H372 C374 0.949 . S
C373 C371 1.384 . S
C373 C374 1.385 . S
C373 H375 0.950 . S
C374 C368 1.404 . S
C374 H372 0.949 . S
C374 C373 1.385 . S
H375 C373 0.950 . S
H376 C360 0.951 . S
H377 C362 0.951 . S
H378 C364 0.951 . S
H379 C365 0.950 . S
H380 C366 0.950 . S
H381 C367 0.950 . S
H382 C369 0.950 . S
H383 C370 0.951 . S
C384 C385 1.386 . S
C384 C386 1.383 . S
C384 H400 0.951 . S
C385 C384 1.386 . S
C385 C389 1.383 . S
C386 C384 1.383 . S
C386 C387 1.402 . S
C386 H401 0.951 . S
C387 C386 1.402 . S
C387 C388 1.375 . S
C387 C390 1.481 . S
C388 C387 1.375 . S
C388 C389 1.367 . S
C388 H402 0.951 . S
C389 C385 1.383 . S
C389 C388 1.367 . S
C389 H403 0.950 . S
C390 C387 1.481 . S
C390 C391 1.297 . S
C390 H404 0.950 . S
C391 C390 1.297 . S
C391 C392 1.479 . S
C391 H405 0.950 . S
C392 C391 1.479 . S
C392 C393 1.375 . S
C392 C398 1.404 . S
C393 C392 1.375 . S
C393 C394 1.369 . S
C393 H406 0.950 . S
C394 C393 1.369 . S
C394 C395 1.392 . S
C394 H407 0.951 . S
C395 C394 1.392 . S
C395 C397 1.384 . S
H396 C398 0.949 . S
C397 C395 1.384 . S
C397 C398 1.385 . S
C397 H399 0.950 . S
C398 C392 1.404 . S
C398 H396 0.949 . S
C398 C397 1.385 . S
H399 C397 0.950 . S
H400 C384 0.951 . S
H401 C386 0.951 . S
H402 C388 0.951 . S
H403 C389 0.950 . S
H404 C390 0.950 . S
H405 C391 0.950 . S
H406 C393 0.950 . S
H407 C394 0.951 . S
C265 C225 1.144 . S
C275 C20 1.167 . S
C289 C49 1.145 . S
C299 C108 1.127 . S
C313 C137 1.161 . S
C323 C233 1.130 . S
C337 C205 1.159 . S
C347 C57 1.165 . S
C361 C145 1.146 . S
C371 C29 1.126 . S
C385 C196 1.138 . S
C395 C117 1.149 . S
