# Generated by pormake.
# Topology rob, (6)-cn, num edge types: 1
# Building blocks:
#     Node 0, Type 0, BuildingBlock: INOVEN_clean_sbu_0, # of connection points: 6
#     Node 1, Type 0, BuildingBlock: INOVEN_clean_sbu_0, # of connection points: 6
#     Node 2, Type 0, BuildingBlock: INOVEN_clean_sbu_0, # of connection points: 6
#     Node 3, Type 0, BuildingBlock: INOVEN_clean_sbu_0, # of connection points: 6
#     Edge 4, Type (0, 0), BuildingBlock: XUDNAN_clean_linker_2, # of connection points: 2
#     Edge 5, Type (0, 0), BuildingBlock: XUDNAN_clean_linker_2, # of connection points: 2
#     Edge 6, Type (0, 0), BuildingBlock: XUDNAN_clean_linker_2, # of connection points: 2
#     Edge 7, Type (0, 0), BuildingBlock: XUDNAN_clean_linker_2, # of connection points: 2
#     Edge 8, Type (0, 0), BuildingBlock: XUDNAN_clean_linker_2, # of connection points: 2
#     Edge 9, Type (0, 0), BuildingBlock: XUDNAN_clean_linker_2, # of connection points: 2
#     Edge 10, Type (0, 0), BuildingBlock: XUDNAN_clean_linker_2, # of connection points: 2
#     Edge 11, Type (0, 0), BuildingBlock: XUDNAN_clean_linker_2, # of connection points: 2
#     Edge 12, Type (0, 0), BuildingBlock: XUDNAN_clean_linker_2, # of connection points: 2
#     Edge 13, Type (0, 0), BuildingBlock: XUDNAN_clean_linker_2, # of connection points: 2
#     Edge 14, Type (0, 0), BuildingBlock: XUDNAN_clean_linker_2, # of connection points: 2
#     Edge 15, Type (0, 0), BuildingBlock: XUDNAN_clean_linker_2, # of connection points: 2
# Relax obj value: 0.127
# Max RMSD: 0.188
# Mean RMSD: 0.188
data_MOF--net-rob--node1-INOVEN_clean_sbu_0--edge1-XUDNAN_clean_linker_2
_symmetry_space_group_name_H-M    P1
_symmetry_Int_Tables_number       1
_symmetry_cell_setting            triclinic
loop_
_symmetry_equiv_pos_as_xyz
'x, y, z'
_cell_length_a     16.428578
_cell_length_b     23.310361
_cell_length_c     37.035431
_cell_angle_alpha  90.090305
_cell_angle_beta   125.79616
_cell_angle_gamma 89.988194
loop_
_atom_site_label
_atom_site_type_symbol
_atom_site_fract_x
_atom_site_fract_y
_atom_site_fract_z
_atom_type_partial_charge
Gd0 Gd 0.17803 0.29378 1.00199 0.0
Gd1 Gd 0.36132 0.24028 0.00537 0.0
C2 C 0.37398 0.2404 0.09535 0.0
C3 C 0.03723 0.31633 0.01135 0.0
C4 C 0.02507 0.3204 0.0478 0.0
C5 C 0.98808 0.37155 0.053 0.0
C6 C 0.04957 0.27483 0.0774 0.0
C7 C 0.9971 0.33147 0.11599 0.0
C8 C 0.03555 0.28031 0.11114 0.0
C9 C 0.9748 0.37719 0.08677 0.0
C10 C 0.31884 0.36747 0.01322 0.0
C11 C 0.16172 0.28969 0.91297 0.0
C12 C 0.51095 0.2355 0.99989 0.0
C13 C 0.52276 0.22255 0.96396 0.0
C14 C 0.60318 0.18864 0.97296 0.0
C15 C 0.45549 0.24471 0.92075 0.0
C16 C 0.54958 0.19946 0.89632 0.0
C17 C 0.469 0.23348 0.8874 0.0
C18 C 0.61627 0.17709 0.9395 0.0
C19 C 0.21578 0.15935 0.97903 0.0
O20 O 0.28072 0.26033 0.07249 0.0
O21 O 0.42392 0.23302 0.07762 0.0
O22 O 0.09336 0.35583 0.01104 0.0
O23 O 0.05055 0.26534 1.00062 0.0
O24 O 0.22378 0.37959 0.98999 0.0
O25 O 0.33438 0.31836 0.03043 0.0
O26 O 0.25942 0.28003 0.93778 0.0
O27 O 0.10742 0.28782 0.92876 0.0
O28 O 0.48673 0.19268 0.01489 0.0
O29 O 0.46296 0.28296 0.99524 0.0
O30 O 0.29831 0.14984 0.98282 0.0
O31 O 0.2159 0.21136 0.98816 0.0
H32 H 0.96934 0.40742 0.03082 0.0
H33 H 0.07884 0.2349 0.07434 0.0
H34 H 0.05284 0.24406 0.13278 0.0
H35 H 0.94728 0.4177 0.09 0.0
H36 H 0.65625 0.17125 0.00598 0.0
H37 H 0.39236 0.27084 0.91264 0.0
H38 H 0.41536 0.25077 0.85442 0.0
H39 H 0.67945 0.15125 0.94759 0.0
Gd40 Gd 0.69838 0.78773 0.00485 0.0
Gd41 Gd 0.86043 0.73372 0.99944 0.0
C42 C 0.91551 0.75361 0.09477 0.0
C43 C 0.58122 0.80988 0.02855 0.0
C44 C 0.57848 0.7971 0.06722 0.0
C45 C 0.596 0.8412 0.09697 0.0
C46 C 0.55565 0.74187 0.07424 0.0
C47 C 0.56444 0.77584 0.13893 0.0
C48 C 0.54861 0.73144 0.10961 0.0
C49 C 0.58953 0.83068 0.13248 0.0
C50 C 0.80444 0.86415 0.99241 0.0
C51 C 0.64574 0.77332 0.90964 0.0
C52 C 0.97468 0.70706 0.975 0.0
C53 C 0.9768 0.71923 0.93601 0.0
C54 C 0.92571 0.68365 0.89802 0.0
C55 C 0.03332 0.7653 0.93709 0.0
C56 C 0.99176 0.73836 0.86422 0.0
C57 C 0.04001 0.775 0.90161 0.0
C58 C 0.93294 0.69315 0.86256 0.0
C59 C 0.75995 0.65797 0.01523 0.0
O60 O 0.81775 0.75804 0.07416 0.0
O61 O 0.95595 0.75081 0.07272 0.0
O62 O 0.65168 0.84488 0.03585 0.0
O63 O 0.56588 0.76731 1.00204 0.0
O64 O 0.71113 0.87155 0.97714 0.0
O65 O 0.8387 0.81975 0.01637 0.0
O66 O 0.74272 0.76473 0.93047 0.0
O67 O 0.60414 0.77762 0.93106 0.0
O68 O 0.90224 0.67409 0.96797 0.0
O69 O 0.99444 0.74958 1.00224 0.0
O70 O 0.85453 0.65421 0.03175 0.0
O71 O 0.72064 0.70013 0.98869 0.0
H72 H 0.61329 0.88425 0.09238 0.0
H73 H 0.54209 0.70672 0.05219 0.0
H74 H 0.53028 0.68852 0.11387 0.0
H75 H 0.60127 0.86598 0.1541 0.0
H76 H 0.88163 0.64759 0.89598 0.0
H77 H 0.0737 0.7936 0.96569 0.0
H78 H 0.08427 0.81106 0.9038 0.0
H79 H 0.89519 0.66382 0.83458 0.0
Gd80 Gd 0.38279 0.79386 0.5156 0.0
Gd81 Gd 0.17231 0.76551 0.48777 0.0
C82 C 0.19537 0.78482 0.41074 0.0
C83 C 0.53871 0.79794 0.51457 0.0
C84 C 0.55087 0.78483 0.47869 0.0
C85 C 0.58748 0.82714 0.46462 0.0
C86 C 0.51705 0.73262 0.45524 0.0
C87 C 0.54956 0.76693 0.4024 0.0
C88 C 0.51719 0.72364 0.41788 0.0
C89 C 0.58665 0.81842 0.42692 0.0
C90 C 0.28343 0.88441 0.51824 0.0
C91 C 0.36141 0.78198 0.59291 0.0
C92 C 1.01404 0.75613 0.48712 0.0
C93 C 0.99718 0.7647 0.52201 0.0
C94 C 0.94689 0.7225 0.52918 0.0
C95 C 0.04084 0.81125 0.55165 0.0
C96 C 0.99484 0.76964 0.59795 0.0
C97 C 0.03958 0.8137 0.58909 0.0
C98 C 0.94533 0.72502 0.56668 0.0
C99 C 0.27152 0.6757 0.48411 0.0
O100 O 0.2916 0.77806 0.44239 0.0
O101 O 0.12811 0.7878 0.41951 0.0
O102 O 0.48356 0.84285 0.50759 0.0
O103 O 0.52021 0.7548 0.53145 0.0
O104 O 0.37993 0.87727 0.54534 0.0
O105 O 0.24446 0.84557 0.48868 0.0
O106 O 0.26411 0.78494 0.56115 0.0
O107 O 0.42804 0.77607 0.58411 0.0
O108 O 0.07198 0.71288 0.49386 0.0
O109 O 0.0335 0.80168 0.47267 0.0
O110 O 0.17565 0.68414 0.45629 0.0
O111 O 0.31032 0.71352 0.51449 0.0
H112 H 0.61334 0.86794 0.48188 0.0
H113 H 0.48762 0.69917 0.46489 0.0
H114 H 0.49018 0.68288 0.40071 0.0
H115 H 0.61132 0.85308 0.41603 0.0
H116 H 0.91272 0.68611 0.50683 0.0
H117 H 0.07987 0.84459 0.54701 0.0
H118 H 0.07695 0.84924 0.61205 0.0
H119 H 0.91039 0.69035 0.57247 0.0
Gd120 Gd 0.85083 0.30316 0.50691 0.0
Gd121 Gd 0.68534 0.23814 0.50171 0.0
C122 C 0.66646 0.24602 0.41308 0.0
C123 C 0.98334 0.33717 0.49488 0.0
C124 C 0.98939 0.33853 0.45647 0.0
C125 C 0.98762 0.39165 0.43817 0.0
C126 C 0.99234 0.28787 0.43645 0.0
C127 C 0.98428 0.34369 0.37891 0.0
C128 C 0.99043 0.29051 0.39814 0.0
C129 C 0.98431 0.3942 0.39964 0.0
C130 C 0.70583 0.36988 0.49824 0.0
C131 C 0.87638 0.29066 0.59719 0.0
C132 C 0.55372 0.20836 0.51535 0.0
C133 C 0.55907 0.19879 0.55628 0.0
C134 C 0.63636 0.16582 0.5917 0.0
C135 C 0.48839 0.22468 0.56087 0.0
C136 C 0.5713 0.18423 0.63535 0.0
C137 C 0.49455 0.21766 0.6 0.0
C138 C 0.64194 0.15833 0.63059 0.0
C139 C 0.83203 0.17135 0.51171 0.0
O140 O 0.76179 0.2614 0.43921 0.0
O141 O 0.61078 0.24249 0.42806 0.0
O142 O 0.91681 0.3713 0.49217 0.0
O143 O 0.98682 0.28697 0.51155 0.0
O144 O 0.80041 0.38304 0.52293 0.0
O145 O 0.69164 0.32323 0.47776 0.0
O146 O 0.78343 0.27071 0.5729 0.0
O147 O 0.92602 0.30085 0.57995 0.0
O148 O 0.60068 0.17148 0.50689 0.0
O149 O 0.56571 0.2614 0.50778 0.0
O150 O 0.73796 0.15675 0.48786 0.0
O151 O 0.84435 0.21854 0.53116 0.0
H152 H 0.98616 0.43133 0.45305 0.0
H153 H 0.99372 0.24618 0.44967 0.0
H154 H 0.98979 0.25096 0.38257 0.0
H155 H 0.98035 0.43576 0.38562 0.0
H156 H 0.69305 0.14605 0.58954 0.0
H157 H 0.42848 0.25058 0.53417 0.0
H158 H 0.43826 0.23774 0.60229 0.0
H159 H 0.70251 0.13276 0.65722 0.0
H160 H 0.55418 0.64274 0.97303 0.0
H161 H 0.84618 0.57046 0.07373 0.0
H162 H 0.76521 0.4908 0.08493 0.0
H163 H 0.43501 0.60272 0.0282 0.0
H164 H 0.31589 0.58577 0.9768 0.0
H165 H 0.39628 0.63916 0.9776 0.0
H166 H 0.3922 0.58355 0.91597 0.0
H167 H 0.31231 0.52983 0.91514 0.0
H168 H 0.42906 0.50914 0.92459 0.0
H169 H 0.65525 0.41637 0.08351 0.0
H170 H 0.52097 0.35281 0.0711 0.0
H171 H 0.2969 0.4706 0.97157 0.0
C172 C 0.60075 0.61037 0.99767 0.0
C173 C 0.70674 0.61286 0.0224 0.0
C174 C 0.76502 0.56952 0.05423 0.0
C175 C 0.71972 0.52395 0.06092 0.0
C176 C 0.61551 0.52204 0.03567 0.0
C177 C 0.55638 0.56411 0.00485 0.0
C178 C 0.4457 0.55058 0.98177 0.0
C179 C 0.39524 0.59734 0.99169 0.0
C180 C 0.39166 0.54281 0.93138 0.0
C181 C 0.45241 0.49408 0.00398 0.0
C182 C 0.55134 0.47872 0.03506 0.0
C183 C 0.57747 0.42805 0.05944 0.0
C184 C 0.50061 0.39207 0.05204 0.0
C185 C 0.39852 0.40654 0.02033 0.0
C186 C 0.37432 0.45844 0.99611 0.0
H187 H 0.47522 0.64853 0.53615 0.0
H188 H 0.18259 0.58729 0.42603 0.0
H189 H 0.26094 0.50211 0.41907 0.0
H190 H 0.60513 0.6037 0.48826 0.0
H191 H 0.71863 0.58374 0.54096 0.0
H192 H 0.63951 0.63931 0.53863 0.0
H193 H 0.62785 0.58403 0.59599 0.0
H194 H 0.7064 0.52808 0.5983 0.0
H195 H 0.58454 0.51071 0.58477 0.0
H196 H 0.36925 0.4228 0.4237 0.0
H197 H 0.50293 0.35693 0.4377 0.0
H198 H 0.72755 0.47022 0.54216 0.0
C199 C 0.42792 0.6173 0.51054 0.0
C200 C 0.3226 0.62478 0.48164 0.0
C201 C 0.26333 0.58265 0.44864 0.0
C202 C 0.30713 0.53396 0.44437 0.0
C203 C 0.41087 0.52793 0.47303 0.0
C204 C 0.47088 0.56857 0.50527 0.0
C205 C 0.58094 0.55217 0.53074 0.0
C206 C 0.63947 0.59742 0.52424 0.0
C207 C 0.62764 0.54321 0.58039 0.0
C208 C 0.57286 0.49586 0.50798 0.0
C209 C 0.47392 0.48264 0.47493 0.0
C210 C 0.44711 0.43275 0.44941 0.0
C211 C 0.52346 0.39551 0.45761 0.0
C212 C 0.62549 0.40845 0.49085 0.0
C213 C 0.65014 0.45925 0.51641 0.0
H214 H 0.08294 0.15466 1.00279 0.0
H215 H 0.19145 0.05816 0.93873 0.0
H216 H 0.09226 0.97444 0.93227 0.0
H217 H 0.09223 0.04062 0.06728 0.0
H218 H 0.97925 0.05901 0.06211 0.0
H219 H 0.05032 0.11411 0.05805 0.0
H220 H 0.89291 0.14405 0.98109 0.0
H221 H 0.82146 0.08906 0.98516 0.0
H222 H 0.82577 0.09099 0.93764 0.0
H223 H 0.99353 0.89856 0.93781 0.0
H224 H 0.89408 0.83618 0.95232 0.0
H225 H 0.84405 0.97948 0.01168 0.0
C226 C 0.08306 0.11655 0.98616 0.0
C227 C 0.14392 0.11332 0.97063 0.0
C228 C 0.14495 0.06182 0.95056 0.0
C229 C 0.08882 1.01393 0.94674 0.0
C230 C 0.03141 1.01784 0.96314 0.0
C231 C 0.02707 0.06787 0.9821 0.0
C232 C 0.96292 0.05906 0.99901 0.0
C233 C 0.02491 0.06877 0.04962 0.0
C234 C 0.87025 0.09817 0.97419 0.0
C235 C 0.93334 0.99626 0.98712 0.0
C236 C 0.97396 0.9735 0.96645 0.0
C237 C 0.96104 0.91594 0.95384 0.0
C238 C 0.90533 0.8806 0.9626 0.0
C239 C 0.8626 0.90273 0.98353 0.0
C240 C 0.87577 0.96155 0.99546 0.0
H241 H 0.81547 0.0725 0.46702 0.0
H242 H 0.0338 0.18856 0.57096 0.0
H243 H 0.17126 0.128 0.58305 0.0
H244 H 0.95119 0.9411 0.51952 0.0
H245 H 0.91613 0.90764 0.46838 0.0
H246 H 0.83425 0.95971 0.46772 0.0
H247 H 0.83657 0.02002 0.40962 0.0
H248 H 0.91806 0.96793 0.40998 0.0
H249 H 0.95511 0.04228 0.42155 0.0
H250 H 0.28475 0.05362 0.5858 0.0
H251 H 0.36815 0.97279 0.57684 0.0
H252 H 0.07842 0.9063 0.46828 0.0
C253 C 0.89229 0.08506 0.49234 0.0
C254 C 0.91407 0.13521 0.51823 0.0
C255 C 1.01541 0.15043 0.55079 0.0
C256 C 0.09396 0.11621 0.55793 0.0
C257 C 0.07009 0.06695 0.53206 0.0
C258 C 0.97181 0.05146 0.49971 0.0
C259 C 0.96722 0.9966 0.47623 0.0
C260 C 0.91405 0.94843 0.4834 0.0
C261 C 0.91624 1.00737 0.42639 0.0
C262 C 0.07829 0.98376 0.50045 0.0
C263 C 0.136 0.02472 0.53277 0.0
C264 C 0.24031 0.02154 0.56041 0.0
C265 C 0.28702 0.97536 0.55501 0.0
C266 C 0.22998 0.933 0.52191 0.0
C267 C 0.12406 0.93766 0.49405 0.0
H268 H 0.47804 0.2659 0.33494 0.0
H269 H 0.76902 0.19038 0.38788 0.0
H270 H 0.7186 0.17288 0.31193 0.0
H271 H 0.32974 0.17117 0.23365 0.0
H272 H 0.24916 0.22907 0.19873 0.0
H273 H 0.30102 0.22867 0.25714 0.0
H274 H 0.37662 0.32933 0.26604 0.0
H275 H 0.32522 0.33007 0.2078 0.0
H276 H 0.45793 0.34099 0.2489 0.0
H277 H 0.64762 0.17305 0.23239 0.0
H278 H 0.55663 0.18908 0.15189 0.0
H279 H 0.30972 0.26501 0.14788 0.0
C280 C 0.52951 0.24412 0.33029 0.0
C281 C 0.62715 0.22915 0.36717 0.0
C282 C 0.69387 0.20218 0.36001 0.0
C283 C 0.66586 0.19182 0.31701 0.0
C284 C 0.57062 0.20859 0.28128 0.0
C285 C 0.50282 0.2338 0.28716 0.0
C286 C 0.4084 0.25184 0.24266 0.0
C287 C 0.31667 0.21816 0.23246 0.0
C288 C 0.39113 0.31692 0.2413 0.0
C289 C 0.43583 0.23454 0.21142 0.0
C290 C 0.52922 0.20904 0.23451 0.0
C291 C 0.57368 0.19219 0.21369 0.0
C292 C 0.52151 0.20176 0.16792 0.0
C293 C 0.42589 0.22819 0.14337 0.0
C294 C 0.38228 0.2442 0.16552 0.0
H295 H 0.68043 0.81446 0.2262 0.0
H296 H 0.4133 0.71535 0.13208 0.0
H297 H 0.38357 0.70068 0.18944 0.0
H298 H 0.75986 0.72736 0.32353 0.0
H299 H 0.8052 0.78796 0.36084 0.0
H300 H 0.80687 0.78985 0.31263 0.0
H301 H 0.70325 0.88379 0.28681 0.0
H302 H 0.70111 0.88204 0.33486 0.0
H303 H 0.58506 0.8855 0.27983 0.0
H304 H 0.37759 0.7005 0.25546 0.0
H305 H 0.3989 0.71134 0.32653 0.0
H306 H 0.67456 0.80703 0.38016 0.0
C307 C 0.61601 0.78944 0.21774 0.0
C308 C 0.54963 0.76568 0.17456 0.0
C309 C 0.46615 0.73321 0.16498 0.0
C310 C 0.44829 0.7249 0.19731 0.0
C311 C 0.51501 0.74886 0.23941 0.0
C312 C 0.59769 0.78011 0.2499 0.0
C313 C 0.65766 0.80109 0.29782 0.0
C314 C 0.76367 0.775 0.32533 0.0
C315 C 0.66197 0.86702 0.29993 0.0
C316 C 0.59465 0.77756 0.3123 0.0
C317 C 0.5128 0.74759 0.27801 0.0
C318 C 0.44222 0.72316 0.28276 0.0
C319 C 0.45554 0.72927 0.3236 0.0
C320 C 0.5391 0.75953 0.35962 0.0
C321 C 0.60953 0.78386 0.35354 0.0
H322 H 0.70149 0.74508 0.8558 0.0
H323 H 0.45593 0.81862 0.85394 0.0
H324 H 0.36253 0.83525 0.77284 0.0
H325 H 0.68274 0.84141 0.77479 0.0
H326 H 0.71227 0.7871 0.74955 0.0
H327 H 0.76326 0.78241 0.80776 0.0
H328 H 0.68763 0.68121 0.79652 0.0
H329 H 0.63919 0.68409 0.73865 0.0
H330 H 0.55559 0.66998 0.75421 0.0
H331 H 0.30006 0.8462 0.69361 0.0
H332 H 0.25566 0.83545 0.61811 0.0
H333 H 0.54079 0.75155 0.67139 0.0
C334 C 0.62813 0.76489 0.83851 0.0
C335 C 0.58586 0.78092 0.8611 0.0
C336 C 0.48937 0.80602 0.83716 0.0
C337 C 0.43635 0.81598 0.7913 0.0
C338 C 0.48112 0.80032 0.7703 0.0
C339 C 0.57428 0.77473 0.793 0.0
C340 C 0.60398 0.75968 0.76237 0.0
C341 C 0.69605 0.79472 0.77436 0.0
C342 C 0.6226 0.69488 0.76297 0.0
C343 C 0.51069 0.77861 0.71831 0.0
C344 C 0.44227 0.80339 0.72398 0.0
C345 C 0.35121 0.8251 0.68851 0.0
C346 C 0.32689 0.81873 0.64578 0.0
C347 C 0.3936 0.79107 0.63884 0.0
C348 C 0.48793 0.77217 0.67572 0.0
H349 H 0.54184 0.26433 0.68164 0.0
H350 H 0.61355 0.08483 0.68285 0.0
H351 H 0.62193 0.07006 0.75095 0.0
H352 H 0.70212 0.28408 0.80176 0.0
H353 H 0.61522 0.3315 0.80159 0.0
H354 H 0.61877 0.32834 0.7539 0.0
H355 H 0.42861 0.30482 0.70327 0.0
H356 H 0.42446 0.30776 0.75076 0.0
H357 H 0.38215 0.24427 0.71645 0.0
H358 H 0.61858 0.07421 0.81822 0.0
H359 H 0.60048 0.09657 0.8784 0.0
H360 H 0.52889 0.2731 0.83312 0.0
C361 C 0.55881 0.22183 0.69608 0.0
C362 C 0.57717 0.17576 0.67678 0.0
C363 C 0.60058 0.12103 0.69723 0.0
C364 C 0.60509 0.11213 0.73587 0.0
C365 C 0.58637 0.1584 0.75391 0.0
C366 C 0.56382 0.21221 0.73473 0.0
C367 C 0.54574 0.25455 0.7605 0.0
C368 C 0.62518 0.30245 0.78063 0.0
C369 C 0.43888 0.27928 0.73098 0.0
C370 C 0.55896 0.21582 0.79647 0.0
C371 C 0.58359 0.16068 0.79239 0.0
C372 C 0.59961 0.11731 0.82178 0.0
C373 C 0.58957 0.1305 0.85603 0.0
C374 C 0.56303 0.18657 0.86058 0.0
C375 C 0.54806 0.22967 0.83032 0.0
H376 H 0.85184 0.74123 0.14766 0.0
H377 H 0.11989 0.76816 0.15249 0.0
H378 H 0.21904 0.78034 0.23422 0.0
H379 H 0.90358 0.84531 0.22695 0.0
H380 H 0.85586 0.80472 0.2522 0.0
H381 H 0.80497 0.79343 0.19448 0.0
H382 H 0.84538 0.68541 0.20793 0.0
H383 H 0.89294 0.69521 0.26538 0.0
H384 H 0.97091 0.6625 0.25153 0.0
H385 H 0.28431 0.79719 0.31303 0.0
H386 H 0.32021 0.80553 0.38692 0.0
H387 H 1.00881 0.76635 0.33123 0.0
C388 C 0.93166 0.74908 0.16581 0.0
C389 C 0.9784 0.75401 0.14376 0.0
C390 C 0.08288 0.76405 0.16879 0.0
C391 C 0.13946 0.77133 0.21508 0.0
C392 C 0.09006 0.76805 0.23543 0.0
C393 C 0.9889 0.75632 0.21176 0.0
C394 C 0.95364 0.75567 0.24152 0.0
C395 C 0.87482 0.8026 0.22794 0.0
C396 C 0.9134 0.69614 0.2416 0.0
C397 C 0.05111 0.76915 0.28589 0.0
C398 C 0.12839 0.7765 0.28136 0.0
C399 C 0.22502 0.79048 0.31714 0.0
C400 C 0.24425 0.79525 0.35901 0.0
C401 C 0.1673 0.78585 0.36496 0.0
C402 C 0.06893 0.7737 0.32771 0.0
H403 H 0.10078 0.29496 0.35566 0.0
H404 H 0.83629 0.39962 0.30473 0.0
H405 H 0.80965 0.40587 0.23196 0.0
H406 H 0.18778 0.37244 0.29954 0.0
H407 H 0.2335 0.30946 0.2884 0.0
H408 H 0.23078 0.31154 0.33631 0.0
H409 H 0.12416 0.21854 0.30943 0.0
H410 H 0.12656 0.21634 0.26142 0.0
H411 H 1.00821 0.21588 0.2543 0.0
H412 H 0.80901 0.39952 0.16486 0.0
H413 H 0.83894 0.38556 0.10767 0.0
H414 H 0.11038 0.28988 0.20243 0.0
C415 C 0.03717 0.31891 0.32901 0.0
C416 C 0.97034 0.34681 0.33562 0.0
C417 C 0.8885 0.3783 0.3003 0.0
C418 C 0.87259 0.38188 0.25887 0.0
C419 C 0.93979 0.35417 0.25338 0.0
C420 C 1.02101 0.32369 0.28748 0.0
C421 C 0.08341 0.29959 0.27284 0.0
C422 C 0.19018 0.32477 0.30094 0.0
C423 C 0.08567 0.23367 0.2746 0.0
C424 C 0.02398 0.32101 0.22518 0.0
C425 C 0.94121 0.35208 0.21471 0.0
C426 C 0.87407 0.37573 0.17271 0.0
C427 C 0.8923 0.36792 0.14053 0.0
C428 C 0.9778 0.33727 0.1505 0.0
C429 C 0.04401 0.31321 0.19349 0.0
H430 H 0.82138 0.25101 0.64997 0.0
H431 H 0.04135 0.35718 0.65199 0.0
H432 H 0.1232 0.37785 0.73143 0.0
H433 H 0.8051 0.33585 0.72986 0.0
H434 H 0.79618 0.27293 0.7556 0.0
H435 H 0.74804 0.27135 0.69765 0.0
H436 H 0.86053 0.1831 0.7124 0.0
H437 H 0.90639 0.18465 0.76996 0.0
H438 H 0.99344 0.18737 0.75531 0.0
H439 H 0.18862 0.38162 0.81009 0.0
H440 H 0.24299 0.36295 0.88652 0.0
H441 H 0.98319 0.25393 0.83604 0.0
C442 C 0.88599 0.27923 0.66703 0.0
C443 C 0.9249 0.30274 0.64478 0.0
C444 C 1.01048 0.33861 0.66837 0.0
C445 C 0.05693 0.35102 0.71338 0.0
C446 C 1.01695 0.32717 0.73433 0.0
C447 C 0.93394 0.2917 0.7122 0.0
C448 C 0.91198 0.26772 0.7438 0.0
C449 C 0.80924 0.28821 0.73097 0.0
C450 C 0.91853 0.20181 0.74548 0.0
C451 C 0.99722 0.29439 0.78734 0.0
C452 C 0.05567 0.32913 0.78069 0.0
C453 C 0.14292 0.35522 0.81575 0.0
C454 C 0.17322 0.34425 0.85898 0.0
C455 C 0.11667 0.30745 0.86687 0.0
C456 C 0.02613 0.28333 0.83063 0.0
H457 H 0.85691 0.74221 0.61626 0.0
H458 H 0.16782 0.78962 0.6793 0.0
H459 H 0.19839 0.78752 0.75265 0.0
H460 H 0.82074 0.82334 0.68966 0.0
H461 H 0.74421 0.76916 0.69097 0.0
H462 H 0.74586 0.77554 0.64296 0.0
H463 H 0.79627 0.6685 0.651 0.0
H464 H 0.79586 0.66244 0.69939 0.0
H465 H 0.90664 0.64339 0.7029 0.0
H466 H 0.19774 0.78041 0.81894 0.0
H467 H 0.16665 0.76759 0.87571 0.0
H468 H 0.85615 0.72333 0.77236 0.0
C469 C 0.93129 0.75217 0.64555 0.0
C470 C 1.00968 0.76757 0.6418 0.0
C471 C 0.10599 0.7798 0.68105 0.0
C472 C 0.12434 0.77812 0.72299 0.0
C473 C 0.04572 0.76368 0.72555 0.0
C474 C 0.95107 0.75069 0.68808 0.0
C475 C 0.88066 0.736 0.70087 0.0
C476 C 0.7927 0.77857 0.67987 0.0
C477 C 0.84264 0.67389 0.68776 0.0
C478 C 0.95085 0.7431 0.75126 0.0
C479 C 0.04554 0.75907 0.7645 0.0
C480 C 0.12371 0.76829 0.80903 0.0
C481 C 0.10491 0.76136 0.84109 0.0
C482 C 1.00843 0.74547 0.82879 0.0
C483 C 0.93063 0.73574 0.78306 0.0
loop_
_geom_bond_atom_site_label_1
_geom_bond_atom_site_label_2
_geom_bond_distance
_geom_bond_site_symmetry_2
_ccdc_geom_bond_type
Gd0 C3 2.818 1_556 S
Gd0 O20 2.377 1_556 S
Gd0 O22 2.448 1_556 S
Gd0 O23 2.506 1_556 S
Gd0 O24 2.435 1_556 S
Gd0 O25 2.717 . S
Gd0 O27 2.395 . S
Gd0 O31 2.327 1_556 S
Gd1 C12 2.818 1_554 S
Gd1 O21 2.395 . S
Gd1 O25 2.327 1_554 S
Gd1 O26 2.377 1_554 S
Gd1 O28 2.448 1_554 S
Gd1 O29 2.506 1_554 S
Gd1 O30 2.435 1_554 S
Gd1 O31 2.717 . S
C2 O20 1.240 . S
C2 O21 1.240 . S
C3 Gd0 2.818 1_554 S
C3 C4 1.510 . S
C3 O22 1.249 . S
C3 O23 1.252 . S
C4 C3 1.510 . S
C4 C5 1.404 . S
C4 C6 1.352 . S
C5 C4 1.404 . S
C5 C9 1.389 . S
C5 H32 0.930 . S
C6 C4 1.352 . S
C6 C8 1.374 . S
C6 H33 0.931 . S
C7 C8 1.359 . S
C7 C9 1.364 . S
C8 C6 1.374 . S
C8 C7 1.359 . S
C8 H34 0.931 . S
C9 C5 1.389 . S
C9 C7 1.364 . S
C9 H35 0.931 . S
C10 O24 1.256 . S
C10 O25 1.257 1_554 S
C11 O26 1.240 . S
C11 O27 1.240 . S
C12 Gd1 2.818 1_556 S
C12 C13 1.510 . S
C12 O28 1.249 . S
C12 O29 1.252 . S
C13 C12 1.510 . S
C13 C14 1.404 . S
C13 C15 1.352 . S
C14 C13 1.404 . S
C14 C18 1.389 . S
C14 H36 0.930 . S
C15 C13 1.352 . S
C15 C17 1.374 . S
C15 H37 0.931 . S
C16 C17 1.359 . S
C16 C18 1.364 . S
C17 C15 1.374 . S
C17 C16 1.359 . S
C17 H38 0.931 . S
C18 C14 1.389 . S
C18 C16 1.364 . S
C18 H39 0.931 . S
C19 O30 1.256 . S
C19 O31 1.257 1_556 S
O20 Gd0 2.377 1_554 S
O20 C2 1.240 . S
O21 Gd1 2.395 . S
O21 C2 1.240 . S
O22 Gd0 2.448 1_554 S
O22 C3 1.249 . S
O23 Gd0 2.506 1_554 S
O23 C3 1.252 . S
O24 Gd0 2.435 1_554 S
O24 C10 1.256 . S
O25 Gd0 2.717 . S
O25 Gd1 2.327 1_556 S
O25 C10 1.257 1_556 S
O26 Gd1 2.377 1_556 S
O26 C11 1.240 . S
O27 Gd0 2.395 . S
O27 C11 1.240 . S
O28 Gd1 2.448 1_556 S
O28 C12 1.249 . S
O29 Gd1 2.506 1_556 S
O29 C12 1.252 . S
O30 Gd1 2.435 1_556 S
O30 C19 1.256 . S
O31 Gd0 2.327 1_554 S
O31 Gd1 2.717 . S
O31 C19 1.257 1_554 S
H32 C5 0.930 . S
H33 C6 0.931 . S
H34 C8 0.931 . S
H35 C9 0.931 . S
H36 C14 0.930 . S
H37 C15 0.931 . S
H38 C17 0.931 . S
H39 C18 0.931 . S
Gd40 C43 2.818 1_556 S
Gd40 O60 2.377 1_556 S
Gd40 O62 2.448 1_556 S
Gd40 O63 2.506 1_556 S
Gd40 O64 2.435 1_556 S
Gd40 O65 2.717 . S
Gd40 O67 2.395 . S
Gd40 O71 2.327 1_556 S
Gd41 C52 2.818 1_554 S
Gd41 O61 2.395 . S
Gd41 O65 2.327 1_554 S
Gd41 O66 2.377 1_554 S
Gd41 O68 2.448 1_554 S
Gd41 O69 2.506 1_554 S
Gd41 O70 2.435 1_554 S
Gd41 O71 2.717 . S
C42 O60 1.240 . S
C42 O61 1.240 . S
C43 Gd40 2.818 1_554 S
C43 C44 1.510 . S
C43 O62 1.249 . S
C43 O63 1.252 . S
C44 C43 1.510 . S
C44 C45 1.404 . S
C44 C46 1.352 . S
C45 C44 1.404 . S
C45 C49 1.389 . S
C45 H72 0.930 . S
C46 C44 1.352 . S
C46 C48 1.374 . S
C46 H73 0.931 . S
C47 C48 1.359 . S
C47 C49 1.364 . S
C48 C46 1.374 . S
C48 C47 1.359 . S
C48 H74 0.931 . S
C49 C45 1.389 . S
C49 C47 1.364 . S
C49 H75 0.931 . S
C50 O64 1.256 . S
C50 O65 1.257 1_554 S
C51 O66 1.240 . S
C51 O67 1.240 . S
C52 Gd41 2.818 1_556 S
C52 C53 1.510 . S
C52 O68 1.249 . S
C52 O69 1.252 . S
C53 C52 1.510 . S
C53 C54 1.404 . S
C53 C55 1.352 . S
C54 C53 1.404 . S
C54 C58 1.389 . S
C54 H76 0.930 . S
C55 C53 1.352 . S
C55 C57 1.374 . S
C55 H77 0.931 . S
C56 C57 1.359 . S
C56 C58 1.364 . S
C57 C55 1.374 . S
C57 C56 1.359 . S
C57 H78 0.931 . S
C58 C54 1.389 . S
C58 C56 1.364 . S
C58 H79 0.931 . S
C59 O70 1.256 . S
C59 O71 1.257 1_556 S
O60 Gd40 2.377 1_554 S
O60 C42 1.240 . S
O61 Gd41 2.395 . S
O61 C42 1.240 . S
O62 Gd40 2.448 1_554 S
O62 C43 1.249 . S
O63 Gd40 2.506 1_554 S
O63 C43 1.252 . S
O64 Gd40 2.435 1_554 S
O64 C50 1.256 . S
O65 Gd40 2.717 . S
O65 Gd41 2.327 1_556 S
O65 C50 1.257 1_556 S
O66 Gd41 2.377 1_556 S
O66 C51 1.240 . S
O67 Gd40 2.395 . S
O67 C51 1.240 . S
O68 Gd41 2.448 1_556 S
O68 C52 1.249 . S
O69 Gd41 2.506 1_556 S
O69 C52 1.252 . S
O70 Gd41 2.435 1_556 S
O70 C59 1.256 . S
O71 Gd40 2.327 1_554 S
O71 Gd41 2.717 . S
O71 C59 1.257 1_554 S
H72 C45 0.930 . S
H73 C46 0.931 . S
H74 C48 0.931 . S
H75 C49 0.931 . S
H76 C54 0.930 . S
H77 C55 0.931 . S
H78 C57 0.931 . S
H79 C58 0.931 . S
Gd80 C83 2.818 . S
Gd80 O100 2.377 . S
Gd80 O102 2.448 . S
Gd80 O103 2.506 . S
Gd80 O104 2.435 . S
Gd80 O105 2.717 . S
Gd80 O107 2.395 . S
Gd80 O111 2.327 . S
Gd81 C92 2.818 . S
Gd81 O101 2.395 . S
Gd81 O105 2.327 . S
Gd81 O106 2.377 . S
Gd81 O108 2.448 . S
Gd81 O109 2.506 . S
Gd81 O110 2.435 . S
Gd81 O111 2.717 . S
C82 O100 1.240 . S
C82 O101 1.240 . S
C83 Gd80 2.818 . S
C83 C84 1.510 . S
C83 O102 1.249 . S
C83 O103 1.252 . S
C84 C83 1.510 . S
C84 C85 1.404 . S
C84 C86 1.352 . S
C85 C84 1.404 . S
C85 C89 1.389 . S
C85 H112 0.930 . S
C86 C84 1.352 . S
C86 C88 1.374 . S
C86 H113 0.931 . S
C87 C88 1.359 . S
C87 C89 1.364 . S
C88 C86 1.374 . S
C88 C87 1.359 . S
C88 H114 0.931 . S
C89 C85 1.389 . S
C89 C87 1.364 . S
C89 H115 0.931 . S
C90 O104 1.256 . S
C90 O105 1.257 . S
C91 O106 1.240 . S
C91 O107 1.240 . S
C92 Gd81 2.818 . S
C92 C93 1.510 . S
C92 O108 1.249 . S
C92 O109 1.252 . S
C93 C92 1.510 . S
C93 C94 1.404 . S
C93 C95 1.352 . S
C94 C93 1.404 . S
C94 C98 1.389 . S
C94 H116 0.930 . S
C95 C93 1.352 . S
C95 C97 1.374 . S
C95 H117 0.931 . S
C96 C97 1.359 . S
C96 C98 1.364 . S
C97 C95 1.374 . S
C97 C96 1.359 . S
C97 H118 0.931 . S
C98 C94 1.389 . S
C98 C96 1.364 . S
C98 H119 0.931 . S
C99 O110 1.256 . S
C99 O111 1.257 . S
O100 Gd80 2.377 . S
O100 C82 1.240 . S
O101 Gd81 2.395 . S
O101 C82 1.240 . S
O102 Gd80 2.448 . S
O102 C83 1.249 . S
O103 Gd80 2.506 . S
O103 C83 1.252 . S
O104 Gd80 2.435 . S
O104 C90 1.256 . S
O105 Gd80 2.717 . S
O105 Gd81 2.327 . S
O105 C90 1.257 . S
O106 Gd81 2.377 . S
O106 C91 1.240 . S
O107 Gd80 2.395 . S
O107 C91 1.240 . S
O108 Gd81 2.448 . S
O108 C92 1.249 . S
O109 Gd81 2.506 . S
O109 C92 1.252 . S
O110 Gd81 2.435 . S
O110 C99 1.256 . S
O111 Gd80 2.327 . S
O111 Gd81 2.717 . S
O111 C99 1.257 . S
H112 C85 0.930 . S
H113 C86 0.931 . S
H114 C88 0.931 . S
H115 C89 0.931 . S
H116 C94 0.930 . S
H117 C95 0.931 . S
H118 C97 0.931 . S
H119 C98 0.931 . S
Gd120 C123 2.818 . S
Gd120 O140 2.377 . S
Gd120 O142 2.448 . S
Gd120 O143 2.506 . S
Gd120 O144 2.435 . S
Gd120 O145 2.717 . S
Gd120 O147 2.395 . S
Gd120 O151 2.327 . S
Gd121 C132 2.818 . S
Gd121 O141 2.395 . S
Gd121 O145 2.327 . S
Gd121 O146 2.377 . S
Gd121 O148 2.448 . S
Gd121 O149 2.506 . S
Gd121 O150 2.435 . S
Gd121 O151 2.717 . S
C122 O140 1.240 . S
C122 O141 1.240 . S
C123 Gd120 2.818 . S
C123 C124 1.510 . S
C123 O142 1.249 . S
C123 O143 1.252 . S
C124 C123 1.510 . S
C124 C125 1.404 . S
C124 C126 1.352 . S
C125 C124 1.404 . S
C125 C129 1.389 . S
C125 H152 0.930 . S
C126 C124 1.352 . S
C126 C128 1.374 . S
C126 H153 0.931 . S
C127 C128 1.359 . S
C127 C129 1.364 . S
C128 C126 1.374 . S
C128 C127 1.359 . S
C128 H154 0.931 . S
C129 C125 1.389 . S
C129 C127 1.364 . S
C129 H155 0.931 . S
C130 O144 1.256 . S
C130 O145 1.257 . S
C131 O146 1.240 . S
C131 O147 1.240 . S
C132 Gd121 2.818 . S
C132 C133 1.510 . S
C132 O148 1.249 . S
C132 O149 1.252 . S
C133 C132 1.510 . S
C133 C134 1.404 . S
C133 C135 1.352 . S
C134 C133 1.404 . S
C134 C138 1.389 . S
C134 H156 0.930 . S
C135 C133 1.352 . S
C135 C137 1.374 . S
C135 H157 0.931 . S
C136 C137 1.359 . S
C136 C138 1.364 . S
C137 C135 1.374 . S
C137 C136 1.359 . S
C137 H158 0.931 . S
C138 C134 1.389 . S
C138 C136 1.364 . S
C138 H159 0.931 . S
C139 O150 1.256 . S
C139 O151 1.257 . S
O140 Gd120 2.377 . S
O140 C122 1.240 . S
O141 Gd121 2.395 . S
O141 C122 1.240 . S
O142 Gd120 2.448 . S
O142 C123 1.249 . S
O143 Gd120 2.506 . S
O143 C123 1.252 . S
O144 Gd120 2.435 . S
O144 C130 1.256 . S
O145 Gd120 2.717 . S
O145 Gd121 2.327 . S
O145 C130 1.257 . S
O146 Gd121 2.377 . S
O146 C131 1.240 . S
O147 Gd120 2.395 . S
O147 C131 1.240 . S
O148 Gd121 2.448 . S
O148 C132 1.249 . S
O149 Gd121 2.506 . S
O149 C132 1.252 . S
O150 Gd121 2.435 . S
O150 C139 1.256 . S
O151 Gd120 2.327 . S
O151 Gd121 2.717 . S
O151 C139 1.257 . S
H152 C125 0.930 . S
H153 C126 0.931 . S
H154 C128 0.931 . S
H155 C129 0.931 . S
H156 C134 0.930 . S
H157 C135 0.931 . S
H158 C137 0.931 . S
H159 C138 0.931 . S
H160 C172 0.930 . S
H161 C174 0.930 . S
H162 C175 0.930 . S
H163 C179 0.959 . S
H164 C179 0.959 . S
H165 C179 0.961 . S
H166 C180 0.960 . S
H167 C180 0.961 . S
H168 C180 0.959 . S
H169 C183 0.929 . S
H170 C184 0.931 . S
H171 C186 0.930 . S
C172 H160 0.930 . S
C172 C173 1.396 1_556 S
C172 C177 1.399 . S
C173 C172 1.396 1_554 S
C173 C174 1.384 . S
C174 H161 0.930 . S
C174 C173 1.384 . S
C174 C175 1.388 . S
C175 H162 0.930 . S
C175 C174 1.388 . S
C175 C176 1.390 . S
C176 C175 1.390 . S
C176 C177 1.394 1_554 S
C176 C182 1.465 . S
C177 C172 1.399 . S
C177 C176 1.394 1_556 S
C177 C178 1.516 . S
C178 C177 1.516 . S
C178 C179 1.502 . S
C178 C180 1.561 . S
C178 C181 1.526 . S
C179 H163 0.959 . S
C179 H164 0.959 . S
C179 H165 0.961 . S
C179 C178 1.502 . S
C180 H166 0.960 . S
C180 H167 0.961 . S
C180 H168 0.959 . S
C180 C178 1.561 . S
C181 C178 1.526 . S
C181 C182 1.396 1_556 S
C181 C186 1.390 . S
C182 C176 1.465 . S
C182 C181 1.396 1_554 S
C182 C183 1.399 . S
C183 H169 0.929 . S
C183 C182 1.399 . S
C183 C184 1.385 . S
C184 H170 0.931 . S
C184 C183 1.385 . S
C184 C185 1.389 . S
C185 C184 1.389 . S
C185 C186 1.387 1_554 S
C186 H171 0.930 . S
C186 C181 1.390 . S
C186 C185 1.387 1_556 S
H187 C199 0.930 . S
H188 C201 0.930 . S
H189 C202 0.930 . S
H190 C206 0.959 . S
H191 C206 0.959 . S
H192 C206 0.961 . S
H193 C207 0.960 . S
H194 C207 0.961 . S
H195 C207 0.959 . S
H196 C210 0.929 . S
H197 C211 0.931 . S
H198 C213 0.930 . S
C199 H187 0.930 . S
C199 C200 1.399 . S
C199 C204 1.399 . S
C200 C199 1.399 . S
C200 C201 1.376 . S
C201 H188 0.930 . S
C201 C200 1.376 . S
C201 C202 1.388 . S
C202 H189 0.930 . S
C202 C201 1.388 . S
C202 C203 1.390 . S
C203 C202 1.390 . S
C203 C204 1.394 . S
C203 C209 1.465 . S
C204 C199 1.399 . S
C204 C203 1.394 . S
C204 C205 1.516 . S
C205 C204 1.516 . S
C205 C206 1.502 . S
C205 C207 1.561 . S
C205 C208 1.526 . S
C206 H190 0.959 . S
C206 H191 0.959 . S
C206 H192 0.961 . S
C206 C205 1.502 . S
C207 H193 0.960 . S
C207 H194 0.961 . S
C207 H195 0.959 . S
C207 C205 1.561 . S
C208 C205 1.526 . S
C208 C209 1.396 . S
C208 C213 1.390 . S
C209 C203 1.465 . S
C209 C208 1.396 . S
C209 C210 1.399 . S
C210 H196 0.929 . S
C210 C209 1.399 . S
C210 C211 1.385 . S
C211 H197 0.931 . S
C211 C210 1.385 . S
C211 C212 1.389 . S
C212 C211 1.389 . S
C212 C213 1.387 . S
C213 H198 0.930 . S
C213 C208 1.390 . S
C213 C212 1.387 . S
H214 C226 0.930 . S
H215 C228 0.930 . S
H216 C229 0.930 1_565 S
H217 C233 0.959 . S
H218 C233 0.959 1_655 S
H219 C233 0.961 . S
H220 C234 0.960 . S
H221 C234 0.969 . S
H222 C234 0.959 . S
H223 C237 0.929 . S
H224 C238 0.931 . S
H225 C240 0.930 . S
C226 H214 0.930 . S
C226 C227 1.399 1_554 S
C226 C231 1.399 . S
C227 C226 1.399 1_556 S
C227 C228 1.376 . S
C228 H215 0.930 . S
C228 C227 1.376 . S
C228 C229 1.388 . S
C229 H216 0.930 1_545 S
C229 C228 1.388 . S
C229 C230 1.390 . S
C230 C229 1.390 . S
C230 C231 1.394 1_556 S
C230 C236 1.465 1_445 S
C231 C226 1.399 . S
C231 C230 1.394 1_554 S
C231 C232 1.516 1_455 S
C232 C231 1.516 1_655 S
C232 C233 1.502 1_655 S
C232 C234 1.561 1_554 S
C232 C235 1.526 1_545 S
C233 H217 0.959 . S
C233 H218 0.959 1_455 S
C233 H219 0.961 . S
C233 C232 1.502 1_455 S
C234 H220 0.960 . S
C234 H221 0.969 . S
C234 H222 0.959 . S
C234 C232 1.561 1_556 S
C235 C232 1.526 1_565 S
C235 C236 1.396 1_554 S
C235 C240 1.390 . S
C236 C230 1.465 1_665 S
C236 C235 1.396 1_556 S
C236 C237 1.399 . S
C237 H223 0.929 . S
C237 C236 1.399 . S
C237 C238 1.385 . S
C238 H224 0.931 . S
C238 C237 1.385 . S
C238 C239 1.389 1_556 S
C239 C238 1.389 1_554 S
C239 C240 1.387 . S
C240 H225 0.930 . S
C240 C235 1.390 . S
C240 C239 1.387 . S
H241 C253 0.930 . S
H242 C255 0.930 . S
H243 C256 0.930 . S
H244 C260 0.959 . S
H245 C260 0.959 . S
H246 C260 0.961 1_545 S
H247 C261 0.960 . S
H248 C261 0.961 1_455 S
H249 C261 0.959 1_455 S
H250 C264 0.929 . S
H251 C265 0.931 . S
H252 C267 0.930 . S
C253 H241 0.930 . S
C253 C254 1.399 . S
C253 C258 1.399 . S
C254 C253 1.399 . S
C254 C255 1.376 . S
C255 H242 0.930 . S
C255 C254 1.376 . S
C255 C256 1.388 1_655 S
C256 H243 0.930 . S
C256 C255 1.388 1_455 S
C256 C257 1.390 . S
C257 C256 1.390 . S
C257 C258 1.394 1_455 S
C257 C263 1.465 1_545 S
C258 C253 1.399 . S
C258 C257 1.394 1_655 S
C258 C259 1.516 . S
C259 C258 1.516 . S
C259 C260 1.502 1_545 S
C259 C261 1.561 . S
C259 C262 1.526 1_645 S
C260 H244 0.959 . S
C260 H245 0.959 . S
C260 H246 0.961 1_565 S
C260 C259 1.502 1_565 S
C261 H247 0.960 . S
C261 H248 0.961 1_655 S
C261 H249 0.959 1_655 S
C261 C259 1.561 . S
C262 C259 1.526 1_465 S
C262 C263 1.396 . S
C262 C267 1.390 . S
C263 C257 1.465 1_565 S
C263 C262 1.396 . S
C263 C264 1.399 . S
C264 H250 0.929 . S
C264 C263 1.399 . S
C264 C265 1.385 . S
C265 H251 0.931 . S
C265 C264 1.385 . S
C265 C266 1.389 . S
C266 C265 1.389 . S
C266 C267 1.387 . S
C267 H252 0.930 . S
C267 C262 1.390 . S
C267 C266 1.387 . S
H268 C280 0.930 . S
H269 C282 0.930 . S
H270 C283 0.930 . S
H271 C287 0.959 . S
H272 C287 0.959 . S
H273 C287 0.961 . S
H274 C288 0.960 . S
H275 C288 0.961 . S
H276 C288 0.959 . S
H277 C291 0.929 . S
H278 C292 0.931 . S
H279 C294 0.930 . S
C280 H268 0.930 . S
C280 C281 1.399 . S
C280 C285 1.399 . S
C281 C280 1.399 . S
C281 C282 1.376 . S
C282 H269 0.930 . S
C282 C281 1.376 . S
C282 C283 1.388 . S
C283 H270 0.930 . S
C283 C282 1.388 . S
C283 C284 1.390 . S
C284 C283 1.390 . S
C284 C285 1.394 . S
C284 C290 1.465 . S
C285 C280 1.399 . S
C285 C284 1.394 . S
C285 C286 1.516 . S
C286 C285 1.516 . S
C286 C287 1.502 . S
C286 C288 1.561 . S
C286 C289 1.526 . S
C287 H271 0.959 . S
C287 H272 0.959 . S
C287 H273 0.961 . S
C287 C286 1.502 . S
C288 H274 0.960 . S
C288 H275 0.961 . S
C288 H276 0.959 . S
C288 C286 1.561 . S
C289 C286 1.526 . S
C289 C290 1.396 . S
C289 C294 1.390 . S
C290 C284 1.465 . S
C290 C289 1.396 . S
C290 C291 1.399 . S
C291 H277 0.929 . S
C291 C290 1.399 . S
C291 C292 1.385 . S
C292 H278 0.931 . S
C292 C291 1.385 . S
C292 C293 1.389 . S
C293 C292 1.389 . S
C293 C294 1.387 . S
C294 H279 0.930 . S
C294 C289 1.390 . S
C294 C293 1.387 . S
H295 C307 0.930 . S
H296 C309 0.930 . S
H297 C310 0.930 . S
H298 C314 0.959 . S
H299 C314 0.959 . S
H300 C314 0.961 . S
H301 C315 0.960 . S
H302 C315 0.961 . S
H303 C315 0.959 . S
H304 C318 0.929 . S
H305 C319 0.931 . S
H306 C321 0.930 . S
C307 H295 0.930 . S
C307 C308 1.399 . S
C307 C312 1.399 . S
C308 C307 1.399 . S
C308 C309 1.376 . S
C309 H296 0.930 . S
C309 C308 1.376 . S
C309 C310 1.388 . S
C310 H297 0.930 . S
C310 C309 1.388 . S
C310 C311 1.390 . S
C311 C310 1.390 . S
C311 C312 1.394 . S
C311 C317 1.465 . S
C312 C307 1.399 . S
C312 C311 1.394 . S
C312 C313 1.516 . S
C313 C312 1.516 . S
C313 C314 1.502 . S
C313 C315 1.561 . S
C313 C316 1.526 . S
C314 H298 0.959 . S
C314 H299 0.959 . S
C314 H300 0.961 . S
C314 C313 1.502 . S
C315 H301 0.960 . S
C315 H302 0.961 . S
C315 H303 0.959 . S
C315 C313 1.561 . S
C316 C313 1.526 . S
C316 C317 1.396 . S
C316 C321 1.390 . S
C317 C311 1.465 . S
C317 C316 1.396 . S
C317 C318 1.399 . S
C318 H304 0.929 . S
C318 C317 1.399 . S
C318 C319 1.385 . S
C319 H305 0.931 . S
C319 C318 1.385 . S
C319 C320 1.389 . S
C320 C319 1.389 . S
C320 C321 1.387 . S
C321 H306 0.930 . S
C321 C316 1.390 . S
C321 C320 1.387 . S
H322 C334 0.930 . S
H323 C336 0.930 . S
H324 C337 0.930 . S
H325 C341 0.959 . S
H326 C341 0.959 . S
H327 C341 0.961 . S
H328 C342 0.960 . S
H329 C342 0.961 . S
H330 C342 0.959 . S
H331 C345 0.929 . S
H332 C346 0.931 . S
H333 C348 0.930 . S
C334 H322 0.930 . S
C334 C335 1.399 . S
C334 C339 1.399 . S
C335 C334 1.399 . S
C335 C336 1.376 . S
C336 H323 0.930 . S
C336 C335 1.376 . S
C336 C337 1.388 . S
C337 H324 0.930 . S
C337 C336 1.388 . S
C337 C338 1.390 . S
C338 C337 1.390 . S
C338 C339 1.394 . S
C338 C344 1.465 . S
C339 C334 1.399 . S
C339 C338 1.394 . S
C339 C340 1.516 . S
C340 C339 1.516 . S
C340 C341 1.502 . S
C340 C342 1.561 . S
C340 C343 1.526 . S
C341 H325 0.959 . S
C341 H326 0.959 . S
C341 H327 0.961 . S
C341 C340 1.502 . S
C342 H328 0.960 . S
C342 H329 0.961 . S
C342 H330 0.959 . S
C342 C340 1.561 . S
C343 C340 1.526 . S
C343 C344 1.396 . S
C343 C348 1.390 . S
C344 C338 1.465 . S
C344 C343 1.396 . S
C344 C345 1.399 . S
C345 H331 0.929 . S
C345 C344 1.399 . S
C345 C346 1.385 . S
C346 H332 0.931 . S
C346 C345 1.385 . S
C346 C347 1.389 . S
C347 C346 1.389 . S
C347 C348 1.387 . S
C348 H333 0.930 . S
C348 C343 1.390 . S
C348 C347 1.387 . S
H349 C361 0.930 . S
H350 C363 0.930 . S
H351 C364 0.930 . S
H352 C368 0.959 . S
H353 C368 0.959 . S
H354 C368 0.961 . S
H355 C369 0.960 . S
H356 C369 0.961 . S
H357 C369 0.959 . S
H358 C372 0.929 . S
H359 C373 0.931 . S
H360 C375 0.930 . S
C361 H349 0.930 . S
C361 C362 1.399 . S
C361 C366 1.399 . S
C362 C361 1.399 . S
C362 C363 1.376 . S
C363 H350 0.930 . S
C363 C362 1.376 . S
C363 C364 1.388 . S
C364 H351 0.930 . S
C364 C363 1.388 . S
C364 C365 1.390 . S
C365 C364 1.390 . S
C365 C366 1.394 . S
C365 C371 1.465 . S
C366 C361 1.399 . S
C366 C365 1.394 . S
C366 C367 1.516 . S
C367 C366 1.516 . S
C367 C368 1.502 . S
C367 C369 1.561 . S
C367 C370 1.526 . S
C368 H352 0.959 . S
C368 H353 0.959 . S
C368 H354 0.961 . S
C368 C367 1.502 . S
C369 H355 0.960 . S
C369 H356 0.961 . S
C369 H357 0.959 . S
C369 C367 1.561 . S
C370 C367 1.526 . S
C370 C371 1.396 . S
C370 C375 1.390 . S
C371 C365 1.465 . S
C371 C370 1.396 . S
C371 C372 1.399 . S
C372 H358 0.929 . S
C372 C371 1.399 . S
C372 C373 1.385 . S
C373 H359 0.931 . S
C373 C372 1.385 . S
C373 C374 1.389 . S
C374 C373 1.389 . S
C374 C375 1.387 . S
C375 H360 0.930 . S
C375 C370 1.390 . S
C375 C374 1.387 . S
H376 C388 0.930 . S
H377 C390 0.930 . S
H378 C391 0.930 . S
H379 C395 0.959 . S
H380 C395 0.959 . S
H381 C395 0.961 . S
H382 C396 0.960 . S
H383 C396 0.961 . S
H384 C396 0.959 . S
H385 C399 0.929 . S
H386 C400 0.931 . S
H387 C402 0.930 . S
C388 H376 0.930 . S
C388 C389 1.399 . S
C388 C393 1.399 . S
C389 C388 1.399 . S
C389 C390 1.376 . S
C390 H377 0.930 . S
C390 C389 1.376 . S
C390 C391 1.388 1_655 S
C391 H378 0.930 . S
C391 C390 1.388 1_455 S
C391 C392 1.390 . S
C392 C391 1.390 . S
C392 C393 1.394 1_455 S
C392 C398 1.465 . S
C393 C388 1.399 . S
C393 C392 1.394 1_655 S
C393 C394 1.516 . S
C394 C393 1.516 . S
C394 C395 1.502 . S
C394 C396 1.561 1_655 S
C394 C397 1.526 1_655 S
C395 H379 0.959 . S
C395 H380 0.959 . S
C395 H381 0.961 . S
C395 C394 1.502 . S
C396 H382 0.960 . S
C396 H383 0.961 . S
C396 H384 0.959 . S
C396 C394 1.561 1_455 S
C397 C394 1.526 1_455 S
C397 C398 1.396 . S
C397 C402 1.390 . S
C398 C392 1.465 . S
C398 C397 1.396 . S
C398 C399 1.399 . S
C399 H385 0.929 . S
C399 C398 1.399 . S
C399 C400 1.385 . S
C400 H386 0.931 . S
C400 C399 1.385 . S
C400 C401 1.389 . S
C401 C400 1.389 . S
C401 C402 1.387 . S
C402 H387 0.930 . S
C402 C397 1.390 . S
C402 C401 1.387 . S
H403 C415 0.930 . S
H404 C417 0.930 . S
H405 C418 0.930 . S
H406 C422 0.959 . S
H407 C422 0.959 . S
H408 C422 0.961 . S
H409 C423 0.960 . S
H410 C423 0.961 . S
H411 C423 0.959 . S
H412 C426 0.929 . S
H413 C427 0.931 . S
H414 C429 0.930 . S
C415 H403 0.930 . S
C415 C416 1.399 1_455 S
C415 C420 1.399 . S
C416 C415 1.399 1_655 S
C416 C417 1.376 . S
C417 H404 0.930 . S
C417 C416 1.376 . S
C417 C418 1.388 . S
C418 H405 0.930 . S
C418 C417 1.388 . S
C418 C419 1.390 . S
C419 C418 1.390 . S
C419 C420 1.394 1_655 S
C419 C425 1.465 . S
C420 C415 1.399 . S
C420 C419 1.394 1_455 S
C420 C421 1.516 . S
C421 C420 1.516 . S
C421 C422 1.502 . S
C421 C423 1.561 1_455 S
C421 C424 1.526 . S
C422 H406 0.959 . S
C422 H407 0.959 . S
C422 H408 0.961 . S
C422 C421 1.502 . S
C423 H409 0.960 . S
C423 H410 0.961 . S
C423 H411 0.959 . S
C423 C421 1.561 1_655 S
C424 C421 1.526 . S
C424 C425 1.396 1_455 S
C424 C429 1.390 . S
C425 C419 1.465 . S
C425 C424 1.396 1_655 S
C425 C426 1.399 . S
C426 H412 0.929 . S
C426 C425 1.399 . S
C426 C427 1.385 . S
C427 H413 0.931 . S
C427 C426 1.385 . S
C427 C428 1.389 1_655 S
C428 C427 1.389 1_455 S
C428 C429 1.387 . S
C429 H414 0.930 . S
C429 C424 1.390 . S
C429 C428 1.387 . S
H430 C442 0.930 . S
H431 C444 0.930 . S
H432 C445 0.930 . S
H433 C449 0.959 . S
H434 C449 0.959 . S
H435 C449 0.961 . S
H436 C450 0.960 . S
H437 C450 0.961 . S
H438 C450 0.959 . S
H439 C453 0.929 . S
H440 C454 0.931 . S
H441 C456 0.930 . S
C442 H430 0.930 . S
C442 C443 1.399 . S
C442 C447 1.399 . S
C443 C442 1.399 . S
C443 C444 1.376 . S
C444 H431 0.930 . S
C444 C443 1.376 . S
C444 C445 1.388 1_655 S
C445 H432 0.930 . S
C445 C444 1.388 1_455 S
C445 C446 1.390 . S
C446 C445 1.390 . S
C446 C447 1.394 1_455 S
C446 C452 1.465 . S
C447 C442 1.399 . S
C447 C446 1.394 1_655 S
C447 C448 1.516 . S
C448 C447 1.516 . S
C448 C449 1.502 . S
C448 C450 1.561 1_655 S
C448 C451 1.526 1_655 S
C449 H433 0.959 . S
C449 H434 0.959 . S
C449 H435 0.961 . S
C449 C448 1.502 . S
C450 H436 0.960 . S
C450 H437 0.961 . S
C450 H438 0.959 . S
C450 C448 1.561 1_455 S
C451 C448 1.526 1_455 S
C451 C452 1.396 . S
C451 C456 1.390 . S
C452 C446 1.465 . S
C452 C451 1.396 . S
C452 C453 1.399 . S
C453 H439 0.929 . S
C453 C452 1.399 . S
C453 C454 1.385 . S
C454 H440 0.931 . S
C454 C453 1.385 . S
C454 C455 1.389 . S
C455 C454 1.389 . S
C455 C456 1.387 . S
C456 H441 0.930 . S
C456 C451 1.390 . S
C456 C455 1.387 . S
H457 C469 0.930 . S
H458 C471 0.930 . S
H459 C472 0.930 . S
H460 C476 0.959 . S
H461 C476 0.959 . S
H462 C476 0.961 . S
H463 C477 0.960 . S
H464 C477 0.961 . S
H465 C477 0.959 . S
H466 C480 0.929 . S
H467 C481 0.931 . S
H468 C483 0.930 . S
C469 H457 0.930 . S
C469 C470 1.399 1_655 S
C469 C474 1.399 . S
C470 C469 1.399 1_455 S
C470 C471 1.376 . S
C471 H458 0.930 . S
C471 C470 1.376 . S
C471 C472 1.388 . S
C472 H459 0.930 . S
C472 C471 1.388 . S
C472 C473 1.390 . S
C473 C472 1.390 . S
C473 C474 1.394 1_455 S
C473 C479 1.465 . S
C474 C469 1.399 . S
C474 C473 1.394 1_655 S
C474 C475 1.516 . S
C475 C474 1.516 . S
C475 C476 1.502 . S
C475 C477 1.561 . S
C475 C478 1.526 . S
C476 H460 0.959 . S
C476 H461 0.959 . S
C476 H462 0.961 . S
C476 C475 1.502 . S
C477 H463 0.960 . S
C477 H464 0.961 . S
C477 H465 0.959 . S
C477 C475 1.561 . S
C478 C475 1.526 . S
C478 C479 1.396 1_655 S
C478 C483 1.390 . S
C479 C473 1.465 . S
C479 C478 1.396 1_455 S
C479 C480 1.399 . S
C480 H466 0.929 . S
C480 C479 1.399 . S
C480 C481 1.385 . S
C481 H467 0.931 . S
C481 C480 1.385 . S
C481 C482 1.389 1_455 S
C482 C481 1.389 1_655 S
C482 C483 1.387 . S
C483 H468 0.930 . S
C483 C478 1.390 . S
C483 C482 1.387 . S
C173 C59 1.553 1_554 S
C185 C10 1.569 . S
C200 C99 1.564 . S
C212 C130 1.563 . S
C227 C19 1.561 . S
C239 C50 1.574 . S
C254 C139 1.572 . S
C266 C90 1.563 . S
C281 C122 1.650 . S
C293 C2 1.656 . S
C308 C47 1.035 . S
C320 C87 1.007 . S
C335 C51 1.656 . S
C347 C91 1.655 . S
C362 C136 1.071 . S
C374 C16 1.053 . S
C389 C42 1.638 . S
C401 C82 1.630 . S
C416 C127 1.043 . S
C428 C7 1.070 . S
C443 C131 1.656 . S
C455 C11 1.655 . S
C470 C96 1.022 . S
C482 C56 1.053 . S
