# Generated by pormake.
# Topology wji, (4)-cn, num edge types: 1
# Building blocks:
#     Node 0, Type 0, BuildingBlock: AZAVOO_clean_sbu_0, # of connection points: 4
#     Node 1, Type 0, BuildingBlock: AZAVOO_clean_sbu_0, # of connection points: 4
#     Node 2, Type 0, BuildingBlock: AZAVOO_clean_sbu_0, # of connection points: 4
#     Node 3, Type 0, BuildingBlock: AZAVOO_clean_sbu_0, # of connection points: 4
#     Node 4, Type 0, BuildingBlock: AZAVOO_clean_sbu_0, # of connection points: 4
#     Node 5, Type 0, BuildingBlock: AZAVOO_clean_sbu_0, # of connection points: 4
#     Node 6, Type 0, BuildingBlock: AZAVOO_clean_sbu_0, # of connection points: 4
#     Node 7, Type 0, BuildingBlock: AZAVOO_clean_sbu_0, # of connection points: 4
#     Node 8, Type 0, BuildingBlock: AZAVOO_clean_sbu_0, # of connection points: 4
#     Node 9, Type 0, BuildingBlock: AZAVOO_clean_sbu_0, # of connection points: 4
#     Node 10, Type 0, BuildingBlock: AZAVOO_clean_sbu_0, # of connection points: 4
#     Node 11, Type 0, BuildingBlock: AZAVOO_clean_sbu_0, # of connection points: 4
#     Edge 12, Type (0, 0), BuildingBlock: AJUNOK_clean_linker_0, # of connection points: 2
#     Edge 13, Type (0, 0), BuildingBlock: AJUNOK_clean_linker_0, # of connection points: 2
#     Edge 14, Type (0, 0), BuildingBlock: AJUNOK_clean_linker_0, # of connection points: 2
#     Edge 15, Type (0, 0), BuildingBlock: AJUNOK_clean_linker_0, # of connection points: 2
#     Edge 16, Type (0, 0), BuildingBlock: AJUNOK_clean_linker_0, # of connection points: 2
#     Edge 17, Type (0, 0), BuildingBlock: AJUNOK_clean_linker_0, # of connection points: 2
#     Edge 18, Type (0, 0), BuildingBlock: AJUNOK_clean_linker_0, # of connection points: 2
#     Edge 19, Type (0, 0), BuildingBlock: AJUNOK_clean_linker_0, # of connection points: 2
#     Edge 20, Type (0, 0), BuildingBlock: AJUNOK_clean_linker_0, # of connection points: 2
#     Edge 21, Type (0, 0), BuildingBlock: AJUNOK_clean_linker_0, # of connection points: 2
#     Edge 22, Type (0, 0), BuildingBlock: AJUNOK_clean_linker_0, # of connection points: 2
#     Edge 23, Type (0, 0), BuildingBlock: AJUNOK_clean_linker_0, # of connection points: 2
#     Edge 24, Type (0, 0), BuildingBlock: AJUNOK_clean_linker_0, # of connection points: 2
#     Edge 25, Type (0, 0), BuildingBlock: AJUNOK_clean_linker_0, # of connection points: 2
#     Edge 26, Type (0, 0), BuildingBlock: AJUNOK_clean_linker_0, # of connection points: 2
#     Edge 27, Type (0, 0), BuildingBlock: AJUNOK_clean_linker_0, # of connection points: 2
#     Edge 28, Type (0, 0), BuildingBlock: AJUNOK_clean_linker_0, # of connection points: 2
#     Edge 29, Type (0, 0), BuildingBlock: AJUNOK_clean_linker_0, # of connection points: 2
#     Edge 30, Type (0, 0), BuildingBlock: AJUNOK_clean_linker_0, # of connection points: 2
#     Edge 31, Type (0, 0), BuildingBlock: AJUNOK_clean_linker_0, # of connection points: 2
#     Edge 32, Type (0, 0), BuildingBlock: AJUNOK_clean_linker_0, # of connection points: 2
#     Edge 33, Type (0, 0), BuildingBlock: AJUNOK_clean_linker_0, # of connection points: 2
#     Edge 34, Type (0, 0), BuildingBlock: AJUNOK_clean_linker_0, # of connection points: 2
#     Edge 35, Type (0, 0), BuildingBlock: AJUNOK_clean_linker_0, # of connection points: 2
# Relax obj value: 0.170
# Max RMSD: 0.105
# Mean RMSD: 0.105
data_MOF--net-wji--node1-AZAVOO_clean_sbu_0--edge1-AJUNOK_clean_linker_0
_symmetry_space_group_name_H-M    P1
_symmetry_Int_Tables_number       1
_symmetry_cell_setting            triclinic
loop_
_symmetry_equiv_pos_as_xyz
'x, y, z'
_cell_length_a     44.403854
_cell_length_b     44.116405
_cell_length_c     16.321209
_cell_angle_alpha  90.063932
_cell_angle_beta   89.681028
_cell_angle_gamma 119.87502
loop_
_atom_site_label
_atom_site_type_symbol
_atom_site_fract_x
_atom_site_fract_y
_atom_site_fract_z
_atom_type_partial_charge
Mg0 Mg 0.39753 0.30925 0.36888 0.0
O1 O 0.37651 0.32641 0.47622 0.0
O2 O 0.37898 0.37684 0.44586 0.0
Mg3 Mg 0.3991 0.39052 0.31297 0.0
C4 C 0.3721 0.35189 0.49572 0.0
C5 C 0.40334 0.24501 0.43853 0.0
O6 O 0.4087 0.24016 0.36161 0.0
O7 O 0.45318 0.3525 0.40273 0.0
O8 O 0.45144 0.39967 0.3582 0.0
O9 O 0.34432 0.28041 0.31029 0.0
O10 O 0.38311 0.33575 0.28725 0.0
C11 C 0.46775 0.38537 0.3885 0.0
C12 C 0.35247 0.30984 0.27536 0.0
O13 O 0.39885 0.27037 0.45749 0.0
Mg14 Mg 0.08052 0.40465 0.53452 0.0
O15 O 0.04053 0.38315 0.63878 0.0
O16 O -0.00703 0.38334 0.59728 0.0
Mg17 Mg 0.00106 0.4011 0.46231 0.0
C18 C 0.00999 0.37788 0.65252 0.0
C19 C 0.14406 0.40308 0.6067 0.0
O20 O 0.14527 0.3935 0.53108 0.0
O21 O 0.08989 0.46 0.56007 0.0
O22 O 0.04248 0.45612 0.50167 0.0
O23 O 0.05984 0.35073 0.4797 0.0
O24 O 0.04205 0.38786 0.44737 0.0
C25 C 0.07198 0.47376 0.53631 0.0
C26 C 0.03926 0.35772 0.43833 0.0
O27 O 0.12079 0.41044 0.62657 0.0
Mg28 Mg 0.67043 0.08825 0.70186 0.0
O29 O 0.65166 0.04704 0.80337 0.0
O30 O 0.60485 -0.00173 0.76159 0.0
Mg31 Mg 0.59349 0.00887 0.63017 0.0
C32 C 0.62752 0.0157 0.81601 0.0
C33 C 0.73686 0.15063 0.77879 0.0
O34 O 0.74863 0.15141 0.70436 0.0
O35 O 0.62565 0.09839 0.73214 0.0
O36 O 0.58085 0.05007 0.67918 0.0
O37 O 0.70174 0.06633 0.64167 0.0
O38 O 0.64739 0.05045 0.61212 0.0
C39 C 0.59356 0.07997 0.71345 0.0
C40 C 0.674 0.04696 0.59973 0.0
O41 O 0.70561 0.12807 0.79576 0.0
Mg42 Mg 0.57059 0.67468 0.86429 0.0
O43 O 0.59274 0.659 0.97421 0.0
O44 O 0.59784 0.61285 0.93703 0.0
Mg45 Mg 0.58305 0.60123 0.80151 0.0
C46 C 0.60039 0.63527 0.99009 0.0
C47 C 0.58111 0.74175 0.9497 0.0
O48 O 0.60772 0.75393 0.89912 0.0
O49 O 0.51693 0.62615 0.89029 0.0
O50 O 0.52861 0.58526 0.84415 0.0
O51 O 0.62474 0.70974 0.80935 0.0
O52 O 0.59158 0.65371 0.78347 0.0
C53 C 0.50773 0.59426 0.87473 0.0
C54 C 0.62052 0.68189 0.77293 0.0
O55 O 0.55932 0.7092 0.94971 0.0
Mg56 Mg 0.8884 0.57887 0.04017 0.0
O57 O 0.92863 0.60163 0.14253 0.0
O58 O 0.97795 0.60566 0.09789 0.0
Mg59 Mg 0.9704 0.58792 0.96358 0.0
C60 C 0.95997 0.60923 0.15437 0.0
C61 C 0.82196 0.57543 0.11308 0.0
O62 O 0.81893 0.58182 0.03588 0.0
O63 O 0.88174 0.52418 0.064 0.0
O64 O 0.93109 0.53279 0.00469 0.0
O65 O 0.90736 0.63252 0.98284 0.0
O66 O 0.9264 0.59644 0.95049 0.0
C67 C 0.90174 0.51289 0.03874 0.0
C68 C 0.92777 0.62576 0.93945 0.0
O69 O 0.8475 0.57184 0.13421 0.0
Mg70 Mg 0.30184 0.89772 0.20774 0.0
O71 O 0.31904 0.93748 0.31105 0.0
O72 O 0.36661 0.9866 0.2742 0.0
Mg73 Mg 0.37871 0.9783 0.14095 0.0
C74 C 0.34324 0.96831 0.32712 0.0
C75 C 0.23628 0.83378 0.28231 0.0
O76 O 0.2255 0.83246 0.20691 0.0
O77 O 0.34675 0.88798 0.23688 0.0
O78 O 0.39172 0.93674 0.18492 0.0
O79 O 0.27021 0.91937 0.14987 0.0
O80 O 0.32502 0.93656 0.12006 0.0
C81 C 0.37888 0.90653 0.21797 0.0
C82 C 0.29811 0.93959 0.10861 0.0
O83 O 0.26683 0.85725 0.30078 0.0
Mg84 Mg 0.66699 0.58176 0.44262 0.0
O85 O 0.64892 0.60349 0.33794 0.0
O86 O 0.60113 0.60355 0.38103 0.0
Mg87 Mg 0.59324 0.5894 0.51809 0.0
C88 C 0.62343 0.60848 0.32533 0.0
C89 C 0.73098 0.58086 0.36382 0.0
O90 O 0.744 0.59336 0.4363 0.0
O91 O 0.61969 0.52607 0.42496 0.0
O92 O 0.57842 0.53339 0.48578 0.0
O93 O 0.70127 0.63629 0.49503 0.0
O94 O 0.64676 0.60048 0.53023 0.0
C95 C 0.58876 0.51382 0.45314 0.0
C96 C 0.67435 0.63012 0.53856 0.0
O97 O 0.69982 0.57279 0.34909 0.0
Mg98 Mg 0.0794 0.67588 0.61445 0.0
O99 O 0.04187 0.65768 0.50679 0.0
O100 O -0.00718 0.609 0.54008 0.0
Mg101 Mg -0.00122 0.59692 0.67455 0.0
C102 C 0.01174 0.63281 0.48862 0.0
C103 C 0.14599 0.74212 0.54065 0.0
O104 O 0.15108 0.75328 0.61671 0.0
O105 O 0.09075 0.6314 0.5875 0.0
O106 O 0.0418 0.5855 0.63537 0.0
O107 O 0.0559 0.70688 0.66825 0.0
O108 O 0.03835 0.65157 0.69654 0.0
C109 C 0.07242 0.59895 0.60529 0.0
C110 C 0.03438 0.67826 0.70567 0.0
O111 O 0.12064 0.71211 0.52423 0.0
Mg112 Mg 0.40153 0.09099 0.78441 0.0
O113 O 0.37921 0.05291 0.67647 0.0
O114 O 0.37431 0.00195 0.71347 0.0
Mg115 Mg 0.39283 0.00705 0.84677 0.0
C116 C 0.37091 0.02138 0.6607 0.0
C117 C 0.39363 0.15029 0.69817 0.0
O118 O 0.37074 0.14278 0.75724 0.0
O119 O 0.4558 0.09825 0.75829 0.0
O120 O 0.44825 0.04771 0.80903 0.0
O121 O 0.34765 0.0707 0.84065 0.0
O122 O 0.38262 0.04997 0.86716 0.0
C123 C 0.46755 0.07807 0.77834 0.0
C124 C 0.3532 0.0481 0.87799 0.0
O125 O 0.41087 0.13443 0.69567 0.0
Mg126 Mg 0.30146 0.4092 0.94135 0.0
O127 O 0.32158 0.38695 0.84158 0.0
O128 O 0.36284 0.37612 0.88584 0.0
Mg129 Mg 0.37593 0.39881 0.01609 0.0
C130 C 0.34267 0.37562 0.82961 0.0
C131 C 0.23497 0.40287 0.86109 0.0
O132 O 0.22265 0.39286 0.9356 0.0
O133 O 0.34527 0.46604 0.90935 0.0
O134 O 0.37488 0.44424 0.96245 0.0
O135 O 0.27001 0.35544 0.00183 0.0
O136 O 0.32421 0.39306 0.03331 0.0
C137 C 0.37444 0.47021 0.93193 0.0
C138 C 0.29717 0.36344 0.04539 0.0
O139 O 0.26643 0.41212 0.84614 0.0
Mg140 Mg 0.89005 0.30779 0.11347 0.0
O141 O 0.9286 0.32604 0.00677 0.0
O142 O 0.97911 0.37223 0.04225 0.0
Mg143 Mg 0.97181 0.38425 0.17616 0.0
C144 C 0.95957 0.34959 0.98973 0.0
C145 C 0.82376 0.24287 0.03833 0.0
O146 O 0.81737 0.23216 0.1148 0.0
O147 O 0.88101 0.35366 0.08689 0.0
O148 O 0.93119 0.39833 0.13262 0.0
O149 O 0.91154 0.27538 0.16783 0.0
O150 O 0.92961 0.33065 0.1982 0.0
C151 C 0.90074 0.38608 0.10292 0.0
C152 C 0.93233 0.30331 0.20811 0.0
O153 O 0.84973 0.27252 0.02163 0.0
Mg154 Mg 0.56981 0.89337 0.27993 0.0
O155 O 0.59095 0.92951 0.16701 0.0
O156 O 0.5935 0.9799 0.19946 0.0
Mg157 Mg 0.57722 0.97783 0.3342 0.0
C158 C 0.59753 0.96031 0.1481 0.0
C159 C 0.58216 0.83712 0.1969 0.0
O160 O 0.60942 0.85289 0.24459 0.0
O161 O 0.51499 0.88491 0.25613 0.0
O162 O 0.52193 0.93573 0.30357 0.0
O163 O 0.62435 0.91559 0.33383 0.0
O164 O 0.58928 0.93644 0.35721 0.0
C165 C 0.50287 0.90483 0.27607 0.0
C166 C 0.61892 0.93891 0.36796 0.0
O167 O 0.55975 0.847 0.19836 0.0
C168 C 0.30399 0.31312 0.08989 0.0
C169 C 0.29873 0.34114 0.10987 0.0
C170 C 0.31822 0.30009 0.1476 0.0
C171 C 0.32767 0.315 0.22616 0.0
H172 H 0.30007 0.3034 0.02761 0.0
H173 H 0.32465 0.28047 0.12836 0.0
S174 S 0.31582 0.38643 0.30981 0.0
N175 N 0.30178 0.38161 0.21461 0.0
N176 N 0.32731 0.35649 0.3231 0.0
C177 C 0.31989 0.34104 0.24828 0.0
C178 C 0.30573 0.35433 0.18996 0.0
C179 C 0.97775 0.31601 0.40741 0.0
C180 C 0.01271 0.33265 0.38263 0.0
C181 C 0.95103 0.30227 0.34939 0.0
C182 C 0.95855 0.30504 0.26507 0.0
H183 H 0.97115 0.3163 0.47133 0.0
H184 H 0.92453 0.29231 0.37027 0.0
S185 S 0.0458 0.34472 0.16956 0.0
N186 N 0.05344 0.34942 0.26909 0.0
N187 N 0.00311 0.32394 0.15988 0.0
C188 C -0.00675 0.31955 0.23993 0.0
C189 C 0.02043 0.3333 0.29896 0.0
C190 C 0.65122 0.9616 0.49834 0.0
C191 C 0.64497 0.96803 0.4175 0.0
C192 C 0.66458 0.98854 0.55708 0.0
C193 C 0.67209 0.02249 0.53609 0.0
H194 H 0.64264 0.93509 0.51819 0.0
H195 H 0.6661 0.9821 0.62039 0.0
S196 S 0.66421 0.05341 0.3308 0.0
N197 N 0.65089 0.01147 0.31795 0.0
N198 N 0.67521 0.06171 0.42818 0.0
C199 C 0.66858 0.02968 0.45418 0.0
C200 C 0.65525 0.0025 0.39474 0.0
C201 C 0.66512 0.67916 0.5805 0.0
C202 C 0.67453 0.6541 0.60128 0.0
C203 C 0.65179 0.69242 0.64029 0.0
C204 C 0.64737 0.68073 0.72198 0.0
H205 H 0.66485 0.68592 0.51682 0.0
H206 H 0.64154 0.70897 0.62083 0.0
S207 S 0.67163 0.61831 0.8081 0.0
N208 N 0.68138 0.6205 0.70967 0.0
N209 N 0.65689 0.64573 0.82171 0.0
C210 C 0.65971 0.65822 0.74433 0.0
C211 C 0.67312 0.64474 0.68387 0.0
C212 C 0.01167 0.68826 0.83637 0.0
C213 C 0.00531 0.67487 0.75613 0.0
C214 C -0.01509 0.67533 0.89548 0.0
C215 C 0.95116 0.64897 0.87533 0.0
H216 H 0.038 0.70626 0.85555 0.0
H217 H -0.00865 0.68357 0.95859 0.0
S218 S 0.92067 0.60829 0.67172 0.0
N219 N 0.96236 0.63652 0.65801 0.0
N220 N 0.91228 0.61214 0.76869 0.0
C221 C 0.94405 0.63767 0.79376 0.0
C222 C 0.97114 0.65067 0.73409 0.0
C223 C 0.31637 0.98515 0.90664 0.0
C224 C 0.32719 0.01976 0.92963 0.0
C225 C 0.303 0.95816 0.96472 0.0
C226 C 0.30001 0.96492 0.04759 0.0
H227 H 0.32107 0.97943 0.84483 0.0
H228 H 0.2977 0.9324 0.9459 0.0
S229 S 0.32269 0.05055 0.13804 0.0
N230 N 0.33206 0.059 0.03959 0.0
N231 N 0.30691 0.00803 0.14913 0.0
C232 C 0.30831 -0.00117 0.07036 0.0
C233 C 0.32187 0.02638 0.01105 0.0
C234 C 0.56075 0.45667 0.37676 0.0
C235 C 0.56283 0.47603 0.44722 0.0
C236 C 0.53097 0.42406 0.36172 0.0
C237 C 0.503 0.40961 0.41768 0.0
H238 H 0.58065 0.46808 0.32975 0.0
H239 H 0.52856 0.41156 0.30305 0.0
S240 S 0.49828 0.44701 0.61704 0.0
N241 N 0.53627 0.47605 0.57817 0.0
N242 N 0.48092 0.41496 0.5496 0.0
C243 C 0.50648 0.42699 0.49179 0.0
C244 C 0.5363 0.46017 0.50671 0.0
C245 C 0.08154 0.53123 0.48836 0.0
C246 C 0.08394 0.51095 0.55182 0.0
C247 C 0.08234 0.56279 0.50504 0.0
C248 C 0.08501 0.57466 0.58585 0.0
H249 H 0.07648 0.52134 0.42618 0.0
H250 H 0.07752 0.57616 0.45556 0.0
S251 S 0.09643 0.53366 0.77209 0.0
N252 N 0.09321 0.50706 0.69697 0.0
N253 N 0.09368 0.56602 0.72868 0.0
C254 C 0.09039 0.55624 0.6488 0.0
C255 C 0.0902 0.52441 0.63166 0.0
C256 C 0.52146 0.08099 0.82892 0.0
C257 C 0.50462 0.08913 0.76707 0.0
C258 C 0.55315 0.08229 0.81391 0.0
C259 C 0.56886 0.0915 0.73636 0.0
H260 H 0.5089 0.07133 0.8878 0.0
H261 H 0.56381 0.07309 0.86095 0.0
S262 S 0.53804 0.11971 0.55725 0.0
N263 N 0.50814 0.11077 0.62852 0.0
N264 N 0.56756 0.11241 0.59968 0.0
C265 C 0.55392 0.10255 0.67617 0.0
C266 C 0.5218 0.10169 0.69178 0.0
C267 C 0.44226 0.56501 0.88172 0.0
C268 C 0.4734 0.56537 0.89986 0.0
C269 C 0.40985 0.53433 0.8931 0.0
C270 C 0.40788 0.50347 0.92353 0.0
H271 H 0.44303 0.58787 0.85517 0.0
H272 H 0.38641 0.53458 0.87635 0.0
S273 S 0.48253 0.49289 0.98813 0.0
N274 N 0.5002 0.53354 0.95547 0.0
N275 N 0.44044 0.47665 0.97715 0.0
C276 C 0.43908 0.50453 0.94568 0.0
C277 C 0.47154 0.53531 0.93391 0.0
C278 C 0.87857 0.42646 0.13809 0.0
C279 C 0.89053 0.4117 0.07879 0.0
C280 C 0.87886 0.45799 0.12249 0.0
C281 C 0.89188 0.47577 0.04782 0.0
H282 H 0.87123 0.41488 0.19858 0.0
H283 H 0.87168 0.46987 0.17129 0.0
S284 S 0.92273 0.44572 0.8705 0.0
N285 N 0.91277 0.41539 0.94119 0.0
N286 N 0.91337 0.47431 0.91129 0.0
C287 C 0.90131 0.45967 0.98623 0.0
C288 C 0.90075 0.42771 0.00196 0.0
C289 C 0.42035 0.8874 0.17363 0.0
C290 C 0.40326 0.89429 0.23768 0.0
C291 C 0.45105 0.88649 0.18795 0.0
C292 C 0.46577 0.89326 0.26641 0.0
H293 H 0.41131 0.88526 0.11122 0.0
H294 H 0.46497 0.88384 0.13624 0.0
S295 S 0.42892 0.90874 0.45563 0.0
N296 N 0.40119 0.90431 0.38314 0.0
N297 N 0.45928 0.90342 0.41004 0.0
C298 C 0.44736 0.89732 0.33182 0.0
C299 C 0.41594 0.89768 0.31744 0.0
C300 C 0.33829 0.37988 0.67786 0.0
C301 C 0.34639 0.3653 0.74516 0.0
C302 C 0.34572 0.37454 0.59734 0.0
C303 C 0.36097 0.35388 0.58058 0.0
H304 H 0.32745 0.39684 0.68742 0.0
H305 H 0.34005 0.38728 0.54793 0.0
S306 S 0.38328 0.30617 0.73427 0.0
N307 N 0.3679 0.32696 0.78922 0.0
N308 N 0.38127 0.31628 0.63786 0.0
C309 C 0.36732 0.33741 0.64695 0.0
C310 C 0.36024 0.34333 0.72918 0.0
C311 C 0.00263 0.35628 0.88091 0.0
C312 C 0.97097 0.35391 0.90322 0.0
C313 C 0.01432 0.36258 0.79912 0.0
C314 C -0.00485 0.36759 0.73695 0.0
H315 H 0.01849 0.35337 0.92696 0.0
H316 H 0.03902 0.36435 0.78512 0.0
S317 S 0.9103 0.364 0.76595 0.0
N318 N 0.92025 0.35626 0.85791 0.0
N319 N 0.94245 0.36935 0.70525 0.0
C320 C 0.96311 0.36478 0.7591 0.0
C321 C 0.951 0.35768 0.84192 0.0
C322 C 0.6255 0.00979 0.04787 0.0
C323 C 0.60874 0.97357 0.06314 0.0
C324 C 0.63302 0.02313 0.96786 0.0
C325 C 0.62355 0.00081 0.89953 0.0
H326 H 0.63228 0.02809 0.09812 0.0
H327 H 0.64497 0.05115 0.95953 0.0
S328 S 0.58331 0.90427 0.90567 0.0
N329 N 0.58617 0.91578 0.00289 0.0
N330 N 0.59963 0.94096 0.85239 0.0
C331 C 0.60837 0.96468 0.91375 0.0
C332 C 0.60123 0.95106 -0.00449 0.0
C333 C 0.6386 0.65045 0.114 0.0
C334 C 0.60637 0.62954 0.07599 0.0
C335 C 0.64419 0.64369 0.19523 0.0
C336 C 0.6174 0.61646 0.2411 0.0
H337 H 0.65964 0.67166 0.08042 0.0
H338 H 0.66946 0.65991 0.22247 0.0
S339 S 0.52883 0.55407 0.16787 0.0
N340 N 0.54792 0.58029 0.08901 0.0
N341 N 0.55802 0.56818 0.24161 0.0
C342 C 0.58514 0.59571 0.20351 0.0
C343 C 0.57973 0.60212 0.12088 0.0
C344 C 0.96448 0.61825 0.3867 0.0
C345 C -0.00038 0.63009 0.40322 0.0
C346 C 0.95226 0.61328 0.30587 0.0
C347 C 0.97459 0.6192 0.23842 0.0
H348 H 0.94622 0.61247 0.43665 0.0
H349 H 0.92481 0.60348 0.29658 0.0
S350 S 0.06915 0.65053 0.24982 0.0
N351 N 0.05681 0.6483 0.34623 0.0
N352 N 0.03396 0.63849 0.19462 0.0
C353 C 0.01003 0.63184 0.25446 0.0
C354 C 0.0225 0.63739 0.33669 0.0
C355 C 0.36732 0.01777 0.42825 0.0
C356 C 0.3461 0.98186 0.41204 0.0
C357 C 0.37373 0.03057 0.50884 0.0
C358 C 0.35973 0.00787 0.57648 0.0
H359 H 0.37977 0.03612 0.3784 0.0
H360 H 0.39109 0.05828 0.5182 0.0
S361 S 0.29903 0.91221 0.56796 0.0
N362 N 0.30825 0.92421 0.47113 0.0
N363 N 0.321 0.94832 0.62203 0.0
C364 C 0.33708 0.9722 0.56126 0.0
C365 C 0.33005 0.9592 0.47925 0.0
C366 C 0.37967 0.2144 0.57159 0.0
C367 C 0.40155 0.22084 0.50335 0.0
C368 C 0.37751 0.1918 0.63444 0.0
C369 C 0.39751 0.17512 0.63209 0.0
H370 H 0.36371 0.22657 0.57603 0.0
H371 H 0.35987 0.18733 0.68503 0.0
S372 S 0.46059 0.1853 0.46869 0.0
N373 N 0.44439 0.20986 0.43791 0.0
N374 N 0.4411 0.16794 0.55664 0.0
C375 C 0.42001 0.18192 0.56463 0.0
C376 C 0.42178 0.20457 0.50005 0.0
C377 C 0.18067 0.40111 0.81448 0.0
C378 C 0.21242 0.403 0.79489 0.0
C379 C 0.15899 0.40151 0.75312 0.0
C380 C 0.16798 0.40334 0.66971 0.0
H381 H 0.17253 0.39959 0.87776 0.0
H382 H 0.13476 0.39997 0.77139 0.0
S383 S 0.248 0.40792 0.58563 0.0
N384 N 0.25166 0.40632 0.68588 0.0
N385 N 0.2107 0.40676 0.57059 0.0
C386 C 0.19949 0.40488 0.64909 0.0
C387 C 0.22177 0.40482 0.71166 0.0
C388 C 0.76729 0.19467 0.98595 0.0
C389 C 0.80212 0.21995 0.97126 0.0
C390 C 0.74641 0.17273 0.92309 0.0
C391 C 0.75967 0.17487 0.84328 0.0
H392 H 0.75593 0.19204 0.04627 0.0
H393 H 0.71965 0.15382 0.93757 0.0
S394 S 0.85029 0.23546 0.77493 0.0
N395 N 0.84956 0.24515 0.87231 0.0
N396 N 0.81057 0.20381 0.75429 0.0
C397 C 0.79473 0.19982 0.82819 0.0
C398 C 0.81588 0.22236 0.89212 0.0
C399 C 0.61122 0.81393 0.1066 0.0
C400 C 0.58021 0.81149 0.13548 0.0
C401 C 0.61098 0.79147 0.04582 0.0
C402 C 0.57969 0.76504 0.01283 0.0
H403 H 0.63609 0.83386 0.1299 0.0
H404 H 0.63562 0.79461 0.02527 0.0
S405 S 0.49111 0.7469 0.06828 0.0
N406 N 0.51711 0.78045 0.12647 0.0
N407 N 0.51669 0.7373 0.01363 0.0
C408 C 0.54832 0.76177 0.04184 0.0
C409 C 0.54858 0.78528 0.10271 0.0
C410 C 0.78646 0.58416 0.31821 0.0
C411 C 0.75293 0.57778 0.29906 0.0
C412 C 0.80826 0.58264 0.25796 0.0
C413 C 0.7976 0.57509 0.17587 0.0
H414 H 0.79616 0.5906 0.38023 0.0
H415 H 0.83399 0.58818 0.27572 0.0
S416 S 0.71193 0.55521 0.09352 0.0
N417 N 0.70975 0.56257 0.19193 0.0
N418 N 0.75096 0.5602 0.07874 0.0
C419 C 0.76406 0.56834 0.15579 0.0
C420 C 0.74167 0.56951 0.21733 0.0
C421 C 0.20212 0.79237 0.49106 0.0
C422 C 0.16866 0.76473 0.47368 0.0
C423 C 0.22389 0.81419 0.42863 0.0
C424 C 0.21291 0.80948 0.3464 0.0
H425 H 0.21172 0.79712 0.55332 0.0
H426 H 0.24944 0.83512 0.44536 0.0
S427 S 0.12674 0.74201 0.26937 0.0
N428 N 0.12503 0.73447 0.36874 0.0
N429 N 0.16583 0.7755 0.2516 0.0
C430 C 0.17934 0.78208 0.32834 0.0
C431 C 0.15726 0.75971 0.39187 0.0
loop_
_geom_bond_atom_site_label_1
_geom_bond_atom_site_label_2
_geom_bond_distance
_geom_bond_site_symmetry_2
_ccdc_geom_bond_type
Mg0 O1 2.028 . S
Mg0 O7 1.986 . S
Mg0 O9 2.114 . S
Mg0 O10 2.251 . S
Mg0 O13 2.010 . S
O1 Mg0 2.028 . S
O1 C4 1.250 . S
O2 Mg3 2.028 . S
O2 C4 1.248 . S
Mg3 O2 2.028 . S
Mg3 O8 2.032 . S
Mg3 O10 2.079 . S
C4 O1 1.250 . S
C4 O2 1.248 . S
C5 O6 1.264 . S
C5 O13 1.249 . S
O6 C5 1.264 . S
O7 Mg0 1.986 . S
O7 C11 1.246 . S
O8 Mg3 2.032 . S
O8 C11 1.259 . S
O9 Mg0 2.114 . S
O9 C12 1.252 . S
O10 Mg0 2.251 . S
O10 Mg3 2.079 . S
O10 C12 1.273 . S
C11 O7 1.246 . S
C11 O8 1.259 . S
C12 O9 1.252 . S
C12 O10 1.273 . S
O13 Mg0 2.010 . S
O13 C5 1.249 . S
Mg14 O15 2.028 . S
Mg14 O21 1.986 . S
Mg14 O23 2.114 . S
Mg14 O24 2.251 . S
Mg14 O27 2.010 . S
O15 Mg14 2.028 . S
O15 C18 1.250 . S
O16 Mg17 2.028 . S
O16 C18 1.248 . S
Mg17 O16 2.028 . S
Mg17 O22 2.032 . S
Mg17 O24 2.079 . S
C18 O15 1.250 . S
C18 O16 1.248 . S
C19 O20 1.264 . S
C19 O27 1.249 . S
O20 C19 1.264 . S
O21 Mg14 1.986 . S
O21 C25 1.246 . S
O22 Mg17 2.032 . S
O22 C25 1.259 . S
O23 Mg14 2.114 . S
O23 C26 1.252 . S
O24 Mg14 2.251 . S
O24 Mg17 2.079 . S
O24 C26 1.273 . S
C25 O21 1.246 . S
C25 O22 1.259 . S
C26 O23 1.252 . S
C26 O24 1.273 . S
O27 Mg14 2.010 . S
O27 C19 1.249 . S
Mg28 O29 2.028 . S
Mg28 O35 1.986 . S
Mg28 O37 2.114 . S
Mg28 O38 2.251 . S
Mg28 O41 2.010 . S
O29 Mg28 2.028 . S
O29 C32 1.250 . S
O30 Mg31 2.028 . S
O30 C32 1.248 . S
Mg31 O30 2.028 . S
Mg31 O36 2.032 . S
Mg31 O38 2.079 . S
C32 O29 1.250 . S
C32 O30 1.248 . S
C33 O34 1.264 . S
C33 O41 1.249 . S
O34 C33 1.264 . S
O35 Mg28 1.986 . S
O35 C39 1.246 . S
O36 Mg31 2.032 . S
O36 C39 1.259 . S
O37 Mg28 2.114 . S
O37 C40 1.252 . S
O38 Mg28 2.251 . S
O38 Mg31 2.079 . S
O38 C40 1.273 . S
C39 O35 1.246 . S
C39 O36 1.259 . S
C40 O37 1.252 . S
C40 O38 1.273 . S
O41 Mg28 2.010 . S
O41 C33 1.249 . S
Mg42 O43 2.028 1_556 S
Mg42 O49 1.986 . S
Mg42 O51 2.114 . S
Mg42 O52 2.251 . S
Mg42 O55 2.010 . S
O43 Mg42 2.028 1_554 S
O43 C46 1.250 . S
O44 Mg45 2.028 . S
O44 C46 1.248 1_556 S
Mg45 O44 2.028 . S
Mg45 O50 2.032 . S
Mg45 O52 2.079 . S
C46 O43 1.250 . S
C46 O44 1.248 1_554 S
C47 O48 1.264 . S
C47 O55 1.249 . S
O48 C47 1.264 . S
O49 Mg42 1.986 . S
O49 C53 1.246 . S
O50 Mg45 2.032 . S
O50 C53 1.259 . S
O51 Mg42 2.114 . S
O51 C54 1.252 . S
O52 Mg42 2.251 . S
O52 Mg45 2.079 . S
O52 C54 1.273 . S
C53 O49 1.246 . S
C53 O50 1.259 . S
C54 O51 1.252 . S
C54 O52 1.273 . S
O55 Mg42 2.010 . S
O55 C47 1.249 . S
Mg56 O57 2.028 . S
Mg56 O63 1.986 . S
Mg56 O65 2.114 1_554 S
Mg56 O66 2.251 1_554 S
Mg56 O69 2.010 . S
O57 Mg56 2.028 . S
O57 C60 1.250 . S
O58 Mg59 2.028 . S
O58 C60 1.248 . S
Mg59 O58 2.028 . S
Mg59 O64 2.032 . S
Mg59 O66 2.079 1_554 S
C60 O57 1.250 . S
C60 O58 1.248 . S
C61 O62 1.264 . S
C61 O69 1.249 . S
O62 C61 1.264 . S
O63 Mg56 1.986 . S
O63 C67 1.246 . S
O64 Mg59 2.032 . S
O64 C67 1.259 . S
O65 Mg56 2.114 1_556 S
O65 C68 1.252 . S
O66 Mg56 2.251 1_556 S
O66 Mg59 2.079 1_556 S
O66 C68 1.273 . S
C67 O63 1.246 . S
C67 O64 1.259 . S
C68 O65 1.252 . S
C68 O66 1.273 . S
O69 Mg56 2.010 . S
O69 C61 1.249 . S
Mg70 O71 2.028 . S
Mg70 O77 1.986 . S
Mg70 O79 2.114 . S
Mg70 O80 2.251 . S
Mg70 O83 2.010 . S
O71 Mg70 2.028 . S
O71 C74 1.250 . S
O72 Mg73 2.028 . S
O72 C74 1.248 . S
Mg73 O72 2.028 . S
Mg73 O78 2.032 . S
Mg73 O80 2.079 . S
C74 O71 1.250 . S
C74 O72 1.248 . S
C75 O76 1.264 . S
C75 O83 1.249 . S
O76 C75 1.264 . S
O77 Mg70 1.986 . S
O77 C81 1.246 . S
O78 Mg73 2.032 . S
O78 C81 1.259 . S
O79 Mg70 2.114 . S
O79 C82 1.252 . S
O80 Mg70 2.251 . S
O80 Mg73 2.079 . S
O80 C82 1.273 . S
C81 O77 1.246 . S
C81 O78 1.259 . S
C82 O79 1.252 . S
C82 O80 1.273 . S
O83 Mg70 2.010 . S
O83 C75 1.249 . S
Mg84 O85 2.028 . S
Mg84 O91 1.986 . S
Mg84 O93 2.114 . S
Mg84 O94 2.251 . S
Mg84 O97 2.010 . S
O85 Mg84 2.028 . S
O85 C88 1.250 . S
O86 Mg87 2.028 . S
O86 C88 1.248 . S
Mg87 O86 2.028 . S
Mg87 O92 2.032 . S
Mg87 O94 2.079 . S
C88 O85 1.250 . S
C88 O86 1.248 . S
C89 O90 1.264 . S
C89 O97 1.249 . S
O90 C89 1.264 . S
O91 Mg84 1.986 . S
O91 C95 1.246 . S
O92 Mg87 2.032 . S
O92 C95 1.259 . S
O93 Mg84 2.114 . S
O93 C96 1.252 . S
O94 Mg84 2.251 . S
O94 Mg87 2.079 . S
O94 C96 1.273 . S
C95 O91 1.246 . S
C95 O92 1.259 . S
C96 O93 1.252 . S
C96 O94 1.273 . S
O97 Mg84 2.010 . S
O97 C89 1.249 . S
Mg98 O99 2.028 . S
Mg98 O105 1.986 . S
Mg98 O107 2.114 . S
Mg98 O108 2.251 . S
Mg98 O111 2.010 . S
O99 Mg98 2.028 . S
O99 C102 1.250 . S
O100 Mg101 2.028 . S
O100 C102 1.248 . S
Mg101 O100 2.028 . S
Mg101 O106 2.032 . S
Mg101 O108 2.079 . S
C102 O99 1.250 . S
C102 O100 1.248 . S
C103 O104 1.264 . S
C103 O111 1.249 . S
O104 C103 1.264 . S
O105 Mg98 1.986 . S
O105 C109 1.246 . S
O106 Mg101 2.032 . S
O106 C109 1.259 . S
O107 Mg98 2.114 . S
O107 C110 1.252 . S
O108 Mg98 2.251 . S
O108 Mg101 2.079 . S
O108 C110 1.273 . S
C109 O105 1.246 . S
C109 O106 1.259 . S
C110 O107 1.252 . S
C110 O108 1.273 . S
O111 Mg98 2.010 . S
O111 C103 1.249 . S
Mg112 O113 2.028 . S
Mg112 O119 1.986 . S
Mg112 O121 2.114 . S
Mg112 O122 2.251 . S
Mg112 O125 2.010 . S
O113 Mg112 2.028 . S
O113 C116 1.250 . S
O114 Mg115 2.028 . S
O114 C116 1.248 . S
Mg115 O114 2.028 . S
Mg115 O120 2.032 . S
Mg115 O122 2.079 . S
C116 O113 1.250 . S
C116 O114 1.248 . S
C117 O118 1.264 . S
C117 O125 1.249 . S
O118 C117 1.264 . S
O119 Mg112 1.986 . S
O119 C123 1.246 . S
O120 Mg115 2.032 . S
O120 C123 1.259 . S
O121 Mg112 2.114 . S
O121 C124 1.252 . S
O122 Mg112 2.251 . S
O122 Mg115 2.079 . S
O122 C124 1.273 . S
C123 O119 1.246 . S
C123 O120 1.259 . S
C124 O121 1.252 . S
C124 O122 1.273 . S
O125 Mg112 2.010 . S
O125 C117 1.249 . S
Mg126 O127 2.028 . S
Mg126 O133 1.986 . S
Mg126 O135 2.114 1_556 S
Mg126 O136 2.251 1_556 S
Mg126 O139 2.010 . S
O127 Mg126 2.028 . S
O127 C130 1.250 . S
O128 Mg129 2.028 . S
O128 C130 1.248 . S
Mg129 O128 2.028 . S
Mg129 O134 2.032 . S
Mg129 O136 2.079 1_556 S
C130 O127 1.250 . S
C130 O128 1.248 . S
C131 O132 1.264 . S
C131 O139 1.249 . S
O132 C131 1.264 . S
O133 Mg126 1.986 . S
O133 C137 1.246 . S
O134 Mg129 2.032 . S
O134 C137 1.259 . S
O135 Mg126 2.114 1_554 S
O135 C138 1.252 . S
O136 Mg126 2.251 1_554 S
O136 Mg129 2.079 1_554 S
O136 C138 1.273 . S
C137 O133 1.246 . S
C137 O134 1.259 . S
C138 O135 1.252 . S
C138 O136 1.273 . S
O139 Mg126 2.010 . S
O139 C131 1.249 . S
Mg140 O141 2.028 1_554 S
Mg140 O147 1.986 . S
Mg140 O149 2.114 . S
Mg140 O150 2.251 . S
Mg140 O153 2.010 . S
O141 Mg140 2.028 1_556 S
O141 C144 1.250 . S
O142 Mg143 2.028 . S
O142 C144 1.248 1_554 S
Mg143 O142 2.028 . S
Mg143 O148 2.032 . S
Mg143 O150 2.079 . S
C144 O141 1.250 . S
C144 O142 1.248 1_556 S
C145 O146 1.264 . S
C145 O153 1.249 . S
O146 C145 1.264 . S
O147 Mg140 1.986 . S
O147 C151 1.246 . S
O148 Mg143 2.032 . S
O148 C151 1.259 . S
O149 Mg140 2.114 . S
O149 C152 1.252 . S
O150 Mg140 2.251 . S
O150 Mg143 2.079 . S
O150 C152 1.273 . S
C151 O147 1.246 . S
C151 O148 1.259 . S
C152 O149 1.252 . S
C152 O150 1.273 . S
O153 Mg140 2.010 . S
O153 C145 1.249 . S
Mg154 O155 2.028 . S
Mg154 O161 1.986 . S
Mg154 O163 2.114 . S
Mg154 O164 2.251 . S
Mg154 O167 2.010 . S
O155 Mg154 2.028 . S
O155 C158 1.250 . S
O156 Mg157 2.028 . S
O156 C158 1.248 . S
Mg157 O156 2.028 . S
Mg157 O162 2.032 . S
Mg157 O164 2.079 . S
C158 O155 1.250 . S
C158 O156 1.248 . S
C159 O160 1.264 . S
C159 O167 1.249 . S
O160 C159 1.264 . S
O161 Mg154 1.986 . S
O161 C165 1.246 . S
O162 Mg157 2.032 . S
O162 C165 1.259 . S
O163 Mg154 2.114 . S
O163 C166 1.252 . S
O164 Mg154 2.251 . S
O164 Mg157 2.079 . S
O164 C166 1.273 . S
C165 O161 1.246 . S
C165 O162 1.259 . S
C166 O163 1.252 . S
C166 O164 1.273 . S
O167 Mg154 2.010 . S
O167 C159 1.249 . S
C168 C169 1.369 . S
C168 C170 1.419 . S
C168 H172 0.930 . S
C169 C168 1.369 . S
C169 C178 1.429 . S
C170 C168 1.419 . S
C170 C171 1.363 . S
C170 H173 0.929 . S
C171 C170 1.363 . S
C171 C177 1.428 . S
H172 C168 0.930 . S
H173 C170 0.929 . S
S174 N175 1.613 . S
S174 N176 1.610 . S
N175 S174 1.613 . S
N175 C178 1.350 . S
N176 S174 1.610 . S
N176 C177 1.351 . S
C177 C171 1.428 . S
C177 N176 1.351 . S
C177 C178 1.434 . S
C178 C169 1.429 . S
C178 N175 1.350 . S
C178 C177 1.434 . S
C179 C180 1.369 1_655 S
C179 C181 1.419 . S
C179 H183 0.930 . S
C180 C179 1.369 1_455 S
C180 C189 1.429 . S
C181 C179 1.419 . S
C181 C182 1.363 . S
C181 H184 0.929 . S
C182 C181 1.363 . S
C182 C188 1.428 1_655 S
H183 C179 0.930 . S
H184 C181 0.929 . S
S185 N186 1.613 . S
S185 N187 1.610 . S
N186 S185 1.613 . S
N186 C189 1.350 . S
N187 S185 1.610 . S
N187 C188 1.351 . S
C188 C182 1.428 1_455 S
C188 N187 1.351 . S
C188 C189 1.434 . S
C189 C180 1.429 . S
C189 N186 1.350 . S
C189 C188 1.434 . S
C190 C191 1.369 . S
C190 C192 1.419 . S
C190 H194 0.930 . S
C191 C190 1.369 . S
C191 C200 1.429 1_565 S
C192 C190 1.419 . S
C192 C193 1.363 1_565 S
C192 H195 0.929 . S
C193 C192 1.363 1_545 S
C193 C199 1.428 . S
H194 C190 0.930 . S
H195 C192 0.929 . S
S196 N197 1.613 . S
S196 N198 1.610 . S
N197 S196 1.613 . S
N197 C200 1.350 . S
N198 S196 1.610 . S
N198 C199 1.351 . S
C199 C193 1.428 . S
C199 N198 1.351 . S
C199 C200 1.434 . S
C200 C191 1.429 1_545 S
C200 N197 1.350 . S
C200 C199 1.434 . S
C201 C202 1.369 . S
C201 C203 1.419 . S
C201 H205 0.930 . S
C202 C201 1.369 . S
C202 C211 1.429 . S
C203 C201 1.419 . S
C203 C204 1.363 . S
C203 H206 0.929 . S
C204 C203 1.363 . S
C204 C210 1.428 . S
H205 C201 0.930 . S
H206 C203 0.929 . S
S207 N208 1.613 . S
S207 N209 1.610 . S
N208 S207 1.613 . S
N208 C211 1.350 . S
N209 S207 1.610 . S
N209 C210 1.351 . S
C210 C204 1.428 . S
C210 N209 1.351 . S
C210 C211 1.434 . S
C211 C202 1.429 . S
C211 N208 1.350 . S
C211 C210 1.434 . S
C212 C213 1.369 . S
C212 C214 1.419 . S
C212 H216 0.930 . S
C213 C212 1.369 . S
C213 C222 1.429 1_455 S
C214 C212 1.419 . S
C214 C215 1.363 1_455 S
C214 H217 0.929 . S
C215 C214 1.363 1_655 S
C215 C221 1.428 . S
H216 C212 0.930 . S
H217 C214 0.929 . S
S218 N219 1.613 . S
S218 N220 1.610 . S
N219 S218 1.613 . S
N219 C222 1.350 . S
N220 S218 1.610 . S
N220 C221 1.351 . S
C221 C215 1.428 . S
C221 N220 1.351 . S
C221 C222 1.434 . S
C222 C213 1.429 1_655 S
C222 N219 1.350 . S
C222 C221 1.434 . S
C223 C224 1.369 1_565 S
C223 C225 1.419 . S
C223 H227 0.930 . S
C224 C223 1.369 1_545 S
C224 C233 1.429 1_556 S
C225 C223 1.419 . S
C225 C226 1.363 1_556 S
C225 H228 0.929 . S
C226 C225 1.363 1_554 S
C226 C232 1.428 1_565 S
H227 C223 0.930 . S
H228 C225 0.929 . S
S229 N230 1.613 . S
S229 N231 1.610 . S
N230 S229 1.613 . S
N230 C233 1.350 . S
N231 S229 1.610 . S
N231 C232 1.351 . S
C232 C226 1.428 1_545 S
C232 N231 1.351 . S
C232 C233 1.434 . S
C233 C224 1.429 1_554 S
C233 N230 1.350 . S
C233 C232 1.434 . S
C234 C235 1.369 . S
C234 C236 1.419 . S
C234 H238 0.930 . S
C235 C234 1.369 . S
C235 C244 1.429 . S
C236 C234 1.419 . S
C236 C237 1.363 . S
C236 H239 0.929 . S
C237 C236 1.363 . S
C237 C243 1.428 . S
H238 C234 0.930 . S
H239 C236 0.929 . S
S240 N241 1.613 . S
S240 N242 1.610 . S
N241 S240 1.613 . S
N241 C244 1.350 . S
N242 S240 1.610 . S
N242 C243 1.351 . S
C243 C237 1.428 . S
C243 N242 1.351 . S
C243 C244 1.434 . S
C244 C235 1.429 . S
C244 N241 1.350 . S
C244 C243 1.434 . S
C245 C246 1.369 . S
C245 C247 1.419 . S
C245 H249 0.930 . S
C246 C245 1.369 . S
C246 C255 1.429 . S
C247 C245 1.419 . S
C247 C248 1.363 . S
C247 H250 0.929 . S
C248 C247 1.363 . S
C248 C254 1.428 . S
H249 C245 0.930 . S
H250 C247 0.929 . S
S251 N252 1.613 . S
S251 N253 1.610 . S
N252 S251 1.613 . S
N252 C255 1.350 . S
N253 S251 1.610 . S
N253 C254 1.351 . S
C254 C248 1.428 . S
C254 N253 1.351 . S
C254 C255 1.434 . S
C255 C246 1.429 . S
C255 N252 1.350 . S
C255 C254 1.434 . S
C256 C257 1.369 . S
C256 C258 1.419 . S
C256 H260 0.930 . S
C257 C256 1.369 . S
C257 C266 1.429 . S
C258 C256 1.419 . S
C258 C259 1.363 . S
C258 H261 0.929 . S
C259 C258 1.363 . S
C259 C265 1.428 . S
H260 C256 0.930 . S
H261 C258 0.929 . S
S262 N263 1.613 . S
S262 N264 1.610 . S
N263 S262 1.613 . S
N263 C266 1.350 . S
N264 S262 1.610 . S
N264 C265 1.351 . S
C265 C259 1.428 . S
C265 N264 1.351 . S
C265 C266 1.434 . S
C266 C257 1.429 . S
C266 N263 1.350 . S
C266 C265 1.434 . S
C267 C268 1.369 . S
C267 C269 1.419 . S
C267 H271 0.930 . S
C268 C267 1.369 . S
C268 C277 1.429 . S
C269 C267 1.419 . S
C269 C270 1.363 . S
C269 H272 0.929 . S
C270 C269 1.363 . S
C270 C276 1.428 . S
H271 C267 0.930 . S
H272 C269 0.929 . S
S273 N274 1.613 . S
S273 N275 1.610 . S
N274 S273 1.613 . S
N274 C277 1.350 . S
N275 S273 1.610 . S
N275 C276 1.351 . S
C276 C270 1.428 . S
C276 N275 1.351 . S
C276 C277 1.434 . S
C277 C268 1.429 . S
C277 N274 1.350 . S
C277 C276 1.434 . S
C278 C279 1.369 . S
C278 C280 1.419 . S
C278 H282 0.930 . S
C279 C278 1.369 . S
C279 C288 1.429 . S
C280 C278 1.419 . S
C280 C281 1.363 . S
C280 H283 0.929 . S
C281 C280 1.363 . S
C281 C287 1.428 . S
H282 C278 0.930 . S
H283 C280 0.929 . S
S284 N285 1.613 . S
S284 N286 1.610 . S
N285 S284 1.613 . S
N285 C288 1.350 1_556 S
N286 S284 1.610 . S
N286 C287 1.351 1_556 S
C287 C281 1.428 . S
C287 N286 1.351 1_554 S
C287 C288 1.434 . S
C288 C279 1.429 . S
C288 N285 1.350 1_554 S
C288 C287 1.434 . S
C289 C290 1.369 . S
C289 C291 1.419 . S
C289 H293 0.930 . S
C290 C289 1.369 . S
C290 C299 1.429 . S
C291 C289 1.419 . S
C291 C292 1.363 . S
C291 H294 0.929 . S
C292 C291 1.363 . S
C292 C298 1.428 . S
H293 C289 0.930 . S
H294 C291 0.929 . S
S295 N296 1.613 . S
S295 N297 1.610 . S
N296 S295 1.613 . S
N296 C299 1.350 . S
N297 S295 1.610 . S
N297 C298 1.351 . S
C298 C292 1.428 . S
C298 N297 1.351 . S
C298 C299 1.434 . S
C299 C290 1.429 . S
C299 N296 1.350 . S
C299 C298 1.434 . S
C300 C301 1.369 . S
C300 C302 1.419 . S
C300 H304 0.930 . S
C301 C300 1.369 . S
C301 C310 1.429 . S
C302 C300 1.419 . S
C302 C303 1.363 . S
C302 H305 0.929 . S
C303 C302 1.363 . S
C303 C309 1.428 . S
H304 C300 0.930 . S
H305 C302 0.929 . S
S306 N307 1.613 . S
S306 N308 1.610 . S
N307 S306 1.613 . S
N307 C310 1.350 . S
N308 S306 1.610 . S
N308 C309 1.351 . S
C309 C303 1.428 . S
C309 N308 1.351 . S
C309 C310 1.434 . S
C310 C301 1.429 . S
C310 N307 1.350 . S
C310 C309 1.434 . S
C311 C312 1.344 1_455 S
C311 C313 1.433 . S
C311 H315 0.942 . S
C312 C311 1.344 1_655 S
C312 C321 1.429 . S
C313 C311 1.433 . S
C313 C314 1.363 . S
C313 H316 0.929 . S
C314 C313 1.363 . S
C314 C320 1.428 1_455 S
H315 C311 0.942 . S
H316 C313 0.929 . S
S317 N318 1.613 . S
S317 N319 1.610 . S
N318 S317 1.613 . S
N318 C321 1.350 . S
N319 S317 1.610 . S
N319 C320 1.351 . S
C320 C314 1.428 1_655 S
C320 N319 1.351 . S
C320 C321 1.434 . S
C321 C312 1.429 . S
C321 N318 1.350 . S
C321 C320 1.434 . S
C322 C323 1.369 1_545 S
C322 C324 1.419 . S
C322 H326 0.930 . S
C323 C322 1.369 1_565 S
C323 C332 1.429 1_554 S
C324 C322 1.419 . S
C324 C325 1.363 1_554 S
C324 H327 0.929 . S
C325 C324 1.363 1_556 S
C325 C331 1.428 1_545 S
H326 C322 0.930 . S
H327 C324 0.929 . S
S328 N329 1.613 . S
S328 N330 1.610 . S
N329 S328 1.613 . S
N329 C332 1.350 . S
N330 S328 1.610 . S
N330 C331 1.351 . S
C331 C325 1.428 1_565 S
C331 N330 1.351 . S
C331 C332 1.434 . S
C332 C323 1.429 1_556 S
C332 N329 1.350 . S
C332 C331 1.434 . S
C333 C334 1.369 . S
C333 C335 1.419 . S
C333 H337 0.930 . S
C334 C333 1.369 . S
C334 C343 1.429 . S
C335 C333 1.419 . S
C335 C336 1.363 . S
C335 H338 0.929 . S
C336 C335 1.363 . S
C336 C342 1.428 . S
H337 C333 0.930 . S
H338 C335 0.929 . S
S339 N340 1.613 . S
S339 N341 1.610 . S
N340 S339 1.613 . S
N340 C343 1.350 . S
N341 S339 1.610 . S
N341 C342 1.351 . S
C342 C336 1.428 . S
C342 N341 1.351 . S
C342 C343 1.434 . S
C343 C334 1.429 . S
C343 N340 1.350 . S
C343 C342 1.434 . S
C344 C345 1.369 1_655 S
C344 C346 1.419 . S
C344 H348 0.930 . S
C345 C344 1.369 1_455 S
C345 C354 1.429 . S
C346 C344 1.419 . S
C346 C347 1.363 . S
C346 H349 0.929 . S
C347 C346 1.363 . S
C347 C353 1.428 1_655 S
H348 C344 0.930 . S
H349 C346 0.929 . S
S350 N351 1.613 . S
S350 N352 1.610 . S
N351 S350 1.613 . S
N351 C354 1.350 . S
N352 S350 1.610 . S
N352 C353 1.351 . S
C353 C347 1.428 1_455 S
C353 N352 1.351 . S
C353 C354 1.434 . S
C354 C345 1.429 . S
C354 N351 1.350 . S
C354 C353 1.434 . S
C355 C356 1.369 1_545 S
C355 C357 1.419 . S
C355 H359 0.930 . S
C356 C355 1.369 1_565 S
C356 C365 1.429 . S
C357 C355 1.419 . S
C357 C358 1.363 . S
C357 H360 0.929 . S
C358 C357 1.363 . S
C358 C364 1.428 1_545 S
H359 C355 0.930 . S
H360 C357 0.929 . S
S361 N362 1.613 . S
S361 N363 1.610 . S
N362 S361 1.613 . S
N362 C365 1.350 . S
N363 S361 1.610 . S
N363 C364 1.351 . S
C364 C358 1.428 1_565 S
C364 N363 1.351 . S
C364 C365 1.434 . S
C365 C356 1.429 . S
C365 N362 1.350 . S
C365 C364 1.434 . S
C366 C367 1.369 . S
C366 C368 1.419 . S
C366 H370 0.930 . S
C367 C366 1.369 . S
C367 C376 1.429 . S
C368 C366 1.419 . S
C368 C369 1.363 . S
C368 H371 0.929 . S
C369 C368 1.363 . S
C369 C375 1.428 . S
H370 C366 0.930 . S
H371 C368 0.929 . S
S372 N373 1.613 . S
S372 N374 1.610 . S
N373 S372 1.613 . S
N373 C376 1.350 . S
N374 S372 1.610 . S
N374 C375 1.351 . S
C375 C369 1.428 . S
C375 N374 1.351 . S
C375 C376 1.434 . S
C376 C367 1.429 . S
C376 N373 1.350 . S
C376 C375 1.434 . S
C377 C378 1.369 . S
C377 C379 1.419 . S
C377 H381 0.930 . S
C378 C377 1.369 . S
C378 C387 1.429 . S
C379 C377 1.419 . S
C379 C380 1.363 . S
C379 H382 0.929 . S
C380 C379 1.363 . S
C380 C386 1.428 . S
H381 C377 0.930 . S
H382 C379 0.929 . S
S383 N384 1.613 . S
S383 N385 1.610 . S
N384 S383 1.613 . S
N384 C387 1.350 . S
N385 S383 1.610 . S
N385 C386 1.351 . S
C386 C380 1.428 . S
C386 N385 1.351 . S
C386 C387 1.434 . S
C387 C378 1.429 . S
C387 N384 1.350 . S
C387 C386 1.434 . S
C388 C389 1.369 . S
C388 C390 1.419 . S
C388 H392 0.930 1_556 S
C389 C388 1.369 . S
C389 C398 1.429 . S
C390 C388 1.419 . S
C390 C391 1.363 . S
C390 H393 0.929 . S
C391 C390 1.363 . S
C391 C397 1.428 . S
H392 C388 0.930 1_554 S
H393 C390 0.929 . S
S394 N395 1.613 . S
S394 N396 1.610 . S
N395 S394 1.613 . S
N395 C398 1.350 . S
N396 S394 1.610 . S
N396 C397 1.351 . S
C397 C391 1.428 . S
C397 N396 1.351 . S
C397 C398 1.434 . S
C398 C389 1.429 . S
C398 N395 1.350 . S
C398 C397 1.434 . S
C399 C400 1.369 . S
C399 C401 1.419 . S
C399 H403 0.930 . S
C400 C399 1.369 . S
C400 C409 1.429 . S
C401 C399 1.419 . S
C401 C402 1.363 . S
C401 H404 0.929 . S
C402 C401 1.363 . S
C402 C408 1.428 . S
H403 C399 0.930 . S
H404 C401 0.929 . S
S405 N406 1.613 . S
S405 N407 1.610 . S
N406 S405 1.613 . S
N406 C409 1.350 . S
N407 S405 1.610 . S
N407 C408 1.351 . S
C408 C402 1.428 . S
C408 N407 1.351 . S
C408 C409 1.434 . S
C409 C400 1.429 . S
C409 N406 1.350 . S
C409 C408 1.434 . S
C410 C411 1.369 . S
C410 C412 1.419 . S
C410 H414 0.930 . S
C411 C410 1.369 . S
C411 C420 1.429 . S
C412 C410 1.419 . S
C412 C413 1.363 . S
C412 H415 0.929 . S
C413 C412 1.363 . S
C413 C419 1.428 . S
H414 C410 0.930 . S
H415 C412 0.929 . S
S416 N417 1.613 . S
S416 N418 1.610 . S
N417 S416 1.613 . S
N417 C420 1.350 . S
N418 S416 1.610 . S
N418 C419 1.351 . S
C419 C413 1.428 . S
C419 N418 1.351 . S
C419 C420 1.434 . S
C420 C411 1.429 . S
C420 N417 1.350 . S
C420 C419 1.434 . S
C421 C422 1.369 . S
C421 C423 1.419 . S
C421 H425 0.930 . S
C422 C421 1.369 . S
C422 C431 1.429 . S
C423 C421 1.419 . S
C423 C424 1.363 . S
C423 H426 0.929 . S
C424 C423 1.363 . S
C424 C430 1.428 . S
H425 C421 0.930 . S
H426 C423 0.929 . S
S427 N428 1.613 . S
S427 N429 1.610 . S
N428 S427 1.613 . S
N428 C431 1.350 . S
N429 S427 1.610 . S
N429 C430 1.351 . S
C430 C424 1.428 . S
C430 N429 1.351 . S
C430 C431 1.434 . S
C431 C422 1.429 . S
C431 N428 1.350 . S
C431 C430 1.434 . S
C169 C138 1.358 . S
C171 C12 1.357 . S
C180 C26 1.362 . S
C182 C152 1.358 . S
C191 C166 1.357 . S
C193 C40 1.361 . S
C202 C96 1.360 . S
C204 C54 1.357 . S
C213 C110 1.358 . S
C215 C68 1.362 . S
C224 C124 1.362 . S
C226 C82 1.358 . S
C235 C95 1.464 . S
C237 C11 1.465 . S
C246 C25 1.466 . S
C248 C109 1.466 . S
C257 C123 1.468 . S
C259 C39 1.467 . S
C268 C53 1.462 . S
C270 C137 1.463 . S
C279 C151 1.463 . S
C281 C67 1.464 . S
C290 C81 1.464 . S
C292 C165 1.464 . S
C301 C130 1.183 . S
C303 C4 1.190 . S
C312 C144 1.188 . S
C314 C18 1.184 . S
C323 C158 1.193 . S
C325 C32 1.187 . S
C334 C46 1.186 . S
C336 C88 1.184 . S
C345 C102 1.192 . S
C347 C60 1.186 . S
C356 C74 1.193 . S
C358 C116 1.187 . S
C367 C5 1.373 . S
C369 C117 1.381 . S
C378 C131 1.382 . S
C380 C19 1.375 . S
C389 C145 1.385 1_556 S
C391 C33 1.376 . S
C400 C159 1.374 . S
C402 C47 1.378 1_554 S
C411 C89 1.380 . S
C413 C61 1.375 . S
C422 C103 1.383 . S
C424 C75 1.375 . S
