# Generated by pormake.
# Topology vba, (4)-cn, num edge types: 1
# Building blocks:
#     Node 0, Type 0, BuildingBlock: KOZSID_clean_sbu_0, # of connection points: 4
#     Node 1, Type 0, BuildingBlock: KOZSID_clean_sbu_0, # of connection points: 4
#     Node 2, Type 0, BuildingBlock: KOZSID_clean_sbu_0, # of connection points: 4
#     Node 3, Type 0, BuildingBlock: KOZSID_clean_sbu_0, # of connection points: 4
#     Node 4, Type 0, BuildingBlock: KOZSID_clean_sbu_0, # of connection points: 4
#     Node 5, Type 0, BuildingBlock: KOZSID_clean_sbu_0, # of connection points: 4
#     Node 6, Type 0, BuildingBlock: KOZSID_clean_sbu_0, # of connection points: 4
#     Node 7, Type 0, BuildingBlock: KOZSID_clean_sbu_0, # of connection points: 4
#     Node 8, Type 0, BuildingBlock: KOZSID_clean_sbu_0, # of connection points: 4
#     Node 9, Type 0, BuildingBlock: KOZSID_clean_sbu_0, # of connection points: 4
#     Node 10, Type 0, BuildingBlock: KOZSID_clean_sbu_0, # of connection points: 4
#     Node 11, Type 0, BuildingBlock: KOZSID_clean_sbu_0, # of connection points: 4
#     Node 12, Type 0, BuildingBlock: KOZSID_clean_sbu_0, # of connection points: 4
#     Node 13, Type 0, BuildingBlock: KOZSID_clean_sbu_0, # of connection points: 4
#     Node 14, Type 0, BuildingBlock: KOZSID_clean_sbu_0, # of connection points: 4
#     Node 15, Type 0, BuildingBlock: KOZSID_clean_sbu_0, # of connection points: 4
#     Node 16, Type 0, BuildingBlock: KOZSID_clean_sbu_0, # of connection points: 4
#     Node 17, Type 0, BuildingBlock: KOZSID_clean_sbu_0, # of connection points: 4
#     Node 18, Type 0, BuildingBlock: KOZSID_clean_sbu_0, # of connection points: 4
#     Node 19, Type 0, BuildingBlock: KOZSID_clean_sbu_0, # of connection points: 4
#     Node 20, Type 0, BuildingBlock: KOZSID_clean_sbu_0, # of connection points: 4
#     Node 21, Type 0, BuildingBlock: KOZSID_clean_sbu_0, # of connection points: 4
#     Node 22, Type 0, BuildingBlock: KOZSID_clean_sbu_0, # of connection points: 4
#     Node 23, Type 0, BuildingBlock: KOZSID_clean_sbu_0, # of connection points: 4
#     Node 24, Type 0, BuildingBlock: KOZSID_clean_sbu_0, # of connection points: 4
#     Node 25, Type 0, BuildingBlock: KOZSID_clean_sbu_0, # of connection points: 4
#     Node 26, Type 0, BuildingBlock: KOZSID_clean_sbu_0, # of connection points: 4
#     Node 27, Type 0, BuildingBlock: KOZSID_clean_sbu_0, # of connection points: 4
#     Node 28, Type 0, BuildingBlock: KOZSID_clean_sbu_0, # of connection points: 4
#     Node 29, Type 0, BuildingBlock: KOZSID_clean_sbu_0, # of connection points: 4
#     Node 30, Type 0, BuildingBlock: KOZSID_clean_sbu_0, # of connection points: 4
#     Node 31, Type 0, BuildingBlock: KOZSID_clean_sbu_0, # of connection points: 4
#     Edge 32, Type (0, 0), BuildingBlock: CIFDUS_clean_linker_0, # of connection points: 2
#     Edge 33, Type (0, 0), BuildingBlock: CIFDUS_clean_linker_0, # of connection points: 2
#     Edge 34, Type (0, 0), BuildingBlock: CIFDUS_clean_linker_0, # of connection points: 2
#     Edge 35, Type (0, 0), BuildingBlock: CIFDUS_clean_linker_0, # of connection points: 2
#     Edge 36, Type (0, 0), BuildingBlock: CIFDUS_clean_linker_0, # of connection points: 2
#     Edge 37, Type (0, 0), BuildingBlock: CIFDUS_clean_linker_0, # of connection points: 2
#     Edge 38, Type (0, 0), BuildingBlock: CIFDUS_clean_linker_0, # of connection points: 2
#     Edge 39, Type (0, 0), BuildingBlock: CIFDUS_clean_linker_0, # of connection points: 2
#     Edge 40, Type (0, 0), BuildingBlock: CIFDUS_clean_linker_0, # of connection points: 2
#     Edge 41, Type (0, 0), BuildingBlock: CIFDUS_clean_linker_0, # of connection points: 2
#     Edge 42, Type (0, 0), BuildingBlock: CIFDUS_clean_linker_0, # of connection points: 2
#     Edge 43, Type (0, 0), BuildingBlock: CIFDUS_clean_linker_0, # of connection points: 2
#     Edge 44, Type (0, 0), BuildingBlock: CIFDUS_clean_linker_0, # of connection points: 2
#     Edge 45, Type (0, 0), BuildingBlock: CIFDUS_clean_linker_0, # of connection points: 2
#     Edge 46, Type (0, 0), BuildingBlock: CIFDUS_clean_linker_0, # of connection points: 2
#     Edge 47, Type (0, 0), BuildingBlock: CIFDUS_clean_linker_0, # of connection points: 2
#     Edge 48, Type (0, 0), BuildingBlock: CIFDUS_clean_linker_0, # of connection points: 2
#     Edge 49, Type (0, 0), BuildingBlock: CIFDUS_clean_linker_0, # of connection points: 2
#     Edge 50, Type (0, 0), BuildingBlock: CIFDUS_clean_linker_0, # of connection points: 2
#     Edge 51, Type (0, 0), BuildingBlock: CIFDUS_clean_linker_0, # of connection points: 2
#     Edge 52, Type (0, 0), BuildingBlock: CIFDUS_clean_linker_0, # of connection points: 2
#     Edge 53, Type (0, 0), BuildingBlock: CIFDUS_clean_linker_0, # of connection points: 2
#     Edge 54, Type (0, 0), BuildingBlock: CIFDUS_clean_linker_0, # of connection points: 2
#     Edge 55, Type (0, 0), BuildingBlock: CIFDUS_clean_linker_0, # of connection points: 2
#     Edge 56, Type (0, 0), BuildingBlock: CIFDUS_clean_linker_0, # of connection points: 2
#     Edge 57, Type (0, 0), BuildingBlock: CIFDUS_clean_linker_0, # of connection points: 2
#     Edge 58, Type (0, 0), BuildingBlock: CIFDUS_clean_linker_0, # of connection points: 2
#     Edge 59, Type (0, 0), BuildingBlock: CIFDUS_clean_linker_0, # of connection points: 2
#     Edge 60, Type (0, 0), BuildingBlock: CIFDUS_clean_linker_0, # of connection points: 2
#     Edge 61, Type (0, 0), BuildingBlock: CIFDUS_clean_linker_0, # of connection points: 2
#     Edge 62, Type (0, 0), BuildingBlock: CIFDUS_clean_linker_0, # of connection points: 2
#     Edge 63, Type (0, 0), BuildingBlock: CIFDUS_clean_linker_0, # of connection points: 2
#     Edge 64, Type (0, 0), BuildingBlock: CIFDUS_clean_linker_0, # of connection points: 2
#     Edge 65, Type (0, 0), BuildingBlock: CIFDUS_clean_linker_0, # of connection points: 2
#     Edge 66, Type (0, 0), BuildingBlock: CIFDUS_clean_linker_0, # of connection points: 2
#     Edge 67, Type (0, 0), BuildingBlock: CIFDUS_clean_linker_0, # of connection points: 2
#     Edge 68, Type (0, 0), BuildingBlock: CIFDUS_clean_linker_0, # of connection points: 2
#     Edge 69, Type (0, 0), BuildingBlock: CIFDUS_clean_linker_0, # of connection points: 2
#     Edge 70, Type (0, 0), BuildingBlock: CIFDUS_clean_linker_0, # of connection points: 2
#     Edge 71, Type (0, 0), BuildingBlock: CIFDUS_clean_linker_0, # of connection points: 2
#     Edge 72, Type (0, 0), BuildingBlock: CIFDUS_clean_linker_0, # of connection points: 2
#     Edge 73, Type (0, 0), BuildingBlock: CIFDUS_clean_linker_0, # of connection points: 2
#     Edge 74, Type (0, 0), BuildingBlock: CIFDUS_clean_linker_0, # of connection points: 2
#     Edge 75, Type (0, 0), BuildingBlock: CIFDUS_clean_linker_0, # of connection points: 2
#     Edge 76, Type (0, 0), BuildingBlock: CIFDUS_clean_linker_0, # of connection points: 2
#     Edge 77, Type (0, 0), BuildingBlock: CIFDUS_clean_linker_0, # of connection points: 2
#     Edge 78, Type (0, 0), BuildingBlock: CIFDUS_clean_linker_0, # of connection points: 2
#     Edge 79, Type (0, 0), BuildingBlock: CIFDUS_clean_linker_0, # of connection points: 2
#     Edge 80, Type (0, 0), BuildingBlock: CIFDUS_clean_linker_0, # of connection points: 2
#     Edge 81, Type (0, 0), BuildingBlock: CIFDUS_clean_linker_0, # of connection points: 2
#     Edge 82, Type (0, 0), BuildingBlock: CIFDUS_clean_linker_0, # of connection points: 2
#     Edge 83, Type (0, 0), BuildingBlock: CIFDUS_clean_linker_0, # of connection points: 2
#     Edge 84, Type (0, 0), BuildingBlock: CIFDUS_clean_linker_0, # of connection points: 2
#     Edge 85, Type (0, 0), BuildingBlock: CIFDUS_clean_linker_0, # of connection points: 2
#     Edge 86, Type (0, 0), BuildingBlock: CIFDUS_clean_linker_0, # of connection points: 2
#     Edge 87, Type (0, 0), BuildingBlock: CIFDUS_clean_linker_0, # of connection points: 2
#     Edge 88, Type (0, 0), BuildingBlock: CIFDUS_clean_linker_0, # of connection points: 2
#     Edge 89, Type (0, 0), BuildingBlock: CIFDUS_clean_linker_0, # of connection points: 2
#     Edge 90, Type (0, 0), BuildingBlock: CIFDUS_clean_linker_0, # of connection points: 2
#     Edge 91, Type (0, 0), BuildingBlock: CIFDUS_clean_linker_0, # of connection points: 2
#     Edge 92, Type (0, 0), BuildingBlock: CIFDUS_clean_linker_0, # of connection points: 2
#     Edge 93, Type (0, 0), BuildingBlock: CIFDUS_clean_linker_0, # of connection points: 2
#     Edge 94, Type (0, 0), BuildingBlock: CIFDUS_clean_linker_0, # of connection points: 2
#     Edge 95, Type (0, 0), BuildingBlock: CIFDUS_clean_linker_0, # of connection points: 2
# Relax obj value: 0.009
# Max RMSD: 0.110
# Mean RMSD: 0.110
data_MOF--net-vba--node1-KOZSID_clean_sbu_0--edge1-CIFDUS_clean_linker_0
_symmetry_space_group_name_H-M    P1
_symmetry_Int_Tables_number       1
_symmetry_cell_setting            triclinic
loop_
_symmetry_equiv_pos_as_xyz
'x, y, z'
_cell_length_a     26.816755
_cell_length_b     115.40447
_cell_length_c     52.265494
_cell_angle_alpha  89.946384
_cell_angle_beta   90.007557
_cell_angle_gamma 90.036588
loop_
_atom_site_label
_atom_site_type_symbol
_atom_site_fract_x
_atom_site_fract_y
_atom_site_fract_z
_atom_type_partial_charge
C0 C 0.21868 0.06405 0.04528 0.0
C1 C 0.18559 0.05491 0.04869 0.0
C2 C 0.18071 0.04961 0.02533 0.0
C3 C 0.21168 0.05566 0.0092 0.0
N4 N 0.23596 0.06432 0.02103 0.0
Co5 Co 0.28875 0.07408 0.00586 0.0
N6 N 0.26464 0.07087 0.97067 0.0
C7 C 0.23148 0.06262 0.96405 0.0
C8 C 0.219 0.06293 0.93863 0.0
C9 C 0.24692 0.07174 0.92848 0.0
C10 C 0.27585 0.07619 0.94826 0.0
N11 N 0.34324 0.08352 0.99056 0.0
C12 C 0.35157 0.08675 0.9659 0.0
C13 C 0.39724 0.09236 0.96365 0.0
C14 C 0.41828 0.09247 0.98756 0.0
C15 C 0.38467 0.08691 0.00308 0.0
N16 N 0.31012 0.07751 0.04151 0.0
C17 C 0.35441 0.08195 0.04846 0.0
C18 C 0.35533 0.08517 0.07373 0.0
C19 C 0.30874 0.08263 0.08317 0.0
C20 C 0.2817 0.07777 0.06319 0.0
N21 N 0.33349 0.06039 0.00426 0.0
C22 C 0.40183 0.04171 1.00072 0.0
C23 C 0.37676 0.04416 0.02378 0.0
C24 C 0.34248 0.05346 0.02508 0.0
C25 C 0.39168 0.04886 0.97973 0.0
C26 C 0.35802 0.05803 0.9819 0.0
N27 N 0.24557 0.0879 0.00723 0.0
C28 C 0.23768 0.10848 0.01456 0.0
C29 C 0.18702 0.10819 0.00825 0.0
C30 C 0.16598 0.09742 1.00177 0.0
C31 C 0.19597 0.08741 1.00114 0.0
C32 C 0.26592 0.09832 0.01418 0.0
H33 H 0.17912 0.07928 0.99567 0.0
H34 H 0.30446 0.09897 0.01961 0.0
H35 H 0.32349 0.05508 0.04295 0.0
H36 H 0.35267 0.0633 0.96529 0.0
C37 C 0.21042 0.05529 0.98249 0.0
C38 C 0.23067 0.07275 0.06487 0.0
C39 C 0.32089 0.08324 0.94378 0.0
C40 C 0.38818 0.08574 0.02975 0.0
H41 H 0.16558 0.05263 0.06596 0.0
H42 H 0.15521 0.04269 0.0204 0.0
H43 H 0.19296 0.05738 0.92861 0.0
H44 H 0.24844 0.0741 0.90844 0.0
H45 H 0.41439 0.0957 0.94644 0.0
H46 H 0.45379 0.09621 0.99296 0.0
H47 H 0.38488 0.08971 0.08365 0.0
H48 H 0.29676 0.08461 0.1023 0.0
H49 H 0.38303 0.03885 0.04057 0.0
H50 H 0.41043 0.04754 0.96161 0.0
H51 H 0.2554 0.11652 0.02022 0.0
H52 H 0.12688 0.09677 0.9968 0.0
C53 C 0.04156 0.21637 0.05357 0.0
C54 C 0.07837 0.22473 0.05678 0.0
C55 C 0.08854 0.22912 0.03308 0.0
C56 C 0.05645 0.22349 0.0169 0.0
N57 N 0.02571 0.21601 0.02892 0.0
Co58 Co 0.96854 0.20757 0.01294 0.0
N59 N 0.99071 0.21182 0.97759 0.0
C60 C 0.03256 0.21773 0.97147 0.0
C61 C 0.04072 0.21859 0.94566 0.0
C62 C 1.00154 0.21294 0.93462 0.0
C63 C 0.97109 0.20912 0.95443 0.0
N64 N 0.90919 0.19985 0.99698 0.0
C65 C 0.89408 0.19935 0.97214 0.0
C66 C 0.84748 0.19419 0.97001 0.0
C67 C 0.83281 0.19133 0.99424 0.0
C68 C 0.87083 0.19499 0.0098 0.0
N69 N 0.94989 0.20245 0.04844 0.0
C70 C 0.91003 0.19583 0.05448 0.0
C71 C 0.91213 0.19126 0.07861 0.0
C72 C 0.95643 0.195 0.0885 0.0
C73 C 0.97858 0.20202 0.07009 0.0
N74 N 0.92682 0.22206 0.01546 0.0
C75 C 0.85946 0.24125 0.01311 0.0
C76 C 0.85078 0.23179 0.02938 0.0
C77 C 0.88466 0.22246 0.03041 0.0
C78 C 0.90372 0.24103 0.99882 0.0
C79 C 0.93649 0.23155 1.00035 0.0
N80 N 0.00868 0.19308 0.01012 0.0
C81 C 0.01249 0.17208 0.00918 0.0
C82 C 0.06453 0.17217 0.00688 0.0
C83 C 0.08789 0.18309 0.00615 0.0
C84 C 0.05954 0.19333 0.00749 0.0
C85 C 0.98578 0.18246 0.01107 0.0
H86 H 0.07938 0.2014 0.00647 0.0
H87 H 0.94638 0.18163 0.0133 0.0
H88 H 0.87539 0.21561 0.04327 0.0
H89 H 0.96902 0.23206 0.98865 0.0
C90 C 0.05992 0.22348 0.99029 0.0
C91 C 0.02682 0.20811 0.07363 0.0
C92 C 0.92202 0.20389 0.95019 0.0
C93 C 0.87395 0.19309 0.03614 0.0
H94 H 0.09775 0.22703 0.07422 0.0
H95 H 0.11771 0.2352 0.02807 0.0
H96 H 0.07065 0.22313 0.93601 0.0
H97 H 0.99519 0.21208 0.91426 0.0
H98 H 0.82613 0.19268 0.95277 0.0
H99 H 0.7987 0.18699 0.99982 0.0
H100 H 0.88599 0.18532 0.08743 0.0
H101 H 0.97105 0.19233 0.1068 0.0
H102 H 0.818 0.23157 0.04146 0.0
H103 H 0.91277 0.24804 0.98583 0.0
H104 H 0.99174 0.16404 0.00923 0.0
H105 H 0.12802 0.18384 0.0048 0.0
C106 C 0.2262 0.21503 0.20335 0.0
C107 C 0.18934 0.22344 0.20104 0.0
C108 C 0.18487 0.22862 0.22449 0.0
C109 C 0.21975 0.2233 0.23966 0.0
N110 N 0.24604 0.21513 0.22724 0.0
Co111 Co 0.30418 0.20667 0.24141 0.0
N112 N 0.28318 0.20981 0.27717 0.0
C113 C 0.24907 0.21772 0.28443 0.0
C114 C 0.23911 0.21743 0.31014 0.0
C115 C 0.26956 0.20897 0.31977 0.0
C116 C 0.29745 0.20472 0.29939 0.0
N117 N 0.36281 0.19833 0.25556 0.0
C118 C 0.37311 0.19488 0.27988 0.0
C119 C 0.42059 0.1901 0.28127 0.0
C120 C 0.44045 0.19063 0.25712 0.0
C121 C 0.4044 0.19576 0.24233 0.0
N122 N 0.32377 0.20356 0.20532 0.0
C123 C 0.36908 0.19995 0.19761 0.0
C124 C 0.36949 0.1966 0.17245 0.0
C125 C 0.32174 0.19827 0.16379 0.0
C126 C 0.29462 0.20297 0.18394 0.0
N127 N 0.34429 0.22115 0.24137 0.0
C128 C 0.41253 0.24002 0.2401 0.0
C129 C 0.38095 0.23753 0.21921 0.0
C130 C 0.3473 0.22813 0.22022 0.0
C131 C 0.40722 0.23303 0.26193 0.0
C132 C 0.37314 0.22381 0.26222 0.0
N133 N 0.26618 0.19201 0.2418 0.0
C134 C 0.2652 0.17142 0.23367 0.0
C135 C 0.21959 0.17006 0.24649 0.0
C136 C 0.19683 0.1802 0.256 0.0
C137 C 0.22043 0.19107 0.25323 0.0
C138 C 0.28788 0.18228 0.2319 0.0
H139 H 0.20229 0.19865 0.26091 0.0
H140 H 0.32381 0.18267 0.22286 0.0
H141 H 0.32455 0.22633 0.20364 0.0
H142 H 0.37165 0.21858 0.27925 0.0
C143 C 0.22272 0.22417 0.26626 0.0
C144 C 0.24251 0.20741 0.18229 0.0
C145 C 0.34162 0.19723 0.30245 0.0
C146 C 0.40548 0.19693 0.21566 0.0
H147 H 0.16774 0.22561 0.18424 0.0
H148 H 0.15807 0.23516 0.23003 0.0
H149 H 0.21211 0.22254 0.32057 0.0
H150 H 0.27194 0.20648 0.33969 0.0
H151 H 0.43951 0.1868 0.29804 0.0
H152 H 0.47658 0.1875 0.25104 0.0
H153 H 0.39968 0.19246 0.16221 0.0
H154 H 0.30879 0.19577 0.14506 0.0
H155 H 0.38232 0.24274 0.20199 0.0
H156 H 0.43058 0.23434 0.27856 0.0
H157 H 0.28399 0.16412 0.225 0.0
H158 H 0.16166 0.17979 0.2661 0.0
C159 C 0.0541 0.06552 0.20637 0.0
C160 C 0.09458 0.05801 0.20591 0.0
C161 C 0.10157 0.05427 0.2304 0.0
C162 C 0.06438 0.05944 0.24422 0.0
N163 N 0.03301 0.06591 0.22996 0.0
Co164 Co 0.97184 0.07416 0.2421 0.0
N165 N 0.98687 0.07046 0.27883 0.0
C166 C 0.02479 0.06376 0.28743 0.0
C167 C 0.02184 0.06115 0.31288 0.0
C168 C 0.97995 0.06661 0.3212 0.0
C169 C 0.96034 0.07266 0.30044 0.0
N170 N 0.91082 0.08254 0.25429 0.0
C171 C 0.89551 0.0852 0.27845 0.0
C172 C 0.85454 0.09257 0.27782 0.0
C173 C 0.84202 0.09405 0.25272 0.0
C174 C 0.87658 0.0878 0.23928 0.0
N175 N 0.95798 0.07789 0.20506 0.0
C176 C 0.91687 0.08327 0.19588 0.0
C177 C 0.92119 0.08655 0.1708 0.0
C178 C 0.96806 0.0833 0.16361 0.0
C179 C 0.98977 0.0779 0.18459 0.0
N180 N 0.93126 0.05939 0.23963 0.0
C181 C 0.86742 0.03946 0.2428 0.0
C182 C 0.85279 0.04957 0.2299 0.0
C183 C 0.88475 0.05925 0.22856 0.0
C184 C 0.91576 0.03946 0.25308 0.0
C185 C 0.94668 0.04927 0.251 0.0
N186 N 0.01057 0.0889 0.2449 0.0
C187 C 0.01578 0.10947 0.23604 0.0
C188 C 0.05995 0.1106 0.24999 0.0
C189 C 0.08011 0.10042 0.26067 0.0
C190 C 0.05502 0.0897 0.25783 0.0
C191 C 0.99195 0.09879 0.23402 0.0
H192 H 0.0716 0.08215 0.26635 0.0
H193 H 0.95806 0.09883 0.22354 0.0
H194 H 0.8704 0.06655 0.21864 0.0
H195 H 0.98264 0.04842 0.25922 0.0
C196 C 0.05966 0.059 0.2707 0.0
C197 C 0.04093 0.07313 0.18487 0.0
C198 C 0.91747 0.08061 0.3023 0.0
C199 C 0.88078 0.08768 0.2126 0.0
H200 H 0.11821 0.05591 0.18978 0.0
H201 H 0.13128 0.04878 0.23744 0.0
H202 H 0.04611 0.05554 0.32386 0.0
H203 H 0.96542 0.06594 0.34042 0.0
H204 H 0.83564 0.09663 0.29372 0.0
H205 H 0.81226 0.09937 0.24513 0.0
H206 H 0.89523 0.09172 0.15977 0.0
H207 H 0.98456 0.08543 0.14541 0.0
H208 H 0.81668 0.05009 0.22072 0.0
H209 H 0.92983 0.03201 0.26338 0.0
H210 H 0.99914 0.11684 0.22647 0.0
H211 H 0.11443 0.10072 0.27155 0.0
C212 C 0.73231 0.95658 0.93811 0.0
C213 C 0.70357 0.95264 0.91779 0.0
C214 C 0.65607 0.95101 0.92704 0.0
C215 C 0.65812 0.95382 0.95254 0.0
N216 N 0.70404 0.95716 0.95975 0.0
Co217 Co 0.7265 0.95979 0.99554 0.0
N218 N 0.66934 0.95111 0.01022 0.0
C219 C 0.62697 0.94855 0.9976 0.0
C220 C 0.59215 0.94321 0.01284 0.0
C221 C 0.61357 0.94261 0.03665 0.0
C222 C 0.66054 0.9476 0.03462 0.0
N223 N 0.75108 0.96238 0.03088 0.0
C224 C 0.73831 0.95706 0.05301 0.0
C225 C 0.76729 0.96113 0.07317 0.0
C226 C 0.79733 0.96966 0.06346 0.0
C227 C 0.78575 0.97022 0.03794 0.0
N228 N 0.78257 0.96866 0.98095 0.0
C229 C 0.80951 0.9768 0.99305 0.0
C230 C 0.84323 0.98219 0.97724 0.0
C231 C 0.83722 0.97701 0.95381 0.0
C232 C 0.80058 0.96862 0.95686 0.0
N233 N 0.68605 0.97417 0.99756 0.0
C234 C 0.62027 0.99333 1.00122 0.0
C235 C 0.62904 0.98601 0.02209 0.0
C236 C 0.66139 0.9766 0.01984 0.0
C237 C 0.64584 0.99088 0.97831 0.0
C238 C 0.67892 0.98135 0.97696 0.0
N239 N 0.76491 0.94522 0.99384 0.0
C240 C 0.8351 0.93315 0.0057 0.0
C241 C 0.81116 0.9232 0.99597 0.0
C242 C 0.76499 0.92481 0.98389 0.0
C243 C 0.74244 0.93567 0.98347 0.0
C244 C 0.81157 0.94408 0.0042 0.0
H245 H 0.70588 0.93621 0.97518 0.0
H246 H 0.83043 0.95153 0.01209 0.0
H247 H 0.66528 0.97111 0.03619 0.0
H248 H 0.69814 0.9797 0.95917 0.0
C249 C 0.62335 0.9503 0.97105 0.0
C250 C 0.78522 0.96036 0.93699 0.0
C251 C 0.69227 0.95033 0.05686 0.0
C252 C 0.80972 0.97719 0.01977 0.0
H253 H 0.71492 0.95067 0.89853 0.0
H254 H 0.62494 0.94722 0.91683 0.0
H255 H 0.55563 0.9401 0.00733 0.0
H256 H 0.59601 0.93923 0.05374 0.0
H257 H 0.76473 0.95869 0.09313 0.0
H258 H 0.82435 0.97483 0.07379 0.0
H259 H 0.87098 0.98859 0.98243 0.0
H260 H 0.85849 0.9789 0.93671 0.0
H261 H 0.60987 0.98735 0.0401 0.0
H262 H 0.64065 0.99633 0.96164 0.0
H263 H 0.87092 0.9325 0.01511 0.0
H264 H 0.74541 0.91766 0.97502 0.0
C265 C 0.02205 0.82561 0.93665 0.0
C266 C 0.04086 0.83068 0.91459 0.0
C267 C 0.07859 0.83789 0.92206 0.0
C268 C 0.08107 0.83674 0.94815 0.0
N269 N 0.04805 0.82909 0.95774 0.0
Co270 Co 0.03902 0.82538 0.99496 0.0
N271 N 0.10068 0.83404 0.00513 0.0
C272 C 0.12543 0.8416 0.99012 0.0
C273 C 0.16315 0.8473 0.00249 0.0
C274 C 0.16221 0.84317 0.02699 0.0
C275 C 0.12427 0.83497 0.02816 0.0
N276 N 0.02991 0.82155 0.03197 0.0
C277 C 0.0633 0.82189 0.0515 0.0
C278 C 0.04539 0.81584 0.07263 0.0
C279 C 0.9979 0.81251 0.06697 0.0
C280 C 0.99004 0.81623 0.04243 0.0
N281 N 0.97665 0.81688 0.98494 0.0
C282 C 0.94153 0.81295 1.00125 0.0
C283 C 0.90089 0.80816 0.98948 0.0
C284 C 0.9101 0.80926 0.96396 0.0
C285 C 0.95634 0.81461 0.96157 0.0
N286 N 0.07953 0.81106 0.99112 0.0
C287 C 0.14655 0.79214 0.99594 0.0
C288 C 0.09717 0.79143 0.00486 0.0
C289 C 0.06442 0.80086 1.00208 0.0
C290 C 0.16017 0.80228 0.98282 0.0
C291 C 0.12632 0.81157 0.98058 0.0
N292 N 1.00008 0.83984 0.99926 0.0
C293 C 0.94417 0.85438 0.98219 0.0
C294 C 0.95712 0.86212 1.00171 0.0
C295 C 0.98987 0.85826 0.02073 0.0
C296 C 0.01002 0.84707 0.01944 0.0
C297 C 0.96621 0.84336 0.98122 0.0
H298 H 0.03486 0.84444 0.0345 0.0
H299 H 0.95666 0.83788 0.96537 0.0
H300 H 0.0275 0.80001 0.00986 0.0
H301 H 0.13908 0.81936 0.97133 0.0
C302 C 0.11449 0.84249 0.96413 0.0
C303 C 0.97633 0.81855 0.93686 0.0
C304 C 0.10906 0.82901 0.05193 0.0
C305 C 0.94968 0.81296 0.02746 0.0
H306 H 0.02759 0.82958 0.89518 0.0
H307 H 0.10118 0.8434 0.90994 0.0
H308 H 0.18835 0.85372 0.99465 0.0
H309 H 0.18606 0.84619 0.04225 0.0
H310 H 0.06428 0.81411 0.09051 0.0
H311 H 0.97303 0.80744 0.07887 0.0
H312 H 0.8684 0.80432 0.99839 0.0
H313 H 0.88463 0.80671 0.94895 0.0
H314 H 0.08398 0.7837 0.01447 0.0
H315 H 0.1976 0.80332 0.97538 0.0
H316 H 0.91865 0.85698 0.96718 0.0
H317 H 1.00013 0.86389 0.03645 0.0
C318 C 0.73697 0.82552 0.8154 0.0
C319 C 0.70915 0.8279 0.83713 0.0
C320 C 0.6619 0.83066 0.82891 0.0
C321 C 0.66339 0.82979 0.80268 0.0
N322 N 0.70851 0.82662 0.79399 0.0
Co323 Co 0.72766 0.82485 0.75755 0.0
N324 N 0.66978 0.8341 0.74538 0.0
C325 C 0.62853 0.83633 0.75925 0.0
C326 C 0.59281 0.8422 0.74563 0.0
C327 C 0.61244 0.84358 0.72159 0.0
C328 C 0.6594 0.83851 0.72184 0.0
N329 N 0.7487 0.82327 0.7213 0.0
C330 C 0.73486 0.82943 0.70038 0.0
C331 C 0.76278 0.82617 0.67916 0.0
C332 C 0.79304 0.81728 0.6868 0.0
C333 C 0.78281 0.81576 0.71227 0.0
N334 N 0.78478 0.81535 0.76987 0.0
C335 C 0.81254 0.80815 0.75547 0.0
C336 C 0.85169 0.80339 0.76866 0.0
C337 C 0.84864 0.8079 0.7928 0.0
C338 C 0.80698 0.81506 0.79322 0.0
N339 N 0.68535 0.81072 0.75446 0.0
C340 C 0.61092 0.7932 0.75135 0.0
C341 C 0.62128 0.80056 0.73067 0.0
C342 C 0.65807 0.80913 0.73257 0.0
C343 C 0.64126 0.79439 0.77324 0.0
C344 C 0.67821 0.80316 0.7744 0.0
N345 N 0.76783 0.83915 0.76021 0.0
C346 C 0.84329 0.84997 0.7518 0.0
C347 C 0.82041 0.86052 0.75884 0.0
C348 C 0.77091 0.85983 0.76764 0.0
C349 C 0.74597 0.84916 0.76863 0.0
C350 C 0.81635 0.83951 0.75225 0.0
H351 H 0.70821 0.84911 0.7756 0.0
H352 H 0.83466 0.83174 0.74573 0.0
H353 H 0.6627 0.81475 0.71637 0.0
H354 H 0.69976 0.80407 0.79174 0.0
C355 C 0.62714 0.83389 0.78558 0.0
C356 C 0.78915 0.82148 0.81581 0.0
C357 C 0.69018 0.83683 0.69875 0.0
C358 C 0.80941 0.80859 0.72886 0.0
H359 H 0.72175 0.82765 0.8568 0.0
H360 H 0.63092 0.83348 0.84061 0.0
H361 H 0.55697 0.84522 0.75241 0.0
H362 H 0.59369 0.84761 0.70556 0.0
H363 H 0.76021 0.82955 0.65989 0.0
H364 H 0.82009 0.81268 0.67529 0.0
H365 H 0.88148 0.79808 0.76107 0.0
H366 H 0.87552 0.80634 0.80777 0.0
H367 H 0.60037 0.79988 0.713 0.0
H368 H 0.63527 0.7889 0.78977 0.0
H369 H 0.88179 0.84966 0.74573 0.0
H370 H 0.75035 0.86748 0.77315 0.0
C371 C 0.02678 0.95516 0.81742 0.0
C372 C 0.05344 0.95018 0.83738 0.0
C373 C 0.10086 0.94817 0.82839 0.0
C374 C 0.10071 0.95179 0.80336 0.0
N375 N 0.0561 0.95598 0.7962 0.0
Co376 Co 0.03581 0.95986 0.76069 0.0
N377 N 0.09144 0.95092 0.74551 0.0
C378 C 0.13327 0.9478 0.758 0.0
C379 C 0.16709 0.94234 0.74245 0.0
C380 C 0.14546 0.94218 0.71865 0.0
C381 C 0.09923 0.94752 0.721 0.0
N382 N 0.0133 0.96361 0.72558 0.0
C383 C 0.02471 0.95847 0.70307 0.0
C384 C 0.99724 0.96335 0.68322 0.0
C385 C 0.96997 0.97222 0.69356 0.0
C386 C 0.98131 0.97213 0.71913 0.0
N387 N 0.9816 0.96912 0.77587 0.0
C388 C 0.95753 0.97794 0.76454 0.0
C389 C 0.92458 0.98338 0.78066 0.0
C390 C 0.9281 0.97751 0.80345 0.0
C391 C 0.96254 0.96869 0.79972 0.0
N392 N 0.07953 0.97375 0.76063 0.0
C393 C 0.14852 0.99245 0.76082 0.0
C394 C 0.14129 0.98558 0.739 0.0
C395 C 0.10694 0.9764 0.73927 0.0
C396 C 0.11911 0.98983 0.78244 0.0
C397 C 0.08504 0.98051 0.78196 0.0
N398 N 0.99368 0.94581 0.76061 0.0
C399 C 0.91456 0.93604 0.75511 0.0
C400 C 0.93645 0.92529 0.76099 0.0
C401 C 0.98729 0.92511 0.76681 0.0
C402 C 0.01483 0.93539 0.76688 0.0
C403 C 0.94397 0.94618 0.75467 0.0
H404 H 0.05346 0.93483 0.77224 0.0
H405 H 0.92655 0.9543 0.74964 0.0
H406 H 0.10361 0.97129 0.72215 0.0
H407 H 0.06359 0.97868 0.79898 0.0
C408 C 0.13595 0.94862 0.78478 0.0
C409 C 0.97506 0.95975 0.81869 0.0
C410 C 0.06656 0.95037 0.69919 0.0
C411 C 0.95862 0.97901 0.7379 0.0
H412 H 0.04062 0.94779 0.85617 0.0
H413 H 0.13055 0.94369 0.83835 0.0
H414 H 0.20276 0.93869 0.74783 0.0
H415 H 0.16237 0.93874 0.70148 0.0
H416 H 0.9981 0.96104 0.66317 0.0
H417 H 0.94433 0.97791 0.68366 0.0
H418 H 0.89885 0.99029 0.77601 0.0
H419 H 0.90664 0.97926 0.82055 0.0
H420 H 0.16313 0.98699 0.72186 0.0
H421 H 0.12225 0.99493 0.79974 0.0
H422 H 0.87523 0.93658 0.75056 0.0
H423 H 1.00558 0.91706 0.7719 0.0
C424 C 0.21555 0.56614 0.54598 0.0
C425 C 0.17114 0.55995 0.5444 0.0
C426 C 0.1685 0.55554 0.52028 0.0
C427 C 0.21058 0.55944 0.50826 0.0
N428 N 0.24075 0.56587 0.52335 0.0
Co429 Co 0.29971 0.57524 0.51173 0.0
N430 N 0.2882 0.57107 0.47514 0.0
C431 C 0.25676 0.56284 0.46643 0.0
C432 C 0.26269 0.56032 0.44104 0.0
C433 C 0.29985 0.5675 0.43297 0.0
C434 C 0.31343 0.57429 0.45385 0.0
N435 N 0.35643 0.58528 0.4999 0.0
C436 C 0.36875 0.5889 0.47586 0.0
C437 C 0.40533 0.59741 0.47666 0.0
C438 C 0.41737 0.59898 0.50186 0.0
C439 C 0.38692 0.59156 0.51513 0.0
N440 N 0.3121 0.57891 0.54864 0.0
C441 C 0.35205 0.58457 0.55824 0.0
C442 C 0.34984 0.58602 0.58427 0.0
C443 C 0.3054 0.58121 0.59157 0.0
C444 C 0.28257 0.57719 0.56948 0.0
N445 N 0.34597 0.56142 0.51439 0.0
C446 C 0.41741 0.54306 0.50992 0.0
C447 C 0.43063 0.55406 0.51897 0.0
C448 C 0.39511 0.56292 0.52099 0.0
C449 C 0.36651 0.54123 0.505 0.0
C450 C 0.33177 0.55038 0.50761 0.0
N451 N 0.25538 0.58905 0.50872 0.0
C452 C 0.23811 0.60902 0.5199 0.0
C453 C 0.19769 0.60949 0.50312 0.0
C454 C 0.18624 0.5994 0.48925 0.0
C455 C 0.21508 0.58928 0.49253 0.0
C456 C 0.26619 0.59891 0.52227 0.0
H457 H 0.20476 0.58172 0.48173 0.0
H458 H 0.29717 0.59937 0.53498 0.0
H459 H 0.40904 0.57098 0.52754 0.0
H460 H 0.29382 0.54831 0.50359 0.0
C461 C 0.22045 0.55809 0.48229 0.0
C462 C 0.23165 0.57247 0.56895 0.0
C463 C 0.34695 0.58432 0.45205 0.0
C464 C 0.38441 0.59061 0.54188 0.0
H465 H 0.14231 0.55899 0.55866 0.0
H466 H 0.13814 0.5506 0.51207 0.0
H467 H 0.24209 0.5541 0.42969 0.0
H468 H 0.31438 0.56786 0.41368 0.0
H469 H 0.42129 0.60218 0.46088 0.0
H470 H 0.44416 0.60505 0.50961 0.0
H471 H 0.37565 0.59076 0.59627 0.0
H472 H 0.29044 0.58115 0.6108 0.0
H473 H 0.46876 0.55597 0.52434 0.0
H474 H 0.35346 0.53287 0.49837 0.0
H475 H 0.24916 0.61659 0.53078 0.0
H476 H 0.15506 0.5993 0.47609 0.0
C477 C 0.06617 0.71789 0.54075 0.0
C478 C 0.10974 0.72441 0.53989 0.0
C479 C 0.11452 0.72836 0.51536 0.0
C480 C 0.07418 0.72397 0.5025 0.0
N481 N 0.04401 0.71751 0.5174 0.0
Co482 Co 0.98363 0.70893 0.50589 0.0
N483 N 1.00381 0.71008 0.46925 0.0
C484 C 0.04041 0.71684 0.45978 0.0
C485 C 0.04835 0.7153 0.4341 0.0
C486 C 0.01385 0.70725 0.42673 0.0
C487 C 0.98617 0.70445 0.44836 0.0
N488 N 0.92278 0.70047 0.49434 0.0
C489 C 0.90907 0.69672 0.47065 0.0
C490 C 0.8611 0.69221 0.47103 0.0
C491 C 0.84392 0.69334 0.4956 0.0
C492 C 0.88212 0.6985 0.50886 0.0
N493 N 0.9651 0.70764 0.54269 0.0
C494 C 0.91957 0.70499 0.55177 0.0
C495 C 0.91815 0.7045 0.57803 0.0
C496 C 0.96581 0.70699 0.58596 0.0
C497 C 0.99379 0.70884 0.56402 0.0
N498 N 0.94518 0.72366 0.50309 0.0
C499 C 0.87217 0.74147 0.50061 0.0
C500 C 0.90237 0.74002 0.52248 0.0
C501 C 0.93879 0.73111 0.52328 0.0
C502 C 0.88252 0.73438 0.47958 0.0
C503 C 0.91847 0.72567 0.48124 0.0
N504 N 0.01976 0.69405 0.50854 0.0
C505 C 0.02054 0.67406 0.52232 0.0
C506 C 0.06683 0.67222 0.5107 0.0
C507 C 0.0894 0.68158 0.49806 0.0
C508 C 0.06559 0.69245 0.49749 0.0
C509 C 0.99754 0.68491 0.52078 0.0
H510 H 0.08423 0.69953 0.48802 0.0
H511 H 0.96143 0.68584 0.52947 0.0
H512 H 0.96017 0.72998 0.54061 0.0
H513 H 0.92246 0.72018 0.46503 0.0
C514 C 0.07024 0.72346 0.47596 0.0
C515 C 0.04648 0.71247 0.56416 0.0
C516 C 0.93731 0.69871 0.44686 0.0
C517 C 0.8823 0.70106 0.5351 0.0
H518 H 0.13613 0.72596 0.55515 0.0
H519 H 0.14558 0.73318 0.50747 0.0
H520 H 0.07612 0.71946 0.4222 0.0
H521 H 0.0077 0.70429 0.40734 0.0
H522 H 0.8401 0.68881 0.45503 0.0
H523 H 0.80773 0.6908 0.50286 0.0
H524 H 0.88681 0.70212 0.58999 0.0
H525 H 0.97857 0.70739 0.60558 0.0
H526 H 0.89654 0.74536 0.53923 0.0
H527 H 0.86186 0.73529 0.46189 0.0
H528 H 1.00182 0.66707 0.53233 0.0
H529 H 0.12556 0.68057 0.48912 0.0
C530 C 0.20605 0.71907 0.71066 0.0
C531 C 0.16386 0.72607 0.71026 0.0
C532 C 0.16091 0.73129 0.7337 0.0
C533 C 0.20052 0.72707 0.74739 0.0
N534 N 0.22849 0.71955 0.73395 0.0
Co535 Co 0.28522 0.71031 0.74752 0.0
N536 N 0.26371 0.71276 0.78345 0.0
C537 C 0.23026 0.72065 0.79152 0.0
C538 C 0.21962 0.71975 0.81709 0.0
C539 C 0.24894 0.7109 0.82579 0.0
C540 C 0.27677 0.70702 0.80504 0.0
N541 N 0.34228 0.70115 0.76085 0.0
C542 C 0.35175 0.69715 0.78482 0.0
C543 C 0.39836 0.69192 0.78585 0.0
C544 C 0.4187 0.69281 0.76183 0.0
C545 C 0.38371 0.69855 0.74746 0.0
N546 N 0.30513 0.70781 0.71142 0.0
C547 C 0.35056 0.70457 0.7033 0.0
C548 C 0.3526 0.70319 0.67719 0.0
C549 C 0.30541 0.70568 0.66847 0.0
C550 C 0.27704 0.7084 0.68981 0.0
N551 N 0.32798 0.72441 0.74945 0.0
C552 C 0.40275 0.74188 0.75144 0.0
C553 C 0.37251 0.74042 0.72959 0.0
C554 C 0.33538 0.73166 0.72899 0.0
C555 C 0.39216 0.73483 0.7726 0.0
C556 C 0.35522 0.72629 0.77125 0.0
N557 N 0.24468 0.69604 0.74614 0.0
C558 C 0.23925 0.6755 0.73734 0.0
C559 C 0.19173 0.67484 0.7485 0.0
C560 C 0.17098 0.68522 0.75786 0.0
C561 C 0.19777 0.69567 0.75635 0.0
C562 C 0.2649 0.68608 0.7364 0.0
H563 H 0.18086 0.7034 0.76397 0.0
H564 H 0.30163 0.68614 0.72807 0.0
H565 H 0.3139 0.7305 0.71169 0.0
H566 H 0.35044 0.72091 0.78784 0.0
C567 C 0.20382 0.7274 0.774 0.0
C568 C 0.22448 0.71216 0.68885 0.0
C569 C 0.32061 0.69941 0.80753 0.0
C570 C 0.38614 0.70063 0.72099 0.0
H571 H 0.13651 0.72706 0.69528 0.0
H572 H 0.13081 0.73669 0.74063 0.0
H573 H 0.1927 0.7247 0.82796 0.0
H574 H 0.25085 0.70792 0.8454 0.0
H575 H 0.41645 0.68814 0.80236 0.0
H576 H 0.45459 0.68959 0.7556 0.0
H577 H 0.38383 0.70014 0.66595 0.0
H578 H 0.29318 0.70547 0.64874 0.0
H579 H 0.37871 0.74567 0.71272 0.0
H580 H 0.41305 0.73573 0.79022 0.0
H581 H 0.25675 0.6679 0.72922 0.0
H582 H 0.13466 0.68529 0.76687 0.0
C583 C 0.06536 0.56529 0.71375 0.0
C584 C 0.11062 0.55942 0.71469 0.0
C585 C 0.11691 0.55581 0.73926 0.0
C586 C 0.07584 0.55979 0.75203 0.0
N587 N 0.04303 0.56557 0.7371 0.0
Co588 Co 0.98304 0.57444 0.74915 0.0
N589 N 0.99718 0.5706 0.78576 0.0
C590 C 0.03123 0.5629 0.79432 0.0
C591 C 0.02656 0.56023 0.8197 0.0
C592 C 0.98755 0.56677 0.82799 0.0
C593 C 0.97171 0.5734 0.80726 0.0
N594 N 0.92504 0.58391 0.76154 0.0
C595 C 0.91283 0.58739 0.78571 0.0
C596 C 0.87487 0.59557 0.78516 0.0
C597 C 0.86168 0.597 0.76008 0.0
C598 C 0.89288 0.58987 0.74657 0.0
N599 N 0.96816 0.57778 0.71222 0.0
C600 C 0.92722 0.58321 0.7031 0.0
C601 C 0.92744 0.58445 0.67698 0.0
C602 C 0.97134 0.57961 0.669 0.0
C603 C 0.99576 0.57576 0.69079 0.0
N604 N 0.93936 0.56017 0.74728 0.0
C605 C 0.87371 0.54054 0.74948 0.0
C606 C 0.85722 0.55147 0.74137 0.0
C607 C 0.88995 0.56098 0.74055 0.0
C608 C 0.92466 0.53965 0.7556 0.0
C609 C 0.95643 0.54938 0.75404 0.0
N610 N 0.02504 0.58871 0.75115 0.0
C611 C 0.03858 0.60872 0.73883 0.0
C612 C 0.08072 0.60965 0.75444 0.0
C613 C 0.09502 0.59966 0.76812 0.0
C614 C 0.06694 0.58934 0.76616 0.0
C615 C 0.01157 0.5984 0.73765 0.0
H616 H 0.07928 0.58197 0.777 0.0
H617 H 0.9796 0.59854 0.7256 0.0
H618 H 0.87388 0.56893 0.73451 0.0
H619 H 0.99462 0.54793 0.75869 0.0
C620 C 0.06791 0.55856 0.77818 0.0
C621 C 0.04565 0.57053 0.69027 0.0
C622 C 0.93586 0.58297 0.80943 0.0
C623 C 0.89457 0.58893 0.71982 0.0
H624 H 0.13711 0.55807 0.69938 0.0
H625 H 0.14842 0.55113 0.74707 0.0
H626 H 0.04895 0.55428 0.83086 0.0
H627 H 0.97322 0.56679 0.84733 0.0
H628 H 0.85869 0.60022 0.80105 0.0
H629 H 0.83362 0.60281 0.75254 0.0
H630 H 0.90031 0.58893 0.66526 0.0
H631 H 0.98465 0.57929 0.64947 0.0
H632 H 0.81898 0.55279 0.73544 0.0
H633 H 0.94034 0.53153 0.76209 0.0
H634 H 0.0263 0.61593 0.72717 0.0
H635 H 0.12724 0.59982 0.78058 0.0
C636 C 0.72781 0.45402 0.43301 0.0
C637 C 0.70902 0.4466 0.41437 0.0
C638 C 0.67511 0.43956 0.42605 0.0
C639 C 0.67527 0.44286 0.45116 0.0
N640 N 0.70628 0.45179 0.4562 0.0
Co641 Co 0.72465 0.45719 0.49144 0.0
N642 N 0.67007 0.44801 0.50787 0.0
C643 C 0.64221 0.43979 0.49656 0.0
C644 C 0.60553 0.43543 0.51215 0.0
C645 C 0.61061 0.44125 0.53483 0.0
C646 C 0.65055 0.44877 0.53182 0.0
N647 N 0.7448 0.46214 0.52645 0.0
C648 C 0.72079 0.46098 0.5491 0.0
C649 C 0.74961 0.46515 0.56918 0.0
C650 C 0.79269 0.4693 0.55863 0.0
C651 C 0.788 0.46734 0.53288 0.0
N652 N 0.77806 0.46679 0.4752 0.0
C653 C 0.81347 0.47289 0.48758 0.0
C654 C 0.84156 0.47976 0.47178 0.0
C655 C 0.82387 0.47763 0.44773 0.0
C656 C 0.78686 0.46927 0.45018 0.0
N657 N 0.67772 0.47047 0.48906 0.0
C658 C 0.60429 0.48813 0.49278 0.0
C659 C 0.65357 0.49 0.501 0.0
C660 C 0.68945 0.48112 0.49902 0.0
C661 C 0.59363 0.47737 0.48153 0.0
C662 C 0.63054 0.46877 0.47973 0.0
N663 N 0.77022 0.44367 0.49417 0.0
C664 C 0.83078 0.4309 0.47472 0.0
C665 C 0.82099 0.4221 0.49268 0.0
C666 C 0.78808 0.42487 0.51272 0.0
C667 C 0.76419 0.43571 0.5134 0.0
C668 C 0.80497 0.44144 0.47565 0.0
H669 H 0.73935 0.4374 0.52915 0.0
H670 H 0.81264 0.44757 0.46079 0.0
H671 H 0.72623 0.4828 0.50638 0.0
H672 H 0.62007 0.46059 0.47153 0.0
C673 C 0.64736 0.43761 0.47051 0.0
C674 C 0.76968 0.46214 0.42853 0.0
C675 C 0.67096 0.45602 0.55237 0.0
C676 C 0.81807 0.47228 0.5141 0.0
H677 H 0.7199 0.4458 0.39459 0.0
H678 H 0.65417 0.43256 0.41741 0.0
H679 H 0.5773 0.42909 0.50732 0.0
H680 H 0.58749 0.44006 0.55158 0.0
H681 H 0.74016 0.46537 0.5893 0.0
H682 H 0.8226 0.47377 0.56843 0.0
H683 H 0.87173 0.48552 0.47706 0.0
H684 H 0.83897 0.4812 0.43021 0.0
H685 H 0.66404 0.49813 0.50986 0.0
H686 H 0.55663 0.47549 0.47432 0.0
H687 H 0.85769 0.42968 0.45955 0.0
H688 H 0.77907 0.41862 0.52745 0.0
C689 C 0.02284 0.32277 0.44065 0.0
C690 C 0.05106 0.32526 0.4191 0.0
C691 C 0.09774 0.32829 0.42765 0.0
C692 C 0.09551 0.32745 0.45386 0.0
N693 N 0.05041 0.32407 0.46227 0.0
Co694 Co 0.0305 0.32212 0.49864 0.0
N695 N 0.08759 0.33156 0.51118 0.0
C696 C 0.12843 0.33428 0.4974 0.0
C697 C 0.16352 0.34023 0.51129 0.0
C698 C 0.144 0.34113 0.53546 0.0
C699 C 0.09784 0.33568 0.53498 0.0
N700 N 0.00917 0.32021 0.53483 0.0
C701 C 0.02286 0.32619 0.55597 0.0
C702 C 0.99535 0.32264 0.57714 0.0
C703 C 0.96522 0.3138 0.56917 0.0
C704 C 0.97532 0.31254 0.54361 0.0
N705 N 0.97381 0.31261 0.48606 0.0
C706 C 0.94579 0.30532 0.50016 0.0
C707 C 0.9074 0.30044 0.48659 0.0
C708 C 0.9113 0.30495 0.46247 0.0
C709 C 0.95251 0.31227 0.46255 0.0
N710 N 0.07323 0.30808 0.50141 0.0
C711 C 0.14727 0.29054 0.50459 0.0
C712 C 0.13714 0.29792 0.5252 0.0
C713 C 0.10066 0.30651 0.5232 0.0
C714 C 0.11696 0.29172 0.48268 0.0
C715 C 0.08013 0.30051 0.4815 0.0
N716 N 0.98967 0.3363 0.49623 0.0
C717 C 0.91755 0.34746 0.5089 0.0
C718 C 0.93806 0.35757 0.49824 0.0
C719 C 0.98398 0.35666 0.48565 0.0
C720 C 0.00922 0.34603 0.48505 0.0
C721 C 0.94352 0.33691 0.50735 0.0
H722 H 0.04539 0.34582 0.47616 0.0
H723 H 0.92678 0.32933 0.51578 0.0
H724 H 0.09626 0.31216 0.53919 0.0
H725 H 0.05845 0.30141 0.4642 0.0
C726 C 0.13072 0.33186 0.47112 0.0
C727 C 0.97113 0.31851 0.43994 0.0
C728 C 0.0685 0.33318 0.55816 0.0
C729 C 0.94876 0.30549 0.52678 0.0
H730 H 0.03907 0.32496 0.39934 0.0
H731 H 0.12877 0.33128 0.41616 0.0
H732 H 0.19907 0.34351 0.50468 0.0
H733 H 0.16237 0.34501 0.55177 0.0
H734 H 0.99878 0.32572 0.59662 0.0
H735 H 0.93859 0.30899 0.58056 0.0
H736 H 0.87787 0.29494 0.49381 0.0
H737 H 0.8858 0.30323 0.44692 0.0
H738 H 0.15799 0.29725 0.54289 0.0
H739 H 0.1228 0.2862 0.46621 0.0
H740 H 0.88181 0.34772 0.51853 0.0
H741 H 1.00138 0.36422 0.47722 0.0
C742 C 0.74326 0.32506 0.31473 0.0
C743 C 0.71548 0.32737 0.33652 0.0
C744 C 0.66762 0.32958 0.32848 0.0
C745 C 0.66872 0.32844 0.30231 0.0
N746 N 0.71421 0.32564 0.29348 0.0
Co747 Co 0.73242 0.32332 0.25707 0.0
N748 N 0.67301 0.33196 0.24475 0.0
C749 C 0.63212 0.33426 0.25883 0.0
C750 C 0.59541 0.33972 0.24508 0.0
C751 C 0.61404 0.34076 0.22074 0.0
C752 C 0.66138 0.33588 0.22097 0.0
N753 N 0.75165 0.32096 0.22077 0.0
C754 C 0.73605 0.32651 0.1994 0.0
C755 C 0.7629 0.32282 0.17814 0.0
C756 C 0.79433 0.31427 0.18634 0.0
C757 C 0.78582 0.31336 0.21211 0.0
N758 N 0.79169 0.31465 0.26958 0.0
C759 C 0.82031 0.30746 0.25563 0.0
C760 C 0.86151 0.30363 0.26862 0.0
C761 C 0.85879 0.30872 0.29219 0.0
C762 C 0.81517 0.31523 0.29256 0.0
N763 N 0.69246 0.30883 0.25613 0.0
C764 C 0.62404 0.29001 0.25678 0.0
C765 C 0.62815 0.29738 0.2355 0.0
C766 C 0.6623 0.3066 0.23553 0.0
C767 C 0.65697 0.29206 0.27734 0.0
C768 C 0.69084 0.30142 0.27659 0.0
N769 N 0.77071 0.33794 0.2578 0.0
C770 C 0.84261 0.3493 0.24563 0.0
C771 C 0.82267 0.35934 0.25706 0.0
C772 C 0.77599 0.35824 0.26905 0.0
C773 C 0.75067 0.34759 0.26899 0.0
C774 C 0.81653 0.33874 0.24648 0.0
H775 H 0.71459 0.34722 0.278 0.0
H776 H 0.83331 0.33126 0.23767 0.0
H777 H 0.66279 0.31216 0.21902 0.0
H778 H 0.71483 0.30284 0.29289 0.0
C779 C 0.63155 0.33211 0.28527 0.0
C780 C 0.79622 0.32166 0.31492 0.0
C781 C 0.69117 0.3338 0.19773 0.0
C782 C 0.81501 0.30699 0.22912 0.0
H783 H 0.72848 0.32747 0.35612 0.0
H784 H 0.63644 0.33224 0.34022 0.0
H785 H 0.55949 0.34266 0.25192 0.0
H786 H 0.59435 0.34439 0.20454 0.0
H787 H 0.75912 0.32575 0.15857 0.0
H788 H 0.82132 0.30956 0.175 0.0
H789 H 0.89212 0.29853 0.26117 0.0
H790 H 0.88701 0.30796 0.30682 0.0
H791 H 0.60375 0.29636 0.21916 0.0
H792 H 0.65643 0.28654 0.29408 0.0
H793 H 0.87793 0.34952 0.23566 0.0
H794 H 0.75888 0.3655 0.27872 0.0
C795 C 0.03164 0.4557 0.31531 0.0
C796 C 0.05957 0.45049 0.33455 0.0
C797 C 0.10524 0.44788 0.32424 0.0
C798 C 0.10267 0.45127 0.29912 0.0
N799 N 0.05806 0.45583 0.29302 0.0
Co800 Co 0.03438 0.45937 0.25775 0.0
N801 N 0.08797 0.44999 0.24145 0.0
C802 C 0.12974 0.44635 0.25329 0.0
C803 C 0.16222 0.44079 0.23718 0.0
C804 C 0.14008 0.44116 0.21357 0.0
C805 C 0.09499 0.44692 0.21658 0.0
N806 N 0.00895 0.4629 0.22288 0.0
C807 C 0.01949 0.45788 0.20009 0.0
C808 C 0.99027 0.46259 0.18072 0.0
C809 C 0.96264 0.47125 0.19153 0.0
C810 C 0.97571 0.47123 0.21688 0.0
N811 N 0.98167 0.46889 0.27391 0.0
C812 C 0.95617 0.47749 0.26249 0.0
C813 C 0.92549 0.48338 0.27897 0.0
C814 C 0.93183 0.47808 0.3022 0.0
C815 C 0.96542 0.46907 0.29843 0.0
N816 N 0.07907 0.47309 0.25616 0.0
C817 C 0.15329 0.49057 0.25413 0.0
C818 C 0.1419 0.48378 0.23274 0.0
C819 C 0.10497 0.47526 0.2341 0.0
C820 C 0.12471 0.48878 0.27639 0.0
C821 C 0.08796 0.47998 0.27704 0.0
N822 N 0.99145 0.44545 0.25912 0.0
C823 C 0.91475 0.43527 0.24959 0.0
C824 C 0.93475 0.4247 0.25848 0.0
C825 C 0.98343 0.425 0.26832 0.0
C826 C 0.01098 0.43529 0.26812 0.0
C827 C 0.9434 0.44552 0.25033 0.0
H828 H 0.04857 0.43489 0.27516 0.0
H829 H 0.92695 0.45345 0.24338 0.0
H830 H 0.09874 0.4702 0.21729 0.0
H831 H 0.06772 0.47855 0.29463 0.0
C832 C 0.13494 0.44744 0.27984 0.0
C833 C 0.9813 0.46092 0.31848 0.0
C834 C 0.0639 0.45077 0.19493 0.0
C835 C 0.95458 0.4782 0.23585 0.0
H836 H 0.04829 0.44822 0.35371 0.0
H837 H 0.13502 0.4431 0.33342 0.0
H838 H 0.19777 0.43692 0.242 0.0
H839 H 0.15615 0.43791 0.19601 0.0
H840 H 0.99126 0.46047 0.16055 0.0
H841 H 0.93628 0.4769 0.18202 0.0
H842 H 0.89979 0.49031 0.27444 0.0
H843 H 0.91322 0.48048 0.31978 0.0
H844 H 0.16189 0.48495 0.21491 0.0
H845 H 0.13188 0.49383 0.29344 0.0
H846 H 0.87758 0.43567 0.2416 0.0
H847 H 1.00073 0.41735 0.27632 0.0
C848 C 0.72538 0.06643 0.55233 0.0
C849 C 0.68595 0.05865 0.55429 0.0
C850 C 0.67698 0.05458 0.53026 0.0
C851 C 0.71197 0.05986 0.51515 0.0
N852 N 0.74398 0.06671 0.52813 0.0
Co853 Co 0.80147 0.07564 0.51344 0.0
N854 N 0.78411 0.07094 0.47754 0.0
C855 C 0.74848 0.06323 0.47077 0.0
C856 C 0.75038 0.05998 0.44566 0.0
C857 C 0.78929 0.06604 0.43563 0.0
C858 C 0.8081 0.07304 0.45507 0.0
N859 N 0.85759 0.08498 0.49864 0.0
C860 C 0.86887 0.08754 0.47387 0.0
C861 C 0.90555 0.09604 0.47257 0.0
C862 C 0.91987 0.09837 0.49708 0.0
C863 C 0.89029 0.09148 0.51205 0.0
N864 N 0.81899 0.08003 0.54963 0.0
C865 C 0.85975 0.0861 0.55697 0.0
C866 C 0.85856 0.08939 0.58211 0.0
C867 C 0.8142 0.08539 0.59129 0.0
C868 C 0.79084 0.07952 0.57139 0.0
N869 N 0.84666 0.06165 0.5157 0.0
C870 C 0.9144 0.0427 0.51061 0.0
C871 C 0.93029 0.0535 0.51964 0.0
C872 C 0.89627 0.06274 0.52195 0.0
C873 C 0.8634 0.04141 0.5057 0.0
C874 C 0.83056 0.0508 0.50873 0.0
N875 N 0.75782 0.0896 0.51078 0.0
C876 C 0.74328 0.10986 0.52051 0.0
C877 C 0.69921 0.11005 0.50621 0.0
C878 C 0.68459 0.09958 0.49458 0.0
C879 C 0.71397 0.08951 0.49728 0.0
C880 C 0.77179 0.09978 0.52224 0.0
H881 H 0.70094 0.08174 0.48821 0.0
H882 H 0.80521 0.10049 0.53306 0.0
H883 H 0.91149 0.07076 0.52824 0.0
H884 H 0.79248 0.04903 0.5048 0.0
C885 C 0.7156 0.05863 0.48873 0.0
C886 C 0.7412 0.07399 0.57345 0.0
C887 C 0.84771 0.08173 0.45119 0.0
C888 C 0.89055 0.09134 0.53876 0.0
H889 H 0.66474 0.0564 0.57118 0.0
H890 H 0.64784 0.04865 0.52442 0.0
H891 H 0.72723 0.05367 0.43598 0.0
H892 H 0.80241 0.06514 0.4162 0.0
H893 H 0.92064 0.10022 0.45574 0.0
H894 H 0.94778 0.10454 0.50326 0.0
H895 H 0.88434 0.09509 0.59188 0.0
H896 H 0.80004 0.08739 0.61008 0.0
H897 H 0.96928 0.05498 0.52396 0.0
H898 H 0.84871 0.03315 0.49935 0.0
H899 H 0.75606 0.11744 0.53076 0.0
H900 H 0.65102 0.09912 0.48314 0.0
C901 C 0.54326 0.21758 0.55127 0.0
C902 C 0.5769 0.22653 0.55562 0.0
C903 C 0.58277 0.23223 0.53281 0.0
C904 C 0.55187 0.22662 0.51596 0.0
N905 N 0.52664 0.21781 0.52677 0.0
Co906 Co 0.47472 0.20832 0.50975 0.0
N907 N 0.50038 0.21234 0.47518 0.0
C908 C 0.53298 0.22089 0.46984 0.0
C909 C 0.54668 0.22122 0.44458 0.0
C910 C 0.52017 0.21251 0.43317 0.0
C911 C 0.49086 0.20746 0.4521 0.0
N912 N 0.42203 0.19894 0.49268 0.0
C913 C 0.41581 0.19602 0.46765 0.0
C914 C 0.37103 0.19018 0.46416 0.0
C915 C 0.34835 0.18957 0.48762 0.0
C916 C 0.38021 0.19509 0.50414 0.0
N917 N 0.45095 0.20427 0.54474 0.0
C918 C 0.40642 0.19954 0.55039 0.0
C919 C 0.4036 0.19588 0.57532 0.0
C920 C 0.44902 0.19847 0.58597 0.0
C921 C 0.47713 0.20393 0.56714 0.0
N922 N 0.42904 0.22189 0.5086 0.0
C923 C 0.35339 0.23906 0.50665 0.0
C924 C 0.3811 0.23712 0.52916 0.0
C925 C 0.41861 0.22848 0.52976 0.0
C926 C 0.36645 0.2326 0.48502 0.0
C927 C 0.40396 0.22423 0.48635 0.0
N928 N 0.51848 0.19459 0.51044 0.0
C929 C 0.52783 0.17402 0.51771 0.0
C930 C 0.5767 0.17415 0.50813 0.0
C931 C 0.596 0.18497 0.5003 0.0
C932 C 0.56662 0.19504 0.50187 0.0
C933 C 0.49953 0.18418 0.51843 0.0
H934 H 0.58255 0.20316 0.4957 0.0
H935 H 0.46187 0.18352 0.52529 0.0
H936 H 0.43821 0.22692 0.5475 0.0
H937 H 0.41128 0.2194 0.46928 0.0
C938 C 0.55349 0.22767 0.48935 0.0
C939 C 0.52746 0.20914 0.57083 0.0
C940 C 0.44755 0.20003 0.44634 0.0
C941 C 0.37461 0.19587 0.53073 0.0
H942 H 0.59583 0.22863 0.5733 0.0
H943 H 0.60846 0.23923 0.52873 0.0
H944 H 0.57294 0.22706 0.43554 0.0
H945 H 0.52016 0.21054 0.41293 0.0
H946 H 0.35552 0.18699 0.4464 0.0
H947 H 0.31293 0.18555 0.49208 0.0
H948 H 0.37383 0.19095 0.58411 0.0
H949 H 0.46008 0.19603 0.60506 0.0
H950 H 0.3727 0.24192 0.54641 0.0
H951 H 0.34728 0.2339 0.467 0.0
H952 H 0.51109 0.16611 0.52482 0.0
H953 H 0.63325 0.18569 0.49252 0.0
C954 C 0.72058 0.21818 0.70188 0.0
C955 C 0.68611 0.22695 0.69749 0.0
C956 C 0.67988 0.23265 0.72027 0.0
C957 C 0.7114 0.22722 0.73713 0.0
N958 N 0.7373 0.21853 0.72634 0.0
Co959 Co 0.79016 0.20935 0.74338 0.0
N960 N 0.76407 0.21315 0.77795 0.0
C961 C 0.73105 0.2216 0.7833 0.0
C962 C 0.71787 0.22196 0.80862 0.0
C963 C 0.74505 0.21336 0.82007 0.0
C964 C 0.77423 0.20834 0.80108 0.0
N965 N 0.84414 0.20041 0.76042 0.0
C966 C 0.85003 0.19725 0.7853 0.0
C967 C 0.89588 0.19186 0.78887 0.0
C968 C 0.91928 0.19174 0.76556 0.0
C969 C 0.88687 0.19709 0.74906 0.0
N970 N 0.8142 0.20542 0.70846 0.0
C971 C 0.85918 0.20095 0.70281 0.0
C972 C 0.86215 0.19719 0.67797 0.0
C973 C 0.81633 0.19944 0.66738 0.0
C974 C 0.78784 0.20481 0.68615 0.0
N975 N 0.83406 0.22326 0.74457 0.0
C976 C 0.90197 0.24216 0.74768 0.0
C977 C 0.87709 0.23947 0.72466 0.0
C978 C 0.8432 0.23005 0.72354 0.0
C979 C 0.89178 0.23508 0.76886 0.0
C980 C 0.8582 0.22585 0.76696 0.0
N981 N 0.74795 0.19533 0.74264 0.0
C982 C 0.74184 0.17451 0.73834 0.0
C983 C 0.69053 0.17466 0.74378 0.0
C984 C 0.66874 0.18562 0.7482 0.0
C985 C 0.69802 0.19576 0.74786 0.0
C986 C 0.76928 0.18482 0.73744 0.0
H987 H 0.68031 0.20395 0.75193 0.0
H988 H 0.80826 0.18419 0.73284 0.0
H989 H 0.82463 0.22822 0.70564 0.0
H990 H 0.85264 0.22071 0.78384 0.0
C991 C 0.70989 0.22828 0.76375 0.0
C992 C 0.73703 0.20977 0.68242 0.0
C993 C 0.81619 0.20043 0.80643 0.0
C994 C 0.89201 0.19774 0.72242 0.0
H995 H 0.66686 0.22892 0.67983 0.0
H996 H 0.65358 0.23952 0.72432 0.0
H997 H 0.69129 0.2277 0.81767 0.0
H998 H 0.74476 0.21132 0.84028 0.0
H999 H 0.9115 0.18861 0.80654 0.0
H1000 H 0.95529 0.18801 0.76113 0.0
H1001 H 0.89246 0.19245 0.66919 0.0
H1002 H 0.80537 0.19686 0.64837 0.0
H1003 H 0.8832 0.24467 0.7077 0.0
H1004 H 0.91038 0.23649 0.78698 0.0
H1005 H 0.76165 0.16648 0.73527 0.0
H1006 H 0.62924 0.18648 0.75188 0.0
C1007 C 0.53741 0.06718 0.70017 0.0
C1008 C 0.57115 0.05817 0.69676 0.0
C1009 C 0.57557 0.05267 0.71991 0.0
C1010 C 0.54365 0.05843 0.73597 0.0
N1011 N 0.51928 0.06715 0.72435 0.0
Co1012 Co 0.4649 0.07641 0.73974 0.0
N1013 N 0.48763 0.07276 0.77496 0.0
C1014 C 0.52003 0.06433 0.78139 0.0
C1015 C 0.53155 0.06427 0.80694 0.0
C1016 C 0.50396 0.07306 0.81733 0.0
C1017 C 0.4761 0.07787 0.79754 0.0
N1018 N 0.40936 0.08539 0.75515 0.0
C1019 C 0.4015 0.08877 0.77971 0.0
C1020 C 0.35524 0.0941 0.78209 0.0
C1021 C 0.3337 0.094 0.75832 0.0
C1022 C 0.36754 0.08857 0.74275 0.0
N1023 N 0.44403 0.08021 0.70421 0.0
C1024 C 0.39965 0.08466 0.69736 0.0
C1025 C 0.39911 0.08843 0.67248 0.0
C1026 C 0.44587 0.08615 0.6631 0.0
C1027 C 0.4724 0.08072 0.68256 0.0
N1028 N 0.42128 0.0625 0.74001 0.0
C1029 C 0.35242 0.04377 0.74003 0.0
C1030 C 0.38175 0.04637 0.71836 0.0
C1031 C 0.41573 0.0557 0.71874 0.0
C1032 C 0.35972 0.05068 0.7618 0.0
C1033 C 0.394 0.05987 0.76142 0.0
N1034 N 0.50709 0.09044 0.73969 0.0
C1035 C 0.51418 0.11115 0.73362 0.0
C1036 C 0.56492 0.11088 0.73978 0.0
C1037 C 0.58627 0.10009 0.74578 0.0
C1038 C 0.55663 0.09001 0.74593 0.0
C1039 C 0.4863 0.1009 0.73338 0.0
H1040 H 0.57375 0.08187 0.75106 0.0
H1041 H 0.44774 0.1015 0.72791 0.0
H1042 H 0.43707 0.05751 0.70168 0.0
H1043 H 0.39738 0.065 0.7785 0.0
C1044 C 0.54274 0.05749 0.76262 0.0
C1045 C 0.52299 0.07551 0.68009 0.0
C1046 C 0.43407 0.08591 0.80157 0.0
C1047 C 0.36485 0.08786 0.71605 0.0
H1048 H 0.59102 0.05587 0.67948 0.0
H1049 H 0.60072 0.04566 0.72469 0.0
H1050 H 0.55752 0.05864 0.8168 0.0
H1051 H 0.5032 0.07538 0.83738 0.0
H1052 H 0.33819 0.0975 0.79926 0.0
H1053 H 0.29806 0.09767 0.75296 0.0
H1054 H 0.36975 0.09319 0.66292 0.0
H1055 H 0.45866 0.08877 0.64442 0.0
H1056 H 0.37859 0.04125 0.7011 0.0
H1057 H 0.33797 0.04927 0.77897 0.0
H1058 H 0.49624 0.11922 0.72843 0.0
H1059 H 0.62544 0.09947 0.75064 0.0
C1060 C 0.23981 0.95324 0.43866 0.0
C1061 C 0.21703 0.94723 0.41883 0.0
C1062 C 0.17098 0.94396 0.4274 0.0
C1063 C 0.16836 0.94786 0.45211 0.0
N1064 N 0.2095 0.95369 0.45968 0.0
Co1065 Co 0.22756 0.95767 0.49595 0.0
N1066 N 0.16601 0.95015 0.51006 0.0
C1067 C 0.12758 0.94589 0.49625 0.0
C1068 C 0.08837 0.94217 0.51096 0.0
C1069 C 0.10232 0.94438 0.53564 0.0
C1070 C 0.14964 0.94923 0.53457 0.0
N1071 N 0.24883 0.96088 0.53191 0.0
C1072 C 0.22733 0.95786 0.55437 0.0
C1073 C 0.25723 0.96084 0.57506 0.0
C1074 C 0.2983 0.96625 0.56532 0.0
C1075 C 0.29159 0.96611 0.53934 0.0
N1076 N 0.28713 0.96583 0.48193 0.0
C1077 C 0.31948 0.97253 0.49504 0.0
C1078 C 0.35351 0.97807 0.47974 0.0
C1079 C 0.34297 0.97439 0.4555 0.0
C1080 C 0.30388 0.96653 0.45759 0.0
N1081 N 0.18902 0.97265 0.49476 0.0
C1082 C 0.12514 0.99233 0.50078 0.0
C1083 C 0.17249 0.99181 0.51224 0.0
C1084 C 0.20319 0.98204 0.50914 0.0
C1085 C 0.11226 0.98302 0.4848 0.0
C1086 C 0.14462 0.9735 0.48179 0.0
N1087 N 0.26455 0.94268 0.49756 0.0
C1088 C 0.34058 0.93154 0.50326 0.0
C1089 C 0.31424 0.9211 0.50081 0.0
C1090 C 0.26312 0.92168 0.49632 0.0
C1091 C 0.2394 0.93242 0.49444 0.0
C1092 C 0.31504 0.9422 0.50185 0.0
H1093 H 0.20047 0.93216 0.49041 0.0
H1094 H 0.33656 0.94996 0.50437 0.0
H1095 H 0.23787 0.98221 0.5191 0.0
H1096 H 0.13211 0.9668 0.46934 0.0
C1097 C 0.1312 0.94479 0.46966 0.0
C1098 C 0.2903 0.95834 0.43736 0.0
C1099 C 0.17705 0.95315 0.55717 0.0
C1100 C 0.32191 0.97183 0.52165 0.0
H1101 H 0.23216 0.9449 0.40044 0.0
H1102 H 0.14403 0.93866 0.41738 0.0
H1103 H 0.05384 0.93828 0.50453 0.0
H1104 H 0.08004 0.94266 0.55248 0.0
H1105 H 0.24933 0.95958 0.59519 0.0
H1106 H 0.32864 0.97014 0.57594 0.0
H1107 H 0.38433 0.9835 0.48566 0.0
H1108 H 0.36422 0.9765 0.43852 0.0
H1109 H 0.18613 0.99887 0.52391 0.0
H1110 H 0.07659 0.98278 0.47516 0.0
H1111 H 0.3804 0.93146 0.50673 0.0
H1112 H 0.24144 0.91382 0.49402 0.0
C1113 C 0.54082 0.82709 0.43693 0.0
C1114 C 0.56905 0.83113 0.41653 0.0
C1115 C 0.61629 0.83317 0.42579 0.0
C1116 C 0.61458 0.83044 0.45136 0.0
N1117 N 0.56917 0.82678 0.45863 0.0
Co1118 Co 0.5472 0.82411 0.49451 0.0
N1119 N 0.60379 0.83304 0.50916 0.0
C1120 C 0.64606 0.83565 0.49647 0.0
C1121 C 0.6809 0.84099 0.51168 0.0
C1122 C 0.65967 0.84153 0.53555 0.0
C1123 C 0.61273 0.83652 0.5336 0.0
N1124 N 0.52258 0.82163 0.5299 0.0
C1125 C 0.53484 0.82712 0.55193 0.0
C1126 C 0.50533 0.82319 0.57204 0.0
C1127 C 0.47565 0.81457 0.5625 0.0
C1128 C 0.48785 0.81383 0.53708 0.0
N1129 N 0.492 0.81488 0.48 0.0
C1130 C 0.46554 0.80672 0.49238 0.0
C1131 C 0.43235 0.80107 0.47674 0.0
C1132 C 0.4381 0.80609 0.45313 0.0
C1133 C 0.47403 0.81467 0.45587 0.0
N1134 N 0.58927 0.80994 0.49691 0.0
C1135 C 0.6638 0.79252 0.49971 0.0
C1136 C 0.65126 0.79927 0.52099 0.0
C1137 C 0.61434 0.80777 0.51923 0.0
C1138 C 0.63563 0.79422 0.47724 0.0
C1139 C 0.59862 0.80296 0.47623 0.0
N1140 N 0.50758 0.83849 0.49226 0.0
C1141 C 0.43238 0.84973 0.49859 0.0
C1142 C 0.45618 0.85983 0.48954 0.0
C1143 C 0.50613 0.85889 0.48211 0.0
C1144 C 0.53072 0.84828 0.48349 0.0
C1145 C 0.4587 0.83914 0.4997 0.0
H1146 H 0.56898 0.84811 0.47748 0.0
H1147 H 0.43969 0.8315 0.50661 0.0
H1148 H 0.60789 0.81293 0.53589 0.0
H1149 H 0.57885 0.80434 0.45848 0.0
C1150 C 0.64935 0.83402 0.46986 0.0
C1151 C 0.48845 0.82287 0.43568 0.0
C1152 C 0.58095 0.83383 0.55589 0.0
C1153 C 0.46474 0.80662 0.5191 0.0
H1154 H 0.55736 0.83282 0.39717 0.0
H1155 H 0.64704 0.83706 0.41547 0.0
H1156 H 0.71732 0.84415 0.50611 0.0
H1157 H 0.67732 0.84491 0.5526 0.0
H1158 H 0.5074 0.82579 0.59192 0.0
H1159 H 0.44851 0.80945 0.57287 0.0
H1160 H 0.40496 0.79463 0.48217 0.0
H1161 H 0.41698 0.804 0.43609 0.0
H1162 H 0.67064 0.79816 0.53901 0.0
H1163 H 0.64347 0.78918 0.46025 0.0
H1164 H 0.39368 0.84997 0.50445 0.0
H1165 H 0.52682 0.86638 0.4755 0.0
C1166 C 0.24405 0.82782 0.31712 0.0
C1167 C 0.22098 0.83338 0.33747 0.0
C1168 C 0.17307 0.83582 0.32989 0.0
C1169 C 0.16932 0.83191 0.30517 0.0
N1170 N 0.21201 0.82711 0.29685 0.0
Co1171 Co 0.22672 0.82268 0.26086 0.0
N1172 N 0.17129 0.83212 0.24684 0.0
C1173 C 0.13366 0.83664 0.26068 0.0
C1174 C 0.10466 0.84411 0.24672 0.0
C1175 C 0.12452 0.84403 0.22255 0.0
C1176 C 0.16378 0.83616 0.2227 0.0
N1177 N 0.24306 0.8181 0.2252 0.0
C1178 C 0.22527 0.82206 0.20243 0.0
C1179 C 0.24005 0.81467 0.1827 0.0
C1180 C 0.26817 0.80608 0.19338 0.0
C1181 C 0.26859 0.80843 0.21899 0.0
N1182 N 0.28149 0.81318 0.27494 0.0
C1183 C 0.30167 0.80386 0.26364 0.0
C1184 C 0.33644 0.7984 0.2787 0.0
C1185 C 0.33823 0.80477 0.30085 0.0
C1186 C 0.30482 0.81387 0.29783 0.0
N1187 N 0.18052 0.80925 0.26313 0.0
C1188 C 0.11343 0.79018 0.26455 0.0
C1189 C 0.14566 0.79264 0.28522 0.0
C1190 C 0.17875 0.80217 0.28415 0.0
C1191 C 0.11598 0.79761 0.24335 0.0
C1192 C 0.14896 0.807 0.24311 0.0
N1193 N 0.27112 0.83629 0.2584 0.0
C1194 C 0.34981 0.84557 0.24863 0.0
C1195 C 0.33071 0.85655 0.25557 0.0
C1196 C 0.28097 0.85694 0.26372 0.0
C1197 C 0.25273 0.84685 0.26552 0.0
C1198 C 0.31929 0.8356 0.24992 0.0
H1199 H 0.21553 0.84775 0.27272 0.0
H1200 H 0.33458 0.82733 0.24424 0.0
H1201 H 0.20285 0.80382 0.3003 0.0
H1202 H 0.14868 0.81241 0.2264 0.0
C1203 C 0.13378 0.83581 0.28747 0.0
C1204 C 0.29533 0.82287 0.31716 0.0
C1205 C 0.18852 0.83158 0.19932 0.0
C1206 C 0.29349 0.8019 0.23763 0.0
H1207 H 0.2368 0.83604 0.35547 0.0
H1208 H 0.14596 0.84091 0.34033 0.0
H1209 H 0.07442 0.84948 0.25359 0.0
H1210 H 0.11099 0.84911 0.20661 0.0
H1211 H 0.22952 0.81485 0.16278 0.0
H1212 H 0.28511 0.79879 0.18367 0.0
H1213 H 0.35931 0.79101 0.27379 0.0
H1214 H 0.36174 0.80299 0.31722 0.0
H1215 H 0.14514 0.78733 0.3023 0.0
H1216 H 0.09318 0.79612 0.22658 0.0
H1217 H 0.38804 0.8446 0.24241 0.0
H1218 H 0.26286 0.86502 0.26851 0.0
C1219 C 0.53201 0.95209 0.3184 0.0
C1220 C 0.55415 0.94607 0.33843 0.0
C1221 C 0.6005 0.9428 0.33024 0.0
C1222 C 0.60386 0.94668 0.30553 0.0
N1223 N 0.56293 0.95247 0.29764 0.0
Co1224 Co 0.54556 0.95621 0.26122 0.0
N1225 N 0.60538 0.94802 0.24754 0.0
C1226 C 0.64466 0.94435 0.2615 0.0
C1227 C 0.68236 0.93981 0.24691 0.0
C1228 C 0.66615 0.94073 0.22217 0.0
C1229 C 0.61897 0.94567 0.22308 0.0
N1230 N 0.5241 0.959 0.22515 0.0
C1231 C 0.5415 0.9544 0.20306 0.0
C1232 C 0.51084 0.95726 0.18253 0.0
C1233 C 0.47396 0.96421 0.19192 0.0
C1234 C 0.48336 0.965 0.21761 0.0
N1235 N 0.48796 0.9651 0.27484 0.0
C1236 C 0.45883 0.97249 0.26161 0.0
C1237 C 0.42567 0.97838 0.27674 0.0
C1238 C 0.43358 0.97426 0.30095 0.0
C1239 C 0.47039 0.96583 0.299 0.0
N1240 N 0.58665 0.97094 0.26144 0.0
C1241 C 0.65132 0.99058 0.25782 0.0
C1242 C 0.60978 0.98936 0.24187 0.0
C1243 C 0.5786 0.97961 0.24384 0.0
C1244 C 0.65904 0.98192 0.27615 0.0
C1245 C 0.62624 0.9724 0.27791 0.0
N1246 N 0.50631 0.9416 0.26068 0.0
C1247 C 0.42815 0.93122 0.2566 0.0
C1248 C 0.45228 0.92056 0.26025 0.0
C1249 C 0.50376 0.92067 0.2641 0.0
C1250 C 0.5297 0.93118 0.26459 0.0
C1251 C 0.45582 0.94159 0.25652 0.0
H1252 H 0.5688 0.93068 0.26848 0.0
H1253 H 0.43598 0.94954 0.25321 0.0
H1254 H 0.54858 0.97932 0.23051 0.0
H1255 H 0.63415 0.96633 0.29274 0.0
C1256 C 0.64145 0.94367 0.28818 0.0
C1257 C 0.48194 0.95746 0.31926 0.0
C1258 C 0.58861 0.94808 0.20034 0.0
C1259 C 0.45627 0.97169 0.23501 0.0
H1260 H 0.5385 0.94374 0.35671 0.0
H1261 H 0.62714 0.93751 0.34052 0.0
H1262 H 0.71683 0.93595 0.25349 0.0
H1263 H 0.68666 0.93796 0.20544 0.0
H1264 H 0.51513 0.95478 0.1627 0.0
H1265 H 0.44406 0.96826 0.18125 0.0
H1266 H 0.39667 0.9843 0.27067 0.0
H1267 H 0.41219 0.97655 0.31775 0.0
H1268 H 0.60185 0.99582 0.22736 0.0
H1269 H 0.68999 0.98255 0.2894 0.0
H1270 H 0.38821 0.93154 0.25362 0.0
H1271 H 0.52385 0.91267 0.26749 0.0
C1272 C 0.69635 0.56516 0.04439 0.0
C1273 C 0.64971 0.55993 0.04285 0.0
C1274 C 0.643 0.55678 0.018 0.0
C1275 C 0.68526 0.56039 0.00569 0.0
N1276 N 0.7192 0.56548 0.02115 0.0
Co1277 Co 0.78133 0.57377 0.00992 0.0
N1278 N 0.76704 0.57063 0.97303 0.0
C1279 C 0.73155 0.56345 0.96385 0.0
C1280 C 0.73629 0.56103 0.93836 0.0
C1281 C 0.77697 0.56719 0.93068 0.0
C1282 C 0.7937 0.57338 0.95187 0.0
N1283 N 0.84134 0.58279 0.99842 0.0
C1284 C 0.85468 0.58648 0.97454 0.0
C1285 C 0.89398 0.5943 0.97579 0.0
C1286 C 0.90671 0.5953 1.00104 0.0
C1287 C 0.87398 0.58828 0.01393 0.0
N1288 N 0.79656 0.57623 0.04716 0.0
C1289 C 0.83861 0.581 0.05677 0.0
C1290 C 0.8384 0.58178 0.08298 0.0
C1291 C 0.79333 0.57736 0.09049 0.0
C1292 C 0.76824 0.57421 0.06836 0.0
N1293 N 0.82181 0.55902 0.01075 0.0
C1294 C 0.88429 0.53914 0.00518 0.0
C1295 C 0.90285 0.54962 0.01455 0.0
C1296 C 0.87154 0.55929 0.0171 0.0
C1297 C 0.83303 0.53866 0.99982 0.0
C1298 C 0.80266 0.54853 0.00311 0.0
N1299 N 0.74286 0.58858 0.00877 0.0
C1300 C 0.73495 0.60851 0.02259 0.0
C1301 C 0.69824 0.61081 0.00434 0.0
C1302 C 0.68223 0.60148 0.98909 0.0
C1303 C 0.70476 0.59046 0.9917 0.0
C1304 C 0.75665 0.59759 0.02431 0.0
H1305 H 0.69169 0.58362 0.97947 0.0
H1306 H 0.78543 0.59681 0.03819 0.0
H1307 H 0.88913 0.56697 0.02372 0.0
H1308 H 0.76394 0.5475 0.99899 0.0
C1309 C 0.69349 0.55941 0.97952 0.0
C1310 C 0.7169 0.56976 0.06833 0.0
C1311 C 0.83138 0.58259 0.95045 0.0
C1312 C 0.87198 0.58683 0.04058 0.0
H1313 H 0.62266 0.5587 0.05796 0.0
H1314 H 0.61053 0.55264 0.00975 0.0
H1315 H 0.71285 0.55551 0.92673 0.0
H1316 H 0.79175 0.56729 0.91143 0.0
H1317 H 0.91141 0.59897 0.96026 0.0
H1318 H 0.93568 0.60072 0.00909 0.0
H1319 H 0.86626 0.58577 0.09509 0.0
H1320 H 0.77967 0.57692 0.10995 0.0
H1321 H 0.94208 0.55055 0.01905 0.0
H1322 H 0.81627 0.53068 0.99309 0.0
H1323 H 0.74759 0.61519 0.03563 0.0
H1324 H 0.65349 0.60271 0.9748 0.0
C1325 C 0.54149 0.71661 0.05411 0.0
C1326 C 0.58067 0.72439 0.05704 0.0
C1327 C 0.5923 0.72837 0.03318 0.0
C1328 C 0.55879 0.7231 0.01718 0.0
N1329 N 0.52578 0.71624 0.02944 0.0
Co1330 Co 0.4665 0.70848 0.01386 0.0
N1331 N 0.49034 0.71199 0.97837 0.0
C1332 C 0.53282 0.7176 0.97197 0.0
C1333 C 0.54187 0.71789 0.94619 0.0
C1334 C 0.50269 0.71215 0.93544 0.0
C1335 C 0.47146 0.70883 0.95538 0.0
N1336 N 0.4061 0.70111 0.99824 0.0
C1337 C 0.3926 0.69993 0.9733 0.0
C1338 C 0.34547 0.69506 0.97107 0.0
C1339 C 0.3287 0.69312 0.9954 0.0
C1340 C 0.36621 0.69696 0.01109 0.0
N1341 N 0.44541 0.70433 0.04969 0.0
C1342 C 0.40284 0.69877 0.05623 0.0
C1343 C 0.40279 0.69475 0.08087 0.0
C1344 C 0.44827 0.69774 0.09058 0.0
C1345 C 0.47341 0.70381 0.07153 0.0
N1346 N 0.42812 0.72356 0.01488 0.0
C1347 C 0.36267 0.74295 0.00786 0.0
C1348 C 0.35097 0.73386 0.02465 0.0
C1349 C 0.38398 0.7245 0.0281 0.0
C1350 C 0.40979 0.74245 0.99616 0.0
C1351 C 0.44143 0.73286 0.9999 0.0
N1352 N 0.50271 0.69343 0.01216 0.0
C1353 C 0.49998 0.67251 0.01536 0.0
C1354 C 0.54835 0.67142 0.00564 0.0
C1355 C 0.57437 0.68174 1.00032 0.0
C1356 C 0.55113 0.6926 0.00391 0.0
C1357 C 0.47809 0.68339 0.01818 0.0
H1358 H 0.57238 0.70024 0.99957 0.0
H1359 H 0.44069 0.68344 0.02499 0.0
H1360 H 0.37198 0.718 0.04116 0.0
H1361 H 0.47609 0.73311 0.98995 0.0
C1362 C 0.56187 0.72303 0.99057 0.0
C1363 C 0.52376 0.70893 0.07464 0.0
C1364 C 0.42247 0.7036 0.95128 0.0
C1365 C 0.36696 0.69596 0.03775 0.0
H1366 H 0.60039 0.72658 0.07443 0.0
H1367 H 0.62303 0.73398 0.02799 0.0
H1368 H 0.57282 0.72196 0.93637 0.0
H1369 H 0.49704 0.71082 0.91515 0.0
H1370 H 0.32524 0.69314 0.95367 0.0
H1371 H 0.29356 0.68925 1.00097 0.0
H1372 H 0.37448 0.68953 0.09011 0.0
H1373 H 0.46154 0.69517 0.10922 0.0
H1374 H 0.31557 0.73366 0.03458 0.0
H1375 H 0.42244 0.74939 0.98383 0.0
H1376 H 0.47847 0.66497 0.02086 0.0
H1377 H 0.61202 0.68151 0.9929 0.0
C1378 C 0.7223 0.71592 0.20331 0.0
C1379 C 0.68789 0.72477 0.19963 0.0
C1380 C 0.68267 0.7303 0.22268 0.0
C1381 C 0.71476 0.72471 0.23898 0.0
N1382 N 0.73996 0.71607 0.22759 0.0
Co1383 Co 0.79444 0.707 0.24343 0.0
N1384 N 0.7702 0.71048 0.27841 0.0
C1385 C 0.73751 0.71888 0.28461 0.0
C1386 C 0.72512 0.71885 0.31006 0.0
C1387 C 0.75237 0.71002 0.3206 0.0
C1388 C 0.78085 0.70527 0.301 0.0
N1389 N 0.84993 0.69819 0.25929 0.0
C1390 C 0.85653 0.69459 0.2838 0.0
C1391 C 0.90289 0.68936 0.28665 0.0
C1392 C 0.92576 0.68975 0.26319 0.0
C1393 C 0.89253 0.69524 0.24735 0.0
N1394 N 0.81681 0.70339 0.20809 0.0
C1395 C 0.86185 0.69918 0.20165 0.0
C1396 C 0.8635 0.69544 0.17676 0.0
C1397 C 0.81681 0.69748 0.16699 0.0
C1398 C 0.78913 0.70274 0.18623 0.0
N1399 N 0.83703 0.72106 0.24429 0.0
C1400 C 0.90237 0.7404 0.24584 0.0
C1401 C 0.87463 0.73772 0.2237 0.0
C1402 C 0.84241 0.72806 0.2233 0.0
C1403 C 0.89588 0.73318 0.26716 0.0
C1404 C 0.86333 0.72368 0.26603 0.0
N1405 N 0.75341 0.69285 0.24292 0.0
C1406 C 0.74856 0.6721 0.23735 0.0
C1407 C 0.69785 0.67215 0.24343 0.0
C1408 C 0.67518 0.68283 0.249 0.0
C1409 C 0.70377 0.69306 0.24898 0.0
C1410 C 0.77532 0.68249 0.23684 0.0
H1411 H 0.68583 0.70112 0.2539 0.0
H1412 H 0.81398 0.68207 0.23148 0.0
H1413 H 0.82215 0.72619 0.20593 0.0
H1414 H 0.8599 0.7184 0.28292 0.0
C1415 C 0.71501 0.72568 0.26565 0.0
C1416 C 0.73798 0.70765 0.18338 0.0
C1417 C 0.82246 0.69711 0.30523 0.0
C1418 C 0.89624 0.69608 0.22067 0.0
H1419 H 0.66817 0.72695 0.18222 0.0
H1420 H 0.65687 0.73721 0.22724 0.0
H1421 H 0.6987 0.72442 0.31973 0.0
H1422 H 0.75239 0.70761 0.34061 0.0
H1423 H 0.91901 0.6858 0.30392 0.0
H1424 H 0.96177 0.68618 0.25819 0.0
H1425 H 0.89358 0.69083 0.16746 0.0
H1426 H 0.80484 0.6948 0.14822 0.0
H1427 H 0.8783 0.74293 0.20657 0.0
H1428 H 0.91535 0.7349 0.28491 0.0
H1429 H 0.76729 0.66409 0.23248 0.0
H1430 H 0.63588 0.68323 0.25367 0.0
C1431 C 0.55288 0.56446 0.21377 0.0
C1432 C 0.59262 0.55673 0.21328 0.0
C1433 C 0.5926 0.55106 0.23632 0.0
C1434 C 0.55377 0.55575 0.24984 0.0
N1435 N 0.52944 0.56404 0.23676 0.0
Co1436 Co 0.47504 0.57392 0.25038 0.0
N1437 N 0.49461 0.57071 0.28623 0.0
C1438 C 0.52075 0.56135 0.29385 0.0
C1439 C 0.52296 0.56017 0.31986 0.0
C1440 C 0.49619 0.56929 0.32928 0.0
C1441 C 0.47974 0.57576 0.30837 0.0
N1442 N 0.42049 0.58379 0.26393 0.0
C1443 C 0.41508 0.58874 0.28738 0.0
C1444 C 0.37407 0.59609 0.28742 0.0
C1445 C 0.35177 0.59511 0.26385 0.0
C1446 C 0.38082 0.58747 0.25036 0.0
N1447 N 0.45651 0.57695 0.21433 0.0
C1448 C 0.41213 0.58088 0.20617 0.0
C1449 C 0.41106 0.58251 0.18009 0.0
C1450 C 0.45775 0.57945 0.1715 0.0
C1451 C 0.48494 0.57616 0.19287 0.0
N1452 N 0.42902 0.56044 0.25155 0.0
C1453 C 0.35444 0.54301 0.25316 0.0
C1454 C 0.38657 0.54413 0.23194 0.0
C1455 C 0.42355 0.5529 0.2315 0.0
C1456 C 0.36236 0.55053 0.27379 0.0
C1457 C 0.39911 0.55908 0.27258 0.0
N1458 N 0.51894 0.5876 0.24951 0.0
C1459 C 0.52735 0.60811 0.24156 0.0
C1460 C 0.57677 0.60815 0.25043 0.0
C1461 C 0.59662 0.59741 0.25851 0.0
C1462 C 0.56698 0.58731 0.25822 0.0
C1463 C 0.49994 0.59785 0.24074 0.0
H1464 H 0.58274 0.57929 0.26513 0.0
H1465 H 0.4626 0.59835 0.23338 0.0
H1466 H 0.44684 0.55376 0.21474 0.0
H1467 H 0.40207 0.5648 0.28871 0.0
C1468 C 0.54657 0.55456 0.27616 0.0
C1469 C 0.53667 0.57177 0.19211 0.0
C1470 C 0.44539 0.58577 0.31026 0.0
C1471 C 0.37792 0.58545 0.22385 0.0
H1472 H 0.61984 0.55539 0.19837 0.0
H1473 H 0.61988 0.54485 0.24304 0.0
H1474 H 0.5417 0.55347 0.33072 0.0
H1475 H 0.48824 0.5706 0.34933 0.0
H1476 H 0.36142 0.60167 0.30269 0.0
H1477 H 0.31974 0.59989 0.25698 0.0
H1478 H 0.38105 0.58617 0.16883 0.0
H1479 H 0.47051 0.57971 0.15187 0.0
H1480 H 0.38222 0.53854 0.21547 0.0
H1481 H 0.3398 0.54993 0.29092 0.0
H1482 H 0.50869 0.61597 0.23571 0.0
H1483 H 0.63472 0.59669 0.26508 0.0
C1484 C 0.22007 0.45256 0.93138 0.0
C1485 C 0.19772 0.44618 0.91195 0.0
C1486 C 0.15363 0.4421 0.92138 0.0
C1487 C 0.15184 0.44587 0.94617 0.0
N1488 N 0.19165 0.45234 0.95307 0.0
Co1489 Co 0.21085 0.45653 0.98905 0.0
N1490 N 0.15309 0.44786 0.00409 0.0
C1491 C 0.11484 0.44314 0.99088 0.0
C1492 C 0.07831 0.43854 0.00614 0.0
C1493 C 0.09407 0.44048 0.0306 0.0
C1494 C 0.13992 0.44605 0.02888 0.0
N1495 N 0.23299 0.46006 0.02481 0.0
C1496 C 0.21557 0.45611 0.04759 0.0
C1497 C 0.24612 0.45958 0.06767 0.0
C1498 C 0.28306 0.46622 0.05732 0.0
C1499 C 0.27372 0.46626 0.03157 0.0
N1500 N 0.267 0.46569 0.97403 0.0
C1501 C 0.29788 0.4729 0.98675 0.0
C1502 C 0.33041 0.47873 0.97115 0.0
C1503 C 0.32054 0.47475 0.94709 0.0
C1504 C 0.28328 0.46644 0.94953 0.0
N1505 N 0.16742 0.47082 0.98858 0.0
C1506 C 0.09881 0.48963 0.99496 0.0
C1507 C 0.14686 0.48985 0.00567 0.0
C1508 C 0.17984 0.4805 0.00243 0.0
C1509 C 0.08742 0.48003 0.97955 0.0
C1510 C 0.12203 0.47096 0.97635 0.0
N1511 N 0.25282 0.44229 0.98987 0.0
C1512 C 0.33308 0.43277 0.99387 0.0
C1513 C 0.31116 0.42185 0.99048 0.0
C1514 C 0.25962 0.42139 0.98677 0.0
C1515 C 0.23154 0.4316 0.98627 0.0
C1516 C 0.30337 0.44281 0.9938 0.0
H1517 H 0.19256 0.43063 0.98272 0.0
H1518 H 0.32186 0.45093 0.99689 0.0
H1519 H 0.21492 0.48127 0.01181 0.0
H1520 H 0.11055 0.46403 0.96427 0.0
C1521 C 0.1169 0.44218 0.96428 0.0
C1522 C 0.26858 0.45856 0.92885 0.0
C1523 C 0.16939 0.44951 0.05125 0.0
C1524 C 0.30118 0.4724 0.01336 0.0
H1525 H 0.21216 0.44411 0.89324 0.0
H1526 H 0.12763 0.43638 0.91181 0.0
H1527 H 0.04463 0.43413 1.0002 0.0
H1528 H 0.07396 0.43803 0.0477 0.0
H1529 H 0.242 0.45762 0.08781 0.0
H1530 H 0.31305 0.47054 0.06738 0.0
H1531 H 0.35985 0.48463 0.97675 0.0
H1532 H 0.34051 0.47721 0.92993 0.0
H1533 H 0.1594 0.49719 0.01683 0.0
H1534 H 0.05133 0.47926 0.97046 0.0
H1535 H 0.37289 0.43356 0.9969 0.0
H1536 H 0.24103 0.41318 0.98366 0.0
C1537 C 0.5183 0.32487 0.93768 0.0
C1538 C 0.54306 0.32928 0.91648 0.0
C1539 C 0.58747 0.3336 0.92508 0.0
C1540 C 0.58743 0.33156 0.95093 0.0
N1541 N 0.54646 0.32586 0.95924 0.0
Co1542 Co 0.5289 0.32234 0.99571 0.0
N1543 N 0.58966 0.33048 0.00905 0.0
C1544 C 0.62742 0.33481 0.99483 0.0
C1545 C 0.66585 0.33921 0.00917 0.0
C1546 C 0.65206 0.33745 0.03405 0.0
C1547 C 0.60568 0.33213 0.03345 0.0
N1548 N 0.50876 0.31952 0.03207 0.0
C1549 C 0.52981 0.32314 0.05421 0.0
C1550 C 0.50097 0.32011 0.07527 0.0
C1551 C 0.46109 0.31407 0.06615 0.0
C1552 C 0.46745 0.31391 0.04017 0.0
N1553 N 0.46931 0.31371 0.98235 0.0
C1554 C 0.43693 0.30735 0.99639 0.0
C1555 C 0.39768 0.30311 0.98256 0.0
C1556 C 0.40469 0.30717 0.95837 0.0
C1557 C 0.44867 0.31357 0.95858 0.0
N1558 N 0.5692 0.30755 0.99533 0.0
C1559 C 0.63477 0.28811 1.00028 0.0
C1560 C 0.58998 0.28881 0.01409 0.0
C1561 C 0.5581 0.29843 0.0113 0.0
C1562 C 0.64467 0.29714 0.98312 0.0
C1563 C 0.61176 0.30657 0.98082 0.0
N1564 N 0.49017 0.33708 0.99642 0.0
C1565 C 0.41268 0.34753 0.00252 0.0
C1566 C 0.43603 0.35826 0.99805 0.0
C1567 C 0.48717 0.35802 0.99247 0.0
C1568 C 0.513 0.34748 0.99145 0.0
C1569 C 0.4402 0.33719 1.00191 0.0
H1570 H 0.55169 0.34795 0.9867 0.0
H1571 H 0.42034 0.32935 0.00593 0.0
H1572 H 0.52505 0.29835 0.02267 0.0
H1573 H 0.62224 0.31301 0.96729 0.0
C1574 C 0.62409 0.33525 0.96814 0.0
C1575 C 0.46752 0.32012 0.9365 0.0
C1576 C 0.57889 0.3285 0.05648 0.0
C1577 C 0.43705 0.30804 0.02296 0.0
H1578 H 0.52987 0.32958 0.89692 0.0
H1579 H 0.61571 0.33801 0.91394 0.0
H1580 H 0.69973 0.34328 0.00235 0.0
H1581 H 0.67375 0.33978 0.05072 0.0
H1582 H 0.50876 0.3218 0.09525 0.0
H1583 H 0.43151 0.31008 0.07718 0.0
H1584 H 0.36524 0.29856 0.98973 0.0
H1585 H 0.37822 0.30604 0.94304 0.0
H1586 H 0.57992 0.28209 0.02761 0.0
H1587 H 0.67778 0.29696 0.97126 0.0
H1588 H 0.3731 0.34701 0.00634 0.0
H1589 H 0.50788 0.36593 0.98925 0.0
C1590 C 0.23603 0.32419 0.81344 0.0
C1591 C 0.20856 0.32612 0.83551 0.0
C1592 C 0.16144 0.32922 0.82777 0.0
C1593 C 0.1627 0.32898 0.80149 0.0
N1594 N 0.20758 0.32592 0.79226 0.0
Co1595 Co 0.22601 0.32478 0.75556 0.0
N1596 N 0.16773 0.33419 0.74462 0.0
C1597 C 0.12688 0.33624 0.75893 0.0
C1598 C 0.09099 0.3424 0.74608 0.0
C1599 C 0.11009 0.34419 0.72207 0.0
C1600 C 0.1569 0.33905 0.7216 0.0
N1601 N 0.24613 0.32383 0.71909 0.0
C1602 C 0.23214 0.33048 0.69898 0.0
C1603 C 0.25971 0.32769 0.6773 0.0
C1604 C 0.28998 0.31863 0.6838 0.0
C1605 C 0.28009 0.31652 0.70911 0.0
N1606 N 0.28351 0.31512 0.76652 0.0
C1607 C 0.311 0.30819 0.75133 0.0
C1608 C 0.35003 0.30306 0.76393 0.0
C1609 C 0.34703 0.30699 0.78855 0.0
C1610 C 0.30563 0.31422 0.78975 0.0
N1611 N 0.18423 0.31064 0.75166 0.0
C1612 C 0.1171 0.29174 0.74636 0.0
C1613 C 0.12392 0.29984 0.72667 0.0
C1614 C 0.15698 0.30914 0.72972 0.0
C1615 C 0.14548 0.29326 0.76878 0.0
C1616 C 0.17918 0.30264 0.77091 0.0
N1617 N 0.26627 0.33903 0.75901 0.0
C1618 C 0.3415 0.34983 0.75012 0.0
C1619 C 0.31923 0.36031 0.75798 0.0
C1620 C 0.27031 0.35961 0.76758 0.0
C1621 C 0.24505 0.34896 0.7683 0.0
C1622 C 0.31443 0.33942 0.75048 0.0
H1623 H 0.20758 0.34886 0.7757 0.0
H1624 H 0.33229 0.33172 0.7433 0.0
H1625 H 0.15947 0.31527 0.71427 0.0
H1626 H 0.20064 0.3035 0.78829 0.0
C1627 C 0.12609 0.33339 0.78502 0.0
C1628 C 0.28764 0.31986 0.81324 0.0
C1629 C 0.1871 0.33776 0.69824 0.0
C1630 C 0.30722 0.30906 0.72481 0.0
H1631 H 0.22123 0.32534 0.8551 0.0
H1632 H 0.13063 0.33179 0.83987 0.0
H1633 H 0.05544 0.34536 0.75337 0.0
H1634 H 0.09114 0.34856 0.70655 0.0
H1635 H 0.25667 0.33149 0.65842 0.0
H1636 H 0.31685 0.31429 0.67169 0.0
H1637 H 0.37942 0.2978 0.75578 0.0
H1638 H 0.37331 0.30496 0.80357 0.0
H1639 H 0.10277 0.29918 0.70907 0.0
H1640 H 0.14208 0.28718 0.78447 0.0
H1641 H 0.37963 0.34958 0.74341 0.0
H1642 H 0.25055 0.36727 0.77384 0.0
C1643 C 0.53497 0.45361 0.8189 0.0
C1644 C 0.55818 0.4466 0.83697 0.0
C1645 C 0.6016 0.44278 0.82626 0.0
C1646 C 0.60212 0.44733 0.80207 0.0
N1647 N 0.56219 0.45406 0.79682 0.0
Co1648 Co 0.54093 0.45931 0.76183 0.0
N1649 N 0.59768 0.45119 0.74463 0.0
C1650 C 0.6371 0.44631 0.75655 0.0
C1651 C 0.67294 0.44234 0.74007 0.0
C1652 C 0.65544 0.44491 0.71618 0.0
C1653 C 0.60929 0.45018 0.71941 0.0
N1654 N 0.5162 0.46376 0.72703 0.0
C1655 C 0.53172 0.46041 0.70346 0.0
C1656 C 0.49938 0.46431 0.68453 0.0
C1657 C 0.46343 0.47068 0.69646 0.0
C1658 C 0.47502 0.4701 0.72193 0.0
N1659 N 0.4863 0.46809 0.77901 0.0
C1660 C 0.45554 0.47583 0.76788 0.0
C1661 C 0.42495 0.48141 0.78486 0.0
C1662 C 0.43614 0.47672 0.80816 0.0
C1663 C 0.47209 0.46827 0.80387 0.0
N1664 N 0.58456 0.47357 0.76352 0.0
C1665 C 0.65196 0.49276 0.76144 0.0
C1666 C 0.60615 0.49295 0.74855 0.0
C1667 C 0.57358 0.48339 0.74971 0.0
C1668 C 0.6626 0.48288 0.77599 0.0
C1669 C 0.62855 0.4736 0.77707 0.0
N1670 N 0.49887 0.44506 0.76005 0.0
C1671 C 0.41818 0.4355 0.75948 0.0
C1672 C 0.44068 0.42453 0.76065 0.0
C1673 C 0.4927 0.42409 0.76117 0.0
C1674 C 0.52073 0.43432 0.76111 0.0
C1675 C 0.44778 0.44559 0.75883 0.0
H1676 H 0.56022 0.4333 0.76238 0.0
H1677 H 0.42883 0.45377 0.75757 0.0
H1678 H 0.53997 0.48416 0.73894 0.0
H1679 H 0.63908 0.46651 0.78896 0.0
C1680 C 0.63641 0.44443 0.78296 0.0
C1681 C 0.48699 0.45965 0.82303 0.0
C1682 C 0.57786 0.45406 0.69805 0.0
C1683 C 0.44992 0.47598 0.74138 0.0
H1684 H 0.5448 0.44402 0.85557 0.0
H1685 H 0.62809 0.43679 0.83458 0.0
H1686 H 0.70725 0.4379 0.74483 0.0
H1687 H 0.67458 0.44305 0.69844 0.0
H1688 H 0.50167 0.46286 0.66412 0.0
H1689 H 0.43276 0.47527 0.68759 0.0
H1690 H 0.39579 0.48761 0.78063 0.0
H1691 H 0.41774 0.47878 0.826 0.0
H1692 H 0.59577 0.50038 0.73705 0.0
H1693 H 0.69692 0.48236 0.78686 0.0
H1694 H 0.37796 0.43629 0.75888 0.0
H1695 H 0.51189 0.41585 0.7624 0.0
H1696 H 0.23746 0.075 0.11862 0.0
H1697 H 0.13182 0.07595 0.05627 0.0
H1698 H 0.0634 0.07522 0.08685 0.0
H1699 H 0.03488 0.07203 0.13144 0.0
H1700 H 0.13786 0.07943 0.19277 0.0
H1701 H 0.20684 0.0794 0.1623 0.0
C1702 C 0.20019 0.076 0.11125 0.0
C1703 C 0.19096 0.07549 0.08464 0.0
C1704 C 0.16034 0.07679 0.12895 0.0
C1705 C 0.14076 0.07601 0.07649 0.0
C1706 C 0.10129 0.07563 0.094 0.0
C1707 C 0.07143 0.0745 0.13827 0.0
C1708 C 0.08031 0.0757 0.16478 0.0
C1709 C 0.11064 0.07575 0.12037 0.0
C1710 C 0.12952 0.07819 0.17267 0.0
C1711 C 0.16919 0.07823 0.15521 0.0
H1712 H 0.14153 0.20359 0.1806 0.0
H1713 H 0.26606 0.21053 0.13071 0.0
H1714 H 0.21259 0.20823 0.09353 0.0
H1715 H 0.1287 0.20561 0.07484 0.0
H1716 H 1.0021 0.20823 0.12539 0.0
H1717 H 0.05657 0.20542 0.16225 0.0
C1718 C 0.15722 0.20457 0.1616 0.0
C1719 C 0.20934 0.20621 0.15882 0.0
C1720 C 0.12487 0.205 0.14021 0.0
C1721 C 0.2278 0.20798 0.13387 0.0
C1722 C 0.19659 0.20709 0.1124 0.0
C1723 C 0.11274 0.20565 0.09389 0.0
C1724 C 0.06034 0.20644 0.09684 0.0
C1725 C 0.1449 0.20567 0.11533 0.0
C1726 C 0.04132 0.20671 0.12198 0.0
C1727 C 0.07284 0.20542 0.14327 0.0
H1728 H 0.98131 0.95782 0.87213 0.0
H1729 H 0.87754 0.95531 0.80923 0.0
H1730 H 0.80816 0.95553 0.83936 0.0
H1731 H 0.77853 0.9593 0.88336 0.0
H1732 H 0.88127 0.95433 0.94601 0.0
H1733 H 0.95056 0.95391 0.91588 0.0
C1734 C 0.94434 0.95636 0.86466 0.0
C1735 C 0.93557 0.95654 0.83805 0.0
C1736 C 0.9043 0.95542 0.88213 0.0
C1737 C 0.88584 0.95542 0.82953 0.0
C1738 C 0.84591 0.95553 0.84676 0.0
C1739 C 0.81494 0.95717 0.89073 0.0
C1740 C 0.8237 0.95686 0.91735 0.0
C1741 C 0.85466 0.95586 0.87318 0.0
C1742 C 0.87301 0.95487 0.92574 0.0
C1743 C 0.9129 0.9546 0.9085 0.0
H1744 H 0.8312 0.80448 0.84593 0.0
H1745 H 0.81756 0.84153 0.83925 0.0
H1746 H 0.87412 0.84408 0.87579 0.0
H1747 H 0.92968 0.83567 0.90917 0.0
H1748 H 0.94998 0.79867 0.91223 0.0
H1749 H 0.89063 0.79618 0.877 0.0
C1750 C 0.84146 0.81312 0.85208 0.0
C1751 C 0.82117 0.82282 0.83933 0.0
C1752 C 0.87592 0.81451 0.8723 0.0
C1753 C 0.83298 0.83393 0.8485 0.0
C1754 C 0.86564 0.83538 0.86929 0.0
C1755 C 0.9217 0.82709 0.90177 0.0
C1756 C 0.94446 0.81735 0.91326 0.0
C1757 C 0.88794 0.82574 0.88116 0.0
C1758 C 0.93323 0.80628 0.90366 0.0
C1759 C 0.89902 0.80486 0.88362 0.0
H1760 H 0.18486 0.55581 0.59797 0.0
H1761 H 0.20183 0.59279 0.59099 0.0
H1762 H 0.14498 0.59568 0.62722 0.0
H1763 H 0.09016 0.58754 0.66137 0.0
H1764 H 0.0664 0.55066 0.66447 0.0
H1765 H 0.12395 0.54788 0.62866 0.0
C1766 C 0.17532 0.56452 0.60401 0.0
C1767 C 0.19713 0.57407 0.59146 0.0
C1768 C 0.14072 0.56612 0.62405 0.0
C1769 C 0.18554 0.58528 0.60022 0.0
C1770 C 0.15274 0.58693 0.62085 0.0
C1771 C 0.09704 0.57894 0.65386 0.0
C1772 C 0.07449 0.56929 0.66575 0.0
C1773 C 0.12986 0.57742 0.6329 0.0
C1774 C 0.08354 0.55819 0.65574 0.0
C1775 C 0.11672 0.5566 0.63538 0.0
H1776 H 0.09244 0.69581 0.59363 0.0
H1777 H 0.06404 0.7325 0.58984 0.0
H1778 H 0.11983 0.73579 0.62614 0.0
H1779 H 0.18022 0.7284 0.65759 0.0
H1780 H 0.20052 0.69159 0.66606 0.0
H1781 H 0.14688 0.68817 0.62869 0.0
C1782 C 0.09799 0.70448 0.60108 0.0
C1783 C 0.07467 0.71393 0.58882 0.0
C1784 C 0.12962 0.70629 0.62246 0.0
C1785 C 0.08188 0.72512 0.59879 0.0
C1786 C 0.11405 0.727 0.61945 0.0
C1787 C 0.1717 0.7196 0.65182 0.0
C1788 C 0.19321 0.71025 0.66524 0.0
C1789 C 0.13862 0.71769 0.63125 0.0
C1790 C 0.18405 0.69894 0.65633 0.0
C1791 C 0.15305 0.69699 0.63505 0.0
H1792 H 0.88024 0.45823 0.32076 0.0
H1793 H 0.00791 0.46284 0.36988 0.0
H1794 H 0.95503 0.46091 0.4074 0.0
H1795 H 0.87131 0.45918 0.42654 0.0
H1796 H 0.74323 0.46333 0.37743 0.0
H1797 H 0.79638 0.46073 0.33979 0.0
C1798 C 0.8967 0.45877 0.33967 0.0
C1799 C 0.94914 0.45968 0.34214 0.0
C1800 C 0.8652 0.45941 0.36128 0.0
C1801 C 0.96896 0.46087 0.36696 0.0
C1802 C 0.93822 0.46021 0.38861 0.0
C1803 C 0.8548 0.45972 0.40764 0.0
C1804 C 0.80259 0.46105 0.40509 0.0
C1805 C 0.8862 0.45958 0.386 0.0
C1806 C 0.78265 0.46176 0.38023 0.0
C1807 C 0.81323 0.46044 0.35863 0.0
H1808 H 0.84061 0.30477 0.34398 0.0
H1809 H 0.81905 0.3417 0.34013 0.0
H1810 H 0.87159 0.34424 0.37825 0.0
H1811 H 0.92518 0.33577 0.41261 0.0
H1812 H 0.95544 0.29912 0.41166 0.0
H1813 H 0.90058 0.29668 0.37467 0.0
C1814 C 0.84856 0.31342 0.35099 0.0
C1815 C 0.82712 0.32307 0.33871 0.0
C1816 C 0.88101 0.31484 0.37193 0.0
C1817 C 0.83561 0.33414 0.34902 0.0
C1818 C 0.86592 0.33559 0.37072 0.0
C1819 C 0.92013 0.3273 0.40401 0.0
C1820 C 0.94339 0.31758 0.41515 0.0
C1821 C 0.88927 0.32601 0.38224 0.0
C1822 C 0.93725 0.30668 0.40364 0.0
C1823 C 0.90572 0.30528 0.38258 0.0
H1824 H 0.64063 0.07838 0.57396 0.0
H1825 H 0.76327 0.07148 0.62512 0.0
H1826 H 0.70871 0.07444 0.66184 0.0
H1827 H 0.62445 0.07768 0.67961 0.0
H1828 H 0.49981 0.07448 0.62796 0.0
H1829 H 0.55522 0.07693 0.59158 0.0
C1830 C 0.65563 0.07748 0.59312 0.0
C1831 C 0.70731 0.07551 0.59646 0.0
C1832 C 0.6227 0.07749 0.61422 0.0
C1833 C 0.72502 0.07399 0.62163 0.0
C1834 C 0.69335 0.07537 0.64277 0.0
C1835 C 0.60913 0.07754 0.66041 0.0
C1836 C 0.55681 0.07693 0.65702 0.0
C1837 C 0.64194 0.07704 0.6393 0.0
C1838 C 0.53862 0.07627 0.63176 0.0
C1839 C 0.57082 0.07721 0.6107 0.0
H1840 H 0.62865 0.20635 0.57362 0.0
H1841 H 0.50021 0.21052 0.62231 0.0
H1842 H 0.5524 0.20819 0.66002 0.0
H1843 H 0.63605 0.20652 0.67971 0.0
H1844 H 0.76412 0.21114 0.63092 0.0
H1845 H 0.71212 0.20846 0.59326 0.0
C1846 C 0.61184 0.20667 0.59247 0.0
C1847 C 0.55934 0.20764 0.59466 0.0
C1848 C 0.64299 0.20692 0.61433 0.0
C1849 C 0.53919 0.20856 0.61949 0.0
C1850 C 0.56956 0.20764 0.64129 0.0
C1851 C 0.65283 0.20687 0.66084 0.0
C1852 C 0.70524 0.20808 0.65863 0.0
C1853 C 0.62166 0.2069 0.63898 0.0
C1854 C 0.7253 0.20902 0.63379 0.0
C1855 C 0.69501 0.20789 0.61201 0.0
H1856 H 0.28414 0.95744 0.38398 0.0
H1857 H 0.38705 0.95256 0.4466 0.0
H1858 H 0.4566 0.95248 0.41655 0.0
H1859 H 0.48753 0.95637 0.37268 0.0
H1860 H 0.38393 0.95301 0.30989 0.0
H1861 H 0.31438 0.95356 0.33992 0.0
C1862 C 0.32096 0.95551 0.39126 0.0
C1863 C 0.32965 0.95514 0.41788 0.0
C1864 C 0.36077 0.95425 0.37376 0.0
C1865 C 0.37895 0.95321 0.42634 0.0
C1866 C 0.41895 0.95312 0.40915 0.0
C1867 C 0.45045 0.95485 0.36531 0.0
C1868 C 0.4418 0.95472 0.33868 0.0
C1869 C 0.4104 0.95394 0.38277 0.0
C1870 C 0.39213 0.95344 0.33017 0.0
C1871 C 0.35211 0.95371 0.34735 0.0
H1872 H 0.49473 0.82341 0.38179 0.0
H1873 H 0.39193 0.82854 0.4443 0.0
H1874 H 0.32242 0.82846 0.41431 0.0
H1875 H 0.29106 0.82433 0.37082 0.0
H1876 H 0.39392 0.82623 0.30749 0.0
H1877 H 0.4638 0.82617 0.33743 0.0
C1878 C 0.45803 0.82535 0.38906 0.0
C1879 C 0.44954 0.82595 0.41573 0.0
C1880 C 0.41791 0.82626 0.37147 0.0
C1881 C 0.4001 0.82781 0.42406 0.0
C1882 C 0.36003 0.82777 0.40688 0.0
C1883 C 0.32799 0.82569 0.36318 0.0
C1884 C 0.33614 0.82546 0.33647 0.0
C1885 C 0.36833 0.82671 0.38052 0.0
C1886 C 0.38591 0.82626 0.32781 0.0
C1887 C 0.42616 0.82625 0.34496 0.0
H1888 H 0.67619 0.5868 0.0987 0.0
H1889 H 0.69103 0.54975 0.09239 0.0
H1890 H 0.63362 0.54705 0.12828 0.0
H1891 H 0.57596 0.55515 0.16023 0.0
H1892 H 0.56792 0.5921 0.17062 0.0
H1893 H 0.62358 0.59498 0.1338 0.0
C1894 C 0.66735 0.57816 0.10551 0.0
C1895 C 0.6875 0.56847 0.09271 0.0
C1896 C 0.63462 0.57667 0.12656 0.0
C1897 C 0.67583 0.55733 0.1018 0.0
C1898 C 0.64273 0.55578 0.12223 0.0
C1899 C 0.58745 0.56383 0.15493 0.0
C1900 C 0.56886 0.57339 0.16874 0.0
C1901 C 0.62143 0.56538 0.13458 0.0
C1902 C 0.58205 0.58459 0.16055 0.0
C1903 C 0.6142 0.58623 0.13959 0.0
H1904 H 0.63663 0.70495 0.18202 0.0
H1905 H 0.7626 0.70887 0.13148 0.0
H1906 H 0.70867 0.70623 0.09462 0.0
H1907 H 0.62418 0.70451 0.07621 0.0
H1908 H 0.49904 0.71056 0.12628 0.0
H1909 H 0.55249 0.70762 0.16345 0.0
C1910 C 0.65255 0.70519 0.16295 0.0
C1911 C 0.70495 0.70608 0.16004 0.0
C1912 C 0.62037 0.70553 0.14154 0.0
C1913 C 0.72387 0.70687 0.13494 0.0
C1914 C 0.69245 0.70581 0.1136 0.0
C1915 C 0.60835 0.70523 0.09523 0.0
C1916 C 0.55641 0.70704 0.09804 0.0
C1917 C 0.6405 0.70526 0.11664 0.0
C1918 C 0.53758 0.70822 0.12307 0.0
C1919 C 0.56863 0.70688 0.14451 0.0
H1920 H 0.38608 0.4565 0.82297 0.0
H1921 H 0.51063 0.45941 0.87478 0.0
H1922 H 0.45486 0.45659 0.91113 0.0
H1923 H 0.36944 0.45492 0.92858 0.0
H1924 H 0.24573 0.46048 0.87729 0.0
H1925 H 0.3012 0.4584 0.84061 0.0
C1926 C 0.40121 0.45652 0.84221 0.0
C1927 C 0.45332 0.45751 0.84578 0.0
C1928 C 0.36828 0.45645 0.86325 0.0
C1929 C 0.47158 0.45779 0.87103 0.0
C1930 C 0.43935 0.4565 0.89198 0.0
C1931 C 0.35447 0.45568 0.90937 0.0
C1932 C 0.30253 0.45717 0.90593 0.0
C1933 C 0.38748 0.45598 0.88835 0.0
C1934 C 0.28452 0.45846 0.88078 0.0
C1935 C 0.3166 0.45756 0.8597 0.0
H1936 H 0.33212 0.33648 0.84289 0.0
H1937 H 0.30623 0.2997 0.83845 0.0
H1938 H 0.36334 0.29643 0.87421 0.0
H1939 H 0.42415 0.30393 0.90529 0.0
H1940 H 0.43986 0.34079 0.91517 0.0
H1941 H 0.38543 0.34419 0.87814 0.0
C1942 C 0.3386 0.32779 0.85006 0.0
C1943 C 0.31617 0.3183 0.83763 0.0
C1944 C 0.37055 0.326 0.87122 0.0
C1945 C 0.32397 0.3071 0.84739 0.0
C1946 C 0.35676 0.30523 0.86775 0.0
C1947 C 0.41473 0.31271 0.89974 0.0
C1948 C 0.43538 0.32209 0.91331 0.0
C1949 C 0.38089 0.31459 0.87956 0.0
C1950 C 0.42432 0.33342 0.90513 0.0
C1951 C 0.39287 0.33536 0.88409 0.0
H1952 H 0.47671 0.03482 0.03361 0.0
H1953 H 0.40948 0.02639 0.96102 0.0
H1954 H 0.47175 1.01133 0.95394 0.0
H1955 H 0.54594 1.00032 0.96823 0.0
H1956 H 0.61297 1.00867 0.0409 0.0
H1957 H 0.5509 0.0238 0.04792 0.0
C1958 C 0.47534 0.02961 0.01638 0.0
C1959 C 0.43821 0.03186 0.99788 0.0
C1960 C 0.51177 0.02091 0.01227 0.0
C1961 C 0.43771 0.02502 0.97553 0.0
C1962 C 0.47343 0.01636 0.97143 0.0
C1963 C 0.54734 1.00554 0.98545 0.0
C1964 C 0.58437 1.00327 0.00397 0.0
C1965 C 0.51096 1.01425 0.98955 0.0
C1966 C 0.58488 1.01009 0.02634 0.0
C1967 C 0.54926 0.01879 0.03041 0.0
H1968 H 0.73765 0.2884 0.9999 0.0
H1969 H 0.613 0.26503 0.00809 0.0
H1970 H 0.67031 0.24876 0.0134 0.0
H1971 H 0.75624 0.24091 0.0148 0.0
H1972 H 0.88061 0.26441 0.00687 0.0
H1973 H 0.82326 0.28063 1.0019 0.0
C1974 C 0.72279 0.27975 0.00262 0.0
C1975 C 0.67052 0.27808 0.00354 0.0
C1976 C 0.75618 0.27033 0.0056 0.0
C1977 C 0.65268 0.26673 0.00758 0.0
C1978 C 0.68561 0.25735 0.01049 0.0
C1979 C 0.771 0.24958 0.01226 0.0
C1980 C 0.82328 0.25127 0.01107 0.0
C1981 C 0.73751 0.25902 0.00952 0.0
C1982 C 0.84096 0.26266 0.00742 0.0
C1983 C 0.80802 0.27202 0.00472 0.0
H1984 H 0.44878 0.25394 0.27917 0.0
H1985 H 0.46705 0.24739 0.19837 0.0
H1986 H 0.53275 0.26196 0.19638 0.0
H1987 H 0.58725 0.27632 0.21755 0.0
H1988 H 0.56972 0.28265 0.29844 0.0
H1989 H 0.50353 0.26818 0.30037 0.0
C1990 C 0.46724 0.25556 0.26108 0.0
C1991 C 0.45204 0.24941 0.23893 0.0
C1992 C 0.50607 0.26389 0.26008 0.0
C1993 C 0.47654 0.25199 0.21573 0.0
C1994 C 0.51479 0.2603 0.21459 0.0
C1995 C 0.56889 0.27463 0.23564 0.0
C1996 C 0.58432 0.28069 0.25784 0.0
C1997 C 0.53008 0.26629 0.23664 0.0
C1998 C 0.55992 0.2781 0.28105 0.0
C1999 C 0.52146 0.26985 0.28216 0.0
H2000 H 0.75395 0.99102 0.25649 0.0
H2001 H 0.62562 1.01345 0.25354 0.0
H2002 H 0.68 0.03034 0.24882 0.0
H2003 H 0.76414 0.03888 0.24583 0.0
H2004 H 0.89241 1.01624 0.2457 0.0
H2005 H 0.83829 0.99955 0.25176 0.0
C2006 C 0.73789 0.99961 0.25497 0.0
C2007 C 0.68549 1.00089 0.25546 0.0
C2008 C 0.76955 1.00935 0.25179 0.0
C2009 C 0.6656 1.01213 0.25309 0.0
C2010 C 0.69679 0.02183 0.25043 0.0
C2011 C 0.78059 0.03032 0.24675 0.0
C2012 C 0.8331 0.02907 0.2455 0.0
C2013 C 0.7489 0.02057 0.24966 0.0
C2014 C 0.8527 0.01774 0.24719 0.0
C2015 C 0.82155 1.00807 0.25046 0.0
H2016 H 0.28943 0.75249 0.03903 0.0
H2017 H 0.35125 0.75531 0.96295 0.0
H2018 H 0.29223 0.77065 0.95286 0.0
H2019 H 0.22108 0.78321 0.96496 0.0
H2020 H 0.15718 0.77973 0.04033 0.0
H2021 H 0.21749 0.76465 0.05076 0.0
C2022 C 0.28998 0.75631 0.0201 0.0
C2023 C 0.32591 0.7526 1.002 0.0
C2024 C 0.25479 0.76507 0.01404 0.0
C2025 C 0.32551 0.75799 0.97773 0.0
C2026 C 0.29113 0.76677 0.97175 0.0
C2027 C 0.22037 0.77919 0.98371 0.0
C2028 C 0.18389 0.78268 1.00169 0.0
C2029 C 0.25546 0.77039 0.9897 0.0
C2030 C 0.18384 0.7772 0.02582 0.0
C2031 C 0.21875 0.76858 0.03193 0.0
H2032 H 0.60368 0.77063 0.76937 0.0
H2033 H 0.51883 0.79694 0.73009 0.0
H2034 H 0.4489 0.78362 0.72556 0.0
H2035 H 0.41017 0.76437 0.73291 0.0
H2036 H 0.49497 0.73809 0.77231 0.0
H2037 H 0.56507 0.75139 0.77664 0.0
C2038 C 0.56982 0.7735 0.75998 0.0
C2039 C 0.56742 0.78486 0.74991 0.0
C2040 C 0.52904 0.76572 0.75739 0.0
C2041 C 0.5228 0.78825 0.73766 0.0
C2042 C 0.48234 0.78062 0.73513 0.0
C2043 C 0.44408 0.76151 0.74226 0.0
C2044 C 0.44645 0.75017 0.75245 0.0
C2045 C 0.48491 0.76928 0.74479 0.0
C2046 C 0.49111 0.74677 0.76464 0.0
C2047 C 0.53163 0.75439 0.76707 0.0
H2048 H 0.17822 1.00698 0.72146 0.0
H2049 H 0.2082 0.99942 0.80091 0.0
H2050 H 0.27279 1.0143 0.80152 0.0
H2051 H 0.32271 0.02926 0.77944 0.0
H2052 H 0.29269 0.0368 0.69999 0.0
H2053 H 0.22812 0.02193 0.6994 0.0
C2054 C 0.19901 1.00847 0.73893 0.0
C2055 C 0.18753 1.00194 0.76115 0.0
C2056 C 0.23696 0.01702 0.73912 0.0
C2057 C 0.21494 1.00431 0.78357 0.0
C2058 C 0.25248 1.0128 0.7839 0.0
C2059 C 0.30192 0.02777 0.76198 0.0
C2060 C 0.3134 0.03428 0.73974 0.0
C2061 C 0.26397 0.01921 0.76179 0.0
C2062 C 0.28597 0.03191 0.71733 0.0
C2063 C 0.24844 0.02342 0.71701 0.0
H2064 H 0.60925 0.51191 0.48702 0.0
H2065 H 0.50732 0.48455 0.50772 0.0
H2066 H 0.44106 0.49873 0.5144 0.0
H2067 H 0.41159 0.51909 0.51524 0.0
H2068 H 0.51346 0.5463 0.49307 0.0
H2069 H 0.57927 0.53213 0.48669 0.0
C2070 C 0.57266 0.50902 0.49312 0.0
C2071 C 0.56379 0.49706 0.49672 0.0
C2072 C 0.53423 0.51728 0.49691 0.0
C2073 C 0.51557 0.49361 0.50437 0.0
C2074 C 0.47747 0.50176 0.50837 0.0
C2075 C 0.44797 0.52196 0.50881 0.0
C2076 C 0.45698 0.53394 0.50516 0.0
C2077 C 0.48622 0.51365 0.50471 0.0
C2078 C 0.505 0.53729 0.49686 0.0
C2079 C 0.54295 0.52913 0.49293 0.0
H2080 H 0.67183 0.77012 0.48132 0.0
H2081 H 0.75484 0.79635 0.52176 0.0
H2082 H 0.82506 0.78311 0.5266 0.0
H2083 H 0.86428 0.76393 0.51925 0.0
H2084 H 0.78038 0.73763 0.4794 0.0
H2085 H 0.71052 0.7509 0.47448 0.0
C2086 C 0.70539 0.77297 0.49102 0.0
C2087 C 0.70741 0.78428 0.50124 0.0
C2088 C 0.74608 0.76522 0.49394 0.0
C2089 C 0.75147 0.7877 0.51395 0.0
C2090 C 0.79198 0.78011 0.5167 0.0
C2091 C 0.83062 0.76106 0.50967 0.0
C2092 C 0.82851 0.74974 0.49945 0.0
C2093 C 0.78981 0.7688 0.5069 0.0
C2094 C 0.78412 0.74631 0.48703 0.0
C2095 C 0.74372 0.75391 0.48427 0.0
H2096 H 0.77181 0.5404 0.75902 0.0
H2097 H 0.89461 0.51715 0.74396 0.0
H2098 H 0.83856 0.50064 0.74754 0.0
H2099 H 0.75378 0.49252 0.75403 0.0
H2100 H 0.63048 0.51587 0.76582 0.0
H2101 H 0.68718 0.53243 0.7637 0.0
C2102 C 0.78668 0.53178 0.75608 0.0
C2103 C 0.83835 0.53028 0.75132 0.0
C2104 C 0.75372 0.5222 0.75744 0.0
C2105 C 0.85581 0.51882 0.74821 0.0
C2106 C 0.82345 0.50927 0.75001 0.0
C2107 C 0.73932 0.50123 0.75626 0.0
C2108 C 0.68758 0.50286 0.76013 0.0
C2109 C 0.77228 0.51082 0.75462 0.0
C2110 C 0.66979 0.51428 0.76262 0.0
C2111 C 0.70236 0.52379 0.7615 0.0
H2112 H 0.15414 0.26796 0.48673 0.0
H2113 H 0.23908 0.29424 0.52607 0.0
H2114 H 0.30818 0.2808 0.5315 0.0
H2115 H 0.34605 0.26145 0.52504 0.0
H2116 H 0.2622 0.23529 0.48484 0.0
H2117 H 0.19242 0.24867 0.47983 0.0
C2118 C 0.18786 0.27079 0.49631 0.0
C2119 C 0.19048 0.28217 0.50622 0.0
C2120 C 0.22823 0.26296 0.49935 0.0
C2121 C 0.23492 0.28553 0.51867 0.0
C2122 C 0.2749 0.27783 0.52172 0.0
C2123 C 0.31236 0.25864 0.51539 0.0
C2124 C 0.3099 0.24732 0.50529 0.0
C2125 C 0.27204 0.26648 0.5123 0.0
C2126 C 0.26577 0.24395 0.4926 0.0
C2127 C 0.22557 0.25162 0.48974 0.0
H2128 H 0.15689 0.5132 0.27094 0.0
H2129 H 0.24618 0.48701 0.23418 0.0
H2130 H 0.31508 0.50071 0.22973 0.0
H2131 H 0.35102 0.52027 0.23634 0.0
H2132 H 0.26049 0.54657 0.27207 0.0
H2133 H 0.19221 0.53283 0.27681 0.0
C2134 C 0.19156 0.51047 0.26215 0.0
C2135 C 0.19594 0.49904 0.2529 0.0
C2136 C 0.23127 0.51848 0.25935 0.0
C2137 C 0.24125 0.49575 0.24129 0.0
C2138 C 0.2809 0.5036 0.23874 0.0
C2139 C 0.31624 0.52304 0.24494 0.0
C2140 C 0.31173 0.5345 0.25409 0.0
C2141 C 0.2764 0.51503 0.24757 0.0
C2142 C 0.266 0.5378 0.26529 0.0
C2143 C 0.22653 0.52993 0.26795 0.0
H2144 H 0.04979 1.00132 0.46996 0.0
H2145 H 0.11808 1.00591 0.54419 0.0
H2146 H 0.06194 0.0219 0.55313 0.0
H2147 H 0.99148 0.03459 0.54067 0.0
H2148 H 0.91898 0.02897 0.46812 0.0
H2149 H 0.97739 1.01335 0.45832 0.0
C2150 C 0.05238 1.00565 0.48828 0.0
C2151 C 0.0895 1.00226 0.50608 0.0
C2152 C 0.01853 1.01474 0.49383 0.0
C2153 C 0.09158 1.00833 0.52953 0.0
C2154 C 0.05882 0.01749 0.53491 0.0
C2155 C 0.98855 0.02997 0.52268 0.0
C2156 C 0.95055 0.03302 0.50521 0.0
C2157 C 0.02206 0.0208 0.51725 0.0
C2158 C 0.94729 0.0268 0.4821 0.0
C2159 C 0.98096 0.01786 0.4764 0.0
H2160 H 0.97274 0.25028 0.71325 0.0
H2161 H 0.91283 0.25689 0.78846 0.0
H2162 H 0.97453 0.27205 0.79528 0.0
H2163 H 0.04641 0.28366 0.78028 0.0
H2164 H 0.10474 0.27768 0.70461 0.0
H2165 H 0.04339 0.26231 0.69773 0.0
C2166 C 0.97273 0.25511 0.73103 0.0
C2167 C 0.93801 0.25219 0.75037 0.0
C2168 C 0.00859 0.26401 0.73491 0.0
C2169 C 0.93935 0.25863 0.77331 0.0
C2170 C 0.97472 0.2674 0.77727 0.0
C2171 C 0.04602 0.27893 0.76237 0.0
C2172 C 0.08061 0.28189 0.74306 0.0
C2173 C 0.00989 0.27013 0.75833 0.0
C2174 C 0.07866 0.27571 0.71982 0.0
C2175 C 0.04344 0.26687 0.71585 0.0
H2176 H 0.02042 0.78831 0.24205 0.0
H2177 H 0.12617 0.76865 0.2868 0.0
H2178 H 0.07092 0.75185 0.28529 0.0
H2179 H 0.99356 0.74237 0.27013 0.0
H2180 H 0.88932 0.76195 0.2244 0.0
H2181 H 0.94386 0.77886 0.22668 0.0
C2182 C 0.03202 0.78034 0.25129 0.0
C2183 C 0.07816 0.77993 0.26451 0.0
C2184 C 1.00037 0.77055 0.24991 0.0
C2185 C 0.09101 0.76947 0.27679 0.0
C2186 C 0.05947 0.75975 0.27573 0.0
C2187 C 0.98242 0.75034 0.26078 0.0
C2188 C 0.93692 0.75074 0.24702 0.0
C2189 C 0.01412 0.76015 0.26224 0.0
C2190 C 0.92409 0.7612 0.23479 0.0
C2191 C 0.95523 0.77096 0.23626 0.0
H2192 H 0.01954 0.49751 0.96505 0.0
H2193 H 0.09096 0.50328 0.03812 0.0
H2194 H 0.03279 0.51881 0.04731 0.0
H2195 H 0.96098 0.53097 0.03518 0.0
H2196 H 0.88572 0.52455 0.96369 0.0
H2197 H 0.94455 0.50896 0.954 0.0
C2198 C 0.02236 0.50201 0.98317 0.0
C2199 C 0.06114 0.49913 1.00051 0.0
C2200 C 0.9874 0.51087 0.98888 0.0
C2201 C 0.06331 0.50534 0.02376 0.0
C2202 C 0.02937 0.51423 0.02929 0.0
C2203 C 0.95737 0.52617 0.01745 0.0
C2204 C 0.91866 0.52904 1.00021 0.0
C2205 C 0.99136 0.51712 0.012 0.0
C2206 C 0.91454 0.52254 0.97751 0.0
C2207 C 0.94855 0.51364 0.97185 0.0
H2208 H 0.34832 0.10066 0.91043 0.0
H2209 H 0.34838 0.06351 0.91951 0.0
H2210 H 0.3808 0.06113 0.87641 0.0
H2211 H 0.40617 0.06941 0.83547 0.0
H2212 H 0.4171 0.10643 0.8268 0.0
H2213 H 0.38261 0.10912 0.87002 0.0
C2214 C 0.35598 0.09209 0.90295 0.0
C2215 C 0.34508 0.08228 0.91802 0.0
C2216 C 0.37615 0.09076 0.87814 0.0
C2217 C 0.3557 0.0712 0.90823 0.0
C2218 C 0.37423 0.06981 0.88354 0.0
C2219 C 0.40193 0.07807 0.84323 0.0
C2220 C 0.41473 0.08771 0.82814 0.0
C2221 C 0.38412 0.0795 0.86826 0.0
C2222 C 0.40779 0.09888 0.83818 0.0
C2223 C 0.38817 0.10041 0.86287 0.0
H2224 H 0.89267 0.18647 0.91762 0.0
H2225 H 0.89931 0.22364 0.92472 0.0
H2226 H 0.86884 0.22585 0.8809 0.0
H2227 H 0.84329 0.21726 0.83999 0.0
H2228 H 0.8293 0.18022 0.83324 0.0
H2229 H 0.86015 0.17784 0.87723 0.0
C2230 C 0.88668 0.19503 0.9096 0.0
C2231 C 0.8984 0.2049 0.92431 0.0
C2232 C 0.86831 0.19624 0.8844 0.0
C2233 C 0.89072 0.21594 0.91371 0.0
C2234 C 0.87342 0.21721 0.88866 0.0
C2235 C 0.84624 0.20868 0.84832 0.0
C2236 C 0.83357 0.19893 0.83351 0.0
C2237 C 0.86255 0.20743 0.87374 0.0
C2238 C 0.83859 0.18785 0.84434 0.0
C2239 C 0.85615 0.1865 0.86948 0.0
H2240 H 0.4271 0.1826 0.41168 0.0
H2241 H 0.41761 0.2196 0.42219 0.0
H2242 H 0.3883 0.22198 0.37843 0.0
H2243 H 0.36703 0.21377 0.33682 0.0
H2244 H 0.3645 0.17675 0.32675 0.0
H2245 H 0.39792 0.17411 0.37024 0.0
C2246 C 0.41817 0.19114 0.40435 0.0
C2247 C 0.42548 0.20093 0.42003 0.0
C2248 C 0.3997 0.19245 0.37915 0.0
C2249 C 0.41313 0.21195 0.41041 0.0
C2250 C 0.39639 0.21333 0.38536 0.0
C2251 C 0.3731 0.20511 0.34428 0.0
C2252 C 0.3627 0.19546 0.32875 0.0
C2253 C 0.38988 0.20368 0.36952 0.0
C2254 C 0.37196 0.1843 0.33844 0.0
C2255 C 0.39086 0.18281 0.36331 0.0
H2256 H 0.79619 0.08546 0.40635 0.0
H2257 H 0.94607 0.08242 0.43573 0.0
H2258 H 0.97938 0.08551 0.39286 0.0
H2259 H 0.96598 0.08699 0.34631 0.0
H2260 H 0.81871 0.07953 0.31737 0.0
H2261 H 0.78375 0.0827 0.35989 0.0
C2262 C 0.8362 0.08525 0.40345 0.0
C2263 C 0.86829 0.08394 0.42469 0.0
C2264 C 0.85526 0.08516 0.37833 0.0
C2265 C 0.92011 0.08387 0.42019 0.0
C2266 C 0.9393 0.08543 0.39552 0.0
C2267 C 0.92623 0.08589 0.34925 0.0
C2268 C 0.8952 0.08326 0.32822 0.0
C2269 C 0.90719 0.0858 0.37435 0.0
C2270 C 0.84366 0.08201 0.3327 0.0
C2271 C 0.82364 0.08359 0.35721 0.0
H2272 H 0.67244 0.93302 0.09155 0.0
H2273 H 0.65971 0.9699 0.07982 0.0
H2274 H 0.62945 0.97243 0.12324 0.0
H2275 H 0.60935 0.96442 0.16513 0.0
H2276 H 0.61414 0.92754 0.17728 0.0
H2277 H 0.64599 0.92471 0.13358 0.0
C2278 C 0.66239 0.94155 0.09854 0.0
C2279 C 0.66846 0.95126 0.08256 0.0
C2280 C 0.64448 0.94296 0.12374 0.0
C2281 C 0.65526 0.96229 0.09171 0.0
C2282 C 0.63828 0.96377 0.11663 0.0
C2283 C 0.61711 0.95576 0.1581 0.0
C2284 C 0.60952 0.9462 0.17424 0.0
C2285 C 0.63331 0.95421 0.13288 0.0
C2286 C 0.62001 0.93502 0.16511 0.0
C2287 C 0.63786 0.93341 0.14013 0.0
H2288 H 0.06378 0.83566 0.0965 0.0
H2289 H 0.20921 0.82878 0.06475 0.0
H2290 H 0.24711 0.83239 0.1067 0.0
H2291 H 0.23748 0.83527 0.15364 0.0
H2292 H 0.08935 0.83153 0.18501 0.0
H2293 H 0.05353 0.83435 0.14292 0.0
C2294 C 0.10374 0.83464 0.09869 0.0
C2295 C 0.13331 0.83186 0.07725 0.0
C2296 C 0.12453 0.83494 0.12334 0.0
C2297 C 0.18529 0.83106 0.08065 0.0
C2298 C 0.20696 0.83298 0.10476 0.0
C2299 C 0.19731 0.83503 0.1513 0.0
C2300 C 0.1665 0.8338 0.1731 0.0
C2301 C 0.17673 0.83459 0.12645 0.0
C2302 C 0.11448 0.83329 0.1693 0.0
C2303 C 0.09374 0.83459 0.14496 0.0
H2304 H 0.66226 0.82036 0.66515 0.0
H2305 H 0.66697 0.85739 0.67463 0.0
H2306 H 0.63372 0.85999 0.63105 0.0
H2307 H 0.60446 0.85142 0.5896 0.0
H2308 H 0.60961 0.8143 0.58042 0.0
H2309 H 0.63945 0.81204 0.62401 0.0
C2310 C 0.65633 0.82901 0.65759 0.0
C2311 C 0.66738 0.83867 0.67292 0.0
C2312 C 0.63964 0.8304 0.63237 0.0
C2313 C 0.65878 0.84983 0.6631 0.0
C2314 C 0.64011 0.8513 0.63816 0.0
C2315 C 0.61271 0.84289 0.59718 0.0
C2316 C 0.60444 0.83304 0.58183 0.0
C2317 C 0.6308 0.84163 0.62246 0.0
C2318 C 0.6155 0.82201 0.59179 0.0
C2319 C 0.6323 0.82069 0.61681 0.0
H2320 H 0.14513 0.93587 0.58914 0.0
H2321 H 0.15427 0.97301 0.58174 0.0
H2322 H 0.12336 0.97538 0.62542 0.0
H2323 H 0.09717 0.96692 0.66617 0.0
H2324 H 0.08006 0.92996 0.67329 0.0
H2325 H 0.11172 0.92737 0.62948 0.0
C2326 C 0.13942 0.94445 0.59707 0.0
C2327 C 0.15189 0.95427 0.58243 0.0
C2328 C 0.12102 0.94574 0.62216 0.0
C2329 C 0.14482 0.96536 0.59279 0.0
C2330 C 0.12744 0.96671 0.61774 0.0
C2331 C 0.09969 0.95831 0.65795 0.0
C2332 C 0.08578 0.94864 0.67267 0.0
C2333 C 0.116 0.95697 0.63266 0.0
C2334 C 0.0903 0.93751 0.66214 0.0
C2335 C 0.10819 0.93606 0.63713 0.0
H2336 H 0.43851 0.58887 0.42913 0.0
H2337 H 0.27994 0.59055 0.41552 0.0
H2338 H 0.29478 0.59149 0.3695 0.0
H2339 H 0.35334 0.58776 0.33397 0.0
H2340 H 0.51052 0.59326 0.34685 0.0
H2341 H 0.49574 0.59376 0.39304 0.0
C2342 C 0.40707 0.59016 0.41643 0.0
C2343 C 0.35797 0.58918 0.42589 0.0
C2344 C 0.41571 0.59171 0.38999 0.0
C2345 C 0.31809 0.59087 0.40872 0.0
C2346 C 0.32648 0.59138 0.38237 0.0
C2347 C 0.38428 0.58992 0.34638 0.0
C2348 C 0.43332 0.59023 0.33666 0.0
C2349 C 0.37523 0.59125 0.37275 0.0
C2350 C 0.4725 0.59274 0.35377 0.0
C2351 C 0.46414 0.59298 0.38023 0.0
H2352 H 0.85067 0.71328 0.33955 0.0
H2353 H 0.83602 0.67638 0.33034 0.0
H2354 H 0.86846 0.67335 0.37393 0.0
H2355 H 0.90342 0.6815 0.41458 0.0
H2356 H 0.91107 0.71865 0.42292 0.0
H2357 H 0.87723 0.72129 0.38038 0.0
C2358 C 0.85362 0.70458 0.34728 0.0
C2359 C 0.84034 0.69508 0.33198 0.0
C2360 C 0.87066 0.70296 0.37238 0.0
C2361 C 0.84566 0.68383 0.34194 0.0
C2362 C 0.8641 0.68211 0.36683 0.0
C2363 C 0.89677 0.69013 0.40714 0.0
C2364 C 0.9098 0.69985 0.42203 0.0
C2365 C 0.87689 0.69164 0.38228 0.0
C2366 C 0.90113 0.71101 0.41213 0.0
C2367 C 0.88213 0.71255 0.3876 0.0
H2368 H 0.3976 0.68588 0.91871 0.0
H2369 H 0.39861 0.72309 0.92554 0.0
H2370 H 0.37195 0.72503 0.88103 0.0
H2371 H 0.35002 0.71623 0.84005 0.0
H2372 H 0.33973 0.67913 0.83335 0.0
H2373 H 0.36985 0.67695 0.8776 0.0
C2374 C 0.39119 0.69437 0.91042 0.0
C2375 C 0.40005 0.70435 0.92522 0.0
C2376 C 0.37516 0.69541 0.8848 0.0
C2377 C 0.39193 0.71533 0.91441 0.0
C2378 C 0.37703 0.71643 0.88897 0.0
C2379 C 0.35415 0.70767 0.84836 0.0
C2380 C 0.34234 0.69785 0.83365 0.0
C2381 C 0.36898 0.70655 0.87396 0.0
C2382 C 0.34855 0.68679 0.84441 0.0
C2383 C 0.36537 0.68557 0.86971 0.0
H2384 H 0.84317 0.58651 0.83199 0.0
H2385 H 1.0009 0.58946 0.84697 0.0
H2386 H 0.98449 0.58984 0.89293 0.0
H2387 H 0.9248 0.58557 0.92824 0.0
H2388 H 0.76784 0.59029 0.91337 0.0
H2389 H 0.78441 0.59103 0.86746 0.0
C2390 C 0.87405 0.58796 0.84495 0.0
C2391 C 0.9235 0.58744 0.83582 0.0
C2392 C 0.86439 0.5893 0.87134 0.0
C2393 C 0.96252 0.58935 0.85344 0.0
C2394 C 0.95324 0.58957 0.87979 0.0
C2395 C 0.89428 0.58747 0.91533 0.0
C2396 C 0.84475 0.58734 0.9244 0.0
C2397 C 0.90424 0.589 0.88901 0.0
C2398 C 0.80619 0.58987 0.9069 0.0
C2399 C 0.81554 0.59029 0.88058 0.0
H2400 H 0.65077 0.43899 0.58736 0.0
H2401 H 0.63901 0.47578 0.57477 0.0
H2402 H 0.61129 0.47854 0.61898 0.0
H2403 H 0.59435 0.47058 0.66182 0.0
H2404 H 0.5977 0.43363 0.67353 0.0
H2405 H 0.62529 0.43079 0.62923 0.0
C2406 C 0.64067 0.44755 0.59414 0.0
C2407 C 0.64612 0.45716 0.57778 0.0
C2408 C 0.62423 0.44904 0.61953 0.0
C2409 C 0.6344 0.46826 0.58698 0.0
C2410 C 0.61896 0.46984 0.61228 0.0
C2411 C 0.60062 0.4619 0.65454 0.0
C2412 C 0.59432 0.45233 0.67093 0.0
C2413 C 0.61441 0.46032 0.62882 0.0
C2414 C 0.60282 0.44113 0.66133 0.0
C2415 C 0.61827 0.43951 0.63598 0.0
H2416 H 0.09319 0.3512 0.59038 0.0
H2417 H 0.10138 0.31403 0.58261 0.0
H2418 H 0.13443 0.31228 0.6256 0.0
H2419 H 0.15854 0.32101 0.66589 0.0
H2420 H 0.16097 0.35812 0.67397 0.0
H2421 H 0.12469 0.36026 0.63088 0.0
C2422 C 0.10294 0.34278 0.59811 0.0
C2423 C 0.0946 0.33275 0.58337 0.0
C2424 C 0.12283 0.34181 0.62305 0.0
C2425 C 0.10748 0.32187 0.59348 0.0
C2426 C 0.12602 0.32084 0.61819 0.0
C2427 C 0.15146 0.32958 0.65813 0.0
C2428 C 0.16262 0.3394 0.67286 0.0
C2429 C 0.13329 0.33071 0.63319 0.0
C2430 C 0.15264 0.35045 0.66284 0.0
C2431 C 0.13228 0.35165 0.6382 0.0
H2432 H 0.60483 0.3465 0.08799 0.0
H2433 H 0.60794 0.30927 0.08165 0.0
H2434 H 0.63821 0.30766 0.12561 0.0
H2435 H 0.66155 0.31672 0.16606 0.0
H2436 H 0.66784 0.35389 0.1721 0.0
H2437 H 0.63452 0.35574 0.12838 0.0
C2438 C 0.61307 0.33809 0.09622 0.0
C2439 C 0.60435 0.328 0.08177 0.0
C2440 C 0.63104 0.33723 0.12152 0.0
C2441 C 0.61465 0.31712 0.09252 0.0
C2442 C 0.63154 0.31619 0.11765 0.0
C2443 C 0.65585 0.32523 0.15771 0.0
C2444 C 0.66741 0.33516 0.17206 0.0
C2445 C 0.63931 0.32617 0.13237 0.0
C2446 C 0.6592 0.34614 0.16129 0.0
C2447 C 0.64058 0.34718 0.13629 0.0
H2448 H 0.08611 0.43376 0.15988 0.0
H2449 H 0.09421 0.47066 0.1721 0.0
H2450 H 0.12514 0.47351 0.1288 0.0
H2451 H 0.14727 0.46572 0.08682 0.0
H2452 H 0.14828 0.42882 0.07486 0.0
H2453 H 0.11574 0.42573 0.11828 0.0
C2454 C 0.09519 0.44238 0.15303 0.0
C2455 C 0.08732 0.45199 0.16908 0.0
C2456 C 0.11399 0.44397 0.12803 0.0
C2457 C 0.09958 0.46313 0.16009 0.0
C2458 C 0.11713 0.46478 0.13528 0.0
C2459 C 0.14074 0.457 0.09384 0.0
C2460 C 0.14984 0.44752 0.0777 0.0
C2461 C 0.12397 0.4553 0.119 0.0
C2462 C 0.14108 0.43625 0.08693 0.0
C2463 C 0.12274 0.43449 0.11177 0.0
H2464 H 0.04165 0.15063 0.02714 0.0
H2465 H 0.15371 0.16815 0.98188 0.0
H2466 H 0.2009 0.15022 0.97876 0.0
H2467 H 0.21058 0.12939 0.98824 0.0
H2468 H 0.09566 0.11155 0.03043 0.0
H2469 H 0.04866 0.12965 0.03437 0.0
C2470 C 0.07586 0.1506 0.01615 0.0
C2471 C 0.09363 0.16099 0.00492 0.0
C2472 C 0.10233 0.14009 0.0136 0.0
C2473 C 0.13905 0.16054 0.99135 0.0
C2474 C 0.16605 0.15019 0.98926 0.0
C2475 C 0.17519 0.12946 0.99828 0.0
C2476 C 0.15679 0.11909 0.00908 0.0
C2477 C 0.1481 0.13991 1.00028 0.0
C2478 C 0.11055 0.11934 0.02174 0.0
C2479 C 0.08382 0.12973 0.02414 0.0
H2480 H 0.12012 0.16381 0.25008 0.0
H2481 H 0.26818 0.14906 0.25127 0.0
H2482 H 0.23301 0.12969 0.25269 0.0
H2483 H 0.15996 0.1166 0.25171 0.0
H2484 H 0.0125 0.13151 0.25551 0.0
H2485 H 0.04785 0.15088 0.25452 0.0
C2486 C 0.145 0.15643 0.25108 0.0
C2487 C 0.19709 0.15814 0.24979 0.0
C2488 C 0.12455 0.14516 0.25272 0.0
C2489 C 0.228 0.14824 0.25111 0.0
C2490 C 0.20789 0.13704 0.25226 0.0
C2491 C 0.13548 0.12405 0.25274 0.0
C2492 C 0.08332 0.12241 0.25291 0.0
C2493 C 0.15615 0.13535 0.25272 0.0
C2494 C 0.05266 0.13233 0.25438 0.0
C2495 C 0.07287 0.14351 0.25402 0.0
H2496 H 0.86044 0.86931 0.00213 0.0
H2497 H 0.01121 0.88214 1.00147 0.0
H2498 H 0.98047 0.90215 0.99978 0.0
H2499 H 0.91009 0.91603 0.9971 0.0
H2500 H 0.75952 0.90284 0.00236 0.0
H2501 H 0.79072 0.88316 0.00332 0.0
C2502 C 0.88647 0.87651 1.00165 0.0
C2503 C 0.93798 0.87425 1.00174 0.0
C2504 C 0.86851 0.888 1.00127 0.0
C2505 C 0.97134 0.88366 1.00145 0.0
C2506 C 0.95375 0.89511 1.00042 0.0
C2507 C 0.88399 0.9089 0.99877 0.0
C2508 C 0.83215 0.91114 0.9988 0.0
C2509 C 0.90229 0.89741 1.0002 0.0
C2510 C 0.79944 0.90159 1.00113 0.0
C2511 C 0.81726 0.89023 1.002 0.0
H2512 H 0.80218 0.88136 0.78425 0.0
H2513 H 0.89961 0.86634 0.72715 0.0
H2514 H 0.94357 0.88459 0.72341 0.0
H2515 H 0.95512 0.90506 0.7358 0.0
H2516 H 0.85227 0.92074 0.78874 0.0
H2517 H 0.80868 0.90217 0.79364 0.0
C2518 C 0.83226 0.88197 0.77053 0.0
C2519 C 0.84719 0.87207 0.75637 0.0
C2520 C 0.85643 0.89278 0.76741 0.0
C2521 C 0.88745 0.87341 0.73917 0.0
C2522 C 0.91256 0.884 0.73665 0.0
C2523 C 0.92289 0.90442 0.74826 0.0
C2524 C 0.90701 0.91428 0.76192 0.0
C2525 C 0.8975 0.89374 0.75066 0.0
C2526 C 0.86502 0.91332 0.77786 0.0
C2527 C 0.84031 0.90267 0.78079 0.0
H2528 H 0.09595 0.65743 0.47233 0.0
H2529 H 0.09234 0.66103 0.55436 0.0
H2530 H 0.13065 0.64193 0.55932 0.0
H2531 H 0.16553 0.6242 0.54051 0.0
H2532 H 0.16692 0.61998 0.45858 0.0
H2533 H 0.12828 0.63909 0.45339 0.0
C2534 C 0.1039 0.65402 0.49124 0.0
C2535 C 0.09176 0.66069 0.51298 0.0
C2536 C 0.125 0.64285 0.49396 0.0
C2537 C 0.10147 0.65609 0.53737 0.0
C2538 C 0.12328 0.64516 0.54021 0.0
C2539 C 0.15736 0.62744 0.52149 0.0
C2540 C 0.16944 0.62062 0.49996 0.0
C2541 C 0.13518 0.63845 0.51867 0.0
C2542 C 0.15773 0.62494 0.4755 0.0
C2543 C 0.136 0.63594 0.47252 0.0
H2544 H 0.22942 0.65279 0.75595 0.0
H2545 H 0.09073 0.67112 0.74457 0.0
H2546 H 0.04501 0.65294 0.74726 0.0
H2547 H 0.04366 0.63183 0.752 0.0
H2548 H 0.18215 0.61312 0.76003 0.0
H2549 H 0.22809 0.63142 0.7598 0.0
C2550 C 0.18923 0.65285 0.75377 0.0
C2551 C 0.16394 0.6635 0.75013 0.0
C2552 C 0.16283 0.64224 0.75487 0.0
C2553 C 0.1116 0.66323 0.74786 0.0
C2554 C 0.08524 0.65277 0.74921 0.0
C2555 C 0.08397 0.63165 0.75338 0.0
C2556 C 0.10906 0.62093 0.75582 0.0
C2557 C 0.11041 0.64222 0.75259 0.0
C2558 C 0.16135 0.62112 0.7584 0.0
C2559 C 0.18784 0.63163 0.75803 0.0
H2560 H 0.84151 0.40561 0.53013 0.0
H2561 H 0.8506 0.41107 0.44835 0.0
H2562 H 0.88836 0.39216 0.44315 0.0
H2563 H 0.91866 0.37374 0.4613 0.0
H2564 H 0.90212 0.36735 0.54209 0.0
H2565 H 0.86605 0.38667 0.54785 0.0
C2566 C 0.85093 0.40271 0.51104 0.0
C2567 C 0.8436 0.41016 0.48982 0.0
C2568 C 0.8711 0.39148 0.50786 0.0
C2569 C 0.85704 0.40596 0.46539 0.0
C2570 C 0.87822 0.39498 0.46223 0.0
C2571 C 0.90704 0.37658 0.48016 0.0
C2572 C 0.91322 0.36909 0.50124 0.0
C2573 C 0.88557 0.38766 0.48329 0.0
C2574 C 0.89746 0.37288 0.5255 0.0
C2575 C 0.87707 0.38397 0.52882 0.0
H2576 H 0.78475 0.38173 0.25769 0.0
H2577 H 0.92439 0.36302 0.256 0.0
H2578 H 0.96974 0.3812 0.25445 0.0
H2579 H 0.97088 0.40237 0.25382 0.0
H2580 H 0.83248 0.42127 0.26107 0.0
H2581 H 0.7863 0.40309 0.26 0.0
C2582 C 0.82511 0.38152 0.25738 0.0
C2583 C 0.85046 0.37075 0.25669 0.0
C2584 C 0.85162 0.39213 0.25735 0.0
C2585 C 0.90304 0.37097 0.25582 0.0
C2586 C 0.92937 0.38144 0.2552 0.0
C2587 C 0.93069 0.40265 0.25571 0.0
C2588 C 0.90583 0.41344 0.25761 0.0
C2589 C 0.90413 0.39208 0.256 0.0
C2590 C 0.85331 0.41329 0.25913 0.0
C2591 C 0.82662 0.40282 0.25877 0.0
H2592 H 0.73267 0.13268 0.5067 0.0
H2593 H 0.59713 0.11257 0.50078 0.0
H2594 H 0.5485 0.13039 0.49911 0.0
H2595 H 0.54375 0.15166 0.50077 0.0
H2596 H 0.67876 0.17151 0.51218 0.0
H2597 H 0.72766 0.15379 0.51032 0.0
C2598 C 0.69243 0.13206 0.50549 0.0
C2599 C 0.66912 0.12107 0.50406 0.0
C2600 C 0.66426 0.14238 0.50549 0.0
C2601 C 0.6168 0.12075 0.50157 0.0
C2602 C 0.58869 0.131 0.50087 0.0
C2603 C 0.58377 0.15221 0.50329 0.0
C2604 C 0.60695 0.16314 0.50664 0.0
C2605 C 0.61195 0.14187 0.5031 0.0
C2606 C 0.65929 0.16342 0.50908 0.0
C2607 C 0.68752 0.15321 0.50826 0.0
H2608 H 0.54431 0.13169 0.76248 0.0
H2609 H 0.65318 0.11464 0.71501 0.0
H2610 H 0.70006 0.13277 0.71109 0.0
H2611 H 0.70865 0.15354 0.71998 0.0
H2612 H 0.60438 0.17013 0.7714 0.0
H2613 H 0.5566 0.15229 0.774 0.0
C2614 C 0.57843 0.13195 0.75135 0.0
C2615 C 0.59513 0.12179 0.73901 0.0
C2616 C 0.60571 0.1424 0.74951 0.0
C2617 C 0.63965 0.12227 0.72486 0.0
C2618 C 0.66631 0.13268 0.72249 0.0
C2619 C 0.67617 0.15335 0.73226 0.0
C2620 C 0.66077 0.16351 0.74531 0.0
C2621 C 0.64962 0.14282 0.73466 0.0
C2622 C 0.61727 0.16278 0.76045 0.0
C2623 C 0.58992 0.15245 0.76227 0.0
H2624 H 0.38038 0.91115 0.46798 0.0
H2625 H 0.30084 0.90503 0.53823 0.0
H2626 H 0.33588 0.88544 0.54091 0.0
H2627 H 0.3897 0.86994 0.52314 0.0
H2628 H 0.46467 0.87586 0.45123 0.0
H2629 H 0.43102 0.89542 0.44932 0.0
C2630 C 0.37128 0.90554 0.48399 0.0
C2631 C 0.33882 0.90958 0.50312 0.0
C2632 C 0.39055 0.89416 0.48502 0.0
C2633 C 0.3263 0.90215 0.52346 0.0
C2634 C 0.34612 0.89092 0.5249 0.0
C2635 C 0.39817 0.87544 0.50689 0.0
C2636 C 0.43048 0.87137 0.48757 0.0
C2637 C 0.37817 0.88678 0.50572 0.0
C2638 C 0.44096 0.87875 0.46673 0.0
C2639 C 0.42155 0.88998 0.46553 0.0
H2640 H 0.46979 0.90049 0.23375 0.0
H2641 H 0.37211 0.91554 0.29014 0.0
H2642 H 0.32889 0.89699 0.29498 0.0
H2643 H 0.32025 0.87655 0.28414 0.0
H2644 H 0.41072 0.86184 0.22388 0.0
H2645 H 0.45676 0.88001 0.22059 0.0
C2646 C 0.43884 0.89969 0.24698 0.0
C2647 C 0.42411 0.90941 0.26155 0.0
C2648 C 0.41343 0.889 0.24932 0.0
C2649 C 0.38384 0.90826 0.27854 0.0
C2650 C 0.35936 0.89762 0.28143 0.0
C2651 C 0.34904 0.87724 0.26971 0.0
C2652 C 0.36099 0.86759 0.25412 0.0
C2653 C 0.37387 0.88793 0.26695 0.0
C2654 C 0.40048 0.86886 0.23651 0.0
C2655 C 0.42667 0.87937 0.23436 0.0
H2656 H 0.64652 0.6644 0.00992 0.0
H2657 H 0.5 0.65144 0.99092 0.0
H2658 H 0.53265 0.63184 0.98827 0.0
H2659 H 0.60208 0.61797 0.99361 0.0
H2660 H 0.74975 0.63123 0.00868 0.0
H2661 H 0.71741 0.65089 0.01013 0.0
C2662 C 0.62168 0.65737 0.00477 0.0
C2663 C 0.57036 0.65956 1.00135 0.0
C2664 C 0.6409 0.646 0.00266 0.0
C2665 C 0.53929 0.65014 0.99467 0.0
C2666 C 0.55803 0.63885 0.99287 0.0
C2667 C 0.62739 0.62515 0.9968 0.0
C2668 C 0.67822 0.62294 1.00173 0.0
C2669 C 0.60867 0.63661 0.99724 0.0
C2670 C 0.71016 0.6325 0.00571 0.0
C2671 C 0.69177 0.64383 0.00638 0.0
H2672 H 0.71554 0.6523 0.27037 0.0
H2673 H 0.61601 0.66722 0.21466 0.0
H2674 H 0.57225 0.64867 0.21065 0.0
H2675 H 0.56424 0.62822 0.22184 0.0
H2676 H 0.65662 0.61384 0.2819 0.0
H2677 H 0.70243 0.63198 0.28437 0.0
C2678 C 0.68401 0.65147 0.25751 0.0
C2679 C 0.66896 0.66112 0.24282 0.0
C2680 C 0.65832 0.64082 0.2557 0.0
C2681 C 0.62799 0.65996 0.2263 0.0
C2682 C 0.60321 0.64933 0.2239 0.0
C2683 C 0.59338 0.62897 0.23606 0.0
C2684 C 0.6061 0.61936 0.25167 0.0
C2685 C 0.61816 0.63969 0.23844 0.0
C2686 C 0.64587 0.62076 0.26909 0.0
C2687 C 0.67199 0.63127 0.27082 0.0
H2688 H 0.29335 0.40165 0.01617 0.0
H2689 H 0.39689 0.41757 0.96376 0.0
H2690 H 0.44384 0.39942 0.96097 0.0
H2691 H 0.45374 0.37884 0.97227 0.0
H2692 H 0.35385 0.36348 0.02772 0.0
H2693 H 0.30671 0.38141 0.02972 0.0
C2694 C 0.32626 0.40114 0.00417 0.0
C2695 C 0.34145 0.41097 0.99013 0.0
C2696 C 0.35345 0.3907 0.00289 0.0
C2697 C 0.38454 0.41019 0.97491 0.0
C2698 C 0.41124 0.39977 0.9732 0.0
C2699 C 0.42226 0.37937 0.98518 0.0
C2700 C 0.40764 0.36953 0.99957 0.0
C2701 C 0.39592 0.38994 0.98701 0.0
C2702 C 0.36578 0.37061 0.01575 0.0
C2703 C 0.33886 0.38098 0.01719 0.0
H2704 H 0.45249 0.40472 0.73271 0.0
H2705 H 0.36213 0.41962 0.79237 0.0
H2706 H 0.31767 0.40119 0.79741 0.0
H2707 H 0.30674 0.38062 0.78599 0.0
H2708 H 0.39248 0.36643 0.72329 0.0
H2709 H 0.43712 0.3846 0.71911 0.0
C2710 C 0.42292 0.40395 0.74676 0.0
C2711 C 0.41083 0.41357 0.76219 0.0
C2712 C 0.3971 0.39334 0.74937 0.0
C2713 C 0.37201 0.41242 0.7801 0.0
C2714 C 0.34678 0.40183 0.7831 0.0
C2715 C 0.33452 0.38144 0.77108 0.0
C2716 C 0.34612 0.3718 0.75535 0.0
C2717 C 0.35921 0.39219 0.76795 0.0
C2718 C 0.3832 0.37332 0.73645 0.0
C2719 C 0.40862 0.38386 0.73372 0.0
loop_
_geom_bond_atom_site_label_1
_geom_bond_atom_site_label_2
_geom_bond_distance
_geom_bond_site_symmetry_2
_ccdc_geom_bond_type
C0 C1 1.443 . S
C0 N4 1.376 . S
C0 C38 1.389 . S
C1 C0 1.443 . S
C1 C2 1.340 . S
C1 H41 0.951 . S
C2 C1 1.340 . S
C2 C3 1.439 . S
C2 H42 0.950 . S
C3 C2 1.439 . S
C3 N4 1.374 . S
C3 C37 1.395 1_554 S
N4 C0 1.376 . S
N4 C3 1.374 . S
N4 Co5 2.008 . S
Co5 N4 2.008 . S
Co5 N6 1.995 1_554 S
Co5 N11 2.008 1_554 S
Co5 N16 1.995 . S
Co5 N21 2.282 . S
Co5 N27 2.282 . S
N6 Co5 1.995 1_556 S
N6 C7 1.376 . S
N6 C10 1.383 . S
C7 N6 1.376 . S
C7 C8 1.446 . S
C7 C37 1.391 . S
C8 C7 1.446 . S
C8 C9 1.339 . S
C8 H43 0.949 . S
C9 C8 1.339 . S
C9 C10 1.439 . S
C9 H44 0.950 . S
C10 N6 1.383 . S
C10 C9 1.439 . S
C10 C39 1.392 . S
N11 Co5 2.008 1_556 S
N11 C12 1.376 . S
N11 C15 1.374 1_556 S
C12 N11 1.376 . S
C12 C13 1.443 . S
C12 C39 1.389 . S
C13 C12 1.443 . S
C13 C14 1.340 . S
C13 H45 0.951 . S
C14 C13 1.340 . S
C14 C15 1.439 1_556 S
C14 H46 0.950 . S
C15 N11 1.374 1_554 S
C15 C14 1.439 1_554 S
C15 C40 1.395 . S
N16 Co5 1.995 . S
N16 C17 1.376 . S
N16 C20 1.383 . S
C17 N16 1.376 . S
C17 C18 1.446 . S
C17 C40 1.391 . S
C18 C17 1.446 . S
C18 C19 1.339 . S
C18 H47 0.949 . S
C19 C18 1.339 . S
C19 C20 1.439 . S
C19 H48 0.950 . S
C20 N16 1.383 . S
C20 C19 1.439 . S
C20 C38 1.392 . S
N21 Co5 2.282 . S
N21 C24 1.332 . S
N21 C26 1.332 1_554 S
C22 C23 1.386 . S
C22 C25 1.388 1_554 S
C23 C22 1.386 . S
C23 C24 1.382 . S
C23 H49 0.950 . S
C24 N21 1.332 . S
C24 C23 1.382 . S
C24 H35 0.952 . S
C25 C22 1.388 1_556 S
C25 C26 1.382 . S
C25 H50 0.950 . S
C26 N21 1.332 1_556 S
C26 C25 1.382 . S
C26 H36 0.948 . S
N27 Co5 2.282 . S
N27 C31 1.332 1_554 S
N27 C32 1.332 . S
C28 C29 1.388 . S
C28 C32 1.382 . S
C28 H51 0.950 . S
C29 C28 1.388 . S
C29 C30 1.386 1_554 S
C30 C29 1.386 1_556 S
C30 C31 1.382 . S
C30 H52 0.950 . S
C31 N27 1.332 1_556 S
C31 C30 1.382 . S
C31 H33 0.952 . S
C32 N27 1.332 . S
C32 C28 1.382 . S
C32 H34 0.948 . S
H33 C31 0.952 . S
H34 C32 0.948 . S
H35 C24 0.952 . S
H36 C26 0.948 . S
C37 C3 1.395 1_556 S
C37 C7 1.391 . S
C38 C0 1.389 . S
C38 C20 1.392 . S
C39 C10 1.392 . S
C39 C12 1.389 . S
C40 C15 1.395 . S
C40 C17 1.391 . S
H41 C1 0.951 . S
H42 C2 0.950 . S
H43 C8 0.949 . S
H44 C9 0.950 . S
H45 C13 0.951 . S
H46 C14 0.950 . S
H47 C18 0.949 . S
H48 C19 0.950 . S
H49 C23 0.950 . S
H50 C25 0.950 . S
H51 C28 0.950 . S
H52 C30 0.950 . S
C53 C54 1.443 . S
C53 N57 1.376 . S
C53 C91 1.389 . S
C54 C53 1.443 . S
C54 C55 1.340 . S
C54 H94 0.951 . S
C55 C54 1.340 . S
C55 C56 1.439 . S
C55 H95 0.950 . S
C56 C55 1.439 . S
C56 N57 1.374 . S
C56 C90 1.395 1_554 S
N57 C53 1.376 . S
N57 C56 1.374 . S
N57 Co58 2.008 1_455 S
Co58 N57 2.008 1_655 S
Co58 N59 1.995 1_554 S
Co58 N64 2.008 1_554 S
Co58 N69 1.995 . S
Co58 N74 2.282 . S
Co58 N80 2.282 1_655 S
N59 Co58 1.995 1_556 S
N59 C60 1.376 1_655 S
N59 C63 1.383 . S
C60 N59 1.376 1_455 S
C60 C61 1.446 . S
C60 C90 1.391 . S
C61 C60 1.446 . S
C61 C62 1.339 1_455 S
C61 H96 0.949 . S
C62 C61 1.339 1_655 S
C62 C63 1.439 . S
C62 H97 0.950 . S
C63 N59 1.383 . S
C63 C62 1.439 . S
C63 C92 1.392 . S
N64 Co58 2.008 1_556 S
N64 C65 1.376 . S
N64 C68 1.374 1_556 S
C65 N64 1.376 . S
C65 C66 1.443 . S
C65 C92 1.389 . S
C66 C65 1.443 . S
C66 C67 1.340 . S
C66 H98 0.951 . S
C67 C66 1.340 . S
C67 C68 1.439 1_556 S
C67 H99 0.950 . S
C68 N64 1.374 1_554 S
C68 C67 1.439 1_554 S
C68 C93 1.395 . S
N69 Co58 1.995 . S
N69 C70 1.376 . S
N69 C73 1.383 . S
C70 N69 1.376 . S
C70 C71 1.446 . S
C70 C93 1.391 . S
C71 C70 1.446 . S
C71 C72 1.339 . S
C71 H100 0.949 . S
C72 C71 1.339 . S
C72 C73 1.439 . S
C72 H101 0.950 . S
C73 N69 1.383 . S
C73 C72 1.439 . S
C73 C91 1.392 1_655 S
N74 Co58 2.282 . S
N74 C77 1.332 . S
N74 C79 1.332 1_554 S
C75 C76 1.386 . S
C75 C78 1.388 1_554 S
C76 C75 1.386 . S
C76 C77 1.382 . S
C76 H102 0.950 . S
C77 N74 1.332 . S
C77 C76 1.382 . S
C77 H88 0.952 . S
C78 C75 1.388 1_556 S
C78 C79 1.382 . S
C78 H103 0.950 . S
C79 N74 1.332 1_556 S
C79 C78 1.382 . S
C79 H89 0.948 . S
N80 Co58 2.282 1_455 S
N80 C84 1.332 1_554 S
N80 C85 1.332 . S
C81 C82 1.388 . S
C81 C85 1.382 . S
C81 H104 0.950 . S
C82 C81 1.388 . S
C82 C83 1.386 1_554 S
C83 C82 1.386 1_556 S
C83 C84 1.382 . S
C83 H105 0.950 . S
C84 N80 1.332 1_556 S
C84 C83 1.382 . S
C84 H86 0.952 . S
C85 N80 1.332 . S
C85 C81 1.382 . S
C85 H87 0.948 1_455 S
H86 C84 0.952 . S
H87 C85 0.948 1_655 S
H88 C77 0.952 . S
H89 C79 0.948 . S
C90 C56 1.395 1_556 S
C90 C60 1.391 . S
C91 C53 1.389 . S
C91 C73 1.392 1_455 S
C92 C63 1.392 . S
C92 C65 1.389 . S
C93 C68 1.395 . S
C93 C70 1.391 . S
H94 C54 0.951 . S
H95 C55 0.950 . S
H96 C61 0.949 . S
H97 C62 0.950 . S
H98 C66 0.951 . S
H99 C67 0.950 . S
H100 C71 0.949 . S
H101 C72 0.950 . S
H102 C76 0.950 . S
H103 C78 0.950 . S
H104 C81 0.950 . S
H105 C83 0.950 . S
C106 C107 1.443 . S
C106 N110 1.376 . S
C106 C144 1.389 . S
C107 C106 1.443 . S
C107 C108 1.340 . S
C107 H147 0.951 . S
C108 C107 1.340 . S
C108 C109 1.439 . S
C108 H148 0.950 . S
C109 C108 1.439 . S
C109 N110 1.374 . S
C109 C143 1.395 . S
N110 C106 1.376 . S
N110 C109 1.374 . S
N110 Co111 2.008 . S
Co111 N110 2.008 . S
Co111 N112 1.995 . S
Co111 N117 2.008 . S
Co111 N122 1.995 . S
Co111 N127 2.282 . S
Co111 N133 2.282 . S
N112 Co111 1.995 . S
N112 C113 1.376 . S
N112 C116 1.383 . S
C113 N112 1.376 . S
C113 C114 1.446 . S
C113 C143 1.391 . S
C114 C113 1.446 . S
C114 C115 1.339 . S
C114 H149 0.949 . S
C115 C114 1.339 . S
C115 C116 1.439 . S
C115 H150 0.950 . S
C116 N112 1.383 . S
C116 C115 1.439 . S
C116 C145 1.392 . S
N117 Co111 2.008 . S
N117 C118 1.376 . S
N117 C121 1.374 . S
C118 N117 1.376 . S
C118 C119 1.443 . S
C118 C145 1.389 . S
C119 C118 1.443 . S
C119 C120 1.340 . S
C119 H151 0.951 . S
C120 C119 1.340 . S
C120 C121 1.439 . S
C120 H152 0.950 . S
C121 N117 1.374 . S
C121 C120 1.439 . S
C121 C146 1.395 . S
N122 Co111 1.995 . S
N122 C123 1.376 . S
N122 C126 1.383 . S
C123 N122 1.376 . S
C123 C124 1.446 . S
C123 C146 1.391 . S
C124 C123 1.446 . S
C124 C125 1.339 . S
C124 H153 0.949 . S
C125 C124 1.339 . S
C125 C126 1.439 . S
C125 H154 0.950 . S
C126 N122 1.383 . S
C126 C125 1.439 . S
C126 C144 1.392 . S
N127 Co111 2.282 . S
N127 C130 1.332 . S
N127 C132 1.332 . S
C128 C129 1.386 . S
C128 C131 1.388 . S
C129 C128 1.386 . S
C129 C130 1.382 . S
C129 H155 0.950 . S
C130 N127 1.332 . S
C130 C129 1.382 . S
C130 H141 0.952 . S
C131 C128 1.388 . S
C131 C132 1.382 . S
C131 H156 0.950 . S
C132 N127 1.332 . S
C132 C131 1.382 . S
C132 H142 0.948 . S
N133 Co111 2.282 . S
N133 C137 1.332 . S
N133 C138 1.332 . S
C134 C135 1.388 . S
C134 C138 1.382 . S
C134 H157 0.950 . S
C135 C134 1.388 . S
C135 C136 1.386 . S
C136 C135 1.386 . S
C136 C137 1.382 . S
C136 H158 0.950 . S
C137 N133 1.332 . S
C137 C136 1.382 . S
C137 H139 0.952 . S
C138 N133 1.332 . S
C138 C134 1.382 . S
C138 H140 0.948 . S
H139 C137 0.952 . S
H140 C138 0.948 . S
H141 C130 0.952 . S
H142 C132 0.948 . S
C143 C109 1.395 . S
C143 C113 1.391 . S
C144 C106 1.389 . S
C144 C126 1.392 . S
C145 C116 1.392 . S
C145 C118 1.389 . S
C146 C121 1.395 . S
C146 C123 1.391 . S
H147 C107 0.951 . S
H148 C108 0.950 . S
H149 C114 0.949 . S
H150 C115 0.950 . S
H151 C119 0.951 . S
H152 C120 0.950 . S
H153 C124 0.949 . S
H154 C125 0.950 . S
H155 C129 0.950 . S
H156 C131 0.950 . S
H157 C134 0.950 . S
H158 C136 0.950 . S
C159 C160 1.443 . S
C159 N163 1.376 . S
C159 C197 1.389 . S
C160 C159 1.443 . S
C160 C161 1.340 . S
C160 H200 0.951 . S
C161 C160 1.340 . S
C161 C162 1.439 . S
C161 H201 0.950 . S
C162 C161 1.439 . S
C162 N163 1.374 . S
C162 C196 1.395 . S
N163 C159 1.376 . S
N163 C162 1.374 . S
N163 Co164 2.008 1_455 S
Co164 N163 2.008 1_655 S
Co164 N165 2.000 . S
Co164 N170 2.008 . S
Co164 N175 1.995 . S
Co164 N180 2.282 . S
Co164 N186 2.282 1_655 S
N165 Co164 2.000 . S
N165 C166 1.358 1_655 S
N165 C169 1.395 . S
C166 N165 1.358 1_455 S
C166 C167 1.446 . S
C166 C196 1.391 . S
C167 C166 1.446 . S
C167 C168 1.339 1_455 S
C167 H202 0.949 . S
C168 C167 1.339 1_655 S
C168 C169 1.439 . S
C168 H203 0.950 . S
C169 N165 1.395 . S
C169 C168 1.439 . S
C169 C198 1.392 . S
N170 Co164 2.008 . S
N170 C171 1.376 . S
N170 C174 1.374 . S
C171 N170 1.376 . S
C171 C172 1.443 . S
C171 C198 1.389 . S
C172 C171 1.443 . S
C172 C173 1.340 . S
C172 H204 0.951 . S
C173 C172 1.340 . S
C173 C174 1.439 . S
C173 H205 0.950 . S
C174 N170 1.374 . S
C174 C173 1.439 . S
C174 C199 1.395 . S
N175 Co164 1.995 . S
N175 C176 1.376 . S
N175 C179 1.383 . S
C176 N175 1.376 . S
C176 C177 1.446 . S
C176 C199 1.391 . S
C177 C176 1.446 . S
C177 C178 1.339 . S
C177 H206 0.949 . S
C178 C177 1.339 . S
C178 C179 1.439 . S
C178 H207 0.950 . S
C179 N175 1.383 . S
C179 C178 1.439 . S
C179 C197 1.392 1_655 S
N180 Co164 2.282 . S
N180 C183 1.332 . S
N180 C185 1.332 . S
C181 C182 1.386 . S
C181 C184 1.388 . S
C182 C181 1.386 . S
C182 C183 1.382 . S
C182 H208 0.950 . S
C183 N180 1.332 . S
C183 C182 1.382 . S
C183 H194 0.952 . S
C184 C181 1.388 . S
C184 C185 1.382 . S
C184 H209 0.950 . S
C185 N180 1.332 . S
C185 C184 1.382 . S
C185 H195 0.948 . S
N186 Co164 2.282 1_455 S
N186 C190 1.332 . S
N186 C191 1.332 . S
C187 C188 1.388 . S
C187 C191 1.382 . S
C187 H210 0.950 . S
C188 C187 1.388 . S
C188 C189 1.386 . S
C189 C188 1.386 . S
C189 C190 1.382 . S
C189 H211 0.950 . S
C190 N186 1.332 . S
C190 C189 1.382 . S
C190 H192 0.952 . S
C191 N186 1.332 . S
C191 C187 1.382 . S
C191 H193 0.948 1_455 S
H192 C190 0.952 . S
H193 C191 0.948 1_655 S
H194 C183 0.952 . S
H195 C185 0.948 . S
C196 C162 1.395 . S
C196 C166 1.391 . S
C197 C159 1.389 . S
C197 C179 1.392 1_455 S
C198 C169 1.392 . S
C198 C171 1.389 . S
C199 C174 1.395 . S
C199 C176 1.391 . S
H200 C160 0.951 . S
H201 C161 0.950 . S
H202 C167 0.949 . S
H203 C168 0.950 . S
H204 C172 0.951 . S
H205 C173 0.950 . S
H206 C177 0.949 . S
H207 C178 0.950 . S
H208 C182 0.950 . S
H209 C184 0.950 . S
H210 C187 0.950 . S
H211 C189 0.950 . S
C212 C213 1.443 . S
C212 N216 1.376 . S
C212 C250 1.389 . S
C213 C212 1.443 . S
C213 C214 1.340 . S
C213 H253 0.951 . S
C214 C213 1.340 . S
C214 C215 1.439 . S
C214 H254 0.950 . S
C215 C214 1.439 . S
C215 N216 1.374 . S
C215 C249 1.395 . S
N216 C212 1.376 . S
N216 C215 1.374 . S
N216 Co217 2.008 . S
Co217 N216 2.008 . S
Co217 N218 1.995 1_556 S
Co217 N223 2.008 1_556 S
Co217 N228 1.995 . S
Co217 N233 2.282 . S
Co217 N239 2.282 1_556 S
N218 Co217 1.995 1_554 S
N218 C219 1.376 1_554 S
N218 C222 1.383 . S
C219 N218 1.376 1_556 S
C219 C220 1.446 1_556 S
C219 C249 1.391 . S
C220 C219 1.446 1_554 S
C220 C221 1.339 . S
C220 H255 0.949 . S
C221 C220 1.339 . S
C221 C222 1.439 . S
C221 H256 0.950 . S
C222 N218 1.383 . S
C222 C221 1.439 . S
C222 C251 1.392 . S
N223 Co217 2.008 1_554 S
N223 C224 1.376 . S
N223 C227 1.374 . S
C224 N223 1.376 . S
C224 C225 1.443 . S
C224 C251 1.389 . S
C225 C224 1.443 . S
C225 C226 1.340 . S
C225 H257 0.951 . S
C226 C225 1.340 . S
C226 C227 1.439 . S
C226 H258 0.950 . S
C227 N223 1.374 . S
C227 C226 1.439 . S
C227 C252 1.395 . S
N228 Co217 1.995 . S
N228 C229 1.376 . S
N228 C232 1.383 . S
C229 N228 1.376 . S
C229 C230 1.446 . S
C229 C252 1.391 1_556 S
C230 C229 1.446 . S
C230 C231 1.339 . S
C230 H259 0.949 . S
C231 C230 1.339 . S
C231 C232 1.439 . S
C231 H260 0.950 . S
C232 N228 1.383 . S
C232 C231 1.439 . S
C232 C250 1.392 . S
N233 Co217 2.282 . S
N233 C236 1.332 . S
N233 C238 1.332 . S
C234 C235 1.387 . S
C234 C237 1.388 . S
C235 C234 1.387 . S
C235 C236 1.384 . S
C235 H261 0.947 1_556 S
C236 N233 1.332 . S
C236 C235 1.384 . S
C236 H247 0.952 . S
C237 C234 1.388 . S
C237 C238 1.382 . S
C237 H262 0.950 . S
C238 N233 1.332 . S
C238 C237 1.382 . S
C238 H248 0.948 . S
N239 Co217 2.282 1_554 S
N239 C243 1.331 1_554 S
N239 C244 1.332 . S
C240 C241 1.388 . S
C240 C244 1.382 1_556 S
C240 H263 0.950 1_556 S
C241 C240 1.388 . S
C241 C242 1.386 . S
C242 C241 1.386 . S
C242 C243 1.382 . S
C242 H264 0.950 . S
C243 N239 1.331 1_556 S
C243 C242 1.382 . S
C243 H245 0.952 . S
C244 N239 1.332 . S
C244 C240 1.382 1_554 S
C244 H246 0.948 . S
H245 C243 0.952 . S
H246 C244 0.948 . S
H247 C236 0.952 . S
H248 C238 0.948 . S
C249 C215 1.395 . S
C249 C219 1.391 . S
C250 C212 1.389 . S
C250 C232 1.392 . S
C251 C222 1.392 . S
C251 C224 1.389 . S
C252 C227 1.395 . S
C252 C229 1.391 1_554 S
H253 C213 0.951 . S
H254 C214 0.950 . S
H255 C220 0.949 . S
H256 C221 0.950 . S
H257 C225 0.951 . S
H258 C226 0.950 . S
H259 C230 0.949 . S
H260 C231 0.950 . S
H261 C235 0.947 1_554 S
H262 C237 0.950 . S
H263 C240 0.950 1_554 S
H264 C242 0.950 . S
C265 C266 1.443 . S
C265 N269 1.376 . S
C265 C303 1.389 1_455 S
C266 C265 1.443 . S
C266 C267 1.340 . S
C266 H306 0.951 . S
C267 C266 1.340 . S
C267 C268 1.439 . S
C267 H307 0.950 . S
C268 C267 1.439 . S
C268 N269 1.374 . S
C268 C302 1.395 . S
N269 C265 1.376 . S
N269 C268 1.374 . S
N269 Co270 2.008 . S
Co270 N269 2.008 . S
Co270 N271 1.995 1_556 S
Co270 N276 2.008 1_556 S
Co270 N281 1.995 1_455 S
Co270 N286 2.282 . S
Co270 N292 2.282 1_456 S
N271 Co270 1.995 1_554 S
N271 C272 1.376 1_554 S
N271 C275 1.383 . S
C272 N271 1.376 1_556 S
C272 C273 1.446 1_556 S
C272 C302 1.391 . S
C273 C272 1.446 1_554 S
C273 C274 1.339 . S
C273 H308 0.949 . S
C274 C273 1.339 . S
C274 C275 1.439 . S
C274 H309 0.950 . S
C275 N271 1.383 . S
C275 C274 1.439 . S
C275 C304 1.392 . S
N276 Co270 2.008 1_554 S
N276 C277 1.376 . S
N276 C280 1.374 1_455 S
C277 N276 1.376 . S
C277 C278 1.443 . S
C277 C304 1.389 . S
C278 C277 1.443 . S
C278 C279 1.340 1_455 S
C278 H310 0.951 . S
C279 C278 1.340 1_655 S
C279 C280 1.439 . S
C279 H311 0.950 . S
C280 N276 1.374 1_655 S
C280 C279 1.439 . S
C280 C305 1.395 . S
N281 Co270 1.995 1_655 S
N281 C282 1.376 . S
N281 C285 1.383 . S
C282 N281 1.376 . S
C282 C283 1.446 . S
C282 C305 1.391 1_556 S
C283 C282 1.446 . S
C283 C284 1.339 . S
C283 H312 0.949 . S
C284 C283 1.339 . S
C284 C285 1.439 . S
C284 H313 0.950 . S
C285 N281 1.383 . S
C285 C284 1.439 . S
C285 C303 1.392 . S
N286 Co270 2.282 . S
N286 C289 1.332 . S
N286 C291 1.332 . S
C287 C288 1.387 . S
C287 C290 1.388 . S
C288 C287 1.387 . S
C288 C289 1.384 . S
C288 H314 0.947 1_556 S
C289 N286 1.332 . S
C289 C288 1.384 . S
C289 H300 0.952 . S
C290 C287 1.388 . S
C290 C291 1.382 . S
C290 H315 0.950 . S
C291 N286 1.332 . S
C291 C290 1.382 . S
C291 H301 0.948 . S
N292 Co270 2.282 1_654 S
N292 C296 1.332 1_554 S
N292 C297 1.332 . S
C293 C294 1.388 . S
C293 C297 1.382 1_556 S
C293 H316 0.950 1_556 S
C294 C293 1.388 . S
C294 C295 1.386 . S
C295 C294 1.386 . S
C295 C296 1.382 . S
C295 H317 0.950 . S
C296 N292 1.332 1_556 S
C296 C295 1.382 . S
C296 H298 0.952 1_655 S
C297 N292 1.332 . S
C297 C293 1.382 1_554 S
C297 H299 0.948 . S
H298 C296 0.952 1_455 S
H299 C297 0.948 . S
H300 C289 0.952 . S
H301 C291 0.948 . S
C302 C268 1.395 . S
C302 C272 1.391 . S
C303 C265 1.389 1_655 S
C303 C285 1.392 . S
C304 C275 1.392 . S
C304 C277 1.389 . S
C305 C280 1.395 . S
C305 C282 1.391 1_554 S
H306 C266 0.951 . S
H307 C267 0.950 . S
H308 C273 0.949 . S
H309 C274 0.950 . S
H310 C278 0.951 . S
H311 C279 0.950 . S
H312 C283 0.949 . S
H313 C284 0.950 . S
H314 C288 0.947 1_554 S
H315 C290 0.950 . S
H316 C293 0.950 1_554 S
H317 C295 0.950 . S
C318 C319 1.443 . S
C318 N322 1.376 . S
C318 C356 1.389 . S
C319 C318 1.443 . S
C319 C320 1.340 . S
C319 H359 0.951 . S
C320 C319 1.340 . S
C320 C321 1.439 . S
C320 H360 0.950 . S
C321 C320 1.439 . S
C321 N322 1.374 . S
C321 C355 1.395 . S
N322 C318 1.376 . S
N322 C321 1.374 . S
N322 Co323 2.008 . S
Co323 N322 2.008 . S
Co323 N324 1.995 . S
Co323 N329 2.008 . S
Co323 N334 1.995 . S
Co323 N339 2.282 . S
Co323 N345 2.282 . S
N324 Co323 1.995 . S
N324 C325 1.376 . S
N324 C328 1.383 . S
C325 N324 1.376 . S
C325 C326 1.446 . S
C325 C355 1.391 . S
C326 C325 1.446 . S
C326 C327 1.339 . S
C326 H361 0.949 . S
C327 C326 1.339 . S
C327 C328 1.439 . S
C327 H362 0.950 . S
C328 N324 1.383 . S
C328 C327 1.439 . S
C328 C357 1.392 . S
N329 Co323 2.008 . S
N329 C330 1.376 . S
N329 C333 1.374 . S
C330 N329 1.376 . S
C330 C331 1.443 . S
C330 C357 1.389 . S
C331 C330 1.443 . S
C331 C332 1.340 . S
C331 H363 0.951 . S
C332 C331 1.340 . S
C332 C333 1.439 . S
C332 H364 0.950 . S
C333 N329 1.374 . S
C333 C332 1.439 . S
C333 C358 1.395 . S
N334 Co323 1.995 . S
N334 C335 1.376 . S
N334 C338 1.383 . S
C335 N334 1.376 . S
C335 C336 1.446 . S
C335 C358 1.391 . S
C336 C335 1.446 . S
C336 C337 1.339 . S
C336 H365 0.949 . S
C337 C336 1.339 . S
C337 C338 1.439 . S
C337 H366 0.950 . S
C338 N334 1.383 . S
C338 C337 1.439 . S
C338 C356 1.392 . S
N339 Co323 2.282 . S
N339 C342 1.332 . S
N339 C344 1.332 . S
C340 C341 1.386 . S
C340 C343 1.388 . S
C341 C340 1.386 . S
C341 C342 1.382 . S
C341 H367 0.950 . S
C342 N339 1.332 . S
C342 C341 1.382 . S
C342 H353 0.952 . S
C343 C340 1.388 . S
C343 C344 1.382 . S
C343 H368 0.950 . S
C344 N339 1.332 . S
C344 C343 1.382 . S
C344 H354 0.948 . S
N345 Co323 2.282 . S
N345 C349 1.332 . S
N345 C350 1.332 . S
C346 C347 1.388 . S
C346 C350 1.382 . S
C346 H369 0.950 . S
C347 C346 1.388 . S
C347 C348 1.386 . S
C348 C347 1.386 . S
C348 C349 1.382 . S
C348 H370 0.950 . S
C349 N345 1.332 . S
C349 C348 1.382 . S
C349 H351 0.952 . S
C350 N345 1.332 . S
C350 C346 1.382 . S
C350 H352 0.948 . S
H351 C349 0.952 . S
H352 C350 0.948 . S
H353 C342 0.952 . S
H354 C344 0.948 . S
C355 C321 1.395 . S
C355 C325 1.391 . S
C356 C318 1.389 . S
C356 C338 1.392 . S
C357 C328 1.392 . S
C357 C330 1.389 . S
C358 C333 1.395 . S
C358 C335 1.391 . S
H359 C319 0.951 . S
H360 C320 0.950 . S
H361 C326 0.949 . S
H362 C327 0.950 . S
H363 C331 0.951 . S
H364 C332 0.950 . S
H365 C336 0.949 . S
H366 C337 0.950 . S
H367 C341 0.950 . S
H368 C343 0.950 . S
H369 C346 0.950 . S
H370 C348 0.950 . S
C371 C372 1.443 . S
C371 N375 1.376 . S
C371 C409 1.389 1_455 S
C372 C371 1.443 . S
C372 C373 1.340 . S
C372 H412 0.951 . S
C373 C372 1.340 . S
C373 C374 1.439 . S
C373 H413 0.950 . S
C374 C373 1.439 . S
C374 N375 1.374 . S
C374 C408 1.395 . S
N375 C371 1.376 . S
N375 C374 1.374 . S
N375 Co376 2.008 . S
Co376 N375 2.008 . S
Co376 N377 1.995 . S
Co376 N382 2.008 . S
Co376 N387 1.995 1_455 S
Co376 N392 2.282 . S
Co376 N398 2.282 1_455 S
N377 Co376 1.995 . S
N377 C378 1.376 . S
N377 C381 1.383 . S
C378 N377 1.376 . S
C378 C379 1.446 . S
C378 C408 1.391 . S
C379 C378 1.446 . S
C379 C380 1.339 . S
C379 H414 0.949 . S
C380 C379 1.339 . S
C380 C381 1.439 . S
C380 H415 0.950 . S
C381 N377 1.383 . S
C381 C380 1.439 . S
C381 C410 1.392 . S
N382 Co376 2.008 . S
N382 C383 1.376 . S
N382 C386 1.374 1_455 S
C383 N382 1.376 . S
C383 C384 1.443 . S
C383 C410 1.389 . S
C384 C383 1.443 . S
C384 C385 1.340 1_455 S
C384 H416 0.951 . S
C385 C384 1.340 1_655 S
C385 C386 1.439 . S
C385 H417 0.950 . S
C386 N382 1.374 1_655 S
C386 C385 1.439 . S
C386 C411 1.395 . S
N387 Co376 1.995 1_655 S
N387 C388 1.376 . S
N387 C391 1.383 . S
C388 N387 1.376 . S
C388 C389 1.446 . S
C388 C411 1.391 . S
C389 C388 1.446 . S
C389 C390 1.339 . S
C389 H418 0.949 . S
C390 C389 1.339 . S
C390 C391 1.439 . S
C390 H419 0.950 . S
C391 N387 1.383 . S
C391 C390 1.439 . S
C391 C409 1.392 . S
N392 Co376 2.282 . S
N392 C395 1.332 . S
N392 C397 1.332 . S
C393 C394 1.386 . S
C393 C396 1.388 . S
C394 C393 1.386 . S
C394 C395 1.382 . S
C394 H420 0.950 . S
C395 N392 1.332 . S
C395 C394 1.382 . S
C395 H406 0.952 . S
C396 C393 1.388 . S
C396 C397 1.382 . S
C396 H421 0.950 . S
C397 N392 1.332 . S
C397 C396 1.382 . S
C397 H407 0.948 . S
N398 Co376 2.282 1_655 S
N398 C402 1.332 . S
N398 C403 1.332 . S
C399 C400 1.388 . S
C399 C403 1.382 . S
C399 H422 0.950 . S
C400 C399 1.388 . S
C400 C401 1.386 . S
C401 C400 1.386 . S
C401 C402 1.382 . S
C401 H423 0.950 . S
C402 N398 1.332 . S
C402 C401 1.382 . S
C402 H404 0.952 1_655 S
C403 N398 1.332 . S
C403 C399 1.382 . S
C403 H405 0.948 . S
H404 C402 0.952 1_455 S
H405 C403 0.948 . S
H406 C395 0.952 . S
H407 C397 0.948 . S
C408 C374 1.395 . S
C408 C378 1.391 . S
C409 C371 1.389 1_655 S
C409 C391 1.392 . S
C410 C381 1.392 . S
C410 C383 1.389 . S
C411 C386 1.395 . S
C411 C388 1.391 . S
H412 C372 0.951 . S
H413 C373 0.950 . S
H414 C379 0.949 . S
H415 C380 0.950 . S
H416 C384 0.951 . S
H417 C385 0.950 . S
H418 C389 0.949 . S
H419 C390 0.950 . S
H420 C394 0.950 . S
H421 C396 0.950 . S
H422 C399 0.950 . S
H423 C401 0.950 . S
C424 C425 1.443 . S
C424 N428 1.376 . S
C424 C462 1.389 . S
C425 C424 1.443 . S
C425 C426 1.340 . S
C425 H465 0.951 . S
C426 C425 1.340 . S
C426 C427 1.439 . S
C426 H466 0.950 . S
C427 C426 1.439 . S
C427 N428 1.374 . S
C427 C461 1.395 . S
N428 C424 1.376 . S
N428 C427 1.374 . S
N428 Co429 2.008 . S
Co429 N428 2.008 . S
Co429 N430 1.995 . S
Co429 N435 2.008 . S
Co429 N440 1.995 . S
Co429 N445 2.282 . S
Co429 N451 2.282 . S
N430 Co429 1.995 . S
N430 C431 1.376 . S
N430 C434 1.383 . S
C431 N430 1.376 . S
C431 C432 1.446 . S
C431 C461 1.391 . S
C432 C431 1.446 . S
C432 C433 1.339 . S
C432 H467 0.949 . S
C433 C432 1.339 . S
C433 C434 1.439 . S
C433 H468 0.950 . S
C434 N430 1.383 . S
C434 C433 1.439 . S
C434 C463 1.392 . S
N435 Co429 2.008 . S
N435 C436 1.376 . S
N435 C439 1.374 . S
C436 N435 1.376 . S
C436 C437 1.443 . S
C436 C463 1.389 . S
C437 C436 1.443 . S
C437 C438 1.340 . S
C437 H469 0.951 . S
C438 C437 1.340 . S
C438 C439 1.439 . S
C438 H470 0.950 . S
C439 N435 1.374 . S
C439 C438 1.439 . S
C439 C464 1.395 . S
N440 Co429 1.995 . S
N440 C441 1.376 . S
N440 C444 1.383 . S
C441 N440 1.376 . S
C441 C442 1.446 . S
C441 C464 1.391 . S
C442 C441 1.446 . S
C442 C443 1.339 . S
C442 H471 0.949 . S
C443 C442 1.339 . S
C443 C444 1.439 . S
C443 H472 0.950 . S
C444 N440 1.383 . S
C444 C443 1.439 . S
C444 C462 1.392 . S
N445 Co429 2.282 . S
N445 C448 1.332 . S
N445 C450 1.332 . S
C446 C447 1.386 . S
C446 C449 1.388 . S
C447 C446 1.386 . S
C447 C448 1.382 . S
C447 H473 0.950 . S
C448 N445 1.332 . S
C448 C447 1.382 . S
C448 H459 0.952 . S
C449 C446 1.388 . S
C449 C450 1.382 . S
C449 H474 0.950 . S
C450 N445 1.332 . S
C450 C449 1.382 . S
C450 H460 0.948 . S
N451 Co429 2.282 . S
N451 C455 1.332 . S
N451 C456 1.332 . S
C452 C453 1.388 . S
C452 C456 1.382 . S
C452 H475 0.950 . S
C453 C452 1.388 . S
C453 C454 1.386 . S
C454 C453 1.386 . S
C454 C455 1.382 . S
C454 H476 0.950 . S
C455 N451 1.332 . S
C455 C454 1.382 . S
C455 H457 0.952 . S
C456 N451 1.332 . S
C456 C452 1.382 . S
C456 H458 0.948 . S
H457 C455 0.952 . S
H458 C456 0.948 . S
H459 C448 0.952 . S
H460 C450 0.948 . S
C461 C427 1.395 . S
C461 C431 1.391 . S
C462 C424 1.389 . S
C462 C444 1.392 . S
C463 C434 1.392 . S
C463 C436 1.389 . S
C464 C439 1.395 . S
C464 C441 1.391 . S
H465 C425 0.951 . S
H466 C426 0.950 . S
H467 C432 0.949 . S
H468 C433 0.950 . S
H469 C437 0.951 . S
H470 C438 0.950 . S
H471 C442 0.949 . S
H472 C443 0.950 . S
H473 C447 0.950 . S
H474 C449 0.950 . S
H475 C452 0.950 . S
H476 C454 0.950 . S
C477 C478 1.443 . S
C477 N481 1.376 . S
C477 C515 1.389 . S
C478 C477 1.443 . S
C478 C479 1.340 . S
C478 H518 0.951 . S
C479 C478 1.340 . S
C479 C480 1.439 . S
C479 H519 0.950 . S
C480 C479 1.439 . S
C480 N481 1.374 . S
C480 C514 1.395 . S
N481 C477 1.376 . S
N481 C480 1.374 . S
N481 Co482 2.008 1_455 S
Co482 N481 2.008 1_655 S
Co482 N483 2.001 . S
Co482 N488 2.008 . S
Co482 N493 1.995 . S
Co482 N498 2.282 . S
Co482 N504 2.282 1_655 S
N483 Co482 2.001 . S
N483 C484 1.358 1_655 S
N483 C487 1.396 . S
C484 N483 1.358 1_455 S
C484 C485 1.446 . S
C484 C514 1.391 . S
C485 C484 1.446 . S
C485 C486 1.339 1_455 S
C485 H520 0.949 . S
C486 C485 1.339 1_655 S
C486 C487 1.439 . S
C486 H521 0.950 . S
C487 N483 1.396 . S
C487 C486 1.439 . S
C487 C516 1.392 . S
N488 Co482 2.008 . S
N488 C489 1.376 . S
N488 C492 1.374 . S
C489 N488 1.376 . S
C489 C490 1.443 . S
C489 C516 1.389 . S
C490 C489 1.443 . S
C490 C491 1.340 . S
C490 H522 0.951 . S
C491 C490 1.340 . S
C491 C492 1.439 . S
C491 H523 0.950 . S
C492 N488 1.374 . S
C492 C491 1.439 . S
C492 C517 1.395 . S
N493 Co482 1.995 . S
N493 C494 1.376 . S
N493 C497 1.383 . S
C494 N493 1.376 . S
C494 C495 1.446 . S
C494 C517 1.391 . S
C495 C494 1.446 . S
C495 C496 1.339 . S
C495 H524 0.949 . S
C496 C495 1.339 . S
C496 C497 1.439 . S
C496 H525 0.950 . S
C497 N493 1.383 . S
C497 C496 1.439 . S
C497 C515 1.392 1_655 S
N498 Co482 2.282 . S
N498 C501 1.332 . S
N498 C503 1.332 . S
C499 C500 1.386 . S
C499 C502 1.388 . S
C500 C499 1.386 . S
C500 C501 1.382 . S
C500 H526 0.950 . S
C501 N498 1.332 . S
C501 C500 1.382 . S
C501 H512 0.952 . S
C502 C499 1.388 . S
C502 C503 1.382 . S
C502 H527 0.950 . S
C503 N498 1.332 . S
C503 C502 1.382 . S
C503 H513 0.948 . S
N504 Co482 2.282 1_455 S
N504 C508 1.332 . S
N504 C509 1.332 . S
C505 C506 1.388 . S
C505 C509 1.382 . S
C505 H528 0.950 . S
C506 C505 1.388 . S
C506 C507 1.386 . S
C507 C506 1.386 . S
C507 C508 1.382 . S
C507 H529 0.950 . S
C508 N504 1.332 . S
C508 C507 1.382 . S
C508 H510 0.952 . S
C509 N504 1.332 . S
C509 C505 1.382 . S
C509 H511 0.948 1_455 S
H510 C508 0.952 . S
H511 C509 0.948 1_655 S
H512 C501 0.952 . S
H513 C503 0.948 . S
C514 C480 1.395 . S
C514 C484 1.391 . S
C515 C477 1.389 . S
C515 C497 1.392 1_455 S
C516 C487 1.392 . S
C516 C489 1.389 . S
C517 C492 1.395 . S
C517 C494 1.391 . S
H518 C478 0.951 . S
H519 C479 0.950 . S
H520 C485 0.949 . S
H521 C486 0.950 . S
H522 C490 0.951 . S
H523 C491 0.950 . S
H524 C495 0.949 . S
H525 C496 0.950 . S
H526 C500 0.950 . S
H527 C502 0.950 . S
H528 C505 0.950 . S
H529 C507 0.950 . S
C530 C531 1.443 . S
C530 N534 1.376 . S
C530 C568 1.389 . S
C531 C530 1.443 . S
C531 C532 1.340 . S
C531 H571 0.951 . S
C532 C531 1.340 . S
C532 C533 1.439 . S
C532 H572 0.950 . S
C533 C532 1.439 . S
C533 N534 1.374 . S
C533 C567 1.395 . S
N534 C530 1.376 . S
N534 C533 1.374 . S
N534 Co535 2.008 . S
Co535 N534 2.008 . S
Co535 N536 1.995 . S
Co535 N541 2.008 . S
Co535 N546 1.995 . S
Co535 N551 2.282 . S
Co535 N557 2.282 . S
N536 Co535 1.995 . S
N536 C537 1.376 . S
N536 C540 1.383 . S
C537 N536 1.376 . S
C537 C538 1.446 . S
C537 C567 1.391 . S
C538 C537 1.446 . S
C538 C539 1.339 . S
C538 H573 0.949 . S
C539 C538 1.339 . S
C539 C540 1.439 . S
C539 H574 0.950 . S
C540 N536 1.383 . S
C540 C539 1.439 . S
C540 C569 1.392 . S
N541 Co535 2.008 . S
N541 C542 1.376 . S
N541 C545 1.374 . S
C542 N541 1.376 . S
C542 C543 1.443 . S
C542 C569 1.389 . S
C543 C542 1.443 . S
C543 C544 1.340 . S
C543 H575 0.951 . S
C544 C543 1.340 . S
C544 C545 1.439 . S
C544 H576 0.950 . S
C545 N541 1.374 . S
C545 C544 1.439 . S
C545 C570 1.395 . S
N546 Co535 1.995 . S
N546 C547 1.376 . S
N546 C550 1.383 . S
C547 N546 1.376 . S
C547 C548 1.446 . S
C547 C570 1.391 . S
C548 C547 1.446 . S
C548 C549 1.339 . S
C548 H577 0.949 . S
C549 C548 1.339 . S
C549 C550 1.439 . S
C549 H578 0.950 . S
C550 N546 1.383 . S
C550 C549 1.439 . S
C550 C568 1.392 . S
N551 Co535 2.282 . S
N551 C554 1.332 . S
N551 C556 1.332 . S
C552 C553 1.386 . S
C552 C555 1.388 . S
C553 C552 1.386 . S
C553 C554 1.382 . S
C553 H579 0.950 . S
C554 N551 1.332 . S
C554 C553 1.382 . S
C554 H565 0.952 . S
C555 C552 1.388 . S
C555 C556 1.382 . S
C555 H580 0.950 . S
C556 N551 1.332 . S
C556 C555 1.382 . S
C556 H566 0.948 . S
N557 Co535 2.282 . S
N557 C561 1.332 . S
N557 C562 1.332 . S
C558 C559 1.388 . S
C558 C562 1.382 . S
C558 H581 0.950 . S
C559 C558 1.388 . S
C559 C560 1.386 . S
C560 C559 1.386 . S
C560 C561 1.382 . S
C560 H582 0.950 . S
C561 N557 1.332 . S
C561 C560 1.382 . S
C561 H563 0.952 . S
C562 N557 1.332 . S
C562 C558 1.382 . S
C562 H564 0.948 . S
H563 C561 0.952 . S
H564 C562 0.948 . S
H565 C554 0.952 . S
H566 C556 0.948 . S
C567 C533 1.395 . S
C567 C537 1.391 . S
C568 C530 1.389 . S
C568 C550 1.392 . S
C569 C540 1.392 . S
C569 C542 1.389 . S
C570 C545 1.395 . S
C570 C547 1.391 . S
H571 C531 0.951 . S
H572 C532 0.950 . S
H573 C538 0.949 . S
H574 C539 0.950 . S
H575 C543 0.951 . S
H576 C544 0.950 . S
H577 C548 0.949 . S
H578 C549 0.950 . S
H579 C553 0.950 . S
H580 C555 0.950 . S
H581 C558 0.950 . S
H582 C560 0.950 . S
C583 C584 1.443 . S
C583 N587 1.376 . S
C583 C621 1.389 . S
C584 C583 1.443 . S
C584 C585 1.340 . S
C584 H624 0.951 . S
C585 C584 1.340 . S
C585 C586 1.439 . S
C585 H625 0.950 . S
C586 C585 1.439 . S
C586 N587 1.374 . S
C586 C620 1.395 . S
N587 C583 1.376 . S
N587 C586 1.374 . S
N587 Co588 2.008 1_455 S
Co588 N587 2.008 1_655 S
Co588 N589 2.001 . S
Co588 N594 2.008 . S
Co588 N599 1.995 . S
Co588 N604 2.282 . S
Co588 N610 2.282 1_655 S
N589 Co588 2.001 . S
N589 C590 1.358 1_655 S
N589 C593 1.396 . S
C590 N589 1.358 1_455 S
C590 C591 1.446 . S
C590 C620 1.391 . S
C591 C590 1.446 . S
C591 C592 1.339 1_455 S
C591 H626 0.949 . S
C592 C591 1.339 1_655 S
C592 C593 1.439 . S
C592 H627 0.950 . S
C593 N589 1.396 . S
C593 C592 1.439 . S
C593 C622 1.392 . S
N594 Co588 2.008 . S
N594 C595 1.376 . S
N594 C598 1.374 . S
C595 N594 1.376 . S
C595 C596 1.443 . S
C595 C622 1.389 . S
C596 C595 1.443 . S
C596 C597 1.340 . S
C596 H628 0.951 . S
C597 C596 1.340 . S
C597 C598 1.439 . S
C597 H629 0.950 . S
C598 N594 1.374 . S
C598 C597 1.439 . S
C598 C623 1.395 . S
N599 Co588 1.995 . S
N599 C600 1.376 . S
N599 C603 1.383 . S
C600 N599 1.376 . S
C600 C601 1.446 . S
C600 C623 1.391 . S
C601 C600 1.446 . S
C601 C602 1.339 . S
C601 H630 0.949 . S
C602 C601 1.339 . S
C602 C603 1.439 . S
C602 H631 0.950 . S
C603 N599 1.383 . S
C603 C602 1.439 . S
C603 C621 1.392 1_655 S
N604 Co588 2.282 . S
N604 C607 1.332 . S
N604 C609 1.332 . S
C605 C606 1.386 . S
C605 C608 1.388 . S
C606 C605 1.386 . S
C606 C607 1.382 . S
C606 H632 0.950 . S
C607 N604 1.332 . S
C607 C606 1.382 . S
C607 H618 0.952 . S
C608 C605 1.388 . S
C608 C609 1.382 . S
C608 H633 0.950 . S
C609 N604 1.332 . S
C609 C608 1.382 . S
C609 H619 0.948 . S
N610 Co588 2.282 1_455 S
N610 C614 1.332 . S
N610 C615 1.332 . S
C611 C612 1.388 . S
C611 C615 1.382 . S
C611 H634 0.950 . S
C612 C611 1.388 . S
C612 C613 1.386 . S
C613 C612 1.386 . S
C613 C614 1.382 . S
C613 H635 0.950 . S
C614 N610 1.332 . S
C614 C613 1.382 . S
C614 H616 0.952 . S
C615 N610 1.332 . S
C615 C611 1.382 . S
C615 H617 0.948 1_455 S
H616 C614 0.952 . S
H617 C615 0.948 1_655 S
H618 C607 0.952 . S
H619 C609 0.948 . S
C620 C586 1.395 . S
C620 C590 1.391 . S
C621 C583 1.389 . S
C621 C603 1.392 1_455 S
C622 C593 1.392 . S
C622 C595 1.389 . S
C623 C598 1.395 . S
C623 C600 1.391 . S
H624 C584 0.951 . S
H625 C585 0.950 . S
H626 C591 0.949 . S
H627 C592 0.950 . S
H628 C596 0.951 . S
H629 C597 0.950 . S
H630 C601 0.949 . S
H631 C602 0.950 . S
H632 C606 0.950 . S
H633 C608 0.950 . S
H634 C611 0.950 . S
H635 C613 0.950 . S
C636 C637 1.443 . S
C636 N640 1.376 . S
C636 C674 1.389 . S
C637 C636 1.443 . S
C637 C638 1.340 . S
C637 H677 0.951 . S
C638 C637 1.340 . S
C638 C639 1.439 . S
C638 H678 0.950 . S
C639 C638 1.439 . S
C639 N640 1.374 . S
C639 C673 1.395 . S
N640 C636 1.376 . S
N640 C639 1.374 . S
N640 Co641 2.008 . S
Co641 N640 2.008 . S
Co641 N642 1.995 . S
Co641 N647 2.008 . S
Co641 N652 1.995 . S
Co641 N657 2.282 . S
Co641 N663 2.282 . S
N642 Co641 1.995 . S
N642 C643 1.376 . S
N642 C646 1.383 . S
C643 N642 1.376 . S
C643 C644 1.446 . S
C643 C673 1.391 . S
C644 C643 1.446 . S
C644 C645 1.339 . S
C644 H679 0.949 . S
C645 C644 1.339 . S
C645 C646 1.439 . S
C645 H680 0.950 . S
C646 N642 1.383 . S
C646 C645 1.439 . S
C646 C675 1.392 . S
N647 Co641 2.008 . S
N647 C648 1.376 . S
N647 C651 1.374 . S
C648 N647 1.376 . S
C648 C649 1.443 . S
C648 C675 1.389 . S
C649 C648 1.443 . S
C649 C650 1.340 . S
C649 H681 0.951 . S
C650 C649 1.340 . S
C650 C651 1.439 . S
C650 H682 0.950 . S
C651 N647 1.374 . S
C651 C650 1.439 . S
C651 C676 1.395 . S
N652 Co641 1.995 . S
N652 C653 1.376 . S
N652 C656 1.383 . S
C653 N652 1.376 . S
C653 C654 1.446 . S
C653 C676 1.391 . S
C654 C653 1.446 . S
C654 C655 1.339 . S
C654 H683 0.949 . S
C655 C654 1.339 . S
C655 C656 1.439 . S
C655 H684 0.950 . S
C656 N652 1.383 . S
C656 C655 1.439 . S
C656 C674 1.392 . S
N657 Co641 2.282 . S
N657 C660 1.332 . S
N657 C662 1.332 . S
C658 C659 1.386 . S
C658 C661 1.388 . S
C659 C658 1.386 . S
C659 C660 1.382 . S
C659 H685 0.950 . S
C660 N657 1.332 . S
C660 C659 1.382 . S
C660 H671 0.952 . S
C661 C658 1.388 . S
C661 C662 1.382 . S
C661 H686 0.950 . S
C662 N657 1.332 . S
C662 C661 1.382 . S
C662 H672 0.948 . S
N663 Co641 2.282 . S
N663 C667 1.332 . S
N663 C668 1.332 . S
C664 C665 1.388 . S
C664 C668 1.382 . S
C664 H687 0.950 . S
C665 C664 1.388 . S
C665 C666 1.386 . S
C666 C665 1.386 . S
C666 C667 1.382 . S
C666 H688 0.950 . S
C667 N663 1.332 . S
C667 C666 1.382 . S
C667 H669 0.952 . S
C668 N663 1.332 . S
C668 C664 1.382 . S
C668 H670 0.948 . S
H669 C667 0.952 . S
H670 C668 0.948 . S
H671 C660 0.952 . S
H672 C662 0.948 . S
C673 C639 1.395 . S
C673 C643 1.391 . S
C674 C636 1.389 . S
C674 C656 1.392 . S
C675 C646 1.392 . S
C675 C648 1.389 . S
C676 C651 1.395 . S
C676 C653 1.391 . S
H677 C637 0.951 . S
H678 C638 0.950 . S
H679 C644 0.949 . S
H680 C645 0.950 . S
H681 C649 0.951 . S
H682 C650 0.950 . S
H683 C654 0.949 . S
H684 C655 0.950 . S
H685 C659 0.950 . S
H686 C661 0.950 . S
H687 C664 0.950 . S
H688 C666 0.950 . S
C689 C690 1.443 . S
C689 N693 1.376 . S
C689 C727 1.389 1_455 S
C690 C689 1.443 . S
C690 C691 1.340 . S
C690 H730 0.951 . S
C691 C690 1.340 . S
C691 C692 1.439 . S
C691 H731 0.950 . S
C692 C691 1.439 . S
C692 N693 1.374 . S
C692 C726 1.395 . S
N693 C689 1.376 . S
N693 C692 1.374 . S
N693 Co694 2.008 . S
Co694 N693 2.008 . S
Co694 N695 1.995 . S
Co694 N700 2.008 . S
Co694 N705 1.995 1_455 S
Co694 N710 2.282 . S
Co694 N716 2.282 1_455 S
N695 Co694 1.995 . S
N695 C696 1.376 . S
N695 C699 1.383 . S
C696 N695 1.376 . S
C696 C697 1.446 . S
C696 C726 1.391 . S
C697 C696 1.446 . S
C697 C698 1.339 . S
C697 H732 0.949 . S
C698 C697 1.339 . S
C698 C699 1.439 . S
C698 H733 0.950 . S
C699 N695 1.383 . S
C699 C698 1.439 . S
C699 C728 1.392 . S
N700 Co694 2.008 . S
N700 C701 1.376 . S
N700 C704 1.374 1_455 S
C701 N700 1.376 . S
C701 C702 1.443 . S
C701 C728 1.389 . S
C702 C701 1.443 . S
C702 C703 1.340 1_455 S
C702 H734 0.951 . S
C703 C702 1.340 1_655 S
C703 C704 1.439 . S
C703 H735 0.950 . S
C704 N700 1.374 1_655 S
C704 C703 1.439 . S
C704 C729 1.395 . S
N705 Co694 1.995 1_655 S
N705 C706 1.376 . S
N705 C709 1.383 . S
C706 N705 1.376 . S
C706 C707 1.446 . S
C706 C729 1.391 . S
C707 C706 1.446 . S
C707 C708 1.339 . S
C707 H736 0.949 . S
C708 C707 1.339 . S
C708 C709 1.439 . S
C708 H737 0.950 . S
C709 N705 1.383 . S
C709 C708 1.439 . S
C709 C727 1.392 . S
N710 Co694 2.282 . S
N710 C713 1.332 . S
N710 C715 1.332 . S
C711 C712 1.386 . S
C711 C714 1.388 . S
C712 C711 1.386 . S
C712 C713 1.382 . S
C712 H738 0.950 . S
C713 N710 1.332 . S
C713 C712 1.382 . S
C713 H724 0.952 . S
C714 C711 1.388 . S
C714 C715 1.382 . S
C714 H739 0.950 . S
C715 N710 1.332 . S
C715 C714 1.382 . S
C715 H725 0.948 . S
N716 Co694 2.282 1_655 S
N716 C720 1.332 . S
N716 C721 1.332 . S
C717 C718 1.388 . S
C717 C721 1.382 . S
C717 H740 0.950 . S
C718 C717 1.388 . S
C718 C719 1.386 . S
C719 C718 1.386 . S
C719 C720 1.382 . S
C719 H741 0.950 . S
C720 N716 1.332 . S
C720 C719 1.382 . S
C720 H722 0.952 1_655 S
C721 N716 1.332 . S
C721 C717 1.382 . S
C721 H723 0.948 . S
H722 C720 0.952 1_455 S
H723 C721 0.948 . S
H724 C713 0.952 . S
H725 C715 0.948 . S
C726 C692 1.395 . S
C726 C696 1.391 . S
C727 C689 1.389 1_655 S
C727 C709 1.392 . S
C728 C699 1.392 . S
C728 C701 1.389 . S
C729 C704 1.395 . S
C729 C706 1.391 . S
H730 C690 0.951 . S
H731 C691 0.950 . S
H732 C697 0.949 . S
H733 C698 0.950 . S
H734 C702 0.951 . S
H735 C703 0.950 . S
H736 C707 0.949 . S
H737 C708 0.950 . S
H738 C712 0.950 . S
H739 C714 0.950 . S
H740 C717 0.950 . S
H741 C719 0.950 . S
C742 C743 1.443 . S
C742 N746 1.376 . S
C742 C780 1.389 . S
C743 C742 1.443 . S
C743 C744 1.340 . S
C743 H783 0.951 . S
C744 C743 1.340 . S
C744 C745 1.439 . S
C744 H784 0.950 . S
C745 C744 1.439 . S
C745 N746 1.374 . S
C745 C779 1.395 . S
N746 C742 1.376 . S
N746 C745 1.374 . S
N746 Co747 2.008 . S
Co747 N746 2.008 . S
Co747 N748 1.995 . S
Co747 N753 2.008 . S
Co747 N758 1.995 . S
Co747 N763 2.282 . S
Co747 N769 2.282 . S
N748 Co747 1.995 . S
N748 C749 1.376 . S
N748 C752 1.383 . S
C749 N748 1.376 . S
C749 C750 1.446 . S
C749 C779 1.391 . S
C750 C749 1.446 . S
C750 C751 1.339 . S
C750 H785 0.949 . S
C751 C750 1.339 . S
C751 C752 1.439 . S
C751 H786 0.950 . S
C752 N748 1.383 . S
C752 C751 1.439 . S
C752 C781 1.392 . S
N753 Co747 2.008 . S
N753 C754 1.376 . S
N753 C757 1.374 . S
C754 N753 1.376 . S
C754 C755 1.443 . S
C754 C781 1.389 . S
C755 C754 1.443 . S
C755 C756 1.340 . S
C755 H787 0.951 . S
C756 C755 1.340 . S
C756 C757 1.439 . S
C756 H788 0.950 . S
C757 N753 1.374 . S
C757 C756 1.439 . S
C757 C782 1.395 . S
N758 Co747 1.995 . S
N758 C759 1.376 . S
N758 C762 1.383 . S
C759 N758 1.376 . S
C759 C760 1.446 . S
C759 C782 1.391 . S
C760 C759 1.446 . S
C760 C761 1.339 . S
C760 H789 0.949 . S
C761 C760 1.339 . S
C761 C762 1.439 . S
C761 H790 0.950 . S
C762 N758 1.383 . S
C762 C761 1.439 . S
C762 C780 1.392 . S
N763 Co747 2.282 . S
N763 C766 1.332 . S
N763 C768 1.332 . S
C764 C765 1.386 . S
C764 C767 1.388 . S
C765 C764 1.386 . S
C765 C766 1.382 . S
C765 H791 0.950 . S
C766 N763 1.332 . S
C766 C765 1.382 . S
C766 H777 0.952 . S
C767 C764 1.388 . S
C767 C768 1.382 . S
C767 H792 0.950 . S
C768 N763 1.332 . S
C768 C767 1.382 . S
C768 H778 0.948 . S
N769 Co747 2.282 . S
N769 C773 1.332 . S
N769 C774 1.332 . S
C770 C771 1.388 . S
C770 C774 1.382 . S
C770 H793 0.950 . S
C771 C770 1.388 . S
C771 C772 1.386 . S
C772 C771 1.386 . S
C772 C773 1.382 . S
C772 H794 0.950 . S
C773 N769 1.332 . S
C773 C772 1.382 . S
C773 H775 0.952 . S
C774 N769 1.332 . S
C774 C770 1.382 . S
C774 H776 0.948 . S
H775 C773 0.952 . S
H776 C774 0.948 . S
H777 C766 0.952 . S
H778 C768 0.948 . S
C779 C745 1.395 . S
C779 C749 1.391 . S
C780 C742 1.389 . S
C780 C762 1.392 . S
C781 C752 1.392 . S
C781 C754 1.389 . S
C782 C757 1.395 . S
C782 C759 1.391 . S
H783 C743 0.951 . S
H784 C744 0.950 . S
H785 C750 0.949 . S
H786 C751 0.950 . S
H787 C755 0.951 . S
H788 C756 0.950 . S
H789 C760 0.949 . S
H790 C761 0.950 . S
H791 C765 0.950 . S
H792 C767 0.950 . S
H793 C770 0.950 . S
H794 C772 0.950 . S
C795 C796 1.443 . S
C795 N799 1.376 . S
C795 C833 1.389 1_455 S
C796 C795 1.443 . S
C796 C797 1.340 . S
C796 H836 0.951 . S
C797 C796 1.340 . S
C797 C798 1.439 . S
C797 H837 0.950 . S
C798 C797 1.439 . S
C798 N799 1.374 . S
C798 C832 1.395 . S
N799 C795 1.376 . S
N799 C798 1.374 . S
N799 Co800 2.008 . S
Co800 N799 2.008 . S
Co800 N801 1.995 . S
Co800 N806 2.008 . S
Co800 N811 1.995 1_455 S
Co800 N816 2.282 . S
Co800 N822 2.282 1_455 S
N801 Co800 1.995 . S
N801 C802 1.376 . S
N801 C805 1.383 . S
C802 N801 1.376 . S
C802 C803 1.446 . S
C802 C832 1.391 . S
C803 C802 1.446 . S
C803 C804 1.339 . S
C803 H838 0.949 . S
C804 C803 1.339 . S
C804 C805 1.439 . S
C804 H839 0.950 . S
C805 N801 1.383 . S
C805 C804 1.439 . S
C805 C834 1.392 . S
N806 Co800 2.008 . S
N806 C807 1.376 . S
N806 C810 1.374 1_455 S
C807 N806 1.376 . S
C807 C808 1.443 . S
C807 C834 1.389 . S
C808 C807 1.443 . S
C808 C809 1.340 1_455 S
C808 H840 0.951 . S
C809 C808 1.340 1_655 S
C809 C810 1.439 . S
C809 H841 0.950 . S
C810 N806 1.374 1_655 S
C810 C809 1.439 . S
C810 C835 1.395 . S
N811 Co800 1.995 1_655 S
N811 C812 1.376 . S
N811 C815 1.383 . S
C812 N811 1.376 . S
C812 C813 1.446 . S
C812 C835 1.391 . S
C813 C812 1.446 . S
C813 C814 1.339 . S
C813 H842 0.949 . S
C814 C813 1.339 . S
C814 C815 1.439 . S
C814 H843 0.950 . S
C815 N811 1.383 . S
C815 C814 1.439 . S
C815 C833 1.392 . S
N816 Co800 2.282 . S
N816 C819 1.332 . S
N816 C821 1.332 . S
C817 C818 1.386 . S
C817 C820 1.388 . S
C818 C817 1.386 . S
C818 C819 1.382 . S
C818 H844 0.950 . S
C819 N816 1.332 . S
C819 C818 1.382 . S
C819 H830 0.952 . S
C820 C817 1.388 . S
C820 C821 1.382 . S
C820 H845 0.950 . S
C821 N816 1.332 . S
C821 C820 1.382 . S
C821 H831 0.948 . S
N822 Co800 2.282 1_655 S
N822 C826 1.332 . S
N822 C827 1.332 . S
C823 C824 1.388 . S
C823 C827 1.382 . S
C823 H846 0.950 . S
C824 C823 1.388 . S
C824 C825 1.386 . S
C825 C824 1.386 . S
C825 C826 1.382 . S
C825 H847 0.950 . S
C826 N822 1.332 . S
C826 C825 1.382 . S
C826 H828 0.952 1_655 S
C827 N822 1.332 . S
C827 C823 1.382 . S
C827 H829 0.948 . S
H828 C826 0.952 1_455 S
H829 C827 0.948 . S
H830 C819 0.952 . S
H831 C821 0.948 . S
C832 C798 1.395 . S
C832 C802 1.391 . S
C833 C795 1.389 1_655 S
C833 C815 1.392 . S
C834 C805 1.392 . S
C834 C807 1.389 . S
C835 C810 1.395 . S
C835 C812 1.391 . S
H836 C796 0.951 . S
H837 C797 0.950 . S
H838 C803 0.949 . S
H839 C804 0.950 . S
H840 C808 0.951 . S
H841 C809 0.950 . S
H842 C813 0.949 . S
H843 C814 0.950 . S
H844 C818 0.950 . S
H845 C820 0.950 . S
H846 C823 0.950 . S
H847 C825 0.950 . S
C848 C849 1.443 . S
C848 N852 1.376 . S
C848 C886 1.389 . S
C849 C848 1.443 . S
C849 C850 1.340 . S
C849 H889 0.951 . S
C850 C849 1.340 . S
C850 C851 1.439 . S
C850 H890 0.950 . S
C851 C850 1.439 . S
C851 N852 1.374 . S
C851 C885 1.395 . S
N852 C848 1.376 . S
N852 C851 1.374 . S
N852 Co853 2.008 . S
Co853 N852 2.008 . S
Co853 N854 1.995 . S
Co853 N859 2.008 . S
Co853 N864 1.995 . S
Co853 N869 2.282 . S
Co853 N875 2.282 . S
N854 Co853 1.995 . S
N854 C855 1.376 . S
N854 C858 1.383 . S
C855 N854 1.376 . S
C855 C856 1.446 . S
C855 C885 1.391 . S
C856 C855 1.446 . S
C856 C857 1.339 . S
C856 H891 0.949 . S
C857 C856 1.339 . S
C857 C858 1.439 . S
C857 H892 0.950 . S
C858 N854 1.383 . S
C858 C857 1.439 . S
C858 C887 1.392 . S
N859 Co853 2.008 . S
N859 C860 1.376 . S
N859 C863 1.374 . S
C860 N859 1.376 . S
C860 C861 1.443 . S
C860 C887 1.389 . S
C861 C860 1.443 . S
C861 C862 1.340 . S
C861 H893 0.951 . S
C862 C861 1.340 . S
C862 C863 1.439 . S
C862 H894 0.950 . S
C863 N859 1.374 . S
C863 C862 1.439 . S
C863 C888 1.395 . S
N864 Co853 1.995 . S
N864 C865 1.376 . S
N864 C868 1.383 . S
C865 N864 1.376 . S
C865 C866 1.446 . S
C865 C888 1.391 . S
C866 C865 1.446 . S
C866 C867 1.339 . S
C866 H895 0.949 . S
C867 C866 1.339 . S
C867 C868 1.439 . S
C867 H896 0.950 . S
C868 N864 1.383 . S
C868 C867 1.439 . S
C868 C886 1.392 . S
N869 Co853 2.282 . S
N869 C872 1.332 . S
N869 C874 1.332 . S
C870 C871 1.386 . S
C870 C873 1.388 . S
C871 C870 1.386 . S
C871 C872 1.382 . S
C871 H897 0.950 . S
C872 N869 1.332 . S
C872 C871 1.382 . S
C872 H883 0.952 . S
C873 C870 1.388 . S
C873 C874 1.382 . S
C873 H898 0.950 . S
C874 N869 1.332 . S
C874 C873 1.382 . S
C874 H884 0.948 . S
N875 Co853 2.282 . S
N875 C879 1.332 . S
N875 C880 1.332 . S
C876 C877 1.388 . S
C876 C880 1.382 . S
C876 H899 0.950 . S
C877 C876 1.388 . S
C877 C878 1.386 . S
C878 C877 1.386 . S
C878 C879 1.382 . S
C878 H900 0.950 . S
C879 N875 1.332 . S
C879 C878 1.382 . S
C879 H881 0.952 . S
C880 N875 1.332 . S
C880 C876 1.382 . S
C880 H882 0.948 . S
H881 C879 0.952 . S
H882 C880 0.948 . S
H883 C872 0.952 . S
H884 C874 0.948 . S
C885 C851 1.395 . S
C885 C855 1.391 . S
C886 C848 1.389 . S
C886 C868 1.392 . S
C887 C858 1.392 . S
C887 C860 1.389 . S
C888 C863 1.395 . S
C888 C865 1.391 . S
H889 C849 0.951 . S
H890 C850 0.950 . S
H891 C856 0.949 . S
H892 C857 0.950 . S
H893 C861 0.951 . S
H894 C862 0.950 . S
H895 C866 0.949 . S
H896 C867 0.950 . S
H897 C871 0.950 . S
H898 C873 0.950 . S
H899 C876 0.950 . S
H900 C878 0.950 . S
C901 C902 1.443 . S
C901 N905 1.376 . S
C901 C939 1.389 . S
C902 C901 1.443 . S
C902 C903 1.340 . S
C902 H942 0.951 . S
C903 C902 1.340 . S
C903 C904 1.439 . S
C903 H943 0.950 . S
C904 C903 1.439 . S
C904 N905 1.374 . S
C904 C938 1.395 . S
N905 C901 1.376 . S
N905 C904 1.374 . S
N905 Co906 2.008 . S
Co906 N905 2.008 . S
Co906 N907 1.995 . S
Co906 N912 2.008 . S
Co906 N917 1.995 . S
Co906 N922 2.282 . S
Co906 N928 2.282 . S
N907 Co906 1.995 . S
N907 C908 1.376 . S
N907 C911 1.383 . S
C908 N907 1.376 . S
C908 C909 1.446 . S
C908 C938 1.391 . S
C909 C908 1.446 . S
C909 C910 1.339 . S
C909 H944 0.949 . S
C910 C909 1.339 . S
C910 C911 1.439 . S
C910 H945 0.950 . S
C911 N907 1.383 . S
C911 C910 1.439 . S
C911 C940 1.392 . S
N912 Co906 2.008 . S
N912 C913 1.376 . S
N912 C916 1.374 . S
C913 N912 1.376 . S
C913 C914 1.443 . S
C913 C940 1.389 . S
C914 C913 1.443 . S
C914 C915 1.340 . S
C914 H946 0.951 . S
C915 C914 1.340 . S
C915 C916 1.439 . S
C915 H947 0.950 . S
C916 N912 1.374 . S
C916 C915 1.439 . S
C916 C941 1.395 . S
N917 Co906 1.995 . S
N917 C918 1.376 . S
N917 C921 1.383 . S
C918 N917 1.376 . S
C918 C919 1.446 . S
C918 C941 1.391 . S
C919 C918 1.446 . S
C919 C920 1.339 . S
C919 H948 0.949 . S
C920 C919 1.339 . S
C920 C921 1.439 . S
C920 H949 0.950 . S
C921 N917 1.383 . S
C921 C920 1.439 . S
C921 C939 1.392 . S
N922 Co906 2.282 . S
N922 C925 1.332 . S
N922 C927 1.332 . S
C923 C924 1.386 . S
C923 C926 1.388 . S
C924 C923 1.386 . S
C924 C925 1.382 . S
C924 H950 0.950 . S
C925 N922 1.332 . S
C925 C924 1.382 . S
C925 H936 0.952 . S
C926 C923 1.388 . S
C926 C927 1.382 . S
C926 H951 0.950 . S
C927 N922 1.332 . S
C927 C926 1.382 . S
C927 H937 0.948 . S
N928 Co906 2.282 . S
N928 C932 1.332 . S
N928 C933 1.332 . S
C929 C930 1.388 . S
C929 C933 1.382 . S
C929 H952 0.950 . S
C930 C929 1.388 . S
C930 C931 1.386 . S
C931 C930 1.386 . S
C931 C932 1.382 . S
C931 H953 0.950 . S
C932 N928 1.332 . S
C932 C931 1.382 . S
C932 H934 0.952 . S
C933 N928 1.332 . S
C933 C929 1.382 . S
C933 H935 0.948 . S
H934 C932 0.952 . S
H935 C933 0.948 . S
H936 C925 0.952 . S
H937 C927 0.948 . S
C938 C904 1.395 . S
C938 C908 1.391 . S
C939 C901 1.389 . S
C939 C921 1.392 . S
C940 C911 1.392 . S
C940 C913 1.389 . S
C941 C916 1.395 . S
C941 C918 1.391 . S
H942 C902 0.951 . S
H943 C903 0.950 . S
H944 C909 0.949 . S
H945 C910 0.950 . S
H946 C914 0.951 . S
H947 C915 0.950 . S
H948 C919 0.949 . S
H949 C920 0.950 . S
H950 C924 0.950 . S
H951 C926 0.950 . S
H952 C929 0.950 . S
H953 C931 0.950 . S
C954 C955 1.443 . S
C954 N958 1.376 . S
C954 C992 1.389 . S
C955 C954 1.443 . S
C955 C956 1.340 . S
C955 H995 0.951 . S
C956 C955 1.340 . S
C956 C957 1.439 . S
C956 H996 0.950 . S
C957 C956 1.439 . S
C957 N958 1.374 . S
C957 C991 1.395 . S
N958 C954 1.376 . S
N958 C957 1.374 . S
N958 Co959 2.008 . S
Co959 N958 2.008 . S
Co959 N960 1.995 . S
Co959 N965 2.008 . S
Co959 N970 1.995 . S
Co959 N975 2.282 . S
Co959 N981 2.282 . S
N960 Co959 1.995 . S
N960 C961 1.376 . S
N960 C964 1.383 . S
C961 N960 1.376 . S
C961 C962 1.446 . S
C961 C991 1.391 . S
C962 C961 1.446 . S
C962 C963 1.339 . S
C962 H997 0.949 . S
C963 C962 1.339 . S
C963 C964 1.439 . S
C963 H998 0.950 . S
C964 N960 1.383 . S
C964 C963 1.439 . S
C964 C993 1.392 . S
N965 Co959 2.008 . S
N965 C966 1.376 . S
N965 C969 1.374 . S
C966 N965 1.376 . S
C966 C967 1.443 . S
C966 C993 1.389 . S
C967 C966 1.443 . S
C967 C968 1.340 . S
C967 H999 0.951 . S
C968 C967 1.340 . S
C968 C969 1.439 . S
C968 H1000 0.950 . S
C969 N965 1.374 . S
C969 C968 1.439 . S
C969 C994 1.395 . S
N970 Co959 1.995 . S
N970 C971 1.376 . S
N970 C974 1.383 . S
C971 N970 1.376 . S
C971 C972 1.446 . S
C971 C994 1.391 . S
C972 C971 1.446 . S
C972 C973 1.339 . S
C972 H1001 0.949 . S
C973 C972 1.339 . S
C973 C974 1.439 . S
C973 H1002 0.950 . S
C974 N970 1.383 . S
C974 C973 1.439 . S
C974 C992 1.392 . S
N975 Co959 2.282 . S
N975 C978 1.332 . S
N975 C980 1.332 . S
C976 C977 1.386 . S
C976 C979 1.388 . S
C977 C976 1.386 . S
C977 C978 1.382 . S
C977 H1003 0.950 . S
C978 N975 1.332 . S
C978 C977 1.382 . S
C978 H989 0.952 . S
C979 C976 1.388 . S
C979 C980 1.382 . S
C979 H1004 0.950 . S
C980 N975 1.332 . S
C980 C979 1.382 . S
C980 H990 0.948 . S
N981 Co959 2.282 . S
N981 C985 1.332 . S
N981 C986 1.332 . S
C982 C983 1.388 . S
C982 C986 1.382 . S
C982 H1005 0.950 . S
C983 C982 1.388 . S
C983 C984 1.386 . S
C984 C983 1.386 . S
C984 C985 1.382 . S
C984 H1006 0.950 . S
C985 N981 1.332 . S
C985 C984 1.382 . S
C985 H987 0.952 . S
C986 N981 1.332 . S
C986 C982 1.382 . S
C986 H988 0.948 . S
H987 C985 0.952 . S
H988 C986 0.948 . S
H989 C978 0.952 . S
H990 C980 0.948 . S
C991 C957 1.395 . S
C991 C961 1.391 . S
C992 C954 1.389 . S
C992 C974 1.392 . S
C993 C964 1.392 . S
C993 C966 1.389 . S
C994 C969 1.395 . S
C994 C971 1.391 . S
H995 C955 0.951 . S
H996 C956 0.950 . S
H997 C962 0.949 . S
H998 C963 0.950 . S
H999 C967 0.951 . S
H1000 C968 0.950 . S
H1001 C972 0.949 . S
H1002 C973 0.950 . S
H1003 C977 0.950 . S
H1004 C979 0.950 . S
H1005 C982 0.950 . S
H1006 C984 0.950 . S
C1007 C1008 1.443 . S
C1007 N1011 1.376 . S
C1007 C1045 1.389 . S
C1008 C1007 1.443 . S
C1008 C1009 1.340 . S
C1008 H1048 0.951 . S
C1009 C1008 1.340 . S
C1009 C1010 1.439 . S
C1009 H1049 0.950 . S
C1010 C1009 1.439 . S
C1010 N1011 1.374 . S
C1010 C1044 1.395 . S
N1011 C1007 1.376 . S
N1011 C1010 1.374 . S
N1011 Co1012 2.008 . S
Co1012 N1011 2.008 . S
Co1012 N1013 1.995 . S
Co1012 N1018 2.008 . S
Co1012 N1023 1.995 . S
Co1012 N1028 2.282 . S
Co1012 N1034 2.282 . S
N1013 Co1012 1.995 . S
N1013 C1014 1.376 . S
N1013 C1017 1.383 . S
C1014 N1013 1.376 . S
C1014 C1015 1.446 . S
C1014 C1044 1.391 . S
C1015 C1014 1.446 . S
C1015 C1016 1.339 . S
C1015 H1050 0.949 . S
C1016 C1015 1.339 . S
C1016 C1017 1.439 . S
C1016 H1051 0.950 . S
C1017 N1013 1.383 . S
C1017 C1016 1.439 . S
C1017 C1046 1.392 . S
N1018 Co1012 2.008 . S
N1018 C1019 1.376 . S
N1018 C1022 1.374 . S
C1019 N1018 1.376 . S
C1019 C1020 1.443 . S
C1019 C1046 1.389 . S
C1020 C1019 1.443 . S
C1020 C1021 1.340 . S
C1020 H1052 0.951 . S
C1021 C1020 1.340 . S
C1021 C1022 1.439 . S
C1021 H1053 0.950 . S
C1022 N1018 1.374 . S
C1022 C1021 1.439 . S
C1022 C1047 1.395 . S
N1023 Co1012 1.995 . S
N1023 C1024 1.376 . S
N1023 C1027 1.383 . S
C1024 N1023 1.376 . S
C1024 C1025 1.446 . S
C1024 C1047 1.391 . S
C1025 C1024 1.446 . S
C1025 C1026 1.339 . S
C1025 H1054 0.949 . S
C1026 C1025 1.339 . S
C1026 C1027 1.439 . S
C1026 H1055 0.950 . S
C1027 N1023 1.383 . S
C1027 C1026 1.439 . S
C1027 C1045 1.392 . S
N1028 Co1012 2.282 . S
N1028 C1031 1.332 . S
N1028 C1033 1.332 . S
C1029 C1030 1.386 . S
C1029 C1032 1.388 . S
C1030 C1029 1.386 . S
C1030 C1031 1.382 . S
C1030 H1056 0.950 . S
C1031 N1028 1.332 . S
C1031 C1030 1.382 . S
C1031 H1042 0.952 . S
C1032 C1029 1.388 . S
C1032 C1033 1.382 . S
C1032 H1057 0.950 . S
C1033 N1028 1.332 . S
C1033 C1032 1.382 . S
C1033 H1043 0.948 . S
N1034 Co1012 2.282 . S
N1034 C1038 1.332 . S
N1034 C1039 1.332 . S
C1035 C1036 1.388 . S
C1035 C1039 1.382 . S
C1035 H1058 0.950 . S
C1036 C1035 1.388 . S
C1036 C1037 1.386 . S
C1037 C1036 1.386 . S
C1037 C1038 1.382 . S
C1037 H1059 0.950 . S
C1038 N1034 1.332 . S
C1038 C1037 1.382 . S
C1038 H1040 0.952 . S
C1039 N1034 1.332 . S
C1039 C1035 1.382 . S
C1039 H1041 0.948 . S
H1040 C1038 0.952 . S
H1041 C1039 0.948 . S
H1042 C1031 0.952 . S
H1043 C1033 0.948 . S
C1044 C1010 1.395 . S
C1044 C1014 1.391 . S
C1045 C1007 1.389 . S
C1045 C1027 1.392 . S
C1046 C1017 1.392 . S
C1046 C1019 1.389 . S
C1047 C1022 1.395 . S
C1047 C1024 1.391 . S
H1048 C1008 0.951 . S
H1049 C1009 0.950 . S
H1050 C1015 0.949 . S
H1051 C1016 0.950 . S
H1052 C1020 0.951 . S
H1053 C1021 0.950 . S
H1054 C1025 0.949 . S
H1055 C1026 0.950 . S
H1056 C1030 0.950 . S
H1057 C1032 0.950 . S
H1058 C1035 0.950 . S
H1059 C1037 0.950 . S
C1060 C1061 1.443 . S
C1060 N1064 1.376 . S
C1060 C1098 1.389 . S
C1061 C1060 1.443 . S
C1061 C1062 1.340 . S
C1061 H1101 0.951 . S
C1062 C1061 1.340 . S
C1062 C1063 1.439 . S
C1062 H1102 0.950 . S
C1063 C1062 1.439 . S
C1063 N1064 1.374 . S
C1063 C1097 1.395 . S
N1064 C1060 1.376 . S
N1064 C1063 1.374 . S
N1064 Co1065 2.008 . S
Co1065 N1064 2.008 . S
Co1065 N1066 1.995 . S
Co1065 N1071 2.008 . S
Co1065 N1076 1.995 . S
Co1065 N1081 2.282 . S
Co1065 N1087 2.282 . S
N1066 Co1065 1.995 . S
N1066 C1067 1.376 . S
N1066 C1070 1.383 . S
C1067 N1066 1.376 . S
C1067 C1068 1.446 . S
C1067 C1097 1.391 . S
C1068 C1067 1.446 . S
C1068 C1069 1.339 . S
C1068 H1103 0.949 . S
C1069 C1068 1.339 . S
C1069 C1070 1.439 . S
C1069 H1104 0.950 . S
C1070 N1066 1.383 . S
C1070 C1069 1.439 . S
C1070 C1099 1.392 . S
N1071 Co1065 2.008 . S
N1071 C1072 1.376 . S
N1071 C1075 1.374 . S
C1072 N1071 1.376 . S
C1072 C1073 1.443 . S
C1072 C1099 1.389 . S
C1073 C1072 1.443 . S
C1073 C1074 1.340 . S
C1073 H1105 0.951 . S
C1074 C1073 1.340 . S
C1074 C1075 1.439 . S
C1074 H1106 0.950 . S
C1075 N1071 1.374 . S
C1075 C1074 1.439 . S
C1075 C1100 1.395 . S
N1076 Co1065 1.995 . S
N1076 C1077 1.376 . S
N1076 C1080 1.383 . S
C1077 N1076 1.376 . S
C1077 C1078 1.446 . S
C1077 C1100 1.391 . S
C1078 C1077 1.446 . S
C1078 C1079 1.339 . S
C1078 H1107 0.949 . S
C1079 C1078 1.339 . S
C1079 C1080 1.439 . S
C1079 H1108 0.950 . S
C1080 N1076 1.383 . S
C1080 C1079 1.439 . S
C1080 C1098 1.392 . S
N1081 Co1065 2.282 . S
N1081 C1084 1.332 . S
N1081 C1086 1.332 . S
C1082 C1083 1.386 . S
C1082 C1085 1.388 . S
C1083 C1082 1.386 . S
C1083 C1084 1.382 . S
C1083 H1109 0.950 . S
C1084 N1081 1.332 . S
C1084 C1083 1.382 . S
C1084 H1095 0.952 . S
C1085 C1082 1.388 . S
C1085 C1086 1.382 . S
C1085 H1110 0.950 . S
C1086 N1081 1.332 . S
C1086 C1085 1.382 . S
C1086 H1096 0.948 . S
N1087 Co1065 2.282 . S
N1087 C1091 1.332 . S
N1087 C1092 1.332 . S
C1088 C1089 1.388 . S
C1088 C1092 1.382 . S
C1088 H1111 0.950 . S
C1089 C1088 1.388 . S
C1089 C1090 1.386 . S
C1090 C1089 1.386 . S
C1090 C1091 1.382 . S
C1090 H1112 0.950 . S
C1091 N1087 1.332 . S
C1091 C1090 1.382 . S
C1091 H1093 0.952 . S
C1092 N1087 1.332 . S
C1092 C1088 1.382 . S
C1092 H1094 0.948 . S
H1093 C1091 0.952 . S
H1094 C1092 0.948 . S
H1095 C1084 0.952 . S
H1096 C1086 0.948 . S
C1097 C1063 1.395 . S
C1097 C1067 1.391 . S
C1098 C1060 1.389 . S
C1098 C1080 1.392 . S
C1099 C1070 1.392 . S
C1099 C1072 1.389 . S
C1100 C1075 1.395 . S
C1100 C1077 1.391 . S
H1101 C1061 0.951 . S
H1102 C1062 0.950 . S
H1103 C1068 0.949 . S
H1104 C1069 0.950 . S
H1105 C1073 0.951 . S
H1106 C1074 0.950 . S
H1107 C1078 0.949 . S
H1108 C1079 0.950 . S
H1109 C1083 0.950 . S
H1110 C1085 0.950 . S
H1111 C1088 0.950 . S
H1112 C1090 0.950 . S
C1113 C1114 1.443 . S
C1113 N1117 1.376 . S
C1113 C1151 1.389 . S
C1114 C1113 1.443 . S
C1114 C1115 1.340 . S
C1114 H1154 0.951 . S
C1115 C1114 1.340 . S
C1115 C1116 1.439 . S
C1115 H1155 0.950 . S
C1116 C1115 1.439 . S
C1116 N1117 1.374 . S
C1116 C1150 1.395 . S
N1117 C1113 1.376 . S
N1117 C1116 1.374 . S
N1117 Co1118 2.008 . S
Co1118 N1117 2.008 . S
Co1118 N1119 1.995 . S
Co1118 N1124 2.008 . S
Co1118 N1129 1.995 . S
Co1118 N1134 2.282 . S
Co1118 N1140 2.282 . S
N1119 Co1118 1.995 . S
N1119 C1120 1.376 . S
N1119 C1123 1.383 . S
C1120 N1119 1.376 . S
C1120 C1121 1.446 . S
C1120 C1150 1.391 . S
C1121 C1120 1.446 . S
C1121 C1122 1.339 . S
C1121 H1156 0.949 . S
C1122 C1121 1.339 . S
C1122 C1123 1.439 . S
C1122 H1157 0.950 . S
C1123 N1119 1.383 . S
C1123 C1122 1.439 . S
C1123 C1152 1.392 . S
N1124 Co1118 2.008 . S
N1124 C1125 1.376 . S
N1124 C1128 1.374 . S
C1125 N1124 1.376 . S
C1125 C1126 1.443 . S
C1125 C1152 1.389 . S
C1126 C1125 1.443 . S
C1126 C1127 1.340 . S
C1126 H1158 0.951 . S
C1127 C1126 1.340 . S
C1127 C1128 1.439 . S
C1127 H1159 0.950 . S
C1128 N1124 1.374 . S
C1128 C1127 1.439 . S
C1128 C1153 1.395 . S
N1129 Co1118 1.995 . S
N1129 C1130 1.376 . S
N1129 C1133 1.383 . S
C1130 N1129 1.376 . S
C1130 C1131 1.446 . S
C1130 C1153 1.391 . S
C1131 C1130 1.446 . S
C1131 C1132 1.339 . S
C1131 H1160 0.949 . S
C1132 C1131 1.339 . S
C1132 C1133 1.439 . S
C1132 H1161 0.950 . S
C1133 N1129 1.383 . S
C1133 C1132 1.439 . S
C1133 C1151 1.392 . S
N1134 Co1118 2.282 . S
N1134 C1137 1.332 . S
N1134 C1139 1.332 . S
C1135 C1136 1.386 . S
C1135 C1138 1.388 . S
C1136 C1135 1.386 . S
C1136 C1137 1.382 . S
C1136 H1162 0.950 . S
C1137 N1134 1.332 . S
C1137 C1136 1.382 . S
C1137 H1148 0.952 . S
C1138 C1135 1.388 . S
C1138 C1139 1.382 . S
C1138 H1163 0.950 . S
C1139 N1134 1.332 . S
C1139 C1138 1.382 . S
C1139 H1149 0.948 . S
N1140 Co1118 2.282 . S
N1140 C1144 1.332 . S
N1140 C1145 1.332 . S
C1141 C1142 1.388 . S
C1141 C1145 1.382 . S
C1141 H1164 0.950 . S
C1142 C1141 1.388 . S
C1142 C1143 1.386 . S
C1143 C1142 1.386 . S
C1143 C1144 1.382 . S
C1143 H1165 0.950 . S
C1144 N1140 1.332 . S
C1144 C1143 1.382 . S
C1144 H1146 0.952 . S
C1145 N1140 1.332 . S
C1145 C1141 1.382 . S
C1145 H1147 0.948 . S
H1146 C1144 0.952 . S
H1147 C1145 0.948 . S
H1148 C1137 0.952 . S
H1149 C1139 0.948 . S
C1150 C1116 1.395 . S
C1150 C1120 1.391 . S
C1151 C1113 1.389 . S
C1151 C1133 1.392 . S
C1152 C1123 1.392 . S
C1152 C1125 1.389 . S
C1153 C1128 1.395 . S
C1153 C1130 1.391 . S
H1154 C1114 0.951 . S
H1155 C1115 0.950 . S
H1156 C1121 0.949 . S
H1157 C1122 0.950 . S
H1158 C1126 0.951 . S
H1159 C1127 0.950 . S
H1160 C1131 0.949 . S
H1161 C1132 0.950 . S
H1162 C1136 0.950 . S
H1163 C1138 0.950 . S
H1164 C1141 0.950 . S
H1165 C1143 0.950 . S
C1166 C1167 1.443 . S
C1166 N1170 1.376 . S
C1166 C1204 1.389 . S
C1167 C1166 1.443 . S
C1167 C1168 1.340 . S
C1167 H1207 0.951 . S
C1168 C1167 1.340 . S
C1168 C1169 1.439 . S
C1168 H1208 0.950 . S
C1169 C1168 1.439 . S
C1169 N1170 1.374 . S
C1169 C1203 1.395 . S
N1170 C1166 1.376 . S
N1170 C1169 1.374 . S
N1170 Co1171 2.008 . S
Co1171 N1170 2.008 . S
Co1171 N1172 1.995 . S
Co1171 N1177 2.008 . S
Co1171 N1182 1.995 . S
Co1171 N1187 2.282 . S
Co1171 N1193 2.282 . S
N1172 Co1171 1.995 . S
N1172 C1173 1.376 . S
N1172 C1176 1.383 . S
C1173 N1172 1.376 . S
C1173 C1174 1.446 . S
C1173 C1203 1.391 . S
C1174 C1173 1.446 . S
C1174 C1175 1.339 . S
C1174 H1209 0.949 . S
C1175 C1174 1.339 . S
C1175 C1176 1.439 . S
C1175 H1210 0.950 . S
C1176 N1172 1.383 . S
C1176 C1175 1.439 . S
C1176 C1205 1.392 . S
N1177 Co1171 2.008 . S
N1177 C1178 1.376 . S
N1177 C1181 1.374 . S
C1178 N1177 1.376 . S
C1178 C1179 1.443 . S
C1178 C1205 1.389 . S
C1179 C1178 1.443 . S
C1179 C1180 1.340 . S
C1179 H1211 0.951 . S
C1180 C1179 1.340 . S
C1180 C1181 1.439 . S
C1180 H1212 0.950 . S
C1181 N1177 1.374 . S
C1181 C1180 1.439 . S
C1181 C1206 1.395 . S
N1182 Co1171 1.995 . S
N1182 C1183 1.376 . S
N1182 C1186 1.383 . S
C1183 N1182 1.376 . S
C1183 C1184 1.446 . S
C1183 C1206 1.391 . S
C1184 C1183 1.446 . S
C1184 C1185 1.339 . S
C1184 H1213 0.949 . S
C1185 C1184 1.339 . S
C1185 C1186 1.439 . S
C1185 H1214 0.950 . S
C1186 N1182 1.383 . S
C1186 C1185 1.439 . S
C1186 C1204 1.392 . S
N1187 Co1171 2.282 . S
N1187 C1190 1.332 . S
N1187 C1192 1.332 . S
C1188 C1189 1.386 . S
C1188 C1191 1.388 . S
C1189 C1188 1.386 . S
C1189 C1190 1.382 . S
C1189 H1215 0.950 . S
C1190 N1187 1.332 . S
C1190 C1189 1.382 . S
C1190 H1201 0.952 . S
C1191 C1188 1.388 . S
C1191 C1192 1.382 . S
C1191 H1216 0.950 . S
C1192 N1187 1.332 . S
C1192 C1191 1.382 . S
C1192 H1202 0.948 . S
N1193 Co1171 2.282 . S
N1193 C1197 1.332 . S
N1193 C1198 1.332 . S
C1194 C1195 1.388 . S
C1194 C1198 1.382 . S
C1194 H1217 0.950 . S
C1195 C1194 1.388 . S
C1195 C1196 1.386 . S
C1196 C1195 1.386 . S
C1196 C1197 1.382 . S
C1196 H1218 0.950 . S
C1197 N1193 1.332 . S
C1197 C1196 1.382 . S
C1197 H1199 0.952 . S
C1198 N1193 1.332 . S
C1198 C1194 1.382 . S
C1198 H1200 0.948 . S
H1199 C1197 0.952 . S
H1200 C1198 0.948 . S
H1201 C1190 0.952 . S
H1202 C1192 0.948 . S
C1203 C1169 1.395 . S
C1203 C1173 1.391 . S
C1204 C1166 1.389 . S
C1204 C1186 1.392 . S
C1205 C1176 1.392 . S
C1205 C1178 1.389 . S
C1206 C1181 1.395 . S
C1206 C1183 1.391 . S
H1207 C1167 0.951 . S
H1208 C1168 0.950 . S
H1209 C1174 0.949 . S
H1210 C1175 0.950 . S
H1211 C1179 0.951 . S
H1212 C1180 0.950 . S
H1213 C1184 0.949 . S
H1214 C1185 0.950 . S
H1215 C1189 0.950 . S
H1216 C1191 0.950 . S
H1217 C1194 0.950 . S
H1218 C1196 0.950 . S
C1219 C1220 1.443 . S
C1219 N1223 1.376 . S
C1219 C1257 1.389 . S
C1220 C1219 1.443 . S
C1220 C1221 1.340 . S
C1220 H1260 0.951 . S
C1221 C1220 1.340 . S
C1221 C1222 1.439 . S
C1221 H1261 0.950 . S
C1222 C1221 1.439 . S
C1222 N1223 1.374 . S
C1222 C1256 1.395 . S
N1223 C1219 1.376 . S
N1223 C1222 1.374 . S
N1223 Co1224 2.008 . S
Co1224 N1223 2.008 . S
Co1224 N1225 1.995 . S
Co1224 N1230 2.008 . S
Co1224 N1235 1.995 . S
Co1224 N1240 2.282 . S
Co1224 N1246 2.282 . S
N1225 Co1224 1.995 . S
N1225 C1226 1.376 . S
N1225 C1229 1.383 . S
C1226 N1225 1.376 . S
C1226 C1227 1.446 . S
C1226 C1256 1.391 . S
C1227 C1226 1.446 . S
C1227 C1228 1.339 . S
C1227 H1262 0.949 . S
C1228 C1227 1.339 . S
C1228 C1229 1.439 . S
C1228 H1263 0.950 . S
C1229 N1225 1.383 . S
C1229 C1228 1.439 . S
C1229 C1258 1.392 . S
N1230 Co1224 2.008 . S
N1230 C1231 1.376 . S
N1230 C1234 1.374 . S
C1231 N1230 1.376 . S
C1231 C1232 1.443 . S
C1231 C1258 1.389 . S
C1232 C1231 1.443 . S
C1232 C1233 1.340 . S
C1232 H1264 0.951 . S
C1233 C1232 1.340 . S
C1233 C1234 1.439 . S
C1233 H1265 0.950 . S
C1234 N1230 1.374 . S
C1234 C1233 1.439 . S
C1234 C1259 1.395 . S
N1235 Co1224 1.995 . S
N1235 C1236 1.376 . S
N1235 C1239 1.383 . S
C1236 N1235 1.376 . S
C1236 C1237 1.446 . S
C1236 C1259 1.391 . S
C1237 C1236 1.446 . S
C1237 C1238 1.339 . S
C1237 H1266 0.949 . S
C1238 C1237 1.339 . S
C1238 C1239 1.439 . S
C1238 H1267 0.950 . S
C1239 N1235 1.383 . S
C1239 C1238 1.439 . S
C1239 C1257 1.392 . S
N1240 Co1224 2.282 . S
N1240 C1243 1.332 . S
N1240 C1245 1.332 . S
C1241 C1242 1.386 . S
C1241 C1244 1.388 . S
C1242 C1241 1.386 . S
C1242 C1243 1.382 . S
C1242 H1268 0.950 . S
C1243 N1240 1.332 . S
C1243 C1242 1.382 . S
C1243 H1254 0.952 . S
C1244 C1241 1.388 . S
C1244 C1245 1.382 . S
C1244 H1269 0.950 . S
C1245 N1240 1.332 . S
C1245 C1244 1.382 . S
C1245 H1255 0.948 . S
N1246 Co1224 2.282 . S
N1246 C1250 1.332 . S
N1246 C1251 1.332 . S
C1247 C1248 1.388 . S
C1247 C1251 1.382 . S
C1247 H1270 0.950 . S
C1248 C1247 1.388 . S
C1248 C1249 1.386 . S
C1249 C1248 1.386 . S
C1249 C1250 1.382 . S
C1249 H1271 0.950 . S
C1250 N1246 1.332 . S
C1250 C1249 1.382 . S
C1250 H1252 0.952 . S
C1251 N1246 1.332 . S
C1251 C1247 1.382 . S
C1251 H1253 0.948 . S
H1252 C1250 0.952 . S
H1253 C1251 0.948 . S
H1254 C1243 0.952 . S
H1255 C1245 0.948 . S
C1256 C1222 1.395 . S
C1256 C1226 1.391 . S
C1257 C1219 1.389 . S
C1257 C1239 1.392 . S
C1258 C1229 1.392 . S
C1258 C1231 1.389 . S
C1259 C1234 1.395 . S
C1259 C1236 1.391 . S
H1260 C1220 0.951 . S
H1261 C1221 0.950 . S
H1262 C1227 0.949 . S
H1263 C1228 0.950 . S
H1264 C1232 0.951 . S
H1265 C1233 0.950 . S
H1266 C1237 0.949 . S
H1267 C1238 0.950 . S
H1268 C1242 0.950 . S
H1269 C1244 0.950 . S
H1270 C1247 0.950 . S
H1271 C1249 0.950 . S
C1272 C1273 1.443 . S
C1272 N1276 1.376 . S
C1272 C1310 1.389 . S
C1273 C1272 1.443 . S
C1273 C1274 1.340 . S
C1273 H1313 0.951 . S
C1274 C1273 1.340 . S
C1274 C1275 1.439 . S
C1274 H1314 0.950 . S
C1275 C1274 1.439 . S
C1275 N1276 1.374 . S
C1275 C1309 1.395 1_554 S
N1276 C1272 1.376 . S
N1276 C1275 1.374 . S
N1276 Co1277 2.008 . S
Co1277 N1276 2.008 . S
Co1277 N1278 1.995 1_554 S
Co1277 N1283 2.008 1_554 S
Co1277 N1288 1.995 . S
Co1277 N1293 2.282 . S
Co1277 N1299 2.282 . S
N1278 Co1277 1.995 1_556 S
N1278 C1279 1.376 . S
N1278 C1282 1.383 . S
C1279 N1278 1.376 . S
C1279 C1280 1.446 . S
C1279 C1309 1.391 . S
C1280 C1279 1.446 . S
C1280 C1281 1.339 . S
C1280 H1315 0.949 . S
C1281 C1280 1.339 . S
C1281 C1282 1.439 . S
C1281 H1316 0.950 . S
C1282 N1278 1.383 . S
C1282 C1281 1.439 . S
C1282 C1311 1.392 . S
N1283 Co1277 2.008 1_556 S
N1283 C1284 1.376 . S
N1283 C1287 1.374 1_556 S
C1284 N1283 1.376 . S
C1284 C1285 1.443 . S
C1284 C1311 1.389 . S
C1285 C1284 1.443 . S
C1285 C1286 1.340 . S
C1285 H1317 0.951 . S
C1286 C1285 1.340 . S
C1286 C1287 1.439 1_556 S
C1286 H1318 0.950 . S
C1287 N1283 1.374 1_554 S
C1287 C1286 1.439 1_554 S
C1287 C1312 1.395 . S
N1288 Co1277 1.995 . S
N1288 C1289 1.376 . S
N1288 C1292 1.383 . S
C1289 N1288 1.376 . S
C1289 C1290 1.446 . S
C1289 C1312 1.391 . S
C1290 C1289 1.446 . S
C1290 C1291 1.339 . S
C1290 H1319 0.949 . S
C1291 C1290 1.339 . S
C1291 C1292 1.439 . S
C1291 H1320 0.950 . S
C1292 N1288 1.383 . S
C1292 C1291 1.439 . S
C1292 C1310 1.392 . S
N1293 Co1277 2.282 . S
N1293 C1296 1.332 . S
N1293 C1298 1.332 1_554 S
C1294 C1295 1.386 . S
C1294 C1297 1.388 1_554 S
C1295 C1294 1.386 . S
C1295 C1296 1.382 . S
C1295 H1321 0.950 . S
C1296 N1293 1.332 . S
C1296 C1295 1.382 . S
C1296 H1307 0.952 . S
C1297 C1294 1.388 1_556 S
C1297 C1298 1.382 . S
C1297 H1322 0.950 . S
C1298 N1293 1.332 1_556 S
C1298 C1297 1.382 . S
C1298 H1308 0.948 . S
N1299 Co1277 2.282 . S
N1299 C1303 1.332 1_554 S
N1299 C1304 1.332 . S
C1300 C1301 1.388 . S
C1300 C1304 1.382 . S
C1300 H1323 0.950 . S
C1301 C1300 1.388 . S
C1301 C1302 1.386 1_554 S
C1302 C1301 1.386 1_556 S
C1302 C1303 1.382 . S
C1302 H1324 0.950 . S
C1303 N1299 1.332 1_556 S
C1303 C1302 1.382 . S
C1303 H1305 0.952 . S
C1304 N1299 1.332 . S
C1304 C1300 1.382 . S
C1304 H1306 0.948 . S
H1305 C1303 0.952 . S
H1306 C1304 0.948 . S
H1307 C1296 0.952 . S
H1308 C1298 0.948 . S
C1309 C1275 1.395 1_556 S
C1309 C1279 1.391 . S
C1310 C1272 1.389 . S
C1310 C1292 1.392 . S
C1311 C1282 1.392 . S
C1311 C1284 1.389 . S
C1312 C1287 1.395 . S
C1312 C1289 1.391 . S
H1313 C1273 0.951 . S
H1314 C1274 0.950 . S
H1315 C1280 0.949 . S
H1316 C1281 0.950 . S
H1317 C1285 0.951 . S
H1318 C1286 0.950 . S
H1319 C1290 0.949 . S
H1320 C1291 0.950 . S
H1321 C1295 0.950 . S
H1322 C1297 0.950 . S
H1323 C1300 0.950 . S
H1324 C1302 0.950 . S
C1325 C1326 1.443 . S
C1325 N1329 1.376 . S
C1325 C1363 1.389 . S
C1326 C1325 1.443 . S
C1326 C1327 1.340 . S
C1326 H1366 0.951 . S
C1327 C1326 1.340 . S
C1327 C1328 1.439 . S
C1327 H1367 0.950 . S
C1328 C1327 1.439 . S
C1328 N1329 1.374 . S
C1328 C1362 1.395 1_554 S
N1329 C1325 1.376 . S
N1329 C1328 1.374 . S
N1329 Co1330 2.008 . S
Co1330 N1329 2.008 . S
Co1330 N1331 1.995 1_554 S
Co1330 N1336 2.008 1_554 S
Co1330 N1341 1.995 . S
Co1330 N1346 2.282 . S
Co1330 N1352 2.282 . S
N1331 Co1330 1.995 1_556 S
N1331 C1332 1.376 . S
N1331 C1335 1.383 . S
C1332 N1331 1.376 . S
C1332 C1333 1.446 . S
C1332 C1362 1.391 . S
C1333 C1332 1.446 . S
C1333 C1334 1.339 . S
C1333 H1368 0.949 . S
C1334 C1333 1.339 . S
C1334 C1335 1.439 . S
C1334 H1369 0.950 . S
C1335 N1331 1.383 . S
C1335 C1334 1.439 . S
C1335 C1364 1.392 . S
N1336 Co1330 2.008 1_556 S
N1336 C1337 1.376 . S
N1336 C1340 1.374 1_556 S
C1337 N1336 1.376 . S
C1337 C1338 1.443 . S
C1337 C1364 1.389 . S
C1338 C1337 1.443 . S
C1338 C1339 1.340 . S
C1338 H1370 0.951 . S
C1339 C1338 1.340 . S
C1339 C1340 1.439 1_556 S
C1339 H1371 0.950 . S
C1340 N1336 1.374 1_554 S
C1340 C1339 1.439 1_554 S
C1340 C1365 1.395 . S
N1341 Co1330 1.995 . S
N1341 C1342 1.376 . S
N1341 C1345 1.383 . S
C1342 N1341 1.376 . S
C1342 C1343 1.446 . S
C1342 C1365 1.391 . S
C1343 C1342 1.446 . S
C1343 C1344 1.339 . S
C1343 H1372 0.949 . S
C1344 C1343 1.339 . S
C1344 C1345 1.439 . S
C1344 H1373 0.950 . S
C1345 N1341 1.383 . S
C1345 C1344 1.439 . S
C1345 C1363 1.392 . S
N1346 Co1330 2.282 . S
N1346 C1349 1.332 . S
N1346 C1351 1.332 1_554 S
C1347 C1348 1.386 . S
C1347 C1350 1.388 1_554 S
C1348 C1347 1.386 . S
C1348 C1349 1.382 . S
C1348 H1374 0.950 . S
C1349 N1346 1.332 . S
C1349 C1348 1.382 . S
C1349 H1360 0.952 . S
C1350 C1347 1.388 1_556 S
C1350 C1351 1.382 . S
C1350 H1375 0.950 . S
C1351 N1346 1.332 1_556 S
C1351 C1350 1.382 . S
C1351 H1361 0.948 . S
N1352 Co1330 2.282 . S
N1352 C1356 1.332 1_554 S
N1352 C1357 1.332 . S
C1353 C1354 1.388 . S
C1353 C1357 1.382 . S
C1353 H1376 0.950 . S
C1354 C1353 1.388 . S
C1354 C1355 1.386 1_554 S
C1355 C1354 1.386 1_556 S
C1355 C1356 1.382 . S
C1355 H1377 0.950 . S
C1356 N1352 1.332 1_556 S
C1356 C1355 1.382 . S
C1356 H1358 0.952 . S
C1357 N1352 1.332 . S
C1357 C1353 1.382 . S
C1357 H1359 0.948 . S
H1358 C1356 0.952 . S
H1359 C1357 0.948 . S
H1360 C1349 0.952 . S
H1361 C1351 0.948 . S
C1362 C1328 1.395 1_556 S
C1362 C1332 1.391 . S
C1363 C1325 1.389 . S
C1363 C1345 1.392 . S
C1364 C1335 1.392 . S
C1364 C1337 1.389 . S
C1365 C1340 1.395 . S
C1365 C1342 1.391 . S
H1366 C1326 0.951 . S
H1367 C1327 0.950 . S
H1368 C1333 0.949 . S
H1369 C1334 0.950 . S
H1370 C1338 0.951 . S
H1371 C1339 0.950 . S
H1372 C1343 0.949 . S
H1373 C1344 0.950 . S
H1374 C1348 0.950 . S
H1375 C1350 0.950 . S
H1376 C1353 0.950 . S
H1377 C1355 0.950 . S
C1378 C1379 1.443 . S
C1378 N1382 1.376 . S
C1378 C1416 1.389 . S
C1379 C1378 1.443 . S
C1379 C1380 1.340 . S
C1379 H1419 0.951 . S
C1380 C1379 1.340 . S
C1380 C1381 1.439 . S
C1380 H1420 0.950 . S
C1381 C1380 1.439 . S
C1381 N1382 1.374 . S
C1381 C1415 1.395 . S
N1382 C1378 1.376 . S
N1382 C1381 1.374 . S
N1382 Co1383 2.008 . S
Co1383 N1382 2.008 . S
Co1383 N1384 1.995 . S
Co1383 N1389 2.008 . S
Co1383 N1394 1.995 . S
Co1383 N1399 2.282 . S
Co1383 N1405 2.282 . S
N1384 Co1383 1.995 . S
N1384 C1385 1.376 . S
N1384 C1388 1.383 . S
C1385 N1384 1.376 . S
C1385 C1386 1.446 . S
C1385 C1415 1.391 . S
C1386 C1385 1.446 . S
C1386 C1387 1.339 . S
C1386 H1421 0.949 . S
C1387 C1386 1.339 . S
C1387 C1388 1.439 . S
C1387 H1422 0.950 . S
C1388 N1384 1.383 . S
C1388 C1387 1.439 . S
C1388 C1417 1.392 . S
N1389 Co1383 2.008 . S
N1389 C1390 1.376 . S
N1389 C1393 1.374 . S
C1390 N1389 1.376 . S
C1390 C1391 1.443 . S
C1390 C1417 1.389 . S
C1391 C1390 1.443 . S
C1391 C1392 1.340 . S
C1391 H1423 0.951 . S
C1392 C1391 1.340 . S
C1392 C1393 1.439 . S
C1392 H1424 0.950 . S
C1393 N1389 1.374 . S
C1393 C1392 1.439 . S
C1393 C1418 1.395 . S
N1394 Co1383 1.995 . S
N1394 C1395 1.376 . S
N1394 C1398 1.383 . S
C1395 N1394 1.376 . S
C1395 C1396 1.446 . S
C1395 C1418 1.391 . S
C1396 C1395 1.446 . S
C1396 C1397 1.339 . S
C1396 H1425 0.949 . S
C1397 C1396 1.339 . S
C1397 C1398 1.439 . S
C1397 H1426 0.950 . S
C1398 N1394 1.383 . S
C1398 C1397 1.439 . S
C1398 C1416 1.392 . S
N1399 Co1383 2.282 . S
N1399 C1402 1.332 . S
N1399 C1404 1.332 . S
C1400 C1401 1.386 . S
C1400 C1403 1.388 . S
C1401 C1400 1.386 . S
C1401 C1402 1.382 . S
C1401 H1427 0.950 . S
C1402 N1399 1.332 . S
C1402 C1401 1.382 . S
C1402 H1413 0.952 . S
C1403 C1400 1.388 . S
C1403 C1404 1.382 . S
C1403 H1428 0.950 . S
C1404 N1399 1.332 . S
C1404 C1403 1.382 . S
C1404 H1414 0.948 . S
N1405 Co1383 2.282 . S
N1405 C1409 1.332 . S
N1405 C1410 1.332 . S
C1406 C1407 1.388 . S
C1406 C1410 1.382 . S
C1406 H1429 0.950 . S
C1407 C1406 1.388 . S
C1407 C1408 1.386 . S
C1408 C1407 1.386 . S
C1408 C1409 1.382 . S
C1408 H1430 0.950 . S
C1409 N1405 1.332 . S
C1409 C1408 1.382 . S
C1409 H1411 0.952 . S
C1410 N1405 1.332 . S
C1410 C1406 1.382 . S
C1410 H1412 0.948 . S
H1411 C1409 0.952 . S
H1412 C1410 0.948 . S
H1413 C1402 0.952 . S
H1414 C1404 0.948 . S
C1415 C1381 1.395 . S
C1415 C1385 1.391 . S
C1416 C1378 1.389 . S
C1416 C1398 1.392 . S
C1417 C1388 1.392 . S
C1417 C1390 1.389 . S
C1418 C1393 1.395 . S
C1418 C1395 1.391 . S
H1419 C1379 0.951 . S
H1420 C1380 0.950 . S
H1421 C1386 0.949 . S
H1422 C1387 0.950 . S
H1423 C1391 0.951 . S
H1424 C1392 0.950 . S
H1425 C1396 0.949 . S
H1426 C1397 0.950 . S
H1427 C1401 0.950 . S
H1428 C1403 0.950 . S
H1429 C1406 0.950 . S
H1430 C1408 0.950 . S
C1431 C1432 1.443 . S
C1431 N1435 1.376 . S
C1431 C1469 1.389 . S
C1432 C1431 1.443 . S
C1432 C1433 1.340 . S
C1432 H1472 0.951 . S
C1433 C1432 1.340 . S
C1433 C1434 1.439 . S
C1433 H1473 0.950 . S
C1434 C1433 1.439 . S
C1434 N1435 1.374 . S
C1434 C1468 1.395 . S
N1435 C1431 1.376 . S
N1435 C1434 1.374 . S
N1435 Co1436 2.008 . S
Co1436 N1435 2.008 . S
Co1436 N1437 1.995 . S
Co1436 N1442 2.008 . S
Co1436 N1447 1.995 . S
Co1436 N1452 2.282 . S
Co1436 N1458 2.282 . S
N1437 Co1436 1.995 . S
N1437 C1438 1.376 . S
N1437 C1441 1.383 . S
C1438 N1437 1.376 . S
C1438 C1439 1.446 . S
C1438 C1468 1.391 . S
C1439 C1438 1.446 . S
C1439 C1440 1.339 . S
C1439 H1474 0.949 . S
C1440 C1439 1.339 . S
C1440 C1441 1.439 . S
C1440 H1475 0.950 . S
C1441 N1437 1.383 . S
C1441 C1440 1.439 . S
C1441 C1470 1.392 . S
N1442 Co1436 2.008 . S
N1442 C1443 1.376 . S
N1442 C1446 1.374 . S
C1443 N1442 1.376 . S
C1443 C1444 1.443 . S
C1443 C1470 1.389 . S
C1444 C1443 1.443 . S
C1444 C1445 1.340 . S
C1444 H1476 0.951 . S
C1445 C1444 1.340 . S
C1445 C1446 1.439 . S
C1445 H1477 0.950 . S
C1446 N1442 1.374 . S
C1446 C1445 1.439 . S
C1446 C1471 1.395 . S
N1447 Co1436 1.995 . S
N1447 C1448 1.376 . S
N1447 C1451 1.383 . S
C1448 N1447 1.376 . S
C1448 C1449 1.446 . S
C1448 C1471 1.391 . S
C1449 C1448 1.446 . S
C1449 C1450 1.339 . S
C1449 H1478 0.949 . S
C1450 C1449 1.339 . S
C1450 C1451 1.439 . S
C1450 H1479 0.950 . S
C1451 N1447 1.383 . S
C1451 C1450 1.439 . S
C1451 C1469 1.392 . S
N1452 Co1436 2.282 . S
N1452 C1455 1.332 . S
N1452 C1457 1.332 . S
C1453 C1454 1.386 . S
C1453 C1456 1.388 . S
C1454 C1453 1.386 . S
C1454 C1455 1.382 . S
C1454 H1480 0.950 . S
C1455 N1452 1.332 . S
C1455 C1454 1.382 . S
C1455 H1466 0.952 . S
C1456 C1453 1.388 . S
C1456 C1457 1.382 . S
C1456 H1481 0.950 . S
C1457 N1452 1.332 . S
C1457 C1456 1.382 . S
C1457 H1467 0.948 . S
N1458 Co1436 2.282 . S
N1458 C1462 1.332 . S
N1458 C1463 1.332 . S
C1459 C1460 1.388 . S
C1459 C1463 1.382 . S
C1459 H1482 0.950 . S
C1460 C1459 1.388 . S
C1460 C1461 1.386 . S
C1461 C1460 1.386 . S
C1461 C1462 1.382 . S
C1461 H1483 0.950 . S
C1462 N1458 1.332 . S
C1462 C1461 1.382 . S
C1462 H1464 0.952 . S
C1463 N1458 1.332 . S
C1463 C1459 1.382 . S
C1463 H1465 0.948 . S
H1464 C1462 0.952 . S
H1465 C1463 0.948 . S
H1466 C1455 0.952 . S
H1467 C1457 0.948 . S
C1468 C1434 1.395 . S
C1468 C1438 1.391 . S
C1469 C1431 1.389 . S
C1469 C1451 1.392 . S
C1470 C1441 1.392 . S
C1470 C1443 1.389 . S
C1471 C1446 1.395 . S
C1471 C1448 1.391 . S
H1472 C1432 0.951 . S
H1473 C1433 0.950 . S
H1474 C1439 0.949 . S
H1475 C1440 0.950 . S
H1476 C1444 0.951 . S
H1477 C1445 0.950 . S
H1478 C1449 0.949 . S
H1479 C1450 0.950 . S
H1480 C1454 0.950 . S
H1481 C1456 0.950 . S
H1482 C1459 0.950 . S
H1483 C1461 0.950 . S
C1484 C1485 1.443 . S
C1484 N1488 1.376 . S
C1484 C1522 1.389 . S
C1485 C1484 1.443 . S
C1485 C1486 1.340 . S
C1485 H1525 0.951 . S
C1486 C1485 1.340 . S
C1486 C1487 1.439 . S
C1486 H1526 0.950 . S
C1487 C1486 1.439 . S
C1487 N1488 1.374 . S
C1487 C1521 1.395 . S
N1488 C1484 1.376 . S
N1488 C1487 1.374 . S
N1488 Co1489 2.008 . S
Co1489 N1488 2.008 . S
Co1489 N1490 1.995 1_556 S
Co1489 N1495 2.008 1_556 S
Co1489 N1500 1.995 . S
Co1489 N1505 2.282 . S
Co1489 N1511 2.282 1_556 S
N1490 Co1489 1.995 1_554 S
N1490 C1491 1.376 1_554 S
N1490 C1494 1.383 . S
C1491 N1490 1.376 1_556 S
C1491 C1492 1.446 1_556 S
C1491 C1521 1.391 . S
C1492 C1491 1.446 1_554 S
C1492 C1493 1.339 . S
C1492 H1527 0.949 . S
C1493 C1492 1.339 . S
C1493 C1494 1.439 . S
C1493 H1528 0.950 . S
C1494 N1490 1.383 . S
C1494 C1493 1.439 . S
C1494 C1523 1.392 . S
N1495 Co1489 2.008 1_554 S
N1495 C1496 1.376 . S
N1495 C1499 1.374 . S
C1496 N1495 1.376 . S
C1496 C1497 1.443 . S
C1496 C1523 1.389 . S
C1497 C1496 1.443 . S
C1497 C1498 1.340 . S
C1497 H1529 0.951 . S
C1498 C1497 1.340 . S
C1498 C1499 1.439 . S
C1498 H1530 0.950 . S
C1499 N1495 1.374 . S
C1499 C1498 1.439 . S
C1499 C1524 1.395 . S
N1500 Co1489 1.995 . S
N1500 C1501 1.376 . S
N1500 C1504 1.383 . S
C1501 N1500 1.376 . S
C1501 C1502 1.446 . S
C1501 C1524 1.391 1_556 S
C1502 C1501 1.446 . S
C1502 C1503 1.339 . S
C1502 H1531 0.949 . S
C1503 C1502 1.339 . S
C1503 C1504 1.439 . S
C1503 H1532 0.950 . S
C1504 N1500 1.383 . S
C1504 C1503 1.439 . S
C1504 C1522 1.392 . S
N1505 Co1489 2.282 . S
N1505 C1508 1.332 . S
N1505 C1510 1.332 . S
C1506 C1507 1.387 . S
C1506 C1509 1.388 . S
C1507 C1506 1.387 . S
C1507 C1508 1.384 . S
C1507 H1533 0.947 1_556 S
C1508 N1505 1.332 . S
C1508 C1507 1.384 . S
C1508 H1519 0.952 . S
C1509 C1506 1.388 . S
C1509 C1510 1.382 . S
C1509 H1534 0.950 . S
C1510 N1505 1.332 . S
C1510 C1509 1.382 . S
C1510 H1520 0.948 . S
N1511 Co1489 2.282 1_554 S
N1511 C1515 1.332 1_554 S
N1511 C1516 1.332 . S
C1512 C1513 1.388 . S
C1512 C1516 1.382 1_556 S
C1512 H1535 0.950 1_556 S
C1513 C1512 1.388 . S
C1513 C1514 1.386 . S
C1514 C1513 1.386 . S
C1514 C1515 1.382 . S
C1514 H1536 0.950 . S
C1515 N1511 1.332 1_556 S
C1515 C1514 1.382 . S
C1515 H1517 0.952 . S
C1516 N1511 1.332 . S
C1516 C1512 1.382 1_554 S
C1516 H1518 0.948 . S
H1517 C1515 0.952 . S
H1518 C1516 0.948 . S
H1519 C1508 0.952 . S
H1520 C1510 0.948 . S
C1521 C1487 1.395 . S
C1521 C1491 1.391 . S
C1522 C1484 1.389 . S
C1522 C1504 1.392 . S
C1523 C1494 1.392 . S
C1523 C1496 1.389 . S
C1524 C1499 1.395 . S
C1524 C1501 1.391 1_554 S
H1525 C1485 0.951 . S
H1526 C1486 0.950 . S
H1527 C1492 0.949 . S
H1528 C1493 0.950 . S
H1529 C1497 0.951 . S
H1530 C1498 0.950 . S
H1531 C1502 0.949 . S
H1532 C1503 0.950 . S
H1533 C1507 0.947 1_554 S
H1534 C1509 0.950 . S
H1535 C1512 0.950 1_554 S
H1536 C1514 0.950 . S
C1537 C1538 1.443 . S
C1537 N1541 1.376 . S
C1537 C1575 1.389 . S
C1538 C1537 1.443 . S
C1538 C1539 1.340 . S
C1538 H1578 0.951 . S
C1539 C1538 1.340 . S
C1539 C1540 1.439 . S
C1539 H1579 0.950 . S
C1540 C1539 1.439 . S
C1540 N1541 1.374 . S
C1540 C1574 1.395 . S
N1541 C1537 1.376 . S
N1541 C1540 1.374 . S
N1541 Co1542 2.008 . S
Co1542 N1541 2.008 . S
Co1542 N1543 1.995 1_556 S
Co1542 N1548 2.008 1_556 S
Co1542 N1553 1.995 . S
Co1542 N1558 2.282 . S
Co1542 N1564 2.282 1_556 S
N1543 Co1542 1.995 1_554 S
N1543 C1544 1.376 1_554 S
N1543 C1547 1.383 . S
C1544 N1543 1.376 1_556 S
C1544 C1545 1.446 1_556 S
C1544 C1574 1.391 . S
C1545 C1544 1.446 1_554 S
C1545 C1546 1.339 . S
C1545 H1580 0.949 . S
C1546 C1545 1.339 . S
C1546 C1547 1.439 . S
C1546 H1581 0.950 . S
C1547 N1543 1.383 . S
C1547 C1546 1.439 . S
C1547 C1576 1.392 . S
N1548 Co1542 2.008 1_554 S
N1548 C1549 1.376 . S
N1548 C1552 1.374 . S
C1549 N1548 1.376 . S
C1549 C1550 1.443 . S
C1549 C1576 1.389 . S
C1550 C1549 1.443 . S
C1550 C1551 1.340 . S
C1550 H1582 0.951 . S
C1551 C1550 1.340 . S
C1551 C1552 1.439 . S
C1551 H1583 0.950 . S
C1552 N1548 1.374 . S
C1552 C1551 1.439 . S
C1552 C1577 1.395 . S
N1553 Co1542 1.995 . S
N1553 C1554 1.376 . S
N1553 C1557 1.383 . S
C1554 N1553 1.376 . S
C1554 C1555 1.446 . S
C1554 C1577 1.391 1_556 S
C1555 C1554 1.446 . S
C1555 C1556 1.339 . S
C1555 H1584 0.949 . S
C1556 C1555 1.339 . S
C1556 C1557 1.439 . S
C1556 H1585 0.950 . S
C1557 N1553 1.383 . S
C1557 C1556 1.439 . S
C1557 C1575 1.392 . S
N1558 Co1542 2.282 . S
N1558 C1561 1.332 . S
N1558 C1563 1.332 . S
C1559 C1560 1.387 . S
C1559 C1562 1.388 . S
C1560 C1559 1.387 . S
C1560 C1561 1.384 . S
C1560 H1586 0.947 1_556 S
C1561 N1558 1.332 . S
C1561 C1560 1.384 . S
C1561 H1572 0.952 . S
C1562 C1559 1.388 . S
C1562 C1563 1.382 . S
C1562 H1587 0.950 . S
C1563 N1558 1.332 . S
C1563 C1562 1.382 . S
C1563 H1573 0.948 . S
N1564 Co1542 2.282 1_554 S
N1564 C1568 1.332 1_554 S
N1564 C1569 1.332 . S
C1565 C1566 1.388 . S
C1565 C1569 1.382 1_556 S
C1565 H1588 0.950 1_556 S
C1566 C1565 1.388 . S
C1566 C1567 1.386 . S
C1567 C1566 1.386 . S
C1567 C1568 1.382 . S
C1567 H1589 0.950 . S
C1568 N1564 1.332 1_556 S
C1568 C1567 1.382 . S
C1568 H1570 0.952 . S
C1569 N1564 1.332 . S
C1569 C1565 1.382 1_554 S
C1569 H1571 0.948 . S
H1570 C1568 0.952 . S
H1571 C1569 0.948 . S
H1572 C1561 0.952 . S
H1573 C1563 0.948 . S
C1574 C1540 1.395 . S
C1574 C1544 1.391 . S
C1575 C1537 1.389 . S
C1575 C1557 1.392 . S
C1576 C1547 1.392 . S
C1576 C1549 1.389 . S
C1577 C1552 1.395 . S
C1577 C1554 1.391 1_554 S
H1578 C1538 0.951 . S
H1579 C1539 0.950 . S
H1580 C1545 0.949 . S
H1581 C1546 0.950 . S
H1582 C1550 0.951 . S
H1583 C1551 0.950 . S
H1584 C1555 0.949 . S
H1585 C1556 0.950 . S
H1586 C1560 0.947 1_554 S
H1587 C1562 0.950 . S
H1588 C1565 0.950 1_554 S
H1589 C1567 0.950 . S
C1590 C1591 1.443 . S
C1590 N1594 1.376 . S
C1590 C1628 1.389 . S
C1591 C1590 1.443 . S
C1591 C1592 1.340 . S
C1591 H1631 0.951 . S
C1592 C1591 1.340 . S
C1592 C1593 1.439 . S
C1592 H1632 0.950 . S
C1593 C1592 1.439 . S
C1593 N1594 1.374 . S
C1593 C1627 1.395 . S
N1594 C1590 1.376 . S
N1594 C1593 1.374 . S
N1594 Co1595 2.008 . S
Co1595 N1594 2.008 . S
Co1595 N1596 1.995 . S
Co1595 N1601 2.008 . S
Co1595 N1606 1.995 . S
Co1595 N1611 2.282 . S
Co1595 N1617 2.282 . S
N1596 Co1595 1.995 . S
N1596 C1597 1.376 . S
N1596 C1600 1.383 . S
C1597 N1596 1.376 . S
C1597 C1598 1.446 . S
C1597 C1627 1.391 . S
C1598 C1597 1.446 . S
C1598 C1599 1.339 . S
C1598 H1633 0.949 . S
C1599 C1598 1.339 . S
C1599 C1600 1.439 . S
C1599 H1634 0.950 . S
C1600 N1596 1.383 . S
C1600 C1599 1.439 . S
C1600 C1629 1.392 . S
N1601 Co1595 2.008 . S
N1601 C1602 1.376 . S
N1601 C1605 1.374 . S
C1602 N1601 1.376 . S
C1602 C1603 1.443 . S
C1602 C1629 1.389 . S
C1603 C1602 1.443 . S
C1603 C1604 1.340 . S
C1603 H1635 0.951 . S
C1604 C1603 1.340 . S
C1604 C1605 1.439 . S
C1604 H1636 0.950 . S
C1605 N1601 1.374 . S
C1605 C1604 1.439 . S
C1605 C1630 1.395 . S
N1606 Co1595 1.995 . S
N1606 C1607 1.376 . S
N1606 C1610 1.383 . S
C1607 N1606 1.376 . S
C1607 C1608 1.446 . S
C1607 C1630 1.391 . S
C1608 C1607 1.446 . S
C1608 C1609 1.339 . S
C1608 H1637 0.949 . S
C1609 C1608 1.339 . S
C1609 C1610 1.439 . S
C1609 H1638 0.950 . S
C1610 N1606 1.383 . S
C1610 C1609 1.439 . S
C1610 C1628 1.392 . S
N1611 Co1595 2.282 . S
N1611 C1614 1.332 . S
N1611 C1616 1.332 . S
C1612 C1613 1.386 . S
C1612 C1615 1.388 . S
C1613 C1612 1.386 . S
C1613 C1614 1.382 . S
C1613 H1639 0.950 . S
C1614 N1611 1.332 . S
C1614 C1613 1.382 . S
C1614 H1625 0.952 . S
C1615 C1612 1.388 . S
C1615 C1616 1.382 . S
C1615 H1640 0.950 . S
C1616 N1611 1.332 . S
C1616 C1615 1.382 . S
C1616 H1626 0.948 . S
N1617 Co1595 2.282 . S
N1617 C1621 1.332 . S
N1617 C1622 1.332 . S
C1618 C1619 1.388 . S
C1618 C1622 1.382 . S
C1618 H1641 0.950 . S
C1619 C1618 1.388 . S
C1619 C1620 1.386 . S
C1620 C1619 1.386 . S
C1620 C1621 1.382 . S
C1620 H1642 0.950 . S
C1621 N1617 1.332 . S
C1621 C1620 1.382 . S
C1621 H1623 0.952 . S
C1622 N1617 1.332 . S
C1622 C1618 1.382 . S
C1622 H1624 0.948 . S
H1623 C1621 0.952 . S
H1624 C1622 0.948 . S
H1625 C1614 0.952 . S
H1626 C1616 0.948 . S
C1627 C1593 1.395 . S
C1627 C1597 1.391 . S
C1628 C1590 1.389 . S
C1628 C1610 1.392 . S
C1629 C1600 1.392 . S
C1629 C1602 1.389 . S
C1630 C1605 1.395 . S
C1630 C1607 1.391 . S
H1631 C1591 0.951 . S
H1632 C1592 0.950 . S
H1633 C1598 0.949 . S
H1634 C1599 0.950 . S
H1635 C1603 0.951 . S
H1636 C1604 0.950 . S
H1637 C1608 0.949 . S
H1638 C1609 0.950 . S
H1639 C1613 0.950 . S
H1640 C1615 0.950 . S
H1641 C1618 0.950 . S
H1642 C1620 0.950 . S
C1643 C1644 1.443 . S
C1643 N1647 1.376 . S
C1643 C1681 1.389 . S
C1644 C1643 1.443 . S
C1644 C1645 1.340 . S
C1644 H1684 0.951 . S
C1645 C1644 1.340 . S
C1645 C1646 1.439 . S
C1645 H1685 0.950 . S
C1646 C1645 1.439 . S
C1646 N1647 1.374 . S
C1646 C1680 1.395 . S
N1647 C1643 1.376 . S
N1647 C1646 1.374 . S
N1647 Co1648 2.008 . S
Co1648 N1647 2.008 . S
Co1648 N1649 1.995 . S
Co1648 N1654 2.008 . S
Co1648 N1659 1.995 . S
Co1648 N1664 2.282 . S
Co1648 N1670 2.282 . S
N1649 Co1648 1.995 . S
N1649 C1650 1.376 . S
N1649 C1653 1.383 . S
C1650 N1649 1.376 . S
C1650 C1651 1.446 . S
C1650 C1680 1.391 . S
C1651 C1650 1.446 . S
C1651 C1652 1.339 . S
C1651 H1686 0.949 . S
C1652 C1651 1.339 . S
C1652 C1653 1.439 . S
C1652 H1687 0.950 . S
C1653 N1649 1.383 . S
C1653 C1652 1.439 . S
C1653 C1682 1.392 . S
N1654 Co1648 2.008 . S
N1654 C1655 1.376 . S
N1654 C1658 1.374 . S
C1655 N1654 1.376 . S
C1655 C1656 1.443 . S
C1655 C1682 1.389 . S
C1656 C1655 1.443 . S
C1656 C1657 1.340 . S
C1656 H1688 0.951 . S
C1657 C1656 1.340 . S
C1657 C1658 1.439 . S
C1657 H1689 0.950 . S
C1658 N1654 1.374 . S
C1658 C1657 1.439 . S
C1658 C1683 1.395 . S
N1659 Co1648 1.995 . S
N1659 C1660 1.376 . S
N1659 C1663 1.383 . S
C1660 N1659 1.376 . S
C1660 C1661 1.446 . S
C1660 C1683 1.391 . S
C1661 C1660 1.446 . S
C1661 C1662 1.339 . S
C1661 H1690 0.949 . S
C1662 C1661 1.339 . S
C1662 C1663 1.439 . S
C1662 H1691 0.950 . S
C1663 N1659 1.383 . S
C1663 C1662 1.439 . S
C1663 C1681 1.392 . S
N1664 Co1648 2.282 . S
N1664 C1667 1.332 . S
N1664 C1669 1.332 . S
C1665 C1666 1.386 . S
C1665 C1668 1.388 . S
C1666 C1665 1.386 . S
C1666 C1667 1.382 . S
C1666 H1692 0.950 . S
C1667 N1664 1.332 . S
C1667 C1666 1.382 . S
C1667 H1678 0.952 . S
C1668 C1665 1.388 . S
C1668 C1669 1.382 . S
C1668 H1693 0.950 . S
C1669 N1664 1.332 . S
C1669 C1668 1.382 . S
C1669 H1679 0.948 . S
N1670 Co1648 2.282 . S
N1670 C1674 1.332 . S
N1670 C1675 1.332 . S
C1671 C1672 1.388 . S
C1671 C1675 1.382 . S
C1671 H1694 0.950 . S
C1672 C1671 1.388 . S
C1672 C1673 1.386 . S
C1673 C1672 1.386 . S
C1673 C1674 1.382 . S
C1673 H1695 0.950 . S
C1674 N1670 1.332 . S
C1674 C1673 1.382 . S
C1674 H1676 0.952 . S
C1675 N1670 1.332 . S
C1675 C1671 1.382 . S
C1675 H1677 0.948 . S
H1676 C1674 0.952 . S
H1677 C1675 0.948 . S
H1678 C1667 0.952 . S
H1679 C1669 0.948 . S
C1680 C1646 1.395 . S
C1680 C1650 1.391 . S
C1681 C1643 1.389 . S
C1681 C1663 1.392 . S
C1682 C1653 1.392 . S
C1682 C1655 1.389 . S
C1683 C1658 1.395 . S
C1683 C1660 1.391 . S
H1684 C1644 0.951 . S
H1685 C1645 0.950 . S
H1686 C1651 0.949 . S
H1687 C1652 0.950 . S
H1688 C1656 0.951 . S
H1689 C1657 0.950 . S
H1690 C1661 0.949 . S
H1691 C1662 0.950 . S
H1692 C1666 0.950 . S
H1693 C1668 0.950 . S
H1694 C1671 0.950 . S
H1695 C1673 0.950 . S
H1696 C1702 0.930 . S
H1697 C1705 0.930 . S
H1698 C1706 0.930 . S
H1699 C1707 0.930 . S
H1700 C1710 0.930 . S
H1701 C1711 0.930 . S
C1702 H1696 0.930 . S
C1702 C1703 1.355 . S
C1702 C1704 1.415 . S
C1703 C1702 1.355 . S
C1703 C1705 1.419 . S
C1704 C1702 1.415 . S
C1704 C1709 1.425 . S
C1704 C1711 1.409 . S
C1705 H1697 0.930 . S
C1705 C1703 1.419 . S
C1705 C1706 1.362 . S
C1706 H1698 0.930 . S
C1706 C1705 1.362 . S
C1706 C1709 1.409 . S
C1707 H1699 0.930 . S
C1707 C1708 1.355 . S
C1707 C1709 1.415 . S
C1708 C1707 1.355 . S
C1708 C1710 1.419 . S
C1709 C1704 1.425 . S
C1709 C1706 1.409 . S
C1709 C1707 1.415 . S
C1710 H1700 0.930 . S
C1710 C1708 1.419 . S
C1710 C1711 1.362 . S
C1711 H1701 0.930 . S
C1711 C1704 1.409 . S
C1711 C1710 1.362 . S
H1712 C1718 0.930 . S
H1713 C1721 0.930 . S
H1714 C1722 0.930 . S
H1715 C1723 0.930 . S
H1716 C1726 0.930 . S
H1717 C1727 0.930 . S
C1718 H1712 0.930 . S
C1718 C1719 1.355 . S
C1718 C1720 1.415 . S
C1719 C1718 1.355 . S
C1719 C1721 1.419 . S
C1720 C1718 1.415 . S
C1720 C1725 1.425 . S
C1720 C1727 1.409 . S
C1721 H1713 0.930 . S
C1721 C1719 1.419 . S
C1721 C1722 1.362 . S
C1722 H1714 0.930 . S
C1722 C1721 1.362 . S
C1722 C1725 1.409 . S
C1723 H1715 0.930 . S
C1723 C1724 1.355 . S
C1723 C1725 1.415 . S
C1724 C1723 1.355 . S
C1724 C1726 1.419 . S
C1725 C1720 1.425 . S
C1725 C1722 1.409 . S
C1725 C1723 1.415 . S
C1726 H1716 0.930 . S
C1726 C1724 1.419 . S
C1726 C1727 1.362 . S
C1727 H1717 0.930 . S
C1727 C1720 1.409 . S
C1727 C1726 1.362 . S
H1728 C1734 0.930 . S
H1729 C1737 0.930 . S
H1730 C1738 0.930 . S
H1731 C1739 0.930 . S
H1732 C1742 0.930 . S
H1733 C1743 0.930 . S
C1734 H1728 0.930 . S
C1734 C1735 1.355 . S
C1734 C1736 1.415 . S
C1735 C1734 1.355 . S
C1735 C1737 1.419 . S
C1736 C1734 1.415 . S
C1736 C1741 1.425 . S
C1736 C1743 1.409 . S
C1737 H1729 0.930 . S
C1737 C1735 1.419 . S
C1737 C1738 1.362 . S
C1738 H1730 0.930 . S
C1738 C1737 1.362 . S
C1738 C1741 1.409 . S
C1739 H1731 0.930 . S
C1739 C1740 1.355 . S
C1739 C1741 1.415 . S
C1740 C1739 1.355 . S
C1740 C1742 1.419 . S
C1741 C1736 1.425 . S
C1741 C1738 1.409 . S
C1741 C1739 1.415 . S
C1742 H1732 0.930 . S
C1742 C1740 1.419 . S
C1742 C1743 1.362 . S
C1743 H1733 0.930 . S
C1743 C1736 1.409 . S
C1743 C1742 1.362 . S
H1744 C1750 0.930 . S
H1745 C1753 0.930 . S
H1746 C1754 0.930 . S
H1747 C1755 0.930 . S
H1748 C1758 0.930 . S
H1749 C1759 0.930 . S
C1750 H1744 0.930 . S
C1750 C1751 1.355 . S
C1750 C1752 1.415 . S
C1751 C1750 1.355 . S
C1751 C1753 1.419 . S
C1752 C1750 1.415 . S
C1752 C1757 1.425 . S
C1752 C1759 1.409 . S
C1753 H1745 0.930 . S
C1753 C1751 1.419 . S
C1753 C1754 1.362 . S
C1754 H1746 0.930 . S
C1754 C1753 1.362 . S
C1754 C1757 1.409 . S
C1755 H1747 0.930 . S
C1755 C1756 1.355 . S
C1755 C1757 1.415 . S
C1756 C1755 1.355 . S
C1756 C1758 1.419 . S
C1757 C1752 1.425 . S
C1757 C1754 1.409 . S
C1757 C1755 1.415 . S
C1758 H1748 0.930 . S
C1758 C1756 1.419 . S
C1758 C1759 1.362 . S
C1759 H1749 0.930 . S
C1759 C1752 1.409 . S
C1759 C1758 1.362 . S
H1760 C1766 0.930 . S
H1761 C1769 0.930 . S
H1762 C1770 0.930 . S
H1763 C1771 0.930 . S
H1764 C1774 0.930 . S
H1765 C1775 0.930 . S
C1766 H1760 0.930 . S
C1766 C1767 1.355 . S
C1766 C1768 1.415 . S
C1767 C1766 1.355 . S
C1767 C1769 1.419 . S
C1768 C1766 1.415 . S
C1768 C1773 1.425 . S
C1768 C1775 1.409 . S
C1769 H1761 0.930 . S
C1769 C1767 1.419 . S
C1769 C1770 1.362 . S
C1770 H1762 0.930 . S
C1770 C1769 1.362 . S
C1770 C1773 1.409 . S
C1771 H1763 0.930 . S
C1771 C1772 1.355 . S
C1771 C1773 1.415 . S
C1772 C1771 1.355 . S
C1772 C1774 1.419 . S
C1773 C1768 1.425 . S
C1773 C1770 1.409 . S
C1773 C1771 1.415 . S
C1774 H1764 0.930 . S
C1774 C1772 1.419 . S
C1774 C1775 1.362 . S
C1775 H1765 0.930 . S
C1775 C1768 1.409 . S
C1775 C1774 1.362 . S
H1776 C1782 0.930 . S
H1777 C1785 0.930 . S
H1778 C1786 0.930 . S
H1779 C1787 0.930 . S
H1780 C1790 0.930 . S
H1781 C1791 0.930 . S
C1782 H1776 0.930 . S
C1782 C1783 1.355 . S
C1782 C1784 1.415 . S
C1783 C1782 1.355 . S
C1783 C1785 1.419 . S
C1784 C1782 1.415 . S
C1784 C1789 1.425 . S
C1784 C1791 1.409 . S
C1785 H1777 0.930 . S
C1785 C1783 1.419 . S
C1785 C1786 1.362 . S
C1786 H1778 0.930 . S
C1786 C1785 1.362 . S
C1786 C1789 1.409 . S
C1787 H1779 0.930 . S
C1787 C1788 1.355 . S
C1787 C1789 1.415 . S
C1788 C1787 1.355 . S
C1788 C1790 1.419 . S
C1789 C1784 1.425 . S
C1789 C1786 1.409 . S
C1789 C1787 1.415 . S
C1790 H1780 0.930 . S
C1790 C1788 1.419 . S
C1790 C1791 1.362 . S
C1791 H1781 0.930 . S
C1791 C1784 1.409 . S
C1791 C1790 1.362 . S
H1792 C1798 0.930 . S
H1793 C1801 0.930 . S
H1794 C1802 0.930 . S
H1795 C1803 0.930 . S
H1796 C1806 0.930 . S
H1797 C1807 0.930 . S
C1798 H1792 0.930 . S
C1798 C1799 1.355 . S
C1798 C1800 1.415 . S
C1799 C1798 1.355 . S
C1799 C1801 1.419 . S
C1800 C1798 1.415 . S
C1800 C1805 1.425 . S
C1800 C1807 1.409 . S
C1801 H1793 0.930 . S
C1801 C1799 1.419 . S
C1801 C1802 1.362 . S
C1802 H1794 0.930 . S
C1802 C1801 1.362 . S
C1802 C1805 1.409 . S
C1803 H1795 0.930 . S
C1803 C1804 1.355 . S
C1803 C1805 1.415 . S
C1804 C1803 1.355 . S
C1804 C1806 1.419 . S
C1805 C1800 1.425 . S
C1805 C1802 1.409 . S
C1805 C1803 1.415 . S
C1806 H1796 0.930 . S
C1806 C1804 1.419 . S
C1806 C1807 1.362 . S
C1807 H1797 0.930 . S
C1807 C1800 1.409 . S
C1807 C1806 1.362 . S
H1808 C1814 0.930 . S
H1809 C1817 0.930 . S
H1810 C1818 0.930 . S
H1811 C1819 0.930 . S
H1812 C1822 0.930 . S
H1813 C1823 0.930 . S
C1814 H1808 0.930 . S
C1814 C1815 1.355 . S
C1814 C1816 1.415 . S
C1815 C1814 1.355 . S
C1815 C1817 1.419 . S
C1816 C1814 1.415 . S
C1816 C1821 1.425 . S
C1816 C1823 1.409 . S
C1817 H1809 0.930 . S
C1817 C1815 1.419 . S
C1817 C1818 1.362 . S
C1818 H1810 0.930 . S
C1818 C1817 1.362 . S
C1818 C1821 1.409 . S
C1819 H1811 0.930 . S
C1819 C1820 1.355 . S
C1819 C1821 1.415 . S
C1820 C1819 1.355 . S
C1820 C1822 1.419 . S
C1821 C1816 1.425 . S
C1821 C1818 1.409 . S
C1821 C1819 1.415 . S
C1822 H1812 0.930 . S
C1822 C1820 1.419 . S
C1822 C1823 1.362 . S
C1823 H1813 0.930 . S
C1823 C1816 1.409 . S
C1823 C1822 1.362 . S
H1824 C1830 0.930 . S
H1825 C1833 0.930 . S
H1826 C1834 0.930 . S
H1827 C1835 0.930 . S
H1828 C1838 0.930 . S
H1829 C1839 0.930 . S
C1830 H1824 0.930 . S
C1830 C1831 1.355 . S
C1830 C1832 1.415 . S
C1831 C1830 1.355 . S
C1831 C1833 1.419 . S
C1832 C1830 1.415 . S
C1832 C1837 1.425 . S
C1832 C1839 1.409 . S
C1833 H1825 0.930 . S
C1833 C1831 1.419 . S
C1833 C1834 1.362 . S
C1834 H1826 0.930 . S
C1834 C1833 1.362 . S
C1834 C1837 1.409 . S
C1835 H1827 0.930 . S
C1835 C1836 1.355 . S
C1835 C1837 1.415 . S
C1836 C1835 1.355 . S
C1836 C1838 1.419 . S
C1837 C1832 1.425 . S
C1837 C1834 1.409 . S
C1837 C1835 1.415 . S
C1838 H1828 0.930 . S
C1838 C1836 1.419 . S
C1838 C1839 1.362 . S
C1839 H1829 0.930 . S
C1839 C1832 1.409 . S
C1839 C1838 1.362 . S
H1840 C1846 0.930 . S
H1841 C1849 0.930 . S
H1842 C1850 0.930 . S
H1843 C1851 0.930 . S
H1844 C1854 0.930 . S
H1845 C1855 0.930 . S
C1846 H1840 0.930 . S
C1846 C1847 1.355 . S
C1846 C1848 1.415 . S
C1847 C1846 1.355 . S
C1847 C1849 1.419 . S
C1848 C1846 1.415 . S
C1848 C1853 1.425 . S
C1848 C1855 1.409 . S
C1849 H1841 0.930 . S
C1849 C1847 1.419 . S
C1849 C1850 1.362 . S
C1850 H1842 0.930 . S
C1850 C1849 1.362 . S
C1850 C1853 1.409 . S
C1851 H1843 0.930 . S
C1851 C1852 1.355 . S
C1851 C1853 1.415 . S
C1852 C1851 1.355 . S
C1852 C1854 1.419 . S
C1853 C1848 1.425 . S
C1853 C1850 1.409 . S
C1853 C1851 1.415 . S
C1854 H1844 0.930 . S
C1854 C1852 1.419 . S
C1854 C1855 1.362 . S
C1855 H1845 0.930 . S
C1855 C1848 1.409 . S
C1855 C1854 1.362 . S
H1856 C1862 0.930 . S
H1857 C1865 0.930 . S
H1858 C1866 0.930 . S
H1859 C1867 0.930 . S
H1860 C1870 0.930 . S
H1861 C1871 0.930 . S
C1862 H1856 0.930 . S
C1862 C1863 1.355 . S
C1862 C1864 1.415 . S
C1863 C1862 1.355 . S
C1863 C1865 1.419 . S
C1864 C1862 1.415 . S
C1864 C1869 1.425 . S
C1864 C1871 1.409 . S
C1865 H1857 0.930 . S
C1865 C1863 1.419 . S
C1865 C1866 1.362 . S
C1866 H1858 0.930 . S
C1866 C1865 1.362 . S
C1866 C1869 1.409 . S
C1867 H1859 0.930 . S
C1867 C1868 1.355 . S
C1867 C1869 1.415 . S
C1868 C1867 1.355 . S
C1868 C1870 1.419 . S
C1869 C1864 1.425 . S
C1869 C1866 1.409 . S
C1869 C1867 1.415 . S
C1870 H1860 0.930 . S
C1870 C1868 1.419 . S
C1870 C1871 1.362 . S
C1871 H1861 0.930 . S
C1871 C1864 1.409 . S
C1871 C1870 1.362 . S
H1872 C1878 0.930 . S
H1873 C1881 0.930 . S
H1874 C1882 0.930 . S
H1875 C1883 0.930 . S
H1876 C1886 0.930 . S
H1877 C1887 0.930 . S
C1878 H1872 0.930 . S
C1878 C1879 1.355 . S
C1878 C1880 1.415 . S
C1879 C1878 1.355 . S
C1879 C1881 1.419 . S
C1880 C1878 1.415 . S
C1880 C1885 1.425 . S
C1880 C1887 1.409 . S
C1881 H1873 0.930 . S
C1881 C1879 1.419 . S
C1881 C1882 1.362 . S
C1882 H1874 0.930 . S
C1882 C1881 1.362 . S
C1882 C1885 1.409 . S
C1883 H1875 0.930 . S
C1883 C1884 1.355 . S
C1883 C1885 1.415 . S
C1884 C1883 1.355 . S
C1884 C1886 1.419 . S
C1885 C1880 1.425 . S
C1885 C1882 1.409 . S
C1885 C1883 1.415 . S
C1886 H1876 0.930 . S
C1886 C1884 1.419 . S
C1886 C1887 1.362 . S
C1887 H1877 0.930 . S
C1887 C1880 1.409 . S
C1887 C1886 1.362 . S
H1888 C1894 0.930 . S
H1889 C1897 0.930 . S
H1890 C1898 0.930 . S
H1891 C1899 0.930 . S
H1892 C1902 0.930 . S
H1893 C1903 0.930 . S
C1894 H1888 0.930 . S
C1894 C1895 1.355 . S
C1894 C1896 1.415 . S
C1895 C1894 1.355 . S
C1895 C1897 1.419 . S
C1896 C1894 1.415 . S
C1896 C1901 1.425 . S
C1896 C1903 1.409 . S
C1897 H1889 0.930 . S
C1897 C1895 1.419 . S
C1897 C1898 1.362 . S
C1898 H1890 0.930 . S
C1898 C1897 1.362 . S
C1898 C1901 1.409 . S
C1899 H1891 0.930 . S
C1899 C1900 1.355 . S
C1899 C1901 1.415 . S
C1900 C1899 1.355 . S
C1900 C1902 1.419 . S
C1901 C1896 1.425 . S
C1901 C1898 1.409 . S
C1901 C1899 1.415 . S
C1902 H1892 0.930 . S
C1902 C1900 1.419 . S
C1902 C1903 1.362 . S
C1903 H1893 0.930 . S
C1903 C1896 1.409 . S
C1903 C1902 1.362 . S
H1904 C1910 0.930 . S
H1905 C1913 0.930 . S
H1906 C1914 0.930 . S
H1907 C1915 0.930 . S
H1908 C1918 0.930 . S
H1909 C1919 0.930 . S
C1910 H1904 0.930 . S
C1910 C1911 1.355 . S
C1910 C1912 1.415 . S
C1911 C1910 1.355 . S
C1911 C1913 1.419 . S
C1912 C1910 1.415 . S
C1912 C1917 1.425 . S
C1912 C1919 1.409 . S
C1913 H1905 0.930 . S
C1913 C1911 1.419 . S
C1913 C1914 1.362 . S
C1914 H1906 0.930 . S
C1914 C1913 1.362 . S
C1914 C1917 1.409 . S
C1915 H1907 0.930 . S
C1915 C1916 1.355 . S
C1915 C1917 1.415 . S
C1916 C1915 1.355 . S
C1916 C1918 1.419 . S
C1917 C1912 1.425 . S
C1917 C1914 1.409 . S
C1917 C1915 1.415 . S
C1918 H1908 0.930 . S
C1918 C1916 1.419 . S
C1918 C1919 1.362 . S
C1919 H1909 0.930 . S
C1919 C1912 1.409 . S
C1919 C1918 1.362 . S
H1920 C1926 0.930 . S
H1921 C1929 0.930 . S
H1922 C1930 0.930 . S
H1923 C1931 0.930 . S
H1924 C1934 0.930 . S
H1925 C1935 0.930 . S
C1926 H1920 0.930 . S
C1926 C1927 1.355 . S
C1926 C1928 1.415 . S
C1927 C1926 1.355 . S
C1927 C1929 1.419 . S
C1928 C1926 1.415 . S
C1928 C1933 1.425 . S
C1928 C1935 1.409 . S
C1929 H1921 0.930 . S
C1929 C1927 1.419 . S
C1929 C1930 1.362 . S
C1930 H1922 0.930 . S
C1930 C1929 1.362 . S
C1930 C1933 1.409 . S
C1931 H1923 0.930 . S
C1931 C1932 1.355 . S
C1931 C1933 1.415 . S
C1932 C1931 1.355 . S
C1932 C1934 1.419 . S
C1933 C1928 1.425 . S
C1933 C1930 1.409 . S
C1933 C1931 1.415 . S
C1934 H1924 0.930 . S
C1934 C1932 1.419 . S
C1934 C1935 1.362 . S
C1935 H1925 0.930 . S
C1935 C1928 1.409 . S
C1935 C1934 1.362 . S
H1936 C1942 0.930 . S
H1937 C1945 0.930 . S
H1938 C1946 0.930 . S
H1939 C1947 0.930 . S
H1940 C1950 0.930 . S
H1941 C1951 0.930 . S
C1942 H1936 0.930 . S
C1942 C1943 1.355 . S
C1942 C1944 1.415 . S
C1943 C1942 1.355 . S
C1943 C1945 1.419 . S
C1944 C1942 1.415 . S
C1944 C1949 1.425 . S
C1944 C1951 1.409 . S
C1945 H1937 0.930 . S
C1945 C1943 1.419 . S
C1945 C1946 1.362 . S
C1946 H1938 0.930 . S
C1946 C1945 1.362 . S
C1946 C1949 1.409 . S
C1947 H1939 0.930 . S
C1947 C1948 1.355 . S
C1947 C1949 1.415 . S
C1948 C1947 1.355 . S
C1948 C1950 1.419 . S
C1949 C1944 1.425 . S
C1949 C1946 1.409 . S
C1949 C1947 1.415 . S
C1950 H1940 0.930 . S
C1950 C1948 1.419 . S
C1950 C1951 1.362 . S
C1951 H1941 0.930 . S
C1951 C1944 1.409 . S
C1951 C1950 1.362 . S
H1952 C1958 0.930 . S
H1953 C1961 0.936 . S
H1954 C1962 0.930 . S
H1955 C1963 0.930 . S
H1956 C1966 0.936 . S
H1957 C1967 0.930 . S
C1958 H1952 0.930 . S
C1958 C1959 1.342 1_556 S
C1958 C1960 1.415 . S
C1959 C1958 1.342 1_554 S
C1959 C1961 1.413 1_545 S
C1960 C1958 1.415 . S
C1960 C1965 1.425 1_546 S
C1960 C1967 1.409 . S
C1961 H1953 0.936 . S
C1961 C1959 1.413 1_565 S
C1961 C1962 1.379 . S
C1962 H1954 0.930 . S
C1962 C1961 1.379 . S
C1962 C1965 1.409 . S
C1963 H1955 0.930 . S
C1963 C1964 1.342 1_554 S
C1963 C1965 1.415 . S
C1964 C1963 1.342 1_556 S
C1964 C1966 1.413 1_565 S
C1965 C1960 1.425 1_564 S
C1965 C1962 1.409 . S
C1965 C1963 1.415 . S
C1966 H1956 0.936 . S
C1966 C1964 1.413 1_545 S
C1966 C1967 1.379 . S
C1967 H1957 0.930 . S
C1967 C1960 1.409 . S
C1967 C1966 1.379 . S
H1968 C1974 0.930 . S
H1969 C1977 0.930 . S
H1970 C1978 0.930 . S
H1971 C1979 0.930 . S
H1972 C1982 0.930 . S
H1973 C1983 0.930 . S
C1974 H1968 0.930 . S
C1974 C1975 1.355 1_554 S
C1974 C1976 1.415 . S
C1975 C1974 1.355 1_556 S
C1975 C1977 1.419 . S
C1976 C1974 1.415 . S
C1976 C1981 1.425 1_554 S
C1976 C1983 1.409 . S
C1977 H1969 0.930 . S
C1977 C1975 1.419 . S
C1977 C1978 1.362 . S
C1978 H1970 0.930 . S
C1978 C1977 1.362 . S
C1978 C1981 1.409 . S
C1979 H1971 0.930 . S
C1979 C1980 1.355 1_556 S
C1979 C1981 1.415 . S
C1980 C1979 1.355 1_554 S
C1980 C1982 1.419 . S
C1981 C1976 1.425 1_556 S
C1981 C1978 1.409 . S
C1981 C1979 1.415 . S
C1982 H1972 0.930 . S
C1982 C1980 1.419 . S
C1982 C1983 1.362 . S
C1983 H1973 0.930 . S
C1983 C1976 1.409 . S
C1983 C1982 1.362 . S
H1984 C1990 0.930 . S
H1985 C1993 0.930 . S
H1986 C1994 0.930 . S
H1987 C1995 0.930 . S
H1988 C1998 0.930 . S
H1989 C1999 0.930 . S
C1990 H1984 0.930 . S
C1990 C1991 1.355 . S
C1990 C1992 1.415 . S
C1991 C1990 1.355 . S
C1991 C1993 1.419 . S
C1992 C1990 1.415 . S
C1992 C1997 1.425 . S
C1992 C1999 1.409 . S
C1993 H1985 0.930 . S
C1993 C1991 1.419 . S
C1993 C1994 1.362 . S
C1994 H1986 0.930 . S
C1994 C1993 1.362 . S
C1994 C1997 1.409 . S
C1995 H1987 0.930 . S
C1995 C1996 1.355 . S
C1995 C1997 1.415 . S
C1996 C1995 1.355 . S
C1996 C1998 1.419 . S
C1997 C1992 1.425 . S
C1997 C1994 1.409 . S
C1997 C1995 1.415 . S
C1998 H1988 0.930 . S
C1998 C1996 1.419 . S
C1998 C1999 1.362 . S
C1999 H1989 0.930 . S
C1999 C1992 1.409 . S
C1999 C1998 1.362 . S
H2000 C2006 0.930 . S
H2001 C2009 0.942 . S
H2002 C2010 0.930 . S
H2003 C2011 0.930 . S
H2004 C2014 0.943 . S
H2005 C2015 0.930 . S
C2006 H2000 0.930 . S
C2006 C2007 1.355 . S
C2006 C2008 1.415 . S
C2007 C2006 1.355 . S
C2007 C2009 1.376 1_565 S
C2008 C2006 1.415 . S
C2008 C2013 1.425 1_565 S
C2008 C2015 1.409 . S
C2009 H2001 0.942 . S
C2009 C2007 1.376 1_545 S
C2009 C2010 1.394 . S
C2010 H2002 0.930 . S
C2010 C2009 1.394 . S
C2010 C2013 1.409 . S
C2011 H2003 0.930 . S
C2011 C2012 1.355 . S
C2011 C2013 1.415 . S
C2012 C2011 1.355 . S
C2012 C2014 1.375 1_545 S
C2013 C2008 1.425 1_545 S
C2013 C2010 1.409 . S
C2013 C2011 1.415 . S
C2014 H2004 0.943 . S
C2014 C2012 1.375 1_565 S
C2014 C2015 1.395 . S
C2015 H2005 0.930 . S
C2015 C2008 1.409 . S
C2015 C2014 1.395 . S
H2016 C2022 0.930 . S
H2017 C2025 0.930 . S
H2018 C2026 0.930 . S
H2019 C2027 0.930 . S
H2020 C2030 0.930 . S
H2021 C2031 0.930 . S
C2022 H2016 0.930 . S
C2022 C2023 1.355 1_554 S
C2022 C2024 1.415 . S
C2023 C2022 1.355 1_556 S
C2023 C2025 1.419 . S
C2024 C2022 1.415 . S
C2024 C2029 1.425 1_554 S
C2024 C2031 1.409 . S
C2025 H2017 0.930 . S
C2025 C2023 1.419 . S
C2025 C2026 1.362 . S
C2026 H2018 0.930 . S
C2026 C2025 1.362 . S
C2026 C2029 1.409 . S
C2027 H2019 0.930 . S
C2027 C2028 1.355 1_556 S
C2027 C2029 1.415 . S
C2028 C2027 1.355 1_554 S
C2028 C2030 1.419 . S
C2029 C2024 1.425 1_556 S
C2029 C2026 1.409 . S
C2029 C2027 1.415 . S
C2030 H2020 0.930 . S
C2030 C2028 1.419 . S
C2030 C2031 1.362 . S
C2031 H2021 0.930 . S
C2031 C2024 1.409 . S
C2031 C2030 1.362 . S
H2032 C2038 0.930 . S
H2033 C2041 0.930 . S
H2034 C2042 0.930 . S
H2035 C2043 0.930 . S
H2036 C2046 0.930 . S
H2037 C2047 0.930 . S
C2038 H2032 0.930 . S
C2038 C2039 1.355 . S
C2038 C2040 1.415 . S
C2039 C2038 1.355 . S
C2039 C2041 1.419 . S
C2040 C2038 1.415 . S
C2040 C2045 1.425 . S
C2040 C2047 1.409 . S
C2041 H2033 0.930 . S
C2041 C2039 1.419 . S
C2041 C2042 1.362 . S
C2042 H2034 0.930 . S
C2042 C2041 1.362 . S
C2042 C2045 1.409 . S
C2043 H2035 0.930 . S
C2043 C2044 1.355 . S
C2043 C2045 1.415 . S
C2044 C2043 1.355 . S
C2044 C2046 1.419 . S
C2045 C2040 1.425 . S
C2045 C2042 1.409 . S
C2045 C2043 1.415 . S
C2046 H2036 0.930 . S
C2046 C2044 1.419 . S
C2046 C2047 1.362 . S
C2047 H2037 0.930 . S
C2047 C2040 1.409 . S
C2047 C2046 1.362 . S
H2048 C2054 0.930 1_545 S
H2049 C2057 0.930 . S
H2050 C2058 0.930 . S
H2051 C2059 0.930 1_565 S
H2052 C2062 0.930 . S
H2053 C2063 0.930 . S
C2054 H2048 0.930 1_565 S
C2054 C2055 1.355 . S
C2054 C2056 1.415 1_565 S
C2055 C2054 1.355 . S
C2055 C2057 1.419 . S
C2056 C2054 1.415 1_545 S
C2056 C2061 1.425 1_545 S
C2056 C2063 1.409 . S
C2057 H2049 0.930 . S
C2057 C2055 1.419 . S
C2057 C2058 1.362 . S
C2058 H2050 0.930 . S
C2058 C2057 1.362 . S
C2058 C2061 1.409 . S
C2059 H2051 0.930 1_545 S
C2059 C2060 1.355 . S
C2059 C2061 1.415 1_545 S
C2060 C2059 1.355 . S
C2060 C2062 1.419 . S
C2061 C2056 1.425 1_565 S
C2061 C2058 1.409 . S
C2061 C2059 1.415 1_565 S
C2062 H2052 0.930 . S
C2062 C2060 1.419 . S
C2062 C2063 1.362 . S
C2063 H2053 0.930 . S
C2063 C2056 1.409 . S
C2063 C2062 1.362 . S
H2064 C2070 0.930 . S
H2065 C2073 0.930 . S
H2066 C2074 0.930 . S
H2067 C2075 0.930 . S
H2068 C2078 0.930 . S
H2069 C2079 0.930 . S
C2070 H2064 0.930 . S
C2070 C2071 1.355 . S
C2070 C2072 1.415 . S
C2071 C2070 1.355 . S
C2071 C2073 1.419 . S
C2072 C2070 1.415 . S
C2072 C2077 1.425 . S
C2072 C2079 1.409 . S
C2073 H2065 0.930 . S
C2073 C2071 1.419 . S
C2073 C2074 1.362 . S
C2074 H2066 0.930 . S
C2074 C2073 1.362 . S
C2074 C2077 1.409 . S
C2075 H2067 0.930 . S
C2075 C2076 1.355 . S
C2075 C2077 1.415 . S
C2076 C2075 1.355 . S
C2076 C2078 1.419 . S
C2077 C2072 1.425 . S
C2077 C2074 1.409 . S
C2077 C2075 1.415 . S
C2078 H2068 0.930 . S
C2078 C2076 1.419 . S
C2078 C2079 1.362 . S
C2079 H2069 0.930 . S
C2079 C2072 1.409 . S
C2079 C2078 1.362 . S
H2080 C2086 0.930 . S
H2081 C2089 0.930 . S
H2082 C2090 0.930 . S
H2083 C2091 0.930 . S
H2084 C2094 0.930 . S
H2085 C2095 0.930 . S
C2086 H2080 0.930 . S
C2086 C2087 1.355 . S
C2086 C2088 1.415 . S
C2087 C2086 1.355 . S
C2087 C2089 1.419 . S
C2088 C2086 1.415 . S
C2088 C2093 1.425 . S
C2088 C2095 1.409 . S
C2089 H2081 0.930 . S
C2089 C2087 1.419 . S
C2089 C2090 1.362 . S
C2090 H2082 0.930 . S
C2090 C2089 1.362 . S
C2090 C2093 1.409 . S
C2091 H2083 0.930 . S
C2091 C2092 1.355 . S
C2091 C2093 1.415 . S
C2092 C2091 1.355 . S
C2092 C2094 1.419 . S
C2093 C2088 1.425 . S
C2093 C2090 1.409 . S
C2093 C2091 1.415 . S
C2094 H2084 0.930 . S
C2094 C2092 1.419 . S
C2094 C2095 1.362 . S
C2095 H2085 0.930 . S
C2095 C2088 1.409 . S
C2095 C2094 1.362 . S
H2096 C2102 0.930 . S
H2097 C2105 0.930 . S
H2098 C2106 0.930 . S
H2099 C2107 0.930 . S
H2100 C2110 0.930 . S
H2101 C2111 0.930 . S
C2102 H2096 0.930 . S
C2102 C2103 1.355 . S
C2102 C2104 1.415 . S
C2103 C2102 1.355 . S
C2103 C2105 1.419 . S
C2104 C2102 1.415 . S
C2104 C2109 1.425 . S
C2104 C2111 1.409 . S
C2105 H2097 0.930 . S
C2105 C2103 1.419 . S
C2105 C2106 1.362 . S
C2106 H2098 0.930 . S
C2106 C2105 1.362 . S
C2106 C2109 1.409 . S
C2107 H2099 0.930 . S
C2107 C2108 1.355 . S
C2107 C2109 1.415 . S
C2108 C2107 1.355 . S
C2108 C2110 1.419 . S
C2109 C2104 1.425 . S
C2109 C2106 1.409 . S
C2109 C2107 1.415 . S
C2110 H2100 0.930 . S
C2110 C2108 1.419 . S
C2110 C2111 1.362 . S
C2111 H2101 0.930 . S
C2111 C2104 1.409 . S
C2111 C2110 1.362 . S
H2112 C2118 0.930 . S
H2113 C2121 0.930 . S
H2114 C2122 0.930 . S
H2115 C2123 0.930 . S
H2116 C2126 0.930 . S
H2117 C2127 0.930 . S
C2118 H2112 0.930 . S
C2118 C2119 1.355 . S
C2118 C2120 1.415 . S
C2119 C2118 1.355 . S
C2119 C2121 1.419 . S
C2120 C2118 1.415 . S
C2120 C2125 1.425 . S
C2120 C2127 1.409 . S
C2121 H2113 0.930 . S
C2121 C2119 1.419 . S
C2121 C2122 1.362 . S
C2122 H2114 0.930 . S
C2122 C2121 1.362 . S
C2122 C2125 1.409 . S
C2123 H2115 0.930 . S
C2123 C2124 1.355 . S
C2123 C2125 1.415 . S
C2124 C2123 1.355 . S
C2124 C2126 1.419 . S
C2125 C2120 1.425 . S
C2125 C2122 1.409 . S
C2125 C2123 1.415 . S
C2126 H2116 0.930 . S
C2126 C2124 1.419 . S
C2126 C2127 1.362 . S
C2127 H2117 0.930 . S
C2127 C2120 1.409 . S
C2127 C2126 1.362 . S
H2128 C2134 0.930 . S
H2129 C2137 0.930 . S
H2130 C2138 0.930 . S
H2131 C2139 0.930 . S
H2132 C2142 0.930 . S
H2133 C2143 0.930 . S
C2134 H2128 0.930 . S
C2134 C2135 1.355 . S
C2134 C2136 1.415 . S
C2135 C2134 1.355 . S
C2135 C2137 1.419 . S
C2136 C2134 1.415 . S
C2136 C2141 1.425 . S
C2136 C2143 1.409 . S
C2137 H2129 0.930 . S
C2137 C2135 1.419 . S
C2137 C2138 1.362 . S
C2138 H2130 0.930 . S
C2138 C2137 1.362 . S
C2138 C2141 1.409 . S
C2139 H2131 0.930 . S
C2139 C2140 1.355 . S
C2139 C2141 1.415 . S
C2140 C2139 1.355 . S
C2140 C2142 1.419 . S
C2141 C2136 1.425 . S
C2141 C2138 1.409 . S
C2141 C2139 1.415 . S
C2142 H2132 0.930 . S
C2142 C2140 1.419 . S
C2142 C2143 1.362 . S
C2143 H2133 0.930 . S
C2143 C2136 1.409 . S
C2143 C2142 1.362 . S
H2144 C2150 0.930 . S
H2145 C2153 0.938 . S
H2146 C2154 0.930 . S
H2147 C2155 0.930 . S
H2148 C2158 0.938 . S
H2149 C2159 0.930 . S
C2150 H2144 0.930 . S
C2150 C2151 1.355 . S
C2150 C2152 1.415 1_455 S
C2151 C2150 1.355 . S
C2151 C2153 1.419 . S
C2152 C2150 1.415 1_655 S
C2152 C2157 1.425 1_665 S
C2152 C2159 1.409 . S
C2153 H2145 0.938 . S
C2153 C2151 1.419 . S
C2153 C2154 1.362 1_565 S
C2154 H2146 0.930 . S
C2154 C2153 1.362 1_545 S
C2154 C2157 1.409 . S
C2155 H2147 0.930 . S
C2155 C2156 1.355 . S
C2155 C2157 1.415 1_655 S
C2156 C2155 1.355 . S
C2156 C2158 1.419 . S
C2157 C2152 1.425 1_445 S
C2157 C2154 1.409 . S
C2157 C2155 1.415 1_455 S
C2158 H2148 0.938 . S
C2158 C2156 1.419 . S
C2158 C2159 1.362 1_545 S
C2159 H2149 0.930 . S
C2159 C2152 1.409 . S
C2159 C2158 1.362 1_565 S
H2160 C2166 0.930 . S
H2161 C2169 0.930 . S
H2162 C2170 0.930 . S
H2163 C2171 0.930 . S
H2164 C2174 0.930 . S
H2165 C2175 0.930 . S
C2166 H2160 0.930 . S
C2166 C2167 1.355 . S
C2166 C2168 1.415 1_655 S
C2167 C2166 1.355 . S
C2167 C2169 1.419 . S
C2168 C2166 1.415 1_455 S
C2168 C2173 1.425 1_455 S
C2168 C2175 1.409 . S
C2169 H2161 0.930 . S
C2169 C2167 1.419 . S
C2169 C2170 1.362 . S
C2170 H2162 0.930 . S
C2170 C2169 1.362 . S
C2170 C2173 1.409 . S
C2171 H2163 0.930 . S
C2171 C2172 1.355 . S
C2171 C2173 1.415 1_455 S
C2172 C2171 1.355 . S
C2172 C2174 1.419 . S
C2173 C2168 1.425 1_655 S
C2173 C2170 1.409 . S
C2173 C2171 1.415 1_655 S
C2174 H2164 0.930 . S
C2174 C2172 1.419 . S
C2174 C2175 1.362 . S
C2175 H2165 0.930 . S
C2175 C2168 1.409 . S
C2175 C2174 1.362 . S
H2176 C2182 0.930 . S
H2177 C2185 0.930 . S
H2178 C2186 0.930 . S
H2179 C2187 0.930 . S
H2180 C2190 0.930 . S
H2181 C2191 0.930 . S
C2182 H2176 0.930 . S
C2182 C2183 1.355 . S
C2182 C2184 1.415 1_455 S
C2183 C2182 1.355 . S
C2183 C2185 1.419 . S
C2184 C2182 1.415 1_655 S
C2184 C2189 1.425 1_655 S
C2184 C2191 1.409 . S
C2185 H2177 0.930 . S
C2185 C2183 1.419 . S
C2185 C2186 1.362 . S
C2186 H2178 0.930 . S
C2186 C2185 1.362 . S
C2186 C2189 1.409 . S
C2187 H2179 0.930 . S
C2187 C2188 1.355 . S
C2187 C2189 1.415 1_655 S
C2188 C2187 1.355 . S
C2188 C2190 1.419 . S
C2189 C2184 1.425 1_455 S
C2189 C2186 1.409 . S
C2189 C2187 1.415 1_455 S
C2190 H2180 0.930 . S
C2190 C2188 1.419 . S
C2190 C2191 1.362 . S
C2191 H2181 0.930 . S
C2191 C2184 1.409 . S
C2191 C2190 1.362 . S
H2192 C2198 0.930 . S
H2193 C2201 0.930 . S
H2194 C2202 0.930 . S
H2195 C2203 0.930 . S
H2196 C2206 0.930 . S
H2197 C2207 0.930 . S
C2198 H2192 0.930 . S
C2198 C2199 1.339 1_556 S
C2198 C2200 1.415 1_455 S
C2199 C2198 1.339 1_554 S
C2199 C2201 1.439 . S
C2200 C2198 1.415 1_655 S
C2200 C2205 1.425 1_656 S
C2200 C2207 1.409 . S
C2201 H2193 0.930 . S
C2201 C2199 1.439 . S
C2201 C2202 1.362 . S
C2202 H2194 0.930 . S
C2202 C2201 1.362 . S
C2202 C2205 1.409 . S
C2203 H2195 0.930 . S
C2203 C2204 1.339 1_554 S
C2203 C2205 1.415 1_655 S
C2204 C2203 1.339 1_556 S
C2204 C2206 1.439 . S
C2205 C2200 1.425 1_454 S
C2205 C2202 1.409 . S
C2205 C2203 1.415 1_455 S
C2206 H2196 0.930 . S
C2206 C2204 1.439 . S
C2206 C2207 1.362 . S
C2207 H2197 0.930 . S
C2207 C2200 1.409 . S
C2207 C2206 1.362 . S
H2208 C2214 0.930 . S
H2209 C2217 0.930 . S
H2210 C2218 0.930 . S
H2211 C2219 0.930 . S
H2212 C2222 0.930 . S
H2213 C2223 0.930 . S
C2214 H2208 0.930 . S
C2214 C2215 1.355 . S
C2214 C2216 1.415 . S
C2215 C2214 1.355 . S
C2215 C2217 1.419 . S
C2216 C2214 1.415 . S
C2216 C2221 1.425 . S
C2216 C2223 1.409 . S
C2217 H2209 0.930 . S
C2217 C2215 1.419 . S
C2217 C2218 1.362 . S
C2218 H2210 0.930 . S
C2218 C2217 1.362 . S
C2218 C2221 1.409 . S
C2219 H2211 0.930 . S
C2219 C2220 1.355 . S
C2219 C2221 1.415 . S
C2220 C2219 1.355 . S
C2220 C2222 1.419 . S
C2221 C2216 1.425 . S
C2221 C2218 1.409 . S
C2221 C2219 1.415 . S
C2222 H2212 0.930 . S
C2222 C2220 1.419 . S
C2222 C2223 1.362 . S
C2223 H2213 0.930 . S
C2223 C2216 1.409 . S
C2223 C2222 1.362 . S
H2224 C2230 0.930 . S
H2225 C2233 0.930 . S
H2226 C2234 0.930 . S
H2227 C2235 0.930 . S
H2228 C2238 0.930 . S
H2229 C2239 0.930 . S
C2230 H2224 0.930 . S
C2230 C2231 1.355 . S
C2230 C2232 1.415 . S
C2231 C2230 1.355 . S
C2231 C2233 1.419 . S
C2232 C2230 1.415 . S
C2232 C2237 1.425 . S
C2232 C2239 1.409 . S
C2233 H2225 0.930 . S
C2233 C2231 1.419 . S
C2233 C2234 1.362 . S
C2234 H2226 0.930 . S
C2234 C2233 1.362 . S
C2234 C2237 1.409 . S
C2235 H2227 0.930 . S
C2235 C2236 1.355 . S
C2235 C2237 1.415 . S
C2236 C2235 1.355 . S
C2236 C2238 1.419 . S
C2237 C2232 1.425 . S
C2237 C2234 1.409 . S
C2237 C2235 1.415 . S
C2238 H2228 0.930 . S
C2238 C2236 1.419 . S
C2238 C2239 1.362 . S
C2239 H2229 0.930 . S
C2239 C2232 1.409 . S
C2239 C2238 1.362 . S
H2240 C2246 0.930 . S
H2241 C2249 0.930 . S
H2242 C2250 0.930 . S
H2243 C2251 0.930 . S
H2244 C2254 0.930 . S
H2245 C2255 0.930 . S
C2246 H2240 0.930 . S
C2246 C2247 1.355 . S
C2246 C2248 1.415 . S
C2247 C2246 1.355 . S
C2247 C2249 1.419 . S
C2248 C2246 1.415 . S
C2248 C2253 1.425 . S
C2248 C2255 1.409 . S
C2249 H2241 0.930 . S
C2249 C2247 1.419 . S
C2249 C2250 1.362 . S
C2250 H2242 0.930 . S
C2250 C2249 1.362 . S
C2250 C2253 1.409 . S
C2251 H2243 0.930 . S
C2251 C2252 1.355 . S
C2251 C2253 1.415 . S
C2252 C2251 1.355 . S
C2252 C2254 1.419 . S
C2253 C2248 1.425 . S
C2253 C2250 1.409 . S
C2253 C2251 1.415 . S
C2254 H2244 0.930 . S
C2254 C2252 1.419 . S
C2254 C2255 1.362 . S
C2255 H2245 0.930 . S
C2255 C2248 1.409 . S
C2255 C2254 1.362 . S
H2256 C2262 0.930 . S
H2257 C2265 0.930 . S
H2258 C2266 0.930 . S
H2259 C2267 0.930 . S
H2260 C2270 0.930 . S
H2261 C2271 0.930 . S
C2262 H2256 0.930 . S
C2262 C2263 1.355 . S
C2262 C2264 1.415 . S
C2263 C2262 1.355 . S
C2263 C2265 1.419 . S
C2264 C2262 1.415 . S
C2264 C2269 1.425 . S
C2264 C2271 1.409 . S
C2265 H2257 0.930 . S
C2265 C2263 1.419 . S
C2265 C2266 1.362 . S
C2266 H2258 0.930 . S
C2266 C2265 1.362 . S
C2266 C2269 1.409 . S
C2267 H2259 0.930 . S
C2267 C2268 1.355 . S
C2267 C2269 1.415 . S
C2268 C2267 1.355 . S
C2268 C2270 1.419 . S
C2269 C2264 1.425 . S
C2269 C2266 1.409 . S
C2269 C2267 1.415 . S
C2270 H2260 0.930 . S
C2270 C2268 1.419 . S
C2270 C2271 1.362 . S
C2271 H2261 0.930 . S
C2271 C2264 1.409 . S
C2271 C2270 1.362 . S
H2272 C2278 0.930 . S
H2273 C2281 0.930 . S
H2274 C2282 0.930 . S
H2275 C2283 0.930 . S
H2276 C2286 0.930 . S
H2277 C2287 0.930 . S
C2278 H2272 0.930 . S
C2278 C2279 1.355 . S
C2278 C2280 1.415 . S
C2279 C2278 1.355 . S
C2279 C2281 1.419 . S
C2280 C2278 1.415 . S
C2280 C2285 1.425 . S
C2280 C2287 1.409 . S
C2281 H2273 0.930 . S
C2281 C2279 1.419 . S
C2281 C2282 1.362 . S
C2282 H2274 0.930 . S
C2282 C2281 1.362 . S
C2282 C2285 1.409 . S
C2283 H2275 0.930 . S
C2283 C2284 1.355 . S
C2283 C2285 1.415 . S
C2284 C2283 1.355 . S
C2284 C2286 1.419 . S
C2285 C2280 1.425 . S
C2285 C2282 1.409 . S
C2285 C2283 1.415 . S
C2286 H2276 0.930 . S
C2286 C2284 1.419 . S
C2286 C2287 1.362 . S
C2287 H2277 0.930 . S
C2287 C2280 1.409 . S
C2287 C2286 1.362 . S
H2288 C2294 0.930 . S
H2289 C2297 0.930 . S
H2290 C2298 0.930 . S
H2291 C2299 0.930 . S
H2292 C2302 0.930 . S
H2293 C2303 0.930 . S
C2294 H2288 0.930 . S
C2294 C2295 1.355 . S
C2294 C2296 1.415 . S
C2295 C2294 1.355 . S
C2295 C2297 1.419 . S
C2296 C2294 1.415 . S
C2296 C2301 1.425 . S
C2296 C2303 1.409 . S
C2297 H2289 0.930 . S
C2297 C2295 1.419 . S
C2297 C2298 1.362 . S
C2298 H2290 0.930 . S
C2298 C2297 1.362 . S
C2298 C2301 1.409 . S
C2299 H2291 0.930 . S
C2299 C2300 1.355 . S
C2299 C2301 1.415 . S
C2300 C2299 1.355 . S
C2300 C2302 1.419 . S
C2301 C2296 1.425 . S
C2301 C2298 1.409 . S
C2301 C2299 1.415 . S
C2302 H2292 0.930 . S
C2302 C2300 1.419 . S
C2302 C2303 1.362 . S
C2303 H2293 0.930 . S
C2303 C2296 1.409 . S
C2303 C2302 1.362 . S
H2304 C2310 0.930 . S
H2305 C2313 0.930 . S
H2306 C2314 0.930 . S
H2307 C2315 0.930 . S
H2308 C2318 0.930 . S
H2309 C2319 0.930 . S
C2310 H2304 0.930 . S
C2310 C2311 1.355 . S
C2310 C2312 1.415 . S
C2311 C2310 1.355 . S
C2311 C2313 1.419 . S
C2312 C2310 1.415 . S
C2312 C2317 1.425 . S
C2312 C2319 1.409 . S
C2313 H2305 0.930 . S
C2313 C2311 1.419 . S
C2313 C2314 1.362 . S
C2314 H2306 0.930 . S
C2314 C2313 1.362 . S
C2314 C2317 1.409 . S
C2315 H2307 0.930 . S
C2315 C2316 1.355 . S
C2315 C2317 1.415 . S
C2316 C2315 1.355 . S
C2316 C2318 1.419 . S
C2317 C2312 1.425 . S
C2317 C2314 1.409 . S
C2317 C2315 1.415 . S
C2318 H2308 0.930 . S
C2318 C2316 1.419 . S
C2318 C2319 1.362 . S
C2319 H2309 0.930 . S
C2319 C2312 1.409 . S
C2319 C2318 1.362 . S
H2320 C2326 0.930 . S
H2321 C2329 0.930 . S
H2322 C2330 0.930 . S
H2323 C2331 0.930 . S
H2324 C2334 0.930 . S
H2325 C2335 0.930 . S
C2326 H2320 0.930 . S
C2326 C2327 1.355 . S
C2326 C2328 1.415 . S
C2327 C2326 1.355 . S
C2327 C2329 1.419 . S
C2328 C2326 1.415 . S
C2328 C2333 1.425 . S
C2328 C2335 1.409 . S
C2329 H2321 0.930 . S
C2329 C2327 1.419 . S
C2329 C2330 1.362 . S
C2330 H2322 0.930 . S
C2330 C2329 1.362 . S
C2330 C2333 1.409 . S
C2331 H2323 0.930 . S
C2331 C2332 1.355 . S
C2331 C2333 1.415 . S
C2332 C2331 1.355 . S
C2332 C2334 1.419 . S
C2333 C2328 1.425 . S
C2333 C2330 1.409 . S
C2333 C2331 1.415 . S
C2334 H2324 0.930 . S
C2334 C2332 1.419 . S
C2334 C2335 1.362 . S
C2335 H2325 0.930 . S
C2335 C2328 1.409 . S
C2335 C2334 1.362 . S
H2336 C2342 0.930 . S
H2337 C2345 0.930 . S
H2338 C2346 0.930 . S
H2339 C2347 0.930 . S
H2340 C2350 0.930 . S
H2341 C2351 0.930 . S
C2342 H2336 0.930 . S
C2342 C2343 1.355 . S
C2342 C2344 1.415 . S
C2343 C2342 1.355 . S
C2343 C2345 1.419 . S
C2344 C2342 1.415 . S
C2344 C2349 1.425 . S
C2344 C2351 1.409 . S
C2345 H2337 0.930 . S
C2345 C2343 1.419 . S
C2345 C2346 1.362 . S
C2346 H2338 0.930 . S
C2346 C2345 1.362 . S
C2346 C2349 1.409 . S
C2347 H2339 0.930 . S
C2347 C2348 1.355 . S
C2347 C2349 1.415 . S
C2348 C2347 1.355 . S
C2348 C2350 1.419 . S
C2349 C2344 1.425 . S
C2349 C2346 1.409 . S
C2349 C2347 1.415 . S
C2350 H2340 0.930 . S
C2350 C2348 1.419 . S
C2350 C2351 1.362 . S
C2351 H2341 0.930 . S
C2351 C2344 1.409 . S
C2351 C2350 1.362 . S
H2352 C2358 0.930 . S
H2353 C2361 0.930 . S
H2354 C2362 0.930 . S
H2355 C2363 0.930 . S
H2356 C2366 0.930 . S
H2357 C2367 0.930 . S
C2358 H2352 0.930 . S
C2358 C2359 1.355 . S
C2358 C2360 1.415 . S
C2359 C2358 1.355 . S
C2359 C2361 1.419 . S
C2360 C2358 1.415 . S
C2360 C2365 1.425 . S
C2360 C2367 1.409 . S
C2361 H2353 0.930 . S
C2361 C2359 1.419 . S
C2361 C2362 1.362 . S
C2362 H2354 0.930 . S
C2362 C2361 1.362 . S
C2362 C2365 1.409 . S
C2363 H2355 0.930 . S
C2363 C2364 1.355 . S
C2363 C2365 1.415 . S
C2364 C2363 1.355 . S
C2364 C2366 1.419 . S
C2365 C2360 1.425 . S
C2365 C2362 1.409 . S
C2365 C2363 1.415 . S
C2366 H2356 0.930 . S
C2366 C2364 1.419 . S
C2366 C2367 1.362 . S
C2367 H2357 0.930 . S
C2367 C2360 1.409 . S
C2367 C2366 1.362 . S
H2368 C2374 0.930 . S
H2369 C2377 0.930 . S
H2370 C2378 0.930 . S
H2371 C2379 0.930 . S
H2372 C2382 0.930 . S
H2373 C2383 0.930 . S
C2374 H2368 0.930 . S
C2374 C2375 1.355 . S
C2374 C2376 1.415 . S
C2375 C2374 1.355 . S
C2375 C2377 1.419 . S
C2376 C2374 1.415 . S
C2376 C2381 1.425 . S
C2376 C2383 1.409 . S
C2377 H2369 0.930 . S
C2377 C2375 1.419 . S
C2377 C2378 1.362 . S
C2378 H2370 0.930 . S
C2378 C2377 1.362 . S
C2378 C2381 1.409 . S
C2379 H2371 0.930 . S
C2379 C2380 1.355 . S
C2379 C2381 1.415 . S
C2380 C2379 1.355 . S
C2380 C2382 1.419 . S
C2381 C2376 1.425 . S
C2381 C2378 1.409 . S
C2381 C2379 1.415 . S
C2382 H2372 0.930 . S
C2382 C2380 1.419 . S
C2382 C2383 1.362 . S
C2383 H2373 0.930 . S
C2383 C2376 1.409 . S
C2383 C2382 1.362 . S
H2384 C2390 0.930 . S
H2385 C2393 0.930 . S
H2386 C2394 0.930 . S
H2387 C2395 0.930 . S
H2388 C2398 0.930 . S
H2389 C2399 0.930 . S
C2390 H2384 0.930 . S
C2390 C2391 1.355 . S
C2390 C2392 1.415 . S
C2391 C2390 1.355 . S
C2391 C2393 1.419 . S
C2392 C2390 1.415 . S
C2392 C2397 1.425 . S
C2392 C2399 1.409 . S
C2393 H2385 0.930 . S
C2393 C2391 1.419 . S
C2393 C2394 1.362 . S
C2394 H2386 0.930 . S
C2394 C2393 1.362 . S
C2394 C2397 1.409 . S
C2395 H2387 0.930 . S
C2395 C2396 1.355 . S
C2395 C2397 1.415 . S
C2396 C2395 1.355 . S
C2396 C2398 1.419 . S
C2397 C2392 1.425 . S
C2397 C2394 1.409 . S
C2397 C2395 1.415 . S
C2398 H2388 0.930 . S
C2398 C2396 1.419 . S
C2398 C2399 1.362 . S
C2399 H2389 0.930 . S
C2399 C2392 1.409 . S
C2399 C2398 1.362 . S
H2400 C2406 0.930 . S
H2401 C2409 0.930 . S
H2402 C2410 0.930 . S
H2403 C2411 0.930 . S
H2404 C2414 0.930 . S
H2405 C2415 0.930 . S
C2406 H2400 0.930 . S
C2406 C2407 1.355 . S
C2406 C2408 1.415 . S
C2407 C2406 1.355 . S
C2407 C2409 1.419 . S
C2408 C2406 1.415 . S
C2408 C2413 1.425 . S
C2408 C2415 1.409 . S
C2409 H2401 0.930 . S
C2409 C2407 1.419 . S
C2409 C2410 1.362 . S
C2410 H2402 0.930 . S
C2410 C2409 1.362 . S
C2410 C2413 1.409 . S
C2411 H2403 0.930 . S
C2411 C2412 1.355 . S
C2411 C2413 1.415 . S
C2412 C2411 1.355 . S
C2412 C2414 1.419 . S
C2413 C2408 1.425 . S
C2413 C2410 1.409 . S
C2413 C2411 1.415 . S
C2414 H2404 0.930 . S
C2414 C2412 1.419 . S
C2414 C2415 1.362 . S
C2415 H2405 0.930 . S
C2415 C2408 1.409 . S
C2415 C2414 1.362 . S
H2416 C2422 0.930 . S
H2417 C2425 0.930 . S
H2418 C2426 0.930 . S
H2419 C2427 0.930 . S
H2420 C2430 0.930 . S
H2421 C2431 0.930 . S
C2422 H2416 0.930 . S
C2422 C2423 1.355 . S
C2422 C2424 1.415 . S
C2423 C2422 1.355 . S
C2423 C2425 1.419 . S
C2424 C2422 1.415 . S
C2424 C2429 1.425 . S
C2424 C2431 1.409 . S
C2425 H2417 0.930 . S
C2425 C2423 1.419 . S
C2425 C2426 1.362 . S
C2426 H2418 0.930 . S
C2426 C2425 1.362 . S
C2426 C2429 1.409 . S
C2427 H2419 0.930 . S
C2427 C2428 1.355 . S
C2427 C2429 1.415 . S
C2428 C2427 1.355 . S
C2428 C2430 1.419 . S
C2429 C2424 1.425 . S
C2429 C2426 1.409 . S
C2429 C2427 1.415 . S
C2430 H2420 0.930 . S
C2430 C2428 1.419 . S
C2430 C2431 1.362 . S
C2431 H2421 0.930 . S
C2431 C2424 1.409 . S
C2431 C2430 1.362 . S
H2432 C2438 0.930 . S
H2433 C2441 0.930 . S
H2434 C2442 0.930 . S
H2435 C2443 0.930 . S
H2436 C2446 0.930 . S
H2437 C2447 0.930 . S
C2438 H2432 0.930 . S
C2438 C2439 1.355 . S
C2438 C2440 1.415 . S
C2439 C2438 1.355 . S
C2439 C2441 1.419 . S
C2440 C2438 1.415 . S
C2440 C2445 1.425 . S
C2440 C2447 1.409 . S
C2441 H2433 0.930 . S
C2441 C2439 1.419 . S
C2441 C2442 1.362 . S
C2442 H2434 0.930 . S
C2442 C2441 1.362 . S
C2442 C2445 1.409 . S
C2443 H2435 0.930 . S
C2443 C2444 1.355 . S
C2443 C2445 1.415 . S
C2444 C2443 1.355 . S
C2444 C2446 1.419 . S
C2445 C2440 1.425 . S
C2445 C2442 1.409 . S
C2445 C2443 1.415 . S
C2446 H2436 0.930 . S
C2446 C2444 1.419 . S
C2446 C2447 1.362 . S
C2447 H2437 0.930 . S
C2447 C2440 1.409 . S
C2447 C2446 1.362 . S
H2448 C2454 0.930 . S
H2449 C2457 0.930 . S
H2450 C2458 0.930 . S
H2451 C2459 0.930 . S
H2452 C2462 0.930 . S
H2453 C2463 0.930 . S
C2454 H2448 0.930 . S
C2454 C2455 1.355 . S
C2454 C2456 1.415 . S
C2455 C2454 1.355 . S
C2455 C2457 1.419 . S
C2456 C2454 1.415 . S
C2456 C2461 1.425 . S
C2456 C2463 1.409 . S
C2457 H2449 0.930 . S
C2457 C2455 1.419 . S
C2457 C2458 1.362 . S
C2458 H2450 0.930 . S
C2458 C2457 1.362 . S
C2458 C2461 1.409 . S
C2459 H2451 0.930 . S
C2459 C2460 1.355 . S
C2459 C2461 1.415 . S
C2460 C2459 1.355 . S
C2460 C2462 1.419 . S
C2461 C2456 1.425 . S
C2461 C2458 1.409 . S
C2461 C2459 1.415 . S
C2462 H2452 0.930 . S
C2462 C2460 1.419 . S
C2462 C2463 1.362 . S
C2463 H2453 0.930 . S
C2463 C2456 1.409 . S
C2463 C2462 1.362 . S
H2464 C2470 0.930 . S
H2465 C2473 0.930 . S
H2466 C2474 0.930 . S
H2467 C2475 0.930 . S
H2468 C2478 0.930 . S
H2469 C2479 0.930 . S
C2470 H2464 0.930 . S
C2470 C2471 1.355 . S
C2470 C2472 1.415 . S
C2471 C2470 1.355 . S
C2471 C2473 1.419 1_554 S
C2472 C2470 1.415 . S
C2472 C2477 1.425 1_554 S
C2472 C2479 1.409 . S
C2473 H2465 0.930 . S
C2473 C2471 1.419 1_556 S
C2473 C2474 1.362 . S
C2474 H2466 0.930 . S
C2474 C2473 1.362 . S
C2474 C2477 1.409 . S
C2475 H2467 0.930 . S
C2475 C2476 1.355 1_556 S
C2475 C2477 1.415 . S
C2476 C2475 1.355 1_554 S
C2476 C2478 1.419 . S
C2477 C2472 1.425 1_556 S
C2477 C2474 1.409 . S
C2477 C2475 1.415 . S
C2478 H2468 0.930 . S
C2478 C2476 1.419 . S
C2478 C2479 1.362 . S
C2479 H2469 0.930 . S
C2479 C2472 1.409 . S
C2479 C2478 1.362 . S
H2480 C2486 0.930 . S
H2481 C2489 0.930 . S
H2482 C2490 0.930 . S
H2483 C2491 0.930 . S
H2484 C2494 0.930 . S
H2485 C2495 0.930 . S
C2486 H2480 0.930 . S
C2486 C2487 1.355 . S
C2486 C2488 1.415 . S
C2487 C2486 1.355 . S
C2487 C2489 1.419 . S
C2488 C2486 1.415 . S
C2488 C2493 1.425 . S
C2488 C2495 1.409 . S
C2489 H2481 0.930 . S
C2489 C2487 1.419 . S
C2489 C2490 1.362 . S
C2490 H2482 0.930 . S
C2490 C2489 1.362 . S
C2490 C2493 1.409 . S
C2491 H2483 0.930 . S
C2491 C2492 1.355 . S
C2491 C2493 1.415 . S
C2492 C2491 1.355 . S
C2492 C2494 1.419 . S
C2493 C2488 1.425 . S
C2493 C2490 1.409 . S
C2493 C2491 1.415 . S
C2494 H2484 0.930 . S
C2494 C2492 1.419 . S
C2494 C2495 1.362 . S
C2495 H2485 0.930 . S
C2495 C2488 1.409 . S
C2495 C2494 1.362 . S
H2496 C2502 0.930 . S
H2497 C2505 0.930 . S
H2498 C2506 0.930 . S
H2499 C2507 0.930 . S
H2500 C2510 0.930 . S
H2501 C2511 0.930 . S
C2502 H2496 0.930 . S
C2502 C2503 1.355 1_554 S
C2502 C2504 1.415 . S
C2503 C2502 1.355 1_556 S
C2503 C2505 1.419 . S
C2504 C2502 1.415 . S
C2504 C2509 1.419 1_554 S
C2504 C2511 1.414 . S
C2505 H2497 0.930 . S
C2505 C2503 1.419 . S
C2505 C2506 1.362 . S
C2506 H2498 0.930 . S
C2506 C2505 1.362 . S
C2506 C2509 1.409 . S
C2507 H2499 0.930 . S
C2507 C2508 1.355 . S
C2507 C2509 1.415 . S
C2508 C2507 1.355 . S
C2508 C2510 1.419 1_556 S
C2509 C2504 1.419 1_556 S
C2509 C2506 1.409 . S
C2509 C2507 1.415 . S
C2510 H2500 0.930 . S
C2510 C2508 1.419 1_554 S
C2510 C2511 1.362 . S
C2511 H2501 0.930 . S
C2511 C2504 1.414 . S
C2511 C2510 1.362 . S
H2512 C2518 0.930 . S
H2513 C2521 0.930 . S
H2514 C2522 0.930 . S
H2515 C2523 0.930 . S
H2516 C2526 0.930 . S
H2517 C2527 0.930 . S
C2518 H2512 0.930 . S
C2518 C2519 1.355 . S
C2518 C2520 1.415 . S
C2519 C2518 1.355 . S
C2519 C2521 1.419 . S
C2520 C2518 1.415 . S
C2520 C2525 1.425 . S
C2520 C2527 1.409 . S
C2521 H2513 0.930 . S
C2521 C2519 1.419 . S
C2521 C2522 1.362 . S
C2522 H2514 0.930 . S
C2522 C2521 1.362 . S
C2522 C2525 1.409 . S
C2523 H2515 0.930 . S
C2523 C2524 1.355 . S
C2523 C2525 1.415 . S
C2524 C2523 1.355 . S
C2524 C2526 1.419 . S
C2525 C2520 1.425 . S
C2525 C2522 1.409 . S
C2525 C2523 1.415 . S
C2526 H2516 0.930 . S
C2526 C2524 1.419 . S
C2526 C2527 1.362 . S
C2527 H2517 0.930 . S
C2527 C2520 1.409 . S
C2527 C2526 1.362 . S
H2528 C2534 0.930 . S
H2529 C2537 0.930 . S
H2530 C2538 0.930 . S
H2531 C2539 0.930 . S
H2532 C2542 0.930 . S
H2533 C2543 0.930 . S
C2534 H2528 0.930 . S
C2534 C2535 1.355 . S
C2534 C2536 1.415 . S
C2535 C2534 1.355 . S
C2535 C2537 1.419 . S
C2536 C2534 1.415 . S
C2536 C2541 1.425 . S
C2536 C2543 1.409 . S
C2537 H2529 0.930 . S
C2537 C2535 1.419 . S
C2537 C2538 1.362 . S
C2538 H2530 0.930 . S
C2538 C2537 1.362 . S
C2538 C2541 1.409 . S
C2539 H2531 0.930 . S
C2539 C2540 1.355 . S
C2539 C2541 1.415 . S
C2540 C2539 1.355 . S
C2540 C2542 1.419 . S
C2541 C2536 1.425 . S
C2541 C2538 1.409 . S
C2541 C2539 1.415 . S
C2542 H2532 0.930 . S
C2542 C2540 1.419 . S
C2542 C2543 1.362 . S
C2543 H2533 0.930 . S
C2543 C2536 1.409 . S
C2543 C2542 1.362 . S
H2544 C2550 0.930 . S
H2545 C2553 0.930 . S
H2546 C2554 0.930 . S
H2547 C2555 0.930 . S
H2548 C2558 0.930 . S
H2549 C2559 0.930 . S
C2550 H2544 0.930 . S
C2550 C2551 1.355 . S
C2550 C2552 1.415 . S
C2551 C2550 1.355 . S
C2551 C2553 1.419 . S
C2552 C2550 1.415 . S
C2552 C2557 1.425 . S
C2552 C2559 1.409 . S
C2553 H2545 0.930 . S
C2553 C2551 1.419 . S
C2553 C2554 1.362 . S
C2554 H2546 0.930 . S
C2554 C2553 1.362 . S
C2554 C2557 1.409 . S
C2555 H2547 0.930 . S
C2555 C2556 1.355 . S
C2555 C2557 1.415 . S
C2556 C2555 1.355 . S
C2556 C2558 1.419 . S
C2557 C2552 1.425 . S
C2557 C2554 1.409 . S
C2557 C2555 1.415 . S
C2558 H2548 0.930 . S
C2558 C2556 1.419 . S
C2558 C2559 1.362 . S
C2559 H2549 0.930 . S
C2559 C2552 1.409 . S
C2559 C2558 1.362 . S
H2560 C2566 0.930 . S
H2561 C2569 0.930 . S
H2562 C2570 0.930 . S
H2563 C2571 0.930 . S
H2564 C2574 0.930 . S
H2565 C2575 0.930 . S
C2566 H2560 0.930 . S
C2566 C2567 1.355 . S
C2566 C2568 1.415 . S
C2567 C2566 1.355 . S
C2567 C2569 1.419 . S
C2568 C2566 1.415 . S
C2568 C2573 1.425 . S
C2568 C2575 1.409 . S
C2569 H2561 0.930 . S
C2569 C2567 1.419 . S
C2569 C2570 1.362 . S
C2570 H2562 0.930 . S
C2570 C2569 1.362 . S
C2570 C2573 1.409 . S
C2571 H2563 0.930 . S
C2571 C2572 1.355 . S
C2571 C2573 1.415 . S
C2572 C2571 1.355 . S
C2572 C2574 1.419 . S
C2573 C2568 1.425 . S
C2573 C2570 1.409 . S
C2573 C2571 1.415 . S
C2574 H2564 0.930 . S
C2574 C2572 1.419 . S
C2574 C2575 1.362 . S
C2575 H2565 0.930 . S
C2575 C2568 1.409 . S
C2575 C2574 1.362 . S
H2576 C2582 0.930 . S
H2577 C2585 0.930 . S
H2578 C2586 0.930 . S
H2579 C2587 0.930 . S
H2580 C2590 0.930 . S
H2581 C2591 0.930 . S
C2582 H2576 0.930 . S
C2582 C2583 1.355 . S
C2582 C2584 1.415 . S
C2583 C2582 1.355 . S
C2583 C2585 1.419 . S
C2584 C2582 1.415 . S
C2584 C2589 1.425 . S
C2584 C2591 1.409 . S
C2585 H2577 0.930 . S
C2585 C2583 1.419 . S
C2585 C2586 1.362 . S
C2586 H2578 0.930 . S
C2586 C2585 1.362 . S
C2586 C2589 1.409 . S
C2587 H2579 0.930 . S
C2587 C2588 1.355 . S
C2587 C2589 1.415 . S
C2588 C2587 1.355 . S
C2588 C2590 1.419 . S
C2589 C2584 1.425 . S
C2589 C2586 1.409 . S
C2589 C2587 1.415 . S
C2590 H2580 0.930 . S
C2590 C2588 1.419 . S
C2590 C2591 1.362 . S
C2591 H2581 0.930 . S
C2591 C2584 1.409 . S
C2591 C2590 1.362 . S
H2592 C2598 0.930 . S
H2593 C2601 0.930 . S
H2594 C2602 0.930 . S
H2595 C2603 0.930 . S
H2596 C2606 0.930 . S
H2597 C2607 0.930 . S
C2598 H2592 0.930 . S
C2598 C2599 1.355 . S
C2598 C2600 1.415 . S
C2599 C2598 1.355 . S
C2599 C2601 1.419 . S
C2600 C2598 1.415 . S
C2600 C2605 1.425 . S
C2600 C2607 1.409 . S
C2601 H2593 0.930 . S
C2601 C2599 1.419 . S
C2601 C2602 1.362 . S
C2602 H2594 0.930 . S
C2602 C2601 1.362 . S
C2602 C2605 1.409 . S
C2603 H2595 0.930 . S
C2603 C2604 1.355 . S
C2603 C2605 1.415 . S
C2604 C2603 1.355 . S
C2604 C2606 1.419 . S
C2605 C2600 1.425 . S
C2605 C2602 1.409 . S
C2605 C2603 1.415 . S
C2606 H2596 0.930 . S
C2606 C2604 1.419 . S
C2606 C2607 1.362 . S
C2607 H2597 0.930 . S
C2607 C2600 1.409 . S
C2607 C2606 1.362 . S
H2608 C2614 0.930 . S
H2609 C2617 0.930 . S
H2610 C2618 0.930 . S
H2611 C2619 0.930 . S
H2612 C2622 0.930 . S
H2613 C2623 0.930 . S
C2614 H2608 0.930 . S
C2614 C2615 1.355 . S
C2614 C2616 1.415 . S
C2615 C2614 1.355 . S
C2615 C2617 1.419 . S
C2616 C2614 1.415 . S
C2616 C2621 1.425 . S
C2616 C2623 1.409 . S
C2617 H2609 0.930 . S
C2617 C2615 1.419 . S
C2617 C2618 1.362 . S
C2618 H2610 0.930 . S
C2618 C2617 1.362 . S
C2618 C2621 1.409 . S
C2619 H2611 0.930 . S
C2619 C2620 1.355 . S
C2619 C2621 1.415 . S
C2620 C2619 1.355 . S
C2620 C2622 1.419 . S
C2621 C2616 1.425 . S
C2621 C2618 1.409 . S
C2621 C2619 1.415 . S
C2622 H2612 0.930 . S
C2622 C2620 1.419 . S
C2622 C2623 1.362 . S
C2623 H2613 0.930 . S
C2623 C2616 1.409 . S
C2623 C2622 1.362 . S
H2624 C2630 0.930 . S
H2625 C2633 0.930 . S
H2626 C2634 0.930 . S
H2627 C2635 0.930 . S
H2628 C2638 0.930 . S
H2629 C2639 0.930 . S
C2630 H2624 0.930 . S
C2630 C2631 1.355 . S
C2630 C2632 1.415 . S
C2631 C2630 1.355 . S
C2631 C2633 1.419 . S
C2632 C2630 1.415 . S
C2632 C2637 1.425 . S
C2632 C2639 1.409 . S
C2633 H2625 0.930 . S
C2633 C2631 1.419 . S
C2633 C2634 1.362 . S
C2634 H2626 0.930 . S
C2634 C2633 1.362 . S
C2634 C2637 1.409 . S
C2635 H2627 0.930 . S
C2635 C2636 1.355 . S
C2635 C2637 1.415 . S
C2636 C2635 1.355 . S
C2636 C2638 1.419 . S
C2637 C2632 1.425 . S
C2637 C2634 1.409 . S
C2637 C2635 1.415 . S
C2638 H2628 0.930 . S
C2638 C2636 1.419 . S
C2638 C2639 1.362 . S
C2639 H2629 0.930 . S
C2639 C2632 1.409 . S
C2639 C2638 1.362 . S
H2640 C2646 0.930 . S
H2641 C2649 0.930 . S
H2642 C2650 0.930 . S
H2643 C2651 0.930 . S
H2644 C2654 0.930 . S
H2645 C2655 0.930 . S
C2646 H2640 0.930 . S
C2646 C2647 1.355 . S
C2646 C2648 1.415 . S
C2647 C2646 1.355 . S
C2647 C2649 1.419 . S
C2648 C2646 1.415 . S
C2648 C2653 1.425 . S
C2648 C2655 1.409 . S
C2649 H2641 0.930 . S
C2649 C2647 1.419 . S
C2649 C2650 1.362 . S
C2650 H2642 0.930 . S
C2650 C2649 1.362 . S
C2650 C2653 1.409 . S
C2651 H2643 0.930 . S
C2651 C2652 1.355 . S
C2651 C2653 1.415 . S
C2652 C2651 1.355 . S
C2652 C2654 1.419 . S
C2653 C2648 1.425 . S
C2653 C2650 1.409 . S
C2653 C2651 1.415 . S
C2654 H2644 0.930 . S
C2654 C2652 1.419 . S
C2654 C2655 1.362 . S
C2655 H2645 0.930 . S
C2655 C2648 1.409 . S
C2655 C2654 1.362 . S
H2656 C2662 0.930 . S
H2657 C2665 0.930 . S
H2658 C2666 0.930 . S
H2659 C2667 0.930 . S
H2660 C2670 0.930 . S
H2661 C2671 0.930 . S
C2662 H2656 0.930 . S
C2662 C2663 1.355 1_556 S
C2662 C2664 1.415 . S
C2663 C2662 1.355 1_554 S
C2663 C2665 1.419 . S
C2664 C2662 1.415 . S
C2664 C2669 1.424 1_556 S
C2664 C2671 1.410 . S
C2665 H2657 0.930 . S
C2665 C2663 1.419 . S
C2665 C2666 1.362 . S
C2666 H2658 0.930 . S
C2666 C2665 1.362 . S
C2666 C2669 1.409 . S
C2667 H2659 0.930 . S
C2667 C2668 1.355 . S
C2667 C2669 1.415 . S
C2668 C2667 1.355 . S
C2668 C2670 1.419 1_554 S
C2669 C2664 1.424 1_554 S
C2669 C2666 1.409 . S
C2669 C2667 1.415 . S
C2670 H2660 0.930 . S
C2670 C2668 1.419 1_556 S
C2670 C2671 1.362 . S
C2671 H2661 0.930 . S
C2671 C2664 1.410 . S
C2671 C2670 1.362 . S
H2672 C2678 0.930 . S
H2673 C2681 0.930 . S
H2674 C2682 0.930 . S
H2675 C2683 0.930 . S
H2676 C2686 0.930 . S
H2677 C2687 0.930 . S
C2678 H2672 0.930 . S
C2678 C2679 1.355 . S
C2678 C2680 1.415 . S
C2679 C2678 1.355 . S
C2679 C2681 1.419 . S
C2680 C2678 1.415 . S
C2680 C2685 1.425 . S
C2680 C2687 1.409 . S
C2681 H2673 0.930 . S
C2681 C2679 1.419 . S
C2681 C2682 1.362 . S
C2682 H2674 0.930 . S
C2682 C2681 1.362 . S
C2682 C2685 1.409 . S
C2683 H2675 0.930 . S
C2683 C2684 1.355 . S
C2683 C2685 1.415 . S
C2684 C2683 1.355 . S
C2684 C2686 1.419 . S
C2685 C2680 1.425 . S
C2685 C2682 1.409 . S
C2685 C2683 1.415 . S
C2686 H2676 0.930 . S
C2686 C2684 1.419 . S
C2686 C2687 1.362 . S
C2687 H2677 0.930 . S
C2687 C2680 1.409 . S
C2687 C2686 1.362 . S
H2688 C2694 0.930 1_554 S
H2689 C2697 0.930 . S
H2690 C2698 0.930 . S
H2691 C2699 0.930 . S
H2692 C2702 0.930 . S
H2693 C2703 0.930 . S
C2694 H2688 0.930 1_556 S
C2694 C2695 1.354 . S
C2694 C2696 1.415 . S
C2695 C2694 1.354 . S
C2695 C2697 1.419 . S
C2696 C2694 1.415 . S
C2696 C2701 1.425 . S
C2696 C2703 1.409 1_556 S
C2697 H2689 0.930 . S
C2697 C2695 1.419 . S
C2697 C2698 1.362 . S
C2698 H2690 0.930 . S
C2698 C2697 1.362 . S
C2698 C2701 1.409 . S
C2699 H2691 0.930 . S
C2699 C2700 1.355 . S
C2699 C2701 1.415 . S
C2700 C2699 1.355 . S
C2700 C2702 1.419 1_556 S
C2701 C2696 1.425 . S
C2701 C2698 1.409 . S
C2701 C2699 1.415 . S
C2702 H2692 0.930 . S
C2702 C2700 1.419 1_554 S
C2702 C2703 1.362 . S
C2703 H2693 0.930 . S
C2703 C2696 1.409 1_554 S
C2703 C2702 1.362 . S
H2704 C2710 0.930 . S
H2705 C2713 0.930 . S
H2706 C2714 0.930 . S
H2707 C2715 0.930 . S
H2708 C2718 0.930 . S
H2709 C2719 0.930 . S
C2710 H2704 0.930 . S
C2710 C2711 1.355 . S
C2710 C2712 1.415 . S
C2711 C2710 1.355 . S
C2711 C2713 1.419 . S
C2712 C2710 1.415 . S
C2712 C2717 1.425 . S
C2712 C2719 1.409 . S
C2713 H2705 0.930 . S
C2713 C2711 1.419 . S
C2713 C2714 1.362 . S
C2714 H2706 0.930 . S
C2714 C2713 1.362 . S
C2714 C2717 1.409 . S
C2715 H2707 0.930 . S
C2715 C2716 1.355 . S
C2715 C2717 1.415 . S
C2716 C2715 1.355 . S
C2716 C2718 1.419 . S
C2717 C2712 1.425 . S
C2717 C2714 1.409 . S
C2717 C2715 1.415 . S
C2718 H2708 0.930 . S
C2718 C2716 1.419 . S
C2718 C2719 1.362 . S
C2719 H2709 0.930 . S
C2719 C2712 1.409 . S
C2719 C2718 1.362 . S
C1703 C38 1.604 . S
C1708 C197 1.608 . S
C1719 C144 1.626 . S
C1724 C91 1.623 . S
C1735 C409 1.611 . S
C1740 C250 1.610 . S
C1751 C356 1.623 . S
C1756 C303 1.617 . S
C1767 C462 1.609 . S
C1772 C621 1.604 . S
C1783 C515 1.607 . S
C1788 C568 1.616 . S
C1799 C833 1.623 . S
C1804 C674 1.626 . S
C1815 C780 1.626 . S
C1820 C727 1.622 . S
C1831 C886 1.626 . S
C1836 C1045 1.624 . S
C1847 C939 1.626 . S
C1852 C992 1.624 . S
C1863 C1098 1.610 . S
C1868 C1257 1.611 . S
C1879 C1151 1.615 . S
C1884 C1204 1.610 . S
C1895 C1310 1.605 . S
C1900 C1469 1.611 . S
C1911 C1416 1.626 . S
C1916 C1363 1.621 . S
C1927 C1681 1.620 . S
C1932 C1522 1.625 . S
C1943 C1628 1.613 . S
C1948 C1575 1.619 . S
C1959 C22 1.739 . S
C1964 C234 1.735 . S
C1975 C1559 1.723 . S
C1980 C75 1.728 . S
C1991 C128 1.695 . S
C1996 C764 1.687 . S
C2007 C1241 1.732 . S
C2012 C181 1.736 . S
C2023 C1347 1.711 1_556 S
C2028 C287 1.706 1_554 S
C2039 C340 1.703 . S
C2044 C552 1.709 . S
C2055 C393 1.689 . S
C2060 C1029 1.696 . S
C2071 C658 1.689 . S
C2076 C446 1.696 . S
C2087 C1135 1.711 . S
C2092 C499 1.716 . S
C2103 C605 1.733 . S
C2108 C1665 1.729 . S
C2119 C711 1.702 . S
C2124 C923 1.707 . S
C2135 C817 1.703 . S
C2140 C1453 1.709 . S
C2151 C1082 1.732 . S
C2156 C870 1.735 . S
C2167 C976 1.735 . S
C2172 C1612 1.731 . S
C2183 C1188 1.732 . S
C2188 C1400 1.736 . S
C2199 C1506 1.729 1_554 S
C2204 C1294 1.733 1_556 S
C2215 C39 1.437 . S
C2220 C1046 1.434 . S
C2231 C92 1.458 . S
C2236 C993 1.447 . S
C2247 C940 1.454 . S
C2252 C145 1.444 . S
C2263 C887 1.464 . S
C2268 C198 1.460 . S
C2279 C251 1.451 . S
C2284 C1258 1.444 . S
C2295 C304 1.457 . S
C2300 C1205 1.462 . S
C2311 C357 1.430 . S
C2316 C1152 1.433 . S
C2327 C1099 1.450 . S
C2332 C410 1.443 . S
C2343 C463 1.434 . S
C2348 C1470 1.438 . S
C2359 C1417 1.450 . S
C2364 C516 1.459 . S
C2375 C1364 1.451 . S
C2380 C569 1.441 . S
C2391 C622 1.434 . S
C2396 C1311 1.436 . S
C2407 C675 1.463 . S
C2412 C1682 1.459 . S
C2423 C728 1.445 . S
C2428 C1629 1.438 . S
C2439 C1576 1.462 . S
C2444 C781 1.459 . S
C2455 C834 1.463 . S
C2460 C1523 1.459 . S
C2471 C82 1.712 . S
C2476 C29 1.716 . S
C2487 C135 1.667 . S
C2492 C188 1.666 . S
C2503 C294 1.687 . S
C2508 C241 1.680 . S
C2519 C347 1.673 . S
C2524 C400 1.674 . S
C2535 C506 1.685 . S
C2540 C453 1.679 . S
C2551 C559 1.714 . S
C2556 C612 1.717 . S
C2567 C665 1.714 . S
C2572 C718 1.707 . S
C2583 C771 1.722 . S
C2588 C824 1.722 . S
C2599 C877 1.718 . S
C2604 C930 1.715 . S
C2615 C1036 1.700 . S
C2620 C983 1.694 . S
C2631 C1089 1.674 . S
C2636 C1142 1.676 . S
C2647 C1248 1.722 . S
C2652 C1195 1.719 . S
C2663 C1354 1.667 . S
C2668 C1301 1.666 . S
C2679 C1407 1.700 . S
C2684 C1460 1.693 . S
C2695 C1513 1.722 . S
C2700 C1566 1.722 . S
C2711 C1672 1.720 . S
C2716 C1619 1.716 . S
