# Generated by pormake.
# Topology gan, (5)-cn, num edge types: 1
# Building blocks:
#     Node 0, Type 0, BuildingBlock: XOMCOT_clean_sbu_0, # of connection points: 5
#     Node 1, Type 0, BuildingBlock: XOMCOT_clean_sbu_0, # of connection points: 5
#     Node 2, Type 0, BuildingBlock: XOMCOT_clean_sbu_0, # of connection points: 5
#     Node 3, Type 0, BuildingBlock: XOMCOT_clean_sbu_0, # of connection points: 5
#     Node 4, Type 0, BuildingBlock: XOMCOT_clean_sbu_0, # of connection points: 5
#     Node 5, Type 0, BuildingBlock: XOMCOT_clean_sbu_0, # of connection points: 5
#     Node 6, Type 0, BuildingBlock: XOMCOT_clean_sbu_0, # of connection points: 5
#     Node 7, Type 0, BuildingBlock: XOMCOT_clean_sbu_0, # of connection points: 5
#     Node 8, Type 0, BuildingBlock: XOMCOT_clean_sbu_0, # of connection points: 5
#     Node 9, Type 0, BuildingBlock: XOMCOT_clean_sbu_0, # of connection points: 5
#     Node 10, Type 0, BuildingBlock: XOMCOT_clean_sbu_0, # of connection points: 5
#     Node 11, Type 0, BuildingBlock: XOMCOT_clean_sbu_0, # of connection points: 5
#     Node 12, Type 0, BuildingBlock: XOMCOT_clean_sbu_0, # of connection points: 5
#     Node 13, Type 0, BuildingBlock: XOMCOT_clean_sbu_0, # of connection points: 5
#     Node 14, Type 0, BuildingBlock: XOMCOT_clean_sbu_0, # of connection points: 5
#     Node 15, Type 0, BuildingBlock: XOMCOT_clean_sbu_0, # of connection points: 5
#     Edge 16, Type (0, 0), BuildingBlock: AJUNOK_clean_linker_0, # of connection points: 2
#     Edge 17, Type (0, 0), BuildingBlock: AJUNOK_clean_linker_0, # of connection points: 2
#     Edge 18, Type (0, 0), BuildingBlock: AJUNOK_clean_linker_0, # of connection points: 2
#     Edge 19, Type (0, 0), BuildingBlock: AJUNOK_clean_linker_0, # of connection points: 2
#     Edge 20, Type (0, 0), BuildingBlock: AJUNOK_clean_linker_0, # of connection points: 2
#     Edge 21, Type (0, 0), BuildingBlock: AJUNOK_clean_linker_0, # of connection points: 2
#     Edge 22, Type (0, 0), BuildingBlock: AJUNOK_clean_linker_0, # of connection points: 2
#     Edge 23, Type (0, 0), BuildingBlock: AJUNOK_clean_linker_0, # of connection points: 2
#     Edge 24, Type (0, 0), BuildingBlock: AJUNOK_clean_linker_0, # of connection points: 2
#     Edge 25, Type (0, 0), BuildingBlock: AJUNOK_clean_linker_0, # of connection points: 2
#     Edge 26, Type (0, 0), BuildingBlock: AJUNOK_clean_linker_0, # of connection points: 2
#     Edge 27, Type (0, 0), BuildingBlock: AJUNOK_clean_linker_0, # of connection points: 2
#     Edge 28, Type (0, 0), BuildingBlock: AJUNOK_clean_linker_0, # of connection points: 2
#     Edge 29, Type (0, 0), BuildingBlock: AJUNOK_clean_linker_0, # of connection points: 2
#     Edge 30, Type (0, 0), BuildingBlock: AJUNOK_clean_linker_0, # of connection points: 2
#     Edge 31, Type (0, 0), BuildingBlock: AJUNOK_clean_linker_0, # of connection points: 2
#     Edge 32, Type (0, 0), BuildingBlock: AJUNOK_clean_linker_0, # of connection points: 2
#     Edge 33, Type (0, 0), BuildingBlock: AJUNOK_clean_linker_0, # of connection points: 2
#     Edge 34, Type (0, 0), BuildingBlock: AJUNOK_clean_linker_0, # of connection points: 2
#     Edge 35, Type (0, 0), BuildingBlock: AJUNOK_clean_linker_0, # of connection points: 2
#     Edge 36, Type (0, 0), BuildingBlock: AJUNOK_clean_linker_0, # of connection points: 2
#     Edge 37, Type (0, 0), BuildingBlock: AJUNOK_clean_linker_0, # of connection points: 2
#     Edge 38, Type (0, 0), BuildingBlock: AJUNOK_clean_linker_0, # of connection points: 2
#     Edge 39, Type (0, 0), BuildingBlock: AJUNOK_clean_linker_0, # of connection points: 2
#     Edge 40, Type (0, 0), BuildingBlock: AJUNOK_clean_linker_0, # of connection points: 2
#     Edge 41, Type (0, 0), BuildingBlock: AJUNOK_clean_linker_0, # of connection points: 2
#     Edge 42, Type (0, 0), BuildingBlock: AJUNOK_clean_linker_0, # of connection points: 2
#     Edge 43, Type (0, 0), BuildingBlock: AJUNOK_clean_linker_0, # of connection points: 2
#     Edge 44, Type (0, 0), BuildingBlock: AJUNOK_clean_linker_0, # of connection points: 2
#     Edge 45, Type (0, 0), BuildingBlock: AJUNOK_clean_linker_0, # of connection points: 2
#     Edge 46, Type (0, 0), BuildingBlock: AJUNOK_clean_linker_0, # of connection points: 2
#     Edge 47, Type (0, 0), BuildingBlock: AJUNOK_clean_linker_0, # of connection points: 2
#     Edge 48, Type (0, 0), BuildingBlock: AJUNOK_clean_linker_0, # of connection points: 2
#     Edge 49, Type (0, 0), BuildingBlock: AJUNOK_clean_linker_0, # of connection points: 2
#     Edge 50, Type (0, 0), BuildingBlock: AJUNOK_clean_linker_0, # of connection points: 2
#     Edge 51, Type (0, 0), BuildingBlock: AJUNOK_clean_linker_0, # of connection points: 2
#     Edge 52, Type (0, 0), BuildingBlock: AJUNOK_clean_linker_0, # of connection points: 2
#     Edge 53, Type (0, 0), BuildingBlock: AJUNOK_clean_linker_0, # of connection points: 2
#     Edge 54, Type (0, 0), BuildingBlock: AJUNOK_clean_linker_0, # of connection points: 2
#     Edge 55, Type (0, 0), BuildingBlock: AJUNOK_clean_linker_0, # of connection points: 2
# Relax obj value: 0.085
# Max RMSD: 0.113
# Mean RMSD: 0.099
data_MOF--net-gan--node1-XOMCOT_clean_sbu_0--edge1-AJUNOK_clean_linker_0
_symmetry_space_group_name_H-M    P1
_symmetry_Int_Tables_number       1
_symmetry_cell_setting            triclinic
loop_
_symmetry_equiv_pos_as_xyz
'x, y, z'
_cell_length_a     32.354801
_cell_length_b     33.183543
_cell_length_c     31.872751
_cell_angle_alpha  90.892601
_cell_angle_beta   91.121296
_cell_angle_gamma 91.048883
loop_
_atom_site_label
_atom_site_type_symbol
_atom_site_fract_x
_atom_site_fract_y
_atom_site_fract_z
_atom_type_partial_charge
Co0 Co 0.16888 0.22042 0.19748 0.0
C1 C 0.21958 0.27576 0.25286 0.0
C2 C 0.23575 0.282 0.18835 0.0
C3 C 0.26277 0.30541 0.21303 0.0
N4 N 0.20873 0.26321 0.21334 0.0
N5 N 0.25302 0.30119 0.25381 0.0
H6 H 0.20362 0.26574 0.28038 0.0
H7 H 0.23691 0.27767 0.15469 0.0
C8 C 0.20979 0.16253 0.13999 0.0
O9 O 0.19247 0.13236 0.15975 0.0
N10 N 0.12779 0.17741 0.18242 0.0
C11 C 0.10687 0.15369 0.20911 0.0
C12 C 0.07937 0.12924 0.187 0.0
C13 C 0.11114 0.16739 0.14394 0.0
N14 N 0.08144 0.13794 0.146 0.0
C15 C 0.17178 0.18482 0.27887 0.0
C16 C 0.24078 0.13934 0.26391 0.0
C17 C 0.21384 0.12817 0.29554 0.0
C18 C 0.18143 0.15362 0.30583 0.0
C19 C 0.22985 0.17087 0.23792 0.0
N20 N 0.19251 0.18884 0.24231 0.0
H21 H 0.14466 0.20239 0.28475 0.0
H22 H 0.24999 0.17851 0.2126 0.0
H23 H 0.10975 0.15408 0.24268 0.0
H24 H 0.12022 0.18168 0.11516 0.0
O25 O 0.12546 0.24815 0.22664 0.0
O26 O 0.14112 0.25491 0.15968 0.0
O27 O 0.20748 0.19856 0.15447 0.0
C28 C 0.11635 0.26307 0.18997 0.0
H29 H 0.28892 0.32267 0.20184 0.0
H30 H 0.05949 0.10646 0.2004 0.0
H31 H 0.26719 0.12119 0.25631 0.0
H32 H 0.16083 0.14643 0.33116 0.0
Co33 Co 0.19751 0.89883 0.36518 0.0
C34 C 0.13255 0.9434 0.41964 0.0
C35 C 0.19389 0.94519 0.44565 0.0
C36 C 0.16899 0.9683 0.47078 0.0
N37 N 0.17152 0.92852 0.41344 0.0
N38 N 0.13015 0.96795 0.45455 0.0
H39 H 0.10659 0.93811 0.39849 0.0
H40 H 0.22683 0.94163 0.45022 0.0
C41 C 0.22116 0.85565 0.44194 0.0
O42 O 0.18139 0.85319 0.44945 0.0
N43 N 0.22233 0.87068 0.31564 0.0
C44 C 0.20722 0.87516 0.27623 0.0
C45 C 0.22705 0.85017 0.24871 0.0
C46 C 0.25155 0.84138 0.31084 0.0
N47 N 0.25521 0.82843 0.26973 0.0
C48 C 0.11579 0.87014 0.34793 0.0
C49 C 0.13188 0.78916 0.35632 0.0
C50 C 0.0924 0.80087 0.34309 0.0
C51 C 0.0845 0.84193 0.33915 0.0
C52 C 0.16233 0.81855 0.36523 0.0
N53 N 0.15368 0.85856 0.36219 0.0
H54 H 0.10978 0.90127 0.34163 0.0
H55 H 0.19317 0.80904 0.37329 0.0
H56 H 0.18197 0.8944 0.26761 0.0
H57 H 0.26938 0.82961 0.3368 0.0
O58 O 0.17373 0.93784 0.32875 0.0
O59 O 0.23541 0.94375 0.36007 0.0
O60 O 0.23281 0.86783 0.40613 0.0
C61 C 0.20688 0.95956 0.33659 0.0
H62 H 0.17912 0.9841 0.4992 0.0
H63 H 0.21988 0.84721 0.21548 0.0
H64 H 0.13923 0.7576 0.35935 0.0
H65 H 0.05426 0.85237 0.32963 0.0
Co66 Co 0.40252 0.86076 0.64492 0.0
C67 C 0.35104 0.80501 0.70321 0.0
C68 C 0.34205 0.79211 0.63789 0.0
C69 C 0.3183 0.76531 0.66022 0.0
N70 N 0.36191 0.81855 0.66428 0.0
N71 N 0.32389 0.77293 0.70164 0.0
H72 H 0.36399 0.8163 0.73249 0.0
H73 H 0.34482 0.79184 0.60415 0.0
C74 C 0.32835 0.87153 0.59124 0.0
O75 O 0.30889 0.87475 0.62691 0.0
N76 N 0.44443 0.90131 0.62591 0.0
C77 C 0.46936 0.92196 0.65326 0.0
C78 C 0.49623 0.94644 0.63196 0.0
C79 C 0.45709 0.9143 0.58736 0.0
N80 N 0.48869 0.94269 0.59023 0.0
C81 C 0.37465 0.90107 0.7176 0.0
C82 C 0.35887 0.97416 0.68101 0.0
C83 C 0.3583 0.9709 0.72478 0.0
C84 C 0.36495 0.93365 0.74283 0.0
C85 C 0.36718 0.93987 0.65645 0.0
N86 N 0.37532 0.90385 0.675 0.0
H87 H 0.38621 0.8752 0.73315 0.0
H88 H 0.3702 0.94297 0.62293 0.0
H89 H 0.46854 0.9191 0.68699 0.0
H90 H 0.44346 0.90341 0.55796 0.0
O91 O 0.43902 0.84644 0.6896 0.0
O92 O 0.43769 0.81767 0.62618 0.0
O93 O 0.36775 0.8681 0.59186 0.0
C94 C 0.45338 0.81958 0.66427 0.0
H95 H 0.29797 0.7423 0.64645 0.0
H96 H 0.52058 0.96472 0.6467 0.0
H97 H 0.35493 1.00306 0.66627 0.0
H98 H 0.36656 0.93061 0.77665 0.0
Co99 Co 0.32495 0.13999 0.92103 0.0
C100 C 0.27666 0.19948 0.86668 0.0
C101 C 0.25735 0.13777 0.85768 0.0
C102 C 0.23545 0.16107 0.82982 0.0
N103 N 0.28362 0.1614 0.88084 0.0
N104 N 0.24749 0.19998 0.83499 0.0
H105 H 0.29334 0.22603 0.87839 0.0
H106 H 0.2547 0.10537 0.86034 0.0
C107 C 0.36918 0.08379 0.86322 0.0
O108 O 0.40516 0.09753 0.87761 0.0
N109 N 0.36634 0.11733 0.96201 0.0
C110 C 0.37963 0.13639 0.99776 0.0
C111 C 0.40452 0.11161 1.02103 0.0
C112 C 0.38336 0.07978 0.96542 0.0
N113 N 0.40714 0.07573 1.00115 0.0
C114 C 0.38291 0.20466 0.92527 0.0
C115 C 0.41215 0.19822 0.84468 0.0
C116 C 0.43303 0.22328 0.87424 0.0
C117 C 0.41599 0.22867 0.91378 0.0
C118 C 0.37761 0.17571 0.85724 0.0
N119 N 0.36638 0.17613 0.8984 0.0
H120 H 0.37111 0.20891 0.95624 0.0
H121 H 0.36113 0.15686 0.83435 0.0
H122 H 0.37072 0.16608 1.00791 0.0
H123 H 0.37741 0.05532 0.9432 0.0
O124 O 0.30553 0.17549 0.96372 0.0
O125 O 0.28159 0.11328 0.95212 0.0
O126 O 0.33573 0.09616 0.87894 0.0
C127 C 0.28146 0.14617 0.9751 0.0
H128 H 0.21205 0.1501 0.80752 0.0
H129 H 0.41956 0.11957 0.05072 0.0
H130 H 0.42315 0.195 0.81295 0.0
H131 H 0.42917 0.25024 0.9364 0.0
Co132 Co 0.69314 0.41326 0.84724 0.0
C133 C 0.63053 0.458 0.90364 0.0
C134 C 0.69385 0.47315 0.91729 0.0
C135 C 0.6693 0.49611 0.94292 0.0
N136 N 0.67006 0.44883 0.89219 0.0
N137 N 0.62911 0.48656 0.93504 0.0
H138 H 0.60298 0.44456 0.88962 0.0
H139 H 0.72718 0.47518 0.91618 0.0
C140 C 0.75183 0.35939 0.90097 0.0
O141 O 0.75609 0.32909 0.87458 0.0
N142 N 0.71486 0.37776 0.80152 0.0
C143 C 0.68931 0.36271 0.77095 0.0
C144 C 0.70947 0.33497 0.74671 0.0
C145 C 0.75179 0.35953 0.79345 0.0
N146 N 0.74884 0.33208 0.76067 0.0
C147 C 0.60921 0.38607 0.83691 0.0
C148 C 0.62098 0.30867 0.86434 0.0
C149 C 0.58116 0.32006 0.85209 0.0
C150 C 0.57556 0.35927 0.83762 0.0
C151 C 0.65316 0.33698 0.86512 0.0
N152 N 0.64706 0.37546 0.85236 0.0
H153 H 0.60466 0.41562 0.82413 0.0
H154 H 0.68296 0.32707 0.87462 0.0
H155 H 0.65721 0.37053 0.76703 0.0
H156 H 0.77983 0.36522 0.81177 0.0
O157 O 0.67007 0.44909 0.80598 0.0
O158 O 0.73268 0.45532 0.83499 0.0
O159 O 0.72768 0.38847 0.8931 0.0
C160 C 0.70391 0.4706 0.81154 0.0
H161 H 0.68069 0.51935 0.96453 0.0
H162 H 0.69582 0.31784 0.7206 0.0
H163 H 0.62751 0.27804 0.87319 0.0
H164 H 0.54546 0.36938 0.82728 0.0
Co165 Co 0.89694 0.35163 0.12983 0.0
C166 C 0.8552 0.28141 0.1781 0.0
C167 C 0.81556 0.31081 0.1342 0.0
C168 C 0.7923 0.2835 0.156 0.0
N169 N 0.85543 0.31 0.14731 0.0
N170 N 0.81672 0.26428 0.1837 0.0
H171 H 0.88211 0.27444 0.19714 0.0
H172 H 0.80302 0.33199 0.11216 0.0
C173 C 0.86175 0.38207 0.04597 0.0
O174 O 0.88434 0.41526 0.04693 0.0
N175 N 0.93853 0.39362 0.11308 0.0
C176 C 0.95281 0.42336 0.13907 0.0
C177 C 0.98092 0.44734 0.11862 0.0
C178 C 0.96073 0.39914 0.07726 0.0
N179 N 0.98594 0.43293 0.07921 0.0
C180 C 0.86028 0.3841 0.20156 0.0
C181 C 0.84959 0.46105 0.17209 0.0
C182 C 0.84867 0.45416 0.21523 0.0
C183 C 0.85134 0.41487 0.22968 0.0
C184 C 0.85754 0.42899 0.14473 0.0
N185 N 0.8657 0.39169 0.16003 0.0
H186 H 0.86714 0.35495 0.21414 0.0
H187 H 0.86154 0.4356 0.11238 0.0
H188 H 0.94336 0.42754 0.17119 0.0
H189 H 0.957 0.37974 0.04984 0.0
O190 O 0.93352 0.33842 0.17536 0.0
O191 O 0.93425 0.31102 0.11117 0.0
O192 O 0.86351 0.35682 0.07579 0.0
C193 C 0.95114 0.31475 0.1486 0.0
H194 H 0.75903 0.28031 0.15335 0.0
H195 H 0.99682 0.47348 0.1323 0.0
H196 H 0.84743 0.49132 0.16009 0.0
H197 H 0.8509 0.40864 0.26296 0.0
Co198 Co 0.83377 0.63348 0.40367 0.0
C199 C 0.78161 0.69256 0.3533 0.0
C200 C 0.75782 0.63189 0.35037 0.0
C201 C 0.73275 0.65576 0.32595 0.0
N202 N 0.78868 0.65462 0.36774 0.0
N203 N 0.74739 0.69419 0.32733 0.0
H204 H 0.80097 0.71838 0.36197 0.0
H205 H 0.75404 0.59978 0.3547 0.0
C206 C 0.87288 0.5721 0.34832 0.0
O207 O 0.90989 0.58413 0.36147 0.0
N208 N 0.87907 0.61229 0.44099 0.0
C209 C 0.90035 0.63538 0.46947 0.0
C210 C 0.92576 0.61211 0.49356 0.0
C211 C 0.89186 0.57396 0.44991 0.0
N212 N 0.92139 0.57307 0.48161 0.0
C213 C 0.88798 0.70148 0.39881 0.0
C214 C 0.92028 0.68333 0.32134 0.0
C215 C 0.94095 0.71109 0.34815 0.0
C216 C 0.92279 0.72227 0.38583 0.0
C217 C 0.88482 0.66351 0.33564 0.0
N218 N 0.87249 0.66933 0.37608 0.0
H219 H 0.87488 0.71024 0.42826 0.0
H220 H 0.86871 0.64234 0.31487 0.0
H221 H 0.89632 0.66715 0.47479 0.0
H222 H 0.87959 0.54745 0.43361 0.0
O223 O 0.81841 0.66863 0.44845 0.0
O224 O 0.79436 0.60596 0.43814 0.0
O225 O 0.84065 0.58893 0.36186 0.0
C226 C 0.79652 0.63836 0.46163 0.0
H227 H 0.70607 0.64513 0.30769 0.0
H228 H 0.94487 0.62353 0.51946 0.0
H229 H 0.93244 0.67561 0.2909 0.0
H230 H 0.93665 0.74553 0.40611 0.0
Co231 Co 0.90739 0.96238 0.96757 0.0
C232 C 0.96269 1.01891 1.01848 0.0
C233 C 0.95973 0.03536 0.95374 0.0
C234 C 0.98632 0.06191 0.97484 0.0
N235 N 0.94485 1.00813 0.98094 0.0
N236 N 0.98803 0.05179 1.01557 0.0
H237 H 0.9577 1.00279 0.04725 0.0
H238 H 0.95206 0.03631 0.92066 0.0
C239 C 0.91857 0.95386 0.8728 0.0
O240 O 0.92273 0.91455 0.87317 0.0
N241 N 0.86942 0.91596 0.95451 0.0
C242 C 0.86078 0.88563 0.981 0.0
C243 C 0.8349 0.85761 0.96138 0.0
C244 C 0.84611 0.90645 0.91948 0.0
N245 N 0.82597 0.87024 0.92243 0.0
C246 C 0.95586 0.89833 0.99913 0.0
C247 C 1.00653 0.8932 0.93066 0.0
C248 C 1.00191 0.85972 0.95663 0.0
C249 C 0.97907 0.86395 0.99324 0.0
C250 C 0.98346 0.92751 0.93865 0.0
N251 N 0.95431 0.9269 0.96897 0.0
H252 H 0.93687 0.90048 1.02643 0.0
H253 H 0.98649 0.95292 0.91815 0.0
H254 H 0.87159 0.88394 1.01312 0.0
H255 H 0.84381 0.92533 0.89224 0.0
O256 O 0.89189 0.96005 1.02548 0.0
O257 O 0.8605 0.99568 0.97638 0.0
O258 O 0.91296 0.97394 0.90655 0.0
C259 C 0.86189 0.98377 1.01502 0.0
H260 H 1.00258 0.08727 0.96141 0.0
H261 H 0.82277 0.83033 0.97515 0.0
H262 H 1.02498 0.892 0.90273 0.0
H263 H 0.9769 0.83979 1.01562 0.0
Co264 Co 0.91537 0.12844 0.60221 0.0
C265 C 0.86336 0.18546 0.66205 0.0
C266 C 0.89209 0.21261 0.60948 0.0
C267 C 0.87337 0.24232 0.63232 0.0
N268 N 0.88669 0.17632 0.62749 0.0
N269 N 0.85527 0.22587 0.66574 0.0
H270 H 0.85345 0.1639 0.68491 0.0
H271 H 0.90983 0.21753 0.58156 0.0
C272 C 0.97752 0.17902 0.64493 0.0
O273 O 0.95587 0.17152 0.67844 0.0
N274 N 0.9449 0.08296 0.57478 0.0
C275 C 0.93201 0.04419 0.57588 0.0
C276 C 0.95902 1.02022 0.55422 0.0
C277 C 0.98041 0.08161 0.55189 0.0
N278 N 0.98989 0.0432 0.53871 0.0
C279 C 0.8866 0.09056 0.67516 0.0
C280 C 0.96176 0.06109 0.70239 0.0
C281 C 0.92573 0.05085 0.72374 0.0
C282 C 0.88792 0.06587 0.70981 0.0
C283 C 0.95907 0.0863 0.66773 0.0
N284 N 0.92186 0.10148 0.65525 0.0
H285 H 0.85682 0.0997 0.66334 0.0
H286 H 0.98666 0.09301 0.65035 0.0
H287 H 0.90478 0.03375 0.59194 0.0
H288 H 0.99852 0.10823 0.54467 0.0
O289 O 0.8634 0.10348 0.58722 0.0
O290 O 0.8969 0.1469 0.54723 0.0
O291 O 0.96853 0.16039 0.61033 0.0
C292 C 0.86435 0.12397 0.55319 0.0
H293 H 0.87293 0.27398 0.62464 0.0
H294 H 0.95634 0.98776 0.55102 0.0
H295 H 0.9915 0.04977 0.71235 0.0
H296 H 0.85936 0.05777 0.72507 0.0
Co297 Co 0.66594 0.093 0.38522 0.0
C298 C 0.7133 0.14452 0.32216 0.0
C299 C 0.75258 0.10679 0.35879 0.0
C300 C 0.77696 0.13009 0.3332 0.0
N301 N 0.71246 0.11583 0.3526 0.0
N302 N 0.75262 0.15393 0.30987 0.0
H303 H 0.68589 0.15889 0.31004 0.0
H304 H 0.76372 0.08485 0.38081 0.0
C305 C 0.70542 0.10214 0.47072 0.0
O306 O 0.67197 0.1189 0.48517 0.0
N307 N 0.6184 0.06849 0.41731 0.0
C308 C 0.57967 0.06365 0.40065 0.0
C309 C 0.55524 0.0408 0.42624 0.0
C310 C 0.61609 0.04702 0.45393 0.0
N311 N 0.57757 0.03008 0.46 0.0
C312 C 0.61228 0.15902 0.39729 0.0
C313 C 0.67049 0.21173 0.43346 0.0
C314 C 0.62887 0.22232 0.43221 0.0
C315 C 0.59996 0.19632 0.41212 0.0
C316 C 0.6816 0.17403 0.41765 0.0
N317 N 0.65205 0.1472 0.40257 0.0
H318 H 0.58974 0.13973 0.38149 0.0
H319 H 0.71377 0.16586 0.41898 0.0
H320 H 0.5693 0.07473 0.37065 0.0
H321 H 0.64216 0.04244 0.47493 0.0
O322 O 0.63311 0.08932 0.33448 0.0
O323 O 0.67336 0.04119 0.35967 0.0
O324 O 0.70544 0.08695 0.43382 0.0
C325 C 0.64646 0.05264 0.33156 0.0
H326 H 0.81032 0.12918 0.33152 0.0
H327 H 0.52312 0.03245 0.42029 0.0
H328 H 0.69388 0.23181 0.4474 0.0
H329 H 0.5679 0.20465 0.40824 0.0
Co330 Co 0.59559 0.88859 0.14843 0.0
C331 C 0.64136 0.82839 0.20612 0.0
C332 C 0.65774 0.89032 0.21806 0.0
C333 C 0.68159 0.86681 0.24389 0.0
N334 N 0.63204 0.86677 0.194 0.0
N335 N 0.67198 0.82761 0.23642 0.0
H336 H 0.62713 0.80147 0.19243 0.0
H337 H 0.65987 0.92281 0.21635 0.0
C338 C 0.57009 0.93277 0.22199 0.0
O339 O 0.55822 0.89749 0.23607 0.0
N340 N 0.56019 0.91114 0.10288 0.0
C341 C 0.55966 0.89792 0.06269 0.0
C342 C 0.53338 0.92106 0.03896 0.0
C343 C 0.53383 0.94306 0.10249 0.0
N344 N 0.5168 0.94991 0.06346 0.0
C345 C 0.67651 0.89495 0.11752 0.0
C346 C 0.67918 0.97812 0.11081 0.0
C347 C 0.71444 0.95592 0.10199 0.0
C348 C 0.71277 0.91388 0.10516 0.0
C349 C 0.64334 0.95789 0.12316 0.0
N350 N 0.64276 0.91694 0.12694 0.0
H351 H 0.67567 0.86255 0.12049 0.0
H352 H 0.61624 0.97517 0.12993 0.0
H353 H 0.57768 0.87326 0.05088 0.0
H354 H 0.52836 0.96158 0.12993 0.0
O355 O 0.6002 0.83868 0.11756 0.0
O356 O 0.55114 0.85298 0.16329 0.0
O357 O 0.58329 0.93548 0.18492 0.0
C358 C 0.56708 0.82753 0.13697 0.0
H359 H 0.7044 0.87802 0.26667 0.0
H360 H 0.52702 0.91657 1.00576 0.0
H361 H 0.6794 1.01064 0.10837 0.0
H362 H 0.73918 0.89569 0.09766 0.0
Co363 Co 0.41417 0.62694 0.09823 0.0
C364 C 0.35813 0.68845 0.14744 0.0
C365 C 0.41217 0.66931 0.18041 0.0
C366 C 0.39142 0.69502 0.20616 0.0
N367 N 0.39199 0.66412 0.14308 0.0
N368 N 0.35699 0.70728 0.18633 0.0
H369 H 0.33463 0.69187 0.12321 0.0
H370 H 0.4401 0.65439 0.18952 0.0
C371 C 0.49683 0.66743 0.12416 0.0
O372 O 0.50548 0.64373 0.15547 0.0
N373 N 0.43837 0.59056 0.05478 0.0
C374 C 0.41849 0.55948 0.0347 0.0
C375 C 0.44559 0.53933 1.00921 0.0
C376 C 0.4781 0.58818 0.04075 0.0
N377 N 0.48343 0.55683 1.01304 0.0
C378 C 0.39908 0.57879 0.16744 0.0
C379 C 0.47589 0.54478 0.17737 0.0
C380 C 0.44528 0.53766 0.20692 0.0
C381 C 0.40605 0.55338 0.20062 0.0
C382 C 0.46727 0.57032 0.14383 0.0
N383 N 0.43018 0.58935 0.14126 0.0
H384 H 0.36878 0.59155 0.16377 0.0
H385 H 0.49109 0.57615 0.12143 0.0
H386 H 0.38649 0.55088 0.03886 0.0
H387 H 0.50289 0.60843 0.05123 0.0
O388 O 0.3601 0.60373 0.08746 0.0
O389 O 0.38661 0.65613 0.05402 0.0
O390 O 0.4659 0.66086 0.09956 0.0
C391 C 0.35637 0.63009 0.05805 0.0
H392 H 0.40132 0.70427 0.23756 0.0
H393 H 0.43822 0.51259 0.99045 0.0
H394 H 0.50632 0.53207 0.18103 0.0
H395 H 0.38134 0.54732 0.22226 0.0
Co396 Co 0.16136 0.60768 0.89988 0.0
C397 C 0.10268 0.55136 0.95041 0.0
C398 C 0.1554 0.52254 0.92512 0.0
C399 C 0.13251 0.4944 0.94656 0.0
N400 N 0.13747 0.55885 0.92742 0.0
N401 N 0.09884 0.512 0.96247 0.0
H402 H 0.07998 0.57363 0.95781 0.0
H403 H 0.18376 0.51661 0.90893 0.0
C404 C 0.1451 0.59257 0.80601 0.0
O405 O 0.15537 0.62968 0.79655 0.0
N406 N 0.18668 0.65572 0.87268 0.0
C407 C 0.17704 0.69435 0.88079 0.0
C408 C 0.20099 0.71968 0.85698 0.0
C409 C 0.21864 0.65875 0.8452 0.0
N410 N 0.22717 0.69767 0.83386 0.0
C411 C 0.09943 0.64857 0.94368 0.0
C412 C 0.06273 0.68337 0.87458 0.0
C413 C 0.05703 0.70003 0.91448 0.0
C414 C 0.07332 0.68084 0.94948 0.0
C415 C 0.08833 0.65018 0.87021 0.0
N416 N 0.10893 0.63523 0.9043 0.0
H417 H 0.11478 0.63659 0.971 0.0
H418 H 0.09412 0.63964 0.83908 0.0
H419 H 0.15418 0.70385 0.90287 0.0
H420 H 0.23472 0.63279 0.83334 0.0
O421 O 0.185 0.62652 0.95235 0.0
O422 O 0.21694 0.58691 0.90719 0.0
O423 O 0.14526 0.58105 0.84416 0.0
C424 C 0.21783 0.60711 0.94266 0.0
H425 H 0.14107 0.46339 0.95099 0.0
H426 H 0.19847 0.75214 0.85626 0.0
H427 H 0.0501 0.69763 0.84693 0.0
H428 H 0.0692 0.69309 0.98081 0.0
Co429 Co 0.1 0.3916 0.64896 0.0
C430 C 0.14995 0.33388 0.70522 0.0
C431 C 0.14396 0.39259 0.73252 0.0
C432 C 0.16574 0.36925 0.7601 0.0
N433 N 0.134 0.37118 0.6973 0.0
N434 N 0.16967 0.33179 0.74374 0.0
H435 H 0.14605 0.30857 0.68371 0.0
H436 H 0.13641 0.42362 0.73847 0.0
C437 C 0.10031 0.47973 0.67127 0.0
O438 O 0.1115 0.48807 0.63288 0.0
N439 N 0.06423 0.41132 0.60121 0.0
C440 C 0.05631 0.39064 0.56487 0.0
C441 C 0.02895 0.41128 0.53981 0.0
C442 C 0.03942 0.44434 0.59741 0.0
N443 N 1.0181 0.44529 0.55993 0.0
C444 C 0.15806 0.40033 0.58298 0.0
C445 C 0.21517 0.44828 0.62705 0.0
C446 C 0.22322 0.43705 0.58556 0.0
C447 C 0.19414 0.41284 0.56343 0.0
C448 C 0.1788 0.43488 0.6455 0.0
N449 N 0.15009 0.41211 0.62317 0.0
H450 H 0.13718 0.38012 0.56605 0.0
H451 H 0.17375 0.44349 0.67765 0.0
H452 H 0.06916 0.36184 0.5566 0.0
H453 H 0.03556 0.46676 0.62182 0.0
O454 O 0.09951 0.33854 0.62418 0.0
O455 O 0.05332 0.36155 0.66899 0.0
O456 O 0.09195 0.4434 0.68117 0.0
C457 C 0.06642 0.33193 0.64566 0.0
H458 H 0.17797 0.37977 0.7902 0.0
H459 H 1.01839 0.40213 0.50861 0.0
H460 H 0.23688 0.46706 0.6452 0.0
H461 H 0.19985 0.40254 0.53168 0.0
Co462 Co 0.65122 0.69472 0.73435 0.0
C463 C 0.60563 0.64062 0.67243 0.0
C464 C 0.59356 0.62485 0.73607 0.0
C465 C 0.56975 0.60012 0.70977 0.0
N466 N 0.61663 0.64982 0.71277 0.0
N467 N 0.57706 0.61019 0.66975 0.0
H468 H 0.61792 0.65627 0.64573 0.0
H469 H 0.59236 0.62601 0.7699 0.0
C470 C 0.70493 0.64427 0.78798 0.0
O471 O 0.73773 0.66317 0.77384 0.0
N472 N 0.68419 0.74177 0.7569 0.0
C473 C 0.68438 0.77859 0.73924 0.0
C474 C 0.70725 0.8054 0.76351 0.0
C475 C 0.70632 0.74792 0.7935 0.0
N476 N 0.72125 0.78664 0.79794 0.0
C477 C 0.71441 0.70498 0.67474 0.0
C478 C 0.7248 0.6239 0.65752 0.0
C479 C 0.74152 0.65268 0.63083 0.0
C480 C 0.73767 0.69354 0.64077 0.0
C481 C 0.70193 0.63673 0.69171 0.0
N482 N 0.69591 0.67694 0.69926 0.0
H483 H 0.7083 0.73641 0.67844 0.0
H484 H 0.68643 0.61416 0.71008 0.0
H485 H 0.66891 0.78618 0.71017 0.0
H486 H 0.70999 0.72524 0.81716 0.0
O487 O 0.62552 0.72777 0.69354 0.0
O488 O 0.60204 0.71764 0.7577 0.0
O489 O 0.66924 0.65924 0.78185 0.0
C490 C 0.59682 0.73346 0.72069 0.0
H491 H 0.54719 0.57778 0.71939 0.0
H492 H 0.71321 0.83664 0.75602 0.0
H493 H 0.72741 0.59198 0.65072 0.0
H494 H 0.74954 0.71667 0.62035 0.0
Co495 Co 0.43004 0.45049 0.45488 0.0
C496 C 0.46831 0.50779 0.51931 0.0
C497 C 0.48053 0.52565 0.45642 0.0
C498 C 0.50132 0.55176 0.48356 0.0
N499 N 0.45922 0.49814 0.4785 0.0
N500 N 0.49357 0.54088 0.52321 0.0
H501 H 0.45769 0.49041 0.54558 0.0
H502 H 0.48333 0.52571 0.42282 0.0
C503 C 0.44495 0.45061 0.36147 0.0
O504 O 0.44548 0.41103 0.35984 0.0
N505 N 0.40082 0.40265 0.43117 0.0
C506 C 0.40898 0.36379 0.43902 0.0
C507 C 0.38302 0.33936 0.41452 0.0
C508 C 0.36912 0.40109 0.40241 0.0
N509 N 0.35774 0.36264 0.3914 0.0
C510 C 0.48985 0.40443 0.49893 0.0
C511 C 0.54298 0.3922 0.43363 0.0
C512 C 0.54792 0.36975 0.47022 0.0
C513 C 0.52318 0.379 0.50443 0.0
C514 C 0.51056 0.41913 0.43033 0.0
N515 N 0.48174 0.42154 0.46098 0.0
H516 H 0.46991 0.409 0.52515 0.0
H517 H 0.50904 0.43715 0.4028 0.0
H518 H 0.43286 0.35355 0.46022 0.0
H519 H 0.35556 0.42761 0.38886 0.0
O520 O 0.40712 0.43872 0.50854 0.0
O521 O 0.37727 0.47645 0.46048 0.0
O522 O 0.44187 0.46933 0.39658 0.0
C523 C 0.37566 0.45989 0.49719 0.0
H524 H 0.52258 0.57551 0.47458 0.0
H525 H 0.38419 0.30683 0.4126 0.0
H526 H 0.56254 0.38769 0.40685 0.0
H527 H 0.52791 0.36496 0.53453 0.0
C528 C 0.29811 0.35484 0.28764 0.0
C529 C 0.27643 0.31759 0.29005 0.0
C530 C 0.3233 0.37009 0.32121 0.0
C531 C 0.32836 0.34868 0.35877 0.0
H532 H 0.29589 0.37231 0.25932 0.0
H533 H 0.34004 0.39826 0.31713 0.0
S534 S 0.27738 0.25055 0.38242 0.0
N535 N 0.26161 0.26012 0.33411 0.0
N536 N 0.30746 0.28915 0.39708 0.0
C537 C 0.30599 0.31197 0.36208 0.0
C538 C 0.28043 0.2964 0.32791 0.0
C539 C 1.02056 0.99064 0.49091 0.0
C540 C 1.02475 0.02741 0.51432 0.0
C541 C 0.05426 0.97233 0.47035 0.0
C542 C 0.09454 0.9894 0.47205 0.0
H543 H 0.99079 0.97533 0.4886 0.0
H544 H 0.04889 0.94378 0.45408 0.0
S545 S 0.12266 0.08731 0.52519 0.0
N546 N 0.0731 0.0811 0.53524 0.0
N547 N 0.13547 0.04777 0.49649 0.0
C548 C 0.09894 0.027 0.49385 0.0
C549 C 0.06453 0.04567 0.51476 0.0
C550 C 0.27035 0.7545 0.8056 0.0
C551 C 0.25534 0.7141 0.80234 0.0
C552 C 0.29371 0.77287 0.77365 0.0
C553 C 0.30345 0.75207 0.73629 0.0
H554 H 0.26356 0.77259 0.83305 0.0
H555 H 0.30304 0.8042 0.77775 0.0
S556 S 0.27545 0.64449 0.71285 0.0
N557 N 0.25439 0.65341 0.75875 0.0
N558 N 0.29895 0.68698 0.69995 0.0
C559 C 0.29023 0.71108 0.73332 0.0
C560 C 0.26627 0.6924 0.76588 0.0
C561 C 0.45873 1.02119 0.98991 0.0
C562 C 0.43159 0.04181 1.01634 0.0
C563 C 0.48635 0.99196 1.00559 0.0
C564 C 0.48826 0.98117 0.04863 0.0
H565 H 0.45966 0.02873 0.95701 0.0
H566 H 0.50704 0.97831 0.9835 0.0
S567 S 0.42071 0.02384 0.13057 0.0
N568 N 0.40689 0.04774 0.08761 0.0
N569 N 0.45754 0.99286 0.1166 0.0
C570 C 0.4604 1.00103 0.07515 0.0
C571 C 0.43252 0.03107 0.0592 0.0
C572 C 0.31489 0.7704 0.18548 0.0
C573 C 0.32774 0.73519 0.20569 0.0
C574 C 0.29224 0.8006 0.20682 0.0
C575 C 0.28101 0.79753 0.24969 0.0
H576 H 0.32365 0.77536 0.15333 0.0
H577 H 0.28403 0.82713 0.18945 0.0
S578 S 0.3046 0.70985 0.31638 0.0
N579 N 0.32562 0.69838 0.27102 0.0
N580 N 0.28351 0.75439 0.31033 0.0
C581 C 0.29318 0.7621 0.26996 0.0
C582 C 0.31619 0.73135 0.24825 0.0
C583 C 0.51765 0.94771 0.51719 0.0
C584 C 0.51144 0.96462 0.55753 0.0
C585 C 0.54108 0.96824 0.48636 0.0
C586 C 0.56043 1.00639 0.49431 0.0
H587 H 0.50434 0.91835 0.50928 0.0
H588 H 0.54365 0.95434 0.45558 0.0
S589 S 0.55012 0.06686 0.59199 0.0
N590 N 0.52399 0.02483 0.60126 0.0
N591 N 0.56875 0.06132 0.54444 0.0
C592 C 0.55418 0.02377 0.53406 0.0
C593 C 0.5297 1.00351 0.56519 0.0
C594 C 0.21731 0.26879 0.83181 0.0
C595 C 0.23087 0.2338 0.81129 0.0
C596 C 0.19709 0.29977 0.80972 0.0
C597 C 0.18984 0.29814 0.7655 0.0
H598 H 0.2211 0.27166 0.86556 0.0
H599 H 0.18645 0.32497 0.82817 0.0
S600 S 0.22242 0.21364 0.69632 0.0
N601 N 0.23696 0.19972 0.74381 0.0
N602 N 0.20065 0.25794 0.70234 0.0
C603 C 0.20418 0.26338 0.74455 0.0
C604 C 0.22423 0.23149 0.76728 0.0
C605 C 0.07447 0.10944 0.07337 0.0
C606 C 0.05699 0.11849 0.11245 0.0
C607 C 0.05192 0.08744 0.04199 0.0
C608 C 1.01118 0.07326 0.04859 0.0
H609 H 0.10608 0.11859 0.06738 0.0
H610 H 0.06667 0.0809 1.01253 0.0
S611 S 0.94926 0.09336 0.14291 0.0
N612 N 0.99467 0.1149 0.15395 0.0
N613 N 0.95331 0.07287 0.09567 0.0
C614 C 0.99306 0.08298 0.08698 0.0
C615 C 1.01566 0.10577 0.11865 0.0
C616 C 0.79055 0.23814 0.7058 0.0
C617 C 0.83163 0.24893 0.69655 0.0
C618 C 0.76467 0.2646 0.72839 0.0
C619 C 0.77843 0.30322 0.74345 0.0
H620 H 0.77756 0.20997 0.69349 0.0
H621 H 0.73296 0.25507 0.73313 0.0
S622 S 0.8847 0.34461 0.73103 0.0
N623 N 0.88566 0.30016 0.70701 0.0
N624 N 0.83748 0.34913 0.74919 0.0
C625 C 0.82014 0.31336 0.73636 0.0
C626 C 0.8464 0.28659 0.713 0.0
C627 C 0.04855 0.51364 1.02164 0.0
C628 C 0.0676 0.49241 0.98884 0.0
C629 C 1.02161 0.49424 0.04994 0.0
C630 C 1.01182 0.45232 0.0473 0.0
H631 H 0.05542 0.54546 1.02634 0.0
H632 H 1.00843 0.51264 0.07438 0.0
S633 S 0.04999 0.38308 0.96451 0.0
N634 N 0.07144 0.42706 0.95338 0.0
N635 N 1.02239 0.39097 1.00677 0.0
C636 C 0.02945 0.43099 1.01364 0.0
C637 C 0.05686 0.4508 0.98465 0.0
C638 C 0.68648 0.72818 0.29345 0.0
C639 C 0.72923 0.72821 0.30464 0.0
C640 C 0.66824 0.75973 0.27027 0.0
C641 C 0.69157 0.79336 0.25715 0.0
H642 H 0.66652 0.7037 0.30317 0.0
H643 H 0.63532 0.75824 0.26349 0.0
S644 S 0.8052 0.8072 0.27394 0.0
N645 N 0.79454 0.76439 0.29749 0.0
N646 N 0.76071 0.82314 0.25483 0.0
C647 C 0.73443 0.7935 0.26735 0.0
C648 C 0.75303 0.76131 0.29079 0.0
C649 C 0.98155 0.54802 0.5247 0.0
C650 C 0.94459 0.53982 0.50084 0.0
C651 C 1.00414 0.5176 0.54515 0.0
C652 C 0.99189 0.47678 0.54238 0.0
H653 H 0.99406 0.57837 0.52734 0.0
H654 H 0.03235 0.52602 0.56219 0.0
S655 S 0.89761 0.43734 0.48575 0.0
N656 N 0.89667 0.48636 0.47759 0.0
N657 N 0.93966 0.42957 0.51451 0.0
C658 C 0.95526 0.46772 0.51874 0.0
C659 C 0.93169 0.49889 0.49839 0.0
C660 C 0.55436 0.50684 0.93364 0.0
C661 C 0.59291 0.50461 0.95507 0.0
C662 C 0.51945 0.52468 0.95229 0.0
C663 C 0.52098 0.54175 0.99334 0.0
H664 H 0.55107 0.49495 0.90193 0.0
H665 H 0.49079 0.52517 0.93422 0.0
S666 S 0.61259 0.54103 0.06514 0.0
N667 N 0.6288 0.51914 1.02174 0.0
N668 N 0.5641 0.55312 0.0555 0.0
C669 C 0.55908 0.53963 1.01525 0.0
C670 C 0.59458 0.52104 0.99655 0.0
C671 C 0.74366 0.84826 0.83881 0.0
C672 C 0.74637 0.80617 0.83127 0.0
C673 C 0.77007 0.86906 0.8678 0.0
C674 C 0.80009 0.84877 0.89132 0.0
H675 H 0.72078 0.86557 0.82214 0.0
H676 H 0.7665 0.9012 0.87238 0.0
S677 S 0.82172 0.73934 0.88335 0.0
N678 N 0.78308 0.74552 0.84956 0.0
N679 N 0.83179 0.78425 0.90462 0.0
C680 C 0.80308 0.80674 0.88459 0.0
C681 C 0.77646 0.78557 0.85464 0.0
C682 C 0.80331 0.20677 0.2861 0.0
C683 C 0.76742 0.18238 0.27845 0.0
C684 C 0.81988 0.23264 0.25518 0.0
C685 C 0.80181 0.23506 0.21462 0.0
H686 H 0.81859 0.20613 0.3166 0.0
H687 H 0.84664 0.25138 0.26342 0.0
S688 S 0.71096 0.17295 0.17641 0.0
N689 N 0.71654 0.16029 0.22606 0.0
N690 N 0.74786 0.2067 0.16784 0.0
C691 C 0.76674 0.20952 0.20624 0.0
C692 C 0.74956 0.1839 0.23799 0.0
C693 C 0.52525 0.53483 0.59453 0.0
C694 C 0.51247 0.5589 0.56085 0.0
C695 C 0.54649 0.55175 0.62979 0.0
C696 C 0.55603 0.59337 0.63275 0.0
H697 H 0.51967 0.50257 0.59318 0.0
H698 H 0.55613 0.53201 0.65473 0.0
S699 S 0.52494 0.67029 0.55574 0.0
N700 N 0.5078 0.6272 0.53471 0.0
N701 N 0.5479 0.65857 0.6005 0.0
C702 C 0.5425 0.61787 0.59985 0.0
C703 C 0.52068 0.60077 0.56412 0.0
C704 C 0.24463 0.06787 0.32923 0.0
C705 C 0.21179 0.08575 0.3076 0.0
C706 C 0.24336 0.02655 0.33764 0.0
C707 C 0.20957 1.00198 0.32395 0.0
H708 H 0.27118 0.08593 0.33976 0.0
H709 H 0.26881 1.01394 0.35534 0.0
S710 S 0.11807 0.03466 0.26196 0.0
N711 N 0.14619 0.07611 0.27008 0.0
N712 N 0.14376 0.99856 0.28536 0.0
C713 C 0.17722 1.01961 0.30106 0.0
C714 C 0.17836 0.06153 0.29301 0.0
C715 C 0.23599 0.84882 0.51873 0.0
C716 C 0.25117 0.85482 0.47817 0.0
C717 C 0.26133 0.85425 0.55455 0.0
C718 C 0.30334 0.86556 0.55176 0.0
H719 H 0.20375 0.84102 0.52323 0.0
H720 H 0.24752 0.84965 0.58483 0.0
S721 S 0.35974 0.88236 0.45314 0.0
N722 N 0.31197 0.87095 0.43729 0.0
N723 N 0.35974 0.88052 0.5049 0.0
C724 C 0.31962 0.87008 0.51145 0.0
C725 C 0.29357 0.86485 0.47467 0.0
C726 C 0.32558 1.00934 0.78199 0.0
C727 C 0.35773 1.0061 0.75331 0.0
C728 C 0.32953 0.03495 0.81715 0.0
C729 C 0.36615 0.05758 0.82534 0.0
H730 H 0.29803 0.99045 0.77824 0.0
H731 H 0.30419 0.0359 0.83885 0.0
S732 S 0.45837 0.06112 0.75795 0.0
N733 N 0.42638 0.02863 0.73381 0.0
N734 N 0.43414 0.07693 0.8001 0.0
C735 C 0.39797 0.05564 0.79596 0.0
C736 C 0.39363 0.0299 0.75982 0.0
C737 C 0.26738 0.18417 0.04072 0.0
C738 C 0.26048 0.14918 1.01582 0.0
C739 C 0.2518 0.18751 0.08107 0.0
C740 C 0.22843 0.15608 0.09845 0.0
H741 H 0.28556 0.2093 1.02933 0.0
H742 H 0.25818 0.21518 0.09871 0.0
S743 S 0.19979 0.05857 0.04578 0.0
N744 N 0.22789 0.08262 1.01106 0.0
N745 N 0.19785 0.08904 0.08712 0.0
C746 C 0.22081 0.12092 0.07388 0.0
C747 C 0.23691 0.11748 0.03251 0.0
C748 C 0.04448 0.28023 0.21046 0.0
C749 C 0.0755 0.28016 0.18015 0.0
C750 C 1.00377 0.29034 0.19975 0.0
C751 C 0.99259 0.29976 0.15825 0.0
H752 H 0.05143 0.27172 0.24246 0.0
H753 H 0.98082 0.29056 0.22406 0.0
S754 S 0.0625 0.30738 0.06789 0.0
N755 N 0.09249 0.29337 0.1073 0.0
N756 N 1.01584 0.31102 0.08735 0.0
C757 C 1.02326 0.30045 0.12783 0.0
C758 C 0.06479 0.2911 0.13878 0.0
C759 C 0.51387 0.2902 0.82461 0.0
C760 C 0.54544 0.2918 0.85577 0.0
C761 C 0.4781 0.2664 0.82953 0.0
C762 C 0.47304 0.24321 0.86557 0.0
H763 H 0.5164 0.30808 0.79661 0.0
H764 H 0.45367 0.26742 0.80586 0.0
S765 S 0.5479 0.23343 0.95436 0.0
N766 N 0.56944 0.26676 0.92334 0.0
N767 N 0.50409 0.21958 0.93059 0.0
C768 C 0.50546 0.24247 0.89556 0.0
C769 C 0.54119 0.26739 0.8912 0.0
C770 C 1.01381 0.72156 0.37055 0.0
C771 C 0.9827 0.72671 0.3398 0.0
C772 C 0.05097 0.74339 0.3694 0.0
C773 C 0.05821 0.77108 0.33742 0.0
H774 H 1.00828 0.70234 0.39713 0.0
H775 H 0.07273 0.74074 0.39544 0.0
S776 S 0.98961 0.78953 0.24528 0.0
N777 N 0.96331 0.75709 0.27369 0.0
N778 N 0.03405 0.79776 0.2707 0.0
C779 C 0.02896 0.77352 0.30425 0.0
C780 C 0.99092 0.75131 0.30558 0.0
C781 C 0.5514 0.7603 0.66442 0.0
C782 C 0.55883 0.7539 0.70757 0.0
C783 C 0.51604 0.77986 0.65023 0.0
C784 C 0.48716 0.79404 0.67875 0.0
H785 H 0.57318 0.75033 0.64122 0.0
H786 H 0.51212 0.78516 0.61694 0.0
S787 S 0.48997 0.78172 0.79443 0.0
N788 N 0.53289 0.76083 0.77828 0.0
N789 N 0.4663 0.79795 0.75173 0.0
C790 C 0.49333 0.7866 0.72182 0.0
C791 C 0.52923 0.7664 0.73623 0.0
C792 C 0.90839 0.04002 0.79787 0.0
C793 C 0.92667 0.02553 0.76126 0.0
C794 C 0.90571 1.01621 0.8333 0.0
C795 C 0.92116 0.9768 0.83362 0.0
H796 H 0.8958 0.07005 0.79907 0.0
H797 H 0.89104 0.02893 0.86063 0.0
S798 S 0.97201 0.92485 0.74519 0.0
N799 N 0.96045 0.96961 0.72675 0.0
N800 N 0.95575 0.92442 0.79401 0.0
C801 C 0.9397 0.96186 0.79714 0.0
C802 C 0.94256 0.98641 0.76085 0.0
C803 C 0.81886 0.09043 0.49961 0.0
C804 C 0.82716 0.12366 0.52633 0.0
C805 C 0.77916 0.08345 0.48228 0.0
C806 C 0.74611 0.10884 0.49206 0.0
H807 H 0.84285 0.06892 0.49327 0.0
H808 H 0.77416 0.05748 0.46166 0.0
S809 S 0.75261 0.20011 0.56096 0.0
N810 N 0.79993 0.18226 0.56192 0.0
N811 N 0.7251 0.16931 0.52969 0.0
C812 C 0.75431 0.14242 0.51865 0.0
C813 C 0.79491 0.14976 0.53572 0.0
C814 C 0.62093 0.9832 0.31613 0.0
C815 C 0.62598 0.02319 0.30302 0.0
C816 C 0.59949 0.95467 0.29103 0.0
C817 C 0.58301 0.96505 0.25165 0.0
H818 H 0.63347 0.97385 0.34614 0.0
H819 H 0.59773 0.92385 0.30169 0.0
S820 S 0.58629 0.06619 0.20385 0.0
N821 N 0.61113 0.07238 0.24934 0.0
N822 N 0.57168 1.01824 0.2013 0.0
C823 C 0.5869 1.0052 0.23865 0.0
C824 C 0.60821 0.03443 0.26456 0.0
C825 C 0.79086 0.96424 0.10397 0.0
C826 C 0.75251 0.97522 0.08661 0.0
C827 C 0.82744 0.97142 0.08257 0.0
C828 C 0.82673 0.98965 0.04305 0.0
H829 H 0.79221 0.94717 0.13267 0.0
H830 H 0.85585 0.95949 0.09546 0.0
S831 S 0.73505 0.03216 0.989 0.0
N832 N 0.71651 1.01106 0.03143 0.0
N833 N 0.78546 0.02537 0.99131 0.0
C834 C 0.78922 1.00543 1.02808 0.0
C835 C 0.75192 0.99794 0.04988 0.0
C836 C 1.00223 0.74693 0.93622 0.0
C837 C 0.04145 0.74094 0.91979 0.0
C838 C 0.98972 0.78564 0.94755 0.0
C839 C 1.01645 0.81944 0.94372 0.0
H840 H 0.98148 0.72148 0.94102 0.0
H841 H 0.9589 0.78907 0.95963 0.0
S842 S 0.12308 0.81846 0.90315 0.0
N843 N 0.10695 0.77101 0.89975 0.0
N844 N 0.08423 0.8438 0.92268 0.0
C845 C 0.05573 0.81362 0.9269 0.0
C846 C 0.06808 0.77428 0.91466 0.0
C847 C 0.55796 0.71426 0.12724 0.0
C848 C 0.51501 0.70814 0.12427 0.0
C849 C 0.57494 0.7534 0.12953 0.0
C850 C 0.54923 0.78711 0.13074 0.0
H851 H 0.5784 0.68875 0.12776 0.0
H852 H 0.60823 0.75725 0.13179 0.0
S853 S 0.43495 0.78696 0.12331 0.0
N854 N 0.44726 0.73894 0.121 0.0
N855 N 0.47929 0.81222 0.12779 0.0
C856 C 0.50638 0.78135 0.12759 0.0
C857 C 0.48919 0.74182 0.12376 0.0
C858 C 0.99708 0.24546 0.67675 0.0
C859 C 1.00355 0.21597 0.64538 0.0
C860 C 1.01745 0.28281 0.67632 0.0
C861 C 0.04555 0.2921 0.64483 0.0
H862 H 0.97509 0.24032 0.70139 0.0
H863 H 1.01099 0.30455 0.70094 0.0
S864 S 0.07496 0.22492 0.5564 0.0
N865 N 0.04078 0.19814 0.58249 0.0
N866 N 0.07993 0.26851 0.58192 0.0
C867 C 0.0532 0.26266 0.61371 0.0
C868 C 0.03196 0.22458 0.61391 0.0
C869 C 0.61165 0.33357 0.44812 0.0
C870 C 0.57425 0.33354 0.47012 0.0
C871 C 0.63146 0.29746 0.43849 0.0
C872 C 0.61462 0.26036 0.45096 0.0
H873 H 0.62446 0.36141 0.43619 0.0
H874 H 0.65839 0.29839 0.41884 0.0
S875 S 0.52205 0.2438 0.51543 0.0
N876 N 0.52394 0.29284 0.50783 0.0
N877 N 0.56285 0.22577 0.49186 0.0
C878 C 0.57996 0.2602 0.47666 0.0
C879 C 0.55933 0.29663 0.4858 0.0
C880 C 0.66915 0.53656 0.80737 0.0
C881 C 0.7052 0.51416 0.80247 0.0
C882 C 0.67012 0.57871 0.80556 0.0
C883 C 0.70691 0.60041 0.79749 0.0
H884 H 0.64008 0.52153 0.81416 0.0
H885 H 0.64151 0.59429 0.81023 0.0
S886 S 0.81036 0.5555 0.78406 0.0
N887 N 0.77919 0.51641 0.79151 0.0
N888 N 0.78094 0.59561 0.78602 0.0
C889 C 0.74343 0.57823 0.79315 0.0
C890 C 0.74253 0.53519 0.79597 0.0
C891 C 0.79175 0.40208 0.95258 0.0
C892 C 0.77876 0.3633 0.93885 0.0
C893 C 0.8184 0.40764 0.98725 0.0
C894 C 0.83276 0.37468 1.0101 0.0
H895 H 0.78203 0.42851 0.93581 0.0
H896 H 0.82772 0.43815 0.99622 0.0
S897 S 0.80719 0.26683 0.9878 0.0
N898 N 0.78188 0.2913 0.95089 0.0
N899 N 0.83161 0.30169 1.01695 0.0
C900 C 0.81956 0.33564 0.99721 0.0
C901 C 0.79279 0.32995 0.96128 0.0
C902 C 0.82384 0.49178 0.27749 0.0
C903 C 0.85299 0.4875 0.24586 0.0
C904 C 0.83078 0.51929 0.31063 0.0
C905 C 0.86754 0.54263 0.31368 0.0
H906 H 0.79591 0.47324 0.27693 0.0
H907 H 0.80748 0.52177 0.33446 0.0
S908 S 0.9534 0.54224 0.23836 0.0
N909 N 0.91963 0.50861 0.21902 0.0
N910 N 0.93297 0.56024 0.28172 0.0
C911 C 0.89684 0.53871 0.28206 0.0
C912 C 0.88943 0.51117 0.24795 0.0
C913 C 0.79512 0.66053 0.57729 0.0
C914 C 0.75832 0.64167 0.58979 0.0
C915 C 0.80686 0.65917 0.53555 0.0
C916 C 0.78261 0.63831 0.50499 0.0
H917 H 0.81396 0.67806 0.59965 0.0
H918 H 0.83506 0.67493 0.52717 0.0
S919 S 0.68498 0.58159 0.52199 0.0
N920 N 0.69831 0.60024 0.56879 0.0
N921 N 0.72178 0.59619 0.49003 0.0
C922 C 0.74706 0.61725 0.5173 0.0
C923 C 0.7346 0.61922 0.5599 0.0
C924 C 0.46015 0.47531 0.24677 0.0
C925 C 0.45365 0.51694 0.24644 0.0
C926 C 0.45858 0.4541 0.28445 0.0
C927 C 0.45021 0.47397 0.32273 0.0
H928 H 0.46431 0.45882 0.21759 0.0
H929 H 0.4626 0.42178 0.28327 0.0
S930 S 0.43364 0.58391 0.3375 0.0
N931 N 0.44164 0.57796 0.28686 0.0
N932 N 0.43693 0.53845 0.35737 0.0
C933 C 0.44536 0.51609 0.32259 0.0
C934 C 0.4476 0.5375 0.28447 0.0
C935 C 0.24895 0.60884 1.01421 0.0
C936 C 0.25442 0.61036 0.97063 0.0
C937 C 0.28209 0.61609 0.04233 0.0
C938 C 0.32148 0.62657 1.02785 0.0
H939 H 0.21875 0.60191 1.02667 0.0
H940 H 0.27681 0.61373 0.07568 0.0
S941 S 0.35174 0.63521 0.91669 0.0
N942 N 0.30202 0.62287 0.91413 0.0
N943 N 0.36438 0.63778 0.96717 0.0
C944 C 0.32734 0.62861 0.98434 0.0
C945 C 0.29375 0.6201 0.95562 0.0
C946 C 0.14083 0.57258 0.73026 0.0
C947 C 0.13031 0.56474 0.77201 0.0
C948 C 0.12902 0.54598 0.69751 0.0
C949 C 0.10604 0.51053 0.70515 0.0
H950 H 0.15948 0.59888 0.72287 0.0
H951 H 0.13945 0.5526 0.66623 0.0
S952 S 0.06592 0.47884 0.80825 0.0
N953 N 0.0925 0.52081 0.81882 0.0
N954 N 0.06956 0.47116 0.75717 0.0
C955 C 0.09336 0.50345 0.74649 0.0
C956 C 0.10578 0.53038 0.77994 0.0
C957 C 0.29988 0.4701 0.50394 0.0
C958 C 0.33808 0.4605 0.52267 0.0
C959 C 0.26284 0.46387 0.52515 0.0
C960 C 0.26279 0.44822 0.56591 0.0
H961 H 0.29833 0.48062 0.47195 0.0
H962 H 0.23393 0.47031 0.50911 0.0
S963 S 0.35484 0.42149 0.63011 0.0
N964 N 0.37386 0.43742 0.58551 0.0
N965 N 0.3042 0.42523 0.62503 0.0
C966 C 0.3009 0.44048 0.58578 0.0
C967 C 0.33857 0.44675 0.56422 0.0
loop_
_geom_bond_atom_site_label_1
_geom_bond_atom_site_label_2
_geom_bond_distance
_geom_bond_site_symmetry_2
_ccdc_geom_bond_type
Co0 N4 2.148 . S
Co0 N10 2.128 . S
Co0 N20 2.194 . S
Co0 O25 2.351 . S
Co0 O26 2.155 . S
Co0 O27 2.096 . S
C1 N4 1.301 . S
C1 N5 1.328 . S
C1 H6 0.930 . S
C2 C3 1.333 . S
C2 N4 1.317 . S
C2 H7 0.930 . S
C3 C2 1.333 . S
C3 N5 1.350 . S
C3 H29 0.931 . S
N4 Co0 2.148 . S
N4 C1 1.301 . S
N4 C2 1.317 . S
N5 C1 1.328 . S
N5 C3 1.350 . S
H6 C1 0.930 . S
H7 C2 0.930 . S
C8 O9 1.224 . S
C8 O27 1.247 . S
O9 C8 1.224 . S
N10 Co0 2.128 . S
N10 C11 1.355 . S
N10 C13 1.311 . S
C11 N10 1.355 . S
C11 C12 1.363 . S
C11 H23 0.929 . S
C12 C11 1.363 . S
C12 N14 1.375 . S
C12 H30 0.931 1_455 S
C13 N10 1.311 . S
C13 N14 1.347 . S
C13 H24 0.929 . S
N14 C12 1.375 . S
N14 C13 1.347 . S
C15 C18 1.365 . S
C15 N20 1.328 . S
C15 H21 0.929 . S
C16 C17 1.362 . S
C16 C19 1.378 . S
C16 H31 0.929 . S
C17 C16 1.362 . S
C17 C18 1.366 . S
C18 C15 1.365 . S
C18 C17 1.366 . S
C18 H32 0.930 . S
C19 C16 1.378 . S
C19 N20 1.315 . S
C19 H22 0.930 . S
N20 Co0 2.194 . S
N20 C15 1.328 . S
N20 C19 1.315 . S
H21 C15 0.929 . S
H22 C19 0.930 . S
H23 C11 0.929 . S
H24 C13 0.929 . S
O25 Co0 2.351 . S
O25 C28 1.244 . S
O26 Co0 2.155 . S
O26 C28 1.240 . S
O27 Co0 2.096 . S
O27 C8 1.247 . S
C28 O25 1.244 . S
C28 O26 1.240 . S
H29 C3 0.931 . S
H30 C12 0.931 1_655 S
H31 C16 0.929 . S
H32 C18 0.930 . S
Co33 N37 2.148 . S
Co33 N43 2.128 . S
Co33 N53 2.194 . S
Co33 O58 2.351 . S
Co33 O59 2.155 . S
Co33 O60 2.096 . S
C34 N37 1.301 . S
C34 N38 1.328 . S
C34 H39 0.930 . S
C35 C36 1.333 . S
C35 N37 1.317 . S
C35 H40 0.930 . S
C36 C35 1.333 . S
C36 N38 1.350 . S
C36 H62 0.931 . S
N37 Co33 2.148 . S
N37 C34 1.301 . S
N37 C35 1.317 . S
N38 C34 1.328 . S
N38 C36 1.350 . S
H39 C34 0.930 . S
H40 C35 0.930 . S
C41 O42 1.224 . S
C41 O60 1.247 . S
O42 C41 1.224 . S
N43 Co33 2.128 . S
N43 C44 1.355 . S
N43 C46 1.311 . S
C44 N43 1.355 . S
C44 C45 1.363 . S
C44 H56 0.929 . S
C45 C44 1.363 . S
C45 N47 1.375 . S
C45 H63 0.931 . S
C46 N43 1.311 . S
C46 N47 1.347 . S
C46 H57 0.929 . S
N47 C45 1.375 . S
N47 C46 1.347 . S
C48 C51 1.365 . S
C48 N53 1.328 . S
C48 H54 0.929 . S
C49 C50 1.362 . S
C49 C52 1.378 . S
C49 H64 0.929 . S
C50 C49 1.362 . S
C50 C51 1.366 . S
C51 C48 1.365 . S
C51 C50 1.366 . S
C51 H65 0.930 . S
C52 C49 1.378 . S
C52 N53 1.315 . S
C52 H55 0.930 . S
N53 Co33 2.194 . S
N53 C48 1.328 . S
N53 C52 1.315 . S
H54 C48 0.929 . S
H55 C52 0.930 . S
H56 C44 0.929 . S
H57 C46 0.929 . S
O58 Co33 2.351 . S
O58 C61 1.244 . S
O59 Co33 2.155 . S
O59 C61 1.240 . S
O60 Co33 2.096 . S
O60 C41 1.247 . S
C61 O58 1.244 . S
C61 O59 1.240 . S
H62 C36 0.931 . S
H63 C45 0.931 . S
H64 C49 0.929 . S
H65 C51 0.930 . S
Co66 N70 2.148 . S
Co66 N76 2.128 . S
Co66 N86 2.194 . S
Co66 O91 2.351 . S
Co66 O92 2.155 . S
Co66 O93 2.096 . S
C67 N70 1.301 . S
C67 N71 1.328 . S
C67 H72 0.930 . S
C68 C69 1.333 . S
C68 N70 1.317 . S
C68 H73 0.930 . S
C69 C68 1.333 . S
C69 N71 1.350 . S
C69 H95 0.931 . S
N70 Co66 2.148 . S
N70 C67 1.301 . S
N70 C68 1.317 . S
N71 C67 1.328 . S
N71 C69 1.350 . S
H72 C67 0.930 . S
H73 C68 0.930 . S
C74 O75 1.224 . S
C74 O93 1.247 . S
O75 C74 1.224 . S
N76 Co66 2.128 . S
N76 C77 1.355 . S
N76 C79 1.311 . S
C77 N76 1.355 . S
C77 C78 1.363 . S
C77 H89 0.929 . S
C78 C77 1.363 . S
C78 N80 1.375 . S
C78 H96 0.931 . S
C79 N76 1.311 . S
C79 N80 1.347 . S
C79 H90 0.929 . S
N80 C78 1.375 . S
N80 C79 1.347 . S
C81 C84 1.365 . S
C81 N86 1.328 . S
C81 H87 0.929 . S
C82 C83 1.362 . S
C82 C85 1.378 . S
C82 H97 0.929 . S
C83 C82 1.362 . S
C83 C84 1.366 . S
C84 C81 1.365 . S
C84 C83 1.366 . S
C84 H98 0.930 . S
C85 C82 1.378 . S
C85 N86 1.315 . S
C85 H88 0.930 . S
N86 Co66 2.194 . S
N86 C81 1.328 . S
N86 C85 1.315 . S
H87 C81 0.929 . S
H88 C85 0.930 . S
H89 C77 0.929 . S
H90 C79 0.929 . S
O91 Co66 2.351 . S
O91 C94 1.244 . S
O92 Co66 2.155 . S
O92 C94 1.240 . S
O93 Co66 2.096 . S
O93 C74 1.247 . S
C94 O91 1.244 . S
C94 O92 1.240 . S
H95 C69 0.931 . S
H96 C78 0.931 . S
H97 C82 0.929 . S
H98 C84 0.930 . S
Co99 N103 2.148 . S
Co99 N109 2.128 . S
Co99 N119 2.194 . S
Co99 O124 2.351 . S
Co99 O125 2.155 . S
Co99 O126 2.096 . S
C100 N103 1.301 . S
C100 N104 1.328 . S
C100 H105 0.930 . S
C101 C102 1.333 . S
C101 N103 1.317 . S
C101 H106 0.930 . S
C102 C101 1.333 . S
C102 N104 1.350 . S
C102 H128 0.931 . S
N103 Co99 2.148 . S
N103 C100 1.301 . S
N103 C101 1.317 . S
N104 C100 1.328 . S
N104 C102 1.350 . S
H105 C100 0.930 . S
H106 C101 0.930 . S
C107 O108 1.224 . S
C107 O126 1.247 . S
O108 C107 1.224 . S
N109 Co99 2.128 . S
N109 C110 1.355 . S
N109 C112 1.311 . S
C110 N109 1.355 . S
C110 C111 1.363 . S
C110 H122 0.929 . S
C111 C110 1.363 . S
C111 N113 1.375 . S
C111 H129 0.931 . S
C112 N109 1.311 . S
C112 N113 1.347 . S
C112 H123 0.929 . S
N113 C111 1.375 . S
N113 C112 1.347 . S
C114 C117 1.365 . S
C114 N119 1.328 . S
C114 H120 0.929 . S
C115 C116 1.362 . S
C115 C118 1.378 . S
C115 H130 0.929 . S
C116 C115 1.362 . S
C116 C117 1.366 . S
C117 C114 1.365 . S
C117 C116 1.366 . S
C117 H131 0.930 . S
C118 C115 1.378 . S
C118 N119 1.315 . S
C118 H121 0.930 . S
N119 Co99 2.194 . S
N119 C114 1.328 . S
N119 C118 1.315 . S
H120 C114 0.929 . S
H121 C118 0.930 . S
H122 C110 0.929 . S
H123 C112 0.929 . S
O124 Co99 2.351 . S
O124 C127 1.244 . S
O125 Co99 2.155 . S
O125 C127 1.240 . S
O126 Co99 2.096 . S
O126 C107 1.247 . S
C127 O124 1.244 . S
C127 O125 1.240 . S
H128 C102 0.931 . S
H129 C111 0.931 . S
H130 C115 0.929 . S
H131 C117 0.930 . S
Co132 N136 2.148 . S
Co132 N142 2.128 . S
Co132 N152 2.194 . S
Co132 O157 2.351 . S
Co132 O158 2.155 . S
Co132 O159 2.096 . S
C133 N136 1.301 . S
C133 N137 1.328 . S
C133 H138 0.930 . S
C134 C135 1.333 . S
C134 N136 1.317 . S
C134 H139 0.930 . S
C135 C134 1.333 . S
C135 N137 1.350 . S
C135 H161 0.931 . S
N136 Co132 2.148 . S
N136 C133 1.301 . S
N136 C134 1.317 . S
N137 C133 1.328 . S
N137 C135 1.350 . S
H138 C133 0.930 . S
H139 C134 0.930 . S
C140 O141 1.224 . S
C140 O159 1.247 . S
O141 C140 1.224 . S
N142 Co132 2.128 . S
N142 C143 1.355 . S
N142 C145 1.311 . S
C143 N142 1.355 . S
C143 C144 1.363 . S
C143 H155 0.929 . S
C144 C143 1.363 . S
C144 N146 1.375 . S
C144 H162 0.931 . S
C145 N142 1.311 . S
C145 N146 1.347 . S
C145 H156 0.929 . S
N146 C144 1.375 . S
N146 C145 1.347 . S
C147 C150 1.365 . S
C147 N152 1.328 . S
C147 H153 0.929 . S
C148 C149 1.362 . S
C148 C151 1.378 . S
C148 H163 0.929 . S
C149 C148 1.362 . S
C149 C150 1.366 . S
C150 C147 1.365 . S
C150 C149 1.366 . S
C150 H164 0.930 . S
C151 C148 1.378 . S
C151 N152 1.315 . S
C151 H154 0.930 . S
N152 Co132 2.194 . S
N152 C147 1.328 . S
N152 C151 1.315 . S
H153 C147 0.929 . S
H154 C151 0.930 . S
H155 C143 0.929 . S
H156 C145 0.929 . S
O157 Co132 2.351 . S
O157 C160 1.244 . S
O158 Co132 2.155 . S
O158 C160 1.240 . S
O159 Co132 2.096 . S
O159 C140 1.247 . S
C160 O157 1.244 . S
C160 O158 1.240 . S
H161 C135 0.931 . S
H162 C144 0.931 . S
H163 C148 0.929 . S
H164 C150 0.930 . S
Co165 N169 2.148 . S
Co165 N175 2.128 . S
Co165 N185 2.194 . S
Co165 O190 2.351 . S
Co165 O191 2.155 . S
Co165 O192 2.096 . S
C166 N169 1.301 . S
C166 N170 1.328 . S
C166 H171 0.930 . S
C167 C168 1.333 . S
C167 N169 1.317 . S
C167 H172 0.930 . S
C168 C167 1.333 . S
C168 N170 1.350 . S
C168 H194 0.931 . S
N169 Co165 2.148 . S
N169 C166 1.301 . S
N169 C167 1.317 . S
N170 C166 1.328 . S
N170 C168 1.350 . S
H171 C166 0.930 . S
H172 C167 0.930 . S
C173 O174 1.224 . S
C173 O192 1.247 . S
O174 C173 1.224 . S
N175 Co165 2.128 . S
N175 C176 1.355 . S
N175 C178 1.311 . S
C176 N175 1.355 . S
C176 C177 1.363 . S
C176 H188 0.929 . S
C177 C176 1.363 . S
C177 N179 1.375 . S
C177 H195 0.931 1_655 S
C178 N175 1.311 . S
C178 N179 1.347 . S
C178 H189 0.929 . S
N179 C177 1.375 . S
N179 C178 1.347 . S
C180 C183 1.365 . S
C180 N185 1.328 . S
C180 H186 0.929 . S
C181 C182 1.362 . S
C181 C184 1.378 . S
C181 H196 0.929 . S
C182 C181 1.362 . S
C182 C183 1.366 . S
C183 C180 1.365 . S
C183 C182 1.366 . S
C183 H197 0.930 . S
C184 C181 1.378 . S
C184 N185 1.315 . S
C184 H187 0.930 . S
N185 Co165 2.194 . S
N185 C180 1.328 . S
N185 C184 1.315 . S
H186 C180 0.929 . S
H187 C184 0.930 . S
H188 C176 0.929 . S
H189 C178 0.929 . S
O190 Co165 2.351 . S
O190 C193 1.244 . S
O191 Co165 2.155 . S
O191 C193 1.240 . S
O192 Co165 2.096 . S
O192 C173 1.247 . S
C193 O190 1.244 . S
C193 O191 1.240 . S
H194 C168 0.931 . S
H195 C177 0.931 1_455 S
H196 C181 0.929 . S
H197 C183 0.930 . S
Co198 N202 2.148 . S
Co198 N208 2.128 . S
Co198 N218 2.194 . S
Co198 O223 2.351 . S
Co198 O224 2.155 . S
Co198 O225 2.096 . S
C199 N202 1.301 . S
C199 N203 1.328 . S
C199 H204 0.930 . S
C200 C201 1.333 . S
C200 N202 1.317 . S
C200 H205 0.930 . S
C201 C200 1.333 . S
C201 N203 1.350 . S
C201 H227 0.931 . S
N202 Co198 2.148 . S
N202 C199 1.301 . S
N202 C200 1.317 . S
N203 C199 1.328 . S
N203 C201 1.350 . S
H204 C199 0.930 . S
H205 C200 0.930 . S
C206 O207 1.224 . S
C206 O225 1.247 . S
O207 C206 1.224 . S
N208 Co198 2.128 . S
N208 C209 1.355 . S
N208 C211 1.311 . S
C209 N208 1.355 . S
C209 C210 1.363 . S
C209 H221 0.929 . S
C210 C209 1.363 . S
C210 N212 1.375 . S
C210 H228 0.931 . S
C211 N208 1.311 . S
C211 N212 1.347 . S
C211 H222 0.929 . S
N212 C210 1.375 . S
N212 C211 1.347 . S
C213 C216 1.365 . S
C213 N218 1.328 . S
C213 H219 0.929 . S
C214 C215 1.362 . S
C214 C217 1.378 . S
C214 H229 0.929 . S
C215 C214 1.362 . S
C215 C216 1.366 . S
C216 C213 1.365 . S
C216 C215 1.366 . S
C216 H230 0.930 . S
C217 C214 1.378 . S
C217 N218 1.315 . S
C217 H220 0.930 . S
N218 Co198 2.194 . S
N218 C213 1.328 . S
N218 C217 1.315 . S
H219 C213 0.929 . S
H220 C217 0.930 . S
H221 C209 0.929 . S
H222 C211 0.929 . S
O223 Co198 2.351 . S
O223 C226 1.244 . S
O224 Co198 2.155 . S
O224 C226 1.240 . S
O225 Co198 2.096 . S
O225 C206 1.247 . S
C226 O223 1.244 . S
C226 O224 1.240 . S
H227 C201 0.931 . S
H228 C210 0.931 . S
H229 C214 0.929 . S
H230 C216 0.930 . S
Co231 N235 2.148 . S
Co231 N241 2.128 . S
Co231 N251 2.194 . S
Co231 O256 2.351 . S
Co231 O257 2.155 . S
Co231 O258 2.096 . S
C232 N235 1.301 . S
C232 N236 1.328 . S
C232 H237 0.930 . S
C233 C234 1.333 . S
C233 N235 1.317 . S
C233 H238 0.930 . S
C234 C233 1.333 . S
C234 N236 1.350 . S
C234 H260 0.931 1_565 S
N235 Co231 2.148 . S
N235 C232 1.301 . S
N235 C233 1.317 . S
N236 C232 1.328 . S
N236 C234 1.350 . S
H237 C232 0.930 . S
H238 C233 0.930 . S
C239 O240 1.224 . S
C239 O258 1.247 . S
O240 C239 1.224 . S
N241 Co231 2.128 . S
N241 C242 1.355 . S
N241 C244 1.311 . S
C242 N241 1.355 . S
C242 C243 1.363 . S
C242 H254 0.929 . S
C243 C242 1.363 . S
C243 N245 1.375 . S
C243 H261 0.931 . S
C244 N241 1.311 . S
C244 N245 1.347 . S
C244 H255 0.929 . S
N245 C243 1.375 . S
N245 C244 1.347 . S
C246 C249 1.365 . S
C246 N251 1.328 . S
C246 H252 0.929 . S
C247 C248 1.362 . S
C247 C250 1.378 . S
C247 H262 0.929 . S
C248 C247 1.362 . S
C248 C249 1.366 . S
C249 C246 1.365 . S
C249 C248 1.366 . S
C249 H263 0.930 . S
C250 C247 1.378 . S
C250 N251 1.315 . S
C250 H253 0.930 . S
N251 Co231 2.194 . S
N251 C246 1.328 . S
N251 C250 1.315 . S
H252 C246 0.929 . S
H253 C250 0.930 . S
H254 C242 0.929 . S
H255 C244 0.929 . S
O256 Co231 2.351 . S
O256 C259 1.244 . S
O257 Co231 2.155 . S
O257 C259 1.240 . S
O258 Co231 2.096 . S
O258 C239 1.247 . S
C259 O256 1.244 . S
C259 O257 1.240 . S
H260 C234 0.931 1_545 S
H261 C243 0.931 . S
H262 C247 0.929 . S
H263 C249 0.930 . S
Co264 N268 2.148 . S
Co264 N274 2.128 . S
Co264 N284 2.194 . S
Co264 O289 2.351 . S
Co264 O290 2.155 . S
Co264 O291 2.096 . S
C265 N268 1.301 . S
C265 N269 1.328 . S
C265 H270 0.930 . S
C266 C267 1.333 . S
C266 N268 1.317 . S
C266 H271 0.930 . S
C267 C266 1.333 . S
C267 N269 1.350 . S
C267 H293 0.931 . S
N268 Co264 2.148 . S
N268 C265 1.301 . S
N268 C266 1.317 . S
N269 C265 1.328 . S
N269 C267 1.350 . S
H270 C265 0.930 . S
H271 C266 0.930 . S
C272 O273 1.224 . S
C272 O291 1.247 . S
O273 C272 1.224 . S
N274 Co264 2.128 . S
N274 C275 1.355 . S
N274 C277 1.311 . S
C275 N274 1.355 . S
C275 C276 1.363 . S
C275 H287 0.929 . S
C276 C275 1.363 . S
C276 N278 1.375 . S
C276 H294 0.931 . S
C277 N274 1.311 . S
C277 N278 1.347 . S
C277 H288 0.929 . S
N278 C276 1.375 . S
N278 C277 1.347 . S
C279 C282 1.365 . S
C279 N284 1.328 . S
C279 H285 0.929 . S
C280 C281 1.362 . S
C280 C283 1.378 . S
C280 H295 0.929 . S
C281 C280 1.362 . S
C281 C282 1.366 . S
C282 C279 1.365 . S
C282 C281 1.366 . S
C282 H296 0.930 . S
C283 C280 1.378 . S
C283 N284 1.315 . S
C283 H286 0.930 . S
N284 Co264 2.194 . S
N284 C279 1.328 . S
N284 C283 1.315 . S
H285 C279 0.929 . S
H286 C283 0.930 . S
H287 C275 0.929 . S
H288 C277 0.929 . S
O289 Co264 2.351 . S
O289 C292 1.244 . S
O290 Co264 2.155 . S
O290 C292 1.240 . S
O291 Co264 2.096 . S
O291 C272 1.247 . S
C292 O289 1.244 . S
C292 O290 1.240 . S
H293 C267 0.931 . S
H294 C276 0.931 . S
H295 C280 0.929 . S
H296 C282 0.930 . S
Co297 N301 2.148 . S
Co297 N307 2.128 . S
Co297 N317 2.194 . S
Co297 O322 2.351 . S
Co297 O323 2.155 . S
Co297 O324 2.096 . S
C298 N301 1.301 . S
C298 N302 1.328 . S
C298 H303 0.930 . S
C299 C300 1.333 . S
C299 N301 1.317 . S
C299 H304 0.930 . S
C300 C299 1.333 . S
C300 N302 1.350 . S
C300 H326 0.931 . S
N301 Co297 2.148 . S
N301 C298 1.301 . S
N301 C299 1.317 . S
N302 C298 1.328 . S
N302 C300 1.350 . S
H303 C298 0.930 . S
H304 C299 0.930 . S
C305 O306 1.224 . S
C305 O324 1.247 . S
O306 C305 1.224 . S
N307 Co297 2.128 . S
N307 C308 1.355 . S
N307 C310 1.311 . S
C308 N307 1.355 . S
C308 C309 1.363 . S
C308 H320 0.929 . S
C309 C308 1.363 . S
C309 N311 1.375 . S
C309 H327 0.931 . S
C310 N307 1.311 . S
C310 N311 1.347 . S
C310 H321 0.929 . S
N311 C309 1.375 . S
N311 C310 1.347 . S
C312 C315 1.365 . S
C312 N317 1.328 . S
C312 H318 0.929 . S
C313 C314 1.362 . S
C313 C316 1.378 . S
C313 H328 0.929 . S
C314 C313 1.362 . S
C314 C315 1.366 . S
C315 C312 1.365 . S
C315 C314 1.366 . S
C315 H329 0.930 . S
C316 C313 1.378 . S
C316 N317 1.315 . S
C316 H319 0.930 . S
N317 Co297 2.194 . S
N317 C312 1.328 . S
N317 C316 1.315 . S
H318 C312 0.929 . S
H319 C316 0.930 . S
H320 C308 0.929 . S
H321 C310 0.929 . S
O322 Co297 2.351 . S
O322 C325 1.244 . S
O323 Co297 2.155 . S
O323 C325 1.240 . S
O324 Co297 2.096 . S
O324 C305 1.247 . S
C325 O322 1.244 . S
C325 O323 1.240 . S
H326 C300 0.931 . S
H327 C309 0.931 . S
H328 C313 0.929 . S
H329 C315 0.930 . S
Co330 N334 2.148 . S
Co330 N340 2.128 . S
Co330 N350 2.194 . S
Co330 O355 2.351 . S
Co330 O356 2.155 . S
Co330 O357 2.096 . S
C331 N334 1.301 . S
C331 N335 1.328 . S
C331 H336 0.930 . S
C332 C333 1.333 . S
C332 N334 1.317 . S
C332 H337 0.930 . S
C333 C332 1.333 . S
C333 N335 1.350 . S
C333 H359 0.931 . S
N334 Co330 2.148 . S
N334 C331 1.301 . S
N334 C332 1.317 . S
N335 C331 1.328 . S
N335 C333 1.350 . S
H336 C331 0.930 . S
H337 C332 0.930 . S
C338 O339 1.224 . S
C338 O357 1.247 . S
O339 C338 1.224 . S
N340 Co330 2.128 . S
N340 C341 1.355 . S
N340 C343 1.311 . S
C341 N340 1.355 . S
C341 C342 1.363 . S
C341 H353 0.929 . S
C342 C341 1.363 . S
C342 N344 1.375 . S
C342 H360 0.931 . S
C343 N340 1.311 . S
C343 N344 1.347 . S
C343 H354 0.929 . S
N344 C342 1.375 . S
N344 C343 1.347 . S
C345 C348 1.365 . S
C345 N350 1.328 . S
C345 H351 0.929 . S
C346 C347 1.362 . S
C346 C349 1.378 . S
C346 H361 0.929 . S
C347 C346 1.362 . S
C347 C348 1.366 . S
C348 C345 1.365 . S
C348 C347 1.366 . S
C348 H362 0.930 . S
C349 C346 1.378 . S
C349 N350 1.315 . S
C349 H352 0.930 . S
N350 Co330 2.194 . S
N350 C345 1.328 . S
N350 C349 1.315 . S
H351 C345 0.929 . S
H352 C349 0.930 . S
H353 C341 0.929 . S
H354 C343 0.929 . S
O355 Co330 2.351 . S
O355 C358 1.244 . S
O356 Co330 2.155 . S
O356 C358 1.240 . S
O357 Co330 2.096 . S
O357 C338 1.247 . S
C358 O355 1.244 . S
C358 O356 1.240 . S
H359 C333 0.931 . S
H360 C342 0.931 . S
H361 C346 0.929 . S
H362 C348 0.930 . S
Co363 N367 2.148 . S
Co363 N373 2.128 . S
Co363 N383 2.194 . S
Co363 O388 2.351 . S
Co363 O389 2.155 . S
Co363 O390 2.096 . S
C364 N367 1.301 . S
C364 N368 1.328 . S
C364 H369 0.930 . S
C365 C366 1.333 . S
C365 N367 1.317 . S
C365 H370 0.930 . S
C366 C365 1.333 . S
C366 N368 1.350 . S
C366 H392 0.931 . S
N367 Co363 2.148 . S
N367 C364 1.301 . S
N367 C365 1.317 . S
N368 C364 1.328 . S
N368 C366 1.350 . S
H369 C364 0.930 . S
H370 C365 0.930 . S
C371 O372 1.224 . S
C371 O390 1.247 . S
O372 C371 1.224 . S
N373 Co363 2.128 . S
N373 C374 1.355 . S
N373 C376 1.311 . S
C374 N373 1.355 . S
C374 C375 1.363 . S
C374 H386 0.929 . S
C375 C374 1.363 . S
C375 N377 1.375 . S
C375 H393 0.931 . S
C376 N373 1.311 . S
C376 N377 1.347 . S
C376 H387 0.929 . S
N377 C375 1.375 . S
N377 C376 1.347 . S
C378 C381 1.365 . S
C378 N383 1.328 . S
C378 H384 0.929 . S
C379 C380 1.362 . S
C379 C382 1.378 . S
C379 H394 0.929 . S
C380 C379 1.362 . S
C380 C381 1.366 . S
C381 C378 1.365 . S
C381 C380 1.366 . S
C381 H395 0.930 . S
C382 C379 1.378 . S
C382 N383 1.315 . S
C382 H385 0.930 . S
N383 Co363 2.194 . S
N383 C378 1.328 . S
N383 C382 1.315 . S
H384 C378 0.929 . S
H385 C382 0.930 . S
H386 C374 0.929 . S
H387 C376 0.929 . S
O388 Co363 2.351 . S
O388 C391 1.244 . S
O389 Co363 2.155 . S
O389 C391 1.240 . S
O390 Co363 2.096 . S
O390 C371 1.247 . S
C391 O388 1.244 . S
C391 O389 1.240 . S
H392 C366 0.931 . S
H393 C375 0.931 . S
H394 C379 0.929 . S
H395 C381 0.930 . S
Co396 N400 2.148 . S
Co396 N406 2.128 . S
Co396 N416 2.194 . S
Co396 O421 2.351 . S
Co396 O422 2.155 . S
Co396 O423 2.096 . S
C397 N400 1.301 . S
C397 N401 1.328 . S
C397 H402 0.930 . S
C398 C399 1.333 . S
C398 N400 1.317 . S
C398 H403 0.930 . S
C399 C398 1.333 . S
C399 N401 1.350 . S
C399 H425 0.931 . S
N400 Co396 2.148 . S
N400 C397 1.301 . S
N400 C398 1.317 . S
N401 C397 1.328 . S
N401 C399 1.350 . S
H402 C397 0.930 . S
H403 C398 0.930 . S
C404 O405 1.224 . S
C404 O423 1.247 . S
O405 C404 1.224 . S
N406 Co396 2.128 . S
N406 C407 1.355 . S
N406 C409 1.311 . S
C407 N406 1.355 . S
C407 C408 1.363 . S
C407 H419 0.929 . S
C408 C407 1.363 . S
C408 N410 1.375 . S
C408 H426 0.931 . S
C409 N406 1.311 . S
C409 N410 1.347 . S
C409 H420 0.929 . S
N410 C408 1.375 . S
N410 C409 1.347 . S
C411 C414 1.365 . S
C411 N416 1.328 . S
C411 H417 0.929 . S
C412 C413 1.362 . S
C412 C415 1.378 . S
C412 H427 0.929 . S
C413 C412 1.362 . S
C413 C414 1.366 . S
C414 C411 1.365 . S
C414 C413 1.366 . S
C414 H428 0.930 . S
C415 C412 1.378 . S
C415 N416 1.315 . S
C415 H418 0.930 . S
N416 Co396 2.194 . S
N416 C411 1.328 . S
N416 C415 1.315 . S
H417 C411 0.929 . S
H418 C415 0.930 . S
H419 C407 0.929 . S
H420 C409 0.929 . S
O421 Co396 2.351 . S
O421 C424 1.244 . S
O422 Co396 2.155 . S
O422 C424 1.240 . S
O423 Co396 2.096 . S
O423 C404 1.247 . S
C424 O421 1.244 . S
C424 O422 1.240 . S
H425 C399 0.931 . S
H426 C408 0.931 . S
H427 C412 0.929 . S
H428 C414 0.930 . S
Co429 N433 2.148 . S
Co429 N439 2.128 . S
Co429 N449 2.194 . S
Co429 O454 2.351 . S
Co429 O455 2.155 . S
Co429 O456 2.096 . S
C430 N433 1.301 . S
C430 N434 1.328 . S
C430 H435 0.930 . S
C431 C432 1.333 . S
C431 N433 1.317 . S
C431 H436 0.930 . S
C432 C431 1.333 . S
C432 N434 1.350 . S
C432 H458 0.931 . S
N433 Co429 2.148 . S
N433 C430 1.301 . S
N433 C431 1.317 . S
N434 C430 1.328 . S
N434 C432 1.350 . S
H435 C430 0.930 . S
H436 C431 0.930 . S
C437 O438 1.224 . S
C437 O456 1.247 . S
O438 C437 1.224 . S
N439 Co429 2.128 . S
N439 C440 1.355 . S
N439 C442 1.311 . S
C440 N439 1.355 . S
C440 C441 1.363 . S
C440 H452 0.929 . S
C441 C440 1.363 . S
C441 N443 1.375 . S
C441 H459 0.931 . S
C442 N439 1.311 . S
C442 N443 1.347 . S
C442 H453 0.929 . S
N443 C441 1.375 . S
N443 C442 1.347 . S
C444 C447 1.365 . S
C444 N449 1.328 . S
C444 H450 0.929 . S
C445 C446 1.362 . S
C445 C448 1.378 . S
C445 H460 0.929 . S
C446 C445 1.362 . S
C446 C447 1.366 . S
C447 C444 1.365 . S
C447 C446 1.366 . S
C447 H461 0.930 . S
C448 C445 1.378 . S
C448 N449 1.315 . S
C448 H451 0.930 . S
N449 Co429 2.194 . S
N449 C444 1.328 . S
N449 C448 1.315 . S
H450 C444 0.929 . S
H451 C448 0.930 . S
H452 C440 0.929 . S
H453 C442 0.929 . S
O454 Co429 2.351 . S
O454 C457 1.244 . S
O455 Co429 2.155 . S
O455 C457 1.240 . S
O456 Co429 2.096 . S
O456 C437 1.247 . S
C457 O454 1.244 . S
C457 O455 1.240 . S
H458 C432 0.931 . S
H459 C441 0.931 . S
H460 C445 0.929 . S
H461 C447 0.930 . S
Co462 N466 2.148 . S
Co462 N472 2.128 . S
Co462 N482 2.194 . S
Co462 O487 2.351 . S
Co462 O488 2.155 . S
Co462 O489 2.096 . S
C463 N466 1.301 . S
C463 N467 1.328 . S
C463 H468 0.930 . S
C464 C465 1.333 . S
C464 N466 1.317 . S
C464 H469 0.930 . S
C465 C464 1.333 . S
C465 N467 1.350 . S
C465 H491 0.931 . S
N466 Co462 2.148 . S
N466 C463 1.301 . S
N466 C464 1.317 . S
N467 C463 1.328 . S
N467 C465 1.350 . S
H468 C463 0.930 . S
H469 C464 0.930 . S
C470 O471 1.224 . S
C470 O489 1.247 . S
O471 C470 1.224 . S
N472 Co462 2.128 . S
N472 C473 1.355 . S
N472 C475 1.311 . S
C473 N472 1.355 . S
C473 C474 1.363 . S
C473 H485 0.929 . S
C474 C473 1.363 . S
C474 N476 1.375 . S
C474 H492 0.931 . S
C475 N472 1.311 . S
C475 N476 1.347 . S
C475 H486 0.929 . S
N476 C474 1.375 . S
N476 C475 1.347 . S
C477 C480 1.365 . S
C477 N482 1.328 . S
C477 H483 0.929 . S
C478 C479 1.362 . S
C478 C481 1.378 . S
C478 H493 0.929 . S
C479 C478 1.362 . S
C479 C480 1.366 . S
C480 C477 1.365 . S
C480 C479 1.366 . S
C480 H494 0.930 . S
C481 C478 1.378 . S
C481 N482 1.315 . S
C481 H484 0.930 . S
N482 Co462 2.194 . S
N482 C477 1.328 . S
N482 C481 1.315 . S
H483 C477 0.929 . S
H484 C481 0.930 . S
H485 C473 0.929 . S
H486 C475 0.929 . S
O487 Co462 2.351 . S
O487 C490 1.244 . S
O488 Co462 2.155 . S
O488 C490 1.240 . S
O489 Co462 2.096 . S
O489 C470 1.247 . S
C490 O487 1.244 . S
C490 O488 1.240 . S
H491 C465 0.931 . S
H492 C474 0.931 . S
H493 C478 0.929 . S
H494 C480 0.930 . S
Co495 N499 2.148 . S
Co495 N505 2.128 . S
Co495 N515 2.194 . S
Co495 O520 2.351 . S
Co495 O521 2.155 . S
Co495 O522 2.096 . S
C496 N499 1.301 . S
C496 N500 1.328 . S
C496 H501 0.930 . S
C497 C498 1.333 . S
C497 N499 1.317 . S
C497 H502 0.930 . S
C498 C497 1.333 . S
C498 N500 1.350 . S
C498 H524 0.931 . S
N499 Co495 2.148 . S
N499 C496 1.301 . S
N499 C497 1.317 . S
N500 C496 1.328 . S
N500 C498 1.350 . S
H501 C496 0.930 . S
H502 C497 0.930 . S
C503 O504 1.224 . S
C503 O522 1.247 . S
O504 C503 1.224 . S
N505 Co495 2.128 . S
N505 C506 1.355 . S
N505 C508 1.311 . S
C506 N505 1.355 . S
C506 C507 1.363 . S
C506 H518 0.929 . S
C507 C506 1.363 . S
C507 N509 1.375 . S
C507 H525 0.931 . S
C508 N505 1.311 . S
C508 N509 1.347 . S
C508 H519 0.929 . S
N509 C507 1.375 . S
N509 C508 1.347 . S
C510 C513 1.365 . S
C510 N515 1.328 . S
C510 H516 0.929 . S
C511 C512 1.362 . S
C511 C514 1.378 . S
C511 H526 0.929 . S
C512 C511 1.362 . S
C512 C513 1.366 . S
C513 C510 1.365 . S
C513 C512 1.366 . S
C513 H527 0.930 . S
C514 C511 1.378 . S
C514 N515 1.315 . S
C514 H517 0.930 . S
N515 Co495 2.194 . S
N515 C510 1.328 . S
N515 C514 1.315 . S
H516 C510 0.929 . S
H517 C514 0.930 . S
H518 C506 0.929 . S
H519 C508 0.929 . S
O520 Co495 2.351 . S
O520 C523 1.244 . S
O521 Co495 2.155 . S
O521 C523 1.240 . S
O522 Co495 2.096 . S
O522 C503 1.247 . S
C523 O520 1.244 . S
C523 O521 1.240 . S
H524 C498 0.931 . S
H525 C507 0.931 . S
H526 C511 0.929 . S
H527 C513 0.930 . S
C528 C529 1.369 . S
C528 C530 1.419 . S
C528 H532 0.930 . S
C529 C528 1.369 . S
C529 C538 1.429 . S
C530 C528 1.419 . S
C530 C531 1.363 . S
C530 H533 0.929 . S
C531 C530 1.363 . S
C531 C537 1.428 . S
H532 C528 0.930 . S
H533 C530 0.929 . S
S534 N535 1.613 . S
S534 N536 1.610 . S
N535 S534 1.613 . S
N535 C538 1.350 . S
N536 S534 1.610 . S
N536 C537 1.351 . S
C537 C531 1.428 . S
C537 N536 1.351 . S
C537 C538 1.434 . S
C538 C529 1.429 . S
C538 N535 1.350 . S
C538 C537 1.434 . S
C539 C540 1.369 . S
C539 C541 1.419 1_655 S
C539 H543 0.930 . S
C540 C539 1.369 . S
C540 C549 1.429 1_655 S
C541 C539 1.419 1_455 S
C541 C542 1.363 . S
C541 H544 0.929 1_545 S
C542 C541 1.363 . S
C542 C548 1.428 . S
H543 C539 0.930 . S
H544 C541 0.929 1_565 S
S545 N546 1.613 . S
S545 N547 1.610 . S
N546 S545 1.613 . S
N546 C549 1.350 . S
N547 S545 1.610 . S
N547 C548 1.351 . S
C548 C542 1.428 . S
C548 N547 1.351 . S
C548 C549 1.434 . S
C549 C540 1.429 1_455 S
C549 N546 1.350 . S
C549 C548 1.434 . S
C550 C551 1.369 . S
C550 C552 1.419 . S
C550 H554 0.930 . S
C551 C550 1.369 . S
C551 C560 1.429 . S
C552 C550 1.419 . S
C552 C553 1.363 . S
C552 H555 0.929 . S
C553 C552 1.363 . S
C553 C559 1.428 . S
H554 C550 0.930 . S
H555 C552 0.929 . S
S556 N557 1.613 . S
S556 N558 1.610 . S
N557 S556 1.613 . S
N557 C560 1.350 . S
N558 S556 1.610 . S
N558 C559 1.351 . S
C559 C553 1.428 . S
C559 N558 1.351 . S
C559 C560 1.434 . S
C560 C551 1.429 . S
C560 N557 1.350 . S
C560 C559 1.434 . S
C561 C562 1.369 1_565 S
C561 C563 1.404 1_556 S
C561 H565 0.930 . S
C562 C561 1.369 1_545 S
C562 C571 1.429 1_556 S
C563 C561 1.404 1_554 S
C563 C564 1.383 . S
C563 H566 0.924 1_554 S
C564 C563 1.383 . S
C564 C570 1.428 1_565 S
H565 C561 0.930 . S
H566 C563 0.924 1_556 S
S567 N568 1.613 . S
S567 N569 1.610 . S
N568 S567 1.613 . S
N568 C571 1.350 . S
N569 S567 1.610 . S
N569 C570 1.351 . S
C570 C564 1.428 1_545 S
C570 N569 1.351 . S
C570 C571 1.434 . S
C571 C562 1.429 1_554 S
C571 N568 1.350 . S
C571 C570 1.434 . S
C572 C573 1.369 . S
C572 C574 1.419 . S
C572 H576 0.930 . S
C573 C572 1.369 . S
C573 C582 1.429 . S
C574 C572 1.419 . S
C574 C575 1.363 . S
C574 H577 0.929 . S
C575 C574 1.363 . S
C575 C581 1.428 . S
H576 C572 0.930 . S
H577 C574 0.929 . S
S578 N579 1.613 . S
S578 N580 1.610 . S
N579 S578 1.613 . S
N579 C582 1.350 . S
N580 S578 1.610 . S
N580 C581 1.351 . S
C581 C575 1.428 . S
C581 N580 1.351 . S
C581 C582 1.434 . S
C582 C573 1.429 . S
C582 N579 1.350 . S
C582 C581 1.434 . S
C583 C584 1.369 . S
C583 C585 1.419 . S
C583 H587 0.930 . S
C584 C583 1.369 . S
C584 C593 1.429 . S
C585 C583 1.419 . S
C585 C586 1.363 1_565 S
C585 H588 0.929 . S
C586 C585 1.363 1_545 S
C586 C592 1.428 . S
H587 C583 0.930 . S
H588 C585 0.929 . S
S589 N590 1.613 1_545 S
S589 N591 1.610 . S
N590 S589 1.613 1_565 S
N590 C593 1.350 . S
N591 S589 1.610 . S
N591 C592 1.351 . S
C592 C586 1.428 . S
C592 N591 1.351 . S
C592 C593 1.434 1_545 S
C593 C584 1.429 . S
C593 N590 1.350 . S
C593 C592 1.434 1_565 S
C594 C595 1.369 . S
C594 C596 1.419 . S
C594 H598 0.930 . S
C595 C594 1.369 . S
C595 C604 1.429 . S
C596 C594 1.419 . S
C596 C597 1.363 . S
C596 H599 0.929 . S
C597 C596 1.363 . S
C597 C603 1.428 . S
H598 C594 0.930 . S
H599 C596 0.929 . S
S600 N601 1.613 . S
S600 N602 1.610 . S
N601 S600 1.613 . S
N601 C604 1.350 . S
N602 S600 1.610 . S
N602 C603 1.351 . S
C603 C597 1.428 . S
C603 N602 1.351 . S
C603 C604 1.434 . S
C604 C595 1.429 . S
C604 N601 1.350 . S
C604 C603 1.434 . S
C605 C606 1.369 1_556 S
C605 C607 1.402 1_445 S
C605 H609 0.930 . S
C606 C605 1.369 1_554 S
C606 C615 1.429 1_455 S
C607 C605 1.402 1_665 S
C607 C608 1.391 . S
C607 H610 0.918 1_655 S
C608 C607 1.391 . S
C608 C614 1.428 1_566 S
H609 C605 0.930 . S
H610 C607 0.918 1_455 S
S611 N612 1.613 . S
S611 N613 1.610 . S
N612 S611 1.613 . S
N612 C615 1.350 . S
N613 S611 1.610 . S
N613 C614 1.351 . S
C614 C608 1.428 1_544 S
C614 N613 1.351 . S
C614 C615 1.434 . S
C615 C606 1.429 1_655 S
C615 N612 1.350 . S
C615 C614 1.434 . S
C616 C617 1.369 . S
C616 C618 1.419 . S
C616 H620 0.930 . S
C617 C616 1.369 . S
C617 C626 1.429 . S
C618 C616 1.419 . S
C618 C619 1.363 . S
C618 H621 0.929 . S
C619 C618 1.363 . S
C619 C625 1.428 . S
H620 C616 0.930 . S
H621 C618 0.929 . S
S622 N623 1.613 . S
S622 N624 1.610 . S
N623 S622 1.613 . S
N623 C626 1.350 . S
N624 S622 1.610 . S
N624 C625 1.351 . S
C625 C619 1.428 . S
C625 N624 1.351 . S
C625 C626 1.434 . S
C626 C617 1.429 . S
C626 N623 1.350 . S
C626 C625 1.434 . S
C627 C628 1.369 1_554 S
C627 C629 1.419 . S
C627 H631 0.930 . S
C628 C627 1.369 1_556 S
C628 C637 1.429 . S
C629 C627 1.419 . S
C629 C630 1.363 1_455 S
C629 H632 0.929 1_455 S
C630 C629 1.363 1_655 S
C630 C636 1.428 1_554 S
H631 C627 0.930 . S
H632 C629 0.929 1_655 S
S633 N634 1.613 . S
S633 N635 1.610 1_455 S
N634 S633 1.613 . S
N634 C637 1.350 . S
N635 S633 1.610 1_655 S
N635 C636 1.351 . S
C636 C630 1.428 1_556 S
C636 N635 1.351 . S
C636 C637 1.435 1_655 S
C637 C628 1.429 . S
C637 N634 1.350 . S
C637 C636 1.435 1_455 S
C638 C639 1.369 . S
C638 C640 1.419 . S
C638 H642 0.930 . S
C639 C638 1.369 . S
C639 C648 1.429 . S
C640 C638 1.419 . S
C640 C641 1.363 . S
C640 H643 0.929 . S
C641 C640 1.363 . S
C641 C647 1.428 . S
H642 C638 0.930 . S
H643 C640 0.929 . S
S644 N645 1.613 . S
S644 N646 1.610 . S
N645 S644 1.613 . S
N645 C648 1.350 . S
N646 S644 1.610 . S
N646 C647 1.351 . S
C647 C641 1.428 . S
C647 N646 1.351 . S
C647 C648 1.434 . S
C648 C639 1.429 . S
C648 N645 1.350 . S
C648 C647 1.434 . S
C649 C650 1.369 . S
C649 C651 1.419 1_655 S
C649 H653 0.930 . S
C650 C649 1.369 . S
C650 C659 1.429 . S
C651 C649 1.419 1_455 S
C651 C652 1.363 . S
C651 H654 0.929 . S
C652 C651 1.363 . S
C652 C658 1.428 1_455 S
H653 C649 0.930 . S
H654 C651 0.929 . S
S655 N656 1.613 . S
S655 N657 1.610 . S
N656 S655 1.613 . S
N656 C659 1.350 . S
N657 S655 1.610 . S
N657 C658 1.351 . S
C658 C652 1.428 1_655 S
C658 N657 1.351 . S
C658 C659 1.434 . S
C659 C650 1.429 . S
C659 N656 1.350 . S
C659 C658 1.434 . S
C660 C661 1.369 . S
C660 C662 1.419 . S
C660 H664 0.930 . S
C661 C660 1.369 . S
C661 C670 1.429 1_556 S
C662 C660 1.419 . S
C662 C663 1.363 1_556 S
C662 H665 0.929 . S
C663 C662 1.363 1_554 S
C663 C669 1.428 . S
H664 C660 0.930 . S
H665 C662 0.929 . S
S666 N667 1.613 . S
S666 N668 1.610 . S
N667 S666 1.613 . S
N667 C670 1.350 . S
N668 S666 1.610 . S
N668 C669 1.351 . S
C669 C663 1.428 . S
C669 N668 1.351 . S
C669 C670 1.434 . S
C670 C661 1.429 1_554 S
C670 N667 1.350 . S
C670 C669 1.434 . S
C671 C672 1.369 . S
C671 C673 1.419 . S
C671 H675 0.930 . S
C672 C671 1.369 . S
C672 C681 1.429 . S
C673 C671 1.419 . S
C673 C674 1.363 . S
C673 H676 0.929 . S
C674 C673 1.363 . S
C674 C680 1.428 . S
H675 C671 0.930 . S
H676 C673 0.929 . S
S677 N678 1.613 . S
S677 N679 1.610 . S
N678 S677 1.613 . S
N678 C681 1.350 . S
N679 S677 1.610 . S
N679 C680 1.351 . S
C680 C674 1.428 . S
C680 N679 1.351 . S
C680 C681 1.434 . S
C681 C672 1.429 . S
C681 N678 1.350 . S
C681 C680 1.434 . S
C682 C683 1.369 . S
C682 C684 1.419 . S
C682 H686 0.930 . S
C683 C682 1.369 . S
C683 C692 1.429 . S
C684 C682 1.419 . S
C684 C685 1.363 . S
C684 H687 0.929 . S
C685 C684 1.363 . S
C685 C691 1.428 . S
H686 C682 0.930 . S
H687 C684 0.929 . S
S688 N689 1.613 . S
S688 N690 1.610 . S
N689 S688 1.613 . S
N689 C692 1.350 . S
N690 S688 1.610 . S
N690 C691 1.351 . S
C691 C685 1.428 . S
C691 N690 1.351 . S
C691 C692 1.434 . S
C692 C683 1.429 . S
C692 N689 1.350 . S
C692 C691 1.434 . S
C693 C694 1.369 . S
C693 C695 1.419 . S
C693 H697 0.930 . S
C694 C693 1.369 . S
C694 C703 1.429 . S
C695 C693 1.419 . S
C695 C696 1.363 . S
C695 H698 0.929 . S
C696 C695 1.363 . S
C696 C702 1.428 . S
H697 C693 0.930 . S
H698 C695 0.929 . S
S699 N700 1.613 . S
S699 N701 1.610 . S
N700 S699 1.613 . S
N700 C703 1.350 . S
N701 S699 1.610 . S
N701 C702 1.351 . S
C702 C696 1.428 . S
C702 N701 1.351 . S
C702 C703 1.434 . S
C703 C694 1.429 . S
C703 N700 1.350 . S
C703 C702 1.434 . S
C704 C705 1.369 . S
C704 C706 1.419 . S
C704 H708 0.930 . S
C705 C704 1.369 . S
C705 C714 1.429 1_545 S
C706 C704 1.419 . S
C706 C707 1.363 1_545 S
C706 H709 0.929 . S
C707 C706 1.363 1_565 S
C707 C713 1.428 . S
H708 C704 0.930 . S
H709 C706 0.929 . S
S710 N711 1.613 . S
S710 N712 1.610 . S
N711 S710 1.613 . S
N711 C714 1.350 . S
N712 S710 1.610 . S
N712 C713 1.351 . S
C713 C707 1.428 . S
C713 N712 1.351 . S
C713 C714 1.434 . S
C714 C705 1.429 1_565 S
C714 N711 1.350 . S
C714 C713 1.434 . S
C715 C716 1.369 . S
C715 C717 1.419 . S
C715 H719 0.930 . S
C716 C715 1.369 . S
C716 C725 1.429 . S
C717 C715 1.419 . S
C717 C718 1.363 . S
C717 H720 0.929 . S
C718 C717 1.363 . S
C718 C724 1.428 . S
H719 C715 0.930 . S
H720 C717 0.929 . S
S721 N722 1.613 . S
S721 N723 1.610 . S
N722 S721 1.613 . S
N722 C725 1.350 . S
N723 S721 1.610 . S
N723 C724 1.351 . S
C724 C718 1.428 . S
C724 N723 1.351 . S
C724 C725 1.434 . S
C725 C716 1.429 . S
C725 N722 1.350 . S
C725 C724 1.434 . S
C726 C727 1.369 . S
C726 C728 1.419 . S
C726 H730 0.930 . S
C727 C726 1.369 . S
C727 C736 1.429 1_565 S
C728 C726 1.419 . S
C728 C729 1.363 1_565 S
C728 H731 0.929 . S
C729 C728 1.363 1_545 S
C729 C735 1.428 . S
H730 C726 0.930 . S
H731 C728 0.929 . S
S732 N733 1.613 . S
S732 N734 1.610 . S
N733 S732 1.613 . S
N733 C736 1.350 . S
N734 S732 1.610 . S
N734 C735 1.351 . S
C735 C729 1.428 . S
C735 N734 1.351 . S
C735 C736 1.434 . S
C736 C727 1.429 1_545 S
C736 N733 1.350 . S
C736 C735 1.434 . S
C737 C738 1.369 . S
C737 C739 1.419 . S
C737 H741 0.930 . S
C738 C737 1.369 . S
C738 C747 1.429 1_556 S
C739 C737 1.419 . S
C739 C740 1.363 1_556 S
C739 H742 0.929 . S
C740 C739 1.363 1_554 S
C740 C746 1.428 . S
H741 C737 0.930 . S
H742 C739 0.929 . S
S743 N744 1.613 . S
S743 N745 1.610 . S
N744 S743 1.613 . S
N744 C747 1.350 . S
N745 S743 1.610 . S
N745 C746 1.351 . S
C746 C740 1.428 . S
C746 N745 1.351 . S
C746 C747 1.434 . S
C747 C738 1.429 1_554 S
C747 N744 1.350 . S
C747 C746 1.434 . S
C748 C749 1.369 1_655 S
C748 C750 1.419 . S
C748 H752 0.930 . S
C749 C748 1.369 1_455 S
C749 C758 1.429 . S
C750 C748 1.419 . S
C750 C751 1.363 . S
C750 H753 0.929 . S
C751 C750 1.363 . S
C751 C757 1.428 1_655 S
H752 C748 0.930 . S
H753 C750 0.929 . S
S754 N755 1.613 . S
S754 N756 1.610 . S
N755 S754 1.613 . S
N755 C758 1.350 . S
N756 S754 1.610 . S
N756 C757 1.351 . S
C757 C751 1.428 1_455 S
C757 N756 1.351 . S
C757 C758 1.434 . S
C758 C749 1.429 . S
C758 N755 1.350 . S
C758 C757 1.434 . S
C759 C760 1.369 . S
C759 C761 1.419 . S
C759 H763 0.930 . S
C760 C759 1.369 . S
C760 C769 1.429 . S
C761 C759 1.419 . S
C761 C762 1.363 . S
C761 H764 0.929 . S
C762 C761 1.363 . S
C762 C768 1.428 . S
H763 C759 0.930 . S
H764 C761 0.929 . S
S765 N766 1.613 . S
S765 N767 1.610 . S
N766 S765 1.613 . S
N766 C769 1.350 . S
N767 S765 1.610 . S
N767 C768 1.351 . S
C768 C762 1.428 . S
C768 N767 1.351 . S
C768 C769 1.434 . S
C769 C760 1.429 . S
C769 N766 1.350 . S
C769 C768 1.434 . S
C770 C771 1.382 . S
C770 C772 1.403 1_655 S
C770 H774 0.933 . S
C771 C770 1.382 . S
C771 C780 1.429 . S
C772 C770 1.403 1_455 S
C772 C773 1.363 . S
C772 H775 0.929 . S
C773 C772 1.363 . S
C773 C779 1.428 . S
H774 C770 0.933 . S
H775 C772 0.929 . S
S776 N777 1.613 . S
S776 N778 1.610 1_655 S
N777 S776 1.613 . S
N777 C780 1.350 . S
N778 S776 1.610 1_455 S
N778 C779 1.351 . S
C779 C773 1.428 . S
C779 N778 1.351 . S
C779 C780 1.434 1_455 S
C780 C771 1.429 . S
C780 N777 1.350 . S
C780 C779 1.434 1_655 S
C781 C782 1.369 . S
C781 C783 1.419 . S
C781 H785 0.930 . S
C782 C781 1.369 . S
C782 C791 1.429 . S
C783 C781 1.419 . S
C783 C784 1.363 . S
C783 H786 0.929 . S
C784 C783 1.363 . S
C784 C790 1.428 . S
H785 C781 0.930 . S
H786 C783 0.929 . S
S787 N788 1.613 . S
S787 N789 1.610 . S
N788 S787 1.613 . S
N788 C791 1.350 . S
N789 S787 1.610 . S
N789 C790 1.351 . S
C790 C784 1.428 . S
C790 N789 1.351 . S
C790 C791 1.434 . S
C791 C782 1.429 . S
C791 N788 1.350 . S
C791 C790 1.434 . S
C792 C793 1.369 . S
C792 C794 1.419 1_545 S
C792 H796 0.930 . S
C793 C792 1.369 . S
C793 C802 1.429 1_545 S
C794 C792 1.419 1_565 S
C794 C795 1.363 . S
C794 H797 0.929 . S
C795 C794 1.363 . S
C795 C801 1.428 . S
H796 C792 0.930 . S
H797 C794 0.929 . S
S798 N799 1.613 . S
S798 N800 1.610 . S
N799 S798 1.613 . S
N799 C802 1.350 . S
N800 S798 1.610 . S
N800 C801 1.351 . S
C801 C795 1.428 . S
C801 N800 1.351 . S
C801 C802 1.434 . S
C802 C793 1.429 1_565 S
C802 N799 1.350 . S
C802 C801 1.434 . S
C803 C804 1.369 . S
C803 C805 1.419 . S
C803 H807 0.930 . S
C804 C803 1.369 . S
C804 C813 1.429 . S
C805 C803 1.419 . S
C805 C806 1.363 . S
C805 H808 0.929 . S
C806 C805 1.363 . S
C806 C812 1.428 . S
H807 C803 0.930 . S
H808 C805 0.929 . S
S809 N810 1.613 . S
S809 N811 1.610 . S
N810 S809 1.613 . S
N810 C813 1.350 . S
N811 S809 1.610 . S
N811 C812 1.351 . S
C812 C806 1.428 . S
C812 N811 1.351 . S
C812 C813 1.434 . S
C813 C804 1.429 . S
C813 N810 1.350 . S
C813 C812 1.434 . S
C814 C815 1.369 . S
C814 C816 1.419 1_545 S
C814 H818 0.930 . S
C815 C814 1.369 . S
C815 C824 1.429 . S
C816 C814 1.419 1_565 S
C816 C817 1.363 . S
C816 H819 0.929 . S
C817 C816 1.363 . S
C817 C823 1.428 . S
H818 C814 0.930 . S
H819 C816 0.929 . S
S820 N821 1.613 . S
S820 N822 1.597 1_545 S
N821 S820 1.613 . S
N821 C824 1.350 . S
N822 S820 1.597 1_565 S
N822 C823 1.352 . S
C823 C817 1.428 . S
C823 N822 1.352 . S
C823 C824 1.434 1_565 S
C824 C815 1.429 . S
C824 N821 1.350 . S
C824 C823 1.434 1_545 S
C825 C826 1.369 . S
C825 C827 1.432 . S
C825 H829 0.930 . S
C826 C825 1.369 . S
C826 C835 1.429 1_554 S
C827 C825 1.432 . S
C827 C828 1.343 1_554 S
C827 H830 0.936 . S
C828 C827 1.343 1_556 S
C828 C834 1.428 . S
H829 C825 0.930 . S
H830 C827 0.936 . S
S831 N832 1.613 . S
S831 N833 1.610 . S
N832 S831 1.613 . S
N832 C835 1.350 . S
N833 S831 1.610 . S
N833 C834 1.351 . S
C834 C828 1.428 . S
C834 N833 1.351 . S
C834 C835 1.434 . S
C835 C826 1.429 1_556 S
C835 N832 1.350 . S
C835 C834 1.434 . S
C836 C837 1.390 . S
C836 C838 1.400 1_455 S
C836 H840 0.929 1_455 S
C837 C836 1.390 . S
C837 C846 1.429 . S
C838 C836 1.400 1_655 S
C838 C839 1.363 . S
C838 H841 0.929 . S
C839 C838 1.363 . S
C839 C845 1.428 1_655 S
H840 C836 0.929 1_655 S
H841 C838 0.929 . S
S842 N843 1.613 . S
S842 N844 1.610 . S
N843 S842 1.613 . S
N843 C846 1.350 . S
N844 S842 1.610 . S
N844 C845 1.351 . S
C845 C839 1.428 1_455 S
C845 N844 1.351 . S
C845 C846 1.434 . S
C846 C837 1.429 . S
C846 N843 1.350 . S
C846 C845 1.434 . S
C847 C848 1.369 . S
C847 C849 1.419 . S
C847 H851 0.930 . S
C848 C847 1.369 . S
C848 C857 1.429 . S
C849 C847 1.419 . S
C849 C850 1.363 . S
C849 H852 0.929 . S
C850 C849 1.363 . S
C850 C856 1.428 . S
H851 C847 0.930 . S
H852 C849 0.929 . S
S853 N854 1.613 . S
S853 N855 1.610 . S
N854 S853 1.613 . S
N854 C857 1.350 . S
N855 S853 1.610 . S
N855 C856 1.351 . S
C856 C850 1.428 . S
C856 N855 1.351 . S
C856 C857 1.434 . S
C857 C848 1.429 . S
C857 N854 1.350 . S
C857 C856 1.434 . S
C858 C859 1.369 1_455 S
C858 C860 1.419 . S
C858 H862 0.930 . S
C859 C858 1.369 1_655 S
C859 C868 1.429 . S
C860 C858 1.419 . S
C860 C861 1.363 . S
C860 H863 0.929 . S
C861 C860 1.363 . S
C861 C867 1.428 . S
H862 C858 0.930 . S
H863 C860 0.929 . S
S864 N865 1.613 . S
S864 N866 1.610 1_655 S
N865 S864 1.613 . S
N865 C868 1.350 . S
N866 S864 1.610 1_455 S
N866 C867 1.351 . S
C867 C861 1.428 . S
C867 N866 1.351 . S
C867 C868 1.434 1_455 S
C868 C859 1.429 . S
C868 N865 1.350 . S
C868 C867 1.434 1_655 S
C869 C870 1.369 . S
C869 C871 1.419 . S
C869 H873 0.930 . S
C870 C869 1.369 . S
C870 C879 1.429 . S
C871 C869 1.419 . S
C871 C872 1.363 . S
C871 H874 0.929 . S
C872 C871 1.363 . S
C872 C878 1.428 . S
H873 C869 0.930 . S
H874 C871 0.929 . S
S875 N876 1.613 . S
S875 N877 1.610 . S
N876 S875 1.613 . S
N876 C879 1.350 . S
N877 S875 1.610 . S
N877 C878 1.351 . S
C878 C872 1.428 . S
C878 N877 1.351 . S
C878 C879 1.434 . S
C879 C870 1.429 . S
C879 N876 1.350 . S
C879 C878 1.434 . S
C880 C881 1.369 . S
C880 C882 1.419 . S
C880 H884 0.930 . S
C881 C880 1.369 . S
C881 C890 1.429 . S
C882 C880 1.419 . S
C882 C883 1.363 . S
C882 H885 0.929 . S
C883 C882 1.363 . S
C883 C889 1.428 . S
H884 C880 0.930 . S
H885 C882 0.929 . S
S886 N887 1.613 . S
S886 N888 1.610 . S
N887 S886 1.613 . S
N887 C890 1.350 . S
N888 S886 1.610 . S
N888 C889 1.351 . S
C889 C883 1.428 . S
C889 N888 1.351 . S
C889 C890 1.434 . S
C890 C881 1.429 . S
C890 N887 1.350 . S
C890 C889 1.434 . S
C891 C892 1.369 . S
C891 C893 1.419 1_556 S
C891 H895 0.930 . S
C892 C891 1.369 . S
C892 C901 1.429 . S
C893 C891 1.419 1_554 S
C893 C894 1.363 . S
C893 H896 0.929 . S
C894 C893 1.363 . S
C894 C900 1.428 1_554 S
H895 C891 0.930 . S
H896 C893 0.929 . S
S897 N898 1.613 . S
S897 N899 1.610 . S
N898 S897 1.613 . S
N898 C901 1.350 . S
N899 S897 1.610 . S
N899 C900 1.351 . S
C900 C894 1.428 1_556 S
C900 N899 1.351 . S
C900 C901 1.434 . S
C901 C892 1.429 . S
C901 N898 1.350 . S
C901 C900 1.434 . S
C902 C903 1.369 . S
C902 C904 1.419 . S
C902 H906 0.930 . S
C903 C902 1.369 . S
C903 C912 1.429 . S
C904 C902 1.419 . S
C904 C905 1.363 . S
C904 H907 0.929 . S
C905 C904 1.363 . S
C905 C911 1.428 . S
H906 C902 0.930 . S
H907 C904 0.929 . S
S908 N909 1.613 . S
S908 N910 1.610 . S
N909 S908 1.613 . S
N909 C912 1.350 . S
N910 S908 1.610 . S
N910 C911 1.351 . S
C911 C905 1.428 . S
C911 N910 1.351 . S
C911 C912 1.434 . S
C912 C903 1.429 . S
C912 N909 1.350 . S
C912 C911 1.434 . S
C913 C914 1.369 . S
C913 C915 1.419 . S
C913 H917 0.930 . S
C914 C913 1.369 . S
C914 C923 1.429 . S
C915 C913 1.419 . S
C915 C916 1.363 . S
C915 H918 0.929 . S
C916 C915 1.363 . S
C916 C922 1.428 . S
H917 C913 0.930 . S
H918 C915 0.929 . S
S919 N920 1.613 . S
S919 N921 1.610 . S
N920 S919 1.613 . S
N920 C923 1.350 . S
N921 S919 1.610 . S
N921 C922 1.351 . S
C922 C916 1.428 . S
C922 N921 1.351 . S
C922 C923 1.434 . S
C923 C914 1.429 . S
C923 N920 1.350 . S
C923 C922 1.434 . S
C924 C925 1.369 . S
C924 C926 1.419 . S
C924 H928 0.930 . S
C925 C924 1.369 . S
C925 C934 1.429 . S
C926 C924 1.419 . S
C926 C927 1.363 . S
C926 H929 0.929 . S
C927 C926 1.363 . S
C927 C933 1.428 . S
H928 C924 0.930 . S
H929 C926 0.929 . S
S930 N931 1.613 . S
S930 N932 1.610 . S
N931 S930 1.613 . S
N931 C934 1.350 . S
N932 S930 1.610 . S
N932 C933 1.351 . S
C933 C927 1.428 . S
C933 N932 1.351 . S
C933 C934 1.434 . S
C934 C925 1.429 . S
C934 N931 1.350 . S
C934 C933 1.434 . S
C935 C936 1.369 1_554 S
C935 C937 1.419 . S
C935 H939 0.930 . S
C936 C935 1.369 1_556 S
C936 C945 1.429 . S
C937 C935 1.419 . S
C937 C938 1.363 . S
C937 H940 0.929 . S
C938 C937 1.363 . S
C938 C944 1.428 1_554 S
H939 C935 0.930 . S
H940 C937 0.929 . S
S941 N942 1.613 . S
S941 N943 1.610 . S
N942 S941 1.613 . S
N942 C945 1.350 . S
N943 S941 1.610 . S
N943 C944 1.351 . S
C944 C938 1.428 1_556 S
C944 N943 1.351 . S
C944 C945 1.434 . S
C945 C936 1.429 . S
C945 N942 1.350 . S
C945 C944 1.434 . S
C946 C947 1.369 . S
C946 C948 1.419 . S
C946 H950 0.930 . S
C947 C946 1.369 . S
C947 C956 1.429 . S
C948 C946 1.419 . S
C948 C949 1.363 . S
C948 H951 0.929 . S
C949 C948 1.363 . S
C949 C955 1.428 . S
H950 C946 0.930 . S
H951 C948 0.929 . S
S952 N953 1.613 . S
S952 N954 1.610 . S
N953 S952 1.613 . S
N953 C956 1.350 . S
N954 S952 1.610 . S
N954 C955 1.351 . S
C955 C949 1.428 . S
C955 N954 1.351 . S
C955 C956 1.434 . S
C956 C947 1.429 . S
C956 N953 1.350 . S
C956 C955 1.434 . S
C957 C958 1.369 . S
C957 C959 1.419 . S
C957 H961 0.930 . S
C958 C957 1.369 . S
C958 C967 1.429 . S
C959 C957 1.419 . S
C959 C960 1.363 . S
C959 H962 0.929 . S
C960 C959 1.363 . S
C960 C966 1.428 . S
H961 C957 0.930 . S
H962 C959 0.929 . S
S963 N964 1.613 . S
S963 N965 1.610 . S
N964 S963 1.613 . S
N964 C967 1.350 . S
N965 S963 1.610 . S
N965 C966 1.351 . S
C966 C960 1.428 . S
C966 N965 1.351 . S
C966 C967 1.434 . S
C967 C958 1.429 . S
C967 N964 1.350 . S
C967 C966 1.434 . S
C529 N5 1.397 . S
C531 N509 1.382 . S
C540 N278 1.937 . S
C542 N38 1.931 1_545 S
C551 N410 1.647 . S
C553 N71 1.649 . S
C562 N113 1.957 . S
C564 N344 1.956 . S
C573 N368 1.913 . S
C575 N47 1.919 . S
C584 N80 1.788 . S
C586 N311 1.774 . S
C595 N104 1.812 . S
C597 N434 1.815 . S
C606 N14 1.393 . S
C608 N236 1.397 . S
C617 N269 1.985 . S
C619 N146 2.009 . S
C628 N401 1.647 . S
C630 N179 1.647 . S
C639 N203 1.850 . S
C641 N335 1.851 . S
C650 N212 1.867 . S
C652 N443 1.855 . S
C661 N137 1.859 . S
C663 N377 1.871 . S
C672 N476 1.439 . S
C674 N245 1.422 . S
C683 N302 1.717 . S
C685 N170 1.718 . S
C694 N500 1.349 . S
C696 N467 1.357 . S
C705 C17 1.083 . S
C707 C61 1.087 . S
C716 C41 1.437 . S
C718 C74 1.441 . S
C727 C83 1.314 . S
C729 C107 1.310 . S
C738 C127 1.592 . S
C740 C8 1.586 . S
C749 C28 1.127 . S
C751 C193 1.122 . S
C760 C149 1.006 . S
C762 C116 1.009 . S
C771 C215 0.719 . S
C773 C50 0.724 . S
C782 C490 1.084 . S
C784 C94 1.088 . S
C793 C281 1.112 . S
C795 C239 1.112 . S
C804 C292 1.507 . S
C806 C305 1.509 . S
C815 C325 1.405 . S
C817 C338 1.406 . S
C826 C347 0.916 . S
C828 C259 0.908 . S
C837 C413 0.818 . S
C839 C248 0.818 . S
C848 C371 1.398 . S
C850 C358 1.400 . S
C859 C272 1.454 . S
C861 C457 1.456 . S
C870 C512 0.996 . S
C872 C314 0.996 . S
C881 C160 1.512 . S
C883 C470 1.499 . S
C892 C140 1.581 . S
C894 C173 1.588 . S
C903 C182 1.136 . S
C905 C206 1.133 . S
C914 C479 1.128 . S
C916 C226 1.132 . S
C925 C380 0.992 . S
C927 C503 0.990 . S
C936 C424 1.464 . S
C938 C391 1.458 . S
C947 C404 1.424 . S
C949 C437 1.425 . S
C958 C523 0.845 . S
C960 C446 0.844 . S
