# Generated by pormake.
# Topology sqp, (5)-cn, num edge types: 1
# Building blocks:
#     Node 0, Type 0, BuildingBlock: XOMCOT_clean_sbu_0, # of connection points: 5
#     Node 1, Type 0, BuildingBlock: XOMCOT_clean_sbu_0, # of connection points: 5
#     Node 2, Type 0, BuildingBlock: XOMCOT_clean_sbu_0, # of connection points: 5
#     Node 3, Type 0, BuildingBlock: XOMCOT_clean_sbu_0, # of connection points: 5
#     Edge 4, Type (0, 0), BuildingBlock: XIVTED_clean_linker_0, # of connection points: 2
#     Edge 5, Type (0, 0), BuildingBlock: XIVTED_clean_linker_0, # of connection points: 2
#     Edge 6, Type (0, 0), BuildingBlock: XIVTED_clean_linker_0, # of connection points: 2
#     Edge 7, Type (0, 0), BuildingBlock: XIVTED_clean_linker_0, # of connection points: 2
#     Edge 8, Type (0, 0), BuildingBlock: XIVTED_clean_linker_0, # of connection points: 2
#     Edge 9, Type (0, 0), BuildingBlock: XIVTED_clean_linker_0, # of connection points: 2
#     Edge 10, Type (0, 0), BuildingBlock: XIVTED_clean_linker_0, # of connection points: 2
#     Edge 11, Type (0, 0), BuildingBlock: XIVTED_clean_linker_0, # of connection points: 2
#     Edge 12, Type (0, 0), BuildingBlock: XIVTED_clean_linker_0, # of connection points: 2
#     Edge 13, Type (0, 0), BuildingBlock: XIVTED_clean_linker_0, # of connection points: 2
# Relax obj value: 0.120
# Max RMSD: 0.201
# Mean RMSD: 0.201
data_MOF--net-sqp--node1-XOMCOT_clean_sbu_0--edge1-XIVTED_clean_linker_0
_symmetry_space_group_name_H-M    P1
_symmetry_Int_Tables_number       1
_symmetry_cell_setting            triclinic
loop_
_symmetry_equiv_pos_as_xyz
'x, y, z'
_cell_length_a     24.477795
_cell_length_b     19.436036
_cell_length_c     47.669302
_cell_angle_alpha  90.427837
_cell_angle_beta   89.212019
_cell_angle_gamma 89.673522
loop_
_atom_site_label
_atom_site_type_symbol
_atom_site_fract_x
_atom_site_fract_y
_atom_site_fract_z
_atom_type_partial_charge
Co0 Co 0.01302 1.01043 0.30154 0.0
C1 C 0.91852 0.11045 0.29946 0.0
C2 C 0.98386 0.13587 0.27114 0.0
C3 C 0.94319 0.18401 0.26832 0.0
N4 N 0.96989 0.09127 0.29162 0.0
N5 N 0.90242 0.16802 0.28616 0.0
H6 H 0.8921 0.08167 0.3133 0.0
H7 H 0.02021 0.13227 0.25809 0.0
C8 C 0.09824 0.11895 0.2965 0.0
O9 O 0.06762 0.15716 0.31338 0.0
N10 N 0.05624 0.93009 0.30986 0.0
C11 C 0.04755 0.88372 0.33026 0.0
C12 C 0.08671 0.83266 0.32769 0.0
C13 C 0.1002 0.90702 0.29521 0.0
N14 N 0.11977 0.84759 0.30567 0.0
C15 C 0.97493 0.04794 0.35663 0.0
C16 C 0.07609 0.06027 0.38101 0.0
C17 C 0.02905 0.06924 0.39789 0.0
C18 C 0.97801 0.06265 0.38521 0.0
C19 C 0.07108 0.04461 0.35248 0.0
N20 N 0.02087 0.0411 0.34033 0.0
H21 H 0.93536 0.03802 0.34811 0.0
H22 H 0.10772 0.0336 0.34034 0.0
H23 H 0.01473 0.88649 0.34566 0.0
H24 H 0.11637 0.93206 0.27669 0.0
O25 O 0.94772 0.9575 0.30665 0.0
O26 O 0.99225 0.96831 0.2661 0.0
O27 O 0.08228 0.0589 0.28925 0.0
C28 C 0.95155 0.94172 0.28021 0.0
H29 H 0.94216 0.22531 0.25321 0.0
H30 H 0.09044 0.78794 0.34093 0.0
H31 H 0.11655 0.06397 0.38976 0.0
H32 H 0.94045 0.0654 0.39743 0.0
Co33 Co 0.02907 1.00181 0.70476 0.0
C34 C 0.12623 0.09386 0.70946 0.0
C35 C 0.05118 0.15064 0.70655 0.0
C36 C 0.09346 0.19661 0.70762 0.0
N37 N 0.07147 0.08596 0.70752 0.0
N38 N 0.14054 0.16097 0.70948 0.0
H39 H 0.15522 0.05183 0.71063 0.0
H40 H 1.00854 0.16434 0.70516 0.0
C41 C 0.91158 0.04829 0.70793 0.0
O42 O 0.89967 1.00322 0.6883 0.0
N43 N 0.98665 0.91762 0.70242 0.0
C44 C 0.99143 0.86557 0.68369 0.0
C45 C 0.95547 0.81451 0.69099 0.0
C46 C 0.94904 0.89613 0.72139 0.0
N47 N 0.9283 0.83385 0.71461 0.0
C48 C 0.05405 0.98253 0.64659 0.0
C49 C 0.99184 0.08874 0.6257 0.0
C50 C 0.02496 0.05015 0.60712 0.0
C51 C 0.05573 0.99593 0.61799 0.0
C52 C 0.99093 0.07307 0.65435 0.0
N53 N 0.02111 0.01949 0.66458 0.0
H54 H 0.08061 0.94262 0.65411 0.0
H55 H 0.9675 0.10631 0.6681 0.0
H56 H 0.01971 0.86298 0.66623 0.0
H57 H 0.93665 0.92647 0.73951 0.0
O58 O 0.09454 0.94655 0.7027 0.0
O59 O 0.05136 0.97513 0.74227 0.0
O60 O 0.96093 0.05557 0.71587 0.0
C61 C 0.09099 0.94146 0.72975 0.0
H62 H 0.08974 0.25215 0.70782 0.0
H63 H 0.95063 0.76637 0.67981 0.0
H64 H 0.96828 0.13221 0.61838 0.0
H65 H 0.08157 0.96403 0.60457 0.0
Co66 Co 0.51217 0.4996 0.79818 0.0
C67 C 0.41853 0.60048 0.79536 0.0
C68 C 0.49063 0.63732 0.77471 0.0
C69 C 0.45046 0.68629 0.77231 0.0
N70 N 0.47188 0.58457 0.79041 0.0
N71 N 0.40529 0.66314 0.78534 0.0
H72 H 0.38919 0.56632 0.80499 0.0
H73 H 0.52982 0.6392 0.76413 0.0
C74 C 0.60319 0.60186 0.79989 0.0
O75 O 0.57489 0.63628 0.81902 0.0
N76 N 0.55236 0.41534 0.80429 0.0
C77 C 0.53877 0.36328 0.8215 0.0
C78 C 0.57508 0.30968 0.81688 0.0
C79 C 0.59648 0.39309 0.78954 0.0
N80 N 0.61128 0.32874 0.79683 0.0
C81 C 0.47032 0.53348 0.85285 0.0
C82 C 0.56762 0.52189 0.88117 0.0
C83 C 0.51928 0.53501 0.89649 0.0
C84 C 0.47039 0.54154 0.88186 0.0
C85 C 0.5657 0.51422 0.85196 0.0
N86 N 0.5175 0.52151 0.83803 0.0
H87 H 0.4316 0.53339 0.84263 0.0
H88 H 0.60278 0.50065 0.84059 0.0
H89 H 0.50408 0.36362 0.8358 0.0
H90 H 0.61585 0.42217 0.77292 0.0
O91 O 0.44542 0.44881 0.80034 0.0
O92 O 0.4931 0.46571 0.76105 0.0
O93 O 0.58367 0.54693 0.78905 0.0
C94 C 0.45126 0.43737 0.77362 0.0
H95 H 0.45314 0.73348 0.76045 0.0
H96 H 0.57457 0.26031 0.82723 0.0
H97 H 0.60613 0.5148 0.89171 0.0
H98 H 0.432 0.55122 0.8928 0.0
Co99 Co 0.52751 0.50797 0.20504 0.0
C100 C 0.62099 0.60242 0.21694 0.0
C101 C 0.55204 0.65401 0.19915 0.0
C102 C 0.59328 0.70098 0.20237 0.0
N103 N 0.56932 0.59212 0.20818 0.0
N104 N 0.63655 0.66853 0.21353 0.0
H105 H 0.64732 0.56253 0.22497 0.0
H106 H 0.5124 0.66404 0.19026 0.0
C107 C 0.40877 0.54856 0.21718 0.0
O108 O 0.39122 0.4926 0.20477 0.0
N109 N 0.48628 0.42349 0.20182 0.0
C110 C 0.47885 0.38385 0.17889 0.0
C111 C 0.44432 0.3307 0.18596 0.0
C112 C 0.45876 0.39198 0.22274 0.0
N113 N 0.43102 0.33661 0.21346 0.0
C114 C 0.56624 0.52732 0.1496 0.0
C115 C 0.46788 0.54962 0.1235 0.0
C116 C 0.51596 0.5471 0.10715 0.0
C117 C 0.56565 0.53678 0.12069 0.0
C118 C 0.47032 0.54015 0.15253 0.0
N119 N 0.51903 0.52747 0.16521 0.0
H120 H 0.60514 0.51948 0.15951 0.0
H121 H 0.43283 0.54232 0.16425 0.0
H122 H 0.49578 0.39383 0.15826 0.0
H123 H 0.45626 0.4122 0.24393 0.0
O124 O 0.59264 0.45246 0.20176 0.0
O125 O 0.55106 0.47928 0.24205 0.0
O126 O 0.45982 0.56329 0.21715 0.0
C127 C 0.5899 0.44569 0.22881 0.0
H128 H 0.59143 0.75502 0.1971 0.0
H129 H 0.4278 0.29315 0.17155 0.0
H130 H 0.42862 0.5587 0.11395 0.0
H131 H 0.60386 0.53403 0.10899 0.0
H132 H 0.96047 0.14498 0.43274 0.0
H133 H 0.11577 0.04521 0.57281 0.0
H134 H 0.10527 0.01678 0.43403 0.0
H135 H 0.94321 0.09275 0.57189 0.0
H136 H 0.11978 0.05942 0.52208 0.0
H137 H 0.96115 0.14994 0.484 0.0
C138 C 0.99253 0.11804 0.44367 0.0
C139 C 0.03254 0.07967 0.42883 0.0
C140 C 0.08111 0.06704 0.53303 0.0
C141 C 0.03407 0.08683 0.48752 0.0
C142 C 0.07862 0.05854 0.56199 0.0
C143 C 0.02873 0.06622 0.57668 0.0
C144 C 0.03361 0.08426 0.51853 0.0
C145 C 0.98251 0.08617 0.56152 0.0
C146 C 0.99293 0.12127 0.47294 0.0
C147 C 0.07386 0.0476 0.44431 0.0
N148 N 0.98598 0.09409 0.53321 0.0
N149 N 0.07341 0.05174 0.47276 0.0
H150 H 0.58697 0.61513 0.07202 0.0
H151 H 0.44501 0.47732 0.93241 0.0
H152 H 0.44219 0.48938 0.07142 0.0
H153 H 0.59215 0.59864 0.93153 0.0
H154 H 0.4422 0.48487 0.98339 0.0
H155 H 0.58813 0.61378 0.02072 0.0
C156 C 0.55536 0.58733 0.06111 0.0
C157 C 0.51454 0.55201 0.07609 0.0
C158 C 0.47509 0.51003 0.97212 0.0
C159 C 0.51555 0.55052 0.01736 0.0
C160 C 0.47659 0.50603 0.94295 0.0
C161 C 0.51864 0.53796 0.92763 0.0
C162 C 0.516 0.54612 0.98626 0.0
C163 C 0.55915 0.573 0.94251 0.0
C164 C 0.55599 0.58675 0.03182 0.0
C165 C 0.47411 0.51789 0.06082 0.0
N166 N 0.55677 0.5763 0.97103 0.0
N167 N 0.47582 0.51773 0.03233 0.0
H168 H 0.17086 0.0581 0.25925 0.0
H169 H 0.36864 0.38461 0.25705 0.0
H170 H 0.14494 0.2426 0.3088 0.0
H171 H 0.39323 0.20757 0.20303 0.0
H172 H 0.29105 0.32794 0.2789 0.0
H173 H 0.25582 0.10721 0.24066 0.0
C174 C 0.18303 0.10881 0.26627 0.0
C175 C 0.15049 0.14647 0.28549 0.0
C176 C 0.31356 0.3011 0.2624 0.0
C177 C 0.24766 0.20274 0.26439 0.0
C178 C 0.35844 0.33327 0.25005 0.0
C179 C 0.38789 0.30081 0.22813 0.0
C180 C 0.29755 0.23588 0.25282 0.0
C181 C 0.37147 0.23478 0.21964 0.0
C182 C 0.23155 0.13677 0.25566 0.0
C183 C 0.16845 0.21177 0.29392 0.0
N184 N 0.32727 0.20457 0.23192 0.0
N185 N 0.21566 0.23778 0.28328 0.0
H186 H 0.88154 0.29817 0.30227 0.0
H187 H 0.62431 0.32143 0.21013 0.0
H188 H 0.80622 0.11471 0.2704 0.0
H189 H 0.6415 0.46368 0.2792 0.0
H190 H 0.69303 0.24648 0.23093 0.0
H191 H 0.79625 0.36229 0.29432 0.0
C192 C 0.84628 0.27131 0.2943 0.0
C193 C 0.85014 0.20143 0.28714 0.0
C194 C 0.68126 0.29354 0.24179 0.0
C195 C 0.75393 0.27408 0.27705 0.0
C196 C 0.64243 0.3365 0.22984 0.0
C197 C 0.62772 0.39873 0.24297 0.0
C198 C 0.70681 0.31397 0.26662 0.0
C199 C 0.65192 0.4159 0.26854 0.0
C200 C 0.79787 0.30764 0.28976 0.0
C201 C 0.80415 0.16848 0.27643 0.0
N202 N 0.69132 0.3743 0.27932 0.0
N203 N 0.75814 0.20546 0.27112 0.0
H204 H 0.7018 0.63518 0.2569 0.0
H205 H 0.92127 0.93011 0.22492 0.0
H206 H 0.68847 0.77222 0.18658 0.0
H207 H 0.89068 0.84616 0.30713 0.0
H208 H 0.84868 0.85606 0.20623 0.0
H209 H 0.7849 0.6952 0.27111 0.0
C210 C 0.71679 0.6773 0.24427 0.0
C211 C 0.68795 0.69929 0.22073 0.0
C212 C 0.85831 0.8537 0.22831 0.0
C213 C 0.78279 0.76807 0.23678 0.0
C214 C 0.89973 0.89562 0.23891 0.0
C215 C 0.9115 0.89459 0.26761 0.0
C216 C 0.8295 0.80977 0.2465 0.0
C217 C 0.88241 0.84911 0.28491 0.0
C218 C 0.76395 0.71178 0.25245 0.0
C219 C 0.70902 0.75448 0.20516 0.0
N220 N 0.84285 0.80856 0.2741 0.0
N221 N 0.75512 0.78712 0.21347 0.0
H222 H 0.21123 0.89261 0.27873 0.0
H223 H 0.30685 0.51422 0.23505 0.0
H224 H 0.12998 0.70879 0.30686 0.0
H225 H 0.41779 0.6859 0.23171 0.0
H226 H 0.23859 0.5878 0.25786 0.0
H227 H 0.28458 0.82093 0.2581 0.0
C228 C 0.20885 0.83722 0.28057 0.0
C229 C 0.16436 0.80656 0.29448 0.0
C230 C 0.27786 0.60952 0.25224 0.0
C231 C 0.24779 0.72454 0.27091 0.0
C232 C 0.31684 0.56762 0.23903 0.0
C233 C 0.36807 0.59406 0.23131 0.0
C234 C 0.28962 0.67892 0.25754 0.0
C235 C 0.3788 0.66348 0.23734 0.0
C236 C 0.25083 0.79646 0.26896 0.0
C237 C 0.16364 0.73463 0.29655 0.0
N238 N 0.33966 0.70381 0.24992 0.0
N239 N 0.20442 0.69612 0.2847 0.0
H240 H 0.3083 0.60735 0.77141 0.0
H241 H 0.1461 0.96643 0.77857 0.0
H242 H 0.38398 0.79563 0.79827 0.0
H243 H 0.12175 0.81336 0.71414 0.0
H244 H 0.21779 0.89261 0.79876 0.0
H245 H 0.22282 0.67141 0.76353 0.0
C246 C 0.3063 0.66179 0.77632 0.0
C247 C 0.35288 0.69669 0.78529 0.0
C248 C 0.19594 0.87497 0.78048 0.0
C249 C 0.25611 0.76969 0.77661 0.0
C250 C 0.15513 0.91675 0.7691 0.0
C251 C 0.1287 0.8958 0.74464 0.0
C252 C 0.20891 0.81147 0.76762 0.0
C253 C 0.14183 0.83137 0.7329 0.0
C254 C 0.2579 0.69829 0.7717 0.0
C255 C 0.34875 0.76739 0.79112 0.0
N256 N 0.18102 0.7914 0.7445 0.0
N257 N 0.30123 0.80179 0.78659 0.0
H258 H 0.2214 0.11288 0.74234 0.0
H259 H 0.41414 0.44049 0.71925 0.0
H260 H 0.18063 0.27635 0.6856 0.0
H261 H 0.40364 0.32564 0.79617 0.0
H262 H 0.34452 0.3641 0.69891 0.0
H263 H 0.30595 0.17333 0.754 0.0
C264 C 0.23087 0.16075 0.73192 0.0
C265 C 0.19384 0.1902 0.71327 0.0
C266 C 0.35811 0.35544 0.72012 0.0
C267 C 0.29001 0.25949 0.72644 0.0
C268 C 0.39774 0.39871 0.73164 0.0
C269 C 0.41386 0.38966 0.75947 0.0
C270 C 0.33585 0.30215 0.73644 0.0
C271 C 0.39157 0.33491 0.77474 0.0
C272 C 0.2788 0.19543 0.73869 0.0
C273 C 0.20783 0.25265 0.70045 0.0
N274 N 0.35376 0.29328 0.76305 0.0
N275 N 0.25469 0.28553 0.70738 0.0
H276 H 0.92158 0.17113 0.73595 0.0
H277 H 0.61071 0.19139 0.78675 0.0
H278 H 0.8018 0.02287 0.7096 0.0
H279 H 0.71031 0.37247 0.77854 0.0
H280 H 0.68428 0.12277 0.76477 0.0
H281 H 0.84826 0.2403 0.75774 0.0
C282 C 0.87989 0.15313 0.73474 0.0
C283 C 0.86773 0.09128 0.72082 0.0
C284 C 0.68997 0.17753 0.76778 0.0
C285 C 0.78394 0.16958 0.74607 0.0
C286 C 0.64825 0.21652 0.78049 0.0
C287 C 0.65455 0.28762 0.78445 0.0
C288 C 0.73876 0.20964 0.75946 0.0
C289 C 0.70377 0.31788 0.77565 0.0
C290 C 0.83811 0.19272 0.7471 0.0
C291 C 0.81294 0.07047 0.71992 0.0
N292 N 0.74419 0.27866 0.76375 0.0
N293 N 0.77311 0.10926 0.73256 0.0
H294 H 0.66555 0.55585 0.75525 0.0
H295 H 0.88548 0.85765 0.76718 0.0
H296 H 0.65879 0.71402 0.81931 0.0
H297 H 0.86997 0.72524 0.69448 0.0
H298 H 0.80903 0.79805 0.78926 0.0
H299 H 0.74776 0.60909 0.7357 0.0
C300 C 0.68148 0.60153 0.76531 0.0
C301 C 0.65494 0.63079 0.78884 0.0
C302 C 0.82263 0.78202 0.76849 0.0
C303 C 0.74912 0.69199 0.76656 0.0
C304 C 0.86632 0.81629 0.75574 0.0
C305 C 0.88468 0.79709 0.72869 0.0
C306 C 0.7971 0.72779 0.75425 0.0
C307 C 0.85818 0.74195 0.71536 0.0
C308 C 0.72836 0.63202 0.75409 0.0
C309 C 0.67764 0.68993 0.80103 0.0
N310 N 0.81585 0.70948 0.72824 0.0
N311 N 0.72332 0.71866 0.78972 0.0
loop_
_geom_bond_atom_site_label_1
_geom_bond_atom_site_label_2
_geom_bond_distance
_geom_bond_site_symmetry_2
_ccdc_geom_bond_type
Co0 N4 2.148 1_465 S
Co0 N10 2.128 . S
Co0 N20 2.194 1_565 S
Co0 O25 2.351 1_455 S
Co0 O26 2.155 1_455 S
Co0 O27 2.096 1_565 S
C1 N4 1.301 . S
C1 N5 1.328 . S
C1 H6 0.930 . S
C2 C3 1.333 . S
C2 N4 1.317 . S
C2 H7 0.930 . S
C3 C2 1.333 . S
C3 N5 1.350 . S
C3 H29 0.931 . S
N4 Co0 2.148 1_645 S
N4 C1 1.301 . S
N4 C2 1.317 . S
N5 C1 1.328 . S
N5 C3 1.350 . S
H6 C1 0.930 . S
H7 C2 0.930 . S
C8 O9 1.224 . S
C8 O27 1.247 . S
O9 C8 1.224 . S
N10 Co0 2.128 . S
N10 C11 1.355 . S
N10 C13 1.311 . S
C11 N10 1.355 . S
C11 C12 1.363 . S
C11 H23 0.929 . S
C12 C11 1.363 . S
C12 N14 1.375 . S
C12 H30 0.931 . S
C13 N10 1.311 . S
C13 N14 1.347 . S
C13 H24 0.929 . S
N14 C12 1.375 . S
N14 C13 1.347 . S
C15 C18 1.365 . S
C15 N20 1.328 1_665 S
C15 H21 0.929 . S
C16 C17 1.362 . S
C16 C19 1.378 . S
C16 H31 0.929 . S
C17 C16 1.362 . S
C17 C18 1.366 1_445 S
C18 C15 1.365 . S
C18 C17 1.366 1_665 S
C18 H32 0.930 . S
C19 C16 1.378 . S
C19 N20 1.315 . S
C19 H22 0.930 . S
N20 Co0 2.194 1_545 S
N20 C15 1.328 1_445 S
N20 C19 1.315 . S
H21 C15 0.929 . S
H22 C19 0.930 . S
H23 C11 0.929 . S
H24 C13 0.929 . S
O25 Co0 2.351 1_655 S
O25 C28 1.244 . S
O26 Co0 2.155 1_655 S
O26 C28 1.240 . S
O27 Co0 2.096 1_545 S
O27 C8 1.247 . S
C28 O25 1.244 . S
C28 O26 1.240 . S
H29 C3 0.931 . S
H30 C12 0.931 . S
H31 C16 0.929 . S
H32 C18 0.930 . S
Co33 N37 2.148 1_565 S
Co33 N43 2.128 1_455 S
Co33 N53 2.194 1_565 S
Co33 O58 2.351 . S
Co33 O59 2.155 . S
Co33 O60 2.096 1_465 S
C34 N37 1.301 . S
C34 N38 1.328 . S
C34 H39 0.930 . S
C35 C36 1.333 . S
C35 N37 1.317 . S
C35 H40 0.930 . S
C36 C35 1.333 . S
C36 N38 1.350 . S
C36 H62 0.931 . S
N37 Co33 2.148 1_545 S
N37 C34 1.301 . S
N37 C35 1.317 . S
N38 C34 1.328 . S
N38 C36 1.350 . S
H39 C34 0.930 . S
H40 C35 0.930 . S
C41 O42 1.224 . S
C41 O60 1.247 . S
O42 C41 1.224 . S
N43 Co33 2.128 1_655 S
N43 C44 1.355 . S
N43 C46 1.311 . S
C44 N43 1.355 . S
C44 C45 1.363 . S
C44 H56 0.929 . S
C45 C44 1.363 . S
C45 N47 1.375 . S
C45 H63 0.931 . S
C46 N43 1.311 . S
C46 N47 1.347 . S
C46 H57 0.929 . S
N47 C45 1.375 . S
N47 C46 1.347 . S
C48 C51 1.365 . S
C48 N53 1.328 1_565 S
C48 H54 0.929 . S
C49 C50 1.362 1_655 S
C49 C52 1.378 . S
C49 H64 0.929 . S
C50 C49 1.362 1_455 S
C50 C51 1.366 1_545 S
C51 C48 1.365 . S
C51 C50 1.366 1_565 S
C51 H65 0.930 . S
C52 C49 1.378 . S
C52 N53 1.315 1_655 S
C52 H55 0.930 . S
N53 Co33 2.194 1_545 S
N53 C48 1.328 1_545 S
N53 C52 1.315 1_455 S
H54 C48 0.929 . S
H55 C52 0.930 . S
H56 C44 0.929 . S
H57 C46 0.929 . S
O58 Co33 2.351 . S
O58 C61 1.244 . S
O59 Co33 2.155 . S
O59 C61 1.240 . S
O60 Co33 2.096 1_645 S
O60 C41 1.247 . S
C61 O58 1.244 . S
C61 O59 1.240 . S
H62 C36 0.931 . S
H63 C45 0.931 . S
H64 C49 0.929 . S
H65 C51 0.930 . S
Co66 N70 2.148 . S
Co66 N76 2.128 . S
Co66 N86 2.194 . S
Co66 O91 2.351 . S
Co66 O92 2.155 . S
Co66 O93 2.096 . S
C67 N70 1.301 . S
C67 N71 1.328 . S
C67 H72 0.930 . S
C68 C69 1.333 . S
C68 N70 1.317 . S
C68 H73 0.930 . S
C69 C68 1.333 . S
C69 N71 1.350 . S
C69 H95 0.931 . S
N70 Co66 2.148 . S
N70 C67 1.301 . S
N70 C68 1.317 . S
N71 C67 1.328 . S
N71 C69 1.350 . S
H72 C67 0.930 . S
H73 C68 0.930 . S
C74 O75 1.224 . S
C74 O93 1.247 . S
O75 C74 1.224 . S
N76 Co66 2.128 . S
N76 C77 1.355 . S
N76 C79 1.311 . S
C77 N76 1.355 . S
C77 C78 1.363 . S
C77 H89 0.929 . S
C78 C77 1.363 . S
C78 N80 1.375 . S
C78 H96 0.931 . S
C79 N76 1.311 . S
C79 N80 1.347 . S
C79 H90 0.929 . S
N80 C78 1.375 . S
N80 C79 1.347 . S
C81 C84 1.365 . S
C81 N86 1.328 . S
C81 H87 0.929 . S
C82 C83 1.362 . S
C82 C85 1.378 . S
C82 H97 0.929 . S
C83 C82 1.362 . S
C83 C84 1.366 . S
C84 C81 1.365 . S
C84 C83 1.366 . S
C84 H98 0.930 . S
C85 C82 1.378 . S
C85 N86 1.315 . S
C85 H88 0.930 . S
N86 Co66 2.194 . S
N86 C81 1.328 . S
N86 C85 1.315 . S
H87 C81 0.929 . S
H88 C85 0.930 . S
H89 C77 0.929 . S
H90 C79 0.929 . S
O91 Co66 2.351 . S
O91 C94 1.244 . S
O92 Co66 2.155 . S
O92 C94 1.240 . S
O93 Co66 2.096 . S
O93 C74 1.247 . S
C94 O91 1.244 . S
C94 O92 1.240 . S
H95 C69 0.931 . S
H96 C78 0.931 . S
H97 C82 0.929 . S
H98 C84 0.930 . S
Co99 N103 2.148 . S
Co99 N109 2.128 . S
Co99 N119 2.194 . S
Co99 O124 2.351 . S
Co99 O125 2.155 . S
Co99 O126 2.096 . S
C100 N103 1.301 . S
C100 N104 1.328 . S
C100 H105 0.930 . S
C101 C102 1.333 . S
C101 N103 1.317 . S
C101 H106 0.930 . S
C102 C101 1.333 . S
C102 N104 1.350 . S
C102 H128 0.931 . S
N103 Co99 2.148 . S
N103 C100 1.301 . S
N103 C101 1.317 . S
N104 C100 1.328 . S
N104 C102 1.350 . S
H105 C100 0.930 . S
H106 C101 0.930 . S
C107 O108 1.224 . S
C107 O126 1.247 . S
O108 C107 1.224 . S
N109 Co99 2.128 . S
N109 C110 1.355 . S
N109 C112 1.311 . S
C110 N109 1.355 . S
C110 C111 1.363 . S
C110 H122 0.929 . S
C111 C110 1.363 . S
C111 N113 1.375 . S
C111 H129 0.931 . S
C112 N109 1.311 . S
C112 N113 1.347 . S
C112 H123 0.929 . S
N113 C111 1.375 . S
N113 C112 1.347 . S
C114 C117 1.365 . S
C114 N119 1.328 . S
C114 H120 0.929 . S
C115 C116 1.362 . S
C115 C118 1.378 . S
C115 H130 0.929 . S
C116 C115 1.362 . S
C116 C117 1.366 . S
C117 C114 1.365 . S
C117 C116 1.366 . S
C117 H131 0.930 . S
C118 C115 1.378 . S
C118 N119 1.315 . S
C118 H121 0.930 . S
N119 Co99 2.194 . S
N119 C114 1.328 . S
N119 C118 1.315 . S
H120 C114 0.929 . S
H121 C118 0.930 . S
H122 C110 0.929 . S
H123 C112 0.929 . S
O124 Co99 2.351 . S
O124 C127 1.244 . S
O125 Co99 2.155 . S
O125 C127 1.240 . S
O126 Co99 2.096 . S
O126 C107 1.247 . S
C127 O124 1.244 . S
C127 O125 1.240 . S
H128 C102 0.931 . S
H129 C111 0.931 . S
H130 C115 0.929 . S
H131 C117 0.930 . S
H132 C138 0.930 . S
H133 C142 0.930 . S
H134 C147 0.929 . S
H135 C145 0.929 . S
H136 C140 0.929 . S
H137 C146 0.929 . S
C138 H132 0.930 . S
C138 C139 1.367 1_655 S
C138 C146 1.378 . S
C139 C138 1.367 1_455 S
C139 C147 1.433 1_545 S
C140 H136 0.929 . S
C140 C142 1.378 . S
C140 C144 1.350 1_565 S
C141 C144 1.463 . S
C141 C146 1.350 1_455 S
C141 N149 1.427 1_545 S
C142 H133 0.930 . S
C142 C140 1.378 . S
C142 C143 1.367 1_565 S
C143 C142 1.367 1_545 S
C143 C145 1.433 1_455 S
C144 C140 1.350 1_545 S
C144 C141 1.463 . S
C144 N148 1.427 1_455 S
C145 H135 0.929 . S
C145 C143 1.433 1_655 S
C145 N148 1.384 . S
C146 H137 0.929 . S
C146 C138 1.378 . S
C146 C141 1.350 1_655 S
C147 H134 0.929 . S
C147 C139 1.433 1_565 S
C147 N149 1.384 . S
N148 C144 1.427 1_655 S
N148 C145 1.384 . S
N149 C141 1.427 1_565 S
N149 C147 1.384 . S
H150 C156 0.930 . S
H151 C160 0.930 . S
H152 C165 0.929 . S
H153 C163 0.929 . S
H154 C158 0.929 . S
H155 C164 0.929 . S
C156 H150 0.930 . S
C156 C157 1.367 . S
C156 C164 1.378 . S
C157 C156 1.367 . S
C157 C165 1.433 . S
C158 H154 0.929 . S
C158 C160 1.378 . S
C158 C162 1.350 . S
C159 C162 1.463 1_554 S
C159 C164 1.350 . S
C159 N167 1.427 . S
C160 H151 0.930 . S
C160 C158 1.378 . S
C160 C161 1.367 . S
C161 C160 1.367 . S
C161 C163 1.433 . S
C162 C158 1.350 . S
C162 C159 1.463 1_556 S
C162 N166 1.427 . S
C163 H153 0.929 . S
C163 C161 1.433 . S
C163 N166 1.384 . S
C164 H155 0.929 . S
C164 C156 1.378 . S
C164 C159 1.350 . S
C165 H152 0.929 . S
C165 C157 1.433 . S
C165 N167 1.384 . S
N166 C162 1.427 . S
N166 C163 1.384 . S
N167 C159 1.427 . S
N167 C165 1.384 . S
H168 C174 0.930 . S
H169 C178 0.930 . S
H170 C183 0.929 . S
H171 C181 0.929 . S
H172 C176 0.929 . S
H173 C182 0.929 . S
C174 H168 0.930 . S
C174 C175 1.367 . S
C174 C182 1.378 . S
C175 C174 1.367 . S
C175 C183 1.433 . S
C176 H172 0.929 . S
C176 C178 1.378 . S
C176 C180 1.350 . S
C177 C180 1.463 . S
C177 C182 1.350 . S
C177 N185 1.427 . S
C178 H169 0.930 . S
C178 C176 1.378 . S
C178 C179 1.367 . S
C179 C178 1.367 . S
C179 C181 1.433 . S
C180 C176 1.350 . S
C180 C177 1.463 . S
C180 N184 1.427 . S
C181 H171 0.929 . S
C181 C179 1.433 . S
C181 N184 1.384 . S
C182 H173 0.929 . S
C182 C174 1.378 . S
C182 C177 1.350 . S
C183 H170 0.929 . S
C183 C175 1.433 . S
C183 N185 1.384 . S
N184 C180 1.427 . S
N184 C181 1.384 . S
N185 C177 1.427 . S
N185 C183 1.384 . S
H186 C192 0.930 . S
H187 C196 0.930 . S
H188 C201 0.929 . S
H189 C199 0.929 . S
H190 C194 0.929 . S
H191 C200 0.929 . S
C192 H186 0.930 . S
C192 C193 1.367 . S
C192 C200 1.378 . S
C193 C192 1.367 . S
C193 C201 1.433 . S
C194 H190 0.929 . S
C194 C196 1.378 . S
C194 C198 1.350 . S
C195 C198 1.463 . S
C195 C200 1.350 . S
C195 N203 1.427 . S
C196 H187 0.930 . S
C196 C194 1.378 . S
C196 C197 1.367 . S
C197 C196 1.367 . S
C197 C199 1.433 . S
C198 C194 1.350 . S
C198 C195 1.463 . S
C198 N202 1.427 . S
C199 H189 0.929 . S
C199 C197 1.433 . S
C199 N202 1.384 . S
C200 H191 0.929 . S
C200 C192 1.378 . S
C200 C195 1.350 . S
C201 H188 0.929 . S
C201 C193 1.433 . S
C201 N203 1.384 . S
N202 C198 1.427 . S
N202 C199 1.384 . S
N203 C195 1.427 . S
N203 C201 1.384 . S
H204 C210 0.930 . S
H205 C214 0.930 . S
H206 C219 0.929 . S
H207 C217 0.929 . S
H208 C212 0.929 . S
H209 C218 0.929 . S
C210 H204 0.930 . S
C210 C211 1.367 . S
C210 C218 1.378 . S
C211 C210 1.367 . S
C211 C219 1.433 . S
C212 H208 0.929 . S
C212 C214 1.378 . S
C212 C216 1.350 . S
C213 C216 1.463 . S
C213 C218 1.350 . S
C213 N221 1.427 . S
C214 H205 0.930 . S
C214 C212 1.378 . S
C214 C215 1.367 . S
C215 C214 1.367 . S
C215 C217 1.433 . S
C216 C212 1.350 . S
C216 C213 1.463 . S
C216 N220 1.427 . S
C217 H207 0.929 . S
C217 C215 1.433 . S
C217 N220 1.384 . S
C218 H209 0.929 . S
C218 C210 1.378 . S
C218 C213 1.350 . S
C219 H206 0.929 . S
C219 C211 1.433 . S
C219 N221 1.384 . S
N220 C216 1.427 . S
N220 C217 1.384 . S
N221 C213 1.427 . S
N221 C219 1.384 . S
H222 C228 0.930 . S
H223 C232 0.930 . S
H224 C237 0.929 . S
H225 C235 0.929 . S
H226 C230 0.929 . S
H227 C236 0.929 . S
C228 H222 0.930 . S
C228 C229 1.367 . S
C228 C236 1.378 . S
C229 C228 1.367 . S
C229 C237 1.433 . S
C230 H226 0.929 . S
C230 C232 1.378 . S
C230 C234 1.350 . S
C231 C234 1.463 . S
C231 C236 1.350 . S
C231 N239 1.427 . S
C232 H223 0.930 . S
C232 C230 1.378 . S
C232 C233 1.367 . S
C233 C232 1.367 . S
C233 C235 1.433 . S
C234 C230 1.350 . S
C234 C231 1.463 . S
C234 N238 1.427 . S
C235 H225 0.929 . S
C235 C233 1.433 . S
C235 N238 1.384 . S
C236 H227 0.929 . S
C236 C228 1.378 . S
C236 C231 1.350 . S
C237 H224 0.929 . S
C237 C229 1.433 . S
C237 N239 1.384 . S
N238 C234 1.427 . S
N238 C235 1.384 . S
N239 C231 1.427 . S
N239 C237 1.384 . S
H240 C246 0.930 . S
H241 C250 0.930 . S
H242 C255 0.929 . S
H243 C253 0.929 . S
H244 C248 0.929 . S
H245 C254 0.929 . S
C246 H240 0.930 . S
C246 C247 1.367 . S
C246 C254 1.378 . S
C247 C246 1.367 . S
C247 C255 1.433 . S
C248 H244 0.929 . S
C248 C250 1.378 . S
C248 C252 1.350 . S
C249 C252 1.463 . S
C249 C254 1.350 . S
C249 N257 1.427 . S
C250 H241 0.930 . S
C250 C248 1.378 . S
C250 C251 1.367 . S
C251 C250 1.367 . S
C251 C253 1.433 . S
C252 C248 1.350 . S
C252 C249 1.463 . S
C252 N256 1.427 . S
C253 H243 0.929 . S
C253 C251 1.433 . S
C253 N256 1.384 . S
C254 H245 0.929 . S
C254 C246 1.378 . S
C254 C249 1.350 . S
C255 H242 0.929 . S
C255 C247 1.433 . S
C255 N257 1.384 . S
N256 C252 1.427 . S
N256 C253 1.384 . S
N257 C249 1.427 . S
N257 C255 1.384 . S
H258 C264 0.930 . S
H259 C268 0.930 . S
H260 C273 0.929 . S
H261 C271 0.929 . S
H262 C266 0.929 . S
H263 C272 0.929 . S
C264 H258 0.930 . S
C264 C265 1.367 . S
C264 C272 1.378 . S
C265 C264 1.367 . S
C265 C273 1.433 . S
C266 H262 0.929 . S
C266 C268 1.378 . S
C266 C270 1.350 . S
C267 C270 1.463 . S
C267 C272 1.350 . S
C267 N275 1.427 . S
C268 H259 0.930 . S
C268 C266 1.378 . S
C268 C269 1.367 . S
C269 C268 1.367 . S
C269 C271 1.433 . S
C270 C266 1.350 . S
C270 C267 1.463 . S
C270 N274 1.427 . S
C271 H261 0.929 . S
C271 C269 1.433 . S
C271 N274 1.384 . S
C272 H263 0.929 . S
C272 C264 1.378 . S
C272 C267 1.350 . S
C273 H260 0.929 . S
C273 C265 1.433 . S
C273 N275 1.384 . S
N274 C270 1.427 . S
N274 C271 1.384 . S
N275 C267 1.427 . S
N275 C273 1.384 . S
H276 C282 0.930 . S
H277 C286 0.930 . S
H278 C291 0.929 . S
H279 C289 0.929 . S
H280 C284 0.929 . S
H281 C290 0.929 . S
C282 H276 0.930 . S
C282 C283 1.367 . S
C282 C290 1.378 . S
C283 C282 1.367 . S
C283 C291 1.433 . S
C284 H280 0.929 . S
C284 C286 1.378 . S
C284 C288 1.350 . S
C285 C288 1.463 . S
C285 C290 1.350 . S
C285 N293 1.427 . S
C286 H277 0.930 . S
C286 C284 1.378 . S
C286 C287 1.367 . S
C287 C286 1.367 . S
C287 C289 1.433 . S
C288 C284 1.350 . S
C288 C285 1.463 . S
C288 N292 1.427 . S
C289 H279 0.929 . S
C289 C287 1.433 . S
C289 N292 1.384 . S
C290 H281 0.929 . S
C290 C282 1.378 . S
C290 C285 1.350 . S
C291 H278 0.929 . S
C291 C283 1.433 . S
C291 N293 1.384 . S
N292 C288 1.427 . S
N292 C289 1.384 . S
N293 C285 1.427 . S
N293 C291 1.384 . S
H294 C300 0.930 . S
H295 C304 0.930 . S
H296 C309 0.929 . S
H297 C307 0.929 . S
H298 C302 0.929 . S
H299 C308 0.929 . S
C300 H294 0.930 . S
C300 C301 1.367 . S
C300 C308 1.378 . S
C301 C300 1.367 . S
C301 C309 1.433 . S
C302 H298 0.929 . S
C302 C304 1.378 . S
C302 C306 1.350 . S
C303 C306 1.463 . S
C303 C308 1.350 . S
C303 N311 1.427 . S
C304 H295 0.930 . S
C304 C302 1.378 . S
C304 C305 1.367 . S
C305 C304 1.367 . S
C305 C307 1.433 . S
C306 C302 1.350 . S
C306 C303 1.463 . S
C306 N310 1.427 . S
C307 H297 0.929 . S
C307 C305 1.433 . S
C307 N310 1.384 . S
C308 H299 0.929 . S
C308 C300 1.378 . S
C308 C303 1.350 . S
C309 H296 0.929 . S
C309 C301 1.433 . S
C309 N311 1.384 . S
N310 C306 1.427 . S
N310 C307 1.384 . S
N311 C303 1.427 . S
N311 C309 1.384 . S
C139 C17 1.486 . S
C143 C50 1.487 . S
C157 C116 1.487 . S
C161 C83 1.488 . S
C175 C8 1.522 . S
C179 N113 1.493 . S
C193 N5 1.389 . S
C197 C127 1.457 . S
C211 N104 1.383 . S
C215 C28 1.462 . S
C229 N14 1.501 . S
C233 C107 1.523 . S
C247 N71 1.379 . S
C251 C61 1.462 . S
C265 N38 1.391 . S
C269 C94 1.459 . S
C283 C41 1.518 . S
C287 N80 1.495 . S
C301 C74 1.522 . S
C305 N47 1.495 . S
