# Generated by pormake.
# Topology lcs-a, (4)-cn, num edge types: 1
# Building blocks:
#     Node 0, Type 0, BuildingBlock: CEKHIL_clean_sbu_0, # of connection points: 4
#     Node 1, Type 0, BuildingBlock: CEKHIL_clean_sbu_0, # of connection points: 4
#     Node 2, Type 0, BuildingBlock: CEKHIL_clean_sbu_0, # of connection points: 4
#     Node 3, Type 0, BuildingBlock: CEKHIL_clean_sbu_0, # of connection points: 4
#     Node 4, Type 0, BuildingBlock: CEKHIL_clean_sbu_0, # of connection points: 4
#     Node 5, Type 0, BuildingBlock: CEKHIL_clean_sbu_0, # of connection points: 4
#     Node 6, Type 0, BuildingBlock: CEKHIL_clean_sbu_0, # of connection points: 4
#     Node 7, Type 0, BuildingBlock: CEKHIL_clean_sbu_0, # of connection points: 4
#     Node 8, Type 0, BuildingBlock: CEKHIL_clean_sbu_0, # of connection points: 4
#     Node 9, Type 0, BuildingBlock: CEKHIL_clean_sbu_0, # of connection points: 4
#     Node 10, Type 0, BuildingBlock: CEKHIL_clean_sbu_0, # of connection points: 4
#     Node 11, Type 0, BuildingBlock: CEKHIL_clean_sbu_0, # of connection points: 4
#     Node 12, Type 0, BuildingBlock: CEKHIL_clean_sbu_0, # of connection points: 4
#     Node 13, Type 0, BuildingBlock: CEKHIL_clean_sbu_0, # of connection points: 4
#     Node 14, Type 0, BuildingBlock: CEKHIL_clean_sbu_0, # of connection points: 4
#     Node 15, Type 0, BuildingBlock: CEKHIL_clean_sbu_0, # of connection points: 4
#     Node 16, Type 0, BuildingBlock: CEKHIL_clean_sbu_0, # of connection points: 4
#     Node 17, Type 0, BuildingBlock: CEKHIL_clean_sbu_0, # of connection points: 4
#     Node 18, Type 0, BuildingBlock: CEKHIL_clean_sbu_0, # of connection points: 4
#     Node 19, Type 0, BuildingBlock: CEKHIL_clean_sbu_0, # of connection points: 4
#     Node 20, Type 0, BuildingBlock: CEKHIL_clean_sbu_0, # of connection points: 4
#     Node 21, Type 0, BuildingBlock: CEKHIL_clean_sbu_0, # of connection points: 4
#     Node 22, Type 0, BuildingBlock: CEKHIL_clean_sbu_0, # of connection points: 4
#     Node 23, Type 0, BuildingBlock: CEKHIL_clean_sbu_0, # of connection points: 4
#     Node 24, Type 0, BuildingBlock: CEKHIL_clean_sbu_0, # of connection points: 4
#     Node 25, Type 0, BuildingBlock: CEKHIL_clean_sbu_0, # of connection points: 4
#     Node 26, Type 0, BuildingBlock: CEKHIL_clean_sbu_0, # of connection points: 4
#     Node 27, Type 0, BuildingBlock: CEKHIL_clean_sbu_0, # of connection points: 4
#     Node 28, Type 0, BuildingBlock: CEKHIL_clean_sbu_0, # of connection points: 4
#     Node 29, Type 0, BuildingBlock: CEKHIL_clean_sbu_0, # of connection points: 4
#     Node 30, Type 0, BuildingBlock: CEKHIL_clean_sbu_0, # of connection points: 4
#     Node 31, Type 0, BuildingBlock: CEKHIL_clean_sbu_0, # of connection points: 4
#     Node 32, Type 0, BuildingBlock: CEKHIL_clean_sbu_0, # of connection points: 4
#     Node 33, Type 0, BuildingBlock: CEKHIL_clean_sbu_0, # of connection points: 4
#     Node 34, Type 0, BuildingBlock: CEKHIL_clean_sbu_0, # of connection points: 4
#     Node 35, Type 0, BuildingBlock: CEKHIL_clean_sbu_0, # of connection points: 4
#     Node 36, Type 0, BuildingBlock: CEKHIL_clean_sbu_0, # of connection points: 4
#     Node 37, Type 0, BuildingBlock: CEKHIL_clean_sbu_0, # of connection points: 4
#     Node 38, Type 0, BuildingBlock: CEKHIL_clean_sbu_0, # of connection points: 4
#     Node 39, Type 0, BuildingBlock: CEKHIL_clean_sbu_0, # of connection points: 4
#     Node 40, Type 0, BuildingBlock: CEKHIL_clean_sbu_0, # of connection points: 4
#     Node 41, Type 0, BuildingBlock: CEKHIL_clean_sbu_0, # of connection points: 4
#     Node 42, Type 0, BuildingBlock: CEKHIL_clean_sbu_0, # of connection points: 4
#     Node 43, Type 0, BuildingBlock: CEKHIL_clean_sbu_0, # of connection points: 4
#     Node 44, Type 0, BuildingBlock: CEKHIL_clean_sbu_0, # of connection points: 4
#     Node 45, Type 0, BuildingBlock: CEKHIL_clean_sbu_0, # of connection points: 4
#     Node 46, Type 0, BuildingBlock: CEKHIL_clean_sbu_0, # of connection points: 4
#     Node 47, Type 0, BuildingBlock: CEKHIL_clean_sbu_0, # of connection points: 4
#     Node 48, Type 0, BuildingBlock: CEKHIL_clean_sbu_0, # of connection points: 4
#     Node 49, Type 0, BuildingBlock: CEKHIL_clean_sbu_0, # of connection points: 4
#     Node 50, Type 0, BuildingBlock: CEKHIL_clean_sbu_0, # of connection points: 4
#     Node 51, Type 0, BuildingBlock: CEKHIL_clean_sbu_0, # of connection points: 4
#     Node 52, Type 0, BuildingBlock: CEKHIL_clean_sbu_0, # of connection points: 4
#     Node 53, Type 0, BuildingBlock: CEKHIL_clean_sbu_0, # of connection points: 4
#     Node 54, Type 0, BuildingBlock: CEKHIL_clean_sbu_0, # of connection points: 4
#     Node 55, Type 0, BuildingBlock: CEKHIL_clean_sbu_0, # of connection points: 4
#     Node 56, Type 0, BuildingBlock: CEKHIL_clean_sbu_0, # of connection points: 4
#     Node 57, Type 0, BuildingBlock: CEKHIL_clean_sbu_0, # of connection points: 4
#     Node 58, Type 0, BuildingBlock: CEKHIL_clean_sbu_0, # of connection points: 4
#     Node 59, Type 0, BuildingBlock: CEKHIL_clean_sbu_0, # of connection points: 4
#     Node 60, Type 0, BuildingBlock: CEKHIL_clean_sbu_0, # of connection points: 4
#     Node 61, Type 0, BuildingBlock: CEKHIL_clean_sbu_0, # of connection points: 4
#     Node 62, Type 0, BuildingBlock: CEKHIL_clean_sbu_0, # of connection points: 4
#     Node 63, Type 0, BuildingBlock: CEKHIL_clean_sbu_0, # of connection points: 4
#     Node 64, Type 0, BuildingBlock: CEKHIL_clean_sbu_0, # of connection points: 4
#     Node 65, Type 0, BuildingBlock: CEKHIL_clean_sbu_0, # of connection points: 4
#     Node 66, Type 0, BuildingBlock: CEKHIL_clean_sbu_0, # of connection points: 4
#     Node 67, Type 0, BuildingBlock: CEKHIL_clean_sbu_0, # of connection points: 4
#     Node 68, Type 0, BuildingBlock: CEKHIL_clean_sbu_0, # of connection points: 4
#     Node 69, Type 0, BuildingBlock: CEKHIL_clean_sbu_0, # of connection points: 4
#     Node 70, Type 0, BuildingBlock: CEKHIL_clean_sbu_0, # of connection points: 4
#     Node 71, Type 0, BuildingBlock: CEKHIL_clean_sbu_0, # of connection points: 4
#     Node 72, Type 0, BuildingBlock: CEKHIL_clean_sbu_0, # of connection points: 4
#     Node 73, Type 0, BuildingBlock: CEKHIL_clean_sbu_0, # of connection points: 4
#     Node 74, Type 0, BuildingBlock: CEKHIL_clean_sbu_0, # of connection points: 4
#     Node 75, Type 0, BuildingBlock: CEKHIL_clean_sbu_0, # of connection points: 4
#     Node 76, Type 0, BuildingBlock: CEKHIL_clean_sbu_0, # of connection points: 4
#     Node 77, Type 0, BuildingBlock: CEKHIL_clean_sbu_0, # of connection points: 4
#     Node 78, Type 0, BuildingBlock: CEKHIL_clean_sbu_0, # of connection points: 4
#     Node 79, Type 0, BuildingBlock: CEKHIL_clean_sbu_0, # of connection points: 4
#     Node 80, Type 0, BuildingBlock: CEKHIL_clean_sbu_0, # of connection points: 4
#     Node 81, Type 0, BuildingBlock: CEKHIL_clean_sbu_0, # of connection points: 4
#     Node 82, Type 0, BuildingBlock: CEKHIL_clean_sbu_0, # of connection points: 4
#     Node 83, Type 0, BuildingBlock: CEKHIL_clean_sbu_0, # of connection points: 4
#     Node 84, Type 0, BuildingBlock: CEKHIL_clean_sbu_0, # of connection points: 4
#     Node 85, Type 0, BuildingBlock: CEKHIL_clean_sbu_0, # of connection points: 4
#     Node 86, Type 0, BuildingBlock: CEKHIL_clean_sbu_0, # of connection points: 4
#     Node 87, Type 0, BuildingBlock: CEKHIL_clean_sbu_0, # of connection points: 4
#     Node 88, Type 0, BuildingBlock: CEKHIL_clean_sbu_0, # of connection points: 4
#     Node 89, Type 0, BuildingBlock: CEKHIL_clean_sbu_0, # of connection points: 4
#     Node 90, Type 0, BuildingBlock: CEKHIL_clean_sbu_0, # of connection points: 4
#     Node 91, Type 0, BuildingBlock: CEKHIL_clean_sbu_0, # of connection points: 4
#     Node 92, Type 0, BuildingBlock: CEKHIL_clean_sbu_0, # of connection points: 4
#     Node 93, Type 0, BuildingBlock: CEKHIL_clean_sbu_0, # of connection points: 4
#     Node 94, Type 0, BuildingBlock: CEKHIL_clean_sbu_0, # of connection points: 4
#     Node 95, Type 0, BuildingBlock: CEKHIL_clean_sbu_0, # of connection points: 4
#     Edge 96, Type (0, 0), None
#     Edge 97, Type (0, 0), None
#     Edge 98, Type (0, 0), None
#     Edge 99, Type (0, 0), None
#     Edge 100, Type (0, 0), None
#     Edge 101, Type (0, 0), None
#     Edge 102, Type (0, 0), None
#     Edge 103, Type (0, 0), None
#     Edge 104, Type (0, 0), None
#     Edge 105, Type (0, 0), None
#     Edge 106, Type (0, 0), None
#     Edge 107, Type (0, 0), None
#     Edge 108, Type (0, 0), None
#     Edge 109, Type (0, 0), None
#     Edge 110, Type (0, 0), None
#     Edge 111, Type (0, 0), None
#     Edge 112, Type (0, 0), None
#     Edge 113, Type (0, 0), None
#     Edge 114, Type (0, 0), None
#     Edge 115, Type (0, 0), None
#     Edge 116, Type (0, 0), None
#     Edge 117, Type (0, 0), None
#     Edge 118, Type (0, 0), None
#     Edge 119, Type (0, 0), None
#     Edge 120, Type (0, 0), None
#     Edge 121, Type (0, 0), None
#     Edge 122, Type (0, 0), None
#     Edge 123, Type (0, 0), None
#     Edge 124, Type (0, 0), None
#     Edge 125, Type (0, 0), None
#     Edge 126, Type (0, 0), None
#     Edge 127, Type (0, 0), None
#     Edge 128, Type (0, 0), None
#     Edge 129, Type (0, 0), None
#     Edge 130, Type (0, 0), None
#     Edge 131, Type (0, 0), None
#     Edge 132, Type (0, 0), None
#     Edge 133, Type (0, 0), None
#     Edge 134, Type (0, 0), None
#     Edge 135, Type (0, 0), None
#     Edge 136, Type (0, 0), None
#     Edge 137, Type (0, 0), None
#     Edge 138, Type (0, 0), None
#     Edge 139, Type (0, 0), None
#     Edge 140, Type (0, 0), None
#     Edge 141, Type (0, 0), None
#     Edge 142, Type (0, 0), None
#     Edge 143, Type (0, 0), None
#     Edge 144, Type (0, 0), None
#     Edge 145, Type (0, 0), None
#     Edge 146, Type (0, 0), None
#     Edge 147, Type (0, 0), None
#     Edge 148, Type (0, 0), None
#     Edge 149, Type (0, 0), None
#     Edge 150, Type (0, 0), None
#     Edge 151, Type (0, 0), None
#     Edge 152, Type (0, 0), None
#     Edge 153, Type (0, 0), None
#     Edge 154, Type (0, 0), None
#     Edge 155, Type (0, 0), None
#     Edge 156, Type (0, 0), None
#     Edge 157, Type (0, 0), None
#     Edge 158, Type (0, 0), None
#     Edge 159, Type (0, 0), None
#     Edge 160, Type (0, 0), None
#     Edge 161, Type (0, 0), None
#     Edge 162, Type (0, 0), None
#     Edge 163, Type (0, 0), None
#     Edge 164, Type (0, 0), None
#     Edge 165, Type (0, 0), None
#     Edge 166, Type (0, 0), None
#     Edge 167, Type (0, 0), None
#     Edge 168, Type (0, 0), None
#     Edge 169, Type (0, 0), None
#     Edge 170, Type (0, 0), None
#     Edge 171, Type (0, 0), None
#     Edge 172, Type (0, 0), None
#     Edge 173, Type (0, 0), None
#     Edge 174, Type (0, 0), None
#     Edge 175, Type (0, 0), None
#     Edge 176, Type (0, 0), None
#     Edge 177, Type (0, 0), None
#     Edge 178, Type (0, 0), None
#     Edge 179, Type (0, 0), None
#     Edge 180, Type (0, 0), None
#     Edge 181, Type (0, 0), None
#     Edge 182, Type (0, 0), None
#     Edge 183, Type (0, 0), None
#     Edge 184, Type (0, 0), None
#     Edge 185, Type (0, 0), None
#     Edge 186, Type (0, 0), None
#     Edge 187, Type (0, 0), None
#     Edge 188, Type (0, 0), None
#     Edge 189, Type (0, 0), None
#     Edge 190, Type (0, 0), None
#     Edge 191, Type (0, 0), None
#     Edge 192, Type (0, 0), None
#     Edge 193, Type (0, 0), None
#     Edge 194, Type (0, 0), None
#     Edge 195, Type (0, 0), None
#     Edge 196, Type (0, 0), None
#     Edge 197, Type (0, 0), None
#     Edge 198, Type (0, 0), None
#     Edge 199, Type (0, 0), None
#     Edge 200, Type (0, 0), None
#     Edge 201, Type (0, 0), None
#     Edge 202, Type (0, 0), None
#     Edge 203, Type (0, 0), None
#     Edge 204, Type (0, 0), None
#     Edge 205, Type (0, 0), None
#     Edge 206, Type (0, 0), None
#     Edge 207, Type (0, 0), None
#     Edge 208, Type (0, 0), None
#     Edge 209, Type (0, 0), None
#     Edge 210, Type (0, 0), None
#     Edge 211, Type (0, 0), None
#     Edge 212, Type (0, 0), None
#     Edge 213, Type (0, 0), None
#     Edge 214, Type (0, 0), None
#     Edge 215, Type (0, 0), None
#     Edge 216, Type (0, 0), None
#     Edge 217, Type (0, 0), None
#     Edge 218, Type (0, 0), None
#     Edge 219, Type (0, 0), None
#     Edge 220, Type (0, 0), None
#     Edge 221, Type (0, 0), None
#     Edge 222, Type (0, 0), None
#     Edge 223, Type (0, 0), None
#     Edge 224, Type (0, 0), None
#     Edge 225, Type (0, 0), None
#     Edge 226, Type (0, 0), None
#     Edge 227, Type (0, 0), None
#     Edge 228, Type (0, 0), None
#     Edge 229, Type (0, 0), None
#     Edge 230, Type (0, 0), None
#     Edge 231, Type (0, 0), None
#     Edge 232, Type (0, 0), None
#     Edge 233, Type (0, 0), None
#     Edge 234, Type (0, 0), None
#     Edge 235, Type (0, 0), None
#     Edge 236, Type (0, 0), None
#     Edge 237, Type (0, 0), None
#     Edge 238, Type (0, 0), None
#     Edge 239, Type (0, 0), None
#     Edge 240, Type (0, 0), None
#     Edge 241, Type (0, 0), None
#     Edge 242, Type (0, 0), None
#     Edge 243, Type (0, 0), None
#     Edge 244, Type (0, 0), None
#     Edge 245, Type (0, 0), None
#     Edge 246, Type (0, 0), None
#     Edge 247, Type (0, 0), None
#     Edge 248, Type (0, 0), None
#     Edge 249, Type (0, 0), None
#     Edge 250, Type (0, 0), None
#     Edge 251, Type (0, 0), None
#     Edge 252, Type (0, 0), None
#     Edge 253, Type (0, 0), None
#     Edge 254, Type (0, 0), None
#     Edge 255, Type (0, 0), None
#     Edge 256, Type (0, 0), None
#     Edge 257, Type (0, 0), None
#     Edge 258, Type (0, 0), None
#     Edge 259, Type (0, 0), None
#     Edge 260, Type (0, 0), None
#     Edge 261, Type (0, 0), None
#     Edge 262, Type (0, 0), None
#     Edge 263, Type (0, 0), None
#     Edge 264, Type (0, 0), None
#     Edge 265, Type (0, 0), None
#     Edge 266, Type (0, 0), None
#     Edge 267, Type (0, 0), None
#     Edge 268, Type (0, 0), None
#     Edge 269, Type (0, 0), None
#     Edge 270, Type (0, 0), None
#     Edge 271, Type (0, 0), None
#     Edge 272, Type (0, 0), None
#     Edge 273, Type (0, 0), None
#     Edge 274, Type (0, 0), None
#     Edge 275, Type (0, 0), None
#     Edge 276, Type (0, 0), None
#     Edge 277, Type (0, 0), None
#     Edge 278, Type (0, 0), None
#     Edge 279, Type (0, 0), None
#     Edge 280, Type (0, 0), None
#     Edge 281, Type (0, 0), None
#     Edge 282, Type (0, 0), None
#     Edge 283, Type (0, 0), None
#     Edge 284, Type (0, 0), None
#     Edge 285, Type (0, 0), None
#     Edge 286, Type (0, 0), None
#     Edge 287, Type (0, 0), None
# Relax obj value: 0.736
# Max RMSD: 0.636
# Mean RMSD: 0.634
data_MOF--net-lcs-a--node1-CEKHIL_clean_sbu_0--edge1-none
_symmetry_space_group_name_H-M    P1
_symmetry_Int_Tables_number       1
_symmetry_cell_setting            triclinic
loop_
_symmetry_equiv_pos_as_xyz
'x, y, z'
_cell_length_a     39.011265
_cell_length_b     39.013606
_cell_length_c     39.013214
_cell_angle_alpha  90.000853
_cell_angle_beta   90.001133
_cell_angle_gamma 90.002274
loop_
_atom_site_label
_atom_site_type_symbol
_atom_site_fract_x
_atom_site_fract_y
_atom_site_fract_z
_atom_type_partial_charge
Co0 Co 0.02706 0.29081 0.35947 0.0
O1 O 0.05982 0.33007 0.35814 0.0
O2 O 0.03174 0.31504 0.31362 0.0
C3 C -0.0225 0.32178 0.34603 0.0
O4 O -0.00562 0.24951 0.3591 0.0
Co5 Co 0.02763 0.28373 0.39122 0.0
O6 O -0.00425 0.24821 0.41346 0.0
C7 C 0.07585 0.24642 0.35102 0.0
C8 C 0.05563 0.33391 0.32614 0.0
C9 C -0.01674 0.2353 0.38667 0.0
O10 O 0.05887 0.26481 0.3319 0.0
O11 O 0.06907 0.25083 0.38268 0.0
O12 O -0.00311 0.30842 0.32312 0.0
O13 O -0.01055 0.3193 0.377 0.0
Co14 Co 0.89981 0.77704 0.60946 0.0
O15 O 0.86057 0.80981 0.60814 0.0
O16 O 0.87556 0.78172 0.56362 0.0
C17 C 0.86882 0.72748 0.59604 0.0
O18 O 0.9411 0.74435 0.60909 0.0
Co19 Co 0.9069 0.77762 0.64121 0.0
O20 O 0.94242 0.74573 0.66345 0.0
C21 C 0.94421 0.82581 0.601 0.0
C22 C 0.85671 0.80562 0.57615 0.0
C23 C 0.95532 0.73323 0.63667 0.0
O24 O 0.92582 0.80883 0.58188 0.0
O25 O 0.93981 0.81905 0.63266 0.0
O26 O 0.88218 0.74687 0.57312 0.0
O27 O 0.87131 0.73944 0.62701 0.0
Co28 Co 0.41358 0.64979 0.85948 0.0
O29 O 0.38081 0.61054 0.85815 0.0
O30 O 0.40889 0.62555 0.81363 0.0
C31 C 0.46313 0.61881 0.84605 0.0
O32 O 0.44626 0.69109 0.85911 0.0
Co33 Co 0.413 0.65687 0.89122 0.0
O34 O 0.4449 0.6924 0.91346 0.0
C35 C 0.36479 0.69418 0.85102 0.0
C36 C 0.385 0.60669 0.82616 0.0
C37 C 0.45738 0.7053 0.88668 0.0
O38 O 0.38177 0.67579 0.83191 0.0
O39 O 0.37157 0.68978 0.88269 0.0
O40 O 0.44374 0.63217 0.82313 0.0
O41 O 0.45118 0.6213 0.87701 0.0
Co42 Co 0.54083 0.16357 0.10948 0.0
O43 O 0.58007 0.13079 0.10816 0.0
O44 O 0.56508 0.15888 0.06363 0.0
C45 C 0.57183 0.21311 0.09605 0.0
O46 O 0.49955 0.19626 0.10911 0.0
Co47 Co 0.53375 0.16299 0.14122 0.0
O48 O 0.49824 0.19489 0.16346 0.0
C49 C 0.49643 0.11479 0.10102 0.0
C50 C 0.58393 0.13498 0.07616 0.0
C51 C 0.48533 0.20739 0.13668 0.0
O52 O 0.51482 0.13178 0.0819 0.0
O53 O 0.50084 0.12156 0.13268 0.0
O54 O 0.55847 0.19372 0.07313 0.0
O55 O 0.56934 0.20115 0.12702 0.0
Co56 Co 0.02712 0.64982 0.08114 0.0
O57 O 0.0599 0.61058 0.08246 0.0
O58 O 0.0318 0.62557 0.12698 0.0
C59 C -0.02243 0.61881 0.09456 0.0
O60 O -0.00559 0.6911 0.08151 0.0
Co61 Co 0.02769 0.6569 0.04939 0.0
O62 O -0.00421 0.69241 0.02715 0.0
C63 C 0.07588 0.69424 0.08961 0.0
C64 C 0.05571 0.60672 0.11446 0.0
C65 C -0.01671 0.70531 0.05394 0.0
O66 O 0.0589 0.67584 0.10872 0.0
O67 O 0.06911 0.68983 0.05794 0.0
O68 O -0.00305 0.63218 0.11748 0.0
O69 O -0.01047 0.62131 0.0636 0.0
Co70 Co 0.54081 0.77708 0.33113 0.0
O71 O 0.58005 0.80988 0.33245 0.0
O72 O 0.56507 0.78178 0.37697 0.0
C73 C 0.57183 0.72755 0.34455 0.0
O74 O 0.49954 0.74437 0.33151 0.0
Co75 Co 0.53373 0.77766 0.29939 0.0
O76 O 0.49822 0.74575 0.27716 0.0
C77 C 0.4964 0.82584 0.3396 0.0
C78 C 0.58391 0.80569 0.36444 0.0
C79 C 0.48532 0.73325 0.30394 0.0
O80 O 0.51479 0.80886 0.35872 0.0
O81 O 0.50081 0.81908 0.30794 0.0
O82 O 0.55847 0.74693 0.36747 0.0
O83 O 0.56933 0.7395 0.31359 0.0
Co84 Co 0.41354 0.29079 0.58115 0.0
O85 O 0.38076 0.33002 0.58247 0.0
O86 O 0.40886 0.31503 0.62699 0.0
C87 C 0.46309 0.32179 0.59457 0.0
O88 O 0.44625 0.24951 0.58152 0.0
Co89 Co 0.41297 0.2837 0.54941 0.0
O90 O 0.44486 0.24819 0.52717 0.0
C91 C 0.36478 0.24637 0.58962 0.0
C92 C 0.38495 0.33388 0.61447 0.0
C93 C 0.45737 0.23529 0.55395 0.0
O94 O 0.38176 0.26477 0.60874 0.0
O95 O 0.37154 0.25078 0.55796 0.0
O96 O 0.44371 0.30843 0.61749 0.0
O97 O 0.45113 0.31929 0.56361 0.0
Co98 Co 0.89981 0.16351 0.83115 0.0
O99 O 0.86057 0.13073 0.83246 0.0
O100 O 0.87556 0.15883 0.87699 0.0
C101 C 0.86881 0.21306 0.84455 0.0
O102 O 0.9411 0.19621 0.83152 0.0
Co103 Co 0.9069 0.16293 0.79941 0.0
O104 O 0.94241 0.19482 0.77717 0.0
C105 C 0.94421 0.11474 0.83963 0.0
C106 C 0.85671 0.13492 0.86446 0.0
C107 C 0.95531 0.20733 0.80395 0.0
O108 O 0.92582 0.13173 0.85874 0.0
O109 O 0.93981 0.1215 0.80797 0.0
O110 O 0.88216 0.19368 0.86748 0.0
O111 O 0.87131 0.20109 0.81359 0.0
Co112 Co 0.35949 0.02701 0.29083 0.0
O113 O 0.35818 0.05977 0.33009 0.0
O114 O 0.31365 0.03169 0.31508 0.0
C115 C 0.34607 -0.02255 0.3218 0.0
O116 O 0.35912 -0.00566 0.24953 0.0
Co117 Co 0.39124 0.02759 0.28375 0.0
O118 O 0.41348 -0.00428 0.24822 0.0
C119 C 0.35103 0.07581 0.24645 0.0
C120 C 0.32618 0.05558 0.33394 0.0
C121 C 0.38669 -0.01677 0.23531 0.0
O122 O 0.33191 0.05882 0.26483 0.0
O123 O 0.38269 0.06904 0.25085 0.0
O124 O 0.32315 -0.00315 0.30845 0.0
O125 O 0.37703 -0.01059 0.31931 0.0
Co126 Co 0.16359 0.10944 0.54082 0.0
O127 O 0.13081 0.10812 0.58006 0.0
O128 O 0.1589 0.0636 0.56506 0.0
C129 C 0.21314 0.09602 0.57181 0.0
O130 O 0.19628 0.10907 0.49953 0.0
Co131 Co 0.16301 0.14119 0.53373 0.0
O132 O 0.19491 0.16343 0.49822 0.0
C133 C 0.11481 0.10098 0.49641 0.0
C134 C 0.135 0.07613 0.58391 0.0
C135 C 0.20741 0.13664 0.48532 0.0
O136 O 0.1318 0.08186 0.5148 0.0
O137 O 0.12158 0.13264 0.50082 0.0
O138 O 0.19375 0.0731 0.55845 0.0
O139 O 0.20118 0.12698 0.56932 0.0
Co140 Co 0.08116 0.91355 0.79079 0.0
O141 O 0.08247 0.88077 0.83003 0.0
O142 O 0.127 0.90887 0.81504 0.0
C143 C 0.09457 0.9631 0.82178 0.0
O144 O 0.08152 0.94624 0.7495 0.0
Co145 Co 0.04941 0.91297 0.78371 0.0
O146 O 0.02717 0.94485 0.74819 0.0
C147 C 0.08963 0.86477 0.74639 0.0
C148 C 0.11447 0.88497 0.83389 0.0
C149 C 0.05395 0.95736 0.73529 0.0
O150 O 0.10874 0.88177 0.76478 0.0
O151 O 0.05796 0.87153 0.7508 0.0
O152 O 0.1175 0.94372 0.80843 0.0
O153 O 0.06361 0.95114 0.81929 0.0
Co154 Co 0.27705 0.83118 0.0408 0.0
O155 O 0.30983 0.83251 0.08004 0.0
O156 O 0.28174 0.87703 0.06504 0.0
C157 C 0.2275 0.8446 0.07178 0.0
O158 O 0.24436 0.83154 -0.00049 0.0
Co159 Co 0.27763 0.79944 0.03372 0.0
O160 O 0.24574 0.77719 -0.00179 0.0
C161 C 0.32583 0.83965 -0.0036 0.0
C162 C 0.30564 0.86451 0.08389 0.0
C163 C 0.23324 0.80396 -0.0147 0.0
O164 O 0.30884 0.85876 0.01478 0.0
O165 O 0.31907 0.80798 0.00082 0.0
O166 O 0.24689 0.86753 0.05843 0.0
O167 O 0.23946 0.81364 0.0693 0.0
Co168 Co 0.35948 0.91358 0.1498 0.0
O169 O 0.35815 0.88082 0.11054 0.0
O170 O 0.31363 0.90891 0.12555 0.0
C171 C 0.34606 0.96314 0.11883 0.0
O172 O 0.35912 0.94626 0.1911 0.0
Co173 Co 0.39122 0.913 0.15688 0.0
O174 O 0.41347 0.94487 0.19241 0.0
C175 C 0.351 0.86479 0.19418 0.0
C176 C 0.32615 0.88502 0.10669 0.0
C177 C 0.38669 0.95736 0.20532 0.0
O178 O 0.33189 0.88179 0.17579 0.0
O179 O 0.38267 0.87155 0.18977 0.0
O180 O 0.32313 0.94376 0.13218 0.0
O181 O 0.37702 0.95118 0.12131 0.0
Co182 Co 0.27709 0.10942 0.39984 0.0
O183 O 0.30987 0.10809 0.3606 0.0
O184 O 0.28177 0.06357 0.37559 0.0
C185 C 0.22754 0.09601 0.36884 0.0
O186 O 0.2444 0.10906 0.44112 0.0
Co187 Co 0.27768 0.14116 0.40692 0.0
O188 O 0.2458 0.16341 0.44244 0.0
C189 C 0.32587 0.10094 0.44424 0.0
C190 C 0.30568 0.07609 0.35675 0.0
C191 C 0.23329 0.13664 0.45534 0.0
O192 O 0.30887 0.08183 0.42585 0.0
O193 O 0.31912 0.1326 0.43983 0.0
O194 O 0.24692 0.07309 0.3822 0.0
O195 O 0.23951 0.12697 0.37133 0.0
Co196 Co 0.08116 0.02704 0.64981 0.0
O197 O 0.08248 0.05981 0.61056 0.0
O198 O 0.127 0.03172 0.62557 0.0
C199 C 0.09458 -0.02251 0.61882 0.0
O200 O 0.08152 -0.00565 0.6911 0.0
Co201 Co 0.04941 0.02762 0.65689 0.0
O202 O 0.02716 -0.00427 0.6924 0.0
C203 C 0.08962 0.07582 0.69421 0.0
C204 C 0.11448 0.05562 0.60672 0.0
C205 C 0.05395 -0.01677 0.70531 0.0
O206 O 0.10874 0.05883 0.67582 0.0
O207 O 0.05795 0.06905 0.6898 0.0
O208 O 0.1175 -0.00312 0.63218 0.0
O209 O 0.06361 -0.01055 0.6213 0.0
Co210 Co 0.16356 0.83115 0.89981 0.0
O211 O 0.13078 0.83247 0.86056 0.0
O212 O 0.15888 0.87699 0.87555 0.0
C213 C 0.21311 0.84456 0.86882 0.0
O214 O 0.19625 0.83153 0.9411 0.0
Co215 Co 0.16297 0.79941 0.9069 0.0
O216 O 0.19486 0.77717 0.94242 0.0
C217 C 0.11478 0.83963 0.9442 0.0
C218 C 0.13498 0.86446 0.8567 0.0
C219 C 0.20736 0.80396 0.95532 0.0
O220 O 0.13177 0.85874 0.92581 0.0
O221 O 0.12154 0.80797 0.9398 0.0
O222 O 0.19373 0.86749 0.88217 0.0
O223 O 0.20115 0.8136 0.87131 0.0
Co224 Co 0.29082 0.35945 0.02705 0.0
O225 O 0.33006 0.35814 0.05982 0.0
O226 O 0.31508 0.31361 0.03174 0.0
C227 C 0.32181 0.34603 -0.0225 0.0
O228 O 0.24953 0.35908 -0.00565 0.0
Co229 Co 0.28373 0.39119 0.02763 0.0
O230 O 0.24821 0.41343 -0.00425 0.0
C231 C 0.24642 0.35097 0.07583 0.0
C232 C 0.33393 0.32615 0.05563 0.0
C233 C 0.23531 0.38665 -0.01676 0.0
O234 O 0.26481 0.33186 0.05883 0.0
O235 O 0.25083 0.38263 0.06907 0.0
O236 O 0.30846 0.32311 -0.00311 0.0
O237 O 0.31932 0.377 -0.01054 0.0
Co238 Co 0.79081 0.08109 0.91355 0.0
O239 O 0.83005 0.08242 0.88077 0.0
O240 O 0.81505 0.12694 0.90886 0.0
C241 C 0.82181 0.09452 0.96309 0.0
O242 O 0.74952 0.08146 0.94624 0.0
Co243 Co 0.78372 0.04934 0.91298 0.0
O244 O 0.74821 0.02711 0.94488 0.0
C245 C 0.7464 0.08955 0.86478 0.0
C246 C 0.8339 0.11441 0.88496 0.0
C247 C 0.7353 0.0539 0.95737 0.0
O248 O 0.7648 0.10866 0.88175 0.0
O249 O 0.7508 0.05788 0.87155 0.0
O250 O 0.80844 0.11744 0.94371 0.0
O251 O 0.81932 0.06355 0.95114 0.0
Co252 Co 0.10951 0.5408 0.16355 0.0
O253 O 0.1082 0.58004 0.13078 0.0
O254 O 0.06367 0.56506 0.15886 0.0
C255 C 0.09609 0.57179 0.2131 0.0
O256 O 0.10912 0.49951 0.19624 0.0
Co257 Co 0.14125 0.53371 0.16298 0.0
O258 O 0.16348 0.49819 0.19487 0.0
C259 C 0.10104 0.4964 0.11477 0.0
C260 C 0.07621 0.58391 0.13496 0.0
C261 C 0.13669 0.48529 0.20736 0.0
O262 O 0.08192 0.5148 0.13175 0.0
O263 O 0.1327 0.50079 0.12155 0.0
O264 O 0.07316 0.55844 0.19371 0.0
O265 O 0.12705 0.56929 0.20115 0.0
Co266 Co 0.64982 0.85951 0.41353 0.0
O267 O 0.61058 0.85819 0.38076 0.0
O268 O 0.62558 0.81367 0.40884 0.0
C269 C 0.61883 0.84609 0.46308 0.0
O270 O 0.69112 0.85913 0.44622 0.0
Co271 Co 0.65691 0.89126 0.41296 0.0
O272 O 0.69243 0.91348 0.44487 0.0
C273 C 0.69423 0.85105 0.36476 0.0
C274 C 0.60672 0.82619 0.38495 0.0
C275 C 0.70533 0.8867 0.45735 0.0
O276 O 0.67583 0.83193 0.38173 0.0
O277 O 0.68984 0.88271 0.37154 0.0
O278 O 0.63219 0.82317 0.44369 0.0
O279 O 0.62132 0.87705 0.45113 0.0
Co280 Co 0.83115 0.89977 0.16355 0.0
O281 O 0.83246 0.86051 0.13079 0.0
O282 O 0.87699 0.87552 0.15887 0.0
C283 C 0.84457 0.86878 0.21311 0.0
O284 O 0.83153 0.94107 0.19623 0.0
Co285 Co 0.7994 0.90685 0.16298 0.0
O286 O 0.77717 0.94237 0.19488 0.0
C287 C 0.83961 0.94416 0.11477 0.0
C288 C 0.86446 0.85666 0.13498 0.0
C289 C 0.80396 0.95528 0.20736 0.0
O290 O 0.85872 0.92577 0.13175 0.0
O291 O 0.80794 0.93976 0.12155 0.0
O292 O 0.8675 0.88214 0.19372 0.0
O293 O 0.81361 0.87127 0.20115 0.0
Co294 Co 0.14983 0.58116 0.52704 0.0
O295 O 0.11059 0.58248 0.55982 0.0
O296 O 0.12558 0.627 0.53172 0.0
C297 C 0.11884 0.59457 0.47749 0.0
O298 O 0.19112 0.58152 0.49435 0.0
Co299 Co 0.15691 0.54942 0.52763 0.0
O300 O 0.19243 0.52717 0.49575 0.0
C301 C 0.19422 0.58964 0.57582 0.0
C302 C 0.10672 0.61447 0.55562 0.0
C303 C 0.20533 0.55395 0.48324 0.0
O304 O 0.17584 0.60875 0.55883 0.0
O305 O 0.18981 0.55798 0.56907 0.0
O306 O 0.13219 0.6175 0.49688 0.0
O307 O 0.12133 0.56361 0.48945 0.0
Co308 Co 0.10945 0.39981 0.27704 0.0
O309 O 0.10813 0.36058 0.30982 0.0
O310 O 0.06361 0.37556 0.28173 0.0
C311 C 0.09604 0.36882 0.22749 0.0
O312 O 0.1091 0.4411 0.24434 0.0
Co313 Co 0.1412 0.40689 0.27763 0.0
O314 O 0.16345 0.44241 0.24575 0.0
C315 C 0.10097 0.44421 0.32582 0.0
C316 C 0.07613 0.35672 0.30563 0.0
C317 C 0.13668 0.45531 0.23324 0.0
O318 O 0.08186 0.42583 0.30882 0.0
O319 O 0.13264 0.4398 0.31907 0.0
O320 O 0.07311 0.38217 0.24688 0.0
O321 O 0.127 0.37131 0.23946 0.0
Co322 Co 0.33118 0.54078 0.77706 0.0
O323 O 0.3325 0.58002 0.80984 0.0
O324 O 0.37702 0.56503 0.78174 0.0
C325 C 0.34459 0.57178 0.72751 0.0
O326 O 0.33154 0.4995 0.74436 0.0
Co327 Co 0.29944 0.5337 0.77764 0.0
O328 O 0.27718 0.49819 0.74576 0.0
C329 C 0.33966 0.49639 0.82583 0.0
C330 C 0.36449 0.58388 0.80565 0.0
C331 C 0.30396 0.48528 0.73325 0.0
O332 O 0.35877 0.51477 0.80884 0.0
O333 O 0.30799 0.5008 0.81908 0.0
O334 O 0.36752 0.55842 0.74689 0.0
O335 O 0.31363 0.56929 0.73947 0.0
Co336 Co 0.91018 0.64934 0.57601 0.0
O337 O 0.87866 0.60855 0.57112 0.0
O338 O 0.88179 0.63534 0.6179 0.0
C339 C 0.86967 0.69116 0.58847 0.0
O340 O 0.94418 0.69056 0.57966 0.0
Co341 Co 0.91902 0.65083 0.54512 0.0
O342 O 0.94904 0.68946 0.52553 0.0
C343 C 0.96247 0.61001 0.58702 0.0
C344 C 0.86936 0.60945 0.60204 0.0
C345 C 0.95785 0.70444 0.55273 0.0
O346 O 0.94018 0.62275 0.60535 0.0
O347 O 0.95747 0.61519 0.55514 0.0
O348 O 0.88366 0.67276 0.61182 0.0
O349 O 0.87602 0.6808 0.55746 0.0
Co350 Co 0.04132 0.1602 0.32602 0.0
O351 O 0.08211 0.12868 0.32114 0.0
O352 O 0.0553 0.1318 0.3679 0.0
C353 C -0.00054 0.11967 0.33847 0.0
O354 O 9e-05 0.19419 0.32967 0.0
Co355 Co 0.03981 0.16905 0.29513 0.0
O356 O 0.00118 0.19904 0.27554 0.0
C357 C 0.08063 0.21247 0.33702 0.0
C358 C 0.08118 0.11937 0.35205 0.0
C359 C -0.01381 0.20785 0.30273 0.0
O360 O 0.0679 0.19019 0.35537 0.0
O361 O 0.07544 0.20751 0.30514 0.0
O362 O 0.01788 0.13367 0.3618 0.0
O363 O 0.00986 0.12604 0.30747 0.0
Co364 Co 0.53047 0.29126 0.07601 0.0
O365 O 0.56201 0.33204 0.07112 0.0
O366 O 0.55886 0.30526 0.1179 0.0
C367 C 0.57098 0.24943 0.08848 0.0
O368 O 0.49648 0.25005 0.07967 0.0
Co369 Co 0.52164 0.28976 0.04512 0.0
O370 O 0.49161 0.25114 0.02554 0.0
C371 C 0.4782 0.3306 0.08702 0.0
C372 C 0.5713 0.33114 0.10204 0.0
C373 C 0.4828 0.23616 0.05274 0.0
O374 O 0.50049 0.31786 0.10534 0.0
O375 O 0.48319 0.32541 0.05514 0.0
O376 O 0.55699 0.26784 0.11182 0.0
O377 O 0.56463 0.25979 0.05747 0.0
Co378 Co 0.39933 0.78039 0.82601 0.0
O379 O 0.35855 0.81192 0.82113 0.0
O380 O 0.38536 0.8088 0.86789 0.0
C381 C 0.4412 0.82092 0.83846 0.0
O382 O 0.44056 0.74641 0.82967 0.0
Co383 Co 0.40083 0.77155 0.79512 0.0
O384 O 0.43946 0.74154 0.77554 0.0
C385 C 0.36002 0.72814 0.83702 0.0
C386 C 0.35947 0.82123 0.85204 0.0
C387 C 0.45445 0.73274 0.80273 0.0
O388 O 0.37275 0.75042 0.85537 0.0
O389 O 0.3652 0.73309 0.80514 0.0
O390 O 0.42277 0.80693 0.86179 0.0
O391 O 0.4308 0.81455 0.80746 0.0
Co392 Co 0.91017 0.29122 0.86459 0.0
O393 O 0.87863 0.332 0.86946 0.0
O394 O 0.88179 0.3052 0.82269 0.0
C395 C 0.86966 0.24938 0.85212 0.0
O396 O 0.94417 0.25001 0.86094 0.0
Co397 Co 0.919 0.28973 0.89548 0.0
O398 O 0.94902 0.25111 0.91507 0.0
C399 C 0.96245 0.33055 0.85358 0.0
C400 C 0.86934 0.33108 0.83854 0.0
C401 C 0.95784 0.23613 0.88788 0.0
O402 O 0.94016 0.31781 0.83525 0.0
O403 O 0.95745 0.32537 0.88546 0.0
O404 O 0.88366 0.26779 0.82878 0.0
O405 O 0.87601 0.25975 0.88313 0.0
Co406 Co 0.39936 0.16018 0.61463 0.0
O407 O 0.35859 0.12864 0.61951 0.0
O408 O 0.38539 0.13177 0.57274 0.0
C409 C 0.44123 0.11967 0.60216 0.0
O410 O 0.44058 0.19418 0.61096 0.0
Co411 Co 0.40087 0.16902 0.64552 0.0
O412 O 0.43949 0.19904 0.66509 0.0
C413 C 0.36002 0.21242 0.60363 0.0
C414 C 0.35951 0.11933 0.5886 0.0
C415 C 0.45447 0.20786 0.63789 0.0
O416 O 0.37276 0.19015 0.58528 0.0
O417 O 0.36522 0.20747 0.63551 0.0
O418 O 0.4228 0.13366 0.57884 0.0
O419 O 0.43084 0.12603 0.63316 0.0
Co420 Co 0.53049 0.64938 0.3646 0.0
O421 O 0.56203 0.60861 0.36948 0.0
O422 O 0.55887 0.63539 0.3227 0.0
C423 C 0.57098 0.69123 0.35212 0.0
O424 O 0.49648 0.69058 0.36094 0.0
Co425 Co 0.52166 0.65088 0.39549 0.0
O426 O 0.49163 0.68949 0.41508 0.0
C427 C 0.47822 0.61003 0.3536 0.0
C428 C 0.57132 0.60952 0.33856 0.0
C429 C 0.48281 0.70447 0.38788 0.0
O430 O 0.5005 0.62278 0.33527 0.0
O431 O 0.48322 0.61522 0.38548 0.0
O432 O 0.55699 0.67281 0.32878 0.0
O433 O 0.56464 0.68086 0.38313 0.0
Co434 Co 0.04129 0.78043 0.11461 0.0
O435 O 0.08206 0.81198 0.11949 0.0
O436 O 0.05526 0.80883 0.07272 0.0
C437 C -0.00059 0.82094 0.10214 0.0
O438 O 8e-05 0.74642 0.11094 0.0
Co439 Co 0.03978 0.77159 0.1455 0.0
O440 O 0.00116 0.74157 0.16508 0.0
C441 C 0.08063 0.72819 0.10361 0.0
C442 C 0.08114 0.82128 0.08857 0.0
C443 C -0.01381 0.73275 0.13788 0.0
O444 O 0.06789 0.75046 0.08526 0.0
O445 O 0.07544 0.73315 0.13549 0.0
O446 O 0.01784 0.80695 0.07882 0.0
O447 O 0.00981 0.81457 0.13314 0.0
Co448 Co 0.57602 0.91021 0.64934 0.0
O449 O 0.57113 0.8787 0.60854 0.0
O450 O 0.6179 0.8818 0.63534 0.0
C451 C 0.58848 0.86967 0.69118 0.0
O452 O 0.57969 0.94418 0.69057 0.0
Co453 Co 0.54516 0.91905 0.65083 0.0
O454 O 0.52556 0.94907 0.68944 0.0
C455 C 0.58708 0.96249 0.61002 0.0
C456 C 0.60204 0.86939 0.60945 0.0
C457 C 0.55275 0.95787 0.70444 0.0
O458 O 0.60539 0.94019 0.62277 0.0
O459 O 0.5552 0.9575 0.61519 0.0
O460 O 0.61181 0.88366 0.67276 0.0
O461 O 0.55748 0.87605 0.68079 0.0
Co462 Co 0.78043 0.82602 0.39934 0.0
O463 O 0.81196 0.82112 0.35856 0.0
O464 O 0.80886 0.86789 0.38536 0.0
C465 C 0.82096 0.83846 0.4412 0.0
O466 O 0.74644 0.82969 0.44056 0.0
Co467 Co 0.77158 0.79513 0.40083 0.0
O468 O 0.74155 0.77555 0.43945 0.0
C469 C 0.72819 0.83704 0.36001 0.0
C470 C 0.82128 0.85203 0.35948 0.0
C471 C 0.73275 0.80275 0.45444 0.0
O472 O 0.75046 0.85538 0.37275 0.0
O473 O 0.73313 0.80515 0.36519 0.0
O474 O 0.80697 0.8618 0.42277 0.0
O475 O 0.81458 0.80746 0.43081 0.0
Co476 Co 0.86463 0.03037 0.14933 0.0
O477 O 0.86952 0.0619 0.10854 0.0
O478 O 0.82275 0.05878 0.13535 0.0
C479 C 0.85218 0.0709 0.19118 0.0
O480 O 0.86097 -0.00362 0.19055 0.0
Co481 Co 0.89552 0.02153 0.15083 0.0
O482 O 0.9151 -0.00848 0.18945 0.0
C483 C 0.85362 -0.02188 0.11001 0.0
C484 C 0.83861 0.07121 0.10946 0.0
C485 C 0.88791 -0.01729 0.20444 0.0
O486 O 0.83527 0.0004 0.12274 0.0
O487 O 0.8855 -0.01693 0.11519 0.0
O488 O 0.82885 0.05691 0.17276 0.0
O489 O 0.88318 0.06453 0.18079 0.0
Co490 Co 0.6602 0.11457 0.89936 0.0
O491 O 0.62867 0.11946 0.85858 0.0
O492 O 0.63178 0.07269 0.88538 0.0
C493 C 0.61968 0.10212 0.94122 0.0
O494 O 0.69419 0.1109 0.94058 0.0
Co495 Co 0.66905 0.14545 0.90085 0.0
O496 O 0.69907 0.16503 0.93947 0.0
C497 C 0.71244 0.10355 0.86002 0.0
C498 C 0.61935 0.08855 0.8595 0.0
C499 C 0.70788 0.13784 0.95446 0.0
O500 O 0.69017 0.0852 0.87277 0.0
O501 O 0.70749 0.13543 0.8652 0.0
O502 O 0.63366 0.07879 0.92279 0.0
O503 O 0.62605 0.13312 0.93083 0.0
Co504 Co 0.57601 0.03042 0.79125 0.0
O505 O 0.57111 0.06192 0.83206 0.0
O506 O 0.61789 0.05882 0.80527 0.0
C507 C 0.58849 0.07096 0.74942 0.0
O508 O 0.57969 -0.00355 0.75002 0.0
Co509 Co 0.54515 0.02158 0.78975 0.0
O510 O 0.52556 -0.00843 0.75113 0.0
C511 C 0.58704 -0.02186 0.83058 0.0
C512 C 0.60203 0.0712 0.83117 0.0
C513 C 0.55275 -0.01723 0.73614 0.0
O514 O 0.60537 0.00042 0.81782 0.0
O515 O 0.55516 -0.01687 0.8254 0.0
O516 O 0.61181 0.05697 0.76786 0.0
O517 O 0.55749 0.06459 0.7598 0.0
Co518 Co 0.66017 0.82603 0.54123 0.0
O519 O 0.62865 0.82114 0.58201 0.0
O520 O 0.63179 0.86793 0.55524 0.0
C521 C 0.61966 0.83851 0.4994 0.0
O522 O 0.69416 0.82969 0.50001 0.0
Co523 Co 0.66901 0.79515 0.53973 0.0
O524 O 0.69902 0.77556 0.50111 0.0
C525 C 0.71245 0.83704 0.58056 0.0
C526 C 0.61938 0.85206 0.58113 0.0
C527 C 0.70784 0.80275 0.48613 0.0
O528 O 0.69017 0.85537 0.56781 0.0
O529 O 0.70745 0.80516 0.57538 0.0
O530 O 0.63365 0.86185 0.51782 0.0
O531 O 0.62601 0.8075 0.50976 0.0
Co532 Co 0.86464 0.91015 0.29124 0.0
O533 O 0.86953 0.87864 0.33204 0.0
O534 O 0.82274 0.88177 0.30526 0.0
C535 C 0.85215 0.86963 0.24943 0.0
O536 O 0.86097 0.94413 0.25002 0.0
Co537 Co 0.89552 0.91899 0.28974 0.0
O538 O 0.9151 0.949 0.25112 0.0
C539 C 0.85363 0.96244 0.33057 0.0
C540 C 0.83861 0.86937 0.33115 0.0
C541 C 0.88791 0.95781 0.23613 0.0
O542 O 0.8353 0.94015 0.31783 0.0
O543 O 0.88551 0.95744 0.32539 0.0
O544 O 0.82881 0.88363 0.26784 0.0
O545 O 0.88317 0.87599 0.25978 0.0
Co546 Co 0.78046 0.11457 0.04124 0.0
O547 O 0.81199 0.11946 0.08203 0.0
O548 O 0.80885 0.07267 0.05525 0.0
C549 C 0.82097 0.10209 -0.00058 0.0
O550 O 0.74647 0.1109 3e-05 0.0
Co551 Co 0.77163 0.14545 0.03975 0.0
O552 O 0.74161 0.16503 0.00113 0.0
C553 C 0.72819 0.10355 0.08058 0.0
C554 C 0.82126 0.08853 0.08114 0.0
C555 C 0.73279 0.13784 -0.01385 0.0
O556 O 0.75047 0.08523 0.06783 0.0
O557 O 0.73319 0.13543 0.0754 0.0
O558 O 0.80698 0.07875 0.01783 0.0
O559 O 0.81462 0.1331 0.00978 0.0
Co560 Co 0.64938 0.57601 0.91017 0.0
O561 O 0.60858 0.57113 0.87865 0.0
O562 O 0.6354 0.61789 0.88177 0.0
C563 C 0.69124 0.58846 0.86964 0.0
O564 O 0.6906 0.57967 0.94415 0.0
Co565 Co 0.65086 0.54514 0.91901 0.0
O566 O 0.68948 0.52554 0.94903 0.0
C567 C 0.61006 0.58706 0.96245 0.0
C568 C 0.60951 0.60204 0.86934 0.0
C569 C 0.70448 0.55273 0.95783 0.0
O570 O 0.62281 0.60537 0.94015 0.0
O571 O 0.61522 0.55518 0.95746 0.0
O572 O 0.67282 0.61179 0.88363 0.0
O573 O 0.68083 0.55746 0.87601 0.0
Co574 Co 0.14934 0.86463 0.03041 0.0
O575 O 0.10856 0.86953 0.06194 0.0
O576 O 0.13535 0.82274 0.05881 0.0
C577 C 0.19118 0.85217 0.07092 0.0
O578 O 0.19056 0.86097 -0.00358 0.0
Co579 Co 0.15085 0.89554 0.02157 0.0
O580 O 0.18948 0.9151 -0.00845 0.0
C581 C 0.11002 0.85364 -0.02184 0.0
C582 C 0.10946 0.8386 0.07122 0.0
C583 C 0.20446 0.8879 -0.01726 0.0
O584 O 0.12274 0.83529 0.00043 0.0
O585 O 0.11521 0.88553 -0.01689 0.0
O586 O 0.17277 0.82883 0.05694 0.0
O587 O 0.18081 0.88318 0.06456 0.0
Co588 Co 0.82602 0.39932 0.7804 0.0
O589 O 0.82111 0.35852 0.8119 0.0
O590 O 0.8679 0.3853 0.8088 0.0
C591 C 0.83849 0.44116 0.82094 0.0
O592 O 0.8297 0.44055 0.74643 0.0
Co593 Co 0.79516 0.40081 0.77156 0.0
O594 O 0.77557 0.43943 0.74154 0.0
C595 C 0.83706 0.35999 0.72812 0.0
C596 C 0.85203 0.35941 0.82119 0.0
C597 C 0.80276 0.45442 0.73274 0.0
O598 O 0.85538 0.37274 0.75041 0.0
O599 O 0.80518 0.36517 0.73311 0.0
O600 O 0.86181 0.42272 0.80695 0.0
O601 O 0.80749 0.43077 0.81456 0.0
Co602 Co 0.29129 0.07597 0.53045 0.0
O603 O 0.33207 0.07108 0.56198 0.0
O604 O 0.3053 0.11787 0.55883 0.0
C605 C 0.24946 0.08845 0.57095 0.0
O606 O 0.25008 0.07963 0.49645 0.0
Co607 Co 0.28978 0.04506 0.52161 0.0
O608 O 0.25115 0.0255 0.4916 0.0
C609 C 0.33063 0.08694 0.4782 0.0
C610 C 0.33118 0.102 0.57125 0.0
C611 C 0.23618 0.0527 0.48278 0.0
O612 O 0.3179 0.1053 0.50046 0.0
O613 O 0.32543 0.05506 0.48316 0.0
O614 O 0.26787 0.11179 0.55696 0.0
O615 O 0.25982 0.05743 0.5646 0.0
Co616 Co 0.11461 0.04126 0.78042 0.0
O617 O 0.11949 0.08203 0.81196 0.0
O618 O 0.07271 0.05525 0.80882 0.0
C619 C 0.10214 -0.00058 0.82092 0.0
O620 O 0.11095 5e-05 0.74642 0.0
Co621 Co 0.14552 0.03976 0.77158 0.0
O622 O 0.16509 0.00113 0.74157 0.0
C623 C 0.10362 0.08058 0.72817 0.0
C624 C 0.08857 0.08112 0.82126 0.0
C625 C 0.13789 -0.01385 0.73275 0.0
O626 O 0.08526 0.06786 0.75044 0.0
O627 O 0.13551 0.07539 0.73312 0.0
O628 O 0.07879 0.01783 0.80693 0.0
O629 O 0.13315 0.00979 0.81457 0.0
Co630 Co 0.79126 0.36458 0.41017 0.0
O631 O 0.83205 0.36945 0.37864 0.0
O632 O 0.80523 0.32269 0.38176 0.0
C633 C 0.7494 0.35213 0.36963 0.0
O634 O 0.75004 0.36092 0.44415 0.0
Co635 Co 0.78978 0.39544 0.41901 0.0
O636 O 0.75117 0.41505 0.44903 0.0
C637 C 0.83059 0.35352 0.46243 0.0
C638 C 0.83113 0.33854 0.36933 0.0
C639 C 0.73617 0.38786 0.45783 0.0
O640 O 0.81783 0.33521 0.44014 0.0
O641 O 0.82543 0.38541 0.45744 0.0
O642 O 0.76782 0.3288 0.38363 0.0
O643 O 0.7598 0.38312 0.37601 0.0
Co644 Co 0.82603 0.54122 0.66018 0.0
O645 O 0.82112 0.58202 0.62867 0.0
O646 O 0.86791 0.55523 0.63177 0.0
C647 C 0.83849 0.49938 0.61963 0.0
O648 O 0.8297 0.49999 0.69414 0.0
Co649 Co 0.79517 0.53973 0.66902 0.0
O650 O 0.77557 0.50111 0.69904 0.0
C651 C 0.83708 0.58054 0.71245 0.0
C652 C 0.85204 0.58113 0.61938 0.0
C653 C 0.80276 0.48612 0.70783 0.0
O654 O 0.8554 0.56779 0.69016 0.0
O655 O 0.8052 0.57537 0.70746 0.0
O656 O 0.86182 0.51781 0.63362 0.0
O657 O 0.80749 0.50977 0.62601 0.0
Co658 Co 0.61464 0.39937 0.16019 0.0
O659 O 0.61954 0.35857 0.12868 0.0
O660 O 0.57276 0.38536 0.13178 0.0
C661 C 0.60218 0.44121 0.11964 0.0
O662 O 0.61097 0.4406 0.19416 0.0
Co663 Co 0.6455 0.40086 0.16903 0.0
O664 O 0.6651 0.43948 0.19905 0.0
C665 C 0.60359 0.36005 0.21247 0.0
C666 C 0.58862 0.35946 0.11939 0.0
C667 C 0.63791 0.45447 0.20784 0.0
O668 O 0.58528 0.3728 0.19017 0.0
O669 O 0.63547 0.36523 0.20748 0.0
O670 O 0.57885 0.42278 0.13364 0.0
O671 O 0.63318 0.43082 0.12602 0.0
Co672 Co 0.52706 0.79079 0.85944 0.0
O673 O 0.55983 0.83004 0.85812 0.0
O674 O 0.53174 0.81503 0.81359 0.0
C675 C 0.47752 0.82175 0.84603 0.0
O676 O 0.49437 0.7495 0.85909 0.0
Co677 Co 0.52765 0.78372 0.8912 0.0
O678 O 0.49576 0.7482 0.91345 0.0
C679 C 0.57584 0.7464 0.85098 0.0
C680 C 0.55564 0.83389 0.82612 0.0
C681 C 0.48326 0.73529 0.88667 0.0
O682 O 0.55885 0.76478 0.83187 0.0
O683 O 0.56908 0.75081 0.88265 0.0
O684 O 0.49689 0.80841 0.82309 0.0
O685 O 0.48947 0.81929 0.877 0.0
Co686 Co 0.39985 0.27708 0.10946 0.0
O687 O 0.3606 0.30985 0.10814 0.0
O688 O 0.3756 0.28175 0.06362 0.0
C689 C 0.36886 0.22753 0.09606 0.0
O690 O 0.44115 0.24439 0.1091 0.0
Co691 Co 0.40694 0.27766 0.14123 0.0
O692 O 0.44245 0.24576 0.16346 0.0
C693 C 0.44424 0.32584 0.10102 0.0
C694 C 0.35674 0.30565 0.07614 0.0
C695 C 0.45536 0.23327 0.13668 0.0
O696 O 0.42585 0.30888 0.08188 0.0
O697 O 0.43987 0.31909 0.13269 0.0
O698 O 0.38222 0.24691 0.07313 0.0
O699 O 0.37135 0.23949 0.12702 0.0
Co700 Co 0.91359 0.1498 0.35945 0.0
O701 O 0.88083 0.11054 0.35812 0.0
O702 O 0.90891 0.12555 0.3136 0.0
C703 C 0.96314 0.11884 0.34604 0.0
O704 O 0.94628 0.19109 0.35909 0.0
Co705 Co 0.91301 0.15687 0.39121 0.0
O706 O 0.94489 0.1924 0.41345 0.0
C707 C 0.8648 0.19418 0.35098 0.0
C708 C 0.88502 0.10669 0.32613 0.0
C709 C 0.95739 0.20531 0.38667 0.0
O710 O 0.8818 0.1758 0.33187 0.0
O711 O 0.87156 0.18977 0.38265 0.0
O712 O 0.94376 0.13218 0.32309 0.0
O713 O 0.95119 0.12131 0.377 0.0
Co714 Co 0.04081 0.66354 0.60945 0.0
O715 O 0.08006 0.63078 0.60813 0.0
O716 O 0.06505 0.65887 0.56361 0.0
C717 C 0.07179 0.7131 0.59604 0.0
O718 O -0.00049 0.69622 0.60909 0.0
Co719 Co 0.03372 0.66297 0.64122 0.0
O720 O -0.00179 0.69486 0.66345 0.0
C721 C -0.00358 0.61477 0.60102 0.0
C722 C 0.08392 0.63497 0.57613 0.0
C723 C -0.0147 0.70735 0.63666 0.0
O724 O 0.01481 0.63173 0.58187 0.0
O725 O 0.0008 0.62154 0.63269 0.0
O726 O 0.05843 0.69371 0.57311 0.0
O727 O 0.0693 0.70114 0.627 0.0
Co728 Co 0.52708 0.14984 0.58117 0.0
O729 O 0.55987 0.1106 0.58249 0.0
O730 O 0.53178 0.1256 0.62702 0.0
C731 C 0.47755 0.11886 0.59459 0.0
O732 O 0.49438 0.19112 0.58153 0.0
Co733 Co 0.52766 0.15691 0.54941 0.0
O734 O 0.49575 0.19242 0.52717 0.0
C735 C 0.57585 0.19425 0.58962 0.0
C736 C 0.55568 0.10675 0.61449 0.0
C737 C 0.48326 0.20532 0.55395 0.0
O738 O 0.55887 0.17586 0.60874 0.0
O739 O 0.56909 0.18984 0.55796 0.0
O740 O 0.49693 0.13221 0.61753 0.0
O741 O 0.4895 0.12132 0.56362 0.0
Co742 Co 0.0408 0.27704 0.83115 0.0
O743 O 0.08005 0.3098 0.83247 0.0
O744 O 0.06505 0.28172 0.87699 0.0
C745 C 0.07178 0.22749 0.84457 0.0
O746 O -0.0005 0.24435 0.83151 0.0
Co747 Co 0.03371 0.27761 0.79938 0.0
O748 O -0.0018 0.2457 0.77716 0.0
C749 C -0.00359 0.32579 0.83958 0.0
C750 C 0.08391 0.30561 0.86447 0.0
C751 C -0.01471 0.23321 0.80394 0.0
O752 O 0.0148 0.30884 0.85873 0.0
O753 O 0.00078 0.31903 0.80791 0.0
O754 O 0.05843 0.24687 0.86749 0.0
O755 O 0.06929 0.23944 0.81361 0.0
Co756 Co 0.91356 0.79076 0.08115 0.0
O757 O 0.88078 0.83 0.08247 0.0
O758 O 0.90887 0.815 0.127 0.0
C759 C 0.96309 0.82175 0.09457 0.0
O760 O 0.94627 0.74948 0.08151 0.0
Co761 Co 0.91299 0.78368 0.04939 0.0
O762 O 0.94489 0.74818 0.02716 0.0
C763 C 0.8648 0.74634 0.0896 0.0
C764 C 0.88496 0.83385 0.11447 0.0
C765 C 0.95739 0.73528 0.05394 0.0
O766 O 0.88178 0.76474 0.10872 0.0
O767 O 0.87156 0.75076 0.05794 0.0
O768 O 0.94372 0.8084 0.11751 0.0
O769 O 0.95115 0.81928 0.0636 0.0
Co770 Co 0.39986 0.66352 0.33116 0.0
O771 O 0.36061 0.63074 0.33248 0.0
O772 O 0.37561 0.65884 0.377 0.0
C773 C 0.36886 0.71306 0.34457 0.0
O774 O 0.44115 0.69622 0.33152 0.0
Co775 Co 0.40695 0.66294 0.29939 0.0
O776 O 0.44245 0.69485 0.27716 0.0
C777 C 0.44426 0.61477 0.33961 0.0
C778 C 0.35676 0.63494 0.36448 0.0
C779 C 0.45535 0.70735 0.30394 0.0
O780 O 0.42587 0.63173 0.35875 0.0
O781 O 0.43988 0.62153 0.30794 0.0
O782 O 0.38222 0.69369 0.36749 0.0
O783 O 0.37135 0.7011 0.3136 0.0
Co784 Co 0.8595 0.52702 0.79079 0.0
O785 O 0.85818 0.55977 0.83005 0.0
O786 O 0.81365 0.5317 0.81503 0.0
C787 C 0.84607 0.47747 0.82173 0.0
O788 O 0.85914 0.49435 0.74948 0.0
Co789 Co 0.89128 0.52758 0.7837 0.0
O790 O 0.9135 0.49568 0.74819 0.0
C791 C 0.85109 0.57579 0.74641 0.0
C792 C 0.82618 0.55558 0.8339 0.0
C793 C 0.88671 0.4832 0.73527 0.0
O794 O 0.83194 0.55884 0.7648 0.0
O795 O 0.88275 0.56901 0.75078 0.0
O796 O 0.82314 0.49685 0.80839 0.0
O797 O 0.87705 0.48941 0.81927 0.0
Co798 Co 0.6636 0.60947 0.04078 0.0
O799 O 0.63084 0.60815 0.08004 0.0
O800 O 0.65891 0.56363 0.06502 0.0
C801 C 0.71316 0.59604 0.07176 0.0
O802 O 0.69628 0.6091 -0.00052 0.0
Co803 Co 0.66304 0.64124 0.0337 0.0
O804 O 0.69495 0.66346 -0.00181 0.0
C805 C 0.61483 0.60106 -0.0036 0.0
C806 C 0.63503 0.57616 0.08389 0.0
C807 C 0.70742 0.63667 -0.01473 0.0
O808 O 0.63177 0.58191 0.01479 0.0
O809 O 0.62161 0.63272 0.00077 0.0
O810 O 0.69376 0.57312 0.0584 0.0
O811 O 0.70121 0.62701 0.06927 0.0
Co812 Co 0.58115 0.41359 0.29079 0.0
O813 O 0.58246 0.38084 0.33005 0.0
O814 O 0.62699 0.40891 0.31505 0.0
C815 C 0.59458 0.46315 0.32177 0.0
O816 O 0.58153 0.44626 0.24949 0.0
Co817 Co 0.54938 0.41302 0.2837 0.0
O818 O 0.52717 0.44492 0.24819 0.0
C819 C 0.58958 0.36482 0.24642 0.0
C820 C 0.61445 0.38502 0.33391 0.0
C821 C 0.55396 0.4574 0.23528 0.0
O822 O 0.60873 0.38177 0.26481 0.0
O823 O 0.55791 0.37159 0.25078 0.0
O824 O 0.6175 0.44375 0.30842 0.0
O825 O 0.56361 0.4512 0.31928 0.0
Co826 Co 0.77706 0.33112 0.54078 0.0
O827 O 0.80982 0.33244 0.58003 0.0
O828 O 0.78175 0.37697 0.56501 0.0
C829 C 0.72751 0.34455 0.57176 0.0
O830 O 0.74437 0.33149 0.49948 0.0
Co831 Co 0.77762 0.29935 0.53369 0.0
O832 O 0.7457 0.27713 0.49818 0.0
C833 C 0.82583 0.33952 0.49639 0.0
C834 C 0.80564 0.36444 0.58388 0.0
C835 C 0.73323 0.30392 0.48527 0.0
O836 O 0.80888 0.35868 0.51478 0.0
O837 O 0.81904 0.30786 0.50076 0.0
O838 O 0.7469 0.36747 0.55839 0.0
O839 O 0.73945 0.31359 0.56927 0.0
Co840 Co 0.85948 0.41351 0.64978 0.0
O841 O 0.85815 0.38076 0.61052 0.0
O842 O 0.81363 0.40883 0.62555 0.0
C843 C 0.84606 0.46306 0.61884 0.0
O844 O 0.85913 0.44618 0.69109 0.0
Co845 Co 0.89127 0.41294 0.65687 0.0
O846 O 0.91349 0.44485 0.69238 0.0
C847 C 0.85106 0.36475 0.69416 0.0
C848 C 0.82615 0.38495 0.60668 0.0
C849 C 0.8867 0.45732 0.7053 0.0
O850 O 0.83191 0.38169 0.67577 0.0
O851 O 0.88273 0.37152 0.68979 0.0
O852 O 0.82312 0.44368 0.63218 0.0
O853 O 0.87703 0.45112 0.6213 0.0
Co854 Co 0.7771 0.60943 0.89979 0.0
O855 O 0.80987 0.60809 0.86055 0.0
O856 O 0.78178 0.56358 0.87556 0.0
C857 C 0.72756 0.59602 0.86883 0.0
O858 O 0.74441 0.60908 0.94109 0.0
Co859 Co 0.77769 0.64119 0.90687 0.0
O860 O 0.74581 0.66343 0.94239 0.0
C861 C 0.82588 0.60096 0.94419 0.0
C862 C 0.80568 0.5761 0.8567 0.0
C863 C 0.7333 0.63666 0.95529 0.0
O864 O 0.80889 0.58184 0.9258 0.0
O865 O 0.81913 0.63262 0.93978 0.0
O866 O 0.74693 0.57308 0.88217 0.0
O867 O 0.73951 0.62699 0.87129 0.0
Co868 Co 0.58119 0.52707 0.14979 0.0
O869 O 0.58252 0.55983 0.11054 0.0
O870 O 0.62704 0.53175 0.12555 0.0
C871 C 0.59461 0.47753 0.11883 0.0
O872 O 0.58155 0.49439 0.19109 0.0
Co873 Co 0.54943 0.52766 0.15687 0.0
O874 O 0.52719 0.49577 0.19238 0.0
C875 C 0.58966 0.57585 0.19419 0.0
C876 C 0.61452 0.55565 0.10669 0.0
C877 C 0.55397 0.48328 0.2053 0.0
O878 O 0.60877 0.55887 0.1758 0.0
O879 O 0.55799 0.56909 0.18978 0.0
O880 O 0.61755 0.49691 0.13218 0.0
O881 O 0.56364 0.48948 0.1213 0.0
Co882 Co 0.66353 0.33117 0.3998 0.0
O883 O 0.63076 0.33251 0.36056 0.0
O884 O 0.65886 0.37702 0.37557 0.0
C885 C 0.71307 0.34457 0.36883 0.0
O886 O 0.69623 0.33151 0.44109 0.0
Co887 Co 0.66294 0.29941 0.40688 0.0
O888 O 0.69483 0.27716 0.44239 0.0
C889 C 0.61476 0.33964 0.44421 0.0
C890 C 0.63495 0.36451 0.35672 0.0
C891 C 0.70734 0.30393 0.4553 0.0
O892 O 0.63175 0.35875 0.42582 0.0
O893 O 0.62151 0.30797 0.43979 0.0
O894 O 0.69371 0.36752 0.38218 0.0
O895 O 0.70112 0.31361 0.3713 0.0
Co896 Co 0.79081 0.85945 0.52706 0.0
O897 O 0.83006 0.85812 0.55983 0.0
O898 O 0.81504 0.8136 0.53175 0.0
C899 C 0.82176 0.84603 0.47752 0.0
O900 O 0.74951 0.85911 0.49437 0.0
Co901 Co 0.78373 0.89123 0.52764 0.0
O902 O 0.74823 0.91347 0.49573 0.0
C903 C 0.74641 0.85103 0.57582 0.0
C904 C 0.83391 0.82613 0.55564 0.0
C905 C 0.73531 0.88668 0.48324 0.0
O906 O 0.7648 0.83188 0.55887 0.0
O907 O 0.7508 0.8827 0.56906 0.0
O908 O 0.80842 0.82309 0.4969 0.0
O909 O 0.81931 0.877 0.48947 0.0
Co910 Co 0.29083 0.58113 0.41357 0.0
O911 O 0.33008 0.58244 0.3808 0.0
O912 O 0.31509 0.62697 0.40888 0.0
C913 C 0.32182 0.59455 0.46312 0.0
O914 O 0.24954 0.58151 0.44625 0.0
Co915 Co 0.28374 0.54939 0.41299 0.0
O916 O 0.24822 0.52715 0.44487 0.0
C917 C 0.24644 0.5896 0.36478 0.0
C918 C 0.33394 0.61444 0.38498 0.0
C919 C 0.23532 0.55394 0.45737 0.0
O920 O 0.26483 0.60871 0.38177 0.0
O921 O 0.25083 0.55794 0.37155 0.0
O922 O 0.30847 0.61747 0.44373 0.0
O923 O 0.31933 0.56359 0.45116 0.0
Co924 Co 0.6095 0.04082 0.66356 0.0
O925 O 0.60819 0.08009 0.63081 0.0
O926 O 0.56365 0.06506 0.65887 0.0
C927 C 0.59607 0.07176 0.7131 0.0
O928 O 0.60913 -0.00049 0.69622 0.0
Co929 Co 0.64129 0.03373 0.663 0.0
O930 O 0.66349 -0.00178 0.6949 0.0
C931 C 0.60109 -0.00356 0.61478 0.0
C932 C 0.57619 0.08394 0.63499 0.0
C933 C 0.6367 -0.0147 0.70737 0.0
O934 O 0.58194 0.01484 0.63172 0.0
O935 O 0.63276 0.00081 0.62157 0.0
O936 O 0.57314 0.05842 0.69372 0.0
O937 O 0.62705 0.0693 0.70117 0.0
Co938 Co 0.14982 0.35944 0.91356 0.0
O939 O 0.11057 0.35812 0.88078 0.0
O940 O 0.12557 0.3136 0.90888 0.0
C941 C 0.11883 0.34602 0.96311 0.0
O942 O 0.19111 0.35907 0.94625 0.0
Co943 Co 0.1569 0.39118 0.91298 0.0
O944 O 0.19242 0.41343 0.94486 0.0
C945 C 0.19422 0.35097 0.86478 0.0
C946 C 0.10672 0.32612 0.88497 0.0
C947 C 0.20533 0.38665 0.95736 0.0
O948 O 0.17583 0.33185 0.88177 0.0
O949 O 0.18981 0.38263 0.87154 0.0
O950 O 0.13218 0.3231 0.94372 0.0
O951 O 0.12132 0.37698 0.95115 0.0
Co952 Co 0.33114 0.3998 0.66356 0.0
O953 O 0.33245 0.36055 0.63079 0.0
O954 O 0.37698 0.37555 0.65887 0.0
C955 C 0.34457 0.36881 0.71311 0.0
O956 O 0.33152 0.44109 0.69625 0.0
Co957 Co 0.2994 0.40688 0.66298 0.0
O958 O 0.27716 0.4424 0.69488 0.0
C959 C 0.33961 0.4442 0.61479 0.0
C960 C 0.36445 0.35669 0.63497 0.0
C961 C 0.30395 0.4553 0.70737 0.0
O962 O 0.35873 0.4258 0.63177 0.0
O963 O 0.30795 0.4398 0.62155 0.0
O964 O 0.36749 0.38216 0.69372 0.0
O965 O 0.3136 0.3713 0.70115 0.0
Co966 Co 0.64983 0.08114 0.02708 0.0
O967 O 0.61058 0.08247 0.05984 0.0
O968 O 0.6256 0.12699 0.03176 0.0
C969 C 0.61887 0.09455 -0.02246 0.0
O970 O 0.69113 0.08148 -0.00561 0.0
Co971 Co 0.65691 0.04935 0.02766 0.0
O972 O 0.69241 0.02712 -0.00425 0.0
C973 C 0.69423 0.08956 0.07584 0.0
C974 C 0.60673 0.11446 0.05566 0.0
C975 C 0.70533 0.05391 -0.01674 0.0
O976 O 0.67584 0.10871 0.05889 0.0
O977 O 0.68985 0.05789 0.06907 0.0
O978 O 0.63222 0.11749 -0.00308 0.0
O979 O 0.62133 0.06358 -0.01051 0.0
Co980 Co 0.60947 0.89981 0.77705 0.0
O981 O 0.60814 0.86054 0.8098 0.0
O982 O 0.56362 0.87556 0.78173 0.0
C983 C 0.59605 0.86886 0.7275 0.0
O984 O 0.60911 0.94112 0.74438 0.0
Co985 Co 0.64125 0.90689 0.77763 0.0
O986 O 0.66347 0.9424 0.74573 0.0
C987 C 0.60104 0.94418 0.82582 0.0
C988 C 0.57615 0.8567 0.80561 0.0
C989 C 0.63669 0.95532 0.73325 0.0
O990 O 0.5819 0.9258 0.80887 0.0
O991 O 0.63271 0.93981 0.81906 0.0
O992 O 0.57311 0.8822 0.74688 0.0
O993 O 0.62702 0.87133 0.73945 0.0
Co994 Co 0.8312 0.04077 0.27705 0.0
O995 O 0.83252 0.08003 0.3098 0.0
O996 O 0.87705 0.06502 0.28173 0.0
C997 C 0.84461 0.07172 0.2275 0.0
O998 O 0.83155 -0.00053 0.24437 0.0
Co999 Co 0.79942 0.03369 0.27763 0.0
O1000 O 0.77719 -0.00183 0.24573 0.0
C1001 C 0.83963 -0.00361 0.32582 0.0
C1002 C 0.86452 0.08388 0.30562 0.0
C1003 C 0.80397 -0.01474 0.23324 0.0
O1004 O 0.85877 0.01478 0.30886 0.0
O1005 O 0.80796 0.00077 0.31906 0.0
O1006 O 0.86755 0.05838 0.24688 0.0
O1007 O 0.81364 0.06925 0.23945 0.0
Co1008 Co 0.41021 0.14937 0.07604 0.0
O1009 O 0.37867 0.10859 0.07116 0.0
O1010 O 0.38182 0.13539 0.11793 0.0
C1011 C 0.36972 0.19121 0.08849 0.0
O1012 O 0.44422 0.19058 0.07968 0.0
Co1013 Co 0.41905 0.15086 0.04512 0.0
O1014 O 0.44907 0.18949 0.02555 0.0
C1015 C 0.46246 0.11004 0.08702 0.0
C1016 C 0.36938 0.10951 0.10208 0.0
C1017 C 0.45789 0.20447 0.05274 0.0
O1018 O 0.4402 0.12277 0.10538 0.0
O1019 O 0.4575 0.11522 0.05514 0.0
O1020 O 0.3837 0.1728 0.11184 0.0
O1021 O 0.37606 0.18084 0.05749 0.0
Co1022 Co 0.54128 0.66019 0.826 0.0
O1023 O 0.58207 0.62867 0.8211 0.0
O1024 O 0.55529 0.63179 0.86789 0.0
C1025 C 0.49945 0.61967 0.83847 0.0
O1026 O 0.50005 0.69417 0.82967 0.0
Co1027 Co 0.53977 0.66903 0.7951 0.0
O1028 O 0.50113 0.69903 0.77553 0.0
C1029 C 0.5806 0.71244 0.83699 0.0
C1030 C 0.58118 0.61939 0.85203 0.0
C1031 C 0.48615 0.70784 0.80273 0.0
O1032 O 0.56787 0.69018 0.85534 0.0
O1033 O 0.57542 0.70748 0.8051 0.0
O1034 O 0.51787 0.63366 0.86182 0.0
O1035 O 0.50981 0.62603 0.80746 0.0
Co1036 Co 0.03043 0.79125 0.57601 0.0
O1037 O 0.06196 0.83203 0.57112 0.0
O1038 O 0.05882 0.80524 0.6179 0.0
C1039 C 0.07093 0.74942 0.58847 0.0
O1040 O -0.00357 0.75003 0.57966 0.0
Co1041 Co 0.02158 0.78975 0.5451 0.0
O1042 O -0.00843 0.75112 0.52553 0.0
C1043 C -0.02183 0.83057 0.587 0.0
C1044 C 0.07126 0.83112 0.60204 0.0
C1045 C -0.01724 0.73614 0.55273 0.0
O1046 O 0.00044 0.81785 0.60535 0.0
O1047 O -0.01687 0.82539 0.55511 0.0
O1048 O 0.05694 0.76782 0.61182 0.0
O1049 O 0.06458 0.75978 0.55746 0.0
Co1050 Co 0.89936 0.2804 0.326 0.0
O1051 O 0.85856 0.31191 0.32109 0.0
O1052 O 0.88534 0.30879 0.36788 0.0
C1053 C 0.94118 0.32092 0.33846 0.0
O1054 O 0.94059 0.24642 0.32966 0.0
Co1055 Co 0.90086 0.27155 0.29509 0.0
O1056 O 0.93951 0.24155 0.27553 0.0
C1057 C 0.86004 0.22813 0.33699 0.0
C1058 C 0.85945 0.32119 0.35201 0.0
C1059 C 0.95449 0.23275 0.30273 0.0
O1060 O 0.87277 0.25041 0.35534 0.0
O1061 O 0.86522 0.23309 0.3051 0.0
O1062 O 0.92277 0.30693 0.36181 0.0
O1063 O 0.93082 0.31455 0.30745 0.0
Co1064 Co 0.4102 0.79124 0.36459 0.0
O1065 O 0.37865 0.83201 0.36947 0.0
O1066 O 0.3818 0.80521 0.32269 0.0
C1067 C 0.36971 0.74939 0.35213 0.0
O1068 O 0.44421 0.75003 0.36094 0.0
Co1069 Co 0.41904 0.78974 0.3955 0.0
O1070 O 0.44907 0.75113 0.41508 0.0
C1071 C 0.46244 0.83059 0.3536 0.0
C1072 C 0.36935 0.83109 0.33855 0.0
C1073 C 0.45789 0.73615 0.38788 0.0
O1074 O 0.44017 0.81785 0.33525 0.0
O1075 O 0.45748 0.8254 0.38549 0.0
O1076 O 0.38369 0.7678 0.32878 0.0
O1077 O 0.37606 0.75976 0.38314 0.0
Co1078 Co 0.8994 0.66015 0.11459 0.0
O1079 O 0.85863 0.6286 0.11947 0.0
O1080 O 0.88541 0.63175 0.07269 0.0
C1081 C 0.94125 0.61966 0.10213 0.0
O1082 O 0.94061 0.69416 0.11094 0.0
Co1083 Co 0.9009 0.66899 0.1455 0.0
O1084 O 0.93952 0.69901 0.16507 0.0
C1085 C 0.86005 0.71238 0.1036 0.0
C1086 C 0.85954 0.61931 0.08855 0.0
C1087 C 0.95449 0.70783 0.13788 0.0
O1088 O 0.87279 0.69012 0.08524 0.0
O1089 O 0.86524 0.70743 0.13548 0.0
O1090 O 0.92284 0.63364 0.07878 0.0
O1091 O 0.93088 0.62601 0.13314 0.0
Co1092 Co 0.03043 0.14933 0.86461 0.0
O1093 O 0.06196 0.10856 0.86951 0.0
O1094 O 0.05881 0.13533 0.82272 0.0
C1095 C 0.07093 0.19117 0.85214 0.0
O1096 O -0.00357 0.19055 0.86095 0.0
Co1097 Co 0.02158 0.15084 0.89552 0.0
O1098 O -0.00843 0.18946 0.91509 0.0
C1099 C -0.02183 0.11 0.85364 0.0
C1100 C 0.07123 0.10945 0.83858 0.0
C1101 C -0.01725 0.20444 0.88789 0.0
O1102 O 0.00044 0.12273 0.83528 0.0
O1103 O -0.01687 0.11519 0.88552 0.0
O1104 O 0.05694 0.17275 0.8288 0.0
O1105 O 0.06458 0.18081 0.88316 0.0
Co1106 Co 0.54126 0.28045 0.6146 0.0
O1107 O 0.58204 0.31199 0.61948 0.0
O1108 O 0.55525 0.30884 0.57271 0.0
C1109 C 0.49941 0.32094 0.60214 0.0
O1110 O 0.50005 0.24644 0.61095 0.0
Co1111 Co 0.53976 0.27161 0.64551 0.0
O1112 O 0.50114 0.24159 0.66509 0.0
C1113 C 0.5806 0.22821 0.60362 0.0
C1114 C 0.58113 0.32129 0.58856 0.0
C1115 C 0.48616 0.23277 0.63789 0.0
O1116 O 0.56787 0.25047 0.58526 0.0
O1117 O 0.57542 0.23317 0.6355 0.0
O1118 O 0.51782 0.30696 0.57879 0.0
O1119 O 0.50978 0.31459 0.63315 0.0
Co1120 Co 0.07602 0.41019 0.14933 0.0
O1121 O 0.07114 0.37865 0.10855 0.0
O1122 O 0.11791 0.38179 0.13535 0.0
C1123 C 0.08847 0.36969 0.19117 0.0
O1124 O 0.07968 0.44419 0.19054 0.0
Co1125 Co 0.04511 0.41904 0.15083 0.0
O1126 O 0.02554 0.44905 0.18945 0.0
C1127 C 0.08702 0.46244 0.11001 0.0
C1128 C 0.10206 0.36935 0.10947 0.0
C1129 C 0.05274 0.45786 0.20443 0.0
O1130 O 0.10537 0.44016 0.12273 0.0
O1131 O 0.05514 0.4575 0.1152 0.0
O1132 O 0.11183 0.38368 0.17277 0.0
O1133 O 0.05747 0.37605 0.1808 0.0
Co1134 Co 0.28044 0.32599 0.89934 0.0
O1135 O 0.31198 0.32111 0.85857 0.0
O1136 O 0.30883 0.36789 0.88535 0.0
C1137 C 0.32094 0.33846 0.94118 0.0
O1138 O 0.24643 0.32965 0.94055 0.0
Co1139 Co 0.2716 0.29508 0.90085 0.0
O1140 O 0.24159 0.27551 0.93948 0.0
C1141 C 0.22818 0.33697 0.86002 0.0
C1142 C 0.32127 0.35203 0.85947 0.0
C1143 C 0.23277 0.30271 0.95445 0.0
O1144 O 0.25045 0.35533 0.87274 0.0
O1145 O 0.23313 0.30509 0.86521 0.0
O1146 O 0.30695 0.36181 0.92277 0.0
O1147 O 0.31459 0.30745 0.93081 0.0
Co1148 Co 0.36462 0.53041 0.64934 0.0
O1149 O 0.3695 0.56195 0.60857 0.0
O1150 O 0.32272 0.5588 0.63536 0.0
C1151 C 0.35216 0.57091 0.69119 0.0
O1152 O 0.36096 0.4964 0.69056 0.0
Co1153 Co 0.39553 0.52156 0.65085 0.0
O1154 O 0.4151 0.49156 0.68947 0.0
C1155 C 0.35362 0.47815 0.61002 0.0
C1156 C 0.33858 0.57125 0.60948 0.0
C1157 C 0.3879 0.48274 0.70445 0.0
O1158 O 0.33527 0.50043 0.62274 0.0
O1159 O 0.38551 0.4831 0.61521 0.0
O1160 O 0.32881 0.55692 0.67278 0.0
O1161 O 0.38317 0.56455 0.68082 0.0
Co1162 Co 0.16022 0.6146 0.39933 0.0
O1163 O 0.12868 0.61948 0.35855 0.0
O1164 O 0.13182 0.57271 0.38534 0.0
C1165 C 0.11971 0.60214 0.44117 0.0
O1166 O 0.19422 0.61094 0.44055 0.0
Co1167 Co 0.16907 0.64551 0.40083 0.0
O1168 O 0.19907 0.66508 0.43947 0.0
C1169 C 0.21248 0.60361 0.36002 0.0
C1170 C 0.11938 0.58857 0.35946 0.0
C1171 C 0.20789 0.63788 0.45444 0.0
O1172 O 0.1902 0.58525 0.37273 0.0
O1173 O 0.20753 0.63549 0.36521 0.0
O1174 O 0.1337 0.57879 0.42276 0.0
O1175 O 0.12607 0.63315 0.4308 0.0
Co1176 Co 0.07602 0.53043 0.29124 0.0
O1177 O 0.07113 0.56196 0.33202 0.0
O1178 O 0.11792 0.5588 0.30526 0.0
C1179 C 0.08851 0.57093 0.24942 0.0
O1180 O 0.07968 0.49643 0.25003 0.0
Co1181 Co 0.04511 0.52159 0.28974 0.0
O1182 O 0.02554 0.49159 0.2511 0.0
C1183 C 0.08698 0.47817 0.33057 0.0
C1184 C 0.10206 0.57122 0.33114 0.0
C1185 C 0.05274 0.48277 0.23613 0.0
O1186 O 0.10535 0.50044 0.31785 0.0
O1187 O 0.0551 0.48313 0.32537 0.0
O1188 O 0.11185 0.55694 0.26783 0.0
O1189 O 0.05749 0.56458 0.25977 0.0
Co1190 Co 0.1602 0.32599 0.04126 0.0
O1191 O 0.12867 0.3211 0.08204 0.0
O1192 O 0.13182 0.36788 0.05526 0.0
C1193 C 0.11969 0.33845 -0.00057 0.0
O1194 O 0.1942 0.32964 4e-05 0.0
Co1195 Co 0.16904 0.29508 0.03976 0.0
O1196 O 0.19905 0.27551 0.00112 0.0
C1197 C 0.21246 0.33697 0.08058 0.0
C1198 C 0.1194 0.35202 0.08115 0.0
C1199 C 0.20787 0.30271 -0.01385 0.0
O1200 O 0.19019 0.35532 0.06786 0.0
O1201 O 0.2075 0.30508 0.07539 0.0
O1202 O 0.13368 0.3618 0.01784 0.0
O1203 O 0.12604 0.30744 0.00979 0.0
Co1204 Co 0.36462 0.41017 0.79126 0.0
O1205 O 0.36952 0.37864 0.83203 0.0
O1206 O 0.32273 0.38179 0.80527 0.0
C1207 C 0.35214 0.36967 0.74943 0.0
O1208 O 0.36096 0.44417 0.75004 0.0
Co1209 Co 0.39553 0.41901 0.78975 0.0
O1210 O 0.4151 0.44902 0.75112 0.0
C1211 C 0.35366 0.46243 0.83059 0.0
C1212 C 0.33859 0.36938 0.83115 0.0
C1213 C 0.3879 0.45783 0.73615 0.0
O1214 O 0.33529 0.44016 0.81786 0.0
O1215 O 0.38554 0.45747 0.82539 0.0
O1216 O 0.3288 0.38366 0.76784 0.0
O1217 O 0.38316 0.37602 0.75979 0.0
Co1218 Co 0.28045 0.61461 0.54126 0.0
O1219 O 0.31198 0.6195 0.58204 0.0
O1220 O 0.30882 0.57271 0.55527 0.0
C1221 C 0.32096 0.60212 0.49944 0.0
O1222 O 0.24645 0.61095 0.50004 0.0
Co1223 Co 0.27161 0.64551 0.53975 0.0
O1224 O 0.24161 0.66508 0.50112 0.0
C1225 C 0.22818 0.60364 0.58058 0.0
C1226 C 0.32124 0.58857 0.58116 0.0
C1227 C 0.23279 0.63788 0.48614 0.0
O1228 O 0.25045 0.58528 0.56786 0.0
O1229 O 0.23315 0.63552 0.57539 0.0
O1230 O 0.30696 0.57878 0.51785 0.0
O1231 O 0.31461 0.63314 0.5098 0.0
Co1232 Co 0.14938 0.07599 0.4102 0.0
O1233 O 0.1086 0.07112 0.37867 0.0
O1234 O 0.13539 0.11789 0.38182 0.0
C1235 C 0.19122 0.08845 0.3697 0.0
O1236 O 0.19059 0.07964 0.4442 0.0
Co1237 Co 0.15087 0.04509 0.41904 0.0
O1238 O 0.1895 0.02551 0.44906 0.0
C1239 C 0.11005 0.08698 0.46246 0.0
C1240 C 0.1095 0.10204 0.3694 0.0
C1241 C 0.20448 0.0527 0.45787 0.0
O1242 O 0.12278 0.10534 0.44019 0.0
O1243 O 0.11523 0.0551 0.4575 0.0
O1244 O 0.17281 0.1118 0.38369 0.0
O1245 O 0.18084 0.05744 0.37605 0.0
Co1246 Co 0.64936 0.36461 0.53041 0.0
O1247 O 0.60858 0.36952 0.56194 0.0
O1248 O 0.63534 0.32273 0.55881 0.0
C1249 C 0.69119 0.35214 0.57092 0.0
O1250 O 0.69058 0.36094 0.49642 0.0
Co1251 Co 0.65087 0.39552 0.52157 0.0
O1252 O 0.6895 0.41507 0.49155 0.0
C1253 C 0.61002 0.35363 0.47817 0.0
C1254 C 0.60945 0.3386 0.57121 0.0
C1255 C 0.70447 0.38787 0.48274 0.0
O1256 O 0.62275 0.33528 0.50043 0.0
O1257 O 0.61521 0.38552 0.48313 0.0
O1258 O 0.67276 0.3288 0.55694 0.0
O1259 O 0.68083 0.38315 0.56456 0.0
Co1260 Co 0.32602 0.89932 0.2804 0.0
O1261 O 0.32111 0.85853 0.31192 0.0
O1262 O 0.36791 0.8853 0.30879 0.0
C1263 C 0.33849 0.94113 0.32093 0.0
O1264 O 0.32968 0.94055 0.24642 0.0
Co1265 Co 0.29511 0.90083 0.27156 0.0
O1266 O 0.27555 0.93947 0.24157 0.0
C1267 C 0.337 0.86001 0.22813 0.0
C1268 C 0.35204 0.85941 0.3212 0.0
C1269 C 0.30275 0.95445 0.23276 0.0
O1270 O 0.35536 0.87273 0.25041 0.0
O1271 O 0.30511 0.86521 0.23309 0.0
O1272 O 0.36183 0.92272 0.30693 0.0
O1273 O 0.30748 0.93078 0.31457 0.0
Co1274 Co 0.7913 0.57598 0.0304 0.0
O1275 O 0.83209 0.57107 0.06192 0.0
O1276 O 0.80532 0.61786 0.0588 0.0
C1277 C 0.74948 0.58846 0.07091 0.0
O1278 O 0.75007 0.57965 -0.00359 0.0
Co1279 Co 0.78979 0.54508 0.02156 0.0
O1280 O 0.75115 0.52552 -0.00845 0.0
C1281 C 0.83063 0.58696 -0.02185 0.0
C1282 C 0.83121 0.60199 0.0712 0.0
C1283 C 0.73618 0.55272 -0.01726 0.0
O1284 O 0.8179 0.60532 0.00042 0.0
O1285 O 0.82544 0.55508 -0.01689 0.0
O1286 O 0.7679 0.6118 0.05693 0.0
O1287 O 0.75983 0.55744 0.06455 0.0
Co1288 Co 0.61464 0.54129 0.2804 0.0
O1289 O 0.61955 0.58207 0.31192 0.0
O1290 O 0.57275 0.55531 0.3088 0.0
C1291 C 0.60216 0.49947 0.32092 0.0
O1292 O 0.61097 0.50006 0.24642 0.0
Co1293 Co 0.64554 0.53978 0.27156 0.0
O1294 O 0.66511 0.50115 0.24156 0.0
C1295 C 0.60366 0.58061 0.22815 0.0
C1296 C 0.58863 0.58119 0.3212 0.0
C1297 C 0.63791 0.48617 0.23275 0.0
O1298 O 0.5853 0.56788 0.25042 0.0
O1299 O 0.63554 0.57542 0.2331 0.0
O1300 O 0.57882 0.51788 0.30693 0.0
O1301 O 0.63318 0.50982 0.31456 0.0
Co1302 Co 0.29127 0.86461 0.91018 0.0
O1303 O 0.33205 0.86949 0.87865 0.0
O1304 O 0.30526 0.8227 0.8818 0.0
C1305 C 0.24943 0.85213 0.86968 0.0
O1306 O 0.25005 0.86096 0.94418 0.0
Co1307 Co 0.28977 0.89552 0.91902 0.0
O1308 O 0.25113 0.91509 0.94902 0.0
C1309 C 0.33059 0.85364 0.96244 0.0
C1310 C 0.33115 0.83856 0.86939 0.0
C1311 C 0.23616 0.8879 0.95784 0.0
O1312 O 0.31787 0.83527 0.94017 0.0
O1313 O 0.32541 0.88552 0.95747 0.0
O1314 O 0.26784 0.82879 0.88367 0.0
O1315 O 0.2598 0.88314 0.87602 0.0
Co1316 Co 0.32603 0.04128 0.16022 0.0
O1317 O 0.32113 0.08207 0.12871 0.0
O1318 O 0.36792 0.05529 0.13183 0.0
C1319 C 0.33849 -0.00053 0.1197 0.0
O1320 O 0.32969 5e-05 0.1942 0.0
Co1321 Co 0.29512 0.03978 0.16907 0.0
O1322 O 0.27555 0.00114 0.19906 0.0
C1323 C 0.33702 0.08058 0.2125 0.0
C1324 C 0.35206 0.08118 0.11943 0.0
C1325 C 0.30275 -0.01384 0.20787 0.0
O1326 O 0.35538 0.06787 0.19022 0.0
O1327 O 0.30514 0.0754 0.20754 0.0
O1328 O 0.36184 0.01787 0.13369 0.0
O1329 O 0.30748 0.00983 0.12606 0.0
Co1330 Co 0.11461 0.89934 0.66018 0.0
O1331 O 0.11951 0.85856 0.62866 0.0
O1332 O 0.07272 0.88534 0.63179 0.0
C1333 C 0.10215 0.94117 0.61967 0.0
O1334 O 0.11095 0.94056 0.69418 0.0
Co1335 Co 0.14552 0.90085 0.66903 0.0
O1336 O 0.16509 0.93948 0.69904 0.0
C1337 C 0.10363 0.86002 0.71244 0.0
C1338 C 0.08859 0.85945 0.61938 0.0
C1339 C 0.13789 0.95445 0.70785 0.0
O1340 O 0.08527 0.87274 0.69017 0.0
O1341 O 0.13552 0.86521 0.70748 0.0
O1342 O 0.0788 0.92276 0.63366 0.0
O1343 O 0.13316 0.93081 0.62603 0.0
loop_
_geom_bond_atom_site_label_1
_geom_bond_atom_site_label_2
_geom_bond_distance
_geom_bond_site_symmetry_2
_ccdc_geom_bond_type
Co0 O1 2.216 . S
Co0 O2 2.091 . S
Co0 O4 2.004 . S
Co0 O10 2.021 . S
Co0 O12 2.137 . S
Co0 O13 2.244 . S
O1 Co0 2.216 . S
O1 C8 1.247 . S
O2 Co0 2.091 . S
O2 C8 1.261 . S
C3 O12 1.247 . S
C3 O13 1.272 . S
O4 Co0 2.004 . S
O4 C9 1.259 . S
Co5 O6 2.061 . S
Co5 O11 2.052 . S
Co5 O13 2.135 . S
O6 Co5 2.061 . S
O6 C9 1.235 . S
C7 O10 1.238 . S
C7 O11 1.241 . S
C8 O1 1.247 . S
C8 O2 1.261 . S
C9 O4 1.259 . S
C9 O6 1.235 . S
O10 Co0 2.021 . S
O10 C7 1.238 . S
O11 Co5 2.052 . S
O11 C7 1.241 . S
O12 Co0 2.137 . S
O12 C3 1.247 . S
O13 Co0 2.244 . S
O13 C3 1.272 . S
O13 Co5 2.135 . S
Co14 O15 2.216 . S
Co14 O16 2.091 . S
Co14 O18 2.004 . S
Co14 O24 2.021 . S
Co14 O26 2.137 . S
Co14 O27 2.244 . S
O15 Co14 2.216 . S
O15 C22 1.247 . S
O16 Co14 2.091 . S
O16 C22 1.261 . S
C17 O26 1.247 . S
C17 O27 1.272 . S
O18 Co14 2.004 . S
O18 C23 1.259 . S
Co19 O20 2.061 . S
Co19 O25 2.052 . S
Co19 O27 2.135 . S
O20 Co19 2.061 . S
O20 C23 1.235 . S
C21 O24 1.238 . S
C21 O25 1.241 . S
C22 O15 1.247 . S
C22 O16 1.261 . S
C23 O18 1.259 . S
C23 O20 1.235 . S
O24 Co14 2.021 . S
O24 C21 1.238 . S
O25 Co19 2.052 . S
O25 C21 1.241 . S
O26 Co14 2.137 . S
O26 C17 1.247 . S
O27 Co14 2.244 . S
O27 C17 1.272 . S
O27 Co19 2.135 . S
Co28 O29 2.216 . S
Co28 O30 2.091 . S
Co28 O32 2.004 . S
Co28 O38 2.021 . S
Co28 O40 2.137 . S
Co28 O41 2.244 . S
O29 Co28 2.216 . S
O29 C36 1.247 . S
O30 Co28 2.091 . S
O30 C36 1.261 . S
C31 O40 1.247 . S
C31 O41 1.272 . S
O32 Co28 2.004 . S
O32 C37 1.259 . S
Co33 O34 2.061 . S
Co33 O39 2.052 . S
Co33 O41 2.135 . S
O34 Co33 2.061 . S
O34 C37 1.235 . S
C35 O38 1.238 . S
C35 O39 1.241 . S
C36 O29 1.247 . S
C36 O30 1.261 . S
C37 O32 1.259 . S
C37 O34 1.235 . S
O38 Co28 2.021 . S
O38 C35 1.238 . S
O39 Co33 2.052 . S
O39 C35 1.241 . S
O40 Co28 2.137 . S
O40 C31 1.247 . S
O41 Co28 2.244 . S
O41 C31 1.272 . S
O41 Co33 2.135 . S
Co42 O43 2.216 . S
Co42 O44 2.091 . S
Co42 O46 2.004 . S
Co42 O52 2.021 . S
Co42 O54 2.137 . S
Co42 O55 2.244 . S
O43 Co42 2.216 . S
O43 C50 1.247 . S
O44 Co42 2.091 . S
O44 C50 1.261 . S
C45 O54 1.247 . S
C45 O55 1.272 . S
O46 Co42 2.004 . S
O46 C51 1.259 . S
Co47 O48 2.061 . S
Co47 O53 2.052 . S
Co47 O55 2.135 . S
O48 Co47 2.061 . S
O48 C51 1.235 . S
C49 O52 1.238 . S
C49 O53 1.241 . S
C50 O43 1.247 . S
C50 O44 1.261 . S
C51 O46 1.259 . S
C51 O48 1.235 . S
O52 Co42 2.021 . S
O52 C49 1.238 . S
O53 Co47 2.052 . S
O53 C49 1.241 . S
O54 Co42 2.137 . S
O54 C45 1.247 . S
O55 Co42 2.244 . S
O55 C45 1.272 . S
O55 Co47 2.135 . S
Co56 O57 2.216 . S
Co56 O58 2.091 . S
Co56 O60 2.004 . S
Co56 O66 2.021 . S
Co56 O68 2.137 . S
Co56 O69 2.244 . S
O57 Co56 2.216 . S
O57 C64 1.247 . S
O58 Co56 2.091 . S
O58 C64 1.261 . S
C59 O68 1.247 . S
C59 O69 1.272 . S
O60 Co56 2.004 . S
O60 C65 1.259 . S
Co61 O62 2.061 . S
Co61 O67 2.052 . S
Co61 O69 2.135 . S
O62 Co61 2.061 . S
O62 C65 1.235 . S
C63 O66 1.238 . S
C63 O67 1.241 . S
C64 O57 1.247 . S
C64 O58 1.261 . S
C65 O60 1.259 . S
C65 O62 1.235 . S
O66 Co56 2.021 . S
O66 C63 1.238 . S
O67 Co61 2.052 . S
O67 C63 1.241 . S
O68 Co56 2.137 . S
O68 C59 1.247 . S
O69 Co56 2.244 . S
O69 C59 1.272 . S
O69 Co61 2.135 . S
Co70 O71 2.216 . S
Co70 O72 2.091 . S
Co70 O74 2.004 . S
Co70 O80 2.021 . S
Co70 O82 2.137 . S
Co70 O83 2.244 . S
O71 Co70 2.216 . S
O71 C78 1.247 . S
O72 Co70 2.091 . S
O72 C78 1.261 . S
C73 O82 1.247 . S
C73 O83 1.272 . S
O74 Co70 2.004 . S
O74 C79 1.259 . S
Co75 O76 2.061 . S
Co75 O81 2.052 . S
Co75 O83 2.135 . S
O76 Co75 2.061 . S
O76 C79 1.235 . S
C77 O80 1.238 . S
C77 O81 1.241 . S
C78 O71 1.247 . S
C78 O72 1.261 . S
C79 O74 1.259 . S
C79 O76 1.235 . S
O80 Co70 2.021 . S
O80 C77 1.238 . S
O81 Co75 2.052 . S
O81 C77 1.241 . S
O82 Co70 2.137 . S
O82 C73 1.247 . S
O83 Co70 2.244 . S
O83 C73 1.272 . S
O83 Co75 2.135 . S
Co84 O85 2.216 . S
Co84 O86 2.091 . S
Co84 O88 2.004 . S
Co84 O94 2.021 . S
Co84 O96 2.137 . S
Co84 O97 2.244 . S
O85 Co84 2.216 . S
O85 C92 1.247 . S
O86 Co84 2.091 . S
O86 C92 1.261 . S
C87 O96 1.247 . S
C87 O97 1.272 . S
O88 Co84 2.004 . S
O88 C93 1.259 . S
Co89 O90 2.061 . S
Co89 O95 2.052 . S
Co89 O97 2.135 . S
O90 Co89 2.061 . S
O90 C93 1.235 . S
C91 O94 1.238 . S
C91 O95 1.241 . S
C92 O85 1.247 . S
C92 O86 1.261 . S
C93 O88 1.259 . S
C93 O90 1.235 . S
O94 Co84 2.021 . S
O94 C91 1.238 . S
O95 Co89 2.052 . S
O95 C91 1.241 . S
O96 Co84 2.137 . S
O96 C87 1.247 . S
O97 Co84 2.244 . S
O97 C87 1.272 . S
O97 Co89 2.135 . S
Co98 O99 2.216 . S
Co98 O100 2.091 . S
Co98 O102 2.004 . S
Co98 O108 2.021 . S
Co98 O110 2.137 . S
Co98 O111 2.244 . S
O99 Co98 2.216 . S
O99 C106 1.247 . S
O100 Co98 2.091 . S
O100 C106 1.261 . S
C101 O110 1.247 . S
C101 O111 1.272 . S
O102 Co98 2.004 . S
O102 C107 1.259 . S
Co103 O104 2.061 . S
Co103 O109 2.052 . S
Co103 O111 2.135 . S
O104 Co103 2.061 . S
O104 C107 1.235 . S
C105 O108 1.238 . S
C105 O109 1.241 . S
C106 O99 1.247 . S
C106 O100 1.261 . S
C107 O102 1.259 . S
C107 O104 1.235 . S
O108 Co98 2.021 . S
O108 C105 1.238 . S
O109 Co103 2.052 . S
O109 C105 1.241 . S
O110 Co98 2.137 . S
O110 C101 1.247 . S
O111 Co98 2.244 . S
O111 C101 1.272 . S
O111 Co103 2.135 . S
Co112 O113 2.216 . S
Co112 O114 2.091 . S
Co112 O116 2.004 . S
Co112 O122 2.021 . S
Co112 O124 2.137 . S
Co112 O125 2.244 . S
O113 Co112 2.216 . S
O113 C120 1.247 . S
O114 Co112 2.091 . S
O114 C120 1.261 . S
C115 O124 1.247 . S
C115 O125 1.272 . S
O116 Co112 2.004 . S
O116 C121 1.259 . S
Co117 O118 2.061 . S
Co117 O123 2.052 . S
Co117 O125 2.135 . S
O118 Co117 2.061 . S
O118 C121 1.235 . S
C119 O122 1.238 . S
C119 O123 1.241 . S
C120 O113 1.247 . S
C120 O114 1.261 . S
C121 O116 1.259 . S
C121 O118 1.235 . S
O122 Co112 2.021 . S
O122 C119 1.238 . S
O123 Co117 2.052 . S
O123 C119 1.241 . S
O124 Co112 2.137 . S
O124 C115 1.247 . S
O125 Co112 2.244 . S
O125 C115 1.272 . S
O125 Co117 2.135 . S
Co126 O127 2.216 . S
Co126 O128 2.091 . S
Co126 O130 2.004 . S
Co126 O136 2.021 . S
Co126 O138 2.137 . S
Co126 O139 2.244 . S
O127 Co126 2.216 . S
O127 C134 1.247 . S
O128 Co126 2.091 . S
O128 C134 1.261 . S
C129 O138 1.247 . S
C129 O139 1.272 . S
O130 Co126 2.004 . S
O130 C135 1.259 . S
Co131 O132 2.061 . S
Co131 O137 2.052 . S
Co131 O139 2.135 . S
O132 Co131 2.061 . S
O132 C135 1.235 . S
C133 O136 1.238 . S
C133 O137 1.241 . S
C134 O127 1.247 . S
C134 O128 1.261 . S
C135 O130 1.259 . S
C135 O132 1.235 . S
O136 Co126 2.021 . S
O136 C133 1.238 . S
O137 Co131 2.052 . S
O137 C133 1.241 . S
O138 Co126 2.137 . S
O138 C129 1.247 . S
O139 Co126 2.244 . S
O139 C129 1.272 . S
O139 Co131 2.135 . S
Co140 O141 2.216 . S
Co140 O142 2.091 . S
Co140 O144 2.004 . S
Co140 O150 2.021 . S
Co140 O152 2.137 . S
Co140 O153 2.244 . S
O141 Co140 2.216 . S
O141 C148 1.247 . S
O142 Co140 2.091 . S
O142 C148 1.261 . S
C143 O152 1.247 . S
C143 O153 1.272 . S
O144 Co140 2.004 . S
O144 C149 1.259 . S
Co145 O146 2.061 . S
Co145 O151 2.052 . S
Co145 O153 2.135 . S
O146 Co145 2.061 . S
O146 C149 1.235 . S
C147 O150 1.238 . S
C147 O151 1.241 . S
C148 O141 1.247 . S
C148 O142 1.261 . S
C149 O144 1.259 . S
C149 O146 1.235 . S
O150 Co140 2.021 . S
O150 C147 1.238 . S
O151 Co145 2.052 . S
O151 C147 1.241 . S
O152 Co140 2.137 . S
O152 C143 1.247 . S
O153 Co140 2.244 . S
O153 C143 1.272 . S
O153 Co145 2.135 . S
Co154 O155 2.216 . S
Co154 O156 2.091 . S
Co154 O158 2.004 . S
Co154 O164 2.021 . S
Co154 O166 2.137 . S
Co154 O167 2.244 . S
O155 Co154 2.216 . S
O155 C162 1.247 . S
O156 Co154 2.091 . S
O156 C162 1.261 . S
C157 O166 1.247 . S
C157 O167 1.272 . S
O158 Co154 2.004 . S
O158 C163 1.259 . S
Co159 O160 2.061 . S
Co159 O165 2.052 . S
Co159 O167 2.135 . S
O160 Co159 2.061 . S
O160 C163 1.235 . S
C161 O164 1.238 . S
C161 O165 1.241 . S
C162 O155 1.247 . S
C162 O156 1.261 . S
C163 O158 1.259 . S
C163 O160 1.235 . S
O164 Co154 2.021 . S
O164 C161 1.238 . S
O165 Co159 2.052 . S
O165 C161 1.241 . S
O166 Co154 2.137 . S
O166 C157 1.247 . S
O167 Co154 2.244 . S
O167 C157 1.272 . S
O167 Co159 2.135 . S
Co168 O169 2.216 . S
Co168 O170 2.091 . S
Co168 O172 2.004 . S
Co168 O178 2.021 . S
Co168 O180 2.137 . S
Co168 O181 2.244 . S
O169 Co168 2.216 . S
O169 C176 1.247 . S
O170 Co168 2.091 . S
O170 C176 1.261 . S
C171 O180 1.247 . S
C171 O181 1.272 . S
O172 Co168 2.004 . S
O172 C177 1.259 . S
Co173 O174 2.061 . S
Co173 O179 2.052 . S
Co173 O181 2.135 . S
O174 Co173 2.061 . S
O174 C177 1.235 . S
C175 O178 1.238 . S
C175 O179 1.241 . S
C176 O169 1.247 . S
C176 O170 1.261 . S
C177 O172 1.259 . S
C177 O174 1.235 . S
O178 Co168 2.021 . S
O178 C175 1.238 . S
O179 Co173 2.052 . S
O179 C175 1.241 . S
O180 Co168 2.137 . S
O180 C171 1.247 . S
O181 Co168 2.244 . S
O181 C171 1.272 . S
O181 Co173 2.135 . S
Co182 O183 2.216 . S
Co182 O184 2.091 . S
Co182 O186 2.004 . S
Co182 O192 2.021 . S
Co182 O194 2.137 . S
Co182 O195 2.244 . S
O183 Co182 2.216 . S
O183 C190 1.247 . S
O184 Co182 2.091 . S
O184 C190 1.261 . S
C185 O194 1.247 . S
C185 O195 1.272 . S
O186 Co182 2.004 . S
O186 C191 1.259 . S
Co187 O188 2.061 . S
Co187 O193 2.052 . S
Co187 O195 2.135 . S
O188 Co187 2.061 . S
O188 C191 1.235 . S
C189 O192 1.238 . S
C189 O193 1.241 . S
C190 O183 1.247 . S
C190 O184 1.261 . S
C191 O186 1.259 . S
C191 O188 1.235 . S
O192 Co182 2.021 . S
O192 C189 1.238 . S
O193 Co187 2.052 . S
O193 C189 1.241 . S
O194 Co182 2.137 . S
O194 C185 1.247 . S
O195 Co182 2.244 . S
O195 C185 1.272 . S
O195 Co187 2.135 . S
Co196 O197 2.216 . S
Co196 O198 2.091 . S
Co196 O200 2.004 . S
Co196 O206 2.021 . S
Co196 O208 2.137 . S
Co196 O209 2.244 . S
O197 Co196 2.216 . S
O197 C204 1.247 . S
O198 Co196 2.091 . S
O198 C204 1.261 . S
C199 O208 1.247 . S
C199 O209 1.272 . S
O200 Co196 2.004 . S
O200 C205 1.259 . S
Co201 O202 2.061 . S
Co201 O207 2.052 . S
Co201 O209 2.135 . S
O202 Co201 2.061 . S
O202 C205 1.235 . S
C203 O206 1.238 . S
C203 O207 1.241 . S
C204 O197 1.247 . S
C204 O198 1.261 . S
C205 O200 1.259 . S
C205 O202 1.235 . S
O206 Co196 2.021 . S
O206 C203 1.238 . S
O207 Co201 2.052 . S
O207 C203 1.241 . S
O208 Co196 2.137 . S
O208 C199 1.247 . S
O209 Co196 2.244 . S
O209 C199 1.272 . S
O209 Co201 2.135 . S
Co210 O211 2.216 . S
Co210 O212 2.091 . S
Co210 O214 2.004 . S
Co210 O220 2.021 . S
Co210 O222 2.137 . S
Co210 O223 2.244 . S
O211 Co210 2.216 . S
O211 C218 1.247 . S
O212 Co210 2.091 . S
O212 C218 1.261 . S
C213 O222 1.247 . S
C213 O223 1.272 . S
O214 Co210 2.004 . S
O214 C219 1.259 . S
Co215 O216 2.061 . S
Co215 O221 2.052 . S
Co215 O223 2.135 . S
O216 Co215 2.061 . S
O216 C219 1.235 . S
C217 O220 1.238 . S
C217 O221 1.241 . S
C218 O211 1.247 . S
C218 O212 1.261 . S
C219 O214 1.259 . S
C219 O216 1.235 . S
O220 Co210 2.021 . S
O220 C217 1.238 . S
O221 Co215 2.052 . S
O221 C217 1.241 . S
O222 Co210 2.137 . S
O222 C213 1.247 . S
O223 Co210 2.244 . S
O223 C213 1.272 . S
O223 Co215 2.135 . S
Co224 O225 2.216 . S
Co224 O226 2.091 . S
Co224 O228 2.004 . S
Co224 O234 2.021 . S
Co224 O236 2.137 . S
Co224 O237 2.244 . S
O225 Co224 2.216 . S
O225 C232 1.247 . S
O226 Co224 2.091 . S
O226 C232 1.261 . S
C227 O236 1.247 . S
C227 O237 1.272 . S
O228 Co224 2.004 . S
O228 C233 1.259 . S
Co229 O230 2.061 . S
Co229 O235 2.052 . S
Co229 O237 2.135 . S
O230 Co229 2.061 . S
O230 C233 1.235 . S
C231 O234 1.238 . S
C231 O235 1.241 . S
C232 O225 1.247 . S
C232 O226 1.261 . S
C233 O228 1.259 . S
C233 O230 1.235 . S
O234 Co224 2.021 . S
O234 C231 1.238 . S
O235 Co229 2.052 . S
O235 C231 1.241 . S
O236 Co224 2.137 . S
O236 C227 1.247 . S
O237 Co224 2.244 . S
O237 C227 1.272 . S
O237 Co229 2.135 . S
Co238 O239 2.216 . S
Co238 O240 2.091 . S
Co238 O242 2.004 . S
Co238 O248 2.021 . S
Co238 O250 2.137 . S
Co238 O251 2.244 . S
O239 Co238 2.216 . S
O239 C246 1.247 . S
O240 Co238 2.091 . S
O240 C246 1.261 . S
C241 O250 1.247 . S
C241 O251 1.272 . S
O242 Co238 2.004 . S
O242 C247 1.259 . S
Co243 O244 2.061 . S
Co243 O249 2.052 . S
Co243 O251 2.135 . S
O244 Co243 2.061 . S
O244 C247 1.235 . S
C245 O248 1.238 . S
C245 O249 1.241 . S
C246 O239 1.247 . S
C246 O240 1.261 . S
C247 O242 1.259 . S
C247 O244 1.235 . S
O248 Co238 2.021 . S
O248 C245 1.238 . S
O249 Co243 2.052 . S
O249 C245 1.241 . S
O250 Co238 2.137 . S
O250 C241 1.247 . S
O251 Co238 2.244 . S
O251 C241 1.272 . S
O251 Co243 2.135 . S
Co252 O253 2.216 . S
Co252 O254 2.091 . S
Co252 O256 2.004 . S
Co252 O262 2.021 . S
Co252 O264 2.137 . S
Co252 O265 2.244 . S
O253 Co252 2.216 . S
O253 C260 1.247 . S
O254 Co252 2.091 . S
O254 C260 1.261 . S
C255 O264 1.247 . S
C255 O265 1.272 . S
O256 Co252 2.004 . S
O256 C261 1.259 . S
Co257 O258 2.061 . S
Co257 O263 2.052 . S
Co257 O265 2.135 . S
O258 Co257 2.061 . S
O258 C261 1.235 . S
C259 O262 1.238 . S
C259 O263 1.241 . S
C260 O253 1.247 . S
C260 O254 1.261 . S
C261 O256 1.259 . S
C261 O258 1.235 . S
O262 Co252 2.021 . S
O262 C259 1.238 . S
O263 Co257 2.052 . S
O263 C259 1.241 . S
O264 Co252 2.137 . S
O264 C255 1.247 . S
O265 Co252 2.244 . S
O265 C255 1.272 . S
O265 Co257 2.135 . S
Co266 O267 2.216 . S
Co266 O268 2.091 . S
Co266 O270 2.004 . S
Co266 O276 2.021 . S
Co266 O278 2.137 . S
Co266 O279 2.244 . S
O267 Co266 2.216 . S
O267 C274 1.247 . S
O268 Co266 2.091 . S
O268 C274 1.261 . S
C269 O278 1.247 . S
C269 O279 1.272 . S
O270 Co266 2.004 . S
O270 C275 1.259 . S
Co271 O272 2.061 . S
Co271 O277 2.052 . S
Co271 O279 2.135 . S
O272 Co271 2.061 . S
O272 C275 1.235 . S
C273 O276 1.238 . S
C273 O277 1.241 . S
C274 O267 1.247 . S
C274 O268 1.261 . S
C275 O270 1.259 . S
C275 O272 1.235 . S
O276 Co266 2.021 . S
O276 C273 1.238 . S
O277 Co271 2.052 . S
O277 C273 1.241 . S
O278 Co266 2.137 . S
O278 C269 1.247 . S
O279 Co266 2.244 . S
O279 C269 1.272 . S
O279 Co271 2.135 . S
Co280 O281 2.216 . S
Co280 O282 2.091 . S
Co280 O284 2.004 . S
Co280 O290 2.021 . S
Co280 O292 2.137 . S
Co280 O293 2.244 . S
O281 Co280 2.216 . S
O281 C288 1.247 . S
O282 Co280 2.091 . S
O282 C288 1.261 . S
C283 O292 1.247 . S
C283 O293 1.272 . S
O284 Co280 2.004 . S
O284 C289 1.259 . S
Co285 O286 2.061 . S
Co285 O291 2.052 . S
Co285 O293 2.135 . S
O286 Co285 2.061 . S
O286 C289 1.235 . S
C287 O290 1.238 . S
C287 O291 1.241 . S
C288 O281 1.247 . S
C288 O282 1.261 . S
C289 O284 1.259 . S
C289 O286 1.235 . S
O290 Co280 2.021 . S
O290 C287 1.238 . S
O291 Co285 2.052 . S
O291 C287 1.241 . S
O292 Co280 2.137 . S
O292 C283 1.247 . S
O293 Co280 2.244 . S
O293 C283 1.272 . S
O293 Co285 2.135 . S
Co294 O295 2.216 . S
Co294 O296 2.091 . S
Co294 O298 2.004 . S
Co294 O304 2.021 . S
Co294 O306 2.137 . S
Co294 O307 2.244 . S
O295 Co294 2.216 . S
O295 C302 1.247 . S
O296 Co294 2.091 . S
O296 C302 1.261 . S
C297 O306 1.247 . S
C297 O307 1.272 . S
O298 Co294 2.004 . S
O298 C303 1.259 . S
Co299 O300 2.061 . S
Co299 O305 2.052 . S
Co299 O307 2.135 . S
O300 Co299 2.061 . S
O300 C303 1.235 . S
C301 O304 1.238 . S
C301 O305 1.241 . S
C302 O295 1.247 . S
C302 O296 1.261 . S
C303 O298 1.259 . S
C303 O300 1.235 . S
O304 Co294 2.021 . S
O304 C301 1.238 . S
O305 Co299 2.052 . S
O305 C301 1.241 . S
O306 Co294 2.137 . S
O306 C297 1.247 . S
O307 Co294 2.244 . S
O307 C297 1.272 . S
O307 Co299 2.135 . S
Co308 O309 2.216 . S
Co308 O310 2.091 . S
Co308 O312 2.004 . S
Co308 O318 2.021 . S
Co308 O320 2.137 . S
Co308 O321 2.244 . S
O309 Co308 2.216 . S
O309 C316 1.247 . S
O310 Co308 2.091 . S
O310 C316 1.261 . S
C311 O320 1.247 . S
C311 O321 1.272 . S
O312 Co308 2.004 . S
O312 C317 1.259 . S
Co313 O314 2.061 . S
Co313 O319 2.052 . S
Co313 O321 2.135 . S
O314 Co313 2.061 . S
O314 C317 1.235 . S
C315 O318 1.238 . S
C315 O319 1.241 . S
C316 O309 1.247 . S
C316 O310 1.261 . S
C317 O312 1.259 . S
C317 O314 1.235 . S
O318 Co308 2.021 . S
O318 C315 1.238 . S
O319 Co313 2.052 . S
O319 C315 1.241 . S
O320 Co308 2.137 . S
O320 C311 1.247 . S
O321 Co308 2.244 . S
O321 C311 1.272 . S
O321 Co313 2.135 . S
Co322 O323 2.216 . S
Co322 O324 2.091 . S
Co322 O326 2.004 . S
Co322 O332 2.021 . S
Co322 O334 2.137 . S
Co322 O335 2.244 . S
O323 Co322 2.216 . S
O323 C330 1.247 . S
O324 Co322 2.091 . S
O324 C330 1.261 . S
C325 O334 1.247 . S
C325 O335 1.272 . S
O326 Co322 2.004 . S
O326 C331 1.259 . S
Co327 O328 2.061 . S
Co327 O333 2.052 . S
Co327 O335 2.135 . S
O328 Co327 2.061 . S
O328 C331 1.235 . S
C329 O332 1.238 . S
C329 O333 1.241 . S
C330 O323 1.247 . S
C330 O324 1.261 . S
C331 O326 1.259 . S
C331 O328 1.235 . S
O332 Co322 2.021 . S
O332 C329 1.238 . S
O333 Co327 2.052 . S
O333 C329 1.241 . S
O334 Co322 2.137 . S
O334 C325 1.247 . S
O335 Co322 2.244 . S
O335 C325 1.272 . S
O335 Co327 2.135 . S
Co336 O337 2.216 . S
Co336 O338 2.091 . S
Co336 O340 2.004 . S
Co336 O346 2.021 . S
Co336 O348 2.137 . S
Co336 O349 2.244 . S
O337 Co336 2.216 . S
O337 C344 1.247 . S
O338 Co336 2.091 . S
O338 C344 1.261 . S
C339 O348 1.247 . S
C339 O349 1.272 . S
O340 Co336 2.004 . S
O340 C345 1.259 . S
Co341 O342 2.061 . S
Co341 O347 2.052 . S
Co341 O349 2.135 . S
O342 Co341 2.061 . S
O342 C345 1.235 . S
C343 O346 1.238 . S
C343 O347 1.241 . S
C344 O337 1.247 . S
C344 O338 1.261 . S
C345 O340 1.259 . S
C345 O342 1.235 . S
O346 Co336 2.021 . S
O346 C343 1.238 . S
O347 Co341 2.052 . S
O347 C343 1.241 . S
O348 Co336 2.137 . S
O348 C339 1.247 . S
O349 Co336 2.244 . S
O349 C339 1.272 . S
O349 Co341 2.135 . S
Co350 O351 2.216 . S
Co350 O352 2.091 . S
Co350 O354 2.004 . S
Co350 O360 2.021 . S
Co350 O362 2.137 . S
Co350 O363 2.244 . S
O351 Co350 2.216 . S
O351 C358 1.247 . S
O352 Co350 2.091 . S
O352 C358 1.261 . S
C353 O362 1.247 . S
C353 O363 1.272 . S
O354 Co350 2.004 . S
O354 C359 1.259 . S
Co355 O356 2.061 . S
Co355 O361 2.052 . S
Co355 O363 2.135 . S
O356 Co355 2.061 . S
O356 C359 1.235 . S
C357 O360 1.238 . S
C357 O361 1.241 . S
C358 O351 1.247 . S
C358 O352 1.261 . S
C359 O354 1.259 . S
C359 O356 1.235 . S
O360 Co350 2.021 . S
O360 C357 1.238 . S
O361 Co355 2.052 . S
O361 C357 1.241 . S
O362 Co350 2.137 . S
O362 C353 1.247 . S
O363 Co350 2.244 . S
O363 C353 1.272 . S
O363 Co355 2.135 . S
Co364 O365 2.216 . S
Co364 O366 2.091 . S
Co364 O368 2.004 . S
Co364 O374 2.021 . S
Co364 O376 2.137 . S
Co364 O377 2.244 . S
O365 Co364 2.216 . S
O365 C372 1.247 . S
O366 Co364 2.091 . S
O366 C372 1.261 . S
C367 O376 1.247 . S
C367 O377 1.272 . S
O368 Co364 2.004 . S
O368 C373 1.259 . S
Co369 O370 2.061 . S
Co369 O375 2.052 . S
Co369 O377 2.135 . S
O370 Co369 2.061 . S
O370 C373 1.235 . S
C371 O374 1.238 . S
C371 O375 1.241 . S
C372 O365 1.247 . S
C372 O366 1.261 . S
C373 O368 1.259 . S
C373 O370 1.235 . S
O374 Co364 2.021 . S
O374 C371 1.238 . S
O375 Co369 2.052 . S
O375 C371 1.241 . S
O376 Co364 2.137 . S
O376 C367 1.247 . S
O377 Co364 2.244 . S
O377 C367 1.272 . S
O377 Co369 2.135 . S
Co378 O379 2.216 . S
Co378 O380 2.091 . S
Co378 O382 2.004 . S
Co378 O388 2.021 . S
Co378 O390 2.137 . S
Co378 O391 2.244 . S
O379 Co378 2.216 . S
O379 C386 1.247 . S
O380 Co378 2.091 . S
O380 C386 1.261 . S
C381 O390 1.247 . S
C381 O391 1.272 . S
O382 Co378 2.004 . S
O382 C387 1.259 . S
Co383 O384 2.061 . S
Co383 O389 2.052 . S
Co383 O391 2.135 . S
O384 Co383 2.061 . S
O384 C387 1.235 . S
C385 O388 1.238 . S
C385 O389 1.241 . S
C386 O379 1.247 . S
C386 O380 1.261 . S
C387 O382 1.259 . S
C387 O384 1.235 . S
O388 Co378 2.021 . S
O388 C385 1.238 . S
O389 Co383 2.052 . S
O389 C385 1.241 . S
O390 Co378 2.137 . S
O390 C381 1.247 . S
O391 Co378 2.244 . S
O391 C381 1.272 . S
O391 Co383 2.135 . S
Co392 O393 2.216 . S
Co392 O394 2.091 . S
Co392 O396 2.004 . S
Co392 O402 2.021 . S
Co392 O404 2.137 . S
Co392 O405 2.244 . S
O393 Co392 2.216 . S
O393 C400 1.247 . S
O394 Co392 2.091 . S
O394 C400 1.261 . S
C395 O404 1.247 . S
C395 O405 1.272 . S
O396 Co392 2.004 . S
O396 C401 1.259 . S
Co397 O398 2.061 . S
Co397 O403 2.052 . S
Co397 O405 2.135 . S
O398 Co397 2.061 . S
O398 C401 1.235 . S
C399 O402 1.238 . S
C399 O403 1.241 . S
C400 O393 1.247 . S
C400 O394 1.261 . S
C401 O396 1.259 . S
C401 O398 1.235 . S
O402 Co392 2.021 . S
O402 C399 1.238 . S
O403 Co397 2.052 . S
O403 C399 1.241 . S
O404 Co392 2.137 . S
O404 C395 1.247 . S
O405 Co392 2.244 . S
O405 C395 1.272 . S
O405 Co397 2.135 . S
Co406 O407 2.216 . S
Co406 O408 2.091 . S
Co406 O410 2.004 . S
Co406 O416 2.021 . S
Co406 O418 2.137 . S
Co406 O419 2.244 . S
O407 Co406 2.216 . S
O407 C414 1.247 . S
O408 Co406 2.091 . S
O408 C414 1.261 . S
C409 O418 1.247 . S
C409 O419 1.272 . S
O410 Co406 2.004 . S
O410 C415 1.259 . S
Co411 O412 2.061 . S
Co411 O417 2.052 . S
Co411 O419 2.135 . S
O412 Co411 2.061 . S
O412 C415 1.235 . S
C413 O416 1.238 . S
C413 O417 1.241 . S
C414 O407 1.247 . S
C414 O408 1.261 . S
C415 O410 1.259 . S
C415 O412 1.235 . S
O416 Co406 2.021 . S
O416 C413 1.238 . S
O417 Co411 2.052 . S
O417 C413 1.241 . S
O418 Co406 2.137 . S
O418 C409 1.247 . S
O419 Co406 2.244 . S
O419 C409 1.272 . S
O419 Co411 2.135 . S
Co420 O421 2.216 . S
Co420 O422 2.091 . S
Co420 O424 2.004 . S
Co420 O430 2.021 . S
Co420 O432 2.137 . S
Co420 O433 2.244 . S
O421 Co420 2.216 . S
O421 C428 1.247 . S
O422 Co420 2.091 . S
O422 C428 1.261 . S
C423 O432 1.247 . S
C423 O433 1.272 . S
O424 Co420 2.004 . S
O424 C429 1.259 . S
Co425 O426 2.061 . S
Co425 O431 2.052 . S
Co425 O433 2.135 . S
O426 Co425 2.061 . S
O426 C429 1.235 . S
C427 O430 1.238 . S
C427 O431 1.241 . S
C428 O421 1.247 . S
C428 O422 1.261 . S
C429 O424 1.259 . S
C429 O426 1.235 . S
O430 Co420 2.021 . S
O430 C427 1.238 . S
O431 Co425 2.052 . S
O431 C427 1.241 . S
O432 Co420 2.137 . S
O432 C423 1.247 . S
O433 Co420 2.244 . S
O433 C423 1.272 . S
O433 Co425 2.135 . S
Co434 O435 2.216 . S
Co434 O436 2.091 . S
Co434 O438 2.004 . S
Co434 O444 2.021 . S
Co434 O446 2.137 . S
Co434 O447 2.244 . S
O435 Co434 2.216 . S
O435 C442 1.247 . S
O436 Co434 2.091 . S
O436 C442 1.261 . S
C437 O446 1.247 . S
C437 O447 1.272 . S
O438 Co434 2.004 . S
O438 C443 1.259 . S
Co439 O440 2.061 . S
Co439 O445 2.052 . S
Co439 O447 2.135 . S
O440 Co439 2.061 . S
O440 C443 1.235 . S
C441 O444 1.238 . S
C441 O445 1.241 . S
C442 O435 1.247 . S
C442 O436 1.261 . S
C443 O438 1.259 . S
C443 O440 1.235 . S
O444 Co434 2.021 . S
O444 C441 1.238 . S
O445 Co439 2.052 . S
O445 C441 1.241 . S
O446 Co434 2.137 . S
O446 C437 1.247 . S
O447 Co434 2.244 . S
O447 C437 1.272 . S
O447 Co439 2.135 . S
Co448 O449 2.216 . S
Co448 O450 2.091 . S
Co448 O452 2.004 . S
Co448 O458 2.021 . S
Co448 O460 2.137 . S
Co448 O461 2.244 . S
O449 Co448 2.216 . S
O449 C456 1.247 . S
O450 Co448 2.091 . S
O450 C456 1.261 . S
C451 O460 1.247 . S
C451 O461 1.272 . S
O452 Co448 2.004 . S
O452 C457 1.259 . S
Co453 O454 2.061 . S
Co453 O459 2.052 . S
Co453 O461 2.135 . S
O454 Co453 2.061 . S
O454 C457 1.235 . S
C455 O458 1.238 . S
C455 O459 1.241 . S
C456 O449 1.247 . S
C456 O450 1.261 . S
C457 O452 1.259 . S
C457 O454 1.235 . S
O458 Co448 2.021 . S
O458 C455 1.238 . S
O459 Co453 2.052 . S
O459 C455 1.241 . S
O460 Co448 2.137 . S
O460 C451 1.247 . S
O461 Co448 2.244 . S
O461 C451 1.272 . S
O461 Co453 2.135 . S
Co462 O463 2.216 . S
Co462 O464 2.091 . S
Co462 O466 2.004 . S
Co462 O472 2.021 . S
Co462 O474 2.137 . S
Co462 O475 2.244 . S
O463 Co462 2.216 . S
O463 C470 1.247 . S
O464 Co462 2.091 . S
O464 C470 1.261 . S
C465 O474 1.247 . S
C465 O475 1.272 . S
O466 Co462 2.004 . S
O466 C471 1.259 . S
Co467 O468 2.061 . S
Co467 O473 2.052 . S
Co467 O475 2.135 . S
O468 Co467 2.061 . S
O468 C471 1.235 . S
C469 O472 1.238 . S
C469 O473 1.241 . S
C470 O463 1.247 . S
C470 O464 1.261 . S
C471 O466 1.259 . S
C471 O468 1.235 . S
O472 Co462 2.021 . S
O472 C469 1.238 . S
O473 Co467 2.052 . S
O473 C469 1.241 . S
O474 Co462 2.137 . S
O474 C465 1.247 . S
O475 Co462 2.244 . S
O475 C465 1.272 . S
O475 Co467 2.135 . S
Co476 O477 2.216 . S
Co476 O478 2.091 . S
Co476 O480 2.004 . S
Co476 O486 2.021 . S
Co476 O488 2.137 . S
Co476 O489 2.244 . S
O477 Co476 2.216 . S
O477 C484 1.247 . S
O478 Co476 2.091 . S
O478 C484 1.261 . S
C479 O488 1.247 . S
C479 O489 1.272 . S
O480 Co476 2.004 . S
O480 C485 1.259 . S
Co481 O482 2.061 . S
Co481 O487 2.052 . S
Co481 O489 2.135 . S
O482 Co481 2.061 . S
O482 C485 1.235 . S
C483 O486 1.238 . S
C483 O487 1.241 . S
C484 O477 1.247 . S
C484 O478 1.261 . S
C485 O480 1.259 . S
C485 O482 1.235 . S
O486 Co476 2.021 . S
O486 C483 1.238 . S
O487 Co481 2.052 . S
O487 C483 1.241 . S
O488 Co476 2.137 . S
O488 C479 1.247 . S
O489 Co476 2.244 . S
O489 C479 1.272 . S
O489 Co481 2.135 . S
Co490 O491 2.216 . S
Co490 O492 2.091 . S
Co490 O494 2.004 . S
Co490 O500 2.021 . S
Co490 O502 2.137 . S
Co490 O503 2.244 . S
O491 Co490 2.216 . S
O491 C498 1.247 . S
O492 Co490 2.091 . S
O492 C498 1.261 . S
C493 O502 1.247 . S
C493 O503 1.272 . S
O494 Co490 2.004 . S
O494 C499 1.259 . S
Co495 O496 2.061 . S
Co495 O501 2.052 . S
Co495 O503 2.135 . S
O496 Co495 2.061 . S
O496 C499 1.235 . S
C497 O500 1.238 . S
C497 O501 1.241 . S
C498 O491 1.247 . S
C498 O492 1.261 . S
C499 O494 1.259 . S
C499 O496 1.235 . S
O500 Co490 2.021 . S
O500 C497 1.238 . S
O501 Co495 2.052 . S
O501 C497 1.241 . S
O502 Co490 2.137 . S
O502 C493 1.247 . S
O503 Co490 2.244 . S
O503 C493 1.272 . S
O503 Co495 2.135 . S
Co504 O505 2.216 . S
Co504 O506 2.091 . S
Co504 O508 2.004 . S
Co504 O514 2.021 . S
Co504 O516 2.137 . S
Co504 O517 2.244 . S
O505 Co504 2.216 . S
O505 C512 1.247 . S
O506 Co504 2.091 . S
O506 C512 1.261 . S
C507 O516 1.247 . S
C507 O517 1.272 . S
O508 Co504 2.004 . S
O508 C513 1.259 . S
Co509 O510 2.061 . S
Co509 O515 2.052 . S
Co509 O517 2.135 . S
O510 Co509 2.061 . S
O510 C513 1.235 . S
C511 O514 1.238 . S
C511 O515 1.241 . S
C512 O505 1.247 . S
C512 O506 1.261 . S
C513 O508 1.259 . S
C513 O510 1.235 . S
O514 Co504 2.021 . S
O514 C511 1.238 . S
O515 Co509 2.052 . S
O515 C511 1.241 . S
O516 Co504 2.137 . S
O516 C507 1.247 . S
O517 Co504 2.244 . S
O517 C507 1.272 . S
O517 Co509 2.135 . S
Co518 O519 2.216 . S
Co518 O520 2.091 . S
Co518 O522 2.004 . S
Co518 O528 2.021 . S
Co518 O530 2.137 . S
Co518 O531 2.244 . S
O519 Co518 2.216 . S
O519 C526 1.247 . S
O520 Co518 2.091 . S
O520 C526 1.261 . S
C521 O530 1.247 . S
C521 O531 1.272 . S
O522 Co518 2.004 . S
O522 C527 1.259 . S
Co523 O524 2.061 . S
Co523 O529 2.052 . S
Co523 O531 2.135 . S
O524 Co523 2.061 . S
O524 C527 1.235 . S
C525 O528 1.238 . S
C525 O529 1.241 . S
C526 O519 1.247 . S
C526 O520 1.261 . S
C527 O522 1.259 . S
C527 O524 1.235 . S
O528 Co518 2.021 . S
O528 C525 1.238 . S
O529 Co523 2.052 . S
O529 C525 1.241 . S
O530 Co518 2.137 . S
O530 C521 1.247 . S
O531 Co518 2.244 . S
O531 C521 1.272 . S
O531 Co523 2.135 . S
Co532 O533 2.216 . S
Co532 O534 2.091 . S
Co532 O536 2.004 . S
Co532 O542 2.021 . S
Co532 O544 2.137 . S
Co532 O545 2.244 . S
O533 Co532 2.216 . S
O533 C540 1.247 . S
O534 Co532 2.091 . S
O534 C540 1.261 . S
C535 O544 1.247 . S
C535 O545 1.272 . S
O536 Co532 2.004 . S
O536 C541 1.259 . S
Co537 O538 2.061 . S
Co537 O543 2.052 . S
Co537 O545 2.135 . S
O538 Co537 2.061 . S
O538 C541 1.235 . S
C539 O542 1.238 . S
C539 O543 1.241 . S
C540 O533 1.247 . S
C540 O534 1.261 . S
C541 O536 1.259 . S
C541 O538 1.235 . S
O542 Co532 2.021 . S
O542 C539 1.238 . S
O543 Co537 2.052 . S
O543 C539 1.241 . S
O544 Co532 2.137 . S
O544 C535 1.247 . S
O545 Co532 2.244 . S
O545 C535 1.272 . S
O545 Co537 2.135 . S
Co546 O547 2.216 . S
Co546 O548 2.091 . S
Co546 O550 2.004 . S
Co546 O556 2.021 . S
Co546 O558 2.137 . S
Co546 O559 2.244 . S
O547 Co546 2.216 . S
O547 C554 1.247 . S
O548 Co546 2.091 . S
O548 C554 1.261 . S
C549 O558 1.247 . S
C549 O559 1.272 . S
O550 Co546 2.004 . S
O550 C555 1.259 . S
Co551 O552 2.061 . S
Co551 O557 2.052 . S
Co551 O559 2.135 . S
O552 Co551 2.061 . S
O552 C555 1.235 . S
C553 O556 1.238 . S
C553 O557 1.241 . S
C554 O547 1.247 . S
C554 O548 1.261 . S
C555 O550 1.259 . S
C555 O552 1.235 . S
O556 Co546 2.021 . S
O556 C553 1.238 . S
O557 Co551 2.052 . S
O557 C553 1.241 . S
O558 Co546 2.137 . S
O558 C549 1.247 . S
O559 Co546 2.244 . S
O559 C549 1.272 . S
O559 Co551 2.135 . S
Co560 O561 2.216 . S
Co560 O562 2.091 . S
Co560 O564 2.004 . S
Co560 O570 2.021 . S
Co560 O572 2.137 . S
Co560 O573 2.244 . S
O561 Co560 2.216 . S
O561 C568 1.247 . S
O562 Co560 2.091 . S
O562 C568 1.261 . S
C563 O572 1.247 . S
C563 O573 1.272 . S
O564 Co560 2.004 . S
O564 C569 1.259 . S
Co565 O566 2.061 . S
Co565 O571 2.052 . S
Co565 O573 2.135 . S
O566 Co565 2.061 . S
O566 C569 1.235 . S
C567 O570 1.238 . S
C567 O571 1.241 . S
C568 O561 1.247 . S
C568 O562 1.261 . S
C569 O564 1.259 . S
C569 O566 1.235 . S
O570 Co560 2.021 . S
O570 C567 1.238 . S
O571 Co565 2.052 . S
O571 C567 1.241 . S
O572 Co560 2.137 . S
O572 C563 1.247 . S
O573 Co560 2.244 . S
O573 C563 1.272 . S
O573 Co565 2.135 . S
Co574 O575 2.216 . S
Co574 O576 2.091 . S
Co574 O578 2.004 . S
Co574 O584 2.021 . S
Co574 O586 2.137 . S
Co574 O587 2.244 . S
O575 Co574 2.216 . S
O575 C582 1.247 . S
O576 Co574 2.091 . S
O576 C582 1.261 . S
C577 O586 1.247 . S
C577 O587 1.272 . S
O578 Co574 2.004 . S
O578 C583 1.259 . S
Co579 O580 2.061 . S
Co579 O585 2.052 . S
Co579 O587 2.135 . S
O580 Co579 2.061 . S
O580 C583 1.235 . S
C581 O584 1.238 . S
C581 O585 1.241 . S
C582 O575 1.247 . S
C582 O576 1.261 . S
C583 O578 1.259 . S
C583 O580 1.235 . S
O584 Co574 2.021 . S
O584 C581 1.238 . S
O585 Co579 2.052 . S
O585 C581 1.241 . S
O586 Co574 2.137 . S
O586 C577 1.247 . S
O587 Co574 2.244 . S
O587 C577 1.272 . S
O587 Co579 2.135 . S
Co588 O589 2.216 . S
Co588 O590 2.091 . S
Co588 O592 2.004 . S
Co588 O598 2.021 . S
Co588 O600 2.137 . S
Co588 O601 2.244 . S
O589 Co588 2.216 . S
O589 C596 1.247 . S
O590 Co588 2.091 . S
O590 C596 1.261 . S
C591 O600 1.247 . S
C591 O601 1.272 . S
O592 Co588 2.004 . S
O592 C597 1.259 . S
Co593 O594 2.061 . S
Co593 O599 2.052 . S
Co593 O601 2.135 . S
O594 Co593 2.061 . S
O594 C597 1.235 . S
C595 O598 1.238 . S
C595 O599 1.241 . S
C596 O589 1.247 . S
C596 O590 1.261 . S
C597 O592 1.259 . S
C597 O594 1.235 . S
O598 Co588 2.021 . S
O598 C595 1.238 . S
O599 Co593 2.052 . S
O599 C595 1.241 . S
O600 Co588 2.137 . S
O600 C591 1.247 . S
O601 Co588 2.244 . S
O601 C591 1.272 . S
O601 Co593 2.135 . S
Co602 O603 2.216 . S
Co602 O604 2.091 . S
Co602 O606 2.004 . S
Co602 O612 2.021 . S
Co602 O614 2.137 . S
Co602 O615 2.244 . S
O603 Co602 2.216 . S
O603 C610 1.247 . S
O604 Co602 2.091 . S
O604 C610 1.261 . S
C605 O614 1.247 . S
C605 O615 1.272 . S
O606 Co602 2.004 . S
O606 C611 1.259 . S
Co607 O608 2.061 . S
Co607 O613 2.052 . S
Co607 O615 2.135 . S
O608 Co607 2.061 . S
O608 C611 1.235 . S
C609 O612 1.238 . S
C609 O613 1.241 . S
C610 O603 1.247 . S
C610 O604 1.261 . S
C611 O606 1.259 . S
C611 O608 1.235 . S
O612 Co602 2.021 . S
O612 C609 1.238 . S
O613 Co607 2.052 . S
O613 C609 1.241 . S
O614 Co602 2.137 . S
O614 C605 1.247 . S
O615 Co602 2.244 . S
O615 C605 1.272 . S
O615 Co607 2.135 . S
Co616 O617 2.216 . S
Co616 O618 2.091 . S
Co616 O620 2.004 . S
Co616 O626 2.021 . S
Co616 O628 2.137 . S
Co616 O629 2.244 . S
O617 Co616 2.216 . S
O617 C624 1.247 . S
O618 Co616 2.091 . S
O618 C624 1.261 . S
C619 O628 1.247 . S
C619 O629 1.272 . S
O620 Co616 2.004 . S
O620 C625 1.259 . S
Co621 O622 2.061 . S
Co621 O627 2.052 . S
Co621 O629 2.135 . S
O622 Co621 2.061 . S
O622 C625 1.235 . S
C623 O626 1.238 . S
C623 O627 1.241 . S
C624 O617 1.247 . S
C624 O618 1.261 . S
C625 O620 1.259 . S
C625 O622 1.235 . S
O626 Co616 2.021 . S
O626 C623 1.238 . S
O627 Co621 2.052 . S
O627 C623 1.241 . S
O628 Co616 2.137 . S
O628 C619 1.247 . S
O629 Co616 2.244 . S
O629 C619 1.272 . S
O629 Co621 2.135 . S
Co630 O631 2.216 . S
Co630 O632 2.091 . S
Co630 O634 2.004 . S
Co630 O640 2.021 . S
Co630 O642 2.137 . S
Co630 O643 2.244 . S
O631 Co630 2.216 . S
O631 C638 1.247 . S
O632 Co630 2.091 . S
O632 C638 1.261 . S
C633 O642 1.247 . S
C633 O643 1.272 . S
O634 Co630 2.004 . S
O634 C639 1.259 . S
Co635 O636 2.061 . S
Co635 O641 2.052 . S
Co635 O643 2.135 . S
O636 Co635 2.061 . S
O636 C639 1.235 . S
C637 O640 1.238 . S
C637 O641 1.241 . S
C638 O631 1.247 . S
C638 O632 1.261 . S
C639 O634 1.259 . S
C639 O636 1.235 . S
O640 Co630 2.021 . S
O640 C637 1.238 . S
O641 Co635 2.052 . S
O641 C637 1.241 . S
O642 Co630 2.137 . S
O642 C633 1.247 . S
O643 Co630 2.244 . S
O643 C633 1.272 . S
O643 Co635 2.135 . S
Co644 O645 2.216 . S
Co644 O646 2.091 . S
Co644 O648 2.004 . S
Co644 O654 2.021 . S
Co644 O656 2.137 . S
Co644 O657 2.244 . S
O645 Co644 2.216 . S
O645 C652 1.247 . S
O646 Co644 2.091 . S
O646 C652 1.261 . S
C647 O656 1.247 . S
C647 O657 1.272 . S
O648 Co644 2.004 . S
O648 C653 1.259 . S
Co649 O650 2.061 . S
Co649 O655 2.052 . S
Co649 O657 2.135 . S
O650 Co649 2.061 . S
O650 C653 1.235 . S
C651 O654 1.238 . S
C651 O655 1.241 . S
C652 O645 1.247 . S
C652 O646 1.261 . S
C653 O648 1.259 . S
C653 O650 1.235 . S
O654 Co644 2.021 . S
O654 C651 1.238 . S
O655 Co649 2.052 . S
O655 C651 1.241 . S
O656 Co644 2.137 . S
O656 C647 1.247 . S
O657 Co644 2.244 . S
O657 C647 1.272 . S
O657 Co649 2.135 . S
Co658 O659 2.216 . S
Co658 O660 2.091 . S
Co658 O662 2.004 . S
Co658 O668 2.021 . S
Co658 O670 2.137 . S
Co658 O671 2.244 . S
O659 Co658 2.216 . S
O659 C666 1.247 . S
O660 Co658 2.091 . S
O660 C666 1.261 . S
C661 O670 1.247 . S
C661 O671 1.272 . S
O662 Co658 2.004 . S
O662 C667 1.259 . S
Co663 O664 2.061 . S
Co663 O669 2.052 . S
Co663 O671 2.135 . S
O664 Co663 2.061 . S
O664 C667 1.235 . S
C665 O668 1.238 . S
C665 O669 1.241 . S
C666 O659 1.247 . S
C666 O660 1.261 . S
C667 O662 1.259 . S
C667 O664 1.235 . S
O668 Co658 2.021 . S
O668 C665 1.238 . S
O669 Co663 2.052 . S
O669 C665 1.241 . S
O670 Co658 2.137 . S
O670 C661 1.247 . S
O671 Co658 2.244 . S
O671 C661 1.272 . S
O671 Co663 2.135 . S
Co672 O673 2.216 . S
Co672 O674 2.091 . S
Co672 O676 2.004 . S
Co672 O682 2.021 . S
Co672 O684 2.137 . S
Co672 O685 2.244 . S
O673 Co672 2.216 . S
O673 C680 1.247 . S
O674 Co672 2.091 . S
O674 C680 1.261 . S
C675 O684 1.247 . S
C675 O685 1.272 . S
O676 Co672 2.004 . S
O676 C681 1.259 . S
Co677 O678 2.061 . S
Co677 O683 2.052 . S
Co677 O685 2.135 . S
O678 Co677 2.061 . S
O678 C681 1.235 . S
C679 O682 1.238 . S
C679 O683 1.241 . S
C680 O673 1.247 . S
C680 O674 1.261 . S
C681 O676 1.259 . S
C681 O678 1.235 . S
O682 Co672 2.021 . S
O682 C679 1.238 . S
O683 Co677 2.052 . S
O683 C679 1.241 . S
O684 Co672 2.137 . S
O684 C675 1.247 . S
O685 Co672 2.244 . S
O685 C675 1.272 . S
O685 Co677 2.135 . S
Co686 O687 2.216 . S
Co686 O688 2.091 . S
Co686 O690 2.004 . S
Co686 O696 2.021 . S
Co686 O698 2.137 . S
Co686 O699 2.244 . S
O687 Co686 2.216 . S
O687 C694 1.247 . S
O688 Co686 2.091 . S
O688 C694 1.261 . S
C689 O698 1.247 . S
C689 O699 1.272 . S
O690 Co686 2.004 . S
O690 C695 1.259 . S
Co691 O692 2.061 . S
Co691 O697 2.052 . S
Co691 O699 2.135 . S
O692 Co691 2.061 . S
O692 C695 1.235 . S
C693 O696 1.238 . S
C693 O697 1.241 . S
C694 O687 1.247 . S
C694 O688 1.261 . S
C695 O690 1.259 . S
C695 O692 1.235 . S
O696 Co686 2.021 . S
O696 C693 1.238 . S
O697 Co691 2.052 . S
O697 C693 1.241 . S
O698 Co686 2.137 . S
O698 C689 1.247 . S
O699 Co686 2.244 . S
O699 C689 1.272 . S
O699 Co691 2.135 . S
Co700 O701 2.216 . S
Co700 O702 2.091 . S
Co700 O704 2.004 . S
Co700 O710 2.021 . S
Co700 O712 2.137 . S
Co700 O713 2.244 . S
O701 Co700 2.216 . S
O701 C708 1.247 . S
O702 Co700 2.091 . S
O702 C708 1.261 . S
C703 O712 1.247 . S
C703 O713 1.272 . S
O704 Co700 2.004 . S
O704 C709 1.259 . S
Co705 O706 2.061 . S
Co705 O711 2.052 . S
Co705 O713 2.135 . S
O706 Co705 2.061 . S
O706 C709 1.235 . S
C707 O710 1.238 . S
C707 O711 1.241 . S
C708 O701 1.247 . S
C708 O702 1.261 . S
C709 O704 1.259 . S
C709 O706 1.235 . S
O710 Co700 2.021 . S
O710 C707 1.238 . S
O711 Co705 2.052 . S
O711 C707 1.241 . S
O712 Co700 2.137 . S
O712 C703 1.247 . S
O713 Co700 2.244 . S
O713 C703 1.272 . S
O713 Co705 2.135 . S
Co714 O715 2.216 . S
Co714 O716 2.091 . S
Co714 O718 2.004 . S
Co714 O724 2.021 . S
Co714 O726 2.137 . S
Co714 O727 2.244 . S
O715 Co714 2.216 . S
O715 C722 1.247 . S
O716 Co714 2.091 . S
O716 C722 1.261 . S
C717 O726 1.247 . S
C717 O727 1.272 . S
O718 Co714 2.004 . S
O718 C723 1.259 . S
Co719 O720 2.061 . S
Co719 O725 2.052 . S
Co719 O727 2.135 . S
O720 Co719 2.061 . S
O720 C723 1.235 . S
C721 O724 1.238 . S
C721 O725 1.241 . S
C722 O715 1.247 . S
C722 O716 1.261 . S
C723 O718 1.259 . S
C723 O720 1.235 . S
O724 Co714 2.021 . S
O724 C721 1.238 . S
O725 Co719 2.052 . S
O725 C721 1.241 . S
O726 Co714 2.137 . S
O726 C717 1.247 . S
O727 Co714 2.244 . S
O727 C717 1.272 . S
O727 Co719 2.135 . S
Co728 O729 2.216 . S
Co728 O730 2.091 . S
Co728 O732 2.004 . S
Co728 O738 2.021 . S
Co728 O740 2.137 . S
Co728 O741 2.244 . S
O729 Co728 2.216 . S
O729 C736 1.247 . S
O730 Co728 2.091 . S
O730 C736 1.261 . S
C731 O740 1.247 . S
C731 O741 1.272 . S
O732 Co728 2.004 . S
O732 C737 1.259 . S
Co733 O734 2.061 . S
Co733 O739 2.052 . S
Co733 O741 2.135 . S
O734 Co733 2.061 . S
O734 C737 1.235 . S
C735 O738 1.238 . S
C735 O739 1.241 . S
C736 O729 1.247 . S
C736 O730 1.261 . S
C737 O732 1.259 . S
C737 O734 1.235 . S
O738 Co728 2.021 . S
O738 C735 1.238 . S
O739 Co733 2.052 . S
O739 C735 1.241 . S
O740 Co728 2.137 . S
O740 C731 1.247 . S
O741 Co728 2.244 . S
O741 C731 1.272 . S
O741 Co733 2.135 . S
Co742 O743 2.216 . S
Co742 O744 2.091 . S
Co742 O746 2.004 . S
Co742 O752 2.021 . S
Co742 O754 2.137 . S
Co742 O755 2.244 . S
O743 Co742 2.216 . S
O743 C750 1.247 . S
O744 Co742 2.091 . S
O744 C750 1.261 . S
C745 O754 1.247 . S
C745 O755 1.272 . S
O746 Co742 2.004 . S
O746 C751 1.259 . S
Co747 O748 2.061 . S
Co747 O753 2.052 . S
Co747 O755 2.135 . S
O748 Co747 2.061 . S
O748 C751 1.235 . S
C749 O752 1.238 . S
C749 O753 1.241 . S
C750 O743 1.247 . S
C750 O744 1.261 . S
C751 O746 1.259 . S
C751 O748 1.235 . S
O752 Co742 2.021 . S
O752 C749 1.238 . S
O753 Co747 2.052 . S
O753 C749 1.241 . S
O754 Co742 2.137 . S
O754 C745 1.247 . S
O755 Co742 2.244 . S
O755 C745 1.272 . S
O755 Co747 2.135 . S
Co756 O757 2.216 . S
Co756 O758 2.091 . S
Co756 O760 2.004 . S
Co756 O766 2.021 . S
Co756 O768 2.137 . S
Co756 O769 2.244 . S
O757 Co756 2.216 . S
O757 C764 1.247 . S
O758 Co756 2.091 . S
O758 C764 1.261 . S
C759 O768 1.247 . S
C759 O769 1.272 . S
O760 Co756 2.004 . S
O760 C765 1.259 . S
Co761 O762 2.061 . S
Co761 O767 2.052 . S
Co761 O769 2.135 . S
O762 Co761 2.061 . S
O762 C765 1.235 . S
C763 O766 1.238 . S
C763 O767 1.241 . S
C764 O757 1.247 . S
C764 O758 1.261 . S
C765 O760 1.259 . S
C765 O762 1.235 . S
O766 Co756 2.021 . S
O766 C763 1.238 . S
O767 Co761 2.052 . S
O767 C763 1.241 . S
O768 Co756 2.137 . S
O768 C759 1.247 . S
O769 Co756 2.244 . S
O769 C759 1.272 . S
O769 Co761 2.135 . S
Co770 O771 2.216 . S
Co770 O772 2.091 . S
Co770 O774 2.004 . S
Co770 O780 2.021 . S
Co770 O782 2.137 . S
Co770 O783 2.244 . S
O771 Co770 2.216 . S
O771 C778 1.247 . S
O772 Co770 2.091 . S
O772 C778 1.261 . S
C773 O782 1.247 . S
C773 O783 1.272 . S
O774 Co770 2.004 . S
O774 C779 1.259 . S
Co775 O776 2.061 . S
Co775 O781 2.052 . S
Co775 O783 2.135 . S
O776 Co775 2.061 . S
O776 C779 1.235 . S
C777 O780 1.238 . S
C777 O781 1.241 . S
C778 O771 1.247 . S
C778 O772 1.261 . S
C779 O774 1.259 . S
C779 O776 1.235 . S
O780 Co770 2.021 . S
O780 C777 1.238 . S
O781 Co775 2.052 . S
O781 C777 1.241 . S
O782 Co770 2.137 . S
O782 C773 1.247 . S
O783 Co770 2.244 . S
O783 C773 1.272 . S
O783 Co775 2.135 . S
Co784 O785 2.216 . S
Co784 O786 2.091 . S
Co784 O788 2.004 . S
Co784 O794 2.021 . S
Co784 O796 2.137 . S
Co784 O797 2.244 . S
O785 Co784 2.216 . S
O785 C792 1.247 . S
O786 Co784 2.091 . S
O786 C792 1.261 . S
C787 O796 1.247 . S
C787 O797 1.272 . S
O788 Co784 2.004 . S
O788 C793 1.259 . S
Co789 O790 2.061 . S
Co789 O795 2.052 . S
Co789 O797 2.135 . S
O790 Co789 2.061 . S
O790 C793 1.235 . S
C791 O794 1.238 . S
C791 O795 1.241 . S
C792 O785 1.247 . S
C792 O786 1.261 . S
C793 O788 1.259 . S
C793 O790 1.235 . S
O794 Co784 2.021 . S
O794 C791 1.238 . S
O795 Co789 2.052 . S
O795 C791 1.241 . S
O796 Co784 2.137 . S
O796 C787 1.247 . S
O797 Co784 2.244 . S
O797 C787 1.272 . S
O797 Co789 2.135 . S
Co798 O799 2.216 . S
Co798 O800 2.091 . S
Co798 O802 2.004 . S
Co798 O808 2.021 . S
Co798 O810 2.137 . S
Co798 O811 2.244 . S
O799 Co798 2.216 . S
O799 C806 1.247 . S
O800 Co798 2.091 . S
O800 C806 1.261 . S
C801 O810 1.247 . S
C801 O811 1.272 . S
O802 Co798 2.004 . S
O802 C807 1.259 . S
Co803 O804 2.061 . S
Co803 O809 2.052 . S
Co803 O811 2.135 . S
O804 Co803 2.061 . S
O804 C807 1.235 . S
C805 O808 1.238 . S
C805 O809 1.241 . S
C806 O799 1.247 . S
C806 O800 1.261 . S
C807 O802 1.259 . S
C807 O804 1.235 . S
O808 Co798 2.021 . S
O808 C805 1.238 . S
O809 Co803 2.052 . S
O809 C805 1.241 . S
O810 Co798 2.137 . S
O810 C801 1.247 . S
O811 Co798 2.244 . S
O811 C801 1.272 . S
O811 Co803 2.135 . S
Co812 O813 2.216 . S
Co812 O814 2.091 . S
Co812 O816 2.004 . S
Co812 O822 2.021 . S
Co812 O824 2.137 . S
Co812 O825 2.244 . S
O813 Co812 2.216 . S
O813 C820 1.247 . S
O814 Co812 2.091 . S
O814 C820 1.261 . S
C815 O824 1.247 . S
C815 O825 1.272 . S
O816 Co812 2.004 . S
O816 C821 1.259 . S
Co817 O818 2.061 . S
Co817 O823 2.052 . S
Co817 O825 2.135 . S
O818 Co817 2.061 . S
O818 C821 1.235 . S
C819 O822 1.238 . S
C819 O823 1.241 . S
C820 O813 1.247 . S
C820 O814 1.261 . S
C821 O816 1.259 . S
C821 O818 1.235 . S
O822 Co812 2.021 . S
O822 C819 1.238 . S
O823 Co817 2.052 . S
O823 C819 1.241 . S
O824 Co812 2.137 . S
O824 C815 1.247 . S
O825 Co812 2.244 . S
O825 C815 1.272 . S
O825 Co817 2.135 . S
Co826 O827 2.216 . S
Co826 O828 2.091 . S
Co826 O830 2.004 . S
Co826 O836 2.021 . S
Co826 O838 2.137 . S
Co826 O839 2.244 . S
O827 Co826 2.216 . S
O827 C834 1.247 . S
O828 Co826 2.091 . S
O828 C834 1.261 . S
C829 O838 1.247 . S
C829 O839 1.272 . S
O830 Co826 2.004 . S
O830 C835 1.259 . S
Co831 O832 2.061 . S
Co831 O837 2.052 . S
Co831 O839 2.135 . S
O832 Co831 2.061 . S
O832 C835 1.235 . S
C833 O836 1.238 . S
C833 O837 1.241 . S
C834 O827 1.247 . S
C834 O828 1.261 . S
C835 O830 1.259 . S
C835 O832 1.235 . S
O836 Co826 2.021 . S
O836 C833 1.238 . S
O837 Co831 2.052 . S
O837 C833 1.241 . S
O838 Co826 2.137 . S
O838 C829 1.247 . S
O839 Co826 2.244 . S
O839 C829 1.272 . S
O839 Co831 2.135 . S
Co840 O841 2.216 . S
Co840 O842 2.091 . S
Co840 O844 2.004 . S
Co840 O850 2.021 . S
Co840 O852 2.137 . S
Co840 O853 2.244 . S
O841 Co840 2.216 . S
O841 C848 1.247 . S
O842 Co840 2.091 . S
O842 C848 1.261 . S
C843 O852 1.247 . S
C843 O853 1.272 . S
O844 Co840 2.004 . S
O844 C849 1.259 . S
Co845 O846 2.061 . S
Co845 O851 2.052 . S
Co845 O853 2.135 . S
O846 Co845 2.061 . S
O846 C849 1.235 . S
C847 O850 1.238 . S
C847 O851 1.241 . S
C848 O841 1.247 . S
C848 O842 1.261 . S
C849 O844 1.259 . S
C849 O846 1.235 . S
O850 Co840 2.021 . S
O850 C847 1.238 . S
O851 Co845 2.052 . S
O851 C847 1.241 . S
O852 Co840 2.137 . S
O852 C843 1.247 . S
O853 Co840 2.244 . S
O853 C843 1.272 . S
O853 Co845 2.135 . S
Co854 O855 2.216 . S
Co854 O856 2.091 . S
Co854 O858 2.004 . S
Co854 O864 2.021 . S
Co854 O866 2.137 . S
Co854 O867 2.244 . S
O855 Co854 2.216 . S
O855 C862 1.247 . S
O856 Co854 2.091 . S
O856 C862 1.261 . S
C857 O866 1.247 . S
C857 O867 1.272 . S
O858 Co854 2.004 . S
O858 C863 1.259 . S
Co859 O860 2.061 . S
Co859 O865 2.052 . S
Co859 O867 2.135 . S
O860 Co859 2.061 . S
O860 C863 1.235 . S
C861 O864 1.238 . S
C861 O865 1.241 . S
C862 O855 1.247 . S
C862 O856 1.261 . S
C863 O858 1.259 . S
C863 O860 1.235 . S
O864 Co854 2.021 . S
O864 C861 1.238 . S
O865 Co859 2.052 . S
O865 C861 1.241 . S
O866 Co854 2.137 . S
O866 C857 1.247 . S
O867 Co854 2.244 . S
O867 C857 1.272 . S
O867 Co859 2.135 . S
Co868 O869 2.216 . S
Co868 O870 2.091 . S
Co868 O872 2.004 . S
Co868 O878 2.021 . S
Co868 O880 2.137 . S
Co868 O881 2.244 . S
O869 Co868 2.216 . S
O869 C876 1.247 . S
O870 Co868 2.091 . S
O870 C876 1.261 . S
C871 O880 1.247 . S
C871 O881 1.272 . S
O872 Co868 2.004 . S
O872 C877 1.259 . S
Co873 O874 2.061 . S
Co873 O879 2.052 . S
Co873 O881 2.135 . S
O874 Co873 2.061 . S
O874 C877 1.235 . S
C875 O878 1.238 . S
C875 O879 1.241 . S
C876 O869 1.247 . S
C876 O870 1.261 . S
C877 O872 1.259 . S
C877 O874 1.235 . S
O878 Co868 2.021 . S
O878 C875 1.238 . S
O879 Co873 2.052 . S
O879 C875 1.241 . S
O880 Co868 2.137 . S
O880 C871 1.247 . S
O881 Co868 2.244 . S
O881 C871 1.272 . S
O881 Co873 2.135 . S
Co882 O883 2.216 . S
Co882 O884 2.091 . S
Co882 O886 2.004 . S
Co882 O892 2.021 . S
Co882 O894 2.137 . S
Co882 O895 2.244 . S
O883 Co882 2.216 . S
O883 C890 1.247 . S
O884 Co882 2.091 . S
O884 C890 1.261 . S
C885 O894 1.247 . S
C885 O895 1.272 . S
O886 Co882 2.004 . S
O886 C891 1.259 . S
Co887 O888 2.061 . S
Co887 O893 2.052 . S
Co887 O895 2.135 . S
O888 Co887 2.061 . S
O888 C891 1.235 . S
C889 O892 1.238 . S
C889 O893 1.241 . S
C890 O883 1.247 . S
C890 O884 1.261 . S
C891 O886 1.259 . S
C891 O888 1.235 . S
O892 Co882 2.021 . S
O892 C889 1.238 . S
O893 Co887 2.052 . S
O893 C889 1.241 . S
O894 Co882 2.137 . S
O894 C885 1.247 . S
O895 Co882 2.244 . S
O895 C885 1.272 . S
O895 Co887 2.135 . S
Co896 O897 2.216 . S
Co896 O898 2.091 . S
Co896 O900 2.004 . S
Co896 O906 2.021 . S
Co896 O908 2.137 . S
Co896 O909 2.244 . S
O897 Co896 2.216 . S
O897 C904 1.247 . S
O898 Co896 2.091 . S
O898 C904 1.261 . S
C899 O908 1.247 . S
C899 O909 1.272 . S
O900 Co896 2.004 . S
O900 C905 1.259 . S
Co901 O902 2.061 . S
Co901 O907 2.052 . S
Co901 O909 2.135 . S
O902 Co901 2.061 . S
O902 C905 1.235 . S
C903 O906 1.238 . S
C903 O907 1.241 . S
C904 O897 1.247 . S
C904 O898 1.261 . S
C905 O900 1.259 . S
C905 O902 1.235 . S
O906 Co896 2.021 . S
O906 C903 1.238 . S
O907 Co901 2.052 . S
O907 C903 1.241 . S
O908 Co896 2.137 . S
O908 C899 1.247 . S
O909 Co896 2.244 . S
O909 C899 1.272 . S
O909 Co901 2.135 . S
Co910 O911 2.216 . S
Co910 O912 2.091 . S
Co910 O914 2.004 . S
Co910 O920 2.021 . S
Co910 O922 2.137 . S
Co910 O923 2.244 . S
O911 Co910 2.216 . S
O911 C918 1.247 . S
O912 Co910 2.091 . S
O912 C918 1.261 . S
C913 O922 1.247 . S
C913 O923 1.272 . S
O914 Co910 2.004 . S
O914 C919 1.259 . S
Co915 O916 2.061 . S
Co915 O921 2.052 . S
Co915 O923 2.135 . S
O916 Co915 2.061 . S
O916 C919 1.235 . S
C917 O920 1.238 . S
C917 O921 1.241 . S
C918 O911 1.247 . S
C918 O912 1.261 . S
C919 O914 1.259 . S
C919 O916 1.235 . S
O920 Co910 2.021 . S
O920 C917 1.238 . S
O921 Co915 2.052 . S
O921 C917 1.241 . S
O922 Co910 2.137 . S
O922 C913 1.247 . S
O923 Co910 2.244 . S
O923 C913 1.272 . S
O923 Co915 2.135 . S
Co924 O925 2.216 . S
Co924 O926 2.091 . S
Co924 O928 2.004 . S
Co924 O934 2.021 . S
Co924 O936 2.137 . S
Co924 O937 2.244 . S
O925 Co924 2.216 . S
O925 C932 1.247 . S
O926 Co924 2.091 . S
O926 C932 1.261 . S
C927 O936 1.247 . S
C927 O937 1.272 . S
O928 Co924 2.004 . S
O928 C933 1.259 . S
Co929 O930 2.061 . S
Co929 O935 2.052 . S
Co929 O937 2.135 . S
O930 Co929 2.061 . S
O930 C933 1.235 . S
C931 O934 1.238 . S
C931 O935 1.241 . S
C932 O925 1.247 . S
C932 O926 1.261 . S
C933 O928 1.259 . S
C933 O930 1.235 . S
O934 Co924 2.021 . S
O934 C931 1.238 . S
O935 Co929 2.052 . S
O935 C931 1.241 . S
O936 Co924 2.137 . S
O936 C927 1.247 . S
O937 Co924 2.244 . S
O937 C927 1.272 . S
O937 Co929 2.135 . S
Co938 O939 2.216 . S
Co938 O940 2.091 . S
Co938 O942 2.004 . S
Co938 O948 2.021 . S
Co938 O950 2.137 . S
Co938 O951 2.244 . S
O939 Co938 2.216 . S
O939 C946 1.247 . S
O940 Co938 2.091 . S
O940 C946 1.261 . S
C941 O950 1.247 . S
C941 O951 1.272 . S
O942 Co938 2.004 . S
O942 C947 1.259 . S
Co943 O944 2.061 . S
Co943 O949 2.052 . S
Co943 O951 2.135 . S
O944 Co943 2.061 . S
O944 C947 1.235 . S
C945 O948 1.238 . S
C945 O949 1.241 . S
C946 O939 1.247 . S
C946 O940 1.261 . S
C947 O942 1.259 . S
C947 O944 1.235 . S
O948 Co938 2.021 . S
O948 C945 1.238 . S
O949 Co943 2.052 . S
O949 C945 1.241 . S
O950 Co938 2.137 . S
O950 C941 1.247 . S
O951 Co938 2.244 . S
O951 C941 1.272 . S
O951 Co943 2.135 . S
Co952 O953 2.216 . S
Co952 O954 2.091 . S
Co952 O956 2.004 . S
Co952 O962 2.021 . S
Co952 O964 2.137 . S
Co952 O965 2.244 . S
O953 Co952 2.216 . S
O953 C960 1.247 . S
O954 Co952 2.091 . S
O954 C960 1.261 . S
C955 O964 1.247 . S
C955 O965 1.272 . S
O956 Co952 2.004 . S
O956 C961 1.259 . S
Co957 O958 2.061 . S
Co957 O963 2.052 . S
Co957 O965 2.135 . S
O958 Co957 2.061 . S
O958 C961 1.235 . S
C959 O962 1.238 . S
C959 O963 1.241 . S
C960 O953 1.247 . S
C960 O954 1.261 . S
C961 O956 1.259 . S
C961 O958 1.235 . S
O962 Co952 2.021 . S
O962 C959 1.238 . S
O963 Co957 2.052 . S
O963 C959 1.241 . S
O964 Co952 2.137 . S
O964 C955 1.247 . S
O965 Co952 2.244 . S
O965 C955 1.272 . S
O965 Co957 2.135 . S
Co966 O967 2.216 . S
Co966 O968 2.091 . S
Co966 O970 2.004 . S
Co966 O976 2.021 . S
Co966 O978 2.137 . S
Co966 O979 2.244 . S
O967 Co966 2.216 . S
O967 C974 1.247 . S
O968 Co966 2.091 . S
O968 C974 1.261 . S
C969 O978 1.247 . S
C969 O979 1.272 . S
O970 Co966 2.004 . S
O970 C975 1.259 . S
Co971 O972 2.061 . S
Co971 O977 2.052 . S
Co971 O979 2.135 . S
O972 Co971 2.061 . S
O972 C975 1.235 . S
C973 O976 1.238 . S
C973 O977 1.241 . S
C974 O967 1.247 . S
C974 O968 1.261 . S
C975 O970 1.259 . S
C975 O972 1.235 . S
O976 Co966 2.021 . S
O976 C973 1.238 . S
O977 Co971 2.052 . S
O977 C973 1.241 . S
O978 Co966 2.137 . S
O978 C969 1.247 . S
O979 Co966 2.244 . S
O979 C969 1.272 . S
O979 Co971 2.135 . S
Co980 O981 2.216 . S
Co980 O982 2.091 . S
Co980 O984 2.004 . S
Co980 O990 2.021 . S
Co980 O992 2.137 . S
Co980 O993 2.244 . S
O981 Co980 2.216 . S
O981 C988 1.247 . S
O982 Co980 2.091 . S
O982 C988 1.261 . S
C983 O992 1.247 . S
C983 O993 1.272 . S
O984 Co980 2.004 . S
O984 C989 1.259 . S
Co985 O986 2.061 . S
Co985 O991 2.052 . S
Co985 O993 2.135 . S
O986 Co985 2.061 . S
O986 C989 1.235 . S
C987 O990 1.238 . S
C987 O991 1.241 . S
C988 O981 1.247 . S
C988 O982 1.261 . S
C989 O984 1.259 . S
C989 O986 1.235 . S
O990 Co980 2.021 . S
O990 C987 1.238 . S
O991 Co985 2.052 . S
O991 C987 1.241 . S
O992 Co980 2.137 . S
O992 C983 1.247 . S
O993 Co980 2.244 . S
O993 C983 1.272 . S
O993 Co985 2.135 . S
Co994 O995 2.216 . S
Co994 O996 2.091 . S
Co994 O998 2.004 . S
Co994 O1004 2.021 . S
Co994 O1006 2.137 . S
Co994 O1007 2.244 . S
O995 Co994 2.216 . S
O995 C1002 1.247 . S
O996 Co994 2.091 . S
O996 C1002 1.261 . S
C997 O1006 1.247 . S
C997 O1007 1.272 . S
O998 Co994 2.004 . S
O998 C1003 1.259 . S
Co999 O1000 2.061 . S
Co999 O1005 2.052 . S
Co999 O1007 2.135 . S
O1000 Co999 2.061 . S
O1000 C1003 1.235 . S
C1001 O1004 1.238 . S
C1001 O1005 1.241 . S
C1002 O995 1.247 . S
C1002 O996 1.261 . S
C1003 O998 1.259 . S
C1003 O1000 1.235 . S
O1004 Co994 2.021 . S
O1004 C1001 1.238 . S
O1005 Co999 2.052 . S
O1005 C1001 1.241 . S
O1006 Co994 2.137 . S
O1006 C997 1.247 . S
O1007 Co994 2.244 . S
O1007 C997 1.272 . S
O1007 Co999 2.135 . S
Co1008 O1009 2.216 . S
Co1008 O1010 2.091 . S
Co1008 O1012 2.004 . S
Co1008 O1018 2.021 . S
Co1008 O1020 2.137 . S
Co1008 O1021 2.244 . S
O1009 Co1008 2.216 . S
O1009 C1016 1.247 . S
O1010 Co1008 2.091 . S
O1010 C1016 1.261 . S
C1011 O1020 1.247 . S
C1011 O1021 1.272 . S
O1012 Co1008 2.004 . S
O1012 C1017 1.259 . S
Co1013 O1014 2.061 . S
Co1013 O1019 2.052 . S
Co1013 O1021 2.135 . S
O1014 Co1013 2.061 . S
O1014 C1017 1.235 . S
C1015 O1018 1.238 . S
C1015 O1019 1.241 . S
C1016 O1009 1.247 . S
C1016 O1010 1.261 . S
C1017 O1012 1.259 . S
C1017 O1014 1.235 . S
O1018 Co1008 2.021 . S
O1018 C1015 1.238 . S
O1019 Co1013 2.052 . S
O1019 C1015 1.241 . S
O1020 Co1008 2.137 . S
O1020 C1011 1.247 . S
O1021 Co1008 2.244 . S
O1021 C1011 1.272 . S
O1021 Co1013 2.135 . S
Co1022 O1023 2.216 . S
Co1022 O1024 2.091 . S
Co1022 O1026 2.004 . S
Co1022 O1032 2.021 . S
Co1022 O1034 2.137 . S
Co1022 O1035 2.244 . S
O1023 Co1022 2.216 . S
O1023 C1030 1.247 . S
O1024 Co1022 2.091 . S
O1024 C1030 1.261 . S
C1025 O1034 1.247 . S
C1025 O1035 1.272 . S
O1026 Co1022 2.004 . S
O1026 C1031 1.259 . S
Co1027 O1028 2.061 . S
Co1027 O1033 2.052 . S
Co1027 O1035 2.135 . S
O1028 Co1027 2.061 . S
O1028 C1031 1.235 . S
C1029 O1032 1.238 . S
C1029 O1033 1.241 . S
C1030 O1023 1.247 . S
C1030 O1024 1.261 . S
C1031 O1026 1.259 . S
C1031 O1028 1.235 . S
O1032 Co1022 2.021 . S
O1032 C1029 1.238 . S
O1033 Co1027 2.052 . S
O1033 C1029 1.241 . S
O1034 Co1022 2.137 . S
O1034 C1025 1.247 . S
O1035 Co1022 2.244 . S
O1035 C1025 1.272 . S
O1035 Co1027 2.135 . S
Co1036 O1037 2.216 . S
Co1036 O1038 2.091 . S
Co1036 O1040 2.004 . S
Co1036 O1046 2.021 . S
Co1036 O1048 2.137 . S
Co1036 O1049 2.244 . S
O1037 Co1036 2.216 . S
O1037 C1044 1.247 . S
O1038 Co1036 2.091 . S
O1038 C1044 1.261 . S
C1039 O1048 1.247 . S
C1039 O1049 1.272 . S
O1040 Co1036 2.004 . S
O1040 C1045 1.259 . S
Co1041 O1042 2.061 . S
Co1041 O1047 2.052 . S
Co1041 O1049 2.135 . S
O1042 Co1041 2.061 . S
O1042 C1045 1.235 . S
C1043 O1046 1.238 . S
C1043 O1047 1.241 . S
C1044 O1037 1.247 . S
C1044 O1038 1.261 . S
C1045 O1040 1.259 . S
C1045 O1042 1.235 . S
O1046 Co1036 2.021 . S
O1046 C1043 1.238 . S
O1047 Co1041 2.052 . S
O1047 C1043 1.241 . S
O1048 Co1036 2.137 . S
O1048 C1039 1.247 . S
O1049 Co1036 2.244 . S
O1049 C1039 1.272 . S
O1049 Co1041 2.135 . S
Co1050 O1051 2.216 . S
Co1050 O1052 2.091 . S
Co1050 O1054 2.004 . S
Co1050 O1060 2.021 . S
Co1050 O1062 2.137 . S
Co1050 O1063 2.244 . S
O1051 Co1050 2.216 . S
O1051 C1058 1.247 . S
O1052 Co1050 2.091 . S
O1052 C1058 1.261 . S
C1053 O1062 1.247 . S
C1053 O1063 1.272 . S
O1054 Co1050 2.004 . S
O1054 C1059 1.259 . S
Co1055 O1056 2.061 . S
Co1055 O1061 2.052 . S
Co1055 O1063 2.135 . S
O1056 Co1055 2.061 . S
O1056 C1059 1.235 . S
C1057 O1060 1.238 . S
C1057 O1061 1.241 . S
C1058 O1051 1.247 . S
C1058 O1052 1.261 . S
C1059 O1054 1.259 . S
C1059 O1056 1.235 . S
O1060 Co1050 2.021 . S
O1060 C1057 1.238 . S
O1061 Co1055 2.052 . S
O1061 C1057 1.241 . S
O1062 Co1050 2.137 . S
O1062 C1053 1.247 . S
O1063 Co1050 2.244 . S
O1063 C1053 1.272 . S
O1063 Co1055 2.135 . S
Co1064 O1065 2.216 . S
Co1064 O1066 2.091 . S
Co1064 O1068 2.004 . S
Co1064 O1074 2.021 . S
Co1064 O1076 2.137 . S
Co1064 O1077 2.244 . S
O1065 Co1064 2.216 . S
O1065 C1072 1.247 . S
O1066 Co1064 2.091 . S
O1066 C1072 1.261 . S
C1067 O1076 1.247 . S
C1067 O1077 1.272 . S
O1068 Co1064 2.004 . S
O1068 C1073 1.259 . S
Co1069 O1070 2.061 . S
Co1069 O1075 2.052 . S
Co1069 O1077 2.135 . S
O1070 Co1069 2.061 . S
O1070 C1073 1.235 . S
C1071 O1074 1.238 . S
C1071 O1075 1.241 . S
C1072 O1065 1.247 . S
C1072 O1066 1.261 . S
C1073 O1068 1.259 . S
C1073 O1070 1.235 . S
O1074 Co1064 2.021 . S
O1074 C1071 1.238 . S
O1075 Co1069 2.052 . S
O1075 C1071 1.241 . S
O1076 Co1064 2.137 . S
O1076 C1067 1.247 . S
O1077 Co1064 2.244 . S
O1077 C1067 1.272 . S
O1077 Co1069 2.135 . S
Co1078 O1079 2.216 . S
Co1078 O1080 2.091 . S
Co1078 O1082 2.004 . S
Co1078 O1088 2.021 . S
Co1078 O1090 2.137 . S
Co1078 O1091 2.244 . S
O1079 Co1078 2.216 . S
O1079 C1086 1.247 . S
O1080 Co1078 2.091 . S
O1080 C1086 1.261 . S
C1081 O1090 1.247 . S
C1081 O1091 1.272 . S
O1082 Co1078 2.004 . S
O1082 C1087 1.259 . S
Co1083 O1084 2.061 . S
Co1083 O1089 2.052 . S
Co1083 O1091 2.135 . S
O1084 Co1083 2.061 . S
O1084 C1087 1.235 . S
C1085 O1088 1.238 . S
C1085 O1089 1.241 . S
C1086 O1079 1.247 . S
C1086 O1080 1.261 . S
C1087 O1082 1.259 . S
C1087 O1084 1.235 . S
O1088 Co1078 2.021 . S
O1088 C1085 1.238 . S
O1089 Co1083 2.052 . S
O1089 C1085 1.241 . S
O1090 Co1078 2.137 . S
O1090 C1081 1.247 . S
O1091 Co1078 2.244 . S
O1091 C1081 1.272 . S
O1091 Co1083 2.135 . S
Co1092 O1093 2.216 . S
Co1092 O1094 2.091 . S
Co1092 O1096 2.004 . S
Co1092 O1102 2.021 . S
Co1092 O1104 2.137 . S
Co1092 O1105 2.244 . S
O1093 Co1092 2.216 . S
O1093 C1100 1.247 . S
O1094 Co1092 2.091 . S
O1094 C1100 1.261 . S
C1095 O1104 1.247 . S
C1095 O1105 1.272 . S
O1096 Co1092 2.004 . S
O1096 C1101 1.259 . S
Co1097 O1098 2.061 . S
Co1097 O1103 2.052 . S
Co1097 O1105 2.135 . S
O1098 Co1097 2.061 . S
O1098 C1101 1.235 . S
C1099 O1102 1.238 . S
C1099 O1103 1.241 . S
C1100 O1093 1.247 . S
C1100 O1094 1.261 . S
C1101 O1096 1.259 . S
C1101 O1098 1.235 . S
O1102 Co1092 2.021 . S
O1102 C1099 1.238 . S
O1103 Co1097 2.052 . S
O1103 C1099 1.241 . S
O1104 Co1092 2.137 . S
O1104 C1095 1.247 . S
O1105 Co1092 2.244 . S
O1105 C1095 1.272 . S
O1105 Co1097 2.135 . S
Co1106 O1107 2.216 . S
Co1106 O1108 2.091 . S
Co1106 O1110 2.004 . S
Co1106 O1116 2.021 . S
Co1106 O1118 2.137 . S
Co1106 O1119 2.244 . S
O1107 Co1106 2.216 . S
O1107 C1114 1.247 . S
O1108 Co1106 2.091 . S
O1108 C1114 1.261 . S
C1109 O1118 1.247 . S
C1109 O1119 1.272 . S
O1110 Co1106 2.004 . S
O1110 C1115 1.259 . S
Co1111 O1112 2.061 . S
Co1111 O1117 2.052 . S
Co1111 O1119 2.135 . S
O1112 Co1111 2.061 . S
O1112 C1115 1.235 . S
C1113 O1116 1.238 . S
C1113 O1117 1.241 . S
C1114 O1107 1.247 . S
C1114 O1108 1.261 . S
C1115 O1110 1.259 . S
C1115 O1112 1.235 . S
O1116 Co1106 2.021 . S
O1116 C1113 1.238 . S
O1117 Co1111 2.052 . S
O1117 C1113 1.241 . S
O1118 Co1106 2.137 . S
O1118 C1109 1.247 . S
O1119 Co1106 2.244 . S
O1119 C1109 1.272 . S
O1119 Co1111 2.135 . S
Co1120 O1121 2.216 . S
Co1120 O1122 2.091 . S
Co1120 O1124 2.004 . S
Co1120 O1130 2.021 . S
Co1120 O1132 2.137 . S
Co1120 O1133 2.244 . S
O1121 Co1120 2.216 . S
O1121 C1128 1.247 . S
O1122 Co1120 2.091 . S
O1122 C1128 1.261 . S
C1123 O1132 1.247 . S
C1123 O1133 1.272 . S
O1124 Co1120 2.004 . S
O1124 C1129 1.259 . S
Co1125 O1126 2.061 . S
Co1125 O1131 2.052 . S
Co1125 O1133 2.135 . S
O1126 Co1125 2.061 . S
O1126 C1129 1.235 . S
C1127 O1130 1.238 . S
C1127 O1131 1.241 . S
C1128 O1121 1.247 . S
C1128 O1122 1.261 . S
C1129 O1124 1.259 . S
C1129 O1126 1.235 . S
O1130 Co1120 2.021 . S
O1130 C1127 1.238 . S
O1131 Co1125 2.052 . S
O1131 C1127 1.241 . S
O1132 Co1120 2.137 . S
O1132 C1123 1.247 . S
O1133 Co1120 2.244 . S
O1133 C1123 1.272 . S
O1133 Co1125 2.135 . S
Co1134 O1135 2.216 . S
Co1134 O1136 2.091 . S
Co1134 O1138 2.004 . S
Co1134 O1144 2.021 . S
Co1134 O1146 2.137 . S
Co1134 O1147 2.244 . S
O1135 Co1134 2.216 . S
O1135 C1142 1.247 . S
O1136 Co1134 2.091 . S
O1136 C1142 1.261 . S
C1137 O1146 1.247 . S
C1137 O1147 1.272 . S
O1138 Co1134 2.004 . S
O1138 C1143 1.259 . S
Co1139 O1140 2.061 . S
Co1139 O1145 2.052 . S
Co1139 O1147 2.135 . S
O1140 Co1139 2.061 . S
O1140 C1143 1.235 . S
C1141 O1144 1.238 . S
C1141 O1145 1.241 . S
C1142 O1135 1.247 . S
C1142 O1136 1.261 . S
C1143 O1138 1.259 . S
C1143 O1140 1.235 . S
O1144 Co1134 2.021 . S
O1144 C1141 1.238 . S
O1145 Co1139 2.052 . S
O1145 C1141 1.241 . S
O1146 Co1134 2.137 . S
O1146 C1137 1.247 . S
O1147 Co1134 2.244 . S
O1147 C1137 1.272 . S
O1147 Co1139 2.135 . S
Co1148 O1149 2.216 . S
Co1148 O1150 2.091 . S
Co1148 O1152 2.004 . S
Co1148 O1158 2.021 . S
Co1148 O1160 2.137 . S
Co1148 O1161 2.244 . S
O1149 Co1148 2.216 . S
O1149 C1156 1.247 . S
O1150 Co1148 2.091 . S
O1150 C1156 1.261 . S
C1151 O1160 1.247 . S
C1151 O1161 1.272 . S
O1152 Co1148 2.004 . S
O1152 C1157 1.259 . S
Co1153 O1154 2.061 . S
Co1153 O1159 2.052 . S
Co1153 O1161 2.135 . S
O1154 Co1153 2.061 . S
O1154 C1157 1.235 . S
C1155 O1158 1.238 . S
C1155 O1159 1.241 . S
C1156 O1149 1.247 . S
C1156 O1150 1.261 . S
C1157 O1152 1.259 . S
C1157 O1154 1.235 . S
O1158 Co1148 2.021 . S
O1158 C1155 1.238 . S
O1159 Co1153 2.052 . S
O1159 C1155 1.241 . S
O1160 Co1148 2.137 . S
O1160 C1151 1.247 . S
O1161 Co1148 2.244 . S
O1161 C1151 1.272 . S
O1161 Co1153 2.135 . S
Co1162 O1163 2.216 . S
Co1162 O1164 2.091 . S
Co1162 O1166 2.004 . S
Co1162 O1172 2.021 . S
Co1162 O1174 2.137 . S
Co1162 O1175 2.244 . S
O1163 Co1162 2.216 . S
O1163 C1170 1.247 . S
O1164 Co1162 2.091 . S
O1164 C1170 1.261 . S
C1165 O1174 1.247 . S
C1165 O1175 1.272 . S
O1166 Co1162 2.004 . S
O1166 C1171 1.259 . S
Co1167 O1168 2.061 . S
Co1167 O1173 2.052 . S
Co1167 O1175 2.135 . S
O1168 Co1167 2.061 . S
O1168 C1171 1.235 . S
C1169 O1172 1.238 . S
C1169 O1173 1.241 . S
C1170 O1163 1.247 . S
C1170 O1164 1.261 . S
C1171 O1166 1.259 . S
C1171 O1168 1.235 . S
O1172 Co1162 2.021 . S
O1172 C1169 1.238 . S
O1173 Co1167 2.052 . S
O1173 C1169 1.241 . S
O1174 Co1162 2.137 . S
O1174 C1165 1.247 . S
O1175 Co1162 2.244 . S
O1175 C1165 1.272 . S
O1175 Co1167 2.135 . S
Co1176 O1177 2.216 . S
Co1176 O1178 2.091 . S
Co1176 O1180 2.004 . S
Co1176 O1186 2.021 . S
Co1176 O1188 2.137 . S
Co1176 O1189 2.244 . S
O1177 Co1176 2.216 . S
O1177 C1184 1.247 . S
O1178 Co1176 2.091 . S
O1178 C1184 1.261 . S
C1179 O1188 1.247 . S
C1179 O1189 1.272 . S
O1180 Co1176 2.004 . S
O1180 C1185 1.259 . S
Co1181 O1182 2.061 . S
Co1181 O1187 2.052 . S
Co1181 O1189 2.135 . S
O1182 Co1181 2.061 . S
O1182 C1185 1.235 . S
C1183 O1186 1.238 . S
C1183 O1187 1.241 . S
C1184 O1177 1.247 . S
C1184 O1178 1.261 . S
C1185 O1180 1.259 . S
C1185 O1182 1.235 . S
O1186 Co1176 2.021 . S
O1186 C1183 1.238 . S
O1187 Co1181 2.052 . S
O1187 C1183 1.241 . S
O1188 Co1176 2.137 . S
O1188 C1179 1.247 . S
O1189 Co1176 2.244 . S
O1189 C1179 1.272 . S
O1189 Co1181 2.135 . S
Co1190 O1191 2.216 . S
Co1190 O1192 2.091 . S
Co1190 O1194 2.004 . S
Co1190 O1200 2.021 . S
Co1190 O1202 2.137 . S
Co1190 O1203 2.244 . S
O1191 Co1190 2.216 . S
O1191 C1198 1.247 . S
O1192 Co1190 2.091 . S
O1192 C1198 1.261 . S
C1193 O1202 1.247 . S
C1193 O1203 1.272 . S
O1194 Co1190 2.004 . S
O1194 C1199 1.259 . S
Co1195 O1196 2.061 . S
Co1195 O1201 2.052 . S
Co1195 O1203 2.135 . S
O1196 Co1195 2.061 . S
O1196 C1199 1.235 . S
C1197 O1200 1.238 . S
C1197 O1201 1.241 . S
C1198 O1191 1.247 . S
C1198 O1192 1.261 . S
C1199 O1194 1.259 . S
C1199 O1196 1.235 . S
O1200 Co1190 2.021 . S
O1200 C1197 1.238 . S
O1201 Co1195 2.052 . S
O1201 C1197 1.241 . S
O1202 Co1190 2.137 . S
O1202 C1193 1.247 . S
O1203 Co1190 2.244 . S
O1203 C1193 1.272 . S
O1203 Co1195 2.135 . S
Co1204 O1205 2.216 . S
Co1204 O1206 2.091 . S
Co1204 O1208 2.004 . S
Co1204 O1214 2.021 . S
Co1204 O1216 2.137 . S
Co1204 O1217 2.244 . S
O1205 Co1204 2.216 . S
O1205 C1212 1.247 . S
O1206 Co1204 2.091 . S
O1206 C1212 1.261 . S
C1207 O1216 1.247 . S
C1207 O1217 1.272 . S
O1208 Co1204 2.004 . S
O1208 C1213 1.259 . S
Co1209 O1210 2.061 . S
Co1209 O1215 2.052 . S
Co1209 O1217 2.135 . S
O1210 Co1209 2.061 . S
O1210 C1213 1.235 . S
C1211 O1214 1.238 . S
C1211 O1215 1.241 . S
C1212 O1205 1.247 . S
C1212 O1206 1.261 . S
C1213 O1208 1.259 . S
C1213 O1210 1.235 . S
O1214 Co1204 2.021 . S
O1214 C1211 1.238 . S
O1215 Co1209 2.052 . S
O1215 C1211 1.241 . S
O1216 Co1204 2.137 . S
O1216 C1207 1.247 . S
O1217 Co1204 2.244 . S
O1217 C1207 1.272 . S
O1217 Co1209 2.135 . S
Co1218 O1219 2.216 . S
Co1218 O1220 2.091 . S
Co1218 O1222 2.004 . S
Co1218 O1228 2.021 . S
Co1218 O1230 2.137 . S
Co1218 O1231 2.244 . S
O1219 Co1218 2.216 . S
O1219 C1226 1.247 . S
O1220 Co1218 2.091 . S
O1220 C1226 1.261 . S
C1221 O1230 1.247 . S
C1221 O1231 1.272 . S
O1222 Co1218 2.004 . S
O1222 C1227 1.259 . S
Co1223 O1224 2.061 . S
Co1223 O1229 2.052 . S
Co1223 O1231 2.135 . S
O1224 Co1223 2.061 . S
O1224 C1227 1.235 . S
C1225 O1228 1.238 . S
C1225 O1229 1.241 . S
C1226 O1219 1.247 . S
C1226 O1220 1.261 . S
C1227 O1222 1.259 . S
C1227 O1224 1.235 . S
O1228 Co1218 2.021 . S
O1228 C1225 1.238 . S
O1229 Co1223 2.052 . S
O1229 C1225 1.241 . S
O1230 Co1218 2.137 . S
O1230 C1221 1.247 . S
O1231 Co1218 2.244 . S
O1231 C1221 1.272 . S
O1231 Co1223 2.135 . S
Co1232 O1233 2.216 . S
Co1232 O1234 2.091 . S
Co1232 O1236 2.004 . S
Co1232 O1242 2.021 . S
Co1232 O1244 2.137 . S
Co1232 O1245 2.244 . S
O1233 Co1232 2.216 . S
O1233 C1240 1.247 . S
O1234 Co1232 2.091 . S
O1234 C1240 1.261 . S
C1235 O1244 1.247 . S
C1235 O1245 1.272 . S
O1236 Co1232 2.004 . S
O1236 C1241 1.259 . S
Co1237 O1238 2.061 . S
Co1237 O1243 2.052 . S
Co1237 O1245 2.135 . S
O1238 Co1237 2.061 . S
O1238 C1241 1.235 . S
C1239 O1242 1.238 . S
C1239 O1243 1.241 . S
C1240 O1233 1.247 . S
C1240 O1234 1.261 . S
C1241 O1236 1.259 . S
C1241 O1238 1.235 . S
O1242 Co1232 2.021 . S
O1242 C1239 1.238 . S
O1243 Co1237 2.052 . S
O1243 C1239 1.241 . S
O1244 Co1232 2.137 . S
O1244 C1235 1.247 . S
O1245 Co1232 2.244 . S
O1245 C1235 1.272 . S
O1245 Co1237 2.135 . S
Co1246 O1247 2.216 . S
Co1246 O1248 2.091 . S
Co1246 O1250 2.004 . S
Co1246 O1256 2.021 . S
Co1246 O1258 2.137 . S
Co1246 O1259 2.244 . S
O1247 Co1246 2.216 . S
O1247 C1254 1.247 . S
O1248 Co1246 2.091 . S
O1248 C1254 1.261 . S
C1249 O1258 1.247 . S
C1249 O1259 1.272 . S
O1250 Co1246 2.004 . S
O1250 C1255 1.259 . S
Co1251 O1252 2.061 . S
Co1251 O1257 2.052 . S
Co1251 O1259 2.135 . S
O1252 Co1251 2.061 . S
O1252 C1255 1.235 . S
C1253 O1256 1.238 . S
C1253 O1257 1.241 . S
C1254 O1247 1.247 . S
C1254 O1248 1.261 . S
C1255 O1250 1.259 . S
C1255 O1252 1.235 . S
O1256 Co1246 2.021 . S
O1256 C1253 1.238 . S
O1257 Co1251 2.052 . S
O1257 C1253 1.241 . S
O1258 Co1246 2.137 . S
O1258 C1249 1.247 . S
O1259 Co1246 2.244 . S
O1259 C1249 1.272 . S
O1259 Co1251 2.135 . S
Co1260 O1261 2.216 . S
Co1260 O1262 2.091 . S
Co1260 O1264 2.004 . S
Co1260 O1270 2.021 . S
Co1260 O1272 2.137 . S
Co1260 O1273 2.244 . S
O1261 Co1260 2.216 . S
O1261 C1268 1.247 . S
O1262 Co1260 2.091 . S
O1262 C1268 1.261 . S
C1263 O1272 1.247 . S
C1263 O1273 1.272 . S
O1264 Co1260 2.004 . S
O1264 C1269 1.259 . S
Co1265 O1266 2.061 . S
Co1265 O1271 2.052 . S
Co1265 O1273 2.135 . S
O1266 Co1265 2.061 . S
O1266 C1269 1.235 . S
C1267 O1270 1.238 . S
C1267 O1271 1.241 . S
C1268 O1261 1.247 . S
C1268 O1262 1.261 . S
C1269 O1264 1.259 . S
C1269 O1266 1.235 . S
O1270 Co1260 2.021 . S
O1270 C1267 1.238 . S
O1271 Co1265 2.052 . S
O1271 C1267 1.241 . S
O1272 Co1260 2.137 . S
O1272 C1263 1.247 . S
O1273 Co1260 2.244 . S
O1273 C1263 1.272 . S
O1273 Co1265 2.135 . S
Co1274 O1275 2.216 . S
Co1274 O1276 2.091 . S
Co1274 O1278 2.004 . S
Co1274 O1284 2.021 . S
Co1274 O1286 2.137 . S
Co1274 O1287 2.244 . S
O1275 Co1274 2.216 . S
O1275 C1282 1.247 . S
O1276 Co1274 2.091 . S
O1276 C1282 1.261 . S
C1277 O1286 1.247 . S
C1277 O1287 1.272 . S
O1278 Co1274 2.004 . S
O1278 C1283 1.259 . S
Co1279 O1280 2.061 . S
Co1279 O1285 2.052 . S
Co1279 O1287 2.135 . S
O1280 Co1279 2.061 . S
O1280 C1283 1.235 . S
C1281 O1284 1.238 . S
C1281 O1285 1.241 . S
C1282 O1275 1.247 . S
C1282 O1276 1.261 . S
C1283 O1278 1.259 . S
C1283 O1280 1.235 . S
O1284 Co1274 2.021 . S
O1284 C1281 1.238 . S
O1285 Co1279 2.052 . S
O1285 C1281 1.241 . S
O1286 Co1274 2.137 . S
O1286 C1277 1.247 . S
O1287 Co1274 2.244 . S
O1287 C1277 1.272 . S
O1287 Co1279 2.135 . S
Co1288 O1289 2.216 . S
Co1288 O1290 2.091 . S
Co1288 O1292 2.004 . S
Co1288 O1298 2.021 . S
Co1288 O1300 2.137 . S
Co1288 O1301 2.244 . S
O1289 Co1288 2.216 . S
O1289 C1296 1.247 . S
O1290 Co1288 2.091 . S
O1290 C1296 1.261 . S
C1291 O1300 1.247 . S
C1291 O1301 1.272 . S
O1292 Co1288 2.004 . S
O1292 C1297 1.259 . S
Co1293 O1294 2.061 . S
Co1293 O1299 2.052 . S
Co1293 O1301 2.135 . S
O1294 Co1293 2.061 . S
O1294 C1297 1.235 . S
C1295 O1298 1.238 . S
C1295 O1299 1.241 . S
C1296 O1289 1.247 . S
C1296 O1290 1.261 . S
C1297 O1292 1.259 . S
C1297 O1294 1.235 . S
O1298 Co1288 2.021 . S
O1298 C1295 1.238 . S
O1299 Co1293 2.052 . S
O1299 C1295 1.241 . S
O1300 Co1288 2.137 . S
O1300 C1291 1.247 . S
O1301 Co1288 2.244 . S
O1301 C1291 1.272 . S
O1301 Co1293 2.135 . S
Co1302 O1303 2.216 . S
Co1302 O1304 2.091 . S
Co1302 O1306 2.004 . S
Co1302 O1312 2.021 . S
Co1302 O1314 2.137 . S
Co1302 O1315 2.244 . S
O1303 Co1302 2.216 . S
O1303 C1310 1.247 . S
O1304 Co1302 2.091 . S
O1304 C1310 1.261 . S
C1305 O1314 1.247 . S
C1305 O1315 1.272 . S
O1306 Co1302 2.004 . S
O1306 C1311 1.259 . S
Co1307 O1308 2.061 . S
Co1307 O1313 2.052 . S
Co1307 O1315 2.135 . S
O1308 Co1307 2.061 . S
O1308 C1311 1.235 . S
C1309 O1312 1.238 . S
C1309 O1313 1.241 . S
C1310 O1303 1.247 . S
C1310 O1304 1.261 . S
C1311 O1306 1.259 . S
C1311 O1308 1.235 . S
O1312 Co1302 2.021 . S
O1312 C1309 1.238 . S
O1313 Co1307 2.052 . S
O1313 C1309 1.241 . S
O1314 Co1302 2.137 . S
O1314 C1305 1.247 . S
O1315 Co1302 2.244 . S
O1315 C1305 1.272 . S
O1315 Co1307 2.135 . S
Co1316 O1317 2.216 . S
Co1316 O1318 2.091 . S
Co1316 O1320 2.004 . S
Co1316 O1326 2.021 . S
Co1316 O1328 2.137 . S
Co1316 O1329 2.244 . S
O1317 Co1316 2.216 . S
O1317 C1324 1.247 . S
O1318 Co1316 2.091 . S
O1318 C1324 1.261 . S
C1319 O1328 1.247 . S
C1319 O1329 1.272 . S
O1320 Co1316 2.004 . S
O1320 C1325 1.259 . S
Co1321 O1322 2.061 . S
Co1321 O1327 2.052 . S
Co1321 O1329 2.135 . S
O1322 Co1321 2.061 . S
O1322 C1325 1.235 . S
C1323 O1326 1.238 . S
C1323 O1327 1.241 . S
C1324 O1317 1.247 . S
C1324 O1318 1.261 . S
C1325 O1320 1.259 . S
C1325 O1322 1.235 . S
O1326 Co1316 2.021 . S
O1326 C1323 1.238 . S
O1327 Co1321 2.052 . S
O1327 C1323 1.241 . S
O1328 Co1316 2.137 . S
O1328 C1319 1.247 . S
O1329 Co1316 2.244 . S
O1329 C1319 1.272 . S
O1329 Co1321 2.135 . S
Co1330 O1331 2.216 . S
Co1330 O1332 2.091 . S
Co1330 O1334 2.004 . S
Co1330 O1340 2.021 . S
Co1330 O1342 2.137 . S
Co1330 O1343 2.244 . S
O1331 Co1330 2.216 . S
O1331 C1338 1.247 . S
O1332 Co1330 2.091 . S
O1332 C1338 1.261 . S
C1333 O1342 1.247 . S
C1333 O1343 1.272 . S
O1334 Co1330 2.004 . S
O1334 C1339 1.259 . S
Co1335 O1336 2.061 . S
Co1335 O1341 2.052 . S
Co1335 O1343 2.135 . S
O1336 Co1335 2.061 . S
O1336 C1339 1.235 . S
C1337 O1340 1.238 . S
C1337 O1341 1.241 . S
C1338 O1331 1.247 . S
C1338 O1332 1.261 . S
C1339 O1334 1.259 . S
C1339 O1336 1.235 . S
O1340 Co1330 2.021 . S
O1340 C1337 1.238 . S
O1341 Co1335 2.052 . S
O1341 C1337 1.241 . S
O1342 Co1330 2.137 . S
O1342 C1333 1.247 . S
O1343 Co1330 2.244 . S
O1343 C1333 1.272 . S
O1343 Co1335 2.135 . S
C357 C7 5.152 . S
C21 C1043 5.152 1_655 S
C385 C35 5.152 . S
C1015 C49 5.152 . S
C441 C63 5.152 . S
C1071 C77 5.152 . S
C413 C91 5.152 . S
C105 C1099 5.152 1_655 S
C1323 C119 5.152 . S
C1239 C133 5.152 . S
C1337 C147 5.152 . S
C1309 C161 5.152 1_556 S
C175 C1267 5.152 . S
C189 C609 5.152 . S
C623 C203 5.152 . S
C217 C581 5.152 1_556 S
C1197 C231 5.152 . S
C497 C245 5.152 . S
C1127 C259 5.152 . S
C469 C273 5.152 . S
C287 C483 5.152 1_565 S
C1225 C301 5.152 . S
C315 C1183 5.152 . S
C1211 C329 5.152 . S
C17 C339 4.765 . S
C703 C353 4.765 1_655 S
C45 C367 4.765 . S
C381 C675 4.765 . S
C101 C395 4.765 . S
C409 C731 4.765 . S
C73 C423 4.765 . S
C437 C759 4.765 1_455 S
C983 C451 4.765 . S
C465 C899 4.765 . S
C479 C997 4.765 . S
C969 C493 4.765 1_554 S
C927 C507 4.765 . S
C521 C269 4.765 . S
C283 C535 4.765 . S
C241 C549 4.765 1_556 S
C857 C563 4.765 . S
C157 C577 4.765 . S
C787 C591 4.765 . S
C605 C129 4.765 . S
C619 C143 4.765 1_545 S
C885 C633 4.765 . S
C843 C647 4.765 . S
C871 C661 4.765 . S
C1029 C679 5.152 . S
C693 C371 5.152 . S
C707 C1057 5.152 . S
C721 C343 5.152 1_455 S
C735 C1113 5.152 . S
C399 C749 5.152 1_655 S
C763 C1085 5.152 . S
C427 C777 5.152 . S
C791 C651 5.152 . S
C567 C805 5.152 1_556 S
C665 C819 5.152 . S
C833 C637 5.152 . S
C595 C847 5.152 . S
C1281 C861 5.152 1_554 S
C1295 C875 5.152 . S
C1253 C889 5.152 . S
C525 C903 5.152 . S
C1169 C917 5.152 . S
C931 C455 5.152 1_545 S
C945 C1141 5.152 . S
C1155 C959 5.152 . S
C973 C553 5.152 . S
C511 C987 5.152 1_545 S
C539 C1001 5.152 1_565 S
C1011 C689 4.765 . S
C31 C1025 4.765 . S
C1039 C717 4.765 . S
C3 C1053 4.765 1_455 S
C1067 C773 4.765 . S
C1081 C59 4.765 1_655 S
C1095 C745 4.765 . S
C87 C1109 4.765 . S
C1123 C311 4.765 . S
C227 C1137 4.765 1_554 S
C1151 C325 4.765 . S
C297 C1165 4.765 . S
C1179 C255 4.765 . S
C1193 C941 4.765 1_554 S
C1207 C955 4.765 . S
C1221 C913 4.765 . S
C1235 C185 4.765 . S
C829 C1249 4.765 . S
C1263 C115 4.765 1_565 S
C801 C1277 4.765 . S
C1291 C815 4.765 . S
C213 C1305 4.765 . S
C1319 C171 4.765 1_545 S
C1333 C199 4.765 1_565 S
C709 C9 0.769 1_655 S
C723 C23 0.769 1_455 S
C681 C37 0.769 . S
C695 C51 0.769 . S
C65 C765 0.769 1_455 S
C779 C79 0.769 . S
C93 C737 0.769 . S
C751 C107 0.769 1_455 S
C121 C177 0.769 1_545 S
C191 C135 0.769 . S
C149 C205 0.769 1_565 S
C219 C163 0.769 1_556 S
C233 C947 0.769 1_554 S
C975 C247 0.769 1_554 S
C261 C317 0.769 . S
C905 C275 0.769 . S
C289 C1003 0.769 1_565 S
C919 C303 0.769 . S
C331 C961 0.769 . S
C1045 C345 0.733 1_455 S
C359 C1059 0.733 1_455 S
C1017 C373 0.733 . S
C387 C1031 0.733 . S
C1101 C401 0.733 1_455 S
C1115 C415 0.733 . S
C1073 C429 0.733 . S
C443 C1087 0.733 1_455 S
C457 C513 0.733 1_565 S
C527 C471 0.733 . S
C485 C541 0.733 1_545 S
C499 C555 0.733 1_556 S
C569 C1283 0.733 1_556 S
C1311 C583 0.733 1_556 S
C653 C597 0.733 . S
C1241 C611 0.733 . S
C625 C1339 0.733 1_545 S
C639 C1255 0.733 . S
C1297 C667 0.733 . S
C793 C849 0.769 . S
C807 C863 0.769 1_554 S
C821 C877 0.769 . S
C891 C835 0.769 . S
C989 C933 0.769 1_565 S
C1129 C1185 0.733 . S
C1143 C1199 0.733 1_556 S
C1213 C1157 0.733 . S
C1171 C1227 0.733 . S
C1325 C1269 0.733 1_545 S
C8 C316 1.462 . S
C22 C904 1.463 . S
C330 C36 1.462 . S
C50 C974 1.462 . S
C64 C260 1.462 . S
C78 C274 1.462 . S
C92 C960 1.462 . S
C246 C106 1.462 . S
C120 C190 1.462 . S
C134 C204 1.462 . S
C148 C218 1.462 . S
C176 C162 1.462 . S
C694 C232 1.462 . S
C764 C288 1.462 . S
C302 C722 1.463 . S
C344 C652 1.429 . S
C1240 C358 1.429 . S
C372 C666 1.429 . S
C386 C1310 1.429 . S
C400 C596 1.429 . S
C414 C610 1.429 . S
C428 C1296 1.429 . S
C442 C582 1.429 . S
C526 C456 1.429 . S
C470 C540 1.429 . S
C554 C484 1.429 . S
C512 C498 1.429 . S
C1030 C568 1.429 . S
C624 C1100 1.429 . S
C1058 C638 1.429 . S
C988 C680 1.463 . S
C1002 C708 1.462 . S
C736 C932 1.463 . S
C946 C750 1.462 . S
C778 C918 1.462 . S
C792 C862 1.463 . S
C806 C876 1.463 . S
C820 C890 1.462 . S
C848 C834 1.462 . S
C1324 C1016 1.429 . S
C1044 C1338 1.429 . S
C1268 C1072 1.429 . S
C1086 C1282 1.429 . S
C1254 C1114 1.429 . S
C1198 C1128 1.429 . S
C1142 C1212 1.429 . S
C1156 C1226 1.429 . S
C1170 C1184 1.429 . S
