# Generated by pormake.
# Topology rob, (6)-cn, num edge types: 1
# Building blocks:
#     Node 0, Type 0, BuildingBlock: CUWYAW_clean_sbu_0, # of connection points: 6
#     Node 1, Type 0, BuildingBlock: CUWYAW_clean_sbu_0, # of connection points: 6
#     Node 2, Type 0, BuildingBlock: CUWYAW_clean_sbu_0, # of connection points: 6
#     Node 3, Type 0, BuildingBlock: CUWYAW_clean_sbu_0, # of connection points: 6
#     Edge 4, Type (0, 0), BuildingBlock: XUDNAN_clean_linker_2, # of connection points: 2
#     Edge 5, Type (0, 0), BuildingBlock: XUDNAN_clean_linker_2, # of connection points: 2
#     Edge 6, Type (0, 0), BuildingBlock: XUDNAN_clean_linker_2, # of connection points: 2
#     Edge 7, Type (0, 0), BuildingBlock: XUDNAN_clean_linker_2, # of connection points: 2
#     Edge 8, Type (0, 0), BuildingBlock: XUDNAN_clean_linker_2, # of connection points: 2
#     Edge 9, Type (0, 0), BuildingBlock: XUDNAN_clean_linker_2, # of connection points: 2
#     Edge 10, Type (0, 0), BuildingBlock: XUDNAN_clean_linker_2, # of connection points: 2
#     Edge 11, Type (0, 0), BuildingBlock: XUDNAN_clean_linker_2, # of connection points: 2
#     Edge 12, Type (0, 0), BuildingBlock: XUDNAN_clean_linker_2, # of connection points: 2
#     Edge 13, Type (0, 0), BuildingBlock: XUDNAN_clean_linker_2, # of connection points: 2
#     Edge 14, Type (0, 0), BuildingBlock: XUDNAN_clean_linker_2, # of connection points: 2
#     Edge 15, Type (0, 0), BuildingBlock: XUDNAN_clean_linker_2, # of connection points: 2
# Relax obj value: 0.038
# Max RMSD: 0.143
# Mean RMSD: 0.143
data_MOF--net-rob--node1-CUWYAW_clean_sbu_0--edge1-XUDNAN_clean_linker_2
_symmetry_space_group_name_H-M    P1
_symmetry_Int_Tables_number       1
_symmetry_cell_setting            triclinic
loop_
_symmetry_equiv_pos_as_xyz
'x, y, z'
_cell_length_a     16.108953
_cell_length_b     23.846577
_cell_length_c     36.84707
_cell_angle_alpha  95.211884
_cell_angle_beta   89.85299
_cell_angle_gamma 90.005271
loop_
_atom_site_label
_atom_site_type_symbol
_atom_site_fract_x
_atom_site_fract_y
_atom_site_fract_z
_atom_type_partial_charge
C0 C 0.44077 0.21787 0.95247 0.0
Eu1 Eu 0.32192 0.24085 0.99953 0.0
C2 C 0.45125 0.21518 0.91244 0.0
C3 C 0.50528 0.25314 0.89749 0.0
C4 C 0.5165 0.25162 0.8598 0.0
C5 C 0.47457 0.21161 0.83611 0.0
C6 C 0.42011 0.1737 0.85114 0.0
C7 C 0.40842 0.17552 0.88888 0.0
C8 C 0.19191 0.17401 0.01411 0.0
C9 C 0.17101 0.30371 0.959 0.0
C10 C 0.06465 0.32198 0.09135 0.0
Eu11 Eu 0.18449 0.30018 0.04464 0.0
C12 C 0.05373 0.32373 0.13124 0.0
C13 C 0.99054 0.29154 0.14537 0.0
C14 C 0.97975 0.29127 0.18299 0.0
C15 C 0.03153 0.32371 0.20742 0.0
C16 C 0.09496 0.35597 0.19311 0.0
C17 C 0.10625 0.35576 0.15544 0.0
C18 C 0.31427 0.36707 0.02975 0.0
C19 C 0.33624 0.23811 0.08529 0.0
O20 O 0.42852 0.26803 0.96914 0.0
O21 O 0.39483 0.17921 0.96571 0.0
O22 O 0.26842 0.15671 1.01269 0.0
O23 O 0.18774 0.22411 1.00589 0.0
O24 O 0.24856 0.28519 0.95761 0.0
O25 O 0.12792 0.30731 0.98965 0.0
O26 O 0.07767 0.27207 0.07448 0.0
O27 O 0.1107 0.36109 0.07864 0.0
O28 O 0.23769 0.38436 0.03129 0.0
O29 O 0.31849 0.31709 0.03819 0.0
O30 O 0.25896 0.25717 0.0868 0.0
O31 O 0.3788 0.23352 0.05448 0.0
H32 H 0.53884 0.28425 0.91502 0.0
H33 H 0.55765 0.28222 0.84927 0.0
H34 H 0.38746 0.14191 0.83382 0.0
H35 H 0.36618 0.14567 0.89952 0.0
H36 H 0.94978 0.26611 0.12722 0.0
H37 H 0.9314 0.26497 0.19286 0.0
H38 H 0.13544 0.38204 0.21096 0.0
H39 H 0.156 0.38069 0.14533 0.0
C40 C 0.94846 0.7522 0.95224 0.0
Eu41 Eu 0.82728 0.75616 0.99962 0.0
C42 C 0.95612 0.7443 0.91231 0.0
C43 C 0.03068 0.75809 0.89567 0.0
C44 C 0.03858 0.75177 0.85771 0.0
C45 C 0.97196 0.73131 0.83561 0.0
C46 C 0.89727 0.71722 0.85259 0.0
C47 C 0.88935 0.72385 0.89058 0.0
C48 C 0.73242 0.66613 1.01329 0.0
C49 C 0.65534 0.78964 0.96002 0.0
C50 C 0.55463 0.79035 0.0909 0.0
Eu51 Eu 0.67726 0.78586 0.04439 0.0
C52 C 0.54537 0.7995 0.13063 0.0
C53 C 0.61036 0.82228 0.15253 0.0
C54 C 0.60155 0.82895 0.19045 0.0
C55 C 0.52822 0.8119 0.20722 0.0
C56 C 0.46255 0.7905 0.18482 0.0
C57 C 0.47124 0.78422 0.14694 0.0
C58 C 0.77258 0.87571 0.03049 0.0
C59 C 0.84846 0.75235 0.08454 0.0
O60 O 0.91338 0.79906 0.9656 0.0
O61 O 0.92289 0.70863 0.96825 0.0
O62 O 0.81285 0.6659 1.01281 0.0
O63 O 0.7052 0.71287 1.00501 0.0
O64 O 0.73734 0.78903 0.95892 0.0
O65 O 0.61495 0.77981 0.9899 0.0
O66 O 0.59122 0.74346 0.0786 0.0
O67 O 0.57989 0.83354 0.07442 0.0
O68 O 0.69214 0.87598 0.03079 0.0
O69 O 0.7994 0.82905 0.03906 0.0
O70 O 0.7665 0.75431 0.08565 0.0
O71 O 0.88942 0.7604 0.05438 0.0
H72 H 0.08264 0.77431 0.91204 0.0
H73 H 0.09638 0.7642 0.84571 0.0
H74 H 0.8449 0.70091 0.83656 0.0
H75 H 0.83109 0.71314 0.90299 0.0
H76 H 0.66817 0.8344 0.14032 0.0
H77 H 0.65299 0.84635 0.20654 0.0
H78 H 0.40404 0.77864 0.19645 0.0
H79 H 0.42021 0.76698 0.13037 0.0
C80 C 0.45238 0.79282 0.59274 0.0
Eu81 Eu 0.33251 0.78619 0.54506 0.0
C82 C 0.45888 0.79982 0.63265 0.0
C83 C 0.53305 0.78585 0.64936 0.0
C84 C 0.54011 0.7919 0.68731 0.0
C85 C 0.47303 0.8123 0.70929 0.0
C86 C 0.3987 0.82648 0.69226 0.0
C87 C 0.3916 0.82007 0.65428 0.0
C88 C 0.2366 0.87422 0.52907 0.0
C89 C 0.15974 0.75173 0.58457 0.0
C90 C 0.06488 0.74649 0.45212 0.0
Eu91 Eu 0.18437 0.75288 0.49986 0.0
C92 C 0.05807 0.74126 0.41208 0.0
C93 C 0.99724 0.70599 0.39516 0.0
C94 C 0.98891 0.70101 0.35724 0.0
C95 C 0.04108 0.73152 0.33547 0.0
C96 C 0.10269 0.76639 0.35259 0.0
C97 C 0.11141 0.77098 0.39048 0.0
C98 C 0.27996 0.66509 0.51642 0.0
C99 C 0.35712 0.78705 0.46018 0.0
O100 O 0.42122 0.74509 0.57869 0.0
O101 O 0.42364 0.83604 0.57733 0.0
O102 O 0.31697 0.87533 0.53012 0.0
O103 O 0.20991 0.8277 0.53806 0.0
O104 O 0.24162 0.75502 0.58628 0.0
O105 O 0.11984 0.75807 0.55404 0.0
O106 O 0.09409 0.79411 0.46742 0.0
O107 O 0.09427 0.70271 0.46674 0.0
O108 O 0.19944 0.66428 0.51587 0.0
O109 O 0.30681 0.71131 0.50693 0.0
O110 O 0.27578 0.7807 0.45802 0.0
O111 O 0.39748 0.78431 0.49101 0.0
H112 H 0.58539 0.7698 0.63304 0.0
H113 H 0.59763 0.77938 0.6994 0.0
H114 H 0.34603 0.84274 0.70822 0.0
H115 H 0.33364 0.83093 0.6418 0.0
H116 H 0.95593 0.68236 0.41133 0.0
H117 H 0.94168 0.67309 0.345 0.0
H118 H 0.14307 0.79122 0.33682 0.0
H119 H 0.15924 0.79829 0.40284 0.0
C120 C 0.94805 0.321 0.59133 0.0
Eu121 Eu 0.82653 0.29824 0.54558 0.0
C122 C 0.96169 0.32224 0.63091 0.0
C123 C 0.02073 0.35904 0.64783 0.0
C124 C 0.03404 0.3606 0.68546 0.0
C125 C 0.98765 0.32582 0.70674 0.0
C126 C 0.9289 0.28882 0.68963 0.0
C127 C 0.91646 0.28678 0.65202 0.0
C128 C 0.69784 0.36585 0.53079 0.0
C129 C 0.67249 0.23577 0.58519 0.0
C130 C 0.56963 0.21918 0.45247 0.0
Eu131 Eu 0.68845 0.2402 0.49961 0.0
C132 C 0.55858 0.21777 0.41247 0.0
C133 C 0.59015 0.1733 0.38873 0.0
C134 C 0.57768 0.17229 0.35111 0.0
C135 C 0.53337 0.21568 0.33632 0.0
C136 C 0.50225 0.26024 0.36012 0.0
C137 C 0.5144 0.26111 0.39772 0.0
C138 C 0.81752 0.17268 0.5143 0.0
C139 C 0.84137 0.30232 0.45976 0.0
O140 O 0.93566 0.27133 0.574 0.0
O141 O 0.89832 0.35942 0.58042 0.0
O142 O 0.77453 0.38281 0.53244 0.0
O143 O 0.69289 0.3157 0.53879 0.0
O144 O 0.7504 0.25391 0.58702 0.0
O145 O 0.63046 0.23259 0.55435 0.0
O146 O 0.58224 0.26879 0.46985 0.0
O147 O 0.61538 0.17984 0.46499 0.0
O148 O 0.74094 0.15548 0.51238 0.0
O149 O 0.82203 0.22285 0.50632 0.0
O150 O 0.76352 0.28447 0.45811 0.0
O151 O 0.88368 0.30547 0.49053 0.0
H152 H 0.05648 0.38659 0.63195 0.0
H153 H 0.07952 0.38963 0.69801 0.0
H154 H 0.89341 0.26091 0.70532 0.0
H155 H 0.87201 0.25727 0.63936 0.0
H156 H 0.62402 0.13899 0.39915 0.0
H157 H 0.60151 0.13688 0.3337 0.0
H158 H 0.4689 0.29478 0.3497 0.0
H159 H 0.48907 0.29585 0.41532 0.0
H160 H 0.56159 0.65564 1.01027 0.0
H161 H 0.78794 0.56148 0.02435 0.0
H162 H 0.70571 0.47517 0.02905 0.0
H163 H 0.43672 0.58395 0.07367 0.0
H164 H 0.34356 0.58476 0.04672 0.0
H165 H 0.42019 0.63934 0.04428 0.0
H166 H 0.42939 0.61659 0.97429 0.0
H167 H 0.35306 0.56178 0.97655 0.0
H168 H 0.45274 0.54572 0.95582 0.0
H169 H 0.60013 0.39884 0.03179 0.0
H170 H 0.47701 0.33771 0.03437 0.0
H171 H 0.31721 0.48005 0.0189 0.0
C172 C 0.59365 0.61681 0.01437 0.0
C173 C 0.68128 0.61521 0.01682 0.0
C174 C 0.72098 0.56369 0.02231 0.0
C175 C 0.67479 0.51439 0.02498 0.0
C176 C 0.58869 0.51717 0.02223 0.0
C177 C 0.54828 0.567 0.01721 0.0
C178 C 0.4549 0.55822 0.01552 0.0
C179 C 0.41128 0.59367 0.04692 0.0
C180 C 0.42052 0.57135 0.97833 0.0
C181 C 0.44933 0.49569 0.0203 0.0
C182 C 0.5274 0.47294 0.02404 0.0
C183 C 0.53866 0.41616 0.02889 0.0
C184 C 0.46833 0.38172 0.03024 0.0
C185 C 0.38757 0.40402 0.02677 0.0
C186 C 0.37819 0.46178 0.02156 0.0
H187 H 0.45076 0.65473 0.51246 0.0
H188 H 0.22494 0.56096 0.52893 0.0
H189 H 0.30732 0.47472 0.53329 0.0
H190 H 0.55775 0.54449 0.45757 0.0
H191 H 0.65815 0.56041 0.47739 0.0
H192 H 0.5819 0.61537 0.47568 0.0
H193 H 0.59341 0.63847 0.54555 0.0
H194 H 0.67005 0.5838 0.54744 0.0
H195 H 0.57782 0.58328 0.57521 0.0
H196 H 0.41246 0.39835 0.53489 0.0
H197 H 0.53531 0.33694 0.53644 0.0
H198 H 0.69529 0.47883 0.51971 0.0
C199 C 0.41888 0.61602 0.51708 0.0
C200 C 0.33135 0.61446 0.52023 0.0
C201 C 0.29183 0.56311 0.52635 0.0
C202 C 0.33809 0.51385 0.52882 0.0
C203 C 0.42405 0.51653 0.52528 0.0
C204 C 0.46434 0.56624 0.51976 0.0
C205 C 0.55764 0.55729 0.51727 0.0
C206 C 0.59079 0.57015 0.47974 0.0
C207 C 0.60236 0.59282 0.54821 0.0
C208 C 0.56325 0.49481 0.52214 0.0
C209 C 0.48525 0.47225 0.52659 0.0
C210 C 0.47389 0.41552 0.5315 0.0
C211 C 0.54409 0.38092 0.53224 0.0
C212 C 0.62482 0.40303 0.52816 0.0
C213 C 0.63432 0.46074 0.52286 0.0
H214 H 0.18857 0.06109 0.02515 0.0
H215 H 0.02934 0.20344 1.00898 0.0
H216 H 0.90605 0.14247 1.0114 0.0
H217 H 0.06978 0.95731 0.97034 0.0
H218 H 0.08609 0.90205 0.99983 0.0
H219 H 0.16255 0.95678 0.99758 0.0
H220 H 0.15237 0.98018 0.06748 0.0
H221 H 0.07617 0.92535 0.06997 0.0
H222 H 0.05257 0.99634 0.08809 0.0
H223 H 0.80021 0.06637 0.01411 0.0
H224 H 0.71758 0.98026 0.01894 0.0
H225 H 0.94344 0.88593 0.03379 0.0
C226 C 0.12767 0.07938 0.02229 0.0
C227 C 0.11851 0.13711 0.01695 0.0
C228 C 0.03786 0.15946 1.01322 0.0
C229 C 0.96743 0.12511 0.01448 0.0
C230 C 0.97846 0.06837 0.01949 0.0
C231 C 0.05641 0.04555 0.02347 0.0
C232 C 0.0505 0.98306 0.02842 0.0
C233 C 0.09487 0.94773 0.99718 0.0
C234 C 0.08494 0.97051 0.06571 0.0
C235 C 0.95714 0.97444 0.02656 0.0
C236 C 0.91698 0.02427 0.02129 0.0
C237 C 0.83093 0.02715 0.01836 0.0
C238 C 0.78451 0.97797 0.02111 0.0
C239 C 0.82396 0.92647 0.02686 0.0
C240 C 0.91156 0.92475 0.02948 0.0
H241 H 0.82055 0.05982 0.52554 0.0
H242 H 0.97995 0.20179 0.50834 0.0
H243 H 0.10304 0.1406 0.51002 0.0
H244 H 0.95797 0.99507 0.58778 0.0
H245 H 0.93377 0.92407 0.56995 0.0
H246 H 0.85763 0.97903 0.5679 0.0
H247 H 0.8457 0.95535 0.4981 0.0
H248 H 0.92212 0.90051 0.49991 0.0
H249 H 0.93778 0.95562 0.4702 0.0
H250 H 0.20853 0.06448 0.51198 0.0
H251 H 0.29121 0.97842 0.51653 0.0
H252 H 0.06567 0.88435 0.53305 0.0
C253 C 0.88145 0.07796 0.52231 0.0
C254 C 0.89073 0.13565 0.51688 0.0
C255 C 0.97136 0.15784 0.51268 0.0
C256 C 0.04168 0.12337 0.5135 0.0
C257 C 0.03055 0.06668 0.51859 0.0
C258 C 0.95265 0.04401 0.52311 0.0
C259 C 0.95854 0.98155 0.52811 0.0
C260 C 0.92499 0.96922 0.56567 0.0
C261 C 0.91334 0.94618 0.49724 0.0
C262 C 0.05184 0.97277 0.52561 0.0
C263 C 0.09193 0.02251 0.52001 0.0
C264 C 0.17789 0.02532 0.5165 0.0
C265 C 0.22432 0.97616 0.51909 0.0
C266 C 0.18498 0.92476 0.52525 0.0
C267 C 0.09744 0.92308 0.52838 0.0
H268 H 0.39215 0.24651 0.30101 0.0
H269 H 0.64165 0.1817 0.28088 0.0
H270 H 0.61639 0.17698 0.21466 0.0
H271 H 0.29013 0.16566 0.22778 0.0
H272 H 0.22306 0.2223 0.21692 0.0
H273 H 0.25996 0.21962 0.2628 0.0
H274 H 0.32026 0.32007 0.26199 0.0
H275 H 0.28353 0.32304 0.21608 0.0
H276 H 0.39171 0.33507 0.22639 0.0
H277 H 0.56445 0.17993 0.15052 0.0
H278 H 0.49127 0.19332 0.09317 0.0
H279 H 0.2768 0.25812 0.15526 0.0
C280 C 0.44187 0.23175 0.28275 0.0
C281 C 0.5188 0.21407 0.29631 0.0
C282 C 0.58168 0.19448 0.27129 0.0
C283 C 0.56809 0.19193 0.23358 0.0
C284 C 0.49143 0.20932 0.22123 0.0
C285 C 0.42952 0.2292 0.24504 0.0
C286 C 0.35339 0.24656 0.22469 0.0
C287 C 0.27716 0.21139 0.23357 0.0
C288 C 0.33626 0.30994 0.23277 0.0
C289 C 0.3819 0.23271 0.1857 0.0
C290 C 0.46172 0.21138 0.18429 0.0
C291 C 0.50188 0.19652 0.15128 0.0
C292 C 0.45971 0.20423 0.11883 0.0
C293 C 0.37813 0.22657 0.1196 0.0
C294 C 0.33881 0.24049 0.15361 0.0
H295 H 0.44495 0.73908 0.24821 0.0
H296 H 0.59361 0.89173 0.25856 0.0
H297 H 0.57825 0.89645 0.3254 0.0
H298 H 0.29707 0.78644 0.3137 0.0
H299 H 0.28174 0.71851 0.33056 0.0
H300 H 0.31451 0.72297 0.28419 0.0
H301 H 0.4421 0.66077 0.29477 0.0
H302 H 0.41011 0.65618 0.34131 0.0
H303 H 0.51243 0.68157 0.33153 0.0
H304 H 0.54192 0.88574 0.39187 0.0
H305 H 0.47619 0.86593 0.45043 0.0
H306 H 0.33987 0.72742 0.39453 0.0
C307 C 0.47413 0.77384 0.26428 0.0
C308 C 0.52064 0.81497 0.24774 0.0
C309 C 0.55887 0.85897 0.27031 0.0
C310 C 0.55031 0.86216 0.30842 0.0
C311 C 0.50304 0.82123 0.32361 0.0
C312 C 0.46515 0.77818 0.30212 0.0
C313 C 0.41222 0.74197 0.3246 0.0
C314 C 0.32098 0.74257 0.31257 0.0
C315 C 0.44628 0.68155 0.32295 0.0
C316 C 0.42384 0.77239 0.36201 0.0
C317 C 0.47839 0.81703 0.36119 0.0
C318 C 0.49911 0.85092 0.39277 0.0
C319 C 0.46185 0.83936 0.42583 0.0
C320 C 0.40311 0.79543 0.42662 0.0
C321 C 0.38449 0.76141 0.39442 0.0
H322 H 0.7154 0.82888 0.89759 0.0
H323 H 0.49008 0.7701 0.94677 0.0
H324 H 0.41465 0.77917 0.88932 0.0
H325 H 0.61058 0.93044 0.84156 0.0
H326 H 0.68261 0.91588 0.80438 0.0
H327 H 0.7161 0.91088 0.85062 0.0
H328 H 0.76463 0.80874 0.83325 0.0
H329 H 0.73044 0.81301 0.78712 0.0
H330 H 0.69211 0.7576 0.81288 0.0
H331 H 0.36785 0.78564 0.82491 0.0
H332 H 0.35364 0.78835 0.75865 0.0
H333 H 0.60841 0.8449 0.7518 0.0
C334 C 0.64987 0.81871 0.8965 0.0
C335 C 0.60859 0.79876 0.92663 0.0
C336 C 0.52288 0.78575 0.92407 0.0
C337 C 0.47945 0.7909 0.89159 0.0
C338 C 0.52235 0.80998 0.8622 0.0
C339 C 0.60541 0.82427 0.8645 0.0
C340 C 0.63813 0.84078 0.82845 0.0
C341 C 0.66332 0.90321 0.83144 0.0
C342 C 0.71057 0.8027 0.81463 0.0
C343 C 0.56188 0.83048 0.80493 0.0
C344 C 0.49529 0.81386 0.82508 0.0
C345 C 0.41932 0.79936 0.80898 0.0
C346 C 0.41173 0.80105 0.77122 0.0
C347 C 0.47974 0.81637 0.74976 0.0
C348 C 0.5553 0.83236 0.76721 0.0
H349 H 0.7354 0.24207 0.65469 0.0
H350 H 0.51023 0.20336 0.593 0.0
H351 H 0.43548 0.19032 0.6502 0.0
H352 H 0.70195 0.1421 0.72295 0.0
H353 H 0.74619 0.18936 0.75872 0.0
H354 H 0.78088 0.19161 0.71237 0.0
H355 H 0.74456 0.29884 0.71665 0.0
H356 H 0.70945 0.29524 0.7628 0.0
H357 H 0.64087 0.32102 0.72949 0.0
H358 H 0.38355 0.1866 0.71487 0.0
H359 H 0.36004 0.18966 0.78124 0.0
H360 H 0.62083 0.22824 0.79985 0.0
C361 C 0.67081 0.23012 0.65298 0.0
C362 C 0.62908 0.22362 0.61918 0.0
C363 C 0.54392 0.20844 0.61847 0.0
C364 C 0.50079 0.20098 0.65086 0.0
C365 C 0.54374 0.20855 0.68372 0.0
C366 C 0.62702 0.22238 0.68495 0.0
C367 C 0.65854 0.2294 0.72377 0.0
C368 C 0.72587 0.18551 0.72981 0.0
C369 C 0.69021 0.28969 0.73376 0.0
C370 C 0.57969 0.21804 0.74427 0.0
C371 C 0.51413 0.20601 0.72074 0.0
C372 C 0.43467 0.19541 0.73352 0.0
C373 C 0.422 0.19704 0.77132 0.0
C374 C 0.48844 0.20923 0.79598 0.0
C375 C 0.56829 0.21954 0.78196 0.0
H376 H 0.78308 0.7373 0.15169 0.0
H377 H 0.01742 0.74865 0.09424 0.0
H378 H 0.09286 0.73847 0.1516 0.0
H379 H 0.84008 0.81745 0.23124 0.0
H380 H 0.78587 0.77573 0.26222 0.0
H381 H 0.74936 0.7775 0.21635 0.0
H382 H 0.75649 0.67012 0.20487 0.0
H383 H 0.79148 0.66625 0.25099 0.0
H384 H 0.85196 0.63419 0.21343 0.0
H385 H 0.14233 0.73172 0.21611 0.0
H386 H 0.16152 0.73036 0.28241 0.0
H387 H 0.8945 0.72614 0.29725 0.0
C388 C 0.85029 0.73702 0.15095 0.0
C389 C 0.89433 0.7437 0.11837 0.0
C390 C 0.98228 0.7435 0.11881 0.0
C391 C 0.02569 0.7376 0.15125 0.0
C392 C 0.98024 0.73163 0.18292 0.0
C393 C 0.89449 0.73108 0.18297 0.0
C394 C 0.86024 0.72636 0.22088 0.0
C395 C 0.8058 0.77742 0.23345 0.0
C396 C 0.81223 0.67092 0.22263 0.0
C397 C 0.93998 0.72616 0.24238 0.0
C398 C 0.00859 0.72842 0.21998 0.0
C399 C 0.08895 0.72987 0.23386 0.0
C400 C 0.09927 0.72957 0.27164 0.0
C401 C 0.02976 0.7284 0.29523 0.0
C402 C 0.94916 0.72615 0.2801 0.0
H403 H 0.77321 0.30641 0.39174 0.0
H404 H 0.00748 0.32093 0.44998 0.0
H405 H 0.08119 0.32963 0.39201 0.0
H406 H 0.8464 0.22336 0.31407 0.0
H407 H 0.78402 0.2574 0.28197 0.0
H408 H 0.74866 0.25521 0.32819 0.0
H409 H 0.73564 0.36381 0.33535 0.0
H410 H 0.77016 0.36644 0.289 0.0
H411 H 0.82393 0.40648 0.32557 0.0
H412 H 0.1306 0.32976 0.32723 0.0
H413 H 0.1511 0.32813 0.26085 0.0
H414 H 0.88398 0.31873 0.24524 0.0
C415 C 0.83991 0.31208 0.39243 0.0
C416 C 0.88449 0.313 0.4255 0.0
C417 C 0.9718 0.32036 0.42509 0.0
C418 C 0.01434 0.32515 0.39225 0.0
C419 C 0.96869 0.32301 0.3601 0.0
C420 C 0.88331 0.31733 0.35996 0.0
C421 C 0.84904 0.31571 0.32162 0.0
C422 C 0.80444 0.25958 0.31085 0.0
C423 C 0.7913 0.36613 0.31767 0.0
C424 C 0.92873 0.32056 0.30018 0.0
C425 C 0.99701 0.32457 0.32287 0.0
C426 C 0.07749 0.32758 0.30924 0.0
C427 C 0.08845 0.327 0.27142 0.0
C428 C 0.01928 0.32389 0.24757 0.0
C429 C 0.93844 0.32066 0.26245 0.0
H430 H 0.13442 0.32072 0.74398 0.0
H431 H 0.86808 0.33528 0.75948 0.0
H432 H 0.88689 0.33679 0.82612 0.0
H433 H 0.16826 0.22719 0.8126 0.0
H434 H 0.26649 0.25755 0.82716 0.0
H435 H 0.23242 0.26116 0.78094 0.0
H436 H 0.24858 0.36967 0.78849 0.0
H437 H 0.2825 0.36624 0.83479 0.0
H438 H 0.19539 0.40998 0.82525 0.0
H439 H 0.93432 0.33521 0.89076 0.0
H440 H 0.00583 0.32432 0.94879 0.0
H441 H 0.24153 0.30793 0.89123 0.0
C442 C 0.0803 0.32497 0.76151 0.0
C443 C 0.99978 0.3282 0.74672 0.0
C444 C 0.93018 0.33256 0.77035 0.0
C445 C 0.94033 0.33377 0.80819 0.0
C446 C 0.02049 0.33027 0.82194 0.0
C447 C 0.08929 0.32558 0.79935 0.0
C448 C 0.16818 0.31949 0.82102 0.0
C449 C 0.21133 0.26298 0.80976 0.0
C450 C 0.22712 0.36933 0.81716 0.0
C451 C 0.13282 0.32102 0.85924 0.0
C452 C 0.04767 0.32794 0.85919 0.0
C453 C 1.00102 0.32991 0.89117 0.0
C454 C 0.04231 0.32381 0.92404 0.0
C455 C 0.12935 0.31529 0.92467 0.0
C456 C 0.175 0.3145 0.89177 0.0
H457 H 0.21853 0.71376 0.64752 0.0
H458 H 0.99406 0.77103 0.59744 0.0
H459 H 0.91741 0.76281 0.6549 0.0
H460 H 0.11251 0.61268 0.70379 0.0
H461 H 0.18371 0.62761 0.74107 0.0
H462 H 0.2182 0.63225 0.69486 0.0
H463 H 0.26618 0.7345 0.71195 0.0
H464 H 0.23102 0.73057 0.75807 0.0
H465 H 0.1932 0.78573 0.73204 0.0
H466 H 0.86922 0.75723 0.71957 0.0
H467 H 0.85355 0.75493 0.78586 0.0
H468 H 0.10833 0.69879 0.79331 0.0
C469 C 0.15296 0.72382 0.64844 0.0
C470 C 0.11227 0.74312 0.61802 0.0
C471 C 0.02643 0.75589 0.62035 0.0
C472 C 0.98232 0.75124 0.65285 0.0
C473 C 0.02464 0.73278 0.68251 0.0
C474 C 0.10778 0.71861 0.68043 0.0
C475 C 0.13967 0.70244 0.71664 0.0
C476 C 0.165 0.64003 0.71392 0.0
C477 C 0.21174 0.74065 0.73047 0.0
C478 C 0.06292 0.71285 0.74002 0.0
C479 C 0.99674 0.72924 0.71967 0.0
C480 C 0.92039 0.74371 0.73564 0.0
C481 C 0.91197 0.74224 0.77343 0.0
C482 C 0.97954 0.72711 0.79509 0.0
C483 C 0.05551 0.71119 0.77777 0.0
loop_
_geom_bond_atom_site_label_1
_geom_bond_atom_site_label_2
_geom_bond_distance
_geom_bond_site_symmetry_2
_ccdc_geom_bond_type
C0 Eu1 2.835 . S
C0 C2 1.500 . S
C0 O20 1.257 . S
C0 O21 1.260 . S
Eu1 C0 2.835 . S
Eu1 O20 2.473 . S
Eu1 O21 2.480 . S
Eu1 O22 2.430 . S
Eu1 O23 2.670 1_556 S
Eu1 O24 2.394 . S
Eu1 O29 2.355 . S
Eu1 O31 2.374 1_556 S
C2 C0 1.500 . S
C2 C3 1.377 . S
C2 C7 1.377 . S
C3 C2 1.377 . S
C3 C4 1.395 . S
C3 H32 0.931 . S
C4 C3 1.395 . S
C4 C5 1.383 . S
C4 H33 0.931 . S
C5 C4 1.383 . S
C5 C6 1.394 . S
C6 C5 1.394 . S
C6 C7 1.378 . S
C6 H34 0.931 . S
C7 C2 1.377 . S
C7 C6 1.378 . S
C7 H35 0.931 . S
C8 O22 1.259 1_554 S
C8 O23 1.270 . S
C9 O24 1.251 . S
C9 O25 1.251 . S
C10 Eu11 2.835 . S
C10 C12 1.500 . S
C10 O26 1.257 . S
C10 O27 1.260 . S
Eu11 C10 2.835 . S
Eu11 O23 2.355 . S
Eu11 O25 2.374 1_554 S
Eu11 O26 2.473 . S
Eu11 O27 2.480 . S
Eu11 O28 2.430 . S
Eu11 O29 2.670 1_554 S
Eu11 O30 2.394 . S
C12 C10 1.500 . S
C12 C13 1.377 . S
C12 C17 1.377 . S
C13 C12 1.377 . S
C13 C14 1.395 . S
C13 H36 0.931 . S
C14 C13 1.395 . S
C14 C15 1.383 . S
C14 H37 0.931 . S
C15 C14 1.383 . S
C15 C16 1.394 . S
C16 C15 1.394 . S
C16 C17 1.378 . S
C16 H38 0.931 . S
C17 C12 1.377 . S
C17 C16 1.378 . S
C17 H39 0.931 . S
C18 O28 1.259 . S
C18 O29 1.270 1_554 S
C19 O30 1.251 . S
C19 O31 1.251 . S
O20 C0 1.257 . S
O20 Eu1 2.473 . S
O21 C0 1.260 . S
O21 Eu1 2.480 . S
O22 Eu1 2.430 . S
O22 C8 1.259 1_556 S
O23 Eu1 2.670 1_554 S
O23 C8 1.270 . S
O23 Eu11 2.355 . S
O24 Eu1 2.394 . S
O24 C9 1.251 . S
O25 C9 1.251 . S
O25 Eu11 2.374 1_556 S
O26 C10 1.257 . S
O26 Eu11 2.473 . S
O27 C10 1.260 . S
O27 Eu11 2.480 . S
O28 Eu11 2.430 . S
O28 C18 1.259 . S
O29 Eu1 2.355 . S
O29 Eu11 2.670 1_556 S
O29 C18 1.270 1_556 S
O30 Eu11 2.394 . S
O30 C19 1.251 . S
O31 Eu1 2.374 1_554 S
O31 C19 1.251 . S
H32 C3 0.931 . S
H33 C4 0.931 . S
H34 C6 0.931 . S
H35 C7 0.931 . S
H36 C13 0.931 . S
H37 C14 0.931 . S
H38 C16 0.931 . S
H39 C17 0.931 . S
C40 Eu41 2.835 . S
C40 C42 1.500 . S
C40 O60 1.257 . S
C40 O61 1.260 . S
Eu41 C40 2.835 . S
Eu41 O60 2.473 . S
Eu41 O61 2.480 . S
Eu41 O62 2.430 . S
Eu41 O63 2.670 1_556 S
Eu41 O64 2.394 . S
Eu41 O69 2.355 . S
Eu41 O71 2.374 1_556 S
C42 C40 1.500 . S
C42 C43 1.377 . S
C42 C47 1.377 . S
C43 C42 1.377 . S
C43 C44 1.395 . S
C43 H72 0.931 . S
C44 C43 1.395 . S
C44 C45 1.383 . S
C44 H73 0.931 . S
C45 C44 1.383 . S
C45 C46 1.394 . S
C46 C45 1.394 . S
C46 C47 1.378 . S
C46 H74 0.931 . S
C47 C42 1.377 . S
C47 C46 1.378 . S
C47 H75 0.931 . S
C48 O62 1.259 1_554 S
C48 O63 1.270 . S
C49 O64 1.251 . S
C49 O65 1.251 . S
C50 Eu51 2.835 . S
C50 C52 1.500 . S
C50 O66 1.257 . S
C50 O67 1.260 . S
Eu51 C50 2.835 . S
Eu51 O63 2.355 . S
Eu51 O65 2.374 1_554 S
Eu51 O66 2.473 . S
Eu51 O67 2.480 . S
Eu51 O68 2.430 . S
Eu51 O69 2.670 1_554 S
Eu51 O70 2.394 . S
C52 C50 1.500 . S
C52 C53 1.377 . S
C52 C57 1.377 . S
C53 C52 1.377 . S
C53 C54 1.395 . S
C53 H76 0.931 . S
C54 C53 1.395 . S
C54 C55 1.383 . S
C54 H77 0.931 . S
C55 C54 1.383 . S
C55 C56 1.394 . S
C56 C55 1.394 . S
C56 C57 1.378 . S
C56 H78 0.931 . S
C57 C52 1.377 . S
C57 C56 1.378 . S
C57 H79 0.931 . S
C58 O68 1.259 . S
C58 O69 1.270 1_554 S
C59 O70 1.251 . S
C59 O71 1.251 . S
O60 C40 1.257 . S
O60 Eu41 2.473 . S
O61 C40 1.260 . S
O61 Eu41 2.480 . S
O62 Eu41 2.430 . S
O62 C48 1.259 1_556 S
O63 Eu41 2.670 1_554 S
O63 C48 1.270 . S
O63 Eu51 2.355 . S
O64 Eu41 2.394 . S
O64 C49 1.251 . S
O65 C49 1.251 . S
O65 Eu51 2.374 1_556 S
O66 C50 1.257 . S
O66 Eu51 2.473 . S
O67 C50 1.260 . S
O67 Eu51 2.480 . S
O68 Eu51 2.430 . S
O68 C58 1.259 . S
O69 Eu41 2.355 . S
O69 Eu51 2.670 1_556 S
O69 C58 1.270 1_556 S
O70 Eu51 2.394 . S
O70 C59 1.251 . S
O71 Eu41 2.374 1_554 S
O71 C59 1.251 . S
H72 C43 0.931 . S
H73 C44 0.931 . S
H74 C46 0.931 . S
H75 C47 0.931 . S
H76 C53 0.931 . S
H77 C54 0.931 . S
H78 C56 0.931 . S
H79 C57 0.931 . S
C80 Eu81 2.835 . S
C80 C82 1.500 . S
C80 O100 1.257 . S
C80 O101 1.260 . S
Eu81 C80 2.835 . S
Eu81 O100 2.473 . S
Eu81 O101 2.480 . S
Eu81 O102 2.430 . S
Eu81 O103 2.670 . S
Eu81 O104 2.394 . S
Eu81 O109 2.355 . S
Eu81 O111 2.374 . S
C82 C80 1.500 . S
C82 C83 1.377 . S
C82 C87 1.377 . S
C83 C82 1.377 . S
C83 C84 1.395 . S
C83 H112 0.931 . S
C84 C83 1.395 . S
C84 C85 1.383 . S
C84 H113 0.931 . S
C85 C84 1.383 . S
C85 C86 1.394 . S
C86 C85 1.394 . S
C86 C87 1.378 . S
C86 H114 0.931 . S
C87 C82 1.377 . S
C87 C86 1.378 . S
C87 H115 0.931 . S
C88 O102 1.259 . S
C88 O103 1.270 . S
C89 O104 1.251 . S
C89 O105 1.251 . S
C90 Eu91 2.835 . S
C90 C92 1.500 . S
C90 O106 1.257 . S
C90 O107 1.260 . S
Eu91 C90 2.835 . S
Eu91 O103 2.355 . S
Eu91 O105 2.374 . S
Eu91 O106 2.473 . S
Eu91 O107 2.480 . S
Eu91 O108 2.430 . S
Eu91 O109 2.670 . S
Eu91 O110 2.394 . S
C92 C90 1.500 . S
C92 C93 1.377 . S
C92 C97 1.377 . S
C93 C92 1.377 . S
C93 C94 1.395 . S
C93 H116 0.931 . S
C94 C93 1.395 . S
C94 C95 1.383 . S
C94 H117 0.931 . S
C95 C94 1.383 . S
C95 C96 1.394 . S
C96 C95 1.394 . S
C96 C97 1.378 . S
C96 H118 0.931 . S
C97 C92 1.377 . S
C97 C96 1.378 . S
C97 H119 0.931 . S
C98 O108 1.259 . S
C98 O109 1.270 . S
C99 O110 1.251 . S
C99 O111 1.251 . S
O100 C80 1.257 . S
O100 Eu81 2.473 . S
O101 C80 1.260 . S
O101 Eu81 2.480 . S
O102 Eu81 2.430 . S
O102 C88 1.259 . S
O103 Eu81 2.670 . S
O103 C88 1.270 . S
O103 Eu91 2.355 . S
O104 Eu81 2.394 . S
O104 C89 1.251 . S
O105 C89 1.251 . S
O105 Eu91 2.374 . S
O106 C90 1.257 . S
O106 Eu91 2.473 . S
O107 C90 1.260 . S
O107 Eu91 2.480 . S
O108 Eu91 2.430 . S
O108 C98 1.259 . S
O109 Eu81 2.355 . S
O109 Eu91 2.670 . S
O109 C98 1.270 . S
O110 Eu91 2.394 . S
O110 C99 1.251 . S
O111 Eu81 2.374 . S
O111 C99 1.251 . S
H112 C83 0.931 . S
H113 C84 0.931 . S
H114 C86 0.931 . S
H115 C87 0.931 . S
H116 C93 0.931 . S
H117 C94 0.931 . S
H118 C96 0.931 . S
H119 C97 0.931 . S
C120 Eu121 2.835 . S
C120 C122 1.500 . S
C120 O140 1.257 . S
C120 O141 1.260 . S
Eu121 C120 2.835 . S
Eu121 O140 2.473 . S
Eu121 O141 2.480 . S
Eu121 O142 2.430 . S
Eu121 O143 2.670 . S
Eu121 O144 2.394 . S
Eu121 O149 2.355 . S
Eu121 O151 2.374 . S
C122 C120 1.500 . S
C122 C123 1.377 . S
C122 C127 1.377 . S
C123 C122 1.377 . S
C123 C124 1.395 . S
C123 H152 0.931 . S
C124 C123 1.395 . S
C124 C125 1.383 . S
C124 H153 0.931 . S
C125 C124 1.383 . S
C125 C126 1.394 . S
C126 C125 1.394 . S
C126 C127 1.378 . S
C126 H154 0.931 . S
C127 C122 1.377 . S
C127 C126 1.378 . S
C127 H155 0.931 . S
C128 O142 1.259 . S
C128 O143 1.270 . S
C129 O144 1.251 . S
C129 O145 1.251 . S
C130 Eu131 2.835 . S
C130 C132 1.500 . S
C130 O146 1.257 . S
C130 O147 1.260 . S
Eu131 C130 2.835 . S
Eu131 O143 2.355 . S
Eu131 O145 2.374 . S
Eu131 O146 2.473 . S
Eu131 O147 2.480 . S
Eu131 O148 2.430 . S
Eu131 O149 2.670 . S
Eu131 O150 2.394 . S
C132 C130 1.500 . S
C132 C133 1.377 . S
C132 C137 1.377 . S
C133 C132 1.377 . S
C133 C134 1.395 . S
C133 H156 0.931 . S
C134 C133 1.395 . S
C134 C135 1.383 . S
C134 H157 0.931 . S
C135 C134 1.383 . S
C135 C136 1.394 . S
C136 C135 1.394 . S
C136 C137 1.378 . S
C136 H158 0.931 . S
C137 C132 1.377 . S
C137 C136 1.378 . S
C137 H159 0.931 . S
C138 O148 1.259 . S
C138 O149 1.270 . S
C139 O150 1.251 . S
C139 O151 1.251 . S
O140 C120 1.257 . S
O140 Eu121 2.473 . S
O141 C120 1.260 . S
O141 Eu121 2.480 . S
O142 Eu121 2.430 . S
O142 C128 1.259 . S
O143 Eu121 2.670 . S
O143 C128 1.270 . S
O143 Eu131 2.355 . S
O144 Eu121 2.394 . S
O144 C129 1.251 . S
O145 C129 1.251 . S
O145 Eu131 2.374 . S
O146 C130 1.257 . S
O146 Eu131 2.473 . S
O147 C130 1.260 . S
O147 Eu131 2.480 . S
O148 Eu131 2.430 . S
O148 C138 1.259 . S
O149 Eu121 2.355 . S
O149 Eu131 2.670 . S
O149 C138 1.270 . S
O150 Eu131 2.394 . S
O150 C139 1.251 . S
O151 Eu121 2.374 . S
O151 C139 1.251 . S
H152 C123 0.931 . S
H153 C124 0.931 . S
H154 C126 0.931 . S
H155 C127 0.931 . S
H156 C133 0.931 . S
H157 C134 0.931 . S
H158 C136 0.931 . S
H159 C137 0.931 . S
H160 C172 0.930 . S
H161 C174 0.930 . S
H162 C175 0.930 . S
H163 C179 0.959 . S
H164 C179 0.959 . S
H165 C179 0.961 . S
H166 C180 0.960 . S
H167 C180 0.961 . S
H168 C180 0.959 . S
H169 C183 0.929 . S
H170 C184 0.931 . S
H171 C186 0.930 . S
C172 H160 0.930 . S
C172 C173 1.399 1_556 S
C172 C177 1.399 . S
C173 C172 1.399 1_554 S
C173 C174 1.376 . S
C174 H161 0.930 . S
C174 C173 1.376 . S
C174 C175 1.388 . S
C175 H162 0.930 . S
C175 C174 1.388 . S
C175 C176 1.390 . S
C176 C175 1.390 . S
C176 C177 1.394 1_554 S
C176 C182 1.465 . S
C177 C172 1.399 . S
C177 C176 1.394 1_556 S
C177 C178 1.516 . S
C178 C177 1.516 . S
C178 C179 1.502 . S
C178 C180 1.561 . S
C178 C181 1.526 . S
C179 H163 0.959 . S
C179 H164 0.959 . S
C179 H165 0.961 . S
C179 C178 1.502 . S
C180 H166 0.960 . S
C180 H167 0.961 . S
C180 H168 0.959 . S
C180 C178 1.561 . S
C181 C178 1.526 . S
C181 C182 1.396 1_556 S
C181 C186 1.390 . S
C182 C176 1.465 . S
C182 C181 1.396 1_554 S
C182 C183 1.399 . S
C183 H169 0.929 . S
C183 C182 1.399 . S
C183 C184 1.385 . S
C184 H170 0.931 . S
C184 C183 1.385 . S
C184 C185 1.389 . S
C185 C184 1.389 . S
C185 C186 1.387 1_554 S
C186 H171 0.930 . S
C186 C181 1.390 . S
C186 C185 1.387 1_556 S
H187 C199 0.930 . S
H188 C201 0.930 . S
H189 C202 0.930 . S
H190 C206 0.959 . S
H191 C206 0.959 . S
H192 C206 0.961 . S
H193 C207 0.960 . S
H194 C207 0.961 . S
H195 C207 0.959 . S
H196 C210 0.929 . S
H197 C211 0.931 . S
H198 C213 0.930 . S
C199 H187 0.930 . S
C199 C200 1.399 . S
C199 C204 1.399 . S
C200 C199 1.399 . S
C200 C201 1.376 . S
C201 H188 0.930 . S
C201 C200 1.376 . S
C201 C202 1.388 . S
C202 H189 0.930 . S
C202 C201 1.388 . S
C202 C203 1.390 . S
C203 C202 1.390 . S
C203 C204 1.394 . S
C203 C209 1.465 . S
C204 C199 1.399 . S
C204 C203 1.394 . S
C204 C205 1.516 . S
C205 C204 1.516 . S
C205 C206 1.502 . S
C205 C207 1.561 . S
C205 C208 1.526 . S
C206 H190 0.959 . S
C206 H191 0.959 . S
C206 H192 0.961 . S
C206 C205 1.502 . S
C207 H193 0.960 . S
C207 H194 0.961 . S
C207 H195 0.959 . S
C207 C205 1.561 . S
C208 C205 1.526 . S
C208 C209 1.396 . S
C208 C213 1.390 . S
C209 C203 1.465 . S
C209 C208 1.396 . S
C209 C210 1.399 . S
C210 H196 0.929 . S
C210 C209 1.399 . S
C210 C211 1.385 . S
C211 H197 0.931 . S
C211 C210 1.385 . S
C211 C212 1.389 . S
C212 C211 1.389 . S
C212 C213 1.387 . S
C213 H198 0.930 . S
C213 C208 1.390 . S
C213 C212 1.387 . S
H214 C226 0.930 . S
H215 C228 0.930 . S
H216 C229 0.930 1_655 S
H217 C233 0.959 1_655 S
H218 C233 0.959 . S
H219 C233 0.961 . S
H220 C234 0.960 . S
H221 C234 0.961 . S
H222 C234 0.959 1_554 S
H223 C237 0.939 . S
H224 C238 0.931 . S
H225 C240 0.930 . S
C226 H214 0.930 . S
C226 C227 1.399 1_556 S
C226 C231 1.399 . S
C227 C226 1.399 1_554 S
C227 C228 1.376 . S
C228 H215 0.930 . S
C228 C227 1.376 . S
C228 C229 1.388 . S
C229 H216 0.930 1_455 S
C229 C228 1.388 . S
C229 C230 1.390 . S
C230 C229 1.390 . S
C230 C231 1.394 1_554 S
C230 C236 1.465 1_445 S
C231 C226 1.399 . S
C231 C230 1.394 1_556 S
C231 C232 1.516 1_545 S
C232 C231 1.516 1_565 S
C232 C233 1.502 . S
C232 C234 1.561 . S
C232 C235 1.526 1_455 S
C233 H217 0.959 1_455 S
C233 H218 0.959 . S
C233 H219 0.961 . S
C233 C232 1.502 . S
C234 H220 0.960 . S
C234 H221 0.961 . S
C234 H222 0.959 1_556 S
C234 C232 1.561 . S
C235 C232 1.526 1_655 S
C235 C236 1.396 1_556 S
C235 C240 1.390 . S
C236 C230 1.465 1_665 S
C236 C235 1.396 1_554 S
C236 C237 1.399 . S
C237 H223 0.939 . S
C237 C236 1.399 . S
C237 C238 1.385 . S
C238 H224 0.931 . S
C238 C237 1.385 . S
C238 C239 1.389 . S
C239 C238 1.389 . S
C239 C240 1.387 1_554 S
C240 H225 0.930 . S
C240 C235 1.390 . S
C240 C239 1.387 1_556 S
H241 C253 0.930 . S
H242 C255 0.930 . S
H243 C256 0.930 1_455 S
H244 C260 0.959 . S
H245 C260 0.959 . S
H246 C260 0.961 . S
H247 C261 0.960 1_645 S
H248 C261 0.961 . S
H249 C261 0.959 1_545 S
H250 C264 0.920 1_545 S
H251 C265 0.931 . S
H252 C267 0.930 . S
C253 H241 0.930 . S
C253 C254 1.399 . S
C253 C258 1.399 . S
C254 C253 1.399 . S
C254 C255 1.376 . S
C255 H242 0.930 . S
C255 C254 1.376 . S
C255 C256 1.388 . S
C256 H243 0.930 1_655 S
C256 C255 1.388 . S
C256 C257 1.390 . S
C257 C256 1.390 . S
C257 C258 1.394 . S
C257 C263 1.465 1_645 S
C258 C253 1.399 . S
C258 C257 1.394 . S
C258 C259 1.516 1_545 S
C259 C258 1.516 1_565 S
C259 C260 1.502 . S
C259 C261 1.561 1_655 S
C259 C262 1.526 1_655 S
C260 H244 0.959 . S
C260 H245 0.959 . S
C260 H246 0.961 . S
C260 C259 1.502 . S
C261 H247 0.960 1_465 S
C261 H248 0.961 . S
C261 H249 0.959 1_565 S
C261 C259 1.561 1_455 S
C262 C259 1.526 1_455 S
C262 C263 1.396 . S
C262 C267 1.390 . S
C263 C257 1.465 1_465 S
C263 C262 1.396 . S
C263 C264 1.399 . S
C264 H250 0.920 1_565 S
C264 C263 1.399 . S
C264 C265 1.385 . S
C265 H251 0.931 . S
C265 C264 1.385 . S
C265 C266 1.389 . S
C266 C265 1.389 . S
C266 C267 1.387 . S
C267 H252 0.930 . S
C267 C262 1.390 . S
C267 C266 1.387 . S
H268 C280 0.930 . S
H269 C282 0.930 . S
H270 C283 0.930 . S
H271 C287 0.959 . S
H272 C287 0.959 . S
H273 C287 0.961 . S
H274 C288 0.960 . S
H275 C288 0.961 . S
H276 C288 0.959 . S
H277 C291 0.929 . S
H278 C292 0.931 . S
H279 C294 0.930 . S
C280 H268 0.930 . S
C280 C281 1.399 . S
C280 C285 1.399 . S
C281 C280 1.399 . S
C281 C282 1.376 . S
C282 H269 0.930 . S
C282 C281 1.376 . S
C282 C283 1.388 . S
C283 H270 0.930 . S
C283 C282 1.388 . S
C283 C284 1.390 . S
C284 C283 1.390 . S
C284 C285 1.394 . S
C284 C290 1.465 . S
C285 C280 1.399 . S
C285 C284 1.394 . S
C285 C286 1.516 . S
C286 C285 1.516 . S
C286 C287 1.502 . S
C286 C288 1.561 . S
C286 C289 1.526 . S
C287 H271 0.959 . S
C287 H272 0.959 . S
C287 H273 0.961 . S
C287 C286 1.502 . S
C288 H274 0.960 . S
C288 H275 0.961 . S
C288 H276 0.959 . S
C288 C286 1.561 . S
C289 C286 1.526 . S
C289 C290 1.396 . S
C289 C294 1.390 . S
C290 C284 1.465 . S
C290 C289 1.396 . S
C290 C291 1.399 . S
C291 H277 0.929 . S
C291 C290 1.399 . S
C291 C292 1.385 . S
C292 H278 0.931 . S
C292 C291 1.385 . S
C292 C293 1.389 . S
C293 C292 1.389 . S
C293 C294 1.387 . S
C294 H279 0.930 . S
C294 C289 1.390 . S
C294 C293 1.387 . S
H295 C307 0.930 . S
H296 C309 0.930 . S
H297 C310 0.930 . S
H298 C314 0.959 . S
H299 C314 0.959 . S
H300 C314 0.961 . S
H301 C315 0.960 . S
H302 C315 0.961 . S
H303 C315 0.959 . S
H304 C318 0.929 . S
H305 C319 0.931 . S
H306 C321 0.930 . S
C307 H295 0.930 . S
C307 C308 1.399 . S
C307 C312 1.399 . S
C308 C307 1.399 . S
C308 C309 1.376 . S
C309 H296 0.930 . S
C309 C308 1.376 . S
C309 C310 1.388 . S
C310 H297 0.930 . S
C310 C309 1.388 . S
C310 C311 1.390 . S
C311 C310 1.390 . S
C311 C312 1.394 . S
C311 C317 1.465 . S
C312 C307 1.399 . S
C312 C311 1.394 . S
C312 C313 1.516 . S
C313 C312 1.516 . S
C313 C314 1.502 . S
C313 C315 1.561 . S
C313 C316 1.526 . S
C314 H298 0.959 . S
C314 H299 0.959 . S
C314 H300 0.961 . S
C314 C313 1.502 . S
C315 H301 0.960 . S
C315 H302 0.961 . S
C315 H303 0.959 . S
C315 C313 1.561 . S
C316 C313 1.526 . S
C316 C317 1.396 . S
C316 C321 1.390 . S
C317 C311 1.465 . S
C317 C316 1.396 . S
C317 C318 1.399 . S
C318 H304 0.929 . S
C318 C317 1.399 . S
C318 C319 1.385 . S
C319 H305 0.931 . S
C319 C318 1.385 . S
C319 C320 1.389 . S
C320 C319 1.389 . S
C320 C321 1.387 . S
C321 H306 0.930 . S
C321 C316 1.390 . S
C321 C320 1.387 . S
H322 C334 0.930 . S
H323 C336 0.930 . S
H324 C337 0.930 . S
H325 C341 0.959 . S
H326 C341 0.959 . S
H327 C341 0.961 . S
H328 C342 0.960 . S
H329 C342 0.961 . S
H330 C342 0.959 . S
H331 C345 0.929 . S
H332 C346 0.931 . S
H333 C348 0.930 . S
C334 H322 0.930 . S
C334 C335 1.399 . S
C334 C339 1.399 . S
C335 C334 1.399 . S
C335 C336 1.376 . S
C336 H323 0.930 . S
C336 C335 1.376 . S
C336 C337 1.388 . S
C337 H324 0.930 . S
C337 C336 1.388 . S
C337 C338 1.390 . S
C338 C337 1.390 . S
C338 C339 1.394 . S
C338 C344 1.465 . S
C339 C334 1.399 . S
C339 C338 1.394 . S
C339 C340 1.516 . S
C340 C339 1.516 . S
C340 C341 1.502 . S
C340 C342 1.561 . S
C340 C343 1.526 . S
C341 H325 0.959 . S
C341 H326 0.959 . S
C341 H327 0.961 . S
C341 C340 1.502 . S
C342 H328 0.960 . S
C342 H329 0.961 . S
C342 H330 0.959 . S
C342 C340 1.561 . S
C343 C340 1.526 . S
C343 C344 1.396 . S
C343 C348 1.390 . S
C344 C338 1.465 . S
C344 C343 1.396 . S
C344 C345 1.399 . S
C345 H331 0.929 . S
C345 C344 1.399 . S
C345 C346 1.385 . S
C346 H332 0.931 . S
C346 C345 1.385 . S
C346 C347 1.389 . S
C347 C346 1.389 . S
C347 C348 1.387 . S
C348 H333 0.930 . S
C348 C343 1.390 . S
C348 C347 1.387 . S
H349 C361 0.930 . S
H350 C363 0.930 . S
H351 C364 0.930 . S
H352 C368 0.959 . S
H353 C368 0.959 . S
H354 C368 0.961 . S
H355 C369 0.960 . S
H356 C369 0.961 . S
H357 C369 0.959 . S
H358 C372 0.929 . S
H359 C373 0.931 . S
H360 C375 0.930 . S
C361 H349 0.930 . S
C361 C362 1.399 . S
C361 C366 1.399 . S
C362 C361 1.399 . S
C362 C363 1.376 . S
C363 H350 0.930 . S
C363 C362 1.376 . S
C363 C364 1.388 . S
C364 H351 0.930 . S
C364 C363 1.388 . S
C364 C365 1.390 . S
C365 C364 1.390 . S
C365 C366 1.394 . S
C365 C371 1.465 . S
C366 C361 1.399 . S
C366 C365 1.394 . S
C366 C367 1.516 . S
C367 C366 1.516 . S
C367 C368 1.502 . S
C367 C369 1.561 . S
C367 C370 1.526 . S
C368 H352 0.959 . S
C368 H353 0.959 . S
C368 H354 0.961 . S
C368 C367 1.502 . S
C369 H355 0.960 . S
C369 H356 0.961 . S
C369 H357 0.959 . S
C369 C367 1.561 . S
C370 C367 1.526 . S
C370 C371 1.396 . S
C370 C375 1.390 . S
C371 C365 1.465 . S
C371 C370 1.396 . S
C371 C372 1.399 . S
C372 H358 0.929 . S
C372 C371 1.399 . S
C372 C373 1.385 . S
C373 H359 0.931 . S
C373 C372 1.385 . S
C373 C374 1.389 . S
C374 C373 1.389 . S
C374 C375 1.387 . S
C375 H360 0.930 . S
C375 C370 1.390 . S
C375 C374 1.387 . S
H376 C388 0.930 . S
H377 C390 0.930 . S
H378 C391 0.930 . S
H379 C395 0.959 . S
H380 C395 0.959 . S
H381 C395 0.961 . S
H382 C396 0.960 . S
H383 C396 0.961 . S
H384 C396 0.959 . S
H385 C399 0.929 . S
H386 C400 0.931 . S
H387 C402 0.930 . S
C388 H376 0.930 . S
C388 C389 1.399 . S
C388 C393 1.399 . S
C389 C388 1.399 . S
C389 C390 1.376 . S
C390 H377 0.930 . S
C390 C389 1.376 . S
C390 C391 1.388 . S
C391 H378 0.930 . S
C391 C390 1.388 . S
C391 C392 1.390 . S
C392 C391 1.390 . S
C392 C393 1.394 . S
C392 C398 1.465 . S
C393 C388 1.399 . S
C393 C392 1.394 . S
C393 C394 1.516 . S
C394 C393 1.516 . S
C394 C395 1.502 . S
C394 C396 1.561 . S
C394 C397 1.526 . S
C395 H379 0.959 . S
C395 H380 0.959 . S
C395 H381 0.961 . S
C395 C394 1.502 . S
C396 H382 0.960 . S
C396 H383 0.961 . S
C396 H384 0.959 . S
C396 C394 1.561 . S
C397 C394 1.526 . S
C397 C398 1.396 . S
C397 C402 1.390 . S
C398 C392 1.465 . S
C398 C397 1.396 . S
C398 C399 1.399 1_655 S
C399 H385 0.929 . S
C399 C398 1.399 1_455 S
C399 C400 1.385 . S
C400 H386 0.931 . S
C400 C399 1.385 . S
C400 C401 1.389 1_455 S
C401 C400 1.389 1_655 S
C401 C402 1.387 . S
C402 H387 0.930 . S
C402 C397 1.390 . S
C402 C401 1.387 . S
H403 C415 0.930 . S
H404 C417 0.930 . S
H405 C418 0.930 . S
H406 C422 0.959 . S
H407 C422 0.959 . S
H408 C422 0.961 . S
H409 C423 0.960 . S
H410 C423 0.961 . S
H411 C423 0.959 . S
H412 C426 0.929 . S
H413 C427 0.931 . S
H414 C429 0.930 . S
C415 H403 0.930 . S
C415 C416 1.399 . S
C415 C420 1.399 . S
C416 C415 1.399 . S
C416 C417 1.376 . S
C417 H404 0.930 . S
C417 C416 1.376 . S
C417 C418 1.388 . S
C418 H405 0.930 . S
C418 C417 1.388 . S
C418 C419 1.390 . S
C419 C418 1.390 . S
C419 C420 1.394 . S
C419 C425 1.465 . S
C420 C415 1.399 . S
C420 C419 1.394 . S
C420 C421 1.516 . S
C421 C420 1.516 . S
C421 C422 1.502 . S
C421 C423 1.561 1_655 S
C421 C424 1.526 . S
C422 H406 0.959 . S
C422 H407 0.959 . S
C422 H408 0.961 . S
C422 C421 1.502 . S
C423 H409 0.960 . S
C423 H410 0.961 . S
C423 H411 0.959 . S
C423 C421 1.561 1_455 S
C424 C421 1.526 . S
C424 C425 1.396 . S
C424 C429 1.390 . S
C425 C419 1.465 . S
C425 C424 1.396 . S
C425 C426 1.399 . S
C426 H412 0.929 . S
C426 C425 1.399 . S
C426 C427 1.385 . S
C427 H413 0.931 . S
C427 C426 1.385 . S
C427 C428 1.389 . S
C428 C427 1.389 . S
C428 C429 1.387 . S
C429 H414 0.930 . S
C429 C424 1.390 . S
C429 C428 1.387 . S
H430 C442 0.930 . S
H431 C444 0.930 . S
H432 C445 0.930 . S
H433 C449 0.959 . S
H434 C449 0.959 . S
H435 C449 0.961 . S
H436 C450 0.960 . S
H437 C450 0.961 . S
H438 C450 0.959 . S
H439 C453 0.929 . S
H440 C454 0.931 . S
H441 C456 0.930 . S
C442 H430 0.930 . S
C442 C443 1.399 . S
C442 C447 1.399 . S
C443 C442 1.399 . S
C443 C444 1.376 1_455 S
C444 H431 0.930 . S
C444 C443 1.376 1_655 S
C444 C445 1.388 . S
C445 H432 0.930 . S
C445 C444 1.388 . S
C445 C446 1.390 1_655 S
C446 C445 1.390 1_455 S
C446 C447 1.394 . S
C446 C452 1.465 . S
C447 C442 1.399 . S
C447 C446 1.394 . S
C447 C448 1.516 . S
C448 C447 1.516 . S
C448 C449 1.502 . S
C448 C450 1.561 . S
C448 C451 1.526 . S
C449 H433 0.959 . S
C449 H434 0.959 . S
C449 H435 0.961 . S
C449 C448 1.502 . S
C450 H436 0.960 . S
C450 H437 0.961 . S
C450 H438 0.959 . S
C450 C448 1.561 . S
C451 C448 1.526 . S
C451 C452 1.396 . S
C451 C456 1.390 . S
C452 C446 1.465 . S
C452 C451 1.396 . S
C452 C453 1.399 . S
C453 H439 0.929 . S
C453 C452 1.399 . S
C453 C454 1.385 . S
C454 H440 0.931 . S
C454 C453 1.385 . S
C454 C455 1.389 . S
C455 C454 1.389 . S
C455 C456 1.387 . S
C456 H441 0.930 . S
C456 C451 1.390 . S
C456 C455 1.387 . S
H457 C469 0.930 . S
H458 C471 0.930 . S
H459 C472 0.930 . S
H460 C476 0.959 . S
H461 C476 0.959 . S
H462 C476 0.961 . S
H463 C477 0.960 . S
H464 C477 0.961 . S
H465 C477 0.959 . S
H466 C480 0.929 . S
H467 C481 0.931 . S
H468 C483 0.930 1_655 S
C469 H457 0.930 . S
C469 C470 1.399 . S
C469 C474 1.399 . S
C470 C469 1.399 . S
C470 C471 1.376 . S
C471 H458 0.930 . S
C471 C470 1.376 . S
C471 C472 1.388 . S
C472 H459 0.930 . S
C472 C471 1.388 . S
C472 C473 1.390 . S
C473 C472 1.390 . S
C473 C474 1.394 . S
C473 C479 1.465 . S
C474 C469 1.399 . S
C474 C473 1.394 . S
C474 C475 1.516 . S
C475 C474 1.516 . S
C475 C476 1.502 1_455 S
C475 C477 1.561 . S
C475 C478 1.526 . S
C476 H460 0.959 . S
C476 H461 0.959 . S
C476 H462 0.961 . S
C476 C475 1.502 1_655 S
C477 H463 0.960 . S
C477 H464 0.961 . S
C477 H465 0.959 . S
C477 C475 1.561 . S
C478 C475 1.526 . S
C478 C479 1.396 . S
C478 C483 1.390 . S
C479 C473 1.465 . S
C479 C478 1.396 . S
C479 C480 1.399 . S
C480 H466 0.929 . S
C480 C479 1.399 . S
C480 C481 1.385 . S
C481 H467 0.931 . S
C481 C480 1.385 . S
C481 C482 1.389 . S
C482 C481 1.389 . S
C482 C483 1.387 . S
C483 H468 0.930 1_455 S
C483 C478 1.390 . S
C483 C482 1.387 . S
C173 C48 1.504 . S
C185 C18 1.505 . S
C200 C98 1.485 . S
C212 C128 1.529 . S
C227 C8 1.523 . S
C239 C58 1.489 . S
C254 C138 1.531 . S
C266 C88 1.487 . S
C281 C135 1.273 . S
C293 C19 1.296 . S
C308 C55 1.301 . S
C320 C99 1.288 . S
C335 C49 1.272 . S
C347 C85 1.272 . S
C362 C129 1.272 . S
C374 C5 1.272 . S
C389 C59 1.273 . S
C401 C95 1.257 1_655 S
C416 C139 1.268 . S
C428 C15 1.263 1_655 S
C443 C125 1.257 1_455 S
C455 C9 1.270 . S
C470 C89 1.275 . S
C482 C45 1.277 1_455 S
