# Generated by pormake.
# Topology upd, (4)-cn, num edge types: 1
# Building blocks:
#     Node 0, Type 0, BuildingBlock: KOZSID_clean_sbu_0, # of connection points: 4
#     Node 1, Type 0, BuildingBlock: KOZSID_clean_sbu_0, # of connection points: 4
#     Node 2, Type 0, BuildingBlock: KOZSID_clean_sbu_0, # of connection points: 4
#     Node 3, Type 0, BuildingBlock: KOZSID_clean_sbu_0, # of connection points: 4
#     Node 4, Type 0, BuildingBlock: KOZSID_clean_sbu_0, # of connection points: 4
#     Node 5, Type 0, BuildingBlock: KOZSID_clean_sbu_0, # of connection points: 4
#     Node 6, Type 0, BuildingBlock: KOZSID_clean_sbu_0, # of connection points: 4
#     Node 7, Type 0, BuildingBlock: KOZSID_clean_sbu_0, # of connection points: 4
#     Node 8, Type 0, BuildingBlock: KOZSID_clean_sbu_0, # of connection points: 4
#     Node 9, Type 0, BuildingBlock: KOZSID_clean_sbu_0, # of connection points: 4
#     Node 10, Type 0, BuildingBlock: KOZSID_clean_sbu_0, # of connection points: 4
#     Node 11, Type 0, BuildingBlock: KOZSID_clean_sbu_0, # of connection points: 4
#     Node 12, Type 0, BuildingBlock: KOZSID_clean_sbu_0, # of connection points: 4
#     Node 13, Type 0, BuildingBlock: KOZSID_clean_sbu_0, # of connection points: 4
#     Node 14, Type 0, BuildingBlock: KOZSID_clean_sbu_0, # of connection points: 4
#     Node 15, Type 0, BuildingBlock: KOZSID_clean_sbu_0, # of connection points: 4
#     Node 16, Type 0, BuildingBlock: KOZSID_clean_sbu_0, # of connection points: 4
#     Node 17, Type 0, BuildingBlock: KOZSID_clean_sbu_0, # of connection points: 4
#     Node 18, Type 0, BuildingBlock: KOZSID_clean_sbu_0, # of connection points: 4
#     Node 19, Type 0, BuildingBlock: KOZSID_clean_sbu_0, # of connection points: 4
#     Node 20, Type 0, BuildingBlock: KOZSID_clean_sbu_0, # of connection points: 4
#     Node 21, Type 0, BuildingBlock: KOZSID_clean_sbu_0, # of connection points: 4
#     Node 22, Type 0, BuildingBlock: KOZSID_clean_sbu_0, # of connection points: 4
#     Node 23, Type 0, BuildingBlock: KOZSID_clean_sbu_0, # of connection points: 4
#     Node 24, Type 0, BuildingBlock: KOZSID_clean_sbu_0, # of connection points: 4
#     Node 25, Type 0, BuildingBlock: KOZSID_clean_sbu_0, # of connection points: 4
#     Node 26, Type 0, BuildingBlock: KOZSID_clean_sbu_0, # of connection points: 4
#     Node 27, Type 0, BuildingBlock: KOZSID_clean_sbu_0, # of connection points: 4
#     Node 28, Type 0, BuildingBlock: KOZSID_clean_sbu_0, # of connection points: 4
#     Node 29, Type 0, BuildingBlock: KOZSID_clean_sbu_0, # of connection points: 4
#     Node 30, Type 0, BuildingBlock: KOZSID_clean_sbu_0, # of connection points: 4
#     Node 31, Type 0, BuildingBlock: KOZSID_clean_sbu_0, # of connection points: 4
#     Edge 32, Type (0, 0), BuildingBlock: CIFDUS_clean_linker_0, # of connection points: 2
#     Edge 33, Type (0, 0), BuildingBlock: CIFDUS_clean_linker_0, # of connection points: 2
#     Edge 34, Type (0, 0), BuildingBlock: CIFDUS_clean_linker_0, # of connection points: 2
#     Edge 35, Type (0, 0), BuildingBlock: CIFDUS_clean_linker_0, # of connection points: 2
#     Edge 36, Type (0, 0), BuildingBlock: CIFDUS_clean_linker_0, # of connection points: 2
#     Edge 37, Type (0, 0), BuildingBlock: CIFDUS_clean_linker_0, # of connection points: 2
#     Edge 38, Type (0, 0), BuildingBlock: CIFDUS_clean_linker_0, # of connection points: 2
#     Edge 39, Type (0, 0), BuildingBlock: CIFDUS_clean_linker_0, # of connection points: 2
#     Edge 40, Type (0, 0), BuildingBlock: CIFDUS_clean_linker_0, # of connection points: 2
#     Edge 41, Type (0, 0), BuildingBlock: CIFDUS_clean_linker_0, # of connection points: 2
#     Edge 42, Type (0, 0), BuildingBlock: CIFDUS_clean_linker_0, # of connection points: 2
#     Edge 43, Type (0, 0), BuildingBlock: CIFDUS_clean_linker_0, # of connection points: 2
#     Edge 44, Type (0, 0), BuildingBlock: CIFDUS_clean_linker_0, # of connection points: 2
#     Edge 45, Type (0, 0), BuildingBlock: CIFDUS_clean_linker_0, # of connection points: 2
#     Edge 46, Type (0, 0), BuildingBlock: CIFDUS_clean_linker_0, # of connection points: 2
#     Edge 47, Type (0, 0), BuildingBlock: CIFDUS_clean_linker_0, # of connection points: 2
#     Edge 48, Type (0, 0), BuildingBlock: CIFDUS_clean_linker_0, # of connection points: 2
#     Edge 49, Type (0, 0), BuildingBlock: CIFDUS_clean_linker_0, # of connection points: 2
#     Edge 50, Type (0, 0), BuildingBlock: CIFDUS_clean_linker_0, # of connection points: 2
#     Edge 51, Type (0, 0), BuildingBlock: CIFDUS_clean_linker_0, # of connection points: 2
#     Edge 52, Type (0, 0), BuildingBlock: CIFDUS_clean_linker_0, # of connection points: 2
#     Edge 53, Type (0, 0), BuildingBlock: CIFDUS_clean_linker_0, # of connection points: 2
#     Edge 54, Type (0, 0), BuildingBlock: CIFDUS_clean_linker_0, # of connection points: 2
#     Edge 55, Type (0, 0), BuildingBlock: CIFDUS_clean_linker_0, # of connection points: 2
#     Edge 56, Type (0, 0), BuildingBlock: CIFDUS_clean_linker_0, # of connection points: 2
#     Edge 57, Type (0, 0), BuildingBlock: CIFDUS_clean_linker_0, # of connection points: 2
#     Edge 58, Type (0, 0), BuildingBlock: CIFDUS_clean_linker_0, # of connection points: 2
#     Edge 59, Type (0, 0), BuildingBlock: CIFDUS_clean_linker_0, # of connection points: 2
#     Edge 60, Type (0, 0), BuildingBlock: CIFDUS_clean_linker_0, # of connection points: 2
#     Edge 61, Type (0, 0), BuildingBlock: CIFDUS_clean_linker_0, # of connection points: 2
#     Edge 62, Type (0, 0), BuildingBlock: CIFDUS_clean_linker_0, # of connection points: 2
#     Edge 63, Type (0, 0), BuildingBlock: CIFDUS_clean_linker_0, # of connection points: 2
#     Edge 64, Type (0, 0), BuildingBlock: CIFDUS_clean_linker_0, # of connection points: 2
#     Edge 65, Type (0, 0), BuildingBlock: CIFDUS_clean_linker_0, # of connection points: 2
#     Edge 66, Type (0, 0), BuildingBlock: CIFDUS_clean_linker_0, # of connection points: 2
#     Edge 67, Type (0, 0), BuildingBlock: CIFDUS_clean_linker_0, # of connection points: 2
#     Edge 68, Type (0, 0), BuildingBlock: CIFDUS_clean_linker_0, # of connection points: 2
#     Edge 69, Type (0, 0), BuildingBlock: CIFDUS_clean_linker_0, # of connection points: 2
#     Edge 70, Type (0, 0), BuildingBlock: CIFDUS_clean_linker_0, # of connection points: 2
#     Edge 71, Type (0, 0), BuildingBlock: CIFDUS_clean_linker_0, # of connection points: 2
#     Edge 72, Type (0, 0), BuildingBlock: CIFDUS_clean_linker_0, # of connection points: 2
#     Edge 73, Type (0, 0), BuildingBlock: CIFDUS_clean_linker_0, # of connection points: 2
#     Edge 74, Type (0, 0), BuildingBlock: CIFDUS_clean_linker_0, # of connection points: 2
#     Edge 75, Type (0, 0), BuildingBlock: CIFDUS_clean_linker_0, # of connection points: 2
#     Edge 76, Type (0, 0), BuildingBlock: CIFDUS_clean_linker_0, # of connection points: 2
#     Edge 77, Type (0, 0), BuildingBlock: CIFDUS_clean_linker_0, # of connection points: 2
#     Edge 78, Type (0, 0), BuildingBlock: CIFDUS_clean_linker_0, # of connection points: 2
#     Edge 79, Type (0, 0), BuildingBlock: CIFDUS_clean_linker_0, # of connection points: 2
#     Edge 80, Type (0, 0), BuildingBlock: CIFDUS_clean_linker_0, # of connection points: 2
#     Edge 81, Type (0, 0), BuildingBlock: CIFDUS_clean_linker_0, # of connection points: 2
#     Edge 82, Type (0, 0), BuildingBlock: CIFDUS_clean_linker_0, # of connection points: 2
#     Edge 83, Type (0, 0), BuildingBlock: CIFDUS_clean_linker_0, # of connection points: 2
#     Edge 84, Type (0, 0), BuildingBlock: CIFDUS_clean_linker_0, # of connection points: 2
#     Edge 85, Type (0, 0), BuildingBlock: CIFDUS_clean_linker_0, # of connection points: 2
#     Edge 86, Type (0, 0), BuildingBlock: CIFDUS_clean_linker_0, # of connection points: 2
#     Edge 87, Type (0, 0), BuildingBlock: CIFDUS_clean_linker_0, # of connection points: 2
#     Edge 88, Type (0, 0), BuildingBlock: CIFDUS_clean_linker_0, # of connection points: 2
#     Edge 89, Type (0, 0), BuildingBlock: CIFDUS_clean_linker_0, # of connection points: 2
#     Edge 90, Type (0, 0), BuildingBlock: CIFDUS_clean_linker_0, # of connection points: 2
#     Edge 91, Type (0, 0), BuildingBlock: CIFDUS_clean_linker_0, # of connection points: 2
#     Edge 92, Type (0, 0), BuildingBlock: CIFDUS_clean_linker_0, # of connection points: 2
#     Edge 93, Type (0, 0), BuildingBlock: CIFDUS_clean_linker_0, # of connection points: 2
#     Edge 94, Type (0, 0), BuildingBlock: CIFDUS_clean_linker_0, # of connection points: 2
#     Edge 95, Type (0, 0), BuildingBlock: CIFDUS_clean_linker_0, # of connection points: 2
# Relax obj value: 0.026
# Max RMSD: 0.123
# Mean RMSD: 0.087
data_MOF--net-upd--node1-KOZSID_clean_sbu_0--edge1-CIFDUS_clean_linker_0
_symmetry_space_group_name_H-M    P1
_symmetry_Int_Tables_number       1
_symmetry_cell_setting            triclinic
loop_
_symmetry_equiv_pos_as_xyz
'x, y, z'
_cell_length_a     43.888955
_cell_length_b     36.433308
_cell_length_c     93.607555
_cell_angle_alpha  89.999398
_cell_angle_beta   89.994861
_cell_angle_gamma 89.98532
loop_
_atom_site_label
_atom_site_type_symbol
_atom_site_fract_x
_atom_site_fract_y
_atom_site_fract_z
_atom_type_partial_charge
C0 C 0.07191 0.1447 0.33689 0.0
C1 C 0.04063 0.15003 0.33601 0.0
C2 C 0.03565 0.17215 0.32449 0.0
C3 C 0.064 0.17928 0.31904 0.0
N4 N 0.08683 0.16255 0.32624 0.0
Co5 Co 0.13172 0.16795 0.32264 0.0
N6 N 0.12467 0.20602 0.30748 0.0
C7 C 0.09746 0.21959 0.3032 0.0
C8 C 0.09966 0.24611 0.29289 0.0
C9 C 0.1301 0.24957 0.29031 0.0
C10 C 0.14478 0.22452 0.29914 0.0
N11 N 0.1766 0.17286 0.31892 0.0
C12 C 0.19179 0.19324 0.30908 0.0
C13 C 0.2229 0.1861 0.30941 0.0
C14 C 0.22756 0.16076 0.31989 0.0
C15 C 0.1992 0.1535 0.32526 0.0
N16 N 0.13878 0.13058 0.33806 0.0
C17 C 0.16585 0.11661 0.34232 0.0
C18 C 0.16369 0.09282 0.35361 0.0
C19 C 0.13349 0.09219 0.35702 0.0
C20 C 0.11898 0.11589 0.34761 0.0
N21 N 0.12973 0.12842 0.30781 0.0
C22 C 0.13044 0.07554 0.28553 0.0
C23 C 0.15042 0.07309 0.29713 0.0
C24 C 0.14965 0.09942 0.308 0.0
C25 C 0.10939 0.10439 0.28556 0.0
C26 C 0.10935 0.13014 0.2967 0.0
N27 N 0.1337 0.20723 0.33739 0.0
C28 C 0.15715 0.23315 0.35851 0.0
C29 C 0.13384 0.25915 0.35987 0.0
C30 C 0.11089 0.2592 0.3495 0.0
C31 C 0.1113 0.23333 0.33844 0.0
C32 C 0.15671 0.20781 0.34728 0.0
H33 H 0.09304 0.23469 0.33095 0.0
H34 H 0.17495 0.1885 0.34694 0.0
H35 H 0.16569 0.09574 0.31637 0.0
H36 H 0.09286 0.15146 0.29595 0.0
C37 C 0.07018 0.2058 0.30868 0.0
C38 C 0.08662 0.12473 0.34856 0.0
C39 C 0.17776 0.21879 0.29895 0.0
C40 C 0.19306 0.12811 0.33605 0.0
H41 H 0.0232 0.14034 0.34324 0.0
H42 H 0.01407 0.18349 0.32103 0.0
H43 H 0.08129 0.26088 0.28774 0.0
H44 H 0.14027 0.26818 0.28267 0.0
H45 H 0.24049 0.19744 0.30263 0.0
H46 H 0.24903 0.14857 0.32304 0.0
H47 H 0.18201 0.07855 0.359 0.0
H48 H 0.12338 0.07677 0.36569 0.0
H49 H 0.16668 0.05081 0.29789 0.0
H50 H 0.09339 0.10774 0.27685 0.0
H51 H 0.17538 0.23165 0.36628 0.0
H52 H 0.09264 0.27919 0.34985 0.0
C53 C 0.11012 0.78398 0.58719 0.0
C54 C 0.10722 0.74606 0.5877 0.0
C55 C 0.09561 0.73533 0.57474 0.0
C56 C 0.09228 0.76712 0.56702 0.0
N57 N 0.10112 0.79709 0.5743 0.0
Co58 Co 0.10038 0.84825 0.56705 0.0
N59 N 0.07058 0.83582 0.55181 0.0
C60 C 0.0641 0.80167 0.5472 0.0
C61 C 0.04301 0.80118 0.53638 0.0
C62 C 0.03612 0.83731 0.53385 0.0
C63 C 0.05353 0.85795 0.54329 0.0
N64 N 0.0999 0.89956 0.55979 0.0
C65 C 0.08056 0.91644 0.55055 0.0
C66 C 0.08962 0.95241 0.54807 0.0
C67 C 0.1157 0.95794 0.55584 0.0
C68 C 0.12116 0.9252 0.56262 0.0
N69 N 0.13007 0.8603 0.5824 0.0
C70 C 0.14774 0.89045 0.58291 0.0
C71 C 0.1639 0.89309 0.59541 0.0
C72 C 0.15597 0.8627 0.60323 0.0
C73 C 0.1357 0.84263 0.59493 0.0
N74 N 0.13414 0.83698 0.55394 0.0
C75 C 0.18467 0.82823 0.5359 0.0
C76 C 0.18453 0.81275 0.5496 0.0
C77 C 0.15907 0.81763 0.5585 0.0
C78 C 0.15862 0.84672 0.53122 0.0
C79 C 0.13358 0.8504 0.54029 0.0
N80 N 0.06701 0.85981 0.58012 0.0
C81 C 0.04669 0.89883 0.59849 0.0
C82 C 0.02345 0.87352 0.60133 0.0
C83 C 0.02152 0.84204 0.59274 0.0
C84 C 0.04347 0.83578 0.58215 0.0
C85 C 0.06818 0.89144 0.58794 0.0
H86 H 0.04198 0.81093 0.57593 0.0
H87 H 0.08631 0.91092 0.58643 0.0
H88 H 0.15992 0.80666 0.5692 0.0
H89 H 0.11413 0.86518 0.53632 0.0
C90 C 0.07567 0.77085 0.55433 0.0
C91 C 0.12291 0.80642 0.59883 0.0
C92 C 0.0558 0.89826 0.54265 0.0
C93 C 0.14326 0.91909 0.57315 0.0
H94 H 0.1128 0.72805 0.59651 0.0
H95 H 0.08902 0.70785 0.57162 0.0
H96 H 0.03341 0.77741 0.5311 0.0
H97 H 0.02063 0.84735 0.52575 0.0
H98 H 0.07887 0.97232 0.54113 0.0
H99 H 0.12873 0.98307 0.55666 0.0
H100 H 0.17812 0.91566 0.59888 0.0
H101 H 0.16381 0.85687 0.61392 0.0
H102 H 0.20437 0.79837 0.5536 0.0
H103 H 0.15783 0.8589 0.52066 0.0
H104 H 0.04872 0.92395 0.6046 0.0
H105 H 0.00397 0.82166 0.59454 0.0
C106 C 0.43689 0.85855 0.8389 0.0
C107 C 0.46851 0.85791 0.83882 0.0
C108 C 0.477 0.83813 0.82709 0.0
C109 C 0.45021 0.82815 0.82065 0.0
N110 N 0.42515 0.841 0.82739 0.0
Co111 Co 0.38164 0.83267 0.82181 0.0
N112 N 0.39377 0.79787 0.80619 0.0
C113 C 0.42235 0.78653 0.80305 0.0
C114 C 0.42366 0.76201 0.79197 0.0
C115 C 0.3942 0.75774 0.78765 0.0
C116 C 0.37656 0.78035 0.79627 0.0
N117 N 0.33808 0.82527 0.8159 0.0
C118 C 0.32624 0.80692 0.80455 0.0
C119 C 0.29495 0.81217 0.80351 0.0
C120 C 0.28672 0.83434 0.81458 0.0
C121 C 0.31331 0.84177 0.82164 0.0
N122 N 0.36951 0.86638 0.83784 0.0
C123 C 0.34087 0.87656 0.84143 0.0
C124 C 0.33922 0.8965 0.85381 0.0
C125 C 0.36847 0.89848 0.85864 0.0
C126 C 0.38643 0.87986 0.8488 0.0
N127 N 0.38412 0.87471 0.80818 0.0
C128 C 0.38366 0.9307 0.78719 0.0
C129 C 0.36275 0.93072 0.79846 0.0
C130 C 0.36343 0.90288 0.80872 0.0
C131 C 0.40565 0.90292 0.78698 0.0
C132 C 0.40554 0.87556 0.79749 0.0
N133 N 0.37918 0.79089 0.83545 0.0
C134 C 0.35308 0.76007 0.8548 0.0
C135 C 0.37827 0.73745 0.85737 0.0
C136 C 0.40351 0.74123 0.84835 0.0
C137 C 0.40345 0.76778 0.83752 0.0
C138 C 0.35392 0.78611 0.84384 0.0
H139 H 0.42351 0.76958 0.83112 0.0
H140 H 0.33411 0.8027 0.84258 0.0
H141 H 0.34663 0.90459 0.81686 0.0
H142 H 0.42268 0.85503 0.79657 0.0
C143 C 0.44767 0.8022 0.80974 0.0
C144 C 0.41907 0.87357 0.85069 0.0
C145 C 0.34383 0.78551 0.79418 0.0
C146 C 0.31582 0.86479 0.8335 0.0
H147 H 0.48378 0.86921 0.84676 0.0
H148 H 0.4999 0.83018 0.8241 0.0
H149 H 0.44374 0.74965 0.78729 0.0
H150 H 0.38666 0.74062 0.77889 0.0
H151 H 0.27959 0.80186 0.79542 0.0
H152 H 0.26414 0.84457 0.81698 0.0
H153 H 0.31899 0.90697 0.85902 0.0
H154 H 0.37542 0.91113 0.86856 0.0
H155 H 0.34573 0.95213 0.79936 0.0
H156 H 0.42239 0.90156 0.77849 0.0
H157 H 0.33296 0.75858 0.86147 0.0
H158 H 0.42335 0.72386 0.84962 0.0
C159 C 0.38773 0.21744 0.08399 0.0
C160 C 0.38537 0.25545 0.08428 0.0
C161 C 0.39469 0.26783 0.07115 0.0
C162 C 0.40203 0.23685 0.06354 0.0
N163 N 0.398 0.2058 0.07109 0.0
Co164 Co 0.40531 0.15525 0.06395 0.0
N165 N 0.4317 0.17309 0.04814 0.0
C166 C 0.4325 0.20774 0.04315 0.0
C167 C 0.45209 0.21199 0.03184 0.0
C168 C 0.46418 0.1778 0.02948 0.0
C169 C 0.4512 0.15448 0.03951 0.0
N170 N 0.41229 0.1046 0.05675 0.0
C171 C 0.43327 0.09164 0.04737 0.0
C172 C 0.42983 0.05407 0.04539 0.0
C173 C 0.40542 0.04348 0.05353 0.0
C174 C 0.39546 0.07492 0.0601 0.0
N175 N 0.37902 0.13761 0.07983 0.0
C176 C 0.36613 0.10417 0.08077 0.0
C177 C 0.35129 0.09868 0.09349 0.0
C178 C 0.35489 0.1307 0.10097 0.0
C179 C 0.37132 0.15445 0.09227 0.0
N180 N 0.36945 0.15934 0.05147 0.0
C181 C 0.31794 0.16295 0.03381 0.0
C182 C 0.34579 0.15047 0.02846 0.0
C183 C 0.37114 0.14853 0.03747 0.0
C184 C 0.31632 0.17399 0.0481 0.0
C185 C 0.34241 0.17242 0.05671 0.0
N186 N 0.44092 0.15116 0.0764 0.0
C187 C 0.46766 0.11928 0.09511 0.0
C188 C 0.48759 0.14901 0.09685 0.0
C189 C 0.48457 0.17904 0.08756 0.0
C190 C 0.46114 0.17957 0.07744 0.0
C191 C 0.44466 0.12083 0.08482 0.0
H192 H 0.45883 0.20348 0.07075 0.0
H193 H 0.4292 0.09798 0.08404 0.0
H194 H 0.39202 0.13782 0.0331 0.0
H195 H 0.3406 0.18141 0.06765 0.0
C196 C 0.41751 0.23605 0.05045 0.0
C197 C 0.37785 0.19326 0.09572 0.0
C198 C 0.4551 0.1144 0.0394 0.0
C199 C 0.37383 0.07657 0.07104 0.0
H200 H 0.37758 0.27248 0.09302 0.0
H201 H 0.39691 0.29611 0.06776 0.0
H202 H 0.45737 0.23703 0.02614 0.0
H203 H 0.4801 0.17066 0.0211 0.0
H204 H 0.44335 0.03615 0.03871 0.0
H205 H 0.39668 0.01591 0.05486 0.0
H206 H 0.34073 0.07363 0.09725 0.0
H207 H 0.34663 0.13549 0.11169 0.0
H208 H 0.34776 0.14136 0.01748 0.0
H209 H 0.29505 0.18372 0.05259 0.0
H210 H 0.46886 0.09557 0.10207 0.0
H211 H 0.49982 0.20234 0.08827 0.0
C212 C 0.05767 0.85181 0.174 0.0
C213 C 0.02607 0.85145 0.17466 0.0
C214 C 0.01841 0.83062 0.18624 0.0
C215 C 0.04563 0.81982 0.19206 0.0
N216 N 0.07024 0.83293 0.18501 0.0
Co217 Co 0.11416 0.82401 0.18988 0.0
N218 N 0.103 0.78952 0.20575 0.0
C219 C 0.07468 0.77768 0.20911 0.0
C220 C 0.07406 0.75376 0.22041 0.0
C221 C 0.1037 0.75045 0.22464 0.0
C222 C 0.12075 0.77295 0.21574 0.0
N223 N 0.15805 0.81637 0.1952 0.0
C224 C 0.17052 0.79919 0.20668 0.0
C225 C 0.20188 0.80443 0.20723 0.0
C226 C 0.20951 0.82523 0.19569 0.0
C227 C 0.18252 0.83201 0.18888 0.0
N228 N 0.12535 0.85738 0.17363 0.0
C229 C 0.15383 0.86634 0.16939 0.0
C230 C 0.15481 0.88655 0.15708 0.0
C231 C 0.12517 0.8902 0.153 0.0
C232 C 0.10767 0.87224 0.16322 0.0
N233 N 0.11269 0.86628 0.20343 0.0
C234 C 0.111 0.92469 0.2234 0.0
C235 C 0.13321 0.92341 0.21267 0.0
C236 C 0.13355 0.89429 0.20283 0.0
C237 C 0.08972 0.8962 0.22388 0.0
C238 C 0.09095 0.86768 0.21393 0.0
N239 N 0.11537 0.78173 0.17628 0.0
C240 C 0.14075 0.74625 0.1578 0.0
C241 C 0.11416 0.72609 0.15495 0.0
C242 C 0.08859 0.73395 0.16337 0.0
C243 C 0.08986 0.76089 0.17396 0.0
C244 C 0.1408 0.77381 0.16832 0.0
H245 H 0.06951 0.76476 0.17994 0.0
H246 H 0.16157 0.78863 0.16971 0.0
H247 H 0.15095 0.89493 0.19487 0.0
H248 H 0.07416 0.84685 0.21508 0.0
C249 C 0.04892 0.79334 0.20277 0.0
C250 C 0.07458 0.86826 0.16218 0.0
C251 C 0.1535 0.77879 0.21755 0.0
C252 C 0.17928 0.85422 0.17688 0.0
H253 H 0.01022 0.86381 0.16723 0.0
H254 H 0.99571 0.8228 0.1896 0.0
H255 H 0.05428 0.74143 0.22537 0.0
H256 H 0.11173 0.73413 0.23354 0.0
H257 H 0.21773 0.79513 0.2153 0.0
H258 H 0.23194 0.83522 0.19286 0.0
H259 H 0.17476 0.89644 0.15148 0.0
H260 H 0.11764 0.90367 0.14335 0.0
H261 H 0.15007 0.94497 0.21174 0.0
H262 H 0.07234 0.89543 0.23209 0.0
H263 H 0.16159 0.74105 0.15196 0.0
H264 H 0.06708 0.72013 0.16167 0.0
C265 C 0.39939 0.76052 0.42925 0.0
C266 C 0.41227 0.72574 0.42816 0.0
C267 C 0.42705 0.71899 0.44078 0.0
C268 C 0.42334 0.75018 0.44879 0.0
N269 N 0.40728 0.77626 0.4419 0.0
Co270 Co 0.40241 0.82803 0.44822 0.0
N271 N 0.4365 0.82413 0.46208 0.0
C272 C 0.44829 0.79266 0.46716 0.0
C273 C 0.47131 0.79828 0.47684 0.0
C274 C 0.47402 0.83565 0.478 0.0
C275 C 0.45239 0.85079 0.46891 0.0
N276 N 0.3974 0.87984 0.45442 0.0
C277 C 0.41651 0.90191 0.46191 0.0
C278 C 0.40327 0.93596 0.46432 0.0
C279 C 0.37475 0.9348 0.45829 0.0
C280 C 0.37216 0.90027 0.45253 0.0
N281 N 0.36833 0.83173 0.43442 0.0
C282 C 0.34577 0.8567 0.43494 0.0
C283 C 0.32443 0.85162 0.4244 0.0
C284 C 0.33426 0.82161 0.41681 0.0
C285 C 0.36137 0.81018 0.42305 0.0
N286 N 0.37359 0.81283 0.46317 0.0
C287 C 0.32696 0.80135 0.48323 0.0
C288 C 0.35192 0.82378 0.48643 0.0
C289 C 0.375 0.82889 0.47637 0.0
C290 C 0.32685 0.78281 0.47008 0.0
C291 C 0.35037 0.78894 0.4602 0.0
N292 N 0.43078 0.8436 0.43337 0.0
C293 C 0.44208 0.88268 0.41338 0.0
C294 C 0.46854 0.86251 0.41041 0.0
C295 C 0.47624 0.83348 0.41958 0.0
C296 C 0.4572 0.82467 0.43103 0.0
C297 C 0.42353 0.87273 0.42484 0.0
H298 H 0.46346 0.8019 0.43776 0.0
H299 H 0.40294 0.88819 0.42662 0.0
H300 H 0.39336 0.84715 0.47912 0.0
H301 H 0.34912 0.77553 0.44994 0.0
C302 C 0.44085 0.75911 0.46079 0.0
C303 C 0.37886 0.77754 0.41851 0.0
C304 C 0.44582 0.89028 0.46805 0.0
C305 C 0.34837 0.88763 0.4438 0.0
H306 H 0.41223 0.70733 0.41913 0.0
H307 H 0.44103 0.69536 0.44329 0.0
H308 H 0.48514 0.77776 0.48208 0.0
H309 H 0.48985 0.85007 0.48486 0.0
H310 H 0.41297 0.95894 0.47005 0.0
H311 H 0.35819 0.95679 0.45791 0.0
H312 H 0.30469 0.86847 0.42216 0.0
H313 H 0.32266 0.80951 0.40777 0.0
H314 H 0.35332 0.838 0.49658 0.0
H315 H 0.30805 0.76506 0.46718 0.0
H316 H 0.43548 0.90584 0.40682 0.0
H317 H 0.49629 0.81684 0.41769 0.0
C318 C 0.44767 0.15408 0.67392 0.0
C319 C 0.47899 0.15963 0.67394 0.0
C320 C 0.48525 0.18242 0.68512 0.0
C321 C 0.45757 0.18965 0.69127 0.0
N322 N 0.43399 0.1725 0.68479 0.0
Co323 Co 0.38963 0.17743 0.6898 0.0
N324 N 0.39845 0.2153 0.70478 0.0
C325 C 0.4258 0.23065 0.70766 0.0
C326 C 0.42488 0.25636 0.71833 0.0
C327 C 0.3952 0.2572 0.72267 0.0
C328 C 0.37971 0.23154 0.71446 0.0
N329 N 0.34543 0.18104 0.69527 0.0
C330 C 0.33193 0.19869 0.70639 0.0
C331 C 0.3011 0.19022 0.70728 0.0
C332 C 0.29486 0.16676 0.69634 0.0
C333 C 0.32211 0.16175 0.68952 0.0
N334 N 0.3806 0.14075 0.67438 0.0
C335 C 0.35289 0.12775 0.67061 0.0
C336 C 0.35349 0.10429 0.65918 0.0
C337 C 0.3833 0.10289 0.65514 0.0
C338 C 0.39919 0.12585 0.66435 0.0
N339 N 0.39448 0.13761 0.7042 0.0
C340 C 0.39973 0.0827 0.72544 0.0
C341 C 0.378 0.08 0.71456 0.0
C342 C 0.37583 0.10743 0.70415 0.0
C343 C 0.41909 0.11318 0.72533 0.0
C344 C 0.41614 0.13999 0.71472 0.0
N345 N 0.38498 0.21707 0.67527 0.0
C346 C 0.35685 0.24417 0.65566 0.0
C347 C 0.38231 0.26458 0.65129 0.0
C348 C 0.40839 0.2625 0.65988 0.0
C349 C 0.40897 0.2395 0.67183 0.0
C350 C 0.35874 0.22061 0.66745 0.0
H351 H 0.42955 0.23956 0.67785 0.0
H352 H 0.33887 0.20491 0.66982 0.0
H353 H 0.35875 0.10366 0.6962 0.0
H354 H 0.43144 0.16263 0.71535 0.0
C355 C 0.45241 0.21706 0.70142 0.0
C356 C 0.43165 0.13364 0.66276 0.0
C357 C 0.34756 0.22255 0.71664 0.0
C358 C 0.32674 0.13816 0.678 0.0
H359 H 0.49556 0.14974 0.66631 0.0
H360 H 0.50713 0.19417 0.68787 0.0
H361 H 0.44375 0.27163 0.72281 0.0
H362 H 0.38615 0.27411 0.73117 0.0
H363 H 0.28478 0.19918 0.7152 0.0
H364 H 0.2732 0.154 0.69391 0.0
H365 H 0.33445 0.09033 0.65424 0.0
H366 H 0.39226 0.08725 0.64625 0.0
H367 H 0.36278 0.05665 0.71399 0.0
H368 H 0.43614 0.11682 0.73357 0.0
H369 H 0.33549 0.24568 0.64992 0.0
H370 H 0.42892 0.27743 0.65721 0.0
C371 C 0.10854 0.22808 0.92597 0.0
C372 C 0.10823 0.26619 0.92555 0.0
C373 C 0.09797 0.27786 0.93864 0.0
C374 C 0.0928 0.2464 0.94635 0.0
N375 N 0.09918 0.21574 0.93892 0.0
Co376 Co 0.09546 0.1648 0.94615 0.0
N377 N 0.06733 0.18001 0.96172 0.0
C378 C 0.06348 0.21455 0.9665 0.0
C379 C 0.04273 0.21686 0.97744 0.0
C380 C 0.03323 0.1815 0.97981 0.0
C381 C 0.04884 0.15949 0.97017 0.0
N382 N 0.09222 0.11384 0.95351 0.0
C383 C 0.07201 0.09885 0.96279 0.0
C384 C 0.07893 0.06227 0.96538 0.0
C385 C 0.10449 0.05432 0.95753 0.0
C386 C 0.11178 0.08636 0.95061 0.0
N387 N 0.12328 0.14986 0.93043 0.0
C388 C 0.13888 0.11811 0.92974 0.0
C389 C 0.15417 0.11396 0.91705 0.0
C390 C 0.14791 0.14509 0.90933 0.0
C391 C 0.12948 0.16705 0.91786 0.0
N392 N 0.13053 0.17284 0.95883 0.0
C393 C 0.18178 0.17964 0.97682 0.0
C394 C 0.18287 0.19082 0.96244 0.0
C395 C 0.15701 0.18763 0.95372 0.0
C396 C 0.15398 0.16589 0.98197 0.0
C397 C 0.129 0.16229 0.97284 0.0
N398 N 0.06067 0.1564 0.93356 0.0
C399 C 0.03552 0.11862 0.9161 0.0
C400 C 0.01328 0.14564 0.91392 0.0
C401 C 0.01477 0.17775 0.9222 0.0
C402 C 0.03855 0.1825 0.93198 0.0
C403 C 0.05897 0.12457 0.92588 0.0
H404 H 0.03939 0.20761 0.93806 0.0
H405 H 0.07603 0.10356 0.92703 0.0
H406 H 0.15864 0.19653 0.94275 0.0
H407 H 0.10851 0.15048 0.97716 0.0
C408 C 0.07673 0.24422 0.95926 0.0
C409 C 0.11931 0.20461 0.91419 0.0
C410 C 0.0478 0.11914 0.97024 0.0
C411 C 0.13343 0.09016 0.9397 0.0
H412 H 0.11466 0.28372 0.91672 0.0
H413 H 0.0935 0.30586 0.94188 0.0
H414 H 0.03492 0.24138 0.98285 0.0
H415 H 0.0171 0.17283 0.98788 0.0
H416 H 0.06699 0.04343 0.97236 0.0
H417 H 0.1158 0.02802 0.95664 0.0
H418 H 0.16679 0.09017 0.91345 0.0
H419 H 0.1557 0.15031 0.89858 0.0
H420 H 0.20367 0.20129 0.95776 0.0
H421 H 0.15126 0.15783 0.99302 0.0
H422 H 0.03503 0.09302 0.91023 0.0
H423 H 0.99824 0.19956 0.92087 0.0
C424 C 0.85867 0.7746 0.68824 0.0
C425 C 0.88142 0.74848 0.69011 0.0
C426 C 0.89515 0.75591 0.70284 0.0
C427 C 0.8807 0.78644 0.70798 0.0
N428 N 0.85783 0.79836 0.69947 0.0
Co429 Co 0.83447 0.84541 0.70168 0.0
N430 N 0.86204 0.86303 0.71735 0.0
C431 C 0.8866 0.84521 0.72264 0.0
C432 C 0.9021 0.86457 0.73285 0.0
C433 C 0.88611 0.89642 0.7344 0.0
C434 C 0.86129 0.89428 0.72521 0.0
N435 N 0.81075 0.89218 0.704 0.0
C436 C 0.813 0.91909 0.71407 0.0
C437 C 0.78941 0.9443 0.71279 0.0
C438 C 0.77186 0.93315 0.70157 0.0
C439 C 0.78533 0.90163 0.69671 0.0
N440 N 0.80776 0.82826 0.68561 0.0
C441 C 0.78279 0.84536 0.6804 0.0
C442 C 0.77018 0.82814 0.6688 0.0
C443 C 0.78901 0.79914 0.66607 0.0
C444 C 0.81227 0.80066 0.6761 0.0
N445 N 0.80717 0.82179 0.71615 0.0
C446 C 0.76797 0.79206 0.73714 0.0
C447 C 0.7565 0.80524 0.72426 0.0
C448 C 0.77622 0.82018 0.7141 0.0
C449 C 0.79936 0.79356 0.73937 0.0
C450 C 0.81843 0.8079 0.72874 0.0
N451 N 0.86143 0.86832 0.68724 0.0
C452 C 0.86697 0.89243 0.66333 0.0
C453 C 0.89751 0.88148 0.66297 0.0
C454 C 0.91027 0.86714 0.67545 0.0
C455 C 0.89204 0.86112 0.68739 0.0
C456 C 0.84956 0.88629 0.67564 0.0
H457 H 0.90283 0.84847 0.69631 0.0
H458 H 0.82619 0.89455 0.67534 0.0
H459 H 0.76558 0.83043 0.70476 0.0
H460 H 0.84215 0.80745 0.73105 0.0
C461 C 0.89335 0.80944 0.71833 0.0
C462 C 0.83975 0.7779 0.6753 0.0
C463 C 0.83618 0.9208 0.72538 0.0
C464 C 0.77349 0.87916 0.68595 0.0
H465 H 0.88913 0.72759 0.6828 0.0
H466 H 0.91542 0.7429 0.70707 0.0
H467 H 0.92216 0.85614 0.73872 0.0
H468 H 0.89153 0.91815 0.74186 0.0
H469 H 0.78459 0.96775 0.71949 0.0
H470 H 0.75107 0.94579 0.69776 0.0
H471 H 0.75058 0.83672 0.66263 0.0
H472 H 0.7868 0.78017 0.65723 0.0
H473 H 0.73224 0.80461 0.72212 0.0
H474 H 0.80922 0.78311 0.74917 0.0
H475 H 0.85636 0.90479 0.65405 0.0
H476 H 0.93387 0.85845 0.67579 0.0
C477 C 0.89483 0.07599 0.42778 0.0
C478 C 0.88509 0.05609 0.41598 0.0
C479 C 0.88942 0.01991 0.41916 0.0
C480 C 0.90176 0.01973 0.4326 0.0
N481 N 0.90499 0.05354 0.43837 0.0
Co482 Co 0.92587 0.0658 0.45687 0.0
N483 N 0.93535 0.01281 0.46088 0.0
C484 C 0.92635 0.98366 0.45299 0.0
C485 C 0.93461 0.95048 0.45869 0.0
C486 C 0.94955 0.95881 0.47105 0.0
C487 C 0.94979 0.99681 0.47215 0.0
N488 N 0.94814 0.07833 0.47498 0.0
C489 C 0.96258 0.05645 0.48461 0.0
C490 C 0.97617 0.07693 0.49537 0.0
C491 C 0.96962 0.11285 0.49262 0.0
C492 C 0.95274 0.11237 0.48031 0.0
N493 N 0.91533 0.11855 0.45323 0.0
C494 C 0.92047 0.14717 0.46209 0.0
C495 C 0.91078 0.18019 0.45673 0.0
C496 C 0.89917 0.17226 0.44356 0.0
C497 C 0.9027 0.13474 0.44159 0.0
N498 N 0.88677 0.0603 0.46758 0.0
C499 C 0.82885 0.05713 0.4808 0.0
C500 C 0.85129 0.08121 0.48572 0.0
C501 C 0.87983 0.08238 0.47901 0.0
C502 C 0.83635 0.03364 0.46955 0.0
C503 C 0.8652 0.03541 0.46327 0.0
N504 N 0.96423 0.07173 0.44587 0.0
C505 C 0.99999 0.11326 0.4347 0.0
C506 C 0.00757 0.08687 0.42441 0.0
C507 C 0.9954 0.05162 0.42607 0.0
C508 C 0.97407 0.04465 0.43682 0.0
C509 C 0.97883 0.10496 0.4454 0.0
H510 H 0.96483 0.01758 0.4372 0.0
H511 H 0.97343 0.12643 0.45275 0.0
H512 H 0.89567 0.1018 0.48315 0.0
H513 H 0.86929 0.01654 0.45482 0.0
C514 C 0.9115 0.98846 0.43993 0.0
C515 C 0.89535 0.11614 0.42821 0.0
C516 C 0.96343 0.01628 0.48425 0.0
C517 C 0.93867 0.14296 0.4742 0.0
H518 H 0.87648 0.06655 0.40595 0.0
H519 H 0.88496 0.99658 0.41232 0.0
H520 H 0.93034 0.92343 0.45435 0.0
H521 H 0.95904 0.93906 0.47845 0.0
H522 H 0.9891 0.06692 0.50441 0.0
H523 H 0.97583 0.13644 0.49902 0.0
H524 H 0.91334 0.20708 0.46149 0.0
H525 H 0.89013 0.19203 0.43604 0.0
H526 H 0.84661 0.09989 0.49446 0.0
H527 H 0.81999 0.01385 0.46558 0.0
H528 H 0.00905 0.14086 0.43413 0.0
H529 H 0.00156 0.02964 0.41883 0.0
C530 C 0.65332 0.22093 0.18343 0.0
C531 C 0.63912 0.25478 0.1848 0.0
C532 C 0.6275 0.25617 0.19841 0.0
C533 C 0.63542 0.22333 0.2046 0.0
N534 N 0.65143 0.20156 0.19576 0.0
Co535 Co 0.66721 0.15183 0.2003 0.0
N536 N 0.63852 0.14588 0.21662 0.0
C537 C 0.62198 0.17303 0.22261 0.0
C538 C 0.60282 0.16083 0.23315 0.0
C539 C 0.60819 0.12391 0.23415 0.0
C540 C 0.63101 0.11563 0.22436 0.0
N541 N 0.68352 0.10209 0.20486 0.0
C542 C 0.6741 0.07643 0.21447 0.0
C543 C 0.6951 0.04782 0.21531 0.0
C544 C 0.71816 0.05582 0.20604 0.0
C545 C 0.71039 0.08885 0.20014 0.0
N546 N 0.69561 0.15811 0.1839 0.0
C547 C 0.72078 0.13812 0.18137 0.0
C548 C 0.73376 0.14563 0.16838 0.0
C549 C 0.71562 0.17199 0.16235 0.0
C550 C 0.6928 0.17986 0.17219 0.0
N551 N 0.69737 0.1737 0.2132 0.0
C552 C 0.73786 0.20785 0.23226 0.0
C553 C 0.73371 0.22147 0.21837 0.0
C554 C 0.7134 0.20409 0.20905 0.0
C555 C 0.72172 0.17628 0.23624 0.0
C556 C 0.70181 0.15965 0.22659 0.0
N557 N 0.637 0.13088 0.18725 0.0
C558 C 0.62699 0.1018 0.16463 0.0
C559 C 0.5985 0.11917 0.16386 0.0
C560 C 0.58856 0.13927 0.17573 0.0
C561 C 0.60801 0.14459 0.18731 0.0
C562 C 0.64581 0.10778 0.1765 0.0
H563 H 0.60026 0.16208 0.19582 0.0
H564 H 0.6683 0.09587 0.17648 0.0
H565 H 0.71032 0.21562 0.19854 0.0
H566 H 0.68961 0.13582 0.23016 0.0
C567 C 0.62256 0.2087 0.21702 0.0
C568 C 0.66922 0.20846 0.17049 0.0
C569 C 0.64807 0.0806 0.22438 0.0
C570 C 0.72691 0.10708 0.18956 0.0
H571 H 0.63701 0.27597 0.17676 0.0
H572 H 0.61339 0.27762 0.20291 0.0
H573 H 0.58657 0.17675 0.23926 0.0
H574 H 0.59735 0.10548 0.24166 0.0
H575 H 0.69494 0.02427 0.2223 0.0
H576 H 0.7384 0.03966 0.204 0.0
H577 H 0.75268 0.13156 0.16337 0.0
H578 H 0.71866 0.18286 0.15172 0.0
H579 H 0.74596 0.24549 0.21471 0.0
H580 H 0.72368 0.16495 0.24689 0.0
H581 H 0.63549 0.08559 0.15579 0.0
H582 H 0.5663 0.15213 0.17584 0.0
C583 C 0.61551 0.93344 0.92641 0.0
C584 C 0.63293 0.95104 0.91609 0.0
C585 C 0.63845 0.98584 0.92107 0.0
C586 C 0.62393 0.98776 0.93404 0.0
N587 N 0.60951 0.95638 0.93747 0.0
Co588 Co 0.58466 0.9479 0.95489 0.0
N589 N 0.58042 0.00141 0.95857 0.0
C590 C 0.59809 0.02794 0.95295 0.0
C591 C 0.59036 0.0624 0.95766 0.0
C592 C 0.56657 0.05718 0.96695 0.0
C593 C 0.56116 0.01967 0.96742 0.0
N594 N 0.56 0.9392 0.97234 0.0
C595 C 0.54237 0.96263 0.97998 0.0
C596 C 0.52996 0.9452 0.99182 0.0
C597 C 0.5405 0.90979 0.99163 0.0
C598 C 0.55868 0.90753 0.97973 0.0
N599 N 0.58902 0.89449 0.95129 0.0
C600 C 0.58491 0.8676 0.96095 0.0
C601 C 0.58983 0.83324 0.9554 0.0
C602 C 0.59762 0.83893 0.94138 0.0
C603 C 0.59689 0.87662 0.93915 0.0
N604 N 0.62201 0.94715 0.96633 0.0
C605 C 0.67762 0.95064 0.9811 0.0
C606 C 0.67459 0.92937 0.9687 0.0
C607 C 0.64683 0.92819 0.96148 0.0
C608 C 0.65174 0.96915 0.98619 0.0
C609 C 0.62417 0.96681 0.97874 0.0
N610 N 0.54787 0.94851 0.94314 0.0
C611 C 0.50524 0.91569 0.93324 0.0
C612 C 0.50364 0.94054 0.9218 0.0
C613 C 0.52312 0.97102 0.92198 0.0
C614 C 0.54485 0.97459 0.93275 0.0
C615 C 0.52738 0.92031 0.94385 0.0
H616 H 0.56047 0.99731 0.93213 0.0
H617 H 0.529 0.89999 0.95219 0.0
H618 H 0.64568 0.91232 0.95178 0.0
H619 H 0.60481 0.98162 0.98285 0.0
C620 C 0.6185 0.0199 0.94186 0.0
C621 C 0.60626 0.8946 0.92582 0.0
C622 C 0.53935 0.00213 0.97717 0.0
C623 C 0.57148 0.87534 0.97418 0.0
H624 H 0.64071 0.94014 0.90599 0.0
H625 H 0.65034 0.00766 0.91555 0.0
H626 H 0.60025 0.08832 0.95444 0.0
H627 H 0.55483 0.07849 0.97283 0.0
H628 H 0.51533 0.95704 0.99991 0.0
H629 H 0.53502 0.88811 0.9991 0.0
H630 H 0.587 0.80709 0.96073 0.0
H631 H 0.60341 0.8178 0.93372 0.0
H632 H 0.69356 0.91373 0.9645 0.0
H633 H 0.65283 0.98614 0.99567 0.0
H634 H 0.49015 0.89222 0.93377 0.0
H635 H 0.52293 0.99096 0.9134 0.0
C636 C 0.86608 0.22655 0.8221 0.0
C637 C 0.88993 0.25141 0.82073 0.0
C638 C 0.9038 0.24421 0.80801 0.0
C639 C 0.88822 0.21505 0.80242 0.0
N640 N 0.86449 0.20385 0.81054 0.0
Co641 Co 0.84068 0.15707 0.80811 0.0
N642 N 0.86621 0.14112 0.79146 0.0
C643 C 0.889 0.16046 0.7853 0.0
C644 C 0.90231 0.143 0.77395 0.0
C645 C 0.88649 0.11103 0.77247 0.0
C646 C 0.86403 0.11104 0.78294 0.0
N647 N 0.81792 0.10941 0.80629 0.0
C648 C 0.81971 0.08254 0.79621 0.0
C649 C 0.79794 0.05551 0.79857 0.0
C650 C 0.78211 0.06548 0.81049 0.0
C651 C 0.79471 0.09808 0.81473 0.0
N652 N 0.81446 0.17379 0.82434 0.0
C653 C 0.78898 0.15729 0.82922 0.0
C654 C 0.77614 0.17487 0.8407 0.0
C655 C 0.79516 0.20363 0.84357 0.0
C656 C 0.8188 0.20158 0.83376 0.0
N657 N 0.81212 0.18072 0.79428 0.0
C658 C 0.77367 0.20599 0.77218 0.0
C659 C 0.76305 0.18142 0.78244 0.0
C660 C 0.78229 0.16969 0.7934 0.0
C661 C 0.80331 0.21943 0.7736 0.0
C662 C 0.82204 0.20646 0.78463 0.0
N663 N 0.86913 0.1339 0.82186 0.0
C664 C 0.87871 0.1132 0.84599 0.0
C665 C 0.90998 0.11914 0.8443 0.0
C666 C 0.92057 0.12936 0.83079 0.0
C667 C 0.89995 0.13624 0.81979 0.0
C668 C 0.85883 0.12011 0.83461 0.0
H669 H 0.90943 0.14529 0.80992 0.0
H670 H 0.83509 0.11575 0.83654 0.0
H671 H 0.77253 0.15104 0.80082 0.0
H672 H 0.84463 0.21706 0.78489 0.0
C673 C 0.89819 0.19422 0.79082 0.0
C674 C 0.84665 0.22352 0.83485 0.0
C675 C 0.84012 0.08297 0.78377 0.0
C676 C 0.78169 0.12173 0.82481 0.0
H677 H 0.89795 0.27145 0.82832 0.0
H678 H 0.9243 0.25687 0.80389 0.0
H679 H 0.92121 0.15244 0.76749 0.0
H680 H 0.89069 0.09039 0.7644 0.0
H681 H 0.7928 0.03186 0.79204 0.0
H682 H 0.76238 0.05184 0.81496 0.0
H683 H 0.75669 0.16615 0.84695 0.0
H684 H 0.79301 0.22248 0.85245 0.0
H685 H 0.73995 0.17098 0.78196 0.0
H686 H 0.81241 0.23881 0.76593 0.0
H687 H 0.86952 0.10411 0.85613 0.0
H688 H 0.94459 0.13407 0.82887 0.0
C689 C 0.61142 0.07675 0.57926 0.0
C690 C 0.62317 0.05833 0.59101 0.0
C691 C 0.61932 0.02173 0.58843 0.0
C692 C 0.60534 0.01992 0.57536 0.0
N693 N 0.60069 0.05308 0.56924 0.0
Co694 Co 0.57772 0.06325 0.55111 0.0
N695 N 0.56813 0.00987 0.54827 0.0
C696 C 0.57862 0.98158 0.55623 0.0
C697 C 0.56913 0.94786 0.55151 0.0
C698 C 0.55154 0.95497 0.53981 0.0
C699 C 0.55111 0.99281 0.5381 0.0
N700 N 0.55339 0.07367 0.53338 0.0
C701 C 0.53684 0.05087 0.52488 0.0
C702 C 0.52231 0.07002 0.51402 0.0
C703 C 0.5301 0.10605 0.51562 0.0
C704 C 0.54867 0.10696 0.52738 0.0
N705 N 0.5882 0.11641 0.55365 0.0
C706 C 0.58213 0.14403 0.54444 0.0
C707 C 0.59148 0.17776 0.54924 0.0
C708 C 0.60383 0.17136 0.5624 0.0
C709 C 0.60115 0.13396 0.56488 0.0
N710 N 0.61576 0.05694 0.53957 0.0
C711 C 0.6731 0.05463 0.52576 0.0
C712 C 0.64985 0.07749 0.52077 0.0
C713 C 0.6216 0.07819 0.52777 0.0
C714 C 0.66655 0.03149 0.53723 0.0
C715 C 0.63798 0.03278 0.5438 0.0
N716 N 0.54065 0.07009 0.56291 0.0
C717 C 0.50623 0.11286 0.57427 0.0
C718 C 0.50052 0.08797 0.58536 0.0
C719 C 0.51266 0.05258 0.58406 0.0
C720 C 0.53242 0.04424 0.57281 0.0
C721 C 0.52577 0.10314 0.56308 0.0
H722 H 0.54197 0.01727 0.57272 0.0
H723 H 0.52991 0.12349 0.55507 0.0
H724 H 0.60516 0.09672 0.52355 0.0
H725 H 0.63476 0.01428 0.55242 0.0
C726 C 0.59512 0.98777 0.56877 0.0
C727 C 0.60955 0.1167 0.57837 0.0
C728 C 0.53413 0.0111 0.52668 0.0
C729 C 0.56311 0.13831 0.53269 0.0
H730 H 0.63282 0.07014 0.6006 0.0
H731 H 0.62512 0.9992 0.59546 0.0
H732 H 0.57393 0.92131 0.55619 0.0
H733 H 0.54014 0.93458 0.53332 0.0
H734 H 0.50765 0.05911 0.50576 0.0
H735 H 0.52319 0.12885 0.50895 0.0
H736 H 0.58809 0.20414 0.54416 0.0
H737 H 0.61274 0.192 0.56959 0.0
H738 H 0.65373 0.09573 0.51182 0.0
H739 H 0.68353 0.01248 0.54122 0.0
H740 H 0.49707 0.14043 0.57453 0.0
H741 H 0.5078 0.03162 0.59194 0.0
C742 C 0.63102 0.77656 0.32378 0.0
C743 C 0.60862 0.74961 0.32309 0.0
C744 C 0.59394 0.75398 0.3104 0.0
C745 C 0.60751 0.78365 0.30412 0.0
N746 N 0.63078 0.79788 0.31182 0.0
Co747 Co 0.65201 0.84594 0.30816 0.0
N748 N 0.62392 0.85851 0.29198 0.0
C749 C 0.601 0.83745 0.28689 0.0
C750 C 0.58469 0.85356 0.27613 0.0
C751 C 0.59844 0.88661 0.27394 0.0
C752 C 0.62287 0.88851 0.28336 0.0
N753 N 0.6728 0.89441 0.30483 0.0
C754 C 0.66862 0.92002 0.2944 0.0
C755 C 0.69022 0.94781 0.29538 0.0
C756 C 0.70817 0.93989 0.30687 0.0
C757 C 0.69702 0.9076 0.31219 0.0
N758 N 0.68006 0.83313 0.3243 0.0
C759 C 0.70486 0.85212 0.32859 0.0
C760 C 0.71878 0.83744 0.34039 0.0
C761 C 0.70115 0.8081 0.34417 0.0
C762 C 0.67718 0.80689 0.33452 0.0
N763 N 0.68037 0.8222 0.29419 0.0
C764 C 0.7195 0.79567 0.27253 0.0
C765 C 0.73012 0.81959 0.28301 0.0
C766 C 0.71053 0.83196 0.29371 0.0
C767 C 0.68934 0.78369 0.27342 0.0
C768 C 0.67026 0.79734 0.28423 0.0
N769 N 0.62407 0.86912 0.32209 0.0
C770 C 0.61775 0.89468 0.34569 0.0
C771 C 0.5877 0.88199 0.34626 0.0
C772 C 0.57527 0.86662 0.33387 0.0
C773 C 0.59363 0.861 0.32191 0.0
C774 C 0.63533 0.8884 0.33348 0.0
H775 H 0.58322 0.84787 0.31298 0.0
H776 H 0.65845 0.89746 0.3338 0.0
H777 H 0.72041 0.84998 0.30127 0.0
H778 H 0.64733 0.78792 0.28409 0.0
C779 C 0.59473 0.80313 0.29277 0.0
C780 C 0.65059 0.78297 0.33632 0.0
C781 C 0.64545 0.91822 0.28304 0.0
C782 C 0.71111 0.8868 0.3229 0.0
H783 H 0.60176 0.73015 0.33115 0.0
H784 H 0.57382 0.73944 0.30682 0.0
H785 H 0.56513 0.84258 0.27053 0.0
H786 H 0.5915 0.90673 0.26609 0.0
H787 H 0.69365 0.97085 0.2883 0.0
H788 H 0.72799 0.95496 0.31047 0.0
H789 H 0.73813 0.84831 0.34618 0.0
H790 H 0.7045 0.79092 0.35347 0.0
H791 H 0.75354 0.829 0.2829 0.0
H792 H 0.6802 0.76494 0.26553 0.0
H793 H 0.62806 0.90814 0.3548 0.0
H794 H 0.55201 0.85672 0.33362 0.0
C795 C 0.88849 0.94912 0.08647 0.0
C796 C 0.87159 0.968 0.09663 0.0
C797 C 0.86641 0.00242 0.0912 0.0
C798 C 0.88058 0.00282 0.07812 0.0
N799 N 0.89443 0.97084 0.07504 0.0
Co800 Co 0.91852 0.96017 0.05756 0.0
N801 N 0.92357 0.01319 0.05314 0.0
C802 C 0.90649 0.04061 0.05853 0.0
C803 C 0.91429 0.07442 0.0532 0.0
C804 C 0.9375 0.06784 0.04373 0.0
C805 C 0.94263 0.03023 0.04383 0.0
N806 N 0.94238 0.94934 0.04 0.0
C807 C 0.95989 0.97167 0.03178 0.0
C808 C 0.97225 0.95247 0.02035 0.0
C809 C 0.96141 0.91729 0.02124 0.0
C810 C 0.94331 0.91678 0.03319 0.0
N811 N 0.9134 0.90724 0.06196 0.0
C812 C 0.91692 0.87932 0.0527 0.0
C813 C 0.91184 0.84564 0.05883 0.0
C814 C 0.90462 0.85289 0.0728 0.0
C815 C 0.90581 0.89075 0.07443 0.0
N816 N 0.88073 0.9592 0.04643 0.0
C817 C 0.82506 0.95973 0.03167 0.0
C818 C 0.82825 0.94072 0.04459 0.0
C819 C 0.85601 0.94097 0.05178 0.0
C820 C 0.85071 0.97787 0.02614 0.0
C821 C 0.87833 0.97713 0.03364 0.0
N822 N 0.95569 0.96068 0.06905 0.0
C823 C 0.99589 0.92517 0.0797 0.0
C824 C 0.99703 0.94934 0.09136 0.0
C825 C 0.97933 0.98136 0.09077 0.0
C826 C 0.95906 0.98665 0.07946 0.0
C827 C 0.97524 0.93151 0.0686 0.0
H828 H 0.94436 0.01031 0.07979 0.0
H829 H 0.97354 0.91137 0.0602 0.0
H830 H 0.85729 0.92654 0.06181 0.0
H831 H 0.89758 0.99147 0.02918 0.0
C832 C 0.88628 0.03407 0.06984 0.0
C833 C 0.89729 0.91024 0.08758 0.0
C834 C 0.96334 0.01149 0.03387 0.0
C835 C 0.93025 0.88546 0.03933 0.0
H836 H 0.86394 0.95814 0.10692 0.0
H837 H 0.85499 0.02499 0.09649 0.0
H838 H 0.90469 0.10079 0.05604 0.0
H839 H 0.94887 0.08829 0.03725 0.0
H840 H 0.98725 0.96281 0.01211 0.0
H841 H 0.96676 0.89457 0.01423 0.0
H842 H 0.91432 0.81892 0.0539 0.0
H843 H 0.89898 0.83265 0.08084 0.0
H844 H 0.80944 0.9255 0.04916 0.0
H845 H 0.8494 0.99314 0.01624 0.0
H846 H 0.00988 0.90069 0.07944 0.0
H847 H 0.97947 1.00103 0.09943 0.0
C848 C 0.5736 0.63521 0.84101 0.0
C849 C 0.54228 0.63197 0.83947 0.0
C850 C 0.53544 0.64403 0.82594 0.0
C851 C 0.56289 0.65382 0.81998 0.0
N852 N 0.58645 0.64859 0.82893 0.0
Co853 Co 0.62981 0.66002 0.82498 0.0
N854 N 0.61895 0.69341 0.809 0.0
C855 C 0.59182 0.69438 0.80225 0.0
C856 C 0.59089 0.71972 0.79142 0.0
C857 C 0.61935 0.73517 0.79115 0.0
C858 C 0.63624 0.71813 0.80181 0.0
N859 N 0.67335 0.67146 0.82126 0.0
C860 C 0.68614 0.69816 0.81315 0.0
C861 C 0.71773 0.6949 0.8131 0.0
C862 C 0.72478 0.66494 0.82125 0.0
C863 C 0.69731 0.65152 0.82583 0.0
N864 N 0.64049 0.62612 0.84078 0.0
C865 C 0.66787 0.6106 0.84307 0.0
C866 C 0.66872 0.58986 0.8553 0.0
C867 C 0.64009 0.59253 0.86105 0.0
C868 C 0.6232 0.61454 0.85186 0.0
N869 N 0.63177 0.61904 0.8113 0.0
C870 C 0.62861 0.564 0.7903 0.0
C871 C 0.64525 0.59619 0.78794 0.0
C872 C 0.6464 0.62333 0.79849 0.0
C873 C 0.61457 0.55929 0.80364 0.0
C874 C 0.61676 0.58688 0.81404 0.0
N875 N 0.62721 0.70093 0.83856 0.0
C876 C 0.64338 0.73057 0.86032 0.0
C877 C 0.61776 0.75372 0.86004 0.0
C878 C 0.59796 0.75092 0.84834 0.0
C879 C 0.60301 0.72447 0.83782 0.0
C880 C 0.64778 0.70456 0.84944 0.0
H881 H 0.58661 0.72238 0.82931 0.0
H882 H 0.66724 0.68656 0.8501 0.0
H883 H 0.65841 0.64826 0.79602 0.0
H884 H 0.60555 0.58258 0.82416 0.0
C885 C 0.56684 0.67452 0.80751 0.0
C886 C 0.59074 0.62323 0.85365 0.0
C887 C 0.66929 0.7232 0.80368 0.0
C888 C 0.69337 0.62279 0.83554 0.0
H889 H 0.52612 0.62207 0.84731 0.0
H890 H 0.51299 0.64703 0.82129 0.0
H891 H 0.57169 0.72665 0.78469 0.0
H892 H 0.627 0.756 0.78373 0.0
H893 H 0.73405 0.71152 0.80735 0.0
H894 H 0.74727 0.65438 0.82363 0.0
H895 H 0.68831 0.57644 0.86 0.0
H896 H 0.63287 0.58021 0.87099 0.0
H897 H 0.65632 0.60111 0.77777 0.0
H898 H 0.60178 0.5346 0.80598 0.0
H899 H 0.65938 0.73153 0.86911 0.0
H900 H 0.57832 0.76873 0.84736 0.0
C901 C 0.60296 0.26941 0.08495 0.0
C902 C 0.59774 0.23234 0.08743 0.0
C903 C 0.58354 0.21883 0.07549 0.0
C904 C 0.58126 0.24813 0.06633 0.0
N905 N 0.59312 0.27913 0.07176 0.0
Co906 Co 0.59541 0.32718 0.06187 0.0
N907 N 0.56296 0.31353 0.04809 0.0
C908 C 0.55109 0.27965 0.04648 0.0
C909 C 0.52363 0.28003 0.03954 0.0
C910 C 0.51834 0.31609 0.0363 0.0
C911 C 0.5438 0.33588 0.04067 0.0
N912 N 0.59835 0.37502 0.05175 0.0
C913 C 0.58098 0.38924 0.04104 0.0
C914 C 0.59634 0.41813 0.03445 0.0
C915 C 0.62304 0.42323 0.04172 0.0
C916 C 0.62329 0.39659 0.05202 0.0
N917 N 0.62738 0.34099 0.0759 0.0
C918 C 0.64749 0.36851 0.07437 0.0
C919 C 0.66469 0.37416 0.0864 0.0
C920 C 0.65491 0.34834 0.09605 0.0
C921 C 0.63263 0.32767 0.08923 0.0
N922 N 0.62689 0.30744 0.04909 0.0
C923 C 0.67849 0.2926 0.03225 0.0
C924 C 0.67678 0.28073 0.0465 0.0
C925 C 0.65101 0.28857 0.05471 0.0
C926 C 0.65247 0.30918 0.02633 0.0
C927 C 0.62681 0.31572 0.03485 0.0
N928 N 0.56462 0.34692 0.07483 0.0
C929 C 0.55116 0.39123 0.09281 0.0
C930 C 0.52733 0.36871 0.09754 0.0
C931 C 0.52135 0.33624 0.09003 0.0
C932 C 0.54019 0.3259 0.07872 0.0
C933 C 0.56936 0.37999 0.08136 0.0
H934 H 0.53586 0.29994 0.07363 0.0
H935 H 0.58822 0.39718 0.07826 0.0
H936 H 0.65125 0.28082 0.06583 0.0
H937 H 0.60755 0.3293 0.03005 0.0
C938 C 0.56195 0.24998 0.0545 0.0
C939 C 0.61809 0.29429 0.0951 0.0
C940 C 0.5513 0.37413 0.03613 0.0
C941 C 0.64543 0.39228 0.06267 0.0
H942 H 0.60319 0.21674 0.09693 0.0
H943 H 0.57434 0.19152 0.07405 0.0
H944 H 0.50815 0.25725 0.03804 0.0
H945 H 0.49766 0.32626 0.03146 0.0
H946 H 0.58987 0.43326 0.025 0.0
H947 H 0.64039 0.44363 0.03961 0.0
H948 H 0.68114 0.39576 0.08826 0.0
H949 H 0.66313 0.34576 0.10687 0.0
H950 H 0.69559 0.26643 0.05149 0.0
H951 H 0.65225 0.31883 0.0154 0.0
H952 H 0.55622 0.4169 0.09814 0.0
H953 H 0.50324 0.3179 0.09333 0.0
C954 C 0.92774 0.37555 0.33765 0.0
C955 C 0.95916 0.37936 0.33697 0.0
C956 C 0.96862 0.35949 0.32542 0.0
C957 C 0.94253 0.34492 0.3197 0.0
N958 N 0.91693 0.35484 0.32674 0.0
Co959 Co 0.8742 0.33898 0.32245 0.0
N960 N 0.88854 0.30402 0.30726 0.0
C961 C 0.91773 0.29755 0.30332 0.0
C962 C 0.92052 0.27285 0.29236 0.0
C963 C 0.89138 0.26314 0.28899 0.0
C964 C 0.87239 0.28252 0.29816 0.0
N965 N 0.83138 0.32369 0.31798 0.0
C966 C 0.82062 0.30077 0.30774 0.0
C967 C 0.78904 0.29842 0.3081 0.0
C968 C 0.77947 0.32133 0.3187 0.0
C969 C 0.8056 0.33616 0.32423 0.0
N970 N 0.85998 0.37311 0.33794 0.0
C971 C 0.83085 0.37955 0.34197 0.0
C972 C 0.82822 0.4018 0.35369 0.0
C973 C 0.85743 0.40939 0.35763 0.0
C974 C 0.87628 0.39146 0.34796 0.0
N975 N 0.87069 0.37907 0.3079 0.0
C976 C 0.86588 0.43563 0.28723 0.0
C977 C 0.84519 0.43314 0.29853 0.0
C978 C 0.84775 0.40466 0.30854 0.0
C979 C 0.88889 0.4093 0.28641 0.0
C980 C 0.89106 0.38183 0.29681 0.0
N981 N 0.87794 0.2993 0.33701 0.0
C982 C 0.85952 0.26871 0.35834 0.0
C983 C 0.88708 0.24973 0.35993 0.0
C984 C 0.90926 0.25473 0.34937 0.0
C985 C 0.90429 0.27932 0.33814 0.0
C986 C 0.8554 0.29297 0.34685 0.0
H987 H 0.92242 0.28234 0.33066 0.0
H988 H 0.8341 0.30703 0.34634 0.0
H989 H 0.83081 0.40395 0.31667 0.0
H990 H 0.90956 0.36328 0.29561 0.0
C991 C 0.94175 0.31781 0.30915 0.0
C992 C 0.90939 0.39029 0.34929 0.0
C993 C 0.8392 0.28142 0.29721 0.0
C994 C 0.80661 0.36191 0.33523 0.0
H995 H 0.97377 0.39391 0.34436 0.0
H996 H 0.99188 0.35466 0.32207 0.0
H997 H 0.94121 0.26402 0.28708 0.0
H998 H 0.88487 0.24474 0.28045 0.0
H999 H 0.7744 0.28215 0.30128 0.0
H1000 H 0.7562 0.32682 0.32189 0.0
H1001 H 0.80756 0.41013 0.3591 0.0
H1002 H 0.86393 0.42522 0.36691 0.0
H1003 H 0.82681 0.45283 0.29954 0.0
H1004 H 0.90564 0.41034 0.27791 0.0
H1005 H 0.8415 0.26591 0.36616 0.0
H1006 H 0.93067 0.23998 0.34979 0.0
C1007 C 0.89673 0.73076 0.58413 0.0
C1008 C 0.90876 0.76581 0.58585 0.0
C1009 C 0.92576 0.7731 0.57402 0.0
C1010 C 0.92396 0.74204 0.56586 0.0
N1011 N 0.90658 0.71526 0.5717 0.0
Co1012 Co 0.90312 0.6632 0.5647 0.0
N1013 N 0.93397 0.6716 0.54915 0.0
C1014 C 0.94793 0.70367 0.546 0.0
C1015 C 0.96761 0.70155 0.53468 0.0
C1016 C 0.96624 0.6659 0.5303 0.0
C1017 C 0.94584 0.64817 0.53932 0.0
N1018 N 0.89979 0.61107 0.55783 0.0
C1019 C 0.91505 0.59312 0.54728 0.0
C1020 C 0.90625 0.55657 0.54643 0.0
C1021 C 0.88448 0.55133 0.55663 0.0
C1022 C 0.88132 0.58472 0.56319 0.0
N1023 N 0.8726 0.65471 0.58035 0.0
C1024 C 0.85661 0.62356 0.58275 0.0
C1025 C 0.83651 0.62614 0.59389 0.0
C1026 C 0.84043 0.66068 0.59919 0.0
C1027 C 0.86329 0.67708 0.59113 0.0
N1028 N 0.86967 0.67767 0.5513 0.0
C1029 C 0.82344 0.69443 0.53124 0.0
C1030 C 0.82003 0.66572 0.54094 0.0
C1031 C 0.84317 0.65779 0.55068 0.0
C1032 C 0.85017 0.71518 0.53187 0.0
C1033 C 0.87262 0.70673 0.54205 0.0
N1034 N 0.93615 0.64875 0.57798 0.0
C1035 C 0.95468 0.60987 0.59701 0.0
C1036 C 0.97997 0.63253 0.59898 0.0
C1037 C 0.9837 0.66248 0.58983 0.0
C1038 C 0.96181 0.66985 0.57939 0.0
C1039 C 0.93319 0.61843 0.58653 0.0
H1040 H 0.96579 0.69316 0.57277 0.0
H1041 H 0.91399 0.60066 0.58577 0.0
H1042 H 0.83906 0.63498 0.5574 0.0
H1043 H 0.89218 0.72395 0.54211 0.0
C1044 C 0.9424 0.73519 0.55403 0.0
C1045 C 0.87667 0.71292 0.59469 0.0
C1046 C 0.93815 0.60927 0.5379 0.0
C1047 C 0.8618 0.59191 0.57466 0.0
H1048 H 0.90684 0.78401 0.5949 0.0
H1049 H 0.93955 0.79723 0.57208 0.0
H1050 H 0.98134 0.72332 0.53015 0.0
H1051 H 0.97876 0.65439 0.52141 0.0
H1052 H 0.91481 0.53571 0.53925 0.0
H1053 H 0.8726 0.52607 0.55907 0.0
H1054 H 0.82124 0.60517 0.59786 0.0
H1055 H 0.82828 0.67208 0.60821 0.0
H1056 H 0.79984 0.64861 0.54078 0.0
H1057 H 0.85367 0.73797 0.52463 0.0
H1058 H 0.95083 0.58638 0.60387 0.0
H1059 H 0.0033 0.68039 0.5908 0.0
C1060 C 0.56478 0.36314 0.67229 0.0
C1061 C 0.53359 0.35752 0.67357 0.0
C1062 C 0.52942 0.33484 0.68499 0.0
C1063 C 0.55813 0.32751 0.68995 0.0
N1064 N 0.58045 0.34472 0.68257 0.0
Co1065 Co 0.62556 0.33741 0.68489 0.0
N1066 N 0.61946 0.29973 0.70032 0.0
C1067 C 0.59254 0.28766 0.70556 0.0
C1068 C 0.59542 0.26423 0.71692 0.0
C1069 C 0.626 0.26173 0.71931 0.0
C1070 C 0.64012 0.28369 0.70914 0.0
N1071 N 0.67057 0.32985 0.68701 0.0
C1072 C 0.68633 0.30999 0.69678 0.0
C1073 C 0.71754 0.31243 0.69458 0.0
C1074 C 0.7217 0.33565 0.68332 0.0
C1075 C 0.69291 0.3458 0.67923 0.0
N1076 N 0.63181 0.37536 0.66965 0.0
C1077 C 0.65872 0.38849 0.6648 0.0
C1078 C 0.65579 0.41447 0.65431 0.0
C1079 C 0.62519 0.41748 0.65206 0.0
C1080 C 0.61122 0.3927 0.66124 0.0
N1081 N 0.62708 0.37631 0.69991 0.0
C1082 C 0.63289 0.42694 0.72283 0.0
C1083 C 0.65282 0.42764 0.71113 0.0
C1084 C 0.6497 0.40224 0.69999 0.0
C1085 C 0.60928 0.40107 0.72248 0.0
C1086 C 0.6066 0.37669 0.71097 0.0
N1087 N 0.62391 0.29848 0.6699 0.0
C1088 C 0.63935 0.27489 0.64676 0.0
C1089 C 0.61616 0.24855 0.64699 0.0
C1090 C 0.59793 0.24661 0.65921 0.0
C1091 C 0.60224 0.27142 0.67043 0.0
C1092 C 0.64285 0.29929 0.65824 0.0
H1093 H 0.58727 0.26855 0.67928 0.0
H1094 H 0.66056 0.31914 0.65727 0.0
H1095 H 0.66617 0.4038 0.69167 0.0
H1096 H 0.58808 0.35789 0.71143 0.0
C1097 C 0.56494 0.30146 0.70042 0.0
C1098 C 0.57871 0.38429 0.66067 0.0
C1099 C 0.67293 0.2906 0.70888 0.0
C1100 C 0.6863 0.37329 0.66932 0.0
H1101 H 0.5156 0.36742 0.6667 0.0
H1102 H 0.50809 0.32345 0.68874 0.0
H1103 H 0.57737 0.25181 0.72315 0.0
H1104 H 0.63648 0.2465 0.72792 0.0
H1105 H 0.73546 0.29977 0.70082 0.0
H1106 H 0.74317 0.34531 0.67904 0.0
H1107 H 0.67378 0.42839 0.64855 0.0
H1108 H 0.61444 0.43482 0.64414 0.0
H1109 H 0.671 0.44764 0.71048 0.0
H1110 H 0.5932 0.39877 0.7312 0.0
H1111 H 0.65416 0.27757 0.63756 0.0
H1112 H 0.58015 0.22613 0.66012 0.0
C1113 C 0.90182 0.26284 0.9271 0.0
C1114 C 0.91311 0.22739 0.92576 0.0
C1115 C 0.92583 0.21821 0.93863 0.0
C1116 C 0.92237 0.24869 0.94706 0.0
N1117 N 0.90848 0.2766 0.94023 0.0
Co1118 Co 0.90377 0.3275 0.94763 0.0
N1119 N 0.93455 0.31959 0.96294 0.0
C1120 C 0.94458 0.28668 0.96752 0.0
C1121 C 0.96507 0.28918 0.97853 0.0
C1122 C 0.96791 0.32595 0.98121 0.0
C1123 C 0.94897 0.34398 0.97159 0.0
N1124 N 0.89914 0.37858 0.95486 0.0
C1125 C 0.91688 0.39833 0.96394 0.0
C1126 C 0.90491 0.43326 0.96597 0.0
C1127 C 0.87833 0.43487 0.95832 0.0
C1128 C 0.87564 0.40115 0.95193 0.0
N1129 N 0.87277 0.33517 0.93247 0.0
C1130 C 0.85127 0.36151 0.93248 0.0
C1131 C 0.83176 0.35904 0.92107 0.0
C1132 C 0.8416 0.32925 0.91341 0.0
C1133 C 0.86691 0.31536 0.9205 0.0
N1134 N 0.87135 0.3112 0.96062 0.0
C1135 C 0.81987 0.29608 0.97755 0.0
C1136 C 0.84337 0.31885 0.98257 0.0
C1137 C 0.86896 0.32564 0.97406 0.0
C1138 C 0.82379 0.27942 0.96414 0.0
C1139 C 0.84945 0.28746 0.95586 0.0
N1140 N 0.93561 0.34373 0.93449 0.0
C1141 C 0.95005 0.38157 0.91457 0.0
C1142 C 0.9755 0.35932 0.91195 0.0
C1143 C 0.98168 0.33062 0.92151 0.0
C1144 C 0.96155 0.32344 0.93274 0.0
C1145 C 0.9305 0.37339 0.92588 0.0
H1146 H 0.96626 0.30035 0.93958 0.0
H1147 H 0.91049 0.39014 0.92726 0.0
H1148 H 0.88622 0.34376 0.97818 0.0
H1149 H 0.85102 0.27532 0.94539 0.0
C1150 C 0.93769 0.25475 0.95992 0.0
C1151 C 0.88356 0.2821 0.9161 0.0
C1152 C 0.943 0.38371 0.97206 0.0
C1153 C 0.85345 0.39119 0.94191 0.0
H1154 H 0.91295 0.21 0.91645 0.0
H1155 H 0.93804 0.19323 0.94118 0.0
H1156 H 0.97708 0.26699 0.98377 0.0
H1157 H 0.98192 0.338 0.98948 0.0
H1158 H 0.91402 0.45505 0.97255 0.0
H1159 H 0.86309 0.45809 0.95735 0.0
H1160 H 0.81326 0.37741 0.91837 0.0
H1161 H 0.83114 0.3189 0.90375 0.0
H1162 H 0.84165 0.33268 0.99277 0.0
H1163 H 0.80691 0.26074 0.95989 0.0
H1164 H 0.94479 0.40465 0.90771 0.0
H1165 H 0.00107 0.31267 0.91995 0.0
C1166 C 0.93083 0.63439 0.17604 0.0
C1167 C 0.96213 0.63977 0.17706 0.0
C1168 C 0.9665 0.67013 0.18541 0.0
C1169 C 0.93782 0.68172 0.18902 0.0
N1170 N 0.91555 0.66013 0.18375 0.0
Co1171 Co 0.87098 0.6696 0.18562 0.0
N1172 N 0.87744 0.70653 0.20097 0.0
C1173 C 0.9038 0.72348 0.20412 0.0
C1174 C 0.9015 0.74621 0.21577 0.0
C1175 C 0.87182 0.74332 0.22023 0.0
C1176 C 0.85758 0.71912 0.21092 0.0
N1177 N 0.82666 0.67924 0.18751 0.0
C1178 C 0.81113 0.69456 0.19848 0.0
C1179 C 0.78017 0.69621 0.19555 0.0
C1180 C 0.77625 0.68088 0.1823 0.0
C1181 C 0.80495 0.67096 0.1779 0.0
N1182 N 0.86402 0.63276 0.17028 0.0
C1183 C 0.83775 0.62753 0.16309 0.0
C1184 C 0.83919 0.59917 0.15349 0.0
C1185 C 0.86838 0.58627 0.15441 0.0
C1186 C 0.88334 0.60796 0.16442 0.0
N1187 N 0.86803 0.63077 0.20014 0.0
C1188 C 0.86444 0.57515 0.22088 0.0
C1189 C 0.84388 0.57628 0.20944 0.0
C1190 C 0.84583 0.60449 0.1993 0.0
C1191 C 0.88665 0.60261 0.22178 0.0
C1192 C 0.88826 0.62984 0.21126 0.0
N1193 N 0.8743 0.70863 0.17113 0.0
C1194 C 0.89739 0.73094 0.14944 0.0
C1195 C 0.88454 0.76563 0.15147 0.0
C1196 C 0.86537 0.77093 0.16329 0.0
C1197 C 0.8607 0.74213 0.17305 0.0
C1198 C 0.89179 0.70297 0.15924 0.0
H1199 H 0.8466 0.74717 0.18229 0.0
H1200 H 0.90227 0.67697 0.15724 0.0
H1201 H 0.82938 0.60492 0.19077 0.0
H1202 H 0.90602 0.65008 0.21213 0.0
C1203 C 0.93103 0.71134 0.19799 0.0
C1204 C 0.91671 0.60891 0.16577 0.0
C1205 C 0.82521 0.70906 0.21148 0.0
C1206 C 0.81145 0.64717 0.16662 0.0
H1207 H 0.98004 0.62446 0.17184 0.0
H1208 H 0.98803 0.68248 0.18835 0.0
H1209 H 0.91964 0.76128 0.22096 0.0
H1210 H 0.86211 0.75696 0.22941 0.0
H1211 H 0.76231 0.70697 0.20234 0.0
H1212 H 0.75486 0.67572 0.17692 0.0
H1213 H 0.82116 0.58898 0.14667 0.0
H1214 H 0.87809 0.56468 0.1479 0.0
H1215 H 0.82623 0.55568 0.2084 0.0
H1216 H 0.90316 0.60257 0.23039 0.0
H1217 H 0.91183 0.72538 0.1403 0.0
H1218 H 0.85483 0.79736 0.16519 0.0
C1219 C 0.60142 0.74502 0.43006 0.0
C1220 C 0.5918 0.78139 0.42997 0.0
C1221 C 0.58002 0.78864 0.44325 0.0
C1222 C 0.58211 0.75626 0.45066 0.0
N1223 N 0.59435 0.72907 0.44279 0.0
Co1224 Co 0.5954 0.67631 0.44814 0.0
N1225 N 0.56431 0.68295 0.46332 0.0
C1226 C 0.55667 0.71514 0.46939 0.0
C1227 C 0.53531 0.71139 0.48 0.0
C1228 C 0.5293 0.6745 0.48072 0.0
C1229 C 0.54751 0.65771 0.47049 0.0
N1230 N 0.59648 0.62342 0.45323 0.0
C1231 C 0.57668 0.60304 0.46104 0.0
C1232 C 0.58695 0.56715 0.46235 0.0
C1233 C 0.61432 0.5653 0.4553 0.0
C1234 C 0.61923 0.6 0.45006 0.0
N1235 N 0.62676 0.66984 0.43317 0.0
C1236 C 0.64713 0.64229 0.43258 0.0
C1237 C 0.66746 0.64617 0.42154 0.0
C1238 C 0.65927 0.67813 0.41478 0.0
C1239 C 0.63401 0.6918 0.42199 0.0
N1240 N 0.62759 0.68607 0.4622 0.0
C1241 C 0.67423 0.69755 0.48231 0.0
C1242 C 0.64951 0.67446 0.48533 0.0
C1243 C 0.62655 0.66929 0.47525 0.0
C1244 C 0.67497 0.71494 0.46893 0.0
C1245 C 0.65144 0.70889 0.45905 0.0
N1246 N 0.56337 0.66671 0.43417 0.0
C1247 C 0.54557 0.63489 0.41326 0.0
C1248 C 0.52074 0.65895 0.41217 0.0
C1249 C 0.51693 0.68575 0.42274 0.0
C1250 C 0.53838 0.68907 0.43364 0.0
C1251 C 0.56661 0.63922 0.42435 0.0
H1252 H 0.53517 0.71055 0.44139 0.0
H1253 H 0.58603 0.6211 0.42473 0.0
H1254 H 0.60805 0.65128 0.47804 0.0
H1255 H 0.65261 0.72253 0.44883 0.0
C1256 C 0.56609 0.74828 0.46323 0.0
C1257 C 0.6183 0.72638 0.41837 0.0
C1258 C 0.55014 0.61774 0.46873 0.0
C1259 C 0.64289 0.61065 0.44087 0.0
H1260 H 0.59193 0.80068 0.42123 0.0
H1261 H 0.56889 0.81368 0.44664 0.0
H1262 H 0.52474 0.73291 0.48622 0.0
H1263 H 0.51363 0.66143 0.48805 0.0
H1264 H 0.5762 0.54492 0.46813 0.0
H1265 H 0.62867 0.54137 0.45398 0.0
H1266 H 0.68535 0.62735 0.41842 0.0
H1267 H 0.67062 0.68993 0.40561 0.0
H1268 H 0.64805 0.65976 0.49536 0.0
H1269 H 0.69341 0.73331 0.46612 0.0
H1270 H 0.54939 0.61381 0.40529 0.0
H1271 H 0.49774 0.70446 0.42247 0.0
C1272 C 0.36453 0.28085 0.18482 0.0
C1273 C 0.38283 0.24993 0.18583 0.0
C1274 C 0.39759 0.25221 0.19865 0.0
C1275 C 0.38733 0.28414 0.20474 0.0
N1276 N 0.36613 0.30172 0.19682 0.0
Co1277 Co 0.34724 0.35068 0.20096 0.0
N1278 N 0.37435 0.35896 0.21801 0.0
C1279 C 0.39598 0.33562 0.22292 0.0
C1280 C 0.40863 0.34622 0.23562 0.0
C1281 C 0.39407 0.37799 0.23917 0.0
C1282 C 0.37351 0.38553 0.22826 0.0
N1283 N 0.32829 0.39963 0.20502 0.0
C1284 C 0.3336 0.42398 0.21572 0.0
C1285 C 0.3164 0.4557 0.21395 0.0
C1286 C 0.29835 0.45027 0.20228 0.0
C1287 C 0.30591 0.41603 0.19741 0.0
N1288 N 0.32054 0.34258 0.18376 0.0
C1289 C 0.29803 0.36492 0.17907 0.0
C1290 C 0.28637 0.35499 0.16607 0.0
C1291 C 0.30305 0.32525 0.16194 0.0
C1292 C 0.32388 0.31839 0.17278 0.0
N1293 N 0.31637 0.32701 0.21366 0.0
C1294 C 0.27353 0.29727 0.23298 0.0
C1295 C 0.26413 0.31937 0.22163 0.0
C1296 C 0.2858 0.33417 0.21225 0.0
C1297 C 0.30447 0.28955 0.23432 0.0
C1298 C 0.32521 0.30409 0.22453 0.0
N1299 N 0.37779 0.37373 0.1882 0.0
C1300 C 0.3866 0.4027 0.16541 0.0
C1301 C 0.41513 0.38597 0.16437 0.0
C1302 C 0.42627 0.36711 0.17628 0.0
C1303 C 0.40737 0.36166 0.18812 0.0
C1304 C 0.36866 0.39687 0.1775 0.0
H1305 H 0.41636 0.34551 0.19664 0.0
H1306 H 0.34669 0.40932 0.1775 0.0
H1307 H 0.27725 0.35164 0.20408 0.0
H1308 H 0.34828 0.2965 0.22612 0.0
C1309 C 0.40076 0.30141 0.21648 0.0
C1310 C 0.34829 0.29101 0.17176 0.0
C1311 C 0.35266 0.41718 0.22837 0.0
C1312 C 0.29245 0.39858 0.18572 0.0
H1313 H 0.38637 0.22901 0.17779 0.0
H1314 H 0.4153 0.23414 0.20257 0.0
H1315 H 0.42516 0.33144 0.24199 0.0
H1316 H 0.39754 0.3927 0.24905 0.0
H1317 H 0.31625 0.47995 0.22062 0.0
H1318 H 0.28148 0.46889 0.19797 0.0
H1319 H 0.2695 0.36947 0.15979 0.0
H1320 H 0.30105 0.31186 0.1517 0.0
H1321 H 0.24025 0.32594 0.2202 0.0
H1322 H 0.31265 0.272 0.24284 0.0
H1323 H 0.37759 0.41882 0.15665 0.0
H1324 H 0.44857 0.35436 0.17607 0.0
C1325 C 0.39315 0.57285 0.92669 0.0
C1326 C 0.3804 0.55454 0.91515 0.0
C1327 C 0.37634 0.51876 0.91936 0.0
C1328 C 0.38697 0.5171 0.93316 0.0
N1329 N 0.39732 0.54964 0.93783 0.0
Co1330 Co 0.4167 0.55922 0.95662 0.0
N1331 N 0.4259 0.50646 0.95978 0.0
C1332 C 0.41494 0.47844 0.95189 0.0
C1333 C 0.43084 0.44654 0.954 0.0
C1334 C 0.45249 0.45481 0.96404 0.0
C1335 C 0.44767 0.49099 0.96821 0.0
N1336 N 0.43523 0.56918 0.97555 0.0
C1337 C 0.45014 0.5463 0.98466 0.0
C1338 C 0.4513 0.56178 0.99827 0.0
C1339 C 0.43807 0.5957 0.99744 0.0
C1340 C 0.42861 0.59891 0.98357 0.0
N1341 N 0.40799 0.61188 0.95341 0.0
C1342 C 0.40595 0.63789 0.96351 0.0
C1343 C 0.40011 0.67209 0.95794 0.0
C1344 C 0.39839 0.66703 0.94341 0.0
C1345 C 0.40333 0.62994 0.94098 0.0
N1346 N 0.37689 0.55349 0.9659 0.0
C1347 C 0.32107 0.5531 0.9805 0.0
C1348 C 0.32433 0.57199 0.96757 0.0
C1349 C 0.3522 0.57157 0.96041 0.0
C1350 C 0.34594 0.53277 0.9856 0.0
C1351 C 0.37363 0.53332 0.97814 0.0
N1352 N 0.45592 0.56553 0.94694 0.0
C1353 C 0.49465 0.60747 0.93883 0.0
C1354 C 0.49953 0.5861 0.9265 0.0
C1355 C 0.48421 0.55238 0.92558 0.0
C1356 C 0.46314 0.54239 0.93598 0.0
C1357 C 0.4728 0.59664 0.94894 0.0
H1358 H 0.45069 0.51737 0.93433 0.0
H1359 H 0.46794 0.61471 0.95779 0.0
H1360 H 0.35395 0.5868 0.95057 0.0
H1361 H 0.3926 0.51822 0.9825 0.0
C1362 C 0.39557 0.48494 0.94025 0.0
C1363 C 0.40114 0.61204 0.927 0.0
C1364 C 0.46108 0.50876 0.98112 0.0
C1365 C 0.4146 0.6299 0.97755 0.0
H1366 H 0.37541 0.56537 0.90466 0.0
H1367 H 0.36889 0.49613 0.91274 0.0
H1368 H 0.42868 0.42111 0.94811 0.0
H1369 H 0.4702 0.43621 0.96746 0.0
H1370 H 0.45962 0.54959 0.00804 0.0
H1371 H 0.43517 0.61534 0.006 0.0
H1372 H 0.39847 0.69782 0.96367 0.0
H1373 H 0.39381 0.68805 0.93553 0.0
H1374 H 0.30552 0.58737 0.96306 0.0
H1375 H 0.34437 0.51765 0.99553 0.0
H1376 H 0.50661 0.63313 0.94041 0.0
H1377 H 0.48659 0.53461 0.91639 0.0
C1378 C 0.15773 0.71915 0.68644 0.0
C1379 C 0.14663 0.75407 0.68919 0.0
C1380 C 0.1384 0.75461 0.70335 0.0
C1381 C 0.14502 0.72012 0.70845 0.0
N1382 N 0.15706 0.69811 0.69842 0.0
Co1383 Co 0.168 0.64549 0.70083 0.0
N1384 N 0.14269 0.64048 0.71844 0.0
C1385 C 0.13227 0.66895 0.72627 0.0
C1386 C 0.11846 0.65835 0.73873 0.0
C1387 C 0.12091 0.62094 0.73901 0.0
C1388 C 0.13607 0.61054 0.72661 0.0
N1389 N 0.17828 0.59247 0.70271 0.0
C1390 C 0.16579 0.56599 0.71109 0.0
C1391 C 0.17852 0.53193 0.70804 0.0
C1392 C 0.20089 0.5377 0.69811 0.0
C1393 C 0.20023 0.57468 0.69541 0.0
N1394 N 0.19387 0.65118 0.68351 0.0
C1395 C 0.21584 0.6279 0.67919 0.0
C1396 C 0.22801 0.63733 0.6662 0.0
C1397 C 0.21256 0.66815 0.66201 0.0
C1398 C 0.19194 0.6763 0.67283 0.0
N1399 N 0.20279 0.65901 0.71304 0.0
C1400 C 0.24286 0.68486 0.73424 0.0
C1401 C 0.23038 0.64952 0.73496 0.0
C1402 C 0.2103 0.63746 0.72446 0.0
C1403 C 0.23715 0.70556 0.72185 0.0
C1404 C 0.21753 0.69182 0.71126 0.0
N1405 N 0.13322 0.63284 0.68876 0.0
C1406 C 0.11512 0.61101 0.66605 0.0
C1407 C 0.08844 0.63178 0.66757 0.0
C1408 C 0.08337 0.64996 0.68053 0.0
C1409 C 0.10591 0.64992 0.69101 0.0
C1410 C 0.13714 0.61172 0.67683 0.0
H1411 H 0.10202 0.66592 0.7005 0.0
H1412 H 0.15816 0.59722 0.67502 0.0
H1413 H 0.19991 0.61123 0.7261 0.0
H1414 H 0.21313 0.70862 0.70199 0.0
C1415 C 0.13468 0.70515 0.72132 0.0
C1416 C 0.17038 0.70737 0.67263 0.0
C1417 C 0.14738 0.57293 0.72402 0.0
C1418 C 0.21786 0.59294 0.68522 0.0
H1419 H 0.14451 0.7766 0.68172 0.0
H1420 H 0.12736 0.77684 0.70901 0.0
H1421 H 0.10824 0.67578 0.74677 0.0
H1422 H 0.11346 0.6037 0.74773 0.0
H1423 H 0.17342 0.50596 0.71312 0.0
H1424 H 0.21584 0.51736 0.69343 0.0
H1425 H 0.24412 0.62174 0.65988 0.0
H1426 H 0.21543 0.68174 0.65185 0.0
H1427 H 0.23513 0.63148 0.74388 0.0
H1428 H 0.2465 0.73285 0.72057 0.0
H1429 H 0.11989 0.59628 0.65625 0.0
H1430 H 0.06266 0.66549 0.68231 0.0
C1431 C 0.10951 0.42766 0.42748 0.0
C1432 C 0.12146 0.44572 0.4157 0.0
C1433 C 0.11974 0.48241 0.41858 0.0
C1434 C 0.10673 0.48466 0.43187 0.0
N1435 N 0.10081 0.4516 0.43783 0.0
Co1436 Co 0.07817 0.44206 0.45613 0.0
N1437 N 0.07027 0.49576 0.45916 0.0
C1438 C 0.08082 0.52375 0.45105 0.0
C1439 C 0.07233 0.55773 0.45593 0.0
C1440 C 0.0555 0.55112 0.46792 0.0
C1441 C 0.05465 0.51332 0.46968 0.0
N1442 N 0.05446 0.43223 0.47408 0.0
C1443 C 0.03943 0.45561 0.48292 0.0
C1444 C 0.02534 0.43703 0.49406 0.0
C1445 C 0.03176 0.40068 0.49224 0.0
C1446 C 0.04924 0.39908 0.48013 0.0
N1447 N 0.08661 0.38854 0.45328 0.0
C1448 C 0.08013 0.3609 0.46242 0.0
C1449 C 0.08772 0.32688 0.45724 0.0
C1450 C 0.09911 0.33314 0.44388 0.0
C1451 C 0.09765 0.37074 0.44168 0.0
N1452 N 0.11681 0.44653 0.46732 0.0
C1453 C 0.17402 0.44836 0.4812 0.0
C1454 C 0.15094 0.4249 0.4859 0.0
C1455 C 0.12278 0.42438 0.47886 0.0
C1456 C 0.16756 0.47194 0.46988 0.0
C1457 C 0.13904 0.47089 0.46329 0.0
N1458 N 0.04044 0.43716 0.44474 0.0
C1459 C 0.00226 0.3969 0.43479 0.0
C1460 C 0.99855 0.42011 0.42297 0.0
C1461 C 0.01376 0.45389 0.42318 0.0
C1462 C 0.03395 0.46207 0.43423 0.0
C1463 C 0.02311 0.40598 0.44552 0.0
H1464 H 0.04549 0.48777 0.43359 0.0
H1465 H 0.02606 0.38658 0.45398 0.0
H1466 H 0.10646 0.40546 0.48287 0.0
H1467 H 0.13583 0.48993 0.45486 0.0
C1468 C 0.09723 0.51715 0.43849 0.0
C1469 C 0.1048 0.38801 0.42804 0.0
C1470 C 0.0387 0.49553 0.48152 0.0
C1471 C 0.0622 0.36714 0.4745 0.0
H1472 H 0.12953 0.43374 0.40582 0.0
H1473 H 0.12586 0.50479 0.41154 0.0
H1474 H 0.07748 0.58416 0.45123 0.0
H1475 H 0.04493 0.57176 0.4746 0.0
H1476 H 0.01212 0.44863 0.50271 0.0
H1477 H 0.02483 0.37815 0.49904 0.0
H1478 H 0.08363 0.30049 0.4622 0.0
H1479 H 0.10639 0.31234 0.43636 0.0
H1480 H 0.15485 0.40622 0.49472 0.0
H1481 H 0.18449 0.49129 0.4661 0.0
H1482 H 0.99001 0.37118 0.43554 0.0
H1483 H 0.01165 0.47324 0.41446 0.0
C1484 C 0.35359 0.71927 0.32445 0.0
C1485 C 0.37079 0.75035 0.32142 0.0
C1486 C 0.37846 0.74848 0.30723 0.0
C1487 C 0.3663 0.71614 0.30238 0.0
N1488 N 0.35139 0.69767 0.31265 0.0
Co1489 Co 0.33554 0.64673 0.3111 0.0
N1490 N 0.36179 0.63551 0.29438 0.0
C1491 C 0.37442 0.66112 0.28583 0.0
C1492 C 0.38804 0.64666 0.27395 0.0
C1493 C 0.38332 0.60966 0.2749 0.0
C1494 C 0.36726 0.60332 0.28751 0.0
N1495 N 0.31987 0.59561 0.31 0.0
C1496 C 0.3309 0.56589 0.30289 0.0
C1497 C 0.31369 0.53492 0.30607 0.0
C1498 C 0.29022 0.54619 0.31469 0.0
C1499 C 0.29463 0.58312 0.31661 0.0
N1500 N 0.30915 0.65873 0.32758 0.0
C1501 C 0.28368 0.64084 0.33142 0.0
C1502 C 0.27066 0.6553 0.34355 0.0
C1503 C 0.28938 0.6837 0.34759 0.0
C1504 C 0.313 0.68477 0.33776 0.0
N1505 N 0.30351 0.66305 0.29783 0.0
C1506 C 0.26331 0.68827 0.27653 0.0
C1507 C 0.27549 0.65276 0.27608 0.0
C1508 C 0.29564 0.64101 0.28659 0.0
C1509 C 0.27029 0.71017 0.28847 0.0
C1510 C 0.29017 0.69688 0.29907 0.0
N1511 N 0.36745 0.63067 0.32422 0.0
C1512 C 0.38114 0.60513 0.34703 0.0
C1513 C 0.40997 0.62129 0.34608 0.0
C1514 C 0.4179 0.6398 0.33352 0.0
C1515 C 0.39644 0.6437 0.32262 0.0
C1516 C 0.36017 0.61018 0.33598 0.0
H1517 H 0.40277 0.65915 0.31327 0.0
H1518 H 0.33756 0.59928 0.33734 0.0
H1519 H 0.30544 0.61425 0.28527 0.0
H1520 H 0.29548 0.71439 0.30804 0.0
C1521 C 0.37525 0.69807 0.2899 0.0
C1522 C 0.33875 0.71068 0.33828 0.0
C1523 C 0.35447 0.56719 0.29157 0.0
C1524 C 0.27789 0.60583 0.32585 0.0
H1525 H 0.3784 0.77162 0.32857 0.0
H1526 H 0.39345 0.76693 0.3015 0.0
H1527 H 0.39987 0.66126 0.26554 0.0
H1528 H 0.38997 0.5901 0.26681 0.0
H1529 H 0.31713 0.50721 0.30226 0.0
H1530 H 0.27243 0.52926 0.31924 0.0
H1531 H 0.25122 0.64479 0.34937 0.0
H1532 H 0.28649 0.70093 0.35691 0.0
H1533 H 0.27006 0.63407 0.26746 0.0
H1534 H 0.2614 0.73777 0.28942 0.0
H1535 H 0.37424 0.59054 0.35658 0.0
H1536 H 0.4402 0.65215 0.33232 0.0
C1537 C 0.11342 0.56516 0.08376 0.0
C1538 C 0.12703 0.54705 0.09513 0.0
C1539 C 0.12344 0.51036 0.09269 0.0
C1540 C 0.108 0.50812 0.08 0.0
N1541 N 0.10223 0.54113 0.07396 0.0
Co1542 Co 0.07774 0.55043 0.0562 0.0
N1543 N 0.06945 0.49665 0.05338 0.0
C1544 C 0.08047 0.46878 0.0614 0.0
C1545 C 0.0723 0.43469 0.05653 0.0
C1546 C 0.05536 0.44108 0.04455 0.0
C1547 C 0.05412 0.47887 0.04281 0.0
N1548 N 0.05193 0.55999 0.03887 0.0
C1549 C 0.03711 0.5364 0.03003 0.0
C1550 C 0.02148 0.5549 0.01933 0.0
C1551 C 0.02683 0.5914 0.02138 0.0
C1552 C 0.04525 0.59313 0.03318 0.0
N1553 N 0.08702 0.60407 0.05866 0.0
C1554 C 0.07885 0.63148 0.04969 0.0
C1555 C 0.08685 0.66567 0.05444 0.0
C1556 C 0.10055 0.65991 0.06731 0.0
C1557 C 0.10039 0.62224 0.06968 0.0
N1558 N 0.1148 0.54535 0.04401 0.0
C1559 C 0.16798 0.53835 0.02708 0.0
C1560 C 0.14513 0.56356 0.02355 0.0
C1561 C 0.11901 0.56661 0.03208 0.0
C1562 C 0.16354 0.51664 0.03921 0.0
C1563 C 0.13709 0.52044 0.04737 0.0
N1564 N 0.04129 0.55566 0.0686 0.0
C1565 C 0.00496 0.59594 0.08002 0.0
C1566 C 0.99935 0.57004 0.09077 0.0
C1567 C 0.01324 0.53563 0.08943 0.0
C1568 C 0.03391 0.52907 0.07836 0.0
C1569 C 0.02535 0.58796 0.06898 0.0
H1570 H 0.04443 0.50269 0.07821 0.0
H1571 H 0.02887 0.60896 0.0612 0.0
H1572 H 0.10258 0.58636 0.02876 0.0
H1573 H 0.13539 0.50289 0.0564 0.0
C1574 C 0.09771 0.47563 0.07368 0.0
C1575 C 0.11085 0.60518 0.08299 0.0
C1576 C 0.03834 0.49641 0.03087 0.0
C1577 C 0.05893 0.62499 0.03836 0.0
H1578 H 0.13785 0.55915 0.10439 0.0
H1579 H 0.13054 0.48801 0.09955 0.0
H1580 H 0.07802 0.40831 0.06113 0.0
H1581 H 0.04517 0.42032 0.0378 0.0
H1582 H 0.00818 0.54316 0.01073 0.0
H1583 H 0.01901 0.61391 0.01478 0.0
H1584 H 0.08145 0.69187 0.04961 0.0
H1585 H 0.10828 0.68143 0.07437 0.0
H1586 H 0.14713 0.58071 0.01414 0.0
H1587 H 0.18064 0.49705 0.04259 0.0
H1588 H 0.99476 0.62297 0.08035 0.0
H1589 H 0.00874 0.51393 0.09705 0.0
C1590 C 0.15604 0.28252 0.82609 0.0
C1591 C 0.14333 0.24806 0.82415 0.0
C1592 C 0.13273 0.24708 0.81033 0.0
C1593 C 0.13965 0.28087 0.80463 0.0
N1594 N 0.15412 0.30272 0.81396 0.0
Co1595 Co 0.16622 0.35451 0.81077 0.0
N1596 N 0.13702 0.3604 0.79467 0.0
C1597 C 0.12431 0.33231 0.7874 0.0
C1598 C 0.10755 0.34354 0.77586 0.0
C1599 C 0.1103 0.38094 0.77562 0.0
C1600 C 0.1286 0.39074 0.78715 0.0
N1601 N 0.17815 0.40669 0.80799 0.0
C1602 C 0.16469 0.43379 0.80025 0.0
C1603 C 0.18012 0.46678 0.80208 0.0
C1604 C 0.2049 0.45953 0.81051 0.0
C1605 C 0.20301 0.42284 0.81362 0.0
N1606 N 0.1956 0.34778 0.82669 0.0
C1607 C 0.21964 0.36939 0.8296 0.0
C1608 C 0.23394 0.35984 0.84211 0.0
C1609 C 0.21766 0.33076 0.84744 0.0
C1610 C 0.1944 0.32376 0.83776 0.0
N1611 N 0.19748 0.33897 0.79694 0.0
C1612 C 0.23667 0.31342 0.77526 0.0
C1613 C 0.22187 0.34739 0.77412 0.0
C1614 C 0.2023 0.3593 0.78488 0.0
C1615 C 0.23274 0.29349 0.788 0.0
C1616 C 0.21335 0.30695 0.79876 0.0
N1617 N 0.13509 0.36945 0.82454 0.0
C1618 C 0.12403 0.3934 0.8479 0.0
C1619 C 0.09631 0.3744 0.84813 0.0
C1620 C 0.08718 0.35566 0.83579 0.0
C1621 C 0.10686 0.35363 0.82408 0.0
C1622 C 0.14288 0.39098 0.83592 0.0
H1623 H 0.10009 0.3371 0.81509 0.0
H1624 H 0.16465 0.40457 0.8363 0.0
H1625 H 0.19055 0.38471 0.78311 0.0
H1626 H 0.21049 0.29089 0.80836 0.0
C1627 C 0.12701 0.29598 0.79223 0.0
C1628 C 0.17102 0.29491 0.83928 0.0
C1629 C 0.14082 0.42815 0.78932 0.0
C1630 C 0.22212 0.40372 0.82301 0.0
H1631 H 0.14155 0.22625 0.83195 0.0
H1632 H 0.11979 0.22523 0.80538 0.0
H1633 H 0.09502 0.32656 0.76841 0.0
H1634 H 0.10089 0.39856 0.76745 0.0
H1635 H 0.17475 0.49309 0.79735 0.0
H1636 H 0.22203 0.47885 0.81407 0.0
H1637 H 0.25217 0.37442 0.84744 0.0
H1638 H 0.22187 0.31763 0.85759 0.0
H1639 H 0.22487 0.36472 0.76483 0.0
H1640 H 0.24367 0.26715 0.78951 0.0
H1641 H 0.13157 0.409 0.85709 0.0
H1642 H 0.06584 0.34076 0.83548 0.0
C1643 C 0.39629 0.43036 0.58132 0.0
C1644 C 0.37913 0.44779 0.59176 0.0
C1645 C 0.37272 0.48232 0.58667 0.0
C1646 C 0.38617 0.48398 0.57343 0.0
N1647 N 0.40056 0.45266 0.56994 0.0
Co1648 Co 0.42293 0.44309 0.55197 0.0
N1649 N 0.42751 0.4963 0.54803 0.0
C1650 C 0.41048 0.52323 0.55383 0.0
C1651 C 0.41796 0.55739 0.54873 0.0
C1652 C 0.44088 0.55152 0.53902 0.0
C1653 C 0.44616 0.51395 0.53875 0.0
N1654 N 0.44525 0.43348 0.53391 0.0
C1655 C 0.46242 0.45634 0.52577 0.0
C1656 C 0.47381 0.43807 0.5139 0.0
C1657 C 0.46275 0.40289 0.5145 0.0
C1658 C 0.44547 0.40149 0.52671 0.0
N1659 N 0.41809 0.38989 0.55594 0.0
C1660 C 0.42113 0.36253 0.5464 0.0
C1661 C 0.41848 0.32846 0.55254 0.0
C1662 C 0.41341 0.3349 0.56679 0.0
C1663 C 0.41286 0.37275 0.56855 0.0
N1664 N 0.38417 0.44282 0.54156 0.0
C1665 C 0.3271 0.44472 0.52801 0.0
C1666 C 0.33147 0.42473 0.54063 0.0
C1667 C 0.35992 0.42428 0.54722 0.0
C1668 C 0.35232 0.463 0.52211 0.0
C1669 C 0.38065 0.46158 0.52902 0.0
N1670 N 0.46109 0.44284 0.56276 0.0
C1671 C 0.50106 0.40581 0.57278 0.0
C1672 C 0.50377 0.42985 0.58445 0.0
C1673 C 0.487 0.46268 0.58404 0.0
C1674 C 0.46578 0.46858 0.57314 0.0
C1675 C 0.48006 0.41319 0.56193 0.0
H1676 H 0.45159 0.49268 0.57374 0.0
H1677 H 0.47738 0.39325 0.55352 0.0
H1678 H 0.36213 0.40914 0.55706 0.0
H1679 H 0.39954 0.47615 0.52432 0.0
C1680 C 0.39086 0.51584 0.56532 0.0
C1681 C 0.40652 0.39203 0.58207 0.0
C1682 C 0.46661 0.49579 0.52851 0.0
C1683 C 0.43314 0.36967 0.53282 0.0
H1684 H 0.37202 0.43671 0.60196 0.0
H1685 H 0.36088 0.50408 0.59225 0.0
H1686 H 0.40839 0.58353 0.5519 0.0
H1687 H 0.45195 0.57241 0.53265 0.0
H1688 H 0.48841 0.44895 0.50561 0.0
H1689 H 0.4676 0.3807 0.50715 0.0
H1690 H 0.42185 0.30207 0.54747 0.0
H1691 H 0.41107 0.31395 0.57489 0.0
H1692 H 0.31301 0.4094 0.54545 0.0
H1693 H 0.35013 0.47899 0.51242 0.0
H1694 H 0.5135 0.38018 0.57239 0.0
H1695 H 0.48915 0.48305 0.59239 0.0
H1696 H 0.15388 0.36798 0.41204 0.0
H1697 H 0.05642 0.35675 0.41483 0.0
H1698 H 0.05642 0.31645 0.39384 0.0
H1699 H 0.08449 0.28285 0.3752 0.0
H1700 H 0.18212 0.295 0.37216 0.0
H1701 H 0.18179 0.33614 0.39273 0.0
C1702 C 0.13271 0.35693 0.4079 0.0
C1703 C 0.10516 0.36538 0.4148 0.0
C1704 C 0.13296 0.33373 0.39587 0.0
C1705 C 0.07782 0.35062 0.40956 0.0
C1706 C 0.07786 0.3276 0.39761 0.0
C1707 C 0.10568 0.29487 0.37889 0.0
C1708 C 0.13331 0.28556 0.3721 0.0
C1709 C 0.10533 0.31877 0.39071 0.0
C1710 C 0.16056 0.30107 0.37726 0.0
C1711 C 0.16039 0.32484 0.389 0.0
H1712 H 0.96194 0.86054 0.60306 0.0
H1713 H 0.03885 0.89855 0.62774 0.0
H1714 H 0.00619 0.90756 0.64842 0.0
H1715 H 0.95647 0.90258 0.6599 0.0
H1716 H 0.87958 0.86179 0.63603 0.0
H1717 H 0.91136 0.85634 0.61465 0.0
C1718 C 0.97153 0.87069 0.61297 0.0
C1719 C 0.00282 0.87912 0.61376 0.0
C1720 C 0.95259 0.8755 0.62498 0.0
C1721 C 0.01479 0.89252 0.62669 0.0
C1722 C 0.99616 0.89749 0.63859 0.0
C1723 C 0.94662 0.89259 0.65001 0.0
C1724 C 0.91573 0.88255 0.64958 0.0
C1725 C 0.96512 0.88888 0.63788 0.0
C1726 C 0.90322 0.87015 0.63661 0.0
C1727 C 0.92146 0.8667 0.62441 0.0
H1728 H 0.35457 0.62766 0.90874 0.0
H1729 H 0.44975 0.64852 0.91625 0.0
H1730 H 0.45169 0.68859 0.89519 0.0
H1731 H 0.42563 0.71903 0.87508 0.0
H1732 H 0.33068 0.69561 0.86711 0.0
H1733 H 0.32933 0.65518 0.88784 0.0
C1734 C 0.37583 0.64044 0.90556 0.0
C1735 C 0.40218 0.63466 0.91378 0.0
C1736 C 0.37671 0.6632 0.89343 0.0
C1737 C 0.42936 0.65231 0.9099 0.0
C1738 C 0.43041 0.67521 0.89791 0.0
C1739 C 0.40475 0.70465 0.87771 0.0
C1740 C 0.37823 0.71078 0.86952 0.0
C1741 C 0.40417 0.68098 0.8896 0.0
C1742 C 0.3513 0.69217 0.87331 0.0
C1743 C 0.35052 0.66879 0.88514 0.0
H1744 H 0.52223 0.09241 0.10733 0.0
H1745 H 0.50243 0.20735 0.11379 0.0
H1746 H 0.53538 0.20822 0.13467 0.0
H1747 H 0.56867 0.1763 0.15159 0.0
H1748 H 0.58728 0.06092 0.14597 0.0
H1749 H 0.55618 0.0604 0.12425 0.0
C1750 C 0.52513 0.11766 0.1133 0.0
C1751 C 0.50979 0.14976 0.10891 0.0
C1752 C 0.54395 0.11794 0.12548 0.0
C1753 C 0.51426 0.18235 0.1167 0.0
C1754 C 0.533 0.18286 0.12874 0.0
C1755 C 0.5657 0.1509 0.1457 0.0
C1756 C 0.57998 0.11856 0.15053 0.0
C1757 C 0.5477 0.15077 0.13331 0.0
C1758 C 0.57658 0.08619 0.14251 0.0
C1759 C 0.55872 0.08586 0.13011 0.0
H1760 H 0.14687 0.72302 0.1297 0.0
H1761 H 0.07799 0.66408 0.1535 0.0
H1762 H 0.07072 0.62261 0.13352 0.0
H1763 H 0.0822 0.60398 0.10874 0.0
H1764 H 0.15538 0.65722 0.08618 0.0
H1765 H 0.16316 0.69917 0.10633 0.0
C1766 C 0.13068 0.70076 0.13077 0.0
C1767 C 0.11248 0.69789 0.14318 0.0
C1768 C 0.12727 0.67576 0.11936 0.0
C1769 C 0.09158 0.6685 0.14402 0.0
C1770 C 0.08757 0.64423 0.1326 0.0
C1771 C 0.10003 0.62457 0.10834 0.0
C1772 C 0.11761 0.62827 0.09585 0.0
C1773 C 0.10492 0.64792 0.12012 0.0
C1774 C 0.14104 0.65454 0.09555 0.0
C1775 C 0.14553 0.67843 0.10708 0.0
H1776 H 0.53058 0.86002 0.40761 0.0
H1777 H 0.4482 0.88288 0.38397 0.0
H1778 H 0.47799 0.8944 0.36251 0.0
H1779 H 0.52702 0.89518 0.35008 0.0
H1780 H 0.60908 0.86755 0.37313 0.0
H1781 H 0.57985 0.8609 0.39513 0.0
C1782 C 0.51909 0.86732 0.39775 0.0
C1783 C 0.48712 0.87066 0.39749 0.0
C1784 C 0.53632 0.87316 0.38531 0.0
C1785 C 0.47277 0.88074 0.38463 0.0
C1786 C 0.48978 0.88707 0.37228 0.0
C1787 C 0.53855 0.88768 0.3599 0.0
C1788 C 0.57024 0.88187 0.35989 0.0
C1789 C 0.52151 0.88301 0.37246 0.0
C1790 C 0.5848 0.87277 0.37281 0.0
C1791 C 0.56805 0.86861 0.3854 0.0
H1792 H 0.41535 0.32687 0.6445 0.0
H1793 H 0.34926 0.25138 0.6268 0.0
H1794 H 0.34946 0.28528 0.60452 0.0
H1795 H 0.36917 0.33541 0.58957 0.0
H1796 H 0.43985 0.40581 0.60589 0.0
H1797 H 0.43737 0.37459 0.62909 0.0
C1798 C 0.40126 0.31722 0.63578 0.0
C1799 C 0.38212 0.28638 0.63765 0.0
C1800 C 0.40247 0.3359 0.62261 0.0
C1801 C 0.36364 0.27541 0.62608 0.0
C1802 C 0.36399 0.29457 0.61316 0.0
C1803 C 0.38446 0.34334 0.59813 0.0
C1804 C 0.40523 0.37216 0.59596 0.0
C1805 C 0.38345 0.32463 0.61125 0.0
C1806 C 0.42401 0.38329 0.6073 0.0
C1807 C 0.42255 0.36547 0.62054 0.0
H1808 H 0.01976 0.11455 0.88762 0.0
H1809 H 0.95315 0.16564 0.91503 0.0
H1810 H 0.91484 0.16092 0.89612 0.0
H1811 H 0.90104 0.14428 0.87143 0.0
H1812 H 0.96734 0.08992 0.84471 0.0
H1813 H 0.00485 0.0932 0.86388 0.0
C1814 C 0.99674 0.12407 0.88961 0.0
C1815 C 0.98946 0.14084 0.90273 0.0
C1816 C 0.97476 0.1206 0.8788 0.0
C1817 C 0.95957 0.15353 0.90493 0.0
C1818 C 0.93759 0.1505 0.89416 0.0
C1819 C 0.92349 0.13245 0.8699 0.0
C1820 C 0.93139 0.11705 0.85659 0.0
C1821 C 0.94501 0.13436 0.881 0.0
C1822 C 0.96077 0.10239 0.85475 0.0
C1823 C 0.98224 0.10418 0.86572 0.0
H1824 H 0.88004 0.68291 0.62146 0.0
H1825 H 0.85435 0.78256 0.59972 0.0
H1826 H 0.8453 0.81265 0.62267 0.0
H1827 H 0.8437 0.8102 0.64908 0.0
H1828 H 0.85132 0.70473 0.66962 0.0
H1829 H 0.86824 0.67718 0.64719 0.0
C1830 C 0.8722 0.71114 0.62171 0.0
C1831 C 0.86939 0.7309 0.60881 0.0
C1832 C 0.86398 0.72719 0.63487 0.0
C1833 C 0.85842 0.76719 0.60944 0.0
C1834 C 0.85277 0.7843 0.62258 0.0
C1835 C 0.849 0.78114 0.64865 0.0
C1836 C 0.84836 0.76018 0.66133 0.0
C1837 C 0.85551 0.76456 0.63539 0.0
C1838 C 0.85407 0.72226 0.66038 0.0
C1839 C 0.86306 0.70626 0.64744 0.0
H1840 H 0.09417 0.1489 0.37572 0.0
H1841 H 0.04064 0.07456 0.35025 0.0
H1842 H 0.01164 0.05612 0.37145 0.0
H1843 H 0.00096 0.0622 0.39705 0.0
H1844 H 0.05665 0.13381 0.42293 0.0
H1845 H 0.08518 0.15248 0.40176 0.0
C1846 C 0.07612 0.12868 0.37489 0.0
C1847 C 0.06903 0.11355 0.36147 0.0
C1848 C 0.05997 0.11779 0.38716 0.0
C1849 C 0.04598 0.087 0.36046 0.0
C1850 C 0.02956 0.07638 0.37257 0.0
C1851 C 0.01969 0.08137 0.39817 0.0
C1852 C 0.02649 0.09651 0.41167 0.0
C1853 C 0.03631 0.09166 0.38597 0.0
C1854 C 0.05049 0.12201 0.41272 0.0
C1855 C 0.06698 0.1326 0.4006 0.0
H1856 H 0.67194 0.28419 0.10968 0.0
H1857 H 0.5746 0.27307 0.11409 0.0
H1858 H 0.58156 0.2445 0.13757 0.0
H1859 H 0.61576 0.22016 0.15642 0.0
H1860 H 0.71156 0.24523 0.15422 0.0
H1861 H 0.70481 0.27171 0.13046 0.0
C1862 C 0.65209 0.27722 0.116 0.0
C1863 C 0.62272 0.28163 0.1102 0.0
C1864 C 0.65611 0.26249 0.12978 0.0
C1865 C 0.59745 0.27027 0.11834 0.0
C1866 C 0.6014 0.2538 0.13173 0.0
C1867 C 0.63509 0.23161 0.15074 0.0
C1868 C 0.66451 0.2283 0.15663 0.0
C1869 C 0.63068 0.24933 0.1375 0.0
C1870 C 0.68908 0.24484 0.14946 0.0
C1871 C 0.68515 0.2606 0.13597 0.0
H1872 H 0.49176 0.87493 0.90891 0.0
H1873 H 0.47106 0.99057 0.9061 0.0
H1874 H 0.44346 0.9802 0.88384 0.0
H1875 H 0.42709 0.93864 0.86451 0.0
H1876 H 0.44511 0.82278 0.86801 0.0
H1877 H 0.47198 0.8328 0.89063 0.0
C1878 C 0.48065 0.8978 0.90363 0.0
C1879 C 0.4837 0.93354 0.9092 0.0
C1880 C 0.46458 0.89162 0.89086 0.0
C1881 C 0.46956 0.96286 0.90198 0.0
C1882 C 0.45367 0.95696 0.88925 0.0
C1883 C 0.43651 0.91562 0.87039 0.0
C1884 C 0.434 0.88003 0.86475 0.0
C1885 C 0.45139 0.92155 0.88349 0.0
C1886 C 0.44676 0.85039 0.87225 0.0
C1887 C 0.46203 0.85612 0.88516 0.0
H1888 H 0.88622 0.31467 0.88986 0.0
H1889 H 0.86207 0.21254 0.91015 0.0
H1890 H 0.8531 0.18447 0.88688 0.0
H1891 H 0.85059 0.1893 0.86062 0.0
H1892 H 0.85914 0.29603 0.8412 0.0
H1893 H 0.87545 0.32205 0.86403 0.0
C1894 C 0.87907 0.28623 0.88917 0.0
C1895 C 0.87689 0.26511 0.90176 0.0
C1896 C 0.87105 0.27116 0.8758 0.0
C1897 C 0.86621 0.22878 0.90067 0.0
C1898 C 0.86041 0.21286 0.88734 0.0
C1899 C 0.85601 0.21829 0.86139 0.0
C1900 C 0.85538 0.24019 0.84897 0.0
C1901 C 0.86277 0.23377 0.87481 0.0
C1902 C 0.86142 0.27795 0.85031 0.0
C1903 C 0.8702 0.29303 0.86346 0.0
H1904 H 0.4211 0.15586 0.63556 0.0
H1905 H 0.47761 0.08353 0.66051 0.0
H1906 H 0.50398 0.06323 0.63882 0.0
H1907 H 0.5112 0.06667 0.61289 0.0
H1908 H 0.45188 0.13547 0.58761 0.0
H1909 H 0.42654 0.15673 0.60928 0.0
C1910 C 0.43922 0.13566 0.63617 0.0
C1911 C 0.44787 0.1216 0.64957 0.0
C1912 C 0.45372 0.12352 0.62363 0.0
C1913 C 0.47105 0.09514 0.65031 0.0
C1914 C 0.48596 0.08344 0.63792 0.0
C1915 C 0.49236 0.08578 0.61202 0.0
C1916 C 0.4836 0.09934 0.59851 0.0
C1917 C 0.47747 0.09743 0.62452 0.0
C1918 C 0.45954 0.12484 0.59779 0.0
C1919 C 0.44487 0.13692 0.6102 0.0
H1920 H 0.64675 0.81852 0.36196 0.0
H1921 H 0.64231 0.71018 0.34363 0.0
H1922 H 0.62678 0.68485 0.36667 0.0
H1923 H 0.61516 0.69335 0.39229 0.0
H1924 H 0.63837 0.79676 0.41182 0.0
H1925 H 0.64535 0.82434 0.38834 0.0
C1926 C 0.64242 0.78933 0.36301 0.0
C1927 C 0.64356 0.76674 0.35077 0.0
C1928 C 0.63644 0.77427 0.37662 0.0
C1929 C 0.63925 0.72875 0.35254 0.0
C1930 C 0.63094 0.71409 0.36581 0.0
C1931 C 0.62167 0.72199 0.39143 0.0
C1932 C 0.62373 0.74358 0.40391 0.0
C1933 C 0.62925 0.73665 0.37793 0.0
C1934 C 0.63363 0.78019 0.4025 0.0
C1935 C 0.63857 0.79579 0.38901 0.0
H1936 H 0.06834 0.93579 0.15001 0.0
H1937 H 0.04443 0.82208 0.14434 0.0
H1938 H 0.0184 0.83688 0.1219 0.0
H1939 H 0.00277 0.88219 0.10392 0.0
H1940 H 0.02982 0.99545 0.10874 0.0
H1941 H 0.05462 0.98079 0.13138 0.0
C1942 C 0.0576 0.91433 0.14376 0.0
C1943 C 0.05843 0.8779 0.14868 0.0
C1944 C 0.04347 0.92292 0.1307 0.0
C1945 C 0.04407 0.85029 0.14068 0.0
C1946 C 0.02935 0.85873 0.12785 0.0
C1947 C 0.01459 0.9036 0.10975 0.0
C1948 C 0.01443 0.93991 0.10455 0.0
C1949 C 0.02911 0.89492 0.1227 0.0
C1950 C 0.02927 0.96736 0.11251 0.0
C1951 C 0.04354 0.95899 0.12546 0.0
H1952 H 0.6578 0.79479 0.87597 0.0
H1953 H 0.56194 0.77087 0.87132 0.0
H1954 H 0.54994 0.81366 0.89049 0.0
H1955 H 0.56655 0.85722 0.90912 0.0
H1956 H 0.6623 0.87813 0.91489 0.0
H1957 H 0.67446 0.8372 0.89492 0.0
C1958 C 0.6343 0.79866 0.8792 0.0
C1959 C 0.61088 0.77971 0.872 0.0
C1960 C 0.62748 0.823 0.89046 0.0
C1961 C 0.58051 0.78554 0.87636 0.0
C1962 C 0.57356 0.80987 0.88744 0.0
C1963 C 0.59001 0.85298 0.90585 0.0
C1964 C 0.61346 0.87136 0.91314 0.0
C1965 C 0.59683 0.82877 0.89457 0.0
C1966 C 0.64386 0.86508 0.90912 0.0
C1967 C 0.6508 0.84144 0.8978 0.0
H1968 H 0.46619 0.36341 0.10199 0.0
H1969 H 0.55021 0.393 0.12293 0.0
H1970 H 0.52291 0.40252 0.14538 0.0
H1971 H 0.4754 0.39938 0.1594 0.0
H1972 H 0.39164 0.36902 0.13841 0.0
H1973 H 0.41853 0.36265 0.11572 0.0
C1974 C 0.47849 0.37202 0.11147 0.0
C1975 C 0.51017 0.37748 0.11078 0.0
C1976 C 0.46269 0.37718 0.12436 0.0
C1977 C 0.52575 0.38907 0.12311 0.0
C1978 C 0.5102 0.39423 0.13599 0.0
C1979 C 0.46309 0.39161 0.14982 0.0
C1980 C 0.43159 0.38495 0.15055 0.0
C1981 C 0.47872 0.38795 0.13678 0.0
C1982 C 0.41583 0.37494 0.13806 0.0
C1983 C 0.43121 0.37104 0.1251 0.0
H1984 H 0.93464 0.15941 0.41355 0.0
H1985 H 0.84133 0.12306 0.41394 0.0
H1986 H 0.8304 0.16058 0.39278 0.0
H1987 H 0.84754 0.20396 0.37418 0.0
H1988 H 0.94064 0.24229 0.37464 0.0
H1989 H 0.95151 0.20367 0.39525 0.0
C1990 C 0.91197 0.15974 0.40893 0.0
C1991 C 0.88887 0.13828 0.41512 0.0
C1992 C 0.90584 0.18168 0.39688 0.0
C1993 C 0.8595 0.13905 0.40919 0.0
C1994 C 0.85326 0.16059 0.39714 0.0
C1995 C 0.87015 0.20414 0.37883 0.0
C1996 C 0.89324 0.22595 0.37267 0.0
C1997 C 0.87625 0.18211 0.3909 0.0
C1998 C 0.9225 0.22533 0.37887 0.0
C1999 C 0.92874 0.20341 0.39077 0.0
H2000 H 0.06738 0.58039 0.64873 0.0
H2001 H 0.06283 0.69587 0.65878 0.0
H2002 H 0.02979 0.70635 0.63827 0.0
H2003 H 0.00184 0.68288 0.61757 0.0
H2004 H 0.00554 0.56752 0.60741 0.0
H2005 H 0.03929 0.55681 0.62782 0.0
C2006 C 0.05918 0.60782 0.64639 0.0
C2007 C 0.06741 0.63723 0.65533 0.0
C2008 C 0.04009 0.6137 0.63455 0.0
C2009 C 0.05644 0.67262 0.65222 0.0
C2010 C 0.03771 0.67872 0.64043 0.0
C2011 C 0.01034 0.65547 0.61973 0.0
C2012 C 0.00139 0.62608 0.61097 0.0
C2013 C 0.02939 0.64949 0.63153 0.0
C2014 C 0.01205 0.59056 0.61406 0.0
C2015 C 0.03136 0.58445 0.6257 0.0
H2016 H 0.56863 0.15035 0.59557 0.0
H2017 H 0.66496 0.13495 0.58938 0.0
H2018 H 0.67581 0.17442 0.61002 0.0
H2019 H 0.65766 0.21343 0.62985 0.0
H2020 H 0.56098 0.22882 0.63585 0.0
H2021 H 0.55048 0.18907 0.61548 0.0
C2022 C 0.59194 0.15569 0.59883 0.0
C2023 C 0.61603 0.13987 0.59111 0.0
C2024 C 0.59791 0.17831 0.6107 0.0
C2025 C 0.64617 0.14685 0.59529 0.0
C2026 C 0.65232 0.1694 0.60705 0.0
C2027 C 0.6343 0.20829 0.62665 0.0
C2028 C 0.61019 0.2241 0.63447 0.0
C2029 C 0.62836 0.18538 0.61483 0.0
C2030 C 0.58003 0.21667 0.63022 0.0
C2031 C 0.57396 0.19408 0.61848 0.0
H2032 H 0.035 0.38262 0.85107 0.0
H2033 H 0.1168 0.35986 0.87501 0.0
H2034 H 0.08695 0.35364 0.89692 0.0
H2035 H 0.03744 0.3544 0.90927 0.0
H2036 H 0.95555 0.37552 0.88508 0.0
H2037 H 0.98557 0.38304 0.86338 0.0
C2038 C 0.04624 0.37633 0.8611 0.0
C2039 C 0.07805 0.37206 0.86145 0.0
C2040 C 0.02894 0.3727 0.87364 0.0
C2041 C 0.09238 0.36401 0.87452 0.0
C2042 C 0.07531 0.3602 0.88703 0.0
C2043 C 0.02615 0.3605 0.89925 0.0
C2044 C 0.99427 0.36467 0.89888 0.0
C2045 C 0.04355 0.36448 0.88673 0.0
C2046 C 0.98009 0.3729 0.88578 0.0
C2047 C 0.99721 0.37692 0.87331 0.0
H2048 H 0.93688 0.87502 0.10506 0.0
H2049 H 0.84118 0.89493 0.09858 0.0
H2050 H 0.82866 0.85456 0.11867 0.0
H2051 H 0.84492 0.81018 0.13714 0.0
H2052 H 0.94063 0.78776 0.14266 0.0
H2053 H 0.95325 0.83244 0.12409 0.0
C2054 C 0.91336 0.87082 0.10824 0.0
C2055 C 0.88999 0.88842 0.10061 0.0
C2056 C 0.90636 0.84689 0.11959 0.0
C2057 C 0.85953 0.88229 0.10455 0.0
C2058 C 0.85239 0.85902 0.11596 0.0
C2059 C 0.86851 0.81556 0.1344 0.0
C2060 C 0.89179 0.79566 0.14124 0.0
C2061 C 0.87558 0.84078 0.12346 0.0
C2062 C 0.9223 0.80257 0.13747 0.0
C2063 C 0.92954 0.82809 0.12685 0.0
H2064 H 0.49477 0.59855 0.39995 0.0
H2065 H 0.49993 0.71649 0.39643 0.0
H2066 H 0.46638 0.71506 0.37566 0.0
H2067 H 0.436 0.68041 0.35831 0.0
H2068 H 0.4294 0.56278 0.36192 0.0
H2069 H 0.46324 0.56382 0.38278 0.0
C2070 C 0.48863 0.62386 0.39457 0.0
C2071 C 0.49982 0.65755 0.39972 0.0
C2072 C 0.46923 0.62287 0.38263 0.0
C2073 C 0.49135 0.69023 0.39278 0.0
C2074 C 0.47233 0.68944 0.38085 0.0
C2075 C 0.44226 0.65501 0.36361 0.0
C2076 C 0.43071 0.62151 0.35853 0.0
C2077 C 0.46125 0.65594 0.37565 0.0
C2078 C 0.43823 0.58883 0.36565 0.0
C2079 C 0.45754 0.58945 0.37754 0.0
H2080 H 0.41163 0.23237 0.11499 0.0
H2081 H 0.32033 0.19403 0.10706 0.0
H2082 H 0.30363 0.21843 0.13007 0.0
H2083 H 0.31514 0.24963 0.15282 0.0
H2084 H 0.4042 0.29638 0.15932 0.0
H2085 H 0.42176 0.26966 0.13672 0.0
C2086 C 0.38811 0.22939 0.11835 0.0
C2087 C 0.3676 0.20983 0.10962 0.0
C2088 C 0.37829 0.24506 0.13137 0.0
C2089 C 0.33693 0.20735 0.11387 0.0
C2090 C 0.32728 0.22164 0.12698 0.0
C2091 C 0.33819 0.25465 0.14913 0.0
C2092 C 0.35821 0.2754 0.15766 0.0
C2093 C 0.34778 0.24033 0.13588 0.0
C2094 C 0.38832 0.28059 0.15293 0.0
C2095 C 0.39835 0.26537 0.14 0.0
H2096 H 0.53233 0.54556 0.90712 0.0
H2097 H 0.50879 0.65758 0.91762 0.0
H2098 H 0.53517 0.67893 0.89629 0.0
H2099 H 0.56346 0.66564 0.87388 0.0
H2100 H 0.58065 0.55314 0.86224 0.0
H2101 H 0.55696 0.53207 0.88442 0.0
C2102 C 0.53236 0.57465 0.90474 0.0
C2103 C 0.51821 0.59966 0.91415 0.0
C2104 C 0.5462 0.58671 0.89206 0.0
C2105 C 0.51978 0.63741 0.91088 0.0
C2106 C 0.53456 0.64975 0.89851 0.0
C2107 C 0.56181 0.63656 0.87625 0.0
C2108 C 0.57429 0.6109 0.86669 0.0
C2109 C 0.54756 0.62462 0.88893 0.0
C2110 C 0.57167 0.57328 0.86965 0.0
C2111 C 0.55818 0.56128 0.88231 0.0
H2112 H 0.11733 0.72123 0.65826 0.0
H2113 H 0.21315 0.74659 0.65781 0.0
H2114 H 0.20743 0.77807 0.63489 0.0
H2115 H 0.17574 0.79493 0.61416 0.0
H2116 H 0.07868 0.7779 0.61596 0.0
H2117 H 0.08425 0.74594 0.63887 0.0
C2118 C 0.13684 0.73394 0.65316 0.0
C2119 C 0.16589 0.73018 0.65943 0.0
C2120 C 0.13314 0.75324 0.64015 0.0
C2121 C 0.19081 0.74773 0.65292 0.0
C2122 C 0.1875 0.76593 0.63984 0.0
C2123 C 0.15562 0.78558 0.6198 0.0
C2124 C 0.12669 0.78977 0.61346 0.0
C2125 C 0.15887 0.76841 0.63323 0.0
C2126 C 0.10117 0.77545 0.62065 0.0
C2127 C 0.10434 0.75714 0.63376 0.0
H2128 H 0.96471 0.46272 0.40473 0.0
H2129 H 0.99324 0.35066 0.4119 0.0
H2130 H 0.96748 0.33163 0.3901 0.0
H2131 H 0.93836 0.347 0.36837 0.0
H2132 H 0.91409 0.45953 0.3601 0.0
H2133 H 0.93747 0.47841 0.38272 0.0
C2134 C 0.96563 0.43416 0.40152 0.0
C2135 C 0.98091 0.40828 0.41012 0.0
C2136 C 0.95175 0.42352 0.38865 0.0
C2137 C 0.98114 0.37124 0.40578 0.0
C2138 C 0.96672 0.3603 0.39318 0.0
C2139 C 0.93834 0.37562 0.37158 0.0
C2140 C 0.92432 0.40189 0.3628 0.0
C2141 C 0.9522 0.38623 0.38446 0.0
C2142 C 0.92451 0.43893 0.36687 0.0
C2143 C 0.93784 0.44965 0.37976 0.0
H2144 H 0.34813 0.67846 0.36418 0.0
H2145 H 0.34334 0.78506 0.34441 0.0
H2146 H 0.36007 0.81391 0.36655 0.0
H2147 H 0.37504 0.80909 0.39203 0.0
H2148 H 0.36185 0.70551 0.41338 0.0
H2149 H 0.35323 0.67534 0.39049 0.0
C2150 C 0.35083 0.70803 0.3647 0.0
C2151 C 0.347 0.72913 0.35218 0.0
C2152 C 0.35736 0.72495 0.37793 0.0
C2153 C 0.34912 0.76758 0.35333 0.0
C2154 C 0.35783 0.7843 0.36619 0.0
C2155 C 0.37032 0.77988 0.39168 0.0
C2156 C 0.37151 0.75922 0.40443 0.0
C2157 C 0.36223 0.76323 0.37857 0.0
C2158 C 0.3638 0.72172 0.40374 0.0
C2159 C 0.35809 0.7045 0.39062 0.0
H2160 H 0.00581 0.54616 0.11845 0.0
H2161 H 0.94909 0.61499 0.09182 0.0
H2162 H 0.9201 0.63399 0.11267 0.0
H2163 H 0.91096 0.63188 0.13842 0.0
H2164 H 0.96331 0.55859 0.16491 0.0
H2165 H 0.99382 0.54019 0.14408 0.0
C2166 C 0.98676 0.56475 0.11709 0.0
C2167 C 0.98006 0.57931 0.10345 0.0
C2168 C 0.96946 0.57488 0.12912 0.0
C2169 C 0.95548 0.60391 0.10212 0.0
C2170 C 0.93863 0.61465 0.11405 0.0
C2171 C 0.9289 0.61164 0.13962 0.0
C2172 C 0.93504 0.59667 0.15317 0.0
C2173 C 0.94555 0.60052 0.12759 0.0
C2174 C 0.95836 0.57057 0.15458 0.0
C2175 C 0.97568 0.56005 0.14268 0.0
H2176 H 0.11821 0.28893 0.85452 0.0
H2177 H 0.21197 0.25396 0.85458 0.0
H2178 H 0.20487 0.2247 0.87785 0.0
H2179 H 0.17248 0.21099 0.8987 0.0
H2180 H 0.077 0.23822 0.89738 0.0
H2181 H 0.0843 0.26941 0.87441 0.0
C2182 C 0.137 0.27477 0.85965 0.0
C2183 C 0.16595 0.27497 0.8531 0.0
C2184 C 0.13241 0.25673 0.87285 0.0
C2185 C 0.18987 0.25567 0.85968 0.0
C2186 C 0.18573 0.23861 0.87294 0.0
C2187 C 0.15301 0.22247 0.89316 0.0
C2188 C 0.124 0.22119 0.89961 0.0
C2189 C 0.15718 0.23918 0.8797 0.0
C2190 C 0.09946 0.23826 0.89257 0.0
C2191 C 0.10363 0.25611 0.87943 0.0
H2192 H 0.49223 0.44689 0.61246 0.0
H2193 H 0.55661 0.3889 0.58575 0.0
H2194 H 0.58362 0.36772 0.60692 0.0
H2195 H 0.58918 0.36547 0.63312 0.0
H2196 H 0.52924 0.43008 0.6595 0.0
H2197 H 0.50038 0.44907 0.63835 0.0
C2198 C 0.51255 0.43034 0.61114 0.0
C2199 C 0.52205 0.41952 0.59735 0.0
C2200 C 0.52865 0.41909 0.62337 0.0
C2201 C 0.54815 0.39721 0.59612 0.0
C2202 C 0.56383 0.3852 0.60826 0.0
C2203 C 0.56976 0.3837 0.63418 0.0
C2204 C 0.56076 0.39557 0.64785 0.0
C2205 C 0.55419 0.39578 0.62193 0.0
C2206 C 0.53597 0.41971 0.64912 0.0
C2207 C 0.51969 0.43083 0.63703 0.0
H2208 H 0.27377 0.30618 0.26169 0.0
H2209 H 0.22405 0.25435 0.22752 0.0
H2210 H 0.18976 0.22547 0.2449 0.0
H2211 H 0.17538 0.21301 0.26999 0.0
H2212 H 0.2229 0.26846 0.30398 0.0
H2213 H 0.25675 0.29784 0.28658 0.0
C2214 C 0.2553 0.28868 0.25809 0.0
C2215 C 0.25146 0.28209 0.2434 0.0
C2216 C 0.23548 0.27272 0.26812 0.0
C2217 C 0.22731 0.25978 0.2388 0.0
C2218 C 0.20783 0.2432 0.24872 0.0
C2219 C 0.19301 0.2318 0.27352 0.0
C2220 C 0.19703 0.23828 0.28821 0.0
C2221 C 0.21189 0.24918 0.26342 0.0
C2222 C 0.21974 0.26282 0.29271 0.0
C2223 C 0.23901 0.2796 0.28278 0.0
H2224 H 0.00341 0.93904 0.5423 0.0
H2225 H 0.07685 0.9018 0.51549 0.0
H2226 H 0.05503 0.93456 0.49502 0.0
H2227 H 0.01506 0.9745 0.48473 0.0
H2228 H 0.94134 0.01162 0.5114 0.0
H2229 H 0.96295 0.97857 0.53187 0.0
C2230 C 0.01445 0.93814 0.53194 0.0
C2231 C 0.04159 0.91803 0.53032 0.0
C2232 C 0.00169 0.95711 0.52021 0.0
C2233 C 0.05587 0.91706 0.5169 0.0
C2234 C 0.04341 0.9358 0.50523 0.0
C2235 C 0.00376 0.97514 0.49503 0.0
C2236 C 0.97665 0.99538 0.49659 0.0
C2237 C 0.01634 0.95598 0.50673 0.0
C2238 C 0.96223 0.9962 0.50998 0.0
C2239 C 0.97459 0.97731 0.52167 0.0
H2240 H 0.29077 0.7341 0.73447 0.0
H2241 H 0.23249 0.67143 0.76261 0.0
H2242 H 0.25972 0.69472 0.7832 0.0
H2243 H 0.29948 0.73372 0.7936 0.0
H2244 H 0.35438 0.80156 0.76614 0.0
H2245 H 0.32911 0.77572 0.74502 0.0
C2246 C 0.28379 0.72571 0.74508 0.0
C2247 C 0.25984 0.70024 0.74677 0.0
C2248 C 0.29897 0.74025 0.75709 0.0
C2249 C 0.25143 0.68984 0.76075 0.0
C2250 C 0.26679 0.7035 0.77265 0.0
C2251 C 0.30573 0.74289 0.78297 0.0
C2252 C 0.32858 0.7695 0.78137 0.0
C2253 C 0.29056 0.72869 0.77097 0.0
C2254 C 0.33678 0.78104 0.76757 0.0
C2255 C 0.32229 0.76635 0.75553 0.0
H2256 H 0.43847 0.08119 0.01456 0.0
H2257 H 0.51701 0.10937 0.03982 0.0
H2258 H 0.55043 0.07874 0.02246 0.0
H2259 H 0.55693 0.0414 1.00051 0.0
H2260 H 0.47813 0.01198 0.97565 0.0
H2261 H 0.44505 0.04527 0.99236 0.0
C2262 C 0.46293 0.08054 0.0162 0.0
C2263 C 0.47537 0.09701 0.0285 0.0
C2264 C 0.48184 0.06259 0.00625 0.0
C2265 C 0.50704 0.09656 0.03048 0.0
C2266 C 0.52607 0.07904 0.02057 0.0
C2267 C 0.53254 0.04279 0.99872 0.0
C2268 C 0.51986 0.02478 0.98682 0.0
C2269 C 0.51372 0.06164 0.00848 0.0
C2270 C 0.48826 0.02604 0.98467 0.0
C2271 C 0.46942 0.04495 0.99424 0.0
H2272 H 0.2142 0.73582 0.27677 0.0
H2273 H 0.27134 0.67296 0.24819 0.0
H2274 H 0.24083 0.69231 0.22797 0.0
H2275 H 0.19848 0.7278 0.21801 0.0
H2276 H 0.14447 0.79629 0.24563 0.0
H2277 H 0.17284 0.77396 0.26652 0.0
C2278 C 0.22018 0.72659 0.26612 0.0
C2279 C 0.24483 0.70219 0.26421 0.0
C2280 C 0.20294 0.73875 0.2543 0.0
C2281 C 0.252 0.69065 0.25022 0.0
C2282 C 0.23468 0.70197 0.23854 0.0
C2283 C 0.19302 0.73782 0.22863 0.0
C2284 C 0.16964 0.76373 0.23032 0.0
C2285 C 0.21011 0.72592 0.24044 0.0
C2286 C 0.16247 0.77631 0.24411 0.0
C2287 C 0.17878 0.76369 0.25601 0.0
H2288 H 0.4357 0.91173 0.49544 0.0
H2289 H 0.49787 0.92564 0.46031 0.0
H2290 H 0.53054 0.965 0.47513 0.0
H2291 H 0.54215 0.99406 0.49849 0.0
H2292 H 0.48032 0.97898 0.53371 0.0
H2293 H 0.44679 0.94161 0.51861 0.0
C2294 C 0.45626 0.92381 0.49105 0.0
C2295 C 0.46433 0.9163 0.4768 0.0
C2296 C 0.47503 0.946 0.49971 0.0
C2297 C 0.49117 0.93147 0.47122 0.0
C2298 C 0.50985 0.95381 0.4797 0.0
C2299 C 0.52122 0.98268 0.50277 0.0
C2300 C 0.51357 0.98924 0.51716 0.0
C2301 C 0.50214 0.96108 0.49401 0.0
C2302 C 0.48655 0.97426 0.52266 0.0
C2303 C 0.46743 0.95293 0.51403 0.0
H2304 H 0.28861 0.27048 0.77568 0.0
H2305 H 0.2252 0.32252 0.74671 0.0
H2306 H 0.25495 0.30178 0.72644 0.0
H2307 H 0.29866 0.2683 0.71658 0.0
H2308 H 0.35924 0.21054 0.74491 0.0
H2309 H 0.33112 0.23399 0.76567 0.0
C2310 C 0.28106 0.27702 0.76496 0.0
C2311 C 0.25483 0.29885 0.76292 0.0
C2312 C 0.29789 0.26399 0.75314 0.0
C2313 C 0.24572 0.30695 0.74881 0.0
C2314 C 0.2626 0.29477 0.73711 0.0
C2315 C 0.30554 0.26076 0.72732 0.0
C2316 C 0.3308 0.23763 0.72926 0.0
C2317 C 0.28872 0.27337 0.73912 0.0
C2318 C 0.33979 0.22833 0.7432 0.0
C2319 C 0.32366 0.24162 0.75504 0.0
H2320 H 0.05646 0.11011 0.99882 0.0
H2321 H 0.99504 0.08292 0.96459 0.0
H2322 H 0.96313 0.04756 0.98117 0.0
H2323 H 0.95314 0.02362 0.00549 0.0
H2324 H 0.01504 0.04988 0.03967 0.0
H2325 H 0.04622 0.08655 0.02322 0.0
C2326 C 0.03593 0.09661 0.99509 0.0
C2327 C 0.02781 0.09927 0.98058 0.0
C2328 C 0.01792 0.07609 1.00469 0.0
C2329 C 0.00146 0.08139 0.97575 0.0
C2330 C 0.98332 0.06115 0.98522 0.0
C2331 C 0.97358 0.03726 0.00926 0.0
C2332 C 0.98214 0.03369 0.0237 0.0
C2333 C 0.99139 0.05813 0.9997 0.0
C2334 C 0.00828 0.05198 0.02857 0.0
C2335 C 0.02604 0.07293 0.01916 0.0
H2336 H 0.76121 0.81263 0.76492 0.0
H2337 H 0.72801 0.73611 0.73345 0.0
H2338 H 0.69357 0.70904 0.75111 0.0
H2339 H 0.6741 0.70584 0.77571 0.0
H2340 H 0.70512 0.78383 0.80704 0.0
H2341 H 0.73917 0.81188 0.7893 0.0
C2342 C 0.74642 0.79 0.762 0.0
C2343 C 0.74722 0.7761 0.74798 0.0
C2344 C 0.72622 0.77508 0.77215 0.0
C2345 C 0.72772 0.74715 0.7442 0.0
C2346 C 0.70806 0.73171 0.75427 0.0
C2347 C 0.68788 0.72948 0.77852 0.0
C2348 C 0.68695 0.7432 0.79254 0.0
C2349 C 0.70717 0.74538 0.76828 0.0
C2350 C 0.7053 0.77327 0.79623 0.0
C2351 C 0.72485 0.78907 0.78612 0.0
H2352 H 0.77523 0.17737 0.25241 0.0
H2353 H 0.74515 0.28196 0.23589 0.0
H2354 H 0.77535 0.31373 0.25392 0.0
H2355 H 0.80822 0.31195 0.27527 0.0
H2356 H 0.83593 0.20772 0.29261 0.0
H2357 H 0.80849 0.17556 0.27351 0.0
C2358 C 0.7751 0.20711 0.25278 0.0
C2359 C 0.7578 0.22712 0.24276 0.0
C2360 C 0.79202 0.22527 0.26338 0.0
C2361 C 0.75852 0.26572 0.24328 0.0
C2362 C 0.77559 0.28398 0.25369 0.0
C2363 C 0.80831 0.2822 0.27474 0.0
C2364 C 0.82404 0.26204 0.28518 0.0
C2365 C 0.79214 0.26405 0.26388 0.0
C2366 C 0.82405 0.22358 0.28456 0.0
C2367 C 0.80833 0.2053 0.2737 0.0
H2368 H 0.76085 0.2746 0.76216 0.0
H2369 H 0.74292 0.15994 0.7545 0.0
H2370 H 0.71054 0.17568 0.73416 0.0
H2371 H 0.68731 0.22217 0.71841 0.0
H2372 H 0.7029 0.33687 0.72673 0.0
H2373 H 0.73642 0.32124 0.74678 0.0
C2374 C 0.7499 0.25316 0.75598 0.0
C2375 C 0.75422 0.2162 0.75981 0.0
C2376 C 0.73091 0.26245 0.74441 0.0
C2377 C 0.73971 0.18861 0.75182 0.0
C2378 C 0.72128 0.19758 0.74016 0.0
C2379 C 0.69786 0.24361 0.72475 0.0
C2380 C 0.69253 0.28055 0.72127 0.0
C2381 C 0.71663 0.23439 0.73638 0.0
C2382 C 0.70665 0.30824 0.72933 0.0
C2383 C 0.72577 0.29931 0.74077 0.0
H2384 H 0.73273 0.72659 0.263 0.0
H2385 H 0.75162 0.84096 0.25518 0.0
H2386 H 0.7861 0.82454 0.2357 0.0
H2387 H 0.81077 0.77765 0.22073 0.0
H2388 H 0.79406 0.66319 0.22901 0.0
H2389 H 0.7587 0.67938 0.24833 0.0
C2390 C 0.74433 0.7478 0.25696 0.0
C2391 C 0.73967 0.78491 0.26049 0.0
C2392 C 0.76461 0.7381 0.24591 0.0
C2393 C 0.75502 0.8122 0.25269 0.0
C2394 C 0.7747 0.80284 0.24155 0.0
C2395 C 0.79981 0.75635 0.22699 0.0
C2396 C 0.80546 0.71933 0.22377 0.0
C2397 C 0.7798 0.76591 0.23811 0.0
C2398 C 0.79034 0.69187 0.23154 0.0
C2399 C 0.77009 0.70113 0.24252 0.0
H2400 H 0.54164 0.4494 0.03294 0.0
H2401 H 0.52152 0.34658 0.01193 0.0
H2402 H 0.48473 0.37736 0.99681 0.0
H2403 H 0.45813 0.43504 0.99002 0.0
H2404 H 0.50871 0.53505 0.99756 0.0
H2405 H 0.53422 0.50532 0.01768 0.0
C2406 C 0.53037 0.43332 0.02478 0.0
C2407 C 0.53247 0.39447 0.02493 0.0
C2408 C 0.51474 0.45175 0.01369 0.0
C2409 C 0.51762 0.37545 0.01377 0.0
C2410 C 0.49738 0.39336 1.00457 0.0
C2411 C 0.47645 0.45034 0.99488 0.0
C2412 C 0.48072 0.48804 0.99188 0.0
C2413 C 0.49571 0.4317 1.00447 0.0
C2414 C 0.50343 0.5066 0.99979 0.0
C2415 C 0.51851 0.48947 0.01124 0.0
H2416 H 0.97917 0.51541 0.48402 0.0
H2417 H 0.06636 0.52543 0.50468 0.0
H2418 H 0.04312 0.56091 0.52413 0.0
H2419 H 0.99763 0.58888 0.53534 0.0
H2420 H 0.91059 0.58012 0.51441 0.0
H2421 H 0.93375 0.54425 0.49507 0.0
C2422 C 0.99294 0.52558 0.49279 0.0
C2423 C 0.02435 0.5181 0.49299 0.0
C2424 C 0.97936 0.54597 0.5039 0.0
C2425 C 0.04214 0.53113 0.50436 0.0
C2426 C 0.02884 0.55129 0.51546 0.0
C2427 C 0.98385 0.57901 0.52653 0.0
C2428 C 0.95246 0.58685 0.5263 0.0
C2429 C 0.99745 0.55882 0.51537 0.0
C2430 C 0.93475 0.57413 0.51482 0.0
C2431 C 0.94801 0.55375 0.50376 0.0
H2432 H 0.97991 0.47261 0.02785 0.0
H2433 H 0.06763 0.47063 0.00733 0.0
H2434 H 0.04614 0.43627 0.98713 0.0
H2435 H 0.00184 0.40711 0.97515 0.0
H2436 H 0.91447 0.40796 0.99609 0.0
H2437 H 0.936 0.4424 0.01616 0.0
C2438 C 0.99422 0.46438 0.01896 0.0
C2439 C 0.02526 0.47387 0.01902 0.0
C2440 C 0.98163 0.44471 0.0074 0.0
C2441 C 0.0437 0.46335 0.00748 0.0
C2442 C 0.03138 0.44385 0.99593 0.0
C2443 C 0.9876 0.41512 0.98409 0.0
C2444 C 0.95648 0.40577 0.98402 0.0
C2445 C 1.00032 0.43449 0.99573 0.0
C2446 C 0.93833 0.41559 0.99578 0.0
C2447 C 0.95067 0.43507 0.00729 0.0
H2448 H 0.56004 0.60042 0.49657 0.0
H2449 H 0.49902 0.57985 0.46149 0.0
H2450 H 0.4678 0.53988 0.47674 0.0
H2451 H 0.45746 0.5116 0.50033 0.0
H2452 H 0.51858 0.53218 0.53539 0.0
H2453 H 0.55009 0.57148 0.52006 0.0
C2454 C 0.53991 0.58703 0.49233 0.0
C2455 C 0.53165 0.59294 0.47799 0.0
C2456 C 0.52215 0.56419 0.50119 0.0
C2457 C 0.50565 0.57559 0.47252 0.0
C2458 C 0.48785 0.55282 0.48124 0.0
C2459 C 0.47789 0.52445 0.50451 0.0
C2460 C 0.48607 0.51864 0.51888 0.0
C2461 C 0.49582 0.54698 0.49561 0.0
C2462 C 0.51214 0.53599 0.52432 0.0
C2463 C 0.53008 0.55846 0.51556 0.0
H2464 H 0.08311 0.04536 0.27042 0.0
H2465 H 0.18125 0.04462 0.27345 0.0
H2466 H 0.18403 0.99897 0.25444 0.0
H2467 H 0.15863 0.95785 0.23726 0.0
H2468 H 0.0606 0.95992 0.23382 0.0
H2469 H 0.05791 0.0065 0.25249 0.0
C2470 C 0.10516 0.0356 0.26683 0.0
C2471 C 0.13189 0.04841 0.27353 0.0
C2472 C 0.10668 0.0094 0.25577 0.0
C2473 C 0.1602 0.03489 0.26876 0.0
C2474 C 0.16186 0.00889 0.25778 0.0
C2475 C 0.1367 0.96883 0.24045 0.0
C2476 C 0.10987 0.95504 0.23415 0.0
C2477 C 0.13525 0.99575 0.25125 0.0
C2478 C 0.08163 0.96944 0.2386 0.0
C2479 C 0.08005 0.99626 0.24926 0.0
H2480 H 0.2146 0.76932 0.52432 0.0
H2481 H 0.21645 0.88737 0.52707 0.0
H2482 H 0.26097 0.88939 0.51139 0.0
H2483 H 0.29849 0.85797 0.49639 0.0
H2484 H 0.29586 0.74018 0.49233 0.0
H2485 H 0.25246 0.73755 0.50883 0.0
C2486 C 0.225 0.79535 0.52153 0.0
C2487 C 0.21246 0.82817 0.52687 0.0
C2488 C 0.25027 0.79634 0.51219 0.0
C2489 C 0.22579 0.86182 0.52307 0.0
C2490 C 0.25119 0.86298 0.51411 0.0
C2491 C 0.28861 0.83167 0.49922 0.0
C2492 C 0.30057 0.79929 0.49323 0.0
C2493 C 0.26351 0.83047 0.50854 0.0
C2494 C 0.28704 0.76551 0.49677 0.0
C2495 C 0.2623 0.764 0.50624 0.0
H2496 H 0.35328 0.04741 0.73912 0.0
H2497 H 0.4514 0.05388 0.73753 0.0
H2498 H 0.45517 0.00799 0.75647 0.0
H2499 H 0.4306 0.96602 0.77361 0.0
H2500 H 0.33246 0.95852 0.77458 0.0
H2501 H 0.32882 0.00465 0.7558 0.0
C2502 C 0.37552 0.03852 0.74278 0.0
C2503 C 0.40199 0.0542 0.73685 0.0
C2504 C 0.37756 0.01196 0.75365 0.0
C2505 C 0.4306 0.04271 0.74198 0.0
C2506 C 0.4328 0.01628 0.75278 0.0
C2507 C 0.40842 0.97423 0.76964 0.0
C2508 C 0.38186 0.95883 0.77562 0.0
C2509 C 0.40643 1.00071 0.75871 0.0
C2510 C 0.35331 0.97026 0.7704 0.0
C2511 C 0.35118 0.99652 0.75957 0.0
H2512 H 0.30474 0.20755 0.01134 0.0
H2513 H 0.26987 0.1168 0.03586 0.0
H2514 H 0.22521 0.11311 0.02021 0.0
H2515 H 0.19702 0.13461 0.9993 0.0
H2516 H 0.22917 0.22956 0.97605 0.0
H2517 H 0.27423 0.23201 0.9912 0.0
C2518 C 0.28719 0.18717 0.01324 0.0
C2519 C 0.2904 0.16244 0.02468 0.0
C2520 C 0.26131 0.18569 1.00434 0.0
C2521 C 0.26766 0.13615 0.02713 0.0
C2522 C 0.24224 0.134 0.01817 0.0
C2523 C 0.21339 0.15644 0.99763 0.0
C2524 C 0.20928 0.18176 0.98636 0.0
C2525 C 0.23885 0.15858 0.00672 0.0
C2526 C 0.23164 0.20906 0.98433 0.0
C2527 C 0.25743 0.21078 0.99312 0.0
H2528 H 0.84075 0.00755 0.78403 0.0
H2529 H 0.83033 0.10012 0.75579 0.0
H2530 H 0.8288 0.05888 0.73516 0.0
H2531 H 0.83303 0.99625 0.72506 0.0
H2532 H 0.83364 0.90353 0.75366 0.0
H2533 H 0.83597 0.94482 0.77423 0.0
C2534 C 0.83729 0.01864 0.77341 0.0
C2535 C 0.8358 0.05693 0.77148 0.0
C2536 C 0.83483 0.99466 0.76164 0.0
C2537 C 0.83183 0.07079 0.75757 0.0
C2538 C 0.83089 0.04721 0.74576 0.0
C2539 C 0.83281 0.9851 0.7358 0.0
C2540 C 0.83338 0.94679 0.73779 0.0
C2541 C 0.83268 0.00906 0.74764 0.0
C2542 C 0.83351 0.93289 0.75182 0.0
C2543 C 0.83484 0.95649 0.76359 0.0
H2544 H 0.68887 0.05498 0.4975 0.0
H2545 H 0.72737 0.0565 0.53989 0.0
H2546 H 0.77872 0.05788 0.52985 0.0
H2547 H 0.81294 0.05827 0.50899 0.0
H2548 H 0.77457 0.05557 0.4666 0.0
H2549 H 0.72316 0.05503 0.47662 0.0
C2550 C 0.70852 0.05582 0.50452 0.0
C2551 C 0.70424 0.05556 0.51942 0.0
C2552 C 0.73809 0.05631 0.49867 0.0
C2553 C 0.72999 0.05624 0.52838 0.0
C2554 C 0.75939 0.05721 0.52265 0.0
C2555 C 0.79331 0.05779 0.50196 0.0
C2556 C 0.79764 0.05693 0.48707 0.0
C2557 C 0.76375 0.05719 0.50781 0.0
C2558 C 0.77192 0.05584 0.4781 0.0
C2559 C 0.74248 0.05571 0.48383 0.0
H2560 H 0.641 0.00573 0.22425 0.0
H2561 H 0.65131 0.09754 0.2529 0.0
H2562 H 0.64804 0.05644 0.27343 0.0
H2563 H 0.64357 0.99378 0.28336 0.0
H2564 H 0.64792 0.90147 0.25462 0.0
H2565 H 0.64446 0.94286 0.23411 0.0
C2566 C 0.64262 0.0167 0.235 0.0
C2567 C 0.6454 0.05492 0.23696 0.0
C2568 C 0.64366 0.99257 0.24678 0.0
C2569 C 0.64796 0.0685 0.251 0.0
C2570 C 0.64655 0.04491 0.26278 0.0
C2571 C 0.64446 0.98273 0.27262 0.0
C2572 C 0.64582 0.94444 0.2706 0.0
C2573 C 0.64466 0.00682 0.26082 0.0
C2574 C 0.6465 0.93076 0.25653 0.0
C2575 C 0.64459 0.95442 0.24478 0.0
H2576 H 0.68878 0.95538 0.00981 0.0
H2577 H 0.73447 0.95324 0.96895 0.0
H2578 H 0.78373 0.95575 0.98087 0.0
H2579 H 0.81409 0.95726 1.0029 0.0
H2580 H 0.76821 0.96416 0.04363 0.0
H2581 H 0.71898 0.96142 0.0317 0.0
C2582 C 0.70943 0.95602 1.00346 0.0
C2583 C 0.70767 0.95369 0.98847 0.0
C2584 C 0.73781 0.95821 0.01036 0.0
C2585 C 0.73492 0.95406 0.98051 0.0
C2586 C 0.76321 0.95583 0.98731 0.0
C2587 C 0.79337 0.95873 0.00918 0.0
C2588 C 0.79507 0.96045 0.02418 0.0
C2589 C 0.76496 0.95771 1.00224 0.0
C2590 C 0.76778 0.96193 0.03209 0.0
C2591 C 0.73951 0.96062 0.02528 0.0
H2592 H 0.58908 0.45633 0.74062 0.0
H2593 H 0.68645 0.45487 0.73365 0.0
H2594 H 0.69354 0.49701 0.7535 0.0
H2595 H 0.67241 0.53455 0.77305 0.0
H2596 H 0.57576 0.5323 0.7812 0.0
H2597 H 0.56836 0.49045 0.76106 0.0
C2598 C 0.61197 0.46461 0.7435 0.0
C2599 C 0.63707 0.45238 0.73533 0.0
C2600 C 0.61613 0.48811 0.75531 0.0
C2601 C 0.66643 0.46432 0.73931 0.0
C2602 C 0.67064 0.48824 0.75084 0.0
C2603 C 0.64975 0.5248 0.77042 0.0
C2604 C 0.62468 0.53659 0.77862 0.0
C2605 C 0.64568 0.50043 0.75889 0.0
C2606 C 0.59548 0.52341 0.77516 0.0
C2607 C 0.59122 0.49964 0.76358 0.0
H2608 H 0.81223 0.29454 0.00669 0.0
H2609 H 0.76167 0.28738 0.96718 0.0
H2610 H 0.71429 0.28237 0.9805 0.0
H2611 H 0.68663 0.28288 1.00329 0.0
H2612 H 0.73695 0.2975 0.04258 0.0
H2613 H 0.78456 0.29653 0.02939 0.0
C2614 C 0.79091 0.29224 1.00092 0.0
C2615 C 0.79094 0.2913 0.98585 0.0
C2616 C 0.76342 0.29062 0.00864 0.0
C2617 C 0.76282 0.28746 0.97873 0.0
C2618 C 0.73549 0.28496 0.98635 0.0
C2619 C 0.7079 0.28617 0.00903 0.0
C2620 C 0.70775 0.29004 0.02403 0.0
C2621 C 0.73545 0.28696 1.00131 0.0
C2622 C 0.73593 0.29355 0.03113 0.0
C2623 C 0.76337 0.29344 0.02356 0.0
H2624 H 0.86564 0.42998 0.2582 0.0
H2625 H 0.86193 0.50914 0.29237 0.0
H2626 H 0.86126 0.55934 0.27497 0.0
H2627 H 0.86287 0.58088 0.24993 0.0
H2628 H 0.86369 0.50157 0.21577 0.0
H2629 H 0.86427 0.4514 0.23317 0.0
C2630 C 0.86466 0.45825 0.2618 0.0
C2631 C 0.864 0.46586 0.27655 0.0
C2632 C 0.86378 0.48696 0.25172 0.0
C2633 C 0.86232 0.50259 0.28108 0.0
C2634 C 0.86206 0.53129 0.27113 0.0
C2635 C 0.86314 0.55258 0.24633 0.0
C2636 C 0.86339 0.54492 0.23158 0.0
C2637 C 0.86296 0.52384 0.25642 0.0
C2638 C 0.86336 0.50814 0.22705 0.0
C2639 C 0.8638 0.47946 0.237 0.0
H2640 H 0.73592 0.70342 0.47775 0.0
H2641 H 0.66836 0.70344 0.51131 0.0
H2642 H 0.70842 0.70426 0.52928 0.0
H2643 H 0.76259 0.70092 0.53562 0.0
H2644 H 0.83056 0.70295 0.50241 0.0
H2645 H 0.7905 0.70642 0.48421 0.0
C2646 C 0.7299 0.7043 0.48898 0.0
C2647 C 0.69901 0.70259 0.4931 0.0
C2648 C 0.75318 0.70513 0.49936 0.0
C2649 C 0.69185 0.70365 0.50776 0.0
C2650 C 0.71477 0.70436 0.51809 0.0
C2651 C 0.7686 0.70244 0.52439 0.0
C2652 C 0.79945 0.70138 0.52035 0.0
C2653 C 0.74549 0.70433 0.51403 0.0
C2654 C 0.80696 0.70388 0.50578 0.0
C2655 C 0.78405 0.70561 0.49538 0.0
H2656 H 0.31135 0.52701 0.27708 0.0
H2657 H 0.40841 0.53629 0.28315 0.0
H2658 H 0.417 0.4924 0.26372 0.0
H2659 H 0.39642 0.45507 0.24373 0.0
H2660 H 0.29981 0.43366 0.24227 0.0
H2661 H 0.29138 0.47859 0.26124 0.0
C2662 C 0.3344 0.51839 0.27463 0.0
C2663 C 0.35923 0.53521 0.2816 0.0
C2664 C 0.33916 0.49137 0.26409 0.0
C2665 C 0.3889 0.52404 0.27791 0.0
C2666 C 0.39382 0.499 0.26677 0.0
C2667 C 0.37363 0.45909 0.2479 0.0
C2668 C 0.34876 0.44109 0.24139 0.0
C2669 C 0.36908 0.48293 0.2596 0.0
C2670 C 0.31934 0.44753 0.24685 0.0
C2671 C 0.31448 0.47312 0.25775 0.0
H2672 H 0.28886 0.49802 0.99333 0.0
H2673 H 0.28867 0.61503 0.98633 0.0
H2674 H 0.24136 0.62081 0.99986 0.0
H2675 H 0.20048 0.59294 0.01406 0.0
H2676 H 0.19948 0.47557 0.0204 0.0
H2677 H 0.2469 0.46981 0.007 0.0
C2678 C 0.27849 0.52476 0.99483 0.0
C2679 C 0.29226 0.55601 0.9888 0.0
C2680 C 0.2511 0.5279 1.00257 0.0
C2681 C 0.27837 0.59047 0.99072 0.0
C2682 C 0.25137 0.59384 0.99851 0.0
C2683 C 0.21034 0.566 0.01236 0.0
C2684 C 0.19633 0.53481 0.01835 0.0
C2685 C 0.2375 0.56275 1.00447 0.0
C2686 C 0.20991 0.50022 0.01618 0.0
C2687 C 0.23701 0.49682 0.00842 0.0
H2688 H 0.18426 0.45936 0.7724 0.0
H2689 H 0.0875 0.45999 0.78007 0.0
H2690 H 0.08031 0.50309 0.76015 0.0
H2691 H 0.10202 0.54026 0.74019 0.0
H2692 H 0.19973 0.54713 0.73599 0.0
H2693 H 0.20613 0.50197 0.75492 0.0
C2694 C 0.16163 0.46952 0.76995 0.0
C2695 C 0.13645 0.45647 0.77778 0.0
C2696 C 0.15788 0.49558 0.75899 0.0
C2697 C 0.10725 0.4695 0.7742 0.0
C2698 C 0.10317 0.49417 0.76282 0.0
C2699 C 0.12468 0.53214 0.74355 0.0
C2700 C 0.15032 0.54659 0.73638 0.0
C2701 C 0.12835 0.50739 0.75508 0.0
C2702 C 0.17954 0.5359 0.741 0.0
C2703 C 0.18327 0.51017 0.75192 0.0
H2704 H 0.18821 0.44904 0.50952 0.0
H2705 H 0.22893 0.44676 0.46762 0.0
H2706 H 0.27979 0.44587 0.47826 0.0
H2707 H 0.31273 0.44456 0.49951 0.0
H2708 H 0.27181 0.44962 0.54142 0.0
H2709 H 0.22122 0.45001 0.53076 0.0
C2710 C 0.20824 0.44817 0.50275 0.0
C2711 C 0.20481 0.4479 0.48782 0.0
C2712 C 0.23745 0.44799 0.50894 0.0
C2713 C 0.23098 0.44727 0.47915 0.0
C2714 C 0.26007 0.44664 0.48523 0.0
C2715 C 0.2928 0.4462 0.50633 0.0
C2716 C 0.29629 0.44665 0.52129 0.0
C2717 C 0.2636 0.44699 0.50012 0.0
C2718 C 0.26999 0.44839 0.5299 0.0
C2719 C 0.24095 0.44888 0.52381 0.0
loop_
_geom_bond_atom_site_label_1
_geom_bond_atom_site_label_2
_geom_bond_distance
_geom_bond_site_symmetry_2
_ccdc_geom_bond_type
C0 C1 1.443 . S
C0 N4 1.376 . S
C0 C38 1.389 . S
C1 C0 1.443 . S
C1 C2 1.340 . S
C1 H41 0.951 . S
C2 C1 1.340 . S
C2 C3 1.439 . S
C2 H42 0.950 . S
C3 C2 1.439 . S
C3 N4 1.374 . S
C3 C37 1.395 . S
N4 C0 1.376 . S
N4 C3 1.374 . S
N4 Co5 2.008 . S
Co5 N4 2.008 . S
Co5 N6 1.995 . S
Co5 N11 2.008 . S
Co5 N16 1.995 . S
Co5 N21 2.282 . S
Co5 N27 2.282 . S
N6 Co5 1.995 . S
N6 C7 1.376 . S
N6 C10 1.383 . S
C7 N6 1.376 . S
C7 C8 1.446 . S
C7 C37 1.391 . S
C8 C7 1.446 . S
C8 C9 1.339 . S
C8 H43 0.949 . S
C9 C8 1.339 . S
C9 C10 1.439 . S
C9 H44 0.950 . S
C10 N6 1.383 . S
C10 C9 1.439 . S
C10 C39 1.392 . S
N11 Co5 2.008 . S
N11 C12 1.376 . S
N11 C15 1.374 . S
C12 N11 1.376 . S
C12 C13 1.443 . S
C12 C39 1.389 . S
C13 C12 1.443 . S
C13 C14 1.340 . S
C13 H45 0.951 . S
C14 C13 1.340 . S
C14 C15 1.439 . S
C14 H46 0.950 . S
C15 N11 1.374 . S
C15 C14 1.439 . S
C15 C40 1.395 . S
N16 Co5 1.995 . S
N16 C17 1.376 . S
N16 C20 1.383 . S
C17 N16 1.376 . S
C17 C18 1.446 . S
C17 C40 1.391 . S
C18 C17 1.446 . S
C18 C19 1.339 . S
C18 H47 0.949 . S
C19 C18 1.339 . S
C19 C20 1.439 . S
C19 H48 0.950 . S
C20 N16 1.383 . S
C20 C19 1.439 . S
C20 C38 1.392 . S
N21 Co5 2.282 . S
N21 C24 1.332 . S
N21 C26 1.332 . S
C22 C23 1.386 . S
C22 C25 1.388 . S
C23 C22 1.386 . S
C23 C24 1.382 . S
C23 H49 0.950 . S
C24 N21 1.332 . S
C24 C23 1.382 . S
C24 H35 0.952 . S
C25 C22 1.388 . S
C25 C26 1.382 . S
C25 H50 0.950 . S
C26 N21 1.332 . S
C26 C25 1.382 . S
C26 H36 0.948 . S
N27 Co5 2.282 . S
N27 C31 1.332 . S
N27 C32 1.332 . S
C28 C29 1.388 . S
C28 C32 1.382 . S
C28 H51 0.950 . S
C29 C28 1.388 . S
C29 C30 1.386 . S
C30 C29 1.386 . S
C30 C31 1.382 . S
C30 H52 0.950 . S
C31 N27 1.332 . S
C31 C30 1.382 . S
C31 H33 0.952 . S
C32 N27 1.332 . S
C32 C28 1.382 . S
C32 H34 0.948 . S
H33 C31 0.952 . S
H34 C32 0.948 . S
H35 C24 0.952 . S
H36 C26 0.948 . S
C37 C3 1.395 . S
C37 C7 1.391 . S
C38 C0 1.389 . S
C38 C20 1.392 . S
C39 C10 1.392 . S
C39 C12 1.389 . S
C40 C15 1.395 . S
C40 C17 1.391 . S
H41 C1 0.951 . S
H42 C2 0.950 . S
H43 C8 0.949 . S
H44 C9 0.950 . S
H45 C13 0.951 . S
H46 C14 0.950 . S
H47 C18 0.949 . S
H48 C19 0.950 . S
H49 C23 0.950 . S
H50 C25 0.950 . S
H51 C28 0.950 . S
H52 C30 0.950 . S
C53 C54 1.443 . S
C53 N57 1.376 . S
C53 C91 1.389 . S
C54 C53 1.443 . S
C54 C55 1.340 . S
C54 H94 0.951 . S
C55 C54 1.340 . S
C55 C56 1.439 . S
C55 H95 0.950 . S
C56 C55 1.439 . S
C56 N57 1.374 . S
C56 C90 1.395 . S
N57 C53 1.376 . S
N57 C56 1.374 . S
N57 Co58 2.008 . S
Co58 N57 2.008 . S
Co58 N59 1.995 . S
Co58 N64 2.008 . S
Co58 N69 1.995 . S
Co58 N74 2.282 . S
Co58 N80 2.282 . S
N59 Co58 1.995 . S
N59 C60 1.376 . S
N59 C63 1.383 . S
C60 N59 1.376 . S
C60 C61 1.446 . S
C60 C90 1.391 . S
C61 C60 1.446 . S
C61 C62 1.339 . S
C61 H96 0.949 . S
C62 C61 1.339 . S
C62 C63 1.439 . S
C62 H97 0.950 . S
C63 N59 1.383 . S
C63 C62 1.439 . S
C63 C92 1.392 . S
N64 Co58 2.008 . S
N64 C65 1.376 . S
N64 C68 1.374 1_565 S
C65 N64 1.376 . S
C65 C66 1.443 1_565 S
C65 C92 1.389 . S
C66 C65 1.443 1_545 S
C66 C67 1.340 . S
C66 H98 0.951 . S
C67 C66 1.340 . S
C67 C68 1.439 . S
C67 H99 0.950 . S
C68 N64 1.374 1_545 S
C68 C67 1.439 . S
C68 C93 1.395 . S
N69 Co58 1.995 . S
N69 C70 1.376 . S
N69 C73 1.383 . S
C70 N69 1.376 . S
C70 C71 1.446 . S
C70 C93 1.391 1_565 S
C71 C70 1.446 . S
C71 C72 1.339 . S
C71 H100 0.949 1_565 S
C72 C71 1.339 . S
C72 C73 1.439 . S
C72 H101 0.950 . S
C73 N69 1.383 . S
C73 C72 1.439 . S
C73 C91 1.392 . S
N74 Co58 2.282 . S
N74 C77 1.332 . S
N74 C79 1.332 . S
C75 C76 1.386 . S
C75 C78 1.388 . S
C76 C75 1.386 . S
C76 C77 1.382 . S
C76 H102 0.950 . S
C77 N74 1.332 . S
C77 C76 1.382 . S
C77 H88 0.952 . S
C78 C75 1.388 . S
C78 C79 1.382 . S
C78 H103 0.950 . S
C79 N74 1.332 . S
C79 C78 1.382 . S
C79 H89 0.948 . S
N80 Co58 2.282 . S
N80 C84 1.332 . S
N80 C85 1.332 . S
C81 C82 1.388 . S
C81 C85 1.382 . S
C81 H104 0.950 . S
C82 C81 1.388 . S
C82 C83 1.386 . S
C83 C82 1.386 . S
C83 C84 1.382 . S
C83 H105 0.950 . S
C84 N80 1.332 . S
C84 C83 1.382 . S
C84 H86 0.952 . S
C85 N80 1.332 . S
C85 C81 1.382 . S
C85 H87 0.948 . S
H86 C84 0.952 . S
H87 C85 0.948 . S
H88 C77 0.952 . S
H89 C79 0.948 . S
C90 C56 1.395 . S
C90 C60 1.391 . S
C91 C53 1.389 . S
C91 C73 1.392 . S
C92 C63 1.392 . S
C92 C65 1.389 . S
C93 C68 1.395 . S
C93 C70 1.391 1_545 S
H94 C54 0.951 . S
H95 C55 0.950 . S
H96 C61 0.949 . S
H97 C62 0.950 . S
H98 C66 0.951 . S
H99 C67 0.950 . S
H100 C71 0.949 1_545 S
H101 C72 0.950 . S
H102 C76 0.950 . S
H103 C78 0.950 . S
H104 C81 0.950 . S
H105 C83 0.950 . S
C106 C107 1.443 . S
C106 N110 1.376 . S
C106 C144 1.389 . S
C107 C106 1.443 . S
C107 C108 1.340 . S
C107 H147 0.951 . S
C108 C107 1.340 . S
C108 C109 1.439 . S
C108 H148 0.950 . S
C109 C108 1.439 . S
C109 N110 1.374 . S
C109 C143 1.395 . S
N110 C106 1.376 . S
N110 C109 1.374 . S
N110 Co111 2.008 . S
Co111 N110 2.008 . S
Co111 N112 1.995 . S
Co111 N117 2.008 . S
Co111 N122 1.995 . S
Co111 N127 2.282 . S
Co111 N133 2.282 . S
N112 Co111 1.995 . S
N112 C113 1.376 . S
N112 C116 1.383 . S
C113 N112 1.376 . S
C113 C114 1.446 . S
C113 C143 1.391 . S
C114 C113 1.446 . S
C114 C115 1.339 . S
C114 H149 0.949 . S
C115 C114 1.339 . S
C115 C116 1.439 . S
C115 H150 0.950 . S
C116 N112 1.383 . S
C116 C115 1.439 . S
C116 C145 1.392 . S
N117 Co111 2.008 . S
N117 C118 1.376 . S
N117 C121 1.374 . S
C118 N117 1.376 . S
C118 C119 1.443 . S
C118 C145 1.389 . S
C119 C118 1.443 . S
C119 C120 1.340 . S
C119 H151 0.951 . S
C120 C119 1.340 . S
C120 C121 1.439 . S
C120 H152 0.950 . S
C121 N117 1.374 . S
C121 C120 1.439 . S
C121 C146 1.395 . S
N122 Co111 1.995 . S
N122 C123 1.376 . S
N122 C126 1.383 . S
C123 N122 1.376 . S
C123 C124 1.446 . S
C123 C146 1.391 . S
C124 C123 1.446 . S
C124 C125 1.339 . S
C124 H153 0.949 . S
C125 C124 1.339 . S
C125 C126 1.439 . S
C125 H154 0.950 . S
C126 N122 1.383 . S
C126 C125 1.439 . S
C126 C144 1.392 . S
N127 Co111 2.282 . S
N127 C130 1.332 . S
N127 C132 1.332 . S
C128 C129 1.386 . S
C128 C131 1.388 . S
C129 C128 1.386 . S
C129 C130 1.382 . S
C129 H155 0.950 . S
C130 N127 1.332 . S
C130 C129 1.382 . S
C130 H141 0.952 . S
C131 C128 1.388 . S
C131 C132 1.382 . S
C131 H156 0.950 . S
C132 N127 1.332 . S
C132 C131 1.382 . S
C132 H142 0.948 . S
N133 Co111 2.282 . S
N133 C137 1.332 . S
N133 C138 1.332 . S
C134 C135 1.388 . S
C134 C138 1.382 . S
C134 H157 0.950 . S
C135 C134 1.388 . S
C135 C136 1.386 . S
C136 C135 1.386 . S
C136 C137 1.382 . S
C136 H158 0.950 . S
C137 N133 1.332 . S
C137 C136 1.382 . S
C137 H139 0.952 . S
C138 N133 1.332 . S
C138 C134 1.382 . S
C138 H140 0.948 . S
H139 C137 0.952 . S
H140 C138 0.948 . S
H141 C130 0.952 . S
H142 C132 0.948 . S
C143 C109 1.395 . S
C143 C113 1.391 . S
C144 C106 1.389 . S
C144 C126 1.392 . S
C145 C116 1.392 . S
C145 C118 1.389 . S
C146 C121 1.395 . S
C146 C123 1.391 . S
H147 C107 0.951 . S
H148 C108 0.950 . S
H149 C114 0.949 . S
H150 C115 0.950 . S
H151 C119 0.951 . S
H152 C120 0.950 . S
H153 C124 0.949 . S
H154 C125 0.950 . S
H155 C129 0.950 . S
H156 C131 0.950 . S
H157 C134 0.950 . S
H158 C136 0.950 . S
C159 C160 1.443 . S
C159 N163 1.376 . S
C159 C197 1.389 . S
C160 C159 1.443 . S
C160 C161 1.340 . S
C160 H200 0.951 . S
C161 C160 1.340 . S
C161 C162 1.439 . S
C161 H201 0.950 . S
C162 C161 1.439 . S
C162 N163 1.374 . S
C162 C196 1.395 . S
N163 C159 1.376 . S
N163 C162 1.374 . S
N163 Co164 2.008 . S
Co164 N163 2.008 . S
Co164 N165 1.995 . S
Co164 N170 2.008 . S
Co164 N175 1.995 . S
Co164 N180 2.282 . S
Co164 N186 2.282 . S
N165 Co164 1.995 . S
N165 C166 1.376 . S
N165 C169 1.383 . S
C166 N165 1.376 . S
C166 C167 1.446 . S
C166 C196 1.391 . S
C167 C166 1.446 . S
C167 C168 1.339 . S
C167 H202 0.949 . S
C168 C167 1.339 . S
C168 C169 1.439 . S
C168 H203 0.950 . S
C169 N165 1.383 . S
C169 C168 1.439 . S
C169 C198 1.392 . S
N170 Co164 2.008 . S
N170 C171 1.376 . S
N170 C174 1.374 1_545 S
C171 N170 1.376 . S
C171 C172 1.443 1_545 S
C171 C198 1.389 . S
C172 C171 1.443 1_565 S
C172 C173 1.340 . S
C172 H204 0.951 . S
C173 C172 1.340 . S
C173 C174 1.439 . S
C173 H205 0.950 . S
C174 N170 1.374 1_565 S
C174 C173 1.439 . S
C174 C199 1.395 . S
N175 Co164 1.995 . S
N175 C176 1.376 . S
N175 C179 1.383 . S
C176 N175 1.376 . S
C176 C177 1.446 . S
C176 C199 1.391 1_545 S
C177 C176 1.446 . S
C177 C178 1.339 . S
C177 H206 0.949 1_545 S
C178 C177 1.339 . S
C178 C179 1.439 . S
C178 H207 0.950 . S
C179 N175 1.383 . S
C179 C178 1.439 . S
C179 C197 1.392 . S
N180 Co164 2.282 . S
N180 C183 1.332 . S
N180 C185 1.332 . S
C181 C182 1.386 . S
C181 C184 1.388 . S
C182 C181 1.386 . S
C182 C183 1.382 . S
C182 H208 0.950 . S
C183 N180 1.332 . S
C183 C182 1.382 . S
C183 H194 0.952 . S
C184 C181 1.388 . S
C184 C185 1.382 . S
C184 H209 0.950 . S
C185 N180 1.332 . S
C185 C184 1.382 . S
C185 H195 0.948 . S
N186 Co164 2.282 . S
N186 C190 1.332 . S
N186 C191 1.332 . S
C187 C188 1.388 . S
C187 C191 1.382 . S
C187 H210 0.950 . S
C188 C187 1.388 . S
C188 C189 1.386 . S
C189 C188 1.386 . S
C189 C190 1.382 . S
C189 H211 0.950 . S
C190 N186 1.332 . S
C190 C189 1.382 . S
C190 H192 0.952 . S
C191 N186 1.332 . S
C191 C187 1.382 . S
C191 H193 0.948 . S
H192 C190 0.952 . S
H193 C191 0.948 . S
H194 C183 0.952 . S
H195 C185 0.948 . S
C196 C162 1.395 . S
C196 C166 1.391 . S
C197 C159 1.389 . S
C197 C179 1.392 . S
C198 C169 1.392 . S
C198 C171 1.389 . S
C199 C174 1.395 . S
C199 C176 1.391 1_565 S
H200 C160 0.951 . S
H201 C161 0.950 . S
H202 C167 0.949 . S
H203 C168 0.950 . S
H204 C172 0.951 . S
H205 C173 0.950 . S
H206 C177 0.949 1_565 S
H207 C178 0.950 . S
H208 C182 0.950 . S
H209 C184 0.950 . S
H210 C187 0.950 . S
H211 C189 0.950 . S
C212 C213 1.443 . S
C212 N216 1.376 . S
C212 C250 1.389 . S
C213 C212 1.443 . S
C213 C214 1.340 . S
C213 H253 0.951 . S
C214 C213 1.340 . S
C214 C215 1.439 . S
C214 H254 0.950 . S
C215 C214 1.439 . S
C215 N216 1.374 . S
C215 C249 1.395 . S
N216 C212 1.376 . S
N216 C215 1.374 . S
N216 Co217 2.008 . S
Co217 N216 2.008 . S
Co217 N218 1.995 . S
Co217 N223 2.008 . S
Co217 N228 1.995 . S
Co217 N233 2.282 . S
Co217 N239 2.282 . S
N218 Co217 1.995 . S
N218 C219 1.376 . S
N218 C222 1.383 . S
C219 N218 1.376 . S
C219 C220 1.446 . S
C219 C249 1.391 . S
C220 C219 1.446 . S
C220 C221 1.339 . S
C220 H255 0.949 . S
C221 C220 1.339 . S
C221 C222 1.439 . S
C221 H256 0.950 . S
C222 N218 1.383 . S
C222 C221 1.439 . S
C222 C251 1.392 . S
N223 Co217 2.008 . S
N223 C224 1.376 . S
N223 C227 1.374 . S
C224 N223 1.376 . S
C224 C225 1.443 . S
C224 C251 1.389 . S
C225 C224 1.443 . S
C225 C226 1.340 . S
C225 H257 0.951 . S
C226 C225 1.340 . S
C226 C227 1.439 . S
C226 H258 0.950 . S
C227 N223 1.374 . S
C227 C226 1.439 . S
C227 C252 1.395 . S
N228 Co217 1.995 . S
N228 C229 1.376 . S
N228 C232 1.383 . S
C229 N228 1.376 . S
C229 C230 1.446 . S
C229 C252 1.391 . S
C230 C229 1.446 . S
C230 C231 1.339 . S
C230 H259 0.949 . S
C231 C230 1.339 . S
C231 C232 1.439 . S
C231 H260 0.950 . S
C232 N228 1.383 . S
C232 C231 1.439 . S
C232 C250 1.392 . S
N233 Co217 2.282 . S
N233 C236 1.332 . S
N233 C238 1.332 . S
C234 C235 1.386 . S
C234 C237 1.388 . S
C235 C234 1.386 . S
C235 C236 1.382 . S
C235 H261 0.950 . S
C236 N233 1.332 . S
C236 C235 1.382 . S
C236 H247 0.952 . S
C237 C234 1.388 . S
C237 C238 1.382 . S
C237 H262 0.950 . S
C238 N233 1.332 . S
C238 C237 1.382 . S
C238 H248 0.948 . S
N239 Co217 2.282 . S
N239 C243 1.332 . S
N239 C244 1.332 . S
C240 C241 1.388 . S
C240 C244 1.382 . S
C240 H263 0.950 . S
C241 C240 1.388 . S
C241 C242 1.386 . S
C242 C241 1.386 . S
C242 C243 1.382 . S
C242 H264 0.950 . S
C243 N239 1.332 . S
C243 C242 1.382 . S
C243 H245 0.952 . S
C244 N239 1.332 . S
C244 C240 1.382 . S
C244 H246 0.948 . S
H245 C243 0.952 . S
H246 C244 0.948 . S
H247 C236 0.952 . S
H248 C238 0.948 . S
C249 C215 1.395 . S
C249 C219 1.391 . S
C250 C212 1.389 . S
C250 C232 1.392 . S
C251 C222 1.392 . S
C251 C224 1.389 . S
C252 C227 1.395 . S
C252 C229 1.391 . S
H253 C213 0.951 . S
H254 C214 0.950 . S
H255 C220 0.949 . S
H256 C221 0.950 . S
H257 C225 0.951 . S
H258 C226 0.950 . S
H259 C230 0.949 . S
H260 C231 0.950 . S
H261 C235 0.950 . S
H262 C237 0.950 . S
H263 C240 0.950 . S
H264 C242 0.950 . S
C265 C266 1.443 . S
C265 N269 1.376 . S
C265 C303 1.389 . S
C266 C265 1.443 . S
C266 C267 1.340 . S
C266 H306 0.951 . S
C267 C266 1.340 . S
C267 C268 1.439 . S
C267 H307 0.950 . S
C268 C267 1.439 . S
C268 N269 1.374 . S
C268 C302 1.395 . S
N269 C265 1.376 . S
N269 C268 1.374 . S
N269 Co270 2.008 . S
Co270 N269 2.008 . S
Co270 N271 1.995 . S
Co270 N276 2.008 . S
Co270 N281 1.995 . S
Co270 N286 2.282 . S
Co270 N292 2.282 . S
N271 Co270 1.995 . S
N271 C272 1.376 . S
N271 C275 1.383 . S
C272 N271 1.376 . S
C272 C273 1.446 . S
C272 C302 1.391 . S
C273 C272 1.446 . S
C273 C274 1.339 . S
C273 H308 0.949 . S
C274 C273 1.339 . S
C274 C275 1.439 . S
C274 H309 0.950 . S
C275 N271 1.383 . S
C275 C274 1.439 . S
C275 C304 1.392 . S
N276 Co270 2.008 . S
N276 C277 1.376 . S
N276 C280 1.374 1_565 S
C277 N276 1.376 . S
C277 C278 1.443 1_565 S
C277 C304 1.389 . S
C278 C277 1.443 1_545 S
C278 C279 1.340 . S
C278 H310 0.951 . S
C279 C278 1.340 . S
C279 C280 1.439 . S
C279 H311 0.950 . S
C280 N276 1.374 1_545 S
C280 C279 1.439 . S
C280 C305 1.395 . S
N281 Co270 1.995 . S
N281 C282 1.376 . S
N281 C285 1.383 . S
C282 N281 1.376 . S
C282 C283 1.446 . S
C282 C305 1.391 1_565 S
C283 C282 1.446 . S
C283 C284 1.339 . S
C283 H312 0.949 1_565 S
C284 C283 1.339 . S
C284 C285 1.439 . S
C284 H313 0.950 . S
C285 N281 1.383 . S
C285 C284 1.439 . S
C285 C303 1.392 . S
N286 Co270 2.282 . S
N286 C289 1.332 . S
N286 C291 1.332 . S
C287 C288 1.386 . S
C287 C290 1.388 . S
C288 C287 1.386 . S
C288 C289 1.382 . S
C288 H314 0.950 . S
C289 N286 1.332 . S
C289 C288 1.382 . S
C289 H300 0.952 . S
C290 C287 1.388 . S
C290 C291 1.382 . S
C290 H315 0.950 . S
C291 N286 1.332 . S
C291 C290 1.382 . S
C291 H301 0.948 . S
N292 Co270 2.282 . S
N292 C296 1.332 . S
N292 C297 1.332 . S
C293 C294 1.388 . S
C293 C297 1.382 . S
C293 H316 0.950 . S
C294 C293 1.388 . S
C294 C295 1.386 . S
C295 C294 1.386 . S
C295 C296 1.382 . S
C295 H317 0.950 . S
C296 N292 1.332 . S
C296 C295 1.382 . S
C296 H298 0.952 . S
C297 N292 1.332 . S
C297 C293 1.382 . S
C297 H299 0.948 . S
H298 C296 0.952 . S
H299 C297 0.948 . S
H300 C289 0.952 . S
H301 C291 0.948 . S
C302 C268 1.395 . S
C302 C272 1.391 . S
C303 C265 1.389 . S
C303 C285 1.392 . S
C304 C275 1.392 . S
C304 C277 1.389 . S
C305 C280 1.395 . S
C305 C282 1.391 1_545 S
H306 C266 0.951 . S
H307 C267 0.950 . S
H308 C273 0.949 . S
H309 C274 0.950 . S
H310 C278 0.951 . S
H311 C279 0.950 . S
H312 C283 0.949 1_545 S
H313 C284 0.950 . S
H314 C288 0.950 . S
H315 C290 0.950 . S
H316 C293 0.950 . S
H317 C295 0.950 . S
C318 C319 1.443 . S
C318 N322 1.376 . S
C318 C356 1.389 . S
C319 C318 1.443 . S
C319 C320 1.340 . S
C319 H359 0.951 . S
C320 C319 1.340 . S
C320 C321 1.439 . S
C320 H360 0.950 . S
C321 C320 1.439 . S
C321 N322 1.374 . S
C321 C355 1.395 . S
N322 C318 1.376 . S
N322 C321 1.374 . S
N322 Co323 2.008 . S
Co323 N322 2.008 . S
Co323 N324 1.995 . S
Co323 N329 2.008 . S
Co323 N334 1.995 . S
Co323 N339 2.282 . S
Co323 N345 2.282 . S
N324 Co323 1.995 . S
N324 C325 1.376 . S
N324 C328 1.383 . S
C325 N324 1.376 . S
C325 C326 1.446 . S
C325 C355 1.391 . S
C326 C325 1.446 . S
C326 C327 1.339 . S
C326 H361 0.949 . S
C327 C326 1.339 . S
C327 C328 1.439 . S
C327 H362 0.950 . S
C328 N324 1.383 . S
C328 C327 1.439 . S
C328 C357 1.392 . S
N329 Co323 2.008 . S
N329 C330 1.376 . S
N329 C333 1.374 . S
C330 N329 1.376 . S
C330 C331 1.443 . S
C330 C357 1.389 . S
C331 C330 1.443 . S
C331 C332 1.340 . S
C331 H363 0.951 . S
C332 C331 1.340 . S
C332 C333 1.439 . S
C332 H364 0.950 . S
C333 N329 1.374 . S
C333 C332 1.439 . S
C333 C358 1.395 . S
N334 Co323 1.995 . S
N334 C335 1.376 . S
N334 C338 1.383 . S
C335 N334 1.376 . S
C335 C336 1.446 . S
C335 C358 1.391 . S
C336 C335 1.446 . S
C336 C337 1.339 . S
C336 H365 0.949 . S
C337 C336 1.339 . S
C337 C338 1.439 . S
C337 H366 0.950 . S
C338 N334 1.383 . S
C338 C337 1.439 . S
C338 C356 1.392 . S
N339 Co323 2.282 . S
N339 C342 1.332 . S
N339 C344 1.332 . S
C340 C341 1.386 . S
C340 C343 1.388 . S
C341 C340 1.386 . S
C341 C342 1.382 . S
C341 H367 0.950 . S
C342 N339 1.332 . S
C342 C341 1.382 . S
C342 H353 0.952 . S
C343 C340 1.388 . S
C343 C344 1.382 . S
C343 H368 0.950 . S
C344 N339 1.332 . S
C344 C343 1.382 . S
C344 H354 0.948 . S
N345 Co323 2.282 . S
N345 C349 1.332 . S
N345 C350 1.332 . S
C346 C347 1.388 . S
C346 C350 1.382 . S
C346 H369 0.950 . S
C347 C346 1.388 . S
C347 C348 1.386 . S
C348 C347 1.386 . S
C348 C349 1.382 . S
C348 H370 0.950 . S
C349 N345 1.332 . S
C349 C348 1.382 . S
C349 H351 0.952 . S
C350 N345 1.332 . S
C350 C346 1.382 . S
C350 H352 0.948 . S
H351 C349 0.952 . S
H352 C350 0.948 . S
H353 C342 0.952 . S
H354 C344 0.948 . S
C355 C321 1.395 . S
C355 C325 1.391 . S
C356 C318 1.389 . S
C356 C338 1.392 . S
C357 C328 1.392 . S
C357 C330 1.389 . S
C358 C333 1.395 . S
C358 C335 1.391 . S
H359 C319 0.951 . S
H360 C320 0.950 . S
H361 C326 0.949 . S
H362 C327 0.950 . S
H363 C331 0.951 . S
H364 C332 0.950 . S
H365 C336 0.949 . S
H366 C337 0.950 . S
H367 C341 0.950 . S
H368 C343 0.950 . S
H369 C346 0.950 . S
H370 C348 0.950 . S
C371 C372 1.443 . S
C371 N375 1.376 . S
C371 C409 1.389 . S
C372 C371 1.443 . S
C372 C373 1.340 . S
C372 H412 0.951 . S
C373 C372 1.340 . S
C373 C374 1.439 . S
C373 H413 0.950 . S
C374 C373 1.439 . S
C374 N375 1.374 . S
C374 C408 1.395 . S
N375 C371 1.376 . S
N375 C374 1.374 . S
N375 Co376 2.008 . S
Co376 N375 2.008 . S
Co376 N377 1.995 . S
Co376 N382 2.008 . S
Co376 N387 1.995 . S
Co376 N392 2.282 . S
Co376 N398 2.282 . S
N377 Co376 1.995 . S
N377 C378 1.376 . S
N377 C381 1.383 . S
C378 N377 1.376 . S
C378 C379 1.446 . S
C378 C408 1.391 . S
C379 C378 1.446 . S
C379 C380 1.339 . S
C379 H414 0.949 . S
C380 C379 1.339 . S
C380 C381 1.439 . S
C380 H415 0.950 . S
C381 N377 1.383 . S
C381 C380 1.439 . S
C381 C410 1.392 . S
N382 Co376 2.008 . S
N382 C383 1.376 . S
N382 C386 1.374 1_545 S
C383 N382 1.376 . S
C383 C384 1.443 1_545 S
C383 C410 1.389 . S
C384 C383 1.443 1_565 S
C384 C385 1.340 . S
C384 H416 0.951 . S
C385 C384 1.340 . S
C385 C386 1.439 . S
C385 H417 0.950 . S
C386 N382 1.374 1_565 S
C386 C385 1.439 . S
C386 C411 1.395 . S
N387 Co376 1.995 . S
N387 C388 1.376 . S
N387 C391 1.383 . S
C388 N387 1.376 . S
C388 C389 1.446 . S
C388 C411 1.391 1_545 S
C389 C388 1.446 . S
C389 C390 1.339 . S
C389 H418 0.949 1_545 S
C390 C389 1.339 . S
C390 C391 1.439 . S
C390 H419 0.950 . S
C391 N387 1.383 . S
C391 C390 1.439 . S
C391 C409 1.392 . S
N392 Co376 2.282 . S
N392 C395 1.332 . S
N392 C397 1.332 . S
C393 C394 1.386 . S
C393 C396 1.388 . S
C394 C393 1.386 . S
C394 C395 1.382 . S
C394 H420 0.950 . S
C395 N392 1.332 . S
C395 C394 1.382 . S
C395 H406 0.952 . S
C396 C393 1.388 . S
C396 C397 1.382 . S
C396 H421 0.950 . S
C397 N392 1.332 . S
C397 C396 1.382 . S
C397 H407 0.948 . S
N398 Co376 2.282 . S
N398 C402 1.332 . S
N398 C403 1.332 . S
C399 C400 1.388 . S
C399 C403 1.382 . S
C399 H422 0.950 . S
C400 C399 1.388 . S
C400 C401 1.386 . S
C401 C400 1.386 . S
C401 C402 1.382 . S
C401 H423 0.950 . S
C402 N398 1.332 . S
C402 C401 1.382 . S
C402 H404 0.952 . S
C403 N398 1.332 . S
C403 C399 1.382 . S
C403 H405 0.948 . S
H404 C402 0.952 . S
H405 C403 0.948 . S
H406 C395 0.952 . S
H407 C397 0.948 . S
C408 C374 1.395 . S
C408 C378 1.391 . S
C409 C371 1.389 . S
C409 C391 1.392 . S
C410 C381 1.392 . S
C410 C383 1.389 . S
C411 C386 1.395 . S
C411 C388 1.391 1_565 S
H412 C372 0.951 . S
H413 C373 0.950 . S
H414 C379 0.949 . S
H415 C380 0.950 . S
H416 C384 0.951 . S
H417 C385 0.950 . S
H418 C389 0.949 1_565 S
H419 C390 0.950 . S
H420 C394 0.950 . S
H421 C396 0.950 . S
H422 C399 0.950 . S
H423 C401 0.950 . S
C424 C425 1.443 . S
C424 N428 1.376 . S
C424 C462 1.389 . S
C425 C424 1.443 . S
C425 C426 1.340 . S
C425 H465 0.951 . S
C426 C425 1.340 . S
C426 C427 1.439 . S
C426 H466 0.950 . S
C427 C426 1.439 . S
C427 N428 1.374 . S
C427 C461 1.395 . S
N428 C424 1.376 . S
N428 C427 1.374 . S
N428 Co429 2.008 . S
Co429 N428 2.008 . S
Co429 N430 1.995 . S
Co429 N435 2.008 . S
Co429 N440 1.995 . S
Co429 N445 2.282 . S
Co429 N451 2.282 . S
N430 Co429 1.995 . S
N430 C431 1.376 . S
N430 C434 1.383 . S
C431 N430 1.376 . S
C431 C432 1.446 . S
C431 C461 1.391 . S
C432 C431 1.446 . S
C432 C433 1.339 . S
C432 H467 0.949 . S
C433 C432 1.339 . S
C433 C434 1.439 . S
C433 H468 0.950 . S
C434 N430 1.383 . S
C434 C433 1.439 . S
C434 C463 1.392 . S
N435 Co429 2.008 . S
N435 C436 1.376 . S
N435 C439 1.374 . S
C436 N435 1.376 . S
C436 C437 1.443 . S
C436 C463 1.389 . S
C437 C436 1.443 . S
C437 C438 1.340 . S
C437 H469 0.951 . S
C438 C437 1.340 . S
C438 C439 1.439 . S
C438 H470 0.950 . S
C439 N435 1.374 . S
C439 C438 1.439 . S
C439 C464 1.395 . S
N440 Co429 1.995 . S
N440 C441 1.376 . S
N440 C444 1.383 . S
C441 N440 1.376 . S
C441 C442 1.446 . S
C441 C464 1.391 . S
C442 C441 1.446 . S
C442 C443 1.339 . S
C442 H471 0.949 . S
C443 C442 1.339 . S
C443 C444 1.439 . S
C443 H472 0.950 . S
C444 N440 1.383 . S
C444 C443 1.439 . S
C444 C462 1.392 . S
N445 Co429 2.282 . S
N445 C448 1.332 . S
N445 C450 1.332 . S
C446 C447 1.386 . S
C446 C449 1.388 . S
C447 C446 1.386 . S
C447 C448 1.382 . S
C447 H473 0.950 . S
C448 N445 1.332 . S
C448 C447 1.382 . S
C448 H459 0.952 . S
C449 C446 1.388 . S
C449 C450 1.382 . S
C449 H474 0.950 . S
C450 N445 1.332 . S
C450 C449 1.382 . S
C450 H460 0.948 . S
N451 Co429 2.282 . S
N451 C455 1.332 . S
N451 C456 1.332 . S
C452 C453 1.388 . S
C452 C456 1.382 . S
C452 H475 0.950 . S
C453 C452 1.388 . S
C453 C454 1.386 . S
C454 C453 1.386 . S
C454 C455 1.382 . S
C454 H476 0.950 . S
C455 N451 1.332 . S
C455 C454 1.382 . S
C455 H457 0.952 . S
C456 N451 1.332 . S
C456 C452 1.382 . S
C456 H458 0.948 . S
H457 C455 0.952 . S
H458 C456 0.948 . S
H459 C448 0.952 . S
H460 C450 0.948 . S
C461 C427 1.395 . S
C461 C431 1.391 . S
C462 C424 1.389 . S
C462 C444 1.392 . S
C463 C434 1.392 . S
C463 C436 1.389 . S
C464 C439 1.395 . S
C464 C441 1.391 . S
H465 C425 0.951 . S
H466 C426 0.950 . S
H467 C432 0.949 . S
H468 C433 0.950 . S
H469 C437 0.951 . S
H470 C438 0.950 . S
H471 C442 0.949 . S
H472 C443 0.950 . S
H473 C447 0.950 . S
H474 C449 0.950 . S
H475 C452 0.950 . S
H476 C454 0.950 . S
C477 C478 1.443 . S
C477 N481 1.376 . S
C477 C515 1.389 . S
C478 C477 1.443 . S
C478 C479 1.340 1_545 S
C478 H518 0.951 . S
C479 C478 1.340 1_565 S
C479 C480 1.439 . S
C479 H519 0.950 . S
C480 C479 1.439 . S
C480 N481 1.374 1_565 S
C480 C514 1.395 . S
N481 C477 1.376 . S
N481 C480 1.374 1_545 S
N481 Co482 2.008 . S
Co482 N481 2.008 . S
Co482 N483 1.995 1_545 S
Co482 N488 2.008 . S
Co482 N493 1.995 . S
Co482 N498 2.282 . S
Co482 N504 2.282 . S
N483 Co482 1.995 1_565 S
N483 C484 1.376 . S
N483 C487 1.383 . S
C484 N483 1.376 . S
C484 C485 1.446 . S
C484 C514 1.391 . S
C485 C484 1.446 . S
C485 C486 1.339 . S
C485 H520 0.949 . S
C486 C485 1.339 . S
C486 C487 1.439 . S
C486 H521 0.950 . S
C487 N483 1.383 . S
C487 C486 1.439 . S
C487 C516 1.392 . S
N488 Co482 2.008 . S
N488 C489 1.376 . S
N488 C492 1.374 . S
C489 N488 1.376 . S
C489 C490 1.443 . S
C489 C516 1.389 1_545 S
C490 C489 1.443 . S
C490 C491 1.340 . S
C490 H522 0.951 . S
C491 C490 1.340 . S
C491 C492 1.439 . S
C491 H523 0.950 . S
C492 N488 1.374 . S
C492 C491 1.439 . S
C492 C517 1.395 . S
N493 Co482 1.995 . S
N493 C494 1.376 . S
N493 C497 1.383 . S
C494 N493 1.376 . S
C494 C495 1.446 . S
C494 C517 1.391 . S
C495 C494 1.446 . S
C495 C496 1.339 . S
C495 H524 0.949 . S
C496 C495 1.339 . S
C496 C497 1.439 . S
C496 H525 0.950 . S
C497 N493 1.383 . S
C497 C496 1.439 . S
C497 C515 1.392 . S
N498 Co482 2.282 . S
N498 C501 1.332 . S
N498 C503 1.332 1_545 S
C499 C500 1.386 . S
C499 C502 1.388 1_545 S
C500 C499 1.386 . S
C500 C501 1.382 . S
C500 H526 0.950 . S
C501 N498 1.332 . S
C501 C500 1.382 . S
C501 H512 0.952 . S
C502 C499 1.388 1_565 S
C502 C503 1.382 . S
C502 H527 0.950 . S
C503 N498 1.332 1_565 S
C503 C502 1.382 . S
C503 H513 0.948 . S
N504 Co482 2.282 . S
N504 C508 1.332 . S
N504 C509 1.332 . S
C505 C506 1.393 . S
C505 C509 1.382 . S
C505 H528 0.950 . S
C506 C505 1.393 . S
C506 C507 1.392 . S
C507 C506 1.392 . S
C507 C508 1.382 . S
C507 H529 0.950 1_545 S
C508 N504 1.332 . S
C508 C507 1.382 . S
C508 H510 0.952 1_545 S
C509 N504 1.332 . S
C509 C505 1.382 . S
C509 H511 0.948 . S
H510 C508 0.952 1_565 S
H511 C509 0.948 . S
H512 C501 0.952 . S
H513 C503 0.948 . S
C514 C480 1.395 . S
C514 C484 1.391 . S
C515 C477 1.389 . S
C515 C497 1.392 . S
C516 C487 1.392 . S
C516 C489 1.389 1_565 S
C517 C492 1.395 . S
C517 C494 1.391 . S
H518 C478 0.951 . S
H519 C479 0.950 . S
H520 C485 0.949 . S
H521 C486 0.950 . S
H522 C490 0.951 . S
H523 C491 0.950 . S
H524 C495 0.949 . S
H525 C496 0.950 . S
H526 C500 0.950 . S
H527 C502 0.950 . S
H528 C505 0.950 . S
H529 C507 0.950 1_565 S
C530 C531 1.443 . S
C530 N534 1.376 . S
C530 C568 1.389 . S
C531 C530 1.443 . S
C531 C532 1.340 . S
C531 H571 0.951 . S
C532 C531 1.340 . S
C532 C533 1.439 . S
C532 H572 0.950 . S
C533 C532 1.439 . S
C533 N534 1.374 . S
C533 C567 1.395 . S
N534 C530 1.376 . S
N534 C533 1.374 . S
N534 Co535 2.008 . S
Co535 N534 2.008 . S
Co535 N536 1.995 . S
Co535 N541 2.008 . S
Co535 N546 1.995 . S
Co535 N551 2.282 . S
Co535 N557 2.282 . S
N536 Co535 1.995 . S
N536 C537 1.376 . S
N536 C540 1.383 . S
C537 N536 1.376 . S
C537 C538 1.446 . S
C537 C567 1.391 . S
C538 C537 1.446 . S
C538 C539 1.339 . S
C538 H573 0.949 . S
C539 C538 1.339 . S
C539 C540 1.439 . S
C539 H574 0.950 . S
C540 N536 1.383 . S
C540 C539 1.439 . S
C540 C569 1.392 . S
N541 Co535 2.008 . S
N541 C542 1.376 . S
N541 C545 1.374 . S
C542 N541 1.376 . S
C542 C543 1.443 . S
C542 C569 1.389 . S
C543 C542 1.443 . S
C543 C544 1.340 . S
C543 H575 0.951 . S
C544 C543 1.340 . S
C544 C545 1.439 . S
C544 H576 0.950 . S
C545 N541 1.374 . S
C545 C544 1.439 . S
C545 C570 1.395 . S
N546 Co535 1.995 . S
N546 C547 1.376 . S
N546 C550 1.383 . S
C547 N546 1.376 . S
C547 C548 1.446 . S
C547 C570 1.391 . S
C548 C547 1.446 . S
C548 C549 1.339 . S
C548 H577 0.949 . S
C549 C548 1.339 . S
C549 C550 1.439 . S
C549 H578 0.950 . S
C550 N546 1.383 . S
C550 C549 1.439 . S
C550 C568 1.392 . S
N551 Co535 2.282 . S
N551 C554 1.332 . S
N551 C556 1.332 . S
C552 C553 1.386 . S
C552 C555 1.388 . S
C553 C552 1.386 . S
C553 C554 1.382 . S
C553 H579 0.950 . S
C554 N551 1.332 . S
C554 C553 1.382 . S
C554 H565 0.952 . S
C555 C552 1.388 . S
C555 C556 1.382 . S
C555 H580 0.950 . S
C556 N551 1.332 . S
C556 C555 1.382 . S
C556 H566 0.948 . S
N557 Co535 2.282 . S
N557 C561 1.332 . S
N557 C562 1.332 . S
C558 C559 1.388 . S
C558 C562 1.382 . S
C558 H581 0.950 . S
C559 C558 1.388 . S
C559 C560 1.386 . S
C560 C559 1.386 . S
C560 C561 1.382 . S
C560 H582 0.950 . S
C561 N557 1.332 . S
C561 C560 1.382 . S
C561 H563 0.952 . S
C562 N557 1.332 . S
C562 C558 1.382 . S
C562 H564 0.948 . S
H563 C561 0.952 . S
H564 C562 0.948 . S
H565 C554 0.952 . S
H566 C556 0.948 . S
C567 C533 1.395 . S
C567 C537 1.391 . S
C568 C530 1.389 . S
C568 C550 1.392 . S
C569 C540 1.392 . S
C569 C542 1.389 . S
C570 C545 1.395 . S
C570 C547 1.391 . S
H571 C531 0.951 . S
H572 C532 0.950 . S
H573 C538 0.949 . S
H574 C539 0.950 . S
H575 C543 0.951 . S
H576 C544 0.950 . S
H577 C548 0.949 . S
H578 C549 0.950 . S
H579 C553 0.950 . S
H580 C555 0.950 . S
H581 C558 0.950 . S
H582 C560 0.950 . S
C583 C584 1.443 . S
C583 N587 1.376 . S
C583 C621 1.389 . S
C584 C583 1.443 . S
C584 C585 1.340 1_565 S
C584 H624 0.951 . S
C585 C584 1.340 1_545 S
C585 C586 1.439 . S
C585 H625 0.950 . S
C586 C585 1.439 . S
C586 N587 1.374 1_545 S
C586 C620 1.395 . S
N587 C583 1.376 . S
N587 C586 1.374 1_565 S
N587 Co588 2.008 . S
Co588 N587 2.008 . S
Co588 N589 1.995 1_565 S
Co588 N594 2.008 . S
Co588 N599 1.995 . S
Co588 N604 2.282 . S
Co588 N610 2.282 . S
N589 Co588 1.995 1_545 S
N589 C590 1.376 . S
N589 C593 1.383 . S
C590 N589 1.376 . S
C590 C591 1.446 . S
C590 C620 1.391 . S
C591 C590 1.446 . S
C591 C592 1.339 . S
C591 H626 0.949 . S
C592 C591 1.339 . S
C592 C593 1.439 . S
C592 H627 0.950 . S
C593 N589 1.383 . S
C593 C592 1.439 . S
C593 C622 1.392 . S
N594 Co588 2.008 . S
N594 C595 1.376 . S
N594 C598 1.374 . S
C595 N594 1.376 . S
C595 C596 1.443 . S
C595 C622 1.389 1_565 S
C596 C595 1.443 . S
C596 C597 1.340 . S
C596 H628 0.951 . S
C597 C596 1.340 . S
C597 C598 1.439 . S
C597 H629 0.950 . S
C598 N594 1.374 . S
C598 C597 1.439 . S
C598 C623 1.395 . S
N599 Co588 1.995 . S
N599 C600 1.376 . S
N599 C603 1.383 . S
C600 N599 1.376 . S
C600 C601 1.446 . S
C600 C623 1.391 . S
C601 C600 1.446 . S
C601 C602 1.339 . S
C601 H630 0.949 . S
C602 C601 1.339 . S
C602 C603 1.439 . S
C602 H631 0.950 . S
C603 N599 1.383 . S
C603 C602 1.439 . S
C603 C621 1.392 . S
N604 Co588 2.282 . S
N604 C607 1.332 . S
N604 C609 1.332 1_565 S
C605 C606 1.386 . S
C605 C608 1.388 1_565 S
C606 C605 1.386 . S
C606 C607 1.382 . S
C606 H632 0.950 . S
C607 N604 1.332 . S
C607 C606 1.382 . S
C607 H618 0.952 . S
C608 C605 1.388 1_545 S
C608 C609 1.382 . S
C608 H633 0.950 . S
C609 N604 1.332 1_545 S
C609 C608 1.382 . S
C609 H619 0.948 . S
N610 Co588 2.282 . S
N610 C614 1.332 . S
N610 C615 1.332 . S
C611 C612 1.388 . S
C611 C615 1.382 . S
C611 H634 0.950 . S
C612 C611 1.388 . S
C612 C613 1.386 . S
C613 C612 1.386 . S
C613 C614 1.382 . S
C613 H635 0.950 1_565 S
C614 N610 1.332 . S
C614 C613 1.382 . S
C614 H616 0.952 1_565 S
C615 N610 1.332 . S
C615 C611 1.382 . S
C615 H617 0.948 . S
H616 C614 0.952 1_545 S
H617 C615 0.948 . S
H618 C607 0.952 . S
H619 C609 0.948 . S
C620 C586 1.395 . S
C620 C590 1.391 . S
C621 C583 1.389 . S
C621 C603 1.392 . S
C622 C593 1.392 . S
C622 C595 1.389 1_545 S
C623 C598 1.395 . S
C623 C600 1.391 . S
H624 C584 0.951 . S
H625 C585 0.950 . S
H626 C591 0.949 . S
H627 C592 0.950 . S
H628 C596 0.951 . S
H629 C597 0.950 . S
H630 C601 0.949 . S
H631 C602 0.950 . S
H632 C606 0.950 . S
H633 C608 0.950 . S
H634 C611 0.950 . S
H635 C613 0.950 1_545 S
C636 C637 1.443 . S
C636 N640 1.376 . S
C636 C674 1.389 . S
C637 C636 1.443 . S
C637 C638 1.340 . S
C637 H677 0.951 . S
C638 C637 1.340 . S
C638 C639 1.439 . S
C638 H678 0.950 . S
C639 C638 1.439 . S
C639 N640 1.374 . S
C639 C673 1.395 . S
N640 C636 1.376 . S
N640 C639 1.374 . S
N640 Co641 2.008 . S
Co641 N640 2.008 . S
Co641 N642 1.995 . S
Co641 N647 2.008 . S
Co641 N652 1.995 . S
Co641 N657 2.282 . S
Co641 N663 2.282 . S
N642 Co641 1.995 . S
N642 C643 1.376 . S
N642 C646 1.383 . S
C643 N642 1.376 . S
C643 C644 1.446 . S
C643 C673 1.391 . S
C644 C643 1.446 . S
C644 C645 1.339 . S
C644 H679 0.949 . S
C645 C644 1.339 . S
C645 C646 1.439 . S
C645 H680 0.950 . S
C646 N642 1.383 . S
C646 C645 1.439 . S
C646 C675 1.392 . S
N647 Co641 2.008 . S
N647 C648 1.376 . S
N647 C651 1.374 . S
C648 N647 1.376 . S
C648 C649 1.443 . S
C648 C675 1.389 . S
C649 C648 1.443 . S
C649 C650 1.340 . S
C649 H681 0.951 . S
C650 C649 1.340 . S
C650 C651 1.439 . S
C650 H682 0.950 . S
C651 N647 1.374 . S
C651 C650 1.439 . S
C651 C676 1.395 . S
N652 Co641 1.995 . S
N652 C653 1.376 . S
N652 C656 1.383 . S
C653 N652 1.376 . S
C653 C654 1.446 . S
C653 C676 1.391 . S
C654 C653 1.446 . S
C654 C655 1.339 . S
C654 H683 0.949 . S
C655 C654 1.339 . S
C655 C656 1.439 . S
C655 H684 0.950 . S
C656 N652 1.383 . S
C656 C655 1.439 . S
C656 C674 1.392 . S
N657 Co641 2.282 . S
N657 C660 1.332 . S
N657 C662 1.332 . S
C658 C659 1.386 . S
C658 C661 1.388 . S
C659 C658 1.386 . S
C659 C660 1.382 . S
C659 H685 0.950 . S
C660 N657 1.332 . S
C660 C659 1.382 . S
C660 H671 0.952 . S
C661 C658 1.388 . S
C661 C662 1.382 . S
C661 H686 0.950 . S
C662 N657 1.332 . S
C662 C661 1.382 . S
C662 H672 0.948 . S
N663 Co641 2.282 . S
N663 C667 1.332 . S
N663 C668 1.332 . S
C664 C665 1.388 . S
C664 C668 1.382 . S
C664 H687 0.950 . S
C665 C664 1.388 . S
C665 C666 1.386 . S
C666 C665 1.386 . S
C666 C667 1.382 . S
C666 H688 0.950 . S
C667 N663 1.332 . S
C667 C666 1.382 . S
C667 H669 0.952 . S
C668 N663 1.332 . S
C668 C664 1.382 . S
C668 H670 0.948 . S
H669 C667 0.952 . S
H670 C668 0.948 . S
H671 C660 0.952 . S
H672 C662 0.948 . S
C673 C639 1.395 . S
C673 C643 1.391 . S
C674 C636 1.389 . S
C674 C656 1.392 . S
C675 C646 1.392 . S
C675 C648 1.389 . S
C676 C651 1.395 . S
C676 C653 1.391 . S
H677 C637 0.951 . S
H678 C638 0.950 . S
H679 C644 0.949 . S
H680 C645 0.950 . S
H681 C649 0.951 . S
H682 C650 0.950 . S
H683 C654 0.949 . S
H684 C655 0.950 . S
H685 C659 0.950 . S
H686 C661 0.950 . S
H687 C664 0.950 . S
H688 C666 0.950 . S
C689 C690 1.443 . S
C689 N693 1.376 . S
C689 C727 1.389 . S
C690 C689 1.443 . S
C690 C691 1.340 1_545 S
C690 H730 0.951 . S
C691 C690 1.340 1_565 S
C691 C692 1.439 . S
C691 H731 0.950 . S
C692 C691 1.439 . S
C692 N693 1.374 1_565 S
C692 C726 1.395 . S
N693 C689 1.376 . S
N693 C692 1.374 1_545 S
N693 Co694 2.008 . S
Co694 N693 2.008 . S
Co694 N695 1.995 1_545 S
Co694 N700 2.008 . S
Co694 N705 1.995 . S
Co694 N710 2.282 . S
Co694 N716 2.282 . S
N695 Co694 1.995 1_565 S
N695 C696 1.376 . S
N695 C699 1.383 . S
C696 N695 1.376 . S
C696 C697 1.446 . S
C696 C726 1.391 . S
C697 C696 1.446 . S
C697 C698 1.339 . S
C697 H732 0.949 . S
C698 C697 1.339 . S
C698 C699 1.439 . S
C698 H733 0.950 . S
C699 N695 1.383 . S
C699 C698 1.439 . S
C699 C728 1.392 . S
N700 Co694 2.008 . S
N700 C701 1.376 . S
N700 C704 1.374 . S
C701 N700 1.376 . S
C701 C702 1.443 . S
C701 C728 1.389 1_545 S
C702 C701 1.443 . S
C702 C703 1.340 . S
C702 H734 0.951 . S
C703 C702 1.340 . S
C703 C704 1.439 . S
C703 H735 0.950 . S
C704 N700 1.374 . S
C704 C703 1.439 . S
C704 C729 1.395 . S
N705 Co694 1.995 . S
N705 C706 1.376 . S
N705 C709 1.383 . S
C706 N705 1.376 . S
C706 C707 1.446 . S
C706 C729 1.391 . S
C707 C706 1.446 . S
C707 C708 1.339 . S
C707 H736 0.949 . S
C708 C707 1.339 . S
C708 C709 1.439 . S
C708 H737 0.950 . S
C709 N705 1.383 . S
C709 C708 1.439 . S
C709 C727 1.392 . S
N710 Co694 2.282 . S
N710 C713 1.332 . S
N710 C715 1.332 1_545 S
C711 C712 1.386 . S
C711 C714 1.388 1_545 S
C712 C711 1.386 . S
C712 C713 1.382 . S
C712 H738 0.950 . S
C713 N710 1.332 . S
C713 C712 1.382 . S
C713 H724 0.952 . S
C714 C711 1.388 1_565 S
C714 C715 1.382 . S
C714 H739 0.950 . S
C715 N710 1.332 1_565 S
C715 C714 1.382 . S
C715 H725 0.948 . S
N716 Co694 2.282 . S
N716 C720 1.332 . S
N716 C721 1.332 . S
C717 C718 1.388 . S
C717 C721 1.382 . S
C717 H740 0.950 . S
C718 C717 1.388 . S
C718 C719 1.386 . S
C719 C718 1.386 . S
C719 C720 1.382 . S
C719 H741 0.950 1_545 S
C720 N716 1.332 . S
C720 C719 1.382 . S
C720 H722 0.952 1_545 S
C721 N716 1.332 . S
C721 C717 1.382 . S
C721 H723 0.948 . S
H722 C720 0.952 1_565 S
H723 C721 0.948 . S
H724 C713 0.952 . S
H725 C715 0.948 . S
C726 C692 1.395 . S
C726 C696 1.391 . S
C727 C689 1.389 . S
C727 C709 1.392 . S
C728 C699 1.392 . S
C728 C701 1.389 1_565 S
C729 C704 1.395 . S
C729 C706 1.391 . S
H730 C690 0.951 . S
H731 C691 0.950 . S
H732 C697 0.949 . S
H733 C698 0.950 . S
H734 C702 0.951 . S
H735 C703 0.950 . S
H736 C707 0.949 . S
H737 C708 0.950 . S
H738 C712 0.950 . S
H739 C714 0.950 . S
H740 C717 0.950 . S
H741 C719 0.950 1_565 S
C742 C743 1.443 . S
C742 N746 1.376 . S
C742 C780 1.389 . S
C743 C742 1.443 . S
C743 C744 1.340 . S
C743 H783 0.951 . S
C744 C743 1.340 . S
C744 C745 1.439 . S
C744 H784 0.950 . S
C745 C744 1.439 . S
C745 N746 1.374 . S
C745 C779 1.395 . S
N746 C742 1.376 . S
N746 C745 1.374 . S
N746 Co747 2.008 . S
Co747 N746 2.008 . S
Co747 N748 1.995 . S
Co747 N753 2.008 . S
Co747 N758 1.995 . S
Co747 N763 2.282 . S
Co747 N769 2.282 . S
N748 Co747 1.995 . S
N748 C749 1.376 . S
N748 C752 1.383 . S
C749 N748 1.376 . S
C749 C750 1.446 . S
C749 C779 1.391 . S
C750 C749 1.446 . S
C750 C751 1.339 . S
C750 H785 0.949 . S
C751 C750 1.339 . S
C751 C752 1.439 . S
C751 H786 0.950 . S
C752 N748 1.383 . S
C752 C751 1.439 . S
C752 C781 1.392 . S
N753 Co747 2.008 . S
N753 C754 1.376 . S
N753 C757 1.374 . S
C754 N753 1.376 . S
C754 C755 1.443 . S
C754 C781 1.389 . S
C755 C754 1.443 . S
C755 C756 1.340 . S
C755 H787 0.951 . S
C756 C755 1.340 . S
C756 C757 1.439 . S
C756 H788 0.950 . S
C757 N753 1.374 . S
C757 C756 1.439 . S
C757 C782 1.395 . S
N758 Co747 1.995 . S
N758 C759 1.376 . S
N758 C762 1.383 . S
C759 N758 1.376 . S
C759 C760 1.446 . S
C759 C782 1.391 . S
C760 C759 1.446 . S
C760 C761 1.339 . S
C760 H789 0.949 . S
C761 C760 1.339 . S
C761 C762 1.439 . S
C761 H790 0.950 . S
C762 N758 1.383 . S
C762 C761 1.439 . S
C762 C780 1.392 . S
N763 Co747 2.282 . S
N763 C766 1.332 . S
N763 C768 1.332 . S
C764 C765 1.386 . S
C764 C767 1.388 . S
C765 C764 1.386 . S
C765 C766 1.382 . S
C765 H791 0.950 . S
C766 N763 1.332 . S
C766 C765 1.382 . S
C766 H777 0.952 . S
C767 C764 1.388 . S
C767 C768 1.382 . S
C767 H792 0.950 . S
C768 N763 1.332 . S
C768 C767 1.382 . S
C768 H778 0.948 . S
N769 Co747 2.282 . S
N769 C773 1.332 . S
N769 C774 1.332 . S
C770 C771 1.388 . S
C770 C774 1.382 . S
C770 H793 0.950 . S
C771 C770 1.388 . S
C771 C772 1.386 . S
C772 C771 1.386 . S
C772 C773 1.382 . S
C772 H794 0.950 . S
C773 N769 1.332 . S
C773 C772 1.382 . S
C773 H775 0.952 . S
C774 N769 1.332 . S
C774 C770 1.382 . S
C774 H776 0.948 . S
H775 C773 0.952 . S
H776 C774 0.948 . S
H777 C766 0.952 . S
H778 C768 0.948 . S
C779 C745 1.395 . S
C779 C749 1.391 . S
C780 C742 1.389 . S
C780 C762 1.392 . S
C781 C752 1.392 . S
C781 C754 1.389 . S
C782 C757 1.395 . S
C782 C759 1.391 . S
H783 C743 0.951 . S
H784 C744 0.950 . S
H785 C750 0.949 . S
H786 C751 0.950 . S
H787 C755 0.951 . S
H788 C756 0.950 . S
H789 C760 0.949 . S
H790 C761 0.950 . S
H791 C765 0.950 . S
H792 C767 0.950 . S
H793 C770 0.950 . S
H794 C772 0.950 . S
C795 C796 1.443 . S
C795 N799 1.376 . S
C795 C833 1.389 . S
C796 C795 1.443 . S
C796 C797 1.340 1_565 S
C796 H836 0.951 . S
C797 C796 1.340 1_545 S
C797 C798 1.439 . S
C797 H837 0.950 . S
C798 C797 1.439 . S
C798 N799 1.374 1_545 S
C798 C832 1.395 . S
N799 C795 1.376 . S
N799 C798 1.374 1_565 S
N799 Co800 2.008 . S
Co800 N799 2.008 . S
Co800 N801 1.995 1_565 S
Co800 N806 2.008 . S
Co800 N811 1.995 . S
Co800 N816 2.282 . S
Co800 N822 2.282 . S
N801 Co800 1.995 1_545 S
N801 C802 1.376 . S
N801 C805 1.383 . S
C802 N801 1.376 . S
C802 C803 1.446 . S
C802 C832 1.391 . S
C803 C802 1.446 . S
C803 C804 1.339 . S
C803 H838 0.949 . S
C804 C803 1.339 . S
C804 C805 1.439 . S
C804 H839 0.950 . S
C805 N801 1.383 . S
C805 C804 1.439 . S
C805 C834 1.392 . S
N806 Co800 2.008 . S
N806 C807 1.376 . S
N806 C810 1.374 . S
C807 N806 1.376 . S
C807 C808 1.443 . S
C807 C834 1.389 1_565 S
C808 C807 1.443 . S
C808 C809 1.340 . S
C808 H840 0.951 . S
C809 C808 1.340 . S
C809 C810 1.439 . S
C809 H841 0.950 . S
C810 N806 1.374 . S
C810 C809 1.439 . S
C810 C835 1.395 . S
N811 Co800 1.995 . S
N811 C812 1.376 . S
N811 C815 1.383 . S
C812 N811 1.376 . S
C812 C813 1.446 . S
C812 C835 1.391 . S
C813 C812 1.446 . S
C813 C814 1.339 . S
C813 H842 0.949 . S
C814 C813 1.339 . S
C814 C815 1.439 . S
C814 H843 0.950 . S
C815 N811 1.383 . S
C815 C814 1.439 . S
C815 C833 1.392 . S
N816 Co800 2.282 . S
N816 C819 1.332 . S
N816 C821 1.332 1_565 S
C817 C818 1.386 . S
C817 C820 1.388 1_565 S
C818 C817 1.386 . S
C818 C819 1.382 . S
C818 H844 0.950 . S
C819 N816 1.332 . S
C819 C818 1.382 . S
C819 H830 0.952 . S
C820 C817 1.388 1_545 S
C820 C821 1.382 . S
C820 H845 0.950 . S
C821 N816 1.332 1_545 S
C821 C820 1.382 . S
C821 H831 0.948 . S
N822 Co800 2.282 . S
N822 C826 1.332 . S
N822 C827 1.332 . S
C823 C824 1.393 . S
C823 C827 1.382 . S
C823 H846 0.950 . S
C824 C823 1.393 . S
C824 C825 1.392 . S
C825 C824 1.392 . S
C825 C826 1.382 . S
C825 H847 0.950 1_565 S
C826 N822 1.332 . S
C826 C825 1.382 . S
C826 H828 0.952 1_565 S
C827 N822 1.332 . S
C827 C823 1.382 . S
C827 H829 0.948 . S
H828 C826 0.952 1_545 S
H829 C827 0.948 . S
H830 C819 0.952 . S
H831 C821 0.948 . S
C832 C798 1.395 . S
C832 C802 1.391 . S
C833 C795 1.389 . S
C833 C815 1.392 . S
C834 C805 1.392 . S
C834 C807 1.389 1_545 S
C835 C810 1.395 . S
C835 C812 1.391 . S
H836 C796 0.951 . S
H837 C797 0.950 . S
H838 C803 0.949 . S
H839 C804 0.950 . S
H840 C808 0.951 . S
H841 C809 0.950 . S
H842 C813 0.949 . S
H843 C814 0.950 . S
H844 C818 0.950 . S
H845 C820 0.950 . S
H846 C823 0.950 . S
H847 C825 0.950 1_545 S
C848 C849 1.443 . S
C848 N852 1.376 . S
C848 C886 1.389 . S
C849 C848 1.443 . S
C849 C850 1.340 . S
C849 H889 0.951 . S
C850 C849 1.340 . S
C850 C851 1.439 . S
C850 H890 0.950 . S
C851 C850 1.439 . S
C851 N852 1.374 . S
C851 C885 1.395 . S
N852 C848 1.376 . S
N852 C851 1.374 . S
N852 Co853 2.008 . S
Co853 N852 2.008 . S
Co853 N854 1.995 . S
Co853 N859 2.008 . S
Co853 N864 1.995 . S
Co853 N869 2.282 . S
Co853 N875 2.282 . S
N854 Co853 1.995 . S
N854 C855 1.376 . S
N854 C858 1.383 . S
C855 N854 1.376 . S
C855 C856 1.446 . S
C855 C885 1.391 . S
C856 C855 1.446 . S
C856 C857 1.339 . S
C856 H891 0.949 . S
C857 C856 1.339 . S
C857 C858 1.439 . S
C857 H892 0.950 . S
C858 N854 1.383 . S
C858 C857 1.439 . S
C858 C887 1.392 . S
N859 Co853 2.008 . S
N859 C860 1.376 . S
N859 C863 1.374 . S
C860 N859 1.376 . S
C860 C861 1.443 . S
C860 C887 1.389 . S
C861 C860 1.443 . S
C861 C862 1.340 . S
C861 H893 0.951 . S
C862 C861 1.340 . S
C862 C863 1.439 . S
C862 H894 0.950 . S
C863 N859 1.374 . S
C863 C862 1.439 . S
C863 C888 1.395 . S
N864 Co853 1.995 . S
N864 C865 1.376 . S
N864 C868 1.383 . S
C865 N864 1.376 . S
C865 C866 1.446 . S
C865 C888 1.391 . S
C866 C865 1.446 . S
C866 C867 1.339 . S
C866 H895 0.949 . S
C867 C866 1.339 . S
C867 C868 1.439 . S
C867 H896 0.950 . S
C868 N864 1.383 . S
C868 C867 1.439 . S
C868 C886 1.392 . S
N869 Co853 2.282 . S
N869 C872 1.332 . S
N869 C874 1.332 . S
C870 C871 1.386 . S
C870 C873 1.388 . S
C871 C870 1.386 . S
C871 C872 1.382 . S
C871 H897 0.950 . S
C872 N869 1.332 . S
C872 C871 1.382 . S
C872 H883 0.952 . S
C873 C870 1.388 . S
C873 C874 1.382 . S
C873 H898 0.950 . S
C874 N869 1.332 . S
C874 C873 1.382 . S
C874 H884 0.948 . S
N875 Co853 2.282 . S
N875 C879 1.332 . S
N875 C880 1.332 . S
C876 C877 1.388 . S
C876 C880 1.382 . S
C876 H899 0.950 . S
C877 C876 1.388 . S
C877 C878 1.386 . S
C878 C877 1.386 . S
C878 C879 1.382 . S
C878 H900 0.950 . S
C879 N875 1.332 . S
C879 C878 1.382 . S
C879 H881 0.952 . S
C880 N875 1.332 . S
C880 C876 1.382 . S
C880 H882 0.948 . S
H881 C879 0.952 . S
H882 C880 0.948 . S
H883 C872 0.952 . S
H884 C874 0.948 . S
C885 C851 1.395 . S
C885 C855 1.391 . S
C886 C848 1.389 . S
C886 C868 1.392 . S
C887 C858 1.392 . S
C887 C860 1.389 . S
C888 C863 1.395 . S
C888 C865 1.391 . S
H889 C849 0.951 . S
H890 C850 0.950 . S
H891 C856 0.949 . S
H892 C857 0.950 . S
H893 C861 0.951 . S
H894 C862 0.950 . S
H895 C866 0.949 . S
H896 C867 0.950 . S
H897 C871 0.950 . S
H898 C873 0.950 . S
H899 C876 0.950 . S
H900 C878 0.950 . S
C901 C902 1.443 . S
C901 N905 1.376 . S
C901 C939 1.389 . S
C902 C901 1.443 . S
C902 C903 1.340 . S
C902 H942 0.951 . S
C903 C902 1.340 . S
C903 C904 1.439 . S
C903 H943 0.950 . S
C904 C903 1.439 . S
C904 N905 1.374 . S
C904 C938 1.395 . S
N905 C901 1.376 . S
N905 C904 1.374 . S
N905 Co906 2.008 . S
Co906 N905 2.008 . S
Co906 N907 1.995 . S
Co906 N912 2.008 . S
Co906 N917 1.995 . S
Co906 N922 2.282 . S
Co906 N928 2.282 . S
N907 Co906 1.995 . S
N907 C908 1.376 . S
N907 C911 1.383 . S
C908 N907 1.376 . S
C908 C909 1.446 . S
C908 C938 1.391 . S
C909 C908 1.446 . S
C909 C910 1.339 . S
C909 H944 0.949 . S
C910 C909 1.339 . S
C910 C911 1.439 . S
C910 H945 0.950 . S
C911 N907 1.383 . S
C911 C910 1.439 . S
C911 C940 1.392 . S
N912 Co906 2.008 . S
N912 C913 1.376 . S
N912 C916 1.374 . S
C913 N912 1.376 . S
C913 C914 1.443 . S
C913 C940 1.389 . S
C914 C913 1.443 . S
C914 C915 1.340 . S
C914 H946 0.951 . S
C915 C914 1.340 . S
C915 C916 1.439 . S
C915 H947 0.950 . S
C916 N912 1.374 . S
C916 C915 1.439 . S
C916 C941 1.395 . S
N917 Co906 1.995 . S
N917 C918 1.376 . S
N917 C921 1.383 . S
C918 N917 1.376 . S
C918 C919 1.446 . S
C918 C941 1.391 . S
C919 C918 1.446 . S
C919 C920 1.339 . S
C919 H948 0.949 . S
C920 C919 1.339 . S
C920 C921 1.439 . S
C920 H949 0.950 . S
C921 N917 1.383 . S
C921 C920 1.439 . S
C921 C939 1.392 . S
N922 Co906 2.282 . S
N922 C925 1.332 . S
N922 C927 1.332 . S
C923 C924 1.386 . S
C923 C926 1.388 . S
C924 C923 1.386 . S
C924 C925 1.382 . S
C924 H950 0.950 . S
C925 N922 1.332 . S
C925 C924 1.382 . S
C925 H936 0.952 . S
C926 C923 1.388 . S
C926 C927 1.382 . S
C926 H951 0.950 . S
C927 N922 1.332 . S
C927 C926 1.382 . S
C927 H937 0.948 . S
N928 Co906 2.282 . S
N928 C932 1.332 . S
N928 C933 1.332 . S
C929 C930 1.388 . S
C929 C933 1.382 . S
C929 H952 0.950 . S
C930 C929 1.388 . S
C930 C931 1.386 . S
C931 C930 1.386 . S
C931 C932 1.382 . S
C931 H953 0.950 . S
C932 N928 1.332 . S
C932 C931 1.382 . S
C932 H934 0.952 . S
C933 N928 1.332 . S
C933 C929 1.382 . S
C933 H935 0.948 . S
H934 C932 0.952 . S
H935 C933 0.948 . S
H936 C925 0.952 . S
H937 C927 0.948 . S
C938 C904 1.395 . S
C938 C908 1.391 . S
C939 C901 1.389 . S
C939 C921 1.392 . S
C940 C911 1.392 . S
C940 C913 1.389 . S
C941 C916 1.395 . S
C941 C918 1.391 . S
H942 C902 0.951 . S
H943 C903 0.950 . S
H944 C909 0.949 . S
H945 C910 0.950 . S
H946 C914 0.951 . S
H947 C915 0.950 . S
H948 C919 0.949 . S
H949 C920 0.950 . S
H950 C924 0.950 . S
H951 C926 0.950 . S
H952 C929 0.950 . S
H953 C931 0.950 . S
C954 C955 1.443 . S
C954 N958 1.376 . S
C954 C992 1.389 . S
C955 C954 1.443 . S
C955 C956 1.340 . S
C955 H995 0.951 . S
C956 C955 1.340 . S
C956 C957 1.439 . S
C956 H996 0.950 . S
C957 C956 1.439 . S
C957 N958 1.374 . S
C957 C991 1.395 . S
N958 C954 1.376 . S
N958 C957 1.374 . S
N958 Co959 2.008 . S
Co959 N958 2.008 . S
Co959 N960 1.995 . S
Co959 N965 2.008 . S
Co959 N970 1.995 . S
Co959 N975 2.282 . S
Co959 N981 2.282 . S
N960 Co959 1.995 . S
N960 C961 1.376 . S
N960 C964 1.383 . S
C961 N960 1.376 . S
C961 C962 1.446 . S
C961 C991 1.391 . S
C962 C961 1.446 . S
C962 C963 1.339 . S
C962 H997 0.949 . S
C963 C962 1.339 . S
C963 C964 1.439 . S
C963 H998 0.950 . S
C964 N960 1.383 . S
C964 C963 1.439 . S
C964 C993 1.392 . S
N965 Co959 2.008 . S
N965 C966 1.376 . S
N965 C969 1.374 . S
C966 N965 1.376 . S
C966 C967 1.443 . S
C966 C993 1.389 . S
C967 C966 1.443 . S
C967 C968 1.340 . S
C967 H999 0.951 . S
C968 C967 1.340 . S
C968 C969 1.439 . S
C968 H1000 0.950 . S
C969 N965 1.374 . S
C969 C968 1.439 . S
C969 C994 1.395 . S
N970 Co959 1.995 . S
N970 C971 1.376 . S
N970 C974 1.383 . S
C971 N970 1.376 . S
C971 C972 1.446 . S
C971 C994 1.391 . S
C972 C971 1.446 . S
C972 C973 1.339 . S
C972 H1001 0.949 . S
C973 C972 1.339 . S
C973 C974 1.439 . S
C973 H1002 0.950 . S
C974 N970 1.383 . S
C974 C973 1.439 . S
C974 C992 1.392 . S
N975 Co959 2.282 . S
N975 C978 1.332 . S
N975 C980 1.332 . S
C976 C977 1.386 . S
C976 C979 1.388 . S
C977 C976 1.386 . S
C977 C978 1.382 . S
C977 H1003 0.950 . S
C978 N975 1.332 . S
C978 C977 1.382 . S
C978 H989 0.952 . S
C979 C976 1.388 . S
C979 C980 1.382 . S
C979 H1004 0.950 . S
C980 N975 1.332 . S
C980 C979 1.382 . S
C980 H990 0.948 . S
N981 Co959 2.282 . S
N981 C985 1.332 . S
N981 C986 1.332 . S
C982 C983 1.388 . S
C982 C986 1.382 . S
C982 H1005 0.950 . S
C983 C982 1.388 . S
C983 C984 1.386 . S
C984 C983 1.386 . S
C984 C985 1.382 . S
C984 H1006 0.950 . S
C985 N981 1.332 . S
C985 C984 1.382 . S
C985 H987 0.952 . S
C986 N981 1.332 . S
C986 C982 1.382 . S
C986 H988 0.948 . S
H987 C985 0.952 . S
H988 C986 0.948 . S
H989 C978 0.952 . S
H990 C980 0.948 . S
C991 C957 1.395 . S
C991 C961 1.391 . S
C992 C954 1.389 . S
C992 C974 1.392 . S
C993 C964 1.392 . S
C993 C966 1.389 . S
C994 C969 1.395 . S
C994 C971 1.391 . S
H995 C955 0.951 . S
H996 C956 0.950 . S
H997 C962 0.949 . S
H998 C963 0.950 . S
H999 C967 0.951 . S
H1000 C968 0.950 . S
H1001 C972 0.949 . S
H1002 C973 0.950 . S
H1003 C977 0.950 . S
H1004 C979 0.950 . S
H1005 C982 0.950 . S
H1006 C984 0.950 . S
C1007 C1008 1.443 . S
C1007 N1011 1.376 . S
C1007 C1045 1.389 . S
C1008 C1007 1.443 . S
C1008 C1009 1.340 . S
C1008 H1048 0.951 . S
C1009 C1008 1.340 . S
C1009 C1010 1.439 . S
C1009 H1049 0.950 . S
C1010 C1009 1.439 . S
C1010 N1011 1.374 . S
C1010 C1044 1.395 . S
N1011 C1007 1.376 . S
N1011 C1010 1.374 . S
N1011 Co1012 2.008 . S
Co1012 N1011 2.008 . S
Co1012 N1013 1.995 . S
Co1012 N1018 2.008 . S
Co1012 N1023 1.995 . S
Co1012 N1028 2.282 . S
Co1012 N1034 2.282 . S
N1013 Co1012 1.995 . S
N1013 C1014 1.376 . S
N1013 C1017 1.383 . S
C1014 N1013 1.376 . S
C1014 C1015 1.446 . S
C1014 C1044 1.391 . S
C1015 C1014 1.446 . S
C1015 C1016 1.339 . S
C1015 H1050 0.949 . S
C1016 C1015 1.339 . S
C1016 C1017 1.439 . S
C1016 H1051 0.950 . S
C1017 N1013 1.383 . S
C1017 C1016 1.439 . S
C1017 C1046 1.392 . S
N1018 Co1012 2.008 . S
N1018 C1019 1.376 . S
N1018 C1022 1.374 . S
C1019 N1018 1.376 . S
C1019 C1020 1.443 . S
C1019 C1046 1.389 . S
C1020 C1019 1.443 . S
C1020 C1021 1.340 . S
C1020 H1052 0.951 . S
C1021 C1020 1.340 . S
C1021 C1022 1.439 . S
C1021 H1053 0.950 . S
C1022 N1018 1.374 . S
C1022 C1021 1.439 . S
C1022 C1047 1.395 . S
N1023 Co1012 1.995 . S
N1023 C1024 1.376 . S
N1023 C1027 1.383 . S
C1024 N1023 1.376 . S
C1024 C1025 1.446 . S
C1024 C1047 1.391 . S
C1025 C1024 1.446 . S
C1025 C1026 1.339 . S
C1025 H1054 0.949 . S
C1026 C1025 1.339 . S
C1026 C1027 1.439 . S
C1026 H1055 0.950 . S
C1027 N1023 1.383 . S
C1027 C1026 1.439 . S
C1027 C1045 1.392 . S
N1028 Co1012 2.282 . S
N1028 C1031 1.332 . S
N1028 C1033 1.332 . S
C1029 C1030 1.386 . S
C1029 C1032 1.388 . S
C1030 C1029 1.386 . S
C1030 C1031 1.382 . S
C1030 H1056 0.950 . S
C1031 N1028 1.332 . S
C1031 C1030 1.382 . S
C1031 H1042 0.952 . S
C1032 C1029 1.388 . S
C1032 C1033 1.382 . S
C1032 H1057 0.950 . S
C1033 N1028 1.332 . S
C1033 C1032 1.382 . S
C1033 H1043 0.948 . S
N1034 Co1012 2.282 . S
N1034 C1038 1.332 . S
N1034 C1039 1.332 . S
C1035 C1036 1.388 . S
C1035 C1039 1.382 . S
C1035 H1058 0.950 . S
C1036 C1035 1.388 . S
C1036 C1037 1.386 . S
C1037 C1036 1.386 . S
C1037 C1038 1.382 . S
C1037 H1059 0.950 . S
C1038 N1034 1.332 . S
C1038 C1037 1.382 . S
C1038 H1040 0.952 . S
C1039 N1034 1.332 . S
C1039 C1035 1.382 . S
C1039 H1041 0.948 . S
H1040 C1038 0.952 . S
H1041 C1039 0.948 . S
H1042 C1031 0.952 . S
H1043 C1033 0.948 . S
C1044 C1010 1.395 . S
C1044 C1014 1.391 . S
C1045 C1007 1.389 . S
C1045 C1027 1.392 . S
C1046 C1017 1.392 . S
C1046 C1019 1.389 . S
C1047 C1022 1.395 . S
C1047 C1024 1.391 . S
H1048 C1008 0.951 . S
H1049 C1009 0.950 . S
H1050 C1015 0.949 . S
H1051 C1016 0.950 . S
H1052 C1020 0.951 . S
H1053 C1021 0.950 . S
H1054 C1025 0.949 . S
H1055 C1026 0.950 . S
H1056 C1030 0.950 . S
H1057 C1032 0.950 . S
H1058 C1035 0.950 . S
H1059 C1037 0.950 . S
C1060 C1061 1.443 . S
C1060 N1064 1.376 . S
C1060 C1098 1.389 . S
C1061 C1060 1.443 . S
C1061 C1062 1.340 . S
C1061 H1101 0.951 . S
C1062 C1061 1.340 . S
C1062 C1063 1.439 . S
C1062 H1102 0.950 . S
C1063 C1062 1.439 . S
C1063 N1064 1.374 . S
C1063 C1097 1.395 . S
N1064 C1060 1.376 . S
N1064 C1063 1.374 . S
N1064 Co1065 2.008 . S
Co1065 N1064 2.008 . S
Co1065 N1066 1.995 . S
Co1065 N1071 2.008 . S
Co1065 N1076 1.995 . S
Co1065 N1081 2.282 . S
Co1065 N1087 2.282 . S
N1066 Co1065 1.995 . S
N1066 C1067 1.376 . S
N1066 C1070 1.383 . S
C1067 N1066 1.376 . S
C1067 C1068 1.446 . S
C1067 C1097 1.391 . S
C1068 C1067 1.446 . S
C1068 C1069 1.339 . S
C1068 H1103 0.949 . S
C1069 C1068 1.339 . S
C1069 C1070 1.439 . S
C1069 H1104 0.950 . S
C1070 N1066 1.383 . S
C1070 C1069 1.439 . S
C1070 C1099 1.392 . S
N1071 Co1065 2.008 . S
N1071 C1072 1.376 . S
N1071 C1075 1.374 . S
C1072 N1071 1.376 . S
C1072 C1073 1.443 . S
C1072 C1099 1.389 . S
C1073 C1072 1.443 . S
C1073 C1074 1.340 . S
C1073 H1105 0.951 . S
C1074 C1073 1.340 . S
C1074 C1075 1.439 . S
C1074 H1106 0.950 . S
C1075 N1071 1.374 . S
C1075 C1074 1.439 . S
C1075 C1100 1.395 . S
N1076 Co1065 1.995 . S
N1076 C1077 1.376 . S
N1076 C1080 1.383 . S
C1077 N1076 1.376 . S
C1077 C1078 1.446 . S
C1077 C1100 1.391 . S
C1078 C1077 1.446 . S
C1078 C1079 1.339 . S
C1078 H1107 0.949 . S
C1079 C1078 1.339 . S
C1079 C1080 1.439 . S
C1079 H1108 0.950 . S
C1080 N1076 1.383 . S
C1080 C1079 1.439 . S
C1080 C1098 1.392 . S
N1081 Co1065 2.282 . S
N1081 C1084 1.332 . S
N1081 C1086 1.332 . S
C1082 C1083 1.386 . S
C1082 C1085 1.388 . S
C1083 C1082 1.386 . S
C1083 C1084 1.382 . S
C1083 H1109 0.950 . S
C1084 N1081 1.332 . S
C1084 C1083 1.382 . S
C1084 H1095 0.952 . S
C1085 C1082 1.388 . S
C1085 C1086 1.382 . S
C1085 H1110 0.950 . S
C1086 N1081 1.332 . S
C1086 C1085 1.382 . S
C1086 H1096 0.948 . S
N1087 Co1065 2.282 . S
N1087 C1091 1.332 . S
N1087 C1092 1.332 . S
C1088 C1089 1.388 . S
C1088 C1092 1.382 . S
C1088 H1111 0.950 . S
C1089 C1088 1.388 . S
C1089 C1090 1.386 . S
C1090 C1089 1.386 . S
C1090 C1091 1.382 . S
C1090 H1112 0.950 . S
C1091 N1087 1.332 . S
C1091 C1090 1.382 . S
C1091 H1093 0.952 . S
C1092 N1087 1.332 . S
C1092 C1088 1.382 . S
C1092 H1094 0.948 . S
H1093 C1091 0.952 . S
H1094 C1092 0.948 . S
H1095 C1084 0.952 . S
H1096 C1086 0.948 . S
C1097 C1063 1.395 . S
C1097 C1067 1.391 . S
C1098 C1060 1.389 . S
C1098 C1080 1.392 . S
C1099 C1070 1.392 . S
C1099 C1072 1.389 . S
C1100 C1075 1.395 . S
C1100 C1077 1.391 . S
H1101 C1061 0.951 . S
H1102 C1062 0.950 . S
H1103 C1068 0.949 . S
H1104 C1069 0.950 . S
H1105 C1073 0.951 . S
H1106 C1074 0.950 . S
H1107 C1078 0.949 . S
H1108 C1079 0.950 . S
H1109 C1083 0.950 . S
H1110 C1085 0.950 . S
H1111 C1088 0.950 . S
H1112 C1090 0.950 . S
C1113 C1114 1.443 . S
C1113 N1117 1.376 . S
C1113 C1151 1.389 . S
C1114 C1113 1.443 . S
C1114 C1115 1.340 . S
C1114 H1154 0.951 . S
C1115 C1114 1.340 . S
C1115 C1116 1.439 . S
C1115 H1155 0.950 . S
C1116 C1115 1.439 . S
C1116 N1117 1.374 . S
C1116 C1150 1.395 . S
N1117 C1113 1.376 . S
N1117 C1116 1.374 . S
N1117 Co1118 2.008 . S
Co1118 N1117 2.008 . S
Co1118 N1119 1.995 . S
Co1118 N1124 2.008 . S
Co1118 N1129 1.995 . S
Co1118 N1134 2.282 . S
Co1118 N1140 2.282 . S
N1119 Co1118 1.995 . S
N1119 C1120 1.376 . S
N1119 C1123 1.383 . S
C1120 N1119 1.376 . S
C1120 C1121 1.446 . S
C1120 C1150 1.391 . S
C1121 C1120 1.446 . S
C1121 C1122 1.339 . S
C1121 H1156 0.949 . S
C1122 C1121 1.339 . S
C1122 C1123 1.439 . S
C1122 H1157 0.950 . S
C1123 N1119 1.383 . S
C1123 C1122 1.439 . S
C1123 C1152 1.392 . S
N1124 Co1118 2.008 . S
N1124 C1125 1.376 . S
N1124 C1128 1.374 . S
C1125 N1124 1.376 . S
C1125 C1126 1.443 . S
C1125 C1152 1.389 . S
C1126 C1125 1.443 . S
C1126 C1127 1.340 . S
C1126 H1158 0.951 . S
C1127 C1126 1.340 . S
C1127 C1128 1.439 . S
C1127 H1159 0.950 . S
C1128 N1124 1.374 . S
C1128 C1127 1.439 . S
C1128 C1153 1.395 . S
N1129 Co1118 1.995 . S
N1129 C1130 1.376 . S
N1129 C1133 1.383 . S
C1130 N1129 1.376 . S
C1130 C1131 1.446 . S
C1130 C1153 1.391 . S
C1131 C1130 1.446 . S
C1131 C1132 1.339 . S
C1131 H1160 0.949 . S
C1132 C1131 1.339 . S
C1132 C1133 1.439 . S
C1132 H1161 0.950 . S
C1133 N1129 1.383 . S
C1133 C1132 1.439 . S
C1133 C1151 1.392 . S
N1134 Co1118 2.282 . S
N1134 C1137 1.332 . S
N1134 C1139 1.332 . S
C1135 C1136 1.386 . S
C1135 C1138 1.388 . S
C1136 C1135 1.386 . S
C1136 C1137 1.382 . S
C1136 H1162 0.950 . S
C1137 N1134 1.332 . S
C1137 C1136 1.382 . S
C1137 H1148 0.952 . S
C1138 C1135 1.388 . S
C1138 C1139 1.382 . S
C1138 H1163 0.950 . S
C1139 N1134 1.332 . S
C1139 C1138 1.382 . S
C1139 H1149 0.948 . S
N1140 Co1118 2.282 . S
N1140 C1144 1.332 . S
N1140 C1145 1.332 . S
C1141 C1142 1.388 . S
C1141 C1145 1.382 . S
C1141 H1164 0.950 . S
C1142 C1141 1.388 . S
C1142 C1143 1.386 . S
C1143 C1142 1.386 . S
C1143 C1144 1.382 . S
C1143 H1165 0.950 . S
C1144 N1140 1.332 . S
C1144 C1143 1.382 . S
C1144 H1146 0.952 . S
C1145 N1140 1.332 . S
C1145 C1141 1.382 . S
C1145 H1147 0.948 . S
H1146 C1144 0.952 . S
H1147 C1145 0.948 . S
H1148 C1137 0.952 . S
H1149 C1139 0.948 . S
C1150 C1116 1.395 . S
C1150 C1120 1.391 . S
C1151 C1113 1.389 . S
C1151 C1133 1.392 . S
C1152 C1123 1.392 . S
C1152 C1125 1.389 . S
C1153 C1128 1.395 . S
C1153 C1130 1.391 . S
H1154 C1114 0.951 . S
H1155 C1115 0.950 . S
H1156 C1121 0.949 . S
H1157 C1122 0.950 . S
H1158 C1126 0.951 . S
H1159 C1127 0.950 . S
H1160 C1131 0.949 . S
H1161 C1132 0.950 . S
H1162 C1136 0.950 . S
H1163 C1138 0.950 . S
H1164 C1141 0.950 . S
H1165 C1143 0.950 . S
C1166 C1167 1.443 . S
C1166 N1170 1.376 . S
C1166 C1204 1.389 . S
C1167 C1166 1.443 . S
C1167 C1168 1.340 . S
C1167 H1207 0.951 . S
C1168 C1167 1.340 . S
C1168 C1169 1.439 . S
C1168 H1208 0.950 . S
C1169 C1168 1.439 . S
C1169 N1170 1.374 . S
C1169 C1203 1.395 . S
N1170 C1166 1.376 . S
N1170 C1169 1.374 . S
N1170 Co1171 2.008 . S
Co1171 N1170 2.008 . S
Co1171 N1172 1.995 . S
Co1171 N1177 2.008 . S
Co1171 N1182 1.995 . S
Co1171 N1187 2.282 . S
Co1171 N1193 2.282 . S
N1172 Co1171 1.995 . S
N1172 C1173 1.376 . S
N1172 C1176 1.383 . S
C1173 N1172 1.376 . S
C1173 C1174 1.446 . S
C1173 C1203 1.391 . S
C1174 C1173 1.446 . S
C1174 C1175 1.339 . S
C1174 H1209 0.949 . S
C1175 C1174 1.339 . S
C1175 C1176 1.439 . S
C1175 H1210 0.950 . S
C1176 N1172 1.383 . S
C1176 C1175 1.439 . S
C1176 C1205 1.392 . S
N1177 Co1171 2.008 . S
N1177 C1178 1.376 . S
N1177 C1181 1.374 . S
C1178 N1177 1.376 . S
C1178 C1179 1.443 . S
C1178 C1205 1.389 . S
C1179 C1178 1.443 . S
C1179 C1180 1.340 . S
C1179 H1211 0.951 . S
C1180 C1179 1.340 . S
C1180 C1181 1.439 . S
C1180 H1212 0.950 . S
C1181 N1177 1.374 . S
C1181 C1180 1.439 . S
C1181 C1206 1.395 . S
N1182 Co1171 1.995 . S
N1182 C1183 1.376 . S
N1182 C1186 1.383 . S
C1183 N1182 1.376 . S
C1183 C1184 1.446 . S
C1183 C1206 1.391 . S
C1184 C1183 1.446 . S
C1184 C1185 1.339 . S
C1184 H1213 0.949 . S
C1185 C1184 1.339 . S
C1185 C1186 1.439 . S
C1185 H1214 0.950 . S
C1186 N1182 1.383 . S
C1186 C1185 1.439 . S
C1186 C1204 1.392 . S
N1187 Co1171 2.282 . S
N1187 C1190 1.332 . S
N1187 C1192 1.332 . S
C1188 C1189 1.386 . S
C1188 C1191 1.388 . S
C1189 C1188 1.386 . S
C1189 C1190 1.382 . S
C1189 H1215 0.950 . S
C1190 N1187 1.332 . S
C1190 C1189 1.382 . S
C1190 H1201 0.952 . S
C1191 C1188 1.388 . S
C1191 C1192 1.382 . S
C1191 H1216 0.950 . S
C1192 N1187 1.332 . S
C1192 C1191 1.382 . S
C1192 H1202 0.948 . S
N1193 Co1171 2.282 . S
N1193 C1197 1.332 . S
N1193 C1198 1.332 . S
C1194 C1195 1.388 . S
C1194 C1198 1.382 . S
C1194 H1217 0.950 . S
C1195 C1194 1.388 . S
C1195 C1196 1.386 . S
C1196 C1195 1.386 . S
C1196 C1197 1.382 . S
C1196 H1218 0.950 . S
C1197 N1193 1.332 . S
C1197 C1196 1.382 . S
C1197 H1199 0.952 . S
C1198 N1193 1.332 . S
C1198 C1194 1.382 . S
C1198 H1200 0.948 . S
H1199 C1197 0.952 . S
H1200 C1198 0.948 . S
H1201 C1190 0.952 . S
H1202 C1192 0.948 . S
C1203 C1169 1.395 . S
C1203 C1173 1.391 . S
C1204 C1166 1.389 . S
C1204 C1186 1.392 . S
C1205 C1176 1.392 . S
C1205 C1178 1.389 . S
C1206 C1181 1.395 . S
C1206 C1183 1.391 . S
H1207 C1167 0.951 . S
H1208 C1168 0.950 . S
H1209 C1174 0.949 . S
H1210 C1175 0.950 . S
H1211 C1179 0.951 . S
H1212 C1180 0.950 . S
H1213 C1184 0.949 . S
H1214 C1185 0.950 . S
H1215 C1189 0.950 . S
H1216 C1191 0.950 . S
H1217 C1194 0.950 . S
H1218 C1196 0.950 . S
C1219 C1220 1.443 . S
C1219 N1223 1.376 . S
C1219 C1257 1.389 . S
C1220 C1219 1.443 . S
C1220 C1221 1.340 . S
C1220 H1260 0.951 . S
C1221 C1220 1.340 . S
C1221 C1222 1.439 . S
C1221 H1261 0.950 . S
C1222 C1221 1.439 . S
C1222 N1223 1.374 . S
C1222 C1256 1.395 . S
N1223 C1219 1.376 . S
N1223 C1222 1.374 . S
N1223 Co1224 2.008 . S
Co1224 N1223 2.008 . S
Co1224 N1225 1.995 . S
Co1224 N1230 2.008 . S
Co1224 N1235 1.995 . S
Co1224 N1240 2.282 . S
Co1224 N1246 2.282 . S
N1225 Co1224 1.995 . S
N1225 C1226 1.376 . S
N1225 C1229 1.383 . S
C1226 N1225 1.376 . S
C1226 C1227 1.446 . S
C1226 C1256 1.391 . S
C1227 C1226 1.446 . S
C1227 C1228 1.339 . S
C1227 H1262 0.949 . S
C1228 C1227 1.339 . S
C1228 C1229 1.439 . S
C1228 H1263 0.950 . S
C1229 N1225 1.383 . S
C1229 C1228 1.439 . S
C1229 C1258 1.392 . S
N1230 Co1224 2.008 . S
N1230 C1231 1.376 . S
N1230 C1234 1.374 . S
C1231 N1230 1.376 . S
C1231 C1232 1.443 . S
C1231 C1258 1.389 . S
C1232 C1231 1.443 . S
C1232 C1233 1.340 . S
C1232 H1264 0.951 . S
C1233 C1232 1.340 . S
C1233 C1234 1.439 . S
C1233 H1265 0.950 . S
C1234 N1230 1.374 . S
C1234 C1233 1.439 . S
C1234 C1259 1.395 . S
N1235 Co1224 1.995 . S
N1235 C1236 1.376 . S
N1235 C1239 1.383 . S
C1236 N1235 1.376 . S
C1236 C1237 1.446 . S
C1236 C1259 1.391 . S
C1237 C1236 1.446 . S
C1237 C1238 1.339 . S
C1237 H1266 0.949 . S
C1238 C1237 1.339 . S
C1238 C1239 1.439 . S
C1238 H1267 0.950 . S
C1239 N1235 1.383 . S
C1239 C1238 1.439 . S
C1239 C1257 1.392 . S
N1240 Co1224 2.282 . S
N1240 C1243 1.332 . S
N1240 C1245 1.332 . S
C1241 C1242 1.386 . S
C1241 C1244 1.388 . S
C1242 C1241 1.386 . S
C1242 C1243 1.382 . S
C1242 H1268 0.950 . S
C1243 N1240 1.332 . S
C1243 C1242 1.382 . S
C1243 H1254 0.952 . S
C1244 C1241 1.388 . S
C1244 C1245 1.382 . S
C1244 H1269 0.950 . S
C1245 N1240 1.332 . S
C1245 C1244 1.382 . S
C1245 H1255 0.948 . S
N1246 Co1224 2.282 . S
N1246 C1250 1.332 . S
N1246 C1251 1.332 . S
C1247 C1248 1.388 . S
C1247 C1251 1.382 . S
C1247 H1270 0.950 . S
C1248 C1247 1.388 . S
C1248 C1249 1.386 . S
C1249 C1248 1.386 . S
C1249 C1250 1.382 . S
C1249 H1271 0.950 . S
C1250 N1246 1.332 . S
C1250 C1249 1.382 . S
C1250 H1252 0.952 . S
C1251 N1246 1.332 . S
C1251 C1247 1.382 . S
C1251 H1253 0.948 . S
H1252 C1250 0.952 . S
H1253 C1251 0.948 . S
H1254 C1243 0.952 . S
H1255 C1245 0.948 . S
C1256 C1222 1.395 . S
C1256 C1226 1.391 . S
C1257 C1219 1.389 . S
C1257 C1239 1.392 . S
C1258 C1229 1.392 . S
C1258 C1231 1.389 . S
C1259 C1234 1.395 . S
C1259 C1236 1.391 . S
H1260 C1220 0.951 . S
H1261 C1221 0.950 . S
H1262 C1227 0.949 . S
H1263 C1228 0.950 . S
H1264 C1232 0.951 . S
H1265 C1233 0.950 . S
H1266 C1237 0.949 . S
H1267 C1238 0.950 . S
H1268 C1242 0.950 . S
H1269 C1244 0.950 . S
H1270 C1247 0.950 . S
H1271 C1249 0.950 . S
C1272 C1273 1.443 . S
C1272 N1276 1.376 . S
C1272 C1310 1.389 . S
C1273 C1272 1.443 . S
C1273 C1274 1.340 . S
C1273 H1313 0.951 . S
C1274 C1273 1.340 . S
C1274 C1275 1.439 . S
C1274 H1314 0.950 . S
C1275 C1274 1.439 . S
C1275 N1276 1.374 . S
C1275 C1309 1.395 . S
N1276 C1272 1.376 . S
N1276 C1275 1.374 . S
N1276 Co1277 2.008 . S
Co1277 N1276 2.008 . S
Co1277 N1278 1.995 . S
Co1277 N1283 2.008 . S
Co1277 N1288 1.995 . S
Co1277 N1293 2.282 . S
Co1277 N1299 2.282 . S
N1278 Co1277 1.995 . S
N1278 C1279 1.376 . S
N1278 C1282 1.383 . S
C1279 N1278 1.376 . S
C1279 C1280 1.446 . S
C1279 C1309 1.391 . S
C1280 C1279 1.446 . S
C1280 C1281 1.339 . S
C1280 H1315 0.949 . S
C1281 C1280 1.339 . S
C1281 C1282 1.439 . S
C1281 H1316 0.950 . S
C1282 N1278 1.383 . S
C1282 C1281 1.439 . S
C1282 C1311 1.392 . S
N1283 Co1277 2.008 . S
N1283 C1284 1.376 . S
N1283 C1287 1.374 . S
C1284 N1283 1.376 . S
C1284 C1285 1.443 . S
C1284 C1311 1.389 . S
C1285 C1284 1.443 . S
C1285 C1286 1.340 . S
C1285 H1317 0.951 . S
C1286 C1285 1.340 . S
C1286 C1287 1.439 . S
C1286 H1318 0.950 . S
C1287 N1283 1.374 . S
C1287 C1286 1.439 . S
C1287 C1312 1.395 . S
N1288 Co1277 1.995 . S
N1288 C1289 1.376 . S
N1288 C1292 1.383 . S
C1289 N1288 1.376 . S
C1289 C1290 1.446 . S
C1289 C1312 1.391 . S
C1290 C1289 1.446 . S
C1290 C1291 1.339 . S
C1290 H1319 0.949 . S
C1291 C1290 1.339 . S
C1291 C1292 1.439 . S
C1291 H1320 0.950 . S
C1292 N1288 1.383 . S
C1292 C1291 1.439 . S
C1292 C1310 1.392 . S
N1293 Co1277 2.282 . S
N1293 C1296 1.332 . S
N1293 C1298 1.332 . S
C1294 C1295 1.386 . S
C1294 C1297 1.388 . S
C1295 C1294 1.386 . S
C1295 C1296 1.382 . S
C1295 H1321 0.950 . S
C1296 N1293 1.332 . S
C1296 C1295 1.382 . S
C1296 H1307 0.952 . S
C1297 C1294 1.388 . S
C1297 C1298 1.382 . S
C1297 H1322 0.950 . S
C1298 N1293 1.332 . S
C1298 C1297 1.382 . S
C1298 H1308 0.948 . S
N1299 Co1277 2.282 . S
N1299 C1303 1.332 . S
N1299 C1304 1.332 . S
C1300 C1301 1.388 . S
C1300 C1304 1.382 . S
C1300 H1323 0.950 . S
C1301 C1300 1.388 . S
C1301 C1302 1.386 . S
C1302 C1301 1.386 . S
C1302 C1303 1.382 . S
C1302 H1324 0.950 . S
C1303 N1299 1.332 . S
C1303 C1302 1.382 . S
C1303 H1305 0.952 . S
C1304 N1299 1.332 . S
C1304 C1300 1.382 . S
C1304 H1306 0.948 . S
H1305 C1303 0.952 . S
H1306 C1304 0.948 . S
H1307 C1296 0.952 . S
H1308 C1298 0.948 . S
C1309 C1275 1.395 . S
C1309 C1279 1.391 . S
C1310 C1272 1.389 . S
C1310 C1292 1.392 . S
C1311 C1282 1.392 . S
C1311 C1284 1.389 . S
C1312 C1287 1.395 . S
C1312 C1289 1.391 . S
H1313 C1273 0.951 . S
H1314 C1274 0.950 . S
H1315 C1280 0.949 . S
H1316 C1281 0.950 . S
H1317 C1285 0.951 . S
H1318 C1286 0.950 . S
H1319 C1290 0.949 . S
H1320 C1291 0.950 . S
H1321 C1295 0.950 . S
H1322 C1297 0.950 . S
H1323 C1300 0.950 . S
H1324 C1302 0.950 . S
C1325 C1326 1.443 . S
C1325 N1329 1.376 . S
C1325 C1363 1.389 . S
C1326 C1325 1.443 . S
C1326 C1327 1.340 . S
C1326 H1366 0.951 . S
C1327 C1326 1.340 . S
C1327 C1328 1.439 . S
C1327 H1367 0.950 . S
C1328 C1327 1.439 . S
C1328 N1329 1.374 . S
C1328 C1362 1.395 . S
N1329 C1325 1.376 . S
N1329 C1328 1.374 . S
N1329 Co1330 2.008 . S
Co1330 N1329 2.008 . S
Co1330 N1331 1.995 . S
Co1330 N1336 2.008 . S
Co1330 N1341 1.995 . S
Co1330 N1346 2.282 . S
Co1330 N1352 2.282 . S
N1331 Co1330 1.995 . S
N1331 C1332 1.376 . S
N1331 C1335 1.383 . S
C1332 N1331 1.376 . S
C1332 C1333 1.446 . S
C1332 C1362 1.391 . S
C1333 C1332 1.446 . S
C1333 C1334 1.339 . S
C1333 H1368 0.949 . S
C1334 C1333 1.339 . S
C1334 C1335 1.439 . S
C1334 H1369 0.950 . S
C1335 N1331 1.383 . S
C1335 C1334 1.439 . S
C1335 C1364 1.392 . S
N1336 Co1330 2.008 . S
N1336 C1337 1.376 . S
N1336 C1340 1.374 . S
C1337 N1336 1.376 . S
C1337 C1338 1.443 . S
C1337 C1364 1.389 . S
C1338 C1337 1.443 . S
C1338 C1339 1.340 . S
C1338 H1370 0.951 . S
C1339 C1338 1.340 . S
C1339 C1340 1.439 . S
C1339 H1371 0.950 . S
C1340 N1336 1.374 . S
C1340 C1339 1.439 . S
C1340 C1365 1.395 . S
N1341 Co1330 1.995 . S
N1341 C1342 1.376 . S
N1341 C1345 1.383 . S
C1342 N1341 1.376 . S
C1342 C1343 1.446 . S
C1342 C1365 1.391 . S
C1343 C1342 1.446 . S
C1343 C1344 1.339 . S
C1343 H1372 0.949 . S
C1344 C1343 1.339 . S
C1344 C1345 1.439 . S
C1344 H1373 0.950 . S
C1345 N1341 1.383 . S
C1345 C1344 1.439 . S
C1345 C1363 1.392 . S
N1346 Co1330 2.282 . S
N1346 C1349 1.332 . S
N1346 C1351 1.332 . S
C1347 C1348 1.386 . S
C1347 C1350 1.388 . S
C1348 C1347 1.386 . S
C1348 C1349 1.382 . S
C1348 H1374 0.950 . S
C1349 N1346 1.332 . S
C1349 C1348 1.382 . S
C1349 H1360 0.952 . S
C1350 C1347 1.388 . S
C1350 C1351 1.382 . S
C1350 H1375 0.950 . S
C1351 N1346 1.332 . S
C1351 C1350 1.382 . S
C1351 H1361 0.948 . S
N1352 Co1330 2.282 . S
N1352 C1356 1.332 . S
N1352 C1357 1.332 . S
C1353 C1354 1.388 . S
C1353 C1357 1.382 . S
C1353 H1376 0.950 . S
C1354 C1353 1.388 . S
C1354 C1355 1.386 . S
C1355 C1354 1.386 . S
C1355 C1356 1.382 . S
C1355 H1377 0.950 . S
C1356 N1352 1.332 . S
C1356 C1355 1.382 . S
C1356 H1358 0.952 . S
C1357 N1352 1.332 . S
C1357 C1353 1.382 . S
C1357 H1359 0.948 . S
H1358 C1356 0.952 . S
H1359 C1357 0.948 . S
H1360 C1349 0.952 . S
H1361 C1351 0.948 . S
C1362 C1328 1.395 . S
C1362 C1332 1.391 . S
C1363 C1325 1.389 . S
C1363 C1345 1.392 . S
C1364 C1335 1.392 . S
C1364 C1337 1.389 . S
C1365 C1340 1.395 . S
C1365 C1342 1.391 . S
H1366 C1326 0.951 . S
H1367 C1327 0.950 . S
H1368 C1333 0.949 . S
H1369 C1334 0.950 . S
H1370 C1338 0.951 . S
H1371 C1339 0.950 . S
H1372 C1343 0.949 . S
H1373 C1344 0.950 . S
H1374 C1348 0.950 . S
H1375 C1350 0.950 . S
H1376 C1353 0.950 . S
H1377 C1355 0.950 . S
C1378 C1379 1.443 . S
C1378 N1382 1.376 . S
C1378 C1416 1.389 . S
C1379 C1378 1.443 . S
C1379 C1380 1.340 . S
C1379 H1419 0.951 . S
C1380 C1379 1.340 . S
C1380 C1381 1.439 . S
C1380 H1420 0.950 . S
C1381 C1380 1.439 . S
C1381 N1382 1.374 . S
C1381 C1415 1.395 . S
N1382 C1378 1.376 . S
N1382 C1381 1.374 . S
N1382 Co1383 2.008 . S
Co1383 N1382 2.008 . S
Co1383 N1384 1.995 . S
Co1383 N1389 2.008 . S
Co1383 N1394 1.995 . S
Co1383 N1399 2.282 . S
Co1383 N1405 2.282 . S
N1384 Co1383 1.995 . S
N1384 C1385 1.376 . S
N1384 C1388 1.383 . S
C1385 N1384 1.376 . S
C1385 C1386 1.446 . S
C1385 C1415 1.391 . S
C1386 C1385 1.446 . S
C1386 C1387 1.339 . S
C1386 H1421 0.949 . S
C1387 C1386 1.339 . S
C1387 C1388 1.439 . S
C1387 H1422 0.950 . S
C1388 N1384 1.383 . S
C1388 C1387 1.439 . S
C1388 C1417 1.392 . S
N1389 Co1383 2.008 . S
N1389 C1390 1.376 . S
N1389 C1393 1.374 . S
C1390 N1389 1.376 . S
C1390 C1391 1.443 . S
C1390 C1417 1.389 . S
C1391 C1390 1.443 . S
C1391 C1392 1.340 . S
C1391 H1423 0.951 . S
C1392 C1391 1.340 . S
C1392 C1393 1.439 . S
C1392 H1424 0.950 . S
C1393 N1389 1.374 . S
C1393 C1392 1.439 . S
C1393 C1418 1.395 . S
N1394 Co1383 1.995 . S
N1394 C1395 1.376 . S
N1394 C1398 1.383 . S
C1395 N1394 1.376 . S
C1395 C1396 1.446 . S
C1395 C1418 1.391 . S
C1396 C1395 1.446 . S
C1396 C1397 1.339 . S
C1396 H1425 0.949 . S
C1397 C1396 1.339 . S
C1397 C1398 1.439 . S
C1397 H1426 0.950 . S
C1398 N1394 1.383 . S
C1398 C1397 1.439 . S
C1398 C1416 1.392 . S
N1399 Co1383 2.282 . S
N1399 C1402 1.332 . S
N1399 C1404 1.332 . S
C1400 C1401 1.386 . S
C1400 C1403 1.388 . S
C1401 C1400 1.386 . S
C1401 C1402 1.382 . S
C1401 H1427 0.950 . S
C1402 N1399 1.332 . S
C1402 C1401 1.382 . S
C1402 H1413 0.952 . S
C1403 C1400 1.388 . S
C1403 C1404 1.382 . S
C1403 H1428 0.950 . S
C1404 N1399 1.332 . S
C1404 C1403 1.382 . S
C1404 H1414 0.948 . S
N1405 Co1383 2.282 . S
N1405 C1409 1.332 . S
N1405 C1410 1.332 . S
C1406 C1407 1.388 . S
C1406 C1410 1.382 . S
C1406 H1429 0.950 . S
C1407 C1406 1.388 . S
C1407 C1408 1.386 . S
C1408 C1407 1.386 . S
C1408 C1409 1.382 . S
C1408 H1430 0.950 . S
C1409 N1405 1.332 . S
C1409 C1408 1.382 . S
C1409 H1411 0.952 . S
C1410 N1405 1.332 . S
C1410 C1406 1.382 . S
C1410 H1412 0.948 . S
H1411 C1409 0.952 . S
H1412 C1410 0.948 . S
H1413 C1402 0.952 . S
H1414 C1404 0.948 . S
C1415 C1381 1.395 . S
C1415 C1385 1.391 . S
C1416 C1378 1.389 . S
C1416 C1398 1.392 . S
C1417 C1388 1.392 . S
C1417 C1390 1.389 . S
C1418 C1393 1.395 . S
C1418 C1395 1.391 . S
H1419 C1379 0.951 . S
H1420 C1380 0.950 . S
H1421 C1386 0.949 . S
H1422 C1387 0.950 . S
H1423 C1391 0.951 . S
H1424 C1392 0.950 . S
H1425 C1396 0.949 . S
H1426 C1397 0.950 . S
H1427 C1401 0.950 . S
H1428 C1403 0.950 . S
H1429 C1406 0.950 . S
H1430 C1408 0.950 . S
C1431 C1432 1.443 . S
C1431 N1435 1.376 . S
C1431 C1469 1.389 . S
C1432 C1431 1.443 . S
C1432 C1433 1.340 . S
C1432 H1472 0.951 . S
C1433 C1432 1.340 . S
C1433 C1434 1.439 . S
C1433 H1473 0.950 . S
C1434 C1433 1.439 . S
C1434 N1435 1.374 . S
C1434 C1468 1.395 . S
N1435 C1431 1.376 . S
N1435 C1434 1.374 . S
N1435 Co1436 2.008 . S
Co1436 N1435 2.008 . S
Co1436 N1437 1.995 . S
Co1436 N1442 2.008 . S
Co1436 N1447 1.995 . S
Co1436 N1452 2.282 . S
Co1436 N1458 2.282 . S
N1437 Co1436 1.995 . S
N1437 C1438 1.376 . S
N1437 C1441 1.383 . S
C1438 N1437 1.376 . S
C1438 C1439 1.446 . S
C1438 C1468 1.391 . S
C1439 C1438 1.446 . S
C1439 C1440 1.339 . S
C1439 H1474 0.949 . S
C1440 C1439 1.339 . S
C1440 C1441 1.439 . S
C1440 H1475 0.950 . S
C1441 N1437 1.383 . S
C1441 C1440 1.439 . S
C1441 C1470 1.392 . S
N1442 Co1436 2.008 . S
N1442 C1443 1.376 . S
N1442 C1446 1.374 . S
C1443 N1442 1.376 . S
C1443 C1444 1.443 . S
C1443 C1470 1.389 . S
C1444 C1443 1.443 . S
C1444 C1445 1.340 . S
C1444 H1476 0.951 . S
C1445 C1444 1.340 . S
C1445 C1446 1.439 . S
C1445 H1477 0.950 . S
C1446 N1442 1.374 . S
C1446 C1445 1.439 . S
C1446 C1471 1.395 . S
N1447 Co1436 1.995 . S
N1447 C1448 1.376 . S
N1447 C1451 1.383 . S
C1448 N1447 1.376 . S
C1448 C1449 1.446 . S
C1448 C1471 1.391 . S
C1449 C1448 1.446 . S
C1449 C1450 1.339 . S
C1449 H1478 0.949 . S
C1450 C1449 1.339 . S
C1450 C1451 1.439 . S
C1450 H1479 0.950 . S
C1451 N1447 1.383 . S
C1451 C1450 1.439 . S
C1451 C1469 1.392 . S
N1452 Co1436 2.282 . S
N1452 C1455 1.332 . S
N1452 C1457 1.332 . S
C1453 C1454 1.386 . S
C1453 C1456 1.388 . S
C1454 C1453 1.386 . S
C1454 C1455 1.382 . S
C1454 H1480 0.950 . S
C1455 N1452 1.332 . S
C1455 C1454 1.382 . S
C1455 H1466 0.952 . S
C1456 C1453 1.388 . S
C1456 C1457 1.382 . S
C1456 H1481 0.950 . S
C1457 N1452 1.332 . S
C1457 C1456 1.382 . S
C1457 H1467 0.948 . S
N1458 Co1436 2.282 . S
N1458 C1462 1.332 . S
N1458 C1463 1.332 . S
C1459 C1460 1.393 . S
C1459 C1463 1.382 . S
C1459 H1482 0.950 . S
C1460 C1459 1.393 . S
C1460 C1461 1.393 . S
C1461 C1460 1.393 . S
C1461 C1462 1.382 . S
C1461 H1483 0.950 . S
C1462 N1458 1.332 . S
C1462 C1461 1.382 . S
C1462 H1464 0.952 . S
C1463 N1458 1.332 . S
C1463 C1459 1.382 . S
C1463 H1465 0.948 . S
H1464 C1462 0.952 . S
H1465 C1463 0.948 . S
H1466 C1455 0.952 . S
H1467 C1457 0.948 . S
C1468 C1434 1.395 . S
C1468 C1438 1.391 . S
C1469 C1431 1.389 . S
C1469 C1451 1.392 . S
C1470 C1441 1.392 . S
C1470 C1443 1.389 . S
C1471 C1446 1.395 . S
C1471 C1448 1.391 . S
H1472 C1432 0.951 . S
H1473 C1433 0.950 . S
H1474 C1439 0.949 . S
H1475 C1440 0.950 . S
H1476 C1444 0.951 . S
H1477 C1445 0.950 . S
H1478 C1449 0.949 . S
H1479 C1450 0.950 . S
H1480 C1454 0.950 . S
H1481 C1456 0.950 . S
H1482 C1459 0.950 . S
H1483 C1461 0.950 . S
C1484 C1485 1.443 . S
C1484 N1488 1.376 . S
C1484 C1522 1.389 . S
C1485 C1484 1.443 . S
C1485 C1486 1.340 . S
C1485 H1525 0.951 . S
C1486 C1485 1.340 . S
C1486 C1487 1.439 . S
C1486 H1526 0.950 . S
C1487 C1486 1.439 . S
C1487 N1488 1.374 . S
C1487 C1521 1.395 . S
N1488 C1484 1.376 . S
N1488 C1487 1.374 . S
N1488 Co1489 2.008 . S
Co1489 N1488 2.008 . S
Co1489 N1490 1.995 . S
Co1489 N1495 2.008 . S
Co1489 N1500 1.995 . S
Co1489 N1505 2.282 . S
Co1489 N1511 2.282 . S
N1490 Co1489 1.995 . S
N1490 C1491 1.376 . S
N1490 C1494 1.383 . S
C1491 N1490 1.376 . S
C1491 C1492 1.446 . S
C1491 C1521 1.391 . S
C1492 C1491 1.446 . S
C1492 C1493 1.339 . S
C1492 H1527 0.949 . S
C1493 C1492 1.339 . S
C1493 C1494 1.439 . S
C1493 H1528 0.950 . S
C1494 N1490 1.383 . S
C1494 C1493 1.439 . S
C1494 C1523 1.392 . S
N1495 Co1489 2.008 . S
N1495 C1496 1.376 . S
N1495 C1499 1.374 . S
C1496 N1495 1.376 . S
C1496 C1497 1.443 . S
C1496 C1523 1.389 . S
C1497 C1496 1.443 . S
C1497 C1498 1.340 . S
C1497 H1529 0.951 . S
C1498 C1497 1.340 . S
C1498 C1499 1.439 . S
C1498 H1530 0.950 . S
C1499 N1495 1.374 . S
C1499 C1498 1.439 . S
C1499 C1524 1.395 . S
N1500 Co1489 1.995 . S
N1500 C1501 1.376 . S
N1500 C1504 1.383 . S
C1501 N1500 1.376 . S
C1501 C1502 1.446 . S
C1501 C1524 1.391 . S
C1502 C1501 1.446 . S
C1502 C1503 1.339 . S
C1502 H1531 0.949 . S
C1503 C1502 1.339 . S
C1503 C1504 1.439 . S
C1503 H1532 0.950 . S
C1504 N1500 1.383 . S
C1504 C1503 1.439 . S
C1504 C1522 1.392 . S
N1505 Co1489 2.282 . S
N1505 C1508 1.332 . S
N1505 C1510 1.332 . S
C1506 C1507 1.386 . S
C1506 C1509 1.388 . S
C1507 C1506 1.386 . S
C1507 C1508 1.382 . S
C1507 H1533 0.950 . S
C1508 N1505 1.332 . S
C1508 C1507 1.382 . S
C1508 H1519 0.952 . S
C1509 C1506 1.388 . S
C1509 C1510 1.382 . S
C1509 H1534 0.950 . S
C1510 N1505 1.332 . S
C1510 C1509 1.382 . S
C1510 H1520 0.948 . S
N1511 Co1489 2.282 . S
N1511 C1515 1.332 . S
N1511 C1516 1.332 . S
C1512 C1513 1.388 . S
C1512 C1516 1.382 . S
C1512 H1535 0.950 . S
C1513 C1512 1.388 . S
C1513 C1514 1.386 . S
C1514 C1513 1.386 . S
C1514 C1515 1.382 . S
C1514 H1536 0.950 . S
C1515 N1511 1.332 . S
C1515 C1514 1.382 . S
C1515 H1517 0.952 . S
C1516 N1511 1.332 . S
C1516 C1512 1.382 . S
C1516 H1518 0.948 . S
H1517 C1515 0.952 . S
H1518 C1516 0.948 . S
H1519 C1508 0.952 . S
H1520 C1510 0.948 . S
C1521 C1487 1.395 . S
C1521 C1491 1.391 . S
C1522 C1484 1.389 . S
C1522 C1504 1.392 . S
C1523 C1494 1.392 . S
C1523 C1496 1.389 . S
C1524 C1499 1.395 . S
C1524 C1501 1.391 . S
H1525 C1485 0.951 . S
H1526 C1486 0.950 . S
H1527 C1492 0.949 . S
H1528 C1493 0.950 . S
H1529 C1497 0.951 . S
H1530 C1498 0.950 . S
H1531 C1502 0.949 . S
H1532 C1503 0.950 . S
H1533 C1507 0.950 . S
H1534 C1509 0.950 . S
H1535 C1512 0.950 . S
H1536 C1514 0.950 . S
C1537 C1538 1.443 . S
C1537 N1541 1.376 . S
C1537 C1575 1.389 . S
C1538 C1537 1.443 . S
C1538 C1539 1.340 . S
C1538 H1578 0.951 . S
C1539 C1538 1.340 . S
C1539 C1540 1.439 . S
C1539 H1579 0.950 . S
C1540 C1539 1.439 . S
C1540 N1541 1.374 . S
C1540 C1574 1.395 . S
N1541 C1537 1.376 . S
N1541 C1540 1.374 . S
N1541 Co1542 2.008 . S
Co1542 N1541 2.008 . S
Co1542 N1543 1.995 . S
Co1542 N1548 2.008 . S
Co1542 N1553 1.995 . S
Co1542 N1558 2.282 . S
Co1542 N1564 2.282 . S
N1543 Co1542 1.995 . S
N1543 C1544 1.376 . S
N1543 C1547 1.383 . S
C1544 N1543 1.376 . S
C1544 C1545 1.446 . S
C1544 C1574 1.391 . S
C1545 C1544 1.446 . S
C1545 C1546 1.339 . S
C1545 H1580 0.949 . S
C1546 C1545 1.339 . S
C1546 C1547 1.439 . S
C1546 H1581 0.950 . S
C1547 N1543 1.383 . S
C1547 C1546 1.439 . S
C1547 C1576 1.392 . S
N1548 Co1542 2.008 . S
N1548 C1549 1.376 . S
N1548 C1552 1.374 . S
C1549 N1548 1.376 . S
C1549 C1550 1.443 . S
C1549 C1576 1.389 . S
C1550 C1549 1.443 . S
C1550 C1551 1.340 . S
C1550 H1582 0.951 . S
C1551 C1550 1.340 . S
C1551 C1552 1.439 . S
C1551 H1583 0.950 . S
C1552 N1548 1.374 . S
C1552 C1551 1.439 . S
C1552 C1577 1.395 . S
N1553 Co1542 1.995 . S
N1553 C1554 1.376 . S
N1553 C1557 1.383 . S
C1554 N1553 1.376 . S
C1554 C1555 1.446 . S
C1554 C1577 1.391 . S
C1555 C1554 1.446 . S
C1555 C1556 1.339 . S
C1555 H1584 0.949 . S
C1556 C1555 1.339 . S
C1556 C1557 1.439 . S
C1556 H1585 0.950 . S
C1557 N1553 1.383 . S
C1557 C1556 1.439 . S
C1557 C1575 1.392 . S
N1558 Co1542 2.282 . S
N1558 C1561 1.332 . S
N1558 C1563 1.332 . S
C1559 C1560 1.386 . S
C1559 C1562 1.388 . S
C1560 C1559 1.386 . S
C1560 C1561 1.382 . S
C1560 H1586 0.950 . S
C1561 N1558 1.332 . S
C1561 C1560 1.382 . S
C1561 H1572 0.952 . S
C1562 C1559 1.388 . S
C1562 C1563 1.382 . S
C1562 H1587 0.950 . S
C1563 N1558 1.332 . S
C1563 C1562 1.382 . S
C1563 H1573 0.948 . S
N1564 Co1542 2.282 . S
N1564 C1568 1.332 . S
N1564 C1569 1.332 . S
C1565 C1566 1.393 . S
C1565 C1569 1.382 . S
C1565 H1588 0.950 . S
C1566 C1565 1.393 . S
C1566 C1567 1.393 . S
C1567 C1566 1.393 . S
C1567 C1568 1.382 . S
C1567 H1589 0.950 . S
C1568 N1564 1.332 . S
C1568 C1567 1.382 . S
C1568 H1570 0.952 . S
C1569 N1564 1.332 . S
C1569 C1565 1.382 . S
C1569 H1571 0.948 . S
H1570 C1568 0.952 . S
H1571 C1569 0.948 . S
H1572 C1561 0.952 . S
H1573 C1563 0.948 . S
C1574 C1540 1.395 . S
C1574 C1544 1.391 . S
C1575 C1537 1.389 . S
C1575 C1557 1.392 . S
C1576 C1547 1.392 . S
C1576 C1549 1.389 . S
C1577 C1552 1.395 . S
C1577 C1554 1.391 . S
H1578 C1538 0.951 . S
H1579 C1539 0.950 . S
H1580 C1545 0.949 . S
H1581 C1546 0.950 . S
H1582 C1550 0.951 . S
H1583 C1551 0.950 . S
H1584 C1555 0.949 . S
H1585 C1556 0.950 . S
H1586 C1560 0.950 . S
H1587 C1562 0.950 . S
H1588 C1565 0.950 . S
H1589 C1567 0.950 . S
C1590 C1591 1.443 . S
C1590 N1594 1.376 . S
C1590 C1628 1.389 . S
C1591 C1590 1.443 . S
C1591 C1592 1.340 . S
C1591 H1631 0.951 . S
C1592 C1591 1.340 . S
C1592 C1593 1.439 . S
C1592 H1632 0.950 . S
C1593 C1592 1.439 . S
C1593 N1594 1.374 . S
C1593 C1627 1.395 . S
N1594 C1590 1.376 . S
N1594 C1593 1.374 . S
N1594 Co1595 2.008 . S
Co1595 N1594 2.008 . S
Co1595 N1596 1.995 . S
Co1595 N1601 2.008 . S
Co1595 N1606 1.995 . S
Co1595 N1611 2.282 . S
Co1595 N1617 2.282 . S
N1596 Co1595 1.995 . S
N1596 C1597 1.376 . S
N1596 C1600 1.383 . S
C1597 N1596 1.376 . S
C1597 C1598 1.446 . S
C1597 C1627 1.391 . S
C1598 C1597 1.446 . S
C1598 C1599 1.339 . S
C1598 H1633 0.949 . S
C1599 C1598 1.339 . S
C1599 C1600 1.439 . S
C1599 H1634 0.950 . S
C1600 N1596 1.383 . S
C1600 C1599 1.439 . S
C1600 C1629 1.392 . S
N1601 Co1595 2.008 . S
N1601 C1602 1.376 . S
N1601 C1605 1.374 . S
C1602 N1601 1.376 . S
C1602 C1603 1.443 . S
C1602 C1629 1.389 . S
C1603 C1602 1.443 . S
C1603 C1604 1.340 . S
C1603 H1635 0.951 . S
C1604 C1603 1.340 . S
C1604 C1605 1.439 . S
C1604 H1636 0.950 . S
C1605 N1601 1.374 . S
C1605 C1604 1.439 . S
C1605 C1630 1.395 . S
N1606 Co1595 1.995 . S
N1606 C1607 1.376 . S
N1606 C1610 1.383 . S
C1607 N1606 1.376 . S
C1607 C1608 1.446 . S
C1607 C1630 1.391 . S
C1608 C1607 1.446 . S
C1608 C1609 1.339 . S
C1608 H1637 0.949 . S
C1609 C1608 1.339 . S
C1609 C1610 1.439 . S
C1609 H1638 0.950 . S
C1610 N1606 1.383 . S
C1610 C1609 1.439 . S
C1610 C1628 1.392 . S
N1611 Co1595 2.282 . S
N1611 C1614 1.332 . S
N1611 C1616 1.332 . S
C1612 C1613 1.386 . S
C1612 C1615 1.388 . S
C1613 C1612 1.386 . S
C1613 C1614 1.382 . S
C1613 H1639 0.950 . S
C1614 N1611 1.332 . S
C1614 C1613 1.382 . S
C1614 H1625 0.952 . S
C1615 C1612 1.388 . S
C1615 C1616 1.382 . S
C1615 H1640 0.950 . S
C1616 N1611 1.332 . S
C1616 C1615 1.382 . S
C1616 H1626 0.948 . S
N1617 Co1595 2.282 . S
N1617 C1621 1.332 . S
N1617 C1622 1.332 . S
C1618 C1619 1.388 . S
C1618 C1622 1.382 . S
C1618 H1641 0.950 . S
C1619 C1618 1.388 . S
C1619 C1620 1.386 . S
C1620 C1619 1.386 . S
C1620 C1621 1.382 . S
C1620 H1642 0.950 . S
C1621 N1617 1.332 . S
C1621 C1620 1.382 . S
C1621 H1623 0.952 . S
C1622 N1617 1.332 . S
C1622 C1618 1.382 . S
C1622 H1624 0.948 . S
H1623 C1621 0.952 . S
H1624 C1622 0.948 . S
H1625 C1614 0.952 . S
H1626 C1616 0.948 . S
C1627 C1593 1.395 . S
C1627 C1597 1.391 . S
C1628 C1590 1.389 . S
C1628 C1610 1.392 . S
C1629 C1600 1.392 . S
C1629 C1602 1.389 . S
C1630 C1605 1.395 . S
C1630 C1607 1.391 . S
H1631 C1591 0.951 . S
H1632 C1592 0.950 . S
H1633 C1598 0.949 . S
H1634 C1599 0.950 . S
H1635 C1603 0.951 . S
H1636 C1604 0.950 . S
H1637 C1608 0.949 . S
H1638 C1609 0.950 . S
H1639 C1613 0.950 . S
H1640 C1615 0.950 . S
H1641 C1618 0.950 . S
H1642 C1620 0.950 . S
C1643 C1644 1.443 . S
C1643 N1647 1.376 . S
C1643 C1681 1.389 . S
C1644 C1643 1.443 . S
C1644 C1645 1.340 . S
C1644 H1684 0.951 . S
C1645 C1644 1.340 . S
C1645 C1646 1.439 . S
C1645 H1685 0.950 . S
C1646 C1645 1.439 . S
C1646 N1647 1.374 . S
C1646 C1680 1.395 . S
N1647 C1643 1.376 . S
N1647 C1646 1.374 . S
N1647 Co1648 2.008 . S
Co1648 N1647 2.008 . S
Co1648 N1649 1.995 . S
Co1648 N1654 2.008 . S
Co1648 N1659 1.995 . S
Co1648 N1664 2.282 . S
Co1648 N1670 2.282 . S
N1649 Co1648 1.995 . S
N1649 C1650 1.376 . S
N1649 C1653 1.383 . S
C1650 N1649 1.376 . S
C1650 C1651 1.446 . S
C1650 C1680 1.391 . S
C1651 C1650 1.446 . S
C1651 C1652 1.339 . S
C1651 H1686 0.949 . S
C1652 C1651 1.339 . S
C1652 C1653 1.439 . S
C1652 H1687 0.950 . S
C1653 N1649 1.383 . S
C1653 C1652 1.439 . S
C1653 C1682 1.392 . S
N1654 Co1648 2.008 . S
N1654 C1655 1.376 . S
N1654 C1658 1.374 . S
C1655 N1654 1.376 . S
C1655 C1656 1.443 . S
C1655 C1682 1.389 . S
C1656 C1655 1.443 . S
C1656 C1657 1.340 . S
C1656 H1688 0.951 . S
C1657 C1656 1.340 . S
C1657 C1658 1.439 . S
C1657 H1689 0.950 . S
C1658 N1654 1.374 . S
C1658 C1657 1.439 . S
C1658 C1683 1.395 . S
N1659 Co1648 1.995 . S
N1659 C1660 1.376 . S
N1659 C1663 1.383 . S
C1660 N1659 1.376 . S
C1660 C1661 1.446 . S
C1660 C1683 1.391 . S
C1661 C1660 1.446 . S
C1661 C1662 1.339 . S
C1661 H1690 0.949 . S
C1662 C1661 1.339 . S
C1662 C1663 1.439 . S
C1662 H1691 0.950 . S
C1663 N1659 1.383 . S
C1663 C1662 1.439 . S
C1663 C1681 1.392 . S
N1664 Co1648 2.282 . S
N1664 C1667 1.332 . S
N1664 C1669 1.332 . S
C1665 C1666 1.386 . S
C1665 C1668 1.388 . S
C1666 C1665 1.386 . S
C1666 C1667 1.382 . S
C1666 H1692 0.950 . S
C1667 N1664 1.332 . S
C1667 C1666 1.382 . S
C1667 H1678 0.952 . S
C1668 C1665 1.388 . S
C1668 C1669 1.382 . S
C1668 H1693 0.950 . S
C1669 N1664 1.332 . S
C1669 C1668 1.382 . S
C1669 H1679 0.948 . S
N1670 Co1648 2.282 . S
N1670 C1674 1.332 . S
N1670 C1675 1.332 . S
C1671 C1672 1.388 . S
C1671 C1675 1.382 . S
C1671 H1694 0.950 . S
C1672 C1671 1.388 . S
C1672 C1673 1.386 . S
C1673 C1672 1.386 . S
C1673 C1674 1.382 . S
C1673 H1695 0.950 . S
C1674 N1670 1.332 . S
C1674 C1673 1.382 . S
C1674 H1676 0.952 . S
C1675 N1670 1.332 . S
C1675 C1671 1.382 . S
C1675 H1677 0.948 . S
H1676 C1674 0.952 . S
H1677 C1675 0.948 . S
H1678 C1667 0.952 . S
H1679 C1669 0.948 . S
C1680 C1646 1.395 . S
C1680 C1650 1.391 . S
C1681 C1643 1.389 . S
C1681 C1663 1.392 . S
C1682 C1653 1.392 . S
C1682 C1655 1.389 . S
C1683 C1658 1.395 . S
C1683 C1660 1.391 . S
H1684 C1644 0.951 . S
H1685 C1645 0.950 . S
H1686 C1651 0.949 . S
H1687 C1652 0.950 . S
H1688 C1656 0.951 . S
H1689 C1657 0.950 . S
H1690 C1661 0.949 . S
H1691 C1662 0.950 . S
H1692 C1666 0.950 . S
H1693 C1668 0.950 . S
H1694 C1671 0.950 . S
H1695 C1673 0.950 . S
H1696 C1702 0.930 . S
H1697 C1705 0.930 . S
H1698 C1706 0.930 . S
H1699 C1707 0.930 . S
H1700 C1710 0.930 . S
H1701 C1711 0.930 . S
C1702 H1696 0.930 . S
C1702 C1703 1.355 . S
C1702 C1704 1.415 . S
C1703 C1702 1.355 . S
C1703 C1705 1.419 . S
C1704 C1702 1.415 . S
C1704 C1709 1.425 . S
C1704 C1711 1.409 . S
C1705 H1697 0.930 . S
C1705 C1703 1.419 . S
C1705 C1706 1.362 . S
C1706 H1698 0.930 . S
C1706 C1705 1.362 . S
C1706 C1709 1.409 . S
C1707 H1699 0.930 . S
C1707 C1708 1.355 . S
C1707 C1709 1.415 . S
C1708 C1707 1.355 . S
C1708 C1710 1.419 . S
C1709 C1704 1.425 . S
C1709 C1706 1.409 . S
C1709 C1707 1.415 . S
C1710 H1700 0.930 . S
C1710 C1708 1.419 . S
C1710 C1711 1.362 . S
C1711 H1701 0.930 . S
C1711 C1704 1.409 . S
C1711 C1710 1.362 . S
H1712 C1718 0.930 . S
H1713 C1721 0.930 . S
H1714 C1722 0.930 . S
H1715 C1723 0.930 . S
H1716 C1726 0.930 . S
H1717 C1727 0.930 . S
C1718 H1712 0.930 . S
C1718 C1719 1.355 1_655 S
C1718 C1720 1.415 . S
C1719 C1718 1.355 1_455 S
C1719 C1721 1.419 . S
C1720 C1718 1.415 . S
C1720 C1725 1.425 . S
C1720 C1727 1.409 . S
C1721 H1713 0.930 . S
C1721 C1719 1.419 . S
C1721 C1722 1.362 1_455 S
C1722 H1714 0.930 . S
C1722 C1721 1.362 1_655 S
C1722 C1725 1.409 . S
C1723 H1715 0.930 . S
C1723 C1724 1.355 . S
C1723 C1725 1.415 . S
C1724 C1723 1.355 . S
C1724 C1726 1.419 . S
C1725 C1720 1.425 . S
C1725 C1722 1.409 . S
C1725 C1723 1.415 . S
C1726 H1716 0.930 . S
C1726 C1724 1.419 . S
C1726 C1727 1.362 . S
C1727 H1717 0.930 . S
C1727 C1720 1.409 . S
C1727 C1726 1.362 . S
H1728 C1734 0.930 . S
H1729 C1737 0.930 . S
H1730 C1738 0.930 . S
H1731 C1739 0.930 . S
H1732 C1742 0.930 . S
H1733 C1743 0.930 . S
C1734 H1728 0.930 . S
C1734 C1735 1.355 . S
C1734 C1736 1.415 . S
C1735 C1734 1.355 . S
C1735 C1737 1.419 . S
C1736 C1734 1.415 . S
C1736 C1741 1.425 . S
C1736 C1743 1.409 . S
C1737 H1729 0.930 . S
C1737 C1735 1.419 . S
C1737 C1738 1.362 . S
C1738 H1730 0.930 . S
C1738 C1737 1.362 . S
C1738 C1741 1.409 . S
C1739 H1731 0.930 . S
C1739 C1740 1.355 . S
C1739 C1741 1.415 . S
C1740 C1739 1.355 . S
C1740 C1742 1.419 . S
C1741 C1736 1.425 . S
C1741 C1738 1.409 . S
C1741 C1739 1.415 . S
C1742 H1732 0.930 . S
C1742 C1740 1.419 . S
C1742 C1743 1.362 . S
C1743 H1733 0.930 . S
C1743 C1736 1.409 . S
C1743 C1742 1.362 . S
H1744 C1750 0.930 . S
H1745 C1753 0.930 . S
H1746 C1754 0.930 . S
H1747 C1755 0.930 . S
H1748 C1758 0.930 . S
H1749 C1759 0.930 . S
C1750 H1744 0.930 . S
C1750 C1751 1.355 . S
C1750 C1752 1.415 . S
C1751 C1750 1.355 . S
C1751 C1753 1.419 . S
C1752 C1750 1.415 . S
C1752 C1757 1.425 . S
C1752 C1759 1.409 . S
C1753 H1745 0.930 . S
C1753 C1751 1.419 . S
C1753 C1754 1.362 . S
C1754 H1746 0.930 . S
C1754 C1753 1.362 . S
C1754 C1757 1.409 . S
C1755 H1747 0.930 . S
C1755 C1756 1.355 . S
C1755 C1757 1.415 . S
C1756 C1755 1.355 . S
C1756 C1758 1.419 . S
C1757 C1752 1.425 . S
C1757 C1754 1.409 . S
C1757 C1755 1.415 . S
C1758 H1748 0.930 . S
C1758 C1756 1.419 . S
C1758 C1759 1.362 . S
C1759 H1749 0.930 . S
C1759 C1752 1.409 . S
C1759 C1758 1.362 . S
H1760 C1766 0.930 . S
H1761 C1769 0.930 . S
H1762 C1770 0.930 . S
H1763 C1771 0.930 . S
H1764 C1774 0.930 . S
H1765 C1775 0.930 . S
C1766 H1760 0.930 . S
C1766 C1767 1.355 . S
C1766 C1768 1.415 . S
C1767 C1766 1.355 . S
C1767 C1769 1.419 . S
C1768 C1766 1.415 . S
C1768 C1773 1.425 . S
C1768 C1775 1.409 . S
C1769 H1761 0.930 . S
C1769 C1767 1.419 . S
C1769 C1770 1.362 . S
C1770 H1762 0.930 . S
C1770 C1769 1.362 . S
C1770 C1773 1.409 . S
C1771 H1763 0.930 . S
C1771 C1772 1.355 . S
C1771 C1773 1.415 . S
C1772 C1771 1.355 . S
C1772 C1774 1.419 . S
C1773 C1768 1.425 . S
C1773 C1770 1.409 . S
C1773 C1771 1.415 . S
C1774 H1764 0.930 . S
C1774 C1772 1.419 . S
C1774 C1775 1.362 . S
C1775 H1765 0.930 . S
C1775 C1768 1.409 . S
C1775 C1774 1.362 . S
H1776 C1782 0.930 . S
H1777 C1785 0.930 . S
H1778 C1786 0.930 . S
H1779 C1787 0.930 . S
H1780 C1790 0.930 . S
H1781 C1791 0.930 . S
C1782 H1776 0.930 . S
C1782 C1783 1.355 . S
C1782 C1784 1.415 . S
C1783 C1782 1.355 . S
C1783 C1785 1.419 . S
C1784 C1782 1.415 . S
C1784 C1789 1.425 . S
C1784 C1791 1.409 . S
C1785 H1777 0.930 . S
C1785 C1783 1.419 . S
C1785 C1786 1.362 . S
C1786 H1778 0.930 . S
C1786 C1785 1.362 . S
C1786 C1789 1.409 . S
C1787 H1779 0.930 . S
C1787 C1788 1.355 . S
C1787 C1789 1.415 . S
C1788 C1787 1.355 . S
C1788 C1790 1.419 . S
C1789 C1784 1.425 . S
C1789 C1786 1.409 . S
C1789 C1787 1.415 . S
C1790 H1780 0.930 . S
C1790 C1788 1.419 . S
C1790 C1791 1.362 . S
C1791 H1781 0.930 . S
C1791 C1784 1.409 . S
C1791 C1790 1.362 . S
H1792 C1798 0.930 . S
H1793 C1801 0.930 . S
H1794 C1802 0.930 . S
H1795 C1803 0.930 . S
H1796 C1806 0.930 . S
H1797 C1807 0.930 . S
C1798 H1792 0.930 . S
C1798 C1799 1.355 . S
C1798 C1800 1.415 . S
C1799 C1798 1.355 . S
C1799 C1801 1.419 . S
C1800 C1798 1.415 . S
C1800 C1805 1.425 . S
C1800 C1807 1.409 . S
C1801 H1793 0.930 . S
C1801 C1799 1.419 . S
C1801 C1802 1.362 . S
C1802 H1794 0.930 . S
C1802 C1801 1.362 . S
C1802 C1805 1.409 . S
C1803 H1795 0.930 . S
C1803 C1804 1.355 . S
C1803 C1805 1.415 . S
C1804 C1803 1.355 . S
C1804 C1806 1.419 . S
C1805 C1800 1.425 . S
C1805 C1802 1.409 . S
C1805 C1803 1.415 . S
C1806 H1796 0.930 . S
C1806 C1804 1.419 . S
C1806 C1807 1.362 . S
C1807 H1797 0.930 . S
C1807 C1800 1.409 . S
C1807 C1806 1.362 . S
H1808 C1814 0.930 1_455 S
H1809 C1817 0.930 . S
H1810 C1818 0.930 . S
H1811 C1819 0.930 . S
H1812 C1822 0.930 . S
H1813 C1823 0.930 . S
C1814 H1808 0.930 1_655 S
C1814 C1815 1.355 1_655 S
C1814 C1816 1.415 . S
C1815 C1814 1.355 1_455 S
C1815 C1817 1.419 1_455 S
C1816 C1814 1.415 . S
C1816 C1821 1.425 . S
C1816 C1823 1.409 . S
C1817 H1809 0.930 . S
C1817 C1815 1.419 1_655 S
C1817 C1818 1.362 . S
C1818 H1810 0.930 . S
C1818 C1817 1.362 . S
C1818 C1821 1.409 . S
C1819 H1811 0.930 . S
C1819 C1820 1.355 . S
C1819 C1821 1.415 . S
C1820 C1819 1.355 . S
C1820 C1822 1.419 . S
C1821 C1816 1.425 . S
C1821 C1818 1.409 . S
C1821 C1819 1.415 . S
C1822 H1812 0.930 . S
C1822 C1820 1.419 . S
C1822 C1823 1.362 . S
C1823 H1813 0.930 . S
C1823 C1816 1.409 . S
C1823 C1822 1.362 . S
H1824 C1830 0.930 . S
H1825 C1833 0.930 . S
H1826 C1834 0.930 . S
H1827 C1835 0.930 . S
H1828 C1838 0.930 . S
H1829 C1839 0.930 . S
C1830 H1824 0.930 . S
C1830 C1831 1.355 . S
C1830 C1832 1.415 . S
C1831 C1830 1.355 . S
C1831 C1833 1.419 . S
C1832 C1830 1.415 . S
C1832 C1837 1.425 . S
C1832 C1839 1.409 . S
C1833 H1825 0.930 . S
C1833 C1831 1.419 . S
C1833 C1834 1.362 . S
C1834 H1826 0.930 . S
C1834 C1833 1.362 . S
C1834 C1837 1.409 . S
C1835 H1827 0.930 . S
C1835 C1836 1.355 . S
C1835 C1837 1.415 . S
C1836 C1835 1.355 . S
C1836 C1838 1.419 . S
C1837 C1832 1.425 . S
C1837 C1834 1.409 . S
C1837 C1835 1.415 . S
C1838 H1828 0.930 . S
C1838 C1836 1.419 . S
C1838 C1839 1.362 . S
C1839 H1829 0.930 . S
C1839 C1832 1.409 . S
C1839 C1838 1.362 . S
H1840 C1846 0.930 . S
H1841 C1849 0.930 . S
H1842 C1850 0.930 . S
H1843 C1851 0.930 . S
H1844 C1854 0.930 . S
H1845 C1855 0.930 . S
C1846 H1840 0.930 . S
C1846 C1847 1.355 . S
C1846 C1848 1.415 . S
C1847 C1846 1.355 . S
C1847 C1849 1.419 . S
C1848 C1846 1.415 . S
C1848 C1853 1.425 . S
C1848 C1855 1.409 . S
C1849 H1841 0.930 . S
C1849 C1847 1.419 . S
C1849 C1850 1.362 . S
C1850 H1842 0.930 . S
C1850 C1849 1.362 . S
C1850 C1853 1.409 . S
C1851 H1843 0.930 . S
C1851 C1852 1.355 . S
C1851 C1853 1.415 . S
C1852 C1851 1.355 . S
C1852 C1854 1.419 . S
C1853 C1848 1.425 . S
C1853 C1850 1.409 . S
C1853 C1851 1.415 . S
C1854 H1844 0.930 . S
C1854 C1852 1.419 . S
C1854 C1855 1.362 . S
C1855 H1845 0.930 . S
C1855 C1848 1.409 . S
C1855 C1854 1.362 . S
H1856 C1862 0.930 . S
H1857 C1865 0.930 . S
H1858 C1866 0.930 . S
H1859 C1867 0.930 . S
H1860 C1870 0.930 . S
H1861 C1871 0.930 . S
C1862 H1856 0.930 . S
C1862 C1863 1.355 . S
C1862 C1864 1.415 . S
C1863 C1862 1.355 . S
C1863 C1865 1.419 . S
C1864 C1862 1.415 . S
C1864 C1869 1.425 . S
C1864 C1871 1.409 . S
C1865 H1857 0.930 . S
C1865 C1863 1.419 . S
C1865 C1866 1.362 . S
C1866 H1858 0.930 . S
C1866 C1865 1.362 . S
C1866 C1869 1.409 . S
C1867 H1859 0.930 . S
C1867 C1868 1.355 . S
C1867 C1869 1.415 . S
C1868 C1867 1.355 . S
C1868 C1870 1.419 . S
C1869 C1864 1.425 . S
C1869 C1866 1.409 . S
C1869 C1867 1.415 . S
C1870 H1860 0.930 . S
C1870 C1868 1.419 . S
C1870 C1871 1.362 . S
C1871 H1861 0.930 . S
C1871 C1864 1.409 . S
C1871 C1870 1.362 . S
H1872 C1878 0.930 . S
H1873 C1881 0.930 . S
H1874 C1882 0.930 . S
H1875 C1883 0.930 . S
H1876 C1886 0.930 . S
H1877 C1887 0.930 . S
C1878 H1872 0.930 . S
C1878 C1879 1.355 . S
C1878 C1880 1.415 . S
C1879 C1878 1.355 . S
C1879 C1881 1.419 . S
C1880 C1878 1.415 . S
C1880 C1885 1.425 . S
C1880 C1887 1.409 . S
C1881 H1873 0.930 . S
C1881 C1879 1.419 . S
C1881 C1882 1.362 . S
C1882 H1874 0.930 . S
C1882 C1881 1.362 . S
C1882 C1885 1.409 . S
C1883 H1875 0.930 . S
C1883 C1884 1.355 . S
C1883 C1885 1.415 . S
C1884 C1883 1.355 . S
C1884 C1886 1.419 . S
C1885 C1880 1.425 . S
C1885 C1882 1.409 . S
C1885 C1883 1.415 . S
C1886 H1876 0.930 . S
C1886 C1884 1.419 . S
C1886 C1887 1.362 . S
C1887 H1877 0.930 . S
C1887 C1880 1.409 . S
C1887 C1886 1.362 . S
H1888 C1894 0.930 . S
H1889 C1897 0.930 . S
H1890 C1898 0.930 . S
H1891 C1899 0.930 . S
H1892 C1902 0.930 . S
H1893 C1903 0.930 . S
C1894 H1888 0.930 . S
C1894 C1895 1.355 . S
C1894 C1896 1.415 . S
C1895 C1894 1.355 . S
C1895 C1897 1.419 . S
C1896 C1894 1.415 . S
C1896 C1901 1.425 . S
C1896 C1903 1.409 . S
C1897 H1889 0.930 . S
C1897 C1895 1.419 . S
C1897 C1898 1.362 . S
C1898 H1890 0.930 . S
C1898 C1897 1.362 . S
C1898 C1901 1.409 . S
C1899 H1891 0.930 . S
C1899 C1900 1.355 . S
C1899 C1901 1.415 . S
C1900 C1899 1.355 . S
C1900 C1902 1.419 . S
C1901 C1896 1.425 . S
C1901 C1898 1.409 . S
C1901 C1899 1.415 . S
C1902 H1892 0.930 . S
C1902 C1900 1.419 . S
C1902 C1903 1.362 . S
C1903 H1893 0.930 . S
C1903 C1896 1.409 . S
C1903 C1902 1.362 . S
H1904 C1910 0.930 . S
H1905 C1913 0.930 . S
H1906 C1914 0.930 . S
H1907 C1915 0.930 . S
H1908 C1918 0.930 . S
H1909 C1919 0.930 . S
C1910 H1904 0.930 . S
C1910 C1911 1.355 . S
C1910 C1912 1.415 . S
C1911 C1910 1.355 . S
C1911 C1913 1.419 . S
C1912 C1910 1.415 . S
C1912 C1917 1.425 . S
C1912 C1919 1.409 . S
C1913 H1905 0.930 . S
C1913 C1911 1.419 . S
C1913 C1914 1.362 . S
C1914 H1906 0.930 . S
C1914 C1913 1.362 . S
C1914 C1917 1.409 . S
C1915 H1907 0.930 . S
C1915 C1916 1.355 . S
C1915 C1917 1.415 . S
C1916 C1915 1.355 . S
C1916 C1918 1.419 . S
C1917 C1912 1.425 . S
C1917 C1914 1.409 . S
C1917 C1915 1.415 . S
C1918 H1908 0.930 . S
C1918 C1916 1.419 . S
C1918 C1919 1.362 . S
C1919 H1909 0.930 . S
C1919 C1912 1.409 . S
C1919 C1918 1.362 . S
H1920 C1926 0.930 . S
H1921 C1929 0.930 . S
H1922 C1930 0.930 . S
H1923 C1931 0.930 . S
H1924 C1934 0.930 . S
H1925 C1935 0.930 . S
C1926 H1920 0.930 . S
C1926 C1927 1.355 . S
C1926 C1928 1.415 . S
C1927 C1926 1.355 . S
C1927 C1929 1.419 . S
C1928 C1926 1.415 . S
C1928 C1933 1.425 . S
C1928 C1935 1.409 . S
C1929 H1921 0.930 . S
C1929 C1927 1.419 . S
C1929 C1930 1.362 . S
C1930 H1922 0.930 . S
C1930 C1929 1.362 . S
C1930 C1933 1.409 . S
C1931 H1923 0.930 . S
C1931 C1932 1.355 . S
C1931 C1933 1.415 . S
C1932 C1931 1.355 . S
C1932 C1934 1.419 . S
C1933 C1928 1.425 . S
C1933 C1930 1.409 . S
C1933 C1931 1.415 . S
C1934 H1924 0.930 . S
C1934 C1932 1.419 . S
C1934 C1935 1.362 . S
C1935 H1925 0.930 . S
C1935 C1928 1.409 . S
C1935 C1934 1.362 . S
H1936 C1942 0.930 . S
H1937 C1945 0.930 . S
H1938 C1946 0.930 . S
H1939 C1947 0.930 . S
H1940 C1950 0.930 1_545 S
H1941 C1951 0.930 . S
C1942 H1936 0.930 . S
C1942 C1943 1.355 . S
C1942 C1944 1.415 . S
C1943 C1942 1.355 . S
C1943 C1945 1.419 . S
C1944 C1942 1.415 . S
C1944 C1949 1.425 . S
C1944 C1951 1.409 . S
C1945 H1937 0.930 . S
C1945 C1943 1.419 . S
C1945 C1946 1.362 . S
C1946 H1938 0.930 . S
C1946 C1945 1.362 . S
C1946 C1949 1.409 . S
C1947 H1939 0.930 . S
C1947 C1948 1.355 . S
C1947 C1949 1.415 . S
C1948 C1947 1.355 . S
C1948 C1950 1.419 . S
C1949 C1944 1.425 . S
C1949 C1946 1.409 . S
C1949 C1947 1.415 . S
C1950 H1940 0.930 1_565 S
C1950 C1948 1.419 . S
C1950 C1951 1.362 . S
C1951 H1941 0.930 . S
C1951 C1944 1.409 . S
C1951 C1950 1.362 . S
H1952 C1958 0.930 . S
H1953 C1961 0.930 . S
H1954 C1962 0.930 . S
H1955 C1963 0.930 . S
H1956 C1966 0.930 . S
H1957 C1967 0.930 . S
C1958 H1952 0.930 . S
C1958 C1959 1.355 . S
C1958 C1960 1.415 . S
C1959 C1958 1.355 . S
C1959 C1961 1.419 . S
C1960 C1958 1.415 . S
C1960 C1965 1.425 . S
C1960 C1967 1.409 . S
C1961 H1953 0.930 . S
C1961 C1959 1.419 . S
C1961 C1962 1.362 . S
C1962 H1954 0.930 . S
C1962 C1961 1.362 . S
C1962 C1965 1.409 . S
C1963 H1955 0.930 . S
C1963 C1964 1.355 . S
C1963 C1965 1.415 . S
C1964 C1963 1.355 . S
C1964 C1966 1.419 . S
C1965 C1960 1.425 . S
C1965 C1962 1.409 . S
C1965 C1963 1.415 . S
C1966 H1956 0.930 . S
C1966 C1964 1.419 . S
C1966 C1967 1.362 . S
C1967 H1957 0.930 . S
C1967 C1960 1.409 . S
C1967 C1966 1.362 . S
H1968 C1974 0.930 . S
H1969 C1977 0.930 . S
H1970 C1978 0.930 . S
H1971 C1979 0.930 . S
H1972 C1982 0.930 . S
H1973 C1983 0.930 . S
C1974 H1968 0.930 . S
C1974 C1975 1.355 . S
C1974 C1976 1.415 . S
C1975 C1974 1.355 . S
C1975 C1977 1.419 . S
C1976 C1974 1.415 . S
C1976 C1981 1.425 . S
C1976 C1983 1.409 . S
C1977 H1969 0.930 . S
C1977 C1975 1.419 . S
C1977 C1978 1.362 . S
C1978 H1970 0.930 . S
C1978 C1977 1.362 . S
C1978 C1981 1.409 . S
C1979 H1971 0.930 . S
C1979 C1980 1.355 . S
C1979 C1981 1.415 . S
C1980 C1979 1.355 . S
C1980 C1982 1.419 . S
C1981 C1976 1.425 . S
C1981 C1978 1.409 . S
C1981 C1979 1.415 . S
C1982 H1972 0.930 . S
C1982 C1980 1.419 . S
C1982 C1983 1.362 . S
C1983 H1973 0.930 . S
C1983 C1976 1.409 . S
C1983 C1982 1.362 . S
H1984 C1990 0.930 . S
H1985 C1993 0.930 . S
H1986 C1994 0.930 . S
H1987 C1995 0.930 . S
H1988 C1998 0.930 . S
H1989 C1999 0.930 . S
C1990 H1984 0.930 . S
C1990 C1991 1.355 . S
C1990 C1992 1.415 . S
C1991 C1990 1.355 . S
C1991 C1993 1.419 . S
C1992 C1990 1.415 . S
C1992 C1997 1.425 . S
C1992 C1999 1.409 . S
C1993 H1985 0.930 . S
C1993 C1991 1.419 . S
C1993 C1994 1.362 . S
C1994 H1986 0.930 . S
C1994 C1993 1.362 . S
C1994 C1997 1.409 . S
C1995 H1987 0.930 . S
C1995 C1996 1.355 . S
C1995 C1997 1.415 . S
C1996 C1995 1.355 . S
C1996 C1998 1.419 . S
C1997 C1992 1.425 . S
C1997 C1994 1.409 . S
C1997 C1995 1.415 . S
C1998 H1988 0.930 . S
C1998 C1996 1.419 . S
C1998 C1999 1.362 . S
C1999 H1989 0.930 . S
C1999 C1992 1.409 . S
C1999 C1998 1.362 . S
H2000 C2006 0.930 . S
H2001 C2009 0.930 . S
H2002 C2010 0.930 . S
H2003 C2011 0.930 1_655 S
H2004 C2014 0.930 . S
H2005 C2015 0.930 . S
C2006 H2000 0.930 . S
C2006 C2007 1.355 . S
C2006 C2008 1.415 . S
C2007 C2006 1.355 . S
C2007 C2009 1.419 . S
C2008 C2006 1.415 . S
C2008 C2013 1.425 . S
C2008 C2015 1.409 . S
C2009 H2001 0.930 . S
C2009 C2007 1.419 . S
C2009 C2010 1.362 . S
C2010 H2002 0.930 . S
C2010 C2009 1.362 . S
C2010 C2013 1.409 . S
C2011 H2003 0.930 1_455 S
C2011 C2012 1.355 1_455 S
C2011 C2013 1.415 . S
C2012 C2011 1.355 1_655 S
C2012 C2014 1.419 1_655 S
C2013 C2008 1.425 . S
C2013 C2010 1.409 . S
C2013 C2011 1.415 . S
C2014 H2004 0.930 . S
C2014 C2012 1.419 1_455 S
C2014 C2015 1.362 . S
C2015 H2005 0.930 . S
C2015 C2008 1.409 . S
C2015 C2014 1.362 . S
H2016 C2022 0.930 . S
H2017 C2025 0.930 . S
H2018 C2026 0.930 . S
H2019 C2027 0.930 . S
H2020 C2030 0.930 . S
H2021 C2031 0.930 . S
C2022 H2016 0.930 . S
C2022 C2023 1.355 . S
C2022 C2024 1.415 . S
C2023 C2022 1.355 . S
C2023 C2025 1.419 . S
C2024 C2022 1.415 . S
C2024 C2029 1.425 . S
C2024 C2031 1.409 . S
C2025 H2017 0.930 . S
C2025 C2023 1.419 . S
C2025 C2026 1.362 . S
C2026 H2018 0.930 . S
C2026 C2025 1.362 . S
C2026 C2029 1.409 . S
C2027 H2019 0.930 . S
C2027 C2028 1.355 . S
C2027 C2029 1.415 . S
C2028 C2027 1.355 . S
C2028 C2030 1.419 . S
C2029 C2024 1.425 . S
C2029 C2026 1.409 . S
C2029 C2027 1.415 . S
C2030 H2020 0.930 . S
C2030 C2028 1.419 . S
C2030 C2031 1.362 . S
C2031 H2021 0.930 . S
C2031 C2024 1.409 . S
C2031 C2030 1.362 . S
H2032 C2038 0.930 . S
H2033 C2041 0.930 . S
H2034 C2042 0.930 . S
H2035 C2043 0.930 . S
H2036 C2046 0.930 . S
H2037 C2047 0.930 . S
C2038 H2032 0.930 . S
C2038 C2039 1.355 . S
C2038 C2040 1.415 . S
C2039 C2038 1.355 . S
C2039 C2041 1.419 . S
C2040 C2038 1.415 . S
C2040 C2045 1.425 . S
C2040 C2047 1.409 . S
C2041 H2033 0.930 . S
C2041 C2039 1.419 . S
C2041 C2042 1.362 . S
C2042 H2034 0.930 . S
C2042 C2041 1.362 . S
C2042 C2045 1.409 . S
C2043 H2035 0.930 . S
C2043 C2044 1.355 1_455 S
C2043 C2045 1.415 . S
C2044 C2043 1.355 1_655 S
C2044 C2046 1.419 . S
C2045 C2040 1.425 . S
C2045 C2042 1.409 . S
C2045 C2043 1.415 . S
C2046 H2036 0.930 . S
C2046 C2044 1.419 . S
C2046 C2047 1.362 1_655 S
C2047 H2037 0.930 . S
C2047 C2040 1.409 . S
C2047 C2046 1.362 1_455 S
H2048 C2054 0.930 . S
H2049 C2057 0.930 . S
H2050 C2058 0.930 . S
H2051 C2059 0.930 . S
H2052 C2062 0.930 . S
H2053 C2063 0.930 . S
C2054 H2048 0.930 . S
C2054 C2055 1.355 . S
C2054 C2056 1.415 . S
C2055 C2054 1.355 . S
C2055 C2057 1.419 . S
C2056 C2054 1.415 . S
C2056 C2061 1.425 . S
C2056 C2063 1.409 . S
C2057 H2049 0.930 . S
C2057 C2055 1.419 . S
C2057 C2058 1.362 . S
C2058 H2050 0.930 . S
C2058 C2057 1.362 . S
C2058 C2061 1.409 . S
C2059 H2051 0.930 . S
C2059 C2060 1.355 . S
C2059 C2061 1.415 . S
C2060 C2059 1.355 . S
C2060 C2062 1.419 . S
C2061 C2056 1.425 . S
C2061 C2058 1.409 . S
C2061 C2059 1.415 . S
C2062 H2052 0.930 . S
C2062 C2060 1.419 . S
C2062 C2063 1.362 . S
C2063 H2053 0.930 . S
C2063 C2056 1.409 . S
C2063 C2062 1.362 . S
H2064 C2070 0.930 . S
H2065 C2073 0.930 . S
H2066 C2074 0.930 . S
H2067 C2075 0.930 . S
H2068 C2078 0.930 . S
H2069 C2079 0.930 . S
C2070 H2064 0.930 . S
C2070 C2071 1.355 . S
C2070 C2072 1.415 . S
C2071 C2070 1.355 . S
C2071 C2073 1.419 . S
C2072 C2070 1.415 . S
C2072 C2077 1.425 . S
C2072 C2079 1.409 . S
C2073 H2065 0.930 . S
C2073 C2071 1.419 . S
C2073 C2074 1.362 . S
C2074 H2066 0.930 . S
C2074 C2073 1.362 . S
C2074 C2077 1.409 . S
C2075 H2067 0.930 . S
C2075 C2076 1.355 . S
C2075 C2077 1.415 . S
C2076 C2075 1.355 . S
C2076 C2078 1.419 . S
C2077 C2072 1.425 . S
C2077 C2074 1.409 . S
C2077 C2075 1.415 . S
C2078 H2068 0.930 . S
C2078 C2076 1.419 . S
C2078 C2079 1.362 . S
C2079 H2069 0.930 . S
C2079 C2072 1.409 . S
C2079 C2078 1.362 . S
H2080 C2086 0.930 . S
H2081 C2089 0.930 . S
H2082 C2090 0.930 . S
H2083 C2091 0.930 . S
H2084 C2094 0.930 . S
H2085 C2095 0.930 . S
C2086 H2080 0.930 . S
C2086 C2087 1.355 . S
C2086 C2088 1.415 . S
C2087 C2086 1.355 . S
C2087 C2089 1.419 . S
C2088 C2086 1.415 . S
C2088 C2093 1.425 . S
C2088 C2095 1.409 . S
C2089 H2081 0.930 . S
C2089 C2087 1.419 . S
C2089 C2090 1.362 . S
C2090 H2082 0.930 . S
C2090 C2089 1.362 . S
C2090 C2093 1.409 . S
C2091 H2083 0.930 . S
C2091 C2092 1.355 . S
C2091 C2093 1.415 . S
C2092 C2091 1.355 . S
C2092 C2094 1.419 . S
C2093 C2088 1.425 . S
C2093 C2090 1.409 . S
C2093 C2091 1.415 . S
C2094 H2084 0.930 . S
C2094 C2092 1.419 . S
C2094 C2095 1.362 . S
C2095 H2085 0.930 . S
C2095 C2088 1.409 . S
C2095 C2094 1.362 . S
H2096 C2102 0.930 . S
H2097 C2105 0.930 . S
H2098 C2106 0.930 . S
H2099 C2107 0.930 . S
H2100 C2110 0.930 . S
H2101 C2111 0.930 . S
C2102 H2096 0.930 . S
C2102 C2103 1.355 . S
C2102 C2104 1.415 . S
C2103 C2102 1.355 . S
C2103 C2105 1.419 . S
C2104 C2102 1.415 . S
C2104 C2109 1.425 . S
C2104 C2111 1.409 . S
C2105 H2097 0.930 . S
C2105 C2103 1.419 . S
C2105 C2106 1.362 . S
C2106 H2098 0.930 . S
C2106 C2105 1.362 . S
C2106 C2109 1.409 . S
C2107 H2099 0.930 . S
C2107 C2108 1.355 . S
C2107 C2109 1.415 . S
C2108 C2107 1.355 . S
C2108 C2110 1.419 . S
C2109 C2104 1.425 . S
C2109 C2106 1.409 . S
C2109 C2107 1.415 . S
C2110 H2100 0.930 . S
C2110 C2108 1.419 . S
C2110 C2111 1.362 . S
C2111 H2101 0.930 . S
C2111 C2104 1.409 . S
C2111 C2110 1.362 . S
H2112 C2118 0.930 . S
H2113 C2121 0.930 . S
H2114 C2122 0.930 . S
H2115 C2123 0.930 . S
H2116 C2126 0.930 . S
H2117 C2127 0.930 . S
C2118 H2112 0.930 . S
C2118 C2119 1.355 . S
C2118 C2120 1.415 . S
C2119 C2118 1.355 . S
C2119 C2121 1.419 . S
C2120 C2118 1.415 . S
C2120 C2125 1.425 . S
C2120 C2127 1.409 . S
C2121 H2113 0.930 . S
C2121 C2119 1.419 . S
C2121 C2122 1.362 . S
C2122 H2114 0.930 . S
C2122 C2121 1.362 . S
C2122 C2125 1.409 . S
C2123 H2115 0.930 . S
C2123 C2124 1.355 . S
C2123 C2125 1.415 . S
C2124 C2123 1.355 . S
C2124 C2126 1.419 . S
C2125 C2120 1.425 . S
C2125 C2122 1.409 . S
C2125 C2123 1.415 . S
C2126 H2116 0.930 . S
C2126 C2124 1.419 . S
C2126 C2127 1.362 . S
C2127 H2117 0.930 . S
C2127 C2120 1.409 . S
C2127 C2126 1.362 . S
H2128 C2134 0.930 . S
H2129 C2137 0.930 . S
H2130 C2138 0.930 . S
H2131 C2139 0.930 . S
H2132 C2142 0.930 . S
H2133 C2143 0.930 . S
C2134 H2128 0.930 . S
C2134 C2135 1.355 . S
C2134 C2136 1.415 . S
C2135 C2134 1.355 . S
C2135 C2137 1.419 . S
C2136 C2134 1.415 . S
C2136 C2141 1.425 . S
C2136 C2143 1.409 . S
C2137 H2129 0.930 . S
C2137 C2135 1.419 . S
C2137 C2138 1.362 . S
C2138 H2130 0.930 . S
C2138 C2137 1.362 . S
C2138 C2141 1.409 . S
C2139 H2131 0.930 . S
C2139 C2140 1.355 . S
C2139 C2141 1.415 . S
C2140 C2139 1.355 . S
C2140 C2142 1.419 . S
C2141 C2136 1.425 . S
C2141 C2138 1.409 . S
C2141 C2139 1.415 . S
C2142 H2132 0.930 . S
C2142 C2140 1.419 . S
C2142 C2143 1.362 . S
C2143 H2133 0.930 . S
C2143 C2136 1.409 . S
C2143 C2142 1.362 . S
H2144 C2150 0.930 . S
H2145 C2153 0.930 . S
H2146 C2154 0.930 . S
H2147 C2155 0.930 . S
H2148 C2158 0.930 . S
H2149 C2159 0.930 . S
C2150 H2144 0.930 . S
C2150 C2151 1.355 . S
C2150 C2152 1.415 . S
C2151 C2150 1.355 . S
C2151 C2153 1.419 . S
C2152 C2150 1.415 . S
C2152 C2157 1.425 . S
C2152 C2159 1.409 . S
C2153 H2145 0.930 . S
C2153 C2151 1.419 . S
C2153 C2154 1.362 . S
C2154 H2146 0.930 . S
C2154 C2153 1.362 . S
C2154 C2157 1.409 . S
C2155 H2147 0.930 . S
C2155 C2156 1.355 . S
C2155 C2157 1.415 . S
C2156 C2155 1.355 . S
C2156 C2158 1.419 . S
C2157 C2152 1.425 . S
C2157 C2154 1.409 . S
C2157 C2155 1.415 . S
C2158 H2148 0.930 . S
C2158 C2156 1.419 . S
C2158 C2159 1.362 . S
C2159 H2149 0.930 . S
C2159 C2152 1.409 . S
C2159 C2158 1.362 . S
H2160 C2166 0.930 . S
H2161 C2169 0.930 . S
H2162 C2170 0.930 . S
H2163 C2171 0.930 . S
H2164 C2174 0.930 . S
H2165 C2175 0.930 . S
C2166 H2160 0.930 . S
C2166 C2167 1.355 . S
C2166 C2168 1.415 . S
C2167 C2166 1.355 . S
C2167 C2169 1.419 . S
C2168 C2166 1.415 . S
C2168 C2173 1.425 . S
C2168 C2175 1.409 . S
C2169 H2161 0.930 . S
C2169 C2167 1.419 . S
C2169 C2170 1.362 . S
C2170 H2162 0.930 . S
C2170 C2169 1.362 . S
C2170 C2173 1.409 . S
C2171 H2163 0.930 . S
C2171 C2172 1.355 . S
C2171 C2173 1.415 . S
C2172 C2171 1.355 . S
C2172 C2174 1.419 . S
C2173 C2168 1.425 . S
C2173 C2170 1.409 . S
C2173 C2171 1.415 . S
C2174 H2164 0.930 . S
C2174 C2172 1.419 . S
C2174 C2175 1.362 . S
C2175 H2165 0.930 . S
C2175 C2168 1.409 . S
C2175 C2174 1.362 . S
H2176 C2182 0.930 . S
H2177 C2185 0.930 . S
H2178 C2186 0.930 . S
H2179 C2187 0.930 . S
H2180 C2190 0.930 . S
H2181 C2191 0.930 . S
C2182 H2176 0.930 . S
C2182 C2183 1.355 . S
C2182 C2184 1.415 . S
C2183 C2182 1.355 . S
C2183 C2185 1.419 . S
C2184 C2182 1.415 . S
C2184 C2189 1.425 . S
C2184 C2191 1.409 . S
C2185 H2177 0.930 . S
C2185 C2183 1.419 . S
C2185 C2186 1.362 . S
C2186 H2178 0.930 . S
C2186 C2185 1.362 . S
C2186 C2189 1.409 . S
C2187 H2179 0.930 . S
C2187 C2188 1.355 . S
C2187 C2189 1.415 . S
C2188 C2187 1.355 . S
C2188 C2190 1.419 . S
C2189 C2184 1.425 . S
C2189 C2186 1.409 . S
C2189 C2187 1.415 . S
C2190 H2180 0.930 . S
C2190 C2188 1.419 . S
C2190 C2191 1.362 . S
C2191 H2181 0.930 . S
C2191 C2184 1.409 . S
C2191 C2190 1.362 . S
H2192 C2198 0.930 . S
H2193 C2201 0.930 . S
H2194 C2202 0.930 . S
H2195 C2203 0.930 . S
H2196 C2206 0.930 . S
H2197 C2207 0.930 . S
C2198 H2192 0.930 . S
C2198 C2199 1.355 . S
C2198 C2200 1.415 . S
C2199 C2198 1.355 . S
C2199 C2201 1.419 . S
C2200 C2198 1.415 . S
C2200 C2205 1.425 . S
C2200 C2207 1.409 . S
C2201 H2193 0.930 . S
C2201 C2199 1.419 . S
C2201 C2202 1.362 . S
C2202 H2194 0.930 . S
C2202 C2201 1.362 . S
C2202 C2205 1.409 . S
C2203 H2195 0.930 . S
C2203 C2204 1.355 . S
C2203 C2205 1.415 . S
C2204 C2203 1.355 . S
C2204 C2206 1.419 . S
C2205 C2200 1.425 . S
C2205 C2202 1.409 . S
C2205 C2203 1.415 . S
C2206 H2196 0.930 . S
C2206 C2204 1.419 . S
C2206 C2207 1.362 . S
C2207 H2197 0.930 . S
C2207 C2200 1.409 . S
C2207 C2206 1.362 . S
H2208 C2214 0.930 . S
H2209 C2217 0.930 . S
H2210 C2218 0.930 . S
H2211 C2219 0.930 . S
H2212 C2222 0.930 . S
H2213 C2223 0.930 . S
C2214 H2208 0.930 . S
C2214 C2215 1.355 . S
C2214 C2216 1.415 . S
C2215 C2214 1.355 . S
C2215 C2217 1.419 . S
C2216 C2214 1.415 . S
C2216 C2221 1.425 . S
C2216 C2223 1.409 . S
C2217 H2209 0.930 . S
C2217 C2215 1.419 . S
C2217 C2218 1.362 . S
C2218 H2210 0.930 . S
C2218 C2217 1.362 . S
C2218 C2221 1.409 . S
C2219 H2211 0.930 . S
C2219 C2220 1.355 . S
C2219 C2221 1.415 . S
C2220 C2219 1.355 . S
C2220 C2222 1.419 . S
C2221 C2216 1.425 . S
C2221 C2218 1.409 . S
C2221 C2219 1.415 . S
C2222 H2212 0.930 . S
C2222 C2220 1.419 . S
C2222 C2223 1.362 . S
C2223 H2213 0.930 . S
C2223 C2216 1.409 . S
C2223 C2222 1.362 . S
H2224 C2230 0.930 . S
H2225 C2233 0.930 . S
H2226 C2234 0.930 . S
H2227 C2235 0.930 . S
H2228 C2238 0.930 . S
H2229 C2239 0.930 . S
C2230 H2224 0.930 . S
C2230 C2231 1.355 . S
C2230 C2232 1.415 . S
C2231 C2230 1.355 . S
C2231 C2233 1.419 . S
C2232 C2230 1.415 . S
C2232 C2237 1.425 . S
C2232 C2239 1.409 1_455 S
C2233 H2225 0.930 . S
C2233 C2231 1.419 . S
C2233 C2234 1.362 . S
C2234 H2226 0.930 . S
C2234 C2233 1.362 . S
C2234 C2237 1.409 . S
C2235 H2227 0.930 . S
C2235 C2236 1.355 1_455 S
C2235 C2237 1.415 . S
C2236 C2235 1.355 1_655 S
C2236 C2238 1.419 . S
C2237 C2232 1.425 . S
C2237 C2234 1.409 . S
C2237 C2235 1.415 . S
C2238 H2228 0.930 . S
C2238 C2236 1.419 . S
C2238 C2239 1.362 . S
C2239 H2229 0.930 . S
C2239 C2232 1.409 1_655 S
C2239 C2238 1.362 . S
H2240 C2246 0.930 . S
H2241 C2249 0.930 . S
H2242 C2250 0.930 . S
H2243 C2251 0.930 . S
H2244 C2254 0.930 . S
H2245 C2255 0.930 . S
C2246 H2240 0.930 . S
C2246 C2247 1.355 . S
C2246 C2248 1.415 . S
C2247 C2246 1.355 . S
C2247 C2249 1.419 . S
C2248 C2246 1.415 . S
C2248 C2253 1.425 . S
C2248 C2255 1.409 . S
C2249 H2241 0.930 . S
C2249 C2247 1.419 . S
C2249 C2250 1.362 . S
C2250 H2242 0.930 . S
C2250 C2249 1.362 . S
C2250 C2253 1.409 . S
C2251 H2243 0.930 . S
C2251 C2252 1.355 . S
C2251 C2253 1.415 . S
C2252 C2251 1.355 . S
C2252 C2254 1.419 . S
C2253 C2248 1.425 . S
C2253 C2250 1.409 . S
C2253 C2251 1.415 . S
C2254 H2244 0.930 . S
C2254 C2252 1.419 . S
C2254 C2255 1.362 . S
C2255 H2245 0.930 . S
C2255 C2248 1.409 . S
C2255 C2254 1.362 . S
H2256 C2262 0.930 . S
H2257 C2265 0.930 . S
H2258 C2266 0.930 . S
H2259 C2267 0.930 . S
H2260 C2270 0.930 . S
H2261 C2271 0.930 . S
C2262 H2256 0.930 . S
C2262 C2263 1.355 1_565 S
C2262 C2264 1.415 1_565 S
C2263 C2262 1.355 1_545 S
C2263 C2265 1.419 . S
C2264 C2262 1.415 1_545 S
C2264 C2269 1.425 . S
C2264 C2271 1.409 1_544 S
C2265 H2257 0.930 . S
C2265 C2263 1.419 . S
C2265 C2266 1.362 . S
C2266 H2258 0.930 . S
C2266 C2265 1.362 . S
C2266 C2269 1.409 . S
C2267 H2259 0.930 . S
C2267 C2268 1.355 . S
C2267 C2269 1.415 1_556 S
C2268 C2267 1.355 . S
C2268 C2270 1.419 1_545 S
C2269 C2264 1.425 . S
C2269 C2266 1.409 . S
C2269 C2267 1.415 1_554 S
C2270 H2260 0.930 . S
C2270 C2268 1.419 1_565 S
C2270 C2271 1.362 . S
C2271 H2261 0.930 . S
C2271 C2264 1.409 1_566 S
C2271 C2270 1.362 . S
H2272 C2278 0.930 . S
H2273 C2281 0.930 . S
H2274 C2282 0.930 . S
H2275 C2283 0.930 . S
H2276 C2286 0.930 . S
H2277 C2287 0.930 . S
C2278 H2272 0.930 . S
C2278 C2279 1.355 . S
C2278 C2280 1.415 . S
C2279 C2278 1.355 . S
C2279 C2281 1.419 . S
C2280 C2278 1.415 . S
C2280 C2285 1.425 . S
C2280 C2287 1.409 . S
C2281 H2273 0.930 . S
C2281 C2279 1.419 . S
C2281 C2282 1.362 . S
C2282 H2274 0.930 . S
C2282 C2281 1.362 . S
C2282 C2285 1.409 . S
C2283 H2275 0.930 . S
C2283 C2284 1.355 . S
C2283 C2285 1.415 . S
C2284 C2283 1.355 . S
C2284 C2286 1.419 . S
C2285 C2280 1.425 . S
C2285 C2282 1.409 . S
C2285 C2283 1.415 . S
C2286 H2276 0.930 . S
C2286 C2284 1.419 . S
C2286 C2287 1.362 . S
C2287 H2277 0.930 . S
C2287 C2280 1.409 . S
C2287 C2286 1.362 . S
H2288 C2294 0.930 . S
H2289 C2297 0.930 . S
H2290 C2298 0.930 . S
H2291 C2299 0.930 . S
H2292 C2302 0.930 . S
H2293 C2303 0.930 . S
C2294 H2288 0.930 . S
C2294 C2295 1.355 . S
C2294 C2296 1.415 . S
C2295 C2294 1.355 . S
C2295 C2297 1.419 . S
C2296 C2294 1.415 . S
C2296 C2301 1.425 . S
C2296 C2303 1.409 . S
C2297 H2289 0.930 . S
C2297 C2295 1.419 . S
C2297 C2298 1.362 . S
C2298 H2290 0.930 . S
C2298 C2297 1.362 . S
C2298 C2301 1.409 . S
C2299 H2291 0.930 . S
C2299 C2300 1.355 . S
C2299 C2301 1.415 . S
C2300 C2299 1.355 . S
C2300 C2302 1.419 . S
C2301 C2296 1.425 . S
C2301 C2298 1.409 . S
C2301 C2299 1.415 . S
C2302 H2292 0.930 . S
C2302 C2300 1.419 . S
C2302 C2303 1.362 . S
C2303 H2293 0.930 . S
C2303 C2296 1.409 . S
C2303 C2302 1.362 . S
H2304 C2310 0.930 . S
H2305 C2313 0.930 . S
H2306 C2314 0.930 . S
H2307 C2315 0.930 . S
H2308 C2318 0.930 . S
H2309 C2319 0.930 . S
C2310 H2304 0.930 . S
C2310 C2311 1.355 . S
C2310 C2312 1.415 . S
C2311 C2310 1.355 . S
C2311 C2313 1.419 . S
C2312 C2310 1.415 . S
C2312 C2317 1.425 . S
C2312 C2319 1.409 . S
C2313 H2305 0.930 . S
C2313 C2311 1.419 . S
C2313 C2314 1.362 . S
C2314 H2306 0.930 . S
C2314 C2313 1.362 . S
C2314 C2317 1.409 . S
C2315 H2307 0.930 . S
C2315 C2316 1.355 . S
C2315 C2317 1.415 . S
C2316 C2315 1.355 . S
C2316 C2318 1.419 . S
C2317 C2312 1.425 . S
C2317 C2314 1.409 . S
C2317 C2315 1.415 . S
C2318 H2308 0.930 . S
C2318 C2316 1.419 . S
C2318 C2319 1.362 . S
C2319 H2309 0.930 . S
C2319 C2312 1.409 . S
C2319 C2318 1.362 . S
H2320 C2326 0.930 . S
H2321 C2329 0.930 . S
H2322 C2330 0.930 . S
H2323 C2331 0.925 1_556 S
H2324 C2334 0.930 . S
H2325 C2335 0.930 . S
C2326 H2320 0.930 . S
C2326 C2327 1.355 . S
C2326 C2328 1.415 . S
C2327 C2326 1.355 . S
C2327 C2329 1.419 . S
C2328 C2326 1.415 . S
C2328 C2333 1.425 1_455 S
C2328 C2335 1.409 1_556 S
C2329 H2321 0.930 . S
C2329 C2327 1.419 . S
C2329 C2330 1.362 1_455 S
C2330 H2322 0.930 . S
C2330 C2329 1.362 1_655 S
C2330 C2333 1.409 . S
C2331 H2323 0.925 1_554 S
C2331 C2332 1.355 . S
C2331 C2333 1.415 1_554 S
C2332 C2331 1.355 . S
C2332 C2334 1.419 1_655 S
C2333 C2328 1.425 1_655 S
C2333 C2330 1.409 . S
C2333 C2331 1.415 1_556 S
C2334 H2324 0.930 . S
C2334 C2332 1.419 1_455 S
C2334 C2335 1.362 . S
C2335 H2325 0.930 . S
C2335 C2328 1.409 1_554 S
C2335 C2334 1.362 . S
H2336 C2342 0.930 . S
H2337 C2345 0.930 . S
H2338 C2346 0.930 . S
H2339 C2347 0.930 . S
H2340 C2350 0.930 . S
H2341 C2351 0.930 . S
C2342 H2336 0.930 . S
C2342 C2343 1.355 . S
C2342 C2344 1.415 . S
C2343 C2342 1.355 . S
C2343 C2345 1.419 . S
C2344 C2342 1.415 . S
C2344 C2349 1.425 . S
C2344 C2351 1.409 . S
C2345 H2337 0.930 . S
C2345 C2343 1.419 . S
C2345 C2346 1.362 . S
C2346 H2338 0.930 . S
C2346 C2345 1.362 . S
C2346 C2349 1.409 . S
C2347 H2339 0.930 . S
C2347 C2348 1.355 . S
C2347 C2349 1.415 . S
C2348 C2347 1.355 . S
C2348 C2350 1.419 . S
C2349 C2344 1.425 . S
C2349 C2346 1.409 . S
C2349 C2347 1.415 . S
C2350 H2340 0.930 . S
C2350 C2348 1.419 . S
C2350 C2351 1.362 . S
C2351 H2341 0.930 . S
C2351 C2344 1.409 . S
C2351 C2350 1.362 . S
H2352 C2358 0.930 . S
H2353 C2361 0.930 . S
H2354 C2362 0.930 . S
H2355 C2363 0.930 . S
H2356 C2366 0.930 . S
H2357 C2367 0.930 . S
C2358 H2352 0.930 . S
C2358 C2359 1.355 . S
C2358 C2360 1.415 . S
C2359 C2358 1.355 . S
C2359 C2361 1.419 . S
C2360 C2358 1.415 . S
C2360 C2365 1.425 . S
C2360 C2367 1.409 . S
C2361 H2353 0.930 . S
C2361 C2359 1.419 . S
C2361 C2362 1.362 . S
C2362 H2354 0.930 . S
C2362 C2361 1.362 . S
C2362 C2365 1.409 . S
C2363 H2355 0.930 . S
C2363 C2364 1.355 . S
C2363 C2365 1.415 . S
C2364 C2363 1.355 . S
C2364 C2366 1.419 . S
C2365 C2360 1.425 . S
C2365 C2362 1.409 . S
C2365 C2363 1.415 . S
C2366 H2356 0.930 . S
C2366 C2364 1.419 . S
C2366 C2367 1.362 . S
C2367 H2357 0.930 . S
C2367 C2360 1.409 . S
C2367 C2366 1.362 . S
H2368 C2374 0.930 . S
H2369 C2377 0.930 . S
H2370 C2378 0.930 . S
H2371 C2379 0.930 . S
H2372 C2382 0.930 . S
H2373 C2383 0.930 . S
C2374 H2368 0.930 . S
C2374 C2375 1.355 . S
C2374 C2376 1.415 . S
C2375 C2374 1.355 . S
C2375 C2377 1.419 . S
C2376 C2374 1.415 . S
C2376 C2381 1.425 . S
C2376 C2383 1.409 . S
C2377 H2369 0.930 . S
C2377 C2375 1.419 . S
C2377 C2378 1.362 . S
C2378 H2370 0.930 . S
C2378 C2377 1.362 . S
C2378 C2381 1.409 . S
C2379 H2371 0.930 . S
C2379 C2380 1.355 . S
C2379 C2381 1.415 . S
C2380 C2379 1.355 . S
C2380 C2382 1.419 . S
C2381 C2376 1.425 . S
C2381 C2378 1.409 . S
C2381 C2379 1.415 . S
C2382 H2372 0.930 . S
C2382 C2380 1.419 . S
C2382 C2383 1.362 . S
C2383 H2373 0.930 . S
C2383 C2376 1.409 . S
C2383 C2382 1.362 . S
H2384 C2390 0.930 . S
H2385 C2393 0.930 . S
H2386 C2394 0.930 . S
H2387 C2395 0.930 . S
H2388 C2398 0.930 . S
H2389 C2399 0.930 . S
C2390 H2384 0.930 . S
C2390 C2391 1.355 . S
C2390 C2392 1.415 . S
C2391 C2390 1.355 . S
C2391 C2393 1.419 . S
C2392 C2390 1.415 . S
C2392 C2397 1.425 . S
C2392 C2399 1.409 . S
C2393 H2385 0.930 . S
C2393 C2391 1.419 . S
C2393 C2394 1.362 . S
C2394 H2386 0.930 . S
C2394 C2393 1.362 . S
C2394 C2397 1.409 . S
C2395 H2387 0.930 . S
C2395 C2396 1.355 . S
C2395 C2397 1.415 . S
C2396 C2395 1.355 . S
C2396 C2398 1.419 . S
C2397 C2392 1.425 . S
C2397 C2394 1.409 . S
C2397 C2395 1.415 . S
C2398 H2388 0.930 . S
C2398 C2396 1.419 . S
C2398 C2399 1.362 . S
C2399 H2389 0.930 . S
C2399 C2392 1.409 . S
C2399 C2398 1.362 . S
H2400 C2406 0.930 . S
H2401 C2409 0.930 . S
H2402 C2410 0.930 . S
H2403 C2411 0.930 . S
H2404 C2414 0.930 . S
H2405 C2415 0.930 1_554 S
C2406 H2400 0.930 . S
C2406 C2407 1.355 . S
C2406 C2408 1.415 . S
C2407 C2406 1.355 . S
C2407 C2409 1.419 . S
C2408 C2406 1.415 . S
C2408 C2413 1.425 . S
C2408 C2415 1.409 1_554 S
C2409 H2401 0.930 . S
C2409 C2407 1.419 . S
C2409 C2410 1.362 . S
C2410 H2402 0.930 . S
C2410 C2409 1.362 . S
C2410 C2413 1.409 . S
C2411 H2403 0.930 . S
C2411 C2412 1.355 . S
C2411 C2413 1.415 1_556 S
C2412 C2411 1.355 . S
C2412 C2414 1.419 . S
C2413 C2408 1.425 . S
C2413 C2410 1.409 . S
C2413 C2411 1.415 1_554 S
C2414 H2404 0.930 . S
C2414 C2412 1.419 . S
C2414 C2415 1.362 . S
C2415 H2405 0.930 1_556 S
C2415 C2408 1.409 1_556 S
C2415 C2414 1.362 . S
H2416 C2422 0.930 . S
H2417 C2425 0.930 . S
H2418 C2426 0.930 . S
H2419 C2427 0.930 . S
H2420 C2430 0.930 . S
H2421 C2431 0.930 . S
C2422 H2416 0.930 . S
C2422 C2423 1.355 1_655 S
C2422 C2424 1.415 . S
C2423 C2422 1.355 1_455 S
C2423 C2425 1.419 . S
C2424 C2422 1.415 . S
C2424 C2429 1.425 . S
C2424 C2431 1.409 . S
C2425 H2417 0.930 . S
C2425 C2423 1.419 . S
C2425 C2426 1.362 . S
C2426 H2418 0.930 . S
C2426 C2425 1.362 . S
C2426 C2429 1.409 1_455 S
C2427 H2419 0.930 . S
C2427 C2428 1.355 . S
C2427 C2429 1.415 . S
C2428 C2427 1.355 . S
C2428 C2430 1.419 . S
C2429 C2424 1.425 . S
C2429 C2426 1.409 1_655 S
C2429 C2427 1.415 . S
C2430 H2420 0.930 . S
C2430 C2428 1.419 . S
C2430 C2431 1.362 . S
C2431 H2421 0.930 . S
C2431 C2424 1.409 . S
C2431 C2430 1.362 . S
H2432 C2438 0.930 . S
H2433 C2441 0.930 . S
H2434 C2442 0.930 . S
H2435 C2443 0.930 . S
H2436 C2446 0.930 . S
H2437 C2447 0.925 1_554 S
C2438 H2432 0.930 . S
C2438 C2439 1.355 1_655 S
C2438 C2440 1.415 . S
C2439 C2438 1.355 1_455 S
C2439 C2441 1.419 . S
C2440 C2438 1.415 . S
C2440 C2445 1.425 1_554 S
C2440 C2447 1.408 1_554 S
C2441 H2433 0.930 . S
C2441 C2439 1.419 . S
C2441 C2442 1.362 1_554 S
C2442 H2434 0.930 . S
C2442 C2441 1.362 1_556 S
C2442 C2445 1.409 1_455 S
C2443 H2435 0.930 . S
C2443 C2444 1.355 . S
C2443 C2445 1.415 . S
C2444 C2443 1.355 . S
C2444 C2446 1.419 . S
C2445 C2440 1.425 1_556 S
C2445 C2442 1.409 1_655 S
C2445 C2443 1.415 . S
C2446 H2436 0.930 . S
C2446 C2444 1.419 . S
C2446 C2447 1.368 . S
C2447 H2437 0.925 1_556 S
C2447 C2440 1.408 1_556 S
C2447 C2446 1.368 . S
H2448 C2454 0.930 . S
H2449 C2457 0.930 . S
H2450 C2458 0.930 . S
H2451 C2459 0.930 . S
H2452 C2462 0.930 . S
H2453 C2463 0.930 . S
C2454 H2448 0.930 . S
C2454 C2455 1.355 . S
C2454 C2456 1.415 . S
C2455 C2454 1.355 . S
C2455 C2457 1.419 . S
C2456 C2454 1.415 . S
C2456 C2461 1.425 . S
C2456 C2463 1.409 . S
C2457 H2449 0.930 . S
C2457 C2455 1.419 . S
C2457 C2458 1.362 . S
C2458 H2450 0.930 . S
C2458 C2457 1.362 . S
C2458 C2461 1.409 . S
C2459 H2451 0.930 . S
C2459 C2460 1.355 . S
C2459 C2461 1.415 . S
C2460 C2459 1.355 . S
C2460 C2462 1.419 . S
C2461 C2456 1.425 . S
C2461 C2458 1.409 . S
C2461 C2459 1.415 . S
C2462 H2452 0.930 . S
C2462 C2460 1.419 . S
C2462 C2463 1.362 . S
C2463 H2453 0.930 . S
C2463 C2456 1.409 . S
C2463 C2462 1.362 . S
H2464 C2470 0.930 1_565 S
H2465 C2473 0.930 . S
H2466 C2474 0.930 . S
H2467 C2475 0.930 1_545 S
H2468 C2478 0.930 . S
H2469 C2479 0.930 . S
C2470 H2464 0.930 1_545 S
C2470 C2471 1.355 . S
C2470 C2472 1.415 1_545 S
C2471 C2470 1.355 . S
C2471 C2473 1.419 . S
C2472 C2470 1.415 1_565 S
C2472 C2477 1.425 1_565 S
C2472 C2479 1.409 . S
C2473 H2465 0.930 . S
C2473 C2471 1.419 . S
C2473 C2474 1.362 . S
C2474 H2466 0.930 . S
C2474 C2473 1.362 . S
C2474 C2477 1.409 . S
C2475 H2467 0.930 1_565 S
C2475 C2476 1.355 . S
C2475 C2477 1.415 1_565 S
C2476 C2475 1.355 . S
C2476 C2478 1.419 . S
C2477 C2472 1.425 1_545 S
C2477 C2474 1.409 . S
C2477 C2475 1.415 1_545 S
C2478 H2468 0.930 . S
C2478 C2476 1.419 . S
C2478 C2479 1.362 . S
C2479 H2469 0.930 . S
C2479 C2472 1.409 . S
C2479 C2478 1.362 . S
H2480 C2486 0.930 . S
H2481 C2489 0.930 . S
H2482 C2490 0.930 . S
H2483 C2491 0.930 . S
H2484 C2494 0.930 . S
H2485 C2495 0.930 . S
C2486 H2480 0.930 . S
C2486 C2487 1.355 . S
C2486 C2488 1.415 . S
C2487 C2486 1.355 . S
C2487 C2489 1.419 . S
C2488 C2486 1.415 . S
C2488 C2493 1.425 . S
C2488 C2495 1.409 . S
C2489 H2481 0.930 . S
C2489 C2487 1.419 . S
C2489 C2490 1.362 . S
C2490 H2482 0.930 . S
C2490 C2489 1.362 . S
C2490 C2493 1.409 . S
C2491 H2483 0.930 . S
C2491 C2492 1.355 . S
C2491 C2493 1.415 . S
C2492 C2491 1.355 . S
C2492 C2494 1.419 . S
C2493 C2488 1.425 . S
C2493 C2490 1.409 . S
C2493 C2491 1.415 . S
C2494 H2484 0.930 . S
C2494 C2492 1.419 . S
C2494 C2495 1.362 . S
C2495 H2485 0.930 . S
C2495 C2488 1.409 . S
C2495 C2494 1.362 . S
H2496 C2502 0.923 1_565 S
H2497 C2505 0.930 . S
H2498 C2506 0.930 . S
H2499 C2507 0.923 1_545 S
H2500 C2510 0.930 . S
H2501 C2511 0.930 . S
C2502 H2496 0.923 1_545 S
C2502 C2503 1.355 . S
C2502 C2504 1.415 1_545 S
C2503 C2502 1.355 . S
C2503 C2505 1.419 . S
C2504 C2502 1.415 1_565 S
C2504 C2509 1.425 1_565 S
C2504 C2511 1.409 . S
C2505 H2497 0.930 . S
C2505 C2503 1.419 . S
C2505 C2506 1.362 . S
C2506 H2498 0.930 . S
C2506 C2505 1.362 . S
C2506 C2509 1.409 . S
C2507 H2499 0.923 1_565 S
C2507 C2508 1.355 . S
C2507 C2509 1.415 1_565 S
C2508 C2507 1.355 . S
C2508 C2510 1.419 . S
C2509 C2504 1.425 1_545 S
C2509 C2506 1.409 . S
C2509 C2507 1.415 1_545 S
C2510 H2500 0.930 . S
C2510 C2508 1.419 . S
C2510 C2511 1.362 . S
C2511 H2501 0.930 . S
C2511 C2504 1.409 . S
C2511 C2510 1.362 . S
H2512 C2518 0.930 . S
H2513 C2521 0.930 . S
H2514 C2522 0.930 . S
H2515 C2523 0.930 . S
H2516 C2526 0.930 . S
H2517 C2527 0.930 . S
C2518 H2512 0.930 . S
C2518 C2519 1.355 . S
C2518 C2520 1.415 1_554 S
C2519 C2518 1.355 . S
C2519 C2521 1.419 . S
C2520 C2518 1.415 1_556 S
C2520 C2525 1.425 1_556 S
C2520 C2527 1.409 . S
C2521 H2513 0.930 . S
C2521 C2519 1.419 . S
C2521 C2522 1.362 . S
C2522 H2514 0.930 . S
C2522 C2521 1.362 . S
C2522 C2525 1.409 . S
C2523 H2515 0.930 . S
C2523 C2524 1.355 . S
C2523 C2525 1.415 1_556 S
C2524 C2523 1.355 . S
C2524 C2526 1.419 . S
C2525 C2520 1.425 1_554 S
C2525 C2522 1.409 . S
C2525 C2523 1.415 1_554 S
C2526 H2516 0.930 . S
C2526 C2524 1.419 . S
C2526 C2527 1.362 . S
C2527 H2517 0.930 . S
C2527 C2520 1.409 . S
C2527 C2526 1.362 . S
H2528 C2534 0.930 1_565 S
H2529 C2537 0.930 . S
H2530 C2538 0.930 . S
H2531 C2539 0.930 1_545 S
H2532 C2542 0.930 . S
H2533 C2543 0.930 . S
C2534 H2528 0.930 1_545 S
C2534 C2535 1.355 . S
C2534 C2536 1.415 1_545 S
C2535 C2534 1.355 . S
C2535 C2537 1.419 . S
C2536 C2534 1.415 1_565 S
C2536 C2541 1.425 1_565 S
C2536 C2543 1.409 . S
C2537 H2529 0.930 . S
C2537 C2535 1.419 . S
C2537 C2538 1.362 . S
C2538 H2530 0.930 . S
C2538 C2537 1.362 . S
C2538 C2541 1.409 . S
C2539 H2531 0.930 1_565 S
C2539 C2540 1.355 . S
C2539 C2541 1.415 1_565 S
C2540 C2539 1.355 . S
C2540 C2542 1.419 . S
C2541 C2536 1.425 1_545 S
C2541 C2538 1.409 . S
C2541 C2539 1.415 1_545 S
C2542 H2532 0.930 . S
C2542 C2540 1.419 . S
C2542 C2543 1.362 . S
C2543 H2533 0.930 . S
C2543 C2536 1.409 . S
C2543 C2542 1.362 . S
H2544 C2550 0.930 . S
H2545 C2553 0.930 . S
H2546 C2554 0.930 . S
H2547 C2555 0.930 . S
H2548 C2558 0.930 . S
H2549 C2559 0.930 . S
C2550 H2544 0.930 . S
C2550 C2551 1.355 . S
C2550 C2552 1.415 . S
C2551 C2550 1.355 . S
C2551 C2553 1.419 . S
C2552 C2550 1.415 . S
C2552 C2557 1.426 . S
C2552 C2559 1.408 1_565 S
C2553 H2545 0.930 . S
C2553 C2551 1.419 . S
C2553 C2554 1.362 . S
C2554 H2546 0.930 . S
C2554 C2553 1.362 . S
C2554 C2557 1.409 . S
C2555 H2547 0.930 . S
C2555 C2556 1.355 . S
C2555 C2557 1.415 . S
C2556 C2555 1.355 . S
C2556 C2558 1.419 1_565 S
C2557 C2552 1.426 . S
C2557 C2554 1.409 . S
C2557 C2555 1.415 . S
C2558 H2548 0.930 . S
C2558 C2556 1.419 1_545 S
C2558 C2559 1.362 . S
C2559 H2549 0.930 . S
C2559 C2552 1.408 1_545 S
C2559 C2558 1.362 . S
H2560 C2566 0.940 . S
H2561 C2569 0.930 . S
H2562 C2570 0.930 . S
H2563 C2571 0.940 . S
H2564 C2574 0.930 . S
H2565 C2575 0.930 . S
C2566 H2560 0.940 . S
C2566 C2567 1.355 . S
C2566 C2568 1.415 1_545 S
C2567 C2566 1.355 . S
C2567 C2569 1.419 . S
C2568 C2566 1.415 1_565 S
C2568 C2573 1.425 1_565 S
C2568 C2575 1.409 . S
C2569 H2561 0.930 . S
C2569 C2567 1.419 . S
C2569 C2570 1.362 . S
C2570 H2562 0.930 . S
C2570 C2569 1.362 . S
C2570 C2573 1.409 . S
C2571 H2563 0.940 . S
C2571 C2572 1.355 . S
C2571 C2573 1.415 1_565 S
C2572 C2571 1.355 . S
C2572 C2574 1.419 . S
C2573 C2568 1.425 1_545 S
C2573 C2570 1.409 . S
C2573 C2571 1.415 1_545 S
C2574 H2564 0.930 . S
C2574 C2572 1.419 . S
C2574 C2575 1.362 . S
C2575 H2565 0.930 . S
C2575 C2568 1.409 . S
C2575 C2574 1.362 . S
H2576 C2582 0.930 . S
H2577 C2585 0.930 . S
H2578 C2586 0.930 . S
H2579 C2587 0.930 . S
H2580 C2590 0.930 . S
H2581 C2591 0.930 . S
C2582 H2576 0.930 . S
C2582 C2583 1.342 1_545 S
C2582 C2584 1.415 1_556 S
C2583 C2582 1.342 1_565 S
C2583 C2585 1.435 . S
C2584 C2582 1.415 1_554 S
C2584 C2589 1.425 1_544 S
C2584 C2591 1.409 . S
C2585 H2577 0.930 . S
C2585 C2583 1.435 . S
C2585 C2586 1.362 . S
C2586 H2578 0.930 . S
C2586 C2585 1.362 . S
C2586 C2589 1.409 . S
C2587 H2579 0.930 . S
C2587 C2588 1.355 1_565 S
C2587 C2589 1.415 1_554 S
C2588 C2587 1.355 1_545 S
C2588 C2590 1.419 . S
C2589 C2584 1.425 1_566 S
C2589 C2586 1.409 . S
C2589 C2587 1.415 1_556 S
C2590 H2580 0.930 . S
C2590 C2588 1.419 . S
C2590 C2591 1.362 . S
C2591 H2581 0.930 . S
C2591 C2584 1.409 . S
C2591 C2590 1.362 . S
H2592 C2598 0.930 . S
H2593 C2601 0.930 . S
H2594 C2602 0.930 . S
H2595 C2603 0.930 . S
H2596 C2606 0.930 . S
H2597 C2607 0.930 . S
C2598 H2592 0.930 . S
C2598 C2599 1.355 . S
C2598 C2600 1.415 . S
C2599 C2598 1.355 . S
C2599 C2601 1.419 . S
C2600 C2598 1.415 . S
C2600 C2605 1.425 . S
C2600 C2607 1.409 . S
C2601 H2593 0.930 . S
C2601 C2599 1.419 . S
C2601 C2602 1.362 . S
C2602 H2594 0.930 . S
C2602 C2601 1.362 . S
C2602 C2605 1.409 . S
C2603 H2595 0.930 . S
C2603 C2604 1.355 . S
C2603 C2605 1.415 . S
C2604 C2603 1.355 . S
C2604 C2606 1.419 . S
C2605 C2600 1.425 . S
C2605 C2602 1.409 . S
C2605 C2603 1.415 . S
C2606 H2596 0.930 . S
C2606 C2604 1.419 . S
C2606 C2607 1.362 . S
C2607 H2597 0.930 . S
C2607 C2600 1.409 . S
C2607 C2606 1.362 . S
H2608 C2614 0.930 . S
H2609 C2617 0.930 . S
H2610 C2618 0.930 . S
H2611 C2619 0.930 . S
H2612 C2622 0.930 . S
H2613 C2623 0.930 . S
C2614 H2608 0.930 . S
C2614 C2615 1.355 . S
C2614 C2616 1.415 . S
C2615 C2614 1.355 . S
C2615 C2617 1.419 . S
C2616 C2614 1.415 . S
C2616 C2621 1.425 1_556 S
C2616 C2623 1.409 1_556 S
C2617 H2609 0.930 . S
C2617 C2615 1.419 . S
C2617 C2618 1.362 . S
C2618 H2610 0.930 . S
C2618 C2617 1.362 . S
C2618 C2621 1.409 1_556 S
C2619 H2611 0.930 . S
C2619 C2620 1.355 . S
C2619 C2621 1.415 . S
C2620 C2619 1.355 . S
C2620 C2622 1.419 . S
C2621 C2616 1.425 1_554 S
C2621 C2618 1.409 1_554 S
C2621 C2619 1.415 . S
C2622 H2612 0.930 . S
C2622 C2620 1.419 . S
C2622 C2623 1.362 . S
C2623 H2613 0.930 . S
C2623 C2616 1.409 1_554 S
C2623 C2622 1.362 . S
H2624 C2630 0.930 . S
H2625 C2633 0.930 . S
H2626 C2634 0.930 . S
H2627 C2635 0.930 . S
H2628 C2638 0.930 . S
H2629 C2639 0.930 . S
C2630 H2624 0.930 . S
C2630 C2631 1.355 . S
C2630 C2632 1.415 . S
C2631 C2630 1.355 . S
C2631 C2633 1.419 . S
C2632 C2630 1.415 . S
C2632 C2637 1.425 . S
C2632 C2639 1.409 . S
C2633 H2625 0.930 . S
C2633 C2631 1.419 . S
C2633 C2634 1.362 . S
C2634 H2626 0.930 . S
C2634 C2633 1.362 . S
C2634 C2637 1.409 . S
C2635 H2627 0.930 . S
C2635 C2636 1.355 . S
C2635 C2637 1.415 . S
C2636 C2635 1.355 . S
C2636 C2638 1.419 . S
C2637 C2632 1.425 . S
C2637 C2634 1.409 . S
C2637 C2635 1.415 . S
C2638 H2628 0.930 . S
C2638 C2636 1.419 . S
C2638 C2639 1.362 . S
C2639 H2629 0.930 . S
C2639 C2632 1.409 . S
C2639 C2638 1.362 . S
H2640 C2646 0.930 . S
H2641 C2649 0.930 . S
H2642 C2650 0.930 . S
H2643 C2651 0.930 . S
H2644 C2654 0.930 . S
H2645 C2655 0.930 . S
C2646 H2640 0.930 . S
C2646 C2647 1.355 . S
C2646 C2648 1.415 . S
C2647 C2646 1.355 . S
C2647 C2649 1.419 . S
C2648 C2646 1.415 . S
C2648 C2653 1.425 . S
C2648 C2655 1.409 . S
C2649 H2641 0.930 . S
C2649 C2647 1.419 . S
C2649 C2650 1.362 . S
C2650 H2642 0.930 . S
C2650 C2649 1.362 . S
C2650 C2653 1.409 . S
C2651 H2643 0.930 . S
C2651 C2652 1.355 . S
C2651 C2653 1.415 . S
C2652 C2651 1.355 . S
C2652 C2654 1.419 . S
C2653 C2648 1.425 . S
C2653 C2650 1.409 . S
C2653 C2651 1.415 . S
C2654 H2644 0.930 . S
C2654 C2652 1.419 . S
C2654 C2655 1.362 . S
C2655 H2645 0.930 . S
C2655 C2648 1.409 . S
C2655 C2654 1.362 . S
H2656 C2662 0.930 . S
H2657 C2665 0.930 . S
H2658 C2666 0.930 . S
H2659 C2667 0.930 . S
H2660 C2670 0.930 . S
H2661 C2671 0.930 . S
C2662 H2656 0.930 . S
C2662 C2663 1.355 . S
C2662 C2664 1.415 . S
C2663 C2662 1.355 . S
C2663 C2665 1.419 . S
C2664 C2662 1.415 . S
C2664 C2669 1.425 . S
C2664 C2671 1.409 . S
C2665 H2657 0.930 . S
C2665 C2663 1.419 . S
C2665 C2666 1.362 . S
C2666 H2658 0.930 . S
C2666 C2665 1.362 . S
C2666 C2669 1.409 . S
C2667 H2659 0.930 . S
C2667 C2668 1.355 . S
C2667 C2669 1.415 . S
C2668 C2667 1.355 . S
C2668 C2670 1.419 . S
C2669 C2664 1.425 . S
C2669 C2666 1.409 . S
C2669 C2667 1.415 . S
C2670 H2660 0.930 . S
C2670 C2668 1.419 . S
C2670 C2671 1.362 . S
C2671 H2661 0.930 . S
C2671 C2664 1.409 . S
C2671 C2670 1.362 . S
H2672 C2678 0.930 . S
H2673 C2681 0.930 . S
H2674 C2682 0.930 1_554 S
H2675 C2683 0.930 . S
H2676 C2686 0.930 . S
H2677 C2687 0.930 1_556 S
C2678 H2672 0.930 . S
C2678 C2679 1.355 . S
C2678 C2680 1.415 . S
C2679 C2678 1.355 . S
C2679 C2681 1.419 . S
C2680 C2678 1.415 . S
C2680 C2685 1.425 1_556 S
C2680 C2687 1.409 1_556 S
C2681 H2673 0.930 . S
C2681 C2679 1.419 . S
C2681 C2682 1.362 . S
C2682 H2674 0.930 1_556 S
C2682 C2681 1.362 . S
C2682 C2685 1.409 1_556 S
C2683 H2675 0.930 . S
C2683 C2684 1.355 . S
C2683 C2685 1.415 . S
C2684 C2683 1.355 . S
C2684 C2686 1.419 . S
C2685 C2680 1.425 1_554 S
C2685 C2682 1.409 1_554 S
C2685 C2683 1.415 . S
C2686 H2676 0.930 . S
C2686 C2684 1.419 . S
C2686 C2687 1.362 . S
C2687 H2677 0.930 1_554 S
C2687 C2680 1.409 1_554 S
C2687 C2686 1.362 . S
H2688 C2694 0.930 . S
H2689 C2697 0.930 . S
H2690 C2698 0.930 . S
H2691 C2699 0.930 . S
H2692 C2702 0.930 . S
H2693 C2703 0.930 . S
C2694 H2688 0.930 . S
C2694 C2695 1.355 . S
C2694 C2696 1.415 . S
C2695 C2694 1.355 . S
C2695 C2697 1.419 . S
C2696 C2694 1.415 . S
C2696 C2701 1.425 . S
C2696 C2703 1.409 . S
C2697 H2689 0.930 . S
C2697 C2695 1.419 . S
C2697 C2698 1.362 . S
C2698 H2690 0.930 . S
C2698 C2697 1.362 . S
C2698 C2701 1.409 . S
C2699 H2691 0.930 . S
C2699 C2700 1.355 . S
C2699 C2701 1.415 . S
C2700 C2699 1.355 . S
C2700 C2702 1.419 . S
C2701 C2696 1.425 . S
C2701 C2698 1.409 . S
C2701 C2699 1.415 . S
C2702 H2692 0.930 . S
C2702 C2700 1.419 . S
C2702 C2703 1.362 . S
C2703 H2693 0.930 . S
C2703 C2696 1.409 . S
C2703 C2702 1.362 . S
H2704 C2710 0.930 . S
H2705 C2713 0.930 . S
H2706 C2714 0.930 . S
H2707 C2715 0.930 . S
H2708 C2718 0.930 . S
H2709 C2719 0.930 . S
C2710 H2704 0.930 . S
C2710 C2711 1.355 . S
C2710 C2712 1.415 . S
C2711 C2710 1.355 . S
C2711 C2713 1.419 . S
C2712 C2710 1.415 . S
C2712 C2717 1.425 . S
C2712 C2719 1.409 . S
C2713 H2705 0.930 . S
C2713 C2711 1.419 . S
C2713 C2714 1.362 . S
C2714 H2706 0.930 . S
C2714 C2713 1.362 . S
C2714 C2717 1.409 . S
C2715 H2707 0.930 . S
C2715 C2716 1.355 . S
C2715 C2717 1.415 . S
C2716 C2715 1.355 . S
C2716 C2718 1.419 . S
C2717 C2712 1.425 . S
C2717 C2714 1.409 . S
C2717 C2715 1.415 . S
C2718 H2708 0.930 . S
C2718 C2716 1.419 . S
C2718 C2719 1.362 . S
C2719 H2709 0.930 . S
C2719 C2712 1.409 . S
C2719 C2718 1.362 . S
C1703 C1469 1.650 . S
C1708 C29 1.676 . S
C1719 C82 1.279 . S
C1724 C453 1.247 . S
C1735 C1363 1.619 . S
C1740 C135 1.659 . S
C1751 C188 1.279 . S
C1756 C559 1.278 . S
C1767 C241 1.636 . S
C1772 C1575 1.604 . S
C1783 C294 1.281 . S
C1788 C771 1.251 . S
C1799 C347 1.678 . S
C1804 C1681 1.659 . S
C1815 C400 1.249 . S
C1820 C665 1.231 . S
C1831 C1045 1.963 . S
C1836 C462 2.000 . S
C1847 C38 1.401 . S
C1852 C506 1.388 1_455 S
C1863 C939 1.955 . S
C1868 C568 2.006 . S
C1879 C612 1.430 . S
C1884 C144 1.407 . S
C1895 C1151 1.957 . S
C1900 C674 2.002 . S
C1911 C356 1.401 . S
C1916 C718 1.400 . S
C1927 C780 2.004 . S
C1932 C1257 1.955 . S
C1943 C250 1.407 . S
C1948 C824 1.418 1_455 S
C1959 C877 1.652 . S
C1964 C621 1.640 . S
C1975 C930 1.273 . S
C1980 C1301 1.240 . S
C1991 C515 1.616 . S
C1996 C983 1.638 . S
C2007 C1407 1.225 . S
C2012 C1036 1.260 . S
C2023 C727 1.612 . S
C2028 C1089 1.636 . S
C2039 C1619 1.283 . S
C2044 C1142 1.297 . S
C2055 C833 1.611 . S
C2060 C1195 1.636 . S
C2071 C1248 1.266 . S
C2076 C1513 1.263 . S
C2087 C197 1.989 . S
C2092 C1310 2.006 . S
C2103 C1354 1.410 . S
C2108 C886 1.427 . S
C2119 C1416 2.010 . S
C2124 C91 1.958 . S
C2135 C1460 1.389 1_655 S
C2140 C992 1.413 . S
C2151 C1522 2.002 . S
C2156 C303 1.958 . S
C2167 C1566 1.388 1_655 S
C2172 C1204 1.401 . S
C2183 C1628 2.017 . S
C2188 C409 1.981 . S
C2199 C1672 1.413 . S
C2204 C1098 1.394 . S
C2215 C1294 1.607 . S
C2220 C39 1.627 . S
C2231 C92 2.305 . S
C2236 C516 2.273 . S
C2247 C1400 1.619 . S
C2252 C145 1.638 . S
C2263 C198 2.286 . S
C2268 C622 2.252 . S
C2279 C1506 1.599 . S
C2284 C251 1.621 . S
C2295 C304 2.302 . S
C2300 C728 2.273 . S
C2311 C1612 1.620 . S
C2316 C357 1.638 . S
C2327 C410 2.313 . S
C2332 C834 2.285 . S
C2343 C446 1.592 . S
C2348 C887 1.615 . S
C2359 C552 1.625 . S
C2364 C993 1.642 . S
C2375 C658 1.623 . S
C2380 C1099 1.641 . S
C2391 C764 1.611 . S
C2396 C1205 1.631 . S
C2407 C940 2.287 . S
C2412 C1364 2.253 . S
C2423 C1470 2.301 . S
C2428 C1046 2.329 . S
C2439 C1576 2.290 . S
C2444 C1152 2.320 . S
C2455 C1258 2.310 . S
C2460 C1682 2.281 . S
C2471 C22 1.593 . S
C2476 C234 1.576 . S
C2487 C75 1.785 . S
C2492 C287 1.774 . S
C2503 C340 1.570 . S
C2508 C128 1.580 . S
C2519 C181 1.793 . S
C2524 C393 1.792 . S
C2535 C675 1.972 . S
C2540 C463 1.979 . S
C2551 C711 1.872 1_565 S
C2556 C499 1.866 1_565 S
C2567 C569 1.972 . S
C2572 C781 1.979 . S
C2583 C605 1.865 . S
C2588 C817 1.876 1_545 S
C2599 C1082 1.586 . S
C2604 C870 1.572 . S
C2615 C1135 1.775 . S
C2620 C923 1.787 . S
C2631 C976 1.606 . S
C2636 C1188 1.606 . S
C2647 C1241 1.782 . S
C2652 C1029 1.773 . S
C2663 C1523 1.975 . S
C2668 C1311 1.983 . S
C2679 C1347 1.868 . S
C2684 C1559 1.884 . S
C2695 C1629 1.973 . S
C2700 C1417 1.983 . S
C2711 C1453 1.874 . S
C2716 C1665 1.865 . S
