# Generated by pormake.
# Topology smu, (6)-cn, num edge types: 1
# Building blocks:
#     Node 0, Type 0, BuildingBlock: MIDCAF_clean_sbu_0, # of connection points: 6
#     Node 1, Type 0, BuildingBlock: MIDCAF_clean_sbu_0, # of connection points: 6
#     Node 2, Type 0, BuildingBlock: MIDCAF_clean_sbu_0, # of connection points: 6
#     Node 3, Type 0, BuildingBlock: MIDCAF_clean_sbu_0, # of connection points: 6
#     Node 4, Type 0, BuildingBlock: MIDCAF_clean_sbu_0, # of connection points: 6
#     Node 5, Type 0, BuildingBlock: MIDCAF_clean_sbu_0, # of connection points: 6
#     Edge 6, Type (0, 0), BuildingBlock: TEMPAE_clean_linker_10, # of connection points: 2
#     Edge 7, Type (0, 0), BuildingBlock: TEMPAE_clean_linker_10, # of connection points: 2
#     Edge 8, Type (0, 0), BuildingBlock: TEMPAE_clean_linker_10, # of connection points: 2
#     Edge 9, Type (0, 0), BuildingBlock: TEMPAE_clean_linker_10, # of connection points: 2
#     Edge 10, Type (0, 0), BuildingBlock: TEMPAE_clean_linker_10, # of connection points: 2
#     Edge 11, Type (0, 0), BuildingBlock: TEMPAE_clean_linker_10, # of connection points: 2
#     Edge 12, Type (0, 0), BuildingBlock: TEMPAE_clean_linker_10, # of connection points: 2
#     Edge 13, Type (0, 0), BuildingBlock: TEMPAE_clean_linker_10, # of connection points: 2
#     Edge 14, Type (0, 0), BuildingBlock: TEMPAE_clean_linker_10, # of connection points: 2
#     Edge 15, Type (0, 0), BuildingBlock: TEMPAE_clean_linker_10, # of connection points: 2
#     Edge 16, Type (0, 0), BuildingBlock: TEMPAE_clean_linker_10, # of connection points: 2
#     Edge 17, Type (0, 0), BuildingBlock: TEMPAE_clean_linker_10, # of connection points: 2
#     Edge 18, Type (0, 0), BuildingBlock: TEMPAE_clean_linker_10, # of connection points: 2
#     Edge 19, Type (0, 0), BuildingBlock: TEMPAE_clean_linker_10, # of connection points: 2
#     Edge 20, Type (0, 0), BuildingBlock: TEMPAE_clean_linker_10, # of connection points: 2
#     Edge 21, Type (0, 0), BuildingBlock: TEMPAE_clean_linker_10, # of connection points: 2
#     Edge 22, Type (0, 0), BuildingBlock: TEMPAE_clean_linker_10, # of connection points: 2
#     Edge 23, Type (0, 0), BuildingBlock: TEMPAE_clean_linker_10, # of connection points: 2
# Relax obj value: 0.355
# Max RMSD: 0.260
# Mean RMSD: 0.260
data_MOF--net-smu--node1-MIDCAF_clean_sbu_0--edge1-TEMPAE_clean_linker_10
_symmetry_space_group_name_H-M    P1
_symmetry_Int_Tables_number       1
_symmetry_cell_setting            triclinic
loop_
_symmetry_equiv_pos_as_xyz
'x, y, z'
_cell_length_a     28.241092
_cell_length_b     28.28538
_cell_length_c     30.57702
_cell_angle_alpha  89.881815
_cell_angle_beta   90.033656
_cell_angle_gamma 119.64024
loop_
_atom_site_label
_atom_site_type_symbol
_atom_site_fract_x
_atom_site_fract_y
_atom_site_fract_z
_atom_type_partial_charge
Zn0 Zn 0.2403 0.00598 0.19996 0.0
Zn1 Zn 0.38245 0.07607 0.30346 0.0
Zn2 Zn 0.30758 0.03163 0.25348 0.0
C3 C 0.4117 0.01882 0.248 0.0
C4 C 0.29601 0.01013 0.35612 0.0
O5 O 0.28345 0.09522 0.24732 0.0
O6 O 0.20382 0.04851 0.21525 0.0
C7 C 0.3199 0.00961 0.15301 0.0
O8 O 0.37344 0.01992 0.22604 0.0
O9 O 0.41925 0.03416 0.28735 0.0
O10 O 0.34048 0.0544 0.35824 0.0
O11 O 0.27649 0.98965 0.31823 0.0
O12 O 0.28531 0.02476 0.14642 0.0
O13 O 0.33136 0.00318 0.1927 0.0
O14 O 0.23703 0.96177 0.28351 0.0
O15 O 0.20279 0.92808 0.2189 0.0
C16 C 0.20272 0.92198 0.25983 0.0
O17 O 0.33829 0.12091 0.25053 0.0
O18 O 0.41755 0.15367 0.28361 0.0
C19 C 0.23727 0.09034 0.23595 0.0
C20 C 0.38506 0.16172 0.26062 0.0
Zn21 Zn 0.74181 0.71498 0.17206 0.0
Zn22 Zn 0.65965 0.57079 0.27207 0.0
Zn23 Zn 0.69789 0.64182 0.22021 0.0
C24 C 0.58146 0.54002 0.21066 0.0
C25 C 0.6825 0.65717 0.32177 0.0
O26 O 0.78549 0.66653 0.21985 0.0
O27 O 0.81755 0.74991 0.19498 0.0
C28 C 0.67906 0.63301 0.11845 0.0
O29 O 0.6244 0.57357 0.18928 0.0
O30 O 0.58348 0.53914 0.25182 0.0
O31 O 0.67734 0.61075 0.32751 0.0
O32 O 0.68425 0.67511 0.28257 0.0
O33 O 0.72665 0.67316 0.11748 0.0
O34 O 0.65441 0.6164 0.15553 0.0
O35 O 0.68966 0.70937 0.24805 0.0
O36 O 0.69685 0.75003 0.18511 0.0
C37 C 0.6851 0.74528 0.22529 0.0
O38 O 0.75687 0.61292 0.22823 0.0
O39 O 0.70109 0.53274 0.25653 0.0
C40 C 0.82599 0.71457 0.21297 0.0
C41 C 0.74667 0.56492 0.23954 0.0
Zn42 Zn 0.95123 0.21805 0.21731 0.0
Zn43 Zn 0.87231 0.28024 0.31736 0.0
Zn44 Zn 0.91731 0.25115 0.26918 0.0
C45 C 0.9332 0.36929 0.26852 0.0
C46 C 0.92873 0.24724 0.37032 0.0
O47 O 0.8564 0.16472 0.25752 0.0
O48 O 0.91356 0.13949 0.2329 0.0
C49 C 0.9358 0.28753 0.17051 0.0
O50 O 0.92985 0.33005 0.24506 0.0
O51 O 0.91875 0.36036 0.30811 0.0
O52 O 0.88411 0.24736 0.37033 0.0
O53 O 0.95558 0.25667 0.33425 0.0
O54 O 0.92681 0.23978 0.16409 0.0
O55 O 0.94228 0.30554 0.21004 0.0
O56 O 0.9885 0.2524 0.30012 0.0
O57 O 0.02851 0.26451 0.23633 0.0
C58 C 0.03158 0.26497 0.27754 0.0
O59 O 0.82898 0.19126 0.26496 0.0
O60 O 0.7977 0.24285 0.29123 0.0
C61 C 0.86703 0.12665 0.24771 0.0
C62 C 0.7889 0.20003 0.27159 0.0
Zn63 Zn 0.03534 0.25315 0.82018 0.0
Zn64 Zn 0.10424 0.41326 0.73553 0.0
Zn65 Zn 0.07831 0.33439 0.77865 0.0
C66 C 0.06557 0.43826 0.80377 0.0
C67 C 0.05343 0.34086 0.67435 0.0
O68 O 0.13849 0.30457 0.78152 0.0
O69 O 0.07876 0.21992 0.79797 0.0
C70 C 0.052 0.32809 0.88071 0.0
O71 O 0.0748 0.40024 0.81707 0.0
O72 O 0.06375 0.44549 0.76324 0.0
O73 O 0.08747 0.39095 0.67442 0.0
O74 O 0.04027 0.31412 0.71085 0.0
O75 O 0.05079 0.28293 0.88004 0.0
O76 O 0.05595 0.35281 0.84428 0.0
O77 O 0.0056 0.2792 0.74158 0.0
O78 O 0.95999 0.22811 0.79758 0.0
C79 C 0.96045 0.24338 0.75873 0.0
O80 O 0.16318 0.3598 0.77253 0.0
O81 O 0.18161 0.44241 0.75375 0.0
C82 C 0.12641 0.25447 0.78599 0.0
C83 C 0.19791 0.41002 0.76568 0.0
Zn84 Zn 0.30219 0.87093 0.71455 0.0
Zn85 Zn 0.2001 0.92897 0.79975 0.0
Zn86 Zn 0.26236 0.91645 0.75777 0.0
C87 C 0.28025 0.0296 0.76428 0.0
C88 C 0.24236 0.89865 0.86269 0.0
O89 O 0.25202 0.84565 0.79725 0.0
O90 O 0.27508 0.80311 0.74879 0.0
C91 C 0.23716 0.87749 0.65432 0.0
O92 O 0.30861 0.00541 0.76286 0.0
O93 O 0.23016 0.00292 0.77373 0.0
O94 O 0.21796 0.92573 0.86103 0.0
O95 O 0.25517 0.88381 0.82667 0.0
O96 O 0.274 0.8647 0.65536 0.0
O97 O 0.22495 0.89417 0.6897 0.0
O98 O 0.34692 0.98365 0.75609 0.0
O99 O 0.37578 0.9312 0.72681 0.0
C100 C 0.38612 0.97574 0.74416 0.0
O101 O 0.18654 0.89328 0.71964 0.0
O102 O 0.1313 0.86902 0.77633 0.0
C103 C 0.25569 0.8037 0.78583 0.0
C104 C 0.13789 0.86931 0.73556 0.0
Zn105 Zn 0.58392 0.7334 0.68328 0.0
Zn106 Zn 0.79269 0.82937 0.81425 0.0
Zn107 Zn 0.6612 0.76261 0.72752 0.0
C108 C 0.7672 0.78473 0.71821 0.0
C109 C 0.67779 0.72165 0.81086 0.0
O110 O 0.63932 0.82644 0.7394 0.0
O111 O 0.55584 0.776 0.71524 0.0
C112 C 0.66574 0.76371 0.62415 0.0
O113 O 0.72806 0.76652 0.6909 0.0
O114 O 0.75567 0.79179 0.75686 0.0
O115 O 0.72013 0.76525 0.80059 0.0
O116 O 0.64036 0.70392 0.78208 0.0
O117 O 0.62067 0.76274 0.62641 0.0
O118 O 0.6871 0.75721 0.65931 0.0
O119 O 0.59936 0.6831 0.75309 0.0
O120 O 0.54911 0.65289 0.69364 0.0
C121 C 0.5612 0.6439 0.73133 0.0
O122 O 0.69997 0.84922 0.75191 0.0
O123 O 0.77471 0.88829 0.79633 0.0
C124 C 0.59064 0.81849 0.73471 0.0
C125 C 0.73815 0.89064 0.77286 0.0
C126 C 0.22653 0.88321 0.9422 0.0
C127 C 0.25971 0.88976 0.90611 0.0
C128 C 0.24788 0.89451 0.98466 0.0
C129 C 0.30405 0.91289 0.99127 0.0
C130 C 0.33595 0.91247 0.95558 0.0
C131 C 0.31336 0.90099 0.91315 0.0
C132 C 0.21159 0.89308 0.02154 0.0
C133 C 0.39522 0.92919 0.96102 0.0
C134 C 0.34927 0.02268 0.07585 0.0
C135 C 0.33903 -0.00757 0.11444 0.0
C136 C 0.34507 -0.00124 0.03489 0.0
C137 C 0.32986 0.94298 0.03252 0.0
C138 C 0.32749 0.9147 0.07153 0.0
C139 C 0.33195 0.93979 0.11233 0.0
C140 C 0.35 0.03139 0.99429 0.0
C141 C 0.3145 0.85623 0.0704 0.0
H142 H 0.1848 0.87379 0.93679 0.0
H143 H 0.3392 0.90591 0.88531 0.0
H144 H 0.21588 0.87171 0.05039 0.0
H145 H 0.22387 0.93529 0.03163 0.0
H146 H 0.16796 0.87247 0.01191 0.0
H147 H 0.40639 0.90513 0.93891 0.0
H148 H 0.42062 0.97265 0.95182 0.0
H149 H 0.40513 0.92389 0.99517 0.0
H150 H 0.35533 0.06362 0.07753 0.0
H151 H 0.32416 0.91627 0.14215 0.0
H152 H 0.30896 0.01676 0.97994 0.0
H153 H 0.37542 0.02595 0.96939 0.0
H154 H 0.36823 0.0755 1.00138 0.0
H155 H 0.26975 0.82929 0.06809 0.0
H156 H 0.32884 0.8452 0.10054 0.0
H157 H 0.33335 0.84841 0.04148 0.0
C158 C 0.67917 0.79606 0.54725 0.0
C159 C 0.6894 0.76772 0.58026 0.0
C160 C 0.68768 0.78939 0.50307 0.0
C161 C 0.70629 0.75297 0.49158 0.0
C162 C 0.72194 0.72855 0.52502 0.0
C163 C 0.71336 0.73631 0.56916 0.0
C164 C 0.67165 0.81722 0.46866 0.0
C165 C 0.74276 0.69007 0.5142 0.0
C166 C 0.64318 0.66562 0.39121 0.0
C167 C 0.68582 0.68867 0.36096 0.0
C168 C 0.64916 0.68715 0.43336 0.0
C169 C 0.69938 0.73271 0.44575 0.0
C170 C 0.7421 0.75744 0.4147 0.0
C171 C 0.73495 0.7347 0.37263 0.0
C172 C 0.60228 0.65966 0.46518 0.0
C173 C 0.79604 0.8062 0.42645 0.0
H174 H 0.66128 0.82103 0.55582 0.0
H175 H 0.72107 0.71417 0.59454 0.0
H176 H 0.7021 0.83334 0.44186 0.0
H177 H 0.63202 0.78727 0.4541 0.0
H178 H 0.66734 0.85117 0.48254 0.0
H179 H 0.76191 0.68218 0.54298 0.0
H180 H 0.70828 0.65074 0.50304 0.0
H181 H 0.77293 0.70653 0.48722 0.0
H182 H 0.6057 0.62922 0.38232 0.0
H183 H 0.76854 0.75133 0.34958 0.0
H184 H 0.59112 0.6895 0.47803 0.0
H185 H 0.61464 0.64358 0.49346 0.0
H186 H 0.56559 0.6255 0.44999 0.0
H187 H 0.78981 0.83724 0.44357 0.0
H188 H 0.82187 0.82519 0.39714 0.0
H189 H 0.81837 0.79348 0.44912 0.0
C190 C -0.00775 0.37206 0.12704 0.0
C191 C 0.94441 0.32187 0.13168 0.0
C192 C 0.01197 0.39341 0.08506 0.0
C193 C 0.98346 0.36317 0.04763 0.0
C194 C 0.93074 0.31758 0.05283 0.0
C195 C 0.91191 0.29746 0.09489 0.0
C196 C 0.06632 0.44458 0.08082 0.0
C197 C 0.89764 0.28508 0.01403 0.0
C198 C 0.02248 0.38268 0.9272 0.0
C199 C 0.04554 0.34888 0.92349 0.0
C200 C 0.00717 0.3932 0.96838 0.0
C201 C 0.01342 0.3677 0.00623 0.0
C202 C 0.0407 0.33716 0.00276 0.0
C203 C 0.05687 0.32877 0.96164 0.0
C204 C 0.98132 0.4287 0.97047 0.0
C205 C 0.04868 0.30903 0.04191 0.0
H206 H 0.01711 0.39152 0.15557 0.0
H207 H 0.87426 0.25919 0.09868 0.0
H208 H 0.09903 0.4338 0.07845 0.0
H209 H 0.06786 0.46756 0.05087 0.0
H210 H 0.07483 0.47121 0.10982 0.0
H211 H 0.8551 0.25509 0.0233 0.0
H212 H 0.89656 0.31242 0.98852 0.0
H213 H 0.91684 0.2627 0.99952 0.0
H214 H 0.01342 0.39833 0.89794 0.0
H215 H 0.07573 0.30352 0.95914 0.0
H216 H 0.98418 0.44582 0.00362 0.0
H217 H 0.93769 0.40436 0.96138 0.0
H218 H 0.00098 0.46269 0.9466 0.0
H219 H 0.07047 0.3388 0.06829 0.0
H220 H 0.07227 0.28836 0.03373 0.0
H221 H 0.00847 0.2781 0.05503 0.0
C222 C 0.30268 -0.00137 0.43606 0.0
C223 C 0.27048 0.98262 0.39812 0.0
C224 C 0.28175 0.97441 0.47663 0.0
C225 C 0.2264 0.93346 0.48014 0.0
C226 C 0.19295 0.9178 0.44226 0.0
C227 C 0.21575 0.94196 0.40151 0.0
C228 C 0.31978 -0.00812 0.51557 0.0
C229 C 0.13351 0.87512 0.44413 0.0
C230 C 0.21814 0.84797 0.57675 0.0
C231 C 0.21407 0.87875 0.61101 0.0
C232 C 0.21496 0.86084 0.53294 0.0
C233 C 0.20675 0.90515 0.52312 0.0
C234 C 0.19407 0.93065 0.55752 0.0
C235 C 0.19868 0.91771 0.60129 0.0
C236 C 0.22762 0.83166 0.49752 0.0
C237 C 0.1816 0.97571 0.54829 0.0
H238 H 0.34522 0.0297 0.43403 0.0
H239 H 0.19069 0.92937 0.37257 0.0
H240 H 0.30467 0.00841 0.54152 0.0
H241 H 0.32122 0.95635 0.52948 0.0
H242 H 0.36198 0.02351 0.50698 0.0
H243 H 0.10979 0.88306 0.41904 0.0
H244 H 0.1292 0.83476 0.43694 0.0
H245 H 0.11551 0.8732 0.47679 0.0
H246 H 0.22877 0.81684 0.58408 0.0
H247 H 0.19524 0.94158 0.62747 0.0
H248 H 0.26918 0.85891 0.48457 0.0
H249 H 0.19861 0.82105 0.46998 0.0
H250 H 0.22593 0.79385 0.50981 0.0
H251 H 0.22025 0.01435 0.54305 0.0
H252 H 0.15963 0.98154 0.57604 0.0
H253 H 0.15665 0.96698 0.51818 0.0
C254 C 0.70238 0.72679 0.89004 0.0
C255 C 0.66974 0.69642 0.85488 0.0
C256 C 0.69348 0.70472 0.93244 0.0
C257 C 0.65094 0.65071 0.94008 0.0
C258 C 0.61825 0.61957 0.90455 0.0
C259 C 0.62833 0.64272 0.86238 0.0
C260 C 0.7296 0.73951 0.9692 0.0
C261 C 0.5727 0.56193 0.91105 0.0
C262 C 0.67916 0.59786 0.04491 0.0
C263 C 0.65252 0.6132 0.07568 0.0
C264 C 0.6743 0.60431 0.99985 0.0
C265 C 0.64249 0.62731 0.98525 0.0
C266 C 0.61039 0.6367 0.01596 0.0
C267 C 0.61572 0.62939 0.06095 0.0
C268 C 0.70852 0.59271 0.96848 0.0
C269 C 0.57542 0.6606 0.00195 0.0
H270 H 0.73446 0.76831 0.88455 0.0
H271 H 0.60415 0.61854 0.83512 0.0
H272 H 0.70447 0.74362 0.99518 0.0
H273 H 0.75125 0.71975 0.98414 0.0
H274 H 0.76038 0.78085 0.95796 0.0
H275 H 0.55069 0.54334 0.88013 0.0
H276 H 0.58921 0.53652 0.9244 0.0
H277 H 0.54307 0.56109 0.93528 0.0
H278 H 0.70832 0.58616 0.05627 0.0
H279 H 0.59596 0.64239 0.08465 0.0
H280 H 0.74493 0.63158 0.95895 0.0
H281 H 0.68547 0.57323 0.93823 0.0
H282 H 0.72257 0.56593 0.9834 0.0
H283 H 0.60185 0.70471 0.99538 0.0
H284 H 0.54551 0.65569 0.02765 0.0
H285 H 0.55315 0.6414 0.97134 0.0
C286 C 0.00534 0.26643 0.4224 0.0
C287 C 0.94951 0.24074 0.41313 0.0
C288 C 0.02361 0.27233 0.46604 0.0
C289 C 0.98509 0.25259 0.50073 0.0
C290 C 0.92899 0.22139 0.49094 0.0
C291 C 0.912 0.21556 0.44731 0.0
C292 C 0.08393 0.30392 0.47513 0.0
C293 C 0.88634 0.19936 0.52659 0.0
C294 C 0.02585 0.26428 0.62116 0.0
C295 C 0.03041 0.31448 0.63203 0.0
C296 C 0.01193 0.24354 0.57834 0.0
C297 C 0.00179 0.27358 0.54609 0.0
C298 C 0.00483 0.32352 0.55759 0.0
C299 C 0.01966 0.34352 0.60018 0.0
C300 C 0.01012 0.19072 0.56729 0.0
C301 C -0.00735 0.35618 0.52483 0.0
H302 H 0.03454 0.28543 0.39612 0.0
H303 H 0.86871 0.19444 0.44025 0.0
H304 H 0.09535 0.3459 0.48518 0.0
H305 H 0.09478 0.28501 0.50233 0.0
H306 H 0.10822 0.30638 0.44577 0.0
H307 H 0.84556 0.16927 0.51382 0.0
H308 H 0.89775 0.17983 0.55288 0.0
H309 H 0.88325 0.23346 0.54155 0.0
H310 H 0.03559 0.24253 0.64554 0.0
H311 H 0.0234 0.38246 0.60858 0.0
H312 H 0.04529 0.19928 0.546 0.0
H313 H 0.9726 0.16344 0.54882 0.0
H314 H 0.01197 0.16901 0.59701 0.0
H315 H 0.0216 0.36837 0.49704 0.0
H316 H -0.0044 0.39349 0.5394 0.0
H317 H 0.95099 0.33099 0.51142 0.0
C318 C 0.48454 0.04783 0.19264 0.0
C319 C 0.4553 0.01274 0.22706 0.0
C320 C 0.54065 0.06666 0.18806 0.0
C321 C 0.56699 0.04956 0.21853 0.0
C322 C 0.53506 0.00563 0.24694 0.0
C323 C 0.47933 0.98794 0.25117 0.0
C324 C 0.57291 0.11115 0.15545 0.0
C325 C 0.56107 0.98366 0.27797 0.0
C326 C 0.72231 0.11985 0.22657 0.0
C327 C 0.73273 0.16055 0.25745 0.0
C328 C 0.66869 0.08296 0.21323 0.0
C329 C 0.62474 0.08767 0.23069 0.0
C330 C 0.63535 0.12897 0.26175 0.0
C331 C 0.68896 0.16465 0.27462 0.0
C332 C 0.6598 0.04024 0.17976 0.0
C333 C 0.58999 0.13552 0.28186 0.0
H334 H 0.46584 0.06654 0.17349 0.0
H335 H 0.45632 0.95991 0.27729 0.0
H336 H 0.59049 0.15118 0.17206 0.0
H337 H 0.60706 0.10687 0.14196 0.0
H338 H 0.54681 0.11084 0.12812 0.0
H339 H 0.53071 0.94353 0.29164 0.0
H340 H 0.59356 0.97941 0.26117 0.0
H341 H 0.58009 0.01254 0.3055 0.0
H342 H 0.75602 0.11708 0.21243 0.0
H343 H 0.69654 0.19588 0.29852 0.0
H344 H 0.65878 0.05601 0.14673 0.0
H345 H 0.62063 0.00215 0.1849 0.0
H346 H 0.69348 0.03061 0.18035 0.0
H347 H 0.56698 0.14296 0.2559 0.0
H348 H 0.60535 0.16977 0.30545 0.0
H349 H 0.56103 0.09769 0.29931 0.0
C350 C 0.4839 0.47149 0.21081 0.0
C351 C 0.53485 0.49254 0.1903 0.0
C352 C 0.44778 0.41522 0.21231 0.0
C353 C 0.46312 0.37964 0.19252 0.0
C354 C 0.50953 0.4015 0.16488 0.0
C355 C 0.54513 0.4581 0.16404 0.0
C356 C 0.39776 0.39396 0.24086 0.0
C357 C 0.52585 0.36496 0.14137 0.0
C358 C 0.44678 0.26218 0.26336 0.0
C359 C 0.40163 0.21739 0.24466 0.0
C360 C 0.46634 0.31484 0.24682 0.0
C361 C 0.44053 0.32328 0.21018 0.0
C362 C 0.39409 0.27842 0.19164 0.0
C363 C 0.37512 0.22595 0.20917 0.0
C364 C 0.51527 0.36148 0.26847 0.0
C365 C 0.3656 0.28516 0.15236 0.0
H366 H 0.47558 0.49823 0.23075 0.0
H367 H 0.58428 0.47417 0.14786 0.0
H368 H 0.36312 0.35712 0.22645 0.0
H369 H 0.40673 0.38249 0.27329 0.0
H370 H 0.38527 0.42513 0.24596 0.0
H371 H 0.55476 0.38673 0.11425 0.0
H372 H 0.54605 0.35059 0.1648 0.0
H373 H 0.48955 0.32869 0.12801 0.0
H374 H 0.46732 0.25603 0.29091 0.0
H375 H 0.3405 0.19149 0.19419 0.0
H376 H 0.5052 0.39296 0.2791 0.0
H377 H 0.54942 0.38082 0.24479 0.0
H378 H 0.52949 0.3482 0.29743 0.0
H379 H 0.36368 0.32334 0.1542 0.0
H380 H 0.32356 0.25034 0.14887 0.0
H381 H 0.38881 0.28731 0.12245 0.0
C382 C 0.91838 0.41822 0.20713 0.0
C383 C 0.94049 0.41996 0.24852 0.0
C384 C 0.90193 0.45606 0.19583 0.0
C385 C 0.90769 0.49564 0.22685 0.0
C386 C 0.93992 0.50396 0.26452 0.0
C387 C 0.95568 0.46552 0.27518 0.0
C388 C 0.87078 0.4482 0.15393 0.0
C389 C 0.95001 0.54798 0.29708 0.0
C390 C 0.83726 0.58001 0.2122 0.0
C391 C 0.78806 0.54767 0.23448 0.0
C392 C 0.87724 0.56427 0.20927 0.0
C393 C 0.86674 0.51408 0.22777 0.0
C394 C 0.81644 0.4807 0.24927 0.0
C395 C 0.77806 0.49803 0.25248 0.0
C396 C 0.92995 0.6012 0.18592 0.0
C397 C 0.80316 0.42671 0.26966 0.0
H398 H 0.90738 0.38363 0.18598 0.0
H399 H 0.97438 0.46787 0.30669 0.0
H400 H 0.82643 0.42441 0.16086 0.0
H401 H 0.87963 0.48796 0.13992 0.0
H402 H 0.88086 0.42566 0.12932 0.0
H403 H 0.98484 0.55675 0.31893 0.0
H404 H 0.95826 0.58605 0.28014 0.0
H405 H 0.91312 0.53455 0.31763 0.0
H406 H 0.84474 0.61769 0.19704 0.0
H407 H 0.7401 0.47256 0.26953 0.0
H408 H 0.92605 0.58874 0.15113 0.0
H409 H 0.96484 0.59878 0.20014 0.0
H410 H 0.93925 0.64424 0.18687 0.0
H411 H 0.80534 0.39955 0.24459 0.0
H412 H 0.76187 0.40551 0.28454 0.0
H413 H 0.83331 0.43306 0.29551 0.0
C414 C 0.05041 0.51556 0.81852 0.0
C415 C 0.07074 0.48204 0.83308 0.0
C416 C 0.07644 0.57065 0.83 0.0
C417 C 0.123 0.59182 0.85729 0.0
C418 C 0.13481 0.55526 0.88008 0.0
C419 C 0.10915 0.50043 0.86704 0.0
C420 C 0.05978 0.60745 0.80704 0.0
C421 C 0.17977 0.57537 0.91352 0.0
C422 C 0.23787 0.70958 0.79849 0.0
C423 C 0.23207 0.75346 0.81285 0.0
C424 C 0.20545 0.65728 0.81543 0.0
C425 C 0.16728 0.64865 0.84901 0.0
C426 C 0.16628 0.69402 0.86762 0.0
C427 C 0.19812 0.74593 0.84882 0.0
C428 C 0.20884 0.6107 0.79424 0.0
C429 C 0.12966 0.68809 0.90555 0.0
H430 H 0.01911 0.5007 0.7935 0.0
H431 H 0.12395 0.47426 0.87962 0.0
H432 H 0.05708 0.63557 0.83076 0.0
H433 H 0.09093 0.63238 0.7822 0.0
H434 H 0.01981 0.58414 0.79033 0.0
H435 H 0.17145 0.54329 0.9382 0.0
H436 H 0.21881 0.58591 0.89714 0.0
H437 H 0.18459 0.61225 0.93036 0.0
H438 H 0.26513 0.71523 0.77155 0.0
H439 H 0.19396 0.77964 0.8609 0.0
H440 H 0.16896 0.58154 0.77957 0.0
H441 H 0.21891 0.58843 0.81902 0.0
H442 H 0.24023 0.62463 0.7681 0.0
H443 H 0.09506 0.69278 0.8937 0.0
H444 H 0.15231 0.72107 0.92965 0.0
H445 H 0.11344 0.64826 0.9224 0.0
C446 C 0.48378 0.02386 0.72948 0.0
C447 C 0.44221 0.00783 0.76072 0.0
C448 C 0.52471 0.00961 0.73459 0.0
C449 C 0.5233 0.97868 0.77156 0.0
C450 C 0.48973 0.97476 0.8074 0.0
C451 C 0.45049 -0.00873 0.80196 0.0
C452 C 0.56308 0.01912 0.69712 0.0
C453 C 0.48809 0.94445 0.84847 0.0
C454 C 0.52217 0.84974 0.73596 0.0
C455 C 0.57382 0.85877 0.7484 0.0
C456 C 0.50505 0.88737 0.74519 0.0
C457 C 0.541 0.93703 0.76627 0.0
C458 C 0.59267 0.94594 0.78034 0.0
C459 C 0.60765 0.90588 0.77235 0.0
C460 C 0.44847 0.87403 0.73116 0.0
C461 C 0.63327 -0.00163 0.80197 0.0
H462 H 0.4788 0.03841 0.69792 0.0
H463 H 0.41941 0.98025 0.82689 0.0
H464 H 0.60337 0.02701 0.70934 0.0
H465 H 0.54598 0.98224 0.67626 0.0
H466 H 0.56875 0.05396 0.67653 0.0
H467 H 0.47408 0.95884 0.8768 0.0
H468 H 0.45888 0.90049 0.84383 0.0
H469 H 0.52857 0.94909 0.85609 0.0
H470 H 0.49469 0.81307 0.71832 0.0
H471 H 0.64579 0.91163 0.7848 0.0
H472 H 0.45134 0.90255 0.705 0.0
H473 H 0.42611 0.87854 0.7592 0.0
H474 H 0.42417 0.83192 0.71843 0.0
H475 H 0.61306 0.01588 0.82206 0.0
H476 H 0.65721 0.02836 0.77616 0.0
H477 H 0.66229 -0.0074 0.82279 0.0
C478 C 0.27826 0.40373 0.79404 0.0
C479 C 0.25686 0.43107 0.76991 0.0
C480 C 0.33487 0.42472 0.7969 0.0
C481 C 0.37025 0.47517 0.77663 0.0
C482 C 0.34837 0.50337 0.7532 0.0
C483 C 0.29221 0.48063 0.74986 0.0
C484 C 0.35611 0.39323 0.82217 0.0
C485 C 0.38389 0.55774 0.73118 0.0
C486 C 0.50671 0.58907 0.79428 0.0
C487 C 0.52653 0.59098 0.752 0.0
C488 C 0.45875 0.54321 0.80824 0.0
C489 C 0.43024 0.50008 0.77844 0.0
C490 C 0.45681 0.49719 0.74021 0.0
C491 C 0.50451 0.54365 0.72671 0.0
C492 C 0.43354 0.54574 0.85095 0.0
C493 C 0.4296 0.44945 0.70955 0.0
H494 H 0.25092 0.36619 0.81082 0.0
H495 H 0.27591 0.50202 0.73124 0.0
H496 H 0.3954 0.39962 0.80888 0.0
H497 H 0.36272 0.40699 0.85669 0.0
H498 H 0.32622 0.34896 0.82204 0.0
H499 H 0.35975 0.5747 0.71594 0.0
H500 H 0.41193 0.58783 0.75525 0.0
H501 H 0.40873 0.55336 0.70512 0.0
H502 H 0.52439 0.62551 0.81422 0.0
H503 H 0.5212 0.54469 0.69456 0.0
H504 H 0.41027 0.50475 0.86588 0.0
H505 H 0.40492 0.5613 0.84489 0.0
H506 H 0.46508 0.5735 0.87444 0.0
H507 H 0.40672 0.41089 0.72813 0.0
H508 H 0.45984 0.44675 0.68802 0.0
H509 H 0.40023 0.45436 0.68852 0.0
C510 C 0.2492 0.16878 0.28245 0.0
C511 C 0.22177 0.13134 0.24879 0.0
C512 C 0.22992 0.20292 0.29827 0.0
C513 C 0.18212 0.19925 0.27999 0.0
C514 C 0.15576 0.16302 0.24478 0.0
C515 C 0.17585 0.12962 0.22977 0.0
C516 C 0.25947 0.24081 0.33571 0.0
C517 C 0.10532 0.15841 0.2234 0.0
C518 C 0.07416 0.22529 0.32508 0.0
C519 C 0.08045 0.26662 0.29637 0.0
C520 C 0.11278 0.20763 0.32559 0.0
C521 C 0.15803 0.23214 0.2968 0.0
C522 C 0.16946 0.28049 0.27453 0.0
C523 C 0.13025 0.29717 0.2745 0.0
C524 C 0.10076 0.15769 0.35174 0.0
C525 C 0.21852 0.30948 0.24508 0.0
H526 H 0.28456 0.17013 0.29757 0.0
H527 H 0.1547 0.10115 0.20353 0.0
H528 H 0.25775 0.27907 0.33345 0.0
H529 H 0.2398 0.22046 0.36689 0.0
H530 H 0.30284 0.25104 0.33703 0.0
H531 H 0.09068 0.12921 0.19572 0.0
H532 H 0.07199 0.14473 0.24778 0.0
H533 H 0.1138 0.1987 0.2109 0.0
H534 H 0.03601 0.20202 0.34254 0.0
H535 H 0.13562 0.32997 0.25293 0.0
H536 H 0.13885 0.16104 0.36505 0.0
H537 H 0.08163 0.12152 0.33008 0.0
H538 H 0.07233 0.15106 0.37917 0.0
H539 H 0.25473 0.30999 0.2597 0.0
H540 H 0.2283 0.35199 0.23841 0.0
H541 H 0.2099 0.28763 0.21341 0.0
C542 C 0.92605 0.77354 0.20648 0.0
C543 C 0.88181 0.72972 0.22696 0.0
C544 C 0.97918 0.79327 0.22177 0.0
C545 C 0.98853 0.76874 0.25883 0.0
C546 C 0.9443 0.72271 0.2785 0.0
C547 C 0.89123 0.70387 0.26242 0.0
C548 C 0.0251 0.84176 0.19891 0.0
C549 C 0.95212 0.69478 0.31765 0.0
C550 C 0.13855 0.82319 0.25843 0.0
C551 C 0.15538 0.8737 0.27827 0.0
C552 C 0.08332 0.7831 0.25784 0.0
C553 C 0.0446 0.79446 0.27724 0.0
C554 C 0.06273 0.84127 0.30376 0.0
C555 C 0.11809 0.881 0.30339 0.0
C556 C 0.06584 0.73263 0.23074 0.0
C557 C 0.02286 0.85359 0.32674 0.0
H558 H 0.91899 0.79327 0.17879 0.0
H559 H 0.85702 0.67015 0.27861 0.0
H560 H 0.04395 0.87688 0.22161 0.0
H561 H 0.05721 0.83228 0.18884 0.0
H562 H 0.01106 0.85426 0.16938 0.0
H563 H 0.91968 0.65141 0.31939 0.0
H564 H -0.00763 0.69684 0.31716 0.0
H565 H 0.94976 0.71523 0.34783 0.0
H566 H 0.16747 0.81756 0.23895 0.0
H567 H 0.13051 0.9204 0.31781 0.0
H568 H 0.05286 0.73872 0.19792 0.0
H569 H 0.03068 0.69688 0.24599 0.0
H570 H 0.09967 0.72368 0.22637 0.0
H571 H 0.00529 0.87015 0.30273 0.0
H572 H 0.04294 0.88416 0.35307 0.0
H573 H -0.01112 0.81607 0.34109 0.0
C574 C 0.77855 0.05167 0.27789 0.0
C575 C 0.82577 0.06851 0.25266 0.0
C576 C 0.74012 -0.0039 0.28272 0.0
C577 C 0.74991 0.95674 0.26248 0.0
C578 C 0.79778 0.97381 0.2372 0.0
C579 C 0.83481 0.02925 0.2326 0.0
C580 C 0.69018 0.98003 0.31034 0.0
C581 C 0.81013 0.93353 0.21467 0.0
C582 C 0.70591 0.81169 0.28539 0.0
C583 C 0.6791 0.78912 0.24596 0.0
C584 C 0.72192 0.86583 0.29591 0.0
C585 C 0.7109 0.89743 0.26598 0.0
C586 C 0.67472 0.87144 0.2308 0.0
C587 C 0.6596 0.81743 0.22086 0.0
C588 C 0.75785 0.89123 0.33522 0.0
C589 C 0.65908 0.90293 0.19975 0.0
H590 H 0.77183 0.08177 0.29427 0.0
H591 H 0.87114 0.04186 0.21304 0.0
H592 H 0.69813 0.97121 0.34407 0.0
H593 H 0.68028 0.01343 0.31213 0.0
H594 H 0.6542 0.94293 0.29767 0.0
H595 H 0.84943 0.95374 0.19664 0.0
H596 H 0.81199 0.90541 0.23907 0.0
H597 H 0.7773 0.90872 0.19107 0.0
H598 H 0.72059 0.78987 0.30506 0.0
H599 H 0.6375 0.79946 0.19087 0.0
H600 H 0.75043 0.9228 0.34992 0.0
H601 H 0.80118 0.911 0.32492 0.0
H602 H 0.75099 0.86016 0.36046 0.0
H603 H 0.65046 0.93174 0.21793 0.0
H604 H 0.62276 0.87548 0.17997 0.0
H605 H 0.6935 0.92701 0.17709 0.0
C606 C 0.15329 0.18288 0.79097 0.0
C607 C 0.16667 0.23575 0.77822 0.0
C608 C 0.18864 0.16236 0.78343 0.0
C609 C 0.23989 0.1958 0.76337 0.0
C610 C 0.25429 0.24957 0.7508 0.0
C611 C 0.21706 0.26857 0.75768 0.0
C612 C 0.17046 0.10425 0.79662 0.0
C613 C 0.30896 0.2871 0.73046 0.0
C614 C 0.31844 0.12431 0.78905 0.0
C615 C 0.30167 0.08755 0.75414 0.0
C616 C 0.30655 0.16717 0.78944 0.0
C617 C 0.27604 0.17209 0.75463 0.0
C618 C 0.26739 0.14068 0.71634 0.0
C619 C 0.28095 0.09911 0.71644 0.0
C620 C 0.31913 0.20152 0.83002 0.0
C621 C 0.23534 0.1442 0.67819 0.0
H622 H 0.11451 0.15686 0.80672 0.0
H623 H 0.2271 0.30871 0.74639 0.0
H624 H 0.17132 0.08079 0.76788 0.0
H625 H 0.19868 0.10346 0.82147 0.0
H626 H 0.12861 0.08319 0.81047 0.0
H627 H 0.34158 0.29636 0.75476 0.0
H628 H 0.31664 0.26726 0.70224 0.0
H629 H 0.31219 0.32602 0.71935 0.0
H630 H 0.33415 0.11539 0.81843 0.0
H631 H 0.26751 0.07044 0.68951 0.0
H632 H 0.28298 0.1836 0.85183 0.0
H633 H 0.32873 0.24355 0.82172 0.0
H634 H 0.35391 0.20315 0.84832 0.0
H635 H 0.1912 0.12028 0.68588 0.0
H636 H 0.24293 0.12728 0.64793 0.0
H637 H 0.24541 0.18676 0.67188 0.0
C638 C 0.08148 0.88131 0.67912 0.0
C639 C 0.08904 0.84706 0.70789 0.0
C640 C 0.0287 0.86876 0.6663 0.0
C641 C 0.98321 0.82139 0.68322 0.0
C642 C -0.00837 0.7831 0.7069 0.0
C643 C 0.0446 0.79668 0.71926 0.0
C644 C 0.02161 0.90964 0.63952 0.0
C645 C 0.94449 0.73136 0.72462 0.0
C646 C 0.86679 0.83222 0.7332 0.0
C647 C 0.8234 0.79959 0.70544 0.0
C648 C 0.91956 0.8421 0.72468 0.0
C649 C 0.92948 0.81888 0.68718 0.0
C650 C 0.88658 0.78885 0.65733 0.0
C651 C 0.83383 0.7794 0.66692 0.0
C652 C 0.96411 0.87516 0.75724 0.0
C653 C 0.89539 0.76427 0.61656 0.0
H654 H 0.11582 0.92057 0.67069 0.0
H655 H 0.05073 0.77015 0.74139 0.0
H656 H 0.98571 0.88915 0.61762 0.0
H657 H 0.01488 0.93671 0.66177 0.0
H658 H 0.05842 0.93531 0.6195 0.0
H659 H 0.9575 0.70199 0.73544 0.0
H660 H 0.92663 0.7412 0.75314 0.0
H661 H 0.9121 0.71157 0.69962 0.0
H662 H 0.85945 0.84929 0.76231 0.0
H663 H 0.8005 0.75449 0.64509 0.0
H664 H -0.00053 0.90892 0.7404 0.0
H665 H 0.97845 0.84906 0.77289 0.0
H666 H 0.9502 0.89272 0.78337 0.0
H667 H 0.93646 0.79071 0.60248 0.0
H668 H 0.86419 0.75699 0.59131 0.0
H669 H 0.89208 0.72455 0.62485 0.0
C670 C 0.91409 0.17404 0.70262 0.0
C671 C 0.91208 0.21074 0.73202 0.0
C672 C 0.86776 0.12318 0.69589 0.0
C673 C 0.81924 0.11032 0.71885 0.0
C674 C 0.81412 0.1526 0.73871 0.0
C675 C 0.86149 0.20233 0.74664 0.0
C676 C 0.87376 0.08042 0.67108 0.0
C677 C 0.76074 0.14207 0.7581 0.0
C678 C 0.72833 0.95741 0.72448 0.0
C679 C 0.74719 0.94582 0.76338 0.0
C680 C 0.74651 0.0114 0.71153 0.0
C681 C 0.78677 0.05437 0.73676 0.0
C682 C 0.80271 0.04266 0.77766 0.0
C683 C 0.78162 0.98866 0.79076 0.0
C684 C 0.72415 0.02137 0.66991 0.0
C685 C 0.84556 0.08658 0.80633 0.0
H686 H 0.95325 0.18121 0.69069 0.0
H687 H 0.85982 0.23167 0.76844 0.0
H688 H 0.8758 0.05146 0.69454 0.0
H689 H 0.83805 0.05712 0.64956 0.0
H690 H 0.91125 0.09856 0.65068 0.0
H691 H 0.7597 0.18054 0.76232 0.0
H692 H 0.72632 0.11404 0.73688 0.0
H693 H 0.75497 0.12255 0.79065 0.0
H694 H 0.70104 0.9246 0.70318 0.0
H695 H 0.79523 0.97995 0.82136 0.0
H696 H 0.73947 0.0085 0.6415 0.0
H697 H 0.7352 0.06459 0.66562 0.0
H698 H 0.67902 -0.00404 0.66975 0.0
H699 H 0.88415 0.10985 0.78784 0.0
H700 H 0.85445 0.06986 0.83617 0.0
H701 H 0.83191 0.11534 0.81694 0.0
loop_
_geom_bond_atom_site_label_1
_geom_bond_atom_site_label_2
_geom_bond_distance
_geom_bond_site_symmetry_2
_ccdc_geom_bond_type
Zn0 O6 1.920 . S
Zn0 O12 1.898 . S
Zn0 O15 1.905 1_545 S
Zn1 O9 1.905 . S
Zn1 O10 1.898 . S
Zn1 O18 1.920 . S
Zn2 O5 2.080 . S
Zn2 O8 2.114 . S
Zn2 O11 2.120 . S
Zn2 O13 2.120 . S
Zn2 O14 2.114 . S
Zn2 O17 2.080 . S
C3 O8 1.166 . S
C3 O9 1.182 . S
C4 O10 1.167 . S
C4 O11 1.299 . S
O5 Zn2 2.080 . S
O5 C19 1.305 . S
O6 Zn0 1.920 . S
O6 C19 1.234 . S
C7 O12 1.167 . S
C7 O13 1.299 . S
O8 Zn2 2.114 . S
O8 C3 1.166 . S
O9 Zn1 1.905 . S
O9 C3 1.182 . S
O10 Zn1 1.898 . S
O10 C4 1.167 . S
O11 Zn2 2.120 . S
O11 C4 1.299 . S
O12 Zn0 1.898 . S
O12 C7 1.167 . S
O13 Zn2 2.120 . S
O13 C7 1.299 . S
O14 Zn2 2.114 . S
O14 C16 1.166 1_545 S
O15 Zn0 1.905 1_565 S
O15 C16 1.182 . S
C16 O14 1.166 1_565 S
C16 O15 1.182 . S
O17 Zn2 2.080 . S
O17 C20 1.305 . S
O18 Zn1 1.920 . S
O18 C20 1.234 . S
C19 O5 1.305 . S
C19 O6 1.234 . S
C20 O17 1.305 . S
C20 O18 1.234 . S
Zn21 O27 1.920 . S
Zn21 O33 1.898 . S
Zn21 O36 1.905 . S
Zn22 O30 1.905 . S
Zn22 O31 1.898 . S
Zn22 O39 1.920 . S
Zn23 O26 2.080 . S
Zn23 O29 2.114 . S
Zn23 O32 2.120 . S
Zn23 O34 2.120 . S
Zn23 O35 2.114 . S
Zn23 O38 2.080 . S
C24 O29 1.166 . S
C24 O30 1.182 . S
C25 O31 1.167 . S
C25 O32 1.299 . S
O26 Zn23 2.080 . S
O26 C40 1.305 . S
O27 Zn21 1.920 . S
O27 C40 1.234 . S
C28 O33 1.167 . S
C28 O34 1.299 . S
O29 Zn23 2.114 . S
O29 C24 1.166 . S
O30 Zn22 1.905 . S
O30 C24 1.182 . S
O31 Zn22 1.898 . S
O31 C25 1.167 . S
O32 Zn23 2.120 . S
O32 C25 1.299 . S
O33 Zn21 1.898 . S
O33 C28 1.167 . S
O34 Zn23 2.120 . S
O34 C28 1.299 . S
O35 Zn23 2.114 . S
O35 C37 1.166 . S
O36 Zn21 1.905 . S
O36 C37 1.182 . S
C37 O35 1.166 . S
C37 O36 1.182 . S
O38 Zn23 2.080 . S
O38 C41 1.305 . S
O39 Zn22 1.920 . S
O39 C41 1.234 . S
C40 O26 1.305 . S
C40 O27 1.234 . S
C41 O38 1.305 . S
C41 O39 1.234 . S
Zn42 O48 1.920 . S
Zn42 O54 1.898 . S
Zn42 O57 1.905 1_655 S
Zn43 O51 1.905 . S
Zn43 O52 1.898 . S
Zn43 O60 1.920 . S
Zn44 O47 2.080 . S
Zn44 O50 2.114 . S
Zn44 O53 2.120 . S
Zn44 O55 2.120 . S
Zn44 O56 2.114 . S
Zn44 O59 2.080 . S
C45 O50 1.166 . S
C45 O51 1.182 . S
C46 O52 1.167 . S
C46 O53 1.299 . S
O47 Zn44 2.080 . S
O47 C61 1.305 . S
O48 Zn42 1.920 . S
O48 C61 1.234 . S
C49 O54 1.167 . S
C49 O55 1.299 . S
O50 Zn44 2.114 . S
O50 C45 1.166 . S
O51 Zn43 1.905 . S
O51 C45 1.182 . S
O52 Zn43 1.898 . S
O52 C46 1.167 . S
O53 Zn44 2.120 . S
O53 C46 1.299 . S
O54 Zn42 1.898 . S
O54 C49 1.167 . S
O55 Zn44 2.120 . S
O55 C49 1.299 . S
O56 Zn44 2.114 . S
O56 C58 1.166 1_655 S
O57 Zn42 1.905 1_455 S
O57 C58 1.182 . S
C58 O56 1.166 1_455 S
C58 O57 1.182 . S
O59 Zn44 2.080 . S
O59 C62 1.305 . S
O60 Zn43 1.920 . S
O60 C62 1.234 . S
C61 O47 1.305 . S
C61 O48 1.234 . S
C62 O59 1.305 . S
C62 O60 1.234 . S
Zn63 O69 1.920 . S
Zn63 O75 1.898 . S
Zn63 O78 1.905 1_455 S
Zn64 O72 1.905 . S
Zn64 O73 1.898 . S
Zn64 O81 1.920 . S
Zn65 O68 2.080 . S
Zn65 O71 2.114 . S
Zn65 O74 2.120 . S
Zn65 O76 2.120 . S
Zn65 O77 2.114 . S
Zn65 O80 2.080 . S
C66 O71 1.166 . S
C66 O72 1.182 . S
C67 O73 1.167 . S
C67 O74 1.299 . S
O68 Zn65 2.080 . S
O68 C82 1.305 . S
O69 Zn63 1.920 . S
O69 C82 1.234 . S
C70 O75 1.167 . S
C70 O76 1.299 . S
O71 Zn65 2.114 . S
O71 C66 1.166 . S
O72 Zn64 1.905 . S
O72 C66 1.182 . S
O73 Zn64 1.898 . S
O73 C67 1.167 . S
O74 Zn65 2.120 . S
O74 C67 1.299 . S
O75 Zn63 1.898 . S
O75 C70 1.167 . S
O76 Zn65 2.120 . S
O76 C70 1.299 . S
O77 Zn65 2.114 . S
O77 C79 1.166 1_455 S
O78 Zn63 1.905 1_655 S
O78 C79 1.182 . S
C79 O77 1.166 1_655 S
C79 O78 1.182 . S
O80 Zn65 2.080 . S
O80 C83 1.305 . S
O81 Zn64 1.920 . S
O81 C83 1.234 . S
C82 O68 1.305 . S
C82 O69 1.234 . S
C83 O80 1.305 . S
C83 O81 1.234 . S
Zn84 O90 1.920 . S
Zn84 O96 1.898 . S
Zn84 O99 1.905 . S
Zn85 O93 1.905 1_565 S
Zn85 O94 1.898 . S
Zn85 O102 1.920 . S
Zn86 O89 2.080 . S
Zn86 O92 2.114 . S
Zn86 O95 2.120 . S
Zn86 O97 2.120 . S
Zn86 O98 2.114 . S
Zn86 O101 2.080 . S
C87 O92 1.166 1_545 S
C87 O93 1.182 . S
C88 O94 1.167 . S
C88 O95 1.299 . S
O89 Zn86 2.080 . S
O89 C103 1.305 . S
O90 Zn84 1.920 . S
O90 C103 1.234 . S
C91 O96 1.167 . S
C91 O97 1.299 . S
O92 Zn86 2.114 . S
O92 C87 1.166 1_565 S
O93 Zn85 1.905 1_545 S
O93 C87 1.182 . S
O94 Zn85 1.898 . S
O94 C88 1.167 . S
O95 Zn86 2.120 . S
O95 C88 1.299 . S
O96 Zn84 1.898 . S
O96 C91 1.167 . S
O97 Zn86 2.120 . S
O97 C91 1.299 . S
O98 Zn86 2.114 . S
O98 C100 1.166 . S
O99 Zn84 1.905 . S
O99 C100 1.182 . S
C100 O98 1.166 . S
C100 O99 1.182 . S
O101 Zn86 2.080 . S
O101 C104 1.305 . S
O102 Zn85 1.920 . S
O102 C104 1.234 . S
C103 O89 1.305 . S
C103 O90 1.234 . S
C104 O101 1.305 . S
C104 O102 1.234 . S
Zn105 O111 1.920 . S
Zn105 O117 1.898 . S
Zn105 O120 1.905 . S
Zn106 O114 1.905 . S
Zn106 O115 1.898 . S
Zn106 O123 1.920 . S
Zn107 O110 2.080 . S
Zn107 O113 2.114 . S
Zn107 O116 2.120 . S
Zn107 O118 2.120 . S
Zn107 O119 2.114 . S
Zn107 O122 2.080 . S
C108 O113 1.166 . S
C108 O114 1.182 . S
C109 O115 1.167 . S
C109 O116 1.299 . S
O110 Zn107 2.080 . S
O110 C124 1.305 . S
O111 Zn105 1.920 . S
O111 C124 1.234 . S
C112 O117 1.167 . S
C112 O118 1.299 . S
O113 Zn107 2.114 . S
O113 C108 1.166 . S
O114 Zn106 1.905 . S
O114 C108 1.182 . S
O115 Zn106 1.898 . S
O115 C109 1.167 . S
O116 Zn107 2.120 . S
O116 C109 1.299 . S
O117 Zn105 1.898 . S
O117 C112 1.167 . S
O118 Zn107 2.120 . S
O118 C112 1.299 . S
O119 Zn107 2.114 . S
O119 C121 1.166 . S
O120 Zn105 1.905 . S
O120 C121 1.182 . S
C121 O119 1.166 . S
C121 O120 1.182 . S
O122 Zn107 2.080 . S
O122 C125 1.305 . S
O123 Zn106 1.920 . S
O123 C125 1.234 . S
C124 O110 1.305 . S
C124 O111 1.234 . S
C125 O122 1.305 . S
C125 O123 1.234 . S
C126 C127 1.391 . S
C126 C128 1.394 . S
C126 H142 0.931 . S
C127 C126 1.391 . S
C127 C131 1.376 . S
C128 C126 1.394 . S
C128 C129 1.369 . S
C128 C132 1.531 . S
C129 C128 1.369 . S
C129 C130 1.410 . S
C129 C137 1.503 1_566 S
C130 C129 1.410 . S
C130 C131 1.392 . S
C130 C133 1.511 . S
C131 C127 1.376 . S
C131 C130 1.392 . S
C131 H143 0.929 . S
C132 C128 1.531 . S
C132 H144 0.960 1_556 S
C132 H145 0.962 . S
C132 H146 0.960 . S
C133 C130 1.511 . S
C133 H147 0.961 1_565 S
C133 H148 0.972 1_565 S
C133 H149 0.961 . S
C134 C135 1.370 . S
C134 C136 1.363 . S
C134 H150 0.931 . S
C135 C134 1.370 . S
C135 C139 1.408 1_545 S
C136 C134 1.363 . S
C136 C137 1.370 . S
C136 C140 1.524 1_554 S
C137 C129 1.503 1_544 S
C137 C136 1.370 . S
C137 C138 1.403 1_545 S
C138 C137 1.403 1_565 S
C138 C139 1.404 . S
C138 C141 1.539 . S
C139 C135 1.408 1_565 S
C139 C138 1.404 . S
C139 H151 0.930 . S
C140 C136 1.524 1_556 S
C140 H152 0.956 . S
C140 H153 0.961 . S
C140 H154 0.954 1_556 S
C141 C138 1.539 . S
C141 H155 0.958 . S
C141 H156 0.961 . S
C141 H157 0.960 . S
H142 C126 0.931 . S
H143 C131 0.929 . S
H144 C132 0.960 1_554 S
H145 C132 0.962 . S
H146 C132 0.960 . S
H147 C133 0.961 1_545 S
H148 C133 0.972 1_545 S
H149 C133 0.961 . S
H150 C134 0.931 . S
H151 C139 0.930 . S
H152 C140 0.956 . S
H153 C140 0.961 . S
H154 C140 0.954 1_554 S
H155 C141 0.958 . S
H156 C141 0.961 . S
H157 C141 0.960 . S
C158 C159 1.391 . S
C158 C160 1.394 . S
C158 H174 0.931 . S
C159 C158 1.391 . S
C159 C163 1.376 . S
C160 C158 1.394 . S
C160 C161 1.369 . S
C160 C164 1.531 . S
C161 C160 1.369 . S
C161 C162 1.410 . S
C161 C169 1.503 . S
C162 C161 1.410 . S
C162 C163 1.392 . S
C162 C165 1.511 . S
C163 C159 1.376 . S
C163 C162 1.392 . S
C163 H175 0.929 . S
C164 C160 1.531 . S
C164 H176 0.960 . S
C164 H177 0.962 . S
C164 H178 0.960 . S
C165 C162 1.511 . S
C165 H179 0.961 . S
C165 H180 0.961 . S
C165 H181 0.961 . S
C166 C167 1.370 . S
C166 C168 1.363 . S
C166 H182 0.931 . S
C167 C166 1.370 . S
C167 C171 1.408 . S
C168 C166 1.363 . S
C168 C169 1.370 . S
C168 C172 1.524 . S
C169 C161 1.503 . S
C169 C168 1.370 . S
C169 C170 1.403 . S
C170 C169 1.403 . S
C170 C171 1.404 . S
C170 C173 1.539 . S
C171 C167 1.408 . S
C171 C170 1.404 . S
C171 H183 0.930 . S
C172 C168 1.524 . S
C172 H184 0.956 . S
C172 H185 0.961 . S
C172 H186 0.961 . S
C173 C170 1.539 . S
C173 H187 0.958 . S
C173 H188 0.961 . S
C173 H189 0.960 . S
H174 C158 0.931 . S
H175 C163 0.929 . S
H176 C164 0.960 . S
H177 C164 0.962 . S
H178 C164 0.960 . S
H179 C165 0.961 . S
H180 C165 0.961 . S
H181 C165 0.961 . S
H182 C166 0.931 . S
H183 C171 0.930 . S
H184 C172 0.956 . S
H185 C172 0.961 . S
H186 C172 0.961 . S
H187 C173 0.958 . S
H188 C173 0.961 . S
H189 C173 0.960 . S
C190 C191 1.391 . S
C190 C192 1.394 . S
C190 H206 0.931 . S
C191 C190 1.391 . S
C191 C195 1.376 . S
C192 C190 1.394 . S
C192 C193 1.369 . S
C192 C196 1.531 1_655 S
C193 C192 1.369 . S
C193 C194 1.410 . S
C193 C201 1.503 1_654 S
C194 C193 1.410 . S
C194 C195 1.392 . S
C194 C197 1.511 . S
C195 C191 1.376 . S
C195 C194 1.392 . S
C195 H207 0.929 . S
C196 C192 1.531 1_455 S
C196 H208 0.960 1_554 S
C196 H209 0.962 . S
C196 H210 0.960 1_455 S
C197 C194 1.511 . S
C197 H211 0.961 . S
C197 H212 0.961 1_554 S
C197 H213 0.961 1_554 S
C198 C199 1.370 . S
C198 C200 1.363 . S
C198 H214 0.931 . S
C199 C198 1.370 . S
C199 C203 1.408 1_455 S
C200 C198 1.363 . S
C200 C201 1.370 . S
C200 C204 1.524 1_556 S
C201 C193 1.503 1_456 S
C201 C200 1.370 . S
C201 C202 1.403 1_455 S
C202 C201 1.403 1_655 S
C202 C203 1.404 . S
C202 C205 1.539 . S
C203 C199 1.408 1_655 S
C203 C202 1.404 . S
C203 H215 0.930 . S
C204 C200 1.524 1_554 S
C204 H216 0.956 . S
C204 H217 0.961 . S
C204 H218 0.961 1_554 S
C205 C202 1.539 . S
C205 H219 0.958 . S
C205 H220 0.961 . S
C205 H221 0.960 . S
H206 C190 0.931 . S
H207 C195 0.929 . S
H208 C196 0.960 1_556 S
H209 C196 0.962 . S
H210 C196 0.960 1_655 S
H211 C197 0.961 . S
H212 C197 0.961 1_556 S
H213 C197 0.961 1_556 S
H214 C198 0.931 . S
H215 C203 0.930 . S
H216 C204 0.956 . S
H217 C204 0.961 . S
H218 C204 0.961 1_556 S
H219 C205 0.958 . S
H220 C205 0.961 . S
H221 C205 0.960 . S
C222 C223 1.391 . S
C222 C224 1.394 . S
C222 H238 0.931 . S
C223 C222 1.391 . S
C223 C227 1.376 . S
C224 C222 1.394 . S
C224 C225 1.369 . S
C224 C228 1.531 . S
C225 C224 1.369 . S
C225 C226 1.410 . S
C225 C233 1.503 1_545 S
C226 C225 1.410 . S
C226 C227 1.392 . S
C226 C229 1.511 1_545 S
C227 C223 1.376 . S
C227 C226 1.392 . S
C227 H239 0.929 . S
C228 C224 1.531 . S
C228 H240 0.960 . S
C228 H241 0.962 . S
C228 H242 0.960 . S
C229 C226 1.511 1_565 S
C229 H243 0.961 . S
C229 H244 0.961 . S
C229 H245 0.961 1_565 S
C230 C231 1.370 . S
C230 C232 1.363 . S
C230 H246 0.931 . S
C231 C230 1.370 . S
C231 C235 1.408 1_565 S
C232 C230 1.363 . S
C232 C233 1.370 . S
C232 C236 1.524 . S
C233 C225 1.503 1_565 S
C233 C232 1.370 . S
C233 C234 1.403 1_565 S
C234 C233 1.403 1_545 S
C234 C235 1.404 . S
C234 C237 1.539 . S
C235 C231 1.408 1_545 S
C235 C234 1.404 . S
C235 H247 0.930 . S
C236 C232 1.524 . S
C236 H248 0.956 . S
C236 H249 0.961 . S
C236 H250 0.961 . S
C237 C234 1.539 . S
C237 H251 0.958 . S
C237 H252 0.961 . S
C237 H253 0.960 . S
H238 C222 0.931 . S
H239 C227 0.929 . S
H240 C228 0.960 . S
H241 C228 0.962 . S
H242 C228 0.960 . S
H243 C229 0.961 . S
H244 C229 0.961 . S
H245 C229 0.961 1_545 S
H246 C230 0.931 . S
H247 C235 0.930 . S
H248 C236 0.956 . S
H249 C236 0.961 . S
H250 C236 0.961 . S
H251 C237 0.958 . S
H252 C237 0.961 . S
H253 C237 0.960 . S
C254 C255 1.391 . S
C254 C256 1.394 . S
C254 H270 0.931 . S
C255 C254 1.391 . S
C255 C259 1.376 . S
C256 C254 1.394 . S
C256 C257 1.369 . S
C256 C260 1.531 . S
C257 C256 1.369 . S
C257 C258 1.410 . S
C257 C265 1.503 1_556 S
C258 C257 1.410 . S
C258 C259 1.392 . S
C258 C261 1.511 . S
C259 C255 1.376 . S
C259 C258 1.392 . S
C259 H271 0.929 . S
C260 C256 1.531 . S
C260 H272 0.960 1_556 S
C260 H273 0.962 . S
C260 H274 0.960 . S
C261 C258 1.511 . S
C261 H275 0.961 . S
C261 H276 0.961 1_556 S
C261 H277 0.961 1_556 S
C262 C263 1.370 . S
C262 C264 1.363 . S
C262 H278 0.931 . S
C263 C262 1.370 . S
C263 C267 1.408 . S
C264 C262 1.363 . S
C264 C265 1.370 . S
C264 C268 1.524 1_554 S
C265 C257 1.503 1_554 S
C265 C264 1.370 . S
C265 C266 1.403 . S
C266 C265 1.403 . S
C266 C267 1.404 . S
C266 C269 1.539 . S
C267 C263 1.408 . S
C267 C266 1.404 . S
C267 H279 0.930 . S
C268 C264 1.524 1_556 S
C268 H280 0.956 . S
C268 H281 0.961 . S
C268 H282 0.961 1_556 S
C269 C266 1.539 . S
C269 H283 0.958 . S
C269 H284 0.961 . S
C269 H285 0.960 . S
H270 C254 0.931 . S
H271 C259 0.929 . S
H272 C260 0.960 1_554 S
H273 C260 0.962 . S
H274 C260 0.960 . S
H275 C261 0.961 . S
H276 C261 0.961 1_554 S
H277 C261 0.961 1_554 S
H278 C262 0.931 . S
H279 C267 0.930 . S
H280 C268 0.956 . S
H281 C268 0.961 . S
H282 C268 0.961 1_554 S
H283 C269 0.958 . S
H284 C269 0.961 . S
H285 C269 0.960 . S
C286 C287 1.391 1_455 S
C286 C288 1.394 . S
C286 H302 0.931 . S
C287 C286 1.391 1_655 S
C287 C291 1.376 . S
C288 C286 1.394 . S
C288 C289 1.369 1_455 S
C288 C292 1.531 . S
C289 C288 1.369 1_655 S
C289 C290 1.410 . S
C289 C297 1.503 1_655 S
C290 C289 1.410 . S
C290 C291 1.392 . S
C290 C293 1.511 . S
C291 C287 1.376 . S
C291 C290 1.392 . S
C291 H303 0.929 . S
C292 C288 1.531 . S
C292 H304 0.960 . S
C292 H305 0.962 . S
C292 H306 0.960 . S
C293 C290 1.511 . S
C293 H307 0.961 . S
C293 H308 0.961 . S
C293 H309 0.961 . S
C294 C295 1.370 . S
C294 C296 1.363 . S
C294 H310 0.931 . S
C295 C294 1.370 . S
C295 C299 1.408 . S
C296 C294 1.363 . S
C296 C297 1.370 . S
C296 C300 1.524 . S
C297 C289 1.503 1_455 S
C297 C296 1.370 . S
C297 C298 1.403 . S
C298 C297 1.403 . S
C298 C299 1.404 . S
C298 C301 1.539 . S
C299 C295 1.408 . S
C299 C298 1.404 . S
C299 H311 0.930 . S
C300 C296 1.524 . S
C300 H312 0.956 . S
C300 H313 0.961 1_455 S
C300 H314 0.961 . S
C301 C298 1.539 . S
C301 H315 0.958 . S
C301 H316 0.961 1_455 S
C301 H317 0.960 1_455 S
H302 C286 0.931 . S
H303 C291 0.929 . S
H304 C292 0.960 . S
H305 C292 0.962 . S
H306 C292 0.960 . S
H307 C293 0.961 . S
H308 C293 0.961 . S
H309 C293 0.961 . S
H310 C294 0.931 . S
H311 C299 0.930 . S
H312 C300 0.956 . S
H313 C300 0.961 1_655 S
H314 C300 0.961 . S
H315 C301 0.958 . S
H316 C301 0.961 1_655 S
H317 C301 0.960 1_655 S
C318 C319 1.391 . S
C318 C320 1.394 . S
C318 H334 0.931 . S
C319 C318 1.391 . S
C319 C323 1.376 . S
C320 C318 1.394 . S
C320 C321 1.369 . S
C320 C324 1.531 . S
C321 C320 1.369 . S
C321 C322 1.410 . S
C321 C329 1.503 . S
C322 C321 1.410 . S
C322 C323 1.392 . S
C322 C325 1.511 . S
C323 C319 1.376 . S
C323 C322 1.392 . S
C323 H335 0.929 . S
C324 C320 1.531 . S
C324 H336 0.960 . S
C324 H337 0.962 . S
C324 H338 0.960 . S
C325 C322 1.511 . S
C325 H339 0.961 1_545 S
C325 H340 0.961 . S
C325 H341 0.961 . S
C326 C327 1.370 . S
C326 C328 1.363 . S
C326 H342 0.931 . S
C327 C326 1.370 . S
C327 C331 1.408 . S
C328 C326 1.363 . S
C328 C329 1.370 . S
C328 C332 1.524 . S
C329 C321 1.503 . S
C329 C328 1.370 . S
C329 C330 1.403 . S
C330 C329 1.403 . S
C330 C331 1.404 . S
C330 C333 1.539 . S
C331 C327 1.408 . S
C331 C330 1.404 . S
C331 H343 0.930 . S
C332 C328 1.524 . S
C332 H344 0.956 . S
C332 H345 0.961 . S
C332 H346 0.961 . S
C333 C330 1.539 . S
C333 H347 0.958 . S
C333 H348 0.961 . S
C333 H349 0.960 . S
H334 C318 0.931 . S
H335 C323 0.929 . S
H336 C324 0.960 . S
H337 C324 0.962 . S
H338 C324 0.960 . S
H339 C325 0.961 1_565 S
H340 C325 0.961 . S
H341 C325 0.961 . S
H342 C326 0.931 . S
H343 C331 0.930 . S
H344 C332 0.956 . S
H345 C332 0.961 . S
H346 C332 0.961 . S
H347 C333 0.958 . S
H348 C333 0.961 . S
H349 C333 0.960 . S
C350 C351 1.391 . S
C350 C352 1.394 . S
C350 H366 0.931 . S
C351 C350 1.391 . S
C351 C355 1.376 . S
C352 C350 1.394 . S
C352 C353 1.369 . S
C352 C356 1.531 . S
C353 C352 1.369 . S
C353 C354 1.410 . S
C353 C361 1.503 . S
C354 C353 1.410 . S
C354 C355 1.392 . S
C354 C357 1.511 . S
C355 C351 1.376 . S
C355 C354 1.392 . S
C355 H367 0.929 . S
C356 C352 1.531 . S
C356 H368 0.960 . S
C356 H369 0.962 . S
C356 H370 0.960 . S
C357 C354 1.511 . S
C357 H371 0.961 . S
C357 H372 0.961 . S
C357 H373 0.961 . S
C358 C359 1.370 . S
C358 C360 1.363 . S
C358 H374 0.931 . S
C359 C358 1.370 . S
C359 C363 1.408 . S
C360 C358 1.363 . S
C360 C361 1.370 . S
C360 C364 1.524 . S
C361 C353 1.503 . S
C361 C360 1.370 . S
C361 C362 1.403 . S
C362 C361 1.403 . S
C362 C363 1.404 . S
C362 C365 1.539 . S
C363 C359 1.408 . S
C363 C362 1.404 . S
C363 H375 0.930 . S
C364 C360 1.524 . S
C364 H376 0.956 . S
C364 H377 0.961 . S
C364 H378 0.961 . S
C365 C362 1.539 . S
C365 H379 0.958 . S
C365 H380 0.961 . S
C365 H381 0.960 . S
H366 C350 0.931 . S
H367 C355 0.929 . S
H368 C356 0.960 . S
H369 C356 0.962 . S
H370 C356 0.960 . S
H371 C357 0.961 . S
H372 C357 0.961 . S
H373 C357 0.961 . S
H374 C358 0.931 . S
H375 C363 0.930 . S
H376 C364 0.956 . S
H377 C364 0.961 . S
H378 C364 0.961 . S
H379 C365 0.958 . S
H380 C365 0.961 . S
H381 C365 0.960 . S
C382 C383 1.391 . S
C382 C384 1.394 . S
C382 H398 0.931 . S
C383 C382 1.391 . S
C383 C387 1.376 . S
C384 C382 1.394 . S
C384 C385 1.369 . S
C384 C388 1.531 . S
C385 C384 1.369 . S
C385 C386 1.410 . S
C385 C393 1.503 . S
C386 C385 1.410 . S
C386 C387 1.392 . S
C386 C389 1.511 . S
C387 C383 1.376 . S
C387 C386 1.392 . S
C387 H399 0.943 . S
C388 C384 1.531 . S
C388 H400 0.960 . S
C388 H401 0.962 . S
C388 H402 0.960 . S
C389 C386 1.511 . S
C389 H403 0.961 1_655 S
C389 H404 0.961 . S
C389 H405 0.961 1_655 S
C390 C391 1.370 . S
C390 C392 1.363 . S
C390 H406 0.931 . S
C391 C390 1.370 . S
C391 C395 1.408 . S
C392 C390 1.363 . S
C392 C393 1.370 . S
C392 C396 1.524 . S
C393 C385 1.503 . S
C393 C392 1.370 . S
C393 C394 1.403 . S
C394 C393 1.403 . S
C394 C395 1.404 . S
C394 C397 1.539 . S
C395 C391 1.408 . S
C395 C394 1.404 . S
C395 H407 0.930 . S
C396 C392 1.524 . S
C396 H408 0.956 . S
C396 H409 0.961 . S
C396 H410 0.961 . S
C397 C394 1.539 . S
C397 H411 0.958 . S
C397 H412 0.961 . S
C397 H413 0.960 . S
H398 C382 0.931 . S
H399 C387 0.943 . S
H400 C388 0.960 . S
H401 C388 0.962 . S
H402 C388 0.960 . S
H403 C389 0.961 1_455 S
H404 C389 0.961 . S
H405 C389 0.961 1_455 S
H406 C390 0.931 . S
H407 C395 0.930 . S
H408 C396 0.956 . S
H409 C396 0.961 . S
H410 C396 0.961 . S
H411 C397 0.958 . S
H412 C397 0.961 . S
H413 C397 0.960 . S
C414 C415 1.391 . S
C414 C416 1.394 . S
C414 H430 0.931 1_455 S
C415 C414 1.391 . S
C415 C419 1.376 . S
C416 C414 1.394 . S
C416 C417 1.369 . S
C416 C420 1.531 . S
C417 C416 1.369 . S
C417 C418 1.410 . S
C417 C425 1.503 . S
C418 C417 1.410 . S
C418 C419 1.392 . S
C418 C421 1.511 . S
C419 C415 1.376 . S
C419 C418 1.392 . S
C419 H431 0.929 . S
C420 C416 1.531 . S
C420 H432 0.960 . S
C420 H433 0.962 . S
C420 H434 0.960 1_455 S
C421 C418 1.511 . S
C421 H435 0.961 . S
C421 H436 0.961 . S
C421 H437 0.961 . S
C422 C423 1.370 . S
C422 C424 1.363 . S
C422 H438 0.931 . S
C423 C422 1.370 . S
C423 C427 1.408 . S
C424 C422 1.363 . S
C424 C425 1.370 . S
C424 C428 1.524 . S
C425 C417 1.503 . S
C425 C424 1.370 . S
C425 C426 1.403 . S
C426 C425 1.403 . S
C426 C427 1.404 . S
C426 C429 1.539 . S
C427 C423 1.408 . S
C427 C426 1.404 . S
C427 H439 0.930 . S
C428 C424 1.524 . S
C428 H440 0.956 . S
C428 H441 0.961 . S
C428 H442 0.961 . S
C429 C426 1.539 . S
C429 H443 0.958 . S
C429 H444 0.961 . S
C429 H445 0.960 . S
H430 C414 0.931 1_655 S
H431 C419 0.929 . S
H432 C420 0.960 . S
H433 C420 0.962 . S
H434 C420 0.960 1_655 S
H435 C421 0.961 . S
H436 C421 0.961 . S
H437 C421 0.961 . S
H438 C422 0.931 . S
H439 C427 0.930 . S
H440 C428 0.956 . S
H441 C428 0.961 . S
H442 C428 0.961 . S
H443 C429 0.958 . S
H444 C429 0.961 . S
H445 C429 0.960 . S
C446 C447 1.391 . S
C446 C448 1.394 . S
C446 H462 0.931 . S
C447 C446 1.391 . S
C447 C451 1.376 . S
C448 C446 1.394 . S
C448 C449 1.369 . S
C448 C452 1.531 . S
C449 C448 1.369 . S
C449 C450 1.410 . S
C449 C457 1.503 . S
C450 C449 1.410 . S
C450 C451 1.392 . S
C450 C453 1.511 . S
C451 C447 1.376 . S
C451 C450 1.392 . S
C451 H463 0.929 . S
C452 C448 1.531 . S
C452 H464 0.960 . S
C452 H465 0.962 . S
C452 H466 0.960 . S
C453 C450 1.511 . S
C453 H467 0.961 . S
C453 H468 0.961 . S
C453 H469 0.961 . S
C454 C455 1.370 . S
C454 C456 1.363 . S
C454 H470 0.931 . S
C455 C454 1.370 . S
C455 C459 1.408 . S
C456 C454 1.363 . S
C456 C457 1.370 . S
C456 C460 1.524 . S
C457 C449 1.503 . S
C457 C456 1.370 . S
C457 C458 1.403 . S
C458 C457 1.403 . S
C458 C459 1.404 . S
C458 C461 1.539 . S
C459 C455 1.408 . S
C459 C458 1.404 . S
C459 H471 0.930 . S
C460 C456 1.524 . S
C460 H472 0.956 . S
C460 H473 0.961 . S
C460 H474 0.961 . S
C461 C458 1.539 . S
C461 H475 0.958 . S
C461 H476 0.961 . S
C461 H477 0.960 . S
H462 C446 0.931 . S
H463 C451 0.929 . S
H464 C452 0.960 . S
H465 C452 0.962 . S
H466 C452 0.960 . S
H467 C453 0.961 . S
H468 C453 0.961 . S
H469 C453 0.961 . S
H470 C454 0.931 . S
H471 C459 0.930 . S
H472 C460 0.956 . S
H473 C460 0.961 . S
H474 C460 0.961 . S
H475 C461 0.958 . S
H476 C461 0.961 . S
H477 C461 0.960 . S
C478 C479 1.391 . S
C478 C480 1.394 . S
C478 H494 0.931 . S
C479 C478 1.391 . S
C479 C483 1.376 . S
C480 C478 1.394 . S
C480 C481 1.369 . S
C480 C484 1.531 . S
C481 C480 1.369 . S
C481 C482 1.410 . S
C481 C489 1.503 . S
C482 C481 1.410 . S
C482 C483 1.392 . S
C482 C485 1.511 . S
C483 C479 1.376 . S
C483 C482 1.392 . S
C483 H495 0.929 . S
C484 C480 1.531 . S
C484 H496 0.960 . S
C484 H497 0.962 . S
C484 H498 0.960 . S
C485 C482 1.511 . S
C485 H499 0.961 . S
C485 H500 0.961 . S
C485 H501 0.961 . S
C486 C487 1.370 . S
C486 C488 1.363 . S
C486 H502 0.931 . S
C487 C486 1.370 . S
C487 C491 1.408 . S
C488 C486 1.363 . S
C488 C489 1.370 . S
C488 C492 1.524 . S
C489 C481 1.503 . S
C489 C488 1.370 . S
C489 C490 1.403 . S
C490 C489 1.403 . S
C490 C491 1.404 . S
C490 C493 1.539 . S
C491 C487 1.408 . S
C491 C490 1.404 . S
C491 H503 0.930 . S
C492 C488 1.524 . S
C492 H504 0.956 . S
C492 H505 0.961 . S
C492 H506 0.961 . S
C493 C490 1.539 . S
C493 H507 0.958 . S
C493 H508 0.961 . S
C493 H509 0.960 . S
H494 C478 0.931 . S
H495 C483 0.929 . S
H496 C484 0.960 . S
H497 C484 0.962 . S
H498 C484 0.960 . S
H499 C485 0.961 . S
H500 C485 0.961 . S
H501 C485 0.961 . S
H502 C486 0.931 . S
H503 C491 0.930 . S
H504 C492 0.956 . S
H505 C492 0.961 . S
H506 C492 0.961 . S
H507 C493 0.958 . S
H508 C493 0.961 . S
H509 C493 0.960 . S
C510 C511 1.391 . S
C510 C512 1.394 . S
C510 H526 0.931 . S
C511 C510 1.391 . S
C511 C515 1.376 . S
C512 C510 1.394 . S
C512 C513 1.369 . S
C512 C516 1.531 . S
C513 C512 1.369 . S
C513 C514 1.410 . S
C513 C521 1.503 . S
C514 C513 1.410 . S
C514 C515 1.392 . S
C514 C517 1.511 . S
C515 C511 1.376 . S
C515 C514 1.392 . S
C515 H527 0.929 . S
C516 C512 1.531 . S
C516 H528 0.960 . S
C516 H529 0.962 . S
C516 H530 0.960 . S
C517 C514 1.511 . S
C517 H531 0.961 . S
C517 H532 0.961 . S
C517 H533 0.961 . S
C518 C519 1.370 . S
C518 C520 1.363 . S
C518 H534 0.931 . S
C519 C518 1.370 . S
C519 C523 1.408 . S
C520 C518 1.363 . S
C520 C521 1.370 . S
C520 C524 1.524 . S
C521 C513 1.503 . S
C521 C520 1.370 . S
C521 C522 1.403 . S
C522 C521 1.403 . S
C522 C523 1.404 . S
C522 C525 1.539 . S
C523 C519 1.408 . S
C523 C522 1.404 . S
C523 H535 0.930 . S
C524 C520 1.524 . S
C524 H536 0.956 . S
C524 H537 0.961 . S
C524 H538 0.961 . S
C525 C522 1.539 . S
C525 H539 0.958 . S
C525 H540 0.961 . S
C525 H541 0.960 . S
H526 C510 0.931 . S
H527 C515 0.929 . S
H528 C516 0.960 . S
H529 C516 0.962 . S
H530 C516 0.960 . S
H531 C517 0.961 . S
H532 C517 0.961 . S
H533 C517 0.961 . S
H534 C518 0.931 . S
H535 C523 0.930 . S
H536 C524 0.956 . S
H537 C524 0.961 . S
H538 C524 0.961 . S
H539 C525 0.958 . S
H540 C525 0.961 . S
H541 C525 0.960 . S
C542 C543 1.391 . S
C542 C544 1.394 . S
C542 H558 0.931 . S
C543 C542 1.391 . S
C543 C547 1.376 . S
C544 C542 1.394 . S
C544 C545 1.369 1_655 S
C544 C548 1.531 1_655 S
C545 C544 1.369 1_455 S
C545 C546 1.410 . S
C545 C553 1.503 . S
C546 C545 1.410 . S
C546 C547 1.392 1_455 S
C546 C549 1.511 . S
C547 C543 1.376 . S
C547 C546 1.392 1_655 S
C547 H559 0.929 . S
C548 C544 1.531 1_455 S
C548 H560 0.960 . S
C548 H561 0.962 . S
C548 H562 0.960 1_455 S
C549 C546 1.511 . S
C549 H563 0.961 . S
C549 H564 0.961 . S
C549 H565 0.961 . S
C550 C551 1.370 . S
C550 C552 1.363 . S
C550 H566 0.931 . S
C551 C550 1.370 . S
C551 C555 1.408 . S
C552 C550 1.363 . S
C552 C553 1.370 . S
C552 C556 1.524 . S
C553 C545 1.503 . S
C553 C552 1.370 . S
C553 C554 1.403 . S
C554 C553 1.403 . S
C554 C555 1.404 . S
C554 C557 1.539 . S
C555 C551 1.408 . S
C555 C554 1.404 . S
C555 H567 0.930 . S
C556 C552 1.524 . S
C556 H568 0.956 . S
C556 H569 0.961 . S
C556 H570 0.961 . S
C557 C554 1.539 . S
C557 H571 0.958 . S
C557 H572 0.961 . S
C557 H573 0.960 . S
H558 C542 0.931 . S
H559 C547 0.929 . S
H560 C548 0.960 . S
H561 C548 0.962 . S
H562 C548 0.960 1_655 S
H563 C549 0.961 . S
H564 C549 0.961 . S
H565 C549 0.961 . S
H566 C550 0.931 . S
H567 C555 0.930 . S
H568 C556 0.956 . S
H569 C556 0.961 . S
H570 C556 0.961 . S
H571 C557 0.958 . S
H572 C557 0.961 . S
H573 C557 0.960 . S
C574 C575 1.391 . S
C574 C576 1.394 1_545 S
C574 H590 0.931 . S
C575 C574 1.391 . S
C575 C579 1.376 . S
C576 C574 1.394 1_565 S
C576 C577 1.369 . S
C576 C580 1.531 . S
C577 C576 1.369 . S
C577 C578 1.410 1_565 S
C577 C585 1.503 . S
C578 C577 1.410 1_545 S
C578 C579 1.392 . S
C578 C581 1.511 1_545 S
C579 C575 1.376 . S
C579 C578 1.392 . S
C579 H591 0.929 . S
C580 C576 1.531 . S
C580 H592 0.960 . S
C580 H593 0.962 . S
C580 H594 0.960 . S
C581 C578 1.511 1_565 S
C581 H595 0.961 1_565 S
C581 H596 0.961 . S
C581 H597 0.961 . S
C582 C583 1.370 . S
C582 C584 1.363 . S
C582 H598 0.931 . S
C583 C582 1.370 . S
C583 C587 1.408 . S
C584 C582 1.363 . S
C584 C585 1.370 . S
C584 C588 1.524 . S
C585 C577 1.503 . S
C585 C584 1.370 . S
C585 C586 1.403 . S
C586 C585 1.403 . S
C586 C587 1.404 . S
C586 C589 1.539 . S
C587 C583 1.408 . S
C587 C586 1.404 . S
C587 H599 0.930 . S
C588 C584 1.524 . S
C588 H600 0.956 . S
C588 H601 0.961 . S
C588 H602 0.961 . S
C589 C586 1.539 . S
C589 H603 0.958 . S
C589 H604 0.961 . S
C589 H605 0.960 . S
H590 C574 0.931 . S
H591 C579 0.929 . S
H592 C580 0.960 . S
H593 C580 0.962 . S
H594 C580 0.960 . S
H595 C581 0.961 1_545 S
H596 C581 0.961 . S
H597 C581 0.961 . S
H598 C582 0.931 . S
H599 C587 0.930 . S
H600 C588 0.956 . S
H601 C588 0.961 . S
H602 C588 0.961 . S
H603 C589 0.958 . S
H604 C589 0.961 . S
H605 C589 0.960 . S
C606 C607 1.391 . S
C606 C608 1.394 . S
C606 H622 0.931 . S
C607 C606 1.391 . S
C607 C611 1.376 . S
C608 C606 1.394 . S
C608 C609 1.369 . S
C608 C612 1.531 . S
C609 C608 1.369 . S
C609 C610 1.410 . S
C609 C617 1.503 . S
C610 C609 1.410 . S
C610 C611 1.392 . S
C610 C613 1.511 . S
C611 C607 1.376 . S
C611 C610 1.392 . S
C611 H623 0.929 . S
C612 C608 1.531 . S
C612 H624 0.960 . S
C612 H625 0.962 . S
C612 H626 0.960 . S
C613 C610 1.511 . S
C613 H627 0.961 . S
C613 H628 0.961 . S
C613 H629 0.961 . S
C614 C615 1.370 . S
C614 C616 1.363 . S
C614 H630 0.931 . S
C615 C614 1.370 . S
C615 C619 1.408 . S
C616 C614 1.363 . S
C616 C617 1.370 . S
C616 C620 1.524 . S
C617 C609 1.503 . S
C617 C616 1.370 . S
C617 C618 1.403 . S
C618 C617 1.403 . S
C618 C619 1.404 . S
C618 C621 1.539 . S
C619 C615 1.408 . S
C619 C618 1.404 . S
C619 H631 0.930 . S
C620 C616 1.524 . S
C620 H632 0.956 . S
C620 H633 0.961 . S
C620 H634 0.961 . S
C621 C618 1.539 . S
C621 H635 0.958 . S
C621 H636 0.961 . S
C621 H637 0.960 . S
H622 C606 0.931 . S
H623 C611 0.929 . S
H624 C612 0.960 . S
H625 C612 0.962 . S
H626 C612 0.960 . S
H627 C613 0.961 . S
H628 C613 0.961 . S
H629 C613 0.961 . S
H630 C614 0.931 . S
H631 C619 0.930 . S
H632 C620 0.956 . S
H633 C620 0.961 . S
H634 C620 0.961 . S
H635 C621 0.958 . S
H636 C621 0.961 . S
H637 C621 0.960 . S
C638 C639 1.391 . S
C638 C640 1.394 . S
C638 H654 0.931 . S
C639 C638 1.391 . S
C639 C643 1.376 . S
C640 C638 1.394 . S
C640 C641 1.369 1_455 S
C640 C644 1.531 1_455 S
C641 C640 1.369 1_655 S
C641 C642 1.410 . S
C641 C649 1.503 . S
C642 C641 1.410 . S
C642 C643 1.392 1_655 S
C642 C645 1.511 . S
C643 C639 1.376 . S
C643 C642 1.392 1_455 S
C643 H655 0.929 . S
C644 C640 1.531 1_655 S
C644 H656 0.960 . S
C644 H657 0.962 . S
C644 H658 0.960 1_655 S
C645 C642 1.511 . S
C645 H659 0.961 . S
C645 H660 0.961 . S
C645 H661 0.961 . S
C646 C647 1.370 . S
C646 C648 1.363 . S
C646 H662 0.931 . S
C647 C646 1.370 . S
C647 C651 1.408 . S
C648 C646 1.363 . S
C648 C649 1.370 . S
C648 C652 1.524 . S
C649 C641 1.503 . S
C649 C648 1.370 . S
C649 C650 1.403 . S
C650 C649 1.403 . S
C650 C651 1.404 . S
C650 C653 1.539 . S
C651 C647 1.408 . S
C651 C650 1.404 . S
C651 H663 0.930 . S
C652 C648 1.524 . S
C652 H664 0.956 . S
C652 H665 0.961 . S
C652 H666 0.961 . S
C653 C650 1.539 . S
C653 H667 0.958 . S
C653 H668 0.961 . S
C653 H669 0.960 . S
H654 C638 0.931 . S
H655 C643 0.929 . S
H656 C644 0.960 . S
H657 C644 0.962 . S
H658 C644 0.960 1_455 S
H659 C645 0.961 . S
H660 C645 0.961 . S
H661 C645 0.961 . S
H662 C646 0.931 . S
H663 C651 0.930 . S
H664 C652 0.956 . S
H665 C652 0.961 . S
H666 C652 0.961 . S
H667 C653 0.958 . S
H668 C653 0.961 . S
H669 C653 0.960 . S
C670 C671 1.391 . S
C670 C672 1.394 . S
C670 H686 0.931 . S
C671 C670 1.391 . S
C671 C675 1.376 . S
C672 C670 1.394 . S
C672 C673 1.369 . S
C672 C676 1.531 . S
C673 C672 1.369 . S
C673 C674 1.410 . S
C673 C681 1.503 . S
C674 C673 1.410 . S
C674 C675 1.392 . S
C674 C677 1.511 . S
C675 C671 1.376 . S
C675 C674 1.392 . S
C675 H687 0.929 . S
C676 C672 1.531 . S
C676 H688 0.960 . S
C676 H689 0.962 . S
C676 H690 0.960 . S
C677 C674 1.511 . S
C677 H691 0.961 . S
C677 H692 0.961 . S
C677 H693 0.961 . S
C678 C679 1.370 . S
C678 C680 1.363 . S
C678 H694 0.931 . S
C679 C678 1.370 . S
C679 C683 1.408 . S
C680 C678 1.363 . S
C680 C681 1.370 1_565 S
C680 C684 1.524 1_565 S
C681 C673 1.503 . S
C681 C680 1.370 1_545 S
C681 C682 1.403 . S
C682 C681 1.403 . S
C682 C683 1.404 1_545 S
C682 C685 1.539 . S
C683 C679 1.408 . S
C683 C682 1.404 1_565 S
C683 H695 0.930 . S
C684 C680 1.524 1_545 S
C684 H696 0.956 . S
C684 H697 0.961 . S
C684 H698 0.961 1_545 S
C685 C682 1.539 . S
C685 H699 0.958 . S
C685 H700 0.961 . S
C685 H701 0.960 . S
H686 C670 0.931 . S
H687 C675 0.929 . S
H688 C676 0.960 . S
H689 C676 0.962 . S
H690 C676 0.960 . S
H691 C677 0.961 . S
H692 C677 0.961 . S
H693 C677 0.961 . S
H694 C678 0.931 . S
H695 C683 0.930 . S
H696 C684 0.956 . S
H697 C684 0.961 . S
H698 C684 0.961 1_565 S
H699 C685 0.958 . S
H700 C685 0.961 . S
H701 C685 0.960 . S
C127 C88 1.446 . S
C135 C7 1.421 . S
C159 C112 1.527 . S
C167 C25 1.498 . S
C191 C49 1.421 . S
C199 C70 1.410 . S
C223 C4 1.478 . S
C231 C91 1.508 . S
C255 C109 1.426 . S
C263 C28 1.412 . S
C287 C46 1.458 . S
C295 C67 1.481 . S
C319 C3 0.863 . S
C327 C62 1.109 . S
C351 C24 1.008 . S
C359 C20 1.123 . S
C383 C45 0.908 . S
C391 C41 1.126 . S
C415 C66 1.038 . S
C423 C103 1.135 . S
C447 C100 0.953 . S
C455 C124 1.136 . S
C479 C83 1.149 . S
C487 C121 0.951 . S
C511 C19 1.007 . S
C519 C58 0.901 . S
C543 C40 0.977 . S
C551 C16 0.894 . S
C575 C61 0.935 . S
C583 C37 0.824 . S
C607 C82 1.010 . S
C615 C87 0.901 . S
C639 C104 1.018 . S
C647 C108 0.884 . S
C671 C79 0.870 . S
C679 C125 0.976 . S
