# Generated by pormake.
# Topology umg, (4)-cn, num edge types: 1
# Building blocks:
#     Node 0, Type 0, BuildingBlock: NAWXER_clean_sbu_0, # of connection points: 4
#     Node 1, Type 0, BuildingBlock: NAWXER_clean_sbu_0, # of connection points: 4
#     Node 2, Type 0, BuildingBlock: NAWXER_clean_sbu_0, # of connection points: 4
#     Node 3, Type 0, BuildingBlock: NAWXER_clean_sbu_0, # of connection points: 4
#     Node 4, Type 0, BuildingBlock: NAWXER_clean_sbu_0, # of connection points: 4
#     Node 5, Type 0, BuildingBlock: NAWXER_clean_sbu_0, # of connection points: 4
#     Node 6, Type 0, BuildingBlock: NAWXER_clean_sbu_0, # of connection points: 4
#     Node 7, Type 0, BuildingBlock: NAWXER_clean_sbu_0, # of connection points: 4
#     Node 8, Type 0, BuildingBlock: NAWXER_clean_sbu_0, # of connection points: 4
#     Node 9, Type 0, BuildingBlock: NAWXER_clean_sbu_0, # of connection points: 4
#     Node 10, Type 0, BuildingBlock: NAWXER_clean_sbu_0, # of connection points: 4
#     Node 11, Type 0, BuildingBlock: NAWXER_clean_sbu_0, # of connection points: 4
#     Edge 12, Type (0, 0), BuildingBlock: UVAHIK_clean_linker_0, # of connection points: 2
#     Edge 13, Type (0, 0), BuildingBlock: UVAHIK_clean_linker_0, # of connection points: 2
#     Edge 14, Type (0, 0), BuildingBlock: UVAHIK_clean_linker_0, # of connection points: 2
#     Edge 15, Type (0, 0), BuildingBlock: UVAHIK_clean_linker_0, # of connection points: 2
#     Edge 16, Type (0, 0), BuildingBlock: UVAHIK_clean_linker_0, # of connection points: 2
#     Edge 17, Type (0, 0), BuildingBlock: UVAHIK_clean_linker_0, # of connection points: 2
#     Edge 18, Type (0, 0), BuildingBlock: UVAHIK_clean_linker_0, # of connection points: 2
#     Edge 19, Type (0, 0), BuildingBlock: UVAHIK_clean_linker_0, # of connection points: 2
#     Edge 20, Type (0, 0), BuildingBlock: UVAHIK_clean_linker_0, # of connection points: 2
#     Edge 21, Type (0, 0), BuildingBlock: UVAHIK_clean_linker_0, # of connection points: 2
#     Edge 22, Type (0, 0), BuildingBlock: UVAHIK_clean_linker_0, # of connection points: 2
#     Edge 23, Type (0, 0), BuildingBlock: UVAHIK_clean_linker_0, # of connection points: 2
#     Edge 24, Type (0, 0), BuildingBlock: UVAHIK_clean_linker_0, # of connection points: 2
#     Edge 25, Type (0, 0), BuildingBlock: UVAHIK_clean_linker_0, # of connection points: 2
#     Edge 26, Type (0, 0), BuildingBlock: UVAHIK_clean_linker_0, # of connection points: 2
#     Edge 27, Type (0, 0), BuildingBlock: UVAHIK_clean_linker_0, # of connection points: 2
#     Edge 28, Type (0, 0), BuildingBlock: UVAHIK_clean_linker_0, # of connection points: 2
#     Edge 29, Type (0, 0), BuildingBlock: UVAHIK_clean_linker_0, # of connection points: 2
#     Edge 30, Type (0, 0), BuildingBlock: UVAHIK_clean_linker_0, # of connection points: 2
#     Edge 31, Type (0, 0), BuildingBlock: UVAHIK_clean_linker_0, # of connection points: 2
#     Edge 32, Type (0, 0), BuildingBlock: UVAHIK_clean_linker_0, # of connection points: 2
#     Edge 33, Type (0, 0), BuildingBlock: UVAHIK_clean_linker_0, # of connection points: 2
#     Edge 34, Type (0, 0), BuildingBlock: UVAHIK_clean_linker_0, # of connection points: 2
#     Edge 35, Type (0, 0), BuildingBlock: UVAHIK_clean_linker_0, # of connection points: 2
# Relax obj value: 0.016
# Max RMSD: 0.161
# Mean RMSD: 0.161
data_MOF--net-umg--node1-NAWXER_clean_sbu_0--edge1-UVAHIK_clean_linker_0
_symmetry_space_group_name_H-M    P1
_symmetry_Int_Tables_number       1
_symmetry_cell_setting            triclinic
loop_
_symmetry_equiv_pos_as_xyz
'x, y, z'
_cell_length_a     38.090835
_cell_length_b     38.157884
_cell_length_c     111.6839
_cell_angle_alpha  89.916857
_cell_angle_beta   89.888692
_cell_angle_gamma 119.95624
loop_
_atom_site_label
_atom_site_type_symbol
_atom_site_fract_x
_atom_site_fract_y
_atom_site_fract_z
_atom_type_partial_charge
C0 C 0.20707 0.53294 0.09321 0.0
C1 C 0.33429 0.53304 0.09187 0.0
O2 O 0.21334 0.50329 0.09373 0.0
Zn3 Zn 0.27106 0.53364 0.0923 0.0
O4 O 0.23724 0.56895 0.09203 0.0
Zn5 Zn 0.30234 0.59689 0.09055 0.0
O6 O 0.31356 0.62204 0.07488 0.0
O7 O 0.28024 0.55547 0.0741 0.0
O8 O 0.33998 0.5691 0.09104 0.0
O9 O 0.29846 0.5033 0.09265 0.0
O10 O 0.28964 0.56667 0.10899 0.0
O11 O 0.32045 0.63159 0.10442 0.0
C12 C 0.29687 0.58981 0.06872 0.0
C13 C 0.3081 0.60383 0.11229 0.0
C14 C 0.72522 0.26153 0.45832 0.0
C15 C 0.75058 0.27703 0.41482 0.0
O16 O 0.71574 0.28568 0.45323 0.0
Zn17 Zn 0.71528 0.30842 0.43596 0.0
O18 O 0.74058 0.24437 0.45219 0.0
Zn19 Zn 0.74108 0.26871 0.43664 0.0
O20 O 0.78381 0.33149 0.43867 0.0
O21 O 0.75236 0.36675 0.43768 0.0
O22 O 0.75959 0.25597 0.42169 0.0
O23 O 0.73479 0.2969 0.41929 0.0
O24 O 0.65623 0.28344 0.43316 0.0
O25 O 0.67836 0.2399 0.43307 0.0
C26 C 0.78514 0.36573 0.43881 0.0
C27 C 0.64932 0.24731 0.43191 0.0
C28 C 0.49371 0.73586 0.77829 0.0
C29 C 0.52752 0.75663 0.73581 0.0
O30 O 0.47086 0.72527 0.76919 0.0
Zn31 Zn 0.51206 0.74812 0.75711 0.0
O32 O 0.53234 0.7561 0.77678 0.0
Zn33 Zn 0.57331 0.77955 0.76141 0.0
O34 O 0.60202 0.83686 0.76369 0.0
O35 O 0.53762 0.81267 0.7593 0.0
O36 O 0.55981 0.77322 0.74222 0.0
O37 O 0.49319 0.73919 0.74096 0.0
O38 O 0.54147 0.71199 0.75807 0.0
O39 O 0.60511 0.75374 0.76298 0.0
C40 C 0.57263 0.84283 0.76178 0.0
C41 C 0.57724 0.71833 0.76034 0.0
C42 C 0.70101 0.39342 0.11928 0.0
C43 C 0.70966 0.4094 0.07578 0.0
O44 O 0.68782 0.36625 0.11126 0.0
Zn45 Zn 0.70506 0.40155 0.09751 0.0
O46 O 0.71923 0.4308 0.11614 0.0
Zn47 Zn 0.73629 0.46464 0.09956 0.0
O48 O 0.70857 0.49469 0.10032 0.0
O49 O 0.66733 0.4291 0.09816 0.0
O50 O 0.72642 0.44354 0.08123 0.0
O51 O 0.69327 0.37689 0.08188 0.0
O52 O 0.77029 0.42974 0.09833 0.0
O53 O 0.79416 0.49523 0.10051 0.0
C54 C 0.67286 0.46502 0.09921 0.0
C55 C 0.80048 0.46572 0.09947 0.0
C56 C 0.29941 0.75764 0.45032 0.0
C57 C 0.27363 0.75153 0.40776 0.0
O58 O 0.30985 0.74309 0.44176 0.0
Zn59 Zn 0.28329 0.75429 0.42922 0.0
O60 O 0.27639 0.77267 0.44817 0.0
Zn61 Zn 0.24941 0.78182 0.43189 0.0
O62 O 0.19225 0.7517 0.43472 0.0
O63 O 0.21855 0.71238 0.43225 0.0
O64 O 0.25578 0.76834 0.41306 0.0
O65 O 0.29281 0.7389 0.41399 0.0
O66 O 0.31697 0.8207 0.42832 0.0
O67 O 0.27159 0.83918 0.43176 0.0
C68 C 0.18745 0.71642 0.43416 0.0
C69 C 0.30799 0.84883 0.42958 0.0
C70 C 0.60162 0.23249 0.75879 0.0
C71 C 0.60924 0.36352 0.75451 0.0
O72 O 0.56748 0.23095 0.76014 0.0
Zn73 Zn 0.5432 0.27036 0.76015 0.0
O74 O 0.63326 0.26634 0.75675 0.0
Zn75 Zn 0.60739 0.29924 0.75675 0.0
O76 O 0.59103 0.29872 0.775 0.0
O77 O 0.52437 0.26633 0.77668 0.0
O78 O 0.63888 0.35702 0.75381 0.0
O79 O 0.57352 0.33418 0.75679 0.0
O80 O 0.50533 0.24993 0.74677 0.0
O81 O 0.5695 0.27902 0.74122 0.0
C82 C 0.55918 0.2857 0.7815 0.0
C83 C 0.53181 0.26117 0.73848 0.0
C84 C 0.39798 0.74762 0.59762 0.0
C85 C 0.40671 0.62587 0.58871 0.0
O86 O 0.43273 0.75432 0.59401 0.0
Zn87 Zn 0.46241 0.72267 0.58804 0.0
O88 O 0.36851 0.71143 0.59838 0.0
Zn89 Zn 0.39922 0.68551 0.59307 0.0
O90 O 0.44201 0.70109 0.60728 0.0
O91 O 0.50424 0.73941 0.60036 0.0
O92 O 0.3751 0.62667 0.592 0.0
O93 O 0.43977 0.65928 0.58703 0.0
O94 O 0.47487 0.74073 0.57127 0.0
O95 O 0.40929 0.70499 0.57499 0.0
C96 C 0.48033 0.72146 0.60911 0.0
C97 C 0.43843 0.72578 0.56771 0.0
C98 C 0.68396 0.38807 0.90364 0.0
C99 C 0.70907 0.40875 0.94649 0.0
O100 O 0.67485 0.36198 0.91189 0.0
Zn101 Zn 0.69909 0.39927 0.92491 0.0
O102 O 0.70462 0.42587 0.90623 0.0
Zn103 Zn 0.7298 0.46176 0.92232 0.0
O104 O 0.787 0.49129 0.91944 0.0
O105 O 0.76391 0.42608 0.92181 0.0
O106 O 0.7247 0.44256 0.94083 0.0
O107 O 0.69143 0.37595 0.94064 0.0
O108 O 0.66175 0.42776 0.92543 0.0
O109 O 0.70313 0.49306 0.92263 0.0
C110 C 0.79369 0.46193 0.91989 0.0
C111 C 0.6675 0.4638 0.92438 0.0
C112 C 0.29789 0.71567 0.27966 0.0
C113 C 0.31609 0.69642 0.23711 0.0
O114 O 0.31566 0.69789 0.27525 0.0
Zn115 Zn 0.30757 0.70535 0.25848 0.0
O116 O 0.28258 0.731 0.2726 0.0
Zn117 Zn 0.27683 0.73692 0.25366 0.0
O118 O 0.21926 0.70853 0.25128 0.0
O119 O 0.24325 0.66889 0.25679 0.0
O120 O 0.29787 0.71656 0.23888 0.0
O121 O 0.32683 0.68329 0.24604 0.0
O122 O 0.3452 0.76959 0.25617 0.0
O123 O 0.30543 0.79429 0.25148 0.0
C124 C 0.21327 0.67361 0.25397 0.0
C125 C 0.34062 0.79982 0.25356 0.0
C126 C 0.4918 0.23697 0.61104 0.0
C127 C 0.52798 0.23588 0.56936 0.0
O128 O 0.52631 0.25266 0.60603 0.0
Zn129 Zn 0.50796 0.23787 0.59001 0.0
O130 O 0.45972 0.21883 0.60456 0.0
Zn131 Zn 0.44718 0.20628 0.5854 0.0
O132 O 0.41524 0.14835 0.58547 0.0
O133 O 0.47886 0.17194 0.59083 0.0
O134 O 0.4892 0.21714 0.57055 0.0
O135 O 0.54998 0.2532 0.57838 0.0
O136 O 0.48242 0.27605 0.58617 0.0
O137 O 0.41888 0.23486 0.5813 0.0
C138 C 0.44323 0.1418 0.58889 0.0
C139 C 0.44767 0.2706 0.58302 0.0
C140 C 0.31512 0.61204 0.89626 0.0
C141 C 0.29104 0.59292 0.93935 0.0
O142 O 0.32331 0.63828 0.90436 0.0
Zn143 Zn 0.30007 0.60173 0.91773 0.0
O144 O 0.29511 0.57434 0.89905 0.0
Zn145 Zn 0.26941 0.53919 0.91527 0.0
O146 O 0.21192 0.5098 0.91268 0.0
O147 O 0.23516 0.57484 0.91536 0.0
O148 O 0.27521 0.55903 0.93376 0.0
O149 O 0.30848 0.62568 0.9334 0.0
O150 O 0.33719 0.57292 0.91858 0.0
O151 O 0.29569 0.50762 0.91585 0.0
C152 C 0.20523 0.53908 0.91355 0.0
C153 C 0.33125 0.53675 0.91774 0.0
C154 C 0.73188 0.28286 0.28617 0.0
C155 C 0.71325 0.30011 0.24359 0.0
O156 O 0.71462 0.30077 0.28154 0.0
Zn157 Zn 0.72232 0.29214 0.26489 0.0
O158 O 0.74695 0.26676 0.27931 0.0
Zn159 Zn 0.75255 0.26011 0.2604 0.0
O160 O 0.80986 0.28777 0.25773 0.0
O161 O 0.78666 0.32848 0.26273 0.0
O162 O 0.73135 0.2799 0.24544 0.0
O163 O 0.70286 0.31383 0.25245 0.0
O164 O 0.6841 0.2277 0.26276 0.0
O165 O 0.72407 0.20291 0.25843 0.0
C166 C 0.81628 0.32313 0.25991 0.0
C167 C 0.68877 0.19742 0.2603 0.0
C168 C 0.30855 0.63047 0.9589 0.0
C169 C 0.29009 0.59362 0.95264 0.0
C170 C 0.30903 0.63096 0.97144 0.0
C171 C 0.30001 0.56707 0.99754 0.0
H172 H 0.2828 0.64428 0.01541 0.0
C173 C 0.27763 0.55547 0.04875 0.0
C174 C 0.29638 0.59143 0.05544 0.0
C175 C 0.27712 0.55662 0.03624 0.0
C176 C 0.28814 0.62283 0.01055 0.0
H177 H 0.25698 0.52834 0.9547 0.0
H178 H 0.25747 0.52921 0.9765 0.0
H179 H 0.28086 0.64454 0.99356 0.0
H180 H 0.32924 0.65691 0.05416 0.0
H181 H 0.32866 0.6589 0.0323 0.0
H182 H 0.30732 0.54534 0.01449 0.0
C183 C 0.27214 0.55778 0.97173 0.0
C184 C 0.287 0.62296 0.99802 0.0
C185 C 0.27163 0.55729 0.95921 0.0
C186 C 0.31449 0.62863 0.04929 0.0
C187 C 0.31396 0.62977 0.03676 0.0
C188 C 0.30116 0.56694 0.01005 0.0
C189 C 0.29112 0.5946 0.97802 0.0
C190 C 0.29272 0.59493 0.99135 0.0
C191 C 0.29537 0.59375 0.03007 0.0
C192 C 0.29503 0.59467 0.01673 0.0
H193 H 0.32312 0.65903 0.95413 0.0
H194 H 0.32424 0.65985 0.97598 0.0
H195 H 0.30536 0.54558 0.9927 0.0
H196 H 0.2632 0.52626 0.05316 0.0
H197 H 0.26197 0.52829 0.03141 0.0
C198 C 0.74861 0.3048 0.39481 0.0
C199 C 0.7554 0.27767 0.40161 0.0
C200 C 0.74791 0.30324 0.38236 0.0
C201 C 0.77925 0.27082 0.3557 0.0
H202 H 0.68687 0.27173 0.34145 0.0
C203 C 0.74992 0.25676 0.30442 0.0
C204 C 0.73485 0.28042 0.29936 0.0
C205 C 0.75276 0.25429 0.31685 0.0
C206 C 0.71313 0.27196 0.34524 0.0
H207 H 0.76889 0.2289 0.40054 0.0
H208 H 0.76812 0.22651 0.3785 0.0
H209 H 0.69268 0.27134 0.36313 0.0
H210 H 0.71144 0.32046 0.30344 0.0
H211 H 0.71712 0.31687 0.32507 0.0
H212 H 0.80024 0.27249 0.33778 0.0
C213 C 0.76306 0.24877 0.38298 0.0
C214 C 0.71633 0.2715 0.35768 0.0
C215 C 0.76353 0.25015 0.39557 0.0
C216 C 0.7229 0.30173 0.30703 0.0
C217 C 0.72595 0.29945 0.31946 0.0
C218 C 0.77622 0.2716 0.3432 0.0
C219 C 0.75416 0.27467 0.37629 0.0
C220 C 0.74969 0.27157 0.36306 0.0
C221 C 0.74075 0.27555 0.32455 0.0
C222 C 0.74337 0.27278 0.33781 0.0
H223 H 0.74279 0.32684 0.3991 0.0
H224 H 0.74188 0.32419 0.37745 0.0
H225 H 0.80538 0.27108 0.35961 0.0
H226 H 0.75929 0.23982 0.29878 0.0
H227 H 0.7638 0.2352 0.32042 0.0
C228 C 0.49545 0.72953 0.71592 0.0
C229 C 0.52996 0.75593 0.72256 0.0
C230 C 0.49759 0.72705 0.7035 0.0
C231 C 0.55154 0.78182 0.67668 0.0
H232 H 0.50116 0.67458 0.66274 0.0
C233 C 0.53415 0.75482 0.62505 0.0
C234 C 0.49519 0.72459 0.62156 0.0
C235 C 0.5456 0.75928 0.63716 0.0
C236 C 0.51527 0.70478 0.66646 0.0
H237 H 0.59369 0.80115 0.72127 0.0
H238 H 0.59711 0.79737 0.69938 0.0
H239 H 0.50683 0.6822 0.68441 0.0
H240 H 0.43835 0.67454 0.62801 0.0
H241 H 0.45795 0.68239 0.64882 0.0
H242 H 0.55826 0.80429 0.6587 0.0
C243 C 0.56855 0.77838 0.7039 0.0
C244 C 0.51857 0.70911 0.67888 0.0
C245 C 0.56658 0.78045 0.71642 0.0
C246 C 0.46858 0.69824 0.63034 0.0
C247 C 0.47999 0.70253 0.64233 0.0
C248 C 0.54788 0.77748 0.66419 0.0
C249 C 0.53415 0.75123 0.69735 0.0
C250 C 0.5357 0.74755 0.68414 0.0
C251 C 0.51844 0.73329 0.64595 0.0
C252 C 0.52856 0.73877 0.65896 0.0
H253 H 0.46677 0.71017 0.72034 0.0
H254 H 0.47045 0.70625 0.69867 0.0
H255 H 0.56486 0.81183 0.6805 0.0
H256 H 0.55529 0.77569 0.6185 0.0
H257 H 0.57554 0.78317 0.63965 0.0
C258 C 0.69176 0.37121 0.05634 0.0
C259 C 0.70979 0.40824 0.0625 0.0
C260 C 0.69221 0.37041 0.04381 0.0
C261 C 0.7461 0.43366 0.01742 0.0
H262 H 0.65003 0.35672 1.00018 0.0
C263 C 0.72948 0.44428 0.96631 0.0
C264 C 0.71076 0.40803 0.95976 0.0
C265 C 0.7301 0.44362 0.97883 0.0
C266 C 0.6773 0.37807 1.00485 0.0
H267 H 0.7423 0.47348 0.06028 0.0
H268 H 0.74272 0.47204 0.0385 0.0
H269 H 0.64952 0.35664 0.02201 0.0
H270 H 0.67835 0.34258 0.96128 0.0
H271 H 0.67977 0.34146 0.9831 0.0
H272 H 0.77382 0.45521 1.00026 0.0
C273 C 0.7287 0.44359 0.04334 0.0
C274 C 0.677 0.37802 0.01738 0.0
C275 C 0.72822 0.4444 0.05584 0.0
C276 C 0.69295 0.37109 0.96603 0.0
C277 C 0.69353 0.37043 0.97856 0.0
C278 C 0.7464 0.43371 1.00489 0.0
C279 C 0.71076 0.40661 0.03715 0.0
C280 C 0.71133 0.40595 0.02382 0.0
C281 C 0.71198 0.40668 0.98511 0.0
C282 C 0.71195 0.40604 0.99845 0.0
H283 H 0.67738 0.34279 0.06118 0.0
H284 H 0.67848 0.3414 0.03934 0.0
H285 H 0.77331 0.45513 0.02209 0.0
H286 H 0.74339 0.47328 0.96177 0.0
H287 H 0.74412 0.47211 0.98359 0.0
C288 C 0.2747 0.73886 0.29743 0.0
C289 C 0.29435 0.71883 0.29281 0.0
C290 C 0.27091 0.74194 0.30978 0.0
C291 C 0.27304 0.6954 0.33863 0.0
H292 H 0.2889 0.79594 0.3521 0.0
C293 C 0.291 0.72651 0.38926 0.0
C294 C 0.27274 0.74694 0.39454 0.0
C295 C 0.29142 0.72245 0.37686 0.0
C296 C 0.28379 0.76746 0.34847 0.0
H297 H 0.32554 0.68641 0.29764 0.0
H298 H 0.31921 0.69207 0.31923 0.0
H299 H 0.29508 0.79043 0.33053 0.0
H300 H 0.24034 0.77898 0.39083 0.0
H301 H 0.24089 0.7717 0.36903 0.0
H302 H 0.262 0.67249 0.35657 0.0
C303 C 0.30631 0.70501 0.31326 0.0
C304 C 0.28742 0.76431 0.3361 0.0
C305 C 0.31016 0.70196 0.30088 0.0
C306 C 0.25466 0.76308 0.38706 0.0
C307 C 0.25518 0.75909 0.37457 0.0
C308 C 0.26942 0.69855 0.351 0.0
C309 C 0.28662 0.72506 0.31786 0.0
C310 C 0.28235 0.72831 0.33103 0.0
C311 C 0.2736 0.73869 0.36934 0.0
C312 C 0.27508 0.73473 0.35609 0.0
H313 H 0.26202 0.75214 0.2915 0.0
H314 H 0.25508 0.75708 0.31298 0.0
H315 H 0.26815 0.66698 0.33502 0.0
H316 H 0.30535 0.71373 0.39471 0.0
H317 H 0.30646 0.70716 0.37316 0.0
C318 C 0.47976 0.23483 0.72187 0.0
C319 C 0.52043 0.25599 0.72563 0.0
C320 C 0.47018 0.23188 0.70963 0.0
C321 C 0.51286 0.2844 0.68104 0.0
H322 H 0.44289 0.18179 0.66557 0.0
C323 C 0.52448 0.26246 0.63094 0.0
C324 C 0.48908 0.23938 0.62424 0.0
C325 C 0.52274 0.26453 0.64338 0.0
C326 C 0.46194 0.21078 0.66979 0.0
H327 H 0.58279 0.29011 0.7194 0.0
H328 H 0.56611 0.28509 0.69834 0.0
H329 H 0.44927 0.1848 0.68745 0.0
H330 H 0.42391 0.20026 0.62541 0.0
H331 H 0.4209 0.20391 0.64728 0.0
H332 H 0.52632 0.31041 0.6635 0.0
C333 C 0.54158 0.27106 0.70479 0.0
C334 C 0.46558 0.21247 0.6823 0.0
C335 C 0.55112 0.27367 0.7169 0.0
C336 C 0.45174 0.21839 0.63031 0.0
C337 C 0.45002 0.2203 0.64283 0.0
C338 C 0.50917 0.28275 0.6686 0.0
C339 C 0.50109 0.25052 0.70099 0.0
C340 C 0.49208 0.24913 0.68801 0.0
C341 C 0.48556 0.24355 0.64949 0.0
C342 C 0.48468 0.24575 0.66279 0.0
H343 H 0.45542 0.22082 0.72837 0.0
H344 H 0.43868 0.21579 0.70694 0.0
H345 H 0.53287 0.31325 0.6852 0.0
H346 H 0.5538 0.27893 0.6266 0.0
H347 H 0.55079 0.28212 0.64823 0.0
C348 C 0.32778 0.65478 0.22186 0.0
C349 C 0.32338 0.68828 0.22466 0.0
C350 C 0.331 0.64561 0.20989 0.0
C351 C 0.35721 0.68927 0.17956 0.0
H352 H 0.28056 0.58131 0.16857 0.0
C353 C 0.32464 0.65267 0.12927 0.0
C354 C 0.31449 0.61392 0.12521 0.0
C355 C 0.32919 0.66157 0.14152 0.0
C356 C 0.30278 0.61141 0.17147 0.0
H357 H 0.32058 0.73933 0.21718 0.0
H358 H 0.32706 0.72383 0.19642 0.0
H359 H 0.28431 0.59716 0.18982 0.0
H360 H 0.30238 0.55446 0.13082 0.0
H361 H 0.31167 0.57028 0.15208 0.0
H362 H 0.37609 0.70367 0.1613 0.0
C363 C 0.32771 0.70448 0.20342 0.0
C364 C 0.30481 0.62045 0.18367 0.0
C365 C 0.32376 0.7132 0.21532 0.0
C366 C 0.30981 0.58452 0.13365 0.0
C367 C 0.31491 0.59356 0.14588 0.0
C368 C 0.35561 0.68012 0.16737 0.0
C369 C 0.33073 0.67027 0.20056 0.0
C370 C 0.33157 0.65964 0.18781 0.0
C371 C 0.32427 0.6321 0.15001 0.0
C372 C 0.32788 0.64122 0.16311 0.0
H373 H 0.32744 0.63497 0.22887 0.0
H374 H 0.33346 0.61912 0.20792 0.0
H375 H 0.37842 0.71966 0.18252 0.0
H376 H 0.32822 0.67593 0.123 0.0
H377 H 0.33567 0.69136 0.14431 0.0
C378 C 0.68283 0.21291 0.47425 0.0
C379 C 0.71402 0.25165 0.47101 0.0
C380 C 0.66391 0.20637 0.48547 0.0
C381 C 0.67335 0.24655 0.5159 0.0
H382 H 0.55804 0.20769 0.514 0.0
C383 C 0.58807 0.26549 0.55566 0.0
C384 C 0.54749 0.23604 0.55783 0.0
C385 C 0.60791 0.26446 0.54524 0.0
C386 C 0.59001 0.21784 0.5148 0.0
H387 H 0.75105 0.31343 0.47697 0.0
H388 H 0.71958 0.30159 0.49681 0.0
H389 H 0.59516 0.20845 0.49608 0.0
H390 H 0.49578 0.18244 0.55068 0.0
H391 H 0.53069 0.17968 0.53264 0.0
H392 H 0.66855 0.25538 0.53458 0.0
C393 C 0.70949 0.27636 0.4907 0.0
C394 C 0.6113 0.21831 0.50449 0.0
C395 C 0.72765 0.2831 0.47939 0.0
C396 C 0.52697 0.20577 0.54922 0.0
C397 C 0.54708 0.2043 0.53885 0.0
C398 C 0.65201 0.2454 0.52625 0.0
C399 C 0.67649 0.2383 0.4937 0.0
C400 C 0.6533 0.23334 0.5049 0.0
C401 C 0.58803 0.23346 0.53675 0.0
C402 C 0.61014 0.23187 0.52583 0.0
H403 H 0.67114 0.18848 0.46781 0.0
H404 H 0.63856 0.17674 0.48757 0.0
H405 H 0.70567 0.25803 0.51648 0.0
H406 H 0.60467 0.28947 0.56206 0.0
H407 H 0.63894 0.28823 0.54387 0.0
C408 C 0.49992 0.73113 0.80062 0.0
C409 C 0.47562 0.7245 0.79047 0.0
C410 C 0.48236 0.7194 0.81203 0.0
C411 C 0.38371 0.65184 0.8271 0.0
H412 H 0.43743 0.71746 0.85488 0.0
C413 C 0.35063 0.66592 0.88059 0.0
C414 C 0.33068 0.62483 0.88387 0.0
C415 C 0.36752 0.67822 0.86915 0.0
C416 C 0.42175 0.69893 0.84721 0.0
H417 H 0.41376 0.70101 0.78443 0.0
H418 H 0.38342 0.6815 0.80423 0.0
H419 H 0.46834 0.73929 0.83517 0.0
H420 H 0.31265 0.5644 0.8776 0.0
H421 H 0.34259 0.58582 0.85777 0.0
H422 H 0.33656 0.61209 0.83906 0.0
C423 C 0.41595 0.69485 0.80341 0.0
C424 C 0.43983 0.7112 0.8359 0.0
C425 C 0.43344 0.70633 0.79203 0.0
C426 C 0.32755 0.59628 0.87537 0.0
C427 C 0.34463 0.6086 0.86395 0.0
C428 C 0.36556 0.63968 0.83839 0.0
C429 C 0.44008 0.70094 0.81357 0.0
C430 C 0.42106 0.68783 0.82568 0.0
C431 C 0.36513 0.64978 0.8607 0.0
C432 C 0.38431 0.66302 0.84862 0.0
H433 H 0.5325 0.74491 0.79975 0.0
H434 H 0.50193 0.72416 0.81961 0.0
H435 H 0.36854 0.63271 0.81948 0.0
H436 H 0.35349 0.68874 0.8869 0.0
H437 H 0.38237 0.7101 0.86693 0.0
C438 C 0.68732 0.34317 0.13568 0.0
C439 C 0.69677 0.38229 0.13213 0.0
C440 C 0.68584 0.33343 0.14782 0.0
C441 C 0.67293 0.36204 0.17816 0.0
H442 H 0.73587 0.31246 0.1878 0.0
C443 C 0.70156 0.3412 0.22812 0.0
C444 C 0.70557 0.3076 0.23112 0.0
C445 C 0.69791 0.34969 0.21612 0.0
C446 C 0.71745 0.32557 0.18529 0.0
H447 H 0.7107 0.44147 0.13858 0.0
H448 H 0.70738 0.42412 0.1598 0.0
H449 H 0.73299 0.32739 0.16678 0.0
H450 H 0.7066 0.25532 0.22398 0.0
H451 H 0.69844 0.2689 0.20325 0.0
H452 H 0.65663 0.35951 0.19663 0.0
C453 C 0.70139 0.40115 0.15316 0.0
C454 C 0.71601 0.3343 0.17322 0.0
C455 C 0.7035 0.41109 0.14101 0.0
C456 C 0.70417 0.28181 0.22194 0.0
C457 C 0.69982 0.28983 0.21001 0.0
C458 C 0.67385 0.35274 0.19026 0.0
C459 C 0.69314 0.3624 0.15668 0.0
C460 C 0.6938 0.35265 0.16952 0.0
C461 C 0.69756 0.32438 0.20687 0.0
C462 C 0.69613 0.33433 0.194 0.0
H463 H 0.682 0.32029 0.12907 0.0
H464 H 0.6791 0.30323 0.15028 0.0
H465 H 0.65539 0.37602 0.17553 0.0
H466 H 0.70271 0.3617 0.23501 0.0
H467 H 0.69663 0.37677 0.21408 0.0
C468 C 0.39152 0.73366 0.55401 0.0
C469 C 0.42824 0.73392 0.55561 0.0
C470 C 0.37971 0.73938 0.54272 0.0
C471 C 0.41639 0.77348 0.51155 0.0
H472 H 0.30128 0.71247 0.50465 0.0
C473 C 0.34885 0.75278 0.46393 0.0
C474 C 0.3151 0.75813 0.46251 0.0
C475 C 0.36401 0.75272 0.4753 0.0
C476 C 0.33345 0.73005 0.50649 0.0
H477 H 0.48191 0.74134 0.54662 0.0
H478 H 0.46055 0.74983 0.52662 0.0
H479 H 0.32573 0.70573 0.52413 0.0
H480 H 0.27098 0.76787 0.47196 0.0
H481 H 0.29702 0.76676 0.49196 0.0
H482 H 0.42383 0.79643 0.49361 0.0
C483 C 0.4412 0.746 0.5342 0.0
C484 C 0.3476 0.72634 0.51769 0.0
C485 C 0.45344 0.74096 0.54564 0.0
C486 C 0.29696 0.76364 0.47276 0.0
C487 C 0.31178 0.76289 0.48419 0.0
C488 C 0.40223 0.7767 0.50026 0.0
C489 C 0.40383 0.74476 0.53258 0.0
C490 C 0.38926 0.74822 0.52044 0.0
C491 C 0.34548 0.75741 0.48556 0.0
C492 C 0.36057 0.75514 0.49764 0.0
H493 H 0.37175 0.72915 0.56156 0.0
H494 H 0.35147 0.73958 0.54198 0.0
H495 H 0.44855 0.79123 0.51334 0.0
H496 H 0.36374 0.7487 0.45622 0.0
H497 H 0.38974 0.74807 0.47607 0.0
C498 C 0.68384 0.40296 0.88178 0.0
C499 C 0.66873 0.37517 0.8913 0.0
C500 C 0.66783 0.39149 0.87027 0.0
C501 C 0.60505 0.30134 0.8512 0.0
H502 H 0.59971 0.38145 0.83108 0.0
C503 C 0.53646 0.26845 0.80299 0.0
C504 C 0.56423 0.2949 0.79444 0.0
C505 C 0.54417 0.27657 0.81526 0.0
C506 C 0.60086 0.35873 0.83663 0.0
H507 H 0.62492 0.31338 0.89618 0.0
H508 H 0.59625 0.29363 0.8762 0.0
H509 H 0.62347 0.3985 0.85163 0.0
H510 H 0.62075 0.35121 0.79198 0.0
H511 H 0.63346 0.36578 0.81323 0.0
H512 H 0.58203 0.26158 0.83607 0.0
C513 C 0.62111 0.3241 0.87753 0.0
C514 C 0.61486 0.36857 0.84838 0.0
C515 C 0.63749 0.33547 0.88902 0.0
C516 C 0.5989 0.33015 0.79836 0.0
C517 C 0.6061 0.33865 0.81052 0.0
C518 C 0.59049 0.29134 0.83947 0.0
C519 C 0.63585 0.35204 0.868 0.0
C520 C 0.61808 0.34035 0.85575 0.0
C521 C 0.57917 0.31175 0.81911 0.0
C522 C 0.5891 0.32024 0.832 0.0
H523 H 0.70807 0.43371 0.88322 0.0
H524 H 0.68074 0.41363 0.86314 0.0
H525 H 0.60739 0.27889 0.85653 0.0
H526 H 0.5096 0.24099 0.8002 0.0
H527 H 0.52293 0.25541 0.82174 0.0
C528 C 0.84929 0.43989 0.0988 0.0
C529 C 0.84232 0.47271 0.09935 0.0
C530 C 0.88875 0.44642 0.0984 0.0
C531 C 0.99523 0.52309 0.10473 0.0
H532 H 0.01899 0.45763 0.08332 0.0
C533 C 0.15842 0.55898 0.09421 0.0
C534 C 0.16534 0.52609 0.09401 0.0
C535 C 0.11901 0.55251 0.09502 0.0
C536 C 0.01273 0.47587 0.08943 0.0
H537 H 0.87137 0.53817 0.09997 0.0
H538 H 0.94023 0.54957 0.0991 0.0
H539 H 0.95019 0.4463 0.08451 0.0
H540 H 0.1363 0.4606 0.09448 0.0
H541 H 0.06757 0.44937 0.0959 0.0
H542 H 0.05794 0.55285 0.10956 0.0
C543 C 0.91518 0.51875 0.09916 0.0
C544 C 0.97331 0.46936 0.09013 0.0
C545 C 0.87569 0.51221 0.09959 0.0
C546 C 0.13202 0.4866 0.0946 0.0
C547 C 0.09262 0.48014 0.09535 0.0
C548 C 0.03469 0.52968 0.104 0.0
C549 C 0.92216 0.48593 0.0985 0.0
C550 C 0.96409 0.49286 0.0978 0.0
C551 C 0.0857 0.51302 0.09557 0.0
C552 C 0.04384 0.50611 0.09635 0.0
H553 H 0.82425 0.40906 0.09866 0.0
H554 H 0.89309 0.42046 0.09809 0.0
H555 H 0.98901 0.54131 0.11085 0.0
H556 H 0.18342 0.58979 0.09376 0.0
H557 H 0.11458 0.57843 0.09504 0.0
C558 C 0.5727 0.21001 0.43323 0.0
C559 C 0.60879 0.21274 0.42905 0.0
C560 C 0.53561 0.17372 0.43193 0.0
C561 C 0.48776 0.07406 0.41596 0.0
H562 H 0.41995 0.03351 0.44426 0.0
C563 C 0.37851 0.90382 0.42427 0.0
C564 C 0.33961 0.89218 0.42868 0.0
C565 C 0.4081 0.94479 0.42346 0.0
C566 C 0.43831 0.04459 0.43623 0.0
H567 H 0.63403 0.18066 0.41961 0.0
H568 H 0.57047 0.11836 0.41743 0.0
H569 H 0.47617 0.10321 0.44384 0.0
H570 H 0.30145 0.91465 0.43576 0.0
H571 H 0.35325 0.98598 0.43446 0.0
H572 H 0.45091 0.01495 0.40855 0.0
C573 C 0.5701 0.14371 0.42165 0.0
C574 C 0.47041 0.08464 0.43596 0.0
C575 C 0.60679 0.17951 0.423 0.0
C576 C 0.33108 0.9225 0.4323 0.0
C577 C 0.36079 0.96341 0.43161 0.0
C578 C 0.456 0.034 0.41628 0.0
C579 C 0.53406 0.13987 0.42629 0.0
C580 C 0.49617 0.09962 0.42592 0.0
C581 C 0.39961 0.97505 0.42715 0.0
C582 C 0.43141 0.01853 0.4265 0.0
H583 H 0.57339 0.23508 0.43797 0.0
H584 H 0.50832 0.1719 0.43552 0.0
H585 H 0.50637 0.08475 0.40797 0.0
H586 H 0.38611 0.88129 0.42142 0.0
H587 H 0.43789 0.95279 0.4201 0.0
C588 C 0.65225 0.43943 0.75485 0.0
C589 C 0.61477 0.40435 0.75283 0.0
C590 C 0.65544 0.47764 0.75428 0.0
C591 C 0.60305 0.53043 0.74283 0.0
H592 H 0.6475 0.59969 0.77059 0.0
C593 C 0.55631 0.64666 0.75537 0.0
C594 C 0.5863 0.685 0.7593 0.0
C595 C 0.56529 0.61573 0.75374 0.0
C596 C 0.63558 0.58104 0.76268 0.0
H597 H 0.55184 0.38173 0.74809 0.0
H598 H 0.55747 0.4478 0.74703 0.0
H599 H 0.65539 0.54019 0.76852 0.0
H600 H 0.64915 0.72074 0.76478 0.0
H601 H 0.66472 0.66647 0.76195 0.0
H602 H 0.58219 0.57041 0.73714 0.0
C603 C 0.58439 0.44611 0.74906 0.0
C604 C 0.64022 0.54707 0.76148 0.0
C605 C 0.58111 0.40819 0.74977 0.0
C606 C 0.62533 0.69152 0.76175 0.0
C607 C 0.63427 0.66045 0.76016 0.0
C608 C 0.59843 0.56428 0.74402 0.0
C609 C 0.62137 0.48122 0.75147 0.0
C610 C 0.62292 0.5208 0.75172 0.0
C611 C 0.60443 0.62236 0.75601 0.0
C612 C 0.61359 0.58927 0.75413 0.0
H613 H 0.67864 0.43728 0.75726 0.0
H614 H 0.68434 0.50429 0.75615 0.0
H615 H 0.58999 0.51106 0.7351 0.0
H616 H 0.52593 0.64057 0.75342 0.0
H617 H 0.54141 0.58645 0.75076 0.0
C618 C 0.46499 0.09257 0.59531 0.0
C619 C 0.43484 0.09979 0.59074 0.0
C620 C 0.45733 0.05307 0.59699 0.0
C621 C 0.37499 0.9461 0.5998 0.0
H622 H 0.46133 0.92484 0.59135 0.0
C623 C 0.35958 0.78536 0.59648 0.0
C624 C 0.39355 0.78311 0.60027 0.0
C625 C 0.36061 0.82271 0.59648 0.0
C626 C 0.43702 0.93031 0.5939 0.0
H627 H 0.37271 0.07094 0.58446 0.0
H628 H 0.3596 1.00193 0.58722 0.0
H629 H 0.47139 0.99238 0.5887 0.0
H630 H 0.45347 0.81683 0.60803 0.0
H631 H 0.45482 0.88117 0.60834 0.0
H632 H 0.34054 0.88339 0.60485 0.0
C633 C 0.38902 0.02689 0.58965 0.0
C634 C 0.44283 0.96913 0.59238 0.0
C635 C 0.39666 0.06648 0.588 0.0
C636 C 0.42703 0.81783 0.60493 0.0
C637 C 0.42793 0.85475 0.60502 0.0
C638 C 0.36911 0.907 0.60129 0.0
C639 C 0.41937 0.0197 0.5941 0.0
C640 C 0.41214 0.97773 0.59544 0.0
C641 C 0.39556 0.85807 0.60031 0.0
C642 C 0.40034 0.89887 0.5985 0.0
H643 H 0.49461 0.11746 0.59762 0.0
H644 H 0.4812 0.04871 0.60064 0.0
H645 H 0.35077 0.95173 0.6023 0.0
H646 H 0.33354 0.75906 0.59275 0.0
H647 H 0.33515 0.82432 0.59282 0.0
C648 C 0.40553 0.56134 0.91994 0.0
C649 C 0.36556 0.52905 0.91895 0.0
C650 C 0.4379 0.55401 0.92099 0.0
C651 C 0.46576 0.47518 0.91546 0.0
H652 H 0.55596 0.54151 0.93639 0.0
C653 C 0.59275 0.43835 0.92523 0.0
C654 C 0.63271 0.471 0.92478 0.0
C655 C 0.55989 0.4451 0.92502 0.0
C656 C 0.53112 0.52293 0.93044 0.0
H657 H 0.32826 0.46366 0.91843 0.0
H658 H 0.38452 0.45089 0.92047 0.0
H659 H 0.49912 0.55388 0.93504 0.0
H660 H 0.66941 0.53644 0.92399 0.0
H661 H 0.61207 0.54815 0.92364 0.0
H662 H 0.49774 0.44415 0.91091 0.0
C663 C 0.39101 0.48194 0.92021 0.0
C664 C 0.49858 0.53006 0.92964 0.0
C665 C 0.35869 0.48926 0.91911 0.0
C666 C 0.63904 0.51059 0.92435 0.0
C667 C 0.60618 0.51733 0.92421 0.0
C668 C 0.49821 0.46795 0.91631 0.0
C669 C 0.43106 0.51421 0.92112 0.0
C670 C 0.46553 0.50636 0.92211 0.0
C671 C 0.56623 0.48466 0.92443 0.0
C672 C 0.53132 0.49181 0.92378 0.0
H673 H 0.41193 0.59237 0.9198 0.0
H674 H 0.46836 0.57962 0.9215 0.0
H675 H 0.4412 0.45678 0.90941 0.0
H676 H 0.58678 0.40748 0.92558 0.0
H677 H 0.52947 0.41931 0.92534 0.0
C678 C 0.16416 0.60339 0.26038 0.0
C679 C 0.17214 0.63824 0.25395 0.0
C680 C 0.12558 0.56944 0.26034 0.0
C681 C 0.01838 0.53659 0.25387 0.0
H682 H 0.00819 0.43032 0.25515 0.0
C683 C 0.86666 0.39468 0.26464 0.0
C684 C 0.85735 0.35832 0.25893 0.0
C685 C 0.90507 0.42859 0.26345 0.0
C686 C 0.01038 0.45969 0.25461 0.0
H687 H 0.14626 0.66502 0.24237 0.0
H688 H 0.07889 0.60503 0.24193 0.0
H689 H 0.07489 0.48988 0.25348 0.0
H690 H 0.88059 0.3288 0.24743 0.0
H691 H 0.94738 0.38847 0.24498 0.0
H692 H 0.95377 0.50628 0.2545 0.0
C693 C 0.10222 0.60427 0.24726 0.0
C694 C 0.04874 0.49395 0.25385 0.0
C695 C 0.1408 0.63857 0.24746 0.0
C696 C 0.88714 0.3564 0.25202 0.0
C697 C 0.92542 0.39057 0.25066 0.0
C698 C 0.97997 0.50228 0.25445 0.0
C699 C 0.0942 0.56928 0.2537 0.0
C700 C 0.05325 0.53284 0.25368 0.0
C701 C 0.93481 0.4271 0.25635 0.0
C702 C 0.97554 0.46344 0.25503 0.0
H703 H 0.18767 0.60245 0.26558 0.0
H704 H 0.1203 0.54347 0.26564 0.0
H705 H 0.02069 0.56604 0.25385 0.0
H706 H 0.84433 0.39688 0.27012 0.0
H707 H 0.91149 0.45587 0.2682 0.0
C708 C 0.59822 0.43914 0.09803 0.0
C709 C 0.63797 0.47192 0.09885 0.0
C710 C 0.56536 0.44575 0.09734 0.0
C711 C 0.53536 0.52251 0.10333 0.0
H712 H 0.44794 0.45801 0.08134 0.0
C713 C 0.40906 0.55911 0.09242 0.0
C714 C 0.36924 0.52623 0.0922 0.0
C715 C 0.44199 0.55261 0.0931 0.0
C716 C 0.47196 0.47601 0.0876 0.0
H717 H 0.67437 0.53737 0.09963 0.0
H718 H 0.61713 0.54888 0.09828 0.0
H719 H 0.50508 0.44626 0.08298 0.0
H720 H 0.33278 0.46071 0.0924 0.0
H721 H 0.39026 0.44945 0.09362 0.0
H722 H 0.50227 0.55239 0.10789 0.0
C723 C 0.61128 0.51803 0.09834 0.0
C724 C 0.50464 0.46924 0.08856 0.0
C725 C 0.64412 0.51143 0.09906 0.0
C726 C 0.36308 0.48672 0.09254 0.0
C727 C 0.396 0.48023 0.09318 0.0
C728 C 0.50273 0.52936 0.10234 0.0
C729 C 0.57153 0.48528 0.09743 0.0
C730 C 0.5367 0.49238 0.09645 0.0
C731 C 0.43579 0.5131 0.09353 0.0
C732 C 0.47066 0.50615 0.09447 0.0
H733 H 0.59241 0.40831 0.09789 0.0
H734 H 0.53508 0.41984 0.09683 0.0
H735 H 0.55926 0.54045 0.10962 0.0
H736 H 0.41485 0.58993 0.09215 0.0
H737 H 0.47234 0.57853 0.09322 0.0
C738 C 0.82945 0.442 0.43921 0.0
C739 C 0.82534 0.4033 0.4397 0.0
C740 C 0.86802 0.47684 0.4394 0.0
C741 C 0.97656 0.51184 0.44662 0.0
H742 H 0.99825 0.60159 0.4257 0.0
C743 C 0.13967 0.64108 0.4357 0.0
C744 C 0.14606 0.6807 0.43544 0.0
C745 C 0.10035 0.60777 0.43673 0.0
C746 C 0.99263 0.57695 0.43169 0.0
H747 H 0.85889 0.37117 0.44092 0.0
H748 H 0.92528 0.43115 0.44104 0.0
H749 H 0.92989 0.54344 0.42688 0.0
H750 H 0.11583 0.71614 0.43612 0.0
H751 H 0.04772 0.65833 0.43789 0.0
H752 H 0.03951 0.54513 0.45125 0.0
C753 C 0.89898 0.43497 0.44072 0.0
C754 C 0.95332 0.54361 0.4324 0.0
C755 C 0.86066 0.40037 0.44057 0.0
C756 C 0.11218 0.68612 0.43627 0.0
C757 C 0.07298 0.6529 0.43721 0.0
C758 C 0.01589 0.54505 0.44585 0.0
C759 C 0.90336 0.47375 0.44009 0.0
C760 C 0.94474 0.51041 0.43982 0.0
C761 C 0.06648 0.61328 0.43743 0.0
C762 C 0.0245 0.57797 0.43833 0.0
H763 H 0.80294 0.44541 0.43855 0.0
H764 H 0.87013 0.50618 0.43904 0.0
H765 H 0.97109 0.48728 0.45262 0.0
H766 H 0.16501 0.63577 0.43506 0.0
H767 H 0.0964 0.57763 0.43676 0.0
C768 C 0.56675 0.15749 0.76077 0.0
C769 C 0.60311 0.19453 0.75964 0.0
C770 C 0.56711 0.12131 0.76174 0.0
C771 C 0.62877 0.07373 0.75563 0.0
H772 H 0.55017 0.99073 0.77678 0.0
C773 C 0.61809 0.91799 0.76299 0.0
C774 C 0.5788 0.88427 0.76229 0.0
C775 C 0.62393 0.95718 0.7633 0.0
C776 C 0.57215 0.01355 0.7708 0.0
H777 H 0.6685 0.22253 0.75858 0.0
H778 H 0.66918 0.15884 0.76043 0.0
H779 H 0.55633 0.05739 0.77641 0.0
H780 H 0.51484 0.86525 0.76144 0.0
H781 H 0.52507 0.93362 0.76207 0.0
H782 H 0.64444 0.02951 0.75004 0.0
C783 C 0.64035 0.15803 0.76045 0.0
C784 C 0.57568 0.05173 0.77056 0.0
C785 C 0.63998 0.19448 0.75943 0.0
C786 C 0.54548 0.89056 0.76199 0.0
C787 C 0.55132 0.92969 0.76241 0.0
C788 C 0.62542 0.0355 0.75593 0.0
C789 C 0.60384 0.12106 0.7617 0.0
C790 C 0.60337 0.082 0.76278 0.0
C791 C 0.59059 0.96339 0.76305 0.0
C792 C 0.59649 0.00483 0.76335 0.0
H793 H 0.53771 0.15626 0.76086 0.0
H794 H 0.53838 0.09337 0.76239 0.0
H795 H 0.65017 0.09625 0.74947 0.0
H796 H 0.64441 0.91417 0.76322 0.0
H797 H 0.65451 0.9826 0.76386 0.0
C798 C 0.37097 0.54943 0.58778 0.0
C799 C 0.40674 0.5872 0.58711 0.0
C800 C 0.37219 0.51347 0.58636 0.0
C801 C 0.43945 0.47536 0.57498 0.0
H802 H 0.37305 0.38237 0.59509 0.0
C803 C 0.47355 0.34536 0.58223 0.0
C804 C 0.44074 0.30551 0.58204 0.0
C805 C 0.46696 0.3783 0.58191 0.0
C806 C 0.39147 0.40795 0.58931 0.0
H807 H 0.47192 0.61655 0.58457 0.0
H808 H 0.47411 0.55464 0.58242 0.0
H809 H 0.36545 0.44217 0.59631 0.0
H810 H 0.37519 0.26914 0.58131 0.0
H811 H 0.36375 0.32674 0.58088 0.0
H812 H 0.46631 0.44156 0.56827 0.0
C813 C 0.44488 0.55241 0.5837 0.0
C814 C 0.38703 0.44222 0.58998 0.0
C815 C 0.44362 0.58811 0.58503 0.0
C816 C 0.40117 0.29942 0.58143 0.0
C817 C 0.39456 0.33239 0.58126 0.0
C818 C 0.44414 0.44132 0.5744 0.0
C819 C 0.40925 0.51453 0.58429 0.0
C820 C 0.41141 0.47667 0.58295 0.0
C821 C 0.42738 0.37221 0.58154 0.0
C822 C 0.42057 0.4074 0.58166 0.0
H823 H 0.34205 0.54764 0.58936 0.0
H824 H 0.34407 0.48489 0.58678 0.0
H825 H 0.45807 0.50081 0.56919 0.0
H826 H 0.5044 0.35117 0.58271 0.0
H827 H 0.49288 0.4086 0.58224 0.0
C828 C 0.13011 0.49191 0.91244 0.0
C829 C 0.16308 0.53163 0.91304 0.0
C830 C 0.09027 0.48456 0.9126 0.0
C831 C 0.02961 0.53205 0.9214 0.0
H832 H 0.94565 0.44512 0.9027 0.0
C833 C 0.86838 0.50915 0.91747 0.0
C834 C 0.83565 0.46938 0.91847 0.0
C835 C 0.90811 0.51659 0.91645 0.0
C836 C 0.96869 0.46927 0.90806 0.0
H837 H 0.17986 0.59486 0.914 0.0
H838 H 0.11042 0.58212 0.91403 0.0
H839 H 0.0154 0.45902 0.90127 0.0
H840 H 0.81919 0.40617 0.91905 0.0
H841 H 0.8887 0.41921 0.91725 0.0
H842 H 0.9829 0.54242 0.92811 0.0
C843 C 0.11532 0.55653 0.91368 0.0
C844 C 0.00871 0.47725 0.90725 0.0
C845 C 0.15521 0.56388 0.91358 0.0
C846 C 0.84365 0.43717 0.91829 0.0
C847 C 0.88347 0.44462 0.9172 0.0
C848 C 0.98966 0.5242 0.92215 0.0
C849 C 0.08228 0.51673 0.91331 0.0
C850 C 0.03973 0.50871 0.91393 0.0
C851 C 0.9162 0.48447 0.91635 0.0
C852 C 0.95869 0.49268 0.91551 0.0
H853 H 0.135 0.4663 0.91207 0.0
H854 H 0.06571 0.4535 0.91247 0.0
H855 H 0.05243 0.55598 0.92686 0.0
H856 H 0.8634 0.53473 0.91755 0.0
H857 H 0.93253 0.5476 0.91566 0.0
C858 C 0.37161 0.87508 0.25277 0.0
C859 C 0.37626 0.84084 0.25324 0.0
C860 C 0.40553 0.91384 0.25308 0.0
C861 C 0.5127 0.96728 0.26234 0.0
H862 H 0.51853 0.05498 0.24323 0.0
C863 C 0.65792 0.12256 0.25813 0.0
C864 C 0.65311 0.15655 0.25941 0.0
C865 C 0.62409 0.08398 0.25716 0.0
C866 C 0.5171 0.03079 0.24867 0.0
H867 H 0.42002 0.82024 0.25397 0.0
H868 H 0.47908 0.88771 0.25423 0.0
H869 H 0.45936 0.98741 0.24161 0.0
H870 H 0.60915 0.17683 0.26063 0.0
H871 H 0.55011 0.10935 0.25892 0.0
H872 H 0.57063 0.01064 0.26931 0.0
C873 C 0.44928 0.88472 0.25394 0.0
C874 C 0.48326 0.99217 0.24777 0.0
C875 C 0.41543 0.84605 0.25372 0.0
C876 C 0.61384 0.15122 0.25968 0.0
C877 C 0.58005 0.11267 0.25862 0.0
C878 C 0.54662 0.0058 0.26318 0.0
C879 C 0.4447 0.91903 0.25377 0.0
C880 C 0.48069 0.96002 0.25461 0.0
C881 C 0.58489 0.07873 0.25737 0.0
C882 C 0.54908 0.03789 0.25637 0.0
H883 H 0.34178 0.87198 0.25243 0.0
H884 H 0.40099 0.93968 0.25307 0.0
H885 H 0.51131 0.94334 0.2679 0.0
H886 H 0.68779 0.12571 0.25788 0.0
H887 H 0.6286 0.05828 0.25611 0.0
loop_
_geom_bond_atom_site_label_1
_geom_bond_atom_site_label_2
_geom_bond_distance
_geom_bond_site_symmetry_2
_ccdc_geom_bond_type
C0 O2 1.247 . S
C0 O4 1.258 . S
C1 O8 1.247 . S
C1 O9 1.258 . S
O2 C0 1.247 . S
O2 Zn3 2.028 . S
Zn3 O2 2.028 . S
Zn3 O7 2.035 . S
Zn3 O9 2.035 . S
Zn3 O10 2.028 . S
O4 C0 1.258 . S
O4 Zn5 2.035 . S
Zn5 O4 2.035 . S
Zn5 O6 2.028 . S
Zn5 O8 2.028 . S
Zn5 O11 2.035 . S
O6 Zn5 2.028 . S
O6 C12 1.247 . S
O7 Zn3 2.035 . S
O7 C12 1.258 . S
O8 C1 1.247 . S
O8 Zn5 2.028 . S
O9 C1 1.258 . S
O9 Zn3 2.035 . S
O10 Zn3 2.028 . S
O10 C13 1.247 . S
O11 Zn5 2.035 . S
O11 C13 1.258 . S
C12 O6 1.247 . S
C12 O7 1.258 . S
C13 O10 1.247 . S
C13 O11 1.258 . S
C14 O16 1.247 . S
C14 O18 1.258 . S
C15 O22 1.247 . S
C15 O23 1.258 . S
O16 C14 1.247 . S
O16 Zn17 2.028 . S
Zn17 O16 2.028 . S
Zn17 O21 2.035 . S
Zn17 O23 2.035 . S
Zn17 O24 2.028 . S
O18 C14 1.258 . S
O18 Zn19 2.035 . S
Zn19 O18 2.035 . S
Zn19 O20 2.028 . S
Zn19 O22 2.028 . S
Zn19 O25 2.035 . S
O20 Zn19 2.028 . S
O20 C26 1.247 . S
O21 Zn17 2.035 . S
O21 C26 1.258 . S
O22 C15 1.247 . S
O22 Zn19 2.028 . S
O23 C15 1.258 . S
O23 Zn17 2.035 . S
O24 Zn17 2.028 . S
O24 C27 1.247 . S
O25 Zn19 2.035 . S
O25 C27 1.258 . S
C26 O20 1.247 . S
C26 O21 1.258 . S
C27 O24 1.247 . S
C27 O25 1.258 . S
C28 O30 1.247 . S
C28 O32 1.258 . S
C29 O36 1.247 . S
C29 O37 1.258 . S
O30 C28 1.247 . S
O30 Zn31 2.028 . S
Zn31 O30 2.028 . S
Zn31 O35 2.035 . S
Zn31 O37 2.035 . S
Zn31 O38 2.028 . S
O32 C28 1.258 . S
O32 Zn33 2.035 . S
Zn33 O32 2.035 . S
Zn33 O34 2.028 . S
Zn33 O36 2.028 . S
Zn33 O39 2.035 . S
O34 Zn33 2.028 . S
O34 C40 1.247 . S
O35 Zn31 2.035 . S
O35 C40 1.258 . S
O36 C29 1.247 . S
O36 Zn33 2.028 . S
O37 C29 1.258 . S
O37 Zn31 2.035 . S
O38 Zn31 2.028 . S
O38 C41 1.247 . S
O39 Zn33 2.035 . S
O39 C41 1.258 . S
C40 O34 1.247 . S
C40 O35 1.258 . S
C41 O38 1.247 . S
C41 O39 1.258 . S
C42 O44 1.247 . S
C42 O46 1.258 . S
C43 O50 1.247 . S
C43 O51 1.258 . S
O44 C42 1.247 . S
O44 Zn45 2.028 . S
Zn45 O44 2.028 . S
Zn45 O49 2.035 . S
Zn45 O51 2.035 . S
Zn45 O52 2.028 . S
O46 C42 1.258 . S
O46 Zn47 2.035 . S
Zn47 O46 2.035 . S
Zn47 O48 2.028 . S
Zn47 O50 2.028 . S
Zn47 O53 2.035 . S
O48 Zn47 2.028 . S
O48 C54 1.247 . S
O49 Zn45 2.035 . S
O49 C54 1.258 . S
O50 C43 1.247 . S
O50 Zn47 2.028 . S
O51 C43 1.258 . S
O51 Zn45 2.035 . S
O52 Zn45 2.028 . S
O52 C55 1.247 . S
O53 Zn47 2.035 . S
O53 C55 1.258 . S
C54 O48 1.247 . S
C54 O49 1.258 . S
C55 O52 1.247 . S
C55 O53 1.258 . S
C56 O58 1.247 . S
C56 O60 1.258 . S
C57 O64 1.247 . S
C57 O65 1.258 . S
O58 C56 1.247 . S
O58 Zn59 2.028 . S
Zn59 O58 2.028 . S
Zn59 O63 2.035 . S
Zn59 O65 2.035 . S
Zn59 O66 2.028 . S
O60 C56 1.258 . S
O60 Zn61 2.035 . S
Zn61 O60 2.035 . S
Zn61 O62 2.028 . S
Zn61 O64 2.028 . S
Zn61 O67 2.035 . S
O62 Zn61 2.028 . S
O62 C68 1.247 . S
O63 Zn59 2.035 . S
O63 C68 1.258 . S
O64 C57 1.247 . S
O64 Zn61 2.028 . S
O65 C57 1.258 . S
O65 Zn59 2.035 . S
O66 Zn59 2.028 . S
O66 C69 1.247 . S
O67 Zn61 2.035 . S
O67 C69 1.258 . S
C68 O62 1.247 . S
C68 O63 1.258 . S
C69 O66 1.247 . S
C69 O67 1.258 . S
C70 O72 1.247 . S
C70 O74 1.258 . S
C71 O78 1.247 . S
C71 O79 1.258 . S
O72 C70 1.247 . S
O72 Zn73 2.028 . S
Zn73 O72 2.028 . S
Zn73 O77 2.035 . S
Zn73 O79 2.035 . S
Zn73 O80 2.028 . S
O74 C70 1.258 . S
O74 Zn75 2.035 . S
Zn75 O74 2.035 . S
Zn75 O76 2.028 . S
Zn75 O78 2.028 . S
Zn75 O81 2.035 . S
O76 Zn75 2.028 . S
O76 C82 1.247 . S
O77 Zn73 2.035 . S
O77 C82 1.258 . S
O78 C71 1.247 . S
O78 Zn75 2.028 . S
O79 C71 1.258 . S
O79 Zn73 2.035 . S
O80 Zn73 2.028 . S
O80 C83 1.247 . S
O81 Zn75 2.035 . S
O81 C83 1.258 . S
C82 O76 1.247 . S
C82 O77 1.258 . S
C83 O80 1.247 . S
C83 O81 1.258 . S
C84 O86 1.247 . S
C84 O88 1.258 . S
C85 O92 1.247 . S
C85 O93 1.258 . S
O86 C84 1.247 . S
O86 Zn87 2.028 . S
Zn87 O86 2.028 . S
Zn87 O91 2.035 . S
Zn87 O93 2.035 . S
Zn87 O94 2.028 . S
O88 C84 1.258 . S
O88 Zn89 2.035 . S
Zn89 O88 2.035 . S
Zn89 O90 2.028 . S
Zn89 O92 2.028 . S
Zn89 O95 2.035 . S
O90 Zn89 2.028 . S
O90 C96 1.247 . S
O91 Zn87 2.035 . S
O91 C96 1.258 . S
O92 C85 1.247 . S
O92 Zn89 2.028 . S
O93 C85 1.258 . S
O93 Zn87 2.035 . S
O94 Zn87 2.028 . S
O94 C97 1.247 . S
O95 Zn89 2.035 . S
O95 C97 1.258 . S
C96 O90 1.247 . S
C96 O91 1.258 . S
C97 O94 1.247 . S
C97 O95 1.258 . S
C98 O100 1.247 . S
C98 O102 1.258 . S
C99 O106 1.247 . S
C99 O107 1.258 . S
O100 C98 1.247 . S
O100 Zn101 2.028 . S
Zn101 O100 2.028 . S
Zn101 O105 2.035 . S
Zn101 O107 2.035 . S
Zn101 O108 2.028 . S
O102 C98 1.258 . S
O102 Zn103 2.035 . S
Zn103 O102 2.035 . S
Zn103 O104 2.028 . S
Zn103 O106 2.028 . S
Zn103 O109 2.035 . S
O104 Zn103 2.028 . S
O104 C110 1.247 . S
O105 Zn101 2.035 . S
O105 C110 1.258 . S
O106 C99 1.247 . S
O106 Zn103 2.028 . S
O107 C99 1.258 . S
O107 Zn101 2.035 . S
O108 Zn101 2.028 . S
O108 C111 1.247 . S
O109 Zn103 2.035 . S
O109 C111 1.258 . S
C110 O104 1.247 . S
C110 O105 1.258 . S
C111 O108 1.247 . S
C111 O109 1.258 . S
C112 O114 1.247 . S
C112 O116 1.258 . S
C113 O120 1.247 . S
C113 O121 1.258 . S
O114 C112 1.247 . S
O114 Zn115 2.028 . S
Zn115 O114 2.028 . S
Zn115 O119 2.035 . S
Zn115 O121 2.035 . S
Zn115 O122 2.028 . S
O116 C112 1.258 . S
O116 Zn117 2.035 . S
Zn117 O116 2.035 . S
Zn117 O118 2.028 . S
Zn117 O120 2.028 . S
Zn117 O123 2.035 . S
O118 Zn117 2.028 . S
O118 C124 1.247 . S
O119 Zn115 2.035 . S
O119 C124 1.258 . S
O120 C113 1.247 . S
O120 Zn117 2.028 . S
O121 C113 1.258 . S
O121 Zn115 2.035 . S
O122 Zn115 2.028 . S
O122 C125 1.247 . S
O123 Zn117 2.035 . S
O123 C125 1.258 . S
C124 O118 1.247 . S
C124 O119 1.258 . S
C125 O122 1.247 . S
C125 O123 1.258 . S
C126 O128 1.247 . S
C126 O130 1.258 . S
C127 O134 1.247 . S
C127 O135 1.258 . S
O128 C126 1.247 . S
O128 Zn129 2.028 . S
Zn129 O128 2.028 . S
Zn129 O133 2.035 . S
Zn129 O135 2.035 . S
Zn129 O136 2.028 . S
O130 C126 1.258 . S
O130 Zn131 2.035 . S
Zn131 O130 2.035 . S
Zn131 O132 2.028 . S
Zn131 O134 2.028 . S
Zn131 O137 2.035 . S
O132 Zn131 2.028 . S
O132 C138 1.247 . S
O133 Zn129 2.035 . S
O133 C138 1.258 . S
O134 C127 1.247 . S
O134 Zn131 2.028 . S
O135 C127 1.258 . S
O135 Zn129 2.035 . S
O136 Zn129 2.028 . S
O136 C139 1.247 . S
O137 Zn131 2.035 . S
O137 C139 1.258 . S
C138 O132 1.247 . S
C138 O133 1.258 . S
C139 O136 1.247 . S
C139 O137 1.258 . S
C140 O142 1.247 . S
C140 O144 1.258 . S
C141 O148 1.247 . S
C141 O149 1.258 . S
O142 C140 1.247 . S
O142 Zn143 2.028 . S
Zn143 O142 2.028 . S
Zn143 O147 2.035 . S
Zn143 O149 2.035 . S
Zn143 O150 2.028 . S
O144 C140 1.258 . S
O144 Zn145 2.035 . S
Zn145 O144 2.035 . S
Zn145 O146 2.028 . S
Zn145 O148 2.028 . S
Zn145 O151 2.035 . S
O146 Zn145 2.028 . S
O146 C152 1.247 . S
O147 Zn143 2.035 . S
O147 C152 1.258 . S
O148 C141 1.247 . S
O148 Zn145 2.028 . S
O149 C141 1.258 . S
O149 Zn143 2.035 . S
O150 Zn143 2.028 . S
O150 C153 1.247 . S
O151 Zn145 2.035 . S
O151 C153 1.258 . S
C152 O146 1.247 . S
C152 O147 1.258 . S
C153 O150 1.247 . S
C153 O151 1.258 . S
C154 O156 1.247 . S
C154 O158 1.258 . S
C155 O162 1.247 . S
C155 O163 1.258 . S
O156 C154 1.247 . S
O156 Zn157 2.028 . S
Zn157 O156 2.028 . S
Zn157 O161 2.035 . S
Zn157 O163 2.035 . S
Zn157 O164 2.028 . S
O158 C154 1.258 . S
O158 Zn159 2.035 . S
Zn159 O158 2.035 . S
Zn159 O160 2.028 . S
Zn159 O162 2.028 . S
Zn159 O165 2.035 . S
O160 Zn159 2.028 . S
O160 C166 1.247 . S
O161 Zn157 2.035 . S
O161 C166 1.258 . S
O162 C155 1.247 . S
O162 Zn159 2.028 . S
O163 C155 1.258 . S
O163 Zn157 2.035 . S
O164 Zn157 2.028 . S
O164 C167 1.247 . S
O165 Zn159 2.035 . S
O165 C167 1.258 . S
C166 O160 1.247 . S
C166 O161 1.258 . S
C167 O164 1.247 . S
C167 O165 1.258 . S
C168 C169 1.349 . S
C168 C170 1.327 . S
C168 H193 0.950 . S
C169 C168 1.349 . S
C169 C185 1.349 . S
C170 C168 1.327 . S
C170 C189 1.429 . S
C170 H194 0.950 . S
C171 C188 1.574 1_556 S
C171 C190 1.368 . S
C171 H195 0.949 . S
H172 C176 0.949 . S
C173 C174 1.349 . S
C173 C175 1.327 . S
C173 H196 0.950 . S
C174 C173 1.349 . S
C174 C186 1.349 . S
C175 C173 1.327 . S
C175 C191 1.429 . S
C175 H197 0.950 . S
C176 H172 0.949 . S
C176 C184 1.574 1_554 S
C176 C192 1.368 . S
H177 C185 0.950 . S
H178 C183 0.950 . S
H179 C184 0.949 . S
H180 C186 0.950 . S
H181 C187 0.950 . S
H182 C188 0.949 . S
C183 H178 0.950 . S
C183 C185 1.327 . S
C183 C189 1.429 . S
C184 C176 1.574 1_556 S
C184 H179 0.949 . S
C184 C190 1.368 . S
C185 C169 1.349 . S
C185 H177 0.950 . S
C185 C183 1.327 . S
C186 C174 1.349 . S
C186 H180 0.950 . S
C186 C187 1.327 . S
C187 H181 0.950 . S
C187 C186 1.327 . S
C187 C191 1.429 . S
C188 C171 1.574 1_554 S
C188 H182 0.949 . S
C188 C192 1.368 . S
C189 C170 1.429 . S
C189 C183 1.429 . S
C189 C190 1.523 . S
C190 C171 1.368 . S
C190 C184 1.368 . S
C190 C189 1.523 . S
C191 C175 1.429 . S
C191 C187 1.429 . S
C191 C192 1.523 . S
C192 C176 1.368 . S
C192 C188 1.368 . S
C192 C191 1.523 . S
H193 C168 0.950 . S
H194 C170 0.950 . S
H195 C171 0.949 . S
H196 C173 0.950 . S
H197 C175 0.950 . S
C198 C199 1.349 . S
C198 C200 1.327 . S
C198 H223 0.950 . S
C199 C198 1.349 . S
C199 C215 1.349 . S
C200 C198 1.327 . S
C200 C219 1.429 . S
C200 H224 0.950 . S
C201 C218 1.574 . S
C201 C220 1.368 . S
C201 H225 0.949 . S
H202 C206 0.949 . S
C203 C204 1.349 . S
C203 C205 1.327 . S
C203 H226 0.950 . S
C204 C203 1.349 . S
C204 C216 1.349 . S
C205 C203 1.327 . S
C205 C221 1.429 . S
C205 H227 0.950 . S
C206 H202 0.949 . S
C206 C214 1.574 . S
C206 C222 1.368 . S
H207 C215 0.950 . S
H208 C213 0.950 . S
H209 C214 0.949 . S
H210 C216 0.950 . S
H211 C217 0.950 . S
H212 C218 0.949 . S
C213 H208 0.950 . S
C213 C215 1.327 . S
C213 C219 1.429 . S
C214 C206 1.574 . S
C214 H209 0.949 . S
C214 C220 1.368 . S
C215 C199 1.349 . S
C215 H207 0.950 . S
C215 C213 1.327 . S
C216 C204 1.349 . S
C216 H210 0.950 . S
C216 C217 1.327 . S
C217 H211 0.950 . S
C217 C216 1.327 . S
C217 C221 1.429 . S
C218 C201 1.574 . S
C218 H212 0.949 . S
C218 C222 1.368 . S
C219 C200 1.429 . S
C219 C213 1.429 . S
C219 C220 1.523 . S
C220 C201 1.368 . S
C220 C214 1.368 . S
C220 C219 1.523 . S
C221 C205 1.429 . S
C221 C217 1.429 . S
C221 C222 1.523 . S
C222 C206 1.368 . S
C222 C218 1.368 . S
C222 C221 1.523 . S
H223 C198 0.950 . S
H224 C200 0.950 . S
H225 C201 0.949 . S
H226 C203 0.950 . S
H227 C205 0.950 . S
C228 C229 1.349 . S
C228 C230 1.327 . S
C228 H253 0.950 . S
C229 C228 1.349 . S
C229 C245 1.349 . S
C230 C228 1.327 . S
C230 C249 1.429 . S
C230 H254 0.950 . S
C231 C248 1.574 . S
C231 C250 1.368 . S
C231 H255 0.949 . S
H232 C236 0.949 . S
C233 C234 1.349 . S
C233 C235 1.327 . S
C233 H256 0.950 . S
C234 C233 1.349 . S
C234 C246 1.349 . S
C235 C233 1.327 . S
C235 C251 1.429 . S
C235 H257 0.950 . S
C236 H232 0.949 . S
C236 C244 1.574 . S
C236 C252 1.368 . S
H237 C245 0.950 . S
H238 C243 0.950 . S
H239 C244 0.949 . S
H240 C246 0.950 . S
H241 C247 0.950 . S
H242 C248 0.949 . S
C243 H238 0.950 . S
C243 C245 1.327 . S
C243 C249 1.429 . S
C244 C236 1.574 . S
C244 H239 0.949 . S
C244 C250 1.368 . S
C245 C229 1.349 . S
C245 H237 0.950 . S
C245 C243 1.327 . S
C246 C234 1.349 . S
C246 H240 0.950 . S
C246 C247 1.327 . S
C247 H241 0.950 . S
C247 C246 1.327 . S
C247 C251 1.429 . S
C248 C231 1.574 . S
C248 H242 0.949 . S
C248 C252 1.368 . S
C249 C230 1.429 . S
C249 C243 1.429 . S
C249 C250 1.523 . S
C250 C231 1.368 . S
C250 C244 1.368 . S
C250 C249 1.523 . S
C251 C235 1.429 . S
C251 C247 1.429 . S
C251 C252 1.523 . S
C252 C236 1.368 . S
C252 C248 1.368 . S
C252 C251 1.523 . S
H253 C228 0.950 . S
H254 C230 0.950 . S
H255 C231 0.949 . S
H256 C233 0.950 . S
H257 C235 0.950 . S
C258 C259 1.349 . S
C258 C260 1.327 . S
C258 H283 0.950 . S
C259 C258 1.349 . S
C259 C275 1.349 . S
C260 C258 1.327 . S
C260 C279 1.429 . S
C260 H284 0.950 . S
C261 C278 1.574 1_554 S
C261 C280 1.368 . S
C261 H285 0.949 . S
H262 C266 0.949 . S
C263 C264 1.349 . S
C263 C265 1.327 . S
C263 H286 0.950 . S
C264 C263 1.349 . S
C264 C276 1.349 . S
C265 C263 1.327 . S
C265 C281 1.429 . S
C265 H287 0.950 . S
C266 H262 0.949 . S
C266 C274 1.574 1_556 S
C266 C282 1.368 . S
H267 C275 0.950 . S
H268 C273 0.950 . S
H269 C274 0.949 . S
H270 C276 0.950 . S
H271 C277 0.950 . S
H272 C278 0.949 . S
C273 H268 0.950 . S
C273 C275 1.327 . S
C273 C279 1.429 . S
C274 C266 1.574 1_554 S
C274 H269 0.949 . S
C274 C280 1.368 . S
C275 C259 1.349 . S
C275 H267 0.950 . S
C275 C273 1.327 . S
C276 C264 1.349 . S
C276 H270 0.950 . S
C276 C277 1.327 . S
C277 H271 0.950 . S
C277 C276 1.327 . S
C277 C281 1.429 . S
C278 C261 1.574 1_556 S
C278 H272 0.949 . S
C278 C282 1.368 . S
C279 C260 1.429 . S
C279 C273 1.429 . S
C279 C280 1.523 . S
C280 C261 1.368 . S
C280 C274 1.368 . S
C280 C279 1.523 . S
C281 C265 1.429 . S
C281 C277 1.429 . S
C281 C282 1.523 . S
C282 C266 1.368 . S
C282 C278 1.368 . S
C282 C281 1.523 . S
H283 C258 0.950 . S
H284 C260 0.950 . S
H285 C261 0.949 . S
H286 C263 0.950 . S
H287 C265 0.950 . S
C288 C289 1.349 . S
C288 C290 1.327 . S
C288 H313 0.950 . S
C289 C288 1.349 . S
C289 C305 1.349 . S
C290 C288 1.327 . S
C290 C309 1.429 . S
C290 H314 0.950 . S
C291 C308 1.574 . S
C291 C310 1.368 . S
C291 H315 0.949 . S
H292 C296 0.949 . S
C293 C294 1.349 . S
C293 C295 1.327 . S
C293 H316 0.950 . S
C294 C293 1.349 . S
C294 C306 1.349 . S
C295 C293 1.327 . S
C295 C311 1.429 . S
C295 H317 0.950 . S
C296 H292 0.949 . S
C296 C304 1.574 . S
C296 C312 1.368 . S
H297 C305 0.950 . S
H298 C303 0.950 . S
H299 C304 0.949 . S
H300 C306 0.950 . S
H301 C307 0.950 . S
H302 C308 0.949 . S
C303 H298 0.950 . S
C303 C305 1.327 . S
C303 C309 1.429 . S
C304 C296 1.574 . S
C304 H299 0.949 . S
C304 C310 1.368 . S
C305 C289 1.349 . S
C305 H297 0.950 . S
C305 C303 1.327 . S
C306 C294 1.349 . S
C306 H300 0.950 . S
C306 C307 1.327 . S
C307 H301 0.950 . S
C307 C306 1.327 . S
C307 C311 1.429 . S
C308 C291 1.574 . S
C308 H302 0.949 . S
C308 C312 1.368 . S
C309 C290 1.429 . S
C309 C303 1.429 . S
C309 C310 1.523 . S
C310 C291 1.368 . S
C310 C304 1.368 . S
C310 C309 1.523 . S
C311 C295 1.429 . S
C311 C307 1.429 . S
C311 C312 1.523 . S
C312 C296 1.368 . S
C312 C308 1.368 . S
C312 C311 1.523 . S
H313 C288 0.950 . S
H314 C290 0.950 . S
H315 C291 0.949 . S
H316 C293 0.950 . S
H317 C295 0.950 . S
C318 C319 1.349 . S
C318 C320 1.327 . S
C318 H343 0.950 . S
C319 C318 1.349 . S
C319 C335 1.349 . S
C320 C318 1.327 . S
C320 C339 1.429 . S
C320 H344 0.950 . S
C321 C338 1.574 . S
C321 C340 1.368 . S
C321 H345 0.949 . S
H322 C326 0.949 . S
C323 C324 1.349 . S
C323 C325 1.327 . S
C323 H346 0.950 . S
C324 C323 1.349 . S
C324 C336 1.349 . S
C325 C323 1.327 . S
C325 C341 1.429 . S
C325 H347 0.950 . S
C326 H322 0.949 . S
C326 C334 1.574 . S
C326 C342 1.368 . S
H327 C335 0.950 . S
H328 C333 0.950 . S
H329 C334 0.949 . S
H330 C336 0.950 . S
H331 C337 0.950 . S
H332 C338 0.949 . S
C333 H328 0.950 . S
C333 C335 1.327 . S
C333 C339 1.429 . S
C334 C326 1.574 . S
C334 H329 0.949 . S
C334 C340 1.368 . S
C335 C319 1.349 . S
C335 H327 0.950 . S
C335 C333 1.327 . S
C336 C324 1.349 . S
C336 H330 0.950 . S
C336 C337 1.327 . S
C337 H331 0.950 . S
C337 C336 1.327 . S
C337 C341 1.429 . S
C338 C321 1.574 . S
C338 H332 0.949 . S
C338 C342 1.368 . S
C339 C320 1.429 . S
C339 C333 1.429 . S
C339 C340 1.523 . S
C340 C321 1.368 . S
C340 C334 1.368 . S
C340 C339 1.523 . S
C341 C325 1.429 . S
C341 C337 1.429 . S
C341 C342 1.523 . S
C342 C326 1.368 . S
C342 C338 1.368 . S
C342 C341 1.523 . S
H343 C318 0.950 . S
H344 C320 0.950 . S
H345 C321 0.949 . S
H346 C323 0.950 . S
H347 C325 0.950 . S
C348 C349 1.349 . S
C348 C350 1.327 . S
C348 H373 0.950 . S
C349 C348 1.349 . S
C349 C365 1.349 . S
C350 C348 1.327 . S
C350 C369 1.429 . S
C350 H374 0.950 . S
C351 C368 1.574 . S
C351 C370 1.368 . S
C351 H375 0.949 . S
H352 C356 0.949 . S
C353 C354 1.349 . S
C353 C355 1.327 . S
C353 H376 0.950 . S
C354 C353 1.349 . S
C354 C366 1.349 . S
C355 C353 1.327 . S
C355 C371 1.429 . S
C355 H377 0.950 . S
C356 H352 0.949 . S
C356 C364 1.574 . S
C356 C372 1.368 . S
H357 C365 0.950 . S
H358 C363 0.950 . S
H359 C364 0.949 . S
H360 C366 0.950 . S
H361 C367 0.950 . S
H362 C368 0.949 . S
C363 H358 0.950 . S
C363 C365 1.327 . S
C363 C369 1.429 . S
C364 C356 1.574 . S
C364 H359 0.949 . S
C364 C370 1.368 . S
C365 C349 1.349 . S
C365 H357 0.950 . S
C365 C363 1.327 . S
C366 C354 1.349 . S
C366 H360 0.950 . S
C366 C367 1.327 . S
C367 H361 0.950 . S
C367 C366 1.327 . S
C367 C371 1.429 . S
C368 C351 1.574 . S
C368 H362 0.949 . S
C368 C372 1.368 . S
C369 C350 1.429 . S
C369 C363 1.429 . S
C369 C370 1.523 . S
C370 C351 1.368 . S
C370 C364 1.368 . S
C370 C369 1.523 . S
C371 C355 1.429 . S
C371 C367 1.429 . S
C371 C372 1.523 . S
C372 C356 1.368 . S
C372 C368 1.368 . S
C372 C371 1.523 . S
H373 C348 0.950 . S
H374 C350 0.950 . S
H375 C351 0.949 . S
H376 C353 0.950 . S
H377 C355 0.950 . S
C378 C379 1.349 . S
C378 C380 1.327 . S
C378 H403 0.950 . S
C379 C378 1.349 . S
C379 C395 1.349 . S
C380 C378 1.327 . S
C380 C399 1.429 . S
C380 H404 0.950 . S
C381 C398 1.574 . S
C381 C400 1.368 . S
C381 H405 0.949 . S
H382 C386 0.949 . S
C383 C384 1.349 . S
C383 C385 1.327 . S
C383 H406 0.950 . S
C384 C383 1.349 . S
C384 C396 1.349 . S
C385 C383 1.327 . S
C385 C401 1.429 . S
C385 H407 0.950 . S
C386 H382 0.949 . S
C386 C394 1.574 . S
C386 C402 1.368 . S
H387 C395 0.950 . S
H388 C393 0.950 . S
H389 C394 0.949 . S
H390 C396 0.950 . S
H391 C397 0.950 . S
H392 C398 0.949 . S
C393 H388 0.950 . S
C393 C395 1.327 . S
C393 C399 1.429 . S
C394 C386 1.574 . S
C394 H389 0.949 . S
C394 C400 1.368 . S
C395 C379 1.349 . S
C395 H387 0.950 . S
C395 C393 1.327 . S
C396 C384 1.349 . S
C396 H390 0.950 . S
C396 C397 1.327 . S
C397 H391 0.950 . S
C397 C396 1.327 . S
C397 C401 1.429 . S
C398 C381 1.574 . S
C398 H392 0.949 . S
C398 C402 1.368 . S
C399 C380 1.429 . S
C399 C393 1.429 . S
C399 C400 1.523 . S
C400 C381 1.368 . S
C400 C394 1.368 . S
C400 C399 1.523 . S
C401 C385 1.429 . S
C401 C397 1.429 . S
C401 C402 1.523 . S
C402 C386 1.368 . S
C402 C398 1.368 . S
C402 C401 1.523 . S
H403 C378 0.950 . S
H404 C380 0.950 . S
H405 C381 0.949 . S
H406 C383 0.950 . S
H407 C385 0.950 . S
C408 C409 1.349 . S
C408 C410 1.327 . S
C408 H433 0.950 . S
C409 C408 1.349 . S
C409 C425 1.349 . S
C410 C408 1.327 . S
C410 C429 1.429 . S
C410 H434 0.950 . S
C411 C428 1.574 . S
C411 C430 1.368 . S
C411 H435 0.949 . S
H412 C416 0.949 . S
C413 C414 1.349 . S
C413 C415 1.327 . S
C413 H436 0.950 . S
C414 C413 1.349 . S
C414 C426 1.349 . S
C415 C413 1.327 . S
C415 C431 1.429 . S
C415 H437 0.950 . S
C416 H412 0.949 . S
C416 C424 1.574 . S
C416 C432 1.368 . S
H417 C425 0.950 . S
H418 C423 0.950 . S
H419 C424 0.949 . S
H420 C426 0.950 . S
H421 C427 0.950 . S
H422 C428 0.949 . S
C423 H418 0.950 . S
C423 C425 1.327 . S
C423 C429 1.429 . S
C424 C416 1.574 . S
C424 H419 0.949 . S
C424 C430 1.368 . S
C425 C409 1.349 . S
C425 H417 0.950 . S
C425 C423 1.327 . S
C426 C414 1.349 . S
C426 H420 0.950 . S
C426 C427 1.327 . S
C427 H421 0.950 . S
C427 C426 1.327 . S
C427 C431 1.429 . S
C428 C411 1.574 . S
C428 H422 0.949 . S
C428 C432 1.368 . S
C429 C410 1.429 . S
C429 C423 1.429 . S
C429 C430 1.523 . S
C430 C411 1.368 . S
C430 C424 1.368 . S
C430 C429 1.523 . S
C431 C415 1.429 . S
C431 C427 1.429 . S
C431 C432 1.523 . S
C432 C416 1.368 . S
C432 C428 1.368 . S
C432 C431 1.523 . S
H433 C408 0.950 . S
H434 C410 0.950 . S
H435 C411 0.949 . S
H436 C413 0.950 . S
H437 C415 0.950 . S
C438 C439 1.349 . S
C438 C440 1.327 . S
C438 H463 0.950 . S
C439 C438 1.349 . S
C439 C455 1.349 . S
C440 C438 1.327 . S
C440 C459 1.429 . S
C440 H464 0.950 . S
C441 C458 1.574 . S
C441 C460 1.368 . S
C441 H465 0.949 . S
H442 C446 0.949 . S
C443 C444 1.349 . S
C443 C445 1.327 . S
C443 H466 0.950 . S
C444 C443 1.349 . S
C444 C456 1.349 . S
C445 C443 1.327 . S
C445 C461 1.429 . S
C445 H467 0.950 . S
C446 H442 0.949 . S
C446 C454 1.574 . S
C446 C462 1.368 . S
H447 C455 0.950 . S
H448 C453 0.950 . S
H449 C454 0.949 . S
H450 C456 0.950 . S
H451 C457 0.950 . S
H452 C458 0.949 . S
C453 H448 0.950 . S
C453 C455 1.327 . S
C453 C459 1.429 . S
C454 C446 1.574 . S
C454 H449 0.949 . S
C454 C460 1.368 . S
C455 C439 1.349 . S
C455 H447 0.950 . S
C455 C453 1.327 . S
C456 C444 1.349 . S
C456 H450 0.950 . S
C456 C457 1.327 . S
C457 H451 0.950 . S
C457 C456 1.327 . S
C457 C461 1.429 . S
C458 C441 1.574 . S
C458 H452 0.949 . S
C458 C462 1.368 . S
C459 C440 1.429 . S
C459 C453 1.429 . S
C459 C460 1.523 . S
C460 C441 1.368 . S
C460 C454 1.368 . S
C460 C459 1.523 . S
C461 C445 1.429 . S
C461 C457 1.429 . S
C461 C462 1.523 . S
C462 C446 1.368 . S
C462 C458 1.368 . S
C462 C461 1.523 . S
H463 C438 0.950 . S
H464 C440 0.950 . S
H465 C441 0.949 . S
H466 C443 0.950 . S
H467 C445 0.950 . S
C468 C469 1.349 . S
C468 C470 1.327 . S
C468 H493 0.950 . S
C469 C468 1.349 . S
C469 C485 1.349 . S
C470 C468 1.327 . S
C470 C489 1.429 . S
C470 H494 0.950 . S
C471 C488 1.574 . S
C471 C490 1.368 . S
C471 H495 0.949 . S
H472 C476 0.949 . S
C473 C474 1.349 . S
C473 C475 1.327 . S
C473 H496 0.950 . S
C474 C473 1.349 . S
C474 C486 1.349 . S
C475 C473 1.327 . S
C475 C491 1.429 . S
C475 H497 0.950 . S
C476 H472 0.949 . S
C476 C484 1.574 . S
C476 C492 1.368 . S
H477 C485 0.950 . S
H478 C483 0.950 . S
H479 C484 0.949 . S
H480 C486 0.950 . S
H481 C487 0.950 . S
H482 C488 0.949 . S
C483 H478 0.950 . S
C483 C485 1.327 . S
C483 C489 1.429 . S
C484 C476 1.574 . S
C484 H479 0.949 . S
C484 C490 1.368 . S
C485 C469 1.349 . S
C485 H477 0.950 . S
C485 C483 1.327 . S
C486 C474 1.349 . S
C486 H480 0.950 . S
C486 C487 1.327 . S
C487 H481 0.950 . S
C487 C486 1.327 . S
C487 C491 1.429 . S
C488 C471 1.574 . S
C488 H482 0.949 . S
C488 C492 1.368 . S
C489 C470 1.429 . S
C489 C483 1.429 . S
C489 C490 1.523 . S
C490 C471 1.368 . S
C490 C484 1.368 . S
C490 C489 1.523 . S
C491 C475 1.429 . S
C491 C487 1.429 . S
C491 C492 1.523 . S
C492 C476 1.368 . S
C492 C488 1.368 . S
C492 C491 1.523 . S
H493 C468 0.950 . S
H494 C470 0.950 . S
H495 C471 0.949 . S
H496 C473 0.950 . S
H497 C475 0.950 . S
C498 C499 1.349 . S
C498 C500 1.327 . S
C498 H523 0.950 . S
C499 C498 1.349 . S
C499 C515 1.349 . S
C500 C498 1.327 . S
C500 C519 1.429 . S
C500 H524 0.950 . S
C501 C518 1.574 . S
C501 C520 1.368 . S
C501 H525 0.949 . S
H502 C506 0.949 . S
C503 C504 1.349 . S
C503 C505 1.327 . S
C503 H526 0.950 . S
C504 C503 1.349 . S
C504 C516 1.349 . S
C505 C503 1.327 . S
C505 C521 1.429 . S
C505 H527 0.950 . S
C506 H502 0.949 . S
C506 C514 1.574 . S
C506 C522 1.368 . S
H507 C515 0.950 . S
H508 C513 0.950 . S
H509 C514 0.949 . S
H510 C516 0.950 . S
H511 C517 0.950 . S
H512 C518 0.949 . S
C513 H508 0.950 . S
C513 C515 1.327 . S
C513 C519 1.429 . S
C514 C506 1.574 . S
C514 H509 0.949 . S
C514 C520 1.368 . S
C515 C499 1.349 . S
C515 H507 0.950 . S
C515 C513 1.327 . S
C516 C504 1.349 . S
C516 H510 0.950 . S
C516 C517 1.327 . S
C517 H511 0.950 . S
C517 C516 1.327 . S
C517 C521 1.429 . S
C518 C501 1.574 . S
C518 H512 0.949 . S
C518 C522 1.368 . S
C519 C500 1.429 . S
C519 C513 1.429 . S
C519 C520 1.523 . S
C520 C501 1.368 . S
C520 C514 1.368 . S
C520 C519 1.523 . S
C521 C505 1.429 . S
C521 C517 1.429 . S
C521 C522 1.523 . S
C522 C506 1.368 . S
C522 C518 1.368 . S
C522 C521 1.523 . S
H523 C498 0.950 . S
H524 C500 0.950 . S
H525 C501 0.949 . S
H526 C503 0.950 . S
H527 C505 0.950 . S
C528 C529 1.349 . S
C528 C530 1.327 . S
C528 H553 0.950 . S
C529 C528 1.349 . S
C529 C545 1.349 . S
C530 C528 1.327 . S
C530 C549 1.429 . S
C530 H554 0.950 . S
C531 C548 1.574 1_655 S
C531 C550 1.368 . S
C531 H555 0.949 . S
H532 C536 0.949 . S
C533 C534 1.349 . S
C533 C535 1.327 . S
C533 H556 0.950 . S
C534 C533 1.349 . S
C534 C546 1.349 . S
C535 C533 1.327 . S
C535 C551 1.429 . S
C535 H557 0.950 . S
C536 H532 0.949 . S
C536 C544 1.574 1_455 S
C536 C552 1.368 . S
H537 C545 0.950 . S
H538 C543 0.950 . S
H539 C544 0.949 . S
H540 C546 0.950 . S
H541 C547 0.950 . S
H542 C548 0.949 . S
C543 H538 0.950 . S
C543 C545 1.327 . S
C543 C549 1.429 . S
C544 C536 1.574 1_655 S
C544 H539 0.949 . S
C544 C550 1.368 . S
C545 C529 1.349 . S
C545 H537 0.950 . S
C545 C543 1.327 . S
C546 C534 1.349 . S
C546 H540 0.950 . S
C546 C547 1.327 . S
C547 H541 0.950 . S
C547 C546 1.327 . S
C547 C551 1.429 . S
C548 C531 1.574 1_455 S
C548 H542 0.949 . S
C548 C552 1.368 . S
C549 C530 1.429 . S
C549 C543 1.429 . S
C549 C550 1.523 . S
C550 C531 1.368 . S
C550 C544 1.368 . S
C550 C549 1.523 . S
C551 C535 1.429 . S
C551 C547 1.429 . S
C551 C552 1.523 . S
C552 C536 1.368 . S
C552 C548 1.368 . S
C552 C551 1.523 . S
H553 C528 0.950 . S
H554 C530 0.950 . S
H555 C531 0.949 . S
H556 C533 0.950 . S
H557 C535 0.950 . S
C558 C559 1.349 . S
C558 C560 1.327 . S
C558 H583 0.950 . S
C559 C558 1.349 . S
C559 C575 1.349 . S
C560 C558 1.327 . S
C560 C579 1.429 . S
C560 H584 0.950 . S
C561 C578 1.574 1_545 S
C561 C580 1.368 . S
C561 H585 0.949 . S
H562 C566 0.949 . S
C563 C564 1.349 . S
C563 C565 1.327 . S
C563 H586 0.950 . S
C564 C563 1.349 . S
C564 C576 1.349 . S
C565 C563 1.327 . S
C565 C581 1.429 . S
C565 H587 0.950 . S
C566 H562 0.949 . S
C566 C574 1.574 1_565 S
C566 C582 1.368 . S
H567 C575 0.950 . S
H568 C573 0.950 . S
H569 C574 0.949 . S
H570 C576 0.950 . S
H571 C577 0.950 . S
H572 C578 0.949 . S
C573 H568 0.950 . S
C573 C575 1.327 . S
C573 C579 1.429 . S
C574 C566 1.574 1_545 S
C574 H569 0.949 . S
C574 C580 1.368 . S
C575 C559 1.349 . S
C575 H567 0.950 . S
C575 C573 1.327 . S
C576 C564 1.349 . S
C576 H570 0.950 . S
C576 C577 1.327 . S
C577 H571 0.950 . S
C577 C576 1.327 . S
C577 C581 1.429 . S
C578 C561 1.574 1_565 S
C578 H572 0.949 . S
C578 C582 1.368 . S
C579 C560 1.429 . S
C579 C573 1.429 . S
C579 C580 1.523 . S
C580 C561 1.368 . S
C580 C574 1.368 . S
C580 C579 1.523 . S
C581 C565 1.429 . S
C581 C577 1.429 . S
C581 C582 1.523 . S
C582 C566 1.368 . S
C582 C578 1.368 . S
C582 C581 1.523 . S
H583 C558 0.950 . S
H584 C560 0.950 . S
H585 C561 0.949 . S
H586 C563 0.950 . S
H587 C565 0.950 . S
C588 C589 1.349 . S
C588 C590 1.327 . S
C588 H613 0.950 . S
C589 C588 1.349 . S
C589 C605 1.349 . S
C590 C588 1.327 . S
C590 C609 1.429 . S
C590 H614 0.950 . S
C591 C608 1.574 . S
C591 C610 1.368 . S
C591 H615 0.949 . S
H592 C596 0.949 . S
C593 C594 1.349 . S
C593 C595 1.327 . S
C593 H616 0.950 . S
C594 C593 1.349 . S
C594 C606 1.349 . S
C595 C593 1.327 . S
C595 C611 1.429 . S
C595 H617 0.950 . S
C596 H592 0.949 . S
C596 C604 1.574 . S
C596 C612 1.368 . S
H597 C605 0.950 . S
H598 C603 0.950 . S
H599 C604 0.949 . S
H600 C606 0.950 . S
H601 C607 0.950 . S
H602 C608 0.949 . S
C603 H598 0.950 . S
C603 C605 1.327 . S
C603 C609 1.429 . S
C604 C596 1.574 . S
C604 H599 0.949 . S
C604 C610 1.368 . S
C605 C589 1.349 . S
C605 H597 0.950 . S
C605 C603 1.327 . S
C606 C594 1.349 . S
C606 H600 0.950 . S
C606 C607 1.327 . S
C607 H601 0.950 . S
C607 C606 1.327 . S
C607 C611 1.429 . S
C608 C591 1.574 . S
C608 H602 0.949 . S
C608 C612 1.368 . S
C609 C590 1.429 . S
C609 C603 1.429 . S
C609 C610 1.523 . S
C610 C591 1.368 . S
C610 C604 1.368 . S
C610 C609 1.523 . S
C611 C595 1.429 . S
C611 C607 1.429 . S
C611 C612 1.523 . S
C612 C596 1.368 . S
C612 C608 1.368 . S
C612 C611 1.523 . S
H613 C588 0.950 . S
H614 C590 0.950 . S
H615 C591 0.949 . S
H616 C593 0.950 . S
H617 C595 0.950 . S
C618 C619 1.349 . S
C618 C620 1.327 . S
C618 H643 0.950 . S
C619 C618 1.349 . S
C619 C635 1.349 . S
C620 C618 1.327 . S
C620 C639 1.429 . S
C620 H644 0.950 . S
C621 C638 1.574 1_545 S
C621 C640 1.368 . S
C621 H645 0.949 . S
H622 C626 0.949 . S
C623 C624 1.349 . S
C623 C625 1.327 . S
C623 H646 0.950 . S
C624 C623 1.349 . S
C624 C636 1.349 . S
C625 C623 1.327 . S
C625 C641 1.429 . S
C625 H647 0.950 . S
C626 H622 0.949 . S
C626 C634 1.574 1_565 S
C626 C642 1.368 . S
H627 C635 0.950 . S
H628 C633 0.950 . S
H629 C634 0.949 . S
H630 C636 0.950 . S
H631 C637 0.950 . S
H632 C638 0.949 . S
C633 H628 0.950 . S
C633 C635 1.327 . S
C633 C639 1.429 . S
C634 C626 1.574 1_545 S
C634 H629 0.949 . S
C634 C640 1.368 . S
C635 C619 1.349 . S
C635 H627 0.950 . S
C635 C633 1.327 . S
C636 C624 1.349 . S
C636 H630 0.950 . S
C636 C637 1.327 . S
C637 H631 0.950 . S
C637 C636 1.327 . S
C637 C641 1.429 . S
C638 C621 1.574 1_565 S
C638 H632 0.949 . S
C638 C642 1.368 . S
C639 C620 1.429 . S
C639 C633 1.429 . S
C639 C640 1.523 . S
C640 C621 1.368 . S
C640 C634 1.368 . S
C640 C639 1.523 . S
C641 C625 1.429 . S
C641 C637 1.429 . S
C641 C642 1.523 . S
C642 C626 1.368 . S
C642 C638 1.368 . S
C642 C641 1.523 . S
H643 C618 0.950 . S
H644 C620 0.950 . S
H645 C621 0.949 . S
H646 C623 0.950 . S
H647 C625 0.950 . S
C648 C649 1.349 . S
C648 C650 1.327 . S
C648 H673 0.950 . S
C649 C648 1.349 . S
C649 C665 1.349 . S
C650 C648 1.327 . S
C650 C669 1.429 . S
C650 H674 0.950 . S
C651 C668 1.574 . S
C651 C670 1.368 . S
C651 H675 0.949 . S
H652 C656 0.949 . S
C653 C654 1.349 . S
C653 C655 1.327 . S
C653 H676 0.950 . S
C654 C653 1.349 . S
C654 C666 1.349 . S
C655 C653 1.327 . S
C655 C671 1.429 . S
C655 H677 0.950 . S
C656 H652 0.949 . S
C656 C664 1.574 . S
C656 C672 1.368 . S
H657 C665 0.950 . S
H658 C663 0.950 . S
H659 C664 0.949 . S
H660 C666 0.950 . S
H661 C667 0.950 . S
H662 C668 0.949 . S
C663 H658 0.950 . S
C663 C665 1.327 . S
C663 C669 1.429 . S
C664 C656 1.574 . S
C664 H659 0.949 . S
C664 C670 1.368 . S
C665 C649 1.349 . S
C665 H657 0.950 . S
C665 C663 1.327 . S
C666 C654 1.349 . S
C666 H660 0.950 . S
C666 C667 1.327 . S
C667 H661 0.950 . S
C667 C666 1.327 . S
C667 C671 1.429 . S
C668 C651 1.574 . S
C668 H662 0.949 . S
C668 C672 1.368 . S
C669 C650 1.429 . S
C669 C663 1.429 . S
C669 C670 1.523 . S
C670 C651 1.368 . S
C670 C664 1.368 . S
C670 C669 1.523 . S
C671 C655 1.429 . S
C671 C667 1.429 . S
C671 C672 1.523 . S
C672 C656 1.368 . S
C672 C668 1.368 . S
C672 C671 1.523 . S
H673 C648 0.950 . S
H674 C650 0.950 . S
H675 C651 0.949 . S
H676 C653 0.950 . S
H677 C655 0.950 . S
C678 C679 1.349 . S
C678 C680 1.327 . S
C678 H703 0.950 . S
C679 C678 1.349 . S
C679 C695 1.349 . S
C680 C678 1.327 . S
C680 C699 1.429 . S
C680 H704 0.950 . S
C681 C698 1.574 1_455 S
C681 C700 1.368 . S
C681 H705 0.949 . S
H682 C686 0.949 . S
C683 C684 1.349 . S
C683 C685 1.327 . S
C683 H706 0.950 . S
C684 C683 1.349 . S
C684 C696 1.349 . S
C685 C683 1.327 . S
C685 C701 1.429 . S
C685 H707 0.950 . S
C686 H682 0.949 . S
C686 C694 1.574 1_655 S
C686 C702 1.368 . S
H687 C695 0.950 . S
H688 C693 0.950 . S
H689 C694 0.949 . S
H690 C696 0.950 . S
H691 C697 0.950 . S
H692 C698 0.949 . S
C693 H688 0.950 . S
C693 C695 1.327 . S
C693 C699 1.429 . S
C694 C686 1.574 1_455 S
C694 H689 0.949 . S
C694 C700 1.368 . S
C695 C679 1.349 . S
C695 H687 0.950 . S
C695 C693 1.327 . S
C696 C684 1.349 . S
C696 H690 0.950 . S
C696 C697 1.327 . S
C697 H691 0.950 . S
C697 C696 1.327 . S
C697 C701 1.429 . S
C698 C681 1.574 1_655 S
C698 H692 0.949 . S
C698 C702 1.368 . S
C699 C680 1.429 . S
C699 C693 1.429 . S
C699 C700 1.523 . S
C700 C681 1.368 . S
C700 C694 1.368 . S
C700 C699 1.523 . S
C701 C685 1.429 . S
C701 C697 1.429 . S
C701 C702 1.523 . S
C702 C686 1.368 . S
C702 C698 1.368 . S
C702 C701 1.523 . S
H703 C678 0.950 . S
H704 C680 0.950 . S
H705 C681 0.949 . S
H706 C683 0.950 . S
H707 C685 0.950 . S
C708 C709 1.349 . S
C708 C710 1.327 . S
C708 H733 0.950 . S
C709 C708 1.349 . S
C709 C725 1.349 . S
C710 C708 1.327 . S
C710 C729 1.429 . S
C710 H734 0.950 . S
C711 C728 1.574 . S
C711 C730 1.368 . S
C711 H735 0.949 . S
H712 C716 0.949 . S
C713 C714 1.349 . S
C713 C715 1.327 . S
C713 H736 0.950 . S
C714 C713 1.349 . S
C714 C726 1.349 . S
C715 C713 1.327 . S
C715 C731 1.429 . S
C715 H737 0.950 . S
C716 H712 0.949 . S
C716 C724 1.574 . S
C716 C732 1.368 . S
H717 C725 0.950 . S
H718 C723 0.950 . S
H719 C724 0.949 . S
H720 C726 0.950 . S
H721 C727 0.950 . S
H722 C728 0.949 . S
C723 H718 0.950 . S
C723 C725 1.327 . S
C723 C729 1.429 . S
C724 C716 1.574 . S
C724 H719 0.949 . S
C724 C730 1.368 . S
C725 C709 1.349 . S
C725 H717 0.950 . S
C725 C723 1.327 . S
C726 C714 1.349 . S
C726 H720 0.950 . S
C726 C727 1.327 . S
C727 H721 0.950 . S
C727 C726 1.327 . S
C727 C731 1.429 . S
C728 C711 1.574 . S
C728 H722 0.949 . S
C728 C732 1.368 . S
C729 C710 1.429 . S
C729 C723 1.429 . S
C729 C730 1.523 . S
C730 C711 1.368 . S
C730 C724 1.368 . S
C730 C729 1.523 . S
C731 C715 1.429 . S
C731 C727 1.429 . S
C731 C732 1.523 . S
C732 C716 1.368 . S
C732 C728 1.368 . S
C732 C731 1.523 . S
H733 C708 0.950 . S
H734 C710 0.950 . S
H735 C711 0.949 . S
H736 C713 0.950 . S
H737 C715 0.950 . S
C738 C739 1.349 . S
C738 C740 1.327 . S
C738 H763 0.950 . S
C739 C738 1.349 . S
C739 C755 1.349 . S
C740 C738 1.327 . S
C740 C759 1.429 . S
C740 H764 0.950 . S
C741 C758 1.574 1_655 S
C741 C760 1.368 . S
C741 H765 0.949 . S
H742 C746 0.949 . S
C743 C744 1.349 . S
C743 C745 1.327 . S
C743 H766 0.950 . S
C744 C743 1.349 . S
C744 C756 1.349 . S
C745 C743 1.327 . S
C745 C761 1.429 . S
C745 H767 0.950 . S
C746 H742 0.949 . S
C746 C754 1.574 1_455 S
C746 C762 1.368 . S
H747 C755 0.950 . S
H748 C753 0.950 . S
H749 C754 0.949 . S
H750 C756 0.950 . S
H751 C757 0.950 . S
H752 C758 0.949 . S
C753 H748 0.950 . S
C753 C755 1.327 . S
C753 C759 1.429 . S
C754 C746 1.574 1_655 S
C754 H749 0.949 . S
C754 C760 1.368 . S
C755 C739 1.349 . S
C755 H747 0.950 . S
C755 C753 1.327 . S
C756 C744 1.349 . S
C756 H750 0.950 . S
C756 C757 1.327 . S
C757 H751 0.950 . S
C757 C756 1.327 . S
C757 C761 1.429 . S
C758 C741 1.574 1_455 S
C758 H752 0.949 . S
C758 C762 1.368 . S
C759 C740 1.429 . S
C759 C753 1.429 . S
C759 C760 1.523 . S
C760 C741 1.368 . S
C760 C754 1.368 . S
C760 C759 1.523 . S
C761 C745 1.429 . S
C761 C757 1.429 . S
C761 C762 1.523 . S
C762 C746 1.368 . S
C762 C758 1.368 . S
C762 C761 1.523 . S
H763 C738 0.950 . S
H764 C740 0.950 . S
H765 C741 0.949 . S
H766 C743 0.950 . S
H767 C745 0.950 . S
C768 C769 1.349 . S
C768 C770 1.327 . S
C768 H793 0.950 . S
C769 C768 1.349 . S
C769 C785 1.349 . S
C770 C768 1.327 . S
C770 C789 1.429 . S
C770 H794 0.950 . S
C771 C788 1.574 1_545 S
C771 C790 1.368 . S
C771 H795 0.949 . S
H772 C776 0.949 . S
C773 C774 1.349 . S
C773 C775 1.327 . S
C773 H796 0.950 . S
C774 C773 1.349 . S
C774 C786 1.349 . S
C775 C773 1.327 . S
C775 C791 1.429 . S
C775 H797 0.950 . S
C776 H772 0.949 . S
C776 C784 1.574 1_565 S
C776 C792 1.368 . S
H777 C785 0.950 . S
H778 C783 0.950 . S
H779 C784 0.949 . S
H780 C786 0.950 . S
H781 C787 0.950 . S
H782 C788 0.949 . S
C783 H778 0.950 . S
C783 C785 1.327 . S
C783 C789 1.429 . S
C784 C776 1.574 1_545 S
C784 H779 0.949 . S
C784 C790 1.368 . S
C785 C769 1.349 . S
C785 H777 0.950 . S
C785 C783 1.327 . S
C786 C774 1.349 . S
C786 H780 0.950 . S
C786 C787 1.327 . S
C787 H781 0.950 . S
C787 C786 1.327 . S
C787 C791 1.429 . S
C788 C771 1.574 1_565 S
C788 H782 0.949 . S
C788 C792 1.368 . S
C789 C770 1.429 . S
C789 C783 1.429 . S
C789 C790 1.523 . S
C790 C771 1.368 . S
C790 C784 1.368 . S
C790 C789 1.523 . S
C791 C775 1.429 . S
C791 C787 1.429 . S
C791 C792 1.523 . S
C792 C776 1.368 . S
C792 C788 1.368 . S
C792 C791 1.523 . S
H793 C768 0.950 . S
H794 C770 0.950 . S
H795 C771 0.949 . S
H796 C773 0.950 . S
H797 C775 0.950 . S
C798 C799 1.349 . S
C798 C800 1.327 . S
C798 H823 0.950 . S
C799 C798 1.349 . S
C799 C815 1.349 . S
C800 C798 1.327 . S
C800 C819 1.429 . S
C800 H824 0.950 . S
C801 C818 1.574 . S
C801 C820 1.368 . S
C801 H825 0.949 . S
H802 C806 0.949 . S
C803 C804 1.349 . S
C803 C805 1.327 . S
C803 H826 0.950 . S
C804 C803 1.349 . S
C804 C816 1.349 . S
C805 C803 1.327 . S
C805 C821 1.429 . S
C805 H827 0.950 . S
C806 H802 0.949 . S
C806 C814 1.574 . S
C806 C822 1.368 . S
H807 C815 0.950 . S
H808 C813 0.950 . S
H809 C814 0.949 . S
H810 C816 0.950 . S
H811 C817 0.950 . S
H812 C818 0.949 . S
C813 H808 0.950 . S
C813 C815 1.327 . S
C813 C819 1.429 . S
C814 C806 1.574 . S
C814 H809 0.949 . S
C814 C820 1.368 . S
C815 C799 1.349 . S
C815 H807 0.950 . S
C815 C813 1.327 . S
C816 C804 1.349 . S
C816 H810 0.950 . S
C816 C817 1.327 . S
C817 H811 0.950 . S
C817 C816 1.327 . S
C817 C821 1.429 . S
C818 C801 1.574 . S
C818 H812 0.949 . S
C818 C822 1.368 . S
C819 C800 1.429 . S
C819 C813 1.429 . S
C819 C820 1.523 . S
C820 C801 1.368 . S
C820 C814 1.368 . S
C820 C819 1.523 . S
C821 C805 1.429 . S
C821 C817 1.429 . S
C821 C822 1.523 . S
C822 C806 1.368 . S
C822 C818 1.368 . S
C822 C821 1.523 . S
H823 C798 0.950 . S
H824 C800 0.950 . S
H825 C801 0.949 . S
H826 C803 0.950 . S
H827 C805 0.950 . S
C828 C829 1.349 . S
C828 C830 1.327 . S
C828 H853 0.950 . S
C829 C828 1.349 . S
C829 C845 1.349 . S
C830 C828 1.327 . S
C830 C849 1.429 . S
C830 H854 0.950 . S
C831 C848 1.574 1_455 S
C831 C850 1.368 . S
C831 H855 0.949 . S
H832 C836 0.949 . S
C833 C834 1.349 . S
C833 C835 1.327 . S
C833 H856 0.950 . S
C834 C833 1.349 . S
C834 C846 1.349 . S
C835 C833 1.327 . S
C835 C851 1.429 . S
C835 H857 0.950 . S
C836 H832 0.949 . S
C836 C844 1.574 1_655 S
C836 C852 1.368 . S
H837 C845 0.950 . S
H838 C843 0.950 . S
H839 C844 0.949 . S
H840 C846 0.950 . S
H841 C847 0.950 . S
H842 C848 0.949 . S
C843 H838 0.950 . S
C843 C845 1.327 . S
C843 C849 1.429 . S
C844 C836 1.574 1_455 S
C844 H839 0.949 . S
C844 C850 1.368 . S
C845 C829 1.349 . S
C845 H837 0.950 . S
C845 C843 1.327 . S
C846 C834 1.349 . S
C846 H840 0.950 . S
C846 C847 1.327 . S
C847 H841 0.950 . S
C847 C846 1.327 . S
C847 C851 1.429 . S
C848 C831 1.574 1_655 S
C848 H842 0.949 . S
C848 C852 1.368 . S
C849 C830 1.429 . S
C849 C843 1.429 . S
C849 C850 1.523 . S
C850 C831 1.368 . S
C850 C844 1.368 . S
C850 C849 1.523 . S
C851 C835 1.429 . S
C851 C847 1.429 . S
C851 C852 1.523 . S
C852 C836 1.368 . S
C852 C848 1.368 . S
C852 C851 1.523 . S
H853 C828 0.950 . S
H854 C830 0.950 . S
H855 C831 0.949 . S
H856 C833 0.950 . S
H857 C835 0.950 . S
C858 C859 1.349 . S
C858 C860 1.327 . S
C858 H883 0.950 . S
C859 C858 1.349 . S
C859 C875 1.349 . S
C860 C858 1.327 . S
C860 C879 1.429 . S
C860 H884 0.950 . S
C861 C878 1.574 1_565 S
C861 C880 1.368 . S
C861 H885 0.949 . S
H862 C866 0.949 . S
C863 C864 1.349 . S
C863 C865 1.327 . S
C863 H886 0.950 . S
C864 C863 1.349 . S
C864 C876 1.349 . S
C865 C863 1.327 . S
C865 C881 1.429 . S
C865 H887 0.950 . S
C866 H862 0.949 . S
C866 C874 1.574 1_545 S
C866 C882 1.368 . S
H867 C875 0.950 . S
H868 C873 0.950 . S
H869 C874 0.949 . S
H870 C876 0.950 . S
H871 C877 0.950 . S
H872 C878 0.949 . S
C873 H868 0.950 . S
C873 C875 1.327 . S
C873 C879 1.429 . S
C874 C866 1.574 1_565 S
C874 H869 0.949 . S
C874 C880 1.368 . S
C875 C859 1.349 . S
C875 H867 0.950 . S
C875 C873 1.327 . S
C876 C864 1.349 . S
C876 H870 0.950 . S
C876 C877 1.327 . S
C877 H871 0.950 . S
C877 C876 1.327 . S
C877 C881 1.429 . S
C878 C861 1.574 1_545 S
C878 H872 0.949 . S
C878 C882 1.368 . S
C879 C860 1.429 . S
C879 C873 1.429 . S
C879 C880 1.523 . S
C880 C861 1.368 . S
C880 C874 1.368 . S
C880 C879 1.523 . S
C881 C865 1.429 . S
C881 C877 1.429 . S
C881 C882 1.523 . S
C882 C866 1.368 . S
C882 C878 1.368 . S
C882 C881 1.523 . S
H883 C858 0.950 . S
H884 C860 0.950 . S
H885 C861 0.949 . S
H886 C863 0.950 . S
H887 C865 0.950 . S
C169 C141 1.622 . S
C174 C12 1.621 . S
C199 C15 1.622 . S
C204 C154 1.621 . S
C229 C29 1.622 . S
C234 C96 1.621 . S
C259 C43 1.622 . S
C264 C99 1.622 . S
C289 C112 1.621 . S
C294 C57 1.622 . S
C319 C83 1.622 . S
C324 C126 1.621 . S
C349 C113 1.645 . S
C354 C13 1.645 . S
C379 C14 1.644 . S
C384 C127 1.645 . S
C409 C28 1.644 . S
C414 C140 1.644 . S
C439 C42 1.644 . S
C444 C155 1.645 . S
C469 C97 1.645 . S
C474 C56 1.643 . S
C499 C98 1.643 . S
C504 C82 1.643 . S
C529 C55 1.341 . S
C534 C0 1.340 . S
C559 C27 1.341 . S
C564 C69 1.341 . S
C589 C71 1.341 . S
C594 C41 1.341 . S
C619 C138 1.340 . S
C624 C84 1.340 . S
C649 C153 1.341 . S
C654 C111 1.341 . S
C679 C124 1.340 . S
C684 C166 1.340 . S
C709 C54 1.877 . S
C714 C1 1.879 . S
C739 C26 1.877 . S
C744 C68 1.877 . S
C769 C70 1.878 . S
C774 C40 1.878 . S
C799 C85 1.879 . S
C804 C139 1.879 . S
C829 C152 1.878 . S
C834 C110 1.878 . S
C859 C125 1.879 . S
C864 C167 1.879 . S
