# Generated by pormake.
# Topology utb, (3)-cn, num edge types: 1
# Building blocks:
#     Node 0, Type 0, BuildingBlock: OLANEW_clean_sbu_2, # of connection points: 3
#     Node 1, Type 0, BuildingBlock: OLANEW_clean_sbu_2, # of connection points: 3
#     Node 2, Type 0, BuildingBlock: OLANEW_clean_sbu_2, # of connection points: 3
#     Node 3, Type 0, BuildingBlock: OLANEW_clean_sbu_2, # of connection points: 3
#     Node 4, Type 0, BuildingBlock: OLANEW_clean_sbu_2, # of connection points: 3
#     Node 5, Type 0, BuildingBlock: OLANEW_clean_sbu_2, # of connection points: 3
#     Node 6, Type 0, BuildingBlock: OLANEW_clean_sbu_2, # of connection points: 3
#     Node 7, Type 0, BuildingBlock: OLANEW_clean_sbu_2, # of connection points: 3
#     Node 8, Type 0, BuildingBlock: OLANEW_clean_sbu_2, # of connection points: 3
#     Node 9, Type 0, BuildingBlock: OLANEW_clean_sbu_2, # of connection points: 3
#     Node 10, Type 0, BuildingBlock: OLANEW_clean_sbu_2, # of connection points: 3
#     Node 11, Type 0, BuildingBlock: OLANEW_clean_sbu_2, # of connection points: 3
#     Node 12, Type 0, BuildingBlock: OLANEW_clean_sbu_2, # of connection points: 3
#     Node 13, Type 0, BuildingBlock: OLANEW_clean_sbu_2, # of connection points: 3
#     Node 14, Type 0, BuildingBlock: OLANEW_clean_sbu_2, # of connection points: 3
#     Node 15, Type 0, BuildingBlock: OLANEW_clean_sbu_2, # of connection points: 3
#     Node 16, Type 0, BuildingBlock: OLANEW_clean_sbu_2, # of connection points: 3
#     Node 17, Type 0, BuildingBlock: OLANEW_clean_sbu_2, # of connection points: 3
#     Node 18, Type 0, BuildingBlock: OLANEW_clean_sbu_2, # of connection points: 3
#     Node 19, Type 0, BuildingBlock: OLANEW_clean_sbu_2, # of connection points: 3
#     Node 20, Type 0, BuildingBlock: OLANEW_clean_sbu_2, # of connection points: 3
#     Node 21, Type 0, BuildingBlock: OLANEW_clean_sbu_2, # of connection points: 3
#     Node 22, Type 0, BuildingBlock: OLANEW_clean_sbu_2, # of connection points: 3
#     Node 23, Type 0, BuildingBlock: OLANEW_clean_sbu_2, # of connection points: 3
#     Edge 24, Type (0, 0), BuildingBlock: XIVTED_clean_linker_0, # of connection points: 2
#     Edge 25, Type (0, 0), BuildingBlock: XIVTED_clean_linker_0, # of connection points: 2
#     Edge 26, Type (0, 0), BuildingBlock: XIVTED_clean_linker_0, # of connection points: 2
#     Edge 27, Type (0, 0), BuildingBlock: XIVTED_clean_linker_0, # of connection points: 2
#     Edge 28, Type (0, 0), BuildingBlock: XIVTED_clean_linker_0, # of connection points: 2
#     Edge 29, Type (0, 0), BuildingBlock: XIVTED_clean_linker_0, # of connection points: 2
#     Edge 30, Type (0, 0), BuildingBlock: XIVTED_clean_linker_0, # of connection points: 2
#     Edge 31, Type (0, 0), BuildingBlock: XIVTED_clean_linker_0, # of connection points: 2
#     Edge 32, Type (0, 0), BuildingBlock: XIVTED_clean_linker_0, # of connection points: 2
#     Edge 33, Type (0, 0), BuildingBlock: XIVTED_clean_linker_0, # of connection points: 2
#     Edge 34, Type (0, 0), BuildingBlock: XIVTED_clean_linker_0, # of connection points: 2
#     Edge 35, Type (0, 0), BuildingBlock: XIVTED_clean_linker_0, # of connection points: 2
#     Edge 36, Type (0, 0), BuildingBlock: XIVTED_clean_linker_0, # of connection points: 2
#     Edge 37, Type (0, 0), BuildingBlock: XIVTED_clean_linker_0, # of connection points: 2
#     Edge 38, Type (0, 0), BuildingBlock: XIVTED_clean_linker_0, # of connection points: 2
#     Edge 39, Type (0, 0), BuildingBlock: XIVTED_clean_linker_0, # of connection points: 2
#     Edge 40, Type (0, 0), BuildingBlock: XIVTED_clean_linker_0, # of connection points: 2
#     Edge 41, Type (0, 0), BuildingBlock: XIVTED_clean_linker_0, # of connection points: 2
#     Edge 42, Type (0, 0), BuildingBlock: XIVTED_clean_linker_0, # of connection points: 2
#     Edge 43, Type (0, 0), BuildingBlock: XIVTED_clean_linker_0, # of connection points: 2
#     Edge 44, Type (0, 0), BuildingBlock: XIVTED_clean_linker_0, # of connection points: 2
#     Edge 45, Type (0, 0), BuildingBlock: XIVTED_clean_linker_0, # of connection points: 2
#     Edge 46, Type (0, 0), BuildingBlock: XIVTED_clean_linker_0, # of connection points: 2
#     Edge 47, Type (0, 0), BuildingBlock: XIVTED_clean_linker_0, # of connection points: 2
#     Edge 48, Type (0, 0), BuildingBlock: XIVTED_clean_linker_0, # of connection points: 2
#     Edge 49, Type (0, 0), BuildingBlock: XIVTED_clean_linker_0, # of connection points: 2
#     Edge 50, Type (0, 0), BuildingBlock: XIVTED_clean_linker_0, # of connection points: 2
#     Edge 51, Type (0, 0), BuildingBlock: XIVTED_clean_linker_0, # of connection points: 2
#     Edge 52, Type (0, 0), BuildingBlock: XIVTED_clean_linker_0, # of connection points: 2
#     Edge 53, Type (0, 0), BuildingBlock: XIVTED_clean_linker_0, # of connection points: 2
#     Edge 54, Type (0, 0), BuildingBlock: XIVTED_clean_linker_0, # of connection points: 2
#     Edge 55, Type (0, 0), BuildingBlock: XIVTED_clean_linker_0, # of connection points: 2
#     Edge 56, Type (0, 0), BuildingBlock: XIVTED_clean_linker_0, # of connection points: 2
#     Edge 57, Type (0, 0), BuildingBlock: XIVTED_clean_linker_0, # of connection points: 2
#     Edge 58, Type (0, 0), BuildingBlock: XIVTED_clean_linker_0, # of connection points: 2
#     Edge 59, Type (0, 0), BuildingBlock: XIVTED_clean_linker_0, # of connection points: 2
# Relax obj value: 0.070
# Max RMSD: 0.157
# Mean RMSD: 0.058
data_MOF--net-utb--node1-OLANEW_clean_sbu_2--edge1-XIVTED_clean_linker_0
_symmetry_space_group_name_H-M    P1
_symmetry_Int_Tables_number       1
_symmetry_cell_setting            triclinic
loop_
_symmetry_equiv_pos_as_xyz
'x, y, z'
_cell_length_a     63.974968
_cell_length_b     44.504471
_cell_length_c     54.030485
_cell_angle_alpha  90.037806
_cell_angle_beta   90.526162
_cell_angle_gamma 89.593248
loop_
_atom_site_label
_atom_site_type_symbol
_atom_site_fract_x
_atom_site_fract_y
_atom_site_fract_z
_atom_type_partial_charge
O0 O -0.00027 0.55556 0.16307 0.0
Cd1 Cd 0.99228 0.50295 0.15358 0.0
O2 O 0.02318 0.55662 0.13382 0.0
Cd3 Cd 0.04727 0.57466 0.10941 0.0
O4 O 0.07141 0.58009 0.08127 0.0
C5 C 0.06596 0.58006 0.05859 0.0
O6 O 0.04601 0.57788 0.05291 0.0
C7 C 0.01281 0.57031 0.15042 0.0
C8 C 0.97634 0.47016 0.19307 0.0
O9 O 0.99567 0.46804 0.18723 0.0
O10 O 0.96461 0.48811 0.18055 0.0
O11 O 0.56875 0.96877 0.17812 0.0
Cd12 Cd 0.59175 0.01129 0.17044 0.0
O13 O 0.56944 0.97618 0.21837 0.0
Cd14 Cd 0.59515 0.00801 0.21874 0.0
O15 O 0.62331 0.00313 0.24139 0.0
C16 C 0.63169 0.97721 0.24005 0.0
O17 O 0.6242 0.95799 0.22383 0.0
C18 C 0.56249 0.96199 0.19965 0.0
C19 C 0.5685 0.06432 0.16615 0.0
O20 O 0.57164 0.04734 0.14736 0.0
O21 O 0.57652 0.05638 0.18698 0.0
O22 O 0.96322 0.78953 0.18472 0.0
Cd23 Cd 0.93858 0.83158 0.18866 0.0
O24 O 0.97099 0.79736 0.14572 0.0
Cd25 Cd 0.94502 0.82894 0.1414 0.0
O26 O 0.91296 0.82404 0.12803 0.0
C27 C 0.91048 0.81907 0.10503 0.0
O28 O 0.92683 0.82043 0.09054 0.0
C29 C 0.97379 0.7827 0.16567 0.0
C30 C 0.94454 0.86021 0.23408 0.0
O31 O 0.93324 0.83664 0.23224 0.0
O32 O 0.95279 0.87062 0.21437 0.0
O33 O 0.4545 0.78106 0.21748 0.0
Cd34 Cd 0.43042 0.73933 0.22337 0.0
O35 O 0.47228 0.77006 0.25133 0.0
Cd36 Cd 0.44555 0.74545 0.26523 0.0
O37 O 0.4202 0.77541 0.27621 0.0
C38 C 0.42687 0.79815 0.28805 0.0
O39 O 0.4468 0.79913 0.29406 0.0
C40 C 0.47027 0.7853 0.23152 0.0
C41 C 0.44095 0.69413 0.19 0.0
O42 O 0.4265 0.71331 0.18492 0.0
O43 O 0.45006 0.69585 0.21118 0.0
O44 O 0.0618 0.46088 0.71983 0.0
Cd45 Cd 0.07774 0.51017 0.72534 0.0
O46 O 0.07738 0.44208 0.75289 0.0
Cd47 Cd 0.09141 0.48347 0.76671 0.0
O48 O 0.10328 0.50352 0.8009 0.0
C49 C 0.09062 0.50514 0.81885 0.0
O50 O 0.07106 0.4974 0.81507 0.0
C51 C 0.06559 0.43873 0.73405 0.0
C52 C 0.04964 0.55626 0.7136 0.0
O53 O 0.06064 0.54359 0.69681 0.0
O54 O 0.05198 0.5472 0.73598 0.0
O55 O 0.44922 0.22364 0.71966 0.0
Cd56 Cd 0.42262 0.26131 0.70916 0.0
O57 O 0.46957 0.23184 0.68783 0.0
Cd58 Cd 0.44362 0.25482 0.66941 0.0
O59 O 0.41741 0.23126 0.65248 0.0
C60 C 0.42282 0.20565 0.6442 0.0
O61 O 0.44268 0.19794 0.64533 0.0
C62 C 0.46626 0.21881 0.70833 0.0
C63 C 0.42913 0.30964 0.74095 0.0
O64 O 0.41835 0.28693 0.74761 0.0
O65 O 0.43621 0.31011 0.71884 0.0
O66 O 0.96409 0.2511 0.71057 0.0
Cd67 Cd 0.93983 0.20895 0.71046 0.0
O68 O 0.98233 0.23342 0.74209 0.0
Cd69 Cd 0.95732 0.20346 0.75328 0.0
O70 O 0.93167 0.20164 0.77959 0.0
C71 C 0.91539 0.21732 0.77515 0.0
O72 O 0.91387 0.23169 0.75396 0.0
C73 C 0.98001 0.25252 0.72478 0.0
C74 C 0.94731 0.17467 0.66818 0.0
O75 O 0.93374 0.19599 0.66798 0.0
O76 O 0.95695 0.16904 0.68857 0.0
O77 O 0.54406 0.02823 0.78422 0.0
Cd78 Cd 0.56022 0.9811 0.79781 0.0
O79 O 0.56744 0.0328 0.75504 0.0
Cd80 Cd 0.58273 0.0561 0.72445 0.0
O81 O 0.59646 0.07728 0.69195 0.0
C82 C 0.58493 0.09091 0.67623 0.0
O83 O 0.56469 0.09241 0.67991 0.0
C84 C 0.55124 0.04269 0.76594 0.0
C85 C 0.53152 0.93416 0.79701 0.0
O86 O 0.53399 0.95047 0.81636 0.0
O87 O 0.54267 0.94 0.77804 0.0
O88 O 0.31496 0.05045 0.34237 0.0
Cd89 Cd 0.32633 0.04715 0.29963 0.0
O90 O 0.29249 0.01527 0.33272 0.0
Cd91 Cd 0.26546 0.98813 0.34225 0.0
O92 O 0.23398 0.97905 0.35508 0.0
C93 C 0.22017 0.96877 0.34039 0.0
O94 O 0.22539 0.9621 0.31757 0.0
C95 C 0.30079 0.03234 0.34886 0.0
C96 C 0.34781 0.99287 0.29527 0.0
O97 O 0.35729 0.01708 0.3014 0.0
O98 O 0.32819 0.99451 0.29038 0.0
O99 O 0.92005 0.25449 0.36378 0.0
Cd100 Cd 0.896 0.29601 0.35423 0.0
O101 O 0.90698 0.22789 0.33306 0.0
Cd102 Cd 0.87883 0.2556 0.32988 0.0
O103 O 0.8467 0.25818 0.34302 0.0
C104 C 0.84432 0.2598 0.36632 0.0
O105 O 0.86098 0.26234 0.38056 0.0
C106 C 0.92061 0.23119 0.35013 0.0
C107 C 0.91347 0.33496 0.31977 0.0
O108 O 0.91347 0.34159 0.34286 0.0
O109 O 0.90512 0.31017 0.31299 0.0
O110 O 0.69544 0.85048 0.51085 0.0
Cd111 Cd 0.69647 0.79792 0.52397 0.0
O112 O 0.69716 0.83687 0.47184 0.0
Cd113 Cd 0.69898 0.84817 0.43254 0.0
O114 O 0.695 0.86666 0.39541 0.0
C115 C 0.69933 0.89399 0.39109 0.0
O116 O 0.70712 0.91059 0.409 0.0
C117 C 0.69574 0.85747 0.48806 0.0
C118 C 0.73181 0.78608 0.55292 0.0
O119 O 0.73204 0.78238 0.52939 0.0
O120 O 0.71475 0.79516 0.56281 0.0
O121 O 0.98674 0.948 0.47677 0.0
Cd122 Cd 0.00253 0.97243 0.44109 0.0
O123 O 0.98588 0.98786 0.5008 0.0
Cd124 Cd 0.00447 0.0131 0.47456 0.0
O125 O 0.03598 0.02627 0.46441 0.0
C126 C 0.04921 0.00504 0.4622 0.0
O127 O 0.04282 0.97719 0.46448 0.0
C128 C 0.98188 0.96027 0.4972 0.0
C129 C 0.98675 0.94961 0.3967 0.0
O130 O 0.00076 0.93535 0.40915 0.0
O131 O 0.98007 0.97477 0.40519 0.0
O132 O 0.28992 0.00107 0.54248 0.0
Cd133 Cd 0.28993 0.00271 0.58752 0.0
O134 O 0.26218 0.0303 0.5422 0.0
Cd135 Cd 0.23605 0.05155 0.52253 0.0
O136 O 0.206 0.05531 0.50344 0.0
C137 C 0.20111 0.03454 0.48836 0.0
O138 O 0.21469 0.01289 0.48412 0.0
C139 C 0.27623 0.01602 0.53048 0.0
C140 C 0.31748 0.04754 0.60216 0.0
O141 O 0.32375 0.02039 0.5991 0.0
O142 O 0.298 0.05336 0.59895 0.0
O143 O 0.01094 0.03148 0.38262 0.0
Cd144 Cd 0.02666 0.98449 0.39683 0.0
O145 O 0.00579 0.04201 0.42163 0.0
Cd146 Cd 0.9933 0.0664 0.45352 0.0
O147 O 0.98174 0.08581 0.48798 0.0
C148 C 0.99087 0.07939 0.50832 0.0
O149 O 0.00727 0.06146 0.50808 0.0
C150 C 0.00409 0.04946 0.39896 0.0
C151 C 0.06852 0.97915 0.38416 0.0
O152 O 0.05418 0.96842 0.37005 0.0
O153 O 0.06296 0.99251 0.40408 0.0
O154 O 0.68823 0.09583 0.46345 0.0
Cd155 Cd 0.68101 0.15002 0.4631 0.0
O156 O 0.65772 0.08424 0.44715 0.0
Cd157 Cd 0.64515 0.12806 0.45748 0.0
O158 O 0.63304 0.14221 0.4933 0.0
C159 C 0.64511 0.13713 0.51167 0.0
O160 O 0.66405 0.12683 0.50748 0.0
C161 C 0.67587 0.07627 0.45448 0.0
C162 C 0.71369 0.18175 0.44177 0.0
O163 O 0.71336 0.17666 0.46511 0.0
O164 O 0.69847 0.17198 0.42851 0.0
O165 O 0.93288 0.80316 0.63387 0.0
Cd166 Cd 0.91791 0.76592 0.66175 0.0
O167 O 0.92117 0.84273 0.65397 0.0
Cd168 Cd 0.89989 0.81455 0.67474 0.0
O169 O 0.86919 0.79656 0.66548 0.0
C170 C 0.86777 0.78541 0.64387 0.0
O171 O 0.8847 0.78363 0.63034 0.0
C172 C 0.93192 0.83155 0.63652 0.0
C173 C 0.94676 0.72078 0.67351 0.0
O174 O 0.93536 0.71914 0.65394 0.0
O175 O 0.94449 0.74376 0.68757 0.0
O176 O 0.47221 0.33441 0.112 0.0
Cd177 Cd 0.45788 0.30457 0.1457 0.0
O178 O 0.45462 0.37549 0.12118 0.0
Cd179 Cd 0.43544 0.35291 0.14849 0.0
O180 O 0.40314 0.33874 0.15276 0.0
C181 C 0.39575 0.32291 0.13521 0.0
O182 O 0.40835 0.31415 0.11749 0.0
C183 C 0.46793 0.3619 0.10783 0.0
C184 C 0.48134 0.25205 0.15209 0.0
O185 O 0.46606 0.25322 0.1366 0.0
O186 O 0.48539 0.27566 0.16482 0.0
O187 O 0.4337 0.66551 0.81541 0.0
Cd188 Cd 0.41128 0.70517 0.79834 0.0
O189 O 0.40941 0.63093 0.8176 0.0
Cd190 Cd 0.384 0.66256 0.80989 0.0
O191 O 0.35732 0.68255 0.82888 0.0
C192 C 0.36097 0.69128 0.8509 0.0
O193 O 0.38021 0.68959 0.85953 0.0
C194 C 0.42837 0.6387 0.82028 0.0
C195 C 0.43429 0.7581 0.79567 0.0
O196 O 0.43359 0.73975 0.7774 0.0
O197 O 0.42376 0.75171 0.81501 0.0
O198 O 0.20678 0.41628 0.06817 0.0
Cd199 Cd 0.20482 0.36387 0.08161 0.0
O200 O 0.17405 0.41663 0.05537 0.0
Cd201 Cd 0.14937 0.43963 0.03427 0.0
O202 O 0.13436 0.46393 0.00377 0.0
C203 C 0.14608 0.47761 0.98867 0.0
O204 O 0.16638 0.47742 0.99263 0.0
C205 C 0.19131 0.43013 0.0585 0.0
C206 C 0.24416 0.34376 0.09732 0.0
O207 O 0.23813 0.34039 0.0748 0.0
O208 O 0.23145 0.3562 0.11246 0.0
O209 O 0.50004 0.47412 0.93684 0.0
Cd210 Cd 0.50782 0.49393 0.89575 0.0
O211 O 0.52565 0.44101 0.9348 0.0
Cd212 Cd 0.5395 0.46187 0.90249 0.0
O213 O 0.5638 0.49019 0.88731 0.0
C214 C 0.58099 0.47804 0.88107 0.0
O215 O 0.58271 0.44861 0.88181 0.0
C216 C 0.51001 0.45195 0.94612 0.0
C217 C 0.48855 0.45789 0.86024 0.0
O218 O 0.50592 0.45017 0.87042 0.0
O219 O 0.48032 0.48312 0.8664 0.0
O220 O 0.79829 0.36218 0.95694 0.0
Cd221 Cd 0.79688 0.3078 0.9499 0.0
O222 O 0.7662 0.35647 0.96959 0.0
Cd223 Cd 0.73543 0.37235 0.98125 0.0
O224 O 0.70349 0.38739 0.98813 0.0
C225 C 0.69938 0.41528 0.98983 0.0
O226 O 0.71466 0.43468 0.98777 0.0
C227 C 0.78168 0.37357 0.96576 0.0
C228 C 0.82137 0.28653 0.9111 0.0
O229 O 0.80274 0.29631 0.90716 0.0
O230 O 0.82853 0.28729 0.93333 0.0
O231 O 0.4993 0.52701 0.96869 0.0
Cd232 Cd 0.5112 0.51274 0.01033 0.0
O233 O 0.52005 0.56606 0.96629 0.0
Cd234 Cd 0.52462 0.56624 0.00622 0.0
O235 O 0.5146 0.57673 0.04368 0.0
C236 C 0.49495 0.57728 0.04684 0.0
O237 O 0.48264 0.57023 0.02815 0.0
C238 C 0.50712 0.54825 0.95611 0.0
C239 C 0.5522 0.49075 0.00886 0.0
O240 O 0.54838 0.51866 0.01249 0.0
O241 O 0.53664 0.47302 0.00637 0.0
O242 O 0.20624 0.66478 0.02005 0.0
Cd243 Cd 0.21166 0.71601 0.00528 0.0
O244 O 0.2045 0.65046 0.98123 0.0
Cd245 Cd 0.19842 0.61617 0.95315 0.0
O246 O 0.18855 0.58357 0.92268 0.0
C247 C 0.17012 0.57264 0.921 0.0
O248 O 0.1891 0.58314 0.92189 0.0
C249 C 0.20427 0.64397 0.00412 0.0
C250 C 0.24344 0.71712 0.97026 0.0
O251 O 0.24749 0.72056 0.99337 0.0
O252 O 0.22433 0.71345 0.9637 0.0
O253 O 0.77126 0.60562 0.01971 0.0
Cd254 Cd 0.75995 0.65781 0.0258 0.0
O255 O 0.76029 0.61161 0.98157 0.0
Cd256 Cd 0.74881 0.59495 0.94599 0.0
O257 O 0.72614 0.57571 0.9203 0.0
C258 C 0.70954 0.59064 0.91578 0.0
O259 O 0.70745 0.61758 0.92547 0.0
C260 C 0.768 0.59468 0.99831 0.0
C261 C 0.7911 0.6967 0.04217 0.0
O262 O 0.7796 0.6827 0.0576 0.0
O263 O 0.78806 0.69193 0.01901 0.0
H264 H 0.02202 0.61378 0.11622 0.0
H265 H 0.9827 0.74534 0.20471 0.0
H266 H 0.00608 0.60162 0.19294 0.0
H267 H 0.99449 0.75679 0.12673 0.0
H268 H -0.00174 0.69522 0.20264 0.0
H269 H 0.01903 0.66811 0.12168 0.0
C270 C 0.01859 0.62252 0.13442 0.0
C271 C 0.01449 0.60311 0.15421 0.0
C272 C -0.00227 0.70884 0.18605 0.0
C273 C 0.01032 0.66531 0.16041 0.0
C274 C 0.98889 0.73756 0.18723 0.0
C275 C 0.98693 0.75515 0.16576 0.0
C276 C 0.00457 0.69751 0.16322 0.0
C277 C 0.99543 0.74391 0.1437 0.0
C278 C 0.0166 0.6536 0.13746 0.0
C279 C 0.0093 0.61579 0.17716 0.0
N280 N 0.00359 0.71563 0.14292 0.0
N281 N 0.00719 0.64603 0.17957 0.0
H282 H 0.54094 0.92959 0.16446 0.0
H283 H 0.50038 0.80878 0.26196 0.0
H284 H 0.55186 0.93559 0.2433 0.0
H285 H 0.47396 0.81735 0.18846 0.0
H286 H 0.52282 0.85166 0.25367 0.0
H287 H 0.51909 0.88539 0.1714 0.0
C288 C 0.53868 0.92173 0.18321 0.0
C289 C 0.54823 0.93636 0.20333 0.0
C290 C 0.51216 0.8441 0.23932 0.0
C291 C 0.52356 0.88569 0.21131 0.0
C292 C 0.49944 0.81947 0.24398 0.0
C293 C 0.48523 0.80949 0.22589 0.0
C294 C 0.51082 0.85874 0.21634 0.0
C295 C 0.48464 0.82437 0.20296 0.0
C296 C 0.52623 0.89651 0.18714 0.0
C297 C 0.54477 0.92515 0.22722 0.0
N298 N 0.49726 0.84827 0.19883 0.0
N299 N 0.53283 0.90042 0.23052 0.0
H300 H 0.07221 0.38624 0.75925 0.0
H301 H 0.97878 0.2994 0.69179 0.0
H302 H 0.03603 0.42406 0.69887 0.0
H303 H 0.01526 0.26295 0.7525 0.0
H304 H 0.00167 0.34315 0.69119 0.0
H305 H 0.05362 0.33907 0.75416 0.0
C306 C 0.06044 0.38459 0.74479 0.0
C307 C 0.05555 0.4093 0.72961 0.0
C308 C 0.00476 0.32545 0.70449 0.0
C309 C 0.03406 0.35517 0.72375 0.0
C310 C 0.99171 0.30043 0.70484 0.0
C311 C 0.99496 0.27757 0.72239 0.0
C312 C 0.02115 0.32768 0.72186 0.0
C313 C 0.01203 0.28009 0.73876 0.0
C314 C 0.04981 0.35758 0.74189 0.0
C315 C 0.04024 0.40567 0.71108 0.0
N316 N 0.02436 0.30479 0.7382 0.0
N317 N 0.02991 0.37918 0.7088 0.0
H318 H 0.46811 0.19533 0.75502 0.0
H319 H 0.54625 0.06342 0.71862 0.0
H320 H 0.49826 0.19058 0.68396 0.0
H321 H 0.53085 0.08409 0.79425 0.0
H322 H 0.52808 0.1092 0.70528 0.0
H323 H 0.49043 0.15419 0.7697 0.0
C324 C 0.47956 0.18581 0.74257 0.0
C325 C 0.48126 0.19631 0.71818 0.0
C326 C 0.52901 0.10403 0.72483 0.0
C327 C 0.50666 0.14894 0.73478 0.0
C328 C 0.53961 0.07809 0.73248 0.0
C329 C 0.54068 0.07054 0.75763 0.0
C330 C 0.51908 0.12224 0.74245 0.0
C331 C 0.53055 0.0893 0.77468 0.0
C332 C 0.49231 0.16234 0.75097 0.0
C333 C 0.49643 0.18321 0.7029 0.0
N334 N 0.52013 0.11428 0.76678 0.0
N335 N 0.50839 0.15996 0.71137 0.0
H336 H 0.29629 0.07836 0.38192 0.0
H337 H 0.28674 0.9709 0.49865 0.0
H338 H 0.29218 0.98203 0.37532 0.0
H339 H 0.26865 0.06437 0.50076 0.0
H340 H 0.29062 0.97465 0.45365 0.0
H341 H 0.288 0.07415 0.42605 0.0
C342 C 0.29341 0.05639 0.38975 0.0
C343 C 0.29451 0.03055 0.37498 0.0
C344 C 0.28552 0.99422 0.46393 0.0
C345 C 0.28548 0.02547 0.42526 0.0
C346 C 0.28336 0.99209 0.48955 0.0
C347 C 0.27704 0.01723 0.50327 0.0
C348 C 0.28183 0.02189 0.45211 0.0
C349 C 0.27303 0.04427 0.49073 0.0
C350 C 0.28863 0.05398 0.41484 0.0
C351 C 0.29089 0.00256 0.38597 0.0
N352 N 0.27567 0.04598 0.46585 0.0
N353 N 0.28669 0.00071 0.41051 0.0
H354 H 0.00255 0.10335 0.42386 0.0
H355 H 0.92793 0.18084 0.32243 0.0
H356 H 0.98275 0.06041 0.3561 0.0
H357 H 0.94768 0.2253 0.38965 0.0
H358 H 0.94998 0.13792 0.33333 0.0
H359 H 0.98411 0.14917 0.41097 0.0
C360 C 0.99403 0.10339 0.40647 0.0
C361 C 0.99364 0.07775 0.39137 0.0
C362 C 0.94963 0.15712 0.34565 0.0
C363 C 0.9731 0.13038 0.3761 0.0
C364 C 0.93705 0.18171 0.3394 0.0
C365 C 0.93581 0.20667 0.35524 0.0
C366 C 0.96102 0.15729 0.36799 0.0
C367 C 0.94811 0.20652 0.37691 0.0
C368 C 0.98376 0.1297 0.39895 0.0
C369 C 0.98329 0.07959 0.36842 0.0
N370 N 0.96006 0.18209 0.38276 0.0
N371 N 0.97332 0.10535 0.36157 0.0
H372 H 0.67209 0.88186 0.4508 0.0
H373 H 0.70961 0.05005 0.47761 0.0
H374 H 0.71548 0.9053 0.50907 0.0
H375 H 0.65493 0.02881 0.43374 0.0
H376 H 0.71597 0.99637 0.48381 0.0
H377 H 0.66921 0.93502 0.43946 0.0
C378 C 0.68126 0.89821 0.46093 0.0
C379 C 0.69428 0.88928 0.48064 0.0
C380 C 0.70268 0.00347 0.47267 0.0
C381 C 0.69095 0.95 0.46797 0.0
C382 C 0.69911 0.03412 0.46897 0.0
C383 C 0.68159 0.04399 0.4553 0.0
C384 C 0.68874 0.9825 0.46249 0.0
C385 C 0.66853 0.02225 0.44457 0.0
C386 C 0.67948 0.92853 0.45461 0.0
C387 C 0.70534 0.91136 0.49369 0.0
N388 N 0.67231 0.99254 0.44849 0.0
N389 N 0.7035 0.94073 0.48705 0.0
H390 H 0.9333 0.89324 0.63602 0.0
H391 H 0.97554 0.8996 0.4974 0.0
H392 H 0.95153 0.81505 0.59382 0.0
H393 H 0.96928 0.97853 0.54336 0.0
H394 H 0.96456 0.86867 0.53204 0.0
H395 H 0.94522 0.92524 0.60221 0.0
C396 C 0.94 0.88279 0.61979 0.0
C397 C 0.94134 0.85137 0.61774 0.0
C398 C 0.96555 0.89276 0.53457 0.0
C399 C 0.95469 0.88785 0.57888 0.0
C400 C 0.97169 0.9105 0.51471 0.0
C401 C 0.97337 0.94175 0.51745 0.0
C402 C 0.96092 0.9063 0.55736 0.0
C403 C 0.96822 0.95453 0.54041 0.0
C404 C 0.94674 0.90108 0.60047 0.0
C405 C 0.95016 0.83912 0.59625 0.0
N406 N 0.96223 0.93674 0.5595 0.0
N407 N 0.95633 0.85737 0.57761 0.0
H408 H 0.4797 0.47241 0.97772 0.0
H409 H 0.49806 0.34091 0.07635 0.0
H410 H 0.527 0.40338 0.97016 0.0
H411 H 0.45762 0.41734 0.08917 0.0
H412 H 0.50922 0.3638 0.03764 0.0
H413 H 0.47125 0.45248 0.01853 0.0
C414 C 0.48827 0.45303 0.98458 0.0
C415 C 0.50406 0.43953 0.97044 0.0
C416 C 0.49804 0.37568 0.04902 0.0
C417 C 0.49444 0.41657 0.01715 0.0
C418 C 0.49168 0.36265 0.07117 0.0
C419 C 0.47678 0.37712 0.08599 0.0
C420 C 0.4893 0.40328 0.04149 0.0
C421 C 0.46911 0.40531 0.07833 0.0
C422 C 0.4835 0.44173 0.00794 0.0
C423 C 0.51466 0.41447 0.98034 0.0
N424 N 0.47531 0.41733 0.05651 0.0
N425 N 0.50961 0.40377 0.00303 0.0
H426 H 0.524 0.58591 0.92174 0.0
H427 H 0.42156 0.58155 0.83729 0.0
H428 H 0.473 0.52441 0.93242 0.0
H429 H 0.46959 0.64881 0.83155 0.0
H430 H 0.44424 0.55274 0.86521 0.0
H431 H 0.50825 0.60145 0.8824 0.0
C432 C 0.50964 0.57536 0.91565 0.0
C433 C 0.49963 0.55418 0.93059 0.0
C434 C 0.44994 0.57357 0.85752 0.0
C435 C 0.48143 0.57203 0.88565 0.0
C436 C 0.43702 0.59001 0.84149 0.0
C437 C 0.44348 0.61802 0.83248 0.0
C438 C 0.46941 0.58528 0.86469 0.0
C439 C 0.46379 0.62761 0.83837 0.0
C440 C 0.50066 0.58423 0.89316 0.0
C441 C 0.48118 0.54099 0.92161 0.0
N442 N 0.47589 0.61152 0.85443 0.0
N443 N 0.47253 0.55044 0.89989 0.0
H444 H 0.22386 0.455 0.0337 0.0
H445 H 0.17886 0.62245 0.04015 0.0
H446 H 0.164 0.47648 0.06541 0.0
H447 H 0.2245 0.59465 0.98645 0.0
H448 H 0.17541 0.56993 0.05331 0.0
H449 H 0.22688 0.50736 0.01991 0.0
C450 C 0.21138 0.4708 0.03773 0.0
C451 C 0.19353 0.4615 0.05035 0.0
C452 C 0.18613 0.57533 0.0386 0.0
C453 C 0.19695 0.52115 0.03504 0.0
C454 C 0.18814 0.60521 0.03119 0.0
C455 C 0.20183 0.61262 0.0121 0.0
C456 C 0.19831 0.55294 0.02722 0.0
C457 C 0.21358 0.58964 0.00104 0.0
C458 C 0.21305 0.50054 0.02978 0.0
C459 C 0.17781 0.48274 0.05527 0.0
N460 N 0.21166 0.56079 0.00886 0.0
N461 N 0.17991 0.51164 0.04769 0.0
H462 H 0.76174 0.40114 0.00413 0.0
H463 H 0.78161 0.56776 0.95577 0.0
H464 H 0.79909 0.41979 0.93999 0.0
H465 H 0.76269 0.5481 0.03038 0.0
H466 H 0.78553 0.51378 0.94792 0.0
H467 H 0.75912 0.45508 0.01233 0.0
C468 C 0.76917 0.41665 0.99159 0.0
C469 C 0.7803 0.40608 0.97107 0.0
C470 C 0.78055 0.52129 0.96601 0.0
C471 C 0.77767 0.46779 0.98055 0.0
C472 C 0.77813 0.55204 0.97042 0.0
C473 C 0.77148 0.56232 0.99362 0.0
C474 C 0.7761 0.50066 0.98488 0.0
C475 C 0.7678 0.54107 0.01221 0.0
C476 C 0.76788 0.4474 0.99645 0.0
C477 C 0.79026 0.42708 0.95594 0.0
N478 N 0.76996 0.51122 0.00737 0.0
N479 N 0.78857 0.457 0.96085 0.0
H480 H 0.12829 0.57553 0.9171 0.0
H481 H 0.10877 0.5812 0.06345 0.0
H482 H 0.17804 0.57525 0.97131 0.0
H483 H 0.05934 0.58051 0.00851 0.0
H484 H 0.13451 0.58049 0.0302 0.0
H485 H 0.1028 0.57828 0.95055 0.0
C486 C 0.13381 0.57654 0.93611 0.0
C487 C 0.15523 0.57609 0.94148 0.0
C488 C 0.11802 0.58057 0.02544 0.0
C489 C 0.1263 0.57889 0.97992 0.0
C490 C 0.10331 0.58102 0.04442 0.0
C491 C 0.08183 0.58087 0.03879 0.0
C492 C 0.11122 0.57998 0.00064 0.0
C493 C 0.07571 0.5806 0.01377 0.0
C494 C 0.1193 0.57805 0.95519 0.0
C495 C 0.16167 0.57679 0.96638 0.0
N496 N 0.0903 0.58012 0.99567 0.0
N497 N 0.14726 0.57815 0.98471 0.0
H498 H 0.51134 0.23959 0.18724 0.0
H499 H 0.54466 0.08275 0.12663 0.0
H500 H 0.48056 0.20162 0.12315 0.0
H501 H 0.56331 0.10909 0.20046 0.0
H502 H 0.52336 0.12839 0.12339 0.0
H503 H 0.5327 0.19393 0.19087 0.0
C504 C 0.50905 0.22165 0.17395 0.0
C505 C 0.49412 0.22441 0.15487 0.0
C506 C 0.53209 0.12416 0.14031 0.0
C507 C 0.51861 0.17225 0.15882 0.0
C508 C 0.54432 0.09817 0.14215 0.0
C509 C 0.55578 0.09208 0.16387 0.0
C510 C 0.53145 0.14442 0.16024 0.0
C511 C 0.55469 0.11285 0.1834 0.0
C512 C 0.52123 0.19558 0.17606 0.0
C513 C 0.49183 0.20044 0.13819 0.0
N514 N 0.54279 0.13815 0.18109 0.0
N515 N 0.50401 0.17544 0.14049 0.0
H516 H 0.8756 0.80364 0.13121 0.0
H517 H 0.81931 0.72747 0.01425 0.0
H518 H 0.89999 0.80622 0.05701 0.0
H519 H 0.79983 0.71431 0.08974 0.0
H520 H 0.84649 0.76156 0.02898 0.0
H521 H 0.84498 0.77684 0.11557 0.0
C522 C 0.8744 0.79895 0.11158 0.0
C523 C 0.89051 0.80692 0.09543 0.0
C524 C 0.83622 0.7513 0.04232 0.0
C525 C 0.85558 0.77602 0.07746 0.0
C526 C 0.82071 0.73179 0.03392 0.0
C527 C 0.80737 0.71783 0.0508 0.0
C528 C 0.83841 0.75697 0.06778 0.0
C529 C 0.80986 0.72441 0.07607 0.0
C530 C 0.85696 0.7835 0.10269 0.0
C531 C 0.88806 0.80029 0.07017 0.0
N532 N 0.82511 0.74344 0.0838 0.0
N533 N 0.87101 0.78504 0.062 0.0
H534 H 0.47638 0.65921 0.19055 0.0
H535 H 0.45388 0.58893 0.05673 0.0
H536 H 0.42099 0.67846 0.14699 0.0
H537 H 0.51547 0.59221 0.08994 0.0
H538 H 0.43962 0.613 0.09356 0.0
H539 H 0.48882 0.62608 0.15751 0.0
C540 C 0.46672 0.65619 0.17418 0.0
C541 C 0.44769 0.6718 0.17141 0.0
C542 C 0.45623 0.60826 0.09285 0.0
C543 C 0.46181 0.63395 0.13368 0.0
C544 C 0.46439 0.59443 0.07186 0.0
C545 C 0.48595 0.58886 0.07012 0.0
C546 C 0.46968 0.61643 0.11235 0.0
C547 C 0.49878 0.59635 0.0904 0.0
C548 C 0.47387 0.63739 0.15532 0.0
C549 C 0.43583 0.66707 0.1498 0.0
N550 N 0.49046 0.60991 0.11064 0.0
N551 N 0.44311 0.64863 0.13174 0.0
H552 H 0.1049 0.48686 0.97618 0.0
H553 H 0.13068 0.51768 0.83412 0.0
H554 H 0.16739 0.4965 0.94794 0.0
H555 H 0.06835 0.50436 0.86184 0.0
H556 H 0.14393 0.51819 0.8767 0.0
H557 H 0.09088 0.5011 0.93558 0.0
C558 C 0.11568 0.49218 0.9615 0.0
C559 C 0.13735 0.48999 0.96535 0.0
C560 C 0.12732 0.51546 0.87347 0.0
C561 C 0.12142 0.50599 0.91876 0.0
C562 C 0.11973 0.51526 0.84915 0.0
C563 C 0.09841 0.51046 0.84436 0.0
C564 C 0.11352 0.51064 0.89313 0.0
C565 C 0.08494 0.50775 0.86461 0.0
C566 C 0.10766 0.50029 0.93831 0.0
C567 C 0.15057 0.49756 0.94575 0.0
N568 N 0.09276 0.50748 0.88807 0.0
N569 N 0.14239 0.50479 0.92322 0.0
H570 H 0.43028 0.30526 0.79117 0.0
H571 H 0.46281 0.47283 0.8212 0.0
H572 H 0.44091 0.36766 0.73155 0.0
H573 H 0.49045 0.39696 0.85927 0.0
H574 H 0.4461 0.43787 0.79177 0.0
H575 H 0.44324 0.34276 0.82062 0.0
C576 C 0.43502 0.32703 0.78432 0.0
C577 C 0.43465 0.33336 0.7589 0.0
C578 C 0.4558 0.42907 0.80666 0.0
C579 C 0.44921 0.37624 0.79245 0.0
C580 C 0.46525 0.44886 0.82341 0.0
C581 C 0.4781 0.43766 0.84251 0.0
C582 C 0.45875 0.39801 0.80965 0.0
C583 C 0.48081 0.40647 0.84464 0.0
C584 C 0.44251 0.34826 0.8011 0.0
C585 C 0.4411 0.36187 0.75101 0.0
N586 N 0.47106 0.3877 0.82853 0.0
N587 N 0.44809 0.38239 0.76778 0.0
H588 H 0.91741 0.20011 0.82384 0.0
H589 H 0.81256 0.28757 0.86139 0.0
H590 H 0.87809 0.24759 0.77134 0.0
H591 H 0.85918 0.25751 0.91425 0.0
H592 H 0.83404 0.26746 0.82793 0.0
H593 H 0.89355 0.21471 0.85689 0.0
C594 C 0.90364 0.21331 0.81919 0.0
C595 C 0.89984 0.22284 0.79479 0.0
C596 C 0.83954 0.26523 0.84685 0.0
C597 C 0.87253 0.23976 0.83258 0.0
C598 C 0.82729 0.27671 0.86597 0.0
C599 C 0.83414 0.27438 0.89065 0.0
C600 C 0.85871 0.25111 0.85246 0.0
C601 C 0.85335 0.25999 0.89548 0.0
C602 C 0.89008 0.22178 0.83811 0.0
C603 C 0.88173 0.23991 0.7899 0.0
N604 N 0.86495 0.2489 0.87657 0.0
N605 N 0.8688 0.24793 0.80864 0.0
H606 H 0.45863 0.77769 0.75754 0.0
H607 H 0.50525 0.91664 0.83397 0.0
H608 H 0.44009 0.80038 0.83191 0.0
H609 H 0.52314 0.89484 0.7592 0.0
H610 H 0.48065 0.8749 0.83317 0.0
H611 H 0.48157 0.82135 0.75733 0.0
C612 C 0.4593 0.79192 0.77379 0.0
C613 C 0.44745 0.7853 0.79481 0.0
C614 C 0.48992 0.87927 0.81691 0.0
C615 C 0.47378 0.8353 0.79472 0.0
C616 C 0.50399 0.9031 0.81736 0.0
C617 C 0.51633 0.90921 0.79664 0.0
C618 C 0.48817 0.86133 0.7956 0.0
C619 C 0.51399 0.89093 0.77562 0.0
C620 C 0.47243 0.81685 0.77367 0.0
C621 C 0.44896 0.80458 0.81532 0.0
N622 N 0.50022 0.86779 0.77566 0.0
N623 N 0.46193 0.82863 0.81478 0.0
H624 H 0.08569 0.94835 0.34532 0.0
H625 H 0.20348 0.98646 0.38462 0.0
H626 H 0.10218 0.00309 0.40839 0.0
H627 H 0.18656 0.94763 0.31402 0.0
H628 H 0.16663 0.98735 0.39593 0.0
H629 H 0.1228 0.9433 0.33549 0.0
C630 C 0.09711 0.95925 0.35714 0.0
C631 C 0.09085 0.97601 0.37782 0.0
C632 C 0.17099 0.97855 0.37799 0.0
C633 C 0.13329 0.97018 0.36677 0.0
C634 C 0.19204 0.97792 0.37154 0.0
C635 C 0.19812 0.96714 0.34824 0.0
C636 C 0.15587 0.96823 0.36107 0.0
C637 C 0.18259 0.95629 0.33211 0.0
C638 C 0.11828 0.95632 0.35154 0.0
C639 C 0.10632 0.98963 0.39249 0.0
N640 N 0.16216 0.9572 0.3388 0.0
N641 N 0.12683 0.98638 0.3867 0.0
H642 H 0.83421 0.26071 0.41538 0.0
H643 H 0.71973 0.19431 0.39269 0.0
H644 H 0.80728 0.24647 0.34279 0.0
H645 H 0.74807 0.20546 0.4649 0.0
H646 H 0.75016 0.21808 0.37415 0.0
H647 H 0.80122 0.24579 0.43383 0.0
C648 C 0.82129 0.25474 0.40328 0.0
C649 C 0.82361 0.25455 0.37748 0.0
C650 C 0.74967 0.2155 0.39406 0.0
C651 C 0.78576 0.23717 0.39855 0.0
C652 C 0.73229 0.20191 0.40467 0.0
C653 C 0.73142 0.19767 0.43038 0.0
C654 C 0.76631 0.2249 0.40927 0.0
C655 C 0.74812 0.20808 0.44498 0.0
C656 C 0.80245 0.24615 0.41386 0.0
C657 C 0.80626 0.24678 0.36277 0.0
N658 N 0.76491 0.22105 0.43421 0.0
N659 N 0.78813 0.23814 0.37352 0.0
H660 H 0.73723 0.79539 0.60274 0.0
H661 H 0.85986 0.76018 0.59874 0.0
H662 H 0.76985 0.76517 0.53761 0.0
H663 H 0.82875 0.79576 0.66311 0.0
H664 H 0.82609 0.75562 0.57791 0.0
H665 H 0.76965 0.78996 0.62672 0.0
C666 C 0.75116 0.78741 0.59351 0.0
C667 C 0.75087 0.78097 0.56807 0.0
C668 C 0.82659 0.76419 0.59667 0.0
C669 C 0.788 0.77471 0.5954 0.0
C670 C 0.84589 0.76674 0.60862 0.0
C671 C 0.84717 0.77871 0.63261 0.0
C672 C 0.80838 0.77379 0.60872 0.0
C673 C 0.82851 0.78659 0.64455 0.0
C674 C 0.76967 0.78432 0.60722 0.0
C675 C 0.76937 0.77061 0.55713 0.0
N676 N 0.80989 0.78428 0.63237 0.0
N677 N 0.78719 0.76797 0.57082 0.0
H678 H 0.18367 0.98865 0.46163 0.0
H679 H 0.06856 0.05988 0.46275 0.0
H680 H 0.16945 0.07605 0.49215 0.0
H681 H 0.08131 0.96473 0.45707 0.0
H682 H 0.10625 0.06919 0.46389 0.0
H683 H 0.14688 0.98314 0.44994 0.0
C684 C 0.17288 0.00684 0.46563 0.0
C685 C 0.17959 0.03266 0.47827 0.0
C686 C 0.10074 0.04632 0.46219 0.0
C687 C 0.13752 0.02641 0.46498 0.0
C688 C 0.07926 0.04098 0.46147 0.0
C689 C 0.07178 0.01144 0.46011 0.0
C690 C 0.1148 0.02198 0.46137 0.0
C691 C 0.08637 0.98784 0.45842 0.0
C692 C 0.15188 0.00361 0.45902 0.0
C693 C 0.16492 0.0556 0.48274 0.0
N694 N 0.10718 0.9936 0.45926 0.0
N695 N 0.14452 0.05184 0.47627 0.0
H696 H 0.56441 0.11822 0.63751 0.0
H697 H 0.66699 0.12757 0.55461 0.0
H698 H 0.62611 0.09203 0.66278 0.0
H699 H 0.60493 0.14789 0.52706 0.0
H700 H 0.6528 0.12136 0.59599 0.0
H701 H 0.57944 0.13543 0.59864 0.0
C702 C 0.58114 0.11627 0.63498 0.0
C703 C 0.59399 0.10337 0.65336 0.0
C704 C 0.64229 0.12746 0.58096 0.0
C705 C 0.61129 0.12306 0.60888 0.0
C706 C 0.6504 0.1311 0.5573 0.0
C707 C 0.63709 0.13791 0.53725 0.0
C708 C 0.62068 0.13052 0.58466 0.0
C709 C 0.61575 0.14243 0.54194 0.0
C710 C 0.5897 0.12612 0.61276 0.0
C711 C 0.61557 0.10159 0.64907 0.0
N712 N 0.60817 0.13834 0.56512 0.0
N713 N 0.62351 0.11114 0.62723 0.0
H714 H 0.96842 0.71261 0.71696 0.0
H715 H 0.03582 0.57358 0.66765 0.0
H716 H 0.96008 0.67448 0.64408 0.0
H717 H 0.02933 0.59435 0.74526 0.0
H718 H 0.01085 0.61379 0.65774 0.0
H719 H 0.99362 0.67266 0.72676 0.0
C720 C 0.9719 0.69587 0.703 0.0
C721 C 0.9621 0.69684 0.67968 0.0
C722 C 0.01488 0.6095 0.67693 0.0
C723 C 0.991 0.65122 0.69074 0.0
C724 C 0.02918 0.58663 0.6826 0.0
C725 C 0.03465 0.58059 0.70732 0.0
C726 C 0.00618 0.6267 0.69609 0.0
C727 C 0.02551 0.59817 0.72595 0.0
C728 C 0.98624 0.67303 0.70865 0.0
C729 C 0.96721 0.67453 0.66233 0.0
N730 N 0.01179 0.62052 0.71995 0.0
N731 N 0.98137 0.6527 0.66817 0.0
H732 H 0.43001 0.14929 0.6263 0.0
H733 H 0.30915 0.10687 0.61216 0.0
H734 H 0.37996 0.21147 0.643 0.0
H735 H 0.36 0.04308 0.60596 0.0
H736 H 0.33453 0.14648 0.62096 0.0
H737 H 0.40425 0.1114 0.6155 0.0
C738 C 0.41358 0.15507 0.62757 0.0
C739 C 0.40714 0.18359 0.63571 0.0
C740 C 0.3401 0.1238 0.6177 0.0
C741 C 0.37747 0.14006 0.62347 0.0
C742 C 0.32563 0.10117 0.61271 0.0
C743 C 0.33246 0.0716 0.60837 0.0
C744 C 0.36154 0.11681 0.6182 0.0
C745 C 0.354 0.06552 0.60927 0.0
C746 C 0.39885 0.13333 0.62147 0.0
C747 C 0.38562 0.18975 0.63686 0.0
N748 N 0.36775 0.08793 0.61403 0.0
N749 N 0.37152 0.1681 0.6309 0.0
H750 H 0.95797 0.11817 0.5155 0.0
H751 H 0.9765 0.12999 0.66203 0.0
H752 H 0.00637 0.06944 0.55503 0.0
H753 H 0.92982 0.18154 0.62206 0.0
H754 H 0.98623 0.10522 0.6234 0.0
H755 H 0.94616 0.13948 0.55468 0.0
C756 C 0.9661 0.1119 0.53241 0.0
C757 C 0.98326 0.09208 0.53194 0.0
C758 C 0.97379 0.12185 0.62309 0.0
C759 C 0.96978 0.1164 0.57691 0.0
C760 C 0.9682 0.13597 0.64516 0.0
C761 C 0.95238 0.15798 0.64528 0.0
C762 C 0.96351 0.12979 0.60093 0.0
C763 C 0.94215 0.16478 0.62284 0.0
C764 C 0.95934 0.12408 0.5548 0.0
C765 C 0.99313 0.08472 0.55447 0.0
N766 N 0.94795 0.15083 0.60158 0.0
N767 N 0.98628 0.09693 0.57602 0.0
H768 H 0.69813 0.95368 0.37869 0.0
H769 H 0.65015 0.92191 0.24409 0.0
H770 H 0.68795 0.86514 0.3484 0.0
H771 H 0.64754 0.00871 0.27971 0.0
H772 H 0.67054 0.90256 0.27899 0.0
H773 H 0.6858 0.97559 0.3396 0.0
C774 C 0.69355 0.93884 0.36373 0.0
C775 C 0.69389 0.90752 0.36688 0.0
C776 C 0.66569 0.92592 0.27907 0.0
C777 C 0.67982 0.93244 0.32218 0.0
C778 C 0.6541 0.93705 0.25909 0.0
C779 C 0.64686 0.9669 0.25912 0.0
C780 C 0.67013 0.94474 0.29928 0.0
C781 C 0.65264 0.98549 0.27901 0.0
C782 C 0.68646 0.95137 0.34146 0.0
C783 C 0.68776 0.8894 0.34688 0.0
N784 N 0.66376 0.97402 0.29843 0.0
N785 N 0.68089 0.90212 0.32544 0.0
H786 H 0.96982 0.98058 0.35751 0.0
H787 H 0.94063 0.83473 0.27971 0.0
H788 H 0.98575 0.89102 0.38212 0.0
H789 H 0.95779 0.91748 0.24385 0.0
H790 H 0.94952 0.85718 0.3198 0.0
H791 H 0.95796 0.95959 0.31772 0.0
C792 C 0.97065 0.95651 0.35459 0.0
C793 C 0.97881 0.93746 0.37303 0.0
C794 C 0.95123 0.87041 0.30313 0.0
C795 C 0.96506 0.91348 0.328 0.0
C796 C 0.94608 0.85771 0.28029 0.0
C797 C 0.9486 0.87424 0.25843 0.0
C798 C 0.95855 0.90003 0.30416 0.0
C799 C 0.95577 0.90391 0.26026 0.0
C800 C 0.964 0.94463 0.33192 0.0
C801 C 0.97968 0.90648 0.36831 0.0
N802 N 0.96044 0.91595 0.28278 0.0
N803 N 0.97276 0.89542 0.34631 0.0
H804 H 0.38598 0.80722 0.27341 0.0
H805 H 0.3883 0.98163 0.30892 0.0
H806 H 0.43742 0.85039 0.31116 0.0
H807 H 0.33296 0.9378 0.28081 0.0
H808 H 0.40649 0.93336 0.30922 0.0
H809 H 0.36591 0.85423 0.27607 0.0
C810 C 0.39296 0.82644 0.28249 0.0
C811 C 0.41346 0.82491 0.29194 0.0
C812 C 0.39036 0.93422 0.303 0.0
C813 C 0.39074 0.87873 0.29477 0.0
C814 C 0.37998 0.96185 0.30272 0.0
C815 C 0.35909 0.96378 0.29474 0.0
C816 C 0.37985 0.90826 0.29514 0.0
C817 C 0.34909 0.93734 0.28705 0.0
C818 C 0.38153 0.85328 0.28393 0.0
C819 C 0.42173 0.85052 0.30349 0.0
N820 N 0.35958 0.91064 0.28736 0.0
N821 N 0.41041 0.87638 0.30441 0.0
H822 H 0.94282 0.48279 0.22249 0.0
H823 H 0.93133 0.31949 0.27593 0.0
H824 H 0.98988 0.41507 0.2087 0.0
H825 H 0.91734 0.3961 0.32201 0.0
H826 H 0.94748 0.35319 0.2458 0.0
H827 H 0.92784 0.45028 0.25446 0.0
C828 C 0.95 0.46112 0.22623 0.0
C829 C 0.96763 0.45156 0.21304 0.0
C830 C 0.94088 0.36252 0.26255 0.0
C831 C 0.95036 0.41428 0.2489 0.0
C832 C 0.93159 0.34341 0.27963 0.0
C833 C 0.92305 0.3551 0.30146 0.0
C834 C 0.94108 0.39356 0.26702 0.0
C835 C 0.92387 0.38624 0.30544 0.0
C836 C 0.94151 0.44273 0.24446 0.0
C837 C 0.97636 0.42333 0.21858 0.0
N838 N 0.93253 0.40452 0.28821 0.0
N839 N 0.96746 0.40546 0.23589 0.0
H840 H 0.58817 0.52337 0.01167 0.0
H841 H 0.66385 0.38138 0.99242 0.0
H842 H 0.56581 0.4328 0.00183 0.0
H843 H 0.6853 0.4731 0.99546 0.0
H844 H 0.628 0.39938 0.99772 0.0
H845 H 0.62398 0.50492 0.00768 0.0
C846 C 0.59079 0.49956 0.00875 0.0
C847 C 0.57396 0.47959 0.0071 0.0
C848 C 0.64055 0.41556 0.99725 0.0
C849 C 0.61499 0.4583 0.00247 0.0
C850 C 0.66104 0.40531 0.99426 0.0
C851 C 0.67763 0.42577 0.99348 0.0
C852 C 0.63658 0.44651 -0.00044 0.0
C853 C 0.67302 0.4565 0.99593 0.0
C854 C 0.61126 0.48905 0.00643 0.0
C855 C 0.57831 0.44899 0.00325 0.0
N856 N 0.65294 0.46592 0.99886 0.0
N857 N 0.59841 0.43928 0.00106 0.0
H858 H 0.36374 0.70979 0.89906 0.0
H859 H 0.24005 0.70915 0.92009 0.0
H860 H 0.31877 0.69201 0.84089 0.0
H861 H 0.28546 0.7241 0.97832 0.0
H862 H 0.26844 0.70647 0.89018 0.0
H863 H 0.33508 0.71915 0.92755 0.0
C864 C 0.34783 0.70809 0.89219 0.0
C865 C 0.34367 0.69989 0.86755 0.0
C866 C 0.27219 0.71047 0.90948 0.0
C867 C 0.3107 0.71042 0.90023 0.0
C868 C 0.25598 0.71201 0.92658 0.0
C869 C 0.26038 0.71673 0.95178 0.0
C870 C 0.29298 0.71365 0.91761 0.0
C871 C 0.28133 0.72032 0.9591 0.0
C872 C 0.33145 0.71339 0.90852 0.0
C873 C 0.32272 0.69816 0.85974 0.0
N874 N 0.29683 0.7186 0.94212 0.0
N875 N 0.30702 0.70318 0.87607 0.0
H876 H 0.37474 0.29453 0.0977 0.0
H877 H 0.26259 0.3518 0.14277 0.0
H878 H 0.36468 0.34203 0.16632 0.0
H879 H 0.27444 0.31559 0.07006 0.0
H880 H 0.29887 0.341 0.15443 0.0
H881 H 0.33705 0.29433 0.09035 0.0
C882 C 0.3646 0.30459 0.1114 0.0
C883 C 0.37292 0.31868 0.13251 0.0
C884 C 0.29349 0.3352 0.13599 0.0
C885 C 0.32971 0.31869 0.12408 0.0
C886 C 0.27276 0.34133 0.12932 0.0
C887 C 0.26551 0.33487 0.10531 0.0
C888 C 0.30708 0.32248 0.11855 0.0
C889 C 0.27939 0.32118 0.0887 0.0
C890 C 0.34306 0.30454 0.10713 0.0
C891 C 0.35898 0.33115 0.14968 0.0
N892 N 0.29953 0.31562 0.09559 0.0
N893 N 0.33806 0.33112 0.14497 0.0
H894 H 0.70787 0.5344 0.89518 0.0
H895 H 0.58374 0.53946 0.88263 0.0
H896 H 0.67044 0.61407 0.90734 0.0
H897 H 0.62108 0.45933 0.87218 0.0
H898 H 0.6157 0.56906 0.88442 0.0
H899 H 0.67683 0.50869 0.87963 0.0
C900 C 0.69319 0.54663 0.89429 0.0
C901 C 0.69169 0.5763 0.90295 0.0
C902 C 0.6169 0.54506 0.88139 0.0
C903 C 0.65605 0.5469 0.88533 0.0
C904 C 0.59864 0.52813 0.88031 0.0
C905 C 0.59975 0.49677 0.87768 0.0
C906 C 0.63641 0.53052 0.87995 0.0
C907 C 0.61948 0.48338 0.87456 0.0
C908 C 0.67545 0.53191 0.88541 0.0
C909 C 0.67229 0.59109 0.90113 0.0
N910 N 0.63704 0.50028 0.87612 0.0
N911 N 0.65517 0.57611 0.89282 0.0
loop_
_geom_bond_atom_site_label_1
_geom_bond_atom_site_label_2
_geom_bond_distance
_geom_bond_site_symmetry_2
_ccdc_geom_bond_type
O0 Cd1 2.300 . S
O0 C7 1.275 . S
Cd1 O0 2.300 . S
Cd1 O9 2.381 . S
Cd1 O10 2.378 . S
O2 Cd3 2.385 1_655 S
O2 C7 1.255 . S
Cd3 O2 2.385 1_455 S
Cd3 O4 2.317 . S
O4 Cd3 2.317 . S
O4 C5 1.232 . S
C5 O4 1.232 . S
C5 O6 1.218 . S
O6 C5 1.218 . S
C7 O0 1.275 . S
C7 O2 1.255 . S
C8 O9 1.258 . S
C8 O10 1.256 . S
O9 Cd1 2.381 . S
O9 C8 1.258 . S
O10 Cd1 2.378 . S
O10 C8 1.256 . S
O11 Cd12 2.300 1_565 S
O11 C18 1.275 . S
Cd12 O11 2.300 1_545 S
Cd12 O20 2.381 . S
Cd12 O21 2.378 . S
O13 Cd14 2.385 . S
O13 C18 1.255 . S
Cd14 O13 2.385 . S
Cd14 O15 2.317 . S
O15 Cd14 2.317 . S
O15 C16 1.232 . S
C16 O15 1.232 . S
C16 O17 1.218 . S
O17 C16 1.218 . S
C18 O11 1.275 . S
C18 O13 1.255 . S
C19 O20 1.258 . S
C19 O21 1.256 . S
O20 Cd12 2.381 . S
O20 C19 1.258 . S
O21 Cd12 2.378 . S
O21 C19 1.256 . S
O22 Cd23 2.300 . S
O22 C29 1.275 . S
Cd23 O22 2.300 . S
Cd23 O31 2.381 . S
Cd23 O32 2.378 . S
O24 Cd25 2.385 . S
O24 C29 1.255 . S
Cd25 O24 2.385 . S
Cd25 O26 2.317 . S
O26 Cd25 2.317 . S
O26 C27 1.232 . S
C27 O26 1.232 . S
C27 O28 1.218 . S
O28 C27 1.218 . S
C29 O22 1.275 . S
C29 O24 1.255 . S
C30 O31 1.258 . S
C30 O32 1.256 . S
O31 Cd23 2.381 . S
O31 C30 1.258 . S
O32 Cd23 2.378 . S
O32 C30 1.256 . S
O33 Cd34 2.300 . S
O33 C40 1.275 . S
Cd34 O33 2.300 . S
Cd34 O42 2.381 . S
Cd34 O43 2.378 . S
O35 Cd36 2.385 . S
O35 C40 1.255 . S
Cd36 O35 2.385 . S
Cd36 O37 2.317 . S
O37 Cd36 2.317 . S
O37 C38 1.232 . S
C38 O37 1.232 . S
C38 O39 1.218 . S
O39 C38 1.218 . S
C40 O33 1.275 . S
C40 O35 1.255 . S
C41 O42 1.258 . S
C41 O43 1.256 . S
O42 Cd34 2.381 . S
O42 C41 1.258 . S
O43 Cd34 2.378 . S
O43 C41 1.256 . S
O44 Cd45 2.300 . S
O44 C51 1.275 . S
Cd45 O44 2.300 . S
Cd45 O53 2.381 . S
Cd45 O54 2.378 . S
O46 Cd47 2.385 . S
O46 C51 1.255 . S
Cd47 O46 2.385 . S
Cd47 O48 2.317 . S
O48 Cd47 2.317 . S
O48 C49 1.232 . S
C49 O48 1.232 . S
C49 O50 1.218 . S
O50 C49 1.218 . S
C51 O44 1.275 . S
C51 O46 1.255 . S
C52 O53 1.258 . S
C52 O54 1.256 . S
O53 Cd45 2.381 . S
O53 C52 1.258 . S
O54 Cd45 2.378 . S
O54 C52 1.256 . S
O55 Cd56 2.300 . S
O55 C62 1.275 . S
Cd56 O55 2.300 . S
Cd56 O64 2.381 . S
Cd56 O65 2.378 . S
O57 Cd58 2.385 . S
O57 C62 1.255 . S
Cd58 O57 2.385 . S
Cd58 O59 2.317 . S
O59 Cd58 2.317 . S
O59 C60 1.232 . S
C60 O59 1.232 . S
C60 O61 1.218 . S
O61 C60 1.218 . S
C62 O55 1.275 . S
C62 O57 1.255 . S
C63 O64 1.258 . S
C63 O65 1.256 . S
O64 Cd56 2.381 . S
O64 C63 1.258 . S
O65 Cd56 2.378 . S
O65 C63 1.256 . S
O66 Cd67 2.300 . S
O66 C73 1.275 . S
Cd67 O66 2.300 . S
Cd67 O75 2.381 . S
Cd67 O76 2.378 . S
O68 Cd69 2.385 . S
O68 C73 1.255 . S
Cd69 O68 2.385 . S
Cd69 O70 2.317 . S
O70 Cd69 2.317 . S
O70 C71 1.232 . S
C71 O70 1.232 . S
C71 O72 1.218 . S
O72 C71 1.218 . S
C73 O66 1.275 . S
C73 O68 1.255 . S
C74 O75 1.258 . S
C74 O76 1.256 . S
O75 Cd67 2.381 . S
O75 C74 1.258 . S
O76 Cd67 2.378 . S
O76 C74 1.256 . S
O77 Cd78 2.300 1_545 S
O77 C84 1.275 . S
Cd78 O77 2.300 1_565 S
Cd78 O86 2.381 . S
Cd78 O87 2.378 . S
O79 Cd80 2.385 . S
O79 C84 1.255 . S
Cd80 O79 2.385 . S
Cd80 O81 2.317 . S
O81 Cd80 2.317 . S
O81 C82 1.232 . S
C82 O81 1.232 . S
C82 O83 1.218 . S
O83 C82 1.218 . S
C84 O77 1.275 . S
C84 O79 1.255 . S
C85 O86 1.258 . S
C85 O87 1.256 . S
O86 Cd78 2.381 . S
O86 C85 1.258 . S
O87 Cd78 2.378 . S
O87 C85 1.256 . S
O88 Cd89 2.300 1_545 S
O88 C95 1.275 . S
Cd89 O88 2.300 1_565 S
Cd89 O97 2.381 . S
Cd89 O98 2.378 . S
O90 Cd91 2.385 . S
O90 C95 1.255 1_565 S
Cd91 O90 2.385 . S
Cd91 O92 2.317 . S
O92 Cd91 2.317 . S
O92 C93 1.232 1_565 S
C93 O92 1.232 1_545 S
C93 O94 1.218 . S
O94 C93 1.218 . S
C95 O88 1.275 . S
C95 O90 1.255 1_545 S
C96 O97 1.258 . S
C96 O98 1.256 . S
O97 Cd89 2.381 . S
O97 C96 1.258 . S
O98 Cd89 2.378 . S
O98 C96 1.256 . S
O99 Cd100 2.300 . S
O99 C106 1.275 . S
Cd100 O99 2.300 . S
Cd100 O108 2.381 . S
Cd100 O109 2.378 . S
O101 Cd102 2.385 . S
O101 C106 1.255 . S
Cd102 O101 2.385 . S
Cd102 O103 2.317 . S
O103 Cd102 2.317 . S
O103 C104 1.232 . S
C104 O103 1.232 . S
C104 O105 1.218 . S
O105 C104 1.218 . S
C106 O99 1.275 . S
C106 O101 1.255 . S
C107 O108 1.258 . S
C107 O109 1.256 . S
O108 Cd100 2.381 . S
O108 C107 1.258 . S
O109 Cd100 2.378 . S
O109 C107 1.256 . S
O110 Cd111 2.300 . S
O110 C117 1.275 . S
Cd111 O110 2.300 . S
Cd111 O119 2.381 . S
Cd111 O120 2.378 . S
O112 Cd113 2.385 . S
O112 C117 1.255 . S
Cd113 O112 2.385 . S
Cd113 O114 2.317 . S
O114 Cd113 2.317 . S
O114 C115 1.232 . S
C115 O114 1.232 . S
C115 O116 1.218 . S
O116 C115 1.218 . S
C117 O110 1.275 . S
C117 O112 1.255 . S
C118 O119 1.258 . S
C118 O120 1.256 . S
O119 Cd111 2.381 . S
O119 C118 1.258 . S
O120 Cd111 2.378 . S
O120 C118 1.256 . S
O121 Cd122 2.300 1_655 S
O121 C128 1.275 1_655 S
Cd122 O121 2.300 1_455 S
Cd122 O130 2.381 1_455 S
Cd122 O131 2.378 . S
O123 Cd124 2.385 1_565 S
O123 C128 1.255 . S
Cd124 O123 2.385 1_545 S
Cd124 O125 2.324 . S
O125 Cd124 2.324 . S
O125 C126 1.230 1_545 S
C126 O125 1.230 1_565 S
C126 O127 1.218 1_565 S
O127 C126 1.218 1_545 S
C128 O121 1.275 1_455 S
C128 O123 1.255 . S
C129 O130 1.258 . S
C129 O131 1.256 1_655 S
O130 Cd122 2.381 1_655 S
O130 C129 1.258 . S
O131 Cd122 2.378 . S
O131 C129 1.256 1_455 S
O132 Cd133 2.300 1_565 S
O132 C139 1.275 . S
Cd133 O132 2.300 1_545 S
Cd133 O141 2.381 . S
Cd133 O142 2.378 . S
O134 Cd135 2.385 . S
O134 C139 1.255 1_545 S
Cd135 O134 2.385 . S
Cd135 O136 2.317 . S
O136 Cd135 2.317 . S
O136 C137 1.232 1_545 S
C137 O136 1.232 1_565 S
C137 O138 1.218 . S
O138 C137 1.218 . S
C139 O132 1.275 . S
C139 O134 1.255 1_565 S
C140 O141 1.258 . S
C140 O142 1.256 . S
O141 Cd133 2.381 . S
O141 C140 1.258 . S
O142 Cd133 2.378 . S
O142 C140 1.256 . S
O143 Cd144 2.300 . S
O143 C150 1.275 . S
Cd144 O143 2.300 . S
Cd144 O152 2.381 . S
Cd144 O153 2.378 . S
O145 Cd146 2.385 . S
O145 C150 1.255 . S
Cd146 O145 2.385 . S
Cd146 O147 2.317 . S
O147 Cd146 2.317 . S
O147 C148 1.232 . S
C148 O147 1.232 . S
C148 O149 1.218 1_455 S
O149 C148 1.218 1_655 S
C150 O143 1.275 . S
C150 O145 1.255 . S
C151 O152 1.258 . S
C151 O153 1.256 . S
O152 Cd144 2.381 . S
O152 C151 1.258 . S
O153 Cd144 2.378 . S
O153 C151 1.256 . S
O154 Cd155 2.300 . S
O154 C161 1.275 . S
Cd155 O154 2.300 . S
Cd155 O163 2.381 . S
Cd155 O164 2.378 . S
O156 Cd157 2.385 . S
O156 C161 1.255 . S
Cd157 O156 2.385 . S
Cd157 O158 2.317 . S
O158 Cd157 2.317 . S
O158 C159 1.232 . S
C159 O158 1.232 . S
C159 O160 1.218 . S
O160 C159 1.218 . S
C161 O154 1.275 . S
C161 O156 1.255 . S
C162 O163 1.258 . S
C162 O164 1.256 . S
O163 Cd155 2.381 . S
O163 C162 1.258 . S
O164 Cd155 2.378 . S
O164 C162 1.256 . S
O165 Cd166 2.300 . S
O165 C172 1.275 . S
Cd166 O165 2.300 . S
Cd166 O174 2.381 . S
Cd166 O175 2.378 . S
O167 Cd168 2.385 . S
O167 C172 1.255 . S
Cd168 O167 2.385 . S
Cd168 O169 2.317 . S
O169 Cd168 2.317 . S
O169 C170 1.232 . S
C170 O169 1.232 . S
C170 O171 1.218 . S
O171 C170 1.218 . S
C172 O165 1.275 . S
C172 O167 1.255 . S
C173 O174 1.258 . S
C173 O175 1.256 . S
O174 Cd166 2.381 . S
O174 C173 1.258 . S
O175 Cd166 2.378 . S
O175 C173 1.256 . S
O176 Cd177 2.300 . S
O176 C183 1.275 . S
Cd177 O176 2.300 . S
Cd177 O185 2.381 . S
Cd177 O186 2.378 . S
O178 Cd179 2.385 . S
O178 C183 1.255 . S
Cd179 O178 2.385 . S
Cd179 O180 2.317 . S
O180 Cd179 2.317 . S
O180 C181 1.232 . S
C181 O180 1.232 . S
C181 O182 1.218 . S
O182 C181 1.218 . S
C183 O176 1.275 . S
C183 O178 1.255 . S
C184 O185 1.258 . S
C184 O186 1.256 . S
O185 Cd177 2.381 . S
O185 C184 1.258 . S
O186 Cd177 2.378 . S
O186 C184 1.256 . S
O187 Cd188 2.300 . S
O187 C194 1.275 . S
Cd188 O187 2.300 . S
Cd188 O196 2.381 . S
Cd188 O197 2.378 . S
O189 Cd190 2.385 . S
O189 C194 1.255 . S
Cd190 O189 2.385 . S
Cd190 O191 2.317 . S
O191 Cd190 2.317 . S
O191 C192 1.232 . S
C192 O191 1.232 . S
C192 O193 1.218 . S
O193 C192 1.218 . S
C194 O187 1.275 . S
C194 O189 1.255 . S
C195 O196 1.258 . S
C195 O197 1.256 . S
O196 Cd188 2.381 . S
O196 C195 1.258 . S
O197 Cd188 2.378 . S
O197 C195 1.256 . S
O198 Cd199 2.300 . S
O198 C205 1.275 . S
Cd199 O198 2.300 . S
Cd199 O207 2.381 . S
Cd199 O208 2.378 . S
O200 Cd201 2.385 . S
O200 C205 1.255 . S
Cd201 O200 2.385 . S
Cd201 O202 2.317 1_554 S
O202 Cd201 2.317 1_556 S
O202 C203 1.232 . S
C203 O202 1.232 . S
C203 O204 1.218 . S
O204 C203 1.218 . S
C205 O198 1.275 . S
C205 O200 1.255 . S
C206 O207 1.258 . S
C206 O208 1.256 . S
O207 Cd199 2.381 . S
O207 C206 1.258 . S
O208 Cd199 2.378 . S
O208 C206 1.256 . S
O209 Cd210 2.300 . S
O209 C216 1.275 . S
Cd210 O209 2.300 . S
Cd210 O218 2.381 . S
Cd210 O219 2.378 . S
O211 Cd212 2.385 . S
O211 C216 1.255 . S
Cd212 O211 2.385 . S
Cd212 O213 2.317 . S
O213 Cd212 2.317 . S
O213 C214 1.232 . S
C214 O213 1.232 . S
C214 O215 1.218 . S
O215 C214 1.218 . S
C216 O209 1.275 . S
C216 O211 1.255 . S
C217 O218 1.258 . S
C217 O219 1.256 . S
O218 Cd210 2.381 . S
O218 C217 1.258 . S
O219 Cd210 2.378 . S
O219 C217 1.256 . S
O220 Cd221 2.300 . S
O220 C227 1.275 . S
Cd221 O220 2.300 . S
Cd221 O229 2.381 . S
Cd221 O230 2.378 . S
O222 Cd223 2.385 . S
O222 C227 1.255 . S
Cd223 O222 2.385 . S
Cd223 O224 2.317 . S
O224 Cd223 2.317 . S
O224 C225 1.232 . S
C225 O224 1.232 . S
C225 O226 1.218 . S
O226 C225 1.218 . S
C227 O220 1.275 . S
C227 O222 1.255 . S
C228 O229 1.258 . S
C228 O230 1.256 . S
O229 Cd221 2.381 . S
O229 C228 1.258 . S
O230 Cd221 2.378 . S
O230 C228 1.256 . S
O231 Cd232 2.300 . S
O231 C238 1.275 . S
Cd232 O231 2.300 . S
Cd232 O240 2.381 . S
Cd232 O241 2.378 . S
O233 Cd234 2.385 1_556 S
O233 C238 1.255 . S
Cd234 O233 2.385 1_554 S
Cd234 O235 2.317 . S
O235 Cd234 2.317 . S
O235 C236 1.232 . S
C236 O235 1.232 . S
C236 O237 1.218 . S
O237 C236 1.218 . S
C238 O231 1.275 . S
C238 O233 1.255 . S
C239 O240 1.258 . S
C239 O241 1.256 . S
O240 Cd232 2.381 . S
O240 C239 1.258 . S
O241 Cd232 2.378 . S
O241 C239 1.256 . S
O242 Cd243 2.300 . S
O242 C249 1.275 . S
Cd243 O242 2.300 . S
Cd243 O251 2.381 . S
Cd243 O252 2.378 . S
O244 Cd245 2.385 . S
O244 C249 1.255 . S
Cd245 O244 2.385 . S
Cd245 O246 2.317 1_556 S
O246 Cd245 2.317 1_554 S
O246 C247 1.232 . S
C247 O246 1.232 . S
C247 O248 1.218 . S
O248 C247 1.218 . S
C249 O242 1.275 . S
C249 O244 1.255 . S
C250 O251 1.258 . S
C250 O252 1.256 . S
O251 Cd243 2.381 . S
O251 C250 1.258 . S
O252 Cd243 2.378 . S
O252 C250 1.256 . S
O253 Cd254 2.295 1_554 S
O253 C260 1.242 1_554 S
Cd254 O253 2.295 1_556 S
Cd254 O262 2.381 1_556 S
Cd254 O263 2.378 1_556 S
O255 Cd256 2.385 . S
O255 C260 1.255 . S
Cd256 O255 2.385 . S
Cd256 O257 2.317 . S
O257 Cd256 2.317 . S
O257 C258 1.232 . S
C258 O257 1.232 . S
C258 O259 1.218 . S
O259 C258 1.218 . S
C260 O253 1.242 1_556 S
C260 O255 1.255 . S
C261 O262 1.258 . S
C261 O263 1.256 . S
O262 Cd254 2.381 1_554 S
O262 C261 1.258 . S
O263 Cd254 2.378 1_554 S
O263 C261 1.256 . S
H264 C270 0.930 . S
H265 C274 0.930 . S
H266 C279 0.929 . S
H267 C277 0.929 . S
H268 C272 0.929 . S
H269 C278 0.929 . S
C270 H264 0.930 . S
C270 C271 1.367 . S
C270 C278 1.378 . S
C271 C270 1.367 . S
C271 C279 1.433 . S
C272 H268 0.929 . S
C272 C274 1.378 . S
C272 C276 1.350 . S
C273 C276 1.463 . S
C273 C278 1.350 . S
C273 N281 1.427 . S
C274 H265 0.930 . S
C274 C272 1.378 . S
C274 C275 1.367 . S
C275 C274 1.367 . S
C275 C277 1.433 . S
C276 C272 1.350 . S
C276 C273 1.463 . S
C276 N280 1.427 . S
C277 H267 0.929 . S
C277 C275 1.433 . S
C277 N280 1.384 . S
C278 H269 0.929 . S
C278 C270 1.378 . S
C278 C273 1.350 . S
C279 H266 0.929 . S
C279 C271 1.433 . S
C279 N281 1.384 . S
N280 C276 1.427 . S
N280 C277 1.384 . S
N281 C273 1.427 . S
N281 C279 1.384 . S
H282 C288 0.930 . S
H283 C292 0.930 . S
H284 C297 0.929 . S
H285 C295 0.929 . S
H286 C290 0.929 . S
H287 C296 0.929 . S
C288 H282 0.930 . S
C288 C289 1.367 . S
C288 C296 1.378 . S
C289 C288 1.367 . S
C289 C297 1.433 . S
C290 H286 0.929 . S
C290 C292 1.378 . S
C290 C294 1.350 . S
C291 C294 1.463 . S
C291 C296 1.350 . S
C291 N299 1.427 . S
C292 H283 0.930 . S
C292 C290 1.378 . S
C292 C293 1.367 . S
C293 C292 1.367 . S
C293 C295 1.433 . S
C294 C290 1.350 . S
C294 C291 1.463 . S
C294 N298 1.427 . S
C295 H285 0.929 . S
C295 C293 1.433 . S
C295 N298 1.384 . S
C296 H287 0.929 . S
C296 C288 1.378 . S
C296 C291 1.350 . S
C297 H284 0.929 . S
C297 C289 1.433 . S
C297 N299 1.384 . S
N298 C294 1.427 . S
N298 C295 1.384 . S
N299 C291 1.427 . S
N299 C297 1.384 . S
H300 C306 0.930 . S
H301 C310 0.930 . S
H302 C315 0.929 . S
H303 C313 0.929 . S
H304 C308 0.929 . S
H305 C314 0.929 . S
C306 H300 0.930 . S
C306 C307 1.367 . S
C306 C314 1.378 . S
C307 C306 1.367 . S
C307 C315 1.433 . S
C308 H304 0.929 . S
C308 C310 1.378 . S
C308 C312 1.350 1_655 S
C309 C312 1.463 . S
C309 C314 1.350 . S
C309 N317 1.427 . S
C310 H301 0.930 . S
C310 C308 1.378 . S
C310 C311 1.367 . S
C311 C310 1.367 . S
C311 C313 1.433 1_655 S
C312 C308 1.350 1_455 S
C312 C309 1.463 . S
C312 N316 1.427 . S
C313 H303 0.929 . S
C313 C311 1.433 1_455 S
C313 N316 1.384 . S
C314 H305 0.929 . S
C314 C306 1.378 . S
C314 C309 1.350 . S
C315 H302 0.929 . S
C315 C307 1.433 . S
C315 N317 1.384 . S
N316 C312 1.427 . S
N316 C313 1.384 . S
N317 C309 1.427 . S
N317 C315 1.384 . S
H318 C324 0.930 . S
H319 C328 0.930 . S
H320 C333 0.929 . S
H321 C331 0.929 . S
H322 C326 0.929 . S
H323 C332 0.929 . S
C324 H318 0.930 . S
C324 C325 1.367 . S
C324 C332 1.378 . S
C325 C324 1.367 . S
C325 C333 1.433 . S
C326 H322 0.929 . S
C326 C328 1.378 . S
C326 C330 1.350 . S
C327 C330 1.463 . S
C327 C332 1.350 . S
C327 N335 1.427 . S
C328 H319 0.930 . S
C328 C326 1.378 . S
C328 C329 1.367 . S
C329 C328 1.367 . S
C329 C331 1.433 . S
C330 C326 1.350 . S
C330 C327 1.463 . S
C330 N334 1.427 . S
C331 H321 0.929 . S
C331 C329 1.433 . S
C331 N334 1.384 . S
C332 H323 0.929 . S
C332 C324 1.378 . S
C332 C327 1.350 . S
C333 H320 0.929 . S
C333 C325 1.433 . S
C333 N335 1.384 . S
N334 C330 1.427 . S
N334 C331 1.384 . S
N335 C327 1.427 . S
N335 C333 1.384 . S
H336 C342 0.930 . S
H337 C346 0.930 . S
H338 C351 0.929 . S
H339 C349 0.929 . S
H340 C344 0.929 . S
H341 C350 0.929 . S
C342 H336 0.930 . S
C342 C343 1.367 . S
C342 C350 1.378 . S
C343 C342 1.367 . S
C343 C351 1.433 1_545 S
C344 H340 0.929 . S
C344 C346 1.378 . S
C344 C348 1.350 . S
C345 C348 1.463 1_545 S
C345 C350 1.350 . S
C345 N353 1.427 1_545 S
C346 H337 0.930 . S
C346 C344 1.378 . S
C346 C347 1.367 . S
C347 C346 1.367 . S
C347 C349 1.433 1_565 S
C348 C344 1.350 . S
C348 C345 1.463 1_565 S
C348 N352 1.427 1_565 S
C349 H339 0.929 . S
C349 C347 1.433 1_545 S
C349 N352 1.384 . S
C350 H341 0.929 . S
C350 C342 1.378 . S
C350 C345 1.350 . S
C351 H338 0.929 . S
C351 C343 1.433 1_565 S
C351 N353 1.384 . S
N352 C348 1.427 1_545 S
N352 C349 1.384 . S
N353 C345 1.427 1_565 S
N353 C351 1.384 . S
H354 C360 0.930 1_455 S
H355 C364 0.930 . S
H356 C369 0.929 . S
H357 C367 0.929 . S
H358 C362 0.929 . S
H359 C368 0.929 . S
C360 H354 0.930 1_655 S
C360 C361 1.367 . S
C360 C368 1.378 . S
C361 C360 1.367 . S
C361 C369 1.433 . S
C362 H358 0.929 . S
C362 C364 1.378 . S
C362 C366 1.350 . S
C363 C366 1.463 . S
C363 C368 1.350 . S
C363 N371 1.427 . S
C364 H355 0.930 . S
C364 C362 1.378 . S
C364 C365 1.367 . S
C365 C364 1.367 . S
C365 C367 1.433 . S
C366 C362 1.350 . S
C366 C363 1.463 . S
C366 N370 1.427 . S
C367 H357 0.929 . S
C367 C365 1.433 . S
C367 N370 1.384 . S
C368 H359 0.929 . S
C368 C360 1.378 . S
C368 C363 1.350 . S
C369 H356 0.929 . S
C369 C361 1.433 . S
C369 N371 1.384 . S
N370 C366 1.427 . S
N370 C367 1.384 . S
N371 C363 1.427 . S
N371 C369 1.384 . S
H372 C378 0.930 . S
H373 C382 0.930 . S
H374 C387 0.929 . S
H375 C385 0.929 . S
H376 C380 0.929 . S
H377 C386 0.929 . S
C378 H372 0.930 . S
C378 C379 1.367 . S
C378 C386 1.378 . S
C379 C378 1.367 . S
C379 C387 1.433 . S
C380 H376 0.929 . S
C380 C382 1.378 . S
C380 C384 1.350 . S
C381 C384 1.463 1_565 S
C381 C386 1.350 . S
C381 N389 1.427 . S
C382 H373 0.930 . S
C382 C380 1.378 . S
C382 C383 1.367 . S
C383 C382 1.367 . S
C383 C385 1.433 . S
C384 C380 1.350 . S
C384 C381 1.463 1_545 S
C384 N388 1.427 . S
C385 H375 0.929 . S
C385 C383 1.433 . S
C385 N388 1.384 . S
C386 H377 0.929 . S
C386 C378 1.378 . S
C386 C381 1.350 . S
C387 H374 0.929 . S
C387 C379 1.433 . S
C387 N389 1.384 . S
N388 C384 1.427 . S
N388 C385 1.384 . S
N389 C381 1.427 . S
N389 C387 1.384 . S
H390 C396 0.930 . S
H391 C400 0.930 . S
H392 C405 0.929 . S
H393 C403 0.929 . S
H394 C398 0.929 . S
H395 C404 0.929 . S
C396 H390 0.930 . S
C396 C397 1.367 . S
C396 C404 1.378 . S
C397 C396 1.367 . S
C397 C405 1.433 . S
C398 H394 0.929 . S
C398 C400 1.378 . S
C398 C402 1.350 . S
C399 C402 1.463 . S
C399 C404 1.350 . S
C399 N407 1.427 . S
C400 H391 0.930 . S
C400 C398 1.378 . S
C400 C401 1.367 . S
C401 C400 1.367 . S
C401 C403 1.433 1_655 S
C402 C398 1.350 . S
C402 C399 1.463 . S
C402 N406 1.427 1_655 S
C403 H393 0.929 . S
C403 C401 1.433 1_455 S
C403 N406 1.384 . S
C404 H395 0.929 . S
C404 C396 1.378 . S
C404 C399 1.350 . S
C405 H392 0.929 . S
C405 C397 1.433 . S
C405 N407 1.384 . S
N406 C402 1.427 1_455 S
N406 C403 1.384 . S
N407 C399 1.427 . S
N407 C405 1.384 . S
H408 C414 0.929 1_556 S
H409 C418 0.930 . S
H410 C423 0.929 . S
H411 C421 0.929 . S
H412 C416 0.929 . S
H413 C422 0.929 . S
C414 H408 0.929 1_554 S
C414 C415 1.367 1_554 S
C414 C422 1.378 . S
C415 C414 1.367 1_556 S
C415 C423 1.433 . S
C416 H412 0.929 . S
C416 C418 1.378 . S
C416 C420 1.350 . S
C417 C420 1.463 . S
C417 C422 1.350 . S
C417 N425 1.427 . S
C418 H409 0.930 . S
C418 C416 1.378 . S
C418 C419 1.367 . S
C419 C418 1.367 . S
C419 C421 1.433 . S
C420 C416 1.350 . S
C420 C417 1.463 . S
C420 N424 1.427 . S
C421 H411 0.929 . S
C421 C419 1.433 . S
C421 N424 1.384 . S
C422 H413 0.929 . S
C422 C414 1.378 . S
C422 C417 1.350 . S
C423 H410 0.929 . S
C423 C415 1.433 . S
C423 N425 1.384 1_556 S
N424 C420 1.427 . S
N424 C421 1.384 . S
N425 C417 1.427 . S
N425 C423 1.384 1_554 S
H426 C432 0.930 . S
H427 C436 0.930 . S
H428 C441 0.929 . S
H429 C439 0.929 . S
H430 C434 0.929 . S
H431 C440 0.929 . S
C432 H426 0.930 . S
C432 C433 1.367 . S
C432 C440 1.378 . S
C433 C432 1.367 . S
C433 C441 1.433 . S
C434 H430 0.929 . S
C434 C436 1.378 . S
C434 C438 1.350 . S
C435 C438 1.463 . S
C435 C440 1.350 . S
C435 N443 1.427 . S
C436 H427 0.930 . S
C436 C434 1.378 . S
C436 C437 1.367 . S
C437 C436 1.367 . S
C437 C439 1.433 . S
C438 C434 1.350 . S
C438 C435 1.463 . S
C438 N442 1.427 . S
C439 H429 0.929 . S
C439 C437 1.433 . S
C439 N442 1.384 . S
C440 H431 0.929 . S
C440 C432 1.378 . S
C440 C435 1.350 . S
C441 H428 0.929 . S
C441 C433 1.433 . S
C441 N443 1.384 . S
N442 C438 1.427 . S
N442 C439 1.384 . S
N443 C435 1.427 . S
N443 C441 1.384 . S
H444 C450 0.930 . S
H445 C454 0.930 . S
H446 C459 0.929 . S
H447 C457 0.929 . S
H448 C452 0.929 . S
H449 C458 0.929 . S
C450 H444 0.930 . S
C450 C451 1.367 1_556 S
C450 C458 1.378 . S
C451 C450 1.367 1_554 S
C451 C459 1.433 . S
C452 H448 0.929 . S
C452 C454 1.378 . S
C452 C456 1.350 . S
C453 C456 1.463 . S
C453 C458 1.350 1_554 S
C453 N461 1.427 . S
C454 H445 0.930 . S
C454 C452 1.378 . S
C454 C455 1.367 . S
C455 C454 1.367 . S
C455 C457 1.433 1_554 S
C456 C452 1.350 . S
C456 C453 1.463 . S
C456 N460 1.427 1_554 S
C457 H447 0.929 . S
C457 C455 1.433 1_556 S
C457 N460 1.384 . S
C458 H449 0.929 . S
C458 C450 1.378 . S
C458 C453 1.350 1_556 S
C459 H446 0.929 . S
C459 C451 1.433 . S
C459 N461 1.384 . S
N460 C456 1.427 1_556 S
N460 C457 1.384 . S
N461 C453 1.427 . S
N461 C459 1.384 . S
H462 C468 0.930 . S
H463 C472 0.930 . S
H464 C477 0.929 . S
H465 C475 0.929 1_554 S
H466 C470 0.929 . S
H467 C476 0.929 . S
C468 H462 0.930 . S
C468 C469 1.367 . S
C468 C476 1.378 . S
C469 C468 1.367 . S
C469 C477 1.433 . S
C470 H466 0.929 . S
C470 C472 1.378 . S
C470 C474 1.350 . S
C471 C474 1.463 . S
C471 C476 1.350 . S
C471 N479 1.427 . S
C472 H463 0.930 . S
C472 C470 1.378 . S
C472 C473 1.367 . S
C473 C472 1.367 . S
C473 C475 1.433 . S
C474 C470 1.350 . S
C474 C471 1.463 . S
C474 N478 1.427 . S
C475 H465 0.929 1_556 S
C475 C473 1.433 . S
C475 N478 1.384 . S
C476 H467 0.929 . S
C476 C468 1.378 . S
C476 C471 1.350 . S
C477 H464 0.929 . S
C477 C469 1.433 . S
C477 N479 1.384 . S
N478 C474 1.427 . S
N478 C475 1.384 . S
N479 C471 1.427 . S
N479 C477 1.384 . S
H480 C486 0.930 . S
H481 C490 0.930 . S
H482 C495 0.929 . S
H483 C493 0.929 . S
H484 C488 0.929 . S
H485 C494 0.929 . S
C486 H480 0.930 . S
C486 C487 1.367 . S
C486 C494 1.378 . S
C487 C486 1.367 . S
C487 C495 1.433 . S
C488 H484 0.929 . S
C488 C490 1.378 . S
C488 C492 1.350 . S
C489 C492 1.463 . S
C489 C494 1.350 . S
C489 N497 1.427 . S
C490 H481 0.930 . S
C490 C488 1.378 . S
C490 C491 1.367 . S
C491 C490 1.367 . S
C491 C493 1.433 . S
C492 C488 1.350 . S
C492 C489 1.463 . S
C492 N496 1.427 . S
C493 H483 0.929 . S
C493 C491 1.433 . S
C493 N496 1.384 . S
C494 H485 0.929 . S
C494 C486 1.378 . S
C494 C489 1.350 . S
C495 H482 0.929 . S
C495 C487 1.433 . S
C495 N497 1.384 . S
N496 C492 1.427 . S
N496 C493 1.384 . S
N497 C489 1.427 . S
N497 C495 1.384 . S
H498 C504 0.930 . S
H499 C508 0.930 . S
H500 C513 0.929 . S
H501 C511 0.929 . S
H502 C506 0.929 . S
H503 C512 0.929 . S
C504 H498 0.930 . S
C504 C505 1.367 . S
C504 C512 1.378 . S
C505 C504 1.367 . S
C505 C513 1.433 . S
C506 H502 0.929 . S
C506 C508 1.378 . S
C506 C510 1.350 . S
C507 C510 1.463 . S
C507 C512 1.350 . S
C507 N515 1.427 . S
C508 H499 0.930 . S
C508 C506 1.378 . S
C508 C509 1.367 . S
C509 C508 1.367 . S
C509 C511 1.433 . S
C510 C506 1.350 . S
C510 C507 1.463 . S
C510 N514 1.427 . S
C511 H501 0.929 . S
C511 C509 1.433 . S
C511 N514 1.384 . S
C512 H503 0.929 . S
C512 C504 1.378 . S
C512 C507 1.350 . S
C513 H500 0.929 . S
C513 C505 1.433 . S
C513 N515 1.384 . S
N514 C510 1.427 . S
N514 C511 1.384 . S
N515 C507 1.427 . S
N515 C513 1.384 . S
H516 C522 0.930 . S
H517 C526 0.930 . S
H518 C531 0.929 . S
H519 C529 0.929 . S
H520 C524 0.929 . S
H521 C530 0.929 . S
C522 H516 0.930 . S
C522 C523 1.367 . S
C522 C530 1.378 . S
C523 C522 1.367 . S
C523 C531 1.433 . S
C524 H520 0.929 . S
C524 C526 1.378 . S
C524 C528 1.350 . S
C525 C528 1.463 . S
C525 C530 1.350 . S
C525 N533 1.427 . S
C526 H517 0.930 . S
C526 C524 1.378 . S
C526 C527 1.367 . S
C527 C526 1.367 . S
C527 C529 1.433 . S
C528 C524 1.350 . S
C528 C525 1.463 . S
C528 N532 1.427 . S
C529 H519 0.929 . S
C529 C527 1.433 . S
C529 N532 1.384 . S
C530 H521 0.929 . S
C530 C522 1.378 . S
C530 C525 1.350 . S
C531 H518 0.929 . S
C531 C523 1.433 . S
C531 N533 1.384 . S
N532 C528 1.427 . S
N532 C529 1.384 . S
N533 C525 1.427 . S
N533 C531 1.384 . S
H534 C540 0.930 . S
H535 C544 0.930 . S
H536 C549 0.929 . S
H537 C547 0.929 . S
H538 C542 0.929 . S
H539 C548 0.929 . S
C540 H534 0.930 . S
C540 C541 1.367 . S
C540 C548 1.378 . S
C541 C540 1.367 . S
C541 C549 1.433 . S
C542 H538 0.929 . S
C542 C544 1.378 . S
C542 C546 1.350 . S
C543 C546 1.463 . S
C543 C548 1.350 . S
C543 N551 1.427 . S
C544 H535 0.930 . S
C544 C542 1.378 . S
C544 C545 1.367 . S
C545 C544 1.367 . S
C545 C547 1.433 . S
C546 C542 1.350 . S
C546 C543 1.463 . S
C546 N550 1.427 . S
C547 H537 0.929 . S
C547 C545 1.433 . S
C547 N550 1.384 . S
C548 H539 0.929 . S
C548 C540 1.378 . S
C548 C543 1.350 . S
C549 H536 0.929 . S
C549 C541 1.433 . S
C549 N551 1.384 . S
N550 C546 1.427 . S
N550 C547 1.384 . S
N551 C543 1.427 . S
N551 C549 1.384 . S
H552 C558 0.930 . S
H553 C562 0.930 . S
H554 C567 0.929 . S
H555 C565 0.929 . S
H556 C560 0.929 . S
H557 C566 0.929 . S
C558 H552 0.930 . S
C558 C559 1.367 . S
C558 C566 1.378 . S
C559 C558 1.367 . S
C559 C567 1.433 . S
C560 H556 0.929 . S
C560 C562 1.378 . S
C560 C564 1.350 . S
C561 C564 1.463 . S
C561 C566 1.350 . S
C561 N569 1.427 . S
C562 H553 0.930 . S
C562 C560 1.378 . S
C562 C563 1.367 . S
C563 C562 1.367 . S
C563 C565 1.433 . S
C564 C560 1.350 . S
C564 C561 1.463 . S
C564 N568 1.427 . S
C565 H555 0.929 . S
C565 C563 1.433 . S
C565 N568 1.384 . S
C566 H557 0.929 . S
C566 C558 1.378 . S
C566 C561 1.350 . S
C567 H554 0.929 . S
C567 C559 1.433 . S
C567 N569 1.384 . S
N568 C564 1.427 . S
N568 C565 1.384 . S
N569 C561 1.427 . S
N569 C567 1.384 . S
H570 C576 0.930 . S
H571 C580 0.930 . S
H572 C585 0.929 . S
H573 C583 0.929 . S
H574 C578 0.929 . S
H575 C584 0.929 . S
C576 H570 0.930 . S
C576 C577 1.367 . S
C576 C584 1.378 . S
C577 C576 1.367 . S
C577 C585 1.433 . S
C578 H574 0.929 . S
C578 C580 1.378 . S
C578 C582 1.350 . S
C579 C582 1.463 . S
C579 C584 1.350 . S
C579 N587 1.427 . S
C580 H571 0.930 . S
C580 C578 1.378 . S
C580 C581 1.367 . S
C581 C580 1.367 . S
C581 C583 1.433 . S
C582 C578 1.350 . S
C582 C579 1.463 . S
C582 N586 1.427 . S
C583 H573 0.929 . S
C583 C581 1.433 . S
C583 N586 1.384 . S
C584 H575 0.929 . S
C584 C576 1.378 . S
C584 C579 1.350 . S
C585 H572 0.929 . S
C585 C577 1.433 . S
C585 N587 1.384 . S
N586 C582 1.427 . S
N586 C583 1.384 . S
N587 C579 1.427 . S
N587 C585 1.384 . S
H588 C594 0.930 . S
H589 C598 0.930 . S
H590 C603 0.929 . S
H591 C601 0.929 . S
H592 C596 0.929 . S
H593 C602 0.929 . S
C594 H588 0.930 . S
C594 C595 1.367 . S
C594 C602 1.378 . S
C595 C594 1.367 . S
C595 C603 1.433 . S
C596 H592 0.929 . S
C596 C598 1.378 . S
C596 C600 1.350 . S
C597 C600 1.463 . S
C597 C602 1.350 . S
C597 N605 1.427 . S
C598 H589 0.930 . S
C598 C596 1.378 . S
C598 C599 1.367 . S
C599 C598 1.367 . S
C599 C601 1.433 . S
C600 C596 1.350 . S
C600 C597 1.463 . S
C600 N604 1.427 . S
C601 H591 0.929 . S
C601 C599 1.433 . S
C601 N604 1.384 . S
C602 H593 0.929 . S
C602 C594 1.378 . S
C602 C597 1.350 . S
C603 H590 0.929 . S
C603 C595 1.433 . S
C603 N605 1.384 . S
N604 C600 1.427 . S
N604 C601 1.384 . S
N605 C597 1.427 . S
N605 C603 1.384 . S
H606 C612 0.930 . S
H607 C616 0.930 . S
H608 C621 0.929 . S
H609 C619 0.929 . S
H610 C614 0.929 . S
H611 C620 0.929 . S
C612 H606 0.930 . S
C612 C613 1.367 . S
C612 C620 1.378 . S
C613 C612 1.367 . S
C613 C621 1.433 . S
C614 H610 0.929 . S
C614 C616 1.378 . S
C614 C618 1.350 . S
C615 C618 1.463 . S
C615 C620 1.350 . S
C615 N623 1.427 . S
C616 H607 0.930 . S
C616 C614 1.378 . S
C616 C617 1.367 . S
C617 C616 1.367 . S
C617 C619 1.433 . S
C618 C614 1.350 . S
C618 C615 1.463 . S
C618 N622 1.427 . S
C619 H609 0.929 . S
C619 C617 1.433 . S
C619 N622 1.384 . S
C620 H611 0.929 . S
C620 C612 1.378 . S
C620 C615 1.350 . S
C621 H608 0.929 . S
C621 C613 1.433 . S
C621 N623 1.384 . S
N622 C618 1.427 . S
N622 C619 1.384 . S
N623 C615 1.427 . S
N623 C621 1.384 . S
H624 C630 0.930 . S
H625 C634 0.930 . S
H626 C639 0.929 . S
H627 C637 0.929 . S
H628 C632 0.929 . S
H629 C638 0.929 . S
C630 H624 0.930 . S
C630 C631 1.367 . S
C630 C638 1.378 . S
C631 C630 1.367 . S
C631 C639 1.433 . S
C632 H628 0.929 . S
C632 C634 1.378 . S
C632 C636 1.350 . S
C633 C636 1.463 . S
C633 C638 1.350 . S
C633 N641 1.427 . S
C634 H625 0.930 . S
C634 C632 1.378 . S
C634 C635 1.367 . S
C635 C634 1.367 . S
C635 C637 1.433 . S
C636 C632 1.350 . S
C636 C633 1.463 . S
C636 N640 1.427 . S
C637 H627 0.929 . S
C637 C635 1.433 . S
C637 N640 1.384 . S
C638 H629 0.929 . S
C638 C630 1.378 . S
C638 C633 1.350 . S
C639 H626 0.929 . S
C639 C631 1.433 . S
C639 N641 1.384 . S
N640 C636 1.427 . S
N640 C637 1.384 . S
N641 C633 1.427 . S
N641 C639 1.384 . S
H642 C648 0.930 . S
H643 C652 0.930 . S
H644 C657 0.929 . S
H645 C655 0.929 . S
H646 C650 0.929 . S
H647 C656 0.929 . S
C648 H642 0.930 . S
C648 C649 1.367 . S
C648 C656 1.378 . S
C649 C648 1.367 . S
C649 C657 1.433 . S
C650 H646 0.929 . S
C650 C652 1.378 . S
C650 C654 1.350 . S
C651 C654 1.463 . S
C651 C656 1.350 . S
C651 N659 1.427 . S
C652 H643 0.930 . S
C652 C650 1.378 . S
C652 C653 1.367 . S
C653 C652 1.367 . S
C653 C655 1.433 . S
C654 C650 1.350 . S
C654 C651 1.463 . S
C654 N658 1.427 . S
C655 H645 0.929 . S
C655 C653 1.433 . S
C655 N658 1.384 . S
C656 H647 0.929 . S
C656 C648 1.378 . S
C656 C651 1.350 . S
C657 H644 0.929 . S
C657 C649 1.433 . S
C657 N659 1.384 . S
N658 C654 1.427 . S
N658 C655 1.384 . S
N659 C651 1.427 . S
N659 C657 1.384 . S
H660 C666 0.930 . S
H661 C670 0.930 . S
H662 C675 0.929 . S
H663 C673 0.929 . S
H664 C668 0.929 . S
H665 C674 0.929 . S
C666 H660 0.930 . S
C666 C667 1.367 . S
C666 C674 1.378 . S
C667 C666 1.367 . S
C667 C675 1.433 . S
C668 H664 0.929 . S
C668 C670 1.378 . S
C668 C672 1.350 . S
C669 C672 1.463 . S
C669 C674 1.350 . S
C669 N677 1.427 . S
C670 H661 0.930 . S
C670 C668 1.378 . S
C670 C671 1.367 . S
C671 C670 1.367 . S
C671 C673 1.433 . S
C672 C668 1.350 . S
C672 C669 1.463 . S
C672 N676 1.427 . S
C673 H663 0.929 . S
C673 C671 1.433 . S
C673 N676 1.384 . S
C674 H665 0.929 . S
C674 C666 1.378 . S
C674 C669 1.350 . S
C675 H662 0.929 . S
C675 C667 1.433 . S
C675 N677 1.384 . S
N676 C672 1.427 . S
N676 C673 1.384 . S
N677 C669 1.427 . S
N677 C675 1.384 . S
H678 C684 0.930 . S
H679 C688 0.930 . S
H680 C693 0.929 . S
H681 C691 0.929 . S
H682 C686 0.929 . S
H683 C692 0.929 . S
C684 H678 0.930 . S
C684 C685 1.367 . S
C684 C692 1.378 . S
C685 C684 1.367 . S
C685 C693 1.433 1_565 S
C686 H682 0.929 . S
C686 C688 1.378 . S
C686 C690 1.350 1_545 S
C687 C690 1.463 . S
C687 C692 1.350 . S
C687 N695 1.427 1_565 S
C688 H679 0.930 . S
C688 C686 1.378 . S
C688 C689 1.367 1_545 S
C689 C688 1.367 1_565 S
C689 C691 1.433 . S
C690 C686 1.350 1_565 S
C690 C687 1.463 . S
C690 N694 1.427 . S
C691 H681 0.929 . S
C691 C689 1.433 . S
C691 N694 1.384 . S
C692 H683 0.929 . S
C692 C684 1.378 . S
C692 C687 1.350 . S
C693 H680 0.929 . S
C693 C685 1.433 1_545 S
C693 N695 1.384 . S
N694 C690 1.427 . S
N694 C691 1.384 . S
N695 C687 1.427 1_545 S
N695 C693 1.384 . S
H696 C702 0.930 . S
H697 C706 0.930 . S
H698 C711 0.929 . S
H699 C709 0.929 . S
H700 C704 0.929 . S
H701 C710 0.929 . S
C702 H696 0.930 . S
C702 C703 1.367 . S
C702 C710 1.378 . S
C703 C702 1.367 . S
C703 C711 1.433 . S
C704 H700 0.929 . S
C704 C706 1.378 . S
C704 C708 1.350 . S
C705 C708 1.463 . S
C705 C710 1.350 . S
C705 N713 1.427 . S
C706 H697 0.930 . S
C706 C704 1.378 . S
C706 C707 1.367 . S
C707 C706 1.367 . S
C707 C709 1.433 . S
C708 C704 1.350 . S
C708 C705 1.463 . S
C708 N712 1.427 . S
C709 H699 0.929 . S
C709 C707 1.433 . S
C709 N712 1.384 . S
C710 H701 0.929 . S
C710 C702 1.378 . S
C710 C705 1.350 . S
C711 H698 0.929 . S
C711 C703 1.433 . S
C711 N713 1.384 . S
N712 C708 1.427 . S
N712 C709 1.384 . S
N713 C705 1.427 . S
N713 C711 1.384 . S
H714 C720 0.930 . S
H715 C724 0.930 . S
H716 C729 0.929 . S
H717 C727 0.929 . S
H718 C722 0.929 . S
H719 C728 0.929 . S
C720 H714 0.930 . S
C720 C721 1.367 . S
C720 C728 1.378 . S
C721 C720 1.367 . S
C721 C729 1.433 . S
C722 H718 0.929 . S
C722 C724 1.378 . S
C722 C726 1.350 . S
C723 C726 1.463 1_655 S
C723 C728 1.350 . S
C723 N731 1.427 . S
C724 H715 0.930 . S
C724 C722 1.378 . S
C724 C725 1.367 . S
C725 C724 1.367 . S
C725 C727 1.433 . S
C726 C722 1.350 . S
C726 C723 1.463 1_455 S
C726 N730 1.427 . S
C727 H717 0.929 . S
C727 C725 1.433 . S
C727 N730 1.384 . S
C728 H719 0.929 . S
C728 C720 1.378 . S
C728 C723 1.350 . S
C729 H716 0.929 . S
C729 C721 1.433 . S
C729 N731 1.384 . S
N730 C726 1.427 . S
N730 C727 1.384 . S
N731 C723 1.427 . S
N731 C729 1.384 . S
H732 C738 0.930 . S
H733 C742 0.930 . S
H734 C747 0.929 . S
H735 C745 0.929 . S
H736 C740 0.929 . S
H737 C746 0.929 . S
C738 H732 0.930 . S
C738 C739 1.367 . S
C738 C746 1.378 . S
C739 C738 1.367 . S
C739 C747 1.433 . S
C740 H736 0.929 . S
C740 C742 1.378 . S
C740 C744 1.350 . S
C741 C744 1.463 . S
C741 C746 1.350 . S
C741 N749 1.427 . S
C742 H733 0.930 . S
C742 C740 1.378 . S
C742 C743 1.367 . S
C743 C742 1.367 . S
C743 C745 1.433 . S
C744 C740 1.350 . S
C744 C741 1.463 . S
C744 N748 1.427 . S
C745 H735 0.929 . S
C745 C743 1.433 . S
C745 N748 1.384 . S
C746 H737 0.929 . S
C746 C738 1.378 . S
C746 C741 1.350 . S
C747 H734 0.929 . S
C747 C739 1.433 . S
C747 N749 1.384 . S
N748 C744 1.427 . S
N748 C745 1.384 . S
N749 C741 1.427 . S
N749 C747 1.384 . S
H750 C756 0.930 . S
H751 C760 0.930 . S
H752 C765 0.929 . S
H753 C763 0.929 . S
H754 C758 0.929 . S
H755 C764 0.923 1_455 S
C756 H750 0.930 . S
C756 C757 1.368 1_455 S
C756 C764 1.371 1_455 S
C757 C756 1.368 1_655 S
C757 C765 1.431 . S
C758 H754 0.929 . S
C758 C760 1.378 . S
C758 C762 1.350 . S
C759 C762 1.463 . S
C759 C764 1.363 . S
C759 N767 1.427 . S
C760 H751 0.930 . S
C760 C758 1.378 . S
C760 C761 1.367 . S
C761 C760 1.367 . S
C761 C763 1.433 . S
C762 C758 1.350 . S
C762 C759 1.463 . S
C762 N766 1.427 . S
C763 H753 0.929 . S
C763 C761 1.433 . S
C763 N766 1.384 . S
C764 H755 0.923 1_655 S
C764 C756 1.371 1_655 S
C764 C759 1.363 . S
C765 H752 0.929 . S
C765 C757 1.431 . S
C765 N767 1.384 . S
N766 C762 1.427 . S
N766 C763 1.384 . S
N767 C759 1.427 . S
N767 C765 1.384 . S
H768 C774 0.930 . S
H769 C778 0.930 . S
H770 C783 0.929 . S
H771 C781 0.929 . S
H772 C776 0.929 . S
H773 C782 0.929 . S
C774 H768 0.930 . S
C774 C775 1.367 . S
C774 C782 1.378 . S
C775 C774 1.367 . S
C775 C783 1.433 . S
C776 H772 0.929 . S
C776 C778 1.378 . S
C776 C780 1.350 . S
C777 C780 1.463 . S
C777 C782 1.350 . S
C777 N785 1.427 . S
C778 H769 0.930 . S
C778 C776 1.378 . S
C778 C779 1.367 . S
C779 C778 1.367 . S
C779 C781 1.433 . S
C780 C776 1.350 . S
C780 C777 1.463 . S
C780 N784 1.427 . S
C781 H771 0.929 . S
C781 C779 1.433 . S
C781 N784 1.384 . S
C782 H773 0.929 . S
C782 C774 1.378 . S
C782 C777 1.350 . S
C783 H770 0.929 . S
C783 C775 1.433 . S
C783 N785 1.384 . S
N784 C780 1.427 . S
N784 C781 1.384 . S
N785 C777 1.427 . S
N785 C783 1.384 . S
H786 C792 0.930 . S
H787 C796 0.930 . S
H788 C801 0.929 . S
H789 C799 0.929 . S
H790 C794 0.929 . S
H791 C800 0.929 . S
C792 H786 0.930 . S
C792 C793 1.367 . S
C792 C800 1.378 . S
C793 C792 1.367 . S
C793 C801 1.433 . S
C794 H790 0.929 . S
C794 C796 1.378 . S
C794 C798 1.350 . S
C795 C798 1.463 . S
C795 C800 1.350 . S
C795 N803 1.427 . S
C796 H787 0.930 . S
C796 C794 1.378 . S
C796 C797 1.367 . S
C797 C796 1.367 . S
C797 C799 1.433 . S
C798 C794 1.350 . S
C798 C795 1.463 . S
C798 N802 1.427 . S
C799 H789 0.929 . S
C799 C797 1.433 . S
C799 N802 1.384 . S
C800 H791 0.929 . S
C800 C792 1.378 . S
C800 C795 1.350 . S
C801 H788 0.929 . S
C801 C793 1.433 . S
C801 N803 1.384 . S
N802 C798 1.427 . S
N802 C799 1.384 . S
N803 C795 1.427 . S
N803 C801 1.384 . S
H804 C810 0.930 . S
H805 C814 0.930 . S
H806 C819 0.929 . S
H807 C817 0.929 . S
H808 C812 0.929 . S
H809 C818 0.929 . S
C810 H804 0.930 . S
C810 C811 1.367 . S
C810 C818 1.378 . S
C811 C810 1.367 . S
C811 C819 1.433 . S
C812 H808 0.929 . S
C812 C814 1.378 . S
C812 C816 1.350 . S
C813 C816 1.463 . S
C813 C818 1.350 . S
C813 N821 1.427 . S
C814 H805 0.930 . S
C814 C812 1.378 . S
C814 C815 1.367 . S
C815 C814 1.367 . S
C815 C817 1.433 . S
C816 C812 1.350 . S
C816 C813 1.463 . S
C816 N820 1.427 . S
C817 H807 0.929 . S
C817 C815 1.433 . S
C817 N820 1.384 . S
C818 H809 0.929 . S
C818 C810 1.378 . S
C818 C813 1.350 . S
C819 H806 0.929 . S
C819 C811 1.433 . S
C819 N821 1.384 . S
N820 C816 1.427 . S
N820 C817 1.384 . S
N821 C813 1.427 . S
N821 C819 1.384 . S
H822 C828 0.930 . S
H823 C832 0.930 . S
H824 C837 0.965 . S
H825 C835 0.929 . S
H826 C830 0.929 . S
H827 C836 0.929 . S
C828 H822 0.930 . S
C828 C829 1.367 . S
C828 C836 1.378 . S
C829 C828 1.367 . S
C829 C837 1.433 . S
C830 H826 0.929 . S
C830 C832 1.378 . S
C830 C834 1.350 . S
C831 C834 1.463 . S
C831 C836 1.350 . S
C831 N839 1.427 . S
C832 H823 0.930 . S
C832 C830 1.378 . S
C832 C833 1.367 . S
C833 C832 1.367 . S
C833 C835 1.433 . S
C834 C830 1.350 . S
C834 C831 1.463 . S
C834 N838 1.427 . S
C835 H825 0.929 . S
C835 C833 1.433 . S
C835 N838 1.384 . S
C836 H827 0.929 . S
C836 C828 1.378 . S
C836 C831 1.350 . S
C837 H824 0.965 . S
C837 C829 1.433 . S
C837 N839 1.384 . S
N838 C834 1.427 . S
N838 C835 1.384 . S
N839 C831 1.427 . S
N839 C837 1.384 . S
H840 C846 0.930 . S
H841 C850 0.930 . S
H842 C855 0.929 1_554 S
H843 C853 0.929 . S
H844 C848 0.929 . S
H845 C854 0.929 . S
C846 H840 0.930 . S
C846 C847 1.367 . S
C846 C854 1.378 . S
C847 C846 1.367 . S
C847 C855 1.433 . S
C848 H844 0.929 . S
C848 C850 1.378 . S
C848 C852 1.350 . S
C849 C852 1.463 . S
C849 C854 1.350 . S
C849 N857 1.427 . S
C850 H841 0.930 . S
C850 C848 1.378 . S
C850 C851 1.367 . S
C851 C850 1.367 . S
C851 C853 1.433 . S
C852 C848 1.350 . S
C852 C849 1.463 . S
C852 N856 1.427 . S
C853 H843 0.929 . S
C853 C851 1.433 . S
C853 N856 1.384 . S
C854 H845 0.929 . S
C854 C846 1.378 . S
C854 C849 1.350 . S
C855 H842 0.929 1_556 S
C855 C847 1.433 . S
C855 N857 1.384 . S
N856 C852 1.427 . S
N856 C853 1.384 . S
N857 C849 1.427 . S
N857 C855 1.384 . S
H858 C864 0.930 . S
H859 C868 0.930 . S
H860 C873 0.929 . S
H861 C871 0.929 . S
H862 C866 0.929 . S
H863 C872 0.929 . S
C864 H858 0.930 . S
C864 C865 1.367 . S
C864 C872 1.378 . S
C865 C864 1.367 . S
C865 C873 1.433 . S
C866 H862 0.929 . S
C866 C868 1.378 . S
C866 C870 1.350 . S
C867 C870 1.463 . S
C867 C872 1.350 . S
C867 N875 1.427 . S
C868 H859 0.930 . S
C868 C866 1.378 . S
C868 C869 1.367 . S
C869 C868 1.367 . S
C869 C871 1.433 . S
C870 C866 1.350 . S
C870 C867 1.463 . S
C870 N874 1.427 . S
C871 H861 0.929 . S
C871 C869 1.433 . S
C871 N874 1.384 . S
C872 H863 0.929 . S
C872 C864 1.378 . S
C872 C867 1.350 . S
C873 H860 0.929 . S
C873 C865 1.433 . S
C873 N875 1.384 . S
N874 C870 1.427 . S
N874 C871 1.384 . S
N875 C867 1.427 . S
N875 C873 1.384 . S
H876 C882 0.930 . S
H877 C886 0.930 . S
H878 C891 0.929 . S
H879 C889 0.929 . S
H880 C884 0.929 . S
H881 C890 0.929 . S
C882 H876 0.930 . S
C882 C883 1.367 . S
C882 C890 1.378 . S
C883 C882 1.367 . S
C883 C891 1.433 . S
C884 H880 0.929 . S
C884 C886 1.378 . S
C884 C888 1.350 . S
C885 C888 1.463 . S
C885 C890 1.350 . S
C885 N893 1.427 . S
C886 H877 0.930 . S
C886 C884 1.378 . S
C886 C887 1.367 . S
C887 C886 1.367 . S
C887 C889 1.433 . S
C888 C884 1.350 . S
C888 C885 1.463 . S
C888 N892 1.427 . S
C889 H879 0.929 . S
C889 C887 1.433 . S
C889 N892 1.384 . S
C890 H881 0.929 . S
C890 C882 1.378 . S
C890 C885 1.350 . S
C891 H878 0.929 . S
C891 C883 1.433 . S
C891 N893 1.384 . S
N892 C888 1.427 . S
N892 C889 1.384 . S
N893 C885 1.427 . S
N893 C891 1.384 . S
H894 C900 0.930 . S
H895 C904 0.930 . S
H896 C909 0.929 . S
H897 C907 0.929 . S
H898 C902 0.929 . S
H899 C908 0.929 . S
C900 H894 0.930 . S
C900 C901 1.367 . S
C900 C908 1.378 . S
C901 C900 1.367 . S
C901 C909 1.433 . S
C902 H898 0.929 . S
C902 C904 1.378 . S
C902 C906 1.350 . S
C903 C906 1.463 . S
C903 C908 1.350 . S
C903 N911 1.427 . S
C904 H895 0.930 . S
C904 C902 1.378 . S
C904 C905 1.367 . S
C905 C904 1.367 . S
C905 C907 1.433 . S
C906 C902 1.350 . S
C906 C903 1.463 . S
C906 N910 1.427 . S
C907 H897 0.929 . S
C907 C905 1.433 . S
C907 N910 1.384 . S
C908 H899 0.929 . S
C908 C900 1.378 . S
C908 C903 1.350 . S
C909 H896 0.929 . S
C909 C901 1.433 . S
C909 N911 1.384 . S
N910 C906 1.427 . S
N910 C907 1.384 . S
N911 C903 1.427 . S
N911 C909 1.384 . S
C271 C7 1.110 . S
C275 C29 1.109 . S
C289 C18 1.490 . S
C293 C40 1.582 . S
C307 C51 1.347 . S
C311 C73 1.386 . S
C325 C62 1.365 . S
C329 C84 1.314 . S
C343 C95 1.010 . S
C347 C139 0.998 . S
C361 C150 1.300 1_655 S
C365 C106 1.378 . S
C379 C117 0.843 . S
C383 C161 0.837 . S
C397 C172 1.420 . S
C401 C128 1.397 1_655 S
C415 C216 1.623 . S
C419 C183 1.656 . S
C433 C238 1.523 . S
C437 C194 1.648 . S
C451 C205 0.742 . S
C455 C249 0.739 1_554 S
C469 C227 0.998 . S
C473 C260 0.996 . S
C487 C247 1.159 . S
C491 C5 1.311 . S
C505 C184 1.884 . S
C509 C19 1.812 . S
C523 C27 1.408 . S
C527 C261 1.561 . S
C541 C41 1.757 . S
C545 C236 1.374 . S
C559 C203 1.536 . S
C563 C49 1.354 . S
C577 C63 1.677 . S
C581 C217 1.686 . S
C595 C71 1.503 . S
C599 C228 1.697 . S
C613 C195 1.648 . S
C617 C85 1.580 . S
C631 C151 1.759 . S
C635 C93 1.276 . S
C649 C104 1.343 . S
C653 C162 1.486 . S
C667 C118 1.740 . S
C671 C170 1.704 . S
C685 C137 1.321 . S
C689 C126 1.737 . S
C703 C82 1.146 . S
C707 C159 1.359 . S
C721 C173 1.680 . S
C725 C52 1.641 . S
C739 C60 1.707 . S
C743 C140 1.733 . S
C757 C148 1.511 1_655 S
C761 C74 1.845 . S
C775 C115 1.630 . S
C779 C16 1.348 . S
C793 C129 1.822 . S
C797 C30 1.795 . S
C811 C38 1.740 . S
C815 C96 1.742 . S
C829 C8 1.469 . S
C833 C107 1.461 . S
C847 C239 1.662 . S
C851 C225 1.485 . S
C865 C192 1.698 . S
C869 C250 1.656 . S
C883 C181 1.869 . S
C887 C206 1.857 . S
C901 C258 1.473 . S
C905 C214 1.588 . S
