# Generated by pormake.
# Topology tfs, (6)-cn, num edge types: 1
# Building blocks:
#     Node 0, Type 0, BuildingBlock: FUNLAD_clean_sbu_0, # of connection points: 6
#     Node 1, Type 0, BuildingBlock: FUNLAD_clean_sbu_0, # of connection points: 6
#     Node 2, Type 0, BuildingBlock: FUNLAD_clean_sbu_0, # of connection points: 6
#     Node 3, Type 0, BuildingBlock: FUNLAD_clean_sbu_0, # of connection points: 6
#     Node 4, Type 0, BuildingBlock: FUNLAD_clean_sbu_0, # of connection points: 6
#     Node 5, Type 0, BuildingBlock: FUNLAD_clean_sbu_0, # of connection points: 6
#     Edge 6, Type (0, 0), BuildingBlock: MIFKUJ_clean_linker_0, # of connection points: 2
#     Edge 7, Type (0, 0), BuildingBlock: MIFKUJ_clean_linker_0, # of connection points: 2
#     Edge 8, Type (0, 0), BuildingBlock: MIFKUJ_clean_linker_0, # of connection points: 2
#     Edge 9, Type (0, 0), BuildingBlock: MIFKUJ_clean_linker_0, # of connection points: 2
#     Edge 10, Type (0, 0), BuildingBlock: MIFKUJ_clean_linker_0, # of connection points: 2
#     Edge 11, Type (0, 0), BuildingBlock: MIFKUJ_clean_linker_0, # of connection points: 2
#     Edge 12, Type (0, 0), BuildingBlock: MIFKUJ_clean_linker_0, # of connection points: 2
#     Edge 13, Type (0, 0), BuildingBlock: MIFKUJ_clean_linker_0, # of connection points: 2
#     Edge 14, Type (0, 0), BuildingBlock: MIFKUJ_clean_linker_0, # of connection points: 2
#     Edge 15, Type (0, 0), BuildingBlock: MIFKUJ_clean_linker_0, # of connection points: 2
#     Edge 16, Type (0, 0), BuildingBlock: MIFKUJ_clean_linker_0, # of connection points: 2
#     Edge 17, Type (0, 0), BuildingBlock: MIFKUJ_clean_linker_0, # of connection points: 2
#     Edge 18, Type (0, 0), BuildingBlock: MIFKUJ_clean_linker_0, # of connection points: 2
#     Edge 19, Type (0, 0), BuildingBlock: MIFKUJ_clean_linker_0, # of connection points: 2
#     Edge 20, Type (0, 0), BuildingBlock: MIFKUJ_clean_linker_0, # of connection points: 2
#     Edge 21, Type (0, 0), BuildingBlock: MIFKUJ_clean_linker_0, # of connection points: 2
#     Edge 22, Type (0, 0), BuildingBlock: MIFKUJ_clean_linker_0, # of connection points: 2
#     Edge 23, Type (0, 0), BuildingBlock: MIFKUJ_clean_linker_0, # of connection points: 2
# Relax obj value: 0.140
# Max RMSD: 0.157
# Mean RMSD: 0.155
data_MOF--net-tfs--node1-FUNLAD_clean_sbu_0--edge1-MIFKUJ_clean_linker_0
_symmetry_space_group_name_H-M    P1
_symmetry_Int_Tables_number       1
_symmetry_cell_setting            triclinic
loop_
_symmetry_equiv_pos_as_xyz
'x, y, z'
_cell_length_a     52.546535
_cell_length_b     52.604694
_cell_length_c     26.282612
_cell_angle_alpha  90.542883
_cell_angle_beta   91.092067
_cell_angle_gamma 120.14299
loop_
_atom_site_label
_atom_site_type_symbol
_atom_site_fract_x
_atom_site_fract_y
_atom_site_fract_z
_atom_type_partial_charge
C0 C 0.14768 0.37516 0.03902 0.0
N1 N 0.20959 0.41386 0.15841 0.0
C2 C 0.18882 0.41705 0.18314 0.0
C3 C 0.18832 0.41697 0.23621 0.0
C4 C 0.20939 0.41354 0.26425 0.0
C5 C 0.23072 0.4105 0.23772 0.0
C6 C 0.23041 0.41071 0.18455 0.0
Zn7 Zn 0.20864 0.41297 0.08058 0.0
C8 C 0.2138 0.3637 0.03798 0.0
N9 N 0.20481 0.41043 0.91799 0.0
C10 C 0.18437 0.4142 0.89189 0.0
C11 C 0.225 0.40631 0.8932 0.0
C12 C 0.22528 0.40606 0.84012 0.0
C13 C 0.20456 0.41006 0.81213 0.0
C14 C 0.18383 0.41406 0.83871 0.0
Zn15 Zn 0.20588 0.41145 0.99582 0.0
O16 O 0.16304 0.38396 0.08006 0.0
C17 C 0.19983 0.46042 0.03813 0.0
O18 O 0.15998 0.38407 0.99662 0.0
H19 H 0.241 0.40326 0.91465 0.0
H20 H 0.17249 0.41955 0.16165 0.0
H21 H 0.16858 0.41752 0.91235 0.0
O22 O 0.20189 0.44944 0.07982 0.0
O23 O 0.20128 0.44901 0.99626 0.0
H24 H 0.24666 0.4081 0.16413 0.0
O25 O 0.25195 0.43881 0.99636 0.0
O26 O 0.25451 0.44183 0.07983 0.0
O27 O 0.21018 0.37386 0.99655 0.0
O28 O 0.21498 0.37651 0.07992 0.0
C29 C 0.26718 0.44884 0.03738 0.0
H30 H 0.17173 0.41979 0.25505 0.0
H31 H 0.24717 0.40746 0.25775 0.0
H32 H 0.2414 0.40251 0.8212 0.0
H33 H 0.16768 0.41756 0.81868 0.0
C34 C 0.83619 0.22162 0.04932 0.0
N35 N 0.77616 0.20475 0.92929 0.0
C36 C 0.79799 0.22804 0.90514 0.0
C37 C 0.79845 0.22847 0.85203 0.0
C38 C 0.77616 0.20474 0.82341 0.0
C39 C 0.75368 0.1812 0.84945 0.0
C40 C 0.75416 0.18161 0.90256 0.0
Zn41 Zn 0.77692 0.20369 1.00701 0.0
C42 C 0.76628 0.1458 0.04261 0.0
N43 N 0.77833 0.20003 0.1692 0.0
C44 C 0.80077 0.22291 0.19567 0.0
C45 C 0.75633 0.17701 0.1936 0.0
C46 C 0.7562 0.17659 0.24673 0.0
C47 C 0.77898 0.20005 0.27509 0.0
C48 C 0.80157 0.22333 0.24879 0.0
Zn49 Zn 0.77743 0.20104 0.09148 0.0
O50 O 0.82244 0.21944 1.00777 0.0
C51 C 0.78985 0.26004 0.05528 0.0
O52 O 0.82249 0.21512 0.09075 0.0
H53 H 0.73867 0.15906 0.17183 0.0
H54 H 0.81532 0.24619 0.9271 0.0
H55 H 0.81806 0.24099 0.17556 0.0
O56 O 0.78525 0.24741 0.01187 0.0
O57 O 0.7876 0.24558 0.0951 0.0
H58 H 0.73703 0.16329 0.92248 0.0
O59 O 0.73176 0.18623 0.09106 0.0
O60 O 0.73092 0.18712 1.00765 0.0
O61 O 0.76798 0.15715 0.08634 0.0
O62 O 0.7693 0.16068 1.00315 0.0
C63 C 0.71733 0.18127 0.04925 0.0
H64 H 0.81643 0.24691 0.83368 0.0
H65 H 0.7358 0.16265 0.82905 0.0
H66 H 0.73813 0.15835 0.26533 0.0
H67 H 0.8198 0.24166 0.26899 0.0
C68 C 0.61777 0.76836 0.01341 0.0
N69 N 0.57421 0.78076 0.13413 0.0
C70 C 0.57676 0.75966 0.1594 0.0
C71 C 0.57726 0.75958 0.21253 0.0
C72 C 0.57513 0.78145 0.24004 0.0
C73 C 0.57276 0.80309 0.2129 0.0
C74 C 0.57231 0.80231 0.15976 0.0
Zn75 Zn 0.57279 0.77981 0.05631 0.0
C76 C 0.61184 0.83765 0.01362 0.0
N77 N 0.56947 0.77687 0.89372 0.0
C78 C 0.57045 0.75484 0.86794 0.0
C79 C 0.56826 0.79876 0.86863 0.0
C80 C 0.56823 0.79917 0.81553 0.0
C81 C 0.56948 0.77685 0.78789 0.0
C82 C 0.57048 0.7544 0.81481 0.0
Zn83 Zn 0.57074 0.77768 0.97151 0.0
O84 O 0.60881 0.77284 0.0552 0.0
C85 C 0.53217 0.71943 0.01441 0.0
O86 O 0.6051 0.7681 0.97167 0.0
H87 H 0.56758 0.81611 0.88987 0.0
H88 H 0.5782 0.7427 0.13829 0.0
H89 H 0.57136 0.73762 0.88862 0.0
O90 O 0.543 0.73396 0.05579 0.0
O91 O 0.5397 0.73254 0.97232 0.0
H92 H 0.57038 0.81893 0.13895 0.0
O93 O 0.53613 0.7872 0.97254 0.0
O94 O 0.53703 0.78747 0.05607 0.0
O95 O 0.6022 0.82294 0.97214 0.0
O96 O 0.60238 0.82501 0.05562 0.0
C97 C 0.52593 0.78997 0.01437 0.0
H98 H 0.57876 0.74225 0.23179 0.0
H99 H 0.57149 0.82061 0.23249 0.0
H100 H 0.5678 0.81709 0.79639 0.0
H101 H 0.57106 0.73655 0.79504 0.0
C102 C 0.77215 0.62437 0.08644 0.0
N103 N 0.77102 0.57133 0.96644 0.0
C104 C 0.75325 0.57912 0.94102 0.0
C105 C 0.75293 0.57977 0.88794 0.0
C106 C 0.77114 0.57242 0.8606 0.0
C107 C 0.78927 0.56446 0.8879 0.0
C108 C 0.78882 0.56402 0.94101 0.0
Zn109 Zn 0.77138 0.5715 0.04426 0.0
C110 C 0.83195 0.60255 0.0878 0.0
N111 N 0.77189 0.57316 0.20661 0.0
C112 C 0.7526 0.57871 0.23126 0.0
C113 C 0.79131 0.56793 0.23284 0.0
C114 C 0.79181 0.56814 0.28599 0.0
C115 C 0.77215 0.57382 0.31248 0.0
C116 C 0.75236 0.57917 0.28437 0.0
Zn117 Zn 0.7716 0.57261 0.12881 0.0
O118 O 0.77393 0.61274 0.04511 0.0
C119 C 0.71082 0.54143 0.08353 0.0
O120 O 0.76968 0.6115 0.12818 0.0
H121 H 0.8065 0.56362 0.2125 0.0
H122 H 0.73928 0.58489 0.96196 0.0
H123 H 0.73729 0.58273 0.20967 0.0
O124 O 0.72524 0.55001 0.04297 0.0
O125 O 0.72466 0.54716 0.12619 0.0
H126 H 0.80288 0.55803 0.96196 0.0
O127 O 0.77355 0.53361 0.12837 0.0
O128 O 0.76918 0.53029 0.04492 0.0
O129 O 0.81852 0.59806 0.12945 0.0
O130 O 0.81724 0.59282 0.0463 0.0
C131 C 0.77138 0.51982 0.08709 0.0
H132 H 0.73832 0.58569 0.86858 0.0
H133 H 0.804 0.55906 0.86854 0.0
H134 H 0.80768 0.56426 0.30611 0.0
H135 H 0.73657 0.58326 0.30318 0.0
C136 C 0.26043 0.80044 0.03089 0.0
N137 N 0.19913 0.78323 0.91225 0.0
C138 C 0.22137 0.80609 0.88794 0.0
C139 C 0.22172 0.80648 0.83486 0.0
C140 C 0.19893 0.78316 0.80638 0.0
C141 C 0.1761 0.75997 0.83246 0.0
C142 C 0.17667 0.76041 0.88565 0.0
Zn143 Zn 0.20026 0.78328 0.99013 0.0
C144 C 0.18765 0.72601 0.03081 0.0
N145 N 0.20425 0.7847 0.15268 0.0
C146 C 0.22694 0.80707 0.17964 0.0
C147 C 0.18145 0.76216 0.1766 0.0
C148 C 0.18073 0.76167 0.22962 0.0
C149 C 0.20372 0.78456 0.2585 0.0
C150 C 0.22714 0.80741 0.23283 0.0
Zn151 Zn 0.20333 0.78474 0.07486 0.0
O152 O 0.24553 0.7968 0.99006 0.0
C153 C 0.21692 0.84217 0.0342 0.0
O154 O 0.24808 0.79652 0.07348 0.0
H155 H 0.16366 0.74454 0.15449 0.0
H156 H 0.23896 0.82407 0.90975 0.0
H157 H 0.24479 0.82481 0.15987 0.0
O158 O 0.21077 0.8277 0.99238 0.0
O159 O 0.21566 0.82945 0.07568 0.0
H160 H 0.15927 0.74241 0.90573 0.0
O161 O 0.1588 0.77318 0.07507 0.0
O162 O 0.15484 0.7694 0.99168 0.0
O163 O 0.19122 0.73981 0.0727 0.0
O164 O 0.19027 0.73906 0.98914 0.0
C165 C 0.14323 0.76745 0.0345 0.0
H166 H 0.23954 0.825 0.81632 0.0
H167 H 0.15825 0.74142 0.81199 0.0
H168 H 0.16245 0.7434 0.2478 0.0
H169 H 0.24517 0.82564 0.25359 0.0
C170 C 0.36403 0.21577 0.04133 0.0
N171 N 0.41767 0.2156 0.16062 0.0
C172 C 0.41199 0.2347 0.18631 0.0
C173 C 0.41179 0.23496 0.23937 0.0
C174 C 0.41731 0.21525 0.26644 0.0
C175 C 0.42321 0.19582 0.2389 0.0
C176 C 0.42331 0.1964 0.18576 0.0
Zn177 Zn 0.41709 0.21592 0.0829 0.0
C178 C 0.38507 0.15583 0.03705 0.0
N179 N 0.41503 0.21702 0.92052 0.0
C180 C 0.40919 0.23617 0.89567 0.0
C181 C 0.42082 0.19808 0.89453 0.0
C182 C 0.42097 0.19799 0.84147 0.0
C183 C 0.41528 0.21768 0.8147 0.0
C184 C 0.40924 0.23691 0.84255 0.0
Zn185 Zn 0.41565 0.21658 0.99821 0.0
O186 O 0.37706 0.2162 0.08281 0.0
C187 C 0.44759 0.27686 0.04442 0.0
O188 O 0.37567 0.21623 0.99922 0.0
H189 H 0.42536 0.183 0.915 0.0
H190 H 0.40757 0.2498 0.16561 0.0
H191 H 0.40467 0.25105 0.9171 0.0
O192 O 0.44106 0.2622 0.08497 0.0
O193 O 0.43948 0.26331 1.00162 0.0
H194 H 0.42772 0.18137 0.16456 0.0
O195 O 0.45554 0.21631 0.99813 0.0
O196 O 0.45708 0.21556 0.08163 0.0
O197 O 0.39185 0.17024 0.9962 0.0
O198 O 0.39311 0.16954 0.07967 0.0
C199 C 0.46838 0.21579 0.03919 0.0
H200 H 0.40761 0.25065 0.25894 0.0
H201 H 0.42725 0.18002 0.25812 0.0
H202 H 0.42524 0.18242 0.82166 0.0
H203 H 0.40505 0.25268 0.8236 0.0
H204 H 0.32278 0.19887 0.9647 0.0
H205 H 0.28081 0.20688 0.96104 0.0
H206 H 0.30147 0.24243 0.11467 0.0
H207 H 0.3427 0.23339 0.11929 0.0
H208 H 0.2425 0.2153 0.0939 0.0
H209 H 0.33384 0.28669 0.01336 0.0
H210 H 0.37331 0.29998 0.95191 0.0
H211 H 0.30923 0.26657 0.82871 0.0
H212 H 0.26935 0.25273 0.88961 0.0
H213 H 0.23164 0.34211 0.11619 0.0
H214 H 0.24148 0.30153 0.11228 0.0
H215 H 0.21215 0.28485 0.95464 0.0
H216 H 0.20308 0.32604 0.95786 0.0
H217 H 0.26402 0.29111 0.9645 0.0
H218 H 0.17418 0.23348 0.04765 0.0
H219 H 0.13608 0.22159 0.11116 0.0
H220 H 0.19682 0.23007 0.2308 0.0
H221 H 0.23545 0.24245 0.16815 0.0
C222 C 0.31793 0.20779 0.99805 0.0
C223 C 0.33631 0.21622 0.04186 0.0
C224 C 0.29389 0.21217 0.996 0.0
C225 C 0.28851 0.22583 0.03717 0.0
C226 C 0.30532 0.2319 0.08246 0.0
C227 C 0.32901 0.22698 0.0849 0.0
C228 C 0.26916 0.23844 0.03054 0.0
C229 C 0.24696 0.23178 0.06555 0.0
C230 C 0.27464 0.25938 0.99263 0.0
C231 C 0.29865 0.26841 0.95599 0.0
C232 C 0.3282 0.28211 0.97316 0.0
C233 C 0.35062 0.28972 0.93847 0.0
C234 C 0.34377 0.28404 0.88645 0.0
C235 C 0.31449 0.27089 0.86902 0.0
C236 C 0.29198 0.26316 0.90359 0.0
C237 C 0.22687 0.32953 0.08091 0.0
C238 C 0.21698 0.33746 0.03715 0.0
C239 C 0.23218 0.30611 0.07887 0.0
C240 C 0.2272 0.28993 0.0333 0.0
C241 C 0.21603 0.297 0.9902 0.0
C242 C 0.21102 0.32062 0.99206 0.0
C243 C 0.23774 0.26873 0.02894 0.0
C244 C 0.25854 0.2739 0.99185 0.0
C245 C 0.231 0.24663 0.06515 0.0
C246 C 0.20778 0.239 0.1031 0.0
C247 C 0.17949 0.23299 0.08753 0.0
C248 C 0.15778 0.22614 0.12339 0.0
C249 C 0.16403 0.2251 0.17498 0.0
C250 C 0.192 0.23086 0.19081 0.0
C251 C 0.2138 0.23774 0.15511 0.0
H252 H 0.14719 0.21981 0.20269 0.0
H253 H 0.36116 0.2899 0.85965 0.0
H254 H 0.10673 0.3593 0.96179 0.0
H255 H 0.05354 0.32646 0.96655 0.0
H256 H 0.06398 0.31049 0.12425 0.0
H257 H 0.11699 0.34384 0.12026 0.0
H258 H 0.01838 0.26889 0.98969 0.0
H259 H 0.00751 0.30697 0.18922 0.0
H260 H 0.03417 0.34985 0.24772 0.0
H261 H 0.06943 0.40668 0.12034 0.0
H262 H 0.04268 0.3642 0.06114 0.0
H263 H 0.87076 0.22369 0.12979 0.0
H264 H 0.92368 0.2421 0.1307 0.0
H265 H 0.92604 0.26129 0.97098 0.0
H266 H 0.87309 0.24235 0.96942 0.0
H267 H 0.96549 0.29633 0.11319 0.0
H268 H 0.98045 0.25634 0.91448 0.0
H269 H 0.95374 0.21327 0.85653 0.0
H270 H 0.90909 0.15912 0.98301 0.0
H271 H 0.93582 0.20173 0.04182 0.0
C272 C 0.09768 0.34871 0.9974 0.0
C273 C 0.11587 0.35443 0.04086 0.0
C274 C 0.06738 0.32985 0.99996 0.0
C275 C 0.05493 0.31641 0.04589 0.0
C276 C 0.0732 0.32108 0.0887 0.0
C277 C 0.10343 0.34016 0.08636 0.0
C278 C 0.02268 0.29904 0.04975 0.0
C279 C 0.0067 0.2749 0.0164 0.0
C280 C 0.00772 0.30653 0.08573 0.0
C281 C 0.02335 0.33237 0.12085 0.0
C282 C 0.02085 0.32865 0.17375 0.0
C283 C 0.03599 0.35287 0.20701 0.0
C284 C 0.05356 0.38095 0.18776 0.0
C285 C 0.0559 0.3849 0.1352 0.0
C286 C 0.04077 0.36076 0.10178 0.0
C287 C 0.88251 0.23158 0.09475 0.0
C288 C 0.86785 0.23171 0.04955 0.0
C289 C 0.91269 0.24203 0.09535 0.0
C290 C 0.92864 0.25273 0.05082 0.0
C291 C 0.91399 0.25254 1.00551 0.0
C292 C 0.88379 0.24194 1.00478 0.0
C293 C 0.96096 0.26635 0.05251 0.0
C294 C 0.97704 0.2899 0.08692 0.0
C295 C 0.97592 0.25824 0.01756 0.0
C296 C 0.96 0.23234 0.98252 0.0
C297 C 0.96505 0.23522 0.92998 0.0
C298 C 0.94988 0.21088 0.89697 0.0
C299 C 0.92967 0.1835 0.91606 0.0
C300 C 0.92466 0.18037 0.96825 0.0
C301 C 0.9398 0.20462 1.00143 0.0
H302 H 0.91793 0.16469 0.89043 0.0
H303 H 0.06531 0.39967 0.21357 0.0
H304 H 0.75272 0.1056 0.11742 0.0
H305 H 0.7365 0.05346 0.10619 0.0
H306 H 0.74923 0.06497 0.94449 0.0
H307 H 0.76506 0.11698 0.95518 0.0
H308 H 0.695 0.02267 0.96512 0.0
H309 H 0.79226 0.04747 0.01622 0.0
H310 H 0.8377 0.07042 0.06964 0.0
H311 H 0.7896 0.01871 0.19618 0.0
H312 H 0.74375 -0.00425 0.14376 0.0
H313 H 0.63991 0.87046 0.93146 0.0
H314 H 0.67566 0.9231 0.93089 0.0
H315 H 0.66969 0.92837 0.09379 0.0
H316 H 0.63438 0.87574 0.09495 0.0
H317 H 0.72633 0.96224 0.06256 0.0
H318 H 0.62902 0.94521 0.01715 0.0
H319 H 0.58264 0.92271 0.96616 0.0
H320 H 0.63093 0.96088 0.83104 0.0
H321 H 0.67764 0.98332 0.88123 0.0
C322 C 0.75252 0.09712 0.0796 0.0
C323 C 0.75977 0.11524 0.03711 0.0
C324 C 0.74348 0.0674 0.07329 0.0
C325 C 0.74186 0.05549 0.02452 0.0
C326 C 0.7504 0.07383 0.9824 0.0
C327 C 0.75933 0.10349 0.98862 0.0
C328 C 0.72773 0.02339 0.01686 0.0
C329 C 0.70231 0.0095 0.98543 0.0
C330 C 0.73693 0.00631 0.04437 0.0
C331 C 0.76449 0.02001 0.07608 0.0
C332 C 0.79131 0.04114 0.05555 0.0
C333 C 0.81716 0.05413 0.08564 0.0
C334 C 0.81653 0.04607 0.13629 0.0
C335 C 0.79005 0.02495 0.15693 0.0
C336 C 0.76413 0.0119 0.12701 0.0
C337 C 0.64634 0.8828 0.9672 0.0
C338 C 0.63409 0.8691 0.01318 0.0
C339 C 0.66681 0.91279 0.9668 0.0
C340 C 0.67503 0.92952 0.01225 0.0
C341 C 0.66364 0.91572 0.05838 0.0
C342 C 0.6433 0.88573 0.05888 0.0
C343 C 0.69354 0.96177 0.01149 0.0
C344 C 0.71957 0.97558 0.04142 0.0
C345 C 0.68488 0.97891 0.9829 0.0
C346 C 0.65681 0.96564 0.9528 0.0
C347 C 0.62974 0.94862 0.97651 0.0
C348 C 0.6034 0.93591 0.94777 0.0
C349 C 0.60384 0.94029 0.89536 0.0
C350 C 0.63062 0.95747 0.87162 0.0
C351 C 0.65703 0.9702 0.90018 0.0
H352 H 0.58343 0.93042 0.87317 0.0
H353 H 0.83657 0.05615 0.15953 0.0
H354 H 0.73974 0.63814 0.14723 0.0
H355 H 0.72739 0.67641 0.13339 0.0
H356 H 0.78873 0.71014 1.01083 0.0
H357 H 0.79941 0.67022 0.02228 0.0
H358 H 0.74757 0.73101 0.13167 0.0
H359 H 0.76064 0.73089 0.91563 0.0
H360 H 0.76468 0.70021 0.84812 0.0
H361 H 0.71275 0.62278 0.93453 0.0
H362 H 0.70807 0.65297 1.00211 0.0
H363 H 0.67277 0.80408 0.05217 0.0
H364 H 0.71307 0.79335 0.05789 0.0
H365 H 0.65678 0.70861 0.98471 0.0
H366 H 0.61769 0.72063 0.9751 0.0
H367 H 0.70755 0.72532 0.95677 0.0
H368 H 0.66689 0.7226 0.12233 0.0
H369 H 0.65397 0.74349 0.19516 0.0
H370 H 0.74487 0.80963 0.21808 0.0
H371 H 0.75824 0.78931 0.14495 0.0
C372 C 0.75098 0.65407 0.11799 0.0
C373 C 0.76997 0.65102 0.08505 0.0
C374 C 0.74407 0.67607 0.11024 0.0
C375 C 0.75658 0.69573 0.07017 0.0
C376 C 0.77816 0.69468 0.04097 0.0
C377 C 0.7843 0.67199 0.04757 0.0
C378 C 0.74379 0.71412 0.05521 0.0
C379 C 0.73915 0.73011 0.09327 0.0
C380 C 0.73248 0.71267 1.00521 0.0
C381 C 0.73436 0.69423 0.96409 0.0
C382 C 0.74999 0.70731 0.92004 0.0
C383 C 0.75239 0.69001 0.8818 0.0
C384 C 0.73908 0.65958 0.88713 0.0
C385 C 0.72311 0.64635 0.9305 0.0
C386 C 0.72055 0.66353 0.96873 0.0
C387 C 0.66944 0.78343 0.03663 0.0
C388 C 0.64239 0.76295 0.01366 0.0
C389 C 0.6923 0.77725 0.04008 0.0
C390 C 0.68778 0.74986 0.02291 0.0
C391 C 0.66092 0.72992 0.99819 0.0
C392 C 0.63852 0.73661 0.99299 0.0
C393 C 0.70972 0.74067 0.03399 0.0
C394 C 0.71652 0.72685 0.99494 0.0
C395 C 0.72147 0.74255 0.0838 0.0
C396 C 0.7135 0.7547 0.12785 0.0
C397 C 0.68407 0.7417 0.14276 0.0
C398 C 0.67668 0.75342 0.18408 0.0
C399 C 0.69857 0.77793 0.21112 0.0
C400 C 0.72793 0.7907 0.19701 0.0
C401 C 0.73543 0.7791 0.15564 0.0
H402 H 0.69281 0.78698 0.2431 0.0
H403 H 0.74109 0.64624 0.85761 0.0
H404 H 0.11501 0.7751 0.11372 0.0
H405 H 0.06194 0.75211 0.12415 0.0
H406 H 0.04675 0.71151 0.97474 0.0
H407 H 0.09992 0.73541 0.96327 0.0
H408 H 0.00718 0.72767 0.99287 0.0
H409 H 0.04683 0.67514 0.08442 0.0
H410 H 0.08065 0.67164 0.14659 0.0
H411 H 0.04612 0.70054 0.26654 0.0
H412 H 0.01237 0.70461 0.20491 0.0
H413 H 0.86653 0.60507 1.01032 0.0
H414 H 0.91961 0.63674 1.00449 0.0
H415 H 0.92373 0.67181 0.15548 0.0
H416 H 0.8704 0.6394 0.16219 0.0
H417 H 0.96869 0.66237 0.14114 0.0
H418 H 0.92562 0.71048 0.05002 0.0
H419 H 0.89195 0.7138 0.98732 0.0
H420 H 0.93267 0.69305 0.86625 0.0
H421 H 0.96633 0.68919 0.9283 0.0
C422 C 0.10034 0.76162 0.08279 0.0
C423 C 0.1115 0.7567 0.03792 0.0
C424 C 0.07005 0.74844 0.08887 0.0
C425 C 0.05044 0.72952 0.05075 0.0
C426 C 0.06154 0.72591 1.00475 0.0
C427 C 0.09188 0.73953 0.99826 0.0
C428 C 0.01851 0.71195 0.06003 0.0
C429 C -0.00127 0.71324 0.02506 0.0
C430 C 0.00756 0.69364 0.10276 0.0
C431 C 0.02727 0.69042 0.14001 0.0
C432 C 0.04653 0.68085 0.12403 0.0
C433 C 0.0657 0.67877 0.15916 0.0
C434 C 0.06559 0.68593 0.21046 0.0
C435 C 0.04621 0.69504 0.22678 0.0
C436 C 0.02705 0.69721 0.19179 0.0
C437 C 0.87872 0.6194 0.04246 0.0
C438 C 0.86431 0.62 0.08656 0.0
C439 C 0.90903 0.63759 0.03894 0.0
C440 C 0.92546 0.65715 0.07903 0.0
C441 C 0.91136 0.65703 0.12395 0.0
C442 C 0.88096 0.63852 0.12775 0.0
C443 C 0.95733 0.67776 0.07354 0.0
C444 C 0.9771 0.67704 0.10924 0.0
C445 C 0.96826 0.69654 0.03142 0.0
C446 C 0.94838 0.69937 0.99389 0.0
C447 C 0.9273 0.70648 1.01005 0.0
C448 C 0.90822 0.70847 0.97463 0.0
C449 C 0.91014 0.7036 0.92285 0.0
C450 C 0.93121 0.69682 0.90638 0.0
C451 C 0.95032 0.69477 0.94165 0.0
H452 H 0.89533 0.70511 0.89549 0.0
H453 H 0.08048 0.68437 0.23758 0.0
H454 H 0.22012 0.87577 0.9532 0.0
H455 H 0.24424 0.92936 0.9516 0.0
H456 H 0.2635 0.93427 0.1129 0.0
H457 H 0.23887 0.88074 0.11514 0.0
H458 H 0.24879 0.97473 0.08593 0.0
H459 H 0.31411 0.94152 0.0267 0.0
H460 H 0.32778 0.91248 0.97109 0.0
H461 H 0.31807 0.95522 0.83986 0.0
H462 H 0.30393 0.98421 0.89468 0.0
H463 H 0.37064 0.11809 0.1161 0.0
H464 H 0.33867 0.06473 0.11301 0.0
H465 H 0.32586 0.06715 0.95084 0.0
H466 H 0.35836 0.12045 0.95336 0.0
H467 H 0.33472 0.02317 0.97393 0.0
H468 H 0.2728 0.05909 0.0337 0.0
H469 H 0.25898 0.088 0.08925 0.0
H470 H 0.26203 0.0405 0.21898 0.0
H471 H 0.27628 0.01157 0.1643 0.0
C472 C 0.22908 0.88823 0.98848 0.0
C473 C 0.22791 0.87407 0.0342 0.0
C474 C 0.24292 0.91883 0.98746 0.0
C475 C 0.25613 0.93573 0.03195 0.0
C476 C 0.25352 0.9216 0.07813 0.0
C477 C 0.23951 0.891 0.07928 0.0
C478 C 0.27442 0.9681 0.02997 0.0
C479 C 0.26771 0.98537 0.06175 0.0
C480 C 0.29871 0.98189 0.99758 0.0
C481 C 0.30768 0.96481 0.96472 0.0
C482 C 0.31473 0.94459 0.98595 0.0
C483 C 0.32257 0.92815 0.95459 0.0
C484 C 0.32372 0.93195 0.90196 0.0
C485 C 0.31713 0.95227 0.88062 0.0
C486 C 0.30921 0.96872 0.91181 0.0
C487 C 0.3611 0.10726 0.07974 0.0
C488 C 0.36689 0.12348 0.03501 0.0
C489 C 0.34271 0.0768 0.07809 0.0
C490 C 0.32947 0.06208 0.03183 0.0
C491 C 0.33575 0.07813 0.98695 0.0
C492 C 0.35431 0.10857 0.98849 0.0
C493 C 0.30927 0.02989 0.03023 0.0
C494 C 0.31565 0.01262 0.99781 0.0
C495 C 0.28467 0.01614 0.06201 0.0
C496 C 0.27584 0.03332 0.09494 0.0
C497 C 0.27071 0.05494 0.07412 0.0
C498 C 0.26278 0.07132 0.10545 0.0
C499 C 0.25969 0.06613 0.15763 0.0
C500 C 0.26445 0.04451 0.17856 0.0
C501 C 0.27243 0.02809 0.14741 0.0
H502 H 0.25355 0.07884 0.18182 0.0
H503 H 0.32977 0.91919 0.87773 0.0
H504 H 0.16962 0.68781 0.10947 0.0
H505 H 0.16616 0.63972 0.1117 0.0
H506 H 0.19239 0.64855 0.95527 0.0
H507 H 0.1949 0.69616 0.95226 0.0
H508 H 0.1511 0.59355 0.97216 0.0
H509 H 0.24261 0.66475 0.05579 0.0
H510 H 0.27315 0.70409 0.11891 0.0
H511 H 0.22689 0.64611 0.24041 0.0
H512 H 0.19595 0.60664 0.1779 0.0
H513 H 0.20702 0.49656 0.95926 0.0
H514 H 0.20041 0.5393 0.95961 0.0
H515 H 0.17592 0.52473 0.11702 0.0
H516 H 0.18342 0.48246 0.11739 0.0
H517 H 0.21268 0.58062 0.10319 0.0
H518 H 0.12407 0.50728 0.01819 0.0
H519 H 0.0946 0.46841 0.954 0.0
H520 H 0.13546 0.52988 0.83432 0.0
H521 H 0.16548 0.56904 0.89778 0.0
C522 C 0.17431 0.67933 0.07539 0.0
C523 C 0.18272 0.69581 0.03079 0.0
C524 C 0.17245 0.65192 0.07677 0.0
C525 C 0.17958 0.64081 0.03395 0.0
C526 C 0.18683 0.65671 0.98878 0.0
C527 C 0.18829 0.68393 0.98714 0.0
C528 C 0.18083 0.61332 0.03675 0.0
C529 C 0.16472 0.59078 1.00054 0.0
C530 C 0.19807 0.60943 0.07454 0.0
C531 C 0.21683 0.63296 0.11221 0.0
C532 C 0.2389 0.66055 0.09598 0.0
C533 C 0.25627 0.68282 0.13161 0.0
C534 C 0.25189 0.67762 0.18363 0.0
C535 C 0.23023 0.65012 0.20011 0.0
C536 C 0.2128 0.62779 0.16459 0.0
C537 C 0.20013 0.5024 0.9939 0.0
C538 C 0.19565 0.48613 0.03826 0.0
C539 C 0.19619 0.52673 0.99397 0.0
C540 C 0.18713 0.53489 0.03808 0.0
C541 C 0.1828 0.51876 0.08251 0.0
C542 C 0.18709 0.49462 0.08265 0.0
C543 C 0.18313 0.56085 0.03831 0.0
C544 C 0.19876 0.58317 0.0751 0.0
C545 C 0.16546 0.56448 1.00101 0.0
C546 C 0.14718 0.54104 0.96276 0.0
C547 C 0.1269 0.51247 0.97818 0.0
C548 C 0.11008 0.49039 0.94192 0.0
C549 C 0.11319 0.49666 0.89011 0.0
C550 C 0.13308 0.52505 0.87446 0.0
C551 C 0.14997 0.54721 0.91056 0.0
H552 H 0.10017 0.47952 0.8621 0.0
H553 H 0.26534 0.69488 0.21118 0.0
H554 H 0.48979 0.20144 0.95699 0.0
H555 H 0.53169 0.19334 0.95557 0.0
H556 H 0.5499 0.21772 0.11482 0.0
H557 H 0.50766 0.22545 0.11696 0.0
H558 H 0.60152 0.24114 0.04527 0.0
H559 H 0.51371 0.15112 0.09502 0.0
H560 H 0.46193 0.11199 0.08207 0.0
H561 H 0.48245 0.08873 0.93774 0.0
H562 H 0.53429 0.12809 0.94951 0.0
H563 H 0.68392 0.17756 0.1305 0.0
H564 H 0.6375 0.1778 0.12561 0.0
H565 H 0.63108 0.16036 0.96408 0.0
H566 H 0.6783 0.16164 0.96792 0.0
H567 H 0.57518 0.13655 0.02731 0.0
H568 H 0.66655 0.21725 0.98147 0.0
H569 H 0.72471 0.25136 0.98609 0.0
H570 H 0.6946 0.30703 0.13467 0.0
H571 H 0.63933 0.26227 0.11429 0.0
C572 C 0.50293 0.20548 0.99158 0.0
C573 C 0.49534 0.21383 0.03725 0.0
C574 C 0.52683 0.20087 0.99061 0.0
C575 C 0.54366 0.20488 0.0351 0.0
C576 C 0.5371 0.21463 0.08014 0.0
C577 C 0.51291 0.21884 0.08135 0.0
C578 C 0.56644 0.19641 0.03575 0.0
C579 C 0.59604 0.21836 0.04212 0.0
C580 C 0.55882 0.16668 0.02959 0.0
C581 C 0.52778 0.14274 0.02289 0.0
C582 C 0.50712 0.13782 0.06033 0.0
C583 C 0.47778 0.11558 0.05324 0.0
C584 C 0.46889 0.09794 1.00904 0.0
C585 C 0.48936 0.10245 0.97192 0.0
C586 C 0.51872 0.12471 0.97879 0.0
C587 C 0.67235 0.17311 0.09404 0.0
C588 C 0.68563 0.1716 0.04905 0.0
C589 C 0.64578 0.17315 0.0914 0.0
C590 C 0.63234 0.17133 0.04395 0.0
C591 C 0.64215 0.16332 1.0007 0.0
C592 C 0.66922 0.16427 1.00292 0.0
C593 C 0.61058 0.18114 0.03862 0.0
C594 C 0.58103 0.15944 0.03085 0.0
C595 C 0.61853 0.21137 0.04301 0.0
C596 C 0.64969 0.23603 0.04837 0.0
C597 C 0.67494 0.23364 0.01153 0.0
C598 C 0.71182 0.25595 0.01228 0.0
C599 C 0.72924 0.28587 0.05143 0.0
C600 C 0.69251 0.29098 0.10562 0.0
C601 C 0.65704 0.26302 0.09281 0.0
H602 H 0.72272 0.29091 0.06938 0.0
H603 H 0.44615 0.08073 1.00361 0.0
H604 H 0.51108 0.68472 0.09755 0.0
H605 H 0.47084 0.63378 0.09915 0.0
H606 H 0.46289 0.63183 0.93528 0.0
H607 H 0.50293 0.68281 0.93325 0.0
H608 H 0.4112 0.61493 0.98008 0.0
H609 H 0.48841 0.5921 0.99376 0.0
H610 H 0.5338 0.59543 0.02913 0.0
H611 H 0.49311 0.56621 0.17342 0.0
H612 H 0.44759 0.56312 0.13915 0.0
H613 H 0.30021 0.46893 0.95274 0.0
H614 H 0.35043 0.51012 0.94822 0.0
H615 H 0.35624 0.51884 0.11197 0.0
H616 H 0.30589 0.47746 0.11708 0.0
H617 H 0.41019 0.53056 0.06511 0.0
H618 H 0.33556 0.55814 0.05466 0.0
H619 H 0.28964 0.55426 0.02066 0.0
H620 H 0.32604 0.57534 0.87177 0.0
H621 H 0.37202 0.57882 0.90475 0.0
C622 C 0.50103 0.67334 0.0618 0.0
C623 C 0.50997 0.68786 0.01529 0.0
C624 C 0.47818 0.64418 0.06278 0.0
C625 C 0.46403 0.62907 0.01731 0.0
C626 C 0.4736 0.64318 0.97075 0.0
C627 C 0.49645 0.67229 0.9697 0.0
C628 C 0.43743 0.59963 0.0186 0.0
C629 C 0.41115 0.59635 0.99779 0.0
C630 C 0.43726 0.57571 0.04317 0.0
C631 C 0.46465 0.57764 0.06398 0.0
C632 C 0.48922 0.58665 0.03318 0.0
C633 C 0.51496 0.58844 0.053 0.0
C634 C 0.51636 0.5811 0.10352 0.0
C635 C 0.492 0.57192 0.1343 0.0
C636 C 0.46621 0.57012 0.11468 0.0
C637 C 0.31231 0.47919 0.98791 0.0
C638 C 0.29892 0.47033 0.03526 0.0
C639 C 0.34102 0.50265 0.9852 0.0
C640 C 0.35674 0.51763 0.02972 0.0
C641 C 0.34434 0.50746 0.07725 0.0
C642 C 0.31554 0.48397 0.08003 0.0
C643 C 0.3843 0.54603 0.02619 0.0
C644 C 0.41052 0.54915 0.0469 0.0
C645 C 0.38453 0.56998 1.00182 0.0
C646 C 0.3571 0.56841 0.98205 0.0
C647 C 0.33369 0.56172 0.01459 0.0
C648 C 0.30766 0.55962 0.99552 0.0
C649 C 0.3049 0.56447 0.94405 0.0
C650 C 0.3282 0.57154 0.9116 0.0
C651 C 0.35425 0.57358 0.93047 0.0
H652 H 0.28472 0.56282 0.92936 0.0
H653 H 0.53631 0.58247 0.11879 0.0
H654 H 0.79188 0.50037 0.16453 0.0
H655 H 0.79699 0.45664 0.16422 0.0
H656 H 0.75819 0.43346 0.01277 0.0
H657 H 0.7535 0.47754 0.01221 0.0
H658 H 0.73772 0.38466 0.09007 0.0
H659 H 0.82472 0.46454 0.01307 0.0
H660 H 0.8672 0.51502 0.01278 0.0
H661 H 0.90186 0.49874 0.15004 0.0
H662 H 0.85928 0.44827 0.15156 0.0
H663 H 0.78629 0.29402 0.98046 0.0
H664 H 0.78789 0.34104 0.99215 0.0
H665 H 0.81287 0.34413 0.15017 0.0
H666 H 0.8096 0.29625 0.13976 0.0
H667 H 0.83975 0.40248 0.07801 0.0
H668 H 0.75932 0.32405 0.16658 0.0
H669 H 0.72731 0.26368 0.17311 0.0
H670 H 0.67358 0.27803 0.99044 0.0
H671 H 0.71532 0.33795 1.00895 0.0
C672 C 0.78415 0.48581 0.13134 0.0
C673 C 0.77247 0.4924 0.08822 0.0
C674 C 0.78706 0.46089 0.13131 0.0
C675 C 0.77794 0.44201 0.0885 0.0
C676 C 0.7652 0.44783 0.04618 0.0
C677 C 0.76273 0.47305 0.04581 0.0
C678 C 0.78377 0.41743 0.08642 0.0
C679 C 0.75997 0.38854 0.08748 0.0
C680 C 0.81288 0.42261 0.08407 0.0
C681 C 0.83866 0.45278 0.08275 0.0
C682 C 0.84126 0.47182 0.04344 0.0
C683 C 0.86538 0.50041 0.043 0.0
C684 C 0.88717 0.51011 0.08146 0.0
C685 C 0.88494 0.49121 0.12033 0.0
C686 C 0.86083 0.46261 0.12098 0.0
C687 C 0.79252 0.30486 0.01757 0.0
C688 C 0.79659 0.29087 0.05971 0.0
C689 C 0.79357 0.33179 0.02407 0.0
C690 C 0.79946 0.34536 0.07241 0.0
C691 C 0.80748 0.33346 0.11291 0.0
C692 C 0.80544 0.30606 0.10692 0.0
C693 C 0.79383 0.36985 0.08155 0.0
C694 C 0.81757 0.39867 0.08158 0.0
C695 C 0.76477 0.36471 0.08631 0.0
C696 C 0.73951 0.33449 0.08885 0.0
C697 C 0.74266 0.31249 0.13708 0.0
C698 C 0.72244 0.27382 0.14169 0.0
C699 C 0.69445 0.25097 0.09637 0.0
C700 C 0.68836 0.28401 0.02384 0.0
C701 C 0.71411 0.32209 0.03612 0.0
H702 H 0.68315 0.22762 0.10226 0.0
H703 H 0.90582 0.53226 0.08107 0.0
H704 H 0.29149 0.80541 0.94588 0.0
H705 H 0.33999 0.80998 0.94199 0.0
H706 H 0.34764 0.81504 0.1059 0.0
H707 H 0.29901 0.81046 0.11034 0.0
H708 H 0.40131 0.85313 0.056 0.0
H709 H 0.32279 0.75257 0.05273 0.0
H710 H 0.27578 0.7113 0.01992 0.0
H711 H 0.31377 0.71634 0.8746 0.0
H712 H 0.36073 0.75867 0.9058 0.0
H713 H 0.5024 0.80213 0.09647 0.0
H714 H 0.46007 0.80954 0.09692 0.0
H715 H 0.45078 0.79774 0.93363 0.0
H716 H 0.49307 0.79021 0.93274 0.0
H717 H 0.39869 0.76475 0.98139 0.0
H718 H 0.47736 0.86458 0.98417 0.0
H719 H 0.52394 0.90736 0.01519 0.0
H720 H 0.48622 0.90327 0.16051 0.0
H721 H 0.43952 0.86014 0.13062 0.0
C722 C 0.30363 0.80795 0.98115 0.0
C723 C 0.29124 0.80713 0.02848 0.0
C724 C 0.33135 0.81061 0.97879 0.0
C725 C 0.34713 0.81249 0.02367 0.0
C726 C 0.33571 0.81358 0.07089 0.0
C727 C 0.30788 0.81079 0.07333 0.0
C728 C 0.37401 0.81027 0.02136 0.0
C729 C 0.40078 0.83375 0.04015 0.0
C730 C 0.37319 0.78509 0.99985 0.0
C731 C 0.34521 0.75907 0.98144 0.0
C732 C 0.32108 0.7451 0.01361 0.0
C733 C 0.29442 0.72147 0.99533 0.0
C734 C 0.29179 0.7111 0.94529 0.0
C735 C 0.31583 0.72441 0.91337 0.0
C736 C 0.34245 0.74831 0.93127 0.0
C737 C 0.49145 0.80124 0.0606 0.0
C738 C 0.50103 0.79552 0.01456 0.0
C739 C 0.46736 0.80563 0.06093 0.0
C740 C 0.45247 0.80437 0.01527 0.0
C741 C 0.46205 0.79882 0.96924 0.0
C742 C 0.48624 0.79459 0.96882 0.0
C743 C 0.42615 0.8077 0.01582 0.0
C744 C 0.39935 0.78427 0.99694 0.0
C745 C 0.427 0.83291 0.03722 0.0
C746 C 0.45501 0.85893 0.05529 0.0
C747 C 0.47906 0.87264 0.02289 0.0
C748 C 0.50548 0.89698 0.04024 0.0
C749 C 0.50806 0.90798 0.08983 0.0
C750 C 0.4842 0.8947 0.12212 0.0
C751 C 0.45774 0.87031 0.10498 0.0
H752 H 0.52853 0.92684 0.10319 0.0
H753 H 0.27112 0.69275 0.93127 0.0
H754 H 0.67509 0.53039 0.99981 0.0
H755 H 0.62307 0.49332 0.99005 0.0
H756 H 0.62134 0.47241 0.14875 0.0
H757 H 0.67335 0.50982 0.15905 0.0
H758 H 0.60457 0.43698 1.00109 0.0
H759 H 0.55153 0.44083 0.19139 0.0
H760 H 0.55359 0.47783 0.25224 0.0
H761 H 0.58224 0.54167 0.13438 0.0
H762 H 0.58 0.50497 0.07266 0.0
H763 H 0.47582 0.31105 0.12845 0.0
H764 H 0.51339 0.36296 0.13094 0.0
H765 H 0.49948 0.36815 0.96994 0.0
H766 H 0.46238 0.3158 0.96677 0.0
H767 H 0.5201 0.41571 0.10936 0.0
H768 H 0.56564 0.40862 0.91663 0.0
H769 H 0.56456 0.37133 0.85746 0.0
H770 H 0.55329 0.3151 0.98274 0.0
H771 H 0.5547 0.35221 0.04263 0.0
C772 C 0.66351 0.51835 0.03295 0.0
C773 C 0.67843 0.52274 0.08008 0.0
C774 C 0.63375 0.4972 0.02727 0.0
C775 C 0.61831 0.48008 0.06859 0.0
C776 C 0.63269 0.48564 0.11647 0.0
C777 C 0.66248 0.50693 0.12225 0.0
C778 C 0.58873 0.45384 0.06008 0.0
C779 C 0.58588 0.43273 0.02389 0.0
C780 C 0.56456 0.44796 0.09063 0.0
C781 C 0.5658 0.47016 0.12746 0.0
C782 C 0.55814 0.46272 0.17838 0.0
C783 C 0.55938 0.48366 0.21305 0.0
C784 C 0.56811 0.5121 0.19722 0.0
C785 C 0.57559 0.51966 0.14665 0.0
C786 C 0.5744 0.49881 0.11182 0.0
C787 C 0.48039 0.32329 0.09365 0.0
C788 C 0.46658 0.30918 0.04717 0.0
C789 C 0.50177 0.35306 0.09524 0.0
C790 C 0.50962 0.36929 0.05048 0.0
C791 C 0.49412 0.35586 1.00477 0.0
C792 C 0.47295 0.32596 1.00301 0.0
C793 C 0.53627 0.39891 0.05094 0.0
C794 C 0.53862 0.42046 0.08575 0.0
C795 C 0.56019 0.40526 0.01939 0.0
C796 C 0.55991 0.38302 0.98393 0.0
C797 C 0.56303 0.38833 0.93149 0.0
C798 C 0.56235 0.36723 0.89786 0.0
C799 C 0.55875 0.34082 0.91631 0.0
C800 C 0.55598 0.33552 0.96848 0.0
C801 C 0.55671 0.35657 1.00227 0.0
H802 H 0.55817 0.32449 0.8902 0.0
H803 H 0.56905 0.52828 0.22411 0.0
H804 H 0.25235 0.43611 0.75121 0.0
H805 H 0.25277 0.43621 0.65829 0.0
H806 H 0.15787 0.38547 0.65208 0.0
H807 H 0.15731 0.38452 0.74516 0.0
H808 H 0.18161 0.3645 0.58473 0.0
H809 H 0.19329 0.4584 0.62994 0.0
H810 H 0.21591 0.50649 0.67492 0.0
H811 H 0.29836 0.53213 0.6051 0.0
H812 H 0.27633 0.48401 0.56023 0.0
H813 H 0.16139 0.38645 0.32463 0.0
H814 H 0.16062 0.38596 0.41751 0.0
H815 H 0.25544 0.43785 0.42483 0.0
H816 H 0.25635 0.43931 0.33185 0.0
H817 H 0.23151 0.45816 0.49171 0.0
H818 H 0.21993 0.36426 0.44662 0.0
H819 H 0.19741 0.31613 0.40181 0.0
H820 H 0.1149 0.29042 0.47144 0.0
H821 H 0.13683 0.33859 0.51614 0.0
C822 C 0.23157 0.42474 0.73011 0.0
C823 C 0.20478 0.41032 0.75561 0.0
C824 C 0.23183 0.42506 0.67699 0.0
C825 C 0.20534 0.41113 0.64827 0.0
C826 C 0.17857 0.39645 0.67353 0.0
C827 C 0.17828 0.39614 0.7267 0.0
C828 C 0.20559 0.41175 0.59186 0.0
C829 C 0.19216 0.38497 0.56433 0.0
C830 C 0.21996 0.43847 0.56535 0.0
C831 C 0.23323 0.46749 0.5921 0.0
C832 C 0.21631 0.47421 0.62448 0.0
C833 C 0.22901 0.50149 0.6499 0.0
C834 C 0.25857 0.52233 0.64297 0.0
C835 C 0.27547 0.51595 0.61048 0.0
C836 C 0.26288 0.48869 0.58501 0.0
C837 C 0.18208 0.39799 0.34596 0.0
C838 C 0.20895 0.41292 0.32078 0.0
C839 C 0.18162 0.39743 0.39907 0.0
C840 C 0.208 0.41158 0.4281 0.0
C841 C 0.23483 0.42669 0.40315 0.0
C842 C 0.23532 0.42728 0.35001 0.0
C843 C 0.20757 0.4109 0.48452 0.0
C844 C 0.22096 0.43767 0.51208 0.0
C845 C 0.19317 0.38417 0.51104 0.0
C846 C 0.17995 0.35515 0.48434 0.0
C847 C 0.19692 0.34844 0.45206 0.0
C848 C 0.18427 0.32113 0.42674 0.0
C849 C 0.15472 0.30026 0.43367 0.0
C850 C 0.13778 0.30662 0.46605 0.0
C851 C 0.15031 0.33391 0.49143 0.0
H852 H 0.14497 0.27913 0.41403 0.0
H853 H 0.26836 0.54344 0.66269 0.0
H854 H 0.76159 0.15773 0.75927 0.0
H855 H 0.76192 0.15701 0.66647 0.0
H856 H 0.7932 0.25013 0.66641 0.0
H857 H 0.79157 0.25078 0.75924 0.0
H858 H 0.75113 0.22242 0.59574 0.0
H859 H 0.8396 0.22246 0.64524 0.0
H860 H 0.86913 0.20476 0.69034 0.0
H861 H 0.82007 0.12104 0.61263 0.0
H862 H 0.78996 0.13812 0.56756 0.0
H863 H 0.7946 0.24718 0.33945 0.0
H864 H 0.79473 0.24788 0.4323 0.0
H865 H 0.7624 0.15456 0.43196 0.0
H866 H 0.76345 0.15389 0.33901 0.0
H867 H 0.80506 0.18233 0.50276 0.0
H868 H 0.71657 0.18241 0.45337 0.0
H869 H 0.6872 0.20027 0.4082 0.0
H870 H 0.73655 0.284 0.48576 0.0
H871 H 0.7665 0.26677 0.5309 0.0
C872 C 0.76821 0.17802 0.73958 0.0
C873 C 0.77657 0.20433 0.76683 0.0
C874 C 0.76874 0.17763 0.68648 0.0
C875 C 0.77801 0.2036 0.65948 0.0
C876 C 0.78611 0.22985 0.68646 0.0
C877 C 0.78543 0.23023 0.73958 0.0
C878 C 0.77891 0.20333 0.60307 0.0
C879 C 0.76326 0.21403 0.57543 0.0
C880 C 0.79416 0.19174 0.57652 0.0
C881 C 0.81235 0.18148 0.60338 0.0
C882 C 0.83496 0.2002 0.63805 0.0
C883 C 0.85183 0.1903 0.66356 0.0
C884 C 0.84643 0.16177 0.65445 0.0
C885 C 0.8242 0.14312 0.61969 0.0
C886 C 0.80725 0.15291 0.59412 0.0
C887 C 0.78785 0.22684 0.35906 0.0
C888 C 0.77898 0.20046 0.33169 0.0
C889 C 0.78761 0.22723 0.41218 0.0
C890 C 0.77816 0.20119 0.43907 0.0
C891 C 0.76963 0.17488 0.41197 0.0
C892 C 0.76999 0.17449 0.35882 0.0
C893 C 0.7773 0.20144 0.49548 0.0
C894 C 0.79294 0.19072 0.5231 0.0
C895 C 0.76207 0.21304 0.52203 0.0
C896 C 0.74395 0.22338 0.49516 0.0
C897 C 0.7213 0.2047 0.46052 0.0
C898 C 0.70453 0.2147 0.43497 0.0
C899 C 0.71005 0.24327 0.44401 0.0
C900 C 0.73232 0.26188 0.47874 0.0
C901 C 0.74918 0.252 0.50436 0.0
H902 H 0.69705 0.25097 0.42418 0.0
H903 H 0.85951 0.15414 0.67424 0.0
H904 H 0.53742 0.79062 0.72198 0.0
H905 H 0.53892 0.79171 0.6291 0.0
H906 H 0.60367 0.76422 0.63294 0.0
H907 H 0.603 0.764 0.72595 0.0
H908 H 0.61833 0.80833 0.56743 0.0
H909 H 0.53226 0.71571 0.60064 0.0
H910 H 0.48434 0.68288 0.63862 0.0
H911 H 0.44641 0.72817 0.56174 0.0
H912 H 0.49424 0.76155 0.52384 0.0
H913 H 0.60857 0.76917 0.30561 0.0
H914 H 0.60757 0.76831 0.3985 0.0
H915 H 0.5413 0.79379 0.39557 0.0
H916 H 0.54131 0.79356 0.30261 0.0
H917 H 0.52753 0.75062 0.46079 0.0
H918 H 0.61343 0.84332 0.42769 0.0
H919 H 0.66135 0.87644 0.38997 0.0
H920 H 0.6996 0.8314 0.4667 0.0
H921 H 0.65178 0.79773 0.50436 0.0
C922 C 0.55215 0.78503 0.7031 0.0
C923 C 0.57003 0.77714 0.73139 0.0
C924 C 0.55279 0.7854 0.64999 0.0
C925 C 0.57116 0.77772 0.62408 0.0
C926 C 0.58924 0.77012 0.65217 0.0
C927 C 0.58863 0.76974 0.70529 0.0
C928 C 0.57166 0.77779 0.56767 0.0
C929 C 0.59855 0.79541 0.54407 0.0
C930 C 0.54573 0.76146 0.53726 0.0
C931 C 0.51691 0.74131 0.55979 0.0
C932 C 0.51376 0.71881 0.59214 0.0
C933 C 0.48661 0.70008 0.6136 0.0
C934 C 0.46237 0.70348 0.6027 0.0
C935 C 0.46522 0.72558 0.5702 0.0
C936 C 0.49233 0.7444 0.54868 0.0
C937 C 0.5936 0.77436 0.32468 0.0
C938 C 0.57506 0.7815 0.29661 0.0
C939 C 0.59328 0.77416 0.37783 0.0
C940 C 0.57461 0.78134 0.40403 0.0
C941 C 0.55596 0.7883 0.37615 0.0
C942 C 0.5562 0.78842 0.32301 0.0
C943 C 0.57421 0.7812 0.46048 0.0
C944 C 0.54732 0.76356 0.48411 0.0
C945 C 0.60014 0.79754 0.49091 0.0
C946 C 0.62895 0.81782 0.46844 0.0
C947 C 0.632 0.84033 0.43621 0.0
C948 C 0.65916 0.85923 0.41489 0.0
C949 C 0.68348 0.85597 0.42582 0.0
C950 C 0.68072 0.83386 0.45821 0.0
C951 C 0.65361 0.81488 0.47959 0.0
H952 H 0.70449 0.87063 0.40929 0.0
H953 H 0.44136 0.68895 0.61935 0.0
H954 H 0.77455 0.53379 0.79425 0.0
H955 H 0.77543 0.53529 0.70143 0.0
H956 H 0.76819 0.61338 0.70565 0.0
H957 H 0.76787 0.61244 0.79865 0.0
H958 H 0.73069 0.57279 0.63388 0.0
H959 H 0.83295 0.6194 0.68252 0.0
H960 H 0.87675 0.6239 0.7272 0.0
H961 H 0.86448 0.54652 0.6483 0.0
H962 H 0.82032 0.54131 0.60367 0.0
H963 H 0.76682 0.61223 0.37635 0.0
H964 H 0.76653 0.61234 0.46934 0.0
H965 H 0.77759 0.53644 0.46964 0.0
H966 H 0.77776 0.5361 0.37661 0.0
H967 H 0.81353 0.57693 0.53945 0.0
H968 H 0.71096 0.52975 0.49178 0.0
H969 H 0.66689 0.52484 0.44742 0.0
H970 H 0.67945 0.60278 0.52463 0.0
H971 H 0.72386 0.60839 0.56895 0.0
C972 C 0.77349 0.55151 0.77556 0.0
C973 C 0.77128 0.57308 0.80402 0.0
C974 C 0.77389 0.55226 0.72246 0.0
C975 C 0.77213 0.57459 0.69671 0.0
C976 C 0.76952 0.59593 0.72482 0.0
C977 C 0.76923 0.59527 0.77797 0.0
C978 C 0.77294 0.5756 0.64038 0.0
C979 C 0.74898 0.57412 0.6132 0.0
C980 C 0.79653 0.57667 0.61349 0.0
C981 C 0.82315 0.57981 0.64012 0.0
C982 C 0.83944 0.6032 0.675 0.0
C983 C 0.86436 0.60591 0.70027 0.0
C984 C 0.87335 0.58546 0.6907 0.0
C985 C 0.85747 0.56232 0.65573 0.0
C986 C 0.8325 0.55949 0.6304 0.0
C987 C 0.76892 0.59539 0.39617 0.0
C988 C 0.77221 0.57408 0.36904 0.0
C989 C 0.7688 0.59552 0.44933 0.0
C990 C 0.77173 0.57421 0.47642 0.0
C991 C 0.77534 0.55312 0.4495 0.0
C992 C 0.77552 0.553 0.39634 0.0
C993 C 0.77121 0.574 0.53285 0.0
C994 C 0.79524 0.57563 0.56008 0.0
C995 C 0.74766 0.57302 0.55978 0.0
C996 C 0.72091 0.56966 0.53328 0.0
C997 C 0.70447 0.54598 0.49899 0.0
C998 C 0.6794 0.54305 0.47391 0.0
C999 C 0.67042 0.56353 0.48309 0.0
C1000 C 0.68645 0.58696 0.51749 0.0
C1001 C 0.71156 0.59001 0.54263 0.0
H1002 H 0.651 0.56122 0.46365 0.0
H1003 H 0.89265 0.5876 0.71029 0.0
H1004 H 0.2495 0.79916 0.32627 0.0
H1005 H 0.24825 0.79889 0.41924 0.0
H1006 H 0.15534 0.76917 0.4115 0.0
H1007 H 0.15659 0.77018 0.31855 0.0
H1008 H 0.18357 0.81228 0.48274 0.0
H1009 H 0.17888 0.72152 0.4378 0.0
H1010 H 0.19479 0.68996 0.39563 0.0
H1011 H 0.27759 0.73493 0.47818 0.0
H1012 H 0.26232 0.76707 0.52034 0.0
H1013 H 0.15255 0.76771 0.73956 0.0
H1014 H 0.15316 0.7677 0.64648 0.0
H1015 H 0.24635 0.79869 0.65236 0.0
H1016 H 0.24578 0.79811 0.74539 0.0
H1017 H 0.21748 0.75453 0.58203 0.0
H1018 H 0.22193 0.84548 0.62662 0.0
H1019 H 0.20574 0.8769 0.66846 0.0
H1020 H 0.12283 0.83111 0.58639 0.0
H1021 H 0.13839 0.79912 0.54456 0.0
C1022 C 0.22886 0.79282 0.34435 0.0
C1023 C 0.20311 0.78459 0.315 0.0
C1024 C 0.22812 0.79242 0.39748 0.0
C1025 C 0.20162 0.78367 0.42228 0.0
C1026 C 0.17599 0.77587 0.39313 0.0
C1027 C 0.1767 0.77623 0.34002 0.0
C1028 C 0.20063 0.7827 0.47864 0.0
C1029 C 0.1906 0.79934 0.50443 0.0
C1030 C 0.21037 0.76627 0.50695 0.0
C1031 C 0.21956 0.74689 0.48185 0.0
C1032 C 0.20057 0.72484 0.44667 0.0
C1033 C 0.20946 0.70681 0.42281 0.0
C1034 C 0.23721 0.71049 0.43412 0.0
C1035 C 0.25611 0.73214 0.46941 0.0
C1036 C 0.24734 0.75025 0.49333 0.0
C1037 C 0.17312 0.7743 0.72103 0.0
C1038 C 0.19914 0.78301 0.74986 0.0
C1039 C 0.17349 0.77451 0.66786 0.0
C1040 C 0.19987 0.78349 0.64252 0.0
C1041 C 0.22578 0.79179 0.67116 0.0
C1042 C 0.22546 0.79167 0.7243 0.0
C1043 C 0.20048 0.78417 0.58613 0.0
C1044 C 0.21043 0.76745 0.56033 0.0
C1045 C 0.1906 0.80047 0.55781 0.0
C1046 C 0.18121 0.8197 0.58287 0.0
C1047 C 0.20015 0.84194 0.61782 0.0
C1048 C 0.19111 0.85989 0.64147 0.0
C1049 C 0.16324 0.85595 0.6302 0.0
C1050 C 0.14439 0.8341 0.59514 0.0
C1051 C 0.15332 0.81607 0.57142 0.0
H1052 H 0.15628 0.86987 0.64854 0.0
H1053 H 0.24405 0.69651 0.41561 0.0
H1054 H 0.37836 0.22475 0.74861 0.0
H1055 H 0.37906 0.22502 0.6557 0.0
H1056 H 0.45305 0.21073 0.65976 0.0
H1057 H 0.45338 0.21181 0.75265 0.0
H1058 H 0.46104 0.25076 0.59177 0.0
H1059 H 0.3823 0.15434 0.63162 0.0
H1060 H 0.33621 0.11859 0.67184 0.0
H1061 H 0.2895 0.15414 0.59176 0.0
H1062 H 0.33542 0.19038 0.55156 0.0
H1063 H 0.45413 0.20827 0.3329 0.0
H1064 H 0.4534 0.2083 0.42582 0.0
H1065 H 0.37957 0.22283 0.42102 0.0
H1066 H 0.37928 0.22148 0.32812 0.0
H1067 H 0.37145 0.18282 0.48936 0.0
H1068 H 0.45018 0.27914 0.44927 0.0
H1069 H 0.49629 0.31486 0.40904 0.0
H1070 H 0.54301 0.27946 0.48955 0.0
H1071 H 0.49707 0.24325 0.52976 0.0
C1072 C 0.39501 0.22202 0.7298 0.0
C1073 C 0.41572 0.2181 0.75816 0.0
C1074 C 0.39517 0.22185 0.67663 0.0
C1075 C 0.41582 0.21743 0.65074 0.0
C1076 C 0.43681 0.21401 0.67892 0.0
C1077 C 0.43677 0.21434 0.73204 0.0
C1078 C 0.41563 0.21641 0.59429 0.0
C1079 C 0.44155 0.23564 0.56938 0.0
C1080 C 0.39002 0.19714 0.56505 0.0
C1081 C 0.36236 0.17525 0.58896 0.0
C1082 C 0.36224 0.15467 0.62287 0.0
C1083 C 0.33614 0.1343 0.64562 0.0
C1084 C 0.30996 0.13415 0.63446 0.0
C1085 C 0.30981 0.15431 0.60042 0.0
C1086 C 0.33586 0.17476 0.5776 0.0
C1087 C 0.43751 0.21113 0.35156 0.0
C1088 C 0.41685 0.21502 0.32299 0.0
C1089 C 0.43733 0.21147 0.40472 0.0
C1090 C 0.41672 0.21603 0.43039 0.0
C1091 C 0.39579 0.21944 0.40202 0.0
C1092 C 0.39585 0.21896 0.34889 0.0
C1093 C 0.41686 0.21716 0.48684 0.0
C1094 C 0.39093 0.19795 0.51174 0.0
C1095 C 0.44246 0.23644 0.51608 0.0
C1096 C 0.47013 0.25831 0.49215 0.0
C1097 C 0.47025 0.27883 0.45811 0.0
C1098 C 0.49635 0.29919 0.43536 0.0
C1099 C 0.52255 0.29938 0.44664 0.0
C1100 C 0.5227 0.27926 0.48081 0.0
C1101 C 0.49664 0.25884 0.50362 0.0
H1102 H 0.54274 0.31515 0.42898 0.0
H1103 H 0.28977 0.11836 0.65212 0.0
loop_
_geom_bond_atom_site_label_1
_geom_bond_atom_site_label_2
_geom_bond_distance
_geom_bond_site_symmetry_2
_ccdc_geom_bond_type
C0 O16 1.251 . S
C0 O18 1.254 1_554 S
N1 C2 1.333 . S
N1 C6 1.307 . S
N1 Zn7 2.020 . S
C2 N1 1.333 . S
C2 C3 1.379 . S
C2 H20 0.952 . S
C3 C2 1.379 . S
C3 C4 1.390 . S
C3 H30 0.949 . S
C4 C3 1.390 . S
C4 C5 1.357 . S
C5 C4 1.357 . S
C5 C6 1.370 . S
C5 H31 0.950 . S
C6 N1 1.307 . S
C6 C5 1.370 . S
C6 H24 0.948 . S
Zn7 N1 2.020 . S
Zn7 O16 2.039 . S
Zn7 O22 2.034 . S
Zn7 O26 2.025 . S
Zn7 O28 2.024 . S
C8 O27 1.246 1_554 S
C8 O28 1.249 . S
N9 C10 1.307 . S
N9 C11 1.333 . S
N9 Zn15 2.020 . S
C10 N9 1.307 . S
C10 C14 1.370 . S
C10 H21 0.948 . S
C11 N9 1.333 . S
C11 C12 1.379 . S
C11 H19 0.952 . S
C12 C11 1.379 . S
C12 C13 1.390 . S
C12 H32 0.949 . S
C13 C12 1.390 . S
C13 C14 1.357 . S
C14 C10 1.370 . S
C14 C13 1.357 . S
C14 H33 0.950 . S
Zn15 N9 2.020 . S
Zn15 O18 2.025 . S
Zn15 O23 2.024 . S
Zn15 O25 2.039 . S
Zn15 O27 2.034 . S
O16 C0 1.251 . S
O16 Zn7 2.039 . S
C17 O22 1.246 . S
C17 O23 1.249 1_554 S
O18 C0 1.254 1_556 S
O18 Zn15 2.025 . S
H19 C11 0.952 . S
H20 C2 0.952 . S
H21 C10 0.948 . S
O22 Zn7 2.034 . S
O22 C17 1.246 . S
O23 Zn15 2.024 . S
O23 C17 1.249 1_556 S
H24 C6 0.948 . S
O25 Zn15 2.039 . S
O25 C29 1.251 1_556 S
O26 Zn7 2.025 . S
O26 C29 1.254 . S
O27 C8 1.246 1_556 S
O27 Zn15 2.034 . S
O28 Zn7 2.024 . S
O28 C8 1.249 . S
C29 O25 1.251 1_554 S
C29 O26 1.254 . S
H30 C3 0.949 . S
H31 C5 0.950 . S
H32 C12 0.949 . S
H33 C14 0.950 . S
C34 O50 1.251 1_554 S
C34 O52 1.254 . S
N35 C36 1.333 . S
N35 C40 1.307 . S
N35 Zn41 2.020 . S
C36 N35 1.333 . S
C36 C37 1.379 . S
C36 H54 0.952 . S
C37 C36 1.379 . S
C37 C38 1.390 . S
C37 H64 0.949 . S
C38 C37 1.390 . S
C38 C39 1.357 . S
C39 C38 1.357 . S
C39 C40 1.370 . S
C39 H65 0.950 . S
C40 N35 1.307 . S
C40 C39 1.370 . S
C40 H58 0.948 . S
Zn41 N35 2.020 . S
Zn41 O50 2.039 . S
Zn41 O56 2.039 . S
Zn41 O60 2.025 . S
Zn41 O62 2.024 . S
C42 O61 1.246 . S
C42 O62 1.249 1_554 S
N43 C44 1.307 . S
N43 C45 1.333 . S
N43 Zn49 2.020 . S
C44 N43 1.307 . S
C44 C48 1.370 . S
C44 H55 0.948 . S
C45 N43 1.333 . S
C45 C46 1.379 . S
C45 H53 0.952 . S
C46 C45 1.379 . S
C46 C47 1.390 . S
C46 H66 0.949 . S
C47 C46 1.390 . S
C47 C48 1.357 . S
C48 C44 1.370 . S
C48 C47 1.357 . S
C48 H67 0.950 . S
Zn49 N43 2.020 . S
Zn49 O52 2.025 . S
Zn49 O57 2.024 . S
Zn49 O59 2.039 . S
Zn49 O61 2.034 . S
O50 C34 1.251 1_556 S
O50 Zn41 2.039 . S
C51 O56 1.225 1_554 S
C51 O57 1.249 . S
O52 C34 1.254 . S
O52 Zn49 2.025 . S
H53 C45 0.952 . S
H54 C36 0.952 . S
H55 C44 0.948 . S
O56 Zn41 2.039 . S
O56 C51 1.225 1_556 S
O57 Zn49 2.024 . S
O57 C51 1.249 . S
H58 C40 0.948 . S
O59 Zn49 2.039 . S
O59 C63 1.251 . S
O60 Zn41 2.025 . S
O60 C63 1.254 1_556 S
O61 C42 1.246 . S
O61 Zn49 2.034 . S
O62 Zn41 2.024 . S
O62 C42 1.249 1_556 S
C63 O59 1.251 . S
C63 O60 1.254 1_554 S
H64 C37 0.949 . S
H65 C39 0.950 . S
H66 C46 0.949 . S
H67 C48 0.950 . S
C68 O84 1.251 . S
C68 O86 1.254 1_554 S
N69 C70 1.333 . S
N69 C74 1.307 . S
N69 Zn75 2.020 . S
C70 N69 1.333 . S
C70 C71 1.379 . S
C70 H88 0.952 . S
C71 C70 1.379 . S
C71 C72 1.390 . S
C71 H98 0.949 . S
C72 C71 1.390 . S
C72 C73 1.357 . S
C73 C72 1.357 . S
C73 C74 1.370 . S
C73 H99 0.950 . S
C74 N69 1.307 . S
C74 C73 1.370 . S
C74 H92 0.948 . S
Zn75 N69 2.020 . S
Zn75 O84 2.039 . S
Zn75 O90 2.034 . S
Zn75 O94 2.025 . S
Zn75 O96 2.024 . S
C76 O95 1.246 1_554 S
C76 O96 1.249 . S
N77 C78 1.307 . S
N77 C79 1.333 . S
N77 Zn83 2.020 . S
C78 N77 1.307 . S
C78 C82 1.370 . S
C78 H89 0.948 . S
C79 N77 1.333 . S
C79 C80 1.379 . S
C79 H87 0.952 . S
C80 C79 1.379 . S
C80 C81 1.390 . S
C80 H100 0.949 . S
C81 C80 1.390 . S
C81 C82 1.357 . S
C82 C78 1.370 . S
C82 C81 1.357 . S
C82 H101 0.950 . S
Zn83 N77 2.020 . S
Zn83 O86 2.025 . S
Zn83 O91 2.024 . S
Zn83 O93 2.039 . S
Zn83 O95 2.034 . S
O84 C68 1.251 . S
O84 Zn75 2.039 . S
C85 O90 1.246 . S
C85 O91 1.249 1_554 S
O86 C68 1.254 1_556 S
O86 Zn83 2.025 . S
H87 C79 0.952 . S
H88 C70 0.952 . S
H89 C78 0.948 . S
O90 Zn75 2.034 . S
O90 C85 1.246 . S
O91 Zn83 2.024 . S
O91 C85 1.249 1_556 S
H92 C74 0.948 . S
O93 Zn83 2.039 . S
O93 C97 1.251 1_556 S
O94 Zn75 2.025 . S
O94 C97 1.254 . S
O95 C76 1.246 1_556 S
O95 Zn83 2.034 . S
O96 Zn75 2.024 . S
O96 C76 1.249 . S
C97 O93 1.251 1_554 S
C97 O94 1.254 . S
H98 C71 0.949 . S
H99 C73 0.950 . S
H100 C80 0.949 . S
H101 C82 0.950 . S
C102 O118 1.251 . S
C102 O120 1.254 . S
N103 C104 1.333 . S
N103 C108 1.307 . S
N103 Zn109 2.020 . S
C104 N103 1.333 . S
C104 C105 1.379 . S
C104 H122 0.952 . S
C105 C104 1.379 . S
C105 C106 1.390 . S
C105 H132 0.949 . S
C106 C105 1.390 . S
C106 C107 1.357 . S
C107 C106 1.357 . S
C107 C108 1.370 . S
C107 H133 0.950 . S
C108 N103 1.307 . S
C108 C107 1.370 . S
C108 H126 0.948 . S
Zn109 N103 2.020 . S
Zn109 O118 2.039 1_556 S
Zn109 O124 2.034 1_556 S
Zn109 O128 2.025 1_556 S
Zn109 O130 2.024 1_556 S
C110 O129 1.246 . S
C110 O130 1.249 . S
N111 C112 1.307 . S
N111 C113 1.333 . S
N111 Zn117 2.020 . S
C112 N111 1.307 . S
C112 C116 1.370 . S
C112 H123 0.948 . S
C113 N111 1.333 . S
C113 C114 1.379 . S
C113 H121 0.952 . S
C114 C113 1.379 . S
C114 C115 1.390 . S
C114 H134 0.949 . S
C115 C114 1.390 . S
C115 C116 1.357 . S
C116 C112 1.370 . S
C116 C115 1.357 . S
C116 H135 0.950 . S
Zn117 N111 2.020 . S
Zn117 O120 2.025 . S
Zn117 O125 2.024 . S
Zn117 O127 2.039 . S
Zn117 O129 2.034 . S
O118 C102 1.251 . S
O118 Zn109 2.039 1_554 S
C119 O124 1.246 . S
C119 O125 1.249 . S
O120 C102 1.254 . S
O120 Zn117 2.025 . S
H121 C113 0.952 . S
H122 C104 0.952 . S
H123 C112 0.948 . S
O124 Zn109 2.034 1_554 S
O124 C119 1.246 . S
O125 Zn117 2.024 . S
O125 C119 1.249 . S
H126 C108 0.948 . S
O127 Zn117 2.039 . S
O127 C131 1.251 . S
O128 Zn109 2.025 1_554 S
O128 C131 1.254 . S
O129 C110 1.246 . S
O129 Zn117 2.034 . S
O130 Zn109 2.024 1_554 S
O130 C110 1.249 . S
C131 O127 1.251 . S
C131 O128 1.254 . S
H132 C105 0.949 . S
H133 C107 0.950 . S
H134 C114 0.949 . S
H135 C116 0.950 . S
C136 O152 1.251 1_554 S
C136 O154 1.254 . S
N137 C138 1.333 . S
N137 C142 1.307 . S
N137 Zn143 2.020 . S
C138 N137 1.333 . S
C138 C139 1.379 . S
C138 H156 0.952 . S
C139 C138 1.379 . S
C139 C140 1.390 . S
C139 H166 0.949 . S
C140 C139 1.390 . S
C140 C141 1.357 . S
C141 C140 1.357 . S
C141 C142 1.370 . S
C141 H167 0.950 . S
C142 N137 1.307 . S
C142 C141 1.370 . S
C142 H160 0.948 . S
Zn143 N137 2.020 . S
Zn143 O152 2.039 . S
Zn143 O158 2.034 . S
Zn143 O162 2.025 . S
Zn143 O164 2.024 . S
C144 O163 1.246 . S
C144 O164 1.249 1_554 S
N145 C146 1.307 . S
N145 C147 1.333 . S
N145 Zn151 2.020 . S
C146 N145 1.307 . S
C146 C150 1.370 . S
C146 H157 0.948 . S
C147 N145 1.333 . S
C147 C148 1.379 . S
C147 H155 0.952 . S
C148 C147 1.379 . S
C148 C149 1.390 . S
C148 H168 0.949 . S
C149 C148 1.390 . S
C149 C150 1.357 . S
C150 C146 1.370 . S
C150 C149 1.357 . S
C150 H169 0.950 . S
Zn151 N145 2.020 . S
Zn151 O154 2.025 . S
Zn151 O159 2.024 . S
Zn151 O161 2.039 . S
Zn151 O163 2.034 . S
O152 C136 1.251 1_556 S
O152 Zn143 2.039 . S
C153 O158 1.246 1_554 S
C153 O159 1.249 . S
O154 C136 1.254 . S
O154 Zn151 2.025 . S
H155 C147 0.952 . S
H156 C138 0.952 . S
H157 C146 0.948 . S
O158 Zn143 2.034 . S
O158 C153 1.246 1_556 S
O159 Zn151 2.024 . S
O159 C153 1.249 . S
H160 C142 0.948 . S
O161 Zn151 2.039 . S
O161 C165 1.251 . S
O162 Zn143 2.025 . S
O162 C165 1.254 1_556 S
O163 C144 1.246 . S
O163 Zn151 2.034 . S
O164 Zn143 2.024 . S
O164 C144 1.249 1_556 S
C165 O161 1.251 . S
C165 O162 1.254 1_554 S
H166 C139 0.949 . S
H167 C141 0.950 . S
H168 C148 0.949 . S
H169 C150 0.950 . S
C170 O186 1.251 . S
C170 O188 1.254 1_554 S
N171 C172 1.333 . S
N171 C176 1.307 . S
N171 Zn177 2.020 . S
C172 N171 1.333 . S
C172 C173 1.379 . S
C172 H190 0.952 . S
C173 C172 1.379 . S
C173 C174 1.390 . S
C173 H200 0.949 . S
C174 C173 1.390 . S
C174 C175 1.357 . S
C175 C174 1.357 . S
C175 C176 1.370 . S
C175 H201 0.950 . S
C176 N171 1.307 . S
C176 C175 1.370 . S
C176 H194 0.948 . S
Zn177 N171 2.020 . S
Zn177 O186 2.039 . S
Zn177 O192 2.034 . S
Zn177 O196 2.025 . S
Zn177 O198 2.024 . S
C178 O197 1.246 1_554 S
C178 O198 1.249 . S
N179 C180 1.307 . S
N179 C181 1.333 . S
N179 Zn185 2.020 . S
C180 N179 1.307 . S
C180 C184 1.370 . S
C180 H191 0.948 . S
C181 N179 1.333 . S
C181 C182 1.379 . S
C181 H189 0.952 . S
C182 C181 1.379 . S
C182 C183 1.390 . S
C182 H202 0.949 . S
C183 C182 1.390 . S
C183 C184 1.357 . S
C184 C180 1.370 . S
C184 C183 1.357 . S
C184 H203 0.950 . S
Zn185 N179 2.020 . S
Zn185 O188 2.025 . S
Zn185 O193 2.024 . S
Zn185 O195 2.039 . S
Zn185 O197 2.034 . S
O186 C170 1.251 . S
O186 Zn177 2.039 . S
C187 O192 1.246 . S
C187 O193 1.249 1_554 S
O188 C170 1.254 1_556 S
O188 Zn185 2.025 . S
H189 C181 0.952 . S
H190 C172 0.952 . S
H191 C180 0.948 . S
O192 Zn177 2.034 . S
O192 C187 1.246 . S
O193 Zn185 2.024 . S
O193 C187 1.249 1_556 S
H194 C176 0.948 . S
O195 Zn185 2.039 . S
O195 C199 1.251 1_556 S
O196 Zn177 2.025 . S
O196 C199 1.254 . S
O197 C178 1.246 1_556 S
O197 Zn185 2.034 . S
O198 Zn177 2.024 . S
O198 C178 1.249 . S
C199 O195 1.251 1_554 S
C199 O196 1.254 . S
H200 C173 0.949 . S
H201 C175 0.950 . S
H202 C182 0.949 . S
H203 C184 0.950 . S
H204 C222 0.951 . S
H205 C224 0.951 . S
H206 C226 0.950 . S
H207 C227 0.950 . S
H208 C229 0.950 . S
H209 C232 0.950 . S
H210 C233 0.950 . S
H211 C235 0.950 . S
H212 C236 0.950 . S
H213 C237 0.951 . S
H214 C239 0.951 . S
H215 C241 0.950 . S
H216 C242 0.950 . S
H217 C244 0.950 . S
H218 C247 0.950 . S
H219 C248 0.950 . S
H220 C250 0.950 . S
H221 C251 0.950 . S
C222 H204 0.951 . S
C222 C223 1.366 . S
C222 C224 1.388 . S
C223 C222 1.366 . S
C223 C227 1.385 . S
C224 H205 0.951 . S
C224 C222 1.388 . S
C224 C225 1.366 . S
C225 C224 1.366 . S
C225 C226 1.414 . S
C225 C228 1.499 . S
C226 H206 0.950 . S
C226 C225 1.414 . S
C226 C227 1.374 . S
C227 H207 0.950 . S
C227 C223 1.385 . S
C227 C226 1.374 . S
C228 C225 1.499 . S
C228 C229 1.373 . S
C228 C230 1.389 1_554 S
C229 H208 0.950 . S
C229 C228 1.373 . S
C229 C245 1.377 . S
C230 C228 1.389 1_556 S
C230 C231 1.524 . S
C230 C244 1.377 . S
C231 C230 1.524 . S
C231 C232 1.397 . S
C231 C236 1.363 . S
C232 H209 0.950 . S
C232 C231 1.397 . S
C232 C233 1.334 . S
C233 H210 0.950 . S
C233 C232 1.334 . S
C233 C234 1.287 . S
C234 C233 1.287 . S
C234 C235 1.524 . S
C234 H253 0.913 . S
C235 H211 0.950 . S
C235 C234 1.524 . S
C235 C236 1.415 . S
C236 H212 0.950 . S
C236 C231 1.363 . S
C236 C235 1.415 . S
C237 H213 0.951 . S
C237 C238 1.366 . S
C237 C239 1.388 . S
C238 C237 1.366 . S
C238 C242 1.385 . S
C239 H214 0.951 . S
C239 C237 1.388 . S
C239 C240 1.366 . S
C240 C239 1.366 . S
C240 C241 1.414 . S
C240 C243 1.499 . S
C241 H215 0.950 . S
C241 C240 1.414 . S
C241 C242 1.374 . S
C242 H216 0.950 . S
C242 C238 1.385 . S
C242 C241 1.374 . S
C243 C240 1.499 . S
C243 C244 1.373 1_554 S
C243 C245 1.389 . S
C244 H217 0.950 . S
C244 C230 1.377 . S
C244 C243 1.373 1_556 S
C245 C229 1.377 . S
C245 C243 1.389 . S
C245 C246 1.524 . S
C246 C245 1.524 . S
C246 C247 1.397 . S
C246 C251 1.363 . S
C247 H218 0.950 . S
C247 C246 1.397 . S
C247 C248 1.334 . S
C248 H219 0.950 . S
C248 C247 1.334 . S
C248 C249 1.287 . S
C249 C248 1.287 . S
C249 C250 1.524 . S
C249 H252 0.999 . S
C250 H220 0.950 . S
C250 C249 1.524 . S
C250 C251 1.415 . S
C251 H221 0.950 . S
C251 C246 1.363 . S
C251 C250 1.415 . S
H252 C249 0.999 . S
H253 C234 0.913 . S
H254 C272 0.951 . S
H255 C274 0.951 . S
H256 C276 0.950 . S
H257 C277 0.950 . S
H258 C279 0.950 . S
H259 C282 0.950 . S
H260 C283 0.950 . S
H261 C285 0.950 . S
H262 C286 0.950 . S
H263 C287 0.951 . S
H264 C289 0.951 . S
H265 C291 0.950 . S
H266 C292 0.950 . S
H267 C294 0.950 . S
H268 C297 0.950 . S
H269 C298 0.950 . S
H270 C300 0.950 . S
H271 C301 0.950 . S
C272 H254 0.951 . S
C272 C273 1.366 . S
C272 C274 1.388 . S
C273 C272 1.366 . S
C273 C277 1.385 . S
C274 H255 0.951 . S
C274 C272 1.388 . S
C274 C275 1.366 . S
C275 C274 1.366 . S
C275 C276 1.414 . S
C275 C278 1.499 . S
C276 H256 0.950 . S
C276 C275 1.414 . S
C276 C277 1.374 . S
C277 H257 0.950 . S
C277 C273 1.385 . S
C277 C276 1.374 . S
C278 C275 1.499 . S
C278 C279 1.373 1_554 S
C278 C280 1.389 . S
C279 H258 0.950 . S
C279 C278 1.373 1_556 S
C279 C295 1.377 1_455 S
C280 C278 1.389 . S
C280 C281 1.524 . S
C280 C294 1.377 1_455 S
C281 C280 1.524 . S
C281 C282 1.397 . S
C281 C286 1.363 . S
C282 H259 0.950 . S
C282 C281 1.397 . S
C282 C283 1.334 . S
C283 H260 0.950 . S
C283 C282 1.334 . S
C283 C284 1.287 . S
C284 C283 1.287 . S
C284 C285 1.524 . S
C284 H303 0.913 . S
C285 H261 0.950 . S
C285 C284 1.524 . S
C285 C286 1.415 . S
C286 H262 0.950 . S
C286 C281 1.363 . S
C286 C285 1.415 . S
C287 H263 0.951 . S
C287 C288 1.366 . S
C287 C289 1.388 . S
C288 C287 1.366 . S
C288 C292 1.385 . S
C289 H264 0.951 . S
C289 C287 1.388 . S
C289 C290 1.366 . S
C290 C289 1.366 . S
C290 C291 1.414 . S
C290 C293 1.499 . S
C291 H265 0.950 . S
C291 C290 1.414 . S
C291 C292 1.374 . S
C292 H266 0.950 . S
C292 C288 1.385 . S
C292 C291 1.374 . S
C293 C290 1.499 . S
C293 C294 1.373 . S
C293 C295 1.389 1_554 S
C294 H267 0.950 . S
C294 C280 1.377 1_655 S
C294 C293 1.373 . S
C295 C279 1.377 1_655 S
C295 C293 1.389 1_556 S
C295 C296 1.524 . S
C296 C295 1.524 . S
C296 C297 1.397 . S
C296 C301 1.363 . S
C297 H268 0.950 . S
C297 C296 1.397 . S
C297 C298 1.334 . S
C298 H269 0.950 . S
C298 C297 1.334 . S
C298 C299 1.287 . S
C299 C298 1.287 . S
C299 C300 1.524 . S
C299 H302 0.999 . S
C300 H270 0.950 . S
C300 C299 1.524 . S
C300 C301 1.415 . S
C301 H271 0.950 . S
C301 C296 1.363 . S
C301 C300 1.415 . S
H302 C299 0.999 . S
H303 C284 0.913 . S
H304 C322 0.951 . S
H305 C324 0.951 . S
H306 C326 0.950 . S
H307 C327 0.950 . S
H308 C329 0.939 1_556 S
H309 C332 0.950 . S
H310 C333 0.950 . S
H311 C335 0.950 . S
H312 C336 0.950 . S
H313 C337 0.951 . S
H314 C339 0.951 . S
H315 C341 0.950 . S
H316 C342 0.950 . S
H317 C344 0.950 . S
H318 C347 0.950 1_554 S
H319 C348 0.950 . S
H320 C350 0.950 . S
H321 C351 0.950 . S
C322 H304 0.951 . S
C322 C323 1.366 . S
C322 C324 1.388 . S
C323 C322 1.366 . S
C323 C327 1.385 1_554 S
C324 H305 0.951 . S
C324 C322 1.388 . S
C324 C325 1.366 . S
C325 C324 1.366 . S
C325 C326 1.414 1_554 S
C325 C328 1.499 . S
C326 H306 0.950 . S
C326 C325 1.414 1_556 S
C326 C327 1.374 . S
C327 H307 0.950 . S
C327 C323 1.385 1_556 S
C327 C326 1.374 . S
C328 C325 1.499 . S
C328 C329 1.384 . S
C328 C330 1.389 . S
C329 H308 0.939 1_554 S
C329 C328 1.384 . S
C329 C345 1.377 1_545 S
C330 C328 1.389 . S
C330 C331 1.524 . S
C330 C344 1.377 1_545 S
C331 C330 1.524 . S
C331 C332 1.397 . S
C331 C336 1.363 . S
C332 H309 0.950 . S
C332 C331 1.397 . S
C332 C333 1.334 . S
C333 H310 0.950 . S
C333 C332 1.334 . S
C333 C334 1.287 . S
C334 C333 1.287 . S
C334 C335 1.524 . S
C334 H353 0.913 . S
C335 H311 0.950 . S
C335 C334 1.524 . S
C335 C336 1.415 . S
C336 H312 0.950 . S
C336 C331 1.363 . S
C336 C335 1.415 . S
C337 H313 0.951 . S
C337 C338 1.366 1_556 S
C337 C339 1.388 . S
C338 C337 1.366 1_554 S
C338 C342 1.385 . S
C339 H314 0.951 . S
C339 C337 1.388 . S
C339 C340 1.366 1_556 S
C340 C339 1.366 1_554 S
C340 C341 1.414 . S
C340 C343 1.499 . S
C341 H315 0.950 . S
C341 C340 1.414 . S
C341 C342 1.374 . S
C342 H316 0.950 . S
C342 C338 1.385 . S
C342 C341 1.374 . S
C343 C340 1.499 . S
C343 C344 1.373 . S
C343 C345 1.389 . S
C344 H317 0.950 . S
C344 C330 1.377 1_565 S
C344 C343 1.373 . S
C345 C329 1.377 1_565 S
C345 C343 1.389 . S
C345 C346 1.524 1_554 S
C346 C345 1.524 1_556 S
C346 C347 1.397 . S
C346 C351 1.363 . S
C347 H318 0.950 1_556 S
C347 C346 1.397 . S
C347 C348 1.334 . S
C348 H319 0.950 . S
C348 C347 1.334 . S
C348 C349 1.287 . S
C349 C348 1.287 . S
C349 C350 1.524 . S
C349 H352 0.999 . S
C350 H320 0.950 . S
C350 C349 1.524 . S
C350 C351 1.415 . S
C351 H321 0.950 . S
C351 C346 1.363 . S
C351 C350 1.415 . S
H352 C349 0.999 . S
H353 C334 0.913 . S
H354 C372 0.951 . S
H355 C374 0.951 . S
H356 C376 0.950 . S
H357 C377 0.950 . S
H358 C379 0.950 . S
H359 C382 0.950 . S
H360 C383 0.950 . S
H361 C385 0.950 . S
H362 C386 0.950 . S
H363 C387 0.951 . S
H364 C389 0.951 . S
H365 C391 0.950 . S
H366 C392 0.950 . S
H367 C394 0.950 . S
H368 C397 0.950 . S
H369 C398 0.950 . S
H370 C400 0.950 . S
H371 C401 0.950 . S
C372 H354 0.951 . S
C372 C373 1.366 . S
C372 C374 1.388 . S
C373 C372 1.366 . S
C373 C377 1.385 . S
C374 H355 0.951 . S
C374 C372 1.388 . S
C374 C375 1.366 . S
C375 C374 1.366 . S
C375 C376 1.414 . S
C375 C378 1.499 . S
C376 H356 0.950 . S
C376 C375 1.414 . S
C376 C377 1.374 . S
C377 H357 0.950 . S
C377 C373 1.385 . S
C377 C376 1.374 . S
C378 C375 1.499 . S
C378 C379 1.373 . S
C378 C380 1.389 1_554 S
C379 H358 0.950 . S
C379 C378 1.373 . S
C379 C395 1.377 . S
C380 C378 1.389 1_556 S
C380 C381 1.524 . S
C380 C394 1.377 . S
C381 C380 1.524 . S
C381 C382 1.397 . S
C381 C386 1.363 . S
C382 H359 0.950 . S
C382 C381 1.397 . S
C382 C383 1.334 . S
C383 H360 0.950 . S
C383 C382 1.334 . S
C383 C384 1.287 . S
C384 C383 1.287 . S
C384 C385 1.524 . S
C384 H403 0.913 . S
C385 H361 0.950 . S
C385 C384 1.524 . S
C385 C386 1.415 . S
C386 H362 0.950 . S
C386 C381 1.363 . S
C386 C385 1.415 . S
C387 H363 0.951 . S
C387 C388 1.366 . S
C387 C389 1.388 . S
C388 C387 1.366 . S
C388 C392 1.385 . S
C389 H364 0.951 . S
C389 C387 1.388 . S
C389 C390 1.366 . S
C390 C389 1.366 . S
C390 C391 1.414 . S
C390 C393 1.499 . S
C391 H365 0.950 . S
C391 C390 1.414 . S
C391 C392 1.374 . S
C392 H366 0.950 . S
C392 C388 1.385 . S
C392 C391 1.374 . S
C393 C390 1.499 . S
C393 C394 1.373 1_554 S
C393 C395 1.389 . S
C394 H367 0.950 . S
C394 C380 1.377 . S
C394 C393 1.373 1_556 S
C395 C379 1.377 . S
C395 C393 1.389 . S
C395 C396 1.524 . S
C396 C395 1.524 . S
C396 C397 1.397 . S
C396 C401 1.363 . S
C397 H368 0.950 . S
C397 C396 1.397 . S
C397 C398 1.334 . S
C398 H369 0.950 . S
C398 C397 1.334 . S
C398 C399 1.287 . S
C399 C398 1.287 . S
C399 C400 1.524 . S
C399 H402 0.999 . S
C400 H370 0.950 . S
C400 C399 1.524 . S
C400 C401 1.415 . S
C401 H371 0.950 . S
C401 C396 1.363 . S
C401 C400 1.415 . S
H402 C399 0.999 . S
H403 C384 0.913 . S
H404 C422 0.951 . S
H405 C424 0.951 . S
H406 C426 0.950 . S
H407 C427 0.950 . S
H408 C429 0.950 1_556 S
H409 C432 0.950 . S
H410 C433 0.950 . S
H411 C435 0.950 . S
H412 C436 0.950 . S
H413 C437 0.951 . S
H414 C439 0.951 . S
H415 C441 0.950 . S
H416 C442 0.950 . S
H417 C444 0.950 . S
H418 C447 0.950 . S
H419 C448 0.950 . S
H420 C450 0.950 . S
H421 C451 0.950 . S
C422 H404 0.951 . S
C422 C423 1.366 . S
C422 C424 1.388 . S
C423 C422 1.366 . S
C423 C427 1.385 . S
C424 H405 0.951 . S
C424 C422 1.388 . S
C424 C425 1.366 . S
C425 C424 1.366 . S
C425 C426 1.414 . S
C425 C428 1.499 . S
C426 H406 0.950 . S
C426 C425 1.414 . S
C426 C427 1.374 . S
C427 H407 0.950 . S
C427 C423 1.385 . S
C427 C426 1.374 . S
C428 C425 1.499 . S
C428 C429 1.373 . S
C428 C430 1.389 . S
C429 H408 0.950 1_554 S
C429 C428 1.373 . S
C429 C445 1.377 1_455 S
C430 C428 1.389 . S
C430 C431 1.524 . S
C430 C444 1.377 1_455 S
C431 C430 1.524 . S
C431 C432 1.397 . S
C431 C436 1.363 . S
C432 H409 0.950 . S
C432 C431 1.397 . S
C432 C433 1.334 . S
C433 H410 0.950 . S
C433 C432 1.334 . S
C433 C434 1.287 . S
C434 C433 1.287 . S
C434 C435 1.524 . S
C434 H453 0.913 . S
C435 H411 0.950 . S
C435 C434 1.524 . S
C435 C436 1.415 . S
C436 H412 0.950 . S
C436 C431 1.363 . S
C436 C435 1.415 . S
C437 H413 0.951 . S
C437 C438 1.366 . S
C437 C439 1.388 . S
C438 C437 1.366 . S
C438 C442 1.385 . S
C439 H414 0.951 . S
C439 C437 1.388 . S
C439 C440 1.366 . S
C440 C439 1.366 . S
C440 C441 1.414 . S
C440 C443 1.499 . S
C441 H415 0.950 . S
C441 C440 1.414 . S
C441 C442 1.374 . S
C442 H416 0.950 . S
C442 C438 1.385 . S
C442 C441 1.374 . S
C443 C440 1.499 . S
C443 C444 1.373 . S
C443 C445 1.389 . S
C444 H417 0.950 . S
C444 C430 1.377 1_655 S
C444 C443 1.373 . S
C445 C429 1.377 1_655 S
C445 C443 1.389 . S
C445 C446 1.524 1_554 S
C446 C445 1.524 1_556 S
C446 C447 1.397 . S
C446 C451 1.363 . S
C447 H418 0.950 . S
C447 C446 1.397 . S
C447 C448 1.334 . S
C448 H419 0.950 . S
C448 C447 1.334 . S
C448 C449 1.287 . S
C449 C448 1.287 . S
C449 C450 1.524 . S
C449 H452 0.999 . S
C450 H420 0.950 . S
C450 C449 1.524 . S
C450 C451 1.415 . S
C451 H421 0.950 . S
C451 C446 1.363 . S
C451 C450 1.415 . S
H452 C449 0.999 . S
H453 C434 0.913 . S
H454 C472 0.951 1_556 S
H455 C474 0.958 . S
H456 C476 0.950 . S
H457 C477 0.950 . S
H458 C479 0.950 . S
H459 C482 0.950 . S
H460 C483 0.950 . S
H461 C485 0.950 . S
H462 C486 0.950 . S
H463 C487 0.951 . S
H464 C489 0.951 . S
H465 C491 0.950 1_556 S
H466 C492 0.950 1_556 S
H467 C494 0.950 . S
H468 C497 0.950 . S
H469 C498 0.950 . S
H470 C500 0.950 . S
H471 C501 0.950 . S
C472 H454 0.951 1_554 S
C472 C473 1.365 . S
C472 C474 1.387 1_554 S
C473 C472 1.365 . S
C473 C477 1.385 . S
C474 H455 0.958 . S
C474 C472 1.387 1_556 S
C474 C475 1.359 1_556 S
C475 C474 1.359 1_554 S
C475 C476 1.414 . S
C475 C478 1.499 . S
C476 H456 0.950 . S
C476 C475 1.414 . S
C476 C477 1.374 . S
C477 H457 0.950 . S
C477 C473 1.385 . S
C477 C476 1.374 . S
C478 C475 1.499 . S
C478 C479 1.373 . S
C478 C480 1.389 1_554 S
C479 H458 0.950 . S
C479 C478 1.373 . S
C479 C495 1.377 1_565 S
C480 C478 1.389 1_556 S
C480 C481 1.524 . S
C480 C494 1.377 1_565 S
C481 C480 1.524 . S
C481 C482 1.397 . S
C481 C486 1.363 . S
C482 H459 0.950 . S
C482 C481 1.397 . S
C482 C483 1.334 . S
C483 H460 0.950 . S
C483 C482 1.334 . S
C483 C484 1.287 . S
C484 C483 1.287 . S
C484 C485 1.524 . S
C484 H503 0.913 . S
C485 H461 0.950 . S
C485 C484 1.524 . S
C485 C486 1.415 . S
C486 H462 0.950 . S
C486 C481 1.363 . S
C486 C485 1.415 . S
C487 H463 0.951 . S
C487 C488 1.366 . S
C487 C489 1.388 . S
C488 C487 1.366 . S
C488 C492 1.385 . S
C489 H464 0.951 . S
C489 C487 1.388 . S
C489 C490 1.366 . S
C490 C489 1.366 . S
C490 C491 1.414 . S
C490 C493 1.499 . S
C491 H465 0.950 1_554 S
C491 C490 1.414 . S
C491 C492 1.374 . S
C492 H466 0.950 1_554 S
C492 C488 1.385 . S
C492 C491 1.374 . S
C493 C490 1.499 . S
C493 C494 1.373 1_554 S
C493 C495 1.389 . S
C494 H467 0.950 . S
C494 C480 1.377 1_545 S
C494 C493 1.373 1_556 S
C495 C479 1.377 1_545 S
C495 C493 1.389 . S
C495 C496 1.524 . S
C496 C495 1.524 . S
C496 C497 1.397 . S
C496 C501 1.363 . S
C497 H468 0.950 . S
C497 C496 1.397 . S
C497 C498 1.334 . S
C498 H469 0.950 . S
C498 C497 1.334 . S
C498 C499 1.287 . S
C499 C498 1.287 . S
C499 C500 1.524 . S
C499 H502 0.999 . S
C500 H470 0.950 . S
C500 C499 1.524 . S
C500 C501 1.415 . S
C501 H471 0.950 . S
C501 C496 1.363 . S
C501 C500 1.415 . S
H502 C499 0.999 . S
H503 C484 0.913 . S
H504 C522 0.951 . S
H505 C524 0.951 . S
H506 C526 0.950 . S
H507 C527 0.950 . S
H508 C529 0.950 . S
H509 C532 0.950 . S
H510 C533 0.950 . S
H511 C535 0.950 . S
H512 C536 0.950 . S
H513 C537 0.951 . S
H514 C539 0.951 . S
H515 C541 0.950 . S
H516 C542 0.950 . S
H517 C544 0.950 . S
H518 C547 0.950 . S
H519 C548 0.950 . S
H520 C550 0.950 . S
H521 C551 0.950 . S
C522 H504 0.951 . S
C522 C523 1.366 . S
C522 C524 1.388 . S
C523 C522 1.366 . S
C523 C527 1.385 . S
C524 H505 0.951 . S
C524 C522 1.388 . S
C524 C525 1.366 . S
C525 C524 1.366 . S
C525 C526 1.414 . S
C525 C528 1.499 . S
C526 H506 0.950 . S
C526 C525 1.414 . S
C526 C527 1.374 . S
C527 H507 0.950 . S
C527 C523 1.385 . S
C527 C526 1.374 . S
C528 C525 1.499 . S
C528 C529 1.373 1_554 S
C528 C530 1.389 . S
C529 H508 0.950 . S
C529 C528 1.373 1_556 S
C529 C545 1.377 . S
C530 C528 1.389 . S
C530 C531 1.524 . S
C530 C544 1.377 . S
C531 C530 1.524 . S
C531 C532 1.397 . S
C531 C536 1.363 . S
C532 H509 0.950 . S
C532 C531 1.397 . S
C532 C533 1.334 . S
C533 H510 0.950 . S
C533 C532 1.334 . S
C533 C534 1.287 . S
C534 C533 1.287 . S
C534 C535 1.524 . S
C534 H553 0.913 . S
C535 H511 0.950 . S
C535 C534 1.524 . S
C535 C536 1.415 . S
C536 H512 0.950 . S
C536 C531 1.363 . S
C536 C535 1.415 . S
C537 H513 0.951 . S
C537 C538 1.366 . S
C537 C539 1.388 . S
C538 C537 1.366 . S
C538 C542 1.385 . S
C539 H514 0.951 . S
C539 C537 1.388 . S
C539 C540 1.366 . S
C540 C539 1.366 . S
C540 C541 1.414 . S
C540 C543 1.499 . S
C541 H515 0.950 . S
C541 C540 1.414 . S
C541 C542 1.374 . S
C542 H516 0.950 . S
C542 C538 1.385 . S
C542 C541 1.374 . S
C543 C540 1.499 . S
C543 C544 1.373 . S
C543 C545 1.389 1_554 S
C544 H517 0.950 . S
C544 C530 1.377 . S
C544 C543 1.373 . S
C545 C529 1.377 . S
C545 C543 1.389 1_556 S
C545 C546 1.524 . S
C546 C545 1.524 . S
C546 C547 1.397 . S
C546 C551 1.363 . S
C547 H518 0.950 . S
C547 C546 1.397 . S
C547 C548 1.334 . S
C548 H519 0.950 . S
C548 C547 1.334 . S
C548 C549 1.287 . S
C549 C548 1.287 . S
C549 C550 1.524 . S
C549 H552 0.999 . S
C550 H520 0.950 . S
C550 C549 1.524 . S
C550 C551 1.415 . S
C551 H521 0.950 . S
C551 C546 1.363 . S
C551 C550 1.415 . S
H552 C549 0.999 . S
H553 C534 0.913 . S
H554 C572 0.951 . S
H555 C574 0.951 . S
H556 C576 0.950 . S
H557 C577 0.950 . S
H558 C579 0.950 . S
H559 C582 0.950 . S
H560 C583 0.950 . S
H561 C585 0.950 . S
H562 C586 0.950 . S
H563 C587 0.951 . S
H564 C589 0.951 . S
H565 C591 0.950 . S
H566 C592 0.950 . S
H567 C594 0.950 . S
H568 C597 0.950 1_556 S
H569 C598 0.950 1_556 S
H570 C600 0.950 . S
H571 C601 0.950 . S
C572 H554 0.951 . S
C572 C573 1.366 1_556 S
C572 C574 1.388 . S
C573 C572 1.366 1_554 S
C573 C577 1.385 . S
C574 H555 0.951 . S
C574 C572 1.388 . S
C574 C575 1.366 1_556 S
C575 C574 1.366 1_554 S
C575 C576 1.414 . S
C575 C578 1.499 . S
C576 H556 0.950 . S
C576 C575 1.414 . S
C576 C577 1.374 . S
C577 H557 0.950 . S
C577 C573 1.385 . S
C577 C576 1.374 . S
C578 C575 1.499 . S
C578 C579 1.373 . S
C578 C580 1.389 . S
C579 H558 0.950 . S
C579 C578 1.373 . S
C579 C595 1.377 . S
C580 C578 1.389 . S
C580 C581 1.524 . S
C580 C594 1.377 . S
C581 C580 1.524 . S
C581 C582 1.397 . S
C581 C586 1.363 1_554 S
C582 H559 0.950 . S
C582 C581 1.397 . S
C582 C583 1.334 . S
C583 H560 0.950 . S
C583 C582 1.334 . S
C583 C584 1.287 . S
C584 C583 1.287 . S
C584 C585 1.524 1_554 S
C584 H603 0.913 . S
C585 H561 0.950 . S
C585 C584 1.524 1_556 S
C585 C586 1.415 . S
C586 H562 0.950 . S
C586 C581 1.363 1_556 S
C586 C585 1.415 . S
C587 H563 0.951 . S
C587 C588 1.366 . S
C587 C589 1.388 . S
C588 C587 1.366 . S
C588 C592 1.385 1_554 S
C589 H564 0.951 . S
C589 C587 1.388 . S
C589 C590 1.366 . S
C590 C589 1.366 . S
C590 C591 1.414 1_554 S
C590 C593 1.499 . S
C591 H565 0.950 . S
C591 C590 1.414 1_556 S
C591 C592 1.374 . S
C592 H566 0.950 . S
C592 C588 1.385 1_556 S
C592 C591 1.374 . S
C593 C590 1.499 . S
C593 C594 1.373 . S
C593 C595 1.389 . S
C594 H567 0.950 . S
C594 C580 1.377 . S
C594 C593 1.373 . S
C595 C579 1.377 . S
C595 C593 1.389 . S
C595 C596 1.524 . S
C596 C595 1.524 . S
C596 C597 1.397 . S
C596 C601 1.363 . S
C597 H568 0.950 1_554 S
C597 C596 1.397 . S
C597 C598 1.334 . S
C598 H569 0.950 1_554 S
C598 C597 1.334 . S
C598 C599 1.287 . S
C599 C598 1.287 . S
C599 C600 1.524 . S
C599 H602 0.999 . S
C600 H570 0.950 . S
C600 C599 1.524 . S
C600 C601 1.415 . S
C601 H571 0.950 . S
C601 C596 1.363 . S
C601 C600 1.415 . S
H602 C599 0.999 . S
H603 C584 0.913 . S
H604 C622 0.951 . S
H605 C624 0.951 . S
H606 C626 0.950 . S
H607 C627 0.950 . S
H608 C629 0.950 . S
H609 C632 0.950 1_556 S
H610 C633 0.950 1_556 S
H611 C635 0.950 . S
H612 C636 0.950 . S
H613 C637 0.951 . S
H614 C639 0.951 . S
H615 C641 0.950 . S
H616 C642 0.950 . S
H617 C644 0.950 . S
H618 C647 0.950 . S
H619 C648 0.950 . S
H620 C650 0.950 . S
H621 C651 0.950 . S
C622 H604 0.951 . S
C622 C623 1.366 . S
C622 C624 1.388 . S
C623 C622 1.366 . S
C623 C627 1.385 1_554 S
C624 H605 0.951 . S
C624 C622 1.388 . S
C624 C625 1.366 . S
C625 C624 1.366 . S
C625 C626 1.414 1_554 S
C625 C628 1.499 . S
C626 H606 0.950 . S
C626 C625 1.414 1_556 S
C626 C627 1.374 . S
C627 H607 0.950 . S
C627 C623 1.385 1_556 S
C627 C626 1.374 . S
C628 C625 1.499 . S
C628 C629 1.373 . S
C628 C630 1.389 . S
C629 H608 0.950 . S
C629 C628 1.373 . S
C629 C645 1.377 . S
C630 C628 1.389 . S
C630 C631 1.524 . S
C630 C644 1.377 . S
C631 C630 1.524 . S
C631 C632 1.397 . S
C631 C636 1.363 . S
C632 H609 0.950 1_554 S
C632 C631 1.397 . S
C632 C633 1.334 . S
C633 H610 0.950 1_554 S
C633 C632 1.334 . S
C633 C634 1.287 . S
C634 C633 1.287 . S
C634 C635 1.524 . S
C634 H653 0.913 . S
C635 H611 0.950 . S
C635 C634 1.524 . S
C635 C636 1.415 . S
C636 H612 0.950 . S
C636 C631 1.363 . S
C636 C635 1.415 . S
C637 H613 0.951 . S
C637 C638 1.366 1_556 S
C637 C639 1.388 . S
C638 C637 1.366 1_554 S
C638 C642 1.385 . S
C639 H614 0.951 . S
C639 C637 1.388 . S
C639 C640 1.366 1_556 S
C640 C639 1.366 1_554 S
C640 C641 1.414 . S
C640 C643 1.499 . S
C641 H615 0.950 . S
C641 C640 1.414 . S
C641 C642 1.374 . S
C642 H616 0.950 . S
C642 C638 1.385 . S
C642 C641 1.374 . S
C643 C640 1.499 . S
C643 C644 1.373 . S
C643 C645 1.389 . S
C644 H617 0.950 . S
C644 C630 1.377 . S
C644 C643 1.373 . S
C645 C629 1.377 . S
C645 C643 1.389 . S
C645 C646 1.524 . S
C646 C645 1.524 . S
C646 C647 1.397 . S
C646 C651 1.363 1_554 S
C647 H618 0.950 . S
C647 C646 1.397 . S
C647 C648 1.334 . S
C648 H619 0.950 . S
C648 C647 1.334 . S
C648 C649 1.287 . S
C649 C648 1.287 . S
C649 C650 1.524 1_554 S
C649 H652 0.999 1_554 S
C650 H620 0.950 . S
C650 C649 1.524 1_556 S
C650 C651 1.415 . S
C651 H621 0.950 . S
C651 C646 1.363 1_556 S
C651 C650 1.415 . S
H652 C649 0.999 1_556 S
H653 C634 0.913 . S
H654 C672 0.951 . S
H655 C674 0.951 . S
H656 C676 0.950 1_556 S
H657 C677 0.950 1_556 S
H658 C679 0.950 . S
H659 C682 0.950 1_556 S
H660 C683 0.950 . S
H661 C685 0.950 . S
H662 C686 0.950 . S
H663 C687 0.951 1_556 S
H664 C689 0.951 1_556 S
H665 C691 0.950 . S
H666 C692 0.950 . S
H667 C694 0.950 . S
H668 C697 0.950 . S
H669 C698 0.950 . S
H670 C700 0.950 1_556 S
H671 C701 0.950 1_556 S
C672 H654 0.951 . S
C672 C673 1.366 . S
C672 C674 1.388 . S
C673 C672 1.366 . S
C673 C677 1.385 . S
C674 H655 0.951 . S
C674 C672 1.388 . S
C674 C675 1.366 . S
C675 C674 1.366 . S
C675 C676 1.414 . S
C675 C678 1.499 . S
C676 H656 0.950 1_554 S
C676 C675 1.414 . S
C676 C677 1.374 . S
C677 H657 0.950 1_554 S
C677 C673 1.385 . S
C677 C676 1.374 . S
C678 C675 1.499 . S
C678 C679 1.373 . S
C678 C680 1.389 . S
C679 H658 0.950 . S
C679 C678 1.373 . S
C679 C695 1.377 . S
C680 C678 1.389 . S
C680 C681 1.524 . S
C680 C694 1.377 . S
C681 C680 1.524 . S
C681 C682 1.397 . S
C681 C686 1.363 . S
C682 H659 0.950 1_554 S
C682 C681 1.397 . S
C682 C683 1.334 1_554 S
C683 H660 0.950 . S
C683 C682 1.334 1_556 S
C683 C684 1.287 1_556 S
C684 C683 1.287 1_554 S
C684 C685 1.524 . S
C684 H703 0.913 . S
C685 H661 0.950 . S
C685 C684 1.524 . S
C685 C686 1.415 . S
C686 H662 0.950 . S
C686 C681 1.363 . S
C686 C685 1.415 . S
C687 H663 0.951 1_554 S
C687 C688 1.366 . S
C687 C689 1.388 . S
C688 C687 1.366 . S
C688 C692 1.385 . S
C689 H664 0.951 1_554 S
C689 C687 1.388 . S
C689 C690 1.366 . S
C690 C689 1.366 . S
C690 C691 1.414 . S
C690 C693 1.499 . S
C691 H665 0.950 . S
C691 C690 1.414 . S
C691 C692 1.374 . S
C692 H666 0.950 . S
C692 C688 1.385 . S
C692 C691 1.374 . S
C693 C690 1.499 . S
C693 C694 1.373 . S
C693 C695 1.389 . S
C694 H667 0.950 . S
C694 C680 1.377 . S
C694 C693 1.373 . S
C695 C679 1.377 . S
C695 C693 1.389 . S
C695 C696 1.524 . S
C696 C695 1.524 . S
C696 C697 1.397 . S
C696 C701 1.363 . S
C697 H668 0.950 . S
C697 C696 1.397 . S
C697 C698 1.334 . S
C698 H669 0.950 . S
C698 C697 1.334 . S
C698 C699 1.287 . S
C699 C698 1.287 . S
C699 C700 1.524 . S
C699 H702 0.999 . S
C700 H670 0.950 1_554 S
C700 C699 1.524 . S
C700 C701 1.415 . S
C701 H671 0.950 1_554 S
C701 C696 1.363 . S
C701 C700 1.415 . S
H702 C699 0.999 . S
H703 C684 0.913 . S
H704 C722 0.951 . S
H705 C724 0.951 . S
H706 C726 0.950 . S
H707 C727 0.950 . S
H708 C729 0.950 . S
H709 C732 0.950 . S
H710 C733 0.950 . S
H711 C735 0.950 . S
H712 C736 0.950 . S
H713 C737 0.951 . S
H714 C739 0.951 . S
H715 C741 0.950 . S
H716 C742 0.950 . S
H717 C744 0.950 1_556 S
H718 C747 0.937 1_556 S
H719 C748 0.950 1_556 S
H720 C750 0.950 . S
H721 C751 0.950 . S
C722 H704 0.951 . S
C722 C723 1.366 1_556 S
C722 C724 1.388 . S
C723 C722 1.366 1_554 S
C723 C727 1.385 . S
C724 H705 0.951 . S
C724 C722 1.388 . S
C724 C725 1.366 1_556 S
C725 C724 1.366 1_554 S
C725 C726 1.414 . S
C725 C728 1.499 . S
C726 H706 0.950 . S
C726 C725 1.414 . S
C726 C727 1.374 . S
C727 H707 0.950 . S
C727 C723 1.385 . S
C727 C726 1.374 . S
C728 C725 1.499 . S
C728 C729 1.373 . S
C728 C730 1.389 . S
C729 H708 0.950 . S
C729 C728 1.373 . S
C729 C745 1.377 . S
C730 C728 1.389 . S
C730 C731 1.524 1_554 S
C730 C744 1.377 . S
C731 C730 1.524 1_556 S
C731 C732 1.397 1_556 S
C731 C736 1.363 . S
C732 H709 0.950 . S
C732 C731 1.397 1_554 S
C732 C733 1.334 . S
C733 H710 0.950 . S
C733 C732 1.334 . S
C733 C734 1.287 1_554 S
C734 C733 1.287 1_556 S
C734 C735 1.524 . S
C734 H753 0.913 . S
C735 H711 0.950 . S
C735 C734 1.524 . S
C735 C736 1.415 . S
C736 H712 0.950 . S
C736 C731 1.363 . S
C736 C735 1.415 . S
C737 H713 0.951 . S
C737 C738 1.366 . S
C737 C739 1.388 . S
C738 C737 1.366 . S
C738 C742 1.385 1_554 S
C739 H714 0.951 . S
C739 C737 1.388 . S
C739 C740 1.366 . S
C740 C739 1.366 . S
C740 C741 1.414 1_554 S
C740 C743 1.499 . S
C741 H715 0.950 . S
C741 C740 1.414 1_556 S
C741 C742 1.374 . S
C742 H716 0.950 . S
C742 C738 1.385 1_556 S
C742 C741 1.374 . S
C743 C740 1.499 . S
C743 C744 1.373 . S
C743 C745 1.389 . S
C744 H717 0.950 1_554 S
C744 C730 1.377 . S
C744 C743 1.373 . S
C745 C729 1.377 . S
C745 C743 1.389 . S
C745 C746 1.524 . S
C746 C745 1.524 . S
C746 C747 1.408 . S
C746 C751 1.363 . S
C747 H718 0.937 1_554 S
C747 C746 1.408 . S
C747 C748 1.335 . S
C748 H719 0.950 1_554 S
C748 C747 1.335 . S
C748 C749 1.287 . S
C749 C748 1.287 . S
C749 C750 1.524 . S
C749 H752 0.999 . S
C750 H720 0.950 . S
C750 C749 1.524 . S
C750 C751 1.415 . S
C751 H721 0.950 . S
C751 C746 1.363 . S
C751 C750 1.415 . S
H752 C749 0.999 . S
H753 C734 0.913 . S
H754 C772 0.951 . S
H755 C774 0.951 . S
H756 C776 0.950 . S
H757 C777 0.950 . S
H758 C779 0.950 1_556 S
H759 C782 0.950 . S
H760 C783 0.950 . S
H761 C785 0.950 . S
H762 C786 0.950 . S
H763 C787 0.951 . S
H764 C789 0.951 . S
H765 C791 0.950 . S
H766 C792 0.950 . S
H767 C794 0.950 . S
H768 C797 0.950 . S
H769 C798 0.950 . S
H770 C800 0.950 . S
H771 C801 0.950 . S
C772 H754 0.951 . S
C772 C773 1.366 . S
C772 C774 1.388 . S
C773 C772 1.366 . S
C773 C777 1.385 . S
C774 H755 0.951 . S
C774 C772 1.388 . S
C774 C775 1.366 . S
C775 C774 1.366 . S
C775 C776 1.414 . S
C775 C778 1.499 . S
C776 H756 0.950 . S
C776 C775 1.414 . S
C776 C777 1.374 . S
C777 H757 0.950 . S
C777 C773 1.385 . S
C777 C776 1.374 . S
C778 C775 1.499 . S
C778 C779 1.373 . S
C778 C780 1.389 . S
C779 H758 0.950 1_554 S
C779 C778 1.373 . S
C779 C795 1.377 . S
C780 C778 1.389 . S
C780 C781 1.524 . S
C780 C794 1.377 . S
C781 C780 1.524 . S
C781 C782 1.397 . S
C781 C786 1.363 . S
C782 H759 0.950 . S
C782 C781 1.397 . S
C782 C783 1.334 . S
C783 H760 0.950 . S
C783 C782 1.334 . S
C783 C784 1.287 . S
C784 C783 1.287 . S
C784 C785 1.524 . S
C784 H803 0.913 . S
C785 H761 0.950 . S
C785 C784 1.524 . S
C785 C786 1.415 . S
C786 H762 0.950 . S
C786 C781 1.363 . S
C786 C785 1.415 . S
C787 H763 0.951 . S
C787 C788 1.366 . S
C787 C789 1.388 . S
C788 C787 1.366 . S
C788 C792 1.385 . S
C789 H764 0.951 . S
C789 C787 1.388 . S
C789 C790 1.366 . S
C790 C789 1.366 . S
C790 C791 1.414 . S
C790 C793 1.499 . S
C791 H765 0.950 . S
C791 C790 1.414 . S
C791 C792 1.374 . S
C792 H766 0.950 . S
C792 C788 1.385 . S
C792 C791 1.374 . S
C793 C790 1.499 . S
C793 C794 1.373 . S
C793 C795 1.389 . S
C794 H767 0.950 . S
C794 C780 1.377 . S
C794 C793 1.373 . S
C795 C779 1.377 . S
C795 C793 1.389 . S
C795 C796 1.524 1_554 S
C796 C795 1.524 1_556 S
C796 C797 1.397 . S
C796 C801 1.363 . S
C797 H768 0.950 . S
C797 C796 1.397 . S
C797 C798 1.334 . S
C798 H769 0.950 . S
C798 C797 1.334 . S
C798 C799 1.287 . S
C799 C798 1.287 . S
C799 C800 1.524 . S
C799 H802 0.999 . S
C800 H770 0.950 . S
C800 C799 1.524 . S
C800 C801 1.415 . S
C801 H771 0.950 . S
C801 C796 1.363 . S
C801 C800 1.415 . S
H802 C799 0.999 . S
H803 C784 0.913 . S
H804 C822 0.951 . S
H805 C824 0.951 . S
H806 C826 0.950 . S
H807 C827 0.950 . S
H808 C829 0.950 . S
H809 C832 0.950 . S
H810 C833 0.950 . S
H811 C835 0.950 . S
H812 C836 0.950 . S
H813 C837 0.951 . S
H814 C839 0.951 . S
H815 C841 0.950 . S
H816 C842 0.950 . S
H817 C844 0.950 . S
H818 C847 0.950 . S
H819 C848 0.950 . S
H820 C850 0.950 . S
H821 C851 0.950 . S
C822 H804 0.951 . S
C822 C823 1.366 . S
C822 C824 1.388 . S
C823 C822 1.366 . S
C823 C827 1.385 . S
C824 H805 0.951 . S
C824 C822 1.388 . S
C824 C825 1.366 . S
C825 C824 1.366 . S
C825 C826 1.414 . S
C825 C828 1.499 . S
C826 H806 0.950 . S
C826 C825 1.414 . S
C826 C827 1.374 . S
C827 H807 0.950 . S
C827 C823 1.385 . S
C827 C826 1.374 . S
C828 C825 1.499 . S
C828 C829 1.373 . S
C828 C830 1.389 . S
C829 H808 0.950 . S
C829 C828 1.373 . S
C829 C845 1.377 . S
C830 C828 1.389 . S
C830 C831 1.524 . S
C830 C844 1.377 . S
C831 C830 1.524 . S
C831 C832 1.397 . S
C831 C836 1.363 . S
C832 H809 0.950 . S
C832 C831 1.397 . S
C832 C833 1.334 . S
C833 H810 0.950 . S
C833 C832 1.334 . S
C833 C834 1.287 . S
C834 C833 1.287 . S
C834 C835 1.524 . S
C834 H853 0.913 . S
C835 H811 0.950 . S
C835 C834 1.524 . S
C835 C836 1.415 . S
C836 H812 0.950 . S
C836 C831 1.363 . S
C836 C835 1.415 . S
C837 H813 0.951 . S
C837 C838 1.366 . S
C837 C839 1.388 . S
C838 C837 1.366 . S
C838 C842 1.385 . S
C839 H814 0.951 . S
C839 C837 1.388 . S
C839 C840 1.366 . S
C840 C839 1.366 . S
C840 C841 1.414 . S
C840 C843 1.499 . S
C841 H815 0.950 . S
C841 C840 1.414 . S
C841 C842 1.374 . S
C842 H816 0.950 . S
C842 C838 1.385 . S
C842 C841 1.374 . S
C843 C840 1.499 . S
C843 C844 1.373 . S
C843 C845 1.389 . S
C844 H817 0.950 . S
C844 C830 1.377 . S
C844 C843 1.373 . S
C845 C829 1.377 . S
C845 C843 1.389 . S
C845 C846 1.524 . S
C846 C845 1.524 . S
C846 C847 1.397 . S
C846 C851 1.363 . S
C847 H818 0.950 . S
C847 C846 1.397 . S
C847 C848 1.334 . S
C848 H819 0.950 . S
C848 C847 1.334 . S
C848 C849 1.287 . S
C849 C848 1.287 . S
C849 C850 1.524 . S
C849 H852 0.999 . S
C850 H820 0.950 . S
C850 C849 1.524 . S
C850 C851 1.415 . S
C851 H821 0.950 . S
C851 C846 1.363 . S
C851 C850 1.415 . S
H852 C849 0.999 . S
H853 C834 0.913 . S
H854 C872 0.951 . S
H855 C874 0.951 . S
H856 C876 0.950 . S
H857 C877 0.950 . S
H858 C879 0.950 . S
H859 C882 0.950 . S
H860 C883 0.950 . S
H861 C885 0.950 . S
H862 C886 0.950 . S
H863 C887 0.951 . S
H864 C889 0.951 . S
H865 C891 0.950 . S
H866 C892 0.950 . S
H867 C894 0.950 . S
H868 C897 0.950 . S
H869 C898 0.950 . S
H870 C900 0.950 . S
H871 C901 0.950 . S
C872 H854 0.951 . S
C872 C873 1.366 . S
C872 C874 1.388 . S
C873 C872 1.366 . S
C873 C877 1.385 . S
C874 H855 0.951 . S
C874 C872 1.388 . S
C874 C875 1.366 . S
C875 C874 1.366 . S
C875 C876 1.414 . S
C875 C878 1.499 . S
C876 H856 0.950 . S
C876 C875 1.414 . S
C876 C877 1.374 . S
C877 H857 0.950 . S
C877 C873 1.385 . S
C877 C876 1.374 . S
C878 C875 1.499 . S
C878 C879 1.373 . S
C878 C880 1.389 . S
C879 H858 0.950 . S
C879 C878 1.373 . S
C879 C895 1.377 . S
C880 C878 1.389 . S
C880 C881 1.524 . S
C880 C894 1.377 . S
C881 C880 1.524 . S
C881 C882 1.397 . S
C881 C886 1.363 . S
C882 H859 0.950 . S
C882 C881 1.397 . S
C882 C883 1.334 . S
C883 H860 0.950 . S
C883 C882 1.334 . S
C883 C884 1.287 . S
C884 C883 1.287 . S
C884 C885 1.524 . S
C884 H903 0.913 . S
C885 H861 0.950 . S
C885 C884 1.524 . S
C885 C886 1.415 . S
C886 H862 0.950 . S
C886 C881 1.363 . S
C886 C885 1.415 . S
C887 H863 0.951 . S
C887 C888 1.366 . S
C887 C889 1.388 . S
C888 C887 1.366 . S
C888 C892 1.385 . S
C889 H864 0.951 . S
C889 C887 1.388 . S
C889 C890 1.366 . S
C890 C889 1.366 . S
C890 C891 1.414 . S
C890 C893 1.499 . S
C891 H865 0.950 . S
C891 C890 1.414 . S
C891 C892 1.374 . S
C892 H866 0.950 . S
C892 C888 1.385 . S
C892 C891 1.374 . S
C893 C890 1.499 . S
C893 C894 1.373 . S
C893 C895 1.389 . S
C894 H867 0.950 . S
C894 C880 1.377 . S
C894 C893 1.373 . S
C895 C879 1.377 . S
C895 C893 1.389 . S
C895 C896 1.524 . S
C896 C895 1.524 . S
C896 C897 1.397 . S
C896 C901 1.363 . S
C897 H868 0.950 . S
C897 C896 1.397 . S
C897 C898 1.334 . S
C898 H869 0.950 . S
C898 C897 1.334 . S
C898 C899 1.287 . S
C899 C898 1.287 . S
C899 C900 1.524 . S
C899 H902 0.999 . S
C900 H870 0.950 . S
C900 C899 1.524 . S
C900 C901 1.415 . S
C901 H871 0.950 . S
C901 C896 1.363 . S
C901 C900 1.415 . S
H902 C899 0.999 . S
H903 C884 0.913 . S
H904 C922 0.951 . S
H905 C924 0.951 . S
H906 C926 0.950 . S
H907 C927 0.950 . S
H908 C929 0.950 . S
H909 C932 0.950 . S
H910 C933 0.950 . S
H911 C935 0.950 . S
H912 C936 0.950 . S
H913 C937 0.951 . S
H914 C939 0.951 . S
H915 C941 0.950 . S
H916 C942 0.950 . S
H917 C944 0.950 . S
H918 C947 0.950 . S
H919 C948 0.950 . S
H920 C950 0.950 . S
H921 C951 0.950 . S
C922 H904 0.951 . S
C922 C923 1.366 . S
C922 C924 1.388 . S
C923 C922 1.366 . S
C923 C927 1.385 . S
C924 H905 0.951 . S
C924 C922 1.388 . S
C924 C925 1.366 . S
C925 C924 1.366 . S
C925 C926 1.414 . S
C925 C928 1.499 . S
C926 H906 0.950 . S
C926 C925 1.414 . S
C926 C927 1.374 . S
C927 H907 0.950 . S
C927 C923 1.385 . S
C927 C926 1.374 . S
C928 C925 1.499 . S
C928 C929 1.373 . S
C928 C930 1.389 . S
C929 H908 0.950 . S
C929 C928 1.373 . S
C929 C945 1.377 . S
C930 C928 1.389 . S
C930 C931 1.524 . S
C930 C944 1.377 . S
C931 C930 1.524 . S
C931 C932 1.397 . S
C931 C936 1.363 . S
C932 H909 0.950 . S
C932 C931 1.397 . S
C932 C933 1.334 . S
C933 H910 0.950 . S
C933 C932 1.334 . S
C933 C934 1.287 . S
C934 C933 1.287 . S
C934 C935 1.524 . S
C934 H953 0.913 . S
C935 H911 0.950 . S
C935 C934 1.524 . S
C935 C936 1.415 . S
C936 H912 0.950 . S
C936 C931 1.363 . S
C936 C935 1.415 . S
C937 H913 0.951 . S
C937 C938 1.366 . S
C937 C939 1.388 . S
C938 C937 1.366 . S
C938 C942 1.385 . S
C939 H914 0.951 . S
C939 C937 1.388 . S
C939 C940 1.366 . S
C940 C939 1.366 . S
C940 C941 1.414 . S
C940 C943 1.499 . S
C941 H915 0.950 . S
C941 C940 1.414 . S
C941 C942 1.374 . S
C942 H916 0.950 . S
C942 C938 1.385 . S
C942 C941 1.374 . S
C943 C940 1.499 . S
C943 C944 1.373 . S
C943 C945 1.389 . S
C944 H917 0.950 . S
C944 C930 1.377 . S
C944 C943 1.373 . S
C945 C929 1.377 . S
C945 C943 1.389 . S
C945 C946 1.524 . S
C946 C945 1.524 . S
C946 C947 1.397 . S
C946 C951 1.363 . S
C947 H918 0.950 . S
C947 C946 1.397 . S
C947 C948 1.334 . S
C948 H919 0.950 . S
C948 C947 1.334 . S
C948 C949 1.287 . S
C949 C948 1.287 . S
C949 C950 1.524 . S
C949 H952 0.999 . S
C950 H920 0.950 . S
C950 C949 1.524 . S
C950 C951 1.415 . S
C951 H921 0.950 . S
C951 C946 1.363 . S
C951 C950 1.415 . S
H952 C949 0.999 . S
H953 C934 0.913 . S
H954 C972 0.951 . S
H955 C974 0.951 . S
H956 C976 0.950 . S
H957 C977 0.950 . S
H958 C979 0.950 . S
H959 C982 0.950 . S
H960 C983 0.950 . S
H961 C985 0.950 . S
H962 C986 0.950 . S
H963 C987 0.951 . S
H964 C989 0.951 . S
H965 C991 0.950 . S
H966 C992 0.950 . S
H967 C994 0.950 . S
H968 C997 0.950 . S
H969 C998 0.950 . S
H970 C1000 0.950 . S
H971 C1001 0.950 . S
C972 H954 0.951 . S
C972 C973 1.366 . S
C972 C974 1.388 . S
C973 C972 1.366 . S
C973 C977 1.385 . S
C974 H955 0.951 . S
C974 C972 1.388 . S
C974 C975 1.366 . S
C975 C974 1.366 . S
C975 C976 1.414 . S
C975 C978 1.499 . S
C976 H956 0.950 . S
C976 C975 1.414 . S
C976 C977 1.374 . S
C977 H957 0.950 . S
C977 C973 1.385 . S
C977 C976 1.374 . S
C978 C975 1.499 . S
C978 C979 1.373 . S
C978 C980 1.389 . S
C979 H958 0.950 . S
C979 C978 1.373 . S
C979 C995 1.377 . S
C980 C978 1.389 . S
C980 C981 1.524 . S
C980 C994 1.377 . S
C981 C980 1.524 . S
C981 C982 1.397 . S
C981 C986 1.363 . S
C982 H959 0.950 . S
C982 C981 1.397 . S
C982 C983 1.334 . S
C983 H960 0.950 . S
C983 C982 1.334 . S
C983 C984 1.287 . S
C984 C983 1.287 . S
C984 C985 1.524 . S
C984 H1003 0.913 . S
C985 H961 0.950 . S
C985 C984 1.524 . S
C985 C986 1.415 . S
C986 H962 0.950 . S
C986 C981 1.363 . S
C986 C985 1.415 . S
C987 H963 0.951 . S
C987 C988 1.366 . S
C987 C989 1.388 . S
C988 C987 1.366 . S
C988 C992 1.385 . S
C989 H964 0.951 . S
C989 C987 1.388 . S
C989 C990 1.366 . S
C990 C989 1.366 . S
C990 C991 1.414 . S
C990 C993 1.499 . S
C991 H965 0.950 . S
C991 C990 1.414 . S
C991 C992 1.374 . S
C992 H966 0.950 . S
C992 C988 1.385 . S
C992 C991 1.374 . S
C993 C990 1.499 . S
C993 C994 1.373 . S
C993 C995 1.389 . S
C994 H967 0.950 . S
C994 C980 1.377 . S
C994 C993 1.373 . S
C995 C979 1.377 . S
C995 C993 1.389 . S
C995 C996 1.524 . S
C996 C995 1.524 . S
C996 C997 1.397 . S
C996 C1001 1.363 . S
C997 H968 0.950 . S
C997 C996 1.397 . S
C997 C998 1.334 . S
C998 H969 0.950 . S
C998 C997 1.334 . S
C998 C999 1.287 . S
C999 C998 1.287 . S
C999 C1000 1.524 . S
C999 H1002 0.999 . S
C1000 H970 0.950 . S
C1000 C999 1.524 . S
C1000 C1001 1.415 . S
C1001 H971 0.950 . S
C1001 C996 1.363 . S
C1001 C1000 1.415 . S
H1002 C999 0.999 . S
H1003 C984 0.913 . S
H1004 C1022 0.951 . S
H1005 C1024 0.951 . S
H1006 C1026 0.950 . S
H1007 C1027 0.950 . S
H1008 C1029 0.950 . S
H1009 C1032 0.950 . S
H1010 C1033 0.950 . S
H1011 C1035 0.950 . S
H1012 C1036 0.950 . S
H1013 C1037 0.951 . S
H1014 C1039 0.951 . S
H1015 C1041 0.950 . S
H1016 C1042 0.950 . S
H1017 C1044 0.950 . S
H1018 C1047 0.950 . S
H1019 C1048 0.950 . S
H1020 C1050 0.950 . S
H1021 C1051 0.950 . S
C1022 H1004 0.951 . S
C1022 C1023 1.366 . S
C1022 C1024 1.388 . S
C1023 C1022 1.366 . S
C1023 C1027 1.385 . S
C1024 H1005 0.951 . S
C1024 C1022 1.388 . S
C1024 C1025 1.366 . S
C1025 C1024 1.366 . S
C1025 C1026 1.414 . S
C1025 C1028 1.499 . S
C1026 H1006 0.950 . S
C1026 C1025 1.414 . S
C1026 C1027 1.374 . S
C1027 H1007 0.950 . S
C1027 C1023 1.385 . S
C1027 C1026 1.374 . S
C1028 C1025 1.499 . S
C1028 C1029 1.373 . S
C1028 C1030 1.389 . S
C1029 H1008 0.950 . S
C1029 C1028 1.373 . S
C1029 C1045 1.377 . S
C1030 C1028 1.389 . S
C1030 C1031 1.524 . S
C1030 C1044 1.377 . S
C1031 C1030 1.524 . S
C1031 C1032 1.397 . S
C1031 C1036 1.363 . S
C1032 H1009 0.950 . S
C1032 C1031 1.397 . S
C1032 C1033 1.334 . S
C1033 H1010 0.950 . S
C1033 C1032 1.334 . S
C1033 C1034 1.287 . S
C1034 C1033 1.287 . S
C1034 C1035 1.524 . S
C1034 H1053 0.913 . S
C1035 H1011 0.950 . S
C1035 C1034 1.524 . S
C1035 C1036 1.415 . S
C1036 H1012 0.950 . S
C1036 C1031 1.363 . S
C1036 C1035 1.415 . S
C1037 H1013 0.951 . S
C1037 C1038 1.366 . S
C1037 C1039 1.388 . S
C1038 C1037 1.366 . S
C1038 C1042 1.385 . S
C1039 H1014 0.951 . S
C1039 C1037 1.388 . S
C1039 C1040 1.366 . S
C1040 C1039 1.366 . S
C1040 C1041 1.414 . S
C1040 C1043 1.499 . S
C1041 H1015 0.950 . S
C1041 C1040 1.414 . S
C1041 C1042 1.374 . S
C1042 H1016 0.950 . S
C1042 C1038 1.385 . S
C1042 C1041 1.374 . S
C1043 C1040 1.499 . S
C1043 C1044 1.373 . S
C1043 C1045 1.389 . S
C1044 H1017 0.950 . S
C1044 C1030 1.377 . S
C1044 C1043 1.373 . S
C1045 C1029 1.377 . S
C1045 C1043 1.389 . S
C1045 C1046 1.524 . S
C1046 C1045 1.524 . S
C1046 C1047 1.397 . S
C1046 C1051 1.363 . S
C1047 H1018 0.950 . S
C1047 C1046 1.397 . S
C1047 C1048 1.334 . S
C1048 H1019 0.950 . S
C1048 C1047 1.334 . S
C1048 C1049 1.287 . S
C1049 C1048 1.287 . S
C1049 C1050 1.524 . S
C1049 H1052 0.999 . S
C1050 H1020 0.950 . S
C1050 C1049 1.524 . S
C1050 C1051 1.415 . S
C1051 H1021 0.950 . S
C1051 C1046 1.363 . S
C1051 C1050 1.415 . S
H1052 C1049 0.999 . S
H1053 C1034 0.913 . S
H1054 C1072 0.951 . S
H1055 C1074 0.951 . S
H1056 C1076 0.950 . S
H1057 C1077 0.950 . S
H1058 C1079 0.950 . S
H1059 C1082 0.950 . S
H1060 C1083 0.950 . S
H1061 C1085 0.950 . S
H1062 C1086 0.950 . S
H1063 C1087 0.951 . S
H1064 C1089 0.951 . S
H1065 C1091 0.950 . S
H1066 C1092 0.950 . S
H1067 C1094 0.950 . S
H1068 C1097 0.950 . S
H1069 C1098 0.950 . S
H1070 C1100 0.950 . S
H1071 C1101 0.950 . S
C1072 H1054 0.951 . S
C1072 C1073 1.366 . S
C1072 C1074 1.388 . S
C1073 C1072 1.366 . S
C1073 C1077 1.385 . S
C1074 H1055 0.951 . S
C1074 C1072 1.388 . S
C1074 C1075 1.366 . S
C1075 C1074 1.366 . S
C1075 C1076 1.414 . S
C1075 C1078 1.499 . S
C1076 H1056 0.950 . S
C1076 C1075 1.414 . S
C1076 C1077 1.374 . S
C1077 H1057 0.950 . S
C1077 C1073 1.385 . S
C1077 C1076 1.374 . S
C1078 C1075 1.499 . S
C1078 C1079 1.373 . S
C1078 C1080 1.389 . S
C1079 H1058 0.950 . S
C1079 C1078 1.373 . S
C1079 C1095 1.377 . S
C1080 C1078 1.389 . S
C1080 C1081 1.524 . S
C1080 C1094 1.377 . S
C1081 C1080 1.524 . S
C1081 C1082 1.397 . S
C1081 C1086 1.363 . S
C1082 H1059 0.950 . S
C1082 C1081 1.397 . S
C1082 C1083 1.334 . S
C1083 H1060 0.950 . S
C1083 C1082 1.334 . S
C1083 C1084 1.287 . S
C1084 C1083 1.287 . S
C1084 C1085 1.524 . S
C1084 H1103 0.913 . S
C1085 H1061 0.950 . S
C1085 C1084 1.524 . S
C1085 C1086 1.415 . S
C1086 H1062 0.950 . S
C1086 C1081 1.363 . S
C1086 C1085 1.415 . S
C1087 H1063 0.951 . S
C1087 C1088 1.366 . S
C1087 C1089 1.388 . S
C1088 C1087 1.366 . S
C1088 C1092 1.385 . S
C1089 H1064 0.951 . S
C1089 C1087 1.388 . S
C1089 C1090 1.366 . S
C1090 C1089 1.366 . S
C1090 C1091 1.414 . S
C1090 C1093 1.499 . S
C1091 H1065 0.950 . S
C1091 C1090 1.414 . S
C1091 C1092 1.374 . S
C1092 H1066 0.950 . S
C1092 C1088 1.385 . S
C1092 C1091 1.374 . S
C1093 C1090 1.499 . S
C1093 C1094 1.373 . S
C1093 C1095 1.389 . S
C1094 H1067 0.950 . S
C1094 C1080 1.377 . S
C1094 C1093 1.373 . S
C1095 C1079 1.377 . S
C1095 C1093 1.389 . S
C1095 C1096 1.524 . S
C1096 C1095 1.524 . S
C1096 C1097 1.397 . S
C1096 C1101 1.363 . S
C1097 H1068 0.950 . S
C1097 C1096 1.397 . S
C1097 C1098 1.334 . S
C1098 H1069 0.950 . S
C1098 C1097 1.334 . S
C1098 C1099 1.287 . S
C1099 C1098 1.287 . S
C1099 C1100 1.524 . S
C1099 H1102 0.999 . S
C1100 H1070 0.950 . S
C1100 C1099 1.524 . S
C1100 C1101 1.415 . S
C1101 H1071 0.950 . S
C1101 C1096 1.363 . S
C1101 C1100 1.415 . S
H1102 C1099 0.999 . S
H1103 C1084 0.913 . S
C223 C170 1.326 . S
C238 C8 1.315 . S
C273 C0 1.320 . S
C288 C34 1.319 . S
C323 C42 1.308 . S
C338 C76 1.309 . S
C373 C102 1.324 . S
C388 C68 1.324 . S
C423 C165 1.329 . S
C438 C110 1.316 . S
C473 C153 1.314 . S
C488 C178 1.313 . S
C523 C144 1.455 . S
C538 C17 1.455 . S
C573 C199 1.444 . S
C588 C63 1.444 . S
C623 C85 1.447 . S
C638 C29 1.443 . S
C673 C131 1.445 . S
C688 C51 1.450 . S
C723 C136 1.447 . S
C738 C97 1.446 . S
C773 C119 1.456 . S
C788 C187 1.456 . S
C823 C13 1.500 . S
C838 C4 1.500 . S
C873 C38 1.500 . S
C888 C47 1.500 . S
C923 C81 1.502 . S
C938 C72 1.502 . S
C973 C106 1.505 . S
C988 C115 1.505 . S
C1023 C149 1.498 . S
C1038 C140 1.498 . S
C1073 C183 1.503 . S
C1088 C174 1.503 . S
