# Generated by pormake.
# Topology dia, (4)-cn, num edge types: 1
# Building blocks:
#     Node 0, Type 0, BuildingBlock: CEKHIL_clean_sbu_0, # of connection points: 4
#     Node 1, Type 0, BuildingBlock: CEKHIL_clean_sbu_0, # of connection points: 4
#     Node 2, Type 0, BuildingBlock: CEKHIL_clean_sbu_0, # of connection points: 4
#     Node 3, Type 0, BuildingBlock: CEKHIL_clean_sbu_0, # of connection points: 4
#     Node 4, Type 0, BuildingBlock: CEKHIL_clean_sbu_0, # of connection points: 4
#     Node 5, Type 0, BuildingBlock: CEKHIL_clean_sbu_0, # of connection points: 4
#     Node 6, Type 0, BuildingBlock: CEKHIL_clean_sbu_0, # of connection points: 4
#     Node 7, Type 0, BuildingBlock: CEKHIL_clean_sbu_0, # of connection points: 4
#     Edge 8, Type (0, 0), BuildingBlock: KIFKEQ_clean_linker_1, # of connection points: 2
#     Edge 9, Type (0, 0), BuildingBlock: KIFKEQ_clean_linker_1, # of connection points: 2
#     Edge 10, Type (0, 0), BuildingBlock: KIFKEQ_clean_linker_1, # of connection points: 2
#     Edge 11, Type (0, 0), BuildingBlock: KIFKEQ_clean_linker_1, # of connection points: 2
#     Edge 12, Type (0, 0), BuildingBlock: KIFKEQ_clean_linker_1, # of connection points: 2
#     Edge 13, Type (0, 0), BuildingBlock: KIFKEQ_clean_linker_1, # of connection points: 2
#     Edge 14, Type (0, 0), BuildingBlock: KIFKEQ_clean_linker_1, # of connection points: 2
#     Edge 15, Type (0, 0), BuildingBlock: KIFKEQ_clean_linker_1, # of connection points: 2
#     Edge 16, Type (0, 0), BuildingBlock: KIFKEQ_clean_linker_1, # of connection points: 2
#     Edge 17, Type (0, 0), BuildingBlock: KIFKEQ_clean_linker_1, # of connection points: 2
#     Edge 18, Type (0, 0), BuildingBlock: KIFKEQ_clean_linker_1, # of connection points: 2
#     Edge 19, Type (0, 0), BuildingBlock: KIFKEQ_clean_linker_1, # of connection points: 2
#     Edge 20, Type (0, 0), BuildingBlock: KIFKEQ_clean_linker_1, # of connection points: 2
#     Edge 21, Type (0, 0), BuildingBlock: KIFKEQ_clean_linker_1, # of connection points: 2
#     Edge 22, Type (0, 0), BuildingBlock: KIFKEQ_clean_linker_1, # of connection points: 2
#     Edge 23, Type (0, 0), BuildingBlock: KIFKEQ_clean_linker_1, # of connection points: 2
# Relax obj value: 0.001
# Max RMSD: 0.019
# Mean RMSD: 0.019
data_MOF--net-dia--node1-CEKHIL_clean_sbu_0--edge1-KIFKEQ_clean_linker_1
_symmetry_space_group_name_H-M    P1
_symmetry_Int_Tables_number       1
_symmetry_cell_setting            triclinic
loop_
_symmetry_equiv_pos_as_xyz
'x, y, z'
_cell_length_a     38.880561
_cell_length_b     38.860049
_cell_length_c     25.41914
_cell_angle_alpha  90.209454
_cell_angle_beta   90.283324
_cell_angle_gamma 91.407695
loop_
_atom_site_label
_atom_site_type_symbol
_atom_site_fract_x
_atom_site_fract_y
_atom_site_fract_z
_atom_type_partial_charge
Co0 Co 0.13309 0.14799 0.62917 0.0
O1 O 0.09784 0.18198 0.6222 0.0
O2 O 0.10647 0.15114 0.69358 0.0
C3 C 0.17561 0.18121 0.59461 0.0
O4 O 0.168 0.11166 0.6519 0.0
Co5 Co 0.17101 0.1194 0.53115 0.0
O6 O 0.2036 0.10183 0.5842 0.0
C7 C 0.09882 0.09804 0.55231 0.0
C8 C 0.08923 0.17508 0.6703 0.0
C9 C 0.1954 0.09841 0.63242 0.0
O10 O 0.10053 0.11159 0.59872 0.0
O11 O 0.12308 0.10108 0.51862 0.0
O12 O 0.16748 0.18459 0.64389 0.0
O13 O 0.15649 0.16001 0.5678 0.0
Co14 Co 0.87051 0.38451 0.87226 0.0
O15 O 0.83606 0.41927 0.87954 0.0
O16 O 0.86728 0.41171 0.80834 0.0
C17 C 0.83769 0.34139 0.9062 0.0
O18 O 0.90713 0.35008 0.84907 0.0
Co19 Co 0.89958 0.3464 0.96977 0.0
O20 O 0.91701 0.31405 0.9163 0.0
C21 C 0.9207 0.41874 0.94918 0.0
C22 C 0.84301 0.42841 0.83168 0.0
C23 C 0.92038 0.32254 0.86818 0.0
O24 O 0.90667 0.41724 0.90307 0.0
O25 O 0.9181 0.39427 0.98264 0.0
O26 O 0.83422 0.34984 0.85704 0.0
O27 O 0.85872 0.36054 0.93329 0.0
Co28 Co 0.6346 0.14673 0.13233 0.0
O29 O 0.60071 0.18211 0.12704 0.0
O30 O 0.60918 0.15079 0.19792 0.0
C31 C 0.67766 0.17839 0.0958 0.0
O32 O 0.66866 0.1091 0.15283 0.0
Co33 Co 0.66739 0.11711 0.0307 0.0
O34 O 0.69796 0.09335 0.08073 0.0
C35 C 0.59531 0.10025 0.05645 0.0
C36 C 0.59254 0.17546 0.17536 0.0
C37 C 0.69253 0.09185 0.13013 0.0
O38 O 0.60013 0.11143 0.1038 0.0
O39 O 0.61767 0.10388 0.01998 0.0
O40 O 0.67063 0.18196 0.14546 0.0
O41 O 0.65704 0.15816 0.06982 0.0
Co42 Co 0.87301 0.88334 0.37022 0.0
O43 O 0.83762 0.91718 0.37642 0.0
O44 O 0.86944 0.9101 0.30577 0.0
C45 C 0.84105 0.83964 0.40431 0.0
O46 O 0.91075 0.84963 0.34851 0.0
Co47 Co 0.90193 0.84751 0.4701 0.0
O48 O 0.9253 0.81781 0.41875 0.0
C49 C 0.92037 0.92015 0.4483 0.0
C50 C 0.84461 0.9263 0.32859 0.0
C51 C 0.92744 0.82481 0.36989 0.0
O52 O 0.90804 0.91725 0.40121 0.0
O53 O 0.91724 0.89636 0.48278 0.0
O54 O 0.83776 0.84762 0.35493 0.0
O55 O 0.86126 0.8596 0.43141 0.0
Co56 Co 0.13581 0.6459 0.12794 0.0
O57 O 0.10171 0.68105 0.1214 0.0
O58 O 0.10902 0.64939 0.19226 0.0
C59 C 0.17932 0.67817 0.0939 0.0
O60 O 0.16974 0.60846 0.1501 0.0
Co61 Co 0.17187 0.61694 0.02859 0.0
O62 O 0.20184 0.59406 0.08023 0.0
C63 C 0.0995 0.59757 0.05044 0.0
C64 C 0.09267 0.67408 0.16928 0.0
C65 C 0.19476 0.59196 0.12905 0.0
O66 O 0.10217 0.61049 0.09718 0.0
O67 O 0.12331 0.60059 0.01604 0.0
O68 O 0.17122 0.68142 0.14321 0.0
O69 O 0.15956 0.65777 0.06672 0.0
Co70 Co 0.37278 0.38463 0.37564 0.0
O71 O 0.33728 0.41843 0.38108 0.0
O72 O 0.3697 0.41132 0.31108 0.0
C73 C 0.34062 0.34094 0.4092 0.0
O74 O 0.41072 0.35098 0.35463 0.0
Co75 Co 0.40109 0.34886 0.47592 0.0
O76 O 0.42481 0.31911 0.42504 0.0
C77 C 0.41978 0.42147 0.45427 0.0
C78 C 0.34466 0.42749 0.33336 0.0
C79 C 0.42727 0.32615 0.37624 0.0
O80 O 0.4075 0.41862 0.40715 0.0
O81 O 0.41663 0.39765 0.48868 0.0
O82 O 0.33774 0.34888 0.35974 0.0
O83 O 0.3606 0.36092 0.43668 0.0
Co84 Co 0.37109 0.88539 0.86995 0.0
O85 O 0.33684 0.92034 0.87656 0.0
O86 O 0.36723 0.9114 0.80493 0.0
C87 C 0.33862 0.84276 0.90594 0.0
O88 O 0.40766 0.85068 0.84796 0.0
Co89 Co 0.40065 0.84981 0.96948 0.0
O90 O 0.4196 0.81719 0.91751 0.0
C91 C 0.41935 0.92211 0.94601 0.0
C92 C 0.34336 0.92867 0.82824 0.0
C93 C 0.42214 0.82432 0.86872 0.0
O94 O 0.40739 0.91861 0.89885 0.0
O95 O 0.41585 0.89896 0.98144 0.0
O96 O 0.33484 0.85043 0.85653 0.0
O97 O 0.35963 0.8625 0.93207 0.0
Co98 Co 0.63472 0.64867 0.6304 0.0
O99 O 0.60012 0.68337 0.62436 0.0
O100 O 0.6089 0.65238 0.69554 0.0
C101 C 0.67761 0.68087 0.59464 0.0
O102 O 0.66911 0.61155 0.65202 0.0
Co103 Co 0.66989 0.6194 0.53032 0.0
O104 O 0.70028 0.59659 0.58143 0.0
C105 C 0.59763 0.60051 0.55398 0.0
C106 C 0.59179 0.67655 0.6726 0.0
C107 C 0.69379 0.59483 0.63047 0.0
O108 O 0.60094 0.61298 0.60091 0.0
O109 O 0.62102 0.60373 0.51894 0.0
O110 O 0.67011 0.6845 0.64412 0.0
O111 O 0.65759 0.66024 0.56838 0.0
H112 H 0.28657 0.30338 0.36768 0.0
H113 H 0.34929 0.31538 0.50758 0.0
H114 H 0.24934 0.26205 0.41368 0.0
H115 H 0.31285 0.27341 0.55304 0.0
H116 H 0.21318 0.23567 0.63501 0.0
H117 H 0.25591 0.27135 0.5891 0.0
H118 H 0.24523 0.20582 0.45189 0.0
H119 H 0.2019 0.17099 0.49713 0.0
C120 C 0.29276 0.29667 0.4079 0.0
C121 C 0.32063 0.31276 0.43415 0.0
C122 C 0.27153 0.27292 0.43427 0.0
C123 C 0.27795 0.26463 0.48728 0.0
C124 C 0.30676 0.27972 0.51264 0.0
C125 C 0.32779 0.30359 0.48642 0.0
C126 C 0.22027 0.22876 0.59526 0.0
C127 C 0.20405 0.20075 0.56955 0.0
C128 C 0.24485 0.24907 0.56896 0.0
C129 C 0.25383 0.24158 0.5166 0.0
C130 C 0.23845 0.21272 0.49177 0.0
C131 C 0.21377 0.19262 0.51788 0.0
H132 H 0.73422 0.54354 0.59484 0.0
H133 H 0.70266 0.59293 0.73858 0.0
H134 H 0.77028 0.50549 0.64446 0.0
H135 H 0.74027 0.55536 0.78882 0.0
H136 H 0.78396 0.45802 0.86529 0.0
H137 H 0.74836 0.49886 0.81893 0.0
H138 H 0.82147 0.50165 0.69134 0.0
H139 H 0.85617 0.45954 0.7369 0.0
C140 C 0.73523 0.54659 0.6372 0.0
C141 C 0.71548 0.57156 0.66256 0.0
C142 C 0.75631 0.52478 0.66582 0.0
C143 C 0.75882 0.52735 0.72091 0.0
C144 C 0.7389 0.55224 0.74652 0.0
C145 C 0.71736 0.57395 0.71773 0.0
C146 C 0.79252 0.46747 0.8274 0.0
C147 C 0.82285 0.45528 0.80466 0.0
C148 C 0.77213 0.49117 0.80085 0.0
C149 C 0.78165 0.50364 0.75093 0.0
C150 C 0.81267 0.49216 0.72904 0.0
C151 C 0.83283 0.46814 0.75535 0.0
H152 H 0.56017 0.0543 0.11819 0.0
H153 H 0.55975 0.1008 0.96437 0.0
H154 H 0.51402 0.01461 0.09081 0.0
H155 H 0.51203 0.06288 0.93764 0.0
H156 H 0.46338 0.95985 0.8844 0.0
H157 H 0.50222 1.00657 0.91245 0.0
H158 H 0.45759 1.003 0.06809 0.0
H159 H 0.42061 0.95479 0.04053 0.0
C160 C 0.54943 0.05664 0.07899 0.0
C161 C 0.56365 0.08032 0.04325 0.0
C162 C 0.52281 0.03398 0.06316 0.0
C163 C 0.5093 0.03508 0.01156 0.0
C164 C 0.5223 0.06041 0.97707 0.0
C165 C 0.54944 0.08244 0.99252 0.0
C166 C 0.46172 0.96941 0.92438 0.0
C167 C 0.43933 0.95354 0.96043 0.0
C168 C 0.48385 0.99638 0.94058 0.0
C169 C 0.48347 1.00861 0.99293 0.0
C170 C 0.4595 0.9938 0.02799 0.0
C171 C 0.43803 0.96633 0.0121 0.0
H172 H 0.92905 0.81545 0.26187 0.0
H173 H 0.9795 0.78542 0.40567 0.0
H174 H 0.96653 0.77762 0.21198 0.0
H175 H 0.01745 0.7491 0.35637 0.0
H176 H 0.06247 0.662 0.26514 0.0
H177 H 0.02093 0.69734 0.31069 0.0
H178 H 0.02282 0.76924 0.1813 0.0
H179 H 0.06308 0.73305 0.13507 0.0
C180 C 0.94829 0.80108 0.28279 0.0
C181 C 0.95096 0.8034 0.33788 0.0
C182 C 0.96993 0.77939 0.2542 0.0
C183 C 0.99503 0.75976 0.27996 0.0
C184 C 0.99797 0.76282 0.33495 0.0
C185 C 0.97623 0.78405 0.36336 0.0
C186 C 0.0538 0.68521 0.24631 0.0
C187 C 0.06623 0.69467 0.19652 0.0
C188 C 0.03011 0.70575 0.2726 0.0
C189 C 0.01852 0.73661 0.25017 0.0
C190 C 0.0306 0.74561 0.19983 0.0
C191 C 0.05398 0.72488 0.17335 0.0
H192 H 0.29829 0.97334 0.87186 0.0
H193 H 0.34268 0.94473 0.7232 0.0
H194 H 0.26373 0.01613 0.82777 0.0
H195 H 0.30719 0.98657 0.67856 0.0
H196 H 0.26264 0.08386 0.61551 0.0
H197 H 0.29904 0.04522 0.66411 0.0
H198 H 0.21576 0.02371 0.77205 0.0
H199 H 0.1796 0.06372 0.72409 0.0
C200 C 0.30064 0.97615 0.82964 0.0
C201 C 0.32338 0.95563 0.80109 0.0
C202 C 0.28054 1.00057 0.80421 0.0
C203 C 0.28238 1.00503 0.74935 0.0
C204 C 0.30534 0.98451 0.72091 0.0
C205 C 0.32568 0.96029 0.74646 0.0
C206 C 0.25206 0.07109 0.64983 0.0
C207 C 0.21802 0.07683 0.66563 0.0
C208 C 0.27296 0.04858 0.67758 0.0
C209 C 0.26042 0.03069 0.72179 0.0
C210 C 0.22659 0.03714 0.73853 0.0
C211 C 0.20572 0.06007 0.71097 0.0
H212 H 0.95187 0.43141 0.044 0.0
H213 H 0.93741 0.47598 0.89003 0.0
H214 H 0.99017 0.47893 0.06826 0.0
H215 H 0.97544 0.52436 0.91516 0.0
H216 H 0.0838 0.57026 0.95397 0.0
H217 H 0.03642 0.53165 0.9303 0.0
H218 H 0.99618 0.53957 0.0879 0.0
H219 H 0.04451 0.57787 0.11237 0.0
C220 C 0.9565 0.45156 0.01538 0.0
C221 C 0.94183 0.44952 0.96466 0.0
C222 C 0.97827 0.4791 0.02965 0.0
C223 C 0.98598 0.50548 0.9937 0.0
C224 C 0.97036 0.5042 0.94359 0.0
C225 C 0.94849 0.47652 0.92921 0.0
C226 C 0.0648 0.56409 0.98372 0.0
C227 C 0.06835 0.57686 0.03544 0.0
C228 C 0.03732 0.54214 0.96983 0.0
C229 C 0.01252 0.53236 0.00717 0.0
C230 C 0.01515 0.54624 0.05835 0.0
C231 C 0.04277 0.5683 0.07235 0.0
H232 H 0.42932 0.31679 0.26831 0.0
H233 H 0.47923 0.28678 0.41255 0.0
H234 H 0.46701 0.27904 0.21876 0.0
H235 H 0.51747 0.25056 0.36355 0.0
H236 H 0.56308 0.16361 0.27192 0.0
H237 H 0.52168 0.19897 0.31782 0.0
H238 H 0.52314 0.27083 0.18836 0.0
H239 H 0.56317 0.23463 0.14182 0.0
C240 C 0.4485 0.30245 0.2894 0.0
C241 C 0.45096 0.30476 0.3445 0.0
C242 C 0.47028 0.28081 0.261 0.0
C243 C 0.49535 0.26124 0.28694 0.0
C244 C 0.49806 0.26425 0.34197 0.0
C245 C 0.47615 0.28542 0.37021 0.0
C246 C 0.55436 0.18684 0.2532 0.0
C247 C 0.56654 0.19624 0.20325 0.0
C248 C 0.53075 0.20739 0.27968 0.0
C249 C 0.51901 0.23819 0.25725 0.0
C250 C 0.53098 0.24722 0.20687 0.0
C251 C 0.55425 0.22648 0.18021 0.0
H252 H 0.85107 0.81361 0.50205 0.0
H253 H 0.7862 0.80249 0.36433 0.0
H254 H 0.8151 0.77171 0.54844 0.0
H255 H 0.74941 0.76123 0.41131 0.0
H256 H 0.70223 0.6705 0.49614 0.0
H257 H 0.74518 0.70498 0.44941 0.0
H258 H 0.75886 0.77005 0.58661 0.0
H259 H 0.71655 0.73472 0.63394 0.0
C260 C 0.82919 0.80202 0.48156 0.0
C261 C 0.82129 0.81143 0.42964 0.0
C262 C 0.80843 0.77819 0.50832 0.0
C263 C 0.77913 0.76338 0.4839 0.0
C264 C 0.77197 0.77188 0.43119 0.0
C265 C 0.79295 0.79559 0.40425 0.0
C266 C 0.7147 0.69194 0.51655 0.0
C267 C 0.70594 0.70005 0.56864 0.0
C268 C 0.73915 0.71185 0.48959 0.0
C269 C 0.75526 0.74048 0.51399 0.0
C270 C 0.74725 0.74793 0.56676 0.0
C271 C 0.72291 0.72782 0.59389 0.0
H272 H 0.20275 0.58986 0.2373 0.0
H273 H 0.23577 0.54096 0.09398 0.0
H274 H 0.24038 0.55261 0.28805 0.0
H275 H 0.27189 0.5032 0.1441 0.0
H276 H 0.3579 0.45833 0.23826 0.0
H277 H 0.32285 0.49978 0.1918 0.0
H278 H 0.24892 0.49628 0.31826 0.0
H279 H 0.2848 0.45614 0.36546 0.0
C280 C 0.21776 0.57102 0.21665 0.0
C281 C 0.21628 0.5687 0.16146 0.0
C282 C 0.23933 0.5495 0.24574 0.0
C283 C 0.25969 0.52485 0.2204 0.0
C284 C 0.25756 0.52231 0.16527 0.0
C285 C 0.23644 0.54395 0.13636 0.0
C286 C 0.33429 0.46663 0.25624 0.0
C287 C 0.32419 0.45379 0.30551 0.0
C288 C 0.31393 0.49027 0.22942 0.0
C289 C 0.28261 0.50139 0.25077 0.0
C290 C 0.27292 0.48888 0.30058 0.0
C291 C 0.29348 0.46557 0.32761 0.0
H292 H 0.78205 0.30516 0.86659 0.0
H293 H 0.84892 0.31355 0.00243 0.0
H294 H 0.74603 0.26282 0.91283 0.0
H295 H 0.8138 0.27057 0.04792 0.0
H296 H 0.71729 0.23144 0.13565 0.0
H297 H 0.75845 0.26789 0.08815 0.0
H298 H 0.74215 0.20577 0.94839 0.0
H299 H 0.70026 0.17008 0.9955 0.0
C300 C 0.78938 0.29747 0.90592 0.0
C301 C 0.81808 0.31285 0.93104 0.0
C302 C 0.76886 0.27312 0.93241 0.0
C303 C 0.77683 0.2635 0.98437 0.0
C304 C 0.80646 0.2779 0.00844 0.0
C305 C 0.82675 0.30237 0.98217 0.0
C306 C 0.72283 0.22539 0.09498 0.0
C307 C 0.70543 0.19808 0.06923 0.0
C308 C 0.74652 0.24617 0.06773 0.0
C309 C 0.7535 0.23989 0.01425 0.0
C310 C 0.73694 0.21174 0.98919 0.0
C311 C 0.71311 0.19113 0.01633 0.0
H312 H 0.78558 0.95561 0.3627 0.0
H313 H 0.85655 0.95671 0.2327 0.0
H314 H 0.74939 0.996 0.31672 0.0
H315 H 0.82115 0.9984 0.18734 0.0
H316 H 0.73256 0.04052 0.09312 0.0
H317 H 0.76936 1.0025 0.14166 0.0
H318 H 0.7412 0.05243 0.28688 0.0
H319 H 0.70294 0.08994 0.23786 0.0
C320 C 0.79373 0.96484 0.32448 0.0
C321 C 0.82395 0.9527 0.30129 0.0
C322 C 0.77299 0.9883 0.29814 0.0
C323 C 0.78198 1.00062 0.24791 0.0
C324 C 0.81278 0.98908 0.22538 0.0
C325 C 0.83335 0.9653 0.25155 0.0
C326 C 0.73412 0.04356 0.13545 0.0
C327 C 0.71467 0.06852 0.16143 0.0
C328 C 0.75562 0.02177 0.16342 0.0
C329 C 0.75883 0.02434 0.21844 0.0
C330 C 0.73927 0.04926 0.24464 0.0
C331 C 0.71734 0.07094 0.21652 0.0
H332 H 0.94614 0.93631 0.54554 0.0
H333 H 0.94048 0.97512 0.38655 0.0
H334 H 0.98447 0.98372 0.56991 0.0
H335 H 0.97845 0.02355 0.41173 0.0
H336 H 0.08654 0.06671 0.4576 0.0
H337 H 0.03879 0.02899 0.43265 0.0
H338 H 0.99242 0.04457 0.58476 0.0
H339 H 0.04109 0.08201 0.61064 0.0
C340 C 0.95266 0.95523 0.5158 0.0
C341 C 0.9406 0.95149 0.46371 0.0
C342 C 0.97444 0.98274 0.53009 0.0
C343 C 0.98473 1.00739 0.49279 0.0
C344 C 0.9714 1.00467 0.44125 0.0
C345 C 0.94954 0.977 0.42684 0.0
C346 C 0.06615 0.0624 0.48587 0.0
C347 C 0.068 0.07712 0.53655 0.0
C348 C 0.03846 0.04097 0.47118 0.0
C349 C 0.01174 0.03367 0.50664 0.0
C350 C 0.01284 0.04935 0.5567 0.0
C351 C 0.04069 0.07085 0.57152 0.0
H352 H 0.95506 0.33884 0.77672 0.0
H353 H 0.93452 0.25506 0.88399 0.0
H354 H 0.99471 0.30274 0.72806 0.0
H355 H 0.97277 0.21873 0.83469 0.0
H356 H 0.07288 0.17491 0.77512 0.0
H357 H 0.03123 0.21028 0.82015 0.0
H358 H 1.0021 0.25513 0.67157 0.0
H359 H 0.04475 0.22066 0.62707 0.0
C360 C 0.95855 0.31257 0.78941 0.0
C361 C 0.94181 0.30005 0.8346 0.0
C362 C 0.98126 0.29174 0.76143 0.0
C363 C 0.98749 0.25771 0.7776 0.0
C364 C 0.96958 0.24495 0.82165 0.0
C365 C 0.94732 0.26582 0.84982 0.0
C366 C 0.05744 0.19217 0.75206 0.0
C367 C 0.0622 0.19488 0.69749 0.0
C368 C 0.03333 0.21244 0.77784 0.0
C369 C 0.01299 0.23577 0.74971 0.0
C370 C 0.01751 0.23802 0.6949 0.0
C371 C 0.04185 0.21796 0.66922 0.0
H372 H 0.57706 0.67797 0.77802 0.0
H373 H 0.54597 0.72062 0.62921 0.0
H374 H 0.5354 0.71336 0.82306 0.0
H375 H 0.50324 0.75493 0.67366 0.0
H376 H 0.45515 0.83917 0.77543 0.0
H377 H 0.49519 0.8031 0.72768 0.0
H378 H 0.47738 0.72138 0.83997 0.0
H379 H 0.43881 0.75786 0.88846 0.0
C380 C 0.56098 0.69456 0.75483 0.0
C381 C 0.56493 0.69643 0.70003 0.0
C382 C 0.53684 0.71482 0.78061 0.0
C383 C 0.51563 0.73725 0.75224 0.0
C384 C 0.51935 0.7386 0.69721 0.0
C385 C 0.54374 0.71863 0.67155 0.0
C386 C 0.45964 0.81341 0.7896 0.0
C387 C 0.44392 0.8016 0.83606 0.0
C388 C 0.48258 0.79257 0.76213 0.0
C389 C 0.49006 0.75919 0.78002 0.0
C390 C 0.47324 0.74712 0.8255 0.0
C391 C 0.45077 0.76804 0.85321 0.0
H392 H 0.21623 0.73294 0.1346 0.0
H393 H 0.2054 0.66892 0.99599 0.0
H394 H 0.25748 0.77012 0.08838 0.0
H395 H 0.24735 0.70528 0.95033 0.0
H396 H 0.28479 0.80409 0.86613 0.0
H397 H 0.24928 0.76164 0.91281 0.0
H398 H 0.31373 0.77488 0.05083 0.0
H399 H 0.34843 0.81801 0.00469 0.0
C400 C 0.22318 0.72646 0.09463 0.0
C401 C 0.20742 0.69823 0.06879 0.0
C402 C 0.24691 0.74767 0.06812 0.0
C403 C 0.25553 0.74087 0.01538 0.0
C404 C 0.24078 0.7117 0.99048 0.0
C405 C 0.21692 0.69071 0.01682 0.0
C406 C 0.29152 0.79763 0.90625 0.0
C407 C 0.3192 0.81451 0.93185 0.0
C408 C 0.27129 0.7732 0.933 0.0
C409 C 0.27852 0.76497 0.98578 0.0
C410 C 0.30703 0.78105 0.01061 0.0
C411 C 0.32706 0.8056 0.98401 0.0
H412 H 0.43574 0.47863 0.39452 0.0
H413 H 0.44941 0.43561 0.54972 0.0
H414 H 0.47293 0.52768 0.41944 0.0
H415 H 0.48701 0.48365 0.57369 0.0
H416 H 0.54258 0.58172 0.61639 0.0
H417 H 0.49369 0.54402 0.59236 0.0
H418 H 0.53352 0.53519 0.43459 0.0
H419 H 0.58133 0.57325 0.45777 0.0
C420 C 0.44644 0.47967 0.43393 0.0
C421 C 0.43989 0.45287 0.46976 0.0
C422 C 0.46783 0.50773 0.44819 0.0
C423 C 0.48315 0.50952 0.49851 0.0
C424 C 0.47535 0.48345 0.5349 0.0
C425 C 0.45398 0.45558 0.52079 0.0
C426 C 0.54061 0.57207 0.57643 0.0
C427 C 0.56621 0.58018 0.53934 0.0
C428 C 0.51267 0.55038 0.56268 0.0
C429 C 0.50977 0.53637 0.51159 0.0
C430 C 0.53458 0.54578 0.47405 0.0
C431 C 0.56234 0.5674 0.48768 0.0
loop_
_geom_bond_atom_site_label_1
_geom_bond_atom_site_label_2
_geom_bond_distance
_geom_bond_site_symmetry_2
_ccdc_geom_bond_type
Co0 O1 2.216 . S
Co0 O2 2.091 . S
Co0 O4 2.004 . S
Co0 O10 2.021 . S
Co0 O12 2.137 . S
Co0 O13 2.244 . S
O1 Co0 2.216 . S
O1 C8 1.247 . S
O2 Co0 2.091 . S
O2 C8 1.261 . S
C3 O12 1.247 . S
C3 O13 1.272 . S
O4 Co0 2.004 . S
O4 C9 1.259 . S
Co5 O6 2.061 . S
Co5 O11 2.052 . S
Co5 O13 2.135 . S
O6 Co5 2.061 . S
O6 C9 1.235 . S
C7 O10 1.238 . S
C7 O11 1.241 . S
C8 O1 1.247 . S
C8 O2 1.261 . S
C9 O4 1.259 . S
C9 O6 1.235 . S
O10 Co0 2.021 . S
O10 C7 1.238 . S
O11 Co5 2.052 . S
O11 C7 1.241 . S
O12 Co0 2.137 . S
O12 C3 1.247 . S
O13 Co0 2.244 . S
O13 C3 1.272 . S
O13 Co5 2.135 . S
Co14 O15 2.216 . S
Co14 O16 2.091 . S
Co14 O18 2.004 . S
Co14 O24 2.021 . S
Co14 O26 2.137 . S
Co14 O27 2.244 . S
O15 Co14 2.216 . S
O15 C22 1.247 . S
O16 Co14 2.091 . S
O16 C22 1.261 . S
C17 O26 1.247 . S
C17 O27 1.272 . S
O18 Co14 2.004 . S
O18 C23 1.259 . S
Co19 O20 2.061 . S
Co19 O25 2.052 . S
Co19 O27 2.135 . S
O20 Co19 2.061 . S
O20 C23 1.235 . S
C21 O24 1.238 . S
C21 O25 1.241 . S
C22 O15 1.247 . S
C22 O16 1.261 . S
C23 O18 1.259 . S
C23 O20 1.235 . S
O24 Co14 2.021 . S
O24 C21 1.238 . S
O25 Co19 2.052 . S
O25 C21 1.241 . S
O26 Co14 2.137 . S
O26 C17 1.247 . S
O27 Co14 2.244 . S
O27 C17 1.272 . S
O27 Co19 2.135 . S
Co28 O29 2.216 . S
Co28 O30 2.091 . S
Co28 O32 2.004 . S
Co28 O38 2.021 . S
Co28 O40 2.137 . S
Co28 O41 2.244 . S
O29 Co28 2.216 . S
O29 C36 1.247 . S
O30 Co28 2.091 . S
O30 C36 1.261 . S
C31 O40 1.247 . S
C31 O41 1.272 . S
O32 Co28 2.004 . S
O32 C37 1.259 . S
Co33 O34 2.061 . S
Co33 O39 2.052 . S
Co33 O41 2.135 . S
O34 Co33 2.061 . S
O34 C37 1.235 . S
C35 O38 1.238 . S
C35 O39 1.241 . S
C36 O29 1.247 . S
C36 O30 1.261 . S
C37 O32 1.259 . S
C37 O34 1.235 . S
O38 Co28 2.021 . S
O38 C35 1.238 . S
O39 Co33 2.052 . S
O39 C35 1.241 . S
O40 Co28 2.137 . S
O40 C31 1.247 . S
O41 Co28 2.244 . S
O41 C31 1.272 . S
O41 Co33 2.135 . S
Co42 O43 2.216 . S
Co42 O44 2.091 . S
Co42 O46 2.004 . S
Co42 O52 2.021 . S
Co42 O54 2.137 . S
Co42 O55 2.244 . S
O43 Co42 2.216 . S
O43 C50 1.247 . S
O44 Co42 2.091 . S
O44 C50 1.261 . S
C45 O54 1.247 . S
C45 O55 1.272 . S
O46 Co42 2.004 . S
O46 C51 1.259 . S
Co47 O48 2.061 . S
Co47 O53 2.052 . S
Co47 O55 2.135 . S
O48 Co47 2.061 . S
O48 C51 1.235 . S
C49 O52 1.238 . S
C49 O53 1.241 . S
C50 O43 1.247 . S
C50 O44 1.261 . S
C51 O46 1.259 . S
C51 O48 1.235 . S
O52 Co42 2.021 . S
O52 C49 1.238 . S
O53 Co47 2.052 . S
O53 C49 1.241 . S
O54 Co42 2.137 . S
O54 C45 1.247 . S
O55 Co42 2.244 . S
O55 C45 1.272 . S
O55 Co47 2.135 . S
Co56 O57 2.216 . S
Co56 O58 2.091 . S
Co56 O60 2.004 . S
Co56 O66 2.021 . S
Co56 O68 2.137 . S
Co56 O69 2.244 . S
O57 Co56 2.216 . S
O57 C64 1.247 . S
O58 Co56 2.091 . S
O58 C64 1.261 . S
C59 O68 1.247 . S
C59 O69 1.272 . S
O60 Co56 2.004 . S
O60 C65 1.259 . S
Co61 O62 2.061 . S
Co61 O67 2.052 . S
Co61 O69 2.135 . S
O62 Co61 2.061 . S
O62 C65 1.235 . S
C63 O66 1.238 . S
C63 O67 1.241 . S
C64 O57 1.247 . S
C64 O58 1.261 . S
C65 O60 1.259 . S
C65 O62 1.235 . S
O66 Co56 2.021 . S
O66 C63 1.238 . S
O67 Co61 2.052 . S
O67 C63 1.241 . S
O68 Co56 2.137 . S
O68 C59 1.247 . S
O69 Co56 2.244 . S
O69 C59 1.272 . S
O69 Co61 2.135 . S
Co70 O71 2.216 . S
Co70 O72 2.091 . S
Co70 O74 2.004 . S
Co70 O80 2.021 . S
Co70 O82 2.137 . S
Co70 O83 2.244 . S
O71 Co70 2.216 . S
O71 C78 1.247 . S
O72 Co70 2.091 . S
O72 C78 1.261 . S
C73 O82 1.247 . S
C73 O83 1.272 . S
O74 Co70 2.004 . S
O74 C79 1.259 . S
Co75 O76 2.061 . S
Co75 O81 2.052 . S
Co75 O83 2.135 . S
O76 Co75 2.061 . S
O76 C79 1.235 . S
C77 O80 1.238 . S
C77 O81 1.241 . S
C78 O71 1.247 . S
C78 O72 1.261 . S
C79 O74 1.259 . S
C79 O76 1.235 . S
O80 Co70 2.021 . S
O80 C77 1.238 . S
O81 Co75 2.052 . S
O81 C77 1.241 . S
O82 Co70 2.137 . S
O82 C73 1.247 . S
O83 Co70 2.244 . S
O83 C73 1.272 . S
O83 Co75 2.135 . S
Co84 O85 2.216 . S
Co84 O86 2.091 . S
Co84 O88 2.004 . S
Co84 O94 2.021 . S
Co84 O96 2.137 . S
Co84 O97 2.244 . S
O85 Co84 2.216 . S
O85 C92 1.247 . S
O86 Co84 2.091 . S
O86 C92 1.261 . S
C87 O96 1.247 . S
C87 O97 1.272 . S
O88 Co84 2.004 . S
O88 C93 1.259 . S
Co89 O90 2.061 . S
Co89 O95 2.052 . S
Co89 O97 2.135 . S
O90 Co89 2.061 . S
O90 C93 1.235 . S
C91 O94 1.238 . S
C91 O95 1.241 . S
C92 O85 1.247 . S
C92 O86 1.261 . S
C93 O88 1.259 . S
C93 O90 1.235 . S
O94 Co84 2.021 . S
O94 C91 1.238 . S
O95 Co89 2.052 . S
O95 C91 1.241 . S
O96 Co84 2.137 . S
O96 C87 1.247 . S
O97 Co84 2.244 . S
O97 C87 1.272 . S
O97 Co89 2.135 . S
Co98 O99 2.216 . S
Co98 O100 2.091 . S
Co98 O102 2.004 . S
Co98 O108 2.021 . S
Co98 O110 2.137 . S
Co98 O111 2.244 . S
O99 Co98 2.216 . S
O99 C106 1.247 . S
O100 Co98 2.091 . S
O100 C106 1.261 . S
C101 O110 1.247 . S
C101 O111 1.272 . S
O102 Co98 2.004 . S
O102 C107 1.259 . S
Co103 O104 2.061 . S
Co103 O109 2.052 . S
Co103 O111 2.135 . S
O104 Co103 2.061 . S
O104 C107 1.235 . S
C105 O108 1.238 . S
C105 O109 1.241 . S
C106 O99 1.247 . S
C106 O100 1.261 . S
C107 O102 1.259 . S
C107 O104 1.235 . S
O108 Co98 2.021 . S
O108 C105 1.238 . S
O109 Co103 2.052 . S
O109 C105 1.241 . S
O110 Co98 2.137 . S
O110 C101 1.247 . S
O111 Co98 2.244 . S
O111 C101 1.272 . S
O111 Co103 2.135 . S
H112 C120 0.950 . S
H113 C125 0.950 . S
H114 C122 0.950 . S
H115 C124 0.950 . S
H116 C126 0.950 . S
H117 C128 0.950 . S
H118 C130 0.950 . S
H119 C131 0.950 . S
C120 H112 0.950 . S
C120 C121 1.386 . S
C120 C122 1.391 . S
C121 C120 1.386 . S
C121 C125 1.393 . S
C122 H114 0.950 . S
C122 C120 1.391 . S
C122 C123 1.400 . S
C123 C122 1.400 . S
C123 C124 1.398 . S
C123 C129 1.491 . S
C124 H115 0.950 . S
C124 C123 1.398 . S
C124 C125 1.391 . S
C125 H113 0.950 . S
C125 C121 1.393 . S
C125 C124 1.391 . S
C126 H116 0.950 . S
C126 C127 1.386 . S
C126 C128 1.391 . S
C127 C126 1.386 . S
C127 C131 1.393 . S
C128 H117 0.950 . S
C128 C126 1.391 . S
C128 C129 1.400 . S
C129 C123 1.491 . S
C129 C128 1.400 . S
C129 C130 1.398 . S
C130 H118 0.950 . S
C130 C129 1.398 . S
C130 C131 1.391 . S
C131 H119 0.950 . S
C131 C127 1.393 . S
C131 C130 1.391 . S
H132 C140 0.950 . S
H133 C145 0.950 . S
H134 C142 0.950 . S
H135 C144 0.950 . S
H136 C146 0.950 . S
H137 C148 0.950 . S
H138 C150 0.950 . S
H139 C151 0.950 . S
C140 H132 0.950 . S
C140 C141 1.386 . S
C140 C142 1.391 . S
C141 C140 1.386 . S
C141 C145 1.393 . S
C142 H134 0.950 . S
C142 C140 1.391 . S
C142 C143 1.400 . S
C143 C142 1.400 . S
C143 C144 1.398 . S
C143 C149 1.491 . S
C144 H135 0.950 . S
C144 C143 1.398 . S
C144 C145 1.391 . S
C145 H133 0.950 . S
C145 C141 1.393 . S
C145 C144 1.391 . S
C146 H136 0.950 . S
C146 C147 1.386 . S
C146 C148 1.391 . S
C147 C146 1.386 . S
C147 C151 1.393 . S
C148 H137 0.950 . S
C148 C146 1.391 . S
C148 C149 1.400 . S
C149 C143 1.491 . S
C149 C148 1.400 . S
C149 C150 1.398 . S
C150 H138 0.950 . S
C150 C149 1.398 . S
C150 C151 1.391 . S
C151 H139 0.950 . S
C151 C147 1.393 . S
C151 C150 1.391 . S
H152 C160 0.950 . S
H153 C165 0.950 1_556 S
H154 C162 0.950 1_565 S
H155 C164 0.950 . S
H156 C166 0.950 . S
H157 C168 0.950 1_545 S
H158 C170 0.950 . S
H159 C171 0.950 1_554 S
C160 H152 0.950 . S
C160 C161 1.386 . S
C160 C162 1.391 . S
C161 C160 1.386 . S
C161 C165 1.393 . S
C162 H154 0.950 1_545 S
C162 C160 1.391 . S
C162 C163 1.400 . S
C163 C162 1.400 . S
C163 C164 1.398 1_554 S
C163 C169 1.491 1_544 S
C164 H155 0.950 . S
C164 C163 1.398 1_556 S
C164 C165 1.391 1_556 S
C165 H153 0.950 1_554 S
C165 C161 1.393 . S
C165 C164 1.391 1_554 S
C166 H156 0.950 . S
C166 C167 1.386 . S
C166 C168 1.391 . S
C167 C166 1.386 . S
C167 C171 1.393 . S
C168 H157 0.950 1_565 S
C168 C166 1.391 . S
C168 C169 1.400 . S
C169 C163 1.491 1_566 S
C169 C168 1.400 . S
C169 C170 1.398 1_556 S
C170 H158 0.950 . S
C170 C169 1.398 1_554 S
C170 C171 1.391 1_554 S
C171 H159 0.950 1_556 S
C171 C167 1.393 . S
C171 C170 1.391 1_556 S
H172 C180 0.950 . S
H173 C185 0.950 . S
H174 C182 0.950 . S
H175 C184 0.950 1_455 S
H176 C186 0.950 . S
H177 C188 0.950 . S
H178 C190 0.950 . S
H179 C191 0.950 . S
C180 H172 0.950 . S
C180 C181 1.386 . S
C180 C182 1.391 . S
C181 C180 1.386 . S
C181 C185 1.393 . S
C182 H174 0.950 . S
C182 C180 1.391 . S
C182 C183 1.400 . S
C183 C182 1.400 . S
C183 C184 1.398 . S
C183 C189 1.491 1_655 S
C184 H175 0.950 1_655 S
C184 C183 1.398 . S
C184 C185 1.391 . S
C185 H173 0.950 . S
C185 C181 1.393 . S
C185 C184 1.391 . S
C186 H176 0.950 . S
C186 C187 1.386 . S
C186 C188 1.391 . S
C187 C186 1.386 . S
C187 C191 1.393 . S
C188 H177 0.950 . S
C188 C186 1.391 . S
C188 C189 1.400 . S
C189 C183 1.491 1_455 S
C189 C188 1.400 . S
C189 C190 1.398 1_455 S
C190 H178 0.950 . S
C190 C189 1.398 1_655 S
C190 C191 1.391 1_655 S
C191 H179 0.950 . S
C191 C187 1.393 . S
C191 C190 1.391 1_455 S
H192 C200 0.950 . S
H193 C205 0.950 . S
H194 C202 0.950 . S
H195 C204 0.938 1_545 S
H196 C206 0.950 . S
H197 C208 0.950 . S
H198 C210 0.950 1_565 S
H199 C211 0.950 . S
C200 H192 0.950 . S
C200 C201 1.386 . S
C200 C202 1.391 . S
C201 C200 1.386 . S
C201 C205 1.393 . S
C202 H194 0.950 . S
C202 C200 1.391 . S
C202 C203 1.400 . S
C203 C202 1.400 . S
C203 C204 1.401 . S
C203 C209 1.491 1_565 S
C204 H195 0.938 1_565 S
C204 C203 1.401 . S
C204 C205 1.400 . S
C205 H193 0.950 . S
C205 C201 1.393 . S
C205 C204 1.400 . S
C206 H196 0.950 . S
C206 C207 1.386 . S
C206 C208 1.391 . S
C207 C206 1.386 . S
C207 C211 1.393 . S
C208 H197 0.950 . S
C208 C206 1.391 . S
C208 C209 1.400 . S
C209 C203 1.491 1_545 S
C209 C208 1.400 . S
C209 C210 1.398 . S
C210 H198 0.950 1_545 S
C210 C209 1.398 . S
C210 C211 1.391 . S
C211 H199 0.950 . S
C211 C207 1.393 . S
C211 C210 1.391 . S
H212 C220 0.950 . S
H213 C225 0.950 . S
H214 C222 0.950 . S
H215 C224 0.950 1_455 S
H216 C226 0.950 . S
H217 C228 0.950 . S
H218 C230 0.950 1_655 S
H219 C231 0.950 . S
C220 H212 0.950 . S
C220 C221 1.386 . S
C220 C222 1.391 1_556 S
C221 C220 1.386 . S
C221 C225 1.393 . S
C222 H214 0.950 . S
C222 C220 1.391 1_554 S
C222 C223 1.400 1_554 S
C223 C222 1.400 1_556 S
C223 C224 1.398 . S
C223 C229 1.491 1_656 S
C224 H215 0.950 1_655 S
C224 C223 1.398 . S
C224 C225 1.391 . S
C225 H213 0.950 . S
C225 C221 1.393 . S
C225 C224 1.391 . S
C226 H216 0.950 . S
C226 C227 1.386 . S
C226 C228 1.391 1_554 S
C227 C226 1.386 . S
C227 C231 1.393 . S
C228 H217 0.950 . S
C228 C226 1.391 1_556 S
C228 C229 1.400 1_556 S
C229 C223 1.491 1_454 S
C229 C228 1.400 1_554 S
C229 C230 1.398 . S
C230 H218 0.950 1_455 S
C230 C229 1.398 . S
C230 C231 1.391 . S
C231 H219 0.950 . S
C231 C227 1.393 . S
C231 C230 1.391 . S
H232 C240 0.950 . S
H233 C245 0.950 . S
H234 C242 0.950 . S
H235 C244 0.950 . S
H236 C246 0.950 . S
H237 C248 0.950 . S
H238 C250 0.950 . S
H239 C251 0.950 . S
C240 H232 0.950 . S
C240 C241 1.386 . S
C240 C242 1.391 . S
C241 C240 1.386 . S
C241 C245 1.393 . S
C242 H234 0.950 . S
C242 C240 1.391 . S
C242 C243 1.400 . S
C243 C242 1.400 . S
C243 C244 1.398 . S
C243 C249 1.491 . S
C244 H235 0.950 . S
C244 C243 1.398 . S
C244 C245 1.391 . S
C245 H233 0.950 . S
C245 C241 1.393 . S
C245 C244 1.391 . S
C246 H236 0.950 . S
C246 C247 1.386 . S
C246 C248 1.391 . S
C247 C246 1.386 . S
C247 C251 1.393 . S
C248 H237 0.950 . S
C248 C246 1.391 . S
C248 C249 1.400 . S
C249 C243 1.491 . S
C249 C248 1.400 . S
C249 C250 1.398 . S
C250 H238 0.950 . S
C250 C249 1.398 . S
C250 C251 1.391 . S
C251 H239 0.950 . S
C251 C247 1.393 . S
C251 C250 1.391 . S
H252 C260 0.950 . S
H253 C265 0.950 . S
H254 C262 0.950 . S
H255 C264 0.950 . S
H256 C266 0.950 . S
H257 C268 0.950 . S
H258 C270 0.950 . S
H259 C271 0.950 . S
C260 H252 0.950 . S
C260 C261 1.386 . S
C260 C262 1.391 . S
C261 C260 1.386 . S
C261 C265 1.393 . S
C262 H254 0.950 . S
C262 C260 1.391 . S
C262 C263 1.400 . S
C263 C262 1.400 . S
C263 C264 1.398 . S
C263 C269 1.491 . S
C264 H255 0.950 . S
C264 C263 1.398 . S
C264 C265 1.391 . S
C265 H253 0.950 . S
C265 C261 1.393 . S
C265 C264 1.391 . S
C266 H256 0.950 . S
C266 C267 1.386 . S
C266 C268 1.391 . S
C267 C266 1.386 . S
C267 C271 1.393 . S
C268 H257 0.950 . S
C268 C266 1.391 . S
C268 C269 1.400 . S
C269 C263 1.491 . S
C269 C268 1.400 . S
C269 C270 1.398 . S
C270 H258 0.950 . S
C270 C269 1.398 . S
C270 C271 1.391 . S
C271 H259 0.950 . S
C271 C267 1.393 . S
C271 C270 1.391 . S
H272 C280 0.950 . S
H273 C285 0.950 . S
H274 C282 0.950 . S
H275 C284 0.950 . S
H276 C286 0.950 . S
H277 C288 0.950 . S
H278 C290 0.950 . S
H279 C291 0.950 . S
C280 H272 0.950 . S
C280 C281 1.386 . S
C280 C282 1.391 . S
C281 C280 1.386 . S
C281 C285 1.393 . S
C282 H274 0.950 . S
C282 C280 1.391 . S
C282 C283 1.400 . S
C283 C282 1.400 . S
C283 C284 1.398 . S
C283 C289 1.491 . S
C284 H275 0.950 . S
C284 C283 1.398 . S
C284 C285 1.391 . S
C285 H273 0.950 . S
C285 C281 1.393 . S
C285 C284 1.391 . S
C286 H276 0.950 . S
C286 C287 1.386 . S
C286 C288 1.391 . S
C287 C286 1.386 . S
C287 C291 1.393 . S
C288 H277 0.950 . S
C288 C286 1.391 . S
C288 C289 1.400 . S
C289 C283 1.491 . S
C289 C288 1.400 . S
C289 C290 1.398 . S
C290 H278 0.950 . S
C290 C289 1.398 . S
C290 C291 1.391 . S
C291 H279 0.950 . S
C291 C287 1.393 . S
C291 C290 1.391 . S
H292 C300 0.950 . S
H293 C305 0.950 1_554 S
H294 C302 0.950 . S
H295 C304 0.950 . S
H296 C306 0.950 . S
H297 C308 0.950 . S
H298 C310 0.950 . S
H299 C311 0.950 1_556 S
C300 H292 0.950 . S
C300 C301 1.386 . S
C300 C302 1.391 . S
C301 C300 1.386 . S
C301 C305 1.393 . S
C302 H294 0.950 . S
C302 C300 1.391 . S
C302 C303 1.400 . S
C303 C302 1.400 . S
C303 C304 1.398 1_556 S
C303 C309 1.491 1_556 S
C304 H295 0.950 . S
C304 C303 1.398 1_554 S
C304 C305 1.391 1_554 S
C305 H293 0.950 1_556 S
C305 C301 1.393 . S
C305 C304 1.391 1_556 S
C306 H296 0.950 . S
C306 C307 1.386 . S
C306 C308 1.391 . S
C307 C306 1.386 . S
C307 C311 1.393 . S
C308 H297 0.950 . S
C308 C306 1.391 . S
C308 C309 1.400 . S
C309 C303 1.491 1_554 S
C309 C308 1.400 . S
C309 C310 1.398 1_554 S
C310 H298 0.950 . S
C310 C309 1.398 1_556 S
C310 C311 1.391 1_556 S
C311 H299 0.950 1_554 S
C311 C307 1.393 . S
C311 C310 1.391 1_554 S
H312 C320 0.950 . S
H313 C325 0.950 . S
H314 C322 0.931 1_545 S
H315 C324 0.950 . S
H316 C326 0.950 . S
H317 C328 0.950 1_565 S
H318 C330 0.950 . S
H319 C331 0.950 . S
C320 H312 0.950 . S
C320 C321 1.386 . S
C320 C322 1.405 . S
C321 C320 1.386 . S
C321 C325 1.393 . S
C322 H314 0.931 1_565 S
C322 C320 1.405 . S
C322 C323 1.405 . S
C323 C322 1.405 . S
C323 C324 1.398 . S
C323 C329 1.491 1_565 S
C324 H315 0.950 . S
C324 C323 1.398 . S
C324 C325 1.391 . S
C325 H313 0.950 . S
C325 C321 1.393 . S
C325 C324 1.391 . S
C326 H316 0.950 . S
C326 C327 1.386 . S
C326 C328 1.391 . S
C327 C326 1.386 . S
C327 C331 1.393 . S
C328 H317 0.950 1_545 S
C328 C326 1.391 . S
C328 C329 1.400 . S
C329 C323 1.491 1_545 S
C329 C328 1.400 . S
C329 C330 1.398 . S
C330 H318 0.950 . S
C330 C329 1.398 . S
C330 C331 1.391 . S
C331 H319 0.950 . S
C331 C327 1.393 . S
C331 C330 1.391 . S
H332 C340 0.950 . S
H333 C345 0.950 . S
H334 C342 0.950 . S
H335 C344 0.950 1_545 S
H336 C346 0.950 . S
H337 C348 0.950 . S
H338 C350 0.950 1_565 S
H339 C351 0.950 . S
C340 H332 0.950 . S
C340 C341 1.386 . S
C340 C342 1.391 . S
C341 C340 1.386 . S
C341 C345 1.393 . S
C342 H334 0.950 . S
C342 C340 1.391 . S
C342 C343 1.400 . S
C343 C342 1.400 . S
C343 C344 1.398 . S
C343 C349 1.491 1_665 S
C344 H335 0.950 1_565 S
C344 C343 1.398 . S
C344 C345 1.391 . S
C345 H333 0.950 . S
C345 C341 1.393 . S
C345 C344 1.391 . S
C346 H336 0.950 . S
C346 C347 1.386 . S
C346 C348 1.391 . S
C347 C346 1.386 . S
C347 C351 1.393 . S
C348 H337 0.950 . S
C348 C346 1.391 . S
C348 C349 1.400 . S
C349 C343 1.491 1_445 S
C349 C348 1.400 . S
C349 C350 1.398 . S
C350 H338 0.950 1_545 S
C350 C349 1.398 . S
C350 C351 1.391 . S
C351 H339 0.950 . S
C351 C347 1.393 . S
C351 C350 1.391 . S
H352 C360 0.950 . S
H353 C365 0.950 . S
H354 C362 0.950 1_455 S
H355 C364 0.950 . S
H356 C366 0.950 . S
H357 C368 0.950 . S
H358 C370 0.950 . S
H359 C371 0.950 . S
C360 H352 0.950 . S
C360 C361 1.386 . S
C360 C362 1.391 . S
C361 C360 1.386 . S
C361 C365 1.393 . S
C362 H354 0.950 1_655 S
C362 C360 1.391 . S
C362 C363 1.400 . S
C363 C362 1.400 . S
C363 C364 1.398 . S
C363 C369 1.491 1_655 S
C364 H355 0.950 . S
C364 C363 1.398 . S
C364 C365 1.391 . S
C365 H353 0.950 . S
C365 C361 1.393 . S
C365 C364 1.391 . S
C366 H356 0.950 . S
C366 C367 1.386 . S
C366 C368 1.391 1_455 S
C367 C366 1.386 . S
C367 C371 1.393 . S
C368 H357 0.950 . S
C368 C366 1.391 1_655 S
C368 C369 1.400 1_655 S
C369 C363 1.491 1_455 S
C369 C368 1.400 1_455 S
C369 C370 1.398 . S
C370 H358 0.950 . S
C370 C369 1.398 . S
C370 C371 1.391 . S
C371 H359 0.950 . S
C371 C367 1.393 . S
C371 C370 1.391 . S
H372 C380 0.950 . S
H373 C385 0.950 . S
H374 C382 0.950 . S
H375 C384 0.950 . S
H376 C386 0.950 . S
H377 C388 0.950 . S
H378 C390 0.950 . S
H379 C391 0.950 . S
C380 H372 0.950 . S
C380 C381 1.386 . S
C380 C382 1.391 . S
C381 C380 1.386 . S
C381 C385 1.393 . S
C382 H374 0.950 . S
C382 C380 1.391 . S
C382 C383 1.400 . S
C383 C382 1.400 . S
C383 C384 1.398 . S
C383 C389 1.491 . S
C384 H375 0.950 . S
C384 C383 1.398 . S
C384 C385 1.391 . S
C385 H373 0.950 . S
C385 C381 1.393 . S
C385 C384 1.391 . S
C386 H376 0.950 . S
C386 C387 1.386 . S
C386 C388 1.391 . S
C387 C386 1.386 . S
C387 C391 1.393 . S
C388 H377 0.950 . S
C388 C386 1.391 . S
C388 C389 1.400 . S
C389 C383 1.491 . S
C389 C388 1.400 . S
C389 C390 1.398 . S
C390 H378 0.950 . S
C390 C389 1.398 . S
C390 C391 1.391 . S
C391 H379 0.950 . S
C391 C387 1.393 . S
C391 C390 1.391 . S
H392 C400 0.950 . S
H393 C405 0.950 1_556 S
H394 C402 0.950 . S
H395 C404 0.950 . S
H396 C406 0.950 . S
H397 C408 0.950 . S
H398 C410 0.950 . S
H399 C411 0.950 1_554 S
C400 H392 0.950 . S
C400 C401 1.386 . S
C400 C402 1.391 . S
C401 C400 1.386 . S
C401 C405 1.393 . S
C402 H394 0.950 . S
C402 C400 1.391 . S
C402 C403 1.400 . S
C403 C402 1.400 . S
C403 C404 1.398 1_554 S
C403 C409 1.491 1_554 S
C404 H395 0.950 . S
C404 C403 1.398 1_556 S
C404 C405 1.391 1_556 S
C405 H393 0.950 1_554 S
C405 C401 1.393 . S
C405 C404 1.391 1_554 S
C406 H396 0.950 . S
C406 C407 1.386 . S
C406 C408 1.391 . S
C407 C406 1.386 . S
C407 C411 1.393 . S
C408 H397 0.950 . S
C408 C406 1.391 . S
C408 C409 1.400 . S
C409 C403 1.491 1_556 S
C409 C408 1.400 . S
C409 C410 1.398 1_556 S
C410 H398 0.950 . S
C410 C409 1.398 1_554 S
C410 C411 1.391 1_554 S
C411 H399 0.950 1_556 S
C411 C407 1.393 . S
C411 C410 1.391 1_556 S
H412 C420 0.950 . S
H413 C425 0.950 . S
H414 C422 0.950 . S
H415 C424 0.950 . S
H416 C426 0.950 . S
H417 C428 0.950 . S
H418 C430 0.950 . S
H419 C431 0.950 . S
C420 H412 0.950 . S
C420 C421 1.386 . S
C420 C422 1.391 . S
C421 C420 1.386 . S
C421 C425 1.393 . S
C422 H414 0.950 . S
C422 C420 1.391 . S
C422 C423 1.400 . S
C423 C422 1.400 . S
C423 C424 1.398 . S
C423 C429 1.491 . S
C424 H415 0.950 . S
C424 C423 1.398 . S
C424 C425 1.391 . S
C425 H413 0.950 . S
C425 C421 1.393 . S
C425 C424 1.391 . S
C426 H416 0.950 . S
C426 C427 1.386 . S
C426 C428 1.391 . S
C427 C426 1.386 . S
C427 C431 1.393 . S
C428 H417 0.950 . S
C428 C426 1.391 . S
C428 C429 1.400 . S
C429 C423 1.491 . S
C429 C428 1.400 . S
C429 C430 1.398 . S
C430 H418 0.950 . S
C430 C429 1.398 . S
C430 C431 1.391 . S
C431 H419 0.950 . S
C431 C427 1.393 . S
C431 C430 1.391 . S
C121 C73 1.497 . S
C127 C3 1.494 . S
C141 C107 1.485 . S
C147 C22 1.496 . S
C161 C35 1.480 . S
C167 C91 1.465 . S
C181 C51 1.491 . S
C187 C64 1.498 . S
C201 C92 1.500 . S
C207 C9 1.479 . S
C221 C21 1.463 . S
C227 C63 1.474 . S
C241 C79 1.488 . S
C247 C36 1.499 . S
C261 C45 1.494 . S
C267 C101 1.496 . S
C281 C65 1.484 . S
C287 C78 1.500 . S
C301 C17 1.499 . S
C307 C31 1.497 . S
C321 C50 1.498 . S
C327 C37 1.491 . S
C341 C49 1.468 . S
C347 C7 1.481 . S
C361 C23 1.478 . S
C367 C8 1.499 . S
C381 C106 1.496 . S
C387 C93 1.489 . S
C401 C59 1.497 . S
C407 C87 1.495 . S
C421 C77 1.472 . S
C427 C105 1.463 . S
