# Generated by pormake.
# Topology acs-i, (5)-cn, num edge types: 1
# Building blocks:
#     Node 0, Type 0, BuildingBlock: XOMCOT_clean_sbu_0, # of connection points: 5
#     Node 1, Type 0, BuildingBlock: XOMCOT_clean_sbu_0, # of connection points: 5
#     Node 2, Type 0, BuildingBlock: XOMCOT_clean_sbu_0, # of connection points: 5
#     Node 3, Type 0, BuildingBlock: XOMCOT_clean_sbu_0, # of connection points: 5
#     Node 4, Type 0, BuildingBlock: XOMCOT_clean_sbu_0, # of connection points: 5
#     Node 5, Type 0, BuildingBlock: XOMCOT_clean_sbu_0, # of connection points: 5
#     Node 6, Type 0, BuildingBlock: XOMCOT_clean_sbu_0, # of connection points: 5
#     Node 7, Type 0, BuildingBlock: XOMCOT_clean_sbu_0, # of connection points: 5
#     Node 8, Type 0, BuildingBlock: XOMCOT_clean_sbu_0, # of connection points: 5
#     Node 9, Type 0, BuildingBlock: XOMCOT_clean_sbu_0, # of connection points: 5
#     Node 10, Type 0, BuildingBlock: XOMCOT_clean_sbu_0, # of connection points: 5
#     Node 11, Type 0, BuildingBlock: XOMCOT_clean_sbu_0, # of connection points: 5
#     Edge 12, Type (0, 0), BuildingBlock: EZIPEK_clean_linker_0, # of connection points: 2
#     Edge 13, Type (0, 0), BuildingBlock: EZIPEK_clean_linker_0, # of connection points: 2
#     Edge 14, Type (0, 0), BuildingBlock: EZIPEK_clean_linker_0, # of connection points: 2
#     Edge 15, Type (0, 0), BuildingBlock: EZIPEK_clean_linker_0, # of connection points: 2
#     Edge 16, Type (0, 0), BuildingBlock: EZIPEK_clean_linker_0, # of connection points: 2
#     Edge 17, Type (0, 0), BuildingBlock: EZIPEK_clean_linker_0, # of connection points: 2
#     Edge 18, Type (0, 0), BuildingBlock: EZIPEK_clean_linker_0, # of connection points: 2
#     Edge 19, Type (0, 0), BuildingBlock: EZIPEK_clean_linker_0, # of connection points: 2
#     Edge 20, Type (0, 0), BuildingBlock: EZIPEK_clean_linker_0, # of connection points: 2
#     Edge 21, Type (0, 0), BuildingBlock: EZIPEK_clean_linker_0, # of connection points: 2
#     Edge 22, Type (0, 0), BuildingBlock: EZIPEK_clean_linker_0, # of connection points: 2
#     Edge 23, Type (0, 0), BuildingBlock: EZIPEK_clean_linker_0, # of connection points: 2
#     Edge 24, Type (0, 0), BuildingBlock: EZIPEK_clean_linker_0, # of connection points: 2
#     Edge 25, Type (0, 0), BuildingBlock: EZIPEK_clean_linker_0, # of connection points: 2
#     Edge 26, Type (0, 0), BuildingBlock: EZIPEK_clean_linker_0, # of connection points: 2
#     Edge 27, Type (0, 0), BuildingBlock: EZIPEK_clean_linker_0, # of connection points: 2
#     Edge 28, Type (0, 0), BuildingBlock: EZIPEK_clean_linker_0, # of connection points: 2
#     Edge 29, Type (0, 0), BuildingBlock: EZIPEK_clean_linker_0, # of connection points: 2
#     Edge 30, Type (0, 0), BuildingBlock: EZIPEK_clean_linker_0, # of connection points: 2
#     Edge 31, Type (0, 0), BuildingBlock: EZIPEK_clean_linker_0, # of connection points: 2
#     Edge 32, Type (0, 0), BuildingBlock: EZIPEK_clean_linker_0, # of connection points: 2
#     Edge 33, Type (0, 0), BuildingBlock: EZIPEK_clean_linker_0, # of connection points: 2
#     Edge 34, Type (0, 0), BuildingBlock: EZIPEK_clean_linker_0, # of connection points: 2
#     Edge 35, Type (0, 0), BuildingBlock: EZIPEK_clean_linker_0, # of connection points: 2
#     Edge 36, Type (0, 0), BuildingBlock: EZIPEK_clean_linker_0, # of connection points: 2
#     Edge 37, Type (0, 0), BuildingBlock: EZIPEK_clean_linker_0, # of connection points: 2
#     Edge 38, Type (0, 0), BuildingBlock: EZIPEK_clean_linker_0, # of connection points: 2
#     Edge 39, Type (0, 0), BuildingBlock: EZIPEK_clean_linker_0, # of connection points: 2
#     Edge 40, Type (0, 0), BuildingBlock: EZIPEK_clean_linker_0, # of connection points: 2
#     Edge 41, Type (0, 0), BuildingBlock: EZIPEK_clean_linker_0, # of connection points: 2
# Relax obj value: 0.862
# Max RMSD: 0.237
# Mean RMSD: 0.237
data_MOF--net-acs-i--node1-XOMCOT_clean_sbu_0--edge1-EZIPEK_clean_linker_0
_symmetry_space_group_name_H-M    P1
_symmetry_Int_Tables_number       1
_symmetry_cell_setting            triclinic
loop_
_symmetry_equiv_pos_as_xyz
'x, y, z'
_cell_length_a     40.216058
_cell_length_b     40.241194
_cell_length_c     27.175887
_cell_angle_alpha  90.040271
_cell_angle_beta   90.079027
_cell_angle_gamma 120.00964
loop_
_atom_site_label
_atom_site_type_symbol
_atom_site_fract_x
_atom_site_fract_y
_atom_site_fract_z
_atom_type_partial_charge
Co0 Co 0.30923 0.49235 0.09802 0.0
C1 C 0.37032 0.51737 0.1741 0.0
C2 C 0.38019 0.49028 0.11276 0.0
C3 C 0.41301 0.50736 0.14041 0.0
N4 N 0.35296 0.49612 0.13375 0.0
N5 N 0.40668 0.52431 0.17879 0.0
H6 H 0.35858 0.53124 0.19652 0.0
H7 H 0.37858 0.47867 0.07663 0.0
C8 C 0.35025 0.55439 0.01858 0.0
O9 O 0.32249 0.53909 0.986 0.0
N10 N 0.26697 0.48937 0.06035 0.0
C11 C 0.23958 0.45917 0.03493 0.0
C12 C 0.21752 0.47091 0.00941 0.0
C13 C 0.26059 0.51856 0.05117 0.0
N14 N 0.23119 0.50825 0.01962 0.0
C15 C 0.30227 0.41985 0.08331 0.0
C16 C 0.32856 0.43038 0.98757 0.0
C17 C 0.32799 0.40097 0.01591 0.0
C18 C 0.31252 0.39447 0.06325 0.0
C19 C 0.3193 0.4561 0.00981 0.0
N20 N 0.30871 0.4519 0.05815 0.0
H21 H 0.2935 0.41613 0.12135 0.0
H22 H 0.32305 0.48032 0.98901 0.0
H23 H 0.23634 0.43083 0.03398 0.0
H24 H 0.27778 0.5471 0.0663 0.0
O25 O 0.27337 0.4606 0.14915 0.0
O26 O 0.30272 0.52396 0.14661 0.0
O27 O 0.3491 0.53654 0.05791 0.0
C28 C 0.27945 0.49243 0.16954 0.0
H29 H 0.44052 0.51051 0.13058 0.0
H30 H 0.1939 0.45376 0.9847 0.0
H31 H 0.33948 0.4355 0.95028 0.0
H32 H 0.31104 0.37162 0.08592 0.0
Co33 Co 0.80803 0.32725 0.60964 0.0
C34 C 0.87616 0.38437 0.66824 0.0
C35 C 0.82772 0.39319 0.66924 0.0
C36 C 0.85829 0.42449 0.68978 0.0
N37 N 0.83857 0.36788 0.65559 0.0
N38 N 0.88899 0.41937 0.68878 0.0
H39 H 0.89412 0.3722 0.66004 0.0
H40 H 0.79986 0.39008 0.66195 0.0
C41 C 0.80959 0.37613 0.52224 0.0
O42 O 0.81573 0.35565 0.48969 0.0
N43 N 0.77619 0.28822 0.56178 0.0
C44 C 0.78363 0.26506 0.5334 0.0
C45 C 0.75188 0.24251 0.50453 0.0
C46 C 0.74029 0.27967 0.54919 0.0
N47 N 0.7249 0.25188 0.51479 0.0
C48 C 0.86388 0.3043 0.5953 0.0
C49 C 0.91734 0.36872 0.5457 0.0
C50 C 0.92709 0.34154 0.56091 0.0
C51 C 0.89972 0.3085 0.58482 0.0
C52 C 0.8811 0.36324 0.55652 0.0
N53 N 0.85481 0.3316 0.58166 0.0
H54 H 0.84353 0.27895 0.61491 0.0
H55 H 0.87548 0.38554 0.5468 0.0
H56 H 0.80989 0.26407 0.53307 0.0
H57 H 0.72541 0.29319 0.56528 0.0
O58 O 0.79822 0.28832 0.65863 0.0
O59 O 0.76234 0.31508 0.64793 0.0
O60 O 0.80764 0.36827 0.56785 0.0
C61 C 0.76871 0.29095 0.67209 0.0
H62 H 0.85808 0.44954 0.70395 0.0
H63 H 0.74852 0.2205 0.47878 0.0
H64 H 0.93805 0.39458 0.52682 0.0
H65 H 0.90634 0.28669 0.59637 0.0
Co66 Co 0.49368 0.81956 0.0897 0.0
C67 C 0.47578 0.86769 0.1555 0.0
C68 C 0.50874 0.89896 0.09301 0.0
C69 C 0.49654 0.92108 0.11684 0.0
N70 N 0.49601 0.86538 0.11736 0.0
N71 N 0.47622 0.90143 0.15628 0.0
H72 H 0.45844 0.84429 0.1802 0.0
H73 H 0.52297 0.90586 0.05775 0.0
C74 C 0.44463 0.80612 0.99744 0.0
O75 O 0.45725 0.78506 0.97709 0.0
N76 N 0.49056 0.77389 0.06025 0.0
C77 C 0.51893 0.77052 0.03858 0.0
C78 C 0.50403 0.73358 0.02099 0.0
C79 C 0.45903 0.73867 0.05636 0.0
N80 N 0.46653 0.71345 0.03295 0.0
C81 C 0.57276 0.87341 0.08116 0.0
C82 C 0.57606 0.8861 0.98141 0.0
C83 C 0.60971 0.9087 0.00942 0.0
C84 C 0.60698 0.90144 0.0604 0.0
C85 C 0.54224 0.85839 0.00381 0.0
N86 N 0.54058 0.85273 0.05334 0.0
H87 H 0.57158 0.87033 0.12064 0.0
H88 H 0.51746 0.84304 0.98105 0.0
H89 H 0.54848 0.7932 0.03545 0.0
H90 H 0.43088 0.73177 0.06943 0.0
O91 O 0.51747 0.81214 0.14766 0.0
O92 O 0.45496 0.78749 0.13803 0.0
O93 O 0.45791 0.82173 0.03919 0.0
C94 C 0.4833 0.79203 0.166 0.0
H95 H 0.50011 0.94826 0.10453 0.0
H96 H 0.51961 0.72221 0.00141 0.0
H97 H 0.57411 0.89065 0.94274 0.0
H98 H 0.62984 0.91859 0.08578 0.0
Co99 Co 0.68276 0.50329 0.57397 0.0
C100 C 0.62672 0.48639 0.65494 0.0
C101 C 0.60838 0.49804 0.5866 0.0
C102 C 0.57758 0.48263 0.61806 0.0
N103 N 0.63896 0.49933 0.60915 0.0
N104 N 0.58922 0.47509 0.66081 0.0
H105 H 0.64326 0.48141 0.68203 0.0
H106 H 0.60733 0.50408 0.54819 0.0
C107 C 0.64494 0.44681 0.48824 0.0
O108 O 0.67727 0.46 0.46417 0.0
N109 N 0.72571 0.50682 0.53763 0.0
C110 C 0.75425 0.53721 0.51399 0.0
C111 C 0.77991 0.52678 0.49599 0.0
C112 C 0.7347 0.47883 0.53457 0.0
N113 N 0.76716 0.49009 0.50907 0.0
C114 C 0.68929 0.57598 0.56649 0.0
C115 C 0.66671 0.57038 0.46929 0.0
C116 C 0.66519 0.59757 0.50012 0.0
C117 C 0.67881 0.60172 0.54834 0.0
C118 C 0.6765 0.5444 0.48942 0.0
N119 N 0.68522 0.54611 0.53826 0.0
H120 H 0.6965 0.57743 0.60502 0.0
H121 H 0.67463 0.52171 0.46653 0.0
H122 H 0.75691 0.56523 0.51109 0.0
H123 H 0.71793 0.45067 0.55085 0.0
O124 O 0.71728 0.53077 0.62829 0.0
O125 O 0.68641 0.46789 0.61882 0.0
O126 O 0.64391 0.46336 0.52788 0.0
C127 C 0.71046 0.49746 0.64455 0.0
H128 H 0.54816 0.47398 0.60871 0.0
H129 H 0.80633 0.54489 0.4764 0.0
H130 H 0.65709 0.56709 0.43143 0.0
H131 H 0.67852 0.62279 0.57291 0.0
Co132 Co 0.20539 0.68022 0.08163 0.0
C133 C 0.14923 0.63451 0.16047 0.0
C134 C 0.17903 0.60738 0.13008 0.0
C135 C 0.15698 0.58549 0.16816 0.0
N136 N 0.17412 0.63799 0.12477 0.0
N137 N 0.13854 0.6026 0.18735 0.0
H138 H 0.14078 0.65551 0.16855 0.0
H139 H 0.19938 0.60247 0.11008 0.0
C140 C 0.21694 0.63699 0.99464 0.0
O141 O 0.22739 0.6644 0.96198 0.0
N142 N 0.23828 0.7217 0.03817 0.0
C143 C 0.23095 0.74582 0.01199 0.0
C144 C 0.26399 0.7713 0.98703 0.0
C145 C 0.27535 0.73289 0.02925 0.0
N146 N 0.2917 0.76306 0.99853 0.0
C147 C 0.1379 0.68665 0.07598 0.0
C148 C 0.11123 0.65222 0.98607 0.0
C149 C 0.08882 0.66453 0.01186 0.0
C150 C 0.1027 0.68083 0.05863 0.0
C151 C 0.14618 0.65836 0.00495 0.0
N152 N 0.15905 0.67475 0.04998 0.0
H153 H 0.14737 0.69987 0.11156 0.0
H154 H 0.16194 0.64909 0.98298 0.0
H155 H 0.20382 0.74531 0.01131 0.0
H156 H 0.29026 0.71925 0.04499 0.0
O157 O 0.21116 0.71632 0.13216 0.0
O158 O 0.24925 0.69185 0.1237 0.0
O159 O 0.20775 0.64122 0.03804 0.0
C160 C 0.23943 0.71291 0.14937 0.0
H161 H 0.15608 0.55997 0.18261 0.0
H162 H 0.26766 0.7944 0.96314 0.0
H163 H 0.10167 0.63636 0.95199 0.0
H164 H 0.08673 0.68804 0.08382 0.0
Co165 Co 0.51615 0.19303 0.58053 0.0
C166 C 0.4964 0.12391 0.64265 0.0
C167 C 0.55592 0.15715 0.6226 0.0
C168 C 0.55159 0.12828 0.65272 0.0
N169 N 0.52149 0.15441 0.61568 0.0
N170 N 0.51436 0.10737 0.66574 0.0
H171 H 0.46632 0.11491 0.64619 0.0
H172 H 0.58305 0.18017 0.6094 0.0
C173 C 0.56963 0.20462 0.49268 0.0
O174 O 0.54645 0.20537 0.45921 0.0
N175 N 0.51358 0.23347 0.54482 0.0
C176 C 0.48315 0.23389 0.5243 0.0
C177 C 0.49535 0.26941 0.50369 0.0
C178 C 0.54374 0.26889 0.53664 0.0
N179 N 0.53329 0.29128 0.51189 0.0
C180 C 0.43864 0.14316 0.55029 0.0
C181 C 0.45227 0.09968 0.4843 0.0
C182 C 0.41377 0.09023 0.49181 0.0
C183 C 0.40767 0.11239 0.52685 0.0
C184 C 0.48239 0.13085 0.50854 0.0
N185 N 0.47568 0.15313 0.53999 0.0
H186 H 0.43235 0.15874 0.57749 0.0
H187 H 0.51072 0.13563 0.50355 0.0
H188 H 0.4539 0.21069 0.52427 0.0
H189 H 0.57274 0.27821 0.54886 0.0
O190 O 0.48401 0.19522 0.63177 0.0
O191 O 0.54701 0.22897 0.63169 0.0
O192 O 0.55989 0.19939 0.53782 0.0
C193 C 0.51508 0.21885 0.65508 0.0
H194 H 0.5747 0.12471 0.6673 0.0
H195 H 0.47774 0.27872 0.48473 0.0
H196 H 0.45949 0.08218 0.46143 0.0
H197 H 0.37976 0.10646 0.53834 0.0
Co198 Co 0.48321 0.70275 0.42851 0.0
C199 C 0.48977 0.65441 0.35051 0.0
C200 C 0.43468 0.62778 0.38608 0.0
C201 C 0.43362 0.60375 0.35 0.0
N202 N 0.46986 0.65938 0.38679 0.0
N203 N 0.46803 0.62054 0.32771 0.0
H204 H 0.51848 0.67554 0.33935 0.0
H205 H 0.4105 0.62327 0.40827 0.0
C206 C 0.43459 0.66263 0.5211 0.0
O207 O 0.45381 0.69059 0.5526 0.0
N208 N 0.49412 0.74483 0.4714 0.0
C209 C 0.52688 0.77089 0.49381 0.0
C210 C 0.51914 0.79544 0.52093 0.0
C211 C 0.46735 0.75356 0.48486 0.0
N212 N 0.48164 0.78403 0.51486 0.0
C213 C 0.55801 0.71189 0.42397 0.0
C214 C 0.55244 0.6695 0.50637 0.0
C215 C 0.58163 0.67801 0.4722 0.0
C216 C 0.58546 0.70103 0.43189 0.0
C217 C 0.52529 0.68065 0.49669 0.0
N218 N 0.52671 0.6992 0.45402 0.0
H219 H 0.56067 0.72802 0.39118 0.0
H220 H 0.50264 0.67274 0.52269 0.0
H221 H 0.55439 0.77245 0.49011 0.0
H222 H 0.43781 0.73816 0.47238 0.0
O223 O 0.50881 0.73754 0.37454 0.0
O224 O 0.4471 0.71199 0.39142 0.0
O225 O 0.44558 0.66505 0.47667 0.0
C226 C 0.47558 0.73284 0.36213 0.0
H227 H 0.40879 0.57696 0.33881 0.0
H228 H 0.53947 0.82033 0.54176 0.0
H229 H 0.54924 0.65227 0.53854 0.0
H230 H 0.60803 0.70848 0.4051 0.0
Co231 Co 0.81208 0.48418 0.89539 0.0
C232 C 0.88189 0.49505 0.84109 0.0
C233 C 0.83224 0.43865 0.83559 0.0
C234 C 0.8625 0.43776 0.81466 0.0
N235 N 0.84419 0.47425 0.85264 0.0
N236 N 0.89386 0.47301 0.81822 0.0
H237 H 0.90012 0.52494 0.85039 0.0
H238 H 0.80358 0.41442 0.83997 0.0
C239 C 0.79772 0.42598 0.97693 0.0
O240 O 0.80178 0.4494 0.0131 0.0
N241 N 0.77766 0.49059 0.93913 0.0
C242 C 0.7804 0.52139 0.96292 0.0
C243 C 0.74632 0.51018 0.98777 0.0
C244 C 0.74236 0.46151 0.94988 0.0
N245 N 0.72283 0.47246 0.97948 0.0
C246 C 0.87022 0.55843 0.92588 0.0
C247 C 0.91661 0.5363 0.9738 0.0
C248 C 0.93065 0.5752 0.96421 0.0
C249 C 0.90673 0.58634 0.94129 0.0
C250 C 0.87965 0.50922 0.95798 0.0
N251 N 0.85712 0.52025 0.93334 0.0
H252 H 0.85335 0.5677 0.90539 0.0
H253 H 0.87063 0.47954 0.96259 0.0
H254 H 0.80449 0.5502 0.96151 0.0
H255 H 0.73051 0.43289 0.93471 0.0
O256 O 0.8111 0.51991 0.84807 0.0
O257 O 0.77042 0.45744 0.84899 0.0
O258 O 0.80296 0.43733 0.93251 0.0
C259 C 0.78225 0.49032 0.8276 0.0
H260 H 0.86144 0.41293 0.79756 0.0
H261 H 0.73874 0.52849 0.00829 0.0
H262 H 0.93475 0.52684 0.99103 0.0
H263 H 0.91697 0.61626 0.93303 0.0
Co264 Co 0.31981 0.81514 0.41404 0.0
C265 C 0.36464 0.87472 0.33919 0.0
C266 C 0.3954 0.84905 0.37099 0.0
C267 C 0.41737 0.87334 0.33453 0.0
N268 N 0.36244 0.84993 0.37414 0.0
N269 N 0.39805 0.88922 0.31413 0.0
H270 H 0.34177 0.88064 0.33118 0.0
H271 H 0.402 0.82995 0.39123 0.0
C272 C 0.36136 0.81223 0.50774 0.0
O273 O 0.33427 0.80943 0.53726 0.0
N274 N 0.27779 0.77887 0.45478 0.0
C275 C 0.25486 0.78439 0.48594 0.0
C276 C 0.22937 0.74962 0.50731 0.0
C277 C 0.26602 0.74114 0.45777 0.0
N278 N 0.23635 0.7226 0.48888 0.0
C279 C 0.29529 0.8703 0.42232 0.0
C280 C 0.35308 0.92035 0.48437 0.0
C281 C 0.33215 0.93333 0.45783 0.0
C282 C 0.30164 0.90749 0.42843 0.0
C283 C 0.34573 0.88297 0.47717 0.0
N284 N 0.31895 0.85911 0.44385 0.0
H285 H 0.27268 0.8515 0.39761 0.0
H286 H 0.3629 0.87457 0.49717 0.0
H287 H 0.25645 0.81155 0.49315 0.0
H288 H 0.27924 0.72733 0.43836 0.0
O289 O 0.28465 0.80617 0.36072 0.0
O290 O 0.31393 0.77342 0.37104 0.0
O291 O 0.35864 0.81544 0.46145 0.0
C292 C 0.29004 0.779 0.34477 0.0
H293 H 0.44421 0.87665 0.32104 0.0
H294 H 0.20723 0.74444 0.53381 0.0
H295 H 0.37634 0.93959 0.50842 0.0
H296 H 0.28444 0.91663 0.40809 0.0
Co297 Co 0.50614 0.29842 0.92433 0.0
C298 C 0.50967 0.34705 0.83893 0.0
C299 C 0.52039 0.3761 0.90826 0.0
C300 C 0.52729 0.40213 0.87171 0.0
N301 N 0.51095 0.34191 0.88777 0.0
N302 N 0.52093 0.38397 0.82818 0.0
H303 H 0.50365 0.32534 0.8114 0.0
H304 H 0.52435 0.38254 0.94715 0.0
C305 C 0.57829 0.34159 0.97889 0.0
O306 O 0.58671 0.316 0.96278 0.0
N307 N 0.50055 0.25521 0.96313 0.0
C308 C 0.47635 0.23756 0.00116 0.0
C309 C 0.48498 0.21164 0.02228 0.0
C310 C 0.52285 0.23891 0.96112 0.0
N311 N 0.51424 0.21286 0.99699 0.0
C312 C 0.43019 0.28478 0.92807 0.0
C313 C 0.4391 0.32638 0.01283 0.0
C314 C 0.40853 0.3181 0.98082 0.0
C315 C 0.40303 0.29537 0.93944 0.0
C316 C 0.46594 0.31553 -0.00019 0.0
N317 N 0.46235 0.29694 0.95633 0.0
H318 H 0.42713 0.27017 0.89367 0.0
H319 H 0.49078 0.32445 0.02303 0.0
H320 H 0.45462 0.24362 0.01422 0.0
H321 H 0.54612 0.24685 0.93542 0.0
O322 O 0.48057 0.26405 0.86919 0.0
O323 O 0.54285 0.29507 0.88144 0.0
O324 O 0.54444 0.33627 0.97289 0.0
C325 C 0.51435 0.27156 0.85412 0.0
H326 H 0.53839 0.43261 0.87654 0.0
H327 H 0.47199 0.19445 0.05478 0.0
H328 H 0.44387 0.34378 0.04537 0.0
H329 H 0.37969 0.28856 0.91402 0.0
Co330 Co 0.18822 0.50595 0.43062 0.0
C331 C 0.14595 0.52915 0.36334 0.0
C332 C 0.10691 0.47705 0.39982 0.0
C333 C 0.08588 0.48867 0.37221 0.0
N334 N 0.14477 0.50267 0.39463 0.0
N335 N 0.11064 0.52085 0.34825 0.0
H336 H 0.17186 0.55537 0.35422 0.0
H337 H 0.09472 0.45287 0.42413 0.0
C338 C 0.16823 0.56121 0.4815 0.0
O339 O 0.13234 0.53918 0.46845 0.0
N340 N 0.23111 0.50919 0.46673 0.0
C341 C 0.23439 0.48055 0.48772 0.0
C342 C 0.26931 0.49611 0.51155 0.0
C343 C 0.26401 0.54162 0.47768 0.0
N344 N 0.28777 0.53436 0.50473 0.0
C345 C 0.13989 0.42856 0.46248 0.0
C346 C 0.10266 0.44525 0.53506 0.0
C347 C 0.08535 0.40793 0.51574 0.0
C348 C 0.10656 0.39881 0.48332 0.0
C349 C 0.13758 0.47361 0.51585 0.0
N350 N 0.15303 0.46595 0.47574 0.0
H351 H 0.15328 0.42158 0.43304 0.0
H352 H 0.15047 0.50182 0.53161 0.0
H353 H 0.21324 0.45043 0.48577 0.0
H354 H 0.27058 0.56994 0.46582 0.0
O355 O 0.19307 0.47391 0.38065 0.0
O356 O 0.22323 0.537 0.37836 0.0
O357 O 0.19267 0.55051 0.47157 0.0
C358 C 0.21648 0.5052 0.35735 0.0
H359 H 0.05488 0.47488 0.37038 0.0
H360 H 0.28066 0.48065 0.53143 0.0
H361 H 0.08835 0.45292 0.56279 0.0
H362 H 0.09515 0.36975 0.46985 0.0
Co363 Co 0.66258 0.16158 0.90919 0.0
C364 C 0.60129 0.11959 0.83416 0.0
C365 C 0.60241 0.08105 0.88726 0.0
C366 C 0.57104 0.06061 0.85749 0.0
N367 N 0.62183 0.11829 0.87285 0.0
N368 N 0.57071 0.08484 0.82399 0.0
H369 H 0.60723 0.14549 0.81492 0.0
H370 H 0.60868 0.06893 0.91858 0.0
C371 C 0.62335 0.16737 0.00122 0.0
O372 O 0.65599 0.18393 0.02533 0.0
N373 N 0.7024 0.20434 0.94599 0.0
C374 C 0.73431 0.20724 0.96669 0.0
C375 C 0.75641 0.24372 0.98542 0.0
C376 C 0.70559 0.23907 0.95252 0.0
N377 N 0.73831 0.26357 0.9761 0.0
C378 C 0.69981 0.11761 0.91796 0.0
C379 C 0.65837 0.07322 0.99692 0.0
C380 C 0.67927 0.06147 0.96774 0.0
C381 C 0.70265 0.08564 0.93054 0.0
C382 C 0.65734 0.10636 0.98415 0.0
N383 N 0.67531 0.12622 0.94238 0.0
H384 H 0.71565 0.13383 0.88633 0.0
H385 H 0.6383 0.11259 0.00456 0.0
H386 H 0.74207 0.18516 0.96673 0.0
H387 H 0.68476 0.24657 0.93965 0.0
O388 O 0.69748 0.1758 0.85384 0.0
O389 O 0.65769 0.1976 0.86606 0.0
O390 O 0.62199 0.15492 0.95762 0.0
C391 C 0.68456 0.19792 0.83919 0.0
H392 H 0.54949 0.03059 0.86094 0.0
H393 H 0.78462 0.25554 0.00188 0.0
H394 H 0.64054 0.05531 0.0267 0.0
H395 H 0.71994 0.07776 0.9082 0.0
C396 C 0.40615 0.37888 0.97833 0.0
C397 C 0.38667 0.33863 0.98567 0.0
C398 C 0.32655 0.33901 0.99784 0.0
C399 C 0.34749 0.37975 -0.0005 0.0
N400 N 0.40948 0.43839 5e-05 0.0
N401 N 0.32871 0.28013 0.00646 0.0
C402 C 0.38788 0.39978 0.99175 0.0
C403 C 0.34683 0.31848 0.99625 0.0
N404 N 0.44181 0.39716 0.95737 0.0
N405 N 0.28734 0.32008 0.99699 0.0
H406 H 0.34279 0.26429 0.00587 0.0
H407 H 0.30061 0.26476 0.01939 0.0
H408 H 0.27177 0.33446 0.99695 0.0
H409 H 0.27051 0.2906 0.99141 0.0
H410 H 0.45548 0.42586 0.94669 0.0
H411 H 0.4559 0.38276 0.94568 0.0
H412 H 0.43941 0.45306 0.00037 0.0
H413 H 0.39811 0.45535 0.01125 0.0
C414 C 0.99396 0.36074 0.58913 0.0
C415 C 0.96613 0.34827 0.55105 0.0
C416 C 0.01591 0.36692 0.48881 0.0
C417 C 0.04426 0.38034 0.52686 0.0
N418 N 0.05887 0.37781 0.61222 0.0
N419 N 0.9487 0.32701 0.46749 0.0
C420 C 0.03268 0.37294 0.5768 0.0
C421 C 0.97656 0.34701 0.50184 0.0
N422 N 0.98395 0.36308 0.63649 0.0
N423 N 0.02593 0.37546 0.4405 0.0
H424 H 0.91952 0.31217 0.47624 0.0
H425 H 0.95466 0.32185 0.43191 0.0
H426 H 0.05391 0.38898 0.42762 0.0
H427 H 0.00616 0.37118 0.4129 0.0
H428 H 0.00394 0.37622 0.66467 0.0
H429 H 0.95581 0.35418 0.64706 0.0
H430 H 0.05153 0.36993 0.64883 0.0
H431 H 0.08728 0.38607 0.60374 0.0
C432 C 0.68603 0.01039 0.01256 0.0
C433 C 0.67237 0.02179 0.97138 0.0
C434 C 0.64208 0.95617 0.94017 0.0
C435 C 0.6442 0.94372 0.98782 0.0
N436 N 0.69273 0.95889 0.04893 0.0
N437 N 0.63801 0.00462 0.89328 0.0
C438 C 0.67388 0.97083 0.01844 0.0
C439 C 0.65141 0.99468 0.9336 0.0
N440 N 0.70939 0.03689 0.04645 0.0
N441 N 0.63433 0.93214 0.90114 0.0
H442 H 0.64261 0.03216 0.88725 0.0
H443 H 0.61955 0.98441 0.86777 0.0
H444 H 0.63084 0.9048 0.90591 0.0
H445 H 0.63561 0.9409 0.86474 0.0
H446 H 0.71674 0.02946 0.07979 0.0
H447 H 0.72011 0.06627 0.04185 0.0
H448 H 0.71691 0.97755 0.06937 0.0
H449 H 0.68599 0.93021 0.04923 0.0
C450 C 0.60458 0.59772 0.47757 0.0
C451 C 0.64499 0.61839 0.48518 0.0
C452 C 0.64426 0.67897 0.48476 0.0
C453 C 0.60431 0.65825 0.47464 0.0
N454 N 0.54916 0.5995 0.44663 0.0
N455 N 0.70447 0.67869 0.48467 0.0
C456 C 0.58535 0.61812 0.46629 0.0
C457 C 0.66524 0.65912 0.48508 0.0
N458 N 0.58394 0.55885 0.48411 0.0
N459 N 0.6618 0.71717 0.49593 0.0
H460 H 0.7205 0.6648 0.48411 0.0
H461 H 0.7209 0.7083 0.48014 0.0
H462 H 0.64722 0.73253 0.49619 0.0
H463 H 0.68996 0.73289 0.50867 0.0
H464 H 0.55403 0.5434 0.48479 0.0
H465 H 0.59623 0.5423 0.49337 0.0
H466 H 0.53571 0.57099 0.43506 0.0
H467 H 0.53413 0.61347 0.43708 0.0
C468 C 0.03784 0.64091 0.94423 0.0
C469 C 0.04955 0.65537 0.99249 0.0
C470 C 0.9823 0.62635 0.01695 0.0
C471 C 0.97148 0.60408 0.97326 0.0
N472 N 0.98861 0.59215 0.89253 0.0
N473 N 0.02999 0.6868 0.05141 0.0
C474 C 0.99907 0.61231 0.93567 0.0
C475 C 0.02117 0.65541 0.02329 0.0
N476 N 0.06277 0.65768 0.90612 0.0
N477 N 0.95577 0.61981 0.05249 0.0
H478 H 0.0563 0.71212 0.04757 0.0
H479 H 0.00958 0.68973 0.07161 0.0
H480 H 0.92677 0.59927 0.04873 0.0
H481 H 0.96336 0.63314 0.08685 0.0
H482 H 0.05502 0.65097 0.86931 0.0
H483 H 0.08999 0.68156 0.91174 0.0
H484 H 0.00844 0.59424 0.8663 0.0
H485 H 0.96035 0.5715 0.88441 0.0
C486 C 0.33089 0.99075 0.49155 0.0
C487 C 0.34513 0.97478 0.45677 0.0
C488 C 0.3894 0.03914 0.42553 0.0
C489 C 0.3815 0.0546 0.46773 0.0
N490 N 0.32449 0.04602 0.50799 0.0
N491 N 0.38477 0.98294 0.38589 0.0
C492 C 0.34636 0.03101 0.49226 0.0
C493 C 0.37282 0.9987 0.42137 0.0
N494 N 0.303 0.96777 0.5241 0.0
N495 N 0.41165 0.06344 0.38918 0.0
H496 H 0.37265 0.95338 0.38113 0.0
H497 H 0.40785 0.99907 0.36259 0.0
H498 H 0.42214 0.09296 0.39166 0.0
H499 H 0.41653 0.05435 0.35547 0.0
H500 H 0.2946 0.97883 0.5532 0.0
H501 H 0.28999 0.93791 0.52352 0.0
H502 H 0.29736 0.02941 0.5235 0.0
H503 H 0.33038 0.07318 0.49657 0.0
C504 C 0.24055 0.55905 0.96155 0.0
C505 C 0.21902 0.53346 -0.00035 0.0
C506 C 0.18277 0.56649 0.00868 0.0
C507 C 0.21189 0.59845 0.9826 0.0
N508 N 0.26678 0.62292 0.92787 0.0
N509 N 0.16835 0.51135 0.0591 0.0
C510 C 0.23983 0.59388 0.95601 0.0
C511 C 0.18917 0.53628 0.02249 0.0
N512 N 0.26172 0.54987 0.93119 0.0
N513 N 0.14919 0.5653 0.02025 0.0
H514 H 0.17222 0.4885 0.06925 0.0
H515 H 0.14911 0.51486 0.08111 0.0
H516 H 0.14319 0.58633 0.00825 0.0
H517 H 0.12606 0.54163 0.03662 0.0
H518 H 0.27609 0.56582 0.90024 0.0
H519 H 0.26152 0.52394 0.93464 0.0
H520 H 0.29068 0.62277 0.91344 0.0
H521 H 0.26592 0.64763 0.91947 0.0
C522 C 0.63632 0.2409 0.4542 0.0
C523 C 0.6078 0.20864 0.48044 0.0
C524 C 0.65767 0.19954 0.51936 0.0
C525 C 0.68598 0.23367 0.49714 0.0
N526 N 0.70382 0.2789 0.43159 0.0
N527 N 0.59175 0.14818 0.51766 0.0
C528 C 0.6757 0.25182 0.46057 0.0
C529 C 0.6187 0.18499 0.5065 0.0
N530 N 0.62615 0.2617 0.42466 0.0
N531 N 0.66792 0.18186 0.55411 0.0
H532 H 0.56377 0.13605 0.50468 0.0
H533 H 0.59819 0.12859 0.53381 0.0
H534 H 0.69648 0.19094 0.56254 0.0
H535 H 0.64811 0.15963 0.57625 0.0
H536 H 0.64574 0.28849 0.41042 0.0
H537 H 0.59791 0.25192 0.41409 0.0
H538 H 0.69856 0.2916 0.40148 0.0
H539 H 0.7324 0.28576 0.43522 0.0
C540 C 0.40409 0.66308 -1e-05 0.0
C541 C 0.43958 0.67338 0.02279 0.0
C542 C 0.41995 0.60503 0.02672 0.0
C543 C 0.38179 0.59506 0.01384 0.0
N544 N 0.33668 0.61749 -0.00089 0.0
N545 N 0.47928 0.65294 0.06471 0.0
C546 C 0.37354 0.62478 0.00296 0.0
C547 C 0.44726 0.64404 0.03765 0.0
N548 N 0.39981 0.68971 0.97427 0.0
N549 N 0.43014 0.57736 0.02831 0.0
H550 H 0.4982 0.68061 0.07713 0.0
H551 H 0.48482 0.63228 0.07939 0.0
H552 H 0.41114 0.54881 0.01895 0.0
H553 H 0.45831 0.5835 0.03377 0.0
H554 H 0.3752 0.68302 0.95398 0.0
H555 H 0.42296 0.71693 0.96783 0.0
H556 H 0.32988 0.63927 0.9964 0.0
H557 H 0.31291 0.59059 0.0046 0.0
C558 C 0.77084 0.43784 0.46778 0.0
C559 C 0.78554 0.46765 0.50295 0.0
C560 C 0.82626 0.44439 0.53697 0.0
C561 C 0.80637 0.41032 0.50807 0.0
N562 N 0.75826 0.37434 0.44602 0.0
N563 N 0.82548 0.49906 0.57289 0.0
C564 C 0.77883 0.40728 0.47256 0.0
C565 C 0.81322 0.47119 0.53758 0.0
N566 N 0.74868 0.43876 0.4303 0.0
N567 N 0.85808 0.45156 0.56333 0.0
H568 H 0.81765 0.52012 0.57299 0.0
H569 H 0.84137 0.49987 0.60365 0.0
H570 H 0.8693 0.43334 0.5631 0.0
H571 H 0.87572 0.47748 0.58117 0.0
H572 H 0.73947 0.41983 0.40062 0.0
H573 H 0.74251 0.46095 0.42685 0.0
H574 H 0.73443 0.36855 0.42467 0.0
H575 H 0.7635 0.35161 0.4473 0.0
C576 C 0.39806 0.83058 -6e-05 0.0
C577 C 0.40964 0.80603 0.97801 0.0
C578 C 0.34374 0.7632 0.95071 0.0
C579 C 0.33124 0.78226 0.98319 0.0
N580 N 0.34563 0.83652 0.0346 0.0
N581 N 0.39746 0.76339 0.90961 0.0
C582 C 0.35821 0.81736 0.00556 0.0
C583 C 0.38371 0.7766 0.94603 0.0
N584 N 0.42539 0.86669 0.01384 0.0
N585 N 0.31704 0.73166 0.92572 0.0
H586 H 0.42665 0.77675 0.90139 0.0
H587 H 0.38021 0.74299 0.88362 0.0
H588 H 0.288 0.72351 0.92601 0.0
H589 H 0.32339 0.71341 0.90588 0.0
H590 H 0.41924 0.88728 0.02716 0.0
H591 H 0.45445 0.87723 0.00649 0.0
H592 H 0.36374 0.8609 0.05492 0.0
H593 H 0.3166 0.8271 0.03984 0.0
C594 C 0.57611 0.39813 0.50227 0.0
C595 C 0.61062 0.40825 0.47681 0.0
C596 C 0.58549 0.33975 0.46017 0.0
C597 C 0.55768 0.33063 0.49738 0.0
N598 N 0.52661 0.3515 0.5553 0.0
N599 N 0.6433 0.38786 0.41987 0.0
C600 C 0.55261 0.35988 0.51844 0.0
C601 C 0.6138 0.37885 0.45171 0.0
N602 N 0.56548 0.42504 0.50955 0.0
N603 N 0.58334 0.311 0.43134 0.0
H604 H 0.65909 0.41483 0.40387 0.0
H605 H 0.65093 0.36801 0.40778 0.0
H606 H 0.56201 0.28244 0.43624 0.0
H607 H 0.59993 0.31578 0.39994 0.0
H608 H 0.53942 0.41884 0.52541 0.0
H609 H 0.58083 0.4522 0.49359 0.0
H610 H 0.52429 0.37256 0.5748 0.0
H611 H 0.5098 0.32383 0.56918 0.0
C612 C 0.43271 0.84086 0.50196 0.0
C613 C 0.39784 0.8153 0.52657 0.0
C614 C 0.43075 0.78396 0.56364 0.0
C615 C 0.46052 0.80248 0.52897 0.0
N616 N 0.49042 0.84849 0.46414 0.0
N617 N 0.36528 0.76422 0.58623 0.0
C618 C 0.46221 0.83165 0.49874 0.0
C619 C 0.39758 0.78799 0.5602 0.0
N620 N 0.4378 0.87409 0.48182 0.0
N621 N 0.43414 0.76161 0.59871 0.0
H622 H 0.34139 0.76767 0.58807 0.0
H623 H 0.36176 0.74027 0.60538 0.0
H624 H 0.45832 0.75837 0.60055 0.0
H625 H 0.41515 0.74937 0.62797 0.0
H626 H 0.46376 0.89507 0.46696 0.0
H627 H 0.41767 0.88278 0.48537 0.0
H628 H 0.48993 0.86595 0.43618 0.0
H629 H 0.51313 0.84307 0.46157 0.0
C630 C 0.6568 0.4434 0.95118 0.0
C631 C 0.68252 0.4491 0.98961 0.0
C632 C 0.63298 0.39076 0.03005 0.0
C633 C 0.61086 0.38107 0.98619 0.0
N634 N 0.60613 0.39587 0.90101 0.0
N635 N 0.69541 0.4316 0.06839 0.0
C636 C 0.62336 0.40715 0.94598 0.0
C637 C 0.67034 0.42407 0.03051 0.0
N638 N 0.66573 0.47211 0.91811 0.0
N639 N 0.61857 0.36767 0.07037 0.0
H640 H 0.72229 0.45653 0.06924 0.0
H641 H 0.69034 0.41296 0.09761 0.0
H642 H 0.59142 0.34309 0.07033 0.0
H643 H 0.63211 0.3741 0.10453 0.0
H644 H 0.64656 0.47083 0.8913 0.0
H645 H 0.69094 0.49861 0.92098 0.0
H646 H 0.61621 0.41278 0.86955 0.0
H647 H 0.58431 0.36804 0.8938 0.0
C648 C 0.15877 0.61849 0.49398 0.0
C649 C 0.18161 0.601 0.50097 0.0
C650 C 0.23676 0.66461 0.51836 0.0
C651 C 0.21641 0.68192 0.49871 0.0
N652 N 0.15795 0.67444 0.46346 0.0
N653 N 0.23928 0.60776 0.53809 0.0
C654 C 0.17718 0.65869 0.48593 0.0
C655 C 0.21967 0.62416 0.51865 0.0
N656 N 0.11977 0.59745 0.49813 0.0
N657 N 0.27267 0.68616 0.53736 0.0
H658 H 0.22613 0.57848 0.54577 0.0
H659 H 0.26773 0.62407 0.54975 0.0
H660 H 0.28677 0.71603 0.54021 0.0
H661 H 0.28677 0.71603 0.54021 0.0
H662 H 0.10223 0.60963 0.49609 0.0
H663 H 0.10575 0.56949 0.51167 0.0
H664 H 0.13035 0.65791 0.44908 0.0
H665 H 0.1708 0.7035 0.45491 0.0
C666 C 0.55322 0.14551 0.99571 0.0
C667 C 0.58911 0.16917 0.01904 0.0
C668 C 0.56915 0.21549 0.04078 0.0
C669 C 0.5365 0.19533 0.01015 0.0
N670 N 0.49496 0.14039 0.96119 0.0
N671 N 0.62056 0.21396 0.08544 0.0
C672 C 0.52731 0.15954 0.98932 0.0
C673 C 0.59392 0.20033 0.04854 0.0
N674 N 0.54409 0.10949 0.98086 0.0
N675 N 0.57736 0.25005 0.06034 0.0
H676 H 0.63522 0.19992 0.0962 0.0
H677 H 0.62397 0.23537 0.10989 0.0
H678 H 0.5591 0.26129 0.05634 0.0
H679 H 0.60321 0.26854 0.07784 0.0
H680 H 0.51776 0.08962 0.9657 0.0
H681 H 0.56209 0.09832 0.9883 0.0
H682 H 0.48805 0.1159 0.94076 0.0
H683 H 0.4755 0.15019 0.95686 0.0
C684 C 0.36724 0.62548 0.55679 0.0
C685 C 0.39963 0.62603 0.53492 0.0
C686 C 0.35814 0.56227 0.49992 0.0
C687 C 0.32587 0.56214 0.52054 0.0
N688 N 0.30101 0.58587 0.58281 0.0
N689 N 0.42679 0.58847 0.50452 0.0
C690 C 0.33095 0.59126 0.55388 0.0
C691 C 0.39527 0.59194 0.51325 0.0
N692 N 0.3701 0.65785 0.57705 0.0
N693 N 0.3535 0.53581 0.4651 0.0
H694 H 0.45417 0.60944 0.51571 0.0
H695 H 0.42509 0.56327 0.49161 0.0
H696 H 0.32663 0.51437 0.45302 0.0
H697 H 0.37633 0.53736 0.4451 0.0
H698 H 0.34623 0.65982 0.58757 0.0
H699 H 0.39596 0.68333 0.58118 0.0
H700 H 0.3038 0.60457 0.61115 0.0
H701 H 0.27439 0.56066 0.58125 0.0
C702 C 0.78636 0.32892 0.9508 0.0
C703 C 0.75448 0.30441 0.98012 0.0
C704 C 0.75112 0.35991 0.01099 0.0
C705 C 0.78564 0.38484 0.98529 0.0
N706 N 0.84117 0.39208 0.94127 0.0
N707 N 0.70983 0.29601 0.04402 0.0
C708 C 0.80487 0.36898 0.95861 0.0
C709 C 0.73799 0.31981 0.01229 0.0
N710 N 0.79773 0.31406 0.91353 0.0
N711 N 0.72936 0.37378 0.03109 0.0
H712 H 0.69971 0.26656 0.04518 0.0
H713 H 0.69897 0.30585 0.07166 0.0
H714 H 0.73716 0.4026 0.02996 0.0
H715 H 0.70193 0.3562 0.04518 0.0
H716 H 0.81828 0.33111 0.88757 0.0
H717 H 0.78364 0.28486 0.90517 0.0
H718 H 0.85754 0.38151 0.92516 0.0
H719 H 0.85652 0.42137 0.94812 0.0
C720 C 0.25425 0.48247 0.30697 0.0
C721 C 0.23505 0.5041 0.30988 0.0
C722 C 0.24022 0.5124 0.21997 0.0
C723 C 0.26184 0.49346 0.21743 0.0
N724 N 0.29401 0.46461 0.25932 0.0
N725 N 0.21933 0.54821 0.26935 0.0
C726 C 0.26986 0.47931 0.26111 0.0
C727 C 0.231 0.52173 0.26655 0.0
N728 N 0.25837 0.46552 0.34834 0.0
N729 N 0.22687 0.52003 0.17766 0.0
H730 H 0.21384 0.55748 0.30223 0.0
H731 H 0.21968 0.56459 0.23946 0.0
H732 H 0.23162 0.51209 0.14306 0.0
H733 H 0.20743 0.52999 0.17716 0.0
H734 H 0.26673 0.44487 0.3477 0.0
H735 H 0.25236 0.47126 0.38359 0.0
H736 H 0.30512 0.45847 0.29038 0.0
H737 H 0.30523 0.46081 0.22667 0.0
C738 C 0.71576 0.26193 0.79492 0.0
C739 C 0.69975 0.22138 0.79346 0.0
C740 C 0.72275 0.22662 0.70823 0.0
C741 C 0.74349 0.26716 0.71291 0.0
N742 N 0.76448 0.32343 0.76352 0.0
N743 N 0.68655 0.16456 0.74771 0.0
C744 C 0.741 0.28485 0.75681 0.0
C745 C 0.70279 0.20359 0.74969 0.0
N746 N 0.70681 0.27887 0.83217 0.0
N747 N 0.72121 0.21018 0.66361 0.0
H748 H 0.66798 0.14631 0.77461 0.0
H749 H 0.69228 0.15015 0.72017 0.0
H750 H 0.73567 0.22612 0.63266 0.0
H751 H 0.70336 0.18116 0.65596 0.0
H752 H 0.71481 0.30782 0.8323 0.0
H753 H 0.68764 0.26366 0.86003 0.0
H754 H 0.76773 0.33722 0.79713 0.0
H755 H 0.78363 0.34119 0.73687 0.0
C756 C 0.45298 0.73754 0.22732 0.0
C757 C 0.4775 0.77728 0.21762 0.0
C758 C 0.4952 0.78855 0.30546 0.0
C759 C 0.47103 0.74884 0.31485 0.0
N760 N 0.42079 0.68664 0.28719 0.0
N761 N 0.51687 0.84183 0.24884 0.0
C762 C 0.44767 0.7238 0.27667 0.0
C763 C 0.49716 0.80313 0.25713 0.0
N764 N 0.43691 0.71237 0.18901 0.0
N765 N 0.51682 0.81229 0.34298 0.0
H766 H 0.52083 0.85399 0.2141 0.0
H767 H 0.52741 0.86239 0.27664 0.0
H768 H 0.51314 0.80351 0.37967 0.0
H769 H 0.53924 0.84023 0.33795 0.0
H770 H 0.42239 0.68266 0.19273 0.0
H771 H 0.44081 0.72093 0.15245 0.0
H772 H 0.39984 0.66837 0.26239 0.0
H773 H 0.41702 0.67453 0.32193 0.0
C774 C 0.70736 0.46837 0.7286 0.0
C775 C 0.72946 0.49366 0.68994 0.0
C776 C 0.78776 0.51294 0.73943 0.0
C777 C 0.7646 0.49311 0.78069 0.0
N778 N 0.70135 0.45885 0.81644 0.0
N779 N 0.79198 0.54121 0.65948 0.0
C780 C 0.72416 0.47282 0.77578 0.0
C781 C 0.77002 0.51666 0.69589 0.0
N782 N 0.67079 0.43907 0.72089 0.0
N783 N 0.82632 0.5258 0.74023 0.0
H784 H 0.78142 0.54164 0.62462 0.0
H785 H 0.82062 0.56221 0.66459 0.0
H786 H 0.84029 0.52193 0.77009 0.0
H787 H 0.84382 0.53657 0.70934 0.0
H788 H 0.65619 0.41781 0.7471 0.0
H789 H 0.65671 0.43273 0.68725 0.0
H790 H 0.67168 0.44734 0.81508 0.0
H791 H 0.7123 0.46283 0.85207 0.0
C792 C 0.26173 0.7764 0.26007 0.0
C793 C 0.27277 0.75842 0.2968 0.0
C794 C 0.25948 0.70713 0.23652 0.0
C795 C 0.25627 0.7297 0.19839 0.0
N796 N 0.26347 0.79038 0.17337 0.0
N797 N 0.27848 0.70332 0.31977 0.0
C798 C 0.26077 0.76596 0.2101 0.0
C799 C 0.27109 0.72307 0.28474 0.0
N800 N 0.24883 0.80092 0.27237 0.0
N801 N 0.24842 0.66946 0.22833 0.0
H802 H 0.27781 0.70804 0.35727 0.0
H803 H 0.28464 0.6817 0.31135 0.0
H804 H 0.23932 0.65594 0.19445 0.0
H805 H 0.24503 0.65033 0.25629 0.0
H806 H 0.23892 0.81296 0.24634 0.0
H807 H 0.24065 0.80337 0.30784 0.0
H808 H 0.26837 0.81798 0.18004 0.0
H809 H 0.26507 0.7846 0.13626 0.0
C810 C 0.48663 0.20663 0.74219 0.0
C811 C 0.51477 0.23142 0.70714 0.0
C812 C 0.54984 0.27727 0.77381 0.0
C813 C 0.51918 0.25525 0.80682 0.0
N814 N 0.46783 0.19267 0.82799 0.0
N815 N 0.56732 0.29491 0.68893 0.0
C816 C 0.48994 0.21826 0.79238 0.0
C817 C 0.54491 0.26786 0.72289 0.0
N818 N 0.4561 0.17221 0.72824 0.0
N819 N 0.58448 0.30578 0.79066 0.0
H820 H 0.56135 0.29176 0.65134 0.0
H821 H 0.58887 0.32246 0.69813 0.0
H822 H 0.59122 0.31203 0.82763 0.0
H823 H 0.60865 0.31969 0.76829 0.0
H824 H 0.43123 0.15749 0.74917 0.0
H825 H 0.45446 0.15796 0.69583 0.0
H826 H 0.44858 0.16376 0.82154 0.0
H827 H 0.47214 0.19917 0.86546 0.0
C828 C 0.47179 0.56978 0.28602 0.0
C829 C 0.47491 0.60617 0.2832 0.0
C830 C 0.44659 0.59214 0.20155 0.0
C831 C 0.43587 0.55322 0.20919 0.0
N832 N 0.44301 0.50515 0.25256 0.0
N833 N 0.48021 0.65745 0.23299 0.0
C834 C 0.45106 0.54228 0.24891 0.0
C835 C 0.46783 0.61933 0.23857 0.0
N836 N 0.48608 0.56139 0.32671 0.0
N837 N 0.43428 0.60218 0.16031 0.0
H838 H 0.49588 0.67748 0.26021 0.0
H839 H 0.47821 0.66973 0.20027 0.0
H840 H 0.42072 0.58303 0.13139 0.0
H841 H 0.43675 0.62891 0.15492 0.0
H842 H 0.48518 0.53544 0.33272 0.0
H843 H 0.50073 0.58211 0.35384 0.0
H844 H 0.45187 0.49452 0.28149 0.0
H845 H 0.42697 0.48449 0.22606 0.0
C846 C 0.93793 0.50451 0.75115 0.0
C847 C 0.92992 0.4833 0.79507 0.0
C848 C 0.93743 0.43462 0.75224 0.0
C849 C 0.92595 0.4462 0.70954 0.0
N850 N 0.93824 0.5007 0.6614 0.0
N851 N 0.94582 0.44291 0.84139 0.0
C852 C 0.93639 0.48529 0.70654 0.0
C853 C 0.94034 0.45462 0.7967 0.0
N854 N 0.94231 0.54027 0.75241 0.0
N855 N 0.94196 0.40335 0.75047 0.0
H856 H 0.94515 0.45695 0.87345 0.0
H857 H 0.95152 0.42061 0.84643 0.0
H858 H 0.94069 0.38999 0.71706 0.0
H859 H 0.94906 0.39237 0.78081 0.0
H860 H 0.94661 0.55703 0.72134 0.0
H861 H 0.94325 0.55344 0.7859 0.0
H862 H 0.94383 0.5286 0.65571 0.0
H863 H 0.93487 0.48469 0.62958 0.0
C864 C 0.41242 0.88653 0.18519 0.0
C865 C 0.45282 0.91037 0.18723 0.0
C866 C 0.44709 0.93875 0.26381 0.0
C867 C 0.40887 0.90843 0.26745 0.0
N868 N 0.35091 0.8668 0.22373 0.0
N869 N 0.5089 0.96343 0.22343 0.0
C870 C 0.38998 0.88702 0.22506 0.0
C871 C 0.47017 0.93892 0.22414 0.0
N872 N 0.39621 0.86192 0.14649 0.0
N873 N 0.46145 0.96471 0.30133 0.0
H874 H 0.52634 0.96336 0.19517 0.0
H875 H 0.52401 0.98328 0.25101 0.0
H876 H 0.44405 0.96296 0.33092 0.0
H877 H 0.48889 0.98862 0.30188 0.0
H878 H 0.36762 0.84019 0.14509 0.0
H879 H 0.41219 0.86281 0.11581 0.0
H880 H 0.33521 0.85217 0.1928 0.0
H881 H 0.33425 0.86839 0.25185 0.0
C882 C 0.55638 0.39585 0.74961 0.0
C883 C 0.53241 0.40275 0.78115 0.0
C884 C 0.54262 0.45671 0.7292 0.0
C885 C 0.56484 0.44804 0.69709 0.0
N886 N 0.57827 0.39998 0.66609 0.0
N887 N 0.49366 0.4324 0.79252 0.0
C888 C 0.56639 0.41411 0.70355 0.0
C889 C 0.52247 0.43086 0.76812 0.0
N890 N 0.57319 0.37554 0.76514 0.0
N891 N 0.5421 0.49014 0.72383 0.0
H892 H 0.4774 0.41253 0.81963 0.0
H893 H 0.48343 0.45061 0.78226 0.0
H894 H 0.55685 0.50955 0.69564 0.0
H895 H 0.52931 0.49964 0.74926 0.0
H896 H 0.59267 0.37226 0.74353 0.0
H897 H 0.57245 0.36705 0.80141 0.0
H898 H 0.57727 0.37364 0.66829 0.0
H899 H 0.58479 0.41252 0.63123 0.0
C900 C 0.0857 0.55106 0.23004 0.0
C901 C 0.1159 0.58932 0.23116 0.0
C902 C 0.12247 0.58338 0.31918 0.0
C903 C 0.10275 0.54301 0.31346 0.0
N904 N 0.06448 0.48762 0.2613 0.0
N905 N 0.16044 0.64445 0.27838 0.0
C906 C 0.08258 0.52632 0.26895 0.0
C907 C 0.13255 0.60675 0.27667 0.0
N908 N 0.06337 0.53797 0.18891 0.0
N909 N 0.13272 0.59884 0.36512 0.0
H910 H 0.16754 0.66249 0.24802 0.0
H911 H 0.17725 0.65738 0.30943 0.0
H912 H 0.1247 0.58148 0.39634 0.0
H913 H 0.14545 0.62814 0.37218 0.0
H914 H 0.03919 0.51072 0.18636 0.0
H915 H 0.06746 0.5563 0.15943 0.0
H916 H 0.05314 0.47496 0.22734 0.0
H917 H 0.0632 0.46808 0.28719 0.0
C918 C 0.51772 0.093 0.79288 0.0
C919 C 0.54143 0.07645 0.78791 0.0
C920 C 0.51635 0.05485 0.70509 0.0
C921 C 0.5022 0.08054 0.70588 0.0
N922 N 0.46911 0.10385 0.75507 0.0
N923 N 0.55984 0.03673 0.74249 0.0
C924 C 0.49592 0.09281 0.75168 0.0
C925 C 0.53857 0.05451 0.74557 0.0
N926 N 0.51748 0.11001 0.83624 0.0
N927 N 0.51188 0.03464 0.66297 0.0
H928 H 0.57738 0.03722 0.77106 0.0
H929 H 0.56133 0.02264 0.7112 0.0
H930 H 0.49695 0.03709 0.63296 0.0
H931 H 0.52027 0.01417 0.65898 0.0
H932 H 0.50402 0.12616 0.84094 0.0
H933 H 0.53177 0.10849 0.86749 0.0
H934 H 0.46167 0.11186 0.78782 0.0
H935 H 0.45114 0.10028 0.72545 0.0
loop_
_geom_bond_atom_site_label_1
_geom_bond_atom_site_label_2
_geom_bond_distance
_geom_bond_site_symmetry_2
_ccdc_geom_bond_type
Co0 N4 2.148 . S
Co0 N10 2.128 . S
Co0 N20 2.194 . S
Co0 O25 2.351 . S
Co0 O26 2.155 . S
Co0 O27 2.096 . S
C1 N4 1.301 . S
C1 N5 1.328 . S
C1 H6 0.930 . S
C2 C3 1.333 . S
C2 N4 1.317 . S
C2 H7 0.930 . S
C3 C2 1.333 . S
C3 N5 1.350 . S
C3 H29 0.931 . S
N4 Co0 2.148 . S
N4 C1 1.301 . S
N4 C2 1.317 . S
N5 C1 1.328 . S
N5 C3 1.350 . S
H6 C1 0.930 . S
H7 C2 0.930 . S
C8 O9 1.224 . S
C8 O27 1.247 . S
O9 C8 1.224 . S
N10 Co0 2.128 . S
N10 C11 1.360 . S
N10 C13 1.311 1_554 S
C11 N10 1.360 . S
C11 C12 1.350 1_554 S
C11 H23 0.936 . S
C12 C11 1.350 1_556 S
C12 N14 1.375 . S
C12 H30 0.931 . S
C13 N10 1.311 1_556 S
C13 N14 1.347 . S
C13 H24 0.929 . S
N14 C12 1.375 . S
N14 C13 1.347 . S
C15 C18 1.365 . S
C15 N20 1.328 . S
C15 H21 0.929 . S
C16 C17 1.362 . S
C16 C19 1.376 1_556 S
C16 H31 0.929 . S
C17 C16 1.362 . S
C17 C18 1.366 1_556 S
C18 C15 1.365 . S
C18 C17 1.366 1_554 S
C18 H32 0.930 . S
C19 C16 1.376 1_554 S
C19 N20 1.318 . S
C19 H22 0.929 1_554 S
N20 Co0 2.194 . S
N20 C15 1.328 . S
N20 C19 1.318 . S
H21 C15 0.929 . S
H22 C19 0.929 1_556 S
H23 C11 0.936 . S
H24 C13 0.929 . S
O25 Co0 2.351 . S
O25 C28 1.244 . S
O26 Co0 2.155 . S
O26 C28 1.240 . S
O27 Co0 2.096 . S
O27 C8 1.247 . S
C28 O25 1.244 . S
C28 O26 1.240 . S
H29 C3 0.931 . S
H30 C12 0.931 . S
H31 C16 0.929 . S
H32 C18 0.930 . S
Co33 N37 2.148 . S
Co33 N43 2.128 . S
Co33 N53 2.194 . S
Co33 O58 2.351 . S
Co33 O59 2.155 . S
Co33 O60 2.096 . S
C34 N37 1.301 . S
C34 N38 1.328 . S
C34 H39 0.930 . S
C35 C36 1.333 . S
C35 N37 1.317 . S
C35 H40 0.930 . S
C36 C35 1.333 . S
C36 N38 1.350 . S
C36 H62 0.931 . S
N37 Co33 2.148 . S
N37 C34 1.301 . S
N37 C35 1.317 . S
N38 C34 1.328 . S
N38 C36 1.350 . S
H39 C34 0.930 . S
H40 C35 0.930 . S
C41 O42 1.224 . S
C41 O60 1.247 . S
O42 C41 1.224 . S
N43 Co33 2.128 . S
N43 C44 1.355 . S
N43 C46 1.311 . S
C44 N43 1.355 . S
C44 C45 1.363 . S
C44 H56 0.929 . S
C45 C44 1.363 . S
C45 N47 1.375 . S
C45 H63 0.931 . S
C46 N43 1.311 . S
C46 N47 1.347 . S
C46 H57 0.929 . S
N47 C45 1.375 . S
N47 C46 1.347 . S
C48 C51 1.365 . S
C48 N53 1.328 . S
C48 H54 0.929 . S
C49 C50 1.362 . S
C49 C52 1.378 . S
C49 H64 0.929 . S
C50 C49 1.362 . S
C50 C51 1.366 . S
C51 C48 1.365 . S
C51 C50 1.366 . S
C51 H65 0.930 . S
C52 C49 1.378 . S
C52 N53 1.315 . S
C52 H55 0.930 . S
N53 Co33 2.194 . S
N53 C48 1.328 . S
N53 C52 1.315 . S
H54 C48 0.929 . S
H55 C52 0.930 . S
H56 C44 0.929 . S
H57 C46 0.929 . S
O58 Co33 2.351 . S
O58 C61 1.244 . S
O59 Co33 2.155 . S
O59 C61 1.240 . S
O60 Co33 2.096 . S
O60 C41 1.247 . S
C61 O58 1.244 . S
C61 O59 1.240 . S
H62 C36 0.931 . S
H63 C45 0.931 . S
H64 C49 0.929 . S
H65 C51 0.930 . S
Co66 N70 2.148 . S
Co66 N76 2.128 . S
Co66 N86 2.194 . S
Co66 O91 2.351 . S
Co66 O92 2.155 . S
Co66 O93 2.096 . S
C67 N70 1.301 . S
C67 N71 1.328 . S
C67 H72 0.930 . S
C68 C69 1.333 . S
C68 N70 1.317 . S
C68 H73 0.930 . S
C69 C68 1.333 . S
C69 N71 1.350 . S
C69 H95 0.931 . S
N70 Co66 2.148 . S
N70 C67 1.301 . S
N70 C68 1.317 . S
N71 C67 1.328 . S
N71 C69 1.350 . S
H72 C67 0.930 . S
H73 C68 0.930 . S
C74 O75 1.224 . S
C74 O93 1.247 . S
O75 C74 1.224 . S
N76 Co66 2.128 . S
N76 C77 1.360 . S
N76 C79 1.311 1_554 S
C77 N76 1.360 . S
C77 C78 1.350 1_554 S
C77 H89 0.936 . S
C78 C77 1.350 1_556 S
C78 N80 1.375 . S
C78 H96 0.931 . S
C79 N76 1.311 1_556 S
C79 N80 1.347 . S
C79 H90 0.929 . S
N80 C78 1.375 . S
N80 C79 1.347 . S
C81 C84 1.365 . S
C81 N86 1.328 . S
C81 H87 0.929 . S
C82 C83 1.362 . S
C82 C85 1.376 1_556 S
C82 H97 0.929 . S
C83 C82 1.362 . S
C83 C84 1.366 1_556 S
C84 C81 1.365 . S
C84 C83 1.366 1_554 S
C84 H98 0.930 . S
C85 C82 1.376 1_554 S
C85 N86 1.318 . S
C85 H88 0.929 1_554 S
N86 Co66 2.194 . S
N86 C81 1.328 . S
N86 C85 1.318 . S
H87 C81 0.929 . S
H88 C85 0.929 1_556 S
H89 C77 0.936 . S
H90 C79 0.929 . S
O91 Co66 2.351 . S
O91 C94 1.244 . S
O92 Co66 2.155 . S
O92 C94 1.240 . S
O93 Co66 2.096 . S
O93 C74 1.247 . S
C94 O91 1.244 . S
C94 O92 1.240 . S
H95 C69 0.931 . S
H96 C78 0.931 . S
H97 C82 0.929 . S
H98 C84 0.930 . S
Co99 N103 2.148 . S
Co99 N109 2.128 . S
Co99 N119 2.194 . S
Co99 O124 2.351 . S
Co99 O125 2.155 . S
Co99 O126 2.096 . S
C100 N103 1.301 . S
C100 N104 1.328 . S
C100 H105 0.930 . S
C101 C102 1.333 . S
C101 N103 1.317 . S
C101 H106 0.930 . S
C102 C101 1.333 . S
C102 N104 1.350 . S
C102 H128 0.931 . S
N103 Co99 2.148 . S
N103 C100 1.301 . S
N103 C101 1.317 . S
N104 C100 1.328 . S
N104 C102 1.350 . S
H105 C100 0.930 . S
H106 C101 0.930 . S
C107 O108 1.224 . S
C107 O126 1.247 . S
O108 C107 1.224 . S
N109 Co99 2.128 . S
N109 C110 1.355 . S
N109 C112 1.311 . S
C110 N109 1.355 . S
C110 C111 1.363 . S
C110 H122 0.929 . S
C111 C110 1.363 . S
C111 N113 1.375 . S
C111 H129 0.931 . S
C112 N109 1.311 . S
C112 N113 1.347 . S
C112 H123 0.929 . S
N113 C111 1.375 . S
N113 C112 1.347 . S
C114 C117 1.365 . S
C114 N119 1.328 . S
C114 H120 0.929 . S
C115 C116 1.362 . S
C115 C118 1.378 . S
C115 H130 0.929 . S
C116 C115 1.362 . S
C116 C117 1.366 . S
C117 C114 1.365 . S
C117 C116 1.366 . S
C117 H131 0.930 . S
C118 C115 1.378 . S
C118 N119 1.315 . S
C118 H121 0.930 . S
N119 Co99 2.194 . S
N119 C114 1.328 . S
N119 C118 1.315 . S
H120 C114 0.929 . S
H121 C118 0.930 . S
H122 C110 0.929 . S
H123 C112 0.929 . S
O124 Co99 2.351 . S
O124 C127 1.244 . S
O125 Co99 2.155 . S
O125 C127 1.240 . S
O126 Co99 2.096 . S
O126 C107 1.247 . S
C127 O124 1.244 . S
C127 O125 1.240 . S
H128 C102 0.931 . S
H129 C111 0.931 . S
H130 C115 0.929 . S
H131 C117 0.930 . S
Co132 N136 2.148 . S
Co132 N142 2.128 . S
Co132 N152 2.194 . S
Co132 O157 2.351 . S
Co132 O158 2.155 . S
Co132 O159 2.096 . S
C133 N136 1.301 . S
C133 N137 1.328 . S
C133 H138 0.930 . S
C134 C135 1.333 . S
C134 N136 1.317 . S
C134 H139 0.930 . S
C135 C134 1.333 . S
C135 N137 1.350 . S
C135 H161 0.931 . S
N136 Co132 2.148 . S
N136 C133 1.301 . S
N136 C134 1.317 . S
N137 C133 1.328 . S
N137 C135 1.350 . S
H138 C133 0.930 . S
H139 C134 0.930 . S
C140 O141 1.224 . S
C140 O159 1.247 . S
O141 C140 1.224 . S
N142 Co132 2.128 . S
N142 C143 1.360 . S
N142 C145 1.311 1_554 S
C143 N142 1.360 . S
C143 C144 1.350 1_554 S
C143 H155 0.936 . S
C144 C143 1.350 1_556 S
C144 N146 1.375 . S
C144 H162 0.931 . S
C145 N142 1.311 1_556 S
C145 N146 1.347 . S
C145 H156 0.929 . S
N146 C144 1.375 . S
N146 C145 1.347 . S
C147 C150 1.365 . S
C147 N152 1.328 . S
C147 H153 0.929 . S
C148 C149 1.362 . S
C148 C151 1.375 1_556 S
C148 H163 0.929 . S
C149 C148 1.362 . S
C149 C150 1.366 1_556 S
C150 C147 1.365 . S
C150 C149 1.366 1_554 S
C150 H164 0.930 . S
C151 C148 1.375 1_554 S
C151 N152 1.319 . S
C151 H154 0.928 1_554 S
N152 Co132 2.194 . S
N152 C147 1.328 . S
N152 C151 1.319 . S
H153 C147 0.929 . S
H154 C151 0.928 1_556 S
H155 C143 0.936 . S
H156 C145 0.929 . S
O157 Co132 2.351 . S
O157 C160 1.244 . S
O158 Co132 2.155 . S
O158 C160 1.240 . S
O159 Co132 2.096 . S
O159 C140 1.247 . S
C160 O157 1.244 . S
C160 O158 1.240 . S
H161 C135 0.931 . S
H162 C144 0.931 . S
H163 C148 0.929 . S
H164 C150 0.930 . S
Co165 N169 2.148 . S
Co165 N175 2.128 . S
Co165 N185 2.194 . S
Co165 O190 2.351 . S
Co165 O191 2.155 . S
Co165 O192 2.096 . S
C166 N169 1.301 . S
C166 N170 1.328 . S
C166 H171 0.930 . S
C167 C168 1.333 . S
C167 N169 1.317 . S
C167 H172 0.930 . S
C168 C167 1.333 . S
C168 N170 1.350 . S
C168 H194 0.931 . S
N169 Co165 2.148 . S
N169 C166 1.301 . S
N169 C167 1.317 . S
N170 C166 1.328 . S
N170 C168 1.350 . S
H171 C166 0.930 . S
H172 C167 0.930 . S
C173 O174 1.224 . S
C173 O192 1.247 . S
O174 C173 1.224 . S
N175 Co165 2.128 . S
N175 C176 1.355 . S
N175 C178 1.311 . S
C176 N175 1.355 . S
C176 C177 1.363 . S
C176 H188 0.929 . S
C177 C176 1.363 . S
C177 N179 1.375 . S
C177 H195 0.931 . S
C178 N175 1.311 . S
C178 N179 1.347 . S
C178 H189 0.929 . S
N179 C177 1.375 . S
N179 C178 1.347 . S
C180 C183 1.365 . S
C180 N185 1.328 . S
C180 H186 0.929 . S
C181 C182 1.362 . S
C181 C184 1.378 . S
C181 H196 0.929 . S
C182 C181 1.362 . S
C182 C183 1.366 . S
C183 C180 1.365 . S
C183 C182 1.366 . S
C183 H197 0.930 . S
C184 C181 1.378 . S
C184 N185 1.315 . S
C184 H187 0.930 . S
N185 Co165 2.194 . S
N185 C180 1.328 . S
N185 C184 1.315 . S
H186 C180 0.929 . S
H187 C184 0.930 . S
H188 C176 0.929 . S
H189 C178 0.929 . S
O190 Co165 2.351 . S
O190 C193 1.244 . S
O191 Co165 2.155 . S
O191 C193 1.240 . S
O192 Co165 2.096 . S
O192 C173 1.247 . S
C193 O190 1.244 . S
C193 O191 1.240 . S
H194 C168 0.931 . S
H195 C177 0.931 . S
H196 C181 0.929 . S
H197 C183 0.930 . S
Co198 N202 2.148 . S
Co198 N208 2.128 . S
Co198 N218 2.194 . S
Co198 O223 2.351 . S
Co198 O224 2.155 . S
Co198 O225 2.096 . S
C199 N202 1.301 . S
C199 N203 1.328 . S
C199 H204 0.930 . S
C200 C201 1.333 . S
C200 N202 1.317 . S
C200 H205 0.930 . S
C201 C200 1.333 . S
C201 N203 1.350 . S
C201 H227 0.931 . S
N202 Co198 2.148 . S
N202 C199 1.301 . S
N202 C200 1.317 . S
N203 C199 1.328 . S
N203 C201 1.350 . S
H204 C199 0.930 . S
H205 C200 0.930 . S
C206 O207 1.224 . S
C206 O225 1.247 . S
O207 C206 1.224 . S
N208 Co198 2.128 . S
N208 C209 1.355 . S
N208 C211 1.311 . S
C209 N208 1.355 . S
C209 C210 1.363 . S
C209 H221 0.929 . S
C210 C209 1.363 . S
C210 N212 1.375 . S
C210 H228 0.931 . S
C211 N208 1.311 . S
C211 N212 1.347 . S
C211 H222 0.929 . S
N212 C210 1.375 . S
N212 C211 1.347 . S
C213 C216 1.365 . S
C213 N218 1.328 . S
C213 H219 0.929 . S
C214 C215 1.362 . S
C214 C217 1.378 . S
C214 H229 0.929 . S
C215 C214 1.362 . S
C215 C216 1.366 . S
C216 C213 1.365 . S
C216 C215 1.366 . S
C216 H230 0.930 . S
C217 C214 1.378 . S
C217 N218 1.315 . S
C217 H220 0.930 . S
N218 Co198 2.194 . S
N218 C213 1.328 . S
N218 C217 1.315 . S
H219 C213 0.929 . S
H220 C217 0.930 . S
H221 C209 0.929 . S
H222 C211 0.929 . S
O223 Co198 2.351 . S
O223 C226 1.244 . S
O224 Co198 2.155 . S
O224 C226 1.240 . S
O225 Co198 2.096 . S
O225 C206 1.247 . S
C226 O223 1.244 . S
C226 O224 1.240 . S
H227 C201 0.931 . S
H228 C210 0.931 . S
H229 C214 0.929 . S
H230 C216 0.930 . S
Co231 N235 2.148 . S
Co231 N241 2.128 . S
Co231 N251 2.194 . S
Co231 O256 2.351 . S
Co231 O257 2.155 . S
Co231 O258 2.096 . S
C232 N235 1.301 . S
C232 N236 1.328 . S
C232 H237 0.930 . S
C233 C234 1.333 . S
C233 N235 1.317 . S
C233 H238 0.930 . S
C234 C233 1.333 . S
C234 N236 1.350 . S
C234 H260 0.931 . S
N235 Co231 2.148 . S
N235 C232 1.301 . S
N235 C233 1.317 . S
N236 C232 1.328 . S
N236 C234 1.350 . S
H237 C232 0.930 . S
H238 C233 0.930 . S
C239 O240 1.224 . S
C239 O258 1.247 . S
O240 C239 1.224 . S
N241 Co231 2.128 . S
N241 C242 1.360 . S
N241 C244 1.311 1_556 S
C242 N241 1.360 . S
C242 C243 1.350 1_556 S
C242 H254 0.936 . S
C243 C242 1.350 1_554 S
C243 N245 1.375 . S
C243 H261 0.931 . S
C244 N241 1.311 1_554 S
C244 N245 1.347 . S
C244 H255 0.929 . S
N245 C243 1.375 . S
N245 C244 1.347 . S
C246 C249 1.365 . S
C246 N251 1.328 . S
C246 H252 0.929 . S
C247 C248 1.362 . S
C247 C250 1.376 1_554 S
C247 H262 0.929 . S
C248 C247 1.362 . S
C248 C249 1.366 1_554 S
C249 C246 1.365 . S
C249 C248 1.366 1_556 S
C249 H263 0.930 . S
C250 C247 1.376 1_556 S
C250 N251 1.318 . S
C250 H253 0.929 1_556 S
N251 Co231 2.194 . S
N251 C246 1.328 . S
N251 C250 1.318 . S
H252 C246 0.929 . S
H253 C250 0.929 1_554 S
H254 C242 0.936 . S
H255 C244 0.929 . S
O256 Co231 2.351 . S
O256 C259 1.244 . S
O257 Co231 2.155 . S
O257 C259 1.240 . S
O258 Co231 2.096 . S
O258 C239 1.247 . S
C259 O256 1.244 . S
C259 O257 1.240 . S
H260 C234 0.931 . S
H261 C243 0.931 . S
H262 C247 0.929 . S
H263 C249 0.930 . S
Co264 N268 2.148 . S
Co264 N274 2.128 . S
Co264 N284 2.194 . S
Co264 O289 2.351 . S
Co264 O290 2.155 . S
Co264 O291 2.096 . S
C265 N268 1.301 . S
C265 N269 1.328 . S
C265 H270 0.930 . S
C266 C267 1.333 . S
C266 N268 1.317 . S
C266 H271 0.930 . S
C267 C266 1.333 . S
C267 N269 1.350 . S
C267 H293 0.931 . S
N268 Co264 2.148 . S
N268 C265 1.301 . S
N268 C266 1.317 . S
N269 C265 1.328 . S
N269 C267 1.350 . S
H270 C265 0.930 . S
H271 C266 0.930 . S
C272 O273 1.224 . S
C272 O291 1.247 . S
O273 C272 1.224 . S
N274 Co264 2.128 . S
N274 C275 1.355 . S
N274 C277 1.311 . S
C275 N274 1.355 . S
C275 C276 1.363 . S
C275 H287 0.929 . S
C276 C275 1.363 . S
C276 N278 1.375 . S
C276 H294 0.931 . S
C277 N274 1.311 . S
C277 N278 1.347 . S
C277 H288 0.929 . S
N278 C276 1.375 . S
N278 C277 1.347 . S
C279 C282 1.365 . S
C279 N284 1.328 . S
C279 H285 0.929 . S
C280 C281 1.362 . S
C280 C283 1.378 . S
C280 H295 0.929 . S
C281 C280 1.362 . S
C281 C282 1.366 . S
C282 C279 1.365 . S
C282 C281 1.366 . S
C282 H296 0.930 . S
C283 C280 1.378 . S
C283 N284 1.315 . S
C283 H286 0.930 . S
N284 Co264 2.194 . S
N284 C279 1.328 . S
N284 C283 1.315 . S
H285 C279 0.929 . S
H286 C283 0.930 . S
H287 C275 0.929 . S
H288 C277 0.929 . S
O289 Co264 2.351 . S
O289 C292 1.244 . S
O290 Co264 2.155 . S
O290 C292 1.240 . S
O291 Co264 2.096 . S
O291 C272 1.247 . S
C292 O289 1.244 . S
C292 O290 1.240 . S
H293 C267 0.931 . S
H294 C276 0.931 . S
H295 C280 0.929 . S
H296 C282 0.930 . S
Co297 N301 2.148 . S
Co297 N307 2.128 . S
Co297 N317 2.194 . S
Co297 O322 2.351 . S
Co297 O323 2.155 . S
Co297 O324 2.096 . S
C298 N301 1.301 . S
C298 N302 1.328 . S
C298 H303 0.930 . S
C299 C300 1.333 . S
C299 N301 1.317 . S
C299 H304 0.930 . S
C300 C299 1.333 . S
C300 N302 1.350 . S
C300 H326 0.931 . S
N301 Co297 2.148 . S
N301 C298 1.301 . S
N301 C299 1.317 . S
N302 C298 1.328 . S
N302 C300 1.350 . S
H303 C298 0.930 . S
H304 C299 0.930 . S
C305 O306 1.224 . S
C305 O324 1.247 . S
O306 C305 1.224 . S
N307 Co297 2.128 . S
N307 C308 1.360 . S
N307 C310 1.311 1_556 S
C308 N307 1.360 . S
C308 C309 1.350 1_556 S
C308 H320 0.936 . S
C309 C308 1.350 1_554 S
C309 N311 1.375 . S
C309 H327 0.931 . S
C310 N307 1.311 1_554 S
C310 N311 1.347 . S
C310 H321 0.929 . S
N311 C309 1.375 . S
N311 C310 1.347 . S
C312 C315 1.365 . S
C312 N317 1.328 . S
C312 H318 0.929 . S
C313 C314 1.362 . S
C313 C316 1.375 1_554 S
C313 H328 0.929 . S
C314 C313 1.362 . S
C314 C315 1.366 1_554 S
C315 C312 1.365 . S
C315 C314 1.366 1_556 S
C315 H329 0.930 . S
C316 C313 1.375 1_556 S
C316 N317 1.318 . S
C316 H319 0.929 1_556 S
N317 Co297 2.194 . S
N317 C312 1.328 . S
N317 C316 1.318 . S
H318 C312 0.929 . S
H319 C316 0.929 1_554 S
H320 C308 0.936 . S
H321 C310 0.929 . S
O322 Co297 2.351 . S
O322 C325 1.244 . S
O323 Co297 2.155 . S
O323 C325 1.240 . S
O324 Co297 2.096 . S
O324 C305 1.247 . S
C325 O322 1.244 . S
C325 O323 1.240 . S
H326 C300 0.931 . S
H327 C309 0.931 . S
H328 C313 0.929 . S
H329 C315 0.930 . S
Co330 N334 2.148 . S
Co330 N340 2.128 . S
Co330 N350 2.194 . S
Co330 O355 2.351 . S
Co330 O356 2.155 . S
Co330 O357 2.096 . S
C331 N334 1.301 . S
C331 N335 1.328 . S
C331 H336 0.930 . S
C332 C333 1.333 . S
C332 N334 1.317 . S
C332 H337 0.930 . S
C333 C332 1.333 . S
C333 N335 1.350 . S
C333 H359 0.931 . S
N334 Co330 2.148 . S
N334 C331 1.301 . S
N334 C332 1.317 . S
N335 C331 1.328 . S
N335 C333 1.350 . S
H336 C331 0.930 . S
H337 C332 0.930 . S
C338 O339 1.224 . S
C338 O357 1.247 . S
O339 C338 1.224 . S
N340 Co330 2.128 . S
N340 C341 1.355 . S
N340 C343 1.311 . S
C341 N340 1.355 . S
C341 C342 1.363 . S
C341 H353 0.929 . S
C342 C341 1.363 . S
C342 N344 1.375 . S
C342 H360 0.931 . S
C343 N340 1.311 . S
C343 N344 1.347 . S
C343 H354 0.929 . S
N344 C342 1.375 . S
N344 C343 1.347 . S
C345 C348 1.365 . S
C345 N350 1.328 . S
C345 H351 0.929 . S
C346 C347 1.362 . S
C346 C349 1.378 . S
C346 H361 0.929 . S
C347 C346 1.362 . S
C347 C348 1.366 . S
C348 C345 1.365 . S
C348 C347 1.366 . S
C348 H362 0.930 . S
C349 C346 1.378 . S
C349 N350 1.315 . S
C349 H352 0.930 . S
N350 Co330 2.194 . S
N350 C345 1.328 . S
N350 C349 1.315 . S
H351 C345 0.929 . S
H352 C349 0.930 . S
H353 C341 0.929 . S
H354 C343 0.929 . S
O355 Co330 2.351 . S
O355 C358 1.244 . S
O356 Co330 2.155 . S
O356 C358 1.240 . S
O357 Co330 2.096 . S
O357 C338 1.247 . S
C358 O355 1.244 . S
C358 O356 1.240 . S
H359 C333 0.931 . S
H360 C342 0.931 . S
H361 C346 0.929 . S
H362 C348 0.930 . S
Co363 N367 2.148 . S
Co363 N373 2.128 . S
Co363 N383 2.194 . S
Co363 O388 2.351 . S
Co363 O389 2.155 . S
Co363 O390 2.096 . S
C364 N367 1.301 . S
C364 N368 1.328 . S
C364 H369 0.930 . S
C365 C366 1.333 . S
C365 N367 1.317 . S
C365 H370 0.930 . S
C366 C365 1.333 . S
C366 N368 1.350 . S
C366 H392 0.931 . S
N367 Co363 2.148 . S
N367 C364 1.301 . S
N367 C365 1.317 . S
N368 C364 1.328 . S
N368 C366 1.350 . S
H369 C364 0.930 . S
H370 C365 0.930 . S
C371 O372 1.224 . S
C371 O390 1.247 . S
O372 C371 1.224 . S
N373 Co363 2.128 . S
N373 C374 1.360 . S
N373 C376 1.311 1_556 S
C374 N373 1.360 . S
C374 C375 1.350 1_556 S
C374 H386 0.936 . S
C375 C374 1.350 1_554 S
C375 N377 1.375 . S
C375 H393 0.931 . S
C376 N373 1.311 1_554 S
C376 N377 1.347 . S
C376 H387 0.929 . S
N377 C375 1.375 . S
N377 C376 1.347 . S
C378 C381 1.365 . S
C378 N383 1.328 . S
C378 H384 0.929 . S
C379 C380 1.362 . S
C379 C382 1.375 1_554 S
C379 H394 0.929 . S
C380 C379 1.362 . S
C380 C381 1.366 1_554 S
C381 C378 1.365 . S
C381 C380 1.366 1_556 S
C381 H395 0.930 . S
C382 C379 1.375 1_556 S
C382 N383 1.319 . S
C382 H385 0.929 1_556 S
N383 Co363 2.194 . S
N383 C378 1.328 . S
N383 C382 1.319 . S
H384 C378 0.929 . S
H385 C382 0.929 1_554 S
H386 C374 0.936 . S
H387 C376 0.929 . S
O388 Co363 2.351 . S
O388 C391 1.244 . S
O389 Co363 2.155 . S
O389 C391 1.240 . S
O390 Co363 2.096 . S
O390 C371 1.247 . S
C391 O388 1.244 . S
C391 O389 1.240 . S
H392 C366 0.931 . S
H393 C375 0.931 . S
H394 C379 0.929 . S
H395 C381 0.930 . S
C396 C397 1.363 1_556 S
C396 C402 1.379 . S
C396 N404 1.358 . S
C397 C396 1.363 1_554 S
C397 C403 1.363 . S
C398 C399 1.363 1_554 S
C398 C403 1.379 . S
C398 N405 1.358 . S
C399 C398 1.363 1_556 S
C399 C402 1.363 . S
N400 C402 1.356 . S
N400 H412 0.984 . S
N400 H413 0.985 . S
N401 C403 1.356 . S
N401 H406 0.984 . S
N401 H407 0.985 . S
C402 C396 1.379 . S
C402 C399 1.363 . S
C402 N400 1.356 . S
C403 C397 1.363 . S
C403 C398 1.379 . S
C403 N401 1.356 . S
N404 C396 1.358 . S
N404 H410 0.993 . S
N404 H411 0.975 1_556 S
N405 C398 1.358 . S
N405 H408 0.975 1_554 S
N405 H409 0.993 . S
H406 N401 0.984 . S
H407 N401 0.985 . S
H408 N405 0.975 1_556 S
H409 N405 0.993 . S
H410 N404 0.993 . S
H411 N404 0.975 1_554 S
H412 N400 0.984 . S
H413 N400 0.985 . S
C414 C415 1.363 . S
C414 C420 1.379 1_655 S
C414 N422 1.356 . S
C415 C414 1.363 . S
C415 C421 1.363 . S
C416 C417 1.363 . S
C416 C421 1.379 1_455 S
C416 N423 1.356 . S
C417 C416 1.363 . S
C417 C420 1.363 . S
N418 C420 1.356 . S
N418 H430 0.984 . S
N418 H431 0.985 . S
N419 C421 1.356 . S
N419 H424 0.984 . S
N419 H425 0.985 . S
C420 C414 1.379 1_455 S
C420 C417 1.363 . S
C420 N418 1.356 . S
C421 C415 1.363 . S
C421 C416 1.379 1_655 S
C421 N419 1.356 . S
N422 C414 1.356 . S
N422 H428 0.984 . S
N422 H429 0.984 . S
N423 C416 1.356 . S
N423 H426 0.984 . S
N423 H427 0.985 . S
H424 N419 0.984 . S
H425 N419 0.985 . S
H426 N423 0.984 . S
H427 N423 0.985 . S
H428 N422 0.984 . S
H429 N422 0.984 . S
H430 N418 0.984 . S
H431 N418 0.985 . S
C432 C433 1.363 . S
C432 C438 1.379 1_545 S
C432 N440 1.356 . S
C433 C432 1.363 . S
C433 C439 1.363 1_554 S
C434 C435 1.363 . S
C434 C439 1.379 1_565 S
C434 N441 1.356 . S
C435 C434 1.363 . S
C435 C438 1.363 1_556 S
N436 C438 1.356 . S
N436 H448 0.984 . S
N436 H449 0.985 . S
N437 C439 1.356 . S
N437 H442 0.984 . S
N437 H443 0.985 . S
C438 C432 1.379 1_565 S
C438 C435 1.363 1_554 S
C438 N436 1.356 . S
C439 C433 1.363 1_556 S
C439 C434 1.379 1_545 S
C439 N437 1.356 . S
N440 C432 1.356 . S
N440 H446 0.984 . S
N440 H447 0.984 . S
N441 C434 1.356 . S
N441 H444 0.984 . S
N441 H445 0.985 . S
H442 N437 0.984 . S
H443 N437 0.985 . S
H444 N441 0.984 . S
H445 N441 0.985 . S
H446 N440 0.984 . S
H447 N440 0.984 . S
H448 N436 0.984 . S
H449 N436 0.985 . S
C450 C451 1.363 . S
C450 C456 1.379 . S
C450 N458 1.356 . S
C451 C450 1.363 . S
C451 C457 1.363 . S
C452 C453 1.363 . S
C452 C457 1.379 . S
C452 N459 1.356 . S
C453 C452 1.363 . S
C453 C456 1.363 . S
N454 C456 1.356 . S
N454 H466 0.984 . S
N454 H467 0.985 . S
N455 C457 1.356 . S
N455 H460 0.984 . S
N455 H461 0.985 . S
C456 C450 1.379 . S
C456 C453 1.363 . S
C456 N454 1.356 . S
C457 C451 1.363 . S
C457 C452 1.379 . S
C457 N455 1.356 . S
N458 C450 1.356 . S
N458 H464 0.984 . S
N458 H465 0.984 . S
N459 C452 1.356 . S
N459 H462 0.984 . S
N459 H463 0.985 . S
H460 N455 0.984 . S
H461 N455 0.985 . S
H462 N459 0.984 . S
H463 N459 0.985 . S
H464 N458 0.984 . S
H465 N458 0.984 . S
H466 N454 0.984 . S
H467 N454 0.985 . S
C468 C469 1.363 . S
C468 C474 1.379 1_455 S
C468 N476 1.356 . S
C469 C468 1.363 . S
C469 C475 1.363 1_556 S
C470 C471 1.363 . S
C470 C475 1.379 1_655 S
C470 N477 1.356 . S
C471 C470 1.363 . S
C471 C474 1.363 1_554 S
N472 C474 1.356 . S
N472 H484 0.984 . S
N472 H485 0.985 . S
N473 C475 1.356 . S
N473 H478 0.984 . S
N473 H479 0.985 . S
C474 C468 1.379 1_655 S
C474 C471 1.363 1_556 S
C474 N472 1.356 . S
C475 C469 1.363 1_554 S
C475 C470 1.379 1_455 S
C475 N473 1.356 . S
N476 C468 1.356 . S
N476 H482 0.984 . S
N476 H483 0.984 . S
N477 C470 1.356 . S
N477 H480 0.984 . S
N477 H481 0.985 . S
H478 N473 0.984 . S
H479 N473 0.985 . S
H480 N477 0.984 . S
H481 N477 0.985 . S
H482 N476 0.984 . S
H483 N476 0.984 . S
H484 N472 0.984 . S
H485 N472 0.985 . S
C486 C487 1.363 . S
C486 C492 1.379 1_565 S
C486 N494 1.356 . S
C487 C486 1.363 . S
C487 C493 1.363 . S
C488 C489 1.363 . S
C488 C493 1.379 1_545 S
C488 N495 1.356 . S
C489 C488 1.363 . S
C489 C492 1.363 . S
N490 C492 1.356 . S
N490 H502 0.984 . S
N490 H503 0.985 . S
N491 C493 1.356 . S
N491 H496 0.984 . S
N491 H497 0.985 . S
C492 C486 1.379 1_545 S
C492 C489 1.363 . S
C492 N490 1.356 . S
C493 C487 1.363 . S
C493 C488 1.379 1_565 S
C493 N491 1.356 . S
N494 C486 1.356 . S
N494 H500 0.984 . S
N494 H501 0.984 . S
N495 C488 1.356 . S
N495 H498 0.984 . S
N495 H499 0.985 . S
H496 N491 0.984 . S
H497 N491 0.985 . S
H498 N495 0.984 . S
H499 N495 0.985 . S
H500 N494 0.984 . S
H501 N494 0.984 . S
H502 N490 0.984 . S
H503 N490 0.985 . S
C504 C505 1.363 . S
C504 C510 1.379 . S
C504 N512 1.356 . S
C505 C504 1.363 . S
C505 C511 1.363 . S
C506 C507 1.363 1_554 S
C506 C511 1.379 1_554 S
C506 N513 1.356 . S
C507 C506 1.363 1_556 S
C507 C510 1.363 . S
N508 C510 1.356 . S
N508 H520 0.984 . S
N508 H521 0.985 . S
N509 C511 1.356 . S
N509 H514 0.984 . S
N509 H515 0.985 1_556 S
C510 C504 1.379 . S
C510 C507 1.363 . S
C510 N508 1.356 . S
C511 C505 1.363 . S
C511 C506 1.379 1_556 S
C511 N509 1.356 . S
N512 C504 1.356 . S
N512 H518 0.984 . S
N512 H519 0.984 . S
N513 C506 1.356 . S
N513 H516 0.984 . S
N513 H517 0.985 . S
H514 N509 0.984 . S
H515 N509 0.985 1_554 S
H516 N513 0.984 . S
H517 N513 0.985 . S
H518 N512 0.984 . S
H519 N512 0.984 . S
H520 N508 0.984 . S
H521 N508 0.985 . S
C522 C523 1.363 . S
C522 C528 1.379 . S
C522 N530 1.356 . S
C523 C522 1.363 . S
C523 C529 1.363 . S
C524 C525 1.363 . S
C524 C529 1.379 . S
C524 N531 1.356 . S
C525 C524 1.363 . S
C525 C528 1.363 . S
N526 C528 1.356 . S
N526 H538 0.984 . S
N526 H539 0.985 . S
N527 C529 1.356 . S
N527 H532 0.984 . S
N527 H533 0.985 . S
C528 C522 1.379 . S
C528 C525 1.363 . S
C528 N526 1.356 . S
C529 C523 1.363 . S
C529 C524 1.379 . S
C529 N527 1.356 . S
N530 C522 1.356 . S
N530 H536 0.984 . S
N530 H537 0.984 . S
N531 C524 1.356 . S
N531 H534 0.984 . S
N531 H535 0.985 . S
H532 N527 0.984 . S
H533 N527 0.985 . S
H534 N531 0.984 . S
H535 N531 0.985 . S
H536 N530 0.984 . S
H537 N530 0.984 . S
H538 N526 0.984 . S
H539 N526 0.985 . S
C540 C541 1.363 . S
C540 C546 1.379 . S
C540 N548 1.356 . S
C541 C540 1.363 . S
C541 C547 1.363 . S
C542 C543 1.363 1_554 S
C542 C547 1.379 1_554 S
C542 N549 1.356 . S
C543 C542 1.363 1_556 S
C543 C546 1.363 . S
N544 C546 1.356 . S
N544 H556 0.984 . S
N544 H557 0.985 . S
N545 C547 1.356 1_554 S
N545 H550 0.984 1_554 S
N545 H551 0.985 . S
C546 C540 1.379 . S
C546 C543 1.363 . S
C546 N544 1.356 . S
C547 C541 1.363 . S
C547 C542 1.379 1_556 S
C547 N545 1.356 1_556 S
N548 C540 1.356 . S
N548 H554 0.984 . S
N548 H555 0.984 . S
N549 C542 1.356 . S
N549 H552 0.984 . S
N549 H553 0.985 . S
H550 N545 0.984 1_556 S
H551 N545 0.985 . S
H552 N549 0.984 . S
H553 N549 0.985 . S
H554 N548 0.984 . S
H555 N548 0.984 . S
H556 N544 0.984 . S
H557 N544 0.985 . S
C558 C559 1.363 . S
C558 C564 1.379 . S
C558 N566 1.356 . S
C559 C558 1.363 . S
C559 C565 1.363 . S
C560 C561 1.363 . S
C560 C565 1.379 . S
C560 N567 1.356 . S
C561 C560 1.363 . S
C561 C564 1.363 . S
N562 C564 1.356 . S
N562 H574 0.984 . S
N562 H575 0.985 . S
N563 C565 1.356 . S
N563 H568 0.984 . S
N563 H569 0.985 . S
C564 C558 1.379 . S
C564 C561 1.363 . S
C564 N562 1.356 . S
C565 C559 1.363 . S
C565 C560 1.379 . S
C565 N563 1.356 . S
N566 C558 1.356 . S
N566 H572 0.984 . S
N566 H573 0.984 . S
N567 C560 1.356 . S
N567 H570 0.984 . S
N567 H571 0.985 . S
H568 N563 0.984 . S
H569 N563 0.985 . S
H570 N567 0.984 . S
H571 N567 0.985 . S
H572 N566 0.984 . S
H573 N566 0.984 . S
H574 N562 0.984 . S
H575 N562 0.985 . S
C576 C577 1.363 1_554 S
C576 C582 1.379 1_554 S
C576 N584 1.356 . S
C577 C576 1.363 1_556 S
C577 C583 1.363 . S
C578 C579 1.363 . S
C578 C583 1.379 . S
C578 N585 1.356 . S
C579 C578 1.363 . S
C579 C582 1.363 . S
N580 C582 1.356 . S
N580 H592 0.984 1_556 S
N580 H593 0.985 . S
N581 C583 1.356 . S
N581 H586 0.984 . S
N581 H587 0.985 . S
C582 C576 1.379 1_556 S
C582 C579 1.363 . S
C582 N580 1.356 . S
C583 C577 1.363 . S
C583 C578 1.379 . S
C583 N581 1.356 . S
N584 C576 1.356 . S
N584 H590 0.984 . S
N584 H591 0.984 . S
N585 C578 1.356 . S
N585 H588 0.984 . S
N585 H589 0.985 . S
H586 N581 0.984 . S
H587 N581 0.985 . S
H588 N585 0.984 . S
H589 N585 0.985 . S
H590 N584 0.984 . S
H591 N584 0.984 . S
H592 N580 0.984 1_554 S
H593 N580 0.985 . S
C594 C595 1.363 . S
C594 C600 1.379 . S
C594 N602 1.356 . S
C595 C594 1.363 . S
C595 C601 1.363 . S
C596 C597 1.363 . S
C596 C601 1.379 . S
C596 N603 1.356 . S
C597 C596 1.363 . S
C597 C600 1.363 . S
N598 C600 1.356 . S
N598 H610 0.984 . S
N598 H611 0.985 . S
N599 C601 1.356 . S
N599 H604 0.984 . S
N599 H605 0.985 . S
C600 C594 1.379 . S
C600 C597 1.363 . S
C600 N598 1.356 . S
C601 C595 1.363 . S
C601 C596 1.379 . S
C601 N599 1.356 . S
N602 C594 1.356 . S
N602 H608 0.984 . S
N602 H609 0.984 . S
N603 C596 1.356 . S
N603 H606 0.984 . S
N603 H607 0.985 . S
H604 N599 0.984 . S
H605 N599 0.985 . S
H606 N603 0.984 . S
H607 N603 0.985 . S
H608 N602 0.984 . S
H609 N602 0.984 . S
H610 N598 0.984 . S
H611 N598 0.985 . S
C612 C613 1.363 . S
C612 C618 1.379 . S
C612 N620 1.356 . S
C613 C612 1.363 . S
C613 C619 1.363 . S
C614 C615 1.363 . S
C614 C619 1.379 . S
C614 N621 1.356 . S
C615 C614 1.363 . S
C615 C618 1.363 . S
N616 C618 1.356 . S
N616 H628 0.984 . S
N616 H629 0.985 . S
N617 C619 1.356 . S
N617 H622 0.984 . S
N617 H623 0.985 . S
C618 C612 1.379 . S
C618 C615 1.363 . S
C618 N616 1.356 . S
C619 C613 1.363 . S
C619 C614 1.379 . S
C619 N617 1.356 . S
N620 C612 1.356 . S
N620 H626 0.984 . S
N620 H627 0.984 . S
N621 C614 1.356 . S
N621 H624 0.984 . S
N621 H625 0.985 . S
H622 N617 0.984 . S
H623 N617 0.985 . S
H624 N621 0.984 . S
H625 N621 0.985 . S
H626 N620 0.984 . S
H627 N620 0.984 . S
H628 N616 0.984 . S
H629 N616 0.985 . S
C630 C631 1.363 . S
C630 C636 1.379 1_554 S
C630 N638 1.356 1_554 S
C631 C630 1.363 . S
C631 C637 1.363 . S
C632 C633 1.363 . S
C632 C637 1.379 . S
C632 N639 1.356 . S
C633 C632 1.363 . S
C633 C636 1.363 1_554 S
N634 C636 1.356 . S
N634 H646 0.984 . S
N634 H647 0.985 . S
N635 C637 1.356 . S
N635 H640 0.984 . S
N635 H641 0.985 . S
C636 C630 1.379 1_556 S
C636 C633 1.363 1_556 S
C636 N634 1.356 . S
C637 C631 1.363 . S
C637 C632 1.379 . S
C637 N635 1.356 . S
N638 C630 1.356 1_556 S
N638 H644 0.984 . S
N638 H645 0.984 1_556 S
N639 C632 1.356 . S
N639 H642 0.984 . S
N639 H643 0.985 . S
H640 N635 0.984 . S
H641 N635 0.985 . S
H642 N639 0.984 . S
H643 N639 0.985 . S
H644 N638 0.984 . S
H645 N638 0.984 1_554 S
H646 N634 0.984 . S
H647 N634 0.985 . S
C648 C649 1.363 . S
C648 C654 1.379 . S
C648 N656 1.356 . S
C649 C648 1.363 . S
C649 C655 1.363 . S
C650 C651 1.363 . S
C650 C655 1.379 . S
C650 N657 1.356 . S
C651 C650 1.363 . S
C651 C654 1.363 . S
N652 C654 1.356 . S
N652 H664 0.984 . S
N652 H665 0.985 . S
N653 C655 1.356 . S
N653 H658 0.984 . S
N653 H659 0.985 . S
C654 C648 1.379 . S
C654 C651 1.363 . S
C654 N652 1.356 . S
C655 C649 1.363 . S
C655 C650 1.379 . S
C655 N653 1.356 . S
N656 C648 1.356 . S
N656 H662 0.984 . S
N656 H663 0.984 . S
N657 C650 1.356 . S
N657 H660 0.984 . S
N657 H661 0.985 . S
H658 N653 0.984 . S
H659 N653 0.985 . S
H660 N657 0.984 . S
H661 N657 0.985 . S
H662 N656 0.984 . S
H663 N656 0.984 . S
H664 N652 0.984 . S
H665 N652 0.985 . S
C666 C667 1.362 1_556 S
C666 C672 1.371 1_556 S
C666 N674 1.366 . S
C667 C666 1.362 1_554 S
C667 C673 1.363 . S
C668 C669 1.363 . S
C668 C673 1.379 . S
C668 N675 1.356 . S
C669 C668 1.363 . S
C669 C672 1.363 . S
N670 C672 1.356 . S
N670 H682 0.984 . S
N670 H683 0.985 . S
N671 C673 1.356 . S
N671 H676 0.984 . S
N671 H677 0.985 . S
C672 C666 1.371 1_554 S
C672 C669 1.363 . S
C672 N670 1.356 . S
C673 C667 1.363 . S
C673 C668 1.379 . S
C673 N671 1.356 . S
N674 C666 1.366 . S
N674 H680 0.984 . S
N674 H681 0.984 . S
N675 C668 1.356 . S
N675 H678 0.984 . S
N675 H679 0.985 . S
H676 N671 0.984 . S
H677 N671 0.985 . S
H678 N675 0.984 . S
H679 N675 0.985 . S
H680 N674 0.984 . S
H681 N674 0.984 . S
H682 N670 0.984 . S
H683 N670 0.985 . S
C684 C685 1.363 . S
C684 C690 1.379 . S
C684 N692 1.356 . S
C685 C684 1.363 . S
C685 C691 1.363 . S
C686 C687 1.363 . S
C686 C691 1.379 . S
C686 N693 1.356 . S
C687 C686 1.363 . S
C687 C690 1.363 . S
N688 C690 1.356 . S
N688 H700 0.984 . S
N688 H701 0.985 . S
N689 C691 1.356 . S
N689 H694 0.984 . S
N689 H695 0.985 . S
C690 C684 1.379 . S
C690 C687 1.363 . S
C690 N688 1.356 . S
C691 C685 1.363 . S
C691 C686 1.379 . S
C691 N689 1.356 . S
N692 C684 1.356 . S
N692 H698 0.984 . S
N692 H699 0.984 . S
N693 C686 1.356 . S
N693 H696 0.984 . S
N693 H697 0.985 . S
H694 N689 0.984 . S
H695 N689 0.985 . S
H696 N693 0.984 . S
H697 N693 0.985 . S
H698 N692 0.984 . S
H699 N692 0.984 . S
H700 N688 0.984 . S
H701 N688 0.985 . S
C702 C703 1.363 . S
C702 C708 1.379 1_554 S
C702 N710 1.356 . S
C703 C702 1.363 . S
C703 C709 1.363 . S
C704 C705 1.363 . S
C704 C709 1.379 . S
C704 N711 1.356 . S
C705 C704 1.363 . S
C705 C708 1.363 1_554 S
N706 C708 1.356 . S
N706 H718 0.984 . S
N706 H719 0.985 . S
N707 C709 1.356 . S
N707 H712 0.984 . S
N707 H713 0.985 . S
C708 C702 1.379 1_556 S
C708 C705 1.363 1_556 S
C708 N706 1.356 . S
C709 C703 1.363 . S
C709 C704 1.379 . S
C709 N707 1.356 . S
N710 C702 1.356 . S
N710 H716 0.984 1_554 S
N710 H717 0.984 . S
N711 C704 1.356 . S
N711 H714 0.984 . S
N711 H715 0.985 . S
H712 N707 0.984 . S
H713 N707 0.985 . S
H714 N711 0.984 . S
H715 N711 0.985 . S
H716 N710 0.984 1_556 S
H717 N710 0.984 . S
H718 N706 0.984 . S
H719 N706 0.985 . S
C720 C721 1.363 . S
C720 C726 1.379 . S
C720 N728 1.356 . S
C721 C720 1.363 . S
C721 C727 1.363 . S
C722 C723 1.363 . S
C722 C727 1.379 . S
C722 N729 1.356 . S
C723 C722 1.363 . S
C723 C726 1.363 . S
N724 C726 1.356 . S
N724 H736 0.984 . S
N724 H737 0.985 . S
N725 C727 1.356 . S
N725 H730 0.984 . S
N725 H731 0.985 . S
C726 C720 1.379 . S
C726 C723 1.363 . S
C726 N724 1.356 . S
C727 C721 1.363 . S
C727 C722 1.379 . S
C727 N725 1.356 . S
N728 C720 1.356 . S
N728 H734 0.984 . S
N728 H735 0.984 . S
N729 C722 1.356 . S
N729 H732 0.984 . S
N729 H733 0.985 . S
H730 N725 0.984 . S
H731 N725 0.985 . S
H732 N729 0.984 . S
H733 N729 0.985 . S
H734 N728 0.984 . S
H735 N728 0.984 . S
H736 N724 0.984 . S
H737 N724 0.985 . S
C738 C739 1.363 . S
C738 C744 1.379 . S
C738 N746 1.356 . S
C739 C738 1.363 . S
C739 C745 1.363 . S
C740 C741 1.363 . S
C740 C745 1.379 . S
C740 N747 1.356 . S
C741 C740 1.363 . S
C741 C744 1.363 . S
N742 C744 1.356 . S
N742 H754 0.984 . S
N742 H755 0.985 . S
N743 C745 1.356 . S
N743 H748 0.984 . S
N743 H749 0.985 . S
C744 C738 1.379 . S
C744 C741 1.363 . S
C744 N742 1.356 . S
C745 C739 1.363 . S
C745 C740 1.379 . S
C745 N743 1.356 . S
N746 C738 1.356 . S
N746 H752 0.984 . S
N746 H753 0.984 . S
N747 C740 1.356 . S
N747 H750 0.984 . S
N747 H751 0.985 . S
H748 N743 0.984 . S
H749 N743 0.985 . S
H750 N747 0.984 . S
H751 N747 0.985 . S
H752 N746 0.984 . S
H753 N746 0.984 . S
H754 N742 0.984 . S
H755 N742 0.985 . S
C756 C757 1.363 . S
C756 C762 1.379 . S
C756 N764 1.356 . S
C757 C756 1.363 . S
C757 C763 1.363 . S
C758 C759 1.363 . S
C758 C763 1.379 . S
C758 N765 1.356 . S
C759 C758 1.363 . S
C759 C762 1.363 . S
N760 C762 1.356 . S
N760 H772 0.984 . S
N760 H773 0.985 . S
N761 C763 1.356 . S
N761 H766 0.984 . S
N761 H767 0.985 . S
C762 C756 1.379 . S
C762 C759 1.363 . S
C762 N760 1.356 . S
C763 C757 1.363 . S
C763 C758 1.379 . S
C763 N761 1.356 . S
N764 C756 1.356 . S
N764 H770 0.984 . S
N764 H771 0.984 . S
N765 C758 1.356 . S
N765 H768 0.984 . S
N765 H769 0.985 . S
H766 N761 0.984 . S
H767 N761 0.985 . S
H768 N765 0.984 . S
H769 N765 0.985 . S
H770 N764 0.984 . S
H771 N764 0.984 . S
H772 N760 0.984 . S
H773 N760 0.985 . S
C774 C775 1.363 . S
C774 C780 1.379 . S
C774 N782 1.356 . S
C775 C774 1.363 . S
C775 C781 1.363 . S
C776 C777 1.363 . S
C776 C781 1.379 . S
C776 N783 1.356 . S
C777 C776 1.363 . S
C777 C780 1.363 . S
N778 C780 1.356 . S
N778 H790 0.984 . S
N778 H791 0.985 . S
N779 C781 1.356 . S
N779 H784 0.984 . S
N779 H785 0.985 . S
C780 C774 1.379 . S
C780 C777 1.363 . S
C780 N778 1.356 . S
C781 C775 1.363 . S
C781 C776 1.379 . S
C781 N779 1.356 . S
N782 C774 1.356 . S
N782 H788 0.984 . S
N782 H789 0.984 . S
N783 C776 1.356 . S
N783 H786 0.984 . S
N783 H787 0.985 . S
H784 N779 0.984 . S
H785 N779 0.985 . S
H786 N783 0.984 . S
H787 N783 0.985 . S
H788 N782 0.984 . S
H789 N782 0.984 . S
H790 N778 0.984 . S
H791 N778 0.985 . S
C792 C793 1.363 . S
C792 C798 1.379 . S
C792 N800 1.356 . S
C793 C792 1.363 . S
C793 C799 1.363 . S
C794 C795 1.363 . S
C794 C799 1.379 . S
C794 N801 1.356 . S
C795 C794 1.363 . S
C795 C798 1.363 . S
N796 C798 1.356 . S
N796 H808 0.984 . S
N796 H809 0.985 . S
N797 C799 1.356 . S
N797 H802 0.984 . S
N797 H803 0.985 . S
C798 C792 1.379 . S
C798 C795 1.363 . S
C798 N796 1.356 . S
C799 C793 1.363 . S
C799 C794 1.379 . S
C799 N797 1.356 . S
N800 C792 1.356 . S
N800 H806 0.984 . S
N800 H807 0.984 . S
N801 C794 1.356 . S
N801 H804 0.984 . S
N801 H805 0.985 . S
H802 N797 0.984 . S
H803 N797 0.985 . S
H804 N801 0.984 . S
H805 N801 0.985 . S
H806 N800 0.984 . S
H807 N800 0.984 . S
H808 N796 0.984 . S
H809 N796 0.985 . S
C810 C811 1.363 . S
C810 C816 1.379 . S
C810 N818 1.356 . S
C811 C810 1.363 . S
C811 C817 1.363 . S
C812 C813 1.363 . S
C812 C817 1.379 . S
C812 N819 1.356 . S
C813 C812 1.363 . S
C813 C816 1.363 . S
N814 C816 1.356 . S
N814 H826 0.984 . S
N814 H827 0.985 . S
N815 C817 1.356 . S
N815 H820 0.984 . S
N815 H821 0.985 . S
C816 C810 1.379 . S
C816 C813 1.363 . S
C816 N814 1.356 . S
C817 C811 1.363 . S
C817 C812 1.379 . S
C817 N815 1.356 . S
N818 C810 1.356 . S
N818 H824 0.984 . S
N818 H825 0.984 . S
N819 C812 1.356 . S
N819 H822 0.984 . S
N819 H823 0.985 . S
H820 N815 0.984 . S
H821 N815 0.985 . S
H822 N819 0.984 . S
H823 N819 0.985 . S
H824 N818 0.984 . S
H825 N818 0.984 . S
H826 N814 0.984 . S
H827 N814 0.985 . S
C828 C829 1.363 . S
C828 C834 1.379 . S
C828 N836 1.356 . S
C829 C828 1.363 . S
C829 C835 1.363 . S
C830 C831 1.363 . S
C830 C835 1.379 . S
C830 N837 1.356 . S
C831 C830 1.363 . S
C831 C834 1.363 . S
N832 C834 1.356 . S
N832 H844 0.984 . S
N832 H845 0.985 . S
N833 C835 1.356 . S
N833 H838 0.984 . S
N833 H839 0.985 . S
C834 C828 1.379 . S
C834 C831 1.363 . S
C834 N832 1.356 . S
C835 C829 1.363 . S
C835 C830 1.379 . S
C835 N833 1.356 . S
N836 C828 1.356 . S
N836 H842 0.984 . S
N836 H843 0.984 . S
N837 C830 1.356 . S
N837 H840 0.984 . S
N837 H841 0.985 . S
H838 N833 0.984 . S
H839 N833 0.985 . S
H840 N837 0.984 . S
H841 N837 0.985 . S
H842 N836 0.984 . S
H843 N836 0.984 . S
H844 N832 0.984 . S
H845 N832 0.985 . S
C846 C847 1.363 . S
C846 C852 1.379 . S
C846 N854 1.356 . S
C847 C846 1.363 . S
C847 C853 1.363 . S
C848 C849 1.363 . S
C848 C853 1.379 . S
C848 N855 1.356 . S
C849 C848 1.363 . S
C849 C852 1.363 . S
N850 C852 1.356 . S
N850 H862 0.984 . S
N850 H863 0.985 . S
N851 C853 1.356 . S
N851 H856 0.984 . S
N851 H857 0.985 . S
C852 C846 1.379 . S
C852 C849 1.363 . S
C852 N850 1.356 . S
C853 C847 1.363 . S
C853 C848 1.379 . S
C853 N851 1.356 . S
N854 C846 1.356 . S
N854 H860 0.984 . S
N854 H861 0.984 . S
N855 C848 1.356 . S
N855 H858 0.984 . S
N855 H859 0.985 . S
H856 N851 0.984 . S
H857 N851 0.985 . S
H858 N855 0.984 . S
H859 N855 0.985 . S
H860 N854 0.984 . S
H861 N854 0.984 . S
H862 N850 0.984 . S
H863 N850 0.985 . S
C864 C865 1.363 . S
C864 C870 1.379 . S
C864 N872 1.356 . S
C865 C864 1.363 . S
C865 C871 1.363 . S
C866 C867 1.363 . S
C866 C871 1.379 . S
C866 N873 1.356 . S
C867 C866 1.363 . S
C867 C870 1.363 . S
N868 C870 1.356 . S
N868 H880 0.984 . S
N868 H881 0.985 . S
N869 C871 1.356 . S
N869 H874 0.984 . S
N869 H875 0.985 . S
C870 C864 1.379 . S
C870 C867 1.363 . S
C870 N868 1.356 . S
C871 C865 1.363 . S
C871 C866 1.379 . S
C871 N869 1.356 . S
N872 C864 1.356 . S
N872 H878 0.984 . S
N872 H879 0.984 . S
N873 C866 1.356 . S
N873 H876 0.984 . S
N873 H877 0.985 . S
H874 N869 0.984 . S
H875 N869 0.985 . S
H876 N873 0.984 . S
H877 N873 0.985 . S
H878 N872 0.984 . S
H879 N872 0.984 . S
H880 N868 0.984 . S
H881 N868 0.985 . S
C882 C883 1.363 . S
C882 C888 1.379 . S
C882 N890 1.356 . S
C883 C882 1.363 . S
C883 C889 1.363 . S
C884 C885 1.363 . S
C884 C889 1.379 . S
C884 N891 1.356 . S
C885 C884 1.363 . S
C885 C888 1.363 . S
N886 C888 1.356 . S
N886 H898 0.984 . S
N886 H899 0.985 . S
N887 C889 1.356 . S
N887 H892 0.984 . S
N887 H893 0.985 . S
C888 C882 1.379 . S
C888 C885 1.363 . S
C888 N886 1.356 . S
C889 C883 1.363 . S
C889 C884 1.379 . S
C889 N887 1.356 . S
N890 C882 1.356 . S
N890 H896 0.984 . S
N890 H897 0.984 . S
N891 C884 1.356 . S
N891 H894 0.984 . S
N891 H895 0.985 . S
H892 N887 0.984 . S
H893 N887 0.985 . S
H894 N891 0.984 . S
H895 N891 0.985 . S
H896 N890 0.984 . S
H897 N890 0.984 . S
H898 N886 0.984 . S
H899 N886 0.985 . S
C900 C901 1.363 . S
C900 C906 1.379 . S
C900 N908 1.356 . S
C901 C900 1.363 . S
C901 C907 1.363 . S
C902 C903 1.363 . S
C902 C907 1.379 . S
C902 N909 1.356 . S
C903 C902 1.363 . S
C903 C906 1.363 . S
N904 C906 1.356 . S
N904 H916 0.984 . S
N904 H917 0.985 . S
N905 C907 1.356 . S
N905 H910 0.984 . S
N905 H911 0.985 . S
C906 C900 1.379 . S
C906 C903 1.363 . S
C906 N904 1.356 . S
C907 C901 1.363 . S
C907 C902 1.379 . S
C907 N905 1.356 . S
N908 C900 1.356 . S
N908 H914 0.984 . S
N908 H915 0.984 . S
N909 C902 1.356 . S
N909 H912 0.984 . S
N909 H913 0.985 . S
H910 N905 0.984 . S
H911 N905 0.985 . S
H912 N909 0.984 . S
H913 N909 0.985 . S
H914 N908 0.984 . S
H915 N908 0.984 . S
H916 N904 0.984 . S
H917 N904 0.985 . S
C918 C919 1.363 . S
C918 C924 1.379 . S
C918 N926 1.356 . S
C919 C918 1.363 . S
C919 C925 1.363 . S
C920 C921 1.363 . S
C920 C925 1.379 . S
C920 N927 1.356 . S
C921 C920 1.363 . S
C921 C924 1.363 . S
N922 C924 1.356 . S
N922 H934 0.984 . S
N922 H935 0.985 . S
N923 C925 1.356 . S
N923 H928 0.984 . S
N923 H929 0.985 . S
C924 C918 1.379 . S
C924 C921 1.363 . S
C924 N922 1.356 . S
C925 C919 1.363 . S
C925 C920 1.379 . S
C925 N923 1.356 . S
N926 C918 1.356 . S
N926 H932 0.984 . S
N926 H933 0.984 . S
N927 C920 1.356 . S
N927 H930 0.984 . S
N927 H931 0.985 . S
H928 N923 0.984 . S
H929 N923 0.985 . S
H930 N927 0.984 . S
H931 N927 0.985 . S
H932 N926 0.984 . S
H933 N926 0.984 . S
H934 N922 0.984 . S
H935 N922 0.985 . S
C397 C314 1.271 . S
C399 C17 1.271 . S
C415 C50 1.271 . S
C417 C347 1.271 . S
C433 C380 1.271 . S
C435 C83 1.271 . S
C451 C116 1.270 . S
C453 C215 1.270 . S
C469 C149 1.271 . S
C471 C248 1.271 . S
C487 C281 1.271 . S
C489 C182 1.271 . S
C505 N14 1.370 . S
C507 C140 1.703 1_556 S
C523 C173 1.703 . S
C525 N47 1.370 . S
C541 N80 1.369 . S
C543 C8 1.702 1_556 S
C559 N113 1.370 . S
C561 C41 1.702 . S
C577 C74 1.702 1_556 S
C579 N146 1.369 . S
C595 C107 1.702 . S
C597 N179 1.369 . S
C613 C272 1.702 . S
C615 N212 1.370 . S
C631 N245 1.369 . S
C633 C305 1.702 1_554 S
C649 C338 1.703 . S
C651 N278 1.370 . S
C667 C371 1.703 1_554 S
C669 N311 1.370 . S
C685 C206 1.702 . S
C687 N344 1.369 . S
C703 N377 1.369 . S
C705 C239 1.702 1_554 S
C721 C358 1.802 . S
C723 C28 1.802 . S
C739 C391 1.802 . S
C741 C61 1.802 . S
C757 C94 1.802 . S
C759 C226 1.801 . S
C775 C127 1.801 . S
C777 C259 1.802 . S
C793 C292 1.802 . S
C795 C160 1.802 . S
C811 C193 1.802 . S
C813 C325 1.802 . S
C829 N203 0.814 . S
C831 N5 0.814 . S
C847 N236 0.814 . S
C849 N38 0.814 . S
C865 N71 0.814 . S
C867 N269 0.814 . S
C883 N302 0.814 . S
C885 N104 0.814 . S
C901 N137 0.814 . S
C903 N335 0.814 . S
C919 N368 0.814 . S
C921 N170 0.814 . S
