# Generated by pormake.
# Topology wjy, (5)-cn, num edge types: 1
# Building blocks:
#     Node 0, Type 0, BuildingBlock: BEQFEK_clean_sbu_0, # of connection points: 5
#     Node 1, Type 0, BuildingBlock: BEQFEK_clean_sbu_0, # of connection points: 5
#     Node 2, Type 0, BuildingBlock: BEQFEK_clean_sbu_0, # of connection points: 5
#     Node 3, Type 0, BuildingBlock: BEQFEK_clean_sbu_0, # of connection points: 5
#     Node 4, Type 0, BuildingBlock: BEQFEK_clean_sbu_0, # of connection points: 5
#     Node 5, Type 0, BuildingBlock: BEQFEK_clean_sbu_0, # of connection points: 5
#     Node 6, Type 0, BuildingBlock: BEQFEK_clean_sbu_0, # of connection points: 5
#     Node 7, Type 0, BuildingBlock: BEQFEK_clean_sbu_0, # of connection points: 5
#     Node 8, Type 0, BuildingBlock: BEQFEK_clean_sbu_0, # of connection points: 5
#     Node 9, Type 0, BuildingBlock: BEQFEK_clean_sbu_0, # of connection points: 5
#     Node 10, Type 0, BuildingBlock: BEQFEK_clean_sbu_0, # of connection points: 5
#     Node 11, Type 0, BuildingBlock: BEQFEK_clean_sbu_0, # of connection points: 5
#     Edge 12, Type (0, 0), BuildingBlock: TEMPAE_clean_linker_10, # of connection points: 2
#     Edge 13, Type (0, 0), BuildingBlock: TEMPAE_clean_linker_10, # of connection points: 2
#     Edge 14, Type (0, 0), BuildingBlock: TEMPAE_clean_linker_10, # of connection points: 2
#     Edge 15, Type (0, 0), BuildingBlock: TEMPAE_clean_linker_10, # of connection points: 2
#     Edge 16, Type (0, 0), BuildingBlock: TEMPAE_clean_linker_10, # of connection points: 2
#     Edge 17, Type (0, 0), BuildingBlock: TEMPAE_clean_linker_10, # of connection points: 2
#     Edge 18, Type (0, 0), BuildingBlock: TEMPAE_clean_linker_10, # of connection points: 2
#     Edge 19, Type (0, 0), BuildingBlock: TEMPAE_clean_linker_10, # of connection points: 2
#     Edge 20, Type (0, 0), BuildingBlock: TEMPAE_clean_linker_10, # of connection points: 2
#     Edge 21, Type (0, 0), BuildingBlock: TEMPAE_clean_linker_10, # of connection points: 2
#     Edge 22, Type (0, 0), BuildingBlock: TEMPAE_clean_linker_10, # of connection points: 2
#     Edge 23, Type (0, 0), BuildingBlock: TEMPAE_clean_linker_10, # of connection points: 2
#     Edge 24, Type (0, 0), BuildingBlock: TEMPAE_clean_linker_10, # of connection points: 2
#     Edge 25, Type (0, 0), BuildingBlock: TEMPAE_clean_linker_10, # of connection points: 2
#     Edge 26, Type (0, 0), BuildingBlock: TEMPAE_clean_linker_10, # of connection points: 2
#     Edge 27, Type (0, 0), BuildingBlock: TEMPAE_clean_linker_10, # of connection points: 2
#     Edge 28, Type (0, 0), BuildingBlock: TEMPAE_clean_linker_10, # of connection points: 2
#     Edge 29, Type (0, 0), BuildingBlock: TEMPAE_clean_linker_10, # of connection points: 2
#     Edge 30, Type (0, 0), BuildingBlock: TEMPAE_clean_linker_10, # of connection points: 2
#     Edge 31, Type (0, 0), BuildingBlock: TEMPAE_clean_linker_10, # of connection points: 2
#     Edge 32, Type (0, 0), BuildingBlock: TEMPAE_clean_linker_10, # of connection points: 2
#     Edge 33, Type (0, 0), BuildingBlock: TEMPAE_clean_linker_10, # of connection points: 2
#     Edge 34, Type (0, 0), BuildingBlock: TEMPAE_clean_linker_10, # of connection points: 2
#     Edge 35, Type (0, 0), BuildingBlock: TEMPAE_clean_linker_10, # of connection points: 2
#     Edge 36, Type (0, 0), BuildingBlock: TEMPAE_clean_linker_10, # of connection points: 2
#     Edge 37, Type (0, 0), BuildingBlock: TEMPAE_clean_linker_10, # of connection points: 2
#     Edge 38, Type (0, 0), BuildingBlock: TEMPAE_clean_linker_10, # of connection points: 2
#     Edge 39, Type (0, 0), BuildingBlock: TEMPAE_clean_linker_10, # of connection points: 2
#     Edge 40, Type (0, 0), BuildingBlock: TEMPAE_clean_linker_10, # of connection points: 2
#     Edge 41, Type (0, 0), BuildingBlock: TEMPAE_clean_linker_10, # of connection points: 2
# Relax obj value: 0.133
# Max RMSD: 0.159
# Mean RMSD: 0.159
data_MOF--net-wjy--node1-BEQFEK_clean_sbu_0--edge1-TEMPAE_clean_linker_10
_symmetry_space_group_name_H-M    P1
_symmetry_Int_Tables_number       1
_symmetry_cell_setting            triclinic
loop_
_symmetry_equiv_pos_as_xyz
'x, y, z'
_cell_length_a     74.234552
_cell_length_b     74.243738
_cell_length_c     19.142093
_cell_angle_alpha  89.98632
_cell_angle_beta   90.035098
_cell_angle_gamma 120.00354
loop_
_atom_site_label
_atom_site_type_symbol
_atom_site_fract_x
_atom_site_fract_y
_atom_site_fract_z
_atom_type_partial_charge
Co0 Co 0.45222 0.11046 0.16898 0.0
Co1 Co 0.47222 0.11863 0.02104 0.0
C2 C 0.43619 0.0767 0.06524 0.0
O3 O 0.43366 0.08305 0.12428 0.0
O4 O 0.45071 0.08882 0.0242 0.0
C5 C 0.44113 0.09722 0.30717 0.0
O6 O 0.44206 0.0811 0.28347 0.0
C7 C 0.46946 0.11691 0.86931 0.0
C8 C 0.50051 0.14197 0.83634 0.0
C9 C 0.48113 0.12731 0.81108 0.0
N10 N 0.48121 0.12537 0.92649 0.0
N11 N 0.49981 0.14022 0.90652 0.0
C12 C 0.44782 0.0986 0.87147 0.0
H13 H 0.43816 0.10187 0.9078 0.0
H14 H 0.44034 0.09423 0.8195 0.0
H15 H 0.44852 0.08502 0.89184 0.0
C16 C 0.45011 0.14823 0.13254 0.0
N17 N 0.45418 0.13295 0.11646 0.0
N18 N 0.46125 0.13558 0.05218 0.0
C19 C 0.46093 0.15205 0.02385 0.0
C20 C 0.45411 0.16087 0.0741 0.0
C21 C 0.44493 0.15186 0.20491 0.0
H22 H 0.45428 0.14889 0.24348 0.0
H23 H 0.42824 0.14086 0.21544 0.0
H24 H 0.44818 0.16803 0.2122 0.0
O25 O 0.48007 0.11396 0.18256 0.0
O26 O 0.49627 0.12302 0.0804 0.0
H27 H 0.48309 0.16617 0.94135 0.0
H28 H 0.46045 0.1692 0.93268 0.0
C29 C 0.46602 0.15849 0.94903 0.0
H30 H 0.45843 0.14458 0.9151 0.0
H31 H 0.51189 0.14942 0.94084 0.0
O32 O 0.44304 0.11115 0.2645 0.0
C33 C 0.49622 0.11946 0.14561 0.0
Co34 Co 0.34859 0.4553 0.3386 0.0
Co35 Co 0.35573 0.47388 0.18895 0.0
C36 C 0.36315 0.43829 0.22975 0.0
O37 O 0.35586 0.43606 0.29136 0.0
O38 O 0.36438 0.45254 0.18963 0.0
C39 C 0.33313 0.43314 0.47635 0.0
O40 O 0.32128 0.41493 0.44718 0.0
C41 C 0.34708 0.46529 0.04243 0.0
C42 C 0.35777 0.4961 0.99496 0.0
C43 C 0.34897 0.47513 0.97922 0.0
N44 N 0.35451 0.4797 0.09309 0.0
N45 N 0.36091 0.49814 0.0646 0.0
C46 C 0.33706 0.4424 0.05579 0.0
H47 H 0.32998 0.43863 0.10865 0.0
H48 H 0.32495 0.43344 0.01598 0.0
H49 H 0.34908 0.43771 0.05342 0.0
C50 C 0.3067 0.45075 0.31458 0.0
N51 N 0.32609 0.45598 0.29408 0.0
N52 N 0.32917 0.46362 0.23035 0.0
C53 C 0.31178 0.46326 0.20799 0.0
C54 C 0.29698 0.45501 0.26039 0.0
C55 C 0.29773 0.44198 0.38469 0.0
H56 H 0.30851 0.45205 0.42616 0.0
H57 H 0.29605 0.42634 0.38961 0.0
H58 H 0.28226 0.44058 0.39212 0.0
O59 O 0.37334 0.48351 0.34048 0.0
O60 O 0.37701 0.49915 0.23849 0.0
H61 H 0.32369 0.48756 0.13149 0.0
H62 H 0.29564 0.47337 0.13777 0.0
C63 C 0.30985 0.47199 0.13973 0.0
H64 H 0.30914 0.46164 0.09678 0.0
H65 H 0.3674 0.51206 0.0926 0.0
O66 O 0.34365 0.44917 0.43892 0.0
C67 C 0.38269 0.49945 0.30148 0.0
Co68 Co 0.89262 0.3442 0.49922 0.0
Co69 Co 0.88538 0.35603 0.35025 0.0
C70 C 0.92685 0.3616 0.39684 0.0
O71 O 0.9201 0.35266 0.45556 0.0
O72 O 0.91509 0.36421 0.35476 0.0
C73 C 0.90593 0.34621 0.63667 0.0
O74 O 0.92196 0.36324 0.61239 0.0
C75 C 0.88782 0.35612 0.19839 0.0
C76 C 0.86095 0.35928 0.16596 0.0
C77 C 0.87671 0.35626 0.14044 0.0
N78 N 0.87872 0.35835 0.25576 0.0
N79 N 0.86282 0.3605 0.23609 0.0
C80 C 0.90723 0.35464 0.19994 0.0
H81 H 0.90459 0.34114 0.23236 0.0
H82 H 0.91261 0.3534 0.1472 0.0
H83 H 0.91984 0.36891 0.2244 0.0
C84 C 0.85444 0.30464 0.46207 0.0
N85 N 0.87009 0.32382 0.44631 0.0
N86 N 0.86826 0.3281 0.38102 0.0
C87 C 0.85216 0.31123 0.35152 0.0
C88 C 0.84251 0.2958 0.40217 0.0
C89 C 0.84978 0.29621 0.53501 0.0
H90 H 0.85393 0.30902 0.57272 0.0
H91 H 0.85923 0.28882 0.54708 0.0
H92 H 0.83307 0.28461 0.54179 0.0
O93 O 0.88955 0.36883 0.51216 0.0
O94 O 0.88092 0.37575 0.40878 0.0
H95 H 0.83842 0.31763 0.26367 0.0
H96 H 0.83782 0.29301 0.25844 0.0
C97 C 0.84716 0.30947 0.27516 0.0
H98 H 0.86173 0.3168 0.24446 0.0
H99 H 0.85289 0.36219 0.27062 0.0
O100 O 0.8918 0.33421 0.59453 0.0
C101 C 0.8843 0.37945 0.47395 0.0
Co102 Co 0.54613 0.8951 0.68213 0.0
Co103 Co 0.53034 0.88429 0.5303 0.0
C104 C 0.56507 0.92692 0.5736 0.0
O105 O 0.56638 0.92149 0.63559 0.0
O106 O 0.55133 0.91421 0.53159 0.0
C107 C 0.56834 0.90093 0.81686 0.0
O108 O 0.58529 0.90404 0.78476 0.0
C109 C 0.53923 0.88522 0.38354 0.0
C110 C 0.50906 0.86231 0.3374 0.0
C111 C 0.52965 0.87624 0.32087 0.0
N112 N 0.525 0.87708 0.43464 0.0
N113 N 0.50695 0.86342 0.40695 0.0
C114 C 0.56195 0.89966 0.39639 0.0
H115 H 0.56634 0.89698 0.4492 0.0
H116 H 0.57156 0.89741 0.35677 0.0
H117 H 0.56528 0.91597 0.3936 0.0
C118 C 0.54787 0.85586 0.66615 0.0
N119 N 0.54513 0.87131 0.64115 0.0
N120 N 0.54023 0.86794 0.5746 0.0
C121 C 0.54085 0.85091 0.55393 0.0
C122 C 0.5454 0.84239 0.61151 0.0
C123 C 0.55012 0.85269 0.74221 0.0
H124 H 0.54162 0.85849 0.77407 0.0
H125 H 0.56683 0.86147 0.75664 0.0
H126 H 0.54391 0.83601 0.75441 0.0
O127 O 0.51829 0.89225 0.68045 0.0
O128 O 0.50441 0.88018 0.57625 0.0
H129 H 0.5214 0.83602 0.4653 0.0
H130 H 0.54397 0.83271 0.47083 0.0
C131 C 0.53811 0.84363 0.47964 0.0
H132 H 0.54693 0.85709 0.44474 0.0
H133 H 0.49328 0.8548 0.43549 0.0
O134 O 0.55229 0.89712 0.78196 0.0
C135 C 0.50304 0.88559 0.63831 0.0
Co136 Co 0.65977 0.54991 0.83448 0.0
Co137 Co 0.64683 0.52984 0.6864 0.0
C138 C 0.64134 0.56595 0.73321 0.0
O139 O 0.64989 0.568 0.79268 0.0
O140 O 0.6392 0.5518 0.69088 0.0
C141 C 0.66055 0.5634 0.97286 0.0
O142 O 0.64487 0.56534 0.95046 0.0
C143 C 0.65044 0.53419 0.53591 0.0
C144 C 0.63844 0.50197 0.4989 0.0
C145 C 0.64713 0.52237 0.47611 0.0
N146 N 0.64439 0.52142 0.59137 0.0
N147 N 0.63714 0.50216 0.56908 0.0
C148 C 0.65765 0.55695 0.54137 0.0
H149 H 0.64451 0.5588 0.55959 0.0
H150 H 0.67023 0.56422 0.58095 0.0
H151 H 0.66297 0.56527 0.49106 0.0
C152 C 0.69996 0.55427 0.7917 0.0
N153 N 0.6801 0.54893 0.77854 0.0
N154 N 0.67474 0.54022 0.7165 0.0
C155 C 0.69116 0.53984 0.68794 0.0
C156 C 0.70766 0.54874 0.73468 0.0
C157 C 0.7111 0.564 0.85841 0.0
H158 H 0.7083 0.57686 0.87305 0.0
H159 H 0.72808 0.57009 0.85365 0.0
H160 H 0.70476 0.5522 0.90067 0.0
O161 O 0.63623 0.52136 0.84887 0.0
O162 O 0.62692 0.50608 0.745 0.0
H163 H 0.70442 0.52784 0.61295 0.0
H164 H 0.68977 0.53898 0.57649 0.0
C165 C 0.69051 0.52953 0.62007 0.0
H166 H 0.67638 0.51393 0.61806 0.0
H167 H 0.63148 0.48921 0.60176 0.0
O168 O 0.67052 0.55876 0.92956 0.0
C169 C 0.62479 0.5056 0.81112 0.0
Co170 Co 0.10634 0.65361 0.02476 0.0
Co171 Co 0.11605 0.64775 0.86981 0.0
C172 C 0.07376 0.63966 0.91594 0.0
O173 O 0.07952 0.64653 0.97775 0.0
O174 O 0.08628 0.63882 0.87257 0.0
C175 C 0.10405 0.67354 0.15647 0.0
O176 O 0.10542 0.68931 0.12098 0.0
C177 C 0.11465 0.65095 0.71687 0.0
C178 C 0.14533 0.65571 0.68523 0.0
C179 C 0.12774 0.65547 0.65965 0.0
N180 N 0.1244 0.64942 0.77394 0.0
N181 N 0.14257 0.65187 0.75436 0.0
C182 C 0.09269 0.64673 0.7171 0.0
H183 H 0.08273 0.63196 0.74504 0.0
H184 H 0.09198 0.65945 0.74511 0.0
H185 H 0.08629 0.64504 0.66369 0.0
C186 C 0.1458 0.69432 0.00308 0.0
N187 N 0.12988 0.67603 0.98046 0.0
N188 N 0.13197 0.67439 0.91292 0.0
C189 C 0.14811 0.6923 0.88933 0.0
C190 C 0.15782 0.70546 0.94582 0.0
C191 C 0.15126 0.69953 0.07853 0.0
H192 H 0.14444 0.68518 0.11055 0.0
H193 H 0.14523 0.70966 0.09698 0.0
H194 H 0.16839 0.70806 0.08576 0.0
O195 O 0.10959 0.62899 0.02485 0.0
O196 O 0.12028 0.62626 0.91917 0.0
H197 H 0.1634 0.69177 0.79525 0.0
H198 H 0.16073 0.71446 0.8047 0.0
C199 C 0.15294 0.69743 0.81352 0.0
H200 H 0.13842 0.68989 0.78238 0.0
H201 H 0.15343 0.65173 0.78867 0.0
O202 O 0.10434 0.65863 0.12511 0.0
C203 C 0.11574 0.62007 0.98226 0.0
Co204 Co 0.89482 0.54808 0.64152 0.0
Co205 Co 0.8821 0.53035 0.79193 0.0
C206 C 0.92527 0.56609 0.75395 0.0
O207 O 0.92085 0.56781 0.69089 0.0
O208 O 0.9119 0.55202 0.79368 0.0
C209 C 0.90236 0.57022 0.50429 0.0
O210 O 0.90817 0.58817 0.53464 0.0
C211 C 0.88107 0.53932 0.93772 0.0
C212 C 0.86117 0.50854 0.98567 0.0
C213 C 0.87321 0.52955 0.00108 0.0
N214 N 0.87423 0.52482 0.88732 0.0
N215 N 0.86226 0.50641 0.91608 0.0
C216 C 0.89394 0.56219 0.92408 0.0
H217 H 0.89065 0.56588 0.87104 0.0
H218 H 0.89076 0.57118 0.96362 0.0
H219 H 0.91066 0.56692 0.92672 0.0
C220 C 0.85674 0.55188 0.65762 0.0
N221 N 0.87101 0.54724 0.68182 0.0
N222 N 0.86599 0.54007 0.74599 0.0
C223 C 0.84861 0.54024 0.76502 0.0
C224 C 0.84227 0.5478 0.70986 0.0
C225 C 0.85671 0.55968 0.58564 0.0
H226 H 0.85852 0.54966 0.54664 0.0
H227 H 0.87008 0.57569 0.58037 0.0
H228 H 0.84217 0.55998 0.5748 0.0
O229 O 0.89166 0.51997 0.64287 0.0
O230 O 0.87897 0.50504 0.74532 0.0
H231 H 0.83552 0.51643 0.84305 0.0
H232 H 0.82205 0.53092 0.83305 0.0
C233 C 0.83752 0.53204 0.83297 0.0
H234 H 0.84705 0.54255 0.8758 0.0
H235 H 0.85506 0.49243 0.88842 0.0
O236 O 0.8968 0.55401 0.54079 0.0
C237 C 0.88487 0.50434 0.68342 0.0
Co238 Co 0.34241 0.89127 0.8289 0.0
Co239 Co 0.35461 0.88352 0.97695 0.0
C240 C 0.36042 0.92531 0.9318 0.0
O241 O 0.35137 0.9188 0.87305 0.0
O242 O 0.36291 0.91329 0.9731 0.0
C243 C 0.34443 0.90445 0.69092 0.0
O244 O 0.36143 0.92059 0.71495 0.0
C245 C 0.35407 0.88559 0.12876 0.0
C246 C 0.35956 0.86021 0.16175 0.0
C247 C 0.35519 0.8751 0.18701 0.0
N248 N 0.35709 0.87696 0.07156 0.0
N249 N 0.36057 0.86192 0.09156 0.0
C250 C 0.351 0.90406 0.12663 0.0
H251 H 0.33789 0.90082 0.09114 0.0
H252 H 0.34829 0.90866 0.17879 0.0
H253 H 0.36525 0.91747 0.10529 0.0
C254 C 0.30257 0.85359 0.86695 0.0
N255 N 0.32199 0.86887 0.88215 0.0
N256 N 0.32658 0.86653 0.94659 0.0
C257 C 0.30978 0.85033 0.97595 0.0
C258 C 0.294 0.8413 0.92619 0.0
C259 C 0.29353 0.84967 0.79484 0.0
H260 H 0.3058 0.85291 0.75582 0.0
H261 H 0.28735 0.86028 0.78457 0.0
H262 H 0.28089 0.83334 0.78806 0.0
O263 O 0.36675 0.88781 0.81512 0.0
O264 O 0.37417 0.87903 0.91737 0.0
H265 H 0.31758 0.83654 0.06026 0.0
H266 H 0.29221 0.83425 0.06853 0.0
C267 C 0.3085 0.8445 0.05143 0.0
H268 H 0.31519 0.85871 0.08395 0.0
H269 H 0.36317 0.85254 0.05725 0.0
O270 O 0.33241 0.89045 0.73338 0.0
C271 C 0.37753 0.88245 0.85205 0.0
Co272 Co 0.46134 0.35189 0.98677 0.0
Co273 Co 0.47337 0.35583 0.14504 0.0
C274 C 0.44125 0.36565 0.09352 0.0
O275 O 0.44217 0.36027 0.031 0.0
O276 O 0.45278 0.36497 0.14125 0.0
C277 C 0.43823 0.33218 0.85818 0.0
O278 O 0.42379 0.31722 0.89625 0.0
C279 C 0.46823 0.35186 0.29754 0.0
C280 C 0.49334 0.34571 0.32842 0.0
C281 C 0.47637 0.34662 0.35425 0.0
N282 N 0.47938 0.35318 0.24046 0.0
N283 N 0.49461 0.34988 0.25955 0.0
C284 C 0.4511 0.35697 0.29777 0.0
H285 H 0.45629 0.37172 0.26919 0.0
H286 H 0.43728 0.34446 0.27063 0.0
H287 H 0.44681 0.35907 0.35135 0.0
C288 C 0.45771 0.31025 0.00808 0.0
N289 N 0.46038 0.32858 0.03136 0.0
N290 N 0.46289 0.32951 0.09952 0.0
C291 C 0.46002 0.31109 0.12251 0.0
C292 C 0.45708 0.29833 0.06527 0.0
C293 C 0.45909 0.30565 0.93273 0.0
H294 H 0.46746 0.32026 0.90232 0.0
H295 H 0.44321 0.29604 0.91109 0.0
H296 H 0.46739 0.29677 0.92706 0.0
O297 O 0.4901 0.37504 0.98885 0.0
O298 O 0.49966 0.37782 0.1003 0.0
H299 H 0.47395 0.30997 0.21909 0.0
H300 H 0.44829 0.28814 0.20485 0.0
C301 C 0.45829 0.3052 0.19804 0.0
H302 H 0.45144 0.31304 0.22818 0.0
H303 H 0.50541 0.34972 0.22505 0.0
O304 O 0.45423 0.34693 0.88687 0.0
C305 C 0.50361 0.38359 0.03674 0.0
Co306 Co 0.1093 0.452 0.1482 0.0
Co307 Co 0.12011 0.47086 0.29764 0.0
C308 C 0.07741 0.43479 0.25635 0.0
O309 O 0.08266 0.43269 0.19487 0.0
O310 O 0.09025 0.4491 0.29666 0.0
C311 C 0.10329 0.42994 0.01012 0.0
O312 O 0.09705 0.41166 0.03864 0.0
C313 C 0.12025 0.46262 0.44443 0.0
C314 C 0.13987 0.49362 0.49144 0.0
C315 C 0.12808 0.47263 0.50749 0.0
N316 N 0.12695 0.47696 0.39354 0.0
N317 N 0.13867 0.4955 0.42176 0.0
C318 C 0.10783 0.43969 0.43145 0.0
H319 H 0.11122 0.43598 0.3786 0.0
H320 H 0.11132 0.431 0.47134 0.0
H321 H 0.09102 0.43459 0.43404 0.0
C322 C 0.14692 0.4481 0.17445 0.0
N323 N 0.13248 0.45305 0.19402 0.0
N324 N 0.13686 0.46093 0.25748 0.0
C325 C 0.15406 0.46104 0.28055 0.0
C326 C 0.16091 0.45282 0.22894 0.0
C327 C 0.14732 0.43915 0.1049 0.0
H328 H 0.13327 0.42358 0.09977 0.0
H329 H 0.16131 0.43756 0.09865 0.0
H330 H 0.14692 0.44921 0.06281 0.0
O331 O 0.11259 0.48012 0.14488 0.0
O332 O 0.12375 0.49586 0.24709 0.0
H333 H 0.18048 0.47226 0.35063 0.0
H334 H 0.15527 0.45997 0.39186 0.0
C335 C 0.16466 0.4703 0.34848 0.0
H336 H 0.16584 0.48566 0.35586 0.0
H337 H 0.14585 0.50939 0.39354 0.0
O338 O 0.10845 0.44579 0.04807 0.0
C339 C 0.11876 0.49607 0.18353 0.0
Co340 Co 0.65319 0.10861 0.31808 0.0
Co341 Co 0.64777 0.11931 0.46951 0.0
C342 C 0.64001 0.07671 0.42627 0.0
O343 O 0.647 0.0822 0.36456 0.0
O344 O 0.63882 0.08938 0.46801 0.0
C345 C 0.66955 0.1028 0.18305 0.0
O346 O 0.68331 0.09947 0.21473 0.0
C347 C 0.65534 0.1182 0.61654 0.0
C348 C 0.64815 0.14119 0.66228 0.0
C349 C 0.65469 0.12718 0.67911 0.0
N350 N 0.6494 0.12641 0.56521 0.0
N351 N 0.64504 0.14011 0.59266 0.0
C352 C 0.6636 0.10373 0.60404 0.0
H353 H 0.67078 0.10643 0.55145 0.0
H354 H 0.67536 0.1059 0.64402 0.0
H355 H 0.65057 0.08743 0.60651 0.0
C356 C 0.69423 0.14773 0.33536 0.0
N357 N 0.67588 0.13236 0.35967 0.0
N358 N 0.67415 0.13573 0.42606 0.0
C359 C 0.6918 0.15267 0.44734 0.0
C360 C 0.70511 0.16113 0.39031 0.0
C361 C 0.69996 0.15084 0.25956 0.0
H362 H 0.68582 0.14522 0.22697 0.0
H363 H 0.70774 0.14186 0.24593 0.0
H364 H 0.71066 0.16749 0.24751 0.0
O365 O 0.62814 0.11137 0.31906 0.0
O366 O 0.62602 0.12341 0.42287 0.0
H367 H 0.68706 0.16752 0.53563 0.0
H368 H 0.7129 0.1707 0.53121 0.0
C369 C 0.69614 0.15986 0.52175 0.0
H370 H 0.69133 0.14635 0.55657 0.0
H371 H 0.64011 0.1488 0.5639 0.0
O372 O 0.65745 0.10671 0.21831 0.0
C373 C 0.6194 0.11796 0.36068 0.0
Co374 Co 0.54793 0.6585 0.50445 0.0
Co375 Co 0.52835 0.64631 0.6529 0.0
C376 C 0.56455 0.64103 0.60754 0.0
O377 O 0.56683 0.65 0.54881 0.0
O378 O 0.55005 0.63831 0.64918 0.0
C379 C 0.55838 0.65595 0.3668 0.0
O380 O 0.55676 0.63866 0.39129 0.0
C381 C 0.53022 0.64603 0.80507 0.0
C382 C 0.50022 0.64312 0.83623 0.0
C383 C 0.51887 0.64599 0.86256 0.0
N384 N 0.51908 0.6439 0.74721 0.0
N385 N 0.50104 0.64189 0.76615 0.0
C386 C 0.55102 0.64733 0.80444 0.0
H387 H 0.54934 0.63313 0.77949 0.0
H388 H 0.56212 0.66094 0.77289 0.0
H389 H 0.55737 0.64826 0.85748 0.0
C390 C 0.54933 0.69799 0.54187 0.0
N391 N 0.54559 0.67873 0.55734 0.0
N392 N 0.53922 0.67431 0.62233 0.0
C393 C 0.54003 0.69118 0.65198 0.0
C394 C 0.54612 0.70675 0.60169 0.0
C395 C 0.55349 0.70663 0.46919 0.0
H396 H 0.54487 0.69396 0.43098 0.0
H397 H 0.57037 0.71387 0.45794 0.0
H398 H 0.54859 0.71839 0.46226 0.0
O399 O 0.52037 0.63389 0.49093 0.0
O400 O 0.50433 0.62652 0.59338 0.0
H401 H 0.5197 0.68475 0.73925 0.0
H402 H 0.54382 0.70927 0.74531 0.0
C403 C 0.53663 0.69283 0.72827 0.0
H404 H 0.54372 0.68537 0.7591 0.0
H405 H 0.48956 0.64032 0.73114 0.0
O406 O 0.5571 0.66844 0.40899 0.0
C407 C 0.50435 0.62304 0.52815 0.0
C408 C 0.4671 0.2731 0.11299 0.0
C409 C 0.45556 0.27756 0.06509 0.0
C410 C 0.46555 0.25351 0.11479 0.0
C411 C 0.45319 0.23838 0.06443 0.0
C412 C 0.44196 0.24293 0.01449 0.0
C413 C 0.44283 0.26226 0.01669 0.0
C414 C 0.47721 0.24906 0.17057 0.0
C415 C 0.42939 0.22757 0.95791 0.0
C416 C 0.46916 0.19781 0.03469 0.0
C417 C 0.45324 0.18038 0.0687 0.0
C418 C 0.46869 0.21641 0.02959 0.0
C419 C 0.4526 0.21806 0.06314 0.0
C420 C 0.4366 0.20062 0.09841 0.0
C421 C 0.43682 0.18182 0.09904 0.0
C422 C 0.4856 0.23436 0.98903 0.0
C423 C 0.41969 0.20202 0.13754 0.0
H424 H 0.47756 0.28498 0.14901 0.0
H425 H 0.43357 0.26537 0.98025 0.0
H426 H 0.46666 0.23412 0.19706 0.0
H427 H 0.48995 0.24752 0.1465 0.0
H428 H 0.48407 0.26156 0.21059 0.0
H429 H 0.42248 0.23395 0.9208 0.0
H430 H 0.43941 0.22312 0.92819 0.0
H431 H 0.41666 0.21317 0.98142 0.0
H432 H 0.48218 0.19703 0.0126 0.0
H433 H 0.4243 0.16831 0.12446 0.0
H434 H 0.49596 0.2469 0.02547 0.0
H435 H 0.47871 0.24097 0.95288 0.0
H436 H 0.49522 0.22962 0.95819 0.0
H437 H 0.42676 0.21437 0.17794 0.0
H438 H 0.40863 0.18714 0.16345 0.0
H439 H 0.41085 0.20642 0.10145 0.0
C440 C 0.19645 0.46335 0.18601 0.0
C441 C 0.17985 0.45114 0.23064 0.0
C442 C 0.21524 0.46323 0.19118 0.0
C443 C 0.21724 0.45034 0.24152 0.0
C444 C 0.20023 0.43758 0.28554 0.0
C445 C 0.18177 0.43831 0.28004 0.0
C446 C 0.23313 0.47732 0.14414 0.0
C447 C 0.20165 0.42337 0.33897 0.0
C448 C 0.26109 0.43885 0.21264 0.0
C449 C 0.27611 0.45272 0.2594 0.0
C450 C 0.24159 0.43747 0.20763 0.0
C451 C 0.23732 0.45066 0.24928 0.0
C452 C 0.2525 0.46462 0.29699 0.0
C453 C 0.27171 0.46535 0.30186 0.0
C454 C 0.22568 0.42214 0.15714 0.0
C455 C 0.24866 0.47918 0.34138 0.0
H456 H 0.19489 0.47343 0.14846 0.0
H457 H 0.16882 0.42897 0.31461 0.0
H458 H 0.24654 0.48852 0.17624 0.0
H459 H 0.23833 0.46806 0.11356 0.0
H460 H 0.22894 0.4862 0.10726 0.0
H461 H 0.18667 0.41365 0.36651 0.0
H462 H 0.2064 0.41299 0.31332 0.0
H463 H 0.21374 0.43272 0.37829 0.0
H464 H 0.26471 0.42918 0.17975 0.0
H465 H 0.28356 0.47622 0.33736 0.0
H466 H 0.22233 0.4306 0.11605 0.0
H467 H 0.21085 0.41198 0.18483 0.0
H468 H 0.23101 0.4122 0.13155 0.0
H469 H 0.24588 0.48963 0.30728 0.0
H470 H 0.26196 0.48886 0.37654 0.0
H471 H 0.23451 0.4702 0.37367 0.0
C472 C 0.72875 0.1981 0.42675 0.0
C473 C 0.72556 0.18072 0.38792 0.0
C474 C 0.74829 0.2162 0.42916 0.0
C475 C 0.76462 0.21769 0.38693 0.0
C476 C 0.76119 0.20067 0.34435 0.0
C477 C 0.74192 0.18213 0.34723 0.0
C478 C 0.75146 0.2336 0.47768 0.0
C479 C 0.77774 0.20207 0.29518 0.0
C480 C 0.80657 0.27351 0.35369 0.0
C481 C 0.82298 0.2754 0.39537 0.0
C482 C 0.78804 0.25444 0.34681 0.0
C483 C 0.78514 0.2372 0.38703 0.0
C484 C 0.80146 0.23905 0.43031 0.0
C485 C 0.82044 0.25789 0.43185 0.0
C486 C 0.77152 0.2529 0.29709 0.0
C487 C 0.79864 0.22142 0.477 0.0
H488 H 0.71601 0.19753 0.45606 0.0
H489 H 0.7397 0.16877 0.31747 0.0
H490 H 0.76589 0.239 0.50881 0.0
H491 H 0.75324 0.24704 0.44691 0.0
H492 H 0.73819 0.22876 0.51418 0.0
H493 H 0.77166 0.18856 0.25907 0.0
H494 H 0.78415 0.21655 0.26373 0.0
H495 H 0.79078 0.2027 0.32538 0.0
H496 H 0.80801 0.287 0.3268 0.0
H497 H 0.83317 0.25901 0.46288 0.0
H498 H 0.75871 0.25285 0.32694 0.0
H499 H 0.7648 0.2382 0.26676 0.0
H500 H 0.77778 0.26617 0.25993 0.0
H501 H 0.78474 0.21637 0.51064 0.0
H502 H 0.81237 0.22588 0.51103 0.0
H503 H 0.79593 0.20785 0.44504 0.0
C504 C 0.53277 0.72931 0.64991 0.0
C505 C 0.5473 0.72728 0.60878 0.0
C506 C 0.53359 0.74851 0.65685 0.0
C507 C 0.5482 0.76573 0.6172 0.0
C508 C 0.5627 0.76374 0.57459 0.0
C509 C 0.56256 0.74477 0.57304 0.0
C510 C 0.51857 0.75019 0.70593 0.0
C511 C 0.57781 0.78136 0.52851 0.0
C512 C 0.53171 0.80533 0.57564 0.0
C513 C 0.54592 0.82263 0.61468 0.0
C514 C 0.53286 0.78707 0.57387 0.0
C515 C 0.54743 0.78536 0.61695 0.0
C516 C 0.56103 0.80231 0.65983 0.0
C517 C 0.56059 0.82099 0.65632 0.0
C518 C 0.51864 0.76974 0.52506 0.0
C519 C 0.57588 0.80069 0.70988 0.0
H520 H 0.52053 0.71585 0.67628 0.0
H521 H 0.57418 0.74354 0.54253 0.0
H522 H 0.52657 0.76487 0.73638 0.0
H523 H 0.50595 0.75038 0.67557 0.0
H524 H 0.51136 0.7369 0.74299 0.0
H525 H 0.58709 0.77681 0.49498 0.0
H526 H 0.56923 0.78661 0.49438 0.0
H527 H 0.58866 0.79483 0.5609 0.0
H528 H 0.51973 0.80607 0.54564 0.0
H529 H 0.57175 0.8343 0.6863 0.0
H530 H 0.50681 0.75635 0.55555 0.0
H531 H 0.52764 0.76423 0.49443 0.0
H532 H 0.51041 0.77472 0.48809 0.0
H533 H 0.5676 0.78615 0.74093 0.0
H534 H 0.5832 0.81412 0.74634 0.0
H535 H 0.58838 0.80004 0.68039 0.0
C536 C 0.74154 0.56076 0.67445 0.0
C537 C 0.72787 0.54961 0.72877 0.0
C538 C 0.76074 0.56151 0.66809 0.0
C539 C 0.76608 0.5505 0.71649 0.0
C540 C 0.75214 0.53907 0.77114 0.0
C541 C 0.73325 0.53893 0.77695 0.0
C542 C 0.77535 0.57414 0.60993 0.0
C543 C 0.7571 0.52683 0.82302 0.0
C544 C 0.80632 0.5354 0.6673 0.0
C545 C 0.82343 0.5496 0.70668 0.0
C546 C 0.78758 0.53573 0.66899 0.0
C547 C 0.7862 0.55084 0.71026 0.0
C548 C 0.80378 0.56563 0.74837 0.0
C549 C 0.82217 0.56466 0.74675 0.0
C550 C 0.76908 0.51948 0.62869 0.0
C551 C 0.80302 0.58217 0.79201 0.0
H552 H 0.73724 0.56901 0.63739 0.0
H553 H 0.72247 0.53018 0.81853 0.0
H554 H 0.79051 0.58602 0.63212 0.0
H555 H 0.77842 0.56394 0.57564 0.0
H556 H 0.76903 0.58212 0.5775 0.0
H557 H 0.7444 0.51846 0.86158 0.0
H558 H 0.75983 0.51531 0.7951 0.0
H559 H 0.7716 0.53739 0.85171 0.0
H560 H 0.80743 0.52366 0.63695 0.0
H561 H 0.83553 0.57554 0.77729 0.0
H562 H 0.76301 0.52702 0.59321 0.0
H563 H 0.75639 0.50961 0.66551 0.0
H564 H 0.77296 0.5093 0.59722 0.0
H565 H 0.79742 0.59085 0.75998 0.0
H566 H 0.81846 0.5934 0.81428 0.0
H567 H 0.79185 0.5748 0.83561 0.0
C568 C 0.25568 0.82049 0.90174 0.0
C569 C 0.27346 0.822 0.93305 0.0
C570 C 0.2365 0.80186 0.90409 0.0
C571 C 0.2348 0.78475 0.94235 0.0
C572 C 0.25248 0.78652 0.97689 0.0
C573 C 0.27171 0.80484 0.96977 0.0
C574 C 0.2183 0.80027 0.86362 0.0
C575 C 0.25117 0.76899 0.02077 0.0
C576 C 0.18037 0.74187 0.99108 0.0
C577 C 0.1775 0.72588 0.94535 0.0
C578 C 0.19912 0.76096 0.99197 0.0
C579 C 0.21489 0.7646 0.94307 0.0
C580 C 0.21187 0.74874 0.89553 0.0
C581 C 0.19357 0.72938 0.89902 0.0
C582 C 0.20218 0.77708 0.04594 0.0
C583 C 0.22792 0.75219 0.84071 0.0
H584 H 0.25682 0.83379 0.8743 0.0
H585 H 0.28543 0.80561 0.99256 0.0
H586 H 0.21264 0.78725 0.82567 0.0
H587 H 0.20523 0.79678 0.89943 0.0
H588 H 0.2224 0.81479 0.83465 0.0
H589 H 0.26543 0.77401 0.05255 0.0
H590 H 0.23757 0.76286 0.05637 0.0
H591 H 0.24902 0.75602 0.98654 0.0
H592 H 0.16798 0.7395 0.02635 0.0
H593 H 0.19196 0.71697 0.86531 0.0
H594 H 0.20375 0.79114 0.01999 0.0
H595 H 0.21678 0.78193 0.07548 0.0
H596 H 0.18905 0.77122 0.08354 0.0
H597 H 0.23269 0.7669 0.81206 0.0
H598 H 0.22204 0.73924 0.80234 0.0
H599 H 0.24202 0.75362 0.86596 0.0
C600 C 0.48736 0.1236 0.6855 0.0
C601 C 0.47447 0.12431 0.73737 0.0
C602 C 0.48077 0.11969 0.61567 0.0
C603 C 0.46079 0.11635 0.59782 0.0
C604 C 0.44803 0.11778 0.64977 0.0
C605 C 0.45523 0.12216 0.71879 0.0
C606 C 0.49502 0.11881 0.56122 0.0
C607 C 0.42664 0.11426 0.63275 0.0
C608 C 0.45155 0.12212 0.40662 0.0
C609 C 0.44293 0.10156 0.38287 0.0
C610 C 0.45697 0.12712 0.47696 0.0
C611 C 0.45323 0.11111 0.52482 0.0
C612 C 0.44332 0.09017 0.50201 0.0
C613 C 0.43848 0.08566 0.43102 0.0
C614 C 0.46779 0.14967 0.49912 0.0
C615 C 0.4386 0.07263 0.55207 0.0
H616 H 0.5024 0.12564 0.69983 0.0
H617 H 0.44569 0.12372 0.7585 0.0
H618 H 0.48778 0.10295 0.5385 0.0
H619 H 0.4974 0.12972 0.51791 0.0
H620 H 0.51044 0.12279 0.58311 0.0
H621 H 0.41871 0.116 0.67931 0.0
H622 H 0.4277 0.1254 0.59215 0.0
H623 H 0.41685 0.09838 0.61112 0.0
H624 H 0.45517 0.13452 0.3696 0.0
H625 H 0.43172 0.06974 0.41289 0.0
H626 H 0.48407 0.15471 0.51427 0.0
H627 H 0.46005 0.15171 0.54549 0.0
H628 H 0.46806 0.16004 0.45679 0.0
H629 H 0.45335 0.07397 0.57093 0.0
H630 H 0.4291 0.05711 0.52741 0.0
H631 H 0.43016 0.07361 0.59843 0.0
C632 C 0.31758 0.4228 0.59616 0.0
C633 C 0.3343 0.43581 0.55287 0.0
C634 C 0.31815 0.42699 0.66807 0.0
C635 C 0.33597 0.44437 0.69681 0.0
C636 C 0.35318 0.45698 0.65357 0.0
C637 C 0.35207 0.45262 0.58218 0.0
C638 C 0.29949 0.41332 0.71276 0.0
C639 C 0.37262 0.47545 0.68229 0.0
C640 C 0.33485 0.47282 0.85942 0.0
C641 C 0.34384 0.4658 0.90879 0.0
C642 C 0.33099 0.46498 0.79103 0.0
C643 C 0.33664 0.45006 0.77149 0.0
C644 C 0.34528 0.44257 0.82172 0.0
C645 C 0.34883 0.45058 0.8898 0.0
C646 C 0.32166 0.47329 0.73895 0.0
C647 C 0.35183 0.42693 0.80266 0.0
H648 H 0.30379 0.40987 0.57347 0.0
H649 H 0.36514 0.46259 0.54893 0.0
H650 H 0.30426 0.40762 0.75881 0.0
H651 H 0.29253 0.42251 0.73272 0.0
H652 H 0.28738 0.39972 0.68342 0.0
H653 H 0.38502 0.483 0.6422 0.0
H654 H 0.36886 0.48718 0.70259 0.0
H655 H 0.37884 0.47055 0.72656 0.0
H656 H 0.33099 0.48459 0.8742 0.0
H657 H 0.35633 0.44553 0.92729 0.0
H658 H 0.30844 0.46028 0.71114 0.0
H659 H 0.33349 0.4828 0.69914 0.0
H660 H 0.3161 0.48309 0.76415 0.0
H661 H 0.33919 0.41361 0.77404 0.0
H662 H 0.35604 0.42093 0.84935 0.0
H663 H 0.36551 0.43434 0.76741 0.0
C664 C 0.88178 0.33048 0.73755 0.0
C665 C 0.90201 0.3436 0.71258 0.0
C666 C 0.87691 0.33071 0.80812 0.0
C667 C 0.89274 0.34411 0.85484 0.0
C668 C 0.91345 0.35633 0.83087 0.0
C669 C 0.91782 0.35605 0.75978 0.0
C670 C 0.8546 0.31758 0.83167 0.0
C671 C 0.93082 0.37043 0.87971 0.0
C672 C 0.87871 0.36488 0.01403 0.0
C673 C 0.8797 0.35243 0.06699 0.0
C674 C 0.88252 0.36204 0.94431 0.0
C675 C 0.88744 0.34639 0.9277 0.0
C676 C 0.88768 0.33328 0.98081 0.0
C677 C 0.88345 0.33625 0.04979 0.0
C678 C 0.88167 0.37601 0.88864 0.0
C679 C 0.89286 0.31645 0.96505 0.0
H680 H 0.86945 0.32083 0.70135 0.0
H681 H 0.9335 0.3661 0.7408 0.0
H682 H 0.85366 0.30854 0.87901 0.0
H683 H 0.84829 0.32785 0.84574 0.0
H684 H 0.84456 0.30661 0.79044 0.0
H685 H 0.94632 0.37739 0.85429 0.0
H686 H 0.9283 0.3832 0.8978 0.0
H687 H 0.93087 0.36168 0.92665 0.0
H688 H 0.87543 0.37714 0.0274 0.0
H689 H 0.88326 0.32601 0.09051 0.0
H690 H 0.87079 0.36652 0.84648 0.0
H691 H 0.89726 0.38545 0.86461 0.0
H692 H 0.87661 0.38671 0.90976 0.0
H693 H 0.88203 0.30562 0.92514 0.0
H694 H 0.89203 0.30736 0.01228 0.0
H695 H 0.90879 0.32351 0.94302 0.0
C696 C 0.58016 0.89657 0.93534 0.0
C697 C 0.56669 0.90008 0.89367 0.0
C698 C 0.57679 0.89341 0.0077 0.0
C699 C 0.55964 0.89385 0.03829 0.0
C700 C 0.54658 0.89826 0.99671 0.0
C701 C 0.55029 0.90134 0.92505 0.0
C702 C 0.59109 0.88891 0.05092 0.0
C703 C 0.52821 0.89903 0.02739 0.0
C704 C 0.53235 0.86433 0.20181 0.0
C705 C 0.53892 0.8805 0.2504 0.0
C706 C 0.54005 0.86828 0.13333 0.0
C707 C 0.55453 0.88891 0.11316 0.0
C708 C 0.56176 0.90519 0.16272 0.0
C709 C 0.55367 0.90081 0.23061 0.0
C710 C 0.53187 0.85054 0.08166 0.0
C711 C 0.5771 0.9274 0.14306 0.0
H712 H 0.59283 0.89557 0.91119 0.0
H713 H 0.53997 0.90432 0.89321 0.0
H714 H 0.5968 0.89935 0.09704 0.0
H715 H 0.58239 0.87271 0.07076 0.0
H716 H 0.60468 0.89084 0.02045 0.0
H717 H 0.52006 0.90342 0.9881 0.0
H718 H 0.5169 0.88359 0.0492 0.0
H719 H 0.53338 0.9104 0.07092 0.0
H720 H 0.52094 0.84862 0.21712 0.0
H721 H 0.55831 0.91349 0.26722 0.0
H722 H 0.54492 0.85058 0.05335 0.0
H723 H 0.52204 0.85253 0.04222 0.0
H724 H 0.52241 0.83518 0.10731 0.0
H725 H 0.59024 0.92821 0.11284 0.0
H726 H 0.58343 0.93761 0.18966 0.0
H727 H 0.56931 0.9336 0.10925 0.0
C728 C 0.6729 0.55054 0.07178 0.0
C729 C 0.66329 0.56161 0.04848 0.0
C730 C 0.67219 0.54517 0.14231 0.0
C731 C 0.66202 0.55144 0.19081 0.0
C732 C 0.6536 0.56388 0.16842 0.0
C733 C 0.65414 0.56865 0.09725 0.0
C734 C 0.68107 0.53162 0.16393 0.0
C735 C 0.64313 0.57131 0.2191 0.0
C736 C 0.63684 0.51816 0.35084 0.0
C737 C 0.65146 0.52942 0.40279 0.0
C738 C 0.64028 0.52499 0.28129 0.0
C739 C 0.65873 0.54362 0.2637 0.0
C740 C 0.67383 0.55471 0.31567 0.0
C741 C 0.67019 0.5472 0.38442 0.0
C742 C 0.62407 0.51242 0.22682 0.0
C743 C 0.69364 0.57465 0.29889 0.0
H744 H 0.67994 0.54496 0.03432 0.0
H745 H 0.64682 0.57733 0.07951 0.0
H746 H 0.69117 0.53816 0.21053 0.0
H747 H 0.66819 0.51596 0.17843 0.0
H748 H 0.69025 0.52982 0.12146 0.0
H749 H 0.63942 0.58268 0.19486 0.0
H750 H 0.62844 0.55784 0.23811 0.0
H751 H 0.65322 0.57866 0.2653 0.0
H752 H 0.62252 0.50418 0.36488 0.0
H753 H 0.68201 0.55529 0.42392 0.0
H754 H 0.63127 0.5084 0.18323 0.0
H755 H 0.61759 0.52178 0.20453 0.0
H756 H 0.61107 0.49781 0.24854 0.0
H757 H 0.70258 0.57179 0.25834 0.0
H758 H 0.70371 0.58148 0.34555 0.0
H759 H 0.68984 0.58622 0.27726 0.0
C760 C 0.12224 0.69105 0.26635 0.0
C761 C 0.10557 0.67417 0.23299 0.0
C762 C 0.12634 0.68991 0.33741 0.0
C763 C 0.11307 0.67167 0.37579 0.0
C764 C 0.09544 0.65517 0.34297 0.0
C765 C 0.09214 0.65647 0.27153 0.0
C766 C 0.14559 0.70759 0.36999 0.0
C767 C 0.08056 0.63574 0.38254 0.0
C768 C 0.13268 0.65455 0.53096 0.0
C769 C 0.12481 0.66056 0.58719 0.0
C770 C 0.12965 0.65881 0.46186 0.0
C771 C 0.11826 0.66909 0.44879 0.0
C772 C 0.11092 0.67586 0.50545 0.0
C773 C 0.11471 0.67193 0.574 0.0
C774 C 0.13825 0.65187 0.4028 0.0
C775 C 0.09855 0.6867 0.49369 0.0
H776 H 0.13283 0.70456 0.23587 0.0
H777 H 0.07931 0.6434 0.24522 0.0
H778 H 0.14182 0.71222 0.42052 0.0
H779 H 0.15698 0.70241 0.38101 0.0
H780 H 0.1531 0.72144 0.33533 0.0
H781 H 0.06648 0.62539 0.3514 0.0
H782 H 0.08847 0.62694 0.39683 0.0
H783 H 0.07563 0.63989 0.43181 0.0
H784 H 0.14091 0.64618 0.54097 0.0
H785 H 0.10968 0.67773 0.61728 0.0
H786 H 0.14747 0.66504 0.36675 0.0
H787 H 0.12526 0.6395 0.37216 0.0
H788 H 0.14827 0.64572 0.42185 0.0
H789 H 0.10752 0.70075 0.46097 0.0
H790 H 0.09436 0.69139 0.54346 0.0
H791 H 0.08403 0.67621 0.46494 0.0
C792 C 0.89823 0.55403 0.08947 0.0
C793 C 0.87788 0.53887 0.07159 0.0
C794 C 0.9032 0.56187 0.15768 0.0
C795 C 0.88745 0.55424 0.20923 0.0
C796 C 0.86673 0.53938 0.19091 0.0
C797 C 0.86223 0.53173 0.12231 0.0
C798 C 0.92552 0.57746 0.17534 0.0
C799 C 0.84949 0.53092 0.24444 0.0
C800 C 0.90164 0.55127 0.3968 0.0
C801 C 0.90075 0.56793 0.42764 0.0
C802 C 0.89797 0.54711 0.32539 0.0
C803 C 0.89302 0.55978 0.28375 0.0
C804 C 0.89272 0.57705 0.314 0.0
C805 C 0.89675 0.58103 0.38584 0.0
C806 C 0.89879 0.52874 0.295 0.0
C807 C 0.88741 0.59081 0.27106 0.0
H808 H 0.91051 0.55913 0.05101 0.0
H809 H 0.8465 0.51998 0.10845 0.0
H810 H 0.92642 0.5907 0.20515 0.0
H811 H 0.93207 0.56997 0.20901 0.0
H812 H 0.93538 0.58361 0.12792 0.0
H813 H 0.83394 0.52115 0.22033 0.0
H814 H 0.85213 0.52133 0.2831 0.0
H815 H 0.84947 0.54385 0.27342 0.0
H816 H 0.90494 0.54122 0.4289 0.0
H817 H 0.89592 0.59383 0.40973 0.0
H818 H 0.90956 0.53375 0.24975 0.0
H819 H 0.88316 0.51701 0.27567 0.0
H820 H 0.90398 0.52115 0.33382 0.0
H821 H 0.89749 0.59656 0.22413 0.0
H822 H 0.88917 0.60437 0.30127 0.0
H823 H 0.8711 0.58166 0.25247 0.0
C824 C 0.33 0.87972 0.59094 0.0
C825 C 0.34199 0.90023 0.61513 0.0
C826 C 0.33052 0.87483 0.52054 0.0
C827 C 0.34297 0.8909 0.4731 0.0
C828 C 0.35405 0.9118 0.49635 0.0
C829 C 0.35359 0.9162 0.56736 0.0
C830 C 0.31871 0.85233 0.49789 0.0
C831 C 0.36707 0.9294 0.44676 0.0
C832 C 0.36483 0.87852 0.31288 0.0
C833 C 0.35143 0.87806 0.26063 0.0
C834 C 0.362 0.88231 0.38268 0.0
C835 C 0.34542 0.88577 0.40012 0.0
C836 C 0.33143 0.88459 0.34775 0.0
C837 C 0.3344 0.88035 0.27873 0.0
C838 C 0.37695 0.88296 0.43755 0.0
C839 C 0.31361 0.88823 0.36432 0.0
H840 H 0.32109 0.86727 0.62766 0.0
H841 H 0.36278 0.93207 0.58581 0.0
H842 H 0.30906 0.85045 0.45123 0.0
H843 H 0.3299 0.84721 0.483 0.0
H844 H 0.30846 0.84192 0.53986 0.0
H845 H 0.37313 0.94488 0.47171 0.0
H846 H 0.38046 0.92798 0.4282 0.0
H847 H 0.35778 0.92858 0.40017 0.0
H848 H 0.37777 0.87636 0.29889 0.0
H849 H 0.32347 0.87901 0.23867 0.0
H850 H 0.36825 0.87197 0.48046 0.0
H851 H 0.38558 0.89875 0.46074 0.0
H852 H 0.38838 0.87894 0.41591 0.0
H853 H 0.30339 0.87704 0.40458 0.0
H854 H 0.30407 0.88663 0.3175 0.0
H855 H 0.31974 0.90407 0.38622 0.0
C856 C 0.44696 0.33113 0.44016 0.0
C857 C 0.46841 0.34167 0.42665 0.0
C858 C 0.43939 0.32745 0.50883 0.0
C859 C 0.4536 0.33368 0.56513 0.0
C860 C 0.4752 0.34307 0.55167 0.0
C861 C 0.48236 0.34706 0.4825 0.0
C862 C 0.41627 0.31755 0.52113 0.0
C863 C 0.49082 0.34943 0.61039 0.0
C864 C 0.44251 0.34841 0.74221 0.0
C865 C 0.43793 0.33079 0.78178 0.0
C866 C 0.44625 0.34896 0.67036 0.0
C867 C 0.44615 0.33175 0.63818 0.0
C868 C 0.44068 0.31356 0.67756 0.0
C869 C 0.43634 0.3132 0.74911 0.0
C870 C 0.4514 0.3684 0.62974 0.0
C871 C 0.44091 0.29509 0.64551 0.0
H872 H 0.43604 0.32581 0.39707 0.0
H873 H 0.49893 0.35479 0.47217 0.0
H874 H 0.41072 0.30366 0.55504 0.0
H875 H 0.41294 0.3287 0.54883 0.0
H876 H 0.40724 0.31284 0.47163 0.0
H877 H 0.50681 0.35475 0.591 0.0
H878 H 0.49102 0.36225 0.64074 0.0
H879 H 0.48631 0.33621 0.64678 0.0
H880 H 0.44378 0.362 0.76801 0.0
H881 H 0.43313 0.29974 0.78037 0.0
H882 H 0.44212 0.36434 0.58089 0.0
H883 H 0.46806 0.37655 0.61468 0.0
H884 H 0.44839 0.37931 0.66051 0.0
H885 H 0.43249 0.2908 0.59495 0.0
H886 H 0.43382 0.28132 0.68053 0.0
H887 H 0.45722 0.29925 0.63476 0.0
C888 C 0.14035 0.47064 0.62686 0.0
C889 C 0.12419 0.46337 0.57798 0.0
C890 C 0.13666 0.46277 0.69521 0.0
C891 C 0.11624 0.44758 0.7152 0.0
C892 C 0.09996 0.43987 0.66547 0.0
C893 C 0.10413 0.4479 0.5974 0.0
C894 C 0.15445 0.4713 0.74674 0.0
C895 C 0.07792 0.42396 0.68506 0.0
C896 C 0.10876 0.42012 0.88978 0.0
C897 C 0.10481 0.43284 0.93369 0.0
C898 C 0.11228 0.4245 0.81794 0.0
C899 C 0.11148 0.44176 0.7899 0.0
C900 C 0.10669 0.4541 0.83381 0.0
C901 C 0.10355 0.44956 0.90511 0.0
C902 C 0.1175 0.41113 0.77253 0.0
C903 C 0.10534 0.47244 0.80587 0.0
H904 H 0.15586 0.4826 0.61172 0.0
H905 H 0.09148 0.44266 0.56024 0.0
H906 H 0.15204 0.48064 0.78699 0.0
H907 H 0.15499 0.4584 0.77408 0.0
H908 H 0.16971 0.48133 0.72116 0.0
H909 H 0.06756 0.41792 0.63869 0.0
H910 H 0.07755 0.41069 0.71299 0.0
H911 H 0.07158 0.43112 0.72111 0.0
H912 H 0.10984 0.40725 0.91192 0.0
H913 H 0.10027 0.45931 0.93884 0.0
H914 H 0.13355 0.4206 0.75202 0.0
H915 H 0.10689 0.40528 0.72685 0.0
H916 H 0.1164 0.39764 0.80148 0.0
H917 H 0.12071 0.48435 0.78528 0.0
H918 H 0.10044 0.4798 0.84648 0.0
H919 H 0.0941 0.46745 0.76194 0.0
C920 C 0.65403 0.10263 0.76964 0.0
C921 C 0.65969 0.12295 0.74966 0.0
C922 C 0.65781 0.09829 0.83752 0.0
C923 C 0.66704 0.11461 0.88684 0.0
C924 C 0.67325 0.13525 0.86649 0.0
C925 C 0.66942 0.13916 0.79804 0.0
C926 C 0.65086 0.07607 0.8574 0.0
C927 C 0.68301 0.15304 0.91791 0.0
C928 C 0.65088 0.10247 0.07541 0.0
C929 C 0.66857 0.10364 0.10627 0.0
C930 C 0.65007 0.10548 0.00379 0.0
C931 C 0.6674 0.10975 0.9617 0.0
C932 C 0.68502 0.11012 0.99179 0.0
C933 C 0.6854 0.10701 0.06412 0.0
C934 C 0.6309 0.10479 0.97366 0.0
C935 C 0.70367 0.11448 0.94802 0.0
H936 H 0.64589 0.08993 0.73316 0.0
H937 H 0.6738 0.15488 0.78257 0.0
H938 H 0.66323 0.07521 0.88721 0.0
H939 H 0.63699 0.07 0.89169 0.0
H940 H 0.64677 0.06579 0.81093 0.0
H941 H 0.68889 0.16838 0.89213 0.0
H942 H 0.67131 0.15114 0.95769 0.0
H943 H 0.69607 0.15298 0.94586 0.0
H944 H 0.63769 0.09958 0.10762 0.0
H945 H 0.69911 0.10795 0.08787 0.0
H946 H 0.62452 0.09338 0.93028 0.0
H947 H 0.63505 0.12023 0.95178 0.0
H948 H 0.61848 0.10051 0.01331 0.0
H949 H 0.69877 0.10395 0.90211 0.0
H950 H 0.71539 0.11255 0.97818 0.0
H951 H 0.71116 0.13064 0.92785 0.0
C952 C 0.55952 0.64556 0.24374 0.0
C953 C 0.55674 0.65839 0.29091 0.0
C954 C 0.55466 0.64523 0.1728 0.0
C955 C 0.54654 0.65779 0.14894 0.0
C956 C 0.5446 0.67147 0.19567 0.0
C957 C 0.54991 0.67175 0.26609 0.0
C958 C 0.5574 0.63079 0.12398 0.0
C959 C 0.5358 0.68495 0.17226 0.0
C960 C 0.54554 0.66578 0.95386 0.0
C961 C 0.52552 0.64982 0.93626 0.0
C962 C 0.55261 0.66866 0.02302 0.0
C963 C 0.53903 0.65572 0.07598 0.0
C964 C 0.51837 0.64037 0.05901 0.0
C965 C 0.51185 0.63758 0.98908 0.0
C966 C 0.57474 0.68516 0.03911 0.0
C967 C 0.5033 0.62661 0.11449 0.0
H968 H 0.56491 0.6353 0.26262 0.0
H969 H 0.54764 0.68165 0.30231 0.0
H970 H 0.54194 0.61833 0.1058 0.0
H971 H 0.56634 0.6394 0.07709 0.0
H972 H 0.56555 0.62342 0.1494 0.0
H973 H 0.53694 0.69598 0.21359 0.0
H974 H 0.54402 0.69396 0.12502 0.0
H975 H 0.51918 0.67494 0.15806 0.0
H976 H 0.55578 0.6759 0.91328 0.0
H977 H 0.49624 0.62551 0.97545 0.0
H978 H 0.58332 0.67779 0.06114 0.0
H979 H 0.57496 0.69608 0.0791 0.0
H980 H 0.58315 0.69421 0.99202 0.0
H981 H 0.50902 0.61681 0.13852 0.0
H982 H 0.48747 0.61627 0.09318 0.0
H983 H 0.50221 0.63627 0.1567 0.0
C984 C 0.53461 0.13221 0.14914 0.0
C985 C 0.51489 0.12111 0.18 0.0
C986 C 0.55217 0.1334 0.18175 0.0
C987 C 0.54983 0.12287 0.24583 0.0
C988 C 0.53001 0.11191 0.2776 0.0
C989 C 0.51286 0.11132 0.24466 0.0
C990 C 0.57314 0.1456 0.14699 0.0
C991 C 0.52673 0.10008 0.34506 0.0
C992 C 0.58848 0.10488 0.28334 0.0
C993 C 0.60118 0.119 0.33471 0.0
C994 C 0.57165 0.10589 0.25469 0.0
C995 C 0.56767 0.12177 0.27666 0.0
C996 C 0.58043 0.13613 0.32858 0.0
C997 C 0.59692 0.1344 0.35778 0.0
C998 C 0.55809 0.08991 0.20096 0.0
C999 C 0.57687 0.15349 0.35231 0.0
H1000 H 0.53633 0.13999 0.0996 0.0
H1001 H 0.49767 0.10265 0.26889 0.0
H1002 H 0.5848 0.15659 0.18479 0.0
H1003 H 0.57853 0.13484 0.12945 0.0
H1004 H 0.57271 0.15451 0.10103 0.0
H1005 H 0.51055 0.09327 0.36488 0.0
H1006 H 0.53016 0.08731 0.33679 0.0
H1007 H 0.53756 0.11045 0.38587 0.0
H1008 H 0.59163 0.09284 0.26575 0.0
H1009 H 0.60684 0.14545 0.39702 0.0
H1010 H 0.55866 0.0977 0.15089 0.0
H1011 H 0.54166 0.08166 0.21871 0.0
H1012 H 0.56296 0.07821 0.19107 0.0
H1013 H 0.5779 0.16325 0.30691 0.0
H1014 H 0.58835 0.16355 0.39233 0.0
H1015 H 0.56102 0.14697 0.37442 0.0
C1016 C 0.41217 0.51639 0.38517 0.0
C1017 C 0.40044 0.51837 0.33141 0.0
C1018 C 0.42871 0.53391 0.4165 0.0
C1019 C 0.43334 0.554 0.39481 0.0
C1020 C 0.42144 0.55616 0.34089 0.0
C1021 C 0.40527 0.53827 0.30906 0.0
C1022 C 0.44137 0.5309 0.47231 0.0
C1023 C 0.42568 0.57733 0.31739 0.0
C1024 C 0.46598 0.59734 0.52353 0.0
C1025 C 0.48584 0.60581 0.49391 0.0
C1026 C 0.44854 0.58099 0.49036 0.0
C1027 C 0.45117 0.57263 0.42711 0.0
C1028 C 0.47118 0.5812 0.39694 0.0
C1029 C 0.48819 0.59778 0.4303 0.0
C1030 C 0.42736 0.5725 0.52332 0.0
C1031 C 0.47476 0.57246 0.33051 0.0
H1032 H 0.40857 0.50101 0.40228 0.0
H1033 H 0.39609 0.53984 0.26799 0.0
H1034 H 0.45795 0.53865 0.4564 0.0
H1035 H 0.44059 0.53823 0.52184 0.0
H1036 H 0.43589 0.51422 0.48248 0.0
H1037 H 0.4145 0.57634 0.27686 0.0
H1038 H 0.42479 0.58617 0.36272 0.0
H1039 H 0.44166 0.58634 0.29592 0.0
H1040 H 0.46404 0.6036 0.57229 0.0
H1041 H 0.50351 0.60416 0.40715 0.0
H1042 H 0.42147 0.55621 0.54031 0.0
H1043 H 0.41615 0.57229 0.4845 0.0
H1044 H 0.42767 0.58177 0.56932 0.0
H1045 H 0.47056 0.55602 0.33898 0.0
H1046 H 0.4912 0.58132 0.31273 0.0
H1047 H 0.46465 0.57259 0.28809 0.0
C1048 C 0.87117 0.40476 0.47563 0.0
C1049 C 0.88278 0.39673 0.50667 0.0
C1050 C 0.86997 0.42128 0.5068 0.0
C1051 C 0.88105 0.43026 0.56945 0.0
C1052 C 0.89265 0.42209 0.60118 0.0
C1053 C 0.89319 0.40531 0.56982 0.0
C1054 C 0.85708 0.42932 0.47223 0.0
C1055 C 0.90507 0.4315 0.66704 0.0
C1056 C 0.89779 0.48679 0.60381 0.0
C1057 C 0.88399 0.48523 0.65662 0.0
C1058 C 0.89704 0.46903 0.57546 0.0
C1059 C 0.88177 0.44913 0.59927 0.0
C1060 C 0.86768 0.44739 0.65237 0.0
C1061 C 0.86913 0.46551 0.68115 0.0
C1062 C 0.91272 0.47161 0.52033 0.0
C1063 C 0.85094 0.4264 0.67809 0.0
H1064 H 0.86294 0.39807 0.42723 0.0
H1065 H 0.90229 0.39925 0.59403 0.0
H1066 H 0.84615 0.42985 0.51055 0.0
H1067 H 0.86737 0.44544 0.45344 0.0
H1068 H 0.84802 0.41955 0.42716 0.0
H1069 H 0.91268 0.42283 0.68647 0.0
H1070 H 0.91728 0.44784 0.65694 0.0
H1071 H 0.89489 0.43178 0.70887 0.0
H1072 H 0.90942 0.50201 0.58502 0.0
H1073 H 0.85833 0.46425 0.72153 0.0
H1074 H 0.9046 0.46382 0.47129 0.0
H1075 H 0.92163 0.46409 0.53785 0.0
H1076 H 0.92387 0.48822 0.50863 0.0
H1077 H 0.84109 0.41708 0.63362 0.0
H1078 H 0.84084 0.4277 0.71821 0.0
H1079 H 0.85809 0.41771 0.70082 0.0
C1080 C 0.4021 0.89054 0.7525 0.0
C1081 C 0.39459 0.88092 0.81754 0.0
C1082 C 0.41878 0.89018 0.71959 0.0
C1083 C 0.428 0.87961 0.7518 0.0
C1084 C 0.42004 0.86922 0.81623 0.0
C1085 C 0.40355 0.87019 0.84879 0.0
C1086 C 0.42705 0.90184 0.65172 0.0
C1087 C 0.42922 0.85744 0.85146 0.0
C1088 C 0.46409 0.86865 0.6408 0.0
C1089 C 0.48364 0.88434 0.66362 0.0
C1090 C 0.44574 0.86666 0.66972 0.0
C1091 C 0.4471 0.88104 0.72109 0.0
C1092 C 0.46684 0.89723 0.7427 0.0
C1093 C 0.48483 0.89852 0.71436 0.0
C1094 C 0.42496 0.84897 0.6464 0.0
C1095 C 0.469 0.91326 0.7958 0.0
H1096 H 0.39532 0.89893 0.72794 0.0
H1097 H 0.3977 0.86254 0.89863 0.0
H1098 H 0.44315 0.91489 0.65967 0.0
H1099 H 0.42776 0.8915 0.61137 0.0
H1100 H 0.41737 0.90825 0.63148 0.0
H1101 H 0.42 0.84853 0.89761 0.0
H1102 H 0.43011 0.8465 0.81403 0.0
H1103 H 0.44531 0.86848 0.86884 0.0
H1104 H 0.46316 0.85756 0.60206 0.0
H1105 H 0.49994 0.91077 0.73175 0.0
H1106 H 0.41532 0.85514 0.62416 0.0
H1107 H 0.41641 0.83921 0.69203 0.0
H1108 H 0.42657 0.83898 0.6066 0.0
H1109 H 0.4605 0.92115 0.77769 0.0
H1110 H 0.4855 0.92523 0.80533 0.0
H1111 H 0.46196 0.90555 0.84614 0.0
C1112 C 0.52901 0.4214 0.03247 0.0
C1113 C 0.524 0.40102 0.01679 0.0
C1114 C 0.5464 0.43838 0.00178 0.0
C1115 C 0.5592 0.43476 0.95566 0.0
C1116 C 0.55475 0.41415 0.943 0.0
C1117 C 0.53694 0.39747 0.97277 0.0
C1118 C 0.55033 0.46009 0.01543 0.0
C1119 C 0.56834 0.40965 0.89589 0.0
C1120 C 0.58893 0.47479 0.81438 0.0
C1121 C 0.60845 0.48669 0.84569 0.0
C1122 C 0.57271 0.45791 0.84988 0.0
C1123 C 0.57639 0.45242 0.9172 0.0
C1124 C 0.59633 0.46398 0.9479 0.0
C1125 C 0.61203 0.48121 0.91226 0.0
C1126 C 0.5515 0.44633 0.81619 0.0
C1127 C 0.60107 0.45821 0.01844 0.0
H1128 H 0.51866 0.42399 0.06554 0.0
H1129 H 0.5328 0.38161 0.96028 0.0
H1130 H 0.56653 0.47031 0.03352 0.0
H1131 H 0.5484 0.46682 0.96613 0.0
H1132 H 0.53953 0.46031 0.05514 0.0
H1133 H 0.56416 0.39305 0.898 0.0
H1134 H 0.56674 0.41354 0.84113 0.0
H1135 H 0.58494 0.41947 0.91072 0.0
H1136 H 0.58611 0.47918 0.76325 0.0
H1137 H 0.62719 0.49038 0.93634 0.0
H1138 H 0.53978 0.44694 0.85059 0.0
H1139 H 0.54677 0.42971 0.80938 0.0
H1140 H 0.5511 0.45286 0.76437 0.0
H1141 H 0.59141 0.45991 0.05918 0.0
H1142 H 0.6177 0.46803 0.0331 0.0
H1143 H 0.59707 0.44167 0.0184 0.0
C1144 C 0.10769 0.51287 0.09374 0.0
C1145 C 0.11978 0.51487 0.15277 0.0
C1146 C 0.10807 0.53024 0.0634 0.0
C1147 C 0.1212 0.55022 0.09185 0.0
C1148 C 0.13387 0.55245 0.15038 0.0
C1149 C 0.13282 0.53469 0.18075 0.0
C1150 C 0.09391 0.52709 0.00224 0.0
C1151 C 0.14834 0.57356 0.18134 0.0
C1152 C 0.13099 0.59649 0.97847 0.0
C1153 C 0.1172 0.60205 0.00814 0.0
C1154 C 0.13288 0.57994 0.00615 0.0
C1155 C 0.12033 0.56846 0.06363 0.0
C1156 C 0.10619 0.57386 0.09294 0.0
C1157 C 0.10495 0.59067 0.06531 0.0
C1158 C 0.14837 0.5748 0.97433 0.0
C1159 C 0.09215 0.56173 0.15306 0.0
H1160 H 0.09748 0.49759 0.07197 0.0
H1161 H 0.14236 0.53633 0.22588 0.0
H1162 H 0.08254 0.53199 0.01696 0.0
H1163 H 0.10305 0.5369 0.95752 0.0
H1164 H 0.0852 0.51062 0.98475 0.0
H1165 H 0.15841 0.57286 0.22293 0.0
H1166 H 0.15838 0.5844 0.13994 0.0
H1167 H 0.13916 0.58019 0.20401 0.0
H1168 H 0.1406 0.60535 0.93468 0.0
H1169 H 0.09412 0.59477 0.08819 0.0
H1170 H 0.14017 0.55876 0.95306 0.0
H1171 H 0.15926 0.57535 0.01511 0.0
H1172 H 0.15751 0.5857 0.93163 0.0
H1173 H 0.08223 0.54517 0.13799 0.0
H1174 H 0.0819 0.56789 0.1695 0.0
H1175 H 0.1016 0.56219 0.19863 0.0
C1176 C 0.42899 0.04651 0.98927 0.0
C1177 C 0.4227 0.05469 0.04404 0.0
C1178 C 0.41711 0.0256 0.96957 0.0
C1179 C 0.39842 0.01241 0.00552 0.0
C1180 C 0.39165 0.02061 0.05977 0.0
C1181 C 0.40394 0.04167 0.07868 0.0
C1182 C 0.42503 0.01746 0.91197 0.0
C1183 C 0.37174 0.00702 0.09901 0.0
C1184 C 0.36318 0.96032 0.9178 0.0
C1185 C 0.36904 0.94737 0.95238 0.0
C1186 C 0.37199 0.98141 0.93632 0.0
C1187 C 0.38711 0.98972 0.99012 0.0
C1188 C 0.39278 0.97662 0.0259 0.0
C1189 C 0.38371 0.95568 0.00658 0.0
C1190 C 0.3655 0.99491 0.89728 0.0
C1191 C 0.40902 0.98488 0.08302 0.0
H1192 H 0.44361 0.0563 0.96287 0.0
H1193 H 0.39893 0.04788 0.12086 0.0
H1194 H 0.42891 0.00596 0.93377 0.0
H1195 H 0.41282 0.00933 0.87179 0.0
H1196 H 0.43913 0.03003 0.88613 0.0
H1197 H 0.36771 0.01611 0.13547 0.0
H1198 H 0.35868 0.99855 0.06184 0.0
H1199 H 0.37331 0.99517 0.12953 0.0
H1200 H 0.35181 0.95402 0.87603 0.0
H1201 H 0.38864 0.94596 0.03288 0.0
H1202 H 0.37884 0.00682 0.86666 0.0
H1203 H 0.36088 0.00331 0.93461 0.0
H1204 H 0.35235 0.98576 0.86096 0.0
H1205 H 0.4243 0.99648 0.06085 0.0
H1206 H 0.41074 0.97238 0.10855 0.0
H1207 H 0.40495 0.99292 0.12352 0.0
C1208 C 0.43327 0.38862 0.16561 0.0
C1209 C 0.42752 0.37409 0.11131 0.0
C1210 C 0.42106 0.39747 0.18293 0.0
C1211 C 0.40237 0.39135 0.14595 0.0
C1212 C 0.39618 0.37632 0.09203 0.0
C1213 C 0.40901 0.36805 0.07463 0.0
C1214 C 0.42852 0.41382 0.23959 0.0
C1215 C 0.37611 0.36911 0.05257 0.0
C1216 C 0.36658 0.40637 0.23881 0.0
C1217 C 0.37143 0.42497 0.20464 0.0
C1218 C 0.37557 0.39451 0.21743 0.0
C1219 C 0.39009 0.4017 0.16178 0.0
C1220 C 0.39453 0.42011 0.1258 0.0
C1221 C 0.38498 0.43138 0.14717 0.0
C1222 C 0.37007 0.37466 0.25592 0.0
C1223 C 0.41024 0.42857 0.06717 0.0
H1224 H 0.44772 0.39358 0.19345 0.0
H1225 H 0.40447 0.35672 0.0329 0.0
H1226 H 0.43088 0.42868 0.21757 0.0
H1227 H 0.41662 0.409 0.28125 0.0
H1228 H 0.44335 0.4167 0.26366 0.0
H1229 H 0.37281 0.35628 0.01563 0.0
H1230 H 0.36294 0.36372 0.08974 0.0
H1231 H 0.37686 0.38225 0.02265 0.0
H1232 H 0.35594 0.4012 0.2827 0.0
H1233 H 0.38883 0.44573 0.12037 0.0
H1234 H 0.38362 0.37688 0.28721 0.0
H1235 H 0.36632 0.36188 0.21832 0.0
H1236 H 0.35664 0.36984 0.29166 0.0
H1237 H 0.42592 0.43319 0.08802 0.0
H1238 H 0.41089 0.44232 0.04155 0.0
H1239 H 0.4065 0.41644 0.02703 0.0
C1240 C 0.0418 0.40333 0.24395 0.0
C1241 C 0.05579 0.4212 0.28116 0.0
C1242 C 0.02092 0.39134 0.26504 0.0
C1243 C 0.01383 0.39761 0.32386 0.0
C1244 C 0.02806 0.4152 0.36295 0.0
C1245 C 0.04886 0.42665 0.3415 0.0
C1246 C 0.00628 0.37241 0.22291 0.0
C1247 C 0.02111 0.42264 0.42534 0.0
C1248 C 0.95793 0.38574 0.32671 0.0
C1249 C 0.94894 0.37 0.37727 0.0
C1250 C 0.97889 0.39451 0.30811 0.0
C1251 C 0.99124 0.38726 0.34031 0.0
C1252 C 0.98221 0.37109 0.39049 0.0
C1253 C 0.96117 0.36276 0.40891 0.0
C1254 C 0.98796 0.41198 0.25528 0.0
C1255 C 0.99484 0.36278 0.42514 0.0
H1256 H 0.04706 0.39886 0.19777 0.0
H1257 H 0.05953 0.4404 0.37081 0.0
H1258 H 0.99716 0.35893 0.25789 0.0
H1259 H 0.99506 0.37548 0.19451 0.0
H1260 H 0.01467 0.36815 0.18418 0.0
H1261 H 0.03437 0.43566 0.45312 0.0
H1262 H 0.01029 0.42799 0.40792 0.0
H1263 H 0.01252 0.40972 0.46282 0.0
H1264 H 0.9487 0.39166 0.30274 0.0
H1265 H 0.95429 0.35054 0.4478 0.0
H1266 H 0.99498 0.40794 0.21122 0.0
H1267 H 1.00055 0.4263 0.27993 0.0
H1268 H 0.97613 0.41548 0.23393 0.0
H1269 H 0.00246 0.35806 0.38499 0.0
H1270 H 0.9852 0.34923 0.45937 0.0
H1271 H 0.00738 0.37516 0.45717 0.0
C1272 C 0.59735 0.96193 0.5855 0.0
C1273 C 0.57886 0.94859 0.55002 0.0
C1274 C 0.6098 0.98278 0.56466 0.0
C1275 C 0.60326 0.99052 0.50831 0.0
C1276 C 0.58484 0.97699 0.47147 0.0
C1277 C 0.57302 0.95617 0.49226 0.0
C1278 C 0.62964 0.99664 0.60398 0.0
C1279 C 0.57705 0.98469 0.41208 0.0
C1280 C 0.61791 0.04722 0.50558 0.0
C1281 C 0.63202 0.05503 0.44974 0.0
C1282 C 0.6089 0.0264 0.52627 0.0
C1283 C 0.61448 0.0131 0.49143 0.0
C1284 C 0.62942 0.02107 0.43705 0.0
C1285 C 0.63782 0.04192 0.41614 0.0
C1286 C 0.59268 0.01843 0.5834 0.0
C1287 C 0.63615 0.00747 0.40001 0.0
H1288 H 0.60206 0.95611 0.62969 0.0
H1289 H 0.55873 0.946 0.46458 0.0
H1290 H 0.6427 0.00517 0.5669 0.0
H1291 H 0.62787 0.00841 0.63414 0.0
H1292 H 0.63379 0.98772 0.64083 0.0
H1293 H 0.56287 0.97197 0.38709 0.0
H1294 H 0.57339 0.99655 0.43185 0.0
H1295 H 0.58927 0.99229 0.37162 0.0
H1296 H 0.6133 0.05723 0.53174 0.0
H1297 H 0.64888 0.04793 0.37346 0.0
H1298 H 0.59703 0.01105 0.62545 0.0
H1299 H 0.57751 0.00635 0.56189 0.0
H1300 H 0.59062 0.03098 0.6068 0.0
H1301 H 0.6405 0.99914 0.43859 0.0
H1302 H 0.64956 0.01656 0.36459 0.0
H1303 H 0.62304 0.99553 0.36866 0.0
C1304 C 0.59737 0.63932 0.59395 0.0
C1305 C 0.57824 0.63264 0.62736 0.0
C1306 C 0.60989 0.6307 0.61152 0.0
C1307 C 0.60295 0.61487 0.66289 0.0
C1308 C 0.58383 0.60835 0.69746 0.0
C1309 C 0.57176 0.61731 0.67937 0.0
C1310 C 0.63031 0.63818 0.57408 0.0
C1311 C 0.57568 0.59131 0.75182 0.0
C1312 C 0.6192 0.57402 0.65595 0.0
C1313 C 0.63288 0.57956 0.71294 0.0
C1314 C 0.60996 0.58582 0.63771 0.0
C1315 C 0.61463 0.6038 0.67689 0.0
C1316 C 0.62901 0.60996 0.73288 0.0
C1317 C 0.63786 0.59767 0.75065 0.0
C1318 C 0.59449 0.57851 0.57826 0.0
C1319 C 0.63458 0.62921 0.77519 0.0
H1320 H 0.60251 0.6512 0.55392 0.0
H1321 H 0.55686 0.61177 0.70466 0.0
H1322 H 0.64303 0.64245 0.61243 0.0
H1323 H 0.62945 0.62548 0.54118 0.0
H1324 H 0.63436 0.65183 0.54015 0.0
H1325 H 0.56105 0.58881 0.77642 0.0
H1326 H 0.57266 0.57651 0.72734 0.0
H1327 H 0.58745 0.59511 0.79342 0.0
H1328 H 0.61515 0.56001 0.62659 0.0
H1329 H 0.64853 0.60215 0.79438 0.0
H1330 H 0.59879 0.59124 0.54001 0.0
H1331 H 0.57883 0.57409 0.59873 0.0
H1332 H 0.59348 0.5649 0.55046 0.0
H1333 H 0.6391 0.64271 0.74011 0.0
H1334 H 0.64754 0.63305 0.81223 0.0
H1335 H 0.62083 0.62685 0.80545 0.0
C1336 C 0.03934 0.63846 0.92298 0.0
C1337 C 0.05188 0.63122 0.89404 0.0
C1338 C 0.01856 0.63021 0.90126 0.0
C1339 C 0.01011 0.61404 0.85092 0.0
C1340 C 0.02276 0.60671 0.82182 0.0
C1341 C 0.04349 0.61549 0.84331 0.0
C1342 C 0.00561 0.63867 0.93237 0.0
C1343 C 0.01428 0.58917 0.76926 0.0
C1344 C 0.95259 0.57459 0.84445 0.0
C1345 C 0.9465 0.57984 0.78176 0.0
C1346 C 0.97303 0.58619 0.86924 0.0
C1347 C 0.98775 0.60374 0.83111 0.0
C1348 C 0.98147 0.60983 0.76983 0.0
C1349 C 0.96094 0.59768 0.74543 0.0
C1350 C 0.97913 0.5789 0.93411 0.0
C1351 C 0.99663 0.62872 0.72861 0.0
H1352 H 0.04583 0.65069 0.96193 0.0
H1353 H 0.053 0.60959 0.82158 0.0
H1354 H 0.99864 0.64347 0.89016 0.0
H1355 H 0.9926 0.62636 0.96301 0.0
H1356 H 0.01487 0.6522 0.96715 0.0
H1357 H 0.02628 0.58549 0.75105 0.0
H1358 H 0.00127 0.57495 0.79284 0.0
H1359 H 0.00798 0.59325 0.72318 0.0
H1360 H 0.94156 0.56086 0.87309 0.0
H1361 H 0.9563 0.60199 0.69743 0.0
H1362 H 0.98729 0.59191 0.97159 0.0
H1363 H 0.99008 0.57342 0.91978 0.0
H1364 H 0.96549 0.566 0.9608 0.0
H1365 H 0.00536 0.64222 0.76391 0.0
H1366 H 0.98873 0.63296 0.6879 0.0
H1367 H 0.00815 0.6256 0.70268 0.0
loop_
_geom_bond_atom_site_label_1
_geom_bond_atom_site_label_2
_geom_bond_distance
_geom_bond_site_symmetry_2
_ccdc_geom_bond_type
Co0 O3 1.970 . S
Co0 N17 1.989 . S
Co0 O25 1.967 . S
Co0 O32 1.920 . S
Co1 O4 1.966 . S
Co1 N10 2.022 1_554 S
Co1 N18 1.993 . S
Co1 O26 1.941 . S
C2 O3 1.258 . S
C2 O4 1.263 . S
O3 Co0 1.970 . S
O3 C2 1.258 . S
O4 Co1 1.966 . S
O4 C2 1.263 . S
C5 O6 1.235 . S
C5 O32 1.289 . S
O6 C5 1.235 . S
C7 C9 1.400 . S
C7 N10 1.351 . S
C7 C12 1.501 . S
C8 C9 1.387 . S
C8 N11 1.341 . S
C9 C7 1.400 . S
C9 C8 1.387 . S
N10 Co1 2.022 1_556 S
N10 C7 1.351 . S
N10 N11 1.365 . S
N11 C8 1.341 . S
N11 N10 1.365 . S
N11 H31 0.862 . S
C12 C7 1.501 . S
C12 H13 0.961 . S
C12 H14 0.961 . S
C12 H15 0.960 . S
H13 C12 0.961 . S
H14 C12 0.961 . S
H15 C12 0.960 . S
C16 N17 1.342 . S
C16 C20 1.401 . S
C16 C21 1.499 . S
N17 Co0 1.989 . S
N17 C16 1.342 . S
N17 N18 1.388 . S
N18 Co1 1.993 . S
N18 N17 1.388 . S
N18 C19 1.346 . S
C19 N18 1.346 . S
C19 C20 1.396 . S
C19 C29 1.510 1_554 S
C20 C16 1.401 . S
C20 C19 1.396 . S
C21 C16 1.499 . S
C21 H22 0.959 . S
C21 H23 0.960 . S
C21 H24 0.961 . S
H22 C21 0.959 . S
H23 C21 0.960 . S
H24 C21 0.961 . S
O25 Co0 1.967 . S
O25 C33 1.258 . S
O26 Co1 1.941 . S
O26 C33 1.266 . S
H27 C29 0.959 . S
H28 C29 0.961 . S
C29 C19 1.510 1_556 S
C29 H27 0.959 . S
C29 H28 0.961 . S
C29 H30 0.960 . S
H30 C29 0.960 . S
H31 N11 0.862 . S
O32 Co0 1.920 . S
O32 C5 1.289 . S
C33 O25 1.258 . S
C33 O26 1.266 . S
Co34 O37 1.970 . S
Co34 N51 1.989 . S
Co34 O59 1.967 . S
Co34 O66 1.920 . S
Co35 O38 1.966 . S
Co35 N44 2.022 . S
Co35 N52 1.993 . S
Co35 O60 1.941 . S
C36 O37 1.258 . S
C36 O38 1.263 . S
O37 Co34 1.970 . S
O37 C36 1.258 . S
O38 Co35 1.966 . S
O38 C36 1.263 . S
C39 O40 1.235 . S
C39 O66 1.289 . S
O40 C39 1.235 . S
C41 C43 1.400 1_554 S
C41 N44 1.351 . S
C41 C46 1.501 . S
C42 C43 1.387 . S
C42 N45 1.341 1_556 S
C43 C41 1.400 1_556 S
C43 C42 1.387 . S
N44 Co35 2.022 . S
N44 C41 1.351 . S
N44 N45 1.365 . S
N45 C42 1.341 1_554 S
N45 N44 1.365 . S
N45 H65 0.862 . S
C46 C41 1.501 . S
C46 H47 0.961 . S
C46 H48 0.961 . S
C46 H49 0.960 . S
H47 C46 0.961 . S
H48 C46 0.961 . S
H49 C46 0.960 . S
C50 N51 1.342 . S
C50 C54 1.401 . S
C50 C55 1.499 . S
N51 Co34 1.989 . S
N51 C50 1.342 . S
N51 N52 1.388 . S
N52 Co35 1.993 . S
N52 N51 1.388 . S
N52 C53 1.346 . S
C53 N52 1.346 . S
C53 C54 1.396 . S
C53 C63 1.510 . S
C54 C50 1.401 . S
C54 C53 1.396 . S
C55 C50 1.499 . S
C55 H56 0.959 . S
C55 H57 0.960 . S
C55 H58 0.961 . S
H56 C55 0.959 . S
H57 C55 0.960 . S
H58 C55 0.961 . S
O59 Co34 1.967 . S
O59 C67 1.258 . S
O60 Co35 1.941 . S
O60 C67 1.266 . S
H61 C63 0.959 . S
H62 C63 0.961 . S
C63 C53 1.510 . S
C63 H61 0.959 . S
C63 H62 0.961 . S
C63 H64 0.960 . S
H64 C63 0.960 . S
H65 N45 0.862 . S
O66 Co34 1.920 . S
O66 C39 1.289 . S
C67 O59 1.258 . S
C67 O60 1.266 . S
Co68 O71 1.970 . S
Co68 N85 1.989 . S
Co68 O93 1.967 . S
Co68 O100 1.920 . S
Co69 O72 1.966 . S
Co69 N78 2.022 . S
Co69 N86 1.993 . S
Co69 O94 1.941 . S
C70 O71 1.258 . S
C70 O72 1.263 . S
O71 Co68 1.970 . S
O71 C70 1.258 . S
O72 Co69 1.966 . S
O72 C70 1.263 . S
C73 O74 1.235 . S
C73 O100 1.289 . S
O74 C73 1.235 . S
C75 C77 1.400 . S
C75 N78 1.351 . S
C75 C80 1.501 . S
C76 C77 1.387 . S
C76 N79 1.341 . S
C77 C75 1.400 . S
C77 C76 1.387 . S
N78 Co69 2.022 . S
N78 C75 1.351 . S
N78 N79 1.365 . S
N79 C76 1.341 . S
N79 N78 1.365 . S
N79 H99 0.862 . S
C80 C75 1.501 . S
C80 H81 0.961 . S
C80 H82 0.961 . S
C80 H83 0.960 . S
H81 C80 0.961 . S
H82 C80 0.961 . S
H83 C80 0.960 . S
C84 N85 1.342 . S
C84 C88 1.401 . S
C84 C89 1.499 . S
N85 Co68 1.989 . S
N85 C84 1.342 . S
N85 N86 1.388 . S
N86 Co69 1.993 . S
N86 N85 1.388 . S
N86 C87 1.346 . S
C87 N86 1.346 . S
C87 C88 1.396 . S
C87 C97 1.510 . S
C88 C84 1.401 . S
C88 C87 1.396 . S
C89 C84 1.499 . S
C89 H90 0.959 . S
C89 H91 0.960 . S
C89 H92 0.961 . S
H90 C89 0.959 . S
H91 C89 0.960 . S
H92 C89 0.961 . S
O93 Co68 1.967 . S
O93 C101 1.258 . S
O94 Co69 1.941 . S
O94 C101 1.266 . S
H95 C97 0.959 . S
H96 C97 0.961 . S
C97 C87 1.510 . S
C97 H95 0.959 . S
C97 H96 0.961 . S
C97 H98 0.960 . S
H98 C97 0.960 . S
H99 N79 0.862 . S
O100 Co68 1.920 . S
O100 C73 1.289 . S
C101 O93 1.258 . S
C101 O94 1.266 . S
Co102 O105 1.970 . S
Co102 N119 1.989 . S
Co102 O127 1.967 . S
Co102 O134 1.920 . S
Co103 O106 1.966 . S
Co103 N112 2.022 . S
Co103 N120 1.993 . S
Co103 O128 1.941 . S
C104 O105 1.258 . S
C104 O106 1.263 . S
O105 Co102 1.970 . S
O105 C104 1.258 . S
O106 Co103 1.966 . S
O106 C104 1.263 . S
C107 O108 1.235 . S
C107 O134 1.289 . S
O108 C107 1.235 . S
C109 C111 1.400 . S
C109 N112 1.351 . S
C109 C114 1.501 . S
C110 C111 1.387 . S
C110 N113 1.341 . S
C111 C109 1.400 . S
C111 C110 1.387 . S
N112 Co103 2.022 . S
N112 C109 1.351 . S
N112 N113 1.365 . S
N113 C110 1.341 . S
N113 N112 1.365 . S
N113 H133 0.862 . S
C114 C109 1.501 . S
C114 H115 0.961 . S
C114 H116 0.961 . S
C114 H117 0.960 . S
H115 C114 0.961 . S
H116 C114 0.961 . S
H117 C114 0.960 . S
C118 N119 1.342 . S
C118 C122 1.401 . S
C118 C123 1.499 . S
N119 Co102 1.989 . S
N119 C118 1.342 . S
N119 N120 1.388 . S
N120 Co103 1.993 . S
N120 N119 1.388 . S
N120 C121 1.346 . S
C121 N120 1.346 . S
C121 C122 1.396 . S
C121 C131 1.510 . S
C122 C118 1.401 . S
C122 C121 1.396 . S
C123 C118 1.499 . S
C123 H124 0.959 . S
C123 H125 0.960 . S
C123 H126 0.961 . S
H124 C123 0.959 . S
H125 C123 0.960 . S
H126 C123 0.961 . S
O127 Co102 1.967 . S
O127 C135 1.258 . S
O128 Co103 1.941 . S
O128 C135 1.266 . S
H129 C131 0.959 . S
H130 C131 0.961 . S
C131 C121 1.510 . S
C131 H129 0.959 . S
C131 H130 0.961 . S
C131 H132 0.960 . S
H132 C131 0.960 . S
H133 N113 0.862 . S
O134 Co102 1.920 . S
O134 C107 1.289 . S
C135 O127 1.258 . S
C135 O128 1.266 . S
Co136 O139 1.970 . S
Co136 N153 1.989 . S
Co136 O161 1.967 . S
Co136 O168 1.920 . S
Co137 O140 1.966 . S
Co137 N146 2.022 . S
Co137 N154 1.993 . S
Co137 O162 1.941 . S
C138 O139 1.258 . S
C138 O140 1.263 . S
O139 Co136 1.970 . S
O139 C138 1.258 . S
O140 Co137 1.966 . S
O140 C138 1.263 . S
C141 O142 1.235 . S
C141 O168 1.289 . S
O142 C141 1.235 . S
C143 C145 1.400 . S
C143 N146 1.351 . S
C143 C148 1.501 . S
C144 C145 1.387 . S
C144 N147 1.341 . S
C145 C143 1.400 . S
C145 C144 1.387 . S
N146 Co137 2.022 . S
N146 C143 1.351 . S
N146 N147 1.365 . S
N147 C144 1.341 . S
N147 N146 1.365 . S
N147 H167 0.862 . S
C148 C143 1.501 . S
C148 H149 0.961 . S
C148 H150 0.961 . S
C148 H151 0.960 . S
H149 C148 0.961 . S
H150 C148 0.961 . S
H151 C148 0.960 . S
C152 N153 1.342 . S
C152 C156 1.401 . S
C152 C157 1.499 . S
N153 Co136 1.989 . S
N153 C152 1.342 . S
N153 N154 1.388 . S
N154 Co137 1.993 . S
N154 N153 1.388 . S
N154 C155 1.346 . S
C155 N154 1.346 . S
C155 C156 1.396 . S
C155 C165 1.510 . S
C156 C152 1.401 . S
C156 C155 1.396 . S
C157 C152 1.499 . S
C157 H158 0.959 . S
C157 H159 0.960 . S
C157 H160 0.961 . S
H158 C157 0.959 . S
H159 C157 0.960 . S
H160 C157 0.961 . S
O161 Co136 1.967 . S
O161 C169 1.258 . S
O162 Co137 1.941 . S
O162 C169 1.266 . S
H163 C165 0.959 . S
H164 C165 0.961 . S
C165 C155 1.510 . S
C165 H163 0.959 . S
C165 H164 0.961 . S
C165 H166 0.960 . S
H166 C165 0.960 . S
H167 N147 0.862 . S
O168 Co136 1.920 . S
O168 C141 1.289 . S
C169 O161 1.258 . S
C169 O162 1.266 . S
Co170 O173 1.970 1_554 S
Co170 N187 1.989 1_554 S
Co170 O195 1.967 1_554 S
Co170 O202 1.920 . S
Co171 O174 1.966 . S
Co171 N180 2.022 . S
Co171 N188 1.993 . S
Co171 O196 1.941 . S
C172 O173 1.258 . S
C172 O174 1.263 . S
O173 Co170 1.970 1_556 S
O173 C172 1.258 . S
O174 Co171 1.966 . S
O174 C172 1.263 . S
C175 O176 1.235 . S
C175 O202 1.289 . S
O176 C175 1.235 . S
C177 C179 1.400 . S
C177 N180 1.351 . S
C177 C182 1.501 . S
C178 C179 1.387 . S
C178 N181 1.341 . S
C179 C177 1.400 . S
C179 C178 1.387 . S
N180 Co171 2.022 . S
N180 C177 1.351 . S
N180 N181 1.365 . S
N181 C178 1.341 . S
N181 N180 1.365 . S
N181 H201 0.862 . S
C182 C177 1.501 . S
C182 H183 0.961 . S
C182 H184 0.961 . S
C182 H185 0.960 . S
H183 C182 0.961 . S
H184 C182 0.961 . S
H185 C182 0.960 . S
C186 N187 1.342 . S
C186 C190 1.401 . S
C186 C191 1.499 1_556 S
N187 Co170 1.989 1_556 S
N187 C186 1.342 . S
N187 N188 1.388 . S
N188 Co171 1.993 . S
N188 N187 1.388 . S
N188 C189 1.346 . S
C189 N188 1.346 . S
C189 C190 1.396 . S
C189 C199 1.510 . S
C190 C186 1.401 . S
C190 C189 1.396 . S
C191 C186 1.499 1_554 S
C191 H192 0.959 . S
C191 H193 0.960 . S
C191 H194 0.961 . S
H192 C191 0.959 . S
H193 C191 0.960 . S
H194 C191 0.961 . S
O195 Co170 1.967 1_556 S
O195 C203 1.258 . S
O196 Co171 1.941 . S
O196 C203 1.266 . S
H197 C199 0.959 . S
H198 C199 0.961 . S
C199 C189 1.510 . S
C199 H197 0.959 . S
C199 H198 0.961 . S
C199 H200 0.960 . S
H200 C199 0.960 . S
H201 N181 0.862 . S
O202 Co170 1.920 . S
O202 C175 1.289 . S
C203 O195 1.258 . S
C203 O196 1.266 . S
Co204 O207 1.970 . S
Co204 N221 1.989 . S
Co204 O229 1.967 . S
Co204 O236 1.920 . S
Co205 O208 1.966 . S
Co205 N214 2.022 . S
Co205 N222 1.993 . S
Co205 O230 1.941 . S
C206 O207 1.258 . S
C206 O208 1.263 . S
O207 Co204 1.970 . S
O207 C206 1.258 . S
O208 Co205 1.966 . S
O208 C206 1.263 . S
C209 O210 1.235 . S
C209 O236 1.289 . S
O210 C209 1.235 . S
C211 C213 1.400 1_556 S
C211 N214 1.351 . S
C211 C216 1.501 . S
C212 C213 1.387 . S
C212 N215 1.341 1_554 S
C213 C211 1.400 1_554 S
C213 C212 1.387 . S
N214 Co205 2.022 . S
N214 C211 1.351 . S
N214 N215 1.365 . S
N215 C212 1.341 1_556 S
N215 N214 1.365 . S
N215 H235 0.862 . S
C216 C211 1.501 . S
C216 H217 0.961 . S
C216 H218 0.961 . S
C216 H219 0.960 . S
H217 C216 0.961 . S
H218 C216 0.961 . S
H219 C216 0.960 . S
C220 N221 1.342 . S
C220 C224 1.401 . S
C220 C225 1.499 . S
N221 Co204 1.989 . S
N221 C220 1.342 . S
N221 N222 1.388 . S
N222 Co205 1.993 . S
N222 N221 1.388 . S
N222 C223 1.346 . S
C223 N222 1.346 . S
C223 C224 1.396 . S
C223 C233 1.510 . S
C224 C220 1.401 . S
C224 C223 1.396 . S
C225 C220 1.499 . S
C225 H226 0.959 . S
C225 H227 0.960 . S
C225 H228 0.961 . S
H226 C225 0.959 . S
H227 C225 0.960 . S
H228 C225 0.961 . S
O229 Co204 1.967 . S
O229 C237 1.258 . S
O230 Co205 1.941 . S
O230 C237 1.266 . S
H231 C233 0.959 . S
H232 C233 0.961 . S
C233 C223 1.510 . S
C233 H231 0.959 . S
C233 H232 0.961 . S
C233 H234 0.960 . S
H234 C233 0.960 . S
H235 N215 0.862 . S
O236 Co204 1.920 . S
O236 C209 1.289 . S
C237 O229 1.258 . S
C237 O230 1.266 . S
Co238 O241 1.970 . S
Co238 N255 1.989 . S
Co238 O263 1.967 . S
Co238 O270 1.920 . S
Co239 O242 1.966 . S
Co239 N248 2.022 1_556 S
Co239 N256 1.993 . S
Co239 O264 1.941 . S
C240 O241 1.258 . S
C240 O242 1.263 . S
O241 Co238 1.970 . S
O241 C240 1.258 . S
O242 Co239 1.966 . S
O242 C240 1.263 . S
C243 O244 1.235 . S
C243 O270 1.289 . S
O244 C243 1.235 . S
C245 C247 1.400 . S
C245 N248 1.351 . S
C245 C250 1.501 . S
C246 C247 1.387 . S
C246 N249 1.341 . S
C247 C245 1.400 . S
C247 C246 1.387 . S
N248 Co239 2.022 1_554 S
N248 C245 1.351 . S
N248 N249 1.365 . S
N249 C246 1.341 . S
N249 N248 1.365 . S
N249 H269 0.862 . S
C250 C245 1.501 . S
C250 H251 0.961 . S
C250 H252 0.961 . S
C250 H253 0.960 . S
H251 C250 0.961 . S
H252 C250 0.961 . S
H253 C250 0.960 . S
C254 N255 1.342 . S
C254 C258 1.401 . S
C254 C259 1.499 . S
N255 Co238 1.989 . S
N255 C254 1.342 . S
N255 N256 1.388 . S
N256 Co239 1.993 . S
N256 N255 1.388 . S
N256 C257 1.346 . S
C257 N256 1.346 . S
C257 C258 1.396 . S
C257 C267 1.510 1_556 S
C258 C254 1.401 . S
C258 C257 1.396 . S
C259 C254 1.499 . S
C259 H260 0.959 . S
C259 H261 0.960 . S
C259 H262 0.961 . S
H260 C259 0.959 . S
H261 C259 0.960 . S
H262 C259 0.961 . S
O263 Co238 1.967 . S
O263 C271 1.258 . S
O264 Co239 1.941 . S
O264 C271 1.266 . S
H265 C267 0.959 . S
H266 C267 0.961 . S
C267 C257 1.510 1_554 S
C267 H265 0.959 . S
C267 H266 0.961 . S
C267 H268 0.960 . S
H268 C267 0.960 . S
H269 N249 0.862 . S
O270 Co238 1.920 . S
O270 C243 1.289 . S
C271 O263 1.258 . S
C271 O264 1.266 . S
Co272 O275 1.970 1_556 S
Co272 N289 1.989 1_556 S
Co272 O297 1.967 1_556 S
Co272 O304 1.920 . S
Co273 O276 1.966 . S
Co273 N282 2.022 . S
Co273 N290 1.993 . S
Co273 O298 1.941 . S
C274 O275 1.258 . S
C274 O276 1.263 . S
O275 Co272 1.970 1_554 S
O275 C274 1.258 . S
O276 Co273 1.966 . S
O276 C274 1.263 . S
C277 O278 1.235 . S
C277 O304 1.289 . S
O278 C277 1.235 . S
C279 C281 1.400 . S
C279 N282 1.351 . S
C279 C284 1.501 . S
C280 C281 1.387 . S
C280 N283 1.341 . S
C281 C279 1.400 . S
C281 C280 1.387 . S
N282 Co273 2.022 . S
N282 C279 1.351 . S
N282 N283 1.365 . S
N283 C280 1.341 . S
N283 N282 1.365 . S
N283 H303 0.862 . S
C284 C279 1.501 . S
C284 H285 0.961 . S
C284 H286 0.961 . S
C284 H287 0.960 . S
H285 C284 0.961 . S
H286 C284 0.961 . S
H287 C284 0.960 . S
C288 N289 1.342 . S
C288 C292 1.401 . S
C288 C293 1.499 1_554 S
N289 Co272 1.989 1_554 S
N289 C288 1.342 . S
N289 N290 1.388 . S
N290 Co273 1.993 . S
N290 N289 1.388 . S
N290 C291 1.346 . S
C291 N290 1.346 . S
C291 C292 1.396 . S
C291 C301 1.510 . S
C292 C288 1.401 . S
C292 C291 1.396 . S
C293 C288 1.499 1_556 S
C293 H294 0.959 . S
C293 H295 0.960 . S
C293 H296 0.961 . S
H294 C293 0.959 . S
H295 C293 0.960 . S
H296 C293 0.961 . S
O297 Co272 1.967 1_554 S
O297 C305 1.258 . S
O298 Co273 1.941 . S
O298 C305 1.266 . S
H299 C301 0.959 . S
H300 C301 0.961 . S
C301 C291 1.510 . S
C301 H299 0.959 . S
C301 H300 0.961 . S
C301 H302 0.960 . S
H302 C301 0.960 . S
H303 N283 0.862 . S
O304 Co272 1.920 . S
O304 C277 1.289 . S
C305 O297 1.258 . S
C305 O298 1.266 . S
Co306 O309 1.970 . S
Co306 N323 1.989 . S
Co306 O331 1.967 . S
Co306 O338 1.920 . S
Co307 O310 1.966 . S
Co307 N316 2.022 . S
Co307 N324 1.993 . S
Co307 O332 1.941 . S
C308 O309 1.258 . S
C308 O310 1.263 . S
O309 Co306 1.970 . S
O309 C308 1.258 . S
O310 Co307 1.966 . S
O310 C308 1.263 . S
C311 O312 1.235 . S
C311 O338 1.289 . S
O312 C311 1.235 . S
C313 C315 1.400 . S
C313 N316 1.351 . S
C313 C318 1.501 . S
C314 C315 1.387 . S
C314 N317 1.341 . S
C315 C313 1.400 . S
C315 C314 1.387 . S
N316 Co307 2.022 . S
N316 C313 1.351 . S
N316 N317 1.365 . S
N317 C314 1.341 . S
N317 N316 1.365 . S
N317 H337 0.862 . S
C318 C313 1.501 . S
C318 H319 0.961 . S
C318 H320 0.961 . S
C318 H321 0.960 . S
H319 C318 0.961 . S
H320 C318 0.961 . S
H321 C318 0.960 . S
C322 N323 1.342 . S
C322 C326 1.401 . S
C322 C327 1.499 . S
N323 Co306 1.989 . S
N323 C322 1.342 . S
N323 N324 1.388 . S
N324 Co307 1.993 . S
N324 N323 1.388 . S
N324 C325 1.346 . S
C325 N324 1.346 . S
C325 C326 1.396 . S
C325 C335 1.510 . S
C326 C322 1.401 . S
C326 C325 1.396 . S
C327 C322 1.499 . S
C327 H328 0.959 . S
C327 H329 0.960 . S
C327 H330 0.961 . S
H328 C327 0.959 . S
H329 C327 0.960 . S
H330 C327 0.961 . S
O331 Co306 1.967 . S
O331 C339 1.258 . S
O332 Co307 1.941 . S
O332 C339 1.266 . S
H333 C335 0.959 . S
H334 C335 0.961 . S
C335 C325 1.510 . S
C335 H333 0.959 . S
C335 H334 0.961 . S
C335 H336 0.960 . S
H336 C335 0.960 . S
H337 N317 0.862 . S
O338 Co306 1.920 . S
O338 C311 1.289 . S
C339 O331 1.258 . S
C339 O332 1.266 . S
Co340 O343 1.970 . S
Co340 N357 1.989 . S
Co340 O365 1.967 . S
Co340 O372 1.920 . S
Co341 O344 1.966 . S
Co341 N350 2.022 . S
Co341 N358 1.993 . S
Co341 O366 1.941 . S
C342 O343 1.258 . S
C342 O344 1.263 . S
O343 Co340 1.970 . S
O343 C342 1.258 . S
O344 Co341 1.966 . S
O344 C342 1.263 . S
C345 O346 1.235 . S
C345 O372 1.289 . S
O346 C345 1.235 . S
C347 C349 1.400 . S
C347 N350 1.351 . S
C347 C352 1.501 . S
C348 C349 1.387 . S
C348 N351 1.341 . S
C349 C347 1.400 . S
C349 C348 1.387 . S
N350 Co341 2.022 . S
N350 C347 1.351 . S
N350 N351 1.365 . S
N351 C348 1.341 . S
N351 N350 1.365 . S
N351 H371 0.862 . S
C352 C347 1.501 . S
C352 H353 0.961 . S
C352 H354 0.961 . S
C352 H355 0.960 . S
H353 C352 0.961 . S
H354 C352 0.961 . S
H355 C352 0.960 . S
C356 N357 1.342 . S
C356 C360 1.401 . S
C356 C361 1.499 . S
N357 Co340 1.989 . S
N357 C356 1.342 . S
N357 N358 1.388 . S
N358 Co341 1.993 . S
N358 N357 1.388 . S
N358 C359 1.346 . S
C359 N358 1.346 . S
C359 C360 1.396 . S
C359 C369 1.510 . S
C360 C356 1.401 . S
C360 C359 1.396 . S
C361 C356 1.499 . S
C361 H362 0.959 . S
C361 H363 0.960 . S
C361 H364 0.961 . S
H362 C361 0.959 . S
H363 C361 0.960 . S
H364 C361 0.961 . S
O365 Co340 1.967 . S
O365 C373 1.258 . S
O366 Co341 1.941 . S
O366 C373 1.266 . S
H367 C369 0.959 . S
H368 C369 0.961 . S
C369 C359 1.510 . S
C369 H367 0.959 . S
C369 H368 0.961 . S
C369 H370 0.960 . S
H370 C369 0.960 . S
H371 N351 0.862 . S
O372 Co340 1.920 . S
O372 C345 1.289 . S
C373 O365 1.258 . S
C373 O366 1.266 . S
Co374 O377 1.970 . S
Co374 N391 1.989 . S
Co374 O399 1.967 . S
Co374 O406 1.920 . S
Co375 O378 1.966 . S
Co375 N384 2.022 . S
Co375 N392 1.993 . S
Co375 O400 1.941 . S
C376 O377 1.258 . S
C376 O378 1.263 . S
O377 Co374 1.970 . S
O377 C376 1.258 . S
O378 Co375 1.966 . S
O378 C376 1.263 . S
C379 O380 1.235 . S
C379 O406 1.289 . S
O380 C379 1.235 . S
C381 C383 1.400 . S
C381 N384 1.351 . S
C381 C386 1.501 . S
C382 C383 1.387 . S
C382 N385 1.341 . S
C383 C381 1.400 . S
C383 C382 1.387 . S
N384 Co375 2.022 . S
N384 C381 1.351 . S
N384 N385 1.365 . S
N385 C382 1.341 . S
N385 N384 1.365 . S
N385 H405 0.862 . S
C386 C381 1.501 . S
C386 H387 0.961 . S
C386 H388 0.961 . S
C386 H389 0.960 . S
H387 C386 0.961 . S
H388 C386 0.961 . S
H389 C386 0.960 . S
C390 N391 1.342 . S
C390 C394 1.401 . S
C390 C395 1.499 . S
N391 Co374 1.989 . S
N391 C390 1.342 . S
N391 N392 1.388 . S
N392 Co375 1.993 . S
N392 N391 1.388 . S
N392 C393 1.346 . S
C393 N392 1.346 . S
C393 C394 1.396 . S
C393 C403 1.510 . S
C394 C390 1.401 . S
C394 C393 1.396 . S
C395 C390 1.499 . S
C395 H396 0.959 . S
C395 H397 0.960 . S
C395 H398 0.961 . S
H396 C395 0.959 . S
H397 C395 0.960 . S
H398 C395 0.961 . S
O399 Co374 1.967 . S
O399 C407 1.258 . S
O400 Co375 1.941 . S
O400 C407 1.266 . S
H401 C403 0.959 . S
H402 C403 0.961 . S
C403 C393 1.510 . S
C403 H401 0.959 . S
C403 H402 0.961 . S
C403 H404 0.960 . S
H404 C403 0.960 . S
H405 N385 0.862 . S
O406 Co374 1.920 . S
O406 C379 1.289 . S
C407 O399 1.258 . S
C407 O400 1.266 . S
C408 C409 1.391 . S
C408 C410 1.394 . S
C408 H424 0.931 . S
C409 C408 1.391 . S
C409 C413 1.376 . S
C410 C408 1.394 . S
C410 C411 1.369 . S
C410 C414 1.531 . S
C411 C410 1.369 . S
C411 C412 1.410 . S
C411 C419 1.503 . S
C412 C411 1.410 . S
C412 C413 1.392 . S
C412 C415 1.511 . S
C413 C409 1.376 . S
C413 C412 1.392 . S
C413 H425 0.929 . S
C414 C410 1.531 . S
C414 H426 0.960 . S
C414 H427 0.962 . S
C414 H428 0.960 . S
C415 C412 1.511 . S
C415 H429 0.961 . S
C415 H430 0.961 . S
C415 H431 0.961 . S
C416 C417 1.370 . S
C416 C418 1.363 . S
C416 H432 0.931 1_554 S
C417 C416 1.370 . S
C417 C421 1.408 . S
C418 C416 1.363 . S
C418 C419 1.370 . S
C418 C422 1.524 1_554 S
C419 C411 1.503 . S
C419 C418 1.370 . S
C419 C420 1.403 . S
C420 C419 1.403 . S
C420 C421 1.404 . S
C420 C423 1.539 . S
C421 C417 1.408 . S
C421 C420 1.404 . S
C421 H433 0.930 . S
C422 C418 1.524 1_556 S
C422 H434 0.956 . S
C422 H435 0.961 . S
C422 H436 0.961 . S
C423 C420 1.539 . S
C423 H437 0.958 . S
C423 H438 0.961 . S
C423 H439 0.960 . S
H424 C408 0.931 . S
H425 C413 0.929 . S
H426 C414 0.960 . S
H427 C414 0.962 . S
H428 C414 0.960 . S
H429 C415 0.961 . S
H430 C415 0.961 . S
H431 C415 0.961 . S
H432 C416 0.931 1_556 S
H433 C421 0.930 . S
H434 C422 0.956 . S
H435 C422 0.961 . S
H436 C422 0.961 . S
H437 C423 0.958 . S
H438 C423 0.961 . S
H439 C423 0.960 . S
C440 C441 1.391 . S
C440 C442 1.394 . S
C440 H456 0.931 . S
C441 C440 1.391 . S
C441 C445 1.376 . S
C442 C440 1.394 . S
C442 C443 1.369 . S
C442 C446 1.531 . S
C443 C442 1.369 . S
C443 C444 1.410 . S
C443 C451 1.503 . S
C444 C443 1.410 . S
C444 C445 1.392 . S
C444 C447 1.511 . S
C445 C441 1.376 . S
C445 C444 1.392 . S
C445 H457 0.929 . S
C446 C442 1.531 . S
C446 H458 0.960 . S
C446 H459 0.962 . S
C446 H460 0.960 . S
C447 C444 1.511 . S
C447 H461 0.961 . S
C447 H462 0.961 . S
C447 H463 0.961 . S
C448 C449 1.370 . S
C448 C450 1.363 . S
C448 H464 0.931 . S
C449 C448 1.370 . S
C449 C453 1.408 . S
C450 C448 1.363 . S
C450 C451 1.370 . S
C450 C454 1.524 . S
C451 C443 1.503 . S
C451 C450 1.370 . S
C451 C452 1.403 . S
C452 C451 1.403 . S
C452 C453 1.404 . S
C452 C455 1.539 . S
C453 C449 1.408 . S
C453 C452 1.404 . S
C453 H465 0.930 . S
C454 C450 1.524 . S
C454 H466 0.956 . S
C454 H467 0.961 . S
C454 H468 0.961 . S
C455 C452 1.539 . S
C455 H469 0.958 . S
C455 H470 0.961 . S
C455 H471 0.960 . S
H456 C440 0.931 . S
H457 C445 0.929 . S
H458 C446 0.960 . S
H459 C446 0.962 . S
H460 C446 0.960 . S
H461 C447 0.961 . S
H462 C447 0.961 . S
H463 C447 0.961 . S
H464 C448 0.931 . S
H465 C453 0.930 . S
H466 C454 0.956 . S
H467 C454 0.961 . S
H468 C454 0.961 . S
H469 C455 0.958 . S
H470 C455 0.961 . S
H471 C455 0.960 . S
C472 C473 1.391 . S
C472 C474 1.394 . S
C472 H488 0.931 . S
C473 C472 1.391 . S
C473 C477 1.376 . S
C474 C472 1.394 . S
C474 C475 1.369 . S
C474 C478 1.531 . S
C475 C474 1.369 . S
C475 C476 1.410 . S
C475 C483 1.503 . S
C476 C475 1.410 . S
C476 C477 1.392 . S
C476 C479 1.511 . S
C477 C473 1.376 . S
C477 C476 1.392 . S
C477 H489 0.929 . S
C478 C474 1.531 . S
C478 H490 0.960 . S
C478 H491 0.962 . S
C478 H492 0.960 . S
C479 C476 1.511 . S
C479 H493 0.961 . S
C479 H494 0.961 . S
C479 H495 0.961 . S
C480 C481 1.370 . S
C480 C482 1.363 . S
C480 H496 0.931 . S
C481 C480 1.370 . S
C481 C485 1.408 . S
C482 C480 1.363 . S
C482 C483 1.370 . S
C482 C486 1.524 . S
C483 C475 1.503 . S
C483 C482 1.370 . S
C483 C484 1.403 . S
C484 C483 1.403 . S
C484 C485 1.404 . S
C484 C487 1.539 . S
C485 C481 1.408 . S
C485 C484 1.404 . S
C485 H497 0.930 . S
C486 C482 1.524 . S
C486 H498 0.956 . S
C486 H499 0.961 . S
C486 H500 0.961 . S
C487 C484 1.539 . S
C487 H501 0.958 . S
C487 H502 0.961 . S
C487 H503 0.960 . S
H488 C472 0.931 . S
H489 C477 0.929 . S
H490 C478 0.960 . S
H491 C478 0.962 . S
H492 C478 0.960 . S
H493 C479 0.961 . S
H494 C479 0.961 . S
H495 C479 0.961 . S
H496 C480 0.931 . S
H497 C485 0.930 . S
H498 C486 0.956 . S
H499 C486 0.961 . S
H500 C486 0.961 . S
H501 C487 0.958 . S
H502 C487 0.961 . S
H503 C487 0.960 . S
C504 C505 1.391 . S
C504 C506 1.394 . S
C504 H520 0.931 . S
C505 C504 1.391 . S
C505 C509 1.376 . S
C506 C504 1.394 . S
C506 C507 1.369 . S
C506 C510 1.531 . S
C507 C506 1.369 . S
C507 C508 1.410 . S
C507 C515 1.503 . S
C508 C507 1.410 . S
C508 C509 1.392 . S
C508 C511 1.511 . S
C509 C505 1.376 . S
C509 C508 1.392 . S
C509 H521 0.929 . S
C510 C506 1.531 . S
C510 H522 0.960 . S
C510 H523 0.962 . S
C510 H524 0.960 . S
C511 C508 1.511 . S
C511 H525 0.961 . S
C511 H526 0.961 . S
C511 H527 0.961 . S
C512 C513 1.370 . S
C512 C514 1.363 . S
C512 H528 0.931 . S
C513 C512 1.370 . S
C513 C517 1.408 . S
C514 C512 1.363 . S
C514 C515 1.370 . S
C514 C518 1.524 . S
C515 C507 1.503 . S
C515 C514 1.370 . S
C515 C516 1.403 . S
C516 C515 1.403 . S
C516 C517 1.404 . S
C516 C519 1.539 . S
C517 C513 1.408 . S
C517 C516 1.404 . S
C517 H529 0.930 . S
C518 C514 1.524 . S
C518 H530 0.956 . S
C518 H531 0.961 . S
C518 H532 0.961 . S
C519 C516 1.539 . S
C519 H533 0.958 . S
C519 H534 0.961 . S
C519 H535 0.960 . S
H520 C504 0.931 . S
H521 C509 0.929 . S
H522 C510 0.960 . S
H523 C510 0.962 . S
H524 C510 0.960 . S
H525 C511 0.961 . S
H526 C511 0.961 . S
H527 C511 0.961 . S
H528 C512 0.931 . S
H529 C517 0.930 . S
H530 C518 0.956 . S
H531 C518 0.961 . S
H532 C518 0.961 . S
H533 C519 0.958 . S
H534 C519 0.961 . S
H535 C519 0.960 . S
C536 C537 1.391 . S
C536 C538 1.394 . S
C536 H552 0.931 . S
C537 C536 1.391 . S
C537 C541 1.376 . S
C538 C536 1.394 . S
C538 C539 1.369 . S
C538 C542 1.531 . S
C539 C538 1.369 . S
C539 C540 1.410 . S
C539 C547 1.503 . S
C540 C539 1.410 . S
C540 C541 1.392 . S
C540 C543 1.511 . S
C541 C537 1.376 . S
C541 C540 1.392 . S
C541 H553 0.929 . S
C542 C538 1.531 . S
C542 H554 0.960 . S
C542 H555 0.962 . S
C542 H556 0.960 . S
C543 C540 1.511 . S
C543 H557 0.961 . S
C543 H558 0.961 . S
C543 H559 0.961 . S
C544 C545 1.370 . S
C544 C546 1.363 . S
C544 H560 0.931 . S
C545 C544 1.370 . S
C545 C549 1.408 . S
C546 C544 1.363 . S
C546 C547 1.370 . S
C546 C550 1.524 . S
C547 C539 1.503 . S
C547 C546 1.370 . S
C547 C548 1.403 . S
C548 C547 1.403 . S
C548 C549 1.404 . S
C548 C551 1.539 . S
C549 C545 1.408 . S
C549 C548 1.404 . S
C549 H561 0.930 . S
C550 C546 1.524 . S
C550 H562 0.956 . S
C550 H563 0.961 . S
C550 H564 0.961 . S
C551 C548 1.539 . S
C551 H565 0.958 . S
C551 H566 0.961 . S
C551 H567 0.960 . S
H552 C536 0.931 . S
H553 C541 0.929 . S
H554 C542 0.960 . S
H555 C542 0.962 . S
H556 C542 0.960 . S
H557 C543 0.961 . S
H558 C543 0.961 . S
H559 C543 0.961 . S
H560 C544 0.931 . S
H561 C549 0.930 . S
H562 C550 0.956 . S
H563 C550 0.961 . S
H564 C550 0.961 . S
H565 C551 0.958 . S
H566 C551 0.961 . S
H567 C551 0.960 . S
C568 C569 1.391 . S
C568 C570 1.394 . S
C568 H584 0.931 . S
C569 C568 1.391 . S
C569 C573 1.376 . S
C570 C568 1.394 . S
C570 C571 1.369 . S
C570 C574 1.531 . S
C571 C570 1.369 . S
C571 C572 1.410 . S
C571 C579 1.503 . S
C572 C571 1.410 . S
C572 C573 1.392 . S
C572 C575 1.511 . S
C573 C569 1.376 . S
C573 C572 1.392 . S
C573 H585 0.929 . S
C574 C570 1.531 . S
C574 H586 0.960 . S
C574 H587 0.962 . S
C574 H588 0.960 . S
C575 C572 1.511 . S
C575 H589 0.961 . S
C575 H590 0.961 . S
C575 H591 0.961 . S
C576 C577 1.370 . S
C576 C578 1.363 . S
C576 H592 0.931 1_556 S
C577 C576 1.370 . S
C577 C581 1.408 . S
C578 C576 1.363 . S
C578 C579 1.370 . S
C578 C582 1.524 1_556 S
C579 C571 1.503 . S
C579 C578 1.370 . S
C579 C580 1.403 . S
C580 C579 1.403 . S
C580 C581 1.404 . S
C580 C583 1.539 . S
C581 C577 1.408 . S
C581 C580 1.404 . S
C581 H593 0.930 . S
C582 C578 1.524 1_554 S
C582 H594 0.956 . S
C582 H595 0.961 . S
C582 H596 0.961 . S
C583 C580 1.539 . S
C583 H597 0.958 . S
C583 H598 0.961 . S
C583 H599 0.960 . S
H584 C568 0.931 . S
H585 C573 0.929 . S
H586 C574 0.960 . S
H587 C574 0.962 . S
H588 C574 0.960 . S
H589 C575 0.961 . S
H590 C575 0.961 . S
H591 C575 0.961 . S
H592 C576 0.931 1_554 S
H593 C581 0.930 . S
H594 C582 0.956 . S
H595 C582 0.961 . S
H596 C582 0.961 . S
H597 C583 0.958 . S
H598 C583 0.961 . S
H599 C583 0.960 . S
C600 C601 1.391 . S
C600 C602 1.394 . S
C600 H616 0.931 . S
C601 C600 1.391 . S
C601 C605 1.376 . S
C602 C600 1.394 . S
C602 C603 1.369 . S
C602 C606 1.531 . S
C603 C602 1.369 . S
C603 C604 1.410 . S
C603 C611 1.503 . S
C604 C603 1.410 . S
C604 C605 1.392 . S
C604 C607 1.511 . S
C605 C601 1.376 . S
C605 C604 1.392 . S
C605 H617 0.929 . S
C606 C602 1.531 . S
C606 H618 0.960 . S
C606 H619 0.962 . S
C606 H620 0.960 . S
C607 C604 1.511 . S
C607 H621 0.961 . S
C607 H622 0.961 . S
C607 H623 0.961 . S
C608 C609 1.370 . S
C608 C610 1.363 . S
C608 H624 0.931 . S
C609 C608 1.370 . S
C609 C613 1.408 . S
C610 C608 1.363 . S
C610 C611 1.370 . S
C610 C614 1.524 . S
C611 C603 1.503 . S
C611 C610 1.370 . S
C611 C612 1.403 . S
C612 C611 1.403 . S
C612 C613 1.404 . S
C612 C615 1.539 . S
C613 C609 1.408 . S
C613 C612 1.404 . S
C613 H625 0.930 . S
C614 C610 1.524 . S
C614 H626 0.956 . S
C614 H627 0.961 . S
C614 H628 0.961 . S
C615 C612 1.539 . S
C615 H629 0.958 . S
C615 H630 0.961 . S
C615 H631 0.960 . S
H616 C600 0.931 . S
H617 C605 0.929 . S
H618 C606 0.960 . S
H619 C606 0.962 . S
H620 C606 0.960 . S
H621 C607 0.961 . S
H622 C607 0.961 . S
H623 C607 0.961 . S
H624 C608 0.931 . S
H625 C613 0.930 . S
H626 C614 0.956 . S
H627 C614 0.961 . S
H628 C614 0.961 . S
H629 C615 0.958 . S
H630 C615 0.961 . S
H631 C615 0.960 . S
C632 C633 1.391 . S
C632 C634 1.394 . S
C632 H648 0.931 . S
C633 C632 1.391 . S
C633 C637 1.376 . S
C634 C632 1.394 . S
C634 C635 1.369 . S
C634 C638 1.531 . S
C635 C634 1.369 . S
C635 C636 1.410 . S
C635 C643 1.503 . S
C636 C635 1.410 . S
C636 C637 1.392 . S
C636 C639 1.511 . S
C637 C633 1.376 . S
C637 C636 1.392 . S
C637 H649 0.929 . S
C638 C634 1.531 . S
C638 H650 0.960 . S
C638 H651 0.962 . S
C638 H652 0.960 . S
C639 C636 1.511 . S
C639 H653 0.961 . S
C639 H654 0.961 . S
C639 H655 0.961 . S
C640 C641 1.370 . S
C640 C642 1.363 . S
C640 H656 0.931 . S
C641 C640 1.370 . S
C641 C645 1.408 . S
C642 C640 1.363 . S
C642 C643 1.370 . S
C642 C646 1.524 . S
C643 C635 1.503 . S
C643 C642 1.370 . S
C643 C644 1.403 . S
C644 C643 1.403 . S
C644 C645 1.404 . S
C644 C647 1.539 . S
C645 C641 1.408 . S
C645 C644 1.404 . S
C645 H657 0.930 . S
C646 C642 1.524 . S
C646 H658 0.956 . S
C646 H659 0.961 . S
C646 H660 0.961 . S
C647 C644 1.539 . S
C647 H661 0.958 . S
C647 H662 0.961 . S
C647 H663 0.960 . S
H648 C632 0.931 . S
H649 C637 0.929 . S
H650 C638 0.960 . S
H651 C638 0.962 . S
H652 C638 0.960 . S
H653 C639 0.961 . S
H654 C639 0.961 . S
H655 C639 0.961 . S
H656 C640 0.931 . S
H657 C645 0.930 . S
H658 C646 0.956 . S
H659 C646 0.961 . S
H660 C646 0.961 . S
H661 C647 0.958 . S
H662 C647 0.961 . S
H663 C647 0.960 . S
C664 C665 1.391 . S
C664 C666 1.394 . S
C664 H680 0.931 . S
C665 C664 1.391 . S
C665 C669 1.376 . S
C666 C664 1.394 . S
C666 C667 1.369 . S
C666 C670 1.531 . S
C667 C666 1.369 . S
C667 C668 1.410 . S
C667 C675 1.503 . S
C668 C667 1.410 . S
C668 C669 1.392 . S
C668 C671 1.511 . S
C669 C665 1.376 . S
C669 C668 1.392 . S
C669 H681 0.929 . S
C670 C666 1.531 . S
C670 H682 0.960 . S
C670 H683 0.962 . S
C670 H684 0.960 . S
C671 C668 1.511 . S
C671 H685 0.961 . S
C671 H686 0.961 . S
C671 H687 0.961 . S
C672 C673 1.370 . S
C672 C674 1.363 1_554 S
C672 H688 0.931 . S
C673 C672 1.370 . S
C673 C677 1.408 . S
C674 C672 1.363 1_556 S
C674 C675 1.370 . S
C674 C678 1.524 . S
C675 C667 1.503 . S
C675 C674 1.370 . S
C675 C676 1.403 . S
C676 C675 1.403 . S
C676 C677 1.404 1_556 S
C676 C679 1.539 . S
C677 C673 1.408 . S
C677 C676 1.404 1_554 S
C677 H689 0.930 . S
C678 C674 1.524 . S
C678 H690 0.956 . S
C678 H691 0.961 . S
C678 H692 0.961 . S
C679 C676 1.539 . S
C679 H693 0.958 . S
C679 H694 0.961 . S
C679 H695 0.960 . S
H680 C664 0.931 . S
H681 C669 0.929 . S
H682 C670 0.960 . S
H683 C670 0.962 . S
H684 C670 0.960 . S
H685 C671 0.961 . S
H686 C671 0.961 . S
H687 C671 0.961 . S
H688 C672 0.931 . S
H689 C677 0.930 . S
H690 C678 0.956 . S
H691 C678 0.961 . S
H692 C678 0.961 . S
H693 C679 0.958 . S
H694 C679 0.961 . S
H695 C679 0.960 . S
C696 C697 1.391 . S
C696 C698 1.394 . S
C696 H712 0.931 . S
C697 C696 1.391 . S
C697 C701 1.376 . S
C698 C696 1.394 . S
C698 C699 1.369 1_556 S
C698 C702 1.531 1_556 S
C699 C698 1.369 1_554 S
C699 C700 1.410 1_554 S
C699 C707 1.503 . S
C700 C699 1.410 1_556 S
C700 C701 1.392 . S
C700 C703 1.511 . S
C701 C697 1.376 . S
C701 C700 1.392 . S
C701 H713 0.929 . S
C702 C698 1.531 1_554 S
C702 H714 0.960 . S
C702 H715 0.962 . S
C702 H716 0.960 . S
C703 C700 1.511 . S
C703 H717 0.961 . S
C703 H718 0.961 1_556 S
C703 H719 0.961 1_556 S
C704 C705 1.370 . S
C704 C706 1.363 . S
C704 H720 0.931 . S
C705 C704 1.370 . S
C705 C709 1.408 . S
C706 C704 1.363 . S
C706 C707 1.370 . S
C706 C710 1.524 . S
C707 C699 1.503 . S
C707 C706 1.370 . S
C707 C708 1.403 . S
C708 C707 1.403 . S
C708 C709 1.404 . S
C708 C711 1.539 . S
C709 C705 1.408 . S
C709 C708 1.404 . S
C709 H721 0.930 . S
C710 C706 1.524 . S
C710 H722 0.956 . S
C710 H723 0.961 . S
C710 H724 0.961 . S
C711 C708 1.539 . S
C711 H725 0.958 . S
C711 H726 0.961 . S
C711 H727 0.960 . S
H712 C696 0.931 . S
H713 C701 0.929 . S
H714 C702 0.960 . S
H715 C702 0.962 . S
H716 C702 0.960 . S
H717 C703 0.961 . S
H718 C703 0.961 1_554 S
H719 C703 0.961 1_554 S
H720 C704 0.931 . S
H721 C709 0.930 . S
H722 C710 0.956 . S
H723 C710 0.961 . S
H724 C710 0.961 . S
H725 C711 0.958 . S
H726 C711 0.961 . S
H727 C711 0.960 . S
C728 C729 1.391 . S
C728 C730 1.394 . S
C728 H744 0.931 . S
C729 C728 1.391 . S
C729 C733 1.376 . S
C730 C728 1.394 . S
C730 C731 1.369 . S
C730 C734 1.531 . S
C731 C730 1.369 . S
C731 C732 1.410 . S
C731 C739 1.503 . S
C732 C731 1.410 . S
C732 C733 1.392 . S
C732 C735 1.511 . S
C733 C729 1.376 . S
C733 C732 1.392 . S
C733 H745 0.929 . S
C734 C730 1.531 . S
C734 H746 0.960 . S
C734 H747 0.962 . S
C734 H748 0.960 . S
C735 C732 1.511 . S
C735 H749 0.961 . S
C735 H750 0.961 . S
C735 H751 0.961 . S
C736 C737 1.370 . S
C736 C738 1.363 . S
C736 H752 0.931 . S
C737 C736 1.370 . S
C737 C741 1.408 . S
C738 C736 1.363 . S
C738 C739 1.370 . S
C738 C742 1.524 . S
C739 C731 1.503 . S
C739 C738 1.370 . S
C739 C740 1.403 . S
C740 C739 1.403 . S
C740 C741 1.404 . S
C740 C743 1.539 . S
C741 C737 1.408 . S
C741 C740 1.404 . S
C741 H753 0.930 . S
C742 C738 1.524 . S
C742 H754 0.956 . S
C742 H755 0.961 . S
C742 H756 0.961 . S
C743 C740 1.539 . S
C743 H757 0.958 . S
C743 H758 0.961 . S
C743 H759 0.960 . S
H744 C728 0.931 . S
H745 C733 0.929 . S
H746 C734 0.960 . S
H747 C734 0.962 . S
H748 C734 0.960 . S
H749 C735 0.961 . S
H750 C735 0.961 . S
H751 C735 0.961 . S
H752 C736 0.931 . S
H753 C741 0.930 . S
H754 C742 0.956 . S
H755 C742 0.961 . S
H756 C742 0.961 . S
H757 C743 0.958 . S
H758 C743 0.961 . S
H759 C743 0.960 . S
C760 C761 1.391 . S
C760 C762 1.394 . S
C760 H776 0.931 . S
C761 C760 1.391 . S
C761 C765 1.376 . S
C762 C760 1.394 . S
C762 C763 1.369 . S
C762 C766 1.531 . S
C763 C762 1.369 . S
C763 C764 1.410 . S
C763 C771 1.503 . S
C764 C763 1.410 . S
C764 C765 1.392 . S
C764 C767 1.511 . S
C765 C761 1.376 . S
C765 C764 1.392 . S
C765 H777 0.929 . S
C766 C762 1.531 . S
C766 H778 0.960 . S
C766 H779 0.962 . S
C766 H780 0.960 . S
C767 C764 1.511 . S
C767 H781 0.961 . S
C767 H782 0.961 . S
C767 H783 0.961 . S
C768 C769 1.370 . S
C768 C770 1.363 . S
C768 H784 0.931 . S
C769 C768 1.370 . S
C769 C773 1.408 . S
C770 C768 1.363 . S
C770 C771 1.370 . S
C770 C774 1.524 . S
C771 C763 1.503 . S
C771 C770 1.370 . S
C771 C772 1.403 . S
C772 C771 1.403 . S
C772 C773 1.404 . S
C772 C775 1.539 . S
C773 C769 1.408 . S
C773 C772 1.404 . S
C773 H785 0.930 . S
C774 C770 1.524 . S
C774 H786 0.956 . S
C774 H787 0.961 . S
C774 H788 0.961 . S
C775 C772 1.539 . S
C775 H789 0.958 . S
C775 H790 0.961 . S
C775 H791 0.960 . S
H776 C760 0.931 . S
H777 C765 0.929 . S
H778 C766 0.960 . S
H779 C766 0.962 . S
H780 C766 0.960 . S
H781 C767 0.961 . S
H782 C767 0.961 . S
H783 C767 0.961 . S
H784 C768 0.931 . S
H785 C773 0.930 . S
H786 C774 0.956 . S
H787 C774 0.961 . S
H788 C774 0.961 . S
H789 C775 0.958 . S
H790 C775 0.961 . S
H791 C775 0.960 . S
C792 C793 1.391 . S
C792 C794 1.394 . S
C792 H808 0.931 . S
C793 C792 1.391 . S
C793 C797 1.376 . S
C794 C792 1.394 . S
C794 C795 1.369 . S
C794 C798 1.531 . S
C795 C794 1.369 . S
C795 C796 1.410 . S
C795 C803 1.503 . S
C796 C795 1.410 . S
C796 C797 1.392 . S
C796 C799 1.511 . S
C797 C793 1.376 . S
C797 C796 1.392 . S
C797 H809 0.929 . S
C798 C794 1.531 . S
C798 H810 0.960 . S
C798 H811 0.962 . S
C798 H812 0.960 . S
C799 C796 1.511 . S
C799 H813 0.961 . S
C799 H814 0.961 . S
C799 H815 0.961 . S
C800 C801 1.370 . S
C800 C802 1.363 . S
C800 H816 0.931 . S
C801 C800 1.370 . S
C801 C805 1.408 . S
C802 C800 1.363 . S
C802 C803 1.370 . S
C802 C806 1.524 . S
C803 C795 1.503 . S
C803 C802 1.370 . S
C803 C804 1.403 . S
C804 C803 1.403 . S
C804 C805 1.404 . S
C804 C807 1.539 . S
C805 C801 1.408 . S
C805 C804 1.404 . S
C805 H817 0.930 . S
C806 C802 1.524 . S
C806 H818 0.956 . S
C806 H819 0.961 . S
C806 H820 0.961 . S
C807 C804 1.539 . S
C807 H821 0.958 . S
C807 H822 0.961 . S
C807 H823 0.960 . S
H808 C792 0.931 . S
H809 C797 0.929 . S
H810 C798 0.960 . S
H811 C798 0.962 . S
H812 C798 0.960 . S
H813 C799 0.961 . S
H814 C799 0.961 . S
H815 C799 0.961 . S
H816 C800 0.931 . S
H817 C805 0.930 . S
H818 C806 0.956 . S
H819 C806 0.961 . S
H820 C806 0.961 . S
H821 C807 0.958 . S
H822 C807 0.961 . S
H823 C807 0.960 . S
C824 C825 1.391 . S
C824 C826 1.394 . S
C824 H840 0.931 . S
C825 C824 1.391 . S
C825 C829 1.376 . S
C826 C824 1.394 . S
C826 C827 1.369 . S
C826 C830 1.531 . S
C827 C826 1.369 . S
C827 C828 1.410 . S
C827 C835 1.503 . S
C828 C827 1.410 . S
C828 C829 1.392 . S
C828 C831 1.511 . S
C829 C825 1.376 . S
C829 C828 1.392 . S
C829 H841 0.929 . S
C830 C826 1.531 . S
C830 H842 0.960 . S
C830 H843 0.962 . S
C830 H844 0.960 . S
C831 C828 1.511 . S
C831 H845 0.961 . S
C831 H846 0.961 . S
C831 H847 0.961 . S
C832 C833 1.370 . S
C832 C834 1.363 . S
C832 H848 0.931 . S
C833 C832 1.370 . S
C833 C837 1.408 . S
C834 C832 1.363 . S
C834 C835 1.370 . S
C834 C838 1.524 . S
C835 C827 1.503 . S
C835 C834 1.370 . S
C835 C836 1.403 . S
C836 C835 1.403 . S
C836 C837 1.404 . S
C836 C839 1.539 . S
C837 C833 1.408 . S
C837 C836 1.404 . S
C837 H849 0.930 . S
C838 C834 1.524 . S
C838 H850 0.956 . S
C838 H851 0.961 . S
C838 H852 0.961 . S
C839 C836 1.539 . S
C839 H853 0.958 . S
C839 H854 0.961 . S
C839 H855 0.960 . S
H840 C824 0.931 . S
H841 C829 0.929 . S
H842 C830 0.960 . S
H843 C830 0.962 . S
H844 C830 0.960 . S
H845 C831 0.961 . S
H846 C831 0.961 . S
H847 C831 0.961 . S
H848 C832 0.931 . S
H849 C837 0.930 . S
H850 C838 0.956 . S
H851 C838 0.961 . S
H852 C838 0.961 . S
H853 C839 0.958 . S
H854 C839 0.961 . S
H855 C839 0.960 . S
C856 C857 1.391 . S
C856 C858 1.394 . S
C856 H872 0.931 . S
C857 C856 1.391 . S
C857 C861 1.376 . S
C858 C856 1.394 . S
C858 C859 1.369 . S
C858 C862 1.531 . S
C859 C858 1.369 . S
C859 C860 1.410 . S
C859 C867 1.503 . S
C860 C859 1.410 . S
C860 C861 1.392 . S
C860 C863 1.511 . S
C861 C857 1.376 . S
C861 C860 1.392 . S
C861 H873 0.929 . S
C862 C858 1.531 . S
C862 H874 0.960 . S
C862 H875 0.962 . S
C862 H876 0.960 . S
C863 C860 1.511 . S
C863 H877 0.961 . S
C863 H878 0.961 . S
C863 H879 0.961 . S
C864 C865 1.370 . S
C864 C866 1.363 . S
C864 H880 0.931 . S
C865 C864 1.370 . S
C865 C869 1.408 . S
C866 C864 1.363 . S
C866 C867 1.370 . S
C866 C870 1.524 . S
C867 C859 1.503 . S
C867 C866 1.370 . S
C867 C868 1.403 . S
C868 C867 1.403 . S
C868 C869 1.404 . S
C868 C871 1.539 . S
C869 C865 1.408 . S
C869 C868 1.404 . S
C869 H881 0.930 . S
C870 C866 1.524 . S
C870 H882 0.956 . S
C870 H883 0.961 . S
C870 H884 0.961 . S
C871 C868 1.539 . S
C871 H885 0.958 . S
C871 H886 0.961 . S
C871 H887 0.960 . S
H872 C856 0.931 . S
H873 C861 0.929 . S
H874 C862 0.960 . S
H875 C862 0.962 . S
H876 C862 0.960 . S
H877 C863 0.961 . S
H878 C863 0.961 . S
H879 C863 0.961 . S
H880 C864 0.931 . S
H881 C869 0.930 . S
H882 C870 0.956 . S
H883 C870 0.961 . S
H884 C870 0.961 . S
H885 C871 0.958 . S
H886 C871 0.961 . S
H887 C871 0.960 . S
C888 C889 1.391 . S
C888 C890 1.394 . S
C888 H904 0.931 . S
C889 C888 1.391 . S
C889 C893 1.376 . S
C890 C888 1.394 . S
C890 C891 1.369 . S
C890 C894 1.531 . S
C891 C890 1.369 . S
C891 C892 1.410 . S
C891 C899 1.503 . S
C892 C891 1.410 . S
C892 C893 1.392 . S
C892 C895 1.511 . S
C893 C889 1.376 . S
C893 C892 1.392 . S
C893 H905 0.929 . S
C894 C890 1.531 . S
C894 H906 0.960 . S
C894 H907 0.962 . S
C894 H908 0.960 . S
C895 C892 1.511 . S
C895 H909 0.961 . S
C895 H910 0.961 . S
C895 H911 0.961 . S
C896 C897 1.370 . S
C896 C898 1.363 . S
C896 H912 0.931 . S
C897 C896 1.370 . S
C897 C901 1.408 . S
C898 C896 1.363 . S
C898 C899 1.370 . S
C898 C902 1.524 . S
C899 C891 1.503 . S
C899 C898 1.370 . S
C899 C900 1.403 . S
C900 C899 1.403 . S
C900 C901 1.404 . S
C900 C903 1.539 . S
C901 C897 1.408 . S
C901 C900 1.404 . S
C901 H913 0.930 . S
C902 C898 1.524 . S
C902 H914 0.956 . S
C902 H915 0.961 . S
C902 H916 0.961 . S
C903 C900 1.539 . S
C903 H917 0.958 . S
C903 H918 0.961 . S
C903 H919 0.960 . S
H904 C888 0.931 . S
H905 C893 0.929 . S
H906 C894 0.960 . S
H907 C894 0.962 . S
H908 C894 0.960 . S
H909 C895 0.961 . S
H910 C895 0.961 . S
H911 C895 0.961 . S
H912 C896 0.931 . S
H913 C901 0.930 . S
H914 C902 0.956 . S
H915 C902 0.961 . S
H916 C902 0.961 . S
H917 C903 0.958 . S
H918 C903 0.961 . S
H919 C903 0.960 . S
C920 C921 1.391 . S
C920 C922 1.394 . S
C920 H936 0.931 . S
C921 C920 1.391 . S
C921 C925 1.376 . S
C922 C920 1.394 . S
C922 C923 1.369 . S
C922 C926 1.531 . S
C923 C922 1.369 . S
C923 C924 1.410 . S
C923 C931 1.503 . S
C924 C923 1.410 . S
C924 C925 1.392 . S
C924 C927 1.511 . S
C925 C921 1.376 . S
C925 C924 1.392 . S
C925 H937 0.929 . S
C926 C922 1.531 . S
C926 H938 0.960 . S
C926 H939 0.962 . S
C926 H940 0.960 . S
C927 C924 1.511 . S
C927 H941 0.961 . S
C927 H942 0.961 . S
C927 H943 0.961 . S
C928 C929 1.370 . S
C928 C930 1.363 . S
C928 H944 0.931 . S
C929 C928 1.370 . S
C929 C933 1.408 . S
C930 C928 1.363 . S
C930 C931 1.370 1_554 S
C930 C934 1.524 1_554 S
C931 C923 1.503 . S
C931 C930 1.370 1_556 S
C931 C932 1.403 1_556 S
C932 C931 1.403 1_554 S
C932 C933 1.404 . S
C932 C935 1.539 1_554 S
C933 C929 1.408 . S
C933 C932 1.404 . S
C933 H945 0.930 . S
C934 C930 1.524 1_556 S
C934 H946 0.956 . S
C934 H947 0.961 . S
C934 H948 0.961 1_556 S
C935 C932 1.539 1_556 S
C935 H949 0.958 . S
C935 H950 0.961 . S
C935 H951 0.960 . S
H936 C920 0.931 . S
H937 C925 0.929 . S
H938 C926 0.960 . S
H939 C926 0.962 . S
H940 C926 0.960 . S
H941 C927 0.961 . S
H942 C927 0.961 . S
H943 C927 0.961 . S
H944 C928 0.931 . S
H945 C933 0.930 . S
H946 C934 0.956 . S
H947 C934 0.961 . S
H948 C934 0.961 1_554 S
H949 C935 0.958 . S
H950 C935 0.961 . S
H951 C935 0.960 . S
C952 C953 1.391 . S
C952 C954 1.394 . S
C952 H968 0.931 . S
C953 C952 1.391 . S
C953 C957 1.376 . S
C954 C952 1.394 . S
C954 C955 1.369 . S
C954 C958 1.531 . S
C955 C954 1.369 . S
C955 C956 1.410 . S
C955 C963 1.503 . S
C956 C955 1.410 . S
C956 C957 1.392 . S
C956 C959 1.511 . S
C957 C953 1.376 . S
C957 C956 1.392 . S
C957 H969 0.929 . S
C958 C954 1.531 . S
C958 H970 0.960 . S
C958 H971 0.962 . S
C958 H972 0.960 . S
C959 C956 1.511 . S
C959 H973 0.961 . S
C959 H974 0.961 . S
C959 H975 0.961 . S
C960 C961 1.370 . S
C960 C962 1.363 1_556 S
C960 H976 0.931 . S
C961 C960 1.370 . S
C961 C965 1.408 . S
C962 C960 1.363 1_554 S
C962 C963 1.370 . S
C962 C966 1.524 . S
C963 C955 1.503 . S
C963 C962 1.370 . S
C963 C964 1.403 . S
C964 C963 1.403 . S
C964 C965 1.404 1_554 S
C964 C967 1.539 . S
C965 C961 1.408 . S
C965 C964 1.404 1_556 S
C965 H977 0.930 . S
C966 C962 1.524 . S
C966 H978 0.956 . S
C966 H979 0.961 . S
C966 H980 0.961 . S
C967 C964 1.539 . S
C967 H981 0.958 . S
C967 H982 0.961 . S
C967 H983 0.960 . S
H968 C952 0.931 . S
H969 C957 0.929 . S
H970 C958 0.960 . S
H971 C958 0.962 . S
H972 C958 0.960 . S
H973 C959 0.961 . S
H974 C959 0.961 . S
H975 C959 0.961 . S
H976 C960 0.931 . S
H977 C965 0.930 . S
H978 C966 0.956 . S
H979 C966 0.961 . S
H980 C966 0.961 . S
H981 C967 0.958 . S
H982 C967 0.961 . S
H983 C967 0.960 . S
C984 C985 1.391 . S
C984 C986 1.394 . S
C984 H1000 0.931 . S
C985 C984 1.391 . S
C985 C989 1.376 . S
C986 C984 1.394 . S
C986 C987 1.369 . S
C986 C990 1.531 . S
C987 C986 1.369 . S
C987 C988 1.410 . S
C987 C995 1.503 . S
C988 C987 1.410 . S
C988 C989 1.392 . S
C988 C991 1.511 . S
C989 C985 1.376 . S
C989 C988 1.392 . S
C989 H1001 0.929 . S
C990 C986 1.531 . S
C990 H1002 0.960 . S
C990 H1003 0.962 . S
C990 H1004 0.960 . S
C991 C988 1.511 . S
C991 H1005 0.961 . S
C991 H1006 0.961 . S
C991 H1007 0.961 . S
C992 C993 1.370 . S
C992 C994 1.363 . S
C992 H1008 0.931 . S
C993 C992 1.370 . S
C993 C997 1.408 . S
C994 C992 1.363 . S
C994 C995 1.370 . S
C994 C998 1.524 . S
C995 C987 1.503 . S
C995 C994 1.370 . S
C995 C996 1.403 . S
C996 C995 1.403 . S
C996 C997 1.404 . S
C996 C999 1.539 . S
C997 C993 1.408 . S
C997 C996 1.404 . S
C997 H1009 0.930 . S
C998 C994 1.524 . S
C998 H1010 0.956 . S
C998 H1011 0.961 . S
C998 H1012 0.961 . S
C999 C996 1.539 . S
C999 H1013 0.958 . S
C999 H1014 0.961 . S
C999 H1015 0.960 . S
H1000 C984 0.931 . S
H1001 C989 0.929 . S
H1002 C990 0.960 . S
H1003 C990 0.962 . S
H1004 C990 0.960 . S
H1005 C991 0.961 . S
H1006 C991 0.961 . S
H1007 C991 0.961 . S
H1008 C992 0.931 . S
H1009 C997 0.930 . S
H1010 C998 0.956 . S
H1011 C998 0.961 . S
H1012 C998 0.961 . S
H1013 C999 0.958 . S
H1014 C999 0.961 . S
H1015 C999 0.960 . S
C1016 C1017 1.391 . S
C1016 C1018 1.394 . S
C1016 H1032 0.931 . S
C1017 C1016 1.391 . S
C1017 C1021 1.376 . S
C1018 C1016 1.394 . S
C1018 C1019 1.369 . S
C1018 C1022 1.531 . S
C1019 C1018 1.369 . S
C1019 C1020 1.410 . S
C1019 C1027 1.503 . S
C1020 C1019 1.410 . S
C1020 C1021 1.392 . S
C1020 C1023 1.511 . S
C1021 C1017 1.376 . S
C1021 C1020 1.392 . S
C1021 H1033 0.929 . S
C1022 C1018 1.531 . S
C1022 H1034 0.960 . S
C1022 H1035 0.962 . S
C1022 H1036 0.960 . S
C1023 C1020 1.511 . S
C1023 H1037 0.961 . S
C1023 H1038 0.961 . S
C1023 H1039 0.961 . S
C1024 C1025 1.370 . S
C1024 C1026 1.363 . S
C1024 H1040 0.931 . S
C1025 C1024 1.370 . S
C1025 C1029 1.408 . S
C1026 C1024 1.363 . S
C1026 C1027 1.370 . S
C1026 C1030 1.524 . S
C1027 C1019 1.503 . S
C1027 C1026 1.370 . S
C1027 C1028 1.403 . S
C1028 C1027 1.403 . S
C1028 C1029 1.404 . S
C1028 C1031 1.539 . S
C1029 C1025 1.408 . S
C1029 C1028 1.404 . S
C1029 H1041 0.930 . S
C1030 C1026 1.524 . S
C1030 H1042 0.956 . S
C1030 H1043 0.961 . S
C1030 H1044 0.961 . S
C1031 C1028 1.539 . S
C1031 H1045 0.958 . S
C1031 H1046 0.961 . S
C1031 H1047 0.960 . S
H1032 C1016 0.931 . S
H1033 C1021 0.929 . S
H1034 C1022 0.960 . S
H1035 C1022 0.962 . S
H1036 C1022 0.960 . S
H1037 C1023 0.961 . S
H1038 C1023 0.961 . S
H1039 C1023 0.961 . S
H1040 C1024 0.931 . S
H1041 C1029 0.930 . S
H1042 C1030 0.956 . S
H1043 C1030 0.961 . S
H1044 C1030 0.961 . S
H1045 C1031 0.958 . S
H1046 C1031 0.961 . S
H1047 C1031 0.960 . S
C1048 C1049 1.391 . S
C1048 C1050 1.394 . S
C1048 H1064 0.931 . S
C1049 C1048 1.391 . S
C1049 C1053 1.376 . S
C1050 C1048 1.394 . S
C1050 C1051 1.369 . S
C1050 C1054 1.531 . S
C1051 C1050 1.369 . S
C1051 C1052 1.410 . S
C1051 C1059 1.503 . S
C1052 C1051 1.410 . S
C1052 C1053 1.392 . S
C1052 C1055 1.511 . S
C1053 C1049 1.376 . S
C1053 C1052 1.392 . S
C1053 H1065 0.929 . S
C1054 C1050 1.531 . S
C1054 H1066 0.960 . S
C1054 H1067 0.962 . S
C1054 H1068 0.960 . S
C1055 C1052 1.511 . S
C1055 H1069 0.961 . S
C1055 H1070 0.961 . S
C1055 H1071 0.961 . S
C1056 C1057 1.370 . S
C1056 C1058 1.363 . S
C1056 H1072 0.931 . S
C1057 C1056 1.370 . S
C1057 C1061 1.408 . S
C1058 C1056 1.363 . S
C1058 C1059 1.370 . S
C1058 C1062 1.524 . S
C1059 C1051 1.503 . S
C1059 C1058 1.370 . S
C1059 C1060 1.403 . S
C1060 C1059 1.403 . S
C1060 C1061 1.404 . S
C1060 C1063 1.539 . S
C1061 C1057 1.408 . S
C1061 C1060 1.404 . S
C1061 H1073 0.930 . S
C1062 C1058 1.524 . S
C1062 H1074 0.956 . S
C1062 H1075 0.961 . S
C1062 H1076 0.961 . S
C1063 C1060 1.539 . S
C1063 H1077 0.958 . S
C1063 H1078 0.961 . S
C1063 H1079 0.960 . S
H1064 C1048 0.931 . S
H1065 C1053 0.929 . S
H1066 C1054 0.960 . S
H1067 C1054 0.962 . S
H1068 C1054 0.960 . S
H1069 C1055 0.961 . S
H1070 C1055 0.961 . S
H1071 C1055 0.961 . S
H1072 C1056 0.931 . S
H1073 C1061 0.930 . S
H1074 C1062 0.956 . S
H1075 C1062 0.961 . S
H1076 C1062 0.961 . S
H1077 C1063 0.958 . S
H1078 C1063 0.961 . S
H1079 C1063 0.960 . S
C1080 C1081 1.391 . S
C1080 C1082 1.394 . S
C1080 H1096 0.931 . S
C1081 C1080 1.391 . S
C1081 C1085 1.376 . S
C1082 C1080 1.394 . S
C1082 C1083 1.369 . S
C1082 C1086 1.531 . S
C1083 C1082 1.369 . S
C1083 C1084 1.410 . S
C1083 C1091 1.503 . S
C1084 C1083 1.410 . S
C1084 C1085 1.392 . S
C1084 C1087 1.511 . S
C1085 C1081 1.376 . S
C1085 C1084 1.392 . S
C1085 H1097 0.929 . S
C1086 C1082 1.531 . S
C1086 H1098 0.960 . S
C1086 H1099 0.962 . S
C1086 H1100 0.960 . S
C1087 C1084 1.511 . S
C1087 H1101 0.961 . S
C1087 H1102 0.961 . S
C1087 H1103 0.961 . S
C1088 C1089 1.370 . S
C1088 C1090 1.363 . S
C1088 H1104 0.931 . S
C1089 C1088 1.370 . S
C1089 C1093 1.408 . S
C1090 C1088 1.363 . S
C1090 C1091 1.370 . S
C1090 C1094 1.524 . S
C1091 C1083 1.503 . S
C1091 C1090 1.370 . S
C1091 C1092 1.403 . S
C1092 C1091 1.403 . S
C1092 C1093 1.404 . S
C1092 C1095 1.539 . S
C1093 C1089 1.408 . S
C1093 C1092 1.404 . S
C1093 H1105 0.930 . S
C1094 C1090 1.524 . S
C1094 H1106 0.956 . S
C1094 H1107 0.961 . S
C1094 H1108 0.961 . S
C1095 C1092 1.539 . S
C1095 H1109 0.958 . S
C1095 H1110 0.961 . S
C1095 H1111 0.960 . S
H1096 C1080 0.931 . S
H1097 C1085 0.929 . S
H1098 C1086 0.960 . S
H1099 C1086 0.962 . S
H1100 C1086 0.960 . S
H1101 C1087 0.961 . S
H1102 C1087 0.961 . S
H1103 C1087 0.961 . S
H1104 C1088 0.931 . S
H1105 C1093 0.930 . S
H1106 C1094 0.956 . S
H1107 C1094 0.961 . S
H1108 C1094 0.961 . S
H1109 C1095 0.958 . S
H1110 C1095 0.961 . S
H1111 C1095 0.960 . S
C1112 C1113 1.391 . S
C1112 C1114 1.394 . S
C1112 H1128 0.931 . S
C1113 C1112 1.391 . S
C1113 C1117 1.376 1_554 S
C1114 C1112 1.394 . S
C1114 C1115 1.369 1_554 S
C1114 C1118 1.531 . S
C1115 C1114 1.369 1_556 S
C1115 C1116 1.410 . S
C1115 C1123 1.503 . S
C1116 C1115 1.410 . S
C1116 C1117 1.392 . S
C1116 C1119 1.511 . S
C1117 C1113 1.376 1_556 S
C1117 C1116 1.392 . S
C1117 H1129 0.929 . S
C1118 C1114 1.531 . S
C1118 H1130 0.960 . S
C1118 H1131 0.962 . S
C1118 H1132 0.960 . S
C1119 C1116 1.511 . S
C1119 H1133 0.961 . S
C1119 H1134 0.961 . S
C1119 H1135 0.961 . S
C1120 C1121 1.370 . S
C1120 C1122 1.363 . S
C1120 H1136 0.931 . S
C1121 C1120 1.370 . S
C1121 C1125 1.408 . S
C1122 C1120 1.363 . S
C1122 C1123 1.370 . S
C1122 C1126 1.524 . S
C1123 C1115 1.503 . S
C1123 C1122 1.370 . S
C1123 C1124 1.403 . S
C1124 C1123 1.403 . S
C1124 C1125 1.404 . S
C1124 C1127 1.539 . S
C1125 C1121 1.408 . S
C1125 C1124 1.404 . S
C1125 H1137 0.930 . S
C1126 C1122 1.524 . S
C1126 H1138 0.956 . S
C1126 H1139 0.961 . S
C1126 H1140 0.961 . S
C1127 C1124 1.539 . S
C1127 H1141 0.958 . S
C1127 H1142 0.961 . S
C1127 H1143 0.960 . S
H1128 C1112 0.931 . S
H1129 C1117 0.929 . S
H1130 C1118 0.960 . S
H1131 C1118 0.962 . S
H1132 C1118 0.960 . S
H1133 C1119 0.961 . S
H1134 C1119 0.961 . S
H1135 C1119 0.961 . S
H1136 C1120 0.931 . S
H1137 C1125 0.930 . S
H1138 C1126 0.956 . S
H1139 C1126 0.961 . S
H1140 C1126 0.961 . S
H1141 C1127 0.958 . S
H1142 C1127 0.961 . S
H1143 C1127 0.960 . S
C1144 C1145 1.391 . S
C1144 C1146 1.394 . S
C1144 H1160 0.931 . S
C1145 C1144 1.391 . S
C1145 C1149 1.376 . S
C1146 C1144 1.394 . S
C1146 C1147 1.369 . S
C1146 C1150 1.531 . S
C1147 C1146 1.369 . S
C1147 C1148 1.410 . S
C1147 C1155 1.503 . S
C1148 C1147 1.410 . S
C1148 C1149 1.392 . S
C1148 C1151 1.511 . S
C1149 C1145 1.376 . S
C1149 C1148 1.392 . S
C1149 H1161 0.929 . S
C1150 C1146 1.531 . S
C1150 H1162 0.960 . S
C1150 H1163 0.962 . S
C1150 H1164 0.960 . S
C1151 C1148 1.511 . S
C1151 H1165 0.961 . S
C1151 H1166 0.961 . S
C1151 H1167 0.961 . S
C1152 C1153 1.370 . S
C1152 C1154 1.363 1_556 S
C1152 H1168 0.931 . S
C1153 C1152 1.370 . S
C1153 C1157 1.408 1_556 S
C1154 C1152 1.363 1_554 S
C1154 C1155 1.370 . S
C1154 C1158 1.524 1_554 S
C1155 C1147 1.503 . S
C1155 C1154 1.370 . S
C1155 C1156 1.403 . S
C1156 C1155 1.403 . S
C1156 C1157 1.404 . S
C1156 C1159 1.539 . S
C1157 C1153 1.408 1_554 S
C1157 C1156 1.404 . S
C1157 H1169 0.930 . S
C1158 C1154 1.524 1_556 S
C1158 H1170 0.956 . S
C1158 H1171 0.961 . S
C1158 H1172 0.961 . S
C1159 C1156 1.539 . S
C1159 H1173 0.958 . S
C1159 H1174 0.961 . S
C1159 H1175 0.960 . S
H1160 C1144 0.931 . S
H1161 C1149 0.929 . S
H1162 C1150 0.960 . S
H1163 C1150 0.962 . S
H1164 C1150 0.960 . S
H1165 C1151 0.961 . S
H1166 C1151 0.961 . S
H1167 C1151 0.961 . S
H1168 C1152 0.931 . S
H1169 C1157 0.930 . S
H1170 C1158 0.956 . S
H1171 C1158 0.961 . S
H1172 C1158 0.961 . S
H1173 C1159 0.958 . S
H1174 C1159 0.961 . S
H1175 C1159 0.960 . S
C1176 C1177 1.391 . S
C1176 C1178 1.394 . S
C1176 H1192 0.931 . S
C1177 C1176 1.391 . S
C1177 C1181 1.376 . S
C1178 C1176 1.394 . S
C1178 C1179 1.369 . S
C1178 C1182 1.531 . S
C1179 C1178 1.369 . S
C1179 C1180 1.410 . S
C1179 C1187 1.503 1_544 S
C1180 C1179 1.410 . S
C1180 C1181 1.392 . S
C1180 C1183 1.511 . S
C1181 C1177 1.376 . S
C1181 C1180 1.392 . S
C1181 H1193 0.929 . S
C1182 C1178 1.531 . S
C1182 H1194 0.960 1_545 S
C1182 H1195 0.962 1_554 S
C1182 H1196 0.960 . S
C1183 C1180 1.511 . S
C1183 H1197 0.961 . S
C1183 H1198 0.961 1_545 S
C1183 H1199 0.978 . S
C1184 C1185 1.370 . S
C1184 C1186 1.363 . S
C1184 H1200 0.931 . S
C1185 C1184 1.370 . S
C1185 C1189 1.408 1_556 S
C1186 C1184 1.363 . S
C1186 C1187 1.370 . S
C1186 C1190 1.524 1_565 S
C1187 C1179 1.503 1_566 S
C1187 C1186 1.370 . S
C1187 C1188 1.403 1_556 S
C1188 C1187 1.403 1_554 S
C1188 C1189 1.404 . S
C1188 C1191 1.539 . S
C1189 C1185 1.408 1_554 S
C1189 C1188 1.404 . S
C1189 H1201 0.930 . S
C1190 C1186 1.524 1_545 S
C1190 H1202 0.956 . S
C1190 H1203 0.961 . S
C1190 H1204 0.953 1_545 S
C1191 C1188 1.539 . S
C1191 H1205 0.958 . S
C1191 H1206 0.961 . S
C1191 H1207 0.960 . S
H1192 C1176 0.931 . S
H1193 C1181 0.929 . S
H1194 C1182 0.960 1_565 S
H1195 C1182 0.962 1_556 S
H1196 C1182 0.960 . S
H1197 C1183 0.961 . S
H1198 C1183 0.961 1_565 S
H1199 C1183 0.978 . S
H1200 C1184 0.931 . S
H1201 C1189 0.930 . S
H1202 C1190 0.956 . S
H1203 C1190 0.961 . S
H1204 C1190 0.953 1_565 S
H1205 C1191 0.958 . S
H1206 C1191 0.961 . S
H1207 C1191 0.960 . S
C1208 C1209 1.391 . S
C1208 C1210 1.394 . S
C1208 H1224 0.931 . S
C1209 C1208 1.391 . S
C1209 C1213 1.376 . S
C1210 C1208 1.394 . S
C1210 C1211 1.369 . S
C1210 C1214 1.531 . S
C1211 C1210 1.369 . S
C1211 C1212 1.410 . S
C1211 C1219 1.503 . S
C1212 C1211 1.410 . S
C1212 C1213 1.392 . S
C1212 C1215 1.511 . S
C1213 C1209 1.376 . S
C1213 C1212 1.392 . S
C1213 H1225 0.929 . S
C1214 C1210 1.531 . S
C1214 H1226 0.960 . S
C1214 H1227 0.962 . S
C1214 H1228 0.960 . S
C1215 C1212 1.511 . S
C1215 H1229 0.961 . S
C1215 H1230 0.961 . S
C1215 H1231 0.961 . S
C1216 C1217 1.370 . S
C1216 C1218 1.363 . S
C1216 H1232 0.931 . S
C1217 C1216 1.370 . S
C1217 C1221 1.408 . S
C1218 C1216 1.363 . S
C1218 C1219 1.370 . S
C1218 C1222 1.524 . S
C1219 C1211 1.503 . S
C1219 C1218 1.370 . S
C1219 C1220 1.403 . S
C1220 C1219 1.403 . S
C1220 C1221 1.404 . S
C1220 C1223 1.539 . S
C1221 C1217 1.408 . S
C1221 C1220 1.404 . S
C1221 H1233 0.930 . S
C1222 C1218 1.524 . S
C1222 H1234 0.956 . S
C1222 H1235 0.961 . S
C1222 H1236 0.961 . S
C1223 C1220 1.539 . S
C1223 H1237 0.958 . S
C1223 H1238 0.961 . S
C1223 H1239 0.960 . S
H1224 C1208 0.931 . S
H1225 C1213 0.929 . S
H1226 C1214 0.960 . S
H1227 C1214 0.962 . S
H1228 C1214 0.960 . S
H1229 C1215 0.961 . S
H1230 C1215 0.961 . S
H1231 C1215 0.961 . S
H1232 C1216 0.931 . S
H1233 C1221 0.930 . S
H1234 C1222 0.956 . S
H1235 C1222 0.961 . S
H1236 C1222 0.961 . S
H1237 C1223 0.958 . S
H1238 C1223 0.961 . S
H1239 C1223 0.960 . S
C1240 C1241 1.391 . S
C1240 C1242 1.394 . S
C1240 H1256 0.931 . S
C1241 C1240 1.391 . S
C1241 C1245 1.376 . S
C1242 C1240 1.394 . S
C1242 C1243 1.369 . S
C1242 C1246 1.531 . S
C1243 C1242 1.369 . S
C1243 C1244 1.410 . S
C1243 C1251 1.503 1_455 S
C1244 C1243 1.410 . S
C1244 C1245 1.392 . S
C1244 C1247 1.511 . S
C1245 C1241 1.376 . S
C1245 C1244 1.392 . S
C1245 H1257 0.929 . S
C1246 C1242 1.531 . S
C1246 H1258 0.960 . S
C1246 H1259 0.962 . S
C1246 H1260 0.960 . S
C1247 C1244 1.511 . S
C1247 H1261 0.961 . S
C1247 H1262 0.961 1_455 S
C1247 H1263 0.961 . S
C1248 C1249 1.370 . S
C1248 C1250 1.363 . S
C1248 H1264 0.931 . S
C1249 C1248 1.370 . S
C1249 C1253 1.408 . S
C1250 C1248 1.363 . S
C1250 C1251 1.370 . S
C1250 C1254 1.524 . S
C1251 C1243 1.503 1_655 S
C1251 C1250 1.370 . S
C1251 C1252 1.403 . S
C1252 C1251 1.403 . S
C1252 C1253 1.404 . S
C1252 C1255 1.531 1_655 S
C1253 C1249 1.408 . S
C1253 C1252 1.404 . S
C1253 H1265 0.930 . S
C1254 C1250 1.524 . S
C1254 H1266 0.956 . S
C1254 H1267 0.961 . S
C1254 H1268 0.961 . S
C1255 C1252 1.531 1_455 S
C1255 H1269 0.974 . S
C1255 H1270 0.943 1_455 S
C1255 H1271 0.971 . S
H1256 C1240 0.931 . S
H1257 C1245 0.929 . S
H1258 C1246 0.960 . S
H1259 C1246 0.962 . S
H1260 C1246 0.960 . S
H1261 C1247 0.961 . S
H1262 C1247 0.961 1_655 S
H1263 C1247 0.961 . S
H1264 C1248 0.931 . S
H1265 C1253 0.930 . S
H1266 C1254 0.956 . S
H1267 C1254 0.961 . S
H1268 C1254 0.961 . S
H1269 C1255 0.974 . S
H1270 C1255 0.943 1_655 S
H1271 C1255 0.971 . S
C1272 C1273 1.391 . S
C1272 C1274 1.394 . S
C1272 H1288 0.931 . S
C1273 C1272 1.391 . S
C1273 C1277 1.376 . S
C1274 C1272 1.394 . S
C1274 C1275 1.369 . S
C1274 C1278 1.531 1_565 S
C1275 C1274 1.369 . S
C1275 C1276 1.410 . S
C1275 C1283 1.503 1_565 S
C1276 C1275 1.410 . S
C1276 C1277 1.392 . S
C1276 C1279 1.511 . S
C1277 C1273 1.376 . S
C1277 C1276 1.392 . S
C1277 H1289 0.929 . S
C1278 C1274 1.531 1_545 S
C1278 H1290 0.960 . S
C1278 H1291 0.962 . S
C1278 H1292 0.960 1_545 S
C1279 C1276 1.511 . S
C1279 H1293 0.961 . S
C1279 H1294 0.961 . S
C1279 H1295 0.961 . S
C1280 C1281 1.370 . S
C1280 C1282 1.363 . S
C1280 H1296 0.931 . S
C1281 C1280 1.370 . S
C1281 C1285 1.408 . S
C1282 C1280 1.363 . S
C1282 C1283 1.370 . S
C1282 C1286 1.524 . S
C1283 C1275 1.503 1_545 S
C1283 C1282 1.370 . S
C1283 C1284 1.403 . S
C1284 C1283 1.403 . S
C1284 C1285 1.404 . S
C1284 C1287 1.539 . S
C1285 C1281 1.408 . S
C1285 C1284 1.404 . S
C1285 H1297 0.930 . S
C1286 C1282 1.524 . S
C1286 H1298 0.956 . S
C1286 H1299 0.961 1_545 S
C1286 H1300 0.961 . S
C1287 C1284 1.539 . S
C1287 H1301 0.958 . S
C1287 H1302 0.961 . S
C1287 H1303 0.960 . S
H1288 C1272 0.931 . S
H1289 C1277 0.929 . S
H1290 C1278 0.960 . S
H1291 C1278 0.962 . S
H1292 C1278 0.960 1_565 S
H1293 C1279 0.961 . S
H1294 C1279 0.961 . S
H1295 C1279 0.961 . S
H1296 C1280 0.931 . S
H1297 C1285 0.930 . S
H1298 C1286 0.956 . S
H1299 C1286 0.961 1_565 S
H1300 C1286 0.961 . S
H1301 C1287 0.958 . S
H1302 C1287 0.961 . S
H1303 C1287 0.960 . S
C1304 C1305 1.391 . S
C1304 C1306 1.394 . S
C1304 H1320 0.931 . S
C1305 C1304 1.391 . S
C1305 C1309 1.376 . S
C1306 C1304 1.394 . S
C1306 C1307 1.369 . S
C1306 C1310 1.531 . S
C1307 C1306 1.369 . S
C1307 C1308 1.410 . S
C1307 C1315 1.503 . S
C1308 C1307 1.410 . S
C1308 C1309 1.392 . S
C1308 C1311 1.511 . S
C1309 C1305 1.376 . S
C1309 C1308 1.392 . S
C1309 H1321 0.929 . S
C1310 C1306 1.531 . S
C1310 H1322 0.960 . S
C1310 H1323 0.962 . S
C1310 H1324 0.960 . S
C1311 C1308 1.511 . S
C1311 H1325 0.961 . S
C1311 H1326 0.961 . S
C1311 H1327 0.961 . S
C1312 C1313 1.370 . S
C1312 C1314 1.363 . S
C1312 H1328 0.931 . S
C1313 C1312 1.370 . S
C1313 C1317 1.408 . S
C1314 C1312 1.363 . S
C1314 C1315 1.370 . S
C1314 C1318 1.524 . S
C1315 C1307 1.503 . S
C1315 C1314 1.370 . S
C1315 C1316 1.403 . S
C1316 C1315 1.403 . S
C1316 C1317 1.404 . S
C1316 C1319 1.539 . S
C1317 C1313 1.408 . S
C1317 C1316 1.404 . S
C1317 H1329 0.930 . S
C1318 C1314 1.524 . S
C1318 H1330 0.956 . S
C1318 H1331 0.961 . S
C1318 H1332 0.961 . S
C1319 C1316 1.539 . S
C1319 H1333 0.958 . S
C1319 H1334 0.961 . S
C1319 H1335 0.960 . S
H1320 C1304 0.931 . S
H1321 C1309 0.929 . S
H1322 C1310 0.960 . S
H1323 C1310 0.962 . S
H1324 C1310 0.960 . S
H1325 C1311 0.961 . S
H1326 C1311 0.961 . S
H1327 C1311 0.961 . S
H1328 C1312 0.931 . S
H1329 C1317 0.930 . S
H1330 C1318 0.956 . S
H1331 C1318 0.961 . S
H1332 C1318 0.961 . S
H1333 C1319 0.958 . S
H1334 C1319 0.961 . S
H1335 C1319 0.960 . S
C1336 C1337 1.391 . S
C1336 C1338 1.394 . S
C1336 H1352 0.931 . S
C1337 C1336 1.391 . S
C1337 C1341 1.376 . S
C1338 C1336 1.394 . S
C1338 C1339 1.369 . S
C1338 C1342 1.531 . S
C1339 C1338 1.369 . S
C1339 C1340 1.410 . S
C1339 C1347 1.503 1_455 S
C1340 C1339 1.410 . S
C1340 C1341 1.392 . S
C1340 C1343 1.511 . S
C1341 C1337 1.376 . S
C1341 C1340 1.392 . S
C1341 H1353 0.929 . S
C1342 C1338 1.531 . S
C1342 H1354 0.960 1_455 S
C1342 H1355 0.955 1_455 S
C1342 H1356 0.960 . S
C1343 C1340 1.511 . S
C1343 H1357 0.961 . S
C1343 H1358 0.961 . S
C1343 H1359 0.961 . S
C1344 C1345 1.370 . S
C1344 C1346 1.363 . S
C1344 H1360 0.931 . S
C1345 C1344 1.370 . S
C1345 C1349 1.408 . S
C1346 C1344 1.363 . S
C1346 C1347 1.370 . S
C1346 C1350 1.524 . S
C1347 C1339 1.503 1_655 S
C1347 C1346 1.370 . S
C1347 C1348 1.403 . S
C1348 C1347 1.403 . S
C1348 C1349 1.404 . S
C1348 C1351 1.539 1_655 S
C1349 C1345 1.408 . S
C1349 C1348 1.404 . S
C1349 H1361 0.930 . S
C1350 C1346 1.524 . S
C1350 H1362 0.956 . S
C1350 H1363 0.961 . S
C1350 H1364 0.961 . S
C1351 C1348 1.539 1_455 S
C1351 H1365 0.958 . S
C1351 H1366 0.961 1_455 S
C1351 H1367 0.960 . S
H1352 C1336 0.931 . S
H1353 C1341 0.929 . S
H1354 C1342 0.960 1_655 S
H1355 C1342 0.955 1_655 S
H1356 C1342 0.960 . S
H1357 C1343 0.961 . S
H1358 C1343 0.961 . S
H1359 C1343 0.961 . S
H1360 C1344 0.931 . S
H1361 C1349 0.930 . S
H1362 C1350 0.956 . S
H1363 C1350 0.961 . S
H1364 C1350 0.961 . S
H1365 C1351 0.958 . S
H1366 C1351 0.961 1_655 S
H1367 C1351 0.960 . S
C409 C292 1.512 . S
C417 C20 1.515 . S
C441 C326 1.515 . S
C449 C54 1.517 . S
C473 C360 1.510 . S
C481 C88 1.515 . S
C505 C394 1.510 . S
C513 C122 1.514 . S
C537 C156 1.508 . S
C545 C224 1.515 . S
C569 C258 1.513 . S
C577 C190 1.517 . S
C601 C9 1.256 . S
C609 C5 1.259 . S
C633 C39 1.261 . S
C641 C43 1.242 . S
C665 C73 1.257 . S
C673 C77 1.247 . S
C697 C107 1.256 . S
C705 C111 1.234 . S
C729 C141 1.262 1_554 S
C737 C145 1.247 . S
C761 C175 1.262 . S
C769 C179 1.247 . S
C793 C213 1.252 . S
C801 C209 1.255 . S
C825 C243 1.254 . S
C833 C247 1.245 . S
C857 C281 1.239 . S
C865 C277 1.253 . S
C889 C315 1.210 . S
C897 C311 1.253 1_556 S
C921 C349 1.259 . S
C929 C345 1.257 . S
C953 C379 1.242 . S
C961 C383 1.225 . S
C985 C33 1.612 . S
C993 C373 1.611 . S
C1017 C67 1.621 . S
C1025 C407 1.604 . S
C1049 C101 1.595 . S
C1057 C237 1.616 . S
C1081 C271 1.599 . S
C1089 C135 1.608 . S
C1113 C305 1.616 . S
C1121 C169 1.609 . S
C1145 C339 1.621 . S
C1153 C203 1.605 . S
C1177 C2 1.582 . S
C1185 C240 1.571 . S
C1209 C274 1.573 . S
C1217 C36 1.571 . S
C1241 C308 1.560 . S
C1249 C70 1.578 . S
C1273 C104 1.578 . S
C1281 C342 1.576 . S
C1305 C376 1.579 . S
C1313 C138 1.575 . S
C1337 C172 1.562 . S
C1345 C206 1.580 . S
