# Generated by pormake.
# Topology gis, (4)-cn, num edge types: 1
# Building blocks:
#     Node 0, Type 0, BuildingBlock: AZAVOO_clean_sbu_0, # of connection points: 4
#     Node 1, Type 0, BuildingBlock: AZAVOO_clean_sbu_0, # of connection points: 4
#     Node 2, Type 0, BuildingBlock: AZAVOO_clean_sbu_0, # of connection points: 4
#     Node 3, Type 0, BuildingBlock: AZAVOO_clean_sbu_0, # of connection points: 4
#     Node 4, Type 0, BuildingBlock: AZAVOO_clean_sbu_0, # of connection points: 4
#     Node 5, Type 0, BuildingBlock: AZAVOO_clean_sbu_0, # of connection points: 4
#     Node 6, Type 0, BuildingBlock: AZAVOO_clean_sbu_0, # of connection points: 4
#     Node 7, Type 0, BuildingBlock: AZAVOO_clean_sbu_0, # of connection points: 4
#     Node 8, Type 0, BuildingBlock: AZAVOO_clean_sbu_0, # of connection points: 4
#     Node 9, Type 0, BuildingBlock: AZAVOO_clean_sbu_0, # of connection points: 4
#     Node 10, Type 0, BuildingBlock: AZAVOO_clean_sbu_0, # of connection points: 4
#     Node 11, Type 0, BuildingBlock: AZAVOO_clean_sbu_0, # of connection points: 4
#     Node 12, Type 0, BuildingBlock: AZAVOO_clean_sbu_0, # of connection points: 4
#     Node 13, Type 0, BuildingBlock: AZAVOO_clean_sbu_0, # of connection points: 4
#     Node 14, Type 0, BuildingBlock: AZAVOO_clean_sbu_0, # of connection points: 4
#     Node 15, Type 0, BuildingBlock: AZAVOO_clean_sbu_0, # of connection points: 4
#     Edge 16, Type (0, 0), BuildingBlock: OJICUG_clean_linker_0, # of connection points: 2
#     Edge 17, Type (0, 0), BuildingBlock: OJICUG_clean_linker_0, # of connection points: 2
#     Edge 18, Type (0, 0), BuildingBlock: OJICUG_clean_linker_0, # of connection points: 2
#     Edge 19, Type (0, 0), BuildingBlock: OJICUG_clean_linker_0, # of connection points: 2
#     Edge 20, Type (0, 0), BuildingBlock: OJICUG_clean_linker_0, # of connection points: 2
#     Edge 21, Type (0, 0), BuildingBlock: OJICUG_clean_linker_0, # of connection points: 2
#     Edge 22, Type (0, 0), BuildingBlock: OJICUG_clean_linker_0, # of connection points: 2
#     Edge 23, Type (0, 0), BuildingBlock: OJICUG_clean_linker_0, # of connection points: 2
#     Edge 24, Type (0, 0), BuildingBlock: OJICUG_clean_linker_0, # of connection points: 2
#     Edge 25, Type (0, 0), BuildingBlock: OJICUG_clean_linker_0, # of connection points: 2
#     Edge 26, Type (0, 0), BuildingBlock: OJICUG_clean_linker_0, # of connection points: 2
#     Edge 27, Type (0, 0), BuildingBlock: OJICUG_clean_linker_0, # of connection points: 2
#     Edge 28, Type (0, 0), BuildingBlock: OJICUG_clean_linker_0, # of connection points: 2
#     Edge 29, Type (0, 0), BuildingBlock: OJICUG_clean_linker_0, # of connection points: 2
#     Edge 30, Type (0, 0), BuildingBlock: OJICUG_clean_linker_0, # of connection points: 2
#     Edge 31, Type (0, 0), BuildingBlock: OJICUG_clean_linker_0, # of connection points: 2
#     Edge 32, Type (0, 0), BuildingBlock: OJICUG_clean_linker_0, # of connection points: 2
#     Edge 33, Type (0, 0), BuildingBlock: OJICUG_clean_linker_0, # of connection points: 2
#     Edge 34, Type (0, 0), BuildingBlock: OJICUG_clean_linker_0, # of connection points: 2
#     Edge 35, Type (0, 0), BuildingBlock: OJICUG_clean_linker_0, # of connection points: 2
#     Edge 36, Type (0, 0), BuildingBlock: OJICUG_clean_linker_0, # of connection points: 2
#     Edge 37, Type (0, 0), BuildingBlock: OJICUG_clean_linker_0, # of connection points: 2
#     Edge 38, Type (0, 0), BuildingBlock: OJICUG_clean_linker_0, # of connection points: 2
#     Edge 39, Type (0, 0), BuildingBlock: OJICUG_clean_linker_0, # of connection points: 2
#     Edge 40, Type (0, 0), BuildingBlock: OJICUG_clean_linker_0, # of connection points: 2
#     Edge 41, Type (0, 0), BuildingBlock: OJICUG_clean_linker_0, # of connection points: 2
#     Edge 42, Type (0, 0), BuildingBlock: OJICUG_clean_linker_0, # of connection points: 2
#     Edge 43, Type (0, 0), BuildingBlock: OJICUG_clean_linker_0, # of connection points: 2
#     Edge 44, Type (0, 0), BuildingBlock: OJICUG_clean_linker_0, # of connection points: 2
#     Edge 45, Type (0, 0), BuildingBlock: OJICUG_clean_linker_0, # of connection points: 2
#     Edge 46, Type (0, 0), BuildingBlock: OJICUG_clean_linker_0, # of connection points: 2
#     Edge 47, Type (0, 0), BuildingBlock: OJICUG_clean_linker_0, # of connection points: 2
# Relax obj value: 0.172
# Max RMSD: 0.159
# Mean RMSD: 0.157
data_MOF--net-gis--node1-AZAVOO_clean_sbu_0--edge1-OJICUG_clean_linker_0
_symmetry_space_group_name_H-M    P1
_symmetry_Int_Tables_number       1
_symmetry_cell_setting            triclinic
loop_
_symmetry_equiv_pos_as_xyz
'x, y, z'
_cell_length_a     34.474995
_cell_length_b     32.755189
_cell_length_c     38.177175
_cell_angle_alpha  91.118772
_cell_angle_beta   90.918061
_cell_angle_gamma 90.336739
loop_
_atom_site_label
_atom_site_type_symbol
_atom_site_fract_x
_atom_site_fract_y
_atom_site_fract_z
_atom_type_partial_charge
Mg0 Mg 0.16932 0.62079 0.09909 0.0
O1 O 0.10486 0.61135 0.11057 0.0
O2 O 0.08853 0.65388 0.15436 0.0
Mg3 Mg 0.14236 0.69001 0.17155 0.0
C4 C 0.07991 0.62605 0.13166 0.0
C5 C 0.1962 0.56225 0.04126 0.0
O6 O 0.22424 0.58957 0.04343 0.0
O7 O 0.18558 0.58486 0.14809 0.0
O8 O 0.16923 0.63047 0.18964 0.0
O9 O 0.15358 0.67126 0.06325 0.0
O10 O 0.16703 0.67961 0.11977 0.0
C11 C 0.18285 0.59582 0.18032 0.0
C12 C 0.15542 0.69497 0.09077 0.0
O13 O 0.16844 0.56479 0.06271 0.0
Mg14 Mg 0.66875 0.87372 0.37675 0.0
O15 O 0.60399 0.87752 0.36067 0.0
O16 O 0.5935 0.83487 0.315 0.0
Mg17 Mg 0.65068 0.80546 0.30062 0.0
C18 C 0.5814 0.86084 0.33755 0.0
C19 C 0.69489 0.94331 0.42674 0.0
O20 O 0.72794 0.92905 0.41514 0.0
O21 O 0.68605 0.91338 0.3307 0.0
O22 O 0.67416 0.8684 0.28688 0.0
O23 O 0.65542 0.82063 0.41012 0.0
O24 O 0.67181 0.81532 0.3545 0.0
C25 C 0.68509 0.90367 0.29812 0.0
C26 C 0.66058 0.7979 0.38248 0.0
O27 O 0.66338 0.92819 0.41439 0.0
Mg28 Mg 0.28596 0.37897 0.60542 0.0
O29 O 0.35087 0.39099 0.61827 0.0
O30 O 0.36855 0.34982 0.66159 0.0
Mg31 Mg 0.31592 0.3125 0.677 0.0
C32 C 0.37641 0.37747 0.63969 0.0
C33 C 0.26359 0.43484 0.54374 0.0
O34 O 0.24048 0.40346 0.53725 0.0
O35 O 0.26829 0.41536 0.65422 0.0
O36 O 0.28719 0.37187 0.69555 0.0
O37 O 0.30195 0.32845 0.56853 0.0
O38 O 0.29007 0.31982 0.62458 0.0
C39 C 0.2722 0.40566 0.68632 0.0
C40 C 0.30068 0.30442 0.59502 0.0
O41 O 0.28494 0.43496 0.57123 0.0
Mg42 Mg 0.83197 0.0441 0.84796 0.0
O43 O 0.83203 0.11412 0.85975 0.0
O44 O 0.87822 0.12388 0.90102 0.0
Mg45 Mg 0.90913 0.06459 0.91319 0.0
C46 C 0.85138 0.13743 0.88103 0.0
C47 C 0.77334 0.02664 0.7898 0.0
O48 O 0.80207 0.00184 0.78253 0.0
O49 O 0.80306 0.03104 0.90048 0.0
O50 O 0.85349 0.04099 0.9373 0.0
O51 O 0.87578 0.05228 0.8058 0.0
O52 O 0.88988 0.04189 0.86165 0.0
C53 C 0.81816 0.03087 0.93132 0.0
C54 C 0.90152 0.04975 0.83066 0.0
O55 O 0.77514 0.04797 0.81799 0.0
Mg56 Mg 0.16854 0.37407 0.87693 0.0
O57 O 0.10377 0.37788 0.86091 0.0
O58 O 0.09323 0.33524 0.81524 0.0
Mg59 Mg 0.15037 0.30579 0.80083 0.0
C60 C 0.08115 0.36121 0.8378 0.0
C61 C 0.19474 0.4437 0.92686 0.0
O62 O 0.22777 0.42949 0.91519 0.0
O63 O 0.18581 0.41371 0.83085 0.0
O64 O 0.17389 0.3687 0.78706 0.0
O65 O 0.15525 0.32096 0.91031 0.0
O66 O 0.17159 0.31569 0.85467 0.0
C67 C 0.18484 0.40397 0.79828 0.0
C68 C 0.16041 0.29824 0.88266 0.0
O69 O 0.16321 0.42854 0.91458 0.0
Mg70 Mg 0.78641 0.87923 0.10538 0.0
O71 O 0.85131 0.89138 0.11819 0.0
O72 O 0.86906 0.85031 0.16155 0.0
Mg73 Mg 0.81651 0.81289 0.17701 0.0
C74 C 0.87688 0.87794 0.13962 0.0
C75 C 0.76395 0.93494 0.04362 0.0
O76 O 0.74096 0.90346 0.03712 0.0
O77 O 0.7687 0.91563 0.15417 0.0
O78 O 0.78766 0.87219 0.19551 0.0
O79 O 0.80245 0.82865 0.06855 0.0
O80 O 0.79061 0.82013 0.12462 0.0
C81 C 0.77261 0.90595 0.18626 0.0
C82 C 0.80121 0.80468 0.09508 0.0
O83 O 0.78527 0.93516 0.07113 0.0
Mg84 Mg 0.33193 0.54361 0.34803 0.0
O85 O 0.33223 0.61364 0.35983 0.0
O86 O 0.37851 0.62326 0.40104 0.0
Mg87 Mg 0.40921 0.56385 0.4132 0.0
C88 C 0.35169 0.63689 0.38106 0.0
C89 C 0.2732 0.52644 0.28991 0.0
O90 O 0.30182 0.50153 0.2826 0.0
O91 O 0.30302 0.53068 0.40057 0.0
O92 O 0.35351 0.54047 0.43737 0.0
O93 O 0.37573 0.55166 0.30584 0.0
O94 O 0.38984 0.5412 0.36167 0.0
C95 C 0.31814 0.53048 0.4314 0.0
C96 C 0.40147 0.54905 0.33068 0.0
O97 O 0.27509 0.54773 0.31812 0.0
Mg98 Mg 0.66923 0.12046 0.59889 0.0
O99 O 0.60477 0.11101 0.61036 0.0
O100 O 0.58843 0.15354 0.65414 0.0
Mg101 Mg 0.64224 0.18966 0.67136 0.0
C102 C 0.57981 0.12571 0.63143 0.0
C103 C 0.6962 0.06187 0.54113 0.0
O104 O 0.72429 0.08914 0.54337 0.0
O105 O 0.68551 0.08452 0.6479 0.0
O106 O 0.66913 0.13013 0.68944 0.0
O107 O 0.65347 0.17094 0.56306 0.0
O108 O 0.66693 0.17927 0.61959 0.0
C109 C 0.68278 0.09549 0.68013 0.0
C110 C 0.65531 0.19464 0.59059 0.0
O111 O 0.66839 0.06446 0.5625 0.0
Mg112 Mg 0.84464 0.40486 0.84663 0.0
O113 O 0.83849 0.33567 0.85928 0.0
O114 O 0.87937 0.32657 0.90452 0.0
Mg115 Mg 0.91121 0.38484 0.92044 0.0
C116 C 0.85425 0.31285 0.88231 0.0
C117 C 0.7761 0.43855 0.80495 0.0
O118 O 0.78969 0.4703 0.8229 0.0
O119 O 0.80943 0.42427 0.89501 0.0
O120 O 0.85367 0.41235 0.93708 0.0
O121 O 0.8946 0.39074 0.81137 0.0
O122 O 0.90082 0.40656 0.86754 0.0
C123 C 0.82017 0.42443 0.92725 0.0
C124 C 0.91688 0.39575 0.83876 0.0
O125 O 0.7914 0.40384 0.80993 0.0
Mg126 Mg 0.35283 0.04326 0.61877 0.0
O127 O 0.34005 0.11061 0.6065 0.0
O128 O 0.37706 0.12831 0.56162 0.0
Mg129 Mg 0.41196 0.07313 0.54429 0.0
C130 C 0.35195 0.13694 0.58475 0.0
C131 C 0.30197 0.01083 0.67684 0.0
O132 O 0.3273 0.9815 0.67208 0.0
O133 O 0.31622 0.02097 0.57125 0.0
O134 O 0.3554 0.04014 0.52829 0.0
O135 O 0.40162 0.06357 0.6536 0.0
O136 O 0.40784 0.04881 0.59722 0.0
C137 C 0.32407 0.02366 0.53874 0.0
C138 C 0.42317 0.06241 0.62616 0.0
O139 O 0.30259 0.04133 0.65674 0.0
Mg140 Mg 0.6354 0.53332 0.34437 0.0
O141 O 0.63771 0.60219 0.35792 0.0
O142 O 0.59231 0.61529 0.39789 0.0
Mg143 Mg 0.56118 0.55626 0.4102 0.0
C144 C 0.61975 0.62687 0.37829 0.0
C145 C 0.69934 0.5054 0.29514 0.0
O146 O 0.67973 0.47157 0.30022 0.0
O147 O 0.66718 0.51978 0.39672 0.0
O148 O 0.61837 0.53446 0.43278 0.0
O149 O 0.58951 0.54369 0.30309 0.0
O150 O 0.57787 0.5326 0.35889 0.0
C151 C 0.65318 0.5233 0.42748 0.0
C152 C 0.56503 0.54184 0.32829 0.0
O153 O 0.69047 0.53742 0.3125 0.0
Mg154 Mg 0.1065 0.95166 0.13152 0.0
O155 O 0.11108 0.88451 0.11524 0.0
O156 O 0.06987 0.86916 0.07106 0.0
Mg157 Mg 0.04082 0.92877 0.05666 0.0
C158 C 0.09603 0.85901 0.09318 0.0
C159 C 0.1595 0.96437 0.19686 0.0
O160 O 0.13158 -0.00933 0.20267 0.0
O161 O 0.14392 0.96783 0.08437 0.0
O162 O 0.10132 0.95097 0.04151 0.0
O163 O 0.05716 0.93643 0.1659 0.0
O164 O 0.04976 0.95268 0.11036 0.0
C165 C 0.13487 0.96326 0.05193 0.0
C166 C 0.03455 0.93993 0.13876 0.0
O167 O 0.15911 0.94399 0.16815 0.0
Mg168 Mg 0.85299 0.54347 0.11914 0.0
O169 O 0.84033 0.61084 0.10681 0.0
O170 O 0.87741 0.62841 0.06194 0.0
Mg171 Mg 0.91219 0.57314 0.04466 0.0
C172 C 0.8523 0.63712 0.08505 0.0
C173 C 0.80169 0.51083 0.17684 0.0
O174 O 0.82663 0.4812 0.17175 0.0
O175 O 0.81633 0.52124 0.07163 0.0
O176 O 0.85555 0.54032 0.02867 0.0
O177 O 0.90179 0.56374 0.15397 0.0
O178 O 0.90801 0.54892 0.09761 0.0
C179 C 0.82418 0.52392 0.03913 0.0
C180 C 0.92334 0.56254 0.12653 0.0
O181 O 0.80272 0.54163 0.1571 0.0
Mg182 Mg 0.13547 0.03372 0.84416 0.0
O183 O 0.13777 0.10254 0.85787 0.0
O184 O 0.09242 0.1155 0.89792 0.0
Mg185 Mg 0.06133 0.05641 0.91014 0.0
C186 C 0.11982 0.12716 0.87832 0.0
C187 C 0.19974 0.00575 0.79523 0.0
O188 O 0.18053 0.97175 0.80069 0.0
O189 O 0.16733 0.02004 0.89644 0.0
O190 O 0.11858 0.0346 0.93259 0.0
O191 O 0.08952 0.04422 0.80295 0.0
O192 O 0.07794 0.03295 0.85874 0.0
C193 C 0.15339 0.02347 0.92722 0.0
C194 C 0.06507 0.0423 0.82818 0.0
O195 O 0.19049 0.03789 0.81224 0.0
Mg196 Mg 0.60608 0.45117 0.63172 0.0
O197 O 0.61072 0.38406 0.61533 0.0
O198 O 0.56954 0.36876 0.57112 0.0
Mg199 Mg 0.54043 0.42837 0.55683 0.0
C200 C 0.5957 0.35859 0.59322 0.0
C201 C 0.66031 0.46531 0.69622 0.0
O202 O 0.63352 0.49307 0.70132 0.0
O203 O 0.64347 0.46749 0.58461 0.0
O204 O 0.60091 0.45066 0.54171 0.0
O205 O 0.55675 0.43581 0.66608 0.0
O206 O 0.54935 0.45217 0.61057 0.0
C207 C 0.63444 0.46298 0.55216 0.0
C208 C 0.53414 0.43935 0.63895 0.0
O209 O 0.65873 0.44348 0.66831 0.0
Mg210 Mg 0.34486 0.90427 0.34634 0.0
O211 O 0.33885 0.8351 0.35912 0.0
O212 O 0.37979 0.82618 0.40434 0.0
Mg213 Mg 0.41152 0.88454 0.42016 0.0
C214 C 0.35468 0.81236 0.38217 0.0
C215 C 0.27519 0.93739 0.3056 0.0
O216 O 0.28772 0.96894 0.32443 0.0
O217 O 0.30965 0.9237 0.39473 0.0
O218 O 0.35394 0.91196 0.4368 0.0
O219 O 0.39482 0.89017 0.31108 0.0
O220 O 0.40106 0.90613 0.36723 0.0
C221 C 0.3204 0.92395 0.42697 0.0
C222 C 0.41711 0.89528 0.33845 0.0
O223 O 0.29159 0.90306 0.30968 0.0
C224 C 0.13543 0.80339 0.11934 0.0
C225 C 0.11069 0.81676 0.0924 0.0
H226 H 0.16926 0.75463 0.13957 0.0
C227 C 0.10131 0.78988 0.06429 0.0
H228 H 0.14337 0.82333 0.14131 0.0
C229 C 0.11645 0.75039 0.06321 0.0
C230 C 0.14084 0.73708 0.09039 0.0
H231 H 0.08255 0.79939 0.04298 0.0
H232 H 0.10862 0.73016 0.04141 0.0
C233 C 0.15026 0.76397 0.11837 0.0
C234 C 0.47564 0.86645 0.30903 0.0
C235 C 0.45919 0.88715 0.3376 0.0
H236 H 0.52712 0.84181 0.28661 0.0
C237 C 0.48336 0.90019 0.36572 0.0
H238 H 0.45777 0.85613 0.28696 0.0
C239 C 0.52312 0.89231 0.36547 0.0
C240 C 0.53957 0.87092 0.33721 0.0
H241 H 0.47161 0.91666 0.38797 0.0
H242 H 0.54084 0.90251 0.38769 0.0
C243 C 0.51539 0.85822 0.3089 0.0
C244 C 0.30564 0.23414 0.61922 0.0
C245 C 0.31302 0.26139 0.59208 0.0
H246 H 0.3117 0.17333 0.63809 0.0
C247 C 0.33217 0.24711 0.56213 0.0
H248 H 0.2906 0.24417 0.64251 0.0
C249 C 0.34438 0.20659 0.55964 0.0
C250 C 0.33734 0.17933 0.58691 0.0
H251 H 0.33818 0.26734 0.54075 0.0
H252 H 0.35945 0.19669 0.53632 0.0
C253 C 0.31751 0.19347 0.61659 0.0
C254 C 0.00552 0.07622 0.84866 0.0
C255 C 0.02398 0.05224 0.8232 0.0
H256 H 0.95167 0.0952 0.87023 0.0
C257 C 0.00186 0.03363 0.79609 0.0
H258 H 0.02208 0.09235 0.86888 0.0
C259 C 0.96129 0.03555 0.79669 0.0
C260 C 0.94293 0.05599 0.82446 0.0
H261 H 0.01569 0.01517 0.77607 0.0
H262 H 0.9444 0.01853 0.77713 0.0
C263 C 0.96528 0.07797 0.84937 0.0
C264 C 0.12864 0.23751 0.90872 0.0
C265 C 0.15086 0.25434 0.8821 0.0
H266 H 0.10119 0.18415 0.92826 0.0
C267 C 0.16351 0.22897 0.8545 0.0
H268 H 0.1185 0.25636 0.93029 0.0
C269 C 0.15387 0.1875 0.8534 0.0
C270 C 0.13104 0.17075 0.87971 0.0
H271 H 0.18097 0.24109 0.83374 0.0
H272 H 0.16388 0.16874 0.83172 0.0
C273 C 0.11862 0.19617 0.90743 0.0
C274 C 0.94292 0.88661 0.16717 0.0
C275 C 0.9169 0.89485 0.13946 0.0
H276 H 0.00011 0.89467 0.18883 0.0
C277 C 0.9297 0.91899 0.11181 0.0
H278 H 0.93404 0.86835 0.18902 0.0
C279 C 0.96785 0.93392 0.11164 0.0
C280 C -0.00616 0.92537 0.13927 0.0
H281 H 0.91043 0.92595 0.09007 0.0
H282 H 0.97696 0.95218 0.08987 0.0
C283 C 0.98083 0.90186 0.16716 0.0
C284 C 0.3323 0.70293 0.35257 0.0
C285 C 0.34491 0.68154 0.38225 0.0
H286 H 0.32539 0.76171 0.32904 0.0
C287 C 0.35525 0.70376 0.41282 0.0
H288 H 0.32411 0.68656 0.32863 0.0
C289 C 0.35581 0.74624 0.41311 0.0
C290 C 0.34624 0.76788 0.38277 0.0
H291 H 0.36442 0.68825 0.43633 0.0
H292 H 0.36541 0.76212 0.43689 0.0
C293 C 0.33302 0.7459 0.35281 0.0
C294 C 0.51406 0.11794 0.65741 0.0
C295 C 0.53963 0.10971 0.62986 0.0
H296 H 0.45731 0.10916 0.67795 0.0
C297 C 0.52648 0.08584 0.60101 0.0
H298 H 0.52331 0.13609 0.68009 0.0
C299 C 0.48852 0.07069 0.59971 0.0
C300 C 0.46312 0.07873 0.62738 0.0
H301 H 0.54542 0.07901 0.57934 0.0
H302 H 0.47922 0.05234 0.57717 0.0
C303 C 0.47627 0.1024 0.65627 0.0
C304 C 0.85454 0.20424 0.91289 0.0
C305 C 0.84446 0.18205 0.88223 0.0
H306 H 0.86448 0.26258 0.93707 0.0
C307 C 0.83206 0.20346 0.8525 0.0
H308 H 0.86354 0.1887 0.93644 0.0
C309 C 0.83275 0.24644 0.85278 0.0
C310 C 0.84574 0.26839 0.88285 0.0
H311 H 0.82408 0.18712 0.8285 0.0
H312 H 0.82531 0.26227 0.82899 0.0
C313 C 0.85507 0.24672 0.91323 0.0
C314 C 0.65387 0.68714 0.35331 0.0
C315 C 0.631 0.67046 0.37962 0.0
H316 H 0.68106 0.74066 0.3336 0.0
C317 C 0.6186 0.69594 0.40731 0.0
H318 H 0.66387 0.66833 0.33165 0.0
C319 C 0.62868 0.73726 0.40856 0.0
C320 C 0.65095 0.75402 0.38194 0.0
H321 H 0.60114 0.68397 0.42814 0.0
H322 H 0.61856 0.75615 0.43011 0.0
C323 C 0.66357 0.72859 0.35436 0.0
C324 C 0.84484 0.70674 0.05985 0.0
C325 C 0.83776 0.67954 0.08715 0.0
H326 H 0.83872 0.76746 0.04086 0.0
C327 C 0.81793 0.69376 0.11681 0.0
H328 H 0.85992 0.69678 0.03655 0.0
C329 C 0.80611 0.73444 0.11937 0.0
C330 C 0.81353 0.76164 0.09219 0.0
H331 H 0.81209 0.67367 0.13833 0.0
H332 H 0.79107 0.74454 0.14265 0.0
C333 C 0.83268 0.74728 0.06227 0.0
C334 C 0.60104 0.2895 0.56425 0.0
C335 C 0.61043 0.31637 0.59238 0.0
H336 H 0.60839 0.22982 0.54131 0.0
C337 C 0.63524 0.303 0.61926 0.0
H338 H 0.58223 0.29901 0.54298 0.0
C339 C 0.65013 0.26361 0.61824 0.0
C340 C 0.6407 0.23673 0.59025 0.0
H341 H 0.64319 0.32293 0.64124 0.0
H342 H 0.66918 0.25428 0.6394 0.0
C343 C 0.61624 0.25004 0.56311 0.0
C344 C 0.01514 0.35869 0.80916 0.0
C345 C 0.03932 0.37131 0.83749 0.0
H346 H 0.95752 0.35668 0.78721 0.0
C347 C 0.02289 0.39264 0.86578 0.0
H348 H 0.02686 0.34232 0.78684 0.0
C349 C 0.98313 0.40054 0.86604 0.0
C350 C 0.95895 0.38758 0.8379 0.0
H351 H 0.04061 0.40278 0.88801 0.0
H352 H 0.97138 0.41696 0.88832 0.0
C353 C 0.9754 0.36694 0.80929 0.0
C354 C 0.50185 0.53293 0.29619 0.0
C355 C 0.52393 0.55171 0.32325 0.0
H356 H 0.44442 0.51764 0.27727 0.0
C357 C 0.50542 0.57576 0.34863 0.0
H358 H 0.51572 0.5144 0.27625 0.0
C359 C 0.46518 0.57744 0.34932 0.0
C360 C 0.44287 0.55531 0.32448 0.0
H361 H 0.52196 0.59202 0.3688 0.0
H362 H 0.45153 0.59474 0.37012 0.0
C363 C 0.46128 0.53478 0.29678 0.0
C364 C 0.46744 0.43343 0.61181 0.0
C365 C 0.49342 0.42479 0.63943 0.0
H366 H 0.41001 0.42557 0.59024 0.0
C367 C 0.4804 0.4012 0.66726 0.0
H368 H 0.47655 0.45175 0.59008 0.0
C369 C 0.44248 0.38598 0.66724 0.0
C370 C 0.41646 0.39433 0.63955 0.0
H371 H 0.49968 0.39394 0.68891 0.0
H372 H 0.43359 0.36767 0.68906 0.0
C373 C 0.42928 0.41853 0.61196 0.0
C374 C 0.02661 0.58606 0.10132 0.0
C375 C 0.03974 0.61 0.13012 0.0
H376 H 0.97938 0.55243 0.07755 0.0
C377 C 0.01418 0.61825 0.15768 0.0
H378 H 0.04554 0.57921 0.07964 0.0
C379 C 0.97641 0.60264 0.15659 0.0
C380 C 0.96328 0.57889 0.12773 0.0
H381 H 0.02342 0.63645 0.18033 0.0
H382 H 0.95746 0.60942 0.17826 0.0
C383 C -0.01133 0.57084 0.10006 0.0
C384 C 0.22928 0.52417 -0.00706 0.0
C385 C 0.19576 0.53117 0.01257 0.0
H386 H 0.25522 0.49114 0.95056 0.0
C387 C 0.16159 0.50955 0.00349 0.0
H388 H 0.25605 0.54038 -0.00077 0.0
C389 C 0.16095 0.48173 0.97517 0.0
C390 C 0.1946 0.47458 0.9557 0.0
H391 H 0.1352 0.5145 0.01795 0.0
H392 H 0.13422 0.46548 0.96882 0.0
C393 C 0.22878 0.496 0.96498 0.0
C394 C 0.74559 0.93311 0.27677 0.0
C395 C 0.70525 0.92887 0.2727 0.0
H396 H 0.80004 0.92918 0.25078 0.0
C397 C 0.68836 0.93294 0.23923 0.0
H398 H 0.75926 0.9299 0.30233 0.0
C399 C 0.71175 0.93351 0.20969 0.0
C400 C 0.75201 0.92896 0.21359 0.0
H401 H 0.65725 0.92967 0.23555 0.0
H402 H 0.698 0.93081 0.18402 0.0
C403 C 0.76898 0.93251 0.24722 0.0
C404 C 0.29675 0.49761 0.52292 0.0
C405 C 0.27027 0.46552 0.5165 0.0
H406 H 0.33198 0.54408 0.50094 0.0
C407 C 0.25408 0.46027 0.4826 0.0
H408 H 0.30929 0.50296 0.54882 0.0
C409 C 0.26707 0.48407 0.45499 0.0
C410 C 0.29649 0.51336 0.46091 0.0
H411 H 0.23327 0.43606 0.47687 0.0
H412 H 0.25623 0.47738 0.42871 0.0
C413 C 0.30973 0.52124 0.49543 0.0
C414 C 0.69162 0.07967 0.74331 0.0
C415 C 0.69951 0.07005 0.70805 0.0
H416 H 0.70856 0.07302 0.79695 0.0
C417 C 0.7273 0.04013 0.70046 0.0
H418 H 0.6698 0.102 0.75011 0.0
C419 C 0.74947 0.0233 0.72752 0.0
C420 C 0.74419 0.03625 0.76249 0.0
H421 H 0.73383 0.03184 0.6736 0.0
H422 H 0.77248 0.00234 0.72075 0.0
C423 C 0.71379 0.06302 0.77023 0.0
C424 C 0.7949 0.48981 0.9495 0.0
C425 C 0.79843 0.44755 0.9538 0.0
H426 H 0.8003 0.54859 0.97473 0.0
C427 C 0.79619 0.43174 -0.01231 0.0
H428 H 0.79682 0.50276 0.92368 0.0
C429 C 0.79734 0.45804 0.01701 0.0
C430 C 0.80167 0.50023 0.01254 0.0
H431 H 0.79903 0.39921 -0.00839 0.0
H432 H 0.80091 0.44501 0.04273 0.0
C433 C 0.79709 0.5161 0.97879 0.0
C434 C 0.23558 0.04475 0.74996 0.0
C435 C 0.22759 0.00756 0.76623 0.0
H436 H 0.2646 0.07483 0.70834 0.0
C437 C 0.24411 0.97156 0.75277 0.0
H438 H 0.22294 0.07296 0.75952 0.0
C439 C 0.26818 0.97268 0.72369 0.0
C440 C 0.2756 0.00971 0.707 0.0
H441 H 0.23837 0.94243 0.76468 0.0
H442 H 0.28065 0.94442 0.71404 0.0
C443 C 0.25906 0.04576 0.72042 0.0
C444 C 0.67355 0.4656 0.46276 0.0
C445 C 0.67376 0.508 0.45845 0.0
H446 H 0.66042 0.41728 0.49771 0.0
C447 C 0.67543 0.53369 0.48841 0.0
H448 H 0.67191 0.4452 0.44008 0.0
C449 C 0.66918 0.51767 0.52158 0.0
C450 C 0.66105 0.47596 0.52475 0.0
H451 H 0.67529 0.56656 0.48565 0.0
H452 H 0.66486 0.53855 0.54351 0.0
C453 C 0.6666 0.44963 0.49578 0.0
C454 C 0.22201 0.97856 0.27877 0.0
C455 C 0.24473 0.94307 0.27831 0.0
H456 H 0.17742 0.013 0.25356 0.0
C457 C 0.23936 0.91453 0.25062 0.0
H458 H 0.22543 0.00119 0.29968 0.0
C459 C 0.21219 0.92168 0.22374 0.0
C460 C 0.18944 0.9572 0.22434 0.0
H461 H 0.25662 0.88703 0.24938 0.0
H462 H 0.20874 0.89921 0.20272 0.0
C463 C 0.19451 0.98539 0.25227 0.0
C464 C 0.72937 0.02373 0.49289 0.0
C465 C 0.6958 0.03079 0.51244 0.0
H466 H 0.75538 -0.00935 0.45058 0.0
C467 C 0.66162 0.00922 0.50328 0.0
H468 H 0.75615 0.0399 0.49924 0.0
C469 C 0.66102 0.9814 0.47496 0.0
C470 C 0.69472 0.97419 0.45557 0.0
H471 H 0.6352 0.01421 0.51768 0.0
H472 H 0.63429 0.96519 0.46855 0.0
C473 C 0.72891 -0.00445 0.46494 0.0
C474 C 0.26875 0.4323 0.74726 0.0
C475 C 0.25171 0.42875 0.71366 0.0
H476 H 0.25914 0.4299 0.80238 0.0
C477 C 0.21147 0.43352 0.70981 0.0
H478 H 0.29981 0.42882 0.75077 0.0
C479 C 0.18812 0.43318 0.73939 0.0
C480 C 0.20506 0.42909 0.77284 0.0
H481 H 0.19767 0.43084 0.68415 0.0
H482 H 0.157 0.43006 0.73575 0.0
C483 C 0.24542 0.43313 0.77685 0.0
C484 C 0.80974 0.02157 -0.00466 0.0
C485 C 0.79656 0.01364 0.96081 0.0
H486 H 0.80936 0.00328 0.04872 0.0
C487 C 0.76729 0.98419 0.95487 0.0
H488 H 0.83188 0.04454 0.00086 0.0
C489 C 0.75439 0.96032 0.98246 0.0
C490 C 0.77053 0.96565 0.01637 0.0
H491 H 0.7565 0.97745 0.92857 0.0
H492 H 0.7337 0.936 0.97672 0.0
C493 C 0.79686 -0.00213 0.02282 0.0
C494 C 0.22717 0.54026 0.20061 0.0
C495 C 0.19954 0.57032 0.20824 0.0
H496 H 0.27216 0.5022 0.22085 0.0
C497 C 0.19173 0.57999 0.2435 0.0
H498 H 0.23363 0.53193 0.17374 0.0
C499 C 0.21383 0.5632 0.2704 0.0
C500 C 0.24408 0.53624 0.26263 0.0
H501 H 0.17002 0.60243 0.25033 0.0
H502 H 0.20867 0.57321 0.29713 0.0
C503 C 0.24927 0.52329 0.22765 0.0
C504 C 0.29708 0.01566 0.47839 0.0
C505 C 0.30166 -0.00015 0.51217 0.0
H506 H 0.29689 0.00225 0.4233 0.0
C507 C 0.29745 0.95765 0.51668 0.0
H508 H 0.30019 0.04815 0.47431 0.0
C509 C 0.2964 0.93131 0.48739 0.0
C510 C 0.29862 0.94708 0.45348 0.0
H511 H 0.30103 0.94469 0.54242 0.0
H512 H 0.29934 0.8988 0.49135 0.0
C513 C 0.29497 -0.01068 0.44913 0.0
C514 C 0.75924 0.54572 0.22082 0.0
C515 C 0.7753 0.50963 0.20698 0.0
H516 H 0.72346 0.57285 0.26021 0.0
C517 C 0.76738 0.47244 0.22324 0.0
H518 H 0.76517 0.5749 0.20908 0.0
C519 C 0.74328 0.47122 0.2523 0.0
C520 C 0.72723 0.50727 0.26617 0.0
H521 H 0.77946 0.44415 0.21326 0.0
H522 H 0.73714 0.44199 0.26386 0.0
C523 C 0.73573 0.5446 0.25034 0.0
C524 C 0.16963 0.01788 0.02128 0.0
C525 C 0.16146 0.97618 0.02448 0.0
H526 H 0.1757 0.06674 0.98533 0.0
C527 C 0.16693 0.94984 -0.00449 0.0
H528 H 0.16538 0.03877 0.04322 0.0
C529 C 0.17382 0.96578 0.96246 0.0
C530 C 0.17405 0.00817 0.95814 0.0
H531 H 0.16072 0.91749 -0.00252 0.0
H532 H 0.17209 0.94535 0.93981 0.0
C533 C 0.17583 0.03387 -0.01191 0.0
C534 C 0.71165 0.42174 0.72414 0.0
C535 C 0.69032 0.45821 0.72366 0.0
H536 H 0.75497 0.38643 0.75063 0.0
C537 C 0.69685 0.48749 0.75052 0.0
H538 H 0.70706 0.39843 0.70396 0.0
C539 C 0.72436 0.48075 0.77702 0.0
C540 C 0.74564 0.4443 0.77764 0.0
H541 H 0.68087 0.51587 0.75097 0.0
H542 H 0.72891 0.5042 0.79709 0.0
C543 C 0.73885 0.41471 0.75102 0.0
loop_
_geom_bond_atom_site_label_1
_geom_bond_atom_site_label_2
_geom_bond_distance
_geom_bond_site_symmetry_2
_ccdc_geom_bond_type
Mg0 O1 2.028 . S
Mg0 O7 1.986 . S
Mg0 O9 2.114 . S
Mg0 O10 2.251 . S
Mg0 O13 2.010 . S
O1 Mg0 2.028 . S
O1 C4 1.250 . S
O2 Mg3 2.028 . S
O2 C4 1.248 . S
Mg3 O2 2.028 . S
Mg3 O8 2.032 . S
Mg3 O10 2.079 . S
C4 O1 1.250 . S
C4 O2 1.248 . S
C5 O6 1.264 . S
C5 O13 1.249 . S
O6 C5 1.264 . S
O7 Mg0 1.986 . S
O7 C11 1.246 . S
O8 Mg3 2.032 . S
O8 C11 1.259 . S
O9 Mg0 2.114 . S
O9 C12 1.252 . S
O10 Mg0 2.251 . S
O10 Mg3 2.079 . S
O10 C12 1.273 . S
C11 O7 1.246 . S
C11 O8 1.259 . S
C12 O9 1.252 . S
C12 O10 1.273 . S
O13 Mg0 2.010 . S
O13 C5 1.249 . S
Mg14 O15 2.028 . S
Mg14 O21 1.986 . S
Mg14 O23 2.114 . S
Mg14 O24 2.251 . S
Mg14 O27 2.010 . S
O15 Mg14 2.028 . S
O15 C18 1.250 . S
O16 Mg17 2.028 . S
O16 C18 1.248 . S
Mg17 O16 2.028 . S
Mg17 O22 2.032 . S
Mg17 O24 2.079 . S
C18 O15 1.250 . S
C18 O16 1.248 . S
C19 O20 1.264 . S
C19 O27 1.249 . S
O20 C19 1.264 . S
O21 Mg14 1.986 . S
O21 C25 1.246 . S
O22 Mg17 2.032 . S
O22 C25 1.259 . S
O23 Mg14 2.114 . S
O23 C26 1.252 . S
O24 Mg14 2.251 . S
O24 Mg17 2.079 . S
O24 C26 1.273 . S
C25 O21 1.246 . S
C25 O22 1.259 . S
C26 O23 1.252 . S
C26 O24 1.273 . S
O27 Mg14 2.010 . S
O27 C19 1.249 . S
Mg28 O29 2.028 . S
Mg28 O35 1.986 . S
Mg28 O37 2.114 . S
Mg28 O38 2.251 . S
Mg28 O41 2.010 . S
O29 Mg28 2.028 . S
O29 C32 1.250 . S
O30 Mg31 2.028 . S
O30 C32 1.248 . S
Mg31 O30 2.028 . S
Mg31 O36 2.032 . S
Mg31 O38 2.079 . S
C32 O29 1.250 . S
C32 O30 1.248 . S
C33 O34 1.264 . S
C33 O41 1.249 . S
O34 C33 1.264 . S
O35 Mg28 1.986 . S
O35 C39 1.246 . S
O36 Mg31 2.032 . S
O36 C39 1.259 . S
O37 Mg28 2.114 . S
O37 C40 1.252 . S
O38 Mg28 2.251 . S
O38 Mg31 2.079 . S
O38 C40 1.273 . S
C39 O35 1.246 . S
C39 O36 1.259 . S
C40 O37 1.252 . S
C40 O38 1.273 . S
O41 Mg28 2.010 . S
O41 C33 1.249 . S
Mg42 O43 2.028 . S
Mg42 O49 1.986 . S
Mg42 O51 2.114 . S
Mg42 O52 2.251 . S
Mg42 O55 2.010 . S
O43 Mg42 2.028 . S
O43 C46 1.250 . S
O44 Mg45 2.028 . S
O44 C46 1.248 . S
Mg45 O44 2.028 . S
Mg45 O50 2.032 . S
Mg45 O52 2.079 . S
C46 O43 1.250 . S
C46 O44 1.248 . S
C47 O48 1.264 . S
C47 O55 1.249 . S
O48 C47 1.264 . S
O49 Mg42 1.986 . S
O49 C53 1.246 . S
O50 Mg45 2.032 . S
O50 C53 1.259 . S
O51 Mg42 2.114 . S
O51 C54 1.252 . S
O52 Mg42 2.251 . S
O52 Mg45 2.079 . S
O52 C54 1.273 . S
C53 O49 1.246 . S
C53 O50 1.259 . S
C54 O51 1.252 . S
C54 O52 1.273 . S
O55 Mg42 2.010 . S
O55 C47 1.249 . S
Mg56 O57 2.028 . S
Mg56 O63 1.986 . S
Mg56 O65 2.114 . S
Mg56 O66 2.251 . S
Mg56 O69 2.010 . S
O57 Mg56 2.028 . S
O57 C60 1.250 . S
O58 Mg59 2.028 . S
O58 C60 1.248 . S
Mg59 O58 2.028 . S
Mg59 O64 2.032 . S
Mg59 O66 2.079 . S
C60 O57 1.250 . S
C60 O58 1.248 . S
C61 O62 1.264 . S
C61 O69 1.249 . S
O62 C61 1.264 . S
O63 Mg56 1.986 . S
O63 C67 1.246 . S
O64 Mg59 2.032 . S
O64 C67 1.259 . S
O65 Mg56 2.114 . S
O65 C68 1.252 . S
O66 Mg56 2.251 . S
O66 Mg59 2.079 . S
O66 C68 1.273 . S
C67 O63 1.246 . S
C67 O64 1.259 . S
C68 O65 1.252 . S
C68 O66 1.273 . S
O69 Mg56 2.010 . S
O69 C61 1.249 . S
Mg70 O71 2.028 . S
Mg70 O77 1.986 . S
Mg70 O79 2.114 . S
Mg70 O80 2.251 . S
Mg70 O83 2.010 . S
O71 Mg70 2.028 . S
O71 C74 1.250 . S
O72 Mg73 2.028 . S
O72 C74 1.248 . S
Mg73 O72 2.028 . S
Mg73 O78 2.032 . S
Mg73 O80 2.079 . S
C74 O71 1.250 . S
C74 O72 1.248 . S
C75 O76 1.264 . S
C75 O83 1.249 . S
O76 C75 1.264 . S
O77 Mg70 1.986 . S
O77 C81 1.246 . S
O78 Mg73 2.032 . S
O78 C81 1.259 . S
O79 Mg70 2.114 . S
O79 C82 1.252 . S
O80 Mg70 2.251 . S
O80 Mg73 2.079 . S
O80 C82 1.273 . S
C81 O77 1.246 . S
C81 O78 1.259 . S
C82 O79 1.252 . S
C82 O80 1.273 . S
O83 Mg70 2.010 . S
O83 C75 1.249 . S
Mg84 O85 2.028 . S
Mg84 O91 1.986 . S
Mg84 O93 2.114 . S
Mg84 O94 2.251 . S
Mg84 O97 2.010 . S
O85 Mg84 2.028 . S
O85 C88 1.250 . S
O86 Mg87 2.028 . S
O86 C88 1.248 . S
Mg87 O86 2.028 . S
Mg87 O92 2.032 . S
Mg87 O94 2.079 . S
C88 O85 1.250 . S
C88 O86 1.248 . S
C89 O90 1.264 . S
C89 O97 1.249 . S
O90 C89 1.264 . S
O91 Mg84 1.986 . S
O91 C95 1.246 . S
O92 Mg87 2.032 . S
O92 C95 1.259 . S
O93 Mg84 2.114 . S
O93 C96 1.252 . S
O94 Mg84 2.251 . S
O94 Mg87 2.079 . S
O94 C96 1.273 . S
C95 O91 1.246 . S
C95 O92 1.259 . S
C96 O93 1.252 . S
C96 O94 1.273 . S
O97 Mg84 2.010 . S
O97 C89 1.249 . S
Mg98 O99 2.028 . S
Mg98 O105 1.986 . S
Mg98 O107 2.114 . S
Mg98 O108 2.251 . S
Mg98 O111 2.010 . S
O99 Mg98 2.028 . S
O99 C102 1.250 . S
O100 Mg101 2.028 . S
O100 C102 1.248 . S
Mg101 O100 2.028 . S
Mg101 O106 2.032 . S
Mg101 O108 2.079 . S
C102 O99 1.250 . S
C102 O100 1.248 . S
C103 O104 1.264 . S
C103 O111 1.249 . S
O104 C103 1.264 . S
O105 Mg98 1.986 . S
O105 C109 1.246 . S
O106 Mg101 2.032 . S
O106 C109 1.259 . S
O107 Mg98 2.114 . S
O107 C110 1.252 . S
O108 Mg98 2.251 . S
O108 Mg101 2.079 . S
O108 C110 1.273 . S
C109 O105 1.246 . S
C109 O106 1.259 . S
C110 O107 1.252 . S
C110 O108 1.273 . S
O111 Mg98 2.010 . S
O111 C103 1.249 . S
Mg112 O113 2.028 . S
Mg112 O119 1.986 . S
Mg112 O121 2.114 . S
Mg112 O122 2.251 . S
Mg112 O125 2.010 . S
O113 Mg112 2.028 . S
O113 C116 1.250 . S
O114 Mg115 2.028 . S
O114 C116 1.248 . S
Mg115 O114 2.028 . S
Mg115 O120 2.032 . S
Mg115 O122 2.079 . S
C116 O113 1.250 . S
C116 O114 1.248 . S
C117 O118 1.264 . S
C117 O125 1.249 . S
O118 C117 1.264 . S
O119 Mg112 1.986 . S
O119 C123 1.246 . S
O120 Mg115 2.032 . S
O120 C123 1.259 . S
O121 Mg112 2.114 . S
O121 C124 1.252 . S
O122 Mg112 2.251 . S
O122 Mg115 2.079 . S
O122 C124 1.273 . S
C123 O119 1.246 . S
C123 O120 1.259 . S
C124 O121 1.252 . S
C124 O122 1.273 . S
O125 Mg112 2.010 . S
O125 C117 1.249 . S
Mg126 O127 2.028 . S
Mg126 O133 1.986 . S
Mg126 O135 2.114 . S
Mg126 O136 2.251 . S
Mg126 O139 2.010 . S
O127 Mg126 2.028 . S
O127 C130 1.250 . S
O128 Mg129 2.028 . S
O128 C130 1.248 . S
Mg129 O128 2.028 . S
Mg129 O134 2.032 . S
Mg129 O136 2.079 . S
C130 O127 1.250 . S
C130 O128 1.248 . S
C131 O132 1.246 1_545 S
C131 O139 1.249 . S
O132 C131 1.246 1_565 S
O133 Mg126 1.986 . S
O133 C137 1.246 . S
O134 Mg129 2.032 . S
O134 C137 1.259 . S
O135 Mg126 2.114 . S
O135 C138 1.252 . S
O136 Mg126 2.251 . S
O136 Mg129 2.079 . S
O136 C138 1.273 . S
C137 O133 1.246 . S
C137 O134 1.259 . S
C138 O135 1.252 . S
C138 O136 1.273 . S
O139 Mg126 2.010 . S
O139 C131 1.249 . S
Mg140 O141 2.028 . S
Mg140 O147 1.986 . S
Mg140 O149 2.114 . S
Mg140 O150 2.251 . S
Mg140 O153 2.010 . S
O141 Mg140 2.028 . S
O141 C144 1.250 . S
O142 Mg143 2.028 . S
O142 C144 1.248 . S
Mg143 O142 2.028 . S
Mg143 O148 2.032 . S
Mg143 O150 2.079 . S
C144 O141 1.250 . S
C144 O142 1.248 . S
C145 O146 1.264 . S
C145 O153 1.249 . S
O146 C145 1.264 . S
O147 Mg140 1.986 . S
O147 C151 1.246 . S
O148 Mg143 2.032 . S
O148 C151 1.259 . S
O149 Mg140 2.114 . S
O149 C152 1.252 . S
O150 Mg140 2.251 . S
O150 Mg143 2.079 . S
O150 C152 1.273 . S
C151 O147 1.246 . S
C151 O148 1.259 . S
C152 O149 1.252 . S
C152 O150 1.273 . S
O153 Mg140 2.010 . S
O153 C145 1.249 . S
Mg154 O155 2.028 . S
Mg154 O161 1.986 . S
Mg154 O163 2.114 . S
Mg154 O164 2.251 . S
Mg154 O167 2.010 . S
O155 Mg154 2.028 . S
O155 C158 1.250 . S
O156 Mg157 2.028 . S
O156 C158 1.248 . S
Mg157 O156 2.028 . S
Mg157 O162 2.032 . S
Mg157 O164 2.079 . S
C158 O155 1.250 . S
C158 O156 1.248 . S
C159 O160 1.264 1_565 S
C159 O167 1.249 . S
O160 C159 1.264 1_545 S
O161 Mg154 1.986 . S
O161 C165 1.246 . S
O162 Mg157 2.032 . S
O162 C165 1.259 . S
O163 Mg154 2.114 . S
O163 C166 1.252 . S
O164 Mg154 2.251 . S
O164 Mg157 2.079 . S
O164 C166 1.273 . S
C165 O161 1.246 . S
C165 O162 1.259 . S
C166 O163 1.252 . S
C166 O164 1.273 . S
O167 Mg154 2.010 . S
O167 C159 1.249 . S
Mg168 O169 2.028 . S
Mg168 O175 1.986 . S
Mg168 O177 2.114 . S
Mg168 O178 2.251 . S
Mg168 O181 2.010 . S
O169 Mg168 2.028 . S
O169 C172 1.250 . S
O170 Mg171 2.028 . S
O170 C172 1.248 . S
Mg171 O170 2.028 . S
Mg171 O176 2.032 . S
Mg171 O178 2.079 . S
C172 O169 1.250 . S
C172 O170 1.248 . S
C173 O174 1.264 . S
C173 O181 1.249 . S
O174 C173 1.264 . S
O175 Mg168 1.986 . S
O175 C179 1.246 . S
O176 Mg171 2.032 . S
O176 C179 1.259 . S
O177 Mg168 2.114 . S
O177 C180 1.252 . S
O178 Mg168 2.251 . S
O178 Mg171 2.079 . S
O178 C180 1.273 . S
C179 O175 1.246 . S
C179 O176 1.259 . S
C180 O177 1.252 . S
C180 O178 1.273 . S
O181 Mg168 2.010 . S
O181 C173 1.249 . S
Mg182 O183 2.028 . S
Mg182 O189 1.986 . S
Mg182 O191 2.114 . S
Mg182 O192 2.251 . S
Mg182 O195 2.010 . S
O183 Mg182 2.028 . S
O183 C186 1.250 . S
O184 Mg185 2.028 . S
O184 C186 1.248 . S
Mg185 O184 2.028 . S
Mg185 O190 2.032 . S
Mg185 O192 2.079 . S
C186 O183 1.250 . S
C186 O184 1.248 . S
C187 O188 1.283 . S
C187 O195 1.249 . S
O188 C187 1.283 . S
O189 Mg182 1.986 . S
O189 C193 1.246 . S
O190 Mg185 2.032 . S
O190 C193 1.259 . S
O191 Mg182 2.114 . S
O191 C194 1.252 . S
O192 Mg182 2.251 . S
O192 Mg185 2.079 . S
O192 C194 1.273 . S
C193 O189 1.246 . S
C193 O190 1.259 . S
C194 O191 1.252 . S
C194 O192 1.273 . S
O195 Mg182 2.010 . S
O195 C187 1.249 . S
Mg196 O197 2.028 . S
Mg196 O203 1.986 . S
Mg196 O205 2.114 . S
Mg196 O206 2.251 . S
Mg196 O209 2.010 . S
O197 Mg196 2.028 . S
O197 C200 1.250 . S
O198 Mg199 2.028 . S
O198 C200 1.248 . S
Mg199 O198 2.028 . S
Mg199 O204 2.032 . S
Mg199 O206 2.079 . S
C200 O197 1.250 . S
C200 O198 1.248 . S
C201 O202 1.264 . S
C201 O209 1.249 . S
O202 C201 1.264 . S
O203 Mg196 1.986 . S
O203 C207 1.246 . S
O204 Mg199 2.032 . S
O204 C207 1.259 . S
O205 Mg196 2.114 . S
O205 C208 1.252 . S
O206 Mg196 2.251 . S
O206 Mg199 2.079 . S
O206 C208 1.273 . S
C207 O203 1.246 . S
C207 O204 1.259 . S
C208 O205 1.252 . S
C208 O206 1.273 . S
O209 Mg196 2.010 . S
O209 C201 1.249 . S
Mg210 O211 2.028 . S
Mg210 O217 1.986 . S
Mg210 O219 2.114 . S
Mg210 O220 2.251 . S
Mg210 O223 2.010 . S
O211 Mg210 2.028 . S
O211 C214 1.250 . S
O212 Mg213 2.028 . S
O212 C214 1.248 . S
Mg213 O212 2.028 . S
Mg213 O218 2.032 . S
Mg213 O220 2.079 . S
C214 O211 1.250 . S
C214 O212 1.248 . S
C215 O216 1.264 . S
C215 O223 1.249 . S
O216 C215 1.264 . S
O217 Mg210 1.986 . S
O217 C221 1.246 . S
O218 Mg213 2.032 . S
O218 C221 1.259 . S
O219 Mg210 2.114 . S
O219 C222 1.252 . S
O220 Mg210 2.251 . S
O220 Mg213 2.079 . S
O220 C222 1.273 . S
C221 O217 1.246 . S
C221 O218 1.259 . S
C222 O219 1.252 . S
C222 O220 1.273 . S
O223 Mg210 2.010 . S
O223 C215 1.249 . S
C224 C225 1.387 . S
C224 H228 0.950 . S
C224 C233 1.390 . S
C225 C224 1.387 . S
C225 C227 1.387 . S
H226 C233 0.950 . S
C227 C225 1.387 . S
C227 C229 1.390 . S
C227 H231 0.950 . S
H228 C224 0.950 . S
C229 C227 1.390 . S
C229 C230 1.387 . S
C229 H232 0.950 . S
C230 C229 1.387 . S
C230 C233 1.387 . S
H231 C227 0.950 . S
H232 C229 0.950 . S
C233 C224 1.390 . S
C233 H226 0.950 . S
C233 C230 1.387 . S
C234 C235 1.387 . S
C234 H238 0.950 . S
C234 C243 1.390 . S
C235 C234 1.387 . S
C235 C237 1.387 . S
H236 C243 0.950 . S
C237 C235 1.387 . S
C237 C239 1.390 . S
C237 H241 0.950 . S
H238 C234 0.950 . S
C239 C237 1.390 . S
C239 C240 1.387 . S
C239 H242 0.950 . S
C240 C239 1.387 . S
C240 C243 1.387 . S
H241 C237 0.950 . S
H242 C239 0.950 . S
C243 C234 1.390 . S
C243 H236 0.950 . S
C243 C240 1.387 . S
C244 C245 1.387 . S
C244 H248 0.950 . S
C244 C253 1.390 . S
C245 C244 1.387 . S
C245 C247 1.387 . S
H246 C253 0.950 . S
C247 C245 1.387 . S
C247 C249 1.390 . S
C247 H251 0.950 . S
H248 C244 0.950 . S
C249 C247 1.390 . S
C249 C250 1.387 . S
C249 H252 0.950 . S
C250 C249 1.387 . S
C250 C253 1.387 . S
H251 C247 0.950 . S
H252 C249 0.950 . S
C253 C244 1.390 . S
C253 H246 0.950 . S
C253 C250 1.387 . S
C254 C255 1.387 . S
C254 H258 0.950 . S
C254 C263 1.390 1_455 S
C255 C254 1.387 . S
C255 C257 1.387 . S
H256 C263 0.950 . S
C257 C255 1.387 . S
C257 C259 1.390 1_455 S
C257 H261 0.950 . S
H258 C254 0.950 . S
C259 C257 1.390 1_655 S
C259 C260 1.387 . S
C259 H262 0.950 . S
C260 C259 1.387 . S
C260 C263 1.387 . S
H261 C257 0.950 . S
H262 C259 0.950 . S
C263 C254 1.390 1_655 S
C263 H256 0.950 . S
C263 C260 1.387 . S
C264 C265 1.387 . S
C264 H268 0.950 . S
C264 C273 1.390 . S
C265 C264 1.387 . S
C265 C267 1.387 . S
H266 C273 0.950 . S
C267 C265 1.387 . S
C267 C269 1.390 . S
C267 H271 0.950 . S
H268 C264 0.950 . S
C269 C267 1.390 . S
C269 C270 1.387 . S
C269 H272 0.950 . S
C270 C269 1.387 . S
C270 C273 1.387 . S
H271 C267 0.950 . S
H272 C269 0.950 . S
C273 C264 1.390 . S
C273 H266 0.950 . S
C273 C270 1.387 . S
C274 C275 1.387 . S
C274 H278 0.950 . S
C274 C283 1.390 1_655 S
C275 C274 1.387 . S
C275 C277 1.387 . S
H276 C283 0.950 . S
C277 C275 1.387 . S
C277 C279 1.411 . S
C277 H281 0.950 . S
H278 C274 0.950 . S
C279 C277 1.411 . S
C279 C280 1.376 1_655 S
C279 H282 0.940 1_655 S
C280 C279 1.376 1_455 S
C280 C283 1.387 . S
H281 C277 0.950 . S
H282 C279 0.940 1_455 S
C283 C274 1.390 1_455 S
C283 H276 0.950 . S
C283 C280 1.387 . S
C284 C285 1.387 . S
C284 H288 0.950 . S
C284 C293 1.390 . S
C285 C284 1.387 . S
C285 C287 1.387 . S
H286 C293 0.950 . S
C287 C285 1.387 . S
C287 C289 1.390 . S
C287 H291 0.950 . S
H288 C284 0.950 . S
C289 C287 1.390 . S
C289 C290 1.387 . S
C289 H292 0.950 . S
C290 C289 1.387 . S
C290 C293 1.387 . S
H291 C287 0.950 . S
H292 C289 0.950 . S
C293 C284 1.390 . S
C293 H286 0.950 . S
C293 C290 1.387 . S
C294 C295 1.387 . S
C294 H298 0.950 . S
C294 C303 1.390 . S
C295 C294 1.387 . S
C295 C297 1.387 . S
H296 C303 0.950 . S
C297 C295 1.387 . S
C297 C299 1.390 . S
C297 H301 0.950 . S
H298 C294 0.950 . S
C299 C297 1.390 . S
C299 C300 1.387 . S
C299 H302 0.950 . S
C300 C299 1.387 . S
C300 C303 1.387 . S
H301 C297 0.950 . S
H302 C299 0.950 . S
C303 C294 1.390 . S
C303 H296 0.950 . S
C303 C300 1.387 . S
C304 C305 1.387 . S
C304 H308 0.950 . S
C304 C313 1.390 . S
C305 C304 1.387 . S
C305 C307 1.387 . S
H306 C313 0.950 . S
C307 C305 1.387 . S
C307 C309 1.390 . S
C307 H311 0.950 . S
H308 C304 0.950 . S
C309 C307 1.390 . S
C309 C310 1.387 . S
C309 H312 0.950 . S
C310 C309 1.387 . S
C310 C313 1.387 . S
H311 C307 0.950 . S
H312 C309 0.950 . S
C313 C304 1.390 . S
C313 H306 0.950 . S
C313 C310 1.387 . S
C314 C315 1.387 . S
C314 H318 0.950 . S
C314 C323 1.390 . S
C315 C314 1.387 . S
C315 C317 1.387 . S
H316 C323 0.950 . S
C317 C315 1.387 . S
C317 C319 1.390 . S
C317 H321 0.950 . S
H318 C314 0.950 . S
C319 C317 1.390 . S
C319 C320 1.387 . S
C319 H322 0.950 . S
C320 C319 1.387 . S
C320 C323 1.387 . S
H321 C317 0.950 . S
H322 C319 0.950 . S
C323 C314 1.390 . S
C323 H316 0.950 . S
C323 C320 1.387 . S
C324 C325 1.387 . S
C324 H328 0.950 . S
C324 C333 1.390 . S
C325 C324 1.387 . S
C325 C327 1.387 . S
H326 C333 0.950 . S
C327 C325 1.387 . S
C327 C329 1.390 . S
C327 H331 0.950 . S
H328 C324 0.950 . S
C329 C327 1.390 . S
C329 C330 1.387 . S
C329 H332 0.950 . S
C330 C329 1.387 . S
C330 C333 1.387 . S
H331 C327 0.950 . S
H332 C329 0.950 . S
C333 C324 1.390 . S
C333 H326 0.950 . S
C333 C330 1.387 . S
C334 C335 1.387 . S
C334 H338 0.950 . S
C334 C343 1.390 . S
C335 C334 1.387 . S
C335 C337 1.387 . S
H336 C343 0.950 . S
C337 C335 1.387 . S
C337 C339 1.390 . S
C337 H341 0.950 . S
H338 C334 0.950 . S
C339 C337 1.390 . S
C339 C340 1.387 . S
C339 H342 0.950 . S
C340 C339 1.387 . S
C340 C343 1.387 . S
H341 C337 0.950 . S
H342 C339 0.950 . S
C343 C334 1.390 . S
C343 H336 0.950 . S
C343 C340 1.387 . S
C344 C345 1.387 . S
C344 H348 0.950 . S
C344 C353 1.390 1_455 S
C345 C344 1.387 . S
C345 C347 1.387 . S
H346 C353 0.950 . S
C347 C345 1.387 . S
C347 C349 1.390 1_455 S
C347 H351 0.950 . S
H348 C344 0.950 . S
C349 C347 1.390 1_655 S
C349 C350 1.387 . S
C349 H352 0.950 . S
C350 C349 1.387 . S
C350 C353 1.387 . S
H351 C347 0.950 . S
H352 C349 0.950 . S
C353 C344 1.390 1_655 S
C353 H346 0.950 . S
C353 C350 1.387 . S
C354 C355 1.387 . S
C354 H358 0.950 . S
C354 C363 1.390 . S
C355 C354 1.387 . S
C355 C357 1.387 . S
H356 C363 0.950 . S
C357 C355 1.387 . S
C357 C359 1.390 . S
C357 H361 0.950 . S
H358 C354 0.950 . S
C359 C357 1.390 . S
C359 C360 1.387 . S
C359 H362 0.950 . S
C360 C359 1.387 . S
C360 C363 1.387 . S
H361 C357 0.950 . S
H362 C359 0.950 . S
C363 C354 1.390 . S
C363 H356 0.950 . S
C363 C360 1.387 . S
C364 C365 1.387 . S
C364 H368 0.950 . S
C364 C373 1.390 . S
C365 C364 1.387 . S
C365 C367 1.387 . S
H366 C373 0.950 . S
C367 C365 1.387 . S
C367 C369 1.390 . S
C367 H371 0.950 . S
H368 C364 0.950 . S
C369 C367 1.390 . S
C369 C370 1.387 . S
C369 H372 0.950 . S
C370 C369 1.387 . S
C370 C373 1.387 . S
H371 C367 0.950 . S
H372 C369 0.950 . S
C373 C364 1.390 . S
C373 H366 0.950 . S
C373 C370 1.387 . S
C374 C375 1.387 . S
C374 H378 0.950 . S
C374 C383 1.390 1_455 S
C375 C374 1.387 . S
C375 C377 1.387 . S
H376 C383 0.950 . S
C377 C375 1.387 . S
C377 C379 1.390 1_455 S
C377 H381 0.950 . S
H378 C374 0.950 . S
C379 C377 1.390 1_655 S
C379 C380 1.387 . S
C379 H382 0.950 . S
C380 C379 1.387 . S
C380 C383 1.387 . S
H381 C377 0.950 . S
H382 C379 0.950 . S
C383 C374 1.390 1_655 S
C383 H376 0.950 . S
C383 C380 1.387 . S
C384 C385 1.387 . S
C384 H388 0.950 . S
C384 C393 1.390 1_554 S
C385 C384 1.387 . S
C385 C387 1.387 . S
H386 C393 0.950 . S
C387 C385 1.387 . S
C387 C389 1.390 1_554 S
C387 H391 0.950 . S
H388 C384 0.950 . S
C389 C387 1.390 1_556 S
C389 C390 1.387 . S
C389 H392 0.950 . S
C390 C389 1.387 . S
C390 C393 1.387 . S
H391 C387 0.950 . S
H392 C389 0.950 . S
C393 C384 1.390 1_556 S
C393 H386 0.950 . S
C393 C390 1.387 . S
C394 C395 1.387 . S
C394 H398 0.950 . S
C394 C403 1.390 . S
C395 C394 1.387 . S
C395 C397 1.387 . S
H396 C403 0.950 . S
C397 C395 1.387 . S
C397 C399 1.390 . S
C397 H401 0.950 . S
H398 C394 0.950 . S
C399 C397 1.390 . S
C399 C400 1.387 . S
C399 H402 0.950 . S
C400 C399 1.387 . S
C400 C403 1.387 . S
H401 C397 0.950 . S
H402 C399 0.950 . S
C403 C394 1.390 . S
C403 H396 0.950 . S
C403 C400 1.387 . S
C404 C405 1.387 . S
C404 H408 0.950 . S
C404 C413 1.390 . S
C405 C404 1.387 . S
C405 C407 1.387 . S
H406 C413 0.950 . S
C407 C405 1.387 . S
C407 C409 1.390 . S
C407 H411 0.950 . S
H408 C404 0.950 . S
C409 C407 1.390 . S
C409 C410 1.387 . S
C409 H412 0.950 . S
C410 C409 1.387 . S
C410 C413 1.387 . S
H411 C407 0.950 . S
H412 C409 0.950 . S
C413 C404 1.390 . S
C413 H406 0.950 . S
C413 C410 1.387 . S
C414 C415 1.387 . S
C414 H418 0.950 . S
C414 C423 1.390 . S
C415 C414 1.387 . S
C415 C417 1.387 . S
H416 C423 0.950 . S
C417 C415 1.387 . S
C417 C419 1.390 . S
C417 H421 0.950 . S
H418 C414 0.950 . S
C419 C417 1.390 . S
C419 C420 1.387 . S
C419 H422 0.950 . S
C420 C419 1.387 . S
C420 C423 1.387 . S
H421 C417 0.950 . S
H422 C419 0.950 . S
C423 C414 1.390 . S
C423 H416 0.950 . S
C423 C420 1.387 . S
C424 C425 1.387 . S
C424 H428 0.950 . S
C424 C433 1.390 1_556 S
C425 C424 1.387 . S
C425 C427 1.387 . S
H426 C433 0.950 . S
C427 C425 1.387 . S
C427 C429 1.390 1_556 S
C427 H431 0.950 . S
H428 C424 0.950 . S
C429 C427 1.390 1_554 S
C429 C430 1.387 . S
C429 H432 0.950 . S
C430 C429 1.387 . S
C430 C433 1.387 . S
H431 C427 0.950 . S
H432 C429 0.950 . S
C433 C424 1.390 1_554 S
C433 H426 0.950 . S
C433 C430 1.387 . S
C434 C435 1.387 . S
C434 H438 0.950 . S
C434 C443 1.390 . S
C435 C434 1.387 . S
C435 C437 1.387 . S
H436 C443 0.950 . S
C437 C435 1.387 . S
C437 C439 1.390 . S
C437 H441 0.950 1_545 S
H438 C434 0.950 . S
C439 C437 1.390 . S
C439 C440 1.387 . S
C439 H442 0.950 1_545 S
C440 C439 1.387 . S
C440 C443 1.387 . S
H441 C437 0.950 1_565 S
H442 C439 0.950 1_565 S
C443 C434 1.390 . S
C443 H436 0.950 . S
C443 C440 1.387 . S
C444 C445 1.387 . S
C444 H448 0.950 . S
C444 C453 1.390 . S
C445 C444 1.387 . S
C445 C447 1.387 . S
H446 C453 0.950 . S
C447 C445 1.387 . S
C447 C449 1.390 . S
C447 H451 0.950 . S
H448 C444 0.950 . S
C449 C447 1.390 . S
C449 C450 1.387 . S
C449 H452 0.950 . S
C450 C449 1.387 . S
C450 C453 1.387 . S
H451 C447 0.950 . S
H452 C449 0.950 . S
C453 C444 1.390 . S
C453 H446 0.950 . S
C453 C450 1.387 . S
C454 C455 1.387 . S
C454 H458 0.941 1_565 S
C454 C463 1.390 . S
C455 C454 1.387 . S
C455 C457 1.387 . S
H456 C463 0.950 1_545 S
C457 C455 1.387 . S
C457 C459 1.390 . S
C457 H461 0.950 . S
H458 C454 0.941 1_545 S
C459 C457 1.390 . S
C459 C460 1.387 . S
C459 H462 0.950 . S
C460 C459 1.387 . S
C460 C463 1.387 . S
H461 C457 0.950 . S
H462 C459 0.950 . S
C463 C454 1.390 . S
C463 H456 0.950 1_565 S
C463 C460 1.387 . S
C464 C465 1.387 . S
C464 H468 0.950 . S
C464 C473 1.390 1_545 S
C465 C464 1.387 . S
C465 C467 1.387 . S
H466 C473 0.950 . S
C467 C465 1.387 . S
C467 C469 1.390 1_545 S
C467 H471 0.950 . S
H468 C464 0.950 . S
C469 C467 1.390 1_565 S
C469 C470 1.387 . S
C469 H472 0.950 . S
C470 C469 1.387 . S
C470 C473 1.387 . S
H471 C467 0.950 . S
H472 C469 0.950 . S
C473 C464 1.390 1_565 S
C473 H466 0.950 . S
C473 C470 1.387 . S
C474 C475 1.387 . S
C474 H478 0.950 . S
C474 C483 1.390 . S
C475 C474 1.387 . S
C475 C477 1.387 . S
H476 C483 0.950 . S
C477 C475 1.387 . S
C477 C479 1.390 . S
C477 H481 0.950 . S
H478 C474 0.950 . S
C479 C477 1.390 . S
C479 C480 1.387 . S
C479 H482 0.950 . S
C480 C479 1.387 . S
C480 C483 1.387 . S
H481 C477 0.950 . S
H482 C479 0.950 . S
C483 C474 1.390 . S
C483 H476 0.950 . S
C483 C480 1.387 . S
C484 C485 1.387 . S
C484 H488 0.950 . S
C484 C493 1.390 1_546 S
C485 C484 1.387 . S
C485 C487 1.387 . S
H486 C493 0.950 . S
C487 C485 1.387 . S
C487 C489 1.390 1_546 S
C487 H491 0.950 . S
H488 C484 0.950 . S
C489 C487 1.390 1_564 S
C489 C490 1.387 . S
C489 H492 0.950 . S
C490 C489 1.387 . S
C490 C493 1.387 . S
H491 C487 0.950 . S
H492 C489 0.950 . S
C493 C484 1.390 1_564 S
C493 H486 0.950 . S
C493 C490 1.387 . S
C494 C495 1.387 . S
C494 H498 0.950 . S
C494 C503 1.390 . S
C495 C494 1.387 . S
C495 C497 1.387 . S
H496 C503 0.950 . S
C497 C495 1.387 . S
C497 C499 1.390 . S
C497 H501 0.950 . S
H498 C494 0.950 . S
C499 C497 1.390 . S
C499 C500 1.387 . S
C499 H502 0.950 . S
C500 C499 1.387 . S
C500 C503 1.387 . S
H501 C497 0.950 . S
H502 C499 0.950 . S
C503 C494 1.390 . S
C503 H496 0.950 . S
C503 C500 1.387 . S
C504 C505 1.387 . S
C504 H508 0.950 . S
C504 C513 1.390 . S
C505 C504 1.387 . S
C505 C507 1.387 1_545 S
H506 C513 0.950 . S
C507 C505 1.387 1_565 S
C507 C509 1.390 . S
C507 H511 0.950 . S
H508 C504 0.950 . S
C509 C507 1.390 . S
C509 C510 1.387 . S
C509 H512 0.950 . S
C510 C509 1.387 . S
C510 C513 1.387 1_565 S
H511 C507 0.950 . S
H512 C509 0.950 . S
C513 C504 1.390 . S
C513 H506 0.950 . S
C513 C510 1.387 1_545 S
C514 C515 1.387 . S
C514 H518 0.950 . S
C514 C523 1.390 . S
C515 C514 1.387 . S
C515 C517 1.387 . S
H516 C523 0.950 . S
C517 C515 1.387 . S
C517 C519 1.390 . S
C517 H521 0.950 . S
H518 C514 0.950 . S
C519 C517 1.390 . S
C519 C520 1.387 . S
C519 H522 0.950 . S
C520 C519 1.387 . S
C520 C523 1.387 . S
H521 C517 0.950 . S
H522 C519 0.950 . S
C523 C514 1.390 . S
C523 H516 0.950 . S
C523 C520 1.387 . S
C524 C525 1.387 1_545 S
C524 H528 0.950 . S
C524 C533 1.393 . S
C525 C524 1.387 1_565 S
C525 C527 1.387 . S
H526 C533 0.949 1_556 S
C527 C525 1.387 . S
C527 C529 1.390 1_554 S
C527 H531 0.950 . S
H528 C524 0.950 . S
C529 C527 1.390 1_556 S
C529 C530 1.387 1_565 S
C529 H532 0.950 . S
C530 C529 1.387 1_545 S
C530 C533 1.385 1_556 S
H531 C527 0.950 . S
H532 C529 0.950 . S
C533 C524 1.393 . S
C533 H526 0.949 1_554 S
C533 C530 1.385 1_554 S
C534 C535 1.387 . S
C534 H538 0.950 . S
C534 C543 1.390 . S
C535 C534 1.387 . S
C535 C537 1.387 . S
H536 C543 0.950 . S
C537 C535 1.387 . S
C537 C539 1.390 . S
C537 H541 0.950 . S
H538 C534 0.950 . S
C539 C537 1.390 . S
C539 C540 1.387 . S
C539 H542 0.950 . S
C540 C539 1.387 . S
C540 C543 1.387 . S
H541 C537 0.950 . S
H542 C539 0.950 . S
C543 C534 1.390 . S
C543 H536 0.950 . S
C543 C540 1.387 . S
C225 C158 1.363 . S
C230 C12 1.387 . S
C235 C222 1.484 . S
C240 C18 1.450 . S
C245 C40 1.478 . S
C250 C130 1.451 . S
C255 C194 1.360 . S
C260 C54 1.362 . S
C265 C68 1.412 . S
C270 C186 1.373 . S
C275 C74 1.488 . S
C280 C166 1.512 . S
C285 C88 1.496 . S
C290 C214 1.503 . S
C295 C102 1.393 . S
C300 C138 1.415 . S
C305 C46 1.498 . S
C310 C116 1.501 . S
C315 C144 1.375 . S
C320 C26 1.411 . S
C325 C172 1.449 . S
C330 C82 1.478 . S
C335 C200 1.361 . S
C340 C110 1.388 . S
C345 C60 1.450 . S
C350 C124 1.484 . S
C355 C152 1.359 . S
C360 C96 1.362 . S
C365 C208 1.514 . S
C370 C32 1.487 . S
C375 C4 1.393 . S
C380 C180 1.416 . S
C385 C5 1.142 . S
C390 C61 1.136 . S
C395 C25 1.231 . S
C400 C81 1.230 . S
C405 C33 1.166 . S
C410 C95 1.248 . S
C415 C109 1.213 . S
C420 C47 1.127 . S
C425 C123 1.271 . S
C430 C179 1.274 . S
C435 C187 1.118 . S
C440 C131 1.128 . S
C445 C151 1.204 . S
C450 C207 1.231 . S
C455 C215 1.158 . S
C460 C159 1.218 . S
C465 C103 1.142 . S
C470 C19 1.136 . S
C475 C39 1.231 . S
C480 C67 1.231 . S
C485 C53 1.248 . S
C490 C75 1.166 . S
C495 C11 1.211 . S
C500 C89 1.125 . S
C505 C137 1.274 . S
C510 C221 1.270 . S
C515 C173 1.128 . S
C520 C145 1.118 . S
C525 C165 1.229 . S
C530 C193 1.207 . S
C535 C201 1.216 . S
C540 C117 1.156 . S
