# Generated by pormake.
# Topology hcp, (12)-cn, num edge types: 1
# Building blocks:
#     Node 0, Type 0, BuildingBlock: UKIBUN_clean_sbu_0, # of connection points: 12
#     Node 1, Type 0, BuildingBlock: UKIBUN_clean_sbu_0, # of connection points: 12
#     Edge 2, Type (0, 0), BuildingBlock: MIFKUJ_clean_linker_0, # of connection points: 2
#     Edge 3, Type (0, 0), BuildingBlock: MIFKUJ_clean_linker_0, # of connection points: 2
#     Edge 4, Type (0, 0), BuildingBlock: MIFKUJ_clean_linker_0, # of connection points: 2
#     Edge 5, Type (0, 0), BuildingBlock: MIFKUJ_clean_linker_0, # of connection points: 2
#     Edge 6, Type (0, 0), BuildingBlock: MIFKUJ_clean_linker_0, # of connection points: 2
#     Edge 7, Type (0, 0), BuildingBlock: MIFKUJ_clean_linker_0, # of connection points: 2
#     Edge 8, Type (0, 0), BuildingBlock: MIFKUJ_clean_linker_0, # of connection points: 2
#     Edge 9, Type (0, 0), BuildingBlock: MIFKUJ_clean_linker_0, # of connection points: 2
#     Edge 10, Type (0, 0), BuildingBlock: MIFKUJ_clean_linker_0, # of connection points: 2
#     Edge 11, Type (0, 0), BuildingBlock: MIFKUJ_clean_linker_0, # of connection points: 2
#     Edge 12, Type (0, 0), BuildingBlock: MIFKUJ_clean_linker_0, # of connection points: 2
#     Edge 13, Type (0, 0), BuildingBlock: MIFKUJ_clean_linker_0, # of connection points: 2
# Relax obj value: 0.181
# Max RMSD: 0.266
# Mean RMSD: 0.266
data_MOF--net-hcp--node1-UKIBUN_clean_sbu_0--edge1-MIFKUJ_clean_linker_0
_symmetry_space_group_name_H-M    P1
_symmetry_Int_Tables_number       1
_symmetry_cell_setting            triclinic
loop_
_symmetry_equiv_pos_as_xyz
'x, y, z'
_cell_length_a     22.326264
_cell_length_b     22.304305
_cell_length_c     36.994844
_cell_angle_alpha  89.815308
_cell_angle_beta   89.933391
_cell_angle_gamma 119.84736
loop_
_atom_site_label
_atom_site_type_symbol
_atom_site_fract_x
_atom_site_fract_y
_atom_site_fract_z
_atom_type_partial_charge
C0 C 0.88795 0.48976 0.25631 0.0
C1 C 0.82869 0.26724 0.26745 0.0
O2 O 0.73743 0.42362 0.27448 0.0
O3 O 0.66697 0.31995 0.20674 0.0
O4 O 0.64394 0.39251 0.23925 0.0
O5 O 0.75966 0.34971 0.24354 0.0
Hf6 Hf 0.739 0.41977 0.21894 0.0
O7 O 0.67006 0.33732 0.31336 0.0
Hf8 Hf 0.767 0.35944 0.29879 0.0
O9 O 0.57647 0.30794 0.27795 0.0
Hf10 Hf 0.64444 0.40718 0.2938 0.0
O11 O 0.69251 0.26444 0.28181 0.0
Hf12 Hf 0.56981 0.29671 0.22272 0.0
Hf13 Hf 0.69368 0.25094 0.22701 0.0
O14 O 0.60069 0.23414 0.24691 0.0
Hf15 Hf 0.59724 0.23798 0.30228 0.0
C16 C 0.56909 0.18301 0.16919 0.0
C17 C 0.76169 0.46452 0.35582 0.0
C18 C 0.50536 0.38538 0.2553 0.0
C19 C 0.72257 0.54666 0.24718 0.0
O20 O 0.74845 0.5231 0.2238 0.0
O21 O 0.79362 0.40211 0.17381 0.0
C22 C 0.79817 0.34877 0.16444 0.0
O23 O 0.58934 0.13528 0.29748 0.0
O24 O 0.4681 0.20754 0.2375 0.0
O25 O 0.57853 0.35752 0.17334 0.0
O26 O 0.55402 0.26139 0.35156 0.0
O27 O 0.75548 0.29814 0.34923 0.0
O28 O 0.86848 0.44925 0.28418 0.0
O29 O 0.78415 0.24007 0.2417 0.0
O30 O 0.62529 0.18804 0.18204 0.0
C31 C 0.55763 0.31838 0.36227 0.0
O32 O 0.55026 0.41314 0.28092 0.0
O33 O 0.7107 0.46664 0.34046 0.0
C34 C 0.61657 0.11214 0.27464 0.0
O35 O 0.64081 0.21547 0.3497 0.0
O36 O 0.69278 0.44072 0.17106 0.0
O37 O 0.84896 0.48677 0.22999 0.0
O38 O 0.48681 0.17225 0.29241 0.0
O39 O 0.65408 0.145 0.24711 0.0
O40 O 0.58504 0.37527 0.34419 0.0
C41 C 0.44822 0.16779 0.26563 0.0
O42 O 0.68508 0.51359 0.27461 0.0
O43 O 0.78934 0.42917 0.34485 0.0
O44 O 0.76589 0.28901 0.18017 0.0
O45 O 0.50473 0.34319 0.23147 0.0
O46 O 0.54099 0.21821 0.18006 0.0
O47 O 0.83078 0.31117 0.29062 0.0
C48 C 0.70205 0.24442 0.36281 0.0
C49 C 0.63026 0.41154 0.15909 0.0
C50 C 0.4457 0.68513 0.85733 0.0
C51 C 0.28722 0.74523 0.86402 0.0
O52 O 0.41323 0.68826 0.77706 0.0
O53 O 0.25238 0.56926 0.77595 0.0
O54 O 0.34433 0.60199 0.74019 0.0
O55 O 0.31918 0.65759 0.81406 0.0
Hf56 Hf 0.34643 0.58907 0.79477 0.0
O57 O 0.38298 0.75689 0.74556 0.0
Hf58 Hf 0.38993 0.75698 0.80072 0.0
O59 O 0.31786 0.6702 0.70652 0.0
Hf60 Hf 0.41637 0.69685 0.72145 0.0
O61 O 0.29287 0.72748 0.7816 0.0
Hf62 Hf 0.24847 0.57026 0.72042 0.0
Hf63 Hf 0.22109 0.63207 0.79983 0.0
O64 O 0.22677 0.63947 0.74456 0.0
Hf65 Hf 0.2893 0.738 0.72659 0.0
C66 C 0.10246 0.49617 0.76157 0.0
C67 C 0.52755 0.84351 0.75377 0.0
C68 C 0.35864 0.57555 0.66218 0.0
C69 C 0.48017 0.60649 0.75291 0.0
O70 O 0.43607 0.57847 0.77887 0.0
O71 O 0.27992 0.52693 0.84139 0.0
C72 C 0.22435 0.52286 0.85485 0.0
O73 O 0.18793 0.73086 0.73576 0.0
O74 O 0.19023 0.58485 0.67597 0.0
O75 O 0.24555 0.47021 0.72518 0.0
O76 O 0.361 0.80791 0.68421 0.0
O77 O 0.3888 0.85523 0.79736 0.0
O78 O 0.44723 0.74086 0.84589 0.0
O79 O 0.2333 0.69292 0.85013 0.0
O80 O 0.1202 0.54066 0.78728 0.0
C81 C 0.41043 0.80599 0.66698 0.0
O82 O 0.40942 0.63171 0.67488 0.0
O83 O 0.51207 0.79709 0.72929 0.0
C84 C 0.14276 0.70161 0.76119 0.0
O85 O 0.31697 0.83949 0.74945 0.0
O86 O 0.30942 0.4833 0.77618 0.0
O87 O 0.41236 0.62536 0.84258 0.0
O88 O 0.22435 0.70016 0.67746 0.0
O89 O 0.14944 0.67012 0.78875 0.0
O90 O 0.43394 0.76492 0.67425 0.0
C91 C 0.18912 0.63884 0.66402 0.0
O92 O 0.48388 0.65285 0.73067 0.0
O93 O 0.49323 0.83635 0.78299 0.0
O94 O 0.19561 0.55697 0.84356 0.0
O95 O 0.29575 0.54666 0.67383 0.0
O96 O 0.14123 0.49808 0.73531 0.0
O97 O 0.34836 0.77487 0.8505 0.0
C98 C 0.35494 0.874 0.77643 0.0
C99 C 0.27424 0.4496 0.74846 0.0
H100 H 0.30434 0.87243 0.87228 0.0
H101 H 0.33791 0.93979 0.92793 0.0
H102 H 0.29982 0.75808 0.98823 0.0
H103 H 0.26695 0.6907 0.93201 0.0
H104 H 0.29415 0.94823 0.99094 0.0
H105 H 0.43343 0.80686 0.05066 0.0
H106 H 0.49923 0.75081 0.03114 0.0
H107 H 0.5309 0.84621 0.92656 0.0
H108 H 0.46645 0.90394 0.94568 0.0
H109 H 0.43049 0.10386 0.15987 0.0
H110 H 0.36884 0.02163 0.11168 0.0
H111 H 0.56356 0.06835 0.06327 0.0
H112 H 0.62519 0.14742 0.11304 0.0
H113 H 0.48577 0.94299 0.05576 0.0
H114 H 0.45326 0.13421 0.03127 0.0
H115 H 0.42078 0.22284 0.04389 0.0
H116 H 0.21095 0.0641 0.06285 0.0
H117 H 0.24241 0.97446 0.0508 0.0
C118 C 0.30014 0.84624 0.8977 0.0
C119 C 0.28178 0.77618 0.89806 0.0
C120 C 0.31989 0.88489 0.92951 0.0
C121 C 0.32261 0.8545 0.96233 0.0
C122 C 0.29903 0.78299 0.9632 0.0
C123 C 0.27905 0.74415 0.93123 0.0
C124 C 0.35625 0.89924 0.9944 0.0
C125 C 0.33557 0.94652 1.00535 0.0
C126 C 0.41219 0.89929 0.0125 0.0
C127 C 0.44435 0.85901 0.99951 0.0
C128 C 0.45384 0.8153 0.02339 0.0
C129 C 0.49126 0.78358 0.01245 0.0
C130 C 0.51964 0.79544 0.97772 0.0
C131 C 0.50904 0.83737 0.95349 0.0
C132 C 0.47188 0.86944 0.96434 0.0
C133 C 0.46007 0.09636 0.13898 0.0
C134 C 0.53264 0.13231 0.14009 0.0
C135 C 0.42475 0.04965 0.11121 0.0
C136 C 0.46117 0.03956 0.0831 0.0
C137 C 0.5339 0.07494 0.08449 0.0
C138 C 0.56925 0.12029 0.1129 0.0
C139 C 0.42371 0.99191 0.05247 0.0
C140 C 0.44355 0.94397 0.04182 0.0
C141 C 0.36959 0.99394 0.03341 0.0
C142 C 0.35034 0.04762 0.0405 0.0
C143 C 0.40028 0.1182 0.03837 0.0
C144 C 0.38205 0.16862 0.04538 0.0
C145 C 0.31388 0.1491 0.05426 0.0
C146 C 0.26376 0.07912 0.05603 0.0
C147 C 0.28174 0.02849 0.04908 0.0
H148 H 0.29987 0.1882 0.05968 0.0
H149 H 0.5505 0.77278 0.9697 0.0
H150 H 0.29317 0.43672 0.64854 0.0
H151 H 0.32362 0.37653 0.60302 0.0
H152 H 0.49188 0.57181 0.56634 0.0
H153 H 0.46258 0.63221 0.61207 0.0
H154 H 0.40453 0.48906 0.5111 0.0
H155 H 0.53115 0.47494 0.6107 0.0
H156 H 0.55432 0.44662 0.67166 0.0
H157 H 0.41885 0.23073 0.65182 0.0
H158 H 0.39372 0.25761 0.59089 0.0
H159 H 0.62383 0.42547 0.40746 0.0
H160 H 0.58178 0.44807 0.46346 0.0
H161 H 0.39794 0.24805 0.45733 0.0
H162 H 0.44048 0.22459 0.40029 0.0
H163 H 0.4803 0.31781 0.53496 0.0
H164 H 0.3599 0.34162 0.43097 0.0
H165 H 0.35645 0.37969 0.36912 0.0
H166 H 0.49729 0.59023 0.39834 0.0
H167 H 0.50346 0.55275 0.46041 0.0
C168 C 0.33638 0.46688 0.6306 0.0
C169 C 0.37489 0.5394 0.63354 0.0
C170 C 0.35418 0.4323 0.60493 0.0
C171 C 0.41018 0.46966 0.58144 0.0
C172 C 0.44856 0.54199 0.58429 0.0
C173 C 0.43162 0.57645 0.61033 0.0
C174 C 0.42633 0.43425 0.55226 0.0
C175 C 0.42084 0.45146 0.51644 0.0
C176 C 0.44704 0.38464 0.55918 0.0
C177 C 0.45944 0.36844 0.59642 0.0
C178 C 0.50514 0.4215 0.61955 0.0
C179 C 0.51892 0.40571 0.65405 0.0
C180 C 0.48779 0.33705 0.66567 0.0
C181 C 0.44262 0.28396 0.64285 0.0
C182 C 0.42855 0.29943 0.60832 0.0
C183 C 0.57492 0.3855 0.41823 0.0
C184 C 0.53487 0.3236 0.39918 0.0
C185 C 0.55122 0.39849 0.4504 0.0
C186 C 0.48666 0.35009 0.46436 0.0
C187 C 0.44817 0.28593 0.44695 0.0
C188 C 0.4723 0.27261 0.41443 0.0
C189 C 0.45735 0.37212 0.49407 0.0
C190 C 0.46152 0.35352 0.52986 0.0
C191 C 0.4364 0.42143 0.48738 0.0
C192 C 0.43262 0.44424 0.4502 0.0
C193 C 0.39081 0.3959 0.42412 0.0
C194 C 0.38826 0.41748 0.38899 0.0
C195 C 0.42652 0.48748 0.37969 0.0
C196 C 0.46769 0.53603 0.40556 0.0
C197 C 0.47083 0.51461 0.44072 0.0
H198 H 0.42426 0.50424 0.35249 0.0
H199 H 0.499 0.32504 0.6923 0.0
H200 H 0.85284 0.26639 0.14581 0.0
H201 H 0.93438 0.2849 0.09698 0.0
H202 H 0.92907 0.46756 0.06367 0.0
H203 H 0.85046 0.45137 0.11314 0.0
H204 H 0.92792 0.28655 0.02767 0.0
H205 H 0.03546 0.56722 0.03636 0.0
H206 H 0.07476 0.66333 0.07988 0.0
H207 H 0.16539 0.57084 0.14588 0.0
H208 H 0.12765 0.47523 0.10221 0.0
H209 H 0.08809 0.43479 0.86204 0.0
H210 H 0.02457 0.39046 0.91832 0.0
H211 H 0.21656 0.46822 0.97629 0.0
H212 H 0.28084 0.51428 0.91934 0.0
H213 H 0.1393 0.51286 1.00664 0.0
H214 H 0.09701 0.29118 0.97035 0.0
H215 H 0.06449 0.19346 0.92895 0.0
H216 H 0.85991 0.16421 0.92012 0.0
H217 H 0.89137 0.26236 0.96108 0.0
C218 C 0.86933 0.3108 0.1282 0.0
C219 C 0.84542 0.35777 0.13379 0.0
C220 C 0.91627 0.32149 0.10028 0.0
C221 C 0.94087 0.37957 0.07739 0.0
C222 C 0.91486 0.42489 0.08213 0.0
C223 C 0.86862 0.41475 0.1102 0.0
C224 C 0.99028 0.3905 0.04731 0.0
C225 C 0.97427 0.33597 0.02319 0.0
C226 C 0.05193 0.45433 0.04159 0.0
C227 C 0.07571 0.51247 0.0672 0.0
C228 C 0.06321 0.56724 0.06037 0.0
C229 C 0.08547 0.62176 0.08492 0.0
C230 C 0.12158 0.62265 0.11595 0.0
C231 C 0.13646 0.5696 0.12216 0.0
C232 C 0.11422 0.51502 0.09767 0.0
C233 C 0.11681 0.44021 0.88659 0.0
C234 C 0.18941 0.47786 0.88634 0.0
C235 C 0.08034 0.41475 0.91886 0.0
C236 C 0.11547 0.4257 0.95176 0.0
C237 C 0.18821 0.4591 0.95128 0.0
C238 C 0.22498 0.48467 0.91872 0.0
C239 C 0.07595 0.40938 0.98643 0.0
C240 C 0.09363 0.46297 1.01136 0.0
C241 C 0.0163 0.34435 0.993 0.0
C242 C -0.00328 0.28445 0.96874 0.0
C243 C 0.04517 0.26417 0.95946 0.0
C244 C 0.02692 0.20867 0.93605 0.0
C245 C 0.96022 0.17272 0.92186 0.0
C246 C 0.91152 0.192 0.9312 0.0
C247 C 0.92951 0.24751 0.95458 0.0
H248 H 0.94625 0.12986 0.90367 0.0
H249 H 0.13864 0.66476 0.13498 0.0
H250 H 0.47497 0.94628 0.67001 0.0
H251 H 0.54104 0.02865 0.62186 0.0
H252 H 0.48737 0.85939 0.5485 0.0
H253 H 0.42548 0.77719 0.59744 0.0
H254 H 0.61165 0.94426 0.53808 0.0
H255 H 0.41418 0.97833 0.55055 0.0
H256 H 0.33453 0.00685 0.5825 0.0
H257 H 0.50405 0.20689 0.60927 0.0
H258 H 0.58473 0.17912 0.57813 0.0
H259 H 0.66195 0.11015 0.37002 0.0
H260 H 0.63006 0.04397 0.42583 0.0
H261 H 0.71637 0.23312 0.48713 0.0
H262 H 0.74707 0.29995 0.43034 0.0
H263 H 0.58883 0.14874 0.50811 0.0
H264 H 0.78424 0.11653 0.49217 0.0
H265 H 0.86236 0.08996 0.45727 0.0
H266 H 0.69389 0.88689 0.43454 0.0
H267 H 0.61474 0.91237 0.46913 0.0
C268 C 0.47671 0.92701 0.64341 0.0
C269 C 0.44449 0.85564 0.63713 0.0
C270 C 0.5143 0.97411 0.61582 0.0
C271 C 0.51845 0.95089 0.58105 0.0
C272 C 0.48528 0.87916 0.5749 0.0
C273 C 0.44947 0.83209 0.60276 0.0
C274 C 0.55927 0.00057 0.55141 0.0
C275 C 0.60567 0.98835 0.53133 0.0
C276 C 0.55424 0.06015 0.54316 0.0
C277 C 0.50556 0.07641 0.56221 0.0
C278 C 0.43449 0.02819 0.56349 0.0
C279 C 0.38913 0.04428 0.58142 0.0
C280 C 0.41414 0.10869 0.59785 0.0
C281 C 0.48459 0.15711 0.59645 0.0
C282 C 0.53018 0.14118 0.57872 0.0
C283 C 0.67705 0.13787 0.39538 0.0
C284 C 0.70777 0.21024 0.39582 0.0
C285 C 0.65857 0.09984 0.42747 0.0
C286 C 0.67105 0.13319 0.461 0.0
C287 C 0.70628 0.20606 0.46164 0.0
C288 C 0.72475 0.24439 0.42924 0.0
C289 C 0.63958 0.09124 0.49442 0.0
C290 C 0.59496 0.10484 0.51516 0.0
C291 C 0.6457 0.03264 0.50311 0.0
C292 C 0.69359 0.01647 0.48317 0.0
C293 C 0.76388 0.06626 0.47968 0.0
C294 C 0.80834 0.05136 0.45998 0.0
C295 C 0.78311 0.98678 0.4437 0.0
C296 C 0.71342 0.93683 0.44724 0.0
C297 C 0.66879 0.95138 0.467 0.0
H298 H 0.81757 0.97545 0.42836 0.0
H299 H 0.37894 0.12098 0.61174 0.0
H300 H 0.71283 0.5421 0.13204 0.0
H301 H 0.68873 0.59861 0.08205 0.0
H302 H 0.49258 0.4142 0.06488 0.0
H303 H 0.51619 0.357 0.11496 0.0
H304 H 0.55716 0.46566 1.00166 0.0
H305 H 0.50279 0.55122 0.1064 0.0
H306 H 0.51386 0.60891 0.16468 0.0
H307 H 0.67313 0.80052 0.1202 0.0
H308 H 0.66485 0.74353 0.06202 0.0
H309 H 0.38097 0.63735 0.92068 0.0
H310 H 0.42308 0.59937 0.97208 0.0
H311 H 0.6242 0.68889 0.92216 0.0
H312 H 0.58101 0.72461 0.86977 0.0
H313 H 0.56224 0.68889 0.01741 0.0
H314 H 0.62249 0.57867 0.91368 0.0
H315 H 0.58862 0.51659 0.85558 0.0
H316 H 0.3943 0.36609 0.90159 0.0
H317 H 0.42644 0.42846 0.95964 0.0
C318 C 0.6647 0.51315 0.11753 0.0
C319 C 0.61658 0.44467 0.12756 0.0
C320 C 0.65079 0.54589 0.08907 0.0
C321 C 0.58861 0.51096 0.06982 0.0
C322 C 0.54092 0.44228 0.07934 0.0
C323 C 0.55446 0.40965 0.10805 0.0
C324 C 0.57368 0.54579 0.03954 0.0
C325 C 0.55868 0.51465 1.00529 0.0
C326 C 0.57506 0.60966 0.044 0.0
C327 C 0.58387 0.64272 0.07989 0.0
C328 C 0.5413 0.60527 0.10923 0.0
C329 C 0.54687 0.63795 0.14225 0.0
C330 C 0.59413 0.70833 0.14614 0.0
C331 C 0.63661 0.74597 0.11718 0.0
C332 C 0.63171 0.71342 0.08423 0.0
C333 C 0.43475 0.65076 0.92127 0.0
C334 C 0.47828 0.68511 0.89179 0.0
C335 C 0.45846 0.62833 0.95036 0.0
C336 C 0.52629 0.64017 0.95055 0.0
C337 C 0.57135 0.67841 0.9222 0.0
C338 C 0.54722 0.70009 0.89272 0.0
C339 C 0.54812 0.60983 0.97988 0.0
C340 C 0.56294 0.64101 0.01396 0.0
C341 C 0.54575 0.54581 0.97554 0.0
C342 C 0.52638 0.50873 0.94069 0.0
C343 C 0.57215 0.53294 0.91117 0.0
C344 C 0.55326 0.49771 0.87826 0.0
C345 C 0.48901 0.43782 0.87472 0.0
C346 C 0.44368 0.41289 0.90417 0.0
C347 C 0.46217 0.44818 0.93707 0.0
H348 H 0.47459 0.41051 0.84925 0.0
H349 H 0.59773 0.73383 0.17155 0.0
H350 H 0.73296 0.40109 0.42012 0.0
H351 H 0.79888 0.44523 0.47568 0.0
H352 H 0.91658 0.64701 0.42632 0.0
H353 H 0.85205 0.60095 0.36977 0.0
H354 H 0.0006 0.614 0.45357 0.0
H355 H 0.80055 0.60782 0.50142 0.0
H356 H 0.67684 0.55932 0.51516 0.0
H357 H 0.67907 0.40113 0.58054 0.0
H358 H 0.80246 0.44762 0.5666 0.0
H359 H 0.18667 0.7385 0.62103 0.0
H360 H 0.10743 0.72174 0.57133 0.0
H361 H 0.00529 0.50131 0.58782 0.0
H362 H 0.08416 0.51714 0.63733 0.0
H363 H 0.91358 0.56007 0.57968 0.0
H364 H 0.10766 0.55746 0.52262 0.0
H365 H 0.23095 0.60532 0.50793 0.0
H366 H 0.2374 0.78423 0.46024 0.0
H367 H 0.11427 0.73785 0.4752 0.0
C368 C 0.77139 0.45544 0.42165 0.0
C369 C 0.78687 0.49799 0.39106 0.0
C370 C 0.80904 0.48087 0.4535 0.0
C371 C 0.86259 0.54993 0.45565 0.0
C372 C 0.87545 0.59365 0.42553 0.0
C373 C 0.83808 0.56774 0.39337 0.0
C374 C 0.90991 0.57336 0.48751 0.0
C375 C 0.98132 0.60377 0.48113 0.0
C376 C 0.8852 0.55874 0.5237 0.0
C377 C 0.81096 0.53106 0.53269 0.0
C378 C 0.77466 0.56239 0.51852 0.0
C379 C 0.70452 0.53523 0.52635 0.0
C380 C 0.67009 0.47711 0.54864 0.0
C381 C 0.7058 0.44613 0.56324 0.0
C382 C 0.7759 0.4729 0.55539 0.0
C383 C 0.1474 0.68637 0.61415 0.0
C384 C 0.14224 0.62917 0.63321 0.0
C385 C 0.10208 0.67697 0.58574 0.0
C386 C 0.05023 0.6103 0.57604 0.0
C387 C 0.04466 0.55322 0.59503 0.0
C388 C 0.09028 0.56244 0.62317 0.0
C389 C 0.00314 0.59962 0.54529 0.0
C390 C 0.9322 0.57146 0.55202 0.0
C391 C 0.02803 0.61668 0.50944 0.0
C392 C 0.10204 0.64466 0.5005 0.0
C393 C 0.13556 0.60737 0.50937 0.0
C394 C 0.20536 0.63414 0.50092 0.0
C395 C 0.24206 0.69791 0.48329 0.0
C396 C 0.20895 0.73493 0.47399 0.0
C397 C 0.13916 0.70843 0.48245 0.0
H398 H 0.29609 0.71852 0.47673 0.0
H399 H 0.61581 0.45618 0.55465 0.0
H400 H 0.51933 0.98021 0.25715 0.0
H401 H 0.53811 0.8803 0.25726 0.0
H402 H 0.73563 0.0044 0.30863 0.0
H403 H 0.71659 0.1033 0.30885 0.0
H404 H 0.73888 0.95019 0.23946 0.0
H405 H 0.62765 0.88126 0.35383 0.0
H406 H 0.53639 0.84765 0.39976 0.0
H407 H 0.39981 0.67038 0.33678 0.0
H408 H 0.48934 0.70423 0.28978 0.0
H409 H 0.82402 0.67563 0.26607 0.0
H410 H 0.80908 0.77765 0.27051 0.0
H411 H 0.60837 0.66225 0.22108 0.0
H412 H 0.62439 0.56209 0.21536 0.0
H413 H 0.60988 0.7139 0.29123 0.0
H414 H 0.72957 0.78203 0.17858 0.0
H415 H 0.82304 0.81839 0.13403 0.0
H416 H 0.94956 0.001 0.19578 0.0
H417 H 0.85798 0.96425 0.24169 0.0
C418 C 0.56511 0.98473 0.26983 0.0
C419 C 0.61619 0.04829 0.28347 0.0
C420 C 0.57599 0.92815 0.26976 0.0
C421 C 0.63836 0.93551 0.28286 0.0
C422 C 0.68722 -0.00205 0.29854 0.0
C423 C 0.67611 0.05399 0.29889 0.0
C424 C 0.65716 0.88213 0.27549 0.0
C425 C 0.71166 0.89872 0.2512 0.0
C426 C 0.62011 0.81504 0.29034 0.0
C427 C 0.565 0.79603 0.3179 0.0
C428 C 0.5777 0.83591 0.34934 0.0
C429 C 0.52625 0.81671 0.37564 0.0
C430 C 0.46205 0.75725 0.37103 0.0
C431 C 0.44924 0.71684 0.34013 0.0
C432 C 0.50031 0.73608 0.31362 0.0
C433 C 0.77852 0.67377 0.25456 0.0
C434 C 0.72579 0.61229 0.23981 0.0
C435 C 0.76968 0.73142 0.25741 0.0
C436 C 0.70756 0.727 0.24614 0.0
C437 C 0.65679 0.66663 0.22957 0.0
C438 C 0.66616 0.60983 0.2261 0.0
C439 C 0.69169 0.78185 0.2551 0.0
C440 C 0.63756 0.76548 0.27964 0.0
C441 C 0.72974 0.84943 0.24073 0.0
C442 C 0.78665 0.86967 0.214 0.0
C443 C 0.77766 0.82918 0.1832 0.0
C444 C 0.83053 0.84992 0.15763 0.0
C445 C 0.89259 0.91168 0.16224 0.0
C446 C 0.9019 0.9527 0.19249 0.0
C447 C 0.8495 0.93179 0.21835 0.0
H448 H 0.93326 0.92799 0.14226 0.0
H449 H 0.42238 0.74225 0.3915 0.0
H450 H 0.02581 0.61623 0.79868 0.0
H451 H 0.90849 0.58658 0.78421 0.0
H452 H 0.98278 0.73654 0.69767 0.0
H453 H 0.10201 0.76554 0.711 0.0
H454 H 0.88475 0.73912 0.75216 0.0
H455 H 0.91475 0.59168 0.67111 0.0
H456 H 0.94284 0.50445 0.64938 0.0
H457 H 0.7837 0.35042 0.71664 0.0
H458 H 0.75691 0.43727 0.74043 0.0
H459 H 0.52927 0.58748 0.68973 0.0
H460 H 0.63546 0.58254 0.6817 0.0
H461 H 0.65468 0.57486 0.79737 0.0
H462 H 0.54801 0.57924 0.80567 0.0
H463 H 0.70621 0.50382 0.71358 0.0
H464 H 0.79787 0.72853 0.81091 0.0
H465 H 0.75625 0.80577 0.8331 0.0
H466 H 0.66665 0.79805 0.72928 0.0
H467 H 0.71023 0.72368 0.70628 0.0
C468 C 0.01794 0.64369 0.77667 0.0
C469 C 0.07364 0.6935 0.75597 0.0
C470 C 0.95057 0.62584 0.76823 0.0
C471 C 0.93748 0.65828 0.73945 0.0
C472 C 0.99251 0.71031 0.71964 0.0
C473 C 0.06035 0.72726 0.72754 0.0
C474 C 0.86592 0.64042 0.73234 0.0
C475 C 0.84603 0.68806 0.74316 0.0
C476 C 0.81564 0.57341 0.7208 0.0
C477 C 0.83433 0.52164 0.70796 0.0
C478 C 0.88677 0.5397 0.68201 0.0
C479 C 0.90248 0.49017 0.66926 0.0
C480 C 0.86551 0.42206 0.68177 0.0
C481 C 0.8127 0.4033 0.70711 0.0
C482 C 0.7975 0.4528 0.72043 0.0
C483 C 0.55514 0.58252 0.71337 0.0
C484 C 0.53232 0.58579 0.74834 0.0
C485 C 0.61498 0.57873 0.70871 0.0
C486 C 0.65258 0.57909 0.73897 0.0
C487 C 0.62562 0.57433 0.77382 0.0
C488 C 0.56524 0.5773 0.77852 0.0
C489 C 0.72601 0.60147 0.73473 0.0
C490 C 0.74572 0.55498 0.72195 0.0
C491 C 0.77646 0.66931 0.74438 0.0
C492 C 0.75683 0.72021 0.757 0.0
C493 C 0.77037 0.74448 0.79272 0.0
C494 C 0.74644 0.78782 0.80544 0.0
C495 C 0.70894 0.80711 0.78264 0.0
C496 C 0.6961 0.78379 0.74695 0.0
C497 C 0.72058 0.74121 0.73402 0.0
H498 H 0.68977 0.83998 0.79264 0.0
H499 H 0.87759 0.38377 0.67171 0.0
H500 H 0.36033 0.10965 0.2084 0.0
H501 H 0.26304 0.99137 0.20632 0.0
H502 H 0.28261 0.96894 0.32088 0.0
H503 H 0.37947 0.08643 0.32334 0.0
H504 H 0.2916 0.86927 0.2789 0.0
H505 H 0.14728 0.96974 0.29432 0.0
H506 H 0.11212 0.05556 0.27939 0.0
H507 H 0.05625 0.97213 0.17238 0.0
H508 H 0.09207 0.88632 0.18653 0.0
H509 H 0.97431 0.55234 0.31344 0.0
H510 H 0.07636 0.66796 0.31275 0.0
H511 H 0.06061 0.67807 0.19693 0.0
H512 H 0.95979 0.5625 0.19713 0.0
H513 H 0.05125 0.78347 0.2375 0.0
H514 H 0.19199 0.67804 0.22456 0.0
H515 H 0.23185 0.59629 0.24052 0.0
H516 H 0.29498 0.69026 0.34501 0.0
H517 H 0.25452 0.77193 0.32988 0.0
C518 C 0.34285 0.08016 0.23327 0.0
C519 C 0.37884 0.10645 0.26576 0.0
C520 C 0.28749 0.01267 0.23203 0.0
C521 C 0.26726 0.97152 0.26335 0.0
C522 C 0.29876 -0.00015 0.29638 0.0
C523 C 0.35384 0.06701 0.29767 0.0
C524 C 0.21677 0.89745 0.2613 0.0
C525 C 0.23875 0.85026 0.27027 0.0
C526 C 0.14873 0.87357 0.24932 0.0
C527 C 0.12299 0.92205 0.24136 0.0
C528 C 0.12758 0.96974 0.26757 0.0
C529 C 0.10756 0.01839 0.25927 0.0
C530 C 0.08224 0.01946 0.22492 0.0
C531 C 0.07597 0.97125 0.19897 0.0
C532 C 0.09603 0.92251 0.20713 0.0
C533 C -0.00599 0.5782 0.28773 0.0
C534 C 0.95832 0.5493 0.25547 0.0
C535 C 0.05196 0.64419 0.2874 0.0
C536 C 0.07455 0.68135 0.25484 0.0
C537 C 0.04288 0.65014 0.22229 0.0
C538 C 0.98543 0.58428 0.22254 0.0
C539 C 0.126 0.75519 0.25526 0.0
C540 C 0.10415 0.8024 0.24601 0.0
C541 C 0.19404 0.77905 0.26726 0.0
C542 C 0.2196 0.73075 0.27621 0.0
C543 C 0.2139 0.68098 0.25105 0.0
C544 C 0.23675 0.63472 0.25991 0.0
C545 C 0.26592 0.63804 0.29376 0.0
C546 C 0.27248 0.68778 0.31877 0.0
C547 C 0.24964 0.73412 0.31006 0.0
H548 H 0.28348 0.60211 0.30058 0.0
H549 H 0.0676 0.05775 0.21844 0.0
H550 H 0.17371 0.31488 0.75595 0.0
H551 H 0.19646 0.21832 0.76241 0.0
H552 H 0.41046 0.35493 0.73397 0.0
H553 H 0.38646 0.44909 0.72532 0.0
H554 H 0.38018 0.23622 0.71446 0.0
H555 H 0.35063 0.33102 0.82216 0.0
H556 H 0.29238 0.37006 0.86484 0.0
H557 H 0.12806 0.16085 0.87864 0.0
H558 H 0.18432 0.12071 0.83521 0.0
H559 H 0.46459 -0.00138 0.79645 0.0
H560 H 0.46438 0.10864 0.80035 0.0
H561 H 0.24438 0.00035 0.78202 0.0
H562 H 0.24475 0.89174 0.77676 0.0
H563 H 0.30018 0.12002 0.83354 0.0
H564 H 0.33821 0.04636 0.70957 0.0
H565 H 0.4117 0.01867 0.67116 0.0
H566 H 0.58937 0.21261 0.69866 0.0
H567 H 0.51692 0.24103 0.73748 0.0
C568 C 0.22443 0.3227 0.74938 0.0
C569 C 0.27859 0.38839 0.7404 0.0
C570 C 0.23781 0.26829 0.75361 0.0
C571 C 0.30578 0.28046 0.75009 0.0
C572 C 0.3579 0.34455 0.73725 0.0
C573 C 0.34419 0.39819 0.73225 0.0
C574 C 0.32441 0.22948 0.76327 0.0
C575 C 0.36383 0.21201 0.74075 0.0
C576 C 0.30481 0.19932 0.79818 0.0
C577 C 0.27151 0.22287 0.82514 0.0
C578 C 0.30187 0.29332 0.83412 0.0
C579 C 0.26912 0.3157 0.8584 0.0
C580 C 0.20653 0.26798 0.87444 0.0
C581 C 0.17656 0.19777 0.86619 0.0
C582 C 0.20882 0.17517 0.84169 0.0
C583 C 0.41629 -0.00142 0.79385 0.0
C584 C 0.35507 0.93782 0.78511 0.0
C585 C 0.41611 0.06096 0.79647 0.0
C586 C 0.35434 0.06195 0.79138 0.0
C587 C 0.29233 0.00015 0.78618 0.0
C588 C 0.29278 0.93854 0.78269 0.0
C589 C 0.35443 0.12658 0.78426 0.0
C590 C 0.31826 0.14639 0.80777 0.0
C591 C 0.38002 0.16164 0.75111 0.0
C592 C 0.42241 0.14552 0.72653 0.0
C593 C 0.39296 0.08295 0.70742 0.0
C594 C 0.43443 0.06707 0.6857 0.0
C595 C 0.5052 0.1137 0.6827 0.0
C596 C 0.53458 0.17652 0.70112 0.0
C597 C 0.49337 0.19253 0.72295 0.0
H598 H 0.53733 0.10139 0.66603 0.0
H599 H 0.18132 0.28542 0.89327 0.0
H600 H 0.45076 0.4239 0.31106 0.0
H601 H 0.33332 0.40743 0.31285 0.0
H602 H 0.30534 0.34893 0.20078 0.0
H603 H 0.42269 0.36878 0.19789 0.0
H604 H 0.23336 0.41365 0.22023 0.0
H605 H 0.26911 0.22861 0.26436 0.0
H606 H 0.32519 0.18201 0.30381 0.0
H607 H 0.24576 0.23193 0.39766 0.0
H608 H 0.19065 0.28071 0.35878 0.0
H609 H 0.87836 0.21938 0.21359 0.0
H610 H 0.99155 0.22701 0.21288 0.0
H611 H 0.02327 0.293 0.32408 0.0
H612 H 0.9097 0.28296 0.32557 0.0
H613 H 0.09247 0.22137 0.30557 0.0
H614 H 0.08125 0.42733 0.26321 0.0
H615 H 0.01955 0.47172 0.22633 0.0
H616 H 0.04542 0.37424 0.13236 0.0
H617 H 0.10862 0.33108 0.16844 0.0
C618 C 0.42052 0.41015 0.2865 0.0
C619 C 0.44502 0.3956 0.25465 0.0
C620 C 0.35349 0.39996 0.28775 0.0
C621 C 0.31035 0.37413 0.25749 0.0
C622 C 0.33757 0.36769 0.22461 0.0
C623 C 0.40456 0.3787 0.22313 0.0
C624 C 0.23512 0.3453 0.26103 0.0
C625 C 0.20271 0.37138 0.23872 0.0
C626 C 0.19507 0.29025 0.28533 0.0
C627 C 0.22636 0.25898 0.30867 0.0
C628 C 0.26389 0.23001 0.29341 0.0
C629 C 0.29552 0.20319 0.31567 0.0
C630 C 0.2891 0.20397 0.35321 0.0
C631 C 0.25069 0.23132 0.36857 0.0
C632 C 0.21933 0.25869 0.34644 0.0
C633 C 0.90825 0.23286 0.23828 0.0
C634 C 0.88621 0.25271 0.26928 0.0
C635 C 0.97296 0.23745 0.2378 0.0
C636 C 0.01628 0.26261 0.26813 0.0
C637 C 0.99081 0.27417 0.30033 0.0
C638 C 0.92612 0.26905 0.30096 0.0
C639 C 0.09119 0.28941 0.26457 0.0
C640 C 0.12345 0.26339 0.28702 0.0
C641 C 0.1314 0.34466 0.24066 0.0
C642 C 0.09981 0.37648 0.21833 0.0
C643 C 0.07456 0.41645 0.23452 0.0
C644 C 0.03927 0.44136 0.21376 0.0
C645 C 0.02863 0.42617 0.17693 0.0
C646 C 0.05396 0.38662 0.16075 0.0
C647 C 0.09014 0.36248 0.18123 0.0
H648 H 0.0008 0.44501 0.16094 0.0
H649 H 0.31379 0.18331 0.37038 0.0
H650 H 0.98078 0.48814 0.78275 0.0
H651 H 0.86471 0.38646 0.77684 0.0
H652 H 0.95546 0.26791 0.73658 0.0
H653 H 0.06975 0.36789 0.74231 0.0
H654 H 0.85706 0.25818 0.69241 0.0
H655 H 0.89328 0.25263 0.8224 0.0
H656 H 0.91302 0.3022 0.88355 0.0
H657 H 0.72327 0.30682 0.87775 0.0
H658 H 0.70353 0.25928 0.81595 0.0
H659 H 0.66435 0.90095 0.73438 0.0
H660 H 0.74585 0.02493 0.72585 0.0
H661 H 0.58035 0.06932 0.74211 0.0
H662 H 0.49935 0.94596 0.74993 0.0
H663 H 0.69309 0.13263 0.79224 0.0
H664 H 0.66701 0.15044 0.65911 0.0
H665 H 0.65704 0.11173 0.59598 0.0
H666 H 0.82839 0.07757 0.61084 0.0
H667 H 0.84136 0.11935 0.67373 0.0
C668 C 0.9754 0.43995 0.77306 0.0
C669 C 0.03346 0.43563 0.76236 0.0
C670 C 0.90949 0.38235 0.76951 0.0
C671 C 0.9019 0.32052 0.75544 0.0
C672 C 0.96034 0.31575 0.74662 0.0
C673 C 0.02548 0.37276 0.74998 0.0
C674 C 0.83389 0.25977 0.74896 0.0
C675 C 0.82096 0.23096 0.71424 0.0
C676 C 0.78592 0.22566 0.77712 0.0
C677 C 0.79739 0.2533 0.8144 0.0
C678 C 0.85606 0.26478 0.83403 0.0
C679 C 0.86723 0.29244 0.86883 0.0
C680 C 0.8194 0.30756 0.88459 0.0
C681 C 0.76033 0.29516 0.8655 0.0
C682 C 0.74922 0.26805 0.83055 0.0
C683 C 0.6456 0.93717 0.73539 0.0
C684 C 0.57676 0.91504 0.74412 0.0
C685 C 0.69165 0.00762 0.73025 0.0
C686 C 0.66863 0.05573 0.73347 0.0
C687 C 0.59883 0.03284 0.73966 0.0
C688 C 0.55314 0.96283 0.74467 0.0
C689 C 0.7191 0.12958 0.73633 0.0
C690 C 0.72816 0.16102 0.77024 0.0
C691 C 0.76434 0.16589 0.70773 0.0
C692 C 0.75441 0.1369 0.67102 0.0
C693 C 0.70196 0.13388 0.64895 0.0
C694 C 0.69604 0.11177 0.61318 0.0
C695 C 0.74126 0.09106 0.59949 0.0
C696 C 0.79312 0.09323 0.6215 0.0
C697 C 0.80019 0.11669 0.6571 0.0
H698 H 0.7366 0.07402 0.57177 0.0
H699 H 0.82808 0.32881 0.91158 0.0
loop_
_geom_bond_atom_site_label_1
_geom_bond_atom_site_label_2
_geom_bond_distance
_geom_bond_site_symmetry_2
_ccdc_geom_bond_type
C0 O28 1.281 . S
C0 O37 1.281 . S
C1 O29 1.281 . S
C1 O47 1.281 . S
O2 Hf6 2.202 . S
O2 Hf8 2.202 . S
O2 Hf10 2.202 . S
O3 Hf6 2.202 . S
O3 Hf12 2.202 . S
O3 Hf13 2.202 . S
O4 Hf6 2.072 . S
O4 Hf10 2.072 . S
O4 Hf12 2.072 . S
O5 Hf6 2.072 . S
O5 Hf8 2.072 . S
O5 Hf13 2.072 . S
Hf6 O2 2.202 . S
Hf6 O3 2.202 . S
Hf6 O4 2.072 . S
Hf6 O5 2.072 . S
Hf6 O20 2.209 . S
Hf6 O21 2.209 . S
Hf6 O36 2.209 . S
Hf6 O37 2.209 . S
O7 Hf8 2.072 . S
O7 Hf10 2.072 . S
O7 Hf15 2.072 . S
Hf8 O2 2.202 . S
Hf8 O5 2.072 . S
Hf8 O7 2.072 . S
Hf8 O11 2.202 . S
Hf8 O27 2.209 . S
Hf8 O28 2.209 . S
Hf8 O43 2.209 . S
Hf8 O47 2.209 . S
O9 Hf10 2.202 . S
O9 Hf12 2.202 . S
O9 Hf15 2.202 . S
Hf10 O2 2.202 . S
Hf10 O4 2.072 . S
Hf10 O7 2.072 . S
Hf10 O9 2.202 . S
Hf10 O32 2.209 . S
Hf10 O33 2.209 . S
Hf10 O40 2.209 . S
Hf10 O42 2.209 . S
O11 Hf8 2.202 . S
O11 Hf13 2.202 . S
O11 Hf15 2.202 . S
Hf12 O3 2.202 . S
Hf12 O4 2.072 . S
Hf12 O9 2.202 . S
Hf12 O14 2.072 . S
Hf12 O24 2.209 . S
Hf12 O25 2.209 . S
Hf12 O45 2.209 . S
Hf12 O46 2.209 . S
Hf13 O3 2.202 . S
Hf13 O5 2.072 . S
Hf13 O11 2.202 . S
Hf13 O14 2.072 . S
Hf13 O29 2.209 . S
Hf13 O30 2.209 . S
Hf13 O39 2.209 . S
Hf13 O44 2.209 . S
O14 Hf12 2.072 . S
O14 Hf13 2.072 . S
O14 Hf15 2.072 . S
Hf15 O7 2.072 . S
Hf15 O9 2.202 . S
Hf15 O11 2.202 . S
Hf15 O14 2.072 . S
Hf15 O23 2.209 . S
Hf15 O26 2.209 . S
Hf15 O35 2.209 . S
Hf15 O38 2.209 . S
C16 O30 1.281 . S
C16 O46 1.281 . S
C17 O33 1.281 . S
C17 O43 1.281 . S
C18 O32 1.281 . S
C18 O45 1.281 . S
C19 O20 1.281 . S
C19 O42 1.281 . S
O20 Hf6 2.209 . S
O20 C19 1.281 . S
O21 Hf6 2.209 . S
O21 C22 1.281 . S
C22 O21 1.281 . S
C22 O44 1.281 . S
O23 Hf15 2.209 . S
O23 C34 1.281 . S
O24 Hf12 2.209 . S
O24 C41 1.281 . S
O25 Hf12 2.209 . S
O25 C49 1.281 . S
O26 Hf15 2.209 . S
O26 C31 1.281 . S
O27 Hf8 2.209 . S
O27 C48 1.281 . S
O28 C0 1.281 . S
O28 Hf8 2.209 . S
O29 C1 1.281 . S
O29 Hf13 2.209 . S
O30 Hf13 2.209 . S
O30 C16 1.281 . S
C31 O26 1.281 . S
C31 O40 1.281 . S
O32 Hf10 2.209 . S
O32 C18 1.281 . S
O33 Hf10 2.209 . S
O33 C17 1.281 . S
C34 O23 1.281 . S
C34 O39 1.281 . S
O35 Hf15 2.209 . S
O35 C48 1.281 . S
O36 Hf6 2.209 . S
O36 C49 1.281 . S
O37 C0 1.281 . S
O37 Hf6 2.209 . S
O38 Hf15 2.209 . S
O38 C41 1.281 . S
O39 Hf13 2.209 . S
O39 C34 1.281 . S
O40 Hf10 2.209 . S
O40 C31 1.281 . S
C41 O24 1.281 . S
C41 O38 1.281 . S
O42 Hf10 2.209 . S
O42 C19 1.281 . S
O43 Hf8 2.209 . S
O43 C17 1.281 . S
O44 Hf13 2.209 . S
O44 C22 1.281 . S
O45 Hf12 2.209 . S
O45 C18 1.281 . S
O46 Hf12 2.209 . S
O46 C16 1.281 . S
O47 C1 1.281 . S
O47 Hf8 2.209 . S
C48 O27 1.281 . S
C48 O35 1.281 . S
C49 O25 1.281 . S
C49 O36 1.281 . S
C50 O78 1.281 . S
C50 O87 1.281 . S
C51 O79 1.281 . S
C51 O97 1.281 . S
O52 Hf56 2.202 . S
O52 Hf58 2.202 . S
O52 Hf60 2.202 . S
O53 Hf56 2.202 . S
O53 Hf62 2.202 . S
O53 Hf63 2.202 . S
O54 Hf56 2.072 . S
O54 Hf60 2.072 . S
O54 Hf62 2.072 . S
O55 Hf56 2.072 . S
O55 Hf58 2.072 . S
O55 Hf63 2.072 . S
Hf56 O52 2.202 . S
Hf56 O53 2.202 . S
Hf56 O54 2.072 . S
Hf56 O55 2.072 . S
Hf56 O70 2.209 . S
Hf56 O71 2.209 . S
Hf56 O86 2.209 . S
Hf56 O87 2.209 . S
O57 Hf58 2.072 . S
O57 Hf60 2.072 . S
O57 Hf65 2.072 . S
Hf58 O52 2.202 . S
Hf58 O55 2.072 . S
Hf58 O57 2.072 . S
Hf58 O61 2.202 . S
Hf58 O77 2.209 . S
Hf58 O78 2.209 . S
Hf58 O93 2.209 . S
Hf58 O97 2.209 . S
O59 Hf60 2.202 . S
O59 Hf62 2.202 . S
O59 Hf65 2.202 . S
Hf60 O52 2.202 . S
Hf60 O54 2.072 . S
Hf60 O57 2.072 . S
Hf60 O59 2.202 . S
Hf60 O82 2.209 . S
Hf60 O83 2.209 . S
Hf60 O90 2.209 . S
Hf60 O92 2.209 . S
O61 Hf58 2.202 . S
O61 Hf63 2.202 . S
O61 Hf65 2.202 . S
Hf62 O53 2.202 . S
Hf62 O54 2.072 . S
Hf62 O59 2.202 . S
Hf62 O64 2.072 . S
Hf62 O74 2.209 . S
Hf62 O75 2.209 . S
Hf62 O95 2.209 . S
Hf62 O96 2.209 . S
Hf63 O53 2.202 . S
Hf63 O55 2.072 . S
Hf63 O61 2.202 . S
Hf63 O64 2.072 . S
Hf63 O79 2.209 . S
Hf63 O80 2.209 . S
Hf63 O89 2.209 . S
Hf63 O94 2.209 . S
O64 Hf62 2.072 . S
O64 Hf63 2.072 . S
O64 Hf65 2.072 . S
Hf65 O57 2.072 . S
Hf65 O59 2.202 . S
Hf65 O61 2.202 . S
Hf65 O64 2.072 . S
Hf65 O73 2.209 . S
Hf65 O76 2.209 . S
Hf65 O85 2.209 . S
Hf65 O88 2.209 . S
C66 O80 1.281 . S
C66 O96 1.281 . S
C67 O83 1.281 . S
C67 O93 1.281 . S
C68 O82 1.281 . S
C68 O95 1.281 . S
C69 O70 1.281 . S
C69 O92 1.281 . S
O70 Hf56 2.209 . S
O70 C69 1.281 . S
O71 Hf56 2.209 . S
O71 C72 1.281 . S
C72 O71 1.281 . S
C72 O94 1.281 . S
O73 Hf65 2.209 . S
O73 C84 1.281 . S
O74 Hf62 2.209 . S
O74 C91 1.281 . S
O75 Hf62 2.209 . S
O75 C99 1.281 . S
O76 Hf65 2.209 . S
O76 C81 1.281 . S
O77 Hf58 2.209 . S
O77 C98 1.281 . S
O78 C50 1.281 . S
O78 Hf58 2.209 . S
O79 C51 1.281 . S
O79 Hf63 2.209 . S
O80 Hf63 2.209 . S
O80 C66 1.281 . S
C81 O76 1.281 . S
C81 O90 1.281 . S
O82 Hf60 2.209 . S
O82 C68 1.281 . S
O83 Hf60 2.209 . S
O83 C67 1.281 . S
C84 O73 1.281 . S
C84 O89 1.281 . S
O85 Hf65 2.209 . S
O85 C98 1.281 . S
O86 Hf56 2.209 . S
O86 C99 1.281 . S
O87 C50 1.281 . S
O87 Hf56 2.209 . S
O88 Hf65 2.209 . S
O88 C91 1.281 . S
O89 Hf63 2.209 . S
O89 C84 1.281 . S
O90 Hf60 2.209 . S
O90 C81 1.281 . S
C91 O74 1.281 . S
C91 O88 1.281 . S
O92 Hf60 2.209 . S
O92 C69 1.281 . S
O93 Hf58 2.209 . S
O93 C67 1.281 . S
O94 Hf63 2.209 . S
O94 C72 1.281 . S
O95 Hf62 2.209 . S
O95 C68 1.281 . S
O96 Hf62 2.209 . S
O96 C66 1.281 . S
O97 C51 1.281 . S
O97 Hf58 2.209 . S
C98 O77 1.281 . S
C98 O85 1.281 . S
C99 O75 1.281 . S
C99 O86 1.281 . S
H100 C118 0.951 . S
H101 C120 0.951 . S
H102 C122 0.950 . S
H103 C123 0.950 . S
H104 C125 0.950 . S
H105 C128 0.950 . S
H106 C129 0.950 . S
H107 C131 0.950 . S
H108 C132 0.950 . S
H109 C133 0.951 . S
H110 C135 0.951 . S
H111 C137 0.950 . S
H112 C138 0.950 . S
H113 C140 0.950 . S
H114 C143 0.950 . S
H115 C144 0.950 . S
H116 C146 0.950 . S
H117 C147 0.950 . S
C118 H100 0.951 . S
C118 C119 1.366 . S
C118 C120 1.388 . S
C119 C118 1.366 . S
C119 C123 1.385 . S
C120 H101 0.951 . S
C120 C118 1.388 . S
C120 C121 1.366 . S
C121 C120 1.366 . S
C121 C122 1.414 . S
C121 C124 1.499 . S
C122 H102 0.950 . S
C122 C121 1.414 . S
C122 C123 1.374 . S
C123 H103 0.950 . S
C123 C119 1.385 . S
C123 C122 1.374 . S
C124 C121 1.499 . S
C124 C125 1.373 . S
C124 C126 1.389 . S
C125 H104 0.950 . S
C125 C124 1.373 . S
C125 C141 1.377 1_556 S
C126 C124 1.389 . S
C126 C127 1.524 . S
C126 C140 1.377 1_556 S
C127 C126 1.524 . S
C127 C128 1.397 . S
C127 C132 1.363 . S
C128 H105 0.950 . S
C128 C127 1.397 . S
C128 C129 1.334 . S
C129 H106 0.950 . S
C129 C128 1.334 . S
C129 C130 1.287 . S
C130 C129 1.287 . S
C130 C131 1.524 . S
C130 H149 0.913 . S
C131 H107 0.950 . S
C131 C130 1.524 . S
C131 C132 1.415 . S
C132 H108 0.950 . S
C132 C127 1.363 . S
C132 C131 1.415 . S
C133 H109 0.951 . S
C133 C134 1.366 . S
C133 C135 1.388 . S
C134 C133 1.366 . S
C134 C138 1.385 . S
C135 H110 0.951 . S
C135 C133 1.388 . S
C135 C136 1.366 . S
C136 C135 1.366 . S
C136 C137 1.414 . S
C136 C139 1.499 . S
C137 H111 0.950 . S
C137 C136 1.414 . S
C137 C138 1.374 . S
C138 H112 0.950 . S
C138 C134 1.385 . S
C138 C137 1.374 . S
C139 C136 1.499 . S
C139 C140 1.373 1_545 S
C139 C141 1.389 1_545 S
C140 H113 0.950 . S
C140 C126 1.377 1_554 S
C140 C139 1.373 1_565 S
C141 C125 1.377 1_554 S
C141 C139 1.389 1_565 S
C141 C142 1.524 1_565 S
C142 C141 1.524 1_545 S
C142 C143 1.397 . S
C142 C147 1.363 1_545 S
C143 H114 0.950 . S
C143 C142 1.397 . S
C143 C144 1.334 . S
C144 H115 0.950 . S
C144 C143 1.334 . S
C144 C145 1.287 . S
C145 C144 1.287 . S
C145 C146 1.524 . S
C145 H148 0.999 . S
C146 H116 0.950 . S
C146 C145 1.524 . S
C146 C147 1.415 1_545 S
C147 H117 0.950 . S
C147 C142 1.363 1_565 S
C147 C146 1.415 1_565 S
H148 C145 0.999 . S
H149 C130 0.913 . S
H150 C168 0.951 . S
H151 C170 0.951 . S
H152 C172 0.950 . S
H153 C173 0.950 . S
H154 C175 0.950 . S
H155 C178 0.950 . S
H156 C179 0.950 . S
H157 C181 0.950 . S
H158 C182 0.950 . S
H159 C183 0.951 . S
H160 C185 0.951 . S
H161 C187 0.950 . S
H162 C188 0.950 . S
H163 C190 0.950 . S
H164 C193 0.950 . S
H165 C194 0.950 . S
H166 C196 0.950 . S
H167 C197 0.950 . S
C168 H150 0.951 . S
C168 C169 1.366 . S
C168 C170 1.388 . S
C169 C168 1.366 . S
C169 C173 1.385 . S
C170 H151 0.951 . S
C170 C168 1.388 . S
C170 C171 1.366 . S
C171 C170 1.366 . S
C171 C172 1.414 . S
C171 C174 1.499 . S
C172 H152 0.950 . S
C172 C171 1.414 . S
C172 C173 1.374 . S
C173 H153 0.950 . S
C173 C169 1.385 . S
C173 C172 1.374 . S
C174 C171 1.499 . S
C174 C175 1.373 . S
C174 C176 1.389 . S
C175 H154 0.950 . S
C175 C174 1.373 . S
C175 C191 1.377 . S
C176 C174 1.389 . S
C176 C177 1.524 . S
C176 C190 1.377 . S
C177 C176 1.524 . S
C177 C178 1.397 . S
C177 C182 1.363 . S
C178 H155 0.950 . S
C178 C177 1.397 . S
C178 C179 1.334 . S
C179 H156 0.950 . S
C179 C178 1.334 . S
C179 C180 1.287 . S
C180 C179 1.287 . S
C180 C181 1.524 . S
C180 H199 0.913 . S
C181 H157 0.950 . S
C181 C180 1.524 . S
C181 C182 1.415 . S
C182 H158 0.950 . S
C182 C177 1.363 . S
C182 C181 1.415 . S
C183 H159 0.951 . S
C183 C184 1.366 . S
C183 C185 1.388 . S
C184 C183 1.366 . S
C184 C188 1.385 . S
C185 H160 0.951 . S
C185 C183 1.388 . S
C185 C186 1.366 . S
C186 C185 1.366 . S
C186 C187 1.414 . S
C186 C189 1.499 . S
C187 H161 0.950 . S
C187 C186 1.414 . S
C187 C188 1.374 . S
C188 H162 0.950 . S
C188 C184 1.385 . S
C188 C187 1.374 . S
C189 C186 1.499 . S
C189 C190 1.373 . S
C189 C191 1.389 . S
C190 H163 0.950 . S
C190 C176 1.377 . S
C190 C189 1.373 . S
C191 C175 1.377 . S
C191 C189 1.389 . S
C191 C192 1.524 . S
C192 C191 1.524 . S
C192 C193 1.397 . S
C192 C197 1.363 . S
C193 H164 0.950 . S
C193 C192 1.397 . S
C193 C194 1.334 . S
C194 H165 0.950 . S
C194 C193 1.334 . S
C194 C195 1.287 . S
C195 C194 1.287 . S
C195 C196 1.524 . S
C195 H198 0.999 . S
C196 H166 0.950 . S
C196 C195 1.524 . S
C196 C197 1.415 . S
C197 H167 0.950 . S
C197 C192 1.363 . S
C197 C196 1.415 . S
H198 C195 0.999 . S
H199 C180 0.913 . S
H200 C218 0.951 . S
H201 C220 0.951 1_455 S
H202 C222 0.950 . S
H203 C223 0.950 . S
H204 C225 0.948 1_556 S
H205 C228 0.950 . S
H206 C229 0.950 . S
H207 C231 0.950 . S
H208 C232 0.950 . S
H209 C233 0.951 . S
H210 C235 0.951 . S
H211 C237 0.950 . S
H212 C238 0.950 . S
H213 C240 0.950 . S
H214 C243 0.950 1_455 S
H215 C244 0.950 . S
H216 C246 0.950 . S
H217 C247 0.950 . S
C218 H200 0.951 . S
C218 C219 1.366 . S
C218 C220 1.388 . S
C219 C218 1.366 . S
C219 C223 1.385 . S
C220 H201 0.951 1_655 S
C220 C218 1.388 . S
C220 C221 1.366 . S
C221 C220 1.366 . S
C221 C222 1.414 . S
C221 C224 1.499 . S
C222 H202 0.950 . S
C222 C221 1.414 . S
C222 C223 1.374 . S
C223 H203 0.950 . S
C223 C219 1.385 . S
C223 C222 1.374 . S
C224 C221 1.499 . S
C224 C225 1.373 . S
C224 C226 1.389 1_655 S
C225 H204 0.948 1_554 S
C225 C224 1.373 . S
C225 C241 1.377 1_654 S
C226 C224 1.389 1_455 S
C226 C227 1.524 . S
C226 C240 1.377 . S
C227 C226 1.524 . S
C227 C228 1.397 . S
C227 C232 1.363 . S
C228 H205 0.950 . S
C228 C227 1.397 . S
C228 C229 1.334 . S
C229 H206 0.950 . S
C229 C228 1.334 . S
C229 C230 1.287 . S
C230 C229 1.287 . S
C230 C231 1.524 . S
C230 H249 0.913 . S
C231 H207 0.950 . S
C231 C230 1.524 . S
C231 C232 1.415 . S
C232 H208 0.950 . S
C232 C227 1.363 . S
C232 C231 1.415 . S
C233 H209 0.951 . S
C233 C234 1.366 . S
C233 C235 1.388 . S
C234 C233 1.366 . S
C234 C238 1.385 . S
C235 H210 0.951 . S
C235 C233 1.388 . S
C235 C236 1.366 . S
C236 C235 1.366 . S
C236 C237 1.414 . S
C236 C239 1.499 . S
C237 H211 0.950 . S
C237 C236 1.414 . S
C237 C238 1.374 . S
C238 H212 0.950 . S
C238 C234 1.385 . S
C238 C237 1.374 . S
C239 C236 1.499 . S
C239 C240 1.373 1_556 S
C239 C241 1.389 . S
C240 H213 0.950 . S
C240 C226 1.377 . S
C240 C239 1.373 1_554 S
C241 C225 1.377 1_456 S
C241 C239 1.389 . S
C241 C242 1.524 1_455 S
C242 C241 1.524 1_655 S
C242 C243 1.397 . S
C242 C247 1.363 . S
C243 H214 0.950 1_655 S
C243 C242 1.397 . S
C243 C244 1.334 . S
C244 H215 0.950 . S
C244 C243 1.334 . S
C244 C245 1.287 . S
C245 C244 1.287 . S
C245 C246 1.524 . S
C245 H248 0.999 . S
C246 H216 0.950 . S
C246 C245 1.524 . S
C246 C247 1.415 . S
C247 H217 0.950 . S
C247 C242 1.363 . S
C247 C246 1.415 . S
H248 C245 0.999 . S
H249 C230 0.913 . S
H250 C268 0.951 . S
H251 C270 0.951 1_545 S
H252 C272 0.950 . S
H253 C273 0.950 . S
H254 C275 0.950 . S
H255 C278 0.950 1_565 S
H256 C279 0.950 . S
H257 C281 0.950 . S
H258 C282 0.950 . S
H259 C283 0.951 . S
H260 C285 0.951 . S
H261 C287 0.950 . S
H262 C288 0.950 . S
H263 C290 0.950 . S
H264 C293 0.950 . S
H265 C294 0.950 . S
H266 C296 0.950 . S
H267 C297 0.950 . S
C268 H250 0.951 . S
C268 C269 1.366 . S
C268 C270 1.388 . S
C269 C268 1.366 . S
C269 C273 1.385 . S
C270 H251 0.951 1_565 S
C270 C268 1.388 . S
C270 C271 1.366 . S
C271 C270 1.366 . S
C271 C272 1.414 . S
C271 C274 1.499 . S
C272 H252 0.950 . S
C272 C271 1.414 . S
C272 C273 1.374 . S
C273 H253 0.950 . S
C273 C269 1.385 . S
C273 C272 1.374 . S
C274 C271 1.499 . S
C274 C275 1.373 . S
C274 C276 1.389 1_565 S
C275 H254 0.950 . S
C275 C274 1.373 . S
C275 C291 1.377 1_565 S
C276 C274 1.389 1_545 S
C276 C277 1.524 . S
C276 C290 1.377 . S
C277 C276 1.524 . S
C277 C278 1.397 . S
C277 C282 1.363 . S
C278 H255 0.950 1_545 S
C278 C277 1.397 . S
C278 C279 1.334 . S
C279 H256 0.950 . S
C279 C278 1.334 . S
C279 C280 1.287 . S
C280 C279 1.287 . S
C280 C281 1.524 . S
C280 H299 0.913 . S
C281 H257 0.950 . S
C281 C280 1.524 . S
C281 C282 1.415 . S
C282 H258 0.950 . S
C282 C277 1.363 . S
C282 C281 1.415 . S
C283 H259 0.951 . S
C283 C284 1.366 . S
C283 C285 1.388 . S
C284 C283 1.366 . S
C284 C288 1.385 . S
C285 H260 0.951 . S
C285 C283 1.388 . S
C285 C286 1.366 . S
C286 C285 1.366 . S
C286 C287 1.414 . S
C286 C289 1.499 . S
C287 H261 0.950 . S
C287 C286 1.414 . S
C287 C288 1.374 . S
C288 H262 0.950 . S
C288 C284 1.385 . S
C288 C287 1.374 . S
C289 C286 1.499 . S
C289 C290 1.373 . S
C289 C291 1.389 . S
C290 H263 0.950 . S
C290 C276 1.377 . S
C290 C289 1.373 . S
C291 C275 1.377 1_545 S
C291 C289 1.389 . S
C291 C292 1.524 . S
C292 C291 1.524 . S
C292 C293 1.397 . S
C292 C297 1.363 1_545 S
C293 H264 0.950 . S
C293 C292 1.397 . S
C293 C294 1.334 . S
C294 H265 0.950 . S
C294 C293 1.334 . S
C294 C295 1.287 1_545 S
C295 C294 1.287 1_565 S
C295 C296 1.524 . S
C295 H298 0.999 . S
C296 H266 0.950 . S
C296 C295 1.524 . S
C296 C297 1.415 . S
C297 H267 0.950 . S
C297 C292 1.363 1_565 S
C297 C296 1.415 . S
H298 C295 0.999 . S
H299 C280 0.913 . S
H300 C318 0.951 . S
H301 C320 0.951 . S
H302 C322 0.950 . S
H303 C323 0.950 . S
H304 C325 0.950 . S
H305 C328 0.950 . S
H306 C329 0.950 . S
H307 C331 0.950 . S
H308 C332 0.950 . S
H309 C333 0.951 . S
H310 C335 0.951 . S
H311 C337 0.950 . S
H312 C338 0.950 . S
H313 C340 0.950 . S
H314 C343 0.950 . S
H315 C344 0.950 . S
H316 C346 0.950 . S
H317 C347 0.950 . S
C318 H300 0.951 . S
C318 C319 1.366 . S
C318 C320 1.388 . S
C319 C318 1.366 . S
C319 C323 1.385 . S
C320 H301 0.951 . S
C320 C318 1.388 . S
C320 C321 1.366 . S
C321 C320 1.366 . S
C321 C322 1.414 . S
C321 C324 1.499 . S
C322 H302 0.950 . S
C322 C321 1.414 . S
C322 C323 1.374 . S
C323 H303 0.950 . S
C323 C319 1.385 . S
C323 C322 1.374 . S
C324 C321 1.499 . S
C324 C325 1.373 . S
C324 C326 1.389 . S
C325 H304 0.950 . S
C325 C324 1.373 . S
C325 C341 1.377 1_554 S
C326 C324 1.389 . S
C326 C327 1.524 . S
C326 C340 1.377 . S
C327 C326 1.524 . S
C327 C328 1.397 . S
C327 C332 1.363 . S
C328 H305 0.950 . S
C328 C327 1.397 . S
C328 C329 1.334 . S
C329 H306 0.950 . S
C329 C328 1.334 . S
C329 C330 1.287 . S
C330 C329 1.287 . S
C330 C331 1.524 . S
C330 H349 0.913 . S
C331 H307 0.950 . S
C331 C330 1.524 . S
C331 C332 1.415 . S
C332 H308 0.950 . S
C332 C327 1.363 . S
C332 C331 1.415 . S
C333 H309 0.951 . S
C333 C334 1.366 . S
C333 C335 1.388 . S
C334 C333 1.366 . S
C334 C338 1.385 . S
C335 H310 0.951 . S
C335 C333 1.388 . S
C335 C336 1.366 . S
C336 C335 1.366 . S
C336 C337 1.414 . S
C336 C339 1.499 . S
C337 H311 0.950 . S
C337 C336 1.414 . S
C337 C338 1.374 . S
C338 H312 0.950 . S
C338 C334 1.385 . S
C338 C337 1.374 . S
C339 C336 1.499 . S
C339 C340 1.373 1_556 S
C339 C341 1.389 . S
C340 H313 0.950 . S
C340 C326 1.377 . S
C340 C339 1.373 1_554 S
C341 C325 1.377 1_556 S
C341 C339 1.389 . S
C341 C342 1.524 . S
C342 C341 1.524 . S
C342 C343 1.397 . S
C342 C347 1.363 . S
C343 H314 0.950 . S
C343 C342 1.397 . S
C343 C344 1.334 . S
C344 H315 0.950 . S
C344 C343 1.334 . S
C344 C345 1.287 . S
C345 C344 1.287 . S
C345 C346 1.524 . S
C345 H348 0.999 . S
C346 H316 0.950 . S
C346 C345 1.524 . S
C346 C347 1.415 . S
C347 H317 0.950 . S
C347 C342 1.363 . S
C347 C346 1.415 . S
H348 C345 0.999 . S
H349 C330 0.913 . S
H350 C368 0.951 . S
H351 C370 0.951 . S
H352 C372 0.950 . S
H353 C373 0.950 . S
H354 C375 0.950 . S
H355 C378 0.950 . S
H356 C379 0.950 . S
H357 C381 0.950 . S
H358 C382 0.950 . S
H359 C383 0.951 . S
H360 C385 0.951 . S
H361 C387 0.950 1_655 S
H362 C388 0.950 . S
H363 C390 0.950 . S
H364 C393 0.950 . S
H365 C394 0.950 . S
H366 C396 0.950 . S
H367 C397 0.950 . S
C368 H350 0.951 . S
C368 C369 1.366 . S
C368 C370 1.388 . S
C369 C368 1.366 . S
C369 C373 1.385 . S
C370 H351 0.951 . S
C370 C368 1.388 . S
C370 C371 1.366 . S
C371 C370 1.366 . S
C371 C372 1.414 . S
C371 C374 1.499 . S
C372 H352 0.950 . S
C372 C371 1.414 . S
C372 C373 1.374 . S
C373 H353 0.950 . S
C373 C369 1.385 . S
C373 C372 1.374 . S
C374 C371 1.499 . S
C374 C375 1.373 . S
C374 C376 1.389 . S
C375 H354 0.950 . S
C375 C374 1.373 . S
C375 C391 1.377 1_655 S
C376 C374 1.389 . S
C376 C377 1.524 . S
C376 C390 1.377 . S
C377 C376 1.524 . S
C377 C378 1.397 . S
C377 C382 1.363 . S
C378 H355 0.950 . S
C378 C377 1.397 . S
C378 C379 1.334 . S
C379 H356 0.950 . S
C379 C378 1.334 . S
C379 C380 1.287 . S
C380 C379 1.287 . S
C380 C381 1.524 . S
C380 H399 0.913 . S
C381 H357 0.950 . S
C381 C380 1.524 . S
C381 C382 1.415 . S
C382 H358 0.950 . S
C382 C377 1.363 . S
C382 C381 1.415 . S
C383 H359 0.951 . S
C383 C384 1.366 . S
C383 C385 1.388 . S
C384 C383 1.366 . S
C384 C388 1.385 . S
C385 H360 0.951 . S
C385 C383 1.388 . S
C385 C386 1.366 . S
C386 C385 1.366 . S
C386 C387 1.414 . S
C386 C389 1.499 . S
C387 H361 0.950 1_455 S
C387 C386 1.414 . S
C387 C388 1.374 . S
C388 H362 0.950 . S
C388 C384 1.385 . S
C388 C387 1.374 . S
C389 C386 1.499 . S
C389 C390 1.373 1_455 S
C389 C391 1.389 . S
C390 H363 0.950 . S
C390 C376 1.377 . S
C390 C389 1.373 1_655 S
C391 C375 1.377 1_455 S
C391 C389 1.389 . S
C391 C392 1.524 . S
C392 C391 1.524 . S
C392 C393 1.397 . S
C392 C397 1.363 . S
C393 H364 0.950 . S
C393 C392 1.397 . S
C393 C394 1.334 . S
C394 H365 0.950 . S
C394 C393 1.334 . S
C394 C395 1.287 . S
C395 C394 1.287 . S
C395 C396 1.524 . S
C395 H398 0.999 . S
C396 H366 0.950 . S
C396 C395 1.524 . S
C396 C397 1.415 . S
C397 H367 0.950 . S
C397 C392 1.363 . S
C397 C396 1.415 . S
H398 C395 0.999 . S
H399 C380 0.913 . S
H400 C418 0.951 . S
H401 C420 0.951 . S
H402 C422 0.950 . S
H403 C423 0.950 . S
H404 C425 0.950 . S
H405 C428 0.950 . S
H406 C429 0.950 . S
H407 C431 0.950 . S
H408 C432 0.950 . S
H409 C433 0.951 . S
H410 C435 0.951 . S
H411 C437 0.950 . S
H412 C438 0.950 . S
H413 C440 0.950 . S
H414 C443 0.950 . S
H415 C444 0.950 . S
H416 C446 0.950 . S
H417 C447 0.950 . S
C418 H400 0.951 . S
C418 C419 1.366 . S
C418 C420 1.388 1_545 S
C419 C418 1.366 . S
C419 C423 1.385 . S
C420 H401 0.951 . S
C420 C418 1.388 1_565 S
C420 C421 1.366 . S
C421 C420 1.366 . S
C421 C422 1.414 1_565 S
C421 C424 1.499 . S
C422 H402 0.950 . S
C422 C421 1.414 1_545 S
C422 C423 1.374 . S
C423 H403 0.950 . S
C423 C419 1.385 . S
C423 C422 1.374 . S
C424 C421 1.499 . S
C424 C425 1.373 . S
C424 C426 1.389 . S
C425 H404 0.950 . S
C425 C424 1.373 . S
C425 C441 1.377 . S
C426 C424 1.389 . S
C426 C427 1.524 . S
C426 C440 1.377 . S
C427 C426 1.524 . S
C427 C428 1.397 . S
C427 C432 1.363 . S
C428 H405 0.950 . S
C428 C427 1.397 . S
C428 C429 1.334 . S
C429 H406 0.950 . S
C429 C428 1.334 . S
C429 C430 1.287 . S
C430 C429 1.287 . S
C430 C431 1.524 . S
C430 H449 0.913 . S
C431 H407 0.950 . S
C431 C430 1.524 . S
C431 C432 1.415 . S
C432 H408 0.950 . S
C432 C427 1.363 . S
C432 C431 1.415 . S
C433 H409 0.951 . S
C433 C434 1.366 . S
C433 C435 1.388 . S
C434 C433 1.366 . S
C434 C438 1.385 . S
C435 H410 0.951 . S
C435 C433 1.388 . S
C435 C436 1.366 . S
C436 C435 1.366 . S
C436 C437 1.414 . S
C436 C439 1.499 . S
C437 H411 0.950 . S
C437 C436 1.414 . S
C437 C438 1.374 . S
C438 H412 0.950 . S
C438 C434 1.385 . S
C438 C437 1.374 . S
C439 C436 1.499 . S
C439 C440 1.373 . S
C439 C441 1.389 . S
C440 H413 0.950 . S
C440 C426 1.377 . S
C440 C439 1.373 . S
C441 C425 1.377 . S
C441 C439 1.389 . S
C441 C442 1.524 . S
C442 C441 1.524 . S
C442 C443 1.397 . S
C442 C447 1.363 . S
C443 H414 0.950 . S
C443 C442 1.397 . S
C443 C444 1.334 . S
C444 H415 0.950 . S
C444 C443 1.334 . S
C444 C445 1.287 . S
C445 C444 1.287 . S
C445 C446 1.524 . S
C445 H448 0.999 . S
C446 H416 0.950 . S
C446 C445 1.524 . S
C446 C447 1.415 . S
C447 H417 0.950 . S
C447 C442 1.363 . S
C447 C446 1.415 . S
H448 C445 0.999 . S
H449 C430 0.913 . S
H450 C468 0.951 . S
H451 C470 0.951 . S
H452 C472 0.950 . S
H453 C473 0.950 . S
H454 C475 0.950 . S
H455 C478 0.950 . S
H456 C479 0.950 . S
H457 C481 0.950 . S
H458 C482 0.950 . S
H459 C483 0.951 . S
H460 C485 0.951 . S
H461 C487 0.950 . S
H462 C488 0.950 . S
H463 C490 0.950 . S
H464 C493 0.950 . S
H465 C494 0.950 . S
H466 C496 0.950 . S
H467 C497 0.950 . S
C468 H450 0.951 . S
C468 C469 1.366 . S
C468 C470 1.388 1_455 S
C469 C468 1.366 . S
C469 C473 1.385 . S
C470 H451 0.951 . S
C470 C468 1.388 1_655 S
C470 C471 1.366 . S
C471 C470 1.366 . S
C471 C472 1.414 1_655 S
C471 C474 1.499 . S
C472 H452 0.950 . S
C472 C471 1.414 1_455 S
C472 C473 1.374 . S
C473 H453 0.950 . S
C473 C469 1.385 . S
C473 C472 1.374 . S
C474 C471 1.499 . S
C474 C475 1.373 . S
C474 C476 1.389 . S
C475 H454 0.950 . S
C475 C474 1.373 . S
C475 C491 1.377 . S
C476 C474 1.389 . S
C476 C477 1.524 . S
C476 C490 1.377 . S
C477 C476 1.524 . S
C477 C478 1.397 . S
C477 C482 1.363 . S
C478 H455 0.950 . S
C478 C477 1.397 . S
C478 C479 1.334 . S
C479 H456 0.950 . S
C479 C478 1.334 . S
C479 C480 1.287 . S
C480 C479 1.287 . S
C480 C481 1.524 . S
C480 H499 0.913 . S
C481 H457 0.950 . S
C481 C480 1.524 . S
C481 C482 1.415 . S
C482 H458 0.950 . S
C482 C477 1.363 . S
C482 C481 1.415 . S
C483 H459 0.951 . S
C483 C484 1.366 . S
C483 C485 1.388 . S
C484 C483 1.366 . S
C484 C488 1.385 . S
C485 H460 0.951 . S
C485 C483 1.388 . S
C485 C486 1.366 . S
C486 C485 1.366 . S
C486 C487 1.414 . S
C486 C489 1.499 . S
C487 H461 0.950 . S
C487 C486 1.414 . S
C487 C488 1.374 . S
C488 H462 0.950 . S
C488 C484 1.385 . S
C488 C487 1.374 . S
C489 C486 1.499 . S
C489 C490 1.373 . S
C489 C491 1.389 . S
C490 H463 0.950 . S
C490 C476 1.377 . S
C490 C489 1.373 . S
C491 C475 1.377 . S
C491 C489 1.389 . S
C491 C492 1.524 . S
C492 C491 1.524 . S
C492 C493 1.397 . S
C492 C497 1.363 . S
C493 H464 0.950 . S
C493 C492 1.397 . S
C493 C494 1.334 . S
C494 H465 0.950 . S
C494 C493 1.334 . S
C494 C495 1.287 . S
C495 C494 1.287 . S
C495 C496 1.524 . S
C495 H498 0.999 . S
C496 H466 0.950 . S
C496 C495 1.524 . S
C496 C497 1.415 . S
C497 H467 0.950 . S
C497 C492 1.363 . S
C497 C496 1.415 . S
H498 C495 0.999 . S
H499 C480 0.913 . S
H500 C518 0.951 . S
H501 C520 0.951 . S
H502 C522 0.950 . S
H503 C523 0.950 . S
H504 C525 0.950 . S
H505 C528 0.950 . S
H506 C529 0.950 . S
H507 C531 0.950 . S
H508 C532 0.950 . S
H509 C533 0.951 . S
H510 C535 0.951 . S
H511 C537 0.950 . S
H512 C538 0.950 . S
H513 C540 0.950 . S
H514 C543 0.950 . S
H515 C544 0.950 . S
H516 C546 0.950 . S
H517 C547 0.950 . S
C518 H500 0.951 . S
C518 C519 1.366 . S
C518 C520 1.388 . S
C519 C518 1.366 . S
C519 C523 1.385 . S
C520 H501 0.951 . S
C520 C518 1.388 . S
C520 C521 1.366 1_545 S
C521 C520 1.366 1_565 S
C521 C522 1.414 . S
C521 C524 1.499 . S
C522 H502 0.950 . S
C522 C521 1.414 . S
C522 C523 1.374 1_565 S
C523 H503 0.950 . S
C523 C519 1.385 . S
C523 C522 1.374 1_545 S
C524 C521 1.499 . S
C524 C525 1.373 . S
C524 C526 1.389 . S
C525 H504 0.950 . S
C525 C524 1.373 . S
C525 C541 1.377 . S
C526 C524 1.389 . S
C526 C527 1.524 . S
C526 C540 1.377 . S
C527 C526 1.524 . S
C527 C528 1.397 . S
C527 C532 1.363 . S
C528 H505 0.950 . S
C528 C527 1.397 . S
C528 C529 1.334 1_565 S
C529 H506 0.950 . S
C529 C528 1.334 1_545 S
C529 C530 1.287 . S
C530 C529 1.287 . S
C530 C531 1.524 . S
C530 H549 0.913 . S
C531 H507 0.950 . S
C531 C530 1.524 . S
C531 C532 1.415 1_545 S
C532 H508 0.950 . S
C532 C527 1.363 . S
C532 C531 1.415 1_565 S
C533 H509 0.951 . S
C533 C534 1.366 . S
C533 C535 1.388 1_655 S
C534 C533 1.366 . S
C534 C538 1.385 . S
C535 H510 0.951 . S
C535 C533 1.388 1_455 S
C535 C536 1.366 . S
C536 C535 1.366 . S
C536 C537 1.414 1_455 S
C536 C539 1.499 . S
C537 H511 0.950 . S
C537 C536 1.414 1_655 S
C537 C538 1.374 . S
C538 H512 0.950 . S
C538 C534 1.385 . S
C538 C537 1.374 . S
C539 C536 1.499 . S
C539 C540 1.373 . S
C539 C541 1.389 . S
C540 H513 0.950 . S
C540 C526 1.377 . S
C540 C539 1.373 . S
C541 C525 1.377 . S
C541 C539 1.389 . S
C541 C542 1.524 . S
C542 C541 1.524 . S
C542 C543 1.397 . S
C542 C547 1.363 . S
C543 H514 0.950 . S
C543 C542 1.397 . S
C543 C544 1.334 . S
C544 H515 0.950 . S
C544 C543 1.334 . S
C544 C545 1.287 . S
C545 C544 1.287 . S
C545 C546 1.524 . S
C545 H548 0.999 . S
C546 H516 0.950 . S
C546 C545 1.524 . S
C546 C547 1.415 . S
C547 H517 0.950 . S
C547 C542 1.363 . S
C547 C546 1.415 . S
H548 C545 0.999 . S
H549 C530 0.913 . S
H550 C568 0.951 . S
H551 C570 0.951 . S
H552 C572 0.950 . S
H553 C573 0.950 . S
H554 C575 0.950 . S
H555 C578 0.950 . S
H556 C579 0.950 . S
H557 C581 0.950 . S
H558 C582 0.950 . S
H559 C583 0.951 . S
H560 C585 0.951 . S
H561 C587 0.950 . S
H562 C588 0.950 . S
H563 C590 0.950 . S
H564 C593 0.950 . S
H565 C594 0.950 . S
H566 C596 0.950 . S
H567 C597 0.950 . S
C568 H550 0.951 . S
C568 C569 1.366 . S
C568 C570 1.388 . S
C569 C568 1.366 . S
C569 C573 1.385 . S
C570 H551 0.951 . S
C570 C568 1.388 . S
C570 C571 1.366 . S
C571 C570 1.366 . S
C571 C572 1.414 . S
C571 C574 1.499 . S
C572 H552 0.950 . S
C572 C571 1.414 . S
C572 C573 1.374 . S
C573 H553 0.950 . S
C573 C569 1.385 . S
C573 C572 1.374 . S
C574 C571 1.499 . S
C574 C575 1.373 . S
C574 C576 1.389 . S
C575 H554 0.950 . S
C575 C574 1.373 . S
C575 C591 1.377 . S
C576 C574 1.389 . S
C576 C577 1.524 . S
C576 C590 1.377 . S
C577 C576 1.524 . S
C577 C578 1.397 . S
C577 C582 1.363 . S
C578 H555 0.950 . S
C578 C577 1.397 . S
C578 C579 1.334 . S
C579 H556 0.950 . S
C579 C578 1.334 . S
C579 C580 1.287 . S
C580 C579 1.287 . S
C580 C581 1.524 . S
C580 H599 0.913 . S
C581 H557 0.950 . S
C581 C580 1.524 . S
C581 C582 1.415 . S
C582 H558 0.950 . S
C582 C577 1.363 . S
C582 C581 1.415 . S
C583 H559 0.951 . S
C583 C584 1.366 . S
C583 C585 1.388 1_565 S
C584 C583 1.366 . S
C584 C588 1.385 . S
C585 H560 0.951 . S
C585 C583 1.388 1_545 S
C585 C586 1.366 . S
C586 C585 1.366 . S
C586 C587 1.414 1_545 S
C586 C589 1.499 . S
C587 H561 0.950 . S
C587 C586 1.414 1_565 S
C587 C588 1.374 . S
C588 H562 0.950 . S
C588 C584 1.385 . S
C588 C587 1.374 . S
C589 C586 1.499 . S
C589 C590 1.373 . S
C589 C591 1.389 . S
C590 H563 0.950 . S
C590 C576 1.377 . S
C590 C589 1.373 . S
C591 C575 1.377 . S
C591 C589 1.389 . S
C591 C592 1.524 . S
C592 C591 1.524 . S
C592 C593 1.397 . S
C592 C597 1.363 . S
C593 H564 0.950 . S
C593 C592 1.397 . S
C593 C594 1.334 . S
C594 H565 0.950 . S
C594 C593 1.334 . S
C594 C595 1.287 . S
C595 C594 1.287 . S
C595 C596 1.524 . S
C595 H598 0.999 . S
C596 H566 0.950 . S
C596 C595 1.524 . S
C596 C597 1.415 . S
C597 H567 0.950 . S
C597 C592 1.363 . S
C597 C596 1.415 . S
H598 C595 0.999 . S
H599 C580 0.913 . S
H600 C618 0.951 . S
H601 C620 0.951 . S
H602 C622 0.950 . S
H603 C623 0.950 . S
H604 C625 0.950 . S
H605 C628 0.950 . S
H606 C629 0.950 . S
H607 C631 0.950 . S
H608 C632 0.950 . S
H609 C633 0.951 . S
H610 C635 0.951 1_455 S
H611 C637 0.950 . S
H612 C638 0.950 . S
H613 C640 0.950 . S
H614 C643 0.950 . S
H615 C644 0.950 . S
H616 C646 0.950 . S
H617 C647 0.950 . S
C618 H600 0.951 . S
C618 C619 1.366 . S
C618 C620 1.388 . S
C619 C618 1.366 . S
C619 C623 1.385 . S
C620 H601 0.951 . S
C620 C618 1.388 . S
C620 C621 1.366 . S
C621 C620 1.366 . S
C621 C622 1.414 . S
C621 C624 1.499 . S
C622 H602 0.950 . S
C622 C621 1.414 . S
C622 C623 1.374 . S
C623 H603 0.950 . S
C623 C619 1.385 . S
C623 C622 1.374 . S
C624 C621 1.499 . S
C624 C625 1.373 . S
C624 C626 1.389 . S
C625 H604 0.950 . S
C625 C624 1.373 . S
C625 C641 1.377 . S
C626 C624 1.389 . S
C626 C627 1.524 . S
C626 C640 1.377 . S
C627 C626 1.524 . S
C627 C628 1.397 . S
C627 C632 1.363 . S
C628 H605 0.950 . S
C628 C627 1.397 . S
C628 C629 1.334 . S
C629 H606 0.950 . S
C629 C628 1.334 . S
C629 C630 1.287 . S
C630 C629 1.287 . S
C630 C631 1.524 . S
C630 H649 0.913 . S
C631 H607 0.950 . S
C631 C630 1.524 . S
C631 C632 1.415 . S
C632 H608 0.950 . S
C632 C627 1.363 . S
C632 C631 1.415 . S
C633 H609 0.951 . S
C633 C634 1.366 . S
C633 C635 1.387 . S
C634 C633 1.366 . S
C634 C638 1.385 . S
C635 H610 0.951 1_655 S
C635 C633 1.387 . S
C635 C636 1.366 1_655 S
C636 C635 1.366 1_455 S
C636 C637 1.414 . S
C636 C639 1.499 . S
C637 H611 0.950 . S
C637 C636 1.414 . S
C637 C638 1.374 1_455 S
C638 H612 0.950 . S
C638 C634 1.385 . S
C638 C637 1.374 1_655 S
C639 C636 1.499 . S
C639 C640 1.373 . S
C639 C641 1.389 . S
C640 H613 0.950 . S
C640 C626 1.377 . S
C640 C639 1.373 . S
C641 C625 1.377 . S
C641 C639 1.389 . S
C641 C642 1.524 . S
C642 C641 1.524 . S
C642 C643 1.397 . S
C642 C647 1.363 . S
C643 H614 0.950 . S
C643 C642 1.397 . S
C643 C644 1.334 . S
C644 H615 0.950 . S
C644 C643 1.334 . S
C644 C645 1.287 . S
C645 C644 1.287 . S
C645 C646 1.524 . S
C645 H648 0.999 . S
C646 H616 0.950 . S
C646 C645 1.524 . S
C646 C647 1.415 . S
C647 H617 0.950 . S
C647 C642 1.363 . S
C647 C646 1.415 . S
H648 C645 0.999 . S
H649 C630 0.913 . S
H650 C668 0.951 . S
H651 C670 0.951 . S
H652 C672 0.950 . S
H653 C673 0.950 . S
H654 C675 0.950 . S
H655 C678 0.950 . S
H656 C679 0.950 . S
H657 C681 0.950 . S
H658 C682 0.950 . S
H659 C683 0.951 . S
H660 C685 0.951 . S
H661 C687 0.950 . S
H662 C688 0.950 . S
H663 C690 0.950 . S
H664 C693 0.950 . S
H665 C694 0.950 . S
H666 C696 0.950 . S
H667 C697 0.950 . S
C668 H650 0.951 . S
C668 C669 1.366 . S
C668 C670 1.388 1_455 S
C669 C668 1.366 . S
C669 C673 1.385 . S
C670 H651 0.951 . S
C670 C668 1.388 1_655 S
C670 C671 1.366 . S
C671 C670 1.366 . S
C671 C672 1.414 1_655 S
C671 C674 1.499 . S
C672 H652 0.950 . S
C672 C671 1.414 1_455 S
C672 C673 1.374 . S
C673 H653 0.950 . S
C673 C669 1.385 . S
C673 C672 1.374 . S
C674 C671 1.499 . S
C674 C675 1.373 . S
C674 C676 1.389 . S
C675 H654 0.950 . S
C675 C674 1.373 . S
C675 C691 1.377 . S
C676 C674 1.389 . S
C676 C677 1.524 . S
C676 C690 1.377 . S
C677 C676 1.524 . S
C677 C678 1.397 . S
C677 C682 1.363 . S
C678 H655 0.950 . S
C678 C677 1.397 . S
C678 C679 1.334 . S
C679 H656 0.950 . S
C679 C678 1.334 . S
C679 C680 1.287 . S
C680 C679 1.287 . S
C680 C681 1.524 . S
C680 H699 0.913 . S
C681 H657 0.950 . S
C681 C680 1.524 . S
C681 C682 1.415 . S
C682 H658 0.950 . S
C682 C677 1.363 . S
C682 C681 1.415 . S
C683 H659 0.951 . S
C683 C684 1.366 . S
C683 C685 1.388 . S
C684 C683 1.366 . S
C684 C688 1.385 . S
C685 H660 0.951 . S
C685 C683 1.388 . S
C685 C686 1.366 1_565 S
C686 C685 1.366 1_545 S
C686 C687 1.414 . S
C686 C689 1.499 . S
C687 H661 0.950 . S
C687 C686 1.414 . S
C687 C688 1.374 1_545 S
C688 H662 0.950 . S
C688 C684 1.385 . S
C688 C687 1.374 1_565 S
C689 C686 1.499 . S
C689 C690 1.373 . S
C689 C691 1.389 . S
C690 H663 0.950 . S
C690 C676 1.377 . S
C690 C689 1.373 . S
C691 C675 1.377 . S
C691 C689 1.389 . S
C691 C692 1.524 . S
C692 C691 1.524 . S
C692 C693 1.397 . S
C692 C697 1.363 . S
C693 H664 0.950 . S
C693 C692 1.397 . S
C693 C694 1.334 . S
C694 H665 0.950 . S
C694 C693 1.334 . S
C694 C695 1.287 . S
C695 C694 1.287 . S
C695 C696 1.524 . S
C695 H698 0.999 . S
C696 H666 0.950 . S
C696 C695 1.524 . S
C696 C697 1.415 . S
C697 H667 0.950 . S
C697 C692 1.363 . S
C697 C696 1.415 . S
H698 C695 0.999 . S
H699 C680 0.913 . S
C119 C51 1.667 . S
C134 C16 1.755 . S
C169 C68 1.755 . S
C184 C31 1.667 . S
C219 C22 1.755 . S
C234 C72 1.667 . S
C269 C81 1.755 . S
C284 C48 1.666 . S
C319 C49 1.755 . S
C334 C50 1.667 . S
C369 C17 1.666 . S
C384 C91 1.755 . S
C419 C34 1.036 . S
C434 C19 1.040 . S
C469 C84 1.041 . S
C484 C69 1.036 . S
C519 C41 1.040 . S
C534 C0 1.036 . S
C569 C99 1.040 . S
C584 C98 1.036 . S
C619 C18 1.036 . S
C634 C1 1.041 . S
C669 C66 1.036 . S
C684 C67 1.040 . S
