# Generated by pormake.
# Topology wgw, (6)-cn, num edge types: 1
# Building blocks:
#     Node 0, Type 0, BuildingBlock: IZENUY_clean_sbu_0, # of connection points: 6
#     Node 1, Type 0, BuildingBlock: IZENUY_clean_sbu_0, # of connection points: 6
#     Node 2, Type 0, BuildingBlock: IZENUY_clean_sbu_0, # of connection points: 6
#     Node 3, Type 0, BuildingBlock: IZENUY_clean_sbu_0, # of connection points: 6
#     Node 4, Type 0, BuildingBlock: IZENUY_clean_sbu_0, # of connection points: 6
#     Node 5, Type 0, BuildingBlock: IZENUY_clean_sbu_0, # of connection points: 6
#     Node 6, Type 0, BuildingBlock: IZENUY_clean_sbu_0, # of connection points: 6
#     Node 7, Type 0, BuildingBlock: IZENUY_clean_sbu_0, # of connection points: 6
#     Edge 8, Type (0, 0), BuildingBlock: MIFKUJ_clean_linker_0, # of connection points: 2
#     Edge 9, Type (0, 0), BuildingBlock: MIFKUJ_clean_linker_0, # of connection points: 2
#     Edge 10, Type (0, 0), BuildingBlock: MIFKUJ_clean_linker_0, # of connection points: 2
#     Edge 11, Type (0, 0), BuildingBlock: MIFKUJ_clean_linker_0, # of connection points: 2
#     Edge 12, Type (0, 0), BuildingBlock: MIFKUJ_clean_linker_0, # of connection points: 2
#     Edge 13, Type (0, 0), BuildingBlock: MIFKUJ_clean_linker_0, # of connection points: 2
#     Edge 14, Type (0, 0), BuildingBlock: MIFKUJ_clean_linker_0, # of connection points: 2
#     Edge 15, Type (0, 0), BuildingBlock: MIFKUJ_clean_linker_0, # of connection points: 2
#     Edge 16, Type (0, 0), BuildingBlock: MIFKUJ_clean_linker_0, # of connection points: 2
#     Edge 17, Type (0, 0), BuildingBlock: MIFKUJ_clean_linker_0, # of connection points: 2
#     Edge 18, Type (0, 0), BuildingBlock: MIFKUJ_clean_linker_0, # of connection points: 2
#     Edge 19, Type (0, 0), BuildingBlock: MIFKUJ_clean_linker_0, # of connection points: 2
#     Edge 20, Type (0, 0), BuildingBlock: MIFKUJ_clean_linker_0, # of connection points: 2
#     Edge 21, Type (0, 0), BuildingBlock: MIFKUJ_clean_linker_0, # of connection points: 2
#     Edge 22, Type (0, 0), BuildingBlock: MIFKUJ_clean_linker_0, # of connection points: 2
#     Edge 23, Type (0, 0), BuildingBlock: MIFKUJ_clean_linker_0, # of connection points: 2
#     Edge 24, Type (0, 0), BuildingBlock: MIFKUJ_clean_linker_0, # of connection points: 2
#     Edge 25, Type (0, 0), BuildingBlock: MIFKUJ_clean_linker_0, # of connection points: 2
#     Edge 26, Type (0, 0), BuildingBlock: MIFKUJ_clean_linker_0, # of connection points: 2
#     Edge 27, Type (0, 0), BuildingBlock: MIFKUJ_clean_linker_0, # of connection points: 2
#     Edge 28, Type (0, 0), BuildingBlock: MIFKUJ_clean_linker_0, # of connection points: 2
#     Edge 29, Type (0, 0), BuildingBlock: MIFKUJ_clean_linker_0, # of connection points: 2
#     Edge 30, Type (0, 0), BuildingBlock: MIFKUJ_clean_linker_0, # of connection points: 2
#     Edge 31, Type (0, 0), BuildingBlock: MIFKUJ_clean_linker_0, # of connection points: 2
# Relax obj value: 0.276
# Max RMSD: 0.289
# Mean RMSD: 0.289
data_MOF--net-wgw--node1-IZENUY_clean_sbu_0--edge1-MIFKUJ_clean_linker_0
_symmetry_space_group_name_H-M    P1
_symmetry_Int_Tables_number       1
_symmetry_cell_setting            triclinic
loop_
_symmetry_equiv_pos_as_xyz
'x, y, z'
_cell_length_a     35.395418
_cell_length_b     35.326643
_cell_length_c     55.641977
_cell_angle_alpha  90.067372
_cell_angle_beta   89.962944
_cell_angle_gamma 89.954364
loop_
_atom_site_label
_atom_site_type_symbol
_atom_site_fract_x
_atom_site_fract_y
_atom_site_fract_z
_atom_type_partial_charge
Fe0 Fe 0.0399 0.40654 0.16698 0.0
Fe1 Fe 0.10174 0.46798 0.16683 0.0
O2 O 0.0661 0.44203 0.18219 0.0
Fe3 Fe 0.0575 0.45235 0.21289 0.0
O4 O 0.04391 0.40449 0.22166 0.0
O5 O 0.05128 0.37053 0.18903 0.0
O6 O 0.08151 0.38911 0.15015 0.0
C7 C 0.11671 0.39445 0.15363 0.0
C8 C 0.98512 0.4454 0.19578 0.0
O9 O 0.12899 0.42523 0.16226 0.0
C10 C 0.06546 0.52391 0.19157 0.0
O11 O 0.02553 0.4387 0.14314 0.0
O12 O 0.08091 0.46402 0.13685 0.0
O13 O 0.00926 0.4648 0.20694 0.0
O14 O 0.99464 0.41836 0.18192 0.0
C15 C 0.13366 0.45808 0.21291 0.0
O16 O 0.07549 0.51216 0.17101 0.0
O17 O 0.06857 0.50268 0.20979 0.0
C18 C 0.04768 0.45721 0.12994 0.0
O19 O 0.13065 0.47675 0.19361 0.0
O20 O 0.10562 0.44038 0.22109 0.0
C21 C 0.04708 0.37279 0.21144 0.0
Fe22 Fe 0.02973 0.10238 0.66642 0.0
Fe23 Fe 0.04128 0.05666 0.71232 0.0
O24 O 0.05359 0.06578 0.68204 0.0
Fe25 Fe 0.08924 0.03887 0.66753 0.0
O26 O 0.10783 0.07965 0.6505 0.0
O27 O 0.07337 0.12819 0.6627 0.0
O28 O 0.02103 0.13163 0.69329 0.0
C29 C 0.03827 0.13331 0.71324 0.0
C30 C 0.04015 0.04728 0.62984 0.0
O31 O 0.05434 0.10425 0.72152 0.0
C32 C 0.04827 0.98439 0.69529 0.0
O33 O 0.98463 0.07784 0.66961 0.0
O34 O 0.99162 0.06995 0.70853 0.0
O35 O 0.0577 0.02466 0.64332 0.0
O36 O 0.03422 0.08097 0.63651 0.0
C37 C 0.12048 0.04507 0.71243 0.0
O38 O 0.02752 0.00893 0.70515 0.0
O39 O 0.07671 0.99392 0.68269 0.0
C40 C 0.97106 0.06938 0.68992 0.0
O41 O 0.08825 0.04093 0.72176 0.0
O42 O 0.12405 0.05068 0.69022 0.0
C43 C 0.10369 0.11499 0.65408 0.0
Fe44 Fe 0.45668 0.03791 0.21163 0.0
Fe45 Fe 0.47041 0.08712 0.16688 0.0
O46 O 0.44624 0.04964 0.18143 0.0
Fe47 Fe 0.41116 0.0231 0.16611 0.0
O48 O 0.38348 0.01271 0.19322 0.0
O49 O 0.40857 0.04883 0.22105 0.0
O50 O 0.47035 0.08545 0.2211 0.0
C51 C 0.46381 0.11755 0.2122 0.0
C52 C 0.4501 0.96759 0.18939 0.0
O53 O 0.45759 0.12109 0.19005 0.0
C54 C 0.46382 0.03791 0.12879 0.0
O55 O 0.50463 0.0262 0.20378 0.0
O56 O 0.51647 0.07633 0.18123 0.0
O57 O 0.43901 0.9796 0.16916 0.0
O58 O 0.44598 0.98777 0.20795 0.0
C59 C 0.39307 0.09655 0.15417 0.0
O60 O 0.48553 0.05705 0.14201 0.0
O61 O 0.43125 0.02893 0.13604 0.0
C62 C 0.52743 0.04701 0.19253 0.0
O63 O 0.42794 0.10355 0.15068 0.0
O64 O 0.38229 0.06505 0.16252 0.0
C65 C 0.38055 0.03104 0.21272 0.0
Fe66 Fe 0.39743 0.47685 0.66608 0.0
Fe67 Fe 0.4623 0.41871 0.66682 0.0
O68 O 0.4347 0.45373 0.68144 0.0
Fe69 Fe 0.44401 0.46619 0.7117 0.0
O70 O 0.39736 0.45109 0.72112 0.0
O71 O 0.36832 0.48381 0.69316 0.0
O72 O 0.37283 0.43252 0.66196 0.0
C73 C 0.38662 0.40236 0.65342 0.0
C74 C 0.42819 0.53634 0.69013 0.0
O75 O 0.42198 0.39873 0.65008 0.0
C76 C 0.51546 0.46314 0.69298 0.0
O77 O 0.41874 0.47365 0.63606 0.0
O78 O 0.4752 0.45036 0.64245 0.0
O79 O 0.42853 0.51535 0.7085 0.0
O80 O 0.42051 0.52282 0.66966 0.0
C81 C 0.45755 0.38732 0.71181 0.0
O82 O 0.50689 0.43313 0.68156 0.0
O83 O 0.49067 0.48216 0.70391 0.0
C84 C 0.45225 0.46772 0.62914 0.0
O85 O 0.45186 0.38363 0.68963 0.0
O86 O 0.46184 0.41974 0.72092 0.0
C87 C 0.36764 0.46608 0.71299 0.0
Fe88 Fe 0.59725 0.5233 0.34205 0.0
Fe89 Fe 0.55102 0.54267 0.29729 0.0
O90 O 0.56264 0.55194 0.32773 0.0
Fe91 Fe 0.54015 0.58924 0.34372 0.0
O92 O 0.58319 0.60257 0.36021 0.0
O93 O 0.62746 0.5641 0.34648 0.0
O94 O 0.62439 0.51377 0.31455 0.0
C95 C 0.62697 0.53267 0.29529 0.0
C96 C 0.54535 0.53711 0.38004 0.0
O97 O 0.59913 0.55124 0.28757 0.0
C98 C 0.48107 0.55489 0.31696 0.0
O99 O 0.5683 0.4808 0.33801 0.0
O100 O 0.55903 0.49181 0.29964 0.0
O101 O 0.52419 0.55768 0.36741 0.0
O102 O 0.57771 0.52775 0.37249 0.0
C103 C 0.54805 0.62263 0.29932 0.0
O104 O 0.50239 0.53358 0.30486 0.0
O105 O 0.49379 0.58191 0.32956 0.0
C106 C 0.55635 0.47016 0.31763 0.0
O107 O 0.54045 0.59154 0.2893 0.0
O108 O 0.55367 0.62457 0.32163 0.0
C109 C 0.61767 0.59526 0.35581 0.0
Fe110 Fe 0.9631 0.59491 0.84622 0.0
Fe111 Fe 0.94553 0.54817 0.80076 0.0
O112 O 0.93608 0.55991 0.83117 0.0
Fe113 Fe 0.89918 0.53577 0.84632 0.0
O114 O 0.87359 0.57946 0.85057 0.0
O115 O 0.92187 0.61447 0.86254 0.0
O116 O 0.95335 0.6304 0.82355 0.0
C117 C 0.9599 0.62726 0.80143 0.0
C118 C 0.95289 0.54519 0.88363 0.0
O119 O 0.96273 0.59502 0.79181 0.0
C120 C 0.93193 0.4774 0.82212 0.0
O121 O 0.00824 0.58077 0.83184 0.0
O122 O 0.99247 0.53301 0.80822 0.0
O123 O 0.91968 0.53899 0.87644 0.0
O124 O 0.97578 0.56311 0.8706 0.0
C125 C 0.8691 0.54711 0.79977 0.0
O126 O 0.93115 0.4986 0.80381 0.0
O127 O 0.92351 0.49045 0.8426 0.0
C128 C 0.01711 0.55186 0.81934 0.0
O129 O 0.89848 0.56255 0.79148 0.0
O130 O 0.87049 0.52853 0.81922 0.0
C131 C 0.88655 0.60993 0.85915 0.0
Fe132 Fe 0.96031 0.94838 0.29894 0.0
Fe133 Fe 0.97345 0.90091 0.34407 0.0
O134 O 0.9484 0.93747 0.3291 0.0
Fe135 Fe 0.91198 0.96262 0.34419 0.0
O136 O 0.87737 0.95085 0.32142 0.0
O137 O 0.91249 0.96223 0.28975 0.0
O138 O 0.94914 0.90107 0.28892 0.0
C139 C 0.96537 0.87197 0.29683 0.0
C140 C 0.95083 0.01947 0.31714 0.0
O141 O 0.98277 0.87287 0.31673 0.0
C142 C 0.96157 0.95415 0.38161 0.0
O143 O 0.01061 0.93704 0.30259 0.0
O144 O 0.01763 0.92676 0.34134 0.0
O145 O 0.92296 0.00863 0.3298 0.0
O146 O 0.97222 0.99617 0.30675 0.0
C147 C 0.90034 0.88533 0.35658 0.0
O148 O 0.96852 0.92094 0.37437 0.0
O149 O 0.94326 0.97675 0.36853 0.0
C150 C 0.03074 0.9374 0.32138 0.0
O151 O 0.93085 0.87373 0.34743 0.0
O152 O 0.8947 0.9204 0.36055 0.0
C153 C 0.88048 0.9567 0.29919 0.0
Fe154 Fe 0.59588 0.97937 0.8397 0.0
Fe155 Fe 0.53343 0.91819 0.84068 0.0
O156 O 0.55955 0.95338 0.82517 0.0
Fe157 Fe 0.54965 0.9636 0.79466 0.0
O158 O 0.59655 0.94906 0.78556 0.0
O159 O 0.62437 0.98531 0.81229 0.0
O160 O 0.62254 0.93669 0.84509 0.0
C161 C 0.61045 0.90624 0.85418 0.0
C162 C 0.56061 0.03516 0.81441 0.0
O163 O 0.57524 0.90011 0.85699 0.0
C164 C 0.4785 0.95979 0.81358 0.0
O165 O 0.57539 0.97742 0.86986 0.0
O166 O 0.52037 0.95022 0.86497 0.0
O167 O 0.56369 0.01315 0.79664 0.0
O168 O 0.57039 0.02396 0.83506 0.0
C169 C 0.53726 0.88465 0.7961 0.0
O170 O 0.48782 0.93124 0.8263 0.0
O171 O 0.50283 0.97863 0.8022 0.0
C172 C 0.5428 0.96954 0.87756 0.0
O173 O 0.54377 0.88203 0.81826 0.0
O174 O 0.5328 0.91658 0.78652 0.0
C175 C 0.62579 0.96536 0.79331 0.0
H176 H 0.42944 0.5252 0.34776 0.0
H177 H 0.36317 0.50978 0.33839 0.0
H178 H 0.3765 0.55984 0.26814 0.0
H179 H 0.44241 0.57482 0.27745 0.0
H180 H 0.30717 0.57665 0.289 0.0
H181 H 0.38861 0.46713 0.27441 0.0
H182 H 0.43438 0.4186 0.28719 0.0
H183 H 0.35669 0.37933 0.34093 0.0
H184 H 0.31046 0.42793 0.32852 0.0
H185 H 0.1981 0.49517 0.20071 0.0
H186 H 0.25086 0.51161 0.22666 0.0
H187 H 0.19938 0.45085 0.28533 0.0
H188 H 0.14591 0.43406 0.25932 0.0
H189 H 0.27897 0.43957 0.28072 0.0
H190 H 0.1915 0.54118 0.28722 0.0
H191 H 0.1466 0.58917 0.27243 0.0
H192 H 0.23577 0.64384 0.23334 0.0
H193 H 0.28111 0.59579 0.24753 0.0
C194 C 0.41769 0.53355 0.33058 0.0
C195 C 0.44042 0.55117 0.31326 0.0
C196 C 0.38011 0.52465 0.32522 0.0
C197 C 0.36513 0.5335 0.30253 0.0
C198 C 0.38752 0.55292 0.28577 0.0
C199 C 0.42503 0.56139 0.29103 0.0
C200 C 0.32739 0.52001 0.29512 0.0
C201 C 0.30083 0.54672 0.2873 0.0
C202 C 0.31887 0.48094 0.29355 0.0
C203 C 0.34635 0.45144 0.30078 0.0
C204 C 0.38141 0.4483 0.28905 0.0
C205 C 0.40742 0.42075 0.29621 0.0
C206 C 0.39859 0.39603 0.31498 0.0
C207 C 0.36355 0.39859 0.32646 0.0
C208 C 0.33742 0.4261 0.31936 0.0
C209 C 0.19796 0.48498 0.21906 0.0
C210 C 0.16751 0.46373 0.22803 0.0
C211 C 0.22811 0.49453 0.23389 0.0
C212 C 0.2285 0.48312 0.258 0.0
C213 C 0.19928 0.46019 0.26679 0.0
C214 C 0.16885 0.45063 0.25191 0.0
C215 C 0.25937 0.49625 0.27379 0.0
C216 C 0.28465 0.46952 0.28315 0.0
C217 C 0.26676 0.53535 0.27674 0.0
C218 C 0.2397 0.56472 0.26838 0.0
C219 C 0.20151 0.56329 0.27535 0.0
C220 C 0.17598 0.59052 0.26708 0.0
C221 C 0.18832 0.61951 0.25194 0.0
C222 C 0.22625 0.62137 0.24508 0.0
C223 C 0.2519 0.59416 0.25326 0.0
H224 H 0.1685 0.64056 0.24555 0.0
H225 H 0.41886 0.37488 0.32061 0.0
H226 H 0.91652 0.43646 0.78233 0.0
H227 H 0.93628 0.37223 0.77301 0.0
H228 H 0.98656 0.36186 0.8433 0.0
H229 H 0.96648 0.4271 0.85289 0.0
H230 H 0.03472 0.33853 0.80519 0.0
H231 H 0.91161 0.31046 0.83305 0.0
H232 H 0.84282 0.3185 0.83778 0.0
H233 H 0.8272 0.29957 0.7622 0.0
H234 H 0.89595 0.29198 0.75692 0.0
H235 H 0.06459 0.14564 0.75925 0.0
H236 H 0.04945 0.19923 0.78574 0.0
H237 H 0.98475 0.25064 0.72881 0.0
H238 H 0.99966 0.19779 0.70237 0.0
H239 H 0.94501 0.24447 0.77167 0.0
H240 H 0.06931 0.28525 0.74388 0.0
H241 H 0.13831 0.27874 0.73915 0.0
H242 H 0.15127 0.27303 0.81579 0.0
H243 H 0.08225 0.27903 0.82094 0.0
C244 C 0.93131 0.42043 0.796 0.0
C245 C 0.93984 0.43674 0.81839 0.0
C246 C 0.94252 0.38363 0.79066 0.0
C247 C 0.96265 0.36213 0.80751 0.0
C248 C 0.97086 0.37797 0.8301 0.0
C249 C 0.95914 0.41499 0.83562 0.0
C250 C 0.97609 0.32389 0.80046 0.0
C251 C 0.01514 0.3174 0.7985 0.0
C252 C 0.95055 0.29649 0.79155 0.0
C253 C 0.90904 0.30073 0.79459 0.0
C254 C 0.89355 0.30822 0.8174 0.0
C255 C 0.85454 0.31267 0.82019 0.0
C256 C 0.83066 0.30956 0.8003 0.0
C257 C 0.84573 0.30193 0.7776 0.0
C258 C 0.88473 0.29747 0.77471 0.0
C259 C 0.04751 0.16859 0.7523 0.0
C260 C 0.03306 0.16719 0.72871 0.0
C261 C 0.03892 0.19918 0.76746 0.0
C262 C 0.01574 0.22875 0.75928 0.0
C263 C 0.00242 0.22795 0.73555 0.0
C264 C 0.0111 0.19769 0.72042 0.0
C265 C 0.00352 0.25997 0.77539 0.0
C266 C 0.96461 0.26502 0.77904 0.0
C267 C 0.0292 0.28579 0.78592 0.0
C268 C 0.0706 0.28199 0.78278 0.0
C269 C 0.08684 0.28218 0.75971 0.0
C270 C 0.12595 0.27868 0.75695 0.0
C271 C 0.14914 0.27528 0.77715 0.0
C272 C 0.13326 0.27547 0.80015 0.0
C273 C 0.09416 0.27894 0.803 0.0
H274 H 0.17942 0.27264 0.77498 0.0
H275 H 0.80047 0.31304 0.80249 0.0
H276 H 0.34858 0.07966 0.24564 0.0
H277 H 0.28989 0.06961 0.2685 0.0
H278 H 0.27854 0.95882 0.23644 0.0
H279 H 0.33556 0.96933 0.21312 0.0
H280 H 0.21454 0.99269 0.23461 0.0
H281 H 0.31011 0.9759 0.29668 0.0
H282 H 0.36352 0.99681 0.32186 0.0
H283 H 0.29699 0.08938 0.34871 0.0
H284 H 0.24331 0.06922 0.32347 0.0
H285 H 0.08435 0.8936 0.30103 0.0
H286 H 0.14731 0.91394 0.28815 0.0
H287 H 0.12868 0.02324 0.32085 0.0
H288 H 0.06597 0.00226 0.33447 0.0
H289 H 0.20449 1.00036 0.32344 0.0
H290 H 0.10717 0.01268 0.26362 0.0
H291 H 0.0535 0.98921 0.23961 0.0
H292 H 0.12436 0.90341 0.20853 0.0
H293 H 0.17829 0.92593 0.23269 0.0
C294 C 0.33348 0.05318 0.24365 0.0
C295 C 0.34646 0.02535 0.22757 0.0
C296 C 0.30008 0.04739 0.25674 0.0
C297 C 0.27983 0.01333 0.2543 0.0
C298 C 0.29338 0.98544 0.23852 0.0
C299 C 0.32607 0.99148 0.2252 0.0
C300 C 0.24394 0.00627 0.26743 0.0
C301 C 0.21257 0.99415 0.25405 0.0
C302 C 0.24073 0.00939 0.29275 0.0
C303 C 0.27288 0.0213 0.30801 0.0
C304 C 0.30697 1.00085 0.30784 0.0
C305 C 0.33727 0.01254 0.32214 0.0
C306 C 0.33369 0.04447 0.33682 0.0
C307 C 0.29975 0.06469 0.3373 0.0
C308 C 0.26938 0.05313 0.32302 0.0
C309 C 0.09438 0.92143 0.30618 0.0
C310 C 0.07087 0.94637 0.31883 0.0
C311 C 0.13013 0.93314 0.29873 0.0
C312 C 0.14231 0.97035 0.30317 0.0
C313 C 0.11979 0.99445 0.31726 0.0
C314 C 0.08414 0.98249 0.32504 0.0
C315 C 0.17614 0.98512 0.2906 0.0
C316 C 0.20664 0.99915 0.304 0.0
C317 C 0.17878 0.98364 0.26524 0.0
C318 C 0.14673 0.97091 0.25004 0.0
C319 C 0.11127 0.98875 0.25171 0.0
C320 C 0.0808 0.97558 0.2381 0.0
C321 C 0.0855 0.94479 0.22259 0.0
C322 C 0.12075 0.92723 0.22057 0.0
C323 C 0.1513 0.94022 0.23419 0.0
H324 H 0.06186 0.93457 0.21211 0.0
H325 H 0.35718 0.05349 0.34787 0.0
H326 H 0.45052 0.313 0.69853 0.0
H327 H 0.46193 0.25702 0.72312 0.0
H328 H 0.48714 0.3281 0.78412 0.0
H329 H 0.47637 0.3844 0.75953 0.0
H330 H 0.53971 0.27367 0.77829 0.0
H331 H 0.40351 0.27644 0.78238 0.0
H332 H 0.33912 0.28034 0.76556 0.0
H333 H 0.35978 0.18064 0.72333 0.0
H334 H 0.42425 0.17624 0.73979 0.0
H335 H 0.56292 0.09849 0.84395 0.0
H336 H 0.53929 0.16236 0.8342 0.0
H337 H 0.5021 0.12198 0.76493 0.0
H338 H 0.52482 0.05922 0.77442 0.0
H339 H 0.44997 0.16628 0.78393 0.0
H340 H 0.58547 0.16883 0.77169 0.0
H341 H 0.65215 0.16345 0.78406 0.0
H342 H 0.6357 0.25126 0.83648 0.0
H343 H 0.56871 0.25678 0.82461 0.0
C344 C 0.45825 0.31681 0.71721 0.0
C345 C 0.46259 0.35325 0.72702 0.0
C346 C 0.4645 0.28472 0.73132 0.0
C347 C 0.47487 0.28835 0.75558 0.0
C348 C 0.47896 0.32464 0.76548 0.0
C349 C 0.47274 0.35679 0.75138 0.0
C350 C 0.48349 0.25417 0.77009 0.0
C351 C 0.51976 0.25053 0.78006 0.0
C352 C 0.45774 0.2237 0.77199 0.0
C353 C 0.41875 0.22608 0.76229 0.0
C354 C 0.39433 0.25542 0.76945 0.0
C355 C 0.35778 0.25768 0.76 0.0
C356 C 0.34532 0.23074 0.74339 0.0
C357 C 0.36938 0.20145 0.73622 0.0
C358 C 0.4059 0.19901 0.74565 0.0
C359 C 0.54957 0.10339 0.82673 0.0
C360 C 0.5463 0.07391 0.80986 0.0
C361 C 0.53611 0.13979 0.82117 0.0
C362 C 0.51904 0.14695 0.79877 0.0
C363 C 0.51499 0.11721 0.78233 0.0
C364 C 0.52844 0.08129 0.78776 0.0
C365 C 0.50658 0.18536 0.79142 0.0
C366 C 0.46954 0.18984 0.7828 0.0
C367 C 0.53188 0.21629 0.79027 0.0
C368 C 0.57199 0.2128 0.79754 0.0
C369 C 0.59599 0.18671 0.78603 0.0
C370 C 0.63385 0.18369 0.7929 0.0
C371 C 0.64812 0.20688 0.81112 0.0
C372 C 0.62457 0.23322 0.82243 0.0
C373 C 0.58666 0.2363 0.81565 0.0
H374 H 0.67745 0.20454 0.8164 0.0
H375 H 0.31705 0.23254 0.73606 0.0
H376 H 0.69753 0.51558 0.31077 0.0
H377 H 0.75427 0.50587 0.28651 0.0
H378 H 0.69108 0.53008 0.2221 0.0
H379 H 0.63395 0.54065 0.24642 0.0
H380 H 0.73933 0.45891 0.22298 0.0
H381 H 0.74668 0.59313 0.23252 0.0
H382 H 0.74232 0.65298 0.25519 0.0
H383 H 0.83126 0.61615 0.3021 0.0
H384 H 0.83577 0.55573 0.27991 0.0
H385 H 0.92315 0.44157 0.16587 0.0
H386 H 0.85801 0.46056 0.17585 0.0
H387 H 0.89257 0.48334 0.24888 0.0
H388 H 0.95705 0.46624 0.23876 0.0
H389 H 0.85303 0.53864 0.23487 0.0
H390 H 0.83686 0.4017 0.23117 0.0
H391 H 0.83817 0.33878 0.2119 0.0
H392 H 0.76603 0.3793 0.15552 0.0
H393 H 0.76395 0.44241 0.17463 0.0
C394 C 0.6957 0.51902 0.29145 0.0
C395 C 0.66136 0.52881 0.28047 0.0
C396 C 0.7281 0.51352 0.27764 0.0
C397 C 0.7267 0.51725 0.25258 0.0
C398 C 0.69255 0.52708 0.24145 0.0
C399 C 0.66012 0.53329 0.25535 0.0
C400 C 0.76132 0.51026 0.2384 0.0
C401 C 0.76404 0.47683 0.2249 0.0
C402 C 0.79347 0.53337 0.24137 0.0
C403 C 0.7914 0.56982 0.25462 0.0
C404 C 0.76516 0.59769 0.24775 0.0
C405 C 0.76268 0.63171 0.2605 0.0
C406 C 0.78642 0.63829 0.2801 0.0
C407 C 0.81285 0.61094 0.28693 0.0
C408 C 0.81539 0.5768 0.27426 0.0
C409 C 0.91651 0.45034 0.18405 0.0
C410 C 0.94507 0.45272 0.2015 0.0
C411 C 0.87936 0.46112 0.18977 0.0
C412 C 0.87029 0.4735 0.21316 0.0
C413 C 0.89879 0.47447 0.23065 0.0
C414 C 0.93568 0.46452 0.22486 0.0
C415 C 0.83171 0.48656 0.21983 0.0
C416 C 0.82821 0.52123 0.23208 0.0
C417 C 0.79896 0.46444 0.21578 0.0
C418 C 0.80067 0.42681 0.20412 0.0
C419 C 0.82154 0.39724 0.21456 0.0
C420 C 0.82237 0.36155 0.2037 0.0
C421 C 0.80251 0.35513 0.18239 0.0
C422 C 0.78152 0.38434 0.17198 0.0
C423 C 0.78039 0.42003 0.18285 0.0
H424 H 0.80325 0.32747 0.17401 0.0
H425 H 0.78427 0.66458 0.28999 0.0
H426 H 0.00913 0.95846 0.73372 0.0
H427 H 0.00109 0.8935 0.74693 0.0
H428 H 0.06541 0.85366 0.68627 0.0
H429 H 0.07419 0.91957 0.67269 0.0
H430 H 0.99663 0.81126 0.69662 0.0
H431 H 0.10567 0.85812 0.73762 0.0
H432 H 0.13962 0.90701 0.76065 0.0
H433 H 0.06378 0.89194 0.82001 0.0
H434 H 0.02768 0.84483 0.79684 0.0
H435 H 0.99044 0.63087 0.7562 0.0
H436 H 0.0109 0.68726 0.73441 0.0
H437 H 0.97088 0.75768 0.79251 0.0
H438 H 0.95117 0.70142 0.81466 0.0
H439 H 0.03853 0.7797 0.7793 0.0
H440 H 0.92293 0.74887 0.73805 0.0
H441 H 0.87921 0.70791 0.71536 0.0
H442 H 0.96118 0.69651 0.65888 0.0
H443 H 0.00559 0.73705 0.6814 0.0
C444 C 0.02134 0.93607 0.7229 0.0
C445 C 0.04217 0.94427 0.70203 0.0
C446 C 0.01675 0.89893 0.73059 0.0
C447 C 0.03269 0.86891 0.71769 0.0
C448 C 0.05285 0.87656 0.69648 0.0
C449 C 0.05793 0.91412 0.68881 0.0
C450 C 0.02854 0.82998 0.7273 0.0
C451 C 0.00663 0.80385 0.71443 0.0
C452 C 0.04075 0.82094 0.75086 0.0
C453 C 0.06381 0.84782 0.76538 0.0
C454 C 0.09603 0.86529 0.75553 0.0
C455 C 0.11567 0.89277 0.76861 0.0
C456 C 0.10416 0.90225 0.79185 0.0
C457 C 0.07277 0.88447 0.80202 0.0
C458 C 0.05256 0.85749 0.78887 0.0
C459 C 0.98564 0.65837 0.76427 0.0
C460 C 0.96916 0.66158 0.78723 0.0
C461 C 0.99736 0.69063 0.75174 0.0
C462 C 0.99237 0.72681 0.76175 0.0
C463 C 0.97528 0.73009 0.78446 0.0
C464 C 0.96383 0.69787 0.79707 0.0
C465 C 0.00554 0.76135 0.74894 0.0
C466 C 0.02927 0.78663 0.76125 0.0
C467 C 0.99439 0.76992 0.72509 0.0
C468 C 0.96775 0.74558 0.71154 0.0
C469 C 0.93175 0.73736 0.72088 0.0
C470 C 0.90682 0.71428 0.70804 0.0
C471 C 0.91746 0.69951 0.68573 0.0
C472 C 0.95301 0.7079 0.67619 0.0
C473 C 0.97806 0.73094 0.68897 0.0
H474 H 0.89813 0.68165 0.67581 0.0
H475 H 0.11949 0.92347 0.80193 0.0
H476 H 0.58409 0.09381 0.20734 0.0
H477 H 0.64772 0.07462 0.21961 0.0
H478 H 0.62499 0.96068 0.19538 0.0
H479 H 0.56068 0.97938 0.18482 0.0
H480 H 0.65382 0.95411 0.23501 0.0
H481 H 0.69188 0.02468 0.16714 0.0
H482 H 0.69539 0.07862 0.13914 0.0
H483 H 0.74283 0.14809 0.19482 0.0
H484 H 0.73912 0.09472 0.22326 0.0
H485 H 0.8756 0.96417 0.25027 0.0
H486 H 0.81875 0.97418 0.22616 0.0
H487 H 0.75059 0.97035 0.29044 0.0
H488 H 0.807 0.95919 0.31452 0.0
H489 H 0.77116 0.02885 0.22452 0.0
H490 H 0.66364 0.937 0.27942 0.0
H491 H 0.66322 0.87675 0.30177 0.0
H492 H 0.75974 0.83839 0.26181 0.0
H493 H 0.76034 0.89807 0.23889 0.0
C494 C 0.5932 0.06496 0.20413 0.0
C495 C 0.56783 0.0381 0.19501 0.0
C496 C 0.62961 0.05392 0.21108 0.0
C497 C 0.64159 0.0161 0.20831 0.0
C498 C 0.61661 0.98987 0.19793 0.0
C499 C 0.57997 1.00063 0.19166 0.0
C500 C 0.67867 0.00312 0.2181 0.0
C501 C 0.67946 0.97042 0.23252 0.0
C502 C 0.71265 0.02348 0.21441 0.0
C503 C 0.71496 0.05574 0.19739 0.0
C504 C 0.70281 0.05154 0.17347 0.0
C505 C 0.70488 0.082 0.15751 0.0
C506 C 0.71925 0.11678 0.16521 0.0
C507 C 0.73167 0.12114 0.18888 0.0
C508 C 0.72965 0.09077 0.20492 0.0
C509 C 0.84846 0.96509 0.25926 0.0
C510 C 0.84591 0.96085 0.28436 0.0
C511 C 0.81597 0.97095 0.24543 0.0
C512 C 0.78026 0.97274 0.25639 0.0
C513 C 0.77767 0.96834 0.28144 0.0
C514 C 0.81005 0.96213 0.29524 0.0
C515 C 0.74581 0.98069 0.24191 0.0
C516 C 0.74553 0.0124 0.22669 0.0
C517 C 0.71269 0.95848 0.24402 0.0
C518 C 0.71227 0.92228 0.25761 0.0
C519 C 0.68468 0.91567 0.27532 0.0
C520 C 0.68442 0.88159 0.28809 0.0
C521 C 0.71154 0.85383 0.28328 0.0
C522 C 0.73886 0.85999 0.26559 0.0
C523 C 0.73919 0.89395 0.25272 0.0
H524 H 0.71135 0.82752 0.29323 0.0
H525 H 0.72083 0.14033 0.15283 0.0
H526 H 0.40083 0.57872 0.72652 0.0
H527 H 0.42032 0.64241 0.73802 0.0
H528 H 0.49062 0.64927 0.6748 0.0
H529 H 0.47075 0.58499 0.66305 0.0
H530 H 0.52879 0.66666 0.71772 0.0
H531 H 0.41516 0.70377 0.67761 0.0
H532 H 0.34727 0.70047 0.66795 0.0
H533 H 0.31945 0.72678 0.7412 0.0
H534 H 0.38717 0.72961 0.75143 0.0
H535 H 0.51223 0.88151 0.74982 0.0
H536 H 0.4964 0.82566 0.72622 0.0
H537 H 0.5306 0.75384 0.78492 0.0
H538 H 0.54651 0.80992 0.80894 0.0
H539 H 0.44271 0.77307 0.73767 0.0
H540 H 0.566 0.66983 0.75828 0.0
H541 H 0.6341 0.672 0.76754 0.0
H542 H 0.64341 0.77905 0.73158 0.0
H543 H 0.57556 0.77719 0.72168 0.0
C544 C 0.41975 0.59417 0.71476 0.0
C545 C 0.43421 0.57716 0.69385 0.0
C546 C 0.43087 0.63053 0.72136 0.0
C547 C 0.45691 0.65056 0.70727 0.0
C548 C 0.47044 0.63422 0.68587 0.0
C549 C 0.45882 0.5978 0.67905 0.0
C550 C 0.47159 0.68733 0.71609 0.0
C551 C 0.51009 0.69012 0.72189 0.0
C552 C 0.44712 0.71786 0.72146 0.0
C553 C 0.4063 0.71672 0.7153 0.0
C554 C 0.39458 0.70863 0.6917 0.0
C555 C 0.35611 0.70686 0.68612 0.0
C556 C 0.32906 0.71336 0.70396 0.0
C557 C 0.34043 0.72179 0.7274 0.0
C558 C 0.37886 0.7235 0.73309 0.0
C559 C 0.51676 0.8539 0.75775 0.0
C560 C 0.53045 0.85026 0.7814 0.0
C561 C 0.5076 0.82198 0.74418 0.0
C562 C 0.51236 0.78564 0.75377 0.0
C563 C 0.527 0.78168 0.77711 0.0
C564 C 0.53592 0.81373 0.79085 0.0
C565 C 0.4998 0.75215 0.73981 0.0
C566 C 0.46158 0.74988 0.73321 0.0
C567 C 0.52457 0.72217 0.73372 0.0
C568 C 0.56552 0.72354 0.73947 0.0
C569 C 0.58258 0.69378 0.75227 0.0
C570 C 0.62116 0.69495 0.75763 0.0
C571 C 0.64304 0.72571 0.75023 0.0
C572 C 0.6264 0.75531 0.73739 0.0
C573 C 0.58786 0.75423 0.73193 0.0
H574 H 0.6729 0.72656 0.75439 0.0
H575 H 0.2993 0.7119 0.69962 0.0
H576 H 0.86127 0.55898 0.75115 0.0
H577 H 0.80497 0.54652 0.7267 0.0
H578 H 0.7428 0.51706 0.79074 0.0
H579 H 0.79876 0.52867 0.81506 0.0
H580 H 0.73304 0.46482 0.75798 0.0
H581 H 0.72689 0.60118 0.76076 0.0
H582 H 0.75061 0.66621 0.75511 0.0
H583 H 0.76502 0.64518 0.67962 0.0
H584 H 0.74159 0.57989 0.68489 0.0
H585 H 0.54172 0.52873 0.71237 0.0
H586 H 0.60631 0.54428 0.72312 0.0
H587 H 0.64506 0.43983 0.69122 0.0
H588 H 0.57973 0.42335 0.68088 0.0
H589 H 0.67178 0.55596 0.70255 0.0
H590 H 0.71472 0.40391 0.7276 0.0
H591 H 0.68516 0.34297 0.73844 0.0
H592 H 0.58874 0.40182 0.76685 0.0
H593 H 0.61799 0.46305 0.75651 0.0
C594 C 0.83543 0.55033 0.76 0.0
C595 C 0.83451 0.54449 0.785 0.0
C596 C 0.80331 0.54319 0.74602 0.0
C597 C 0.76974 0.53061 0.75688 0.0
C598 C 0.76851 0.52626 0.78192 0.0
C599 C 0.8005 0.53306 0.79582 0.0
C600 C 0.736 0.5206 0.7424 0.0
C601 C 0.71987 0.48466 0.74568 0.0
C602 C 0.71868 0.54646 0.72645 0.0
C603 C 0.73296 0.58556 0.72326 0.0
C604 C 0.73542 0.61034 0.743 0.0
C605 C 0.74872 0.64726 0.73986 0.0
C606 C 0.75946 0.65977 0.71704 0.0
C607 C 0.75677 0.63542 0.6973 0.0
C608 C 0.74344 0.59848 0.70034 0.0
C609 C 0.56391 0.50906 0.70741 0.0
C610 C 0.55543 0.47434 0.69622 0.0
C611 C 0.60097 0.51824 0.71339 0.0
C612 C 0.63049 0.49302 0.70829 0.0
C613 C 0.62258 0.45947 0.69563 0.0
C614 C 0.58527 0.45011 0.6897 0.0
C615 C 0.66844 0.50051 0.71855 0.0
C616 C 0.68548 0.53583 0.71441 0.0
C617 C 0.68597 0.47459 0.7344 0.0
C618 C 0.66831 0.43796 0.74096 0.0
C619 C 0.68725 0.4038 0.7362 0.0
C620 C 0.67056 0.36923 0.74227 0.0
C621 C 0.63502 0.36852 0.75323 0.0
C622 C 0.61619 0.40239 0.75827 0.0
C623 C 0.6328 0.43703 0.7523 0.0
H624 H 0.62213 0.34173 0.75787 0.0
H625 H 0.76977 0.68836 0.71464 0.0
H626 H 0.02585 0.54878 0.22991 0.0
H627 H 0.00349 0.61214 0.23847 0.0
H628 H 0.04964 0.65167 0.17127 0.0
H629 H 0.07264 0.58715 0.1624 0.0
H630 H 0.0674 0.69889 0.2095 0.0
H631 H 0.95775 0.64704 0.17641 0.0
H632 H 0.90668 0.60168 0.16787 0.0
H633 H 0.86827 0.61012 0.24086 0.0
H634 H 0.9197 0.65463 0.2501 0.0
H635 H 0.97077 0.87097 0.24795 0.0
H636 H 0.98274 0.81591 0.22208 0.0
H637 H 0.98007 0.74297 0.28413 0.0
H638 H 0.96939 0.79804 0.31021 0.0
H639 H 0.93596 0.72025 0.2377 0.0
H640 H 0.05909 0.76142 0.26988 0.0
H641 H 0.10703 0.81113 0.27601 0.0
H642 H 0.1155 0.827 0.1997 0.0
H643 H 0.06704 0.77779 0.19316 0.0
C644 C 0.03138 0.57077 0.21682 0.0
C645 C 0.05135 0.56292 0.19551 0.0
C646 C 0.0182 0.60704 0.22169 0.0
C647 C 0.02446 0.63659 0.20541 0.0
C648 C 0.04434 0.62914 0.18401 0.0
C649 C 0.05738 0.59236 0.17895 0.0
C650 C 0.01138 0.67519 0.21194 0.0
C651 C 0.03843 0.70386 0.21504 0.0
C652 C 0.97352 0.6818 0.21918 0.0
C653 C 0.94289 0.65414 0.21398 0.0
C654 C 0.93876 0.63887 0.19076 0.0
C655 C 0.90968 0.61329 0.18578 0.0
C656 C 0.88427 0.60295 0.20382 0.0
C657 C 0.888 0.61805 0.22691 0.0
C658 C 0.91715 0.64348 0.23203 0.0
C659 C 0.97237 0.84312 0.25602 0.0
C660 C 0.96935 0.83863 0.28107 0.0
C661 C 0.97923 0.81182 0.24124 0.0
C662 C 0.98229 0.77558 0.25127 0.0
C663 C 0.97773 0.77083 0.27613 0.0
C664 C 0.97183 0.8022 0.29098 0.0
C665 C 0.99229 0.74266 0.23615 0.0
C666 C 0.96463 0.71533 0.23153 0.0
C667 C 0.02928 0.73756 0.22713 0.0
C668 C 0.05916 0.76627 0.23105 0.0
C669 C 0.07096 0.77572 0.25442 0.0
C670 C 0.09825 0.80377 0.25797 0.0
C671 C 0.11422 0.8223 0.23826 0.0
C672 C 0.10305 0.81268 0.21495 0.0
C673 C 0.07569 0.7847 0.21131 0.0
H674 H 0.13532 0.84403 0.24105 0.0
H675 H 0.86161 0.58337 0.19985 0.0
H676 H 0.92885 0.08202 0.72954 0.0
H677 H 0.86638 0.05709 0.73843 0.0
H678 H 0.85919 0.01026 0.66698 0.0
H679 H 0.92248 0.03568 0.65775 0.0
H680 H 0.78784 0.04573 0.68854 0.0
H681 H 0.88111 0.94806 0.70521 0.0
H682 H 0.94066 0.92333 0.72173 0.0
H683 H 0.9097 0.96312 0.79204 0.0
H684 H 0.84969 0.9878 0.77589 0.0
H685 H 0.63312 0.94605 0.74564 0.0
H686 H 0.68865 0.95592 0.71997 0.0
H687 H 0.75021 0.9995 0.78092 0.0
H688 H 0.69545 0.98947 0.80655 0.0
H689 H 0.79243 0.9522 0.755 0.0
H690 H 0.70819 0.05832 0.74053 0.0
H691 H 0.64829 0.08758 0.72759 0.0
H692 H 0.66187 0.03937 0.65722 0.0
H693 H 0.72168 0.0094 0.66987 0.0
C694 C 0.91381 0.067 0.71551 0.0
C695 C 0.93066 0.06039 0.69303 0.0
C696 C 0.87812 0.05278 0.72064 0.0
C697 C 0.8586 0.03131 0.70351 0.0
C698 C 0.87404 0.02669 0.68043 0.0
C699 C 0.91001 0.04126 0.67518 0.0
C700 C 0.82373 0.01157 0.711 0.0
C701 C 0.78868 0.02446 0.70258 0.0
C702 C 0.82494 0.98444 0.72964 0.0
C703 C 0.86108 0.96986 0.73932 0.0
C704 C 0.88714 0.9517 0.72416 0.0
C705 C 0.92096 0.93764 0.73349 0.0
C706 C 0.92913 0.94186 0.75794 0.0
C707 C 0.90336 0.9599 0.77312 0.0
C708 C 0.86937 0.97376 0.76391 0.0
C709 C 0.65869 0.9573 0.75359 0.0
C710 C 0.65987 0.96733 0.77807 0.0
C711 C 0.69023 0.96312 0.73887 0.0
C712 C 0.7233 0.97885 0.74851 0.0
C713 C 0.7249 0.98741 0.77311 0.0
C714 C 0.69352 0.98177 0.78773 0.0
C715 C 0.75649 0.98745 0.73331 0.0
C716 C 0.79133 0.97239 0.74032 0.0
C717 C 0.75492 0.01318 0.71383 0.0
C718 C 0.71907 0.03119 0.70623 0.0
C719 C 0.69821 0.05368 0.72236 0.0
C720 C 0.66433 0.07045 0.71507 0.0
C721 C 0.65121 0.06522 0.69162 0.0
C722 C 0.67202 0.04331 0.67539 0.0
C723 C 0.70591 0.02642 0.68261 0.0
H724 H 0.62497 0.07824 0.686 0.0
H725 H 0.95531 0.93115 0.76524 0.0
H726 H 0.50348 0.94916 0.22152 0.0
H727 H 0.52636 0.88667 0.23218 0.0
H728 H 0.45827 0.83734 0.176 0.0
H729 H 0.43472 0.90087 0.16519 0.0
H730 H 0.44709 0.80349 0.21969 0.0
H731 H 0.55483 0.83681 0.17211 0.0
H732 H 0.60729 0.87714 0.15821 0.0
H733 H 0.65626 0.8748 0.22875 0.0
H734 H 0.60378 0.83514 0.24325 0.0
H735 H 0.56344 0.62993 0.25169 0.0
H736 H 0.55292 0.68562 0.22631 0.0
H737 H 0.51552 0.7488 0.28824 0.0
H738 H 0.52697 0.69351 0.31392 0.0
H739 H 0.58106 0.76804 0.23353 0.0
H740 H 0.42816 0.78512 0.26524 0.0
H741 H 0.3768 0.74588 0.2819 0.0
H742 H 0.41955 0.64887 0.24406 0.0
H743 H 0.47067 0.68771 0.2268 0.0
C744 C 0.49368 0.92511 0.21115 0.0
C745 C 0.46701 0.92977 0.19267 0.0
C746 C 0.50711 0.88938 0.21715 0.0
C747 C 0.49433 0.85732 0.20479 0.0
C748 C 0.46864 0.86183 0.18567 0.0
C749 C 0.45533 0.89799 0.17945 0.0
C750 C 0.50518 0.81931 0.21377 0.0
C751 C 0.4764 0.79549 0.22229 0.0
C752 C 0.54349 0.80903 0.21747 0.0
C753 C 0.57522 0.83297 0.20877 0.0
C754 C 0.57663 0.84509 0.18472 0.0
C755 C 0.60641 0.86784 0.17673 0.0
C756 C 0.63512 0.87846 0.19258 0.0
C757 C 0.63405 0.8665 0.21649 0.0
C758 C 0.6043 0.84383 0.22459 0.0
C759 C 0.55354 0.65591 0.25995 0.0
C760 C 0.54591 0.65745 0.28475 0.0
C761 C 0.54767 0.68762 0.24545 0.0
C762 C 0.53322 0.72103 0.25544 0.0
C763 C 0.52662 0.72309 0.28028 0.0
C764 C 0.53329 0.69162 0.2949 0.0
C765 C 0.52302 0.75316 0.23975 0.0
C766 C 0.55185 0.77582 0.23029 0.0
C767 C 0.48486 0.7626 0.23533 0.0
C768 C 0.45346 0.73926 0.24493 0.0
C769 C 0.42645 0.75548 0.26036 0.0
C770 C 0.39739 0.7333 0.26991 0.0
C771 C 0.39498 0.69488 0.2641 0.0
C772 C 0.42152 0.6786 0.24861 0.0
C773 C 0.45056 0.70068 0.23896 0.0
H774 H 0.37253 0.67773 0.27156 0.0
H775 H 0.65819 0.89601 0.18636 0.0
H776 H 0.30061 0.49979 0.70201 0.0
H777 H 0.24757 0.51215 0.72877 0.0
H778 H 0.30478 0.45372 0.78621 0.0
H779 H 0.3584 0.44097 0.75942 0.0
H780 H 0.22806 0.43645 0.78343 0.0
H781 H 0.30538 0.54574 0.78798 0.0
H782 H 0.34492 0.59691 0.77144 0.0
H783 H 0.2487 0.64296 0.73472 0.0
H784 H 0.20868 0.59162 0.75064 0.0
H785 H 0.0811 0.5812 0.84088 0.0
H786 H 0.14709 0.56364 0.83247 0.0
H787 H 0.10889 0.48259 0.77976 0.0
H788 H 0.044 0.4986 0.78851 0.0
H789 H 0.1868 0.57006 0.79265 0.0
H790 H 0.16208 0.41036 0.77329 0.0
H791 H 0.12196 0.3587 0.78846 0.0
H792 H 0.11557 0.41299 0.85743 0.0
H793 H 0.1557 0.46508 0.84266 0.0
C794 C 0.30197 0.48927 0.72027 0.0
C795 C 0.33399 0.46974 0.72863 0.0
C796 C 0.27165 0.49653 0.73557 0.0
C797 C 0.27266 0.48455 0.75958 0.0
C798 C 0.3037 0.4635 0.76778 0.0
C799 C 0.33424 0.45624 0.75244 0.0
C800 C 0.24118 0.4947 0.77589 0.0
C801 C 0.21923 0.46563 0.78579 0.0
C802 C 0.2304 0.53289 0.77945 0.0
C803 C 0.25402 0.56468 0.77047 0.0
C804 C 0.29264 0.56669 0.77631 0.0
C805 C 0.31516 0.59571 0.76703 0.0
C806 C 0.29933 0.62313 0.75203 0.0
C807 C 0.2609 0.62169 0.74636 0.0
C808 C 0.23827 0.59265 0.75554 0.0
C809 C 0.0869 0.5593 0.82775 0.0
C810 C 0.05719 0.54127 0.81547 0.0
C811 C 0.12455 0.5493 0.82296 0.0
C812 C 0.13296 0.52115 0.80587 0.0
C813 C 0.10326 0.50344 0.7936 0.0
C814 C 0.06596 0.513 0.79851 0.0
C815 C 0.17249 0.51168 0.79921 0.0
C816 C 0.19607 0.5409 0.79104 0.0
C817 C 0.18498 0.4736 0.79749 0.0
C818 C 0.16198 0.44165 0.80684 0.0
C819 C 0.15247 0.41111 0.79177 0.0
C820 C 0.1296 0.38179 0.80028 0.0
C821 C 0.11631 0.38246 0.82392 0.0
C822 C 0.12587 0.4125 0.83911 0.0
C823 C 0.14861 0.44199 0.83066 0.0
H824 H 0.09856 0.35975 0.83045 0.0
H825 H 0.31685 0.64547 0.7448 0.0
H826 H 0.04002 0.30006 0.19493 0.0
H827 H 0.02202 0.24414 0.21802 0.0
H828 H 0.02208 0.3102 0.28322 0.0
H829 H 0.04012 0.36644 0.26031 0.0
H830 H 0.05298 0.23627 0.28888 0.0
H831 H 0.94228 0.2965 0.25828 0.0
H832 H 0.90343 0.32633 0.22687 0.0
H833 H 0.90086 0.22169 0.18754 0.0
H834 H 0.94073 0.1915 0.21841 0.0
H835 H 0.94823 0.08322 0.34575 0.0
H836 H 0.96168 0.14882 0.33289 0.0
H837 H 0.97548 0.11011 0.25984 0.0
H838 H 0.96307 0.04538 0.27253 0.0
H839 H 0.93181 0.1771 0.26431 0.0
H840 H 0.05037 0.1212 0.29055 0.0
H841 H 0.09195 0.09075 0.32036 0.0
H842 H 0.07945 0.18653 0.36733 0.0
H843 H 0.03726 0.21728 0.33789 0.0
C844 C 0.03674 0.30268 0.21421 0.0
C845 C 0.04104 0.33789 0.2257 0.0
C846 C 0.02638 0.27069 0.22738 0.0
C847 C 0.02019 0.27323 0.25226 0.0
C848 C 0.02658 0.30773 0.26402 0.0
C849 C 0.03674 0.33985 0.25085 0.0
C850 C 0.00462 0.24042 0.26554 0.0
C851 C 0.02614 0.22375 0.28388 0.0
C852 C 0.96963 0.22409 0.25892 0.0
C853 C 0.94477 0.24181 0.2406 0.0
C854 C 0.93366 0.2799 0.24286 0.0
C855 C 0.91144 0.29688 0.22514 0.0
C856 C 0.89965 0.27592 0.2052 0.0
C857 C 0.91002 0.2379 0.20298 0.0
C858 C 0.93247 0.22084 0.22059 0.0
C859 C 0.95373 0.08905 0.32697 0.0
C860 C 0.95494 0.05944 0.31014 0.0
C861 C 0.96148 0.1263 0.31966 0.0
C862 C 0.96962 0.13415 0.29542 0.0
C863 C 0.96918 0.10467 0.27859 0.0
C864 C 0.96229 0.06771 0.28589 0.0
C865 C 0.9806 0.17242 0.2872 0.0
C866 C 0.9582 0.19016 0.26974 0.0
C867 C 0.01476 0.18961 0.29458 0.0
C868 C 0.04026 0.17129 0.31219 0.0
C869 C 0.0562 0.1356 0.30734 0.0
C870 C 0.07993 0.11831 0.32414 0.0
C871 C 0.08824 0.13664 0.34577 0.0
C872 C 0.07291 0.17233 0.35059 0.0
C873 C 0.04908 0.18969 0.33386 0.0
H874 H 0.10663 0.12323 0.35876 0.0
H875 H 0.88246 0.28911 0.19148 0.0
H876 H 0.45184 0.01349 0.78313 0.0
H877 H 0.3872 0.02833 0.77337 0.0
H878 H 0.34823 0.94552 0.82466 0.0
H879 H 0.41417 0.92896 0.83402 0.0
H880 H 0.31097 0.93888 0.78415 0.0
H881 H 0.33965 0.04381 0.83436 0.0
H882 H 0.3772 0.09732 0.84976 0.0
H883 H 0.36647 0.15415 0.78199 0.0
H884 H 0.32962 0.10068 0.76591 0.0
H885 H 0.12503 0.0066 0.75483 0.0
H886 H 0.18186 0.9925 0.7782 0.0
H887 H 0.24938 0.05423 0.72698 0.0
H888 H 0.1927 0.06837 0.7034 0.0
H889 H 0.266 0.07121 0.77538 0.0
H890 H 0.24698 0.96313 0.72388 0.0
H891 H 0.21373 0.90802 0.70687 0.0
H892 H 0.20827 0.85704 0.77679 0.0
H893 H 0.24066 0.91235 0.79435 0.0
C894 C 0.42978 0.9984 0.79262 0.0
C895 C 0.43837 0.96986 0.80942 0.0
C896 C 0.39258 0.00732 0.78712 0.0
C897 C 0.36271 0.98878 0.79868 0.0
C898 C 0.3709 0.96048 0.81569 0.0
C899 C 0.40852 0.95106 0.82104 0.0
C900 C 0.32333 0.99751 0.79134 0.0
C901 C 0.30067 0.96775 0.78291 0.0
C902 C 0.31024 0.03533 0.78918 0.0
C903 C 0.33195 0.068 0.79889 0.0
C904 C 0.34549 0.06758 0.82266 0.0
C905 C 0.3667 0.09793 0.8315 0.0
C906 C 0.37434 0.12906 0.81681 0.0
C907 C 0.36064 0.12997 0.79329 0.0
C908 C 0.33954 0.09966 0.78432 0.0
C909 C 0.15193 0.01751 0.74866 0.0
C910 C 0.15446 0.03858 0.72726 0.0
C911 C 0.18434 0.00925 0.76197 0.0
C912 C 0.21972 0.02224 0.75424 0.0
C913 C 0.22224 0.04406 0.73323 0.0
C914 C 0.18992 0.05196 0.71974 0.0
C915 C 0.25439 0.01267 0.76777 0.0
C916 C 0.276 0.04233 0.7773 0.0
C917 C 0.26651 0.97482 0.77093 0.0
C918 C 0.24574 0.94221 0.7605 0.0
C919 C 0.23815 0.94049 0.73571 0.0
C920 C 0.2196 0.90912 0.72594 0.0
C921 C 0.20893 0.87902 0.74073 0.0
C922 C 0.21664 0.88033 0.76535 0.0
C923 C 0.23494 0.91175 0.77523 0.0
H924 H 0.1946 0.85475 0.73314 0.0
H925 H 0.39081 0.1525 0.82367 0.0
H926 H 0.56124 0.40637 0.34659 0.0
H927 H 0.53894 0.34215 0.33655 0.0
H928 H 0.49605 0.38341 0.26891 0.0
H929 H 0.5171 0.44663 0.27881 0.0
H930 H 0.4472 0.33512 0.28839 0.0
H931 H 0.58233 0.34111 0.27286 0.0
H932 H 0.64904 0.34998 0.28435 0.0
H933 H 0.63985 0.25958 0.33554 0.0
H934 H 0.57289 0.25051 0.32454 0.0
H935 H 0.45064 0.19174 0.20021 0.0
H936 H 0.4601 0.24766 0.22545 0.0
H937 H 0.49414 0.17634 0.28447 0.0
H938 H 0.48509 0.12035 0.25938 0.0
H939 H 0.54302 0.23396 0.27793 0.0
H940 H 0.40986 0.22015 0.28595 0.0
H941 H 0.34444 0.21121 0.27189 0.0
H942 H 0.34972 0.3165 0.23358 0.0
H943 H 0.41539 0.32585 0.2471 0.0
C944 C 0.5467 0.40166 0.32973 0.0
C945 C 0.5415 0.43151 0.31337 0.0
C946 C 0.53404 0.36503 0.32399 0.0
C947 C 0.51598 0.35797 0.30189 0.0
C948 C 0.50976 0.38808 0.28607 0.0
C949 C 0.52223 0.42429 0.29172 0.0
C950 C 0.50531 0.31927 0.294 0.0
C951 C 0.46806 0.31288 0.28626 0.0
C952 C 0.53237 0.29004 0.29151 0.0
C953 C 0.57253 0.29549 0.29814 0.0
C954 C 0.59447 0.32335 0.28672 0.0
C955 C 0.63232 0.32838 0.29311 0.0
C956 C 0.64864 0.30545 0.31073 0.0
C957 C 0.62715 0.27738 0.32195 0.0
C958 C 0.58925 0.27229 0.31565 0.0
C959 C 0.45989 0.18791 0.2186 0.0
C960 C 0.46723 0.15154 0.22771 0.0
C961 C 0.4651 0.21989 0.23306 0.0
C962 C 0.47756 0.21613 0.25692 0.0
C963 C 0.48447 0.17988 0.26614 0.0
C964 C 0.47918 0.14791 0.25174 0.0
C965 C 0.48511 0.2502 0.27179 0.0
C966 C 0.52179 0.25569 0.28076 0.0
C967 C 0.45753 0.2787 0.27527 0.0
C968 C 0.41774 0.27354 0.26741 0.0
C969 C 0.39719 0.2413 0.2744 0.0
C970 C 0.36003 0.23616 0.26653 0.0
C971 C 0.34297 0.26321 0.25179 0.0
C972 C 0.36298 0.29554 0.24498 0.0
C973 C 0.40017 0.3008 0.25277 0.0
H974 H 0.31423 0.25914 0.24568 0.0
H975 H 0.67796 0.30937 0.31565 0.0
H976 H 0.19301 0.4004 0.14661 0.0
H977 H 0.23897 0.34893 0.1429 0.0
H978 H 0.14884 0.26712 0.14652 0.0
H979 H 0.10253 0.3185 0.14994 0.0
H980 H 0.20993 0.25363 0.17915 0.0
H981 H 0.18992 0.27922 0.09501 0.0
H982 H 0.18657 0.3198 0.05906 0.0
H983 H 0.30307 0.35044 0.06811 0.0
H984 H 0.30697 0.31044 0.10434 0.0
H985 H 0.31605 0.0898 0.15559 0.0
H986 H 0.26909 0.14001 0.1518 0.0
H987 H 0.3576 0.22112 0.13838 0.0
H988 H 0.40491 0.17084 0.14175 0.0
H989 H 0.29728 0.23534 0.11028 0.0
H990 H 0.31921 0.21415 0.19368 0.0
H991 H 0.32599 0.17543 0.23026 0.0
H992 H 0.2101 0.14074 0.22463 0.0
H993 H 0.20282 0.17869 0.1877 0.0
C994 C 0.18286 0.37148 0.14624 0.0
C995 C 0.14404 0.36359 0.14843 0.0
C996 C 0.20919 0.3421 0.14412 0.0
C997 C 0.19733 0.3042 0.14443 0.0
C998 C 0.15858 0.29618 0.14624 0.0
C999 C 0.13214 0.32559 0.14799 0.0
C1000 C 0.22555 0.27301 0.14384 0.0
C1001 C 0.22861 0.24921 0.16394 0.0
C1002 C 0.25087 0.26819 0.12437 0.0
C1003 C 0.24862 0.29211 0.10253 0.0
C1004 C 0.21473 0.29486 0.08946 0.0
C1005 C 0.21275 0.31771 0.069 0.0
C1006 C 0.24455 0.33776 0.06133 0.0
C1007 C 0.27844 0.33493 0.07408 0.0
C1008 C 0.28056 0.31214 0.09457 0.0
C1009 C 0.32562 0.1182 0.15153 0.0
C1010 C 0.36437 0.12623 0.1491 0.0
C1011 C 0.29867 0.14696 0.14948 0.0
C1012 C 0.30982 0.18451 0.14523 0.0
C1013 C 0.34831 0.1924 0.14174 0.0
C1014 C 0.37535 0.16357 0.14368 0.0
C1015 C 0.2814 0.21562 0.14548 0.0
C1016 C 0.27847 0.23958 0.12545 0.0
C1017 C 0.25663 0.22108 0.16521 0.0
C1018 C 0.26057 0.19896 0.18777 0.0
C1019 C 0.29522 0.19808 0.20015 0.0
C1020 C 0.29916 0.17629 0.22096 0.0
C1021 C 0.26852 0.15558 0.22974 0.0
C1022 C 0.23383 0.15676 0.21778 0.0
C1023 C 0.22977 0.17842 0.19691 0.0
H1024 H 0.27164 0.13867 0.24583 0.0
H1025 H 0.24296 0.35543 0.04549 0.0
H1026 H 0.17841 0.09807 0.6466 0.0
H1027 H 0.2309 0.14274 0.64204 0.0
H1028 H 0.15253 0.23614 0.64539 0.0
H1029 H 0.10009 0.19191 0.64992 0.0
H1030 H 0.20567 0.24622 0.61037 0.0
H1031 H 0.20134 0.2115 0.6941 0.0
H1032 H 0.20218 0.16764 0.72854 0.0
H1033 H 0.31249 0.1287 0.708 0.0
H1034 H 0.3122 0.17214 0.67326 0.0
H1035 H 0.30974 0.4044 0.64957 0.0
H1036 H 0.26665 0.35112 0.64477 0.0
H1037 H 0.36131 0.27443 0.64079 0.0
H1038 H 0.40491 0.32784 0.64567 0.0
H1039 H 0.30603 0.25021 0.67256 0.0
H1040 H 0.31228 0.29184 0.59107 0.0
H1041 H 0.3106 0.33814 0.55797 0.0
H1042 H 0.19555 0.3656 0.57526 0.0
H1043 H 0.1967 0.31985 0.6087 0.0
C1044 C 0.1723 0.1281 0.64598 0.0
C1045 C 0.13504 0.14142 0.6486 0.0
C1046 C 0.20236 0.15358 0.64356 0.0
C1047 C 0.19564 0.19278 0.6436 0.0
C1048 C 0.15836 0.20603 0.64532 0.0
C1049 C 0.12841 0.18067 0.64794 0.0
C1050 C 0.22728 0.2203 0.64256 0.0
C1051 C 0.22754 0.24718 0.62401 0.0
C1052 C 0.25632 0.22097 0.66006 0.0
C1053 C 0.25652 0.1947 0.68087 0.0
C1054 C 0.22563 0.19333 0.69678 0.0
C1055 C 0.22606 0.16864 0.7164 0.0
C1056 C 0.25736 0.14538 0.72044 0.0
C1057 C 0.28827 0.14674 0.70483 0.0
C1058 C 0.28801 0.17142 0.68519 0.0
C1059 C 0.32153 0.3763 0.64736 0.0
C1060 C 0.36083 0.37045 0.64787 0.0
C1061 C 0.29681 0.34584 0.64457 0.0
C1062 C 0.31076 0.30881 0.64225 0.0
C1063 C 0.34997 0.3028 0.64247 0.0
C1064 C 0.37482 0.33339 0.64508 0.0
C1065 C 0.28402 0.27652 0.64057 0.0
C1066 C 0.28461 0.2488 0.65865 0.0
C1067 C 0.25559 0.27518 0.62272 0.0
C1068 C 0.25467 0.30256 0.60251 0.0
C1069 C 0.2867 0.30794 0.58793 0.0
C1070 C 0.28583 0.33406 0.56908 0.0
C1071 C 0.25301 0.35484 0.56454 0.0
C1072 C 0.22096 0.34948 0.5788 0.0
C1073 C 0.22169 0.32342 0.59769 0.0
H1074 H 0.25239 0.37506 0.54994 0.0
H1075 H 0.25772 0.12642 0.7357 0.0
H1076 H 0.90883 0.80886 0.3593 0.0
H1077 H 0.85953 0.76122 0.3628 0.0
H1078 H 0.77539 0.849 0.36924 0.0
H1079 H 0.82497 0.89735 0.36598 0.0
H1080 H 0.76233 0.78713 0.39992 0.0
H1081 H 0.78691 0.80847 0.31578 0.0
H1082 H 0.82819 0.81533 0.28032 0.0
H1083 H 0.86875 0.70174 0.28992 0.0
H1084 H 0.82821 0.69447 0.32573 0.0
H1085 H 0.60654 0.66897 0.36922 0.0
H1086 H 0.65383 0.71884 0.37265 0.0
H1087 H 0.74193 0.63801 0.35692 0.0
H1088 H 0.69464 0.58809 0.35279 0.0
H1089 H 0.75171 0.69857 0.33094 0.0
H1090 H 0.72734 0.6762 0.41456 0.0
H1091 H 0.68802 0.66911 0.45087 0.0
H1092 H 0.64854 0.78342 0.44321 0.0
H1093 H 0.68725 0.79103 0.40664 0.0
C1094 C 0.87993 0.81821 0.36178 0.0
C1095 C 0.8708 0.85699 0.36218 0.0
C1096 C 0.85175 0.79086 0.3637 0.0
C1097 C 0.81376 0.80158 0.36581 0.0
C1098 C 0.80458 0.84018 0.36751 0.0
C1099 C 0.83292 0.86774 0.36569 0.0
C1100 C 0.78381 0.77227 0.36498 0.0
C1101 C 0.75954 0.76808 0.38472 0.0
C1102 C 0.78084 0.74695 0.34533 0.0
C1103 C 0.8047 0.75101 0.32352 0.0
C1104 C 0.80479 0.78504 0.31041 0.0
C1105 C 0.82807 0.789 0.29025 0.0
C1106 C 0.85118 0.75903 0.28291 0.0
C1107 C 0.85093 0.72498 0.29567 0.0
C1108 C 0.8278 0.72092 0.31589 0.0
C1109 C 0.63602 0.66159 0.36687 0.0
C1110 C 0.64676 0.62441 0.36084 0.0
C1111 C 0.66309 0.69021 0.36888 0.0
C1112 C 0.70155 0.6822 0.36528 0.0
C1113 C 0.71244 0.64492 0.35979 0.0
C1114 C 0.68536 0.61634 0.35756 0.0
C1115 C 0.73023 0.71294 0.36607 0.0
C1116 C 0.75429 0.71754 0.3462 0.0
C1117 C 0.73304 0.73849 0.38566 0.0
C1118 C 0.70992 0.73406 0.40773 0.0
C1119 C 0.71006 0.69974 0.42051 0.0
C1120 C 0.68792 0.69564 0.44116 0.0
C1121 C 0.66571 0.72576 0.4493 0.0
C1122 C 0.66571 0.76009 0.43686 0.0
C1123 C 0.68777 0.76433 0.41619 0.0
H1124 H 0.64858 0.72252 0.46529 0.0
H1125 H 0.86923 0.76217 0.26733 0.0
H1126 H 0.68599 0.91561 0.86189 0.0
H1127 H 0.73363 0.86657 0.8677 0.0
H1128 H 0.64673 0.78105 0.86643 0.0
H1129 H 0.59857 0.83026 0.8612 0.0
H1130 H 0.6999 0.76369 0.89896 0.0
H1131 H 0.69892 0.80171 0.81614 0.0
H1132 H 0.70116 0.84802 0.78304 0.0
H1133 H 0.81276 0.88154 0.80447 0.0
H1134 H 0.81094 0.83582 0.83797 0.0
H1135 H 0.80968 0.60562 0.86234 0.0
H1136 H 0.76472 0.65754 0.86629 0.0
H1137 H 0.8567 0.73711 0.87133 0.0
H1138 H 0.9022 0.68506 0.86723 0.0
H1139 H 0.80306 0.75923 0.83855 0.0
H1140 H 0.80442 0.71728 0.92037 0.0
H1141 H 0.80054 0.6707 0.95324 0.0
H1142 H 0.68697 0.64311 0.93262 0.0
H1143 H 0.69034 0.68916 0.8994 0.0
C1144 C 0.67687 0.88641 0.86316 0.0
C1145 C 0.63845 0.87683 0.8609 0.0
C1146 C 0.70422 0.85836 0.86638 0.0
C1147 C 0.69391 0.82002 0.86695 0.0
C1148 C 0.6554 0.81044 0.86592 0.0
C1149 C 0.62788 0.8386 0.86296 0.0
C1150 C 0.72343 0.78998 0.86744 0.0
C1151 C 0.72223 0.76249 0.88561 0.0
C1152 C 0.75304 0.7888 0.85027 0.0
C1153 C 0.75464 0.81559 0.82973 0.0
C1154 C 0.72387 0.81909 0.81388 0.0
C1155 C 0.72506 0.84524 0.79504 0.0
C1156 C 0.75703 0.86781 0.7917 0.0
C1157 C 0.78798 0.86409 0.80711 0.0
C1158 C 0.7869 0.83804 0.82602 0.0
C1159 C 0.8205 0.63407 0.86463 0.0
C1160 C 0.85965 0.6411 0.86456 0.0
C1161 C 0.79466 0.66377 0.86695 0.0
C1162 C 0.80728 0.70124 0.86926 0.0
C1163 C 0.84633 0.7084 0.86962 0.0
C1164 C 0.8723 0.67858 0.86746 0.0
C1165 C 0.77952 0.73288 0.87007 0.0
C1166 C 0.78094 0.76061 0.85203 0.0
C1167 C 0.74994 0.73407 0.88722 0.0
C1168 C 0.74775 0.70648 0.90727 0.0
C1169 C 0.77871 0.70108 0.92273 0.0
C1170 C 0.77659 0.67481 0.94145 0.0
C1171 C 0.74356 0.6539 0.94499 0.0
C1172 C 0.71255 0.6593 0.92985 0.0
C1173 C 0.71453 0.68553 0.91109 0.0
H1174 H 0.74198 0.63357 0.95949 0.0
H1175 H 0.75785 0.88812 0.77715 0.0
H1176 H 0.02014 0.55777 0.9071 0.0
H1177 H 0.03579 0.54244 0.94881 0.0
H1178 H 0.92557 0.4927 0.95835 0.0
H1179 H 0.90952 0.50828 0.91689 0.0
H1180 H 0.94251 0.53732 0.9956 0.0
H1181 H 0.00461 0.43769 0.95225 0.0
H1182 H 0.04693 0.41065 0.92148 0.0
H1183 H 0.14151 0.46782 0.95332 0.0
H1184 H 0.09963 0.49568 0.9841 0.0
H1185 H 0.98011 0.44367 0.10698 0.0
H1186 H 0.96371 0.4583 0.06525 0.0
H1187 H 0.07326 0.50906 0.05483 0.0
H1188 H 0.09002 0.49428 0.09627 0.0
H1189 H 0.05626 0.46328 0.018 0.0
H1190 H 0.99399 0.56332 0.06111 0.0
H1191 H 0.95159 0.59053 0.09179 0.0
H1192 H 0.85724 0.53245 0.06032 0.0
H1193 H 0.89921 0.50444 0.02964 0.0
C1194 C 0.99928 0.54339 0.91801 0.0
C1195 C 0.96355 0.5343 0.90855 0.0
C1196 C 0.00831 0.53454 0.94188 0.0
C1197 C 0.98193 0.51618 0.95675 0.0
C1198 C 0.94637 0.50693 0.9473 0.0
C1199 C 0.93731 0.51575 0.92349 0.0
C1200 C 0.99108 0.50709 0.98224 0.0
C1201 C 0.96711 0.52069 1.00046 0.0
C1202 C 0.02359 0.48606 0.9887 0.0
C1203 C 0.04891 0.46907 0.97034 0.0
C1204 C 0.03438 0.44473 0.95259 0.0
C1205 C 0.0583 0.42922 0.93516 0.0
C1206 C 0.09687 0.43759 0.9354 0.0
C1207 C 0.11162 0.4614 0.95313 0.0
C1208 C 0.08781 0.47704 0.97059 0.0
C1209 C 0.00065 0.45814 0.09586 0.0
C1210 C 0.03641 0.46775 0.10507 0.0
C1211 C 0.99119 0.46657 0.07199 0.0
C1212 C 0.0172 0.48496 0.05687 0.0
C1213 C 0.05276 0.49476 0.06607 0.0
C1214 C 0.06222 0.4864 0.08988 0.0
C1215 C 0.00772 0.49357 0.03135 0.0
C1216 C 0.03163 0.47988 0.01313 0.0
C1217 C 0.97515 0.51449 0.02489 0.0
C1218 C 0.94982 0.53147 0.04323 0.0
C1219 C 0.96426 0.55611 0.06085 0.0
C1220 C 0.9403 0.57172 0.07822 0.0
C1221 C 0.90177 0.56314 0.07805 0.0
C1222 C 0.88711 0.53902 0.06046 0.0
C1223 C 0.91096 0.52329 0.04306 0.0
H1224 H 0.88326 0.57525 0.09151 0.0
H1225 H 0.11533 0.42557 0.92188 0.0
H1226 H 0.05286 0.97909 0.60713 0.0
H1227 H 0.03916 0.96267 0.56525 0.0
H1228 H 0.99169 0.0737 0.55394 0.0
H1229 H 0.0046 0.09007 0.59571 0.0
H1230 H 0.94906 0.02191 0.53268 0.0
H1231 H 0.08179 0.05068 0.53484 0.0
H1232 H 0.14743 0.04444 0.54913 0.0
H1233 H 0.14861 0.92761 0.52776 0.0
H1234 H 0.08276 0.93302 0.51363 0.0
H1235 H 0.94861 0.02177 0.40486 0.0
H1236 H 0.96211 0.03739 0.44687 0.0
H1237 H 0.00963 0.92619 0.45742 0.0
H1238 H 0.99692 0.91061 0.41548 0.0
H1239 H 0.05213 0.97756 0.47914 0.0
H1240 H 0.9195 0.9489 0.47676 0.0
H1241 H 0.85386 0.95516 0.46246 0.0
H1242 H 0.85248 0.0718 0.48425 0.0
H1243 H 0.91832 0.06636 0.49839 0.0
C1244 C 0.0393 0.99995 0.59578 0.0
C1245 C 0.03009 0.03601 0.60484 0.0
C1246 C 0.03166 0.99058 0.57177 0.0
C1247 C 0.01488 0.01714 0.55626 0.0
C1248 C 0.00472 0.05273 0.56546 0.0
C1249 C 0.01226 0.06207 0.58942 0.0
C1250 C 0.00826 0.00825 0.53037 0.0
C1251 C 0.97172 0.01264 0.52093 0.0
C1252 C 0.03758 0.99542 0.51503 0.0
C1253 C 0.07722 0.99216 0.52341 0.0
C1254 C 0.09595 0.02359 0.53335 0.0
C1255 C 0.13321 0.02021 0.5414 0.0
C1256 C 0.15215 0.98563 0.53941 0.0
C1257 C 0.13389 0.95437 0.52932 0.0
C1258 C 0.09661 0.95758 0.52127 0.0
C1259 C 0.9621 1.00069 0.41607 0.0
C1260 C 0.97142 0.96482 0.40674 0.0
C1261 C 0.96964 0.00959 0.44016 0.0
C1262 C 0.98639 0.98277 0.4555 0.0
C1263 C 0.99662 0.94736 0.44603 0.0
C1264 C 0.98921 0.93847 0.42199 0.0
C1265 C 0.99294 0.99127 0.48144 0.0
C1266 C 0.02946 0.98681 0.4909 0.0
C1267 C 0.9636 0.00403 0.49679 0.0
C1268 C 0.92396 0.00731 0.48841 0.0
C1269 C 0.90529 0.97595 0.47834 0.0
C1270 C 0.86803 0.97935 0.47029 0.0
C1271 C 0.84904 0.01388 0.47239 0.0
C1272 C 0.86724 0.04508 0.48261 0.0
C1273 C 0.90452 0.04185 0.49066 0.0
H1274 H 0.8202 0.01645 0.46614 0.0
H1275 H 0.18099 0.98307 0.54565 0.0
H1276 H 0.58467 0.01082 0.90951 0.0
H1277 H 0.57133 0.02315 0.95179 0.0
H1278 H 0.46561 0.96338 0.94558 0.0
H1279 H 0.47855 0.95118 0.90298 0.0
H1280 H 0.45778 0.02694 0.9725 0.0
H1281 H 0.54238 0.92098 0.97058 0.0
H1282 H 0.60016 0.88624 0.95921 0.0
H1283 H 0.66811 0.96943 0.99521 0.0
H1284 H 0.61073 0.005 0.00649 0.0
H1285 H 0.42323 0.99748 0.09584 0.0
H1286 H 0.43744 0.98708 0.05351 0.0
H1287 H 0.54195 0.04847 0.06133 0.0
H1288 H 0.52808 0.05885 0.10405 0.0
H1289 H 0.55094 0.98514 0.03362 0.0
H1290 H 0.46588 0.0906 0.03604 0.0
H1291 H 0.40788 0.12488 0.04748 0.0
H1292 H 0.34055 0.04215 0.0106 0.0
H1293 H 0.39815 0.00703 0.99924 0.0
C1294 C 0.5584 1.00044 0.917 0.0
C1295 C 0.53282 0.9797 0.90277 0.0
C1296 C 0.55092 0.0074 0.94129 0.0
C1297 C 0.51779 0.99362 0.95205 0.0
C1298 C 0.49148 0.97414 0.93773 0.0
C1299 C 0.49893 0.96716 0.91336 0.0
C1300 C 0.51106 0.999 0.9783 0.0
C1301 C 0.47793 0.01735 0.98586 0.0
C1302 C 0.53773 0.9873 0.99579 0.0
C1303 C 0.57227 0.96585 0.98917 0.0
C1304 C 0.56966 0.93203 0.97591 0.0
C1305 C 0.60233 0.91216 0.96951 0.0
C1306 C 0.63779 0.92567 0.97643 0.0
C1307 C 0.64063 0.95903 0.98983 0.0
C1308 C 0.60804 0.97904 0.99625 0.0
C1309 C 0.44939 0.0087 0.08869 0.0
C1310 C 0.47436 0.02933 0.10343 0.0
C1311 C 0.45738 0.00282 0.06437 0.0
C1312 C 0.49043 0.01757 0.05406 0.0
C1313 C 0.51614 0.03701 0.06884 0.0
C1314 C 0.50816 0.04295 0.09327 0.0
C1315 C 0.49764 0.01301 0.02781 0.0
C1316 C 0.53085 0.99481 0.02025 0.0
C1317 C 0.47101 0.02479 0.01031 0.0
C1318 C 0.43633 0.04599 0.01697 0.0
C1319 C 0.43869 0.07956 0.03052 0.0
C1320 C 0.40589 0.09916 0.03697 0.0
C1321 C 0.37055 0.08565 0.02982 0.0
C1322 C 0.36794 0.05255 0.01615 0.0
C1323 C 0.40066 0.0328 0.00968 0.0
H1324 H 0.34518 0.10087 0.03483 0.0
H1325 H 0.66305 0.91025 0.97146 0.0
H1326 H 0.47843 0.55284 0.40313 0.0
H1327 H 0.46243 0.54088 0.44522 0.0
H1328 H 0.57141 0.48899 0.45613 0.0
H1329 H 0.58733 0.50011 0.41404 0.0
H1330 H 0.51889 0.44944 0.47859 0.0
H1331 H 0.55251 0.58089 0.47449 0.0
H1332 H 0.54897 0.64637 0.45934 0.0
H1333 H 0.43267 0.65322 0.48093 0.0
H1334 H 0.43538 0.58756 0.49593 0.0
H1335 H 0.5198 0.45415 0.60624 0.0
H1336 H 0.53561 0.46632 0.56414 0.0
H1337 H 0.42516 0.51474 0.55288 0.0
H1338 H 0.40927 0.50317 0.59495 0.0
H1339 H 0.47839 0.5561 0.53069 0.0
H1340 H 0.44543 0.4242 0.53499 0.0
H1341 H 0.44979 0.3589 0.55036 0.0
H1342 H 0.56608 0.35322 0.52861 0.0
H1343 H 0.56255 0.41871 0.51339 0.0
C1344 C 0.49894 0.53867 0.41443 0.0
C1345 C 0.5343 0.52769 0.40515 0.0
C1346 C 0.48981 0.53203 0.43857 0.0
C1347 C 0.51596 0.5146 0.45404 0.0
C1348 C 0.55078 0.50259 0.44463 0.0
C1349 C 0.55987 0.50906 0.42051 0.0
C1350 C 0.50734 0.50927 0.48007 0.0
C1351 C 0.51049 0.47288 0.49002 0.0
C1352 C 0.49571 0.53965 0.49501 0.0
C1353 C 0.49405 0.57919 0.48611 0.0
C1354 C 0.52611 0.59627 0.47585 0.0
C1355 C 0.52426 0.63343 0.46732 0.0
C1356 C 0.49059 0.65391 0.46911 0.0
C1357 C 0.45872 0.6373 0.47952 0.0
C1358 C 0.4604 0.60013 0.48806 0.0
C1359 C 0.49892 0.46762 0.59488 0.0
C1360 C 0.46313 0.47742 0.60404 0.0
C1361 C 0.50796 0.4744 0.57074 0.0
C1362 C 0.48137 0.49093 0.55519 0.0
C1363 C 0.44611 0.50184 0.56447 0.0
C1364 C 0.43705 0.4951 0.58857 0.0
C1365 C 0.48996 0.49629 0.52918 0.0
C1366 C 0.4868 0.53268 0.51924 0.0
C1367 C 0.50171 0.46594 0.51427 0.0
C1368 C 0.50382 0.42648 0.52327 0.0
C1369 C 0.47201 0.40912 0.53364 0.0
C1370 C 0.47432 0.37206 0.5423 0.0
C1371 C 0.50822 0.35196 0.54052 0.0
C1372 C 0.53986 0.36884 0.53001 0.0
C1373 C 0.53771 0.40592 0.52134 0.0
H1374 H 0.50996 0.32327 0.54723 0.0
H1375 H 0.48921 0.68267 0.4625 0.0
loop_
_geom_bond_atom_site_label_1
_geom_bond_atom_site_label_2
_geom_bond_distance
_geom_bond_site_symmetry_2
_ccdc_geom_bond_type
Fe0 O2 1.918 . S
Fe0 O5 1.997 . S
Fe0 O6 2.002 . S
Fe0 O11 1.976 . S
Fe0 O14 1.996 1_455 S
Fe1 O2 1.918 . S
Fe1 O9 1.997 . S
Fe1 O12 1.996 . S
Fe1 O16 1.976 . S
Fe1 O19 2.002 . S
O2 Fe0 1.918 . S
O2 Fe1 1.918 . S
O2 Fe3 1.918 . S
Fe3 O2 1.918 . S
Fe3 O4 2.002 . S
Fe3 O13 1.976 1_455 S
Fe3 O17 1.996 . S
Fe3 O20 1.997 . S
O4 Fe3 2.002 . S
O4 C21 1.295 . S
O5 Fe0 1.997 . S
O5 C21 1.235 . S
O6 Fe0 2.002 . S
O6 C7 1.295 . S
C7 O6 1.295 . S
C7 O9 1.235 . S
C8 O13 1.287 . S
C8 O14 1.255 . S
O9 Fe1 1.997 . S
O9 C7 1.235 . S
C10 O16 1.287 . S
C10 O17 1.255 . S
O11 Fe0 1.976 . S
O11 C18 1.287 . S
O12 Fe1 1.996 . S
O12 C18 1.255 . S
O13 Fe3 1.976 1_655 S
O13 C8 1.287 . S
O14 Fe0 1.996 1_655 S
O14 C8 1.255 . S
C15 O19 1.295 . S
C15 O20 1.235 . S
O16 Fe1 1.976 . S
O16 C10 1.287 . S
O17 Fe3 1.996 . S
O17 C10 1.255 . S
C18 O11 1.287 . S
C18 O12 1.255 . S
O19 Fe1 2.002 . S
O19 C15 1.295 . S
O20 Fe3 1.997 . S
O20 C15 1.235 . S
C21 O4 1.295 . S
C21 O5 1.235 . S
Fe22 O24 1.918 . S
Fe22 O27 1.997 . S
Fe22 O28 2.002 . S
Fe22 O33 1.976 1_455 S
Fe22 O36 1.996 . S
Fe23 O24 1.918 . S
Fe23 O31 1.997 . S
Fe23 O34 1.996 1_455 S
Fe23 O38 1.976 1_545 S
Fe23 O41 2.002 . S
O24 Fe22 1.918 . S
O24 Fe23 1.918 . S
O24 Fe25 1.918 . S
Fe25 O24 1.918 . S
Fe25 O26 2.002 . S
Fe25 O35 1.976 . S
Fe25 O39 1.996 1_545 S
Fe25 O42 1.997 . S
O26 Fe25 2.002 . S
O26 C43 1.295 . S
O27 Fe22 1.997 . S
O27 C43 1.235 . S
O28 Fe22 2.002 . S
O28 C29 1.295 . S
C29 O28 1.295 . S
C29 O31 1.235 . S
C30 O35 1.287 . S
C30 O36 1.255 . S
O31 Fe23 1.997 . S
O31 C29 1.235 . S
C32 O38 1.287 . S
C32 O39 1.255 . S
O33 Fe22 1.976 1_655 S
O33 C40 1.287 . S
O34 Fe23 1.996 1_655 S
O34 C40 1.255 . S
O35 Fe25 1.976 . S
O35 C30 1.287 . S
O36 Fe22 1.996 . S
O36 C30 1.255 . S
C37 O41 1.295 . S
C37 O42 1.235 . S
O38 Fe23 1.976 1_565 S
O38 C32 1.287 . S
O39 Fe25 1.996 1_565 S
O39 C32 1.255 . S
C40 O33 1.287 . S
C40 O34 1.255 . S
O41 Fe23 2.002 . S
O41 C37 1.295 . S
O42 Fe25 1.997 . S
O42 C37 1.235 . S
C43 O26 1.295 . S
C43 O27 1.235 . S
Fe44 O46 1.918 . S
Fe44 O49 1.997 . S
Fe44 O50 2.002 . S
Fe44 O55 1.976 . S
Fe44 O58 1.996 1_545 S
Fe45 O46 1.918 . S
Fe45 O53 1.997 . S
Fe45 O56 1.996 . S
Fe45 O60 1.976 . S
Fe45 O63 2.002 . S
O46 Fe44 1.918 . S
O46 Fe45 1.918 . S
O46 Fe47 1.918 . S
Fe47 O46 1.918 . S
Fe47 O48 2.002 . S
Fe47 O57 1.976 1_545 S
Fe47 O61 1.996 . S
Fe47 O64 1.997 . S
O48 Fe47 2.002 . S
O48 C65 1.295 . S
O49 Fe44 1.997 . S
O49 C65 1.235 . S
O50 Fe44 2.002 . S
O50 C51 1.295 . S
C51 O50 1.295 . S
C51 O53 1.235 . S
C52 O57 1.287 . S
C52 O58 1.255 . S
O53 Fe45 1.997 . S
O53 C51 1.235 . S
C54 O60 1.287 . S
C54 O61 1.255 . S
O55 Fe44 1.976 . S
O55 C62 1.287 . S
O56 Fe45 1.996 . S
O56 C62 1.255 . S
O57 Fe47 1.976 1_565 S
O57 C52 1.287 . S
O58 Fe44 1.996 1_565 S
O58 C52 1.255 . S
C59 O63 1.295 . S
C59 O64 1.235 . S
O60 Fe45 1.976 . S
O60 C54 1.287 . S
O61 Fe47 1.996 . S
O61 C54 1.255 . S
C62 O55 1.287 . S
C62 O56 1.255 . S
O63 Fe45 2.002 . S
O63 C59 1.295 . S
O64 Fe47 1.997 . S
O64 C59 1.235 . S
C65 O48 1.295 . S
C65 O49 1.235 . S
Fe66 O68 1.918 . S
Fe66 O71 1.997 . S
Fe66 O72 2.002 . S
Fe66 O77 1.976 . S
Fe66 O80 1.996 . S
Fe67 O68 1.918 . S
Fe67 O75 1.997 . S
Fe67 O78 1.996 . S
Fe67 O82 1.976 . S
Fe67 O85 2.002 . S
O68 Fe66 1.918 . S
O68 Fe67 1.918 . S
O68 Fe69 1.918 . S
Fe69 O68 1.918 . S
Fe69 O70 2.002 . S
Fe69 O79 1.976 . S
Fe69 O83 1.996 . S
Fe69 O86 1.997 . S
O70 Fe69 2.002 . S
O70 C87 1.295 . S
O71 Fe66 1.997 . S
O71 C87 1.235 . S
O72 Fe66 2.002 . S
O72 C73 1.295 . S
C73 O72 1.295 . S
C73 O75 1.235 . S
C74 O79 1.287 . S
C74 O80 1.255 . S
O75 Fe67 1.997 . S
O75 C73 1.235 . S
C76 O82 1.287 . S
C76 O83 1.255 . S
O77 Fe66 1.976 . S
O77 C84 1.287 . S
O78 Fe67 1.996 . S
O78 C84 1.255 . S
O79 Fe69 1.976 . S
O79 C74 1.287 . S
O80 Fe66 1.996 . S
O80 C74 1.255 . S
C81 O85 1.295 . S
C81 O86 1.235 . S
O82 Fe67 1.976 . S
O82 C76 1.287 . S
O83 Fe69 1.996 . S
O83 C76 1.255 . S
C84 O77 1.287 . S
C84 O78 1.255 . S
O85 Fe67 2.002 . S
O85 C81 1.295 . S
O86 Fe69 1.997 . S
O86 C81 1.235 . S
C87 O70 1.295 . S
C87 O71 1.235 . S
Fe88 O90 1.918 . S
Fe88 O93 1.997 . S
Fe88 O94 2.002 . S
Fe88 O99 1.976 . S
Fe88 O102 1.996 . S
Fe89 O90 1.918 . S
Fe89 O97 1.997 . S
Fe89 O100 1.996 . S
Fe89 O104 1.976 . S
Fe89 O107 2.002 . S
O90 Fe88 1.918 . S
O90 Fe89 1.918 . S
O90 Fe91 1.918 . S
Fe91 O90 1.918 . S
Fe91 O92 2.002 . S
Fe91 O101 1.976 . S
Fe91 O105 1.996 . S
Fe91 O108 1.997 . S
O92 Fe91 2.002 . S
O92 C109 1.295 . S
O93 Fe88 1.997 . S
O93 C109 1.235 . S
O94 Fe88 2.002 . S
O94 C95 1.295 . S
C95 O94 1.295 . S
C95 O97 1.235 . S
C96 O101 1.287 . S
C96 O102 1.255 . S
O97 Fe89 1.997 . S
O97 C95 1.235 . S
C98 O104 1.287 . S
C98 O105 1.255 . S
O99 Fe88 1.976 . S
O99 C106 1.287 . S
O100 Fe89 1.996 . S
O100 C106 1.255 . S
O101 Fe91 1.976 . S
O101 C96 1.287 . S
O102 Fe88 1.996 . S
O102 C96 1.255 . S
C103 O107 1.295 . S
C103 O108 1.235 . S
O104 Fe89 1.976 . S
O104 C98 1.287 . S
O105 Fe91 1.996 . S
O105 C98 1.255 . S
C106 O99 1.287 . S
C106 O100 1.255 . S
O107 Fe89 2.002 . S
O107 C103 1.295 . S
O108 Fe91 1.997 . S
O108 C103 1.235 . S
C109 O92 1.295 . S
C109 O93 1.235 . S
Fe110 O112 1.918 . S
Fe110 O115 1.997 . S
Fe110 O116 2.002 . S
Fe110 O121 1.976 1_655 S
Fe110 O124 1.996 . S
Fe111 O112 1.918 . S
Fe111 O119 1.997 . S
Fe111 O122 1.996 1_655 S
Fe111 O126 1.976 . S
Fe111 O129 2.002 . S
O112 Fe110 1.918 . S
O112 Fe111 1.918 . S
O112 Fe113 1.918 . S
Fe113 O112 1.918 . S
Fe113 O114 2.002 . S
Fe113 O123 1.976 . S
Fe113 O127 1.996 . S
Fe113 O130 1.997 . S
O114 Fe113 2.002 . S
O114 C131 1.295 . S
O115 Fe110 1.997 . S
O115 C131 1.235 . S
O116 Fe110 2.002 . S
O116 C117 1.295 . S
C117 O116 1.295 . S
C117 O119 1.235 . S
C118 O123 1.287 . S
C118 O124 1.255 . S
O119 Fe111 1.997 . S
O119 C117 1.235 . S
C120 O126 1.287 . S
C120 O127 1.255 . S
O121 Fe110 1.976 1_455 S
O121 C128 1.287 . S
O122 Fe111 1.996 1_455 S
O122 C128 1.255 . S
O123 Fe113 1.976 . S
O123 C118 1.287 . S
O124 Fe110 1.996 . S
O124 C118 1.255 . S
C125 O129 1.295 . S
C125 O130 1.235 . S
O126 Fe111 1.976 . S
O126 C120 1.287 . S
O127 Fe113 1.996 . S
O127 C120 1.255 . S
C128 O121 1.287 . S
C128 O122 1.255 . S
O129 Fe111 2.002 . S
O129 C125 1.295 . S
O130 Fe113 1.997 . S
O130 C125 1.235 . S
C131 O114 1.295 . S
C131 O115 1.235 . S
Fe132 O134 1.918 . S
Fe132 O137 1.997 . S
Fe132 O138 2.002 . S
Fe132 O143 1.976 1_655 S
Fe132 O146 1.996 1_565 S
Fe133 O134 1.918 . S
Fe133 O141 1.997 . S
Fe133 O144 1.996 1_655 S
Fe133 O148 1.976 . S
Fe133 O151 2.002 . S
O134 Fe132 1.918 . S
O134 Fe133 1.918 . S
O134 Fe135 1.918 . S
Fe135 O134 1.918 . S
Fe135 O136 2.002 . S
Fe135 O145 1.976 1_565 S
Fe135 O149 1.996 . S
Fe135 O152 1.997 . S
O136 Fe135 2.002 . S
O136 C153 1.295 . S
O137 Fe132 1.997 . S
O137 C153 1.235 . S
O138 Fe132 2.002 . S
O138 C139 1.295 . S
C139 O138 1.295 . S
C139 O141 1.235 . S
C140 O145 1.287 . S
C140 O146 1.255 . S
O141 Fe133 1.997 . S
O141 C139 1.235 . S
C142 O148 1.287 . S
C142 O149 1.255 . S
O143 Fe132 1.976 1_455 S
O143 C150 1.287 . S
O144 Fe133 1.996 1_455 S
O144 C150 1.255 . S
O145 Fe135 1.976 1_545 S
O145 C140 1.287 . S
O146 Fe132 1.996 1_545 S
O146 C140 1.255 . S
C147 O151 1.295 . S
C147 O152 1.235 . S
O148 Fe133 1.976 . S
O148 C142 1.287 . S
O149 Fe135 1.996 . S
O149 C142 1.255 . S
C150 O143 1.287 . S
C150 O144 1.255 . S
O151 Fe133 2.002 . S
O151 C147 1.295 . S
O152 Fe135 1.997 . S
O152 C147 1.235 . S
C153 O136 1.295 . S
C153 O137 1.235 . S
Fe154 O156 1.918 . S
Fe154 O159 1.997 . S
Fe154 O160 2.002 . S
Fe154 O165 1.976 . S
Fe154 O168 1.996 1_565 S
Fe155 O156 1.918 . S
Fe155 O163 1.997 . S
Fe155 O166 1.996 . S
Fe155 O170 1.976 . S
Fe155 O173 2.002 . S
O156 Fe154 1.918 . S
O156 Fe155 1.918 . S
O156 Fe157 1.918 . S
Fe157 O156 1.918 . S
Fe157 O158 2.002 . S
Fe157 O167 1.976 1_565 S
Fe157 O171 1.996 . S
Fe157 O174 1.997 . S
O158 Fe157 2.002 . S
O158 C175 1.295 . S
O159 Fe154 1.997 . S
O159 C175 1.235 . S
O160 Fe154 2.002 . S
O160 C161 1.295 . S
C161 O160 1.295 . S
C161 O163 1.235 . S
C162 O167 1.287 . S
C162 O168 1.255 . S
O163 Fe155 1.997 . S
O163 C161 1.235 . S
C164 O170 1.287 . S
C164 O171 1.255 . S
O165 Fe154 1.976 . S
O165 C172 1.287 . S
O166 Fe155 1.996 . S
O166 C172 1.255 . S
O167 Fe157 1.976 1_545 S
O167 C162 1.287 . S
O168 Fe154 1.996 1_545 S
O168 C162 1.255 . S
C169 O173 1.295 . S
C169 O174 1.235 . S
O170 Fe155 1.976 . S
O170 C164 1.287 . S
O171 Fe157 1.996 . S
O171 C164 1.255 . S
C172 O165 1.287 . S
C172 O166 1.255 . S
O173 Fe155 2.002 . S
O173 C169 1.295 . S
O174 Fe157 1.997 . S
O174 C169 1.235 . S
C175 O158 1.295 . S
C175 O159 1.235 . S
H176 C194 0.951 . S
H177 C196 0.951 . S
H178 C198 0.950 . S
H179 C199 0.950 . S
H180 C201 0.950 . S
H181 C204 0.950 . S
H182 C205 0.950 . S
H183 C207 0.950 . S
H184 C208 0.950 . S
H185 C209 0.951 . S
H186 C211 0.951 . S
H187 C213 0.950 . S
H188 C214 0.950 . S
H189 C216 0.950 . S
H190 C219 0.950 . S
H191 C220 0.950 . S
H192 C222 0.950 . S
H193 C223 0.950 . S
C194 H176 0.951 . S
C194 C195 1.366 . S
C194 C196 1.388 . S
C195 C194 1.366 . S
C195 C199 1.385 . S
C196 H177 0.951 . S
C196 C194 1.388 . S
C196 C197 1.366 . S
C197 C196 1.366 . S
C197 C198 1.414 . S
C197 C200 1.499 . S
C198 H178 0.950 . S
C198 C197 1.414 . S
C198 C199 1.374 . S
C199 H179 0.950 . S
C199 C195 1.385 . S
C199 C198 1.374 . S
C200 C197 1.499 . S
C200 C201 1.373 . S
C200 C202 1.389 . S
C201 H180 0.950 . S
C201 C200 1.373 . S
C201 C217 1.377 . S
C202 C200 1.389 . S
C202 C203 1.524 . S
C202 C216 1.377 . S
C203 C202 1.524 . S
C203 C204 1.397 . S
C203 C208 1.363 . S
C204 H181 0.950 . S
C204 C203 1.397 . S
C204 C205 1.334 . S
C205 H182 0.950 . S
C205 C204 1.334 . S
C205 C206 1.287 . S
C206 C205 1.287 . S
C206 C207 1.524 . S
C206 H225 0.913 . S
C207 H183 0.950 . S
C207 C206 1.524 . S
C207 C208 1.415 . S
C208 H184 0.950 . S
C208 C203 1.363 . S
C208 C207 1.415 . S
C209 H185 0.951 . S
C209 C210 1.366 . S
C209 C211 1.388 . S
C210 C209 1.366 . S
C210 C214 1.385 . S
C211 H186 0.951 . S
C211 C209 1.388 . S
C211 C212 1.366 . S
C212 C211 1.366 . S
C212 C213 1.414 . S
C212 C215 1.499 . S
C213 H187 0.950 . S
C213 C212 1.414 . S
C213 C214 1.374 . S
C214 H188 0.950 . S
C214 C210 1.385 . S
C214 C213 1.374 . S
C215 C212 1.499 . S
C215 C216 1.373 . S
C215 C217 1.389 . S
C216 H189 0.950 . S
C216 C202 1.377 . S
C216 C215 1.373 . S
C217 C201 1.377 . S
C217 C215 1.389 . S
C217 C218 1.524 . S
C218 C217 1.524 . S
C218 C219 1.397 . S
C218 C223 1.363 . S
C219 H190 0.950 . S
C219 C218 1.397 . S
C219 C220 1.334 . S
C220 H191 0.950 . S
C220 C219 1.334 . S
C220 C221 1.287 . S
C221 C220 1.287 . S
C221 C222 1.524 . S
C221 H224 0.999 . S
C222 H192 0.950 . S
C222 C221 1.524 . S
C222 C223 1.415 . S
C223 H193 0.950 . S
C223 C218 1.363 . S
C223 C222 1.415 . S
H224 C221 0.999 . S
H225 C206 0.913 . S
H226 C244 0.951 . S
H227 C246 0.951 . S
H228 C248 0.950 1_455 S
H229 C249 0.950 1_455 S
H230 C251 0.950 . S
H231 C254 0.950 . S
H232 C255 0.950 . S
H233 C257 0.950 . S
H234 C258 0.950 . S
H235 C259 0.951 . S
H236 C261 0.951 . S
H237 C263 0.950 . S
H238 C264 0.950 . S
H239 C266 0.950 . S
H240 C269 0.950 . S
H241 C270 0.950 . S
H242 C272 0.950 . S
H243 C273 0.950 . S
C244 H226 0.951 . S
C244 C245 1.366 . S
C244 C246 1.388 . S
C245 C244 1.366 . S
C245 C249 1.385 . S
C246 H227 0.951 . S
C246 C244 1.388 . S
C246 C247 1.366 . S
C247 C246 1.366 . S
C247 C248 1.414 . S
C247 C250 1.499 . S
C248 H228 0.950 1_655 S
C248 C247 1.414 . S
C248 C249 1.374 . S
C249 H229 0.950 1_655 S
C249 C245 1.385 . S
C249 C248 1.374 . S
C250 C247 1.499 . S
C250 C251 1.373 1_655 S
C250 C252 1.389 . S
C251 H230 0.950 . S
C251 C250 1.373 1_455 S
C251 C267 1.377 . S
C252 C250 1.389 . S
C252 C253 1.524 . S
C252 C266 1.377 . S
C253 C252 1.524 . S
C253 C254 1.397 . S
C253 C258 1.363 . S
C254 H231 0.950 . S
C254 C253 1.397 . S
C254 C255 1.334 . S
C255 H232 0.950 . S
C255 C254 1.334 . S
C255 C256 1.287 . S
C256 C255 1.287 . S
C256 C257 1.524 . S
C256 H275 0.913 . S
C257 H233 0.950 . S
C257 C256 1.524 . S
C257 C258 1.415 . S
C258 H234 0.950 . S
C258 C253 1.363 . S
C258 C257 1.415 . S
C259 H235 0.951 . S
C259 C260 1.366 . S
C259 C261 1.388 . S
C260 C259 1.366 . S
C260 C264 1.385 1_455 S
C261 H236 0.951 . S
C261 C259 1.388 . S
C261 C262 1.366 . S
C262 C261 1.366 . S
C262 C263 1.414 1_455 S
C262 C265 1.505 . S
C263 H237 0.950 . S
C263 C262 1.414 1_655 S
C263 C264 1.374 . S
C264 H238 0.950 . S
C264 C260 1.385 1_655 S
C264 C263 1.374 . S
C265 C262 1.505 . S
C265 C266 1.351 1_455 S
C265 C267 1.405 . S
C266 H239 0.950 . S
C266 C252 1.377 . S
C266 C265 1.351 1_655 S
C267 C251 1.377 . S
C267 C265 1.405 . S
C267 C268 1.524 . S
C268 C267 1.524 . S
C268 C269 1.397 . S
C268 C273 1.363 . S
C269 H240 0.950 . S
C269 C268 1.397 . S
C269 C270 1.334 . S
C270 H241 0.950 . S
C270 C269 1.334 . S
C270 C271 1.287 . S
C271 C270 1.287 . S
C271 C272 1.524 . S
C271 H274 0.999 . S
C272 H242 0.950 . S
C272 C271 1.524 . S
C272 C273 1.415 . S
C273 H243 0.950 . S
C273 C268 1.363 . S
C273 C272 1.415 . S
H274 C271 0.999 . S
H275 C256 0.913 . S
H276 C294 0.951 . S
H277 C296 0.951 . S
H278 C298 0.950 . S
H279 C299 0.950 . S
H280 C301 0.950 . S
H281 C304 0.950 . S
H282 C305 0.950 . S
H283 C307 0.950 . S
H284 C308 0.950 . S
H285 C309 0.951 . S
H286 C311 0.951 . S
H287 C313 0.950 1_545 S
H288 C314 0.950 1_545 S
H289 C316 0.950 . S
H290 C319 0.950 . S
H291 C320 0.950 . S
H292 C322 0.950 . S
H293 C323 0.950 . S
C294 H276 0.951 . S
C294 C295 1.366 . S
C294 C296 1.388 . S
C295 C294 1.366 . S
C295 C299 1.385 1_545 S
C296 H277 0.951 . S
C296 C294 1.388 . S
C296 C297 1.366 . S
C297 C296 1.366 . S
C297 C298 1.414 1_545 S
C297 C300 1.501 . S
C298 H278 0.950 . S
C298 C297 1.414 1_565 S
C298 C299 1.374 . S
C299 H279 0.950 . S
C299 C295 1.385 1_565 S
C299 C298 1.374 . S
C300 C297 1.501 . S
C300 C301 1.365 1_545 S
C300 C302 1.395 . S
C301 H280 0.950 . S
C301 C300 1.365 1_565 S
C301 C317 1.377 . S
C302 C300 1.395 . S
C302 C303 1.524 . S
C302 C316 1.377 . S
C303 C302 1.524 . S
C303 C304 1.397 . S
C303 C308 1.363 . S
C304 H281 0.950 . S
C304 C303 1.397 . S
C304 C305 1.334 . S
C305 H282 0.950 . S
C305 C304 1.334 . S
C305 C306 1.287 . S
C306 C305 1.287 . S
C306 C307 1.524 . S
C306 H325 0.913 . S
C307 H283 0.950 . S
C307 C306 1.524 . S
C307 C308 1.415 . S
C308 H284 0.950 . S
C308 C303 1.363 . S
C308 C307 1.415 . S
C309 H285 0.951 . S
C309 C310 1.366 . S
C309 C311 1.388 . S
C310 C309 1.366 . S
C310 C314 1.385 . S
C311 H286 0.951 . S
C311 C309 1.388 . S
C311 C312 1.366 . S
C312 C311 1.366 . S
C312 C313 1.414 . S
C312 C315 1.499 . S
C313 H287 0.950 1_565 S
C313 C312 1.414 . S
C313 C314 1.374 . S
C314 H288 0.950 1_565 S
C314 C310 1.385 . S
C314 C313 1.374 . S
C315 C312 1.499 . S
C315 C316 1.373 1_565 S
C315 C317 1.389 . S
C316 H289 0.950 . S
C316 C302 1.377 . S
C316 C315 1.373 1_545 S
C317 C301 1.377 . S
C317 C315 1.389 . S
C317 C318 1.524 . S
C318 C317 1.524 . S
C318 C319 1.397 . S
C318 C323 1.363 . S
C319 H290 0.950 . S
C319 C318 1.397 . S
C319 C320 1.334 . S
C320 H291 0.950 . S
C320 C319 1.334 . S
C320 C321 1.287 . S
C321 C320 1.287 . S
C321 C322 1.524 . S
C321 H324 0.999 . S
C322 H292 0.950 . S
C322 C321 1.524 . S
C322 C323 1.415 . S
C323 H293 0.950 . S
C323 C318 1.363 . S
C323 C322 1.415 . S
H324 C321 0.999 . S
H325 C306 0.913 . S
H326 C344 0.951 . S
H327 C346 0.951 . S
H328 C348 0.950 . S
H329 C349 0.950 . S
H330 C351 0.950 . S
H331 C354 0.950 . S
H332 C355 0.950 . S
H333 C357 0.950 . S
H334 C358 0.950 . S
H335 C359 0.951 . S
H336 C361 0.951 . S
H337 C363 0.950 . S
H338 C364 0.950 . S
H339 C366 0.950 . S
H340 C369 0.950 . S
H341 C370 0.950 . S
H342 C372 0.950 . S
H343 C373 0.950 . S
C344 H326 0.951 . S
C344 C345 1.366 . S
C344 C346 1.388 . S
C345 C344 1.366 . S
C345 C349 1.385 . S
C346 H327 0.951 . S
C346 C344 1.388 . S
C346 C347 1.366 . S
C347 C346 1.366 . S
C347 C348 1.414 . S
C347 C350 1.499 . S
C348 H328 0.950 . S
C348 C347 1.414 . S
C348 C349 1.374 . S
C349 H329 0.950 . S
C349 C345 1.385 . S
C349 C348 1.374 . S
C350 C347 1.499 . S
C350 C351 1.373 . S
C350 C352 1.389 . S
C351 H330 0.950 . S
C351 C350 1.373 . S
C351 C367 1.377 . S
C352 C350 1.389 . S
C352 C353 1.524 . S
C352 C366 1.377 . S
C353 C352 1.524 . S
C353 C354 1.397 . S
C353 C358 1.363 . S
C354 H331 0.950 . S
C354 C353 1.397 . S
C354 C355 1.334 . S
C355 H332 0.950 . S
C355 C354 1.334 . S
C355 C356 1.287 . S
C356 C355 1.287 . S
C356 C357 1.524 . S
C356 H375 0.913 . S
C357 H333 0.950 . S
C357 C356 1.524 . S
C357 C358 1.415 . S
C358 H334 0.950 . S
C358 C353 1.363 . S
C358 C357 1.415 . S
C359 H335 0.951 . S
C359 C360 1.366 . S
C359 C361 1.388 . S
C360 C359 1.366 . S
C360 C364 1.385 . S
C361 H336 0.951 . S
C361 C359 1.388 . S
C361 C362 1.366 . S
C362 C361 1.366 . S
C362 C363 1.414 . S
C362 C365 1.499 . S
C363 H337 0.950 . S
C363 C362 1.414 . S
C363 C364 1.374 . S
C364 H338 0.950 . S
C364 C360 1.385 . S
C364 C363 1.374 . S
C365 C362 1.499 . S
C365 C366 1.373 . S
C365 C367 1.389 . S
C366 H339 0.950 . S
C366 C352 1.377 . S
C366 C365 1.373 . S
C367 C351 1.377 . S
C367 C365 1.389 . S
C367 C368 1.524 . S
C368 C367 1.524 . S
C368 C369 1.397 . S
C368 C373 1.363 . S
C369 H340 0.950 . S
C369 C368 1.397 . S
C369 C370 1.334 . S
C370 H341 0.950 . S
C370 C369 1.334 . S
C370 C371 1.287 . S
C371 C370 1.287 . S
C371 C372 1.524 . S
C371 H374 0.999 . S
C372 H342 0.950 . S
C372 C371 1.524 . S
C372 C373 1.415 . S
C373 H343 0.950 . S
C373 C368 1.363 . S
C373 C372 1.415 . S
H374 C371 0.999 . S
H375 C356 0.913 . S
H376 C394 0.951 . S
H377 C396 0.951 . S
H378 C398 0.950 . S
H379 C399 0.950 . S
H380 C401 0.950 . S
H381 C404 0.950 . S
H382 C405 0.950 . S
H383 C407 0.950 . S
H384 C408 0.950 . S
H385 C409 0.951 . S
H386 C411 0.951 . S
H387 C413 0.950 . S
H388 C414 0.950 . S
H389 C416 0.950 . S
H390 C419 0.950 . S
H391 C420 0.950 . S
H392 C422 0.950 . S
H393 C423 0.950 . S
C394 H376 0.951 . S
C394 C395 1.366 . S
C394 C396 1.388 . S
C395 C394 1.366 . S
C395 C399 1.385 . S
C396 H377 0.951 . S
C396 C394 1.388 . S
C396 C397 1.366 . S
C397 C396 1.366 . S
C397 C398 1.414 . S
C397 C400 1.499 . S
C398 H378 0.950 . S
C398 C397 1.414 . S
C398 C399 1.374 . S
C399 H379 0.950 . S
C399 C395 1.385 . S
C399 C398 1.374 . S
C400 C397 1.499 . S
C400 C401 1.373 . S
C400 C402 1.389 . S
C401 H380 0.950 . S
C401 C400 1.373 . S
C401 C417 1.377 . S
C402 C400 1.389 . S
C402 C403 1.524 . S
C402 C416 1.377 . S
C403 C402 1.524 . S
C403 C404 1.397 . S
C403 C408 1.363 . S
C404 H381 0.950 . S
C404 C403 1.397 . S
C404 C405 1.334 . S
C405 H382 0.950 . S
C405 C404 1.334 . S
C405 C406 1.287 . S
C406 C405 1.287 . S
C406 C407 1.524 . S
C406 H425 0.913 . S
C407 H383 0.950 . S
C407 C406 1.524 . S
C407 C408 1.415 . S
C408 H384 0.950 . S
C408 C403 1.363 . S
C408 C407 1.415 . S
C409 H385 0.951 . S
C409 C410 1.366 . S
C409 C411 1.388 . S
C410 C409 1.366 . S
C410 C414 1.385 . S
C411 H386 0.951 . S
C411 C409 1.388 . S
C411 C412 1.366 . S
C412 C411 1.366 . S
C412 C413 1.414 . S
C412 C415 1.499 . S
C413 H387 0.950 . S
C413 C412 1.414 . S
C413 C414 1.374 . S
C414 H388 0.950 . S
C414 C410 1.385 . S
C414 C413 1.374 . S
C415 C412 1.499 . S
C415 C416 1.373 . S
C415 C417 1.389 . S
C416 H389 0.950 . S
C416 C402 1.377 . S
C416 C415 1.373 . S
C417 C401 1.377 . S
C417 C415 1.389 . S
C417 C418 1.524 . S
C418 C417 1.524 . S
C418 C419 1.397 . S
C418 C423 1.363 . S
C419 H390 0.950 . S
C419 C418 1.397 . S
C419 C420 1.334 . S
C420 H391 0.950 . S
C420 C419 1.334 . S
C420 C421 1.287 . S
C421 C420 1.287 . S
C421 C422 1.524 . S
C421 H424 0.999 . S
C422 H392 0.950 . S
C422 C421 1.524 . S
C422 C423 1.415 . S
C423 H393 0.950 . S
C423 C418 1.363 . S
C423 C422 1.415 . S
H424 C421 0.999 . S
H425 C406 0.913 . S
H426 C444 0.951 . S
H427 C446 0.951 . S
H428 C448 0.950 . S
H429 C449 0.950 . S
H430 C451 0.950 . S
H431 C454 0.950 . S
H432 C455 0.950 . S
H433 C457 0.950 . S
H434 C458 0.950 . S
H435 C459 0.951 . S
H436 C461 0.951 . S
H437 C463 0.950 . S
H438 C464 0.950 . S
H439 C466 0.950 . S
H440 C469 0.950 . S
H441 C470 0.950 . S
H442 C472 0.950 . S
H443 C473 0.950 . S
C444 H426 0.951 . S
C444 C445 1.366 . S
C444 C446 1.388 . S
C445 C444 1.366 . S
C445 C449 1.385 . S
C446 H427 0.951 . S
C446 C444 1.388 . S
C446 C447 1.366 . S
C447 C446 1.366 . S
C447 C448 1.414 . S
C447 C450 1.499 . S
C448 H428 0.950 . S
C448 C447 1.414 . S
C448 C449 1.374 . S
C449 H429 0.950 . S
C449 C445 1.385 . S
C449 C448 1.374 . S
C450 C447 1.499 . S
C450 C451 1.373 1_455 S
C450 C452 1.389 . S
C451 H430 0.950 . S
C451 C450 1.373 1_655 S
C451 C467 1.377 . S
C452 C450 1.389 . S
C452 C453 1.524 . S
C452 C466 1.377 . S
C453 C452 1.524 . S
C453 C454 1.397 . S
C453 C458 1.363 . S
C454 H431 0.950 . S
C454 C453 1.397 . S
C454 C455 1.334 . S
C455 H432 0.950 . S
C455 C454 1.334 . S
C455 C456 1.287 . S
C456 C455 1.287 . S
C456 C457 1.524 . S
C456 H475 0.913 . S
C457 H433 0.950 . S
C457 C456 1.524 . S
C457 C458 1.415 . S
C458 H434 0.950 . S
C458 C453 1.363 . S
C458 C457 1.415 . S
C459 H435 0.951 . S
C459 C460 1.366 . S
C459 C461 1.388 . S
C460 C459 1.366 . S
C460 C464 1.385 . S
C461 H436 0.951 . S
C461 C459 1.388 . S
C461 C462 1.366 . S
C462 C461 1.366 . S
C462 C463 1.414 . S
C462 C465 1.499 . S
C463 H437 0.950 . S
C463 C462 1.414 . S
C463 C464 1.374 . S
C464 H438 0.950 . S
C464 C460 1.385 . S
C464 C463 1.374 . S
C465 C462 1.499 . S
C465 C466 1.373 1_655 S
C465 C467 1.389 . S
C466 H439 0.950 . S
C466 C452 1.377 . S
C466 C465 1.373 1_455 S
C467 C451 1.377 . S
C467 C465 1.389 . S
C467 C468 1.524 . S
C468 C467 1.524 . S
C468 C469 1.397 . S
C468 C473 1.363 . S
C469 H440 0.950 . S
C469 C468 1.397 . S
C469 C470 1.334 . S
C470 H441 0.950 . S
C470 C469 1.334 . S
C470 C471 1.287 . S
C471 C470 1.287 . S
C471 C472 1.524 . S
C471 H474 0.999 . S
C472 H442 0.950 . S
C472 C471 1.524 . S
C472 C473 1.415 . S
C473 H443 0.950 . S
C473 C468 1.363 . S
C473 C472 1.415 . S
H474 C471 0.999 . S
H475 C456 0.913 . S
H476 C494 0.951 . S
H477 C496 0.951 . S
H478 C498 0.950 1_565 S
H479 C499 0.950 1_565 S
H480 C501 0.950 . S
H481 C504 0.950 . S
H482 C505 0.950 . S
H483 C507 0.950 . S
H484 C508 0.950 . S
H485 C509 0.951 . S
H486 C511 0.951 . S
H487 C513 0.950 . S
H488 C514 0.950 . S
H489 C516 0.950 . S
H490 C519 0.950 . S
H491 C520 0.950 . S
H492 C522 0.950 . S
H493 C523 0.950 . S
C494 H476 0.951 . S
C494 C495 1.366 . S
C494 C496 1.388 . S
C495 C494 1.366 . S
C495 C499 1.385 . S
C496 H477 0.951 . S
C496 C494 1.388 . S
C496 C497 1.366 . S
C497 C496 1.366 . S
C497 C498 1.414 . S
C497 C500 1.499 . S
C498 H478 0.950 1_545 S
C498 C497 1.414 . S
C498 C499 1.374 . S
C499 H479 0.950 1_545 S
C499 C495 1.385 . S
C499 C498 1.374 . S
C500 C497 1.499 . S
C500 C501 1.373 1_545 S
C500 C502 1.389 . S
C501 H480 0.950 . S
C501 C500 1.373 1_565 S
C501 C517 1.377 . S
C502 C500 1.389 . S
C502 C503 1.524 . S
C502 C516 1.377 . S
C503 C502 1.524 . S
C503 C504 1.397 . S
C503 C508 1.363 . S
C504 H481 0.950 . S
C504 C503 1.397 . S
C504 C505 1.334 . S
C505 H482 0.950 . S
C505 C504 1.334 . S
C505 C506 1.287 . S
C506 C505 1.287 . S
C506 C507 1.524 . S
C506 H525 0.913 . S
C507 H483 0.950 . S
C507 C506 1.524 . S
C507 C508 1.415 . S
C508 H484 0.950 . S
C508 C503 1.363 . S
C508 C507 1.415 . S
C509 H485 0.951 . S
C509 C510 1.366 . S
C509 C511 1.388 . S
C510 C509 1.366 . S
C510 C514 1.385 1_565 S
C511 H486 0.951 . S
C511 C509 1.388 . S
C511 C512 1.366 . S
C512 C511 1.366 . S
C512 C513 1.414 1_565 S
C512 C515 1.506 . S
C513 H487 0.950 . S
C513 C512 1.414 1_545 S
C513 C514 1.374 . S
C514 H488 0.950 . S
C514 C510 1.385 1_545 S
C514 C513 1.374 . S
C515 C512 1.506 . S
C515 C516 1.349 1_565 S
C515 C517 1.407 . S
C516 H489 0.950 . S
C516 C502 1.377 . S
C516 C515 1.349 1_545 S
C517 C501 1.377 . S
C517 C515 1.407 . S
C517 C518 1.524 . S
C518 C517 1.524 . S
C518 C519 1.397 . S
C518 C523 1.363 . S
C519 H490 0.950 . S
C519 C518 1.397 . S
C519 C520 1.334 . S
C520 H491 0.950 . S
C520 C519 1.334 . S
C520 C521 1.287 . S
C521 C520 1.287 . S
C521 C522 1.524 . S
C521 H524 0.999 . S
C522 H492 0.950 . S
C522 C521 1.524 . S
C522 C523 1.415 . S
C523 H493 0.950 . S
C523 C518 1.363 . S
C523 C522 1.415 . S
H524 C521 0.999 . S
H525 C506 0.913 . S
H526 C544 0.951 . S
H527 C546 0.951 . S
H528 C548 0.950 . S
H529 C549 0.950 . S
H530 C551 0.950 . S
H531 C554 0.950 . S
H532 C555 0.950 . S
H533 C557 0.950 . S
H534 C558 0.950 . S
H535 C559 0.951 . S
H536 C561 0.951 . S
H537 C563 0.950 . S
H538 C564 0.950 . S
H539 C566 0.950 . S
H540 C569 0.950 . S
H541 C570 0.950 . S
H542 C572 0.950 . S
H543 C573 0.950 . S
C544 H526 0.951 . S
C544 C545 1.366 . S
C544 C546 1.388 . S
C545 C544 1.366 . S
C545 C549 1.385 . S
C546 H527 0.951 . S
C546 C544 1.388 . S
C546 C547 1.366 . S
C547 C546 1.366 . S
C547 C548 1.414 . S
C547 C550 1.499 . S
C548 H528 0.950 . S
C548 C547 1.414 . S
C548 C549 1.374 . S
C549 H529 0.950 . S
C549 C545 1.385 . S
C549 C548 1.374 . S
C550 C547 1.499 . S
C550 C551 1.373 . S
C550 C552 1.389 . S
C551 H530 0.950 . S
C551 C550 1.373 . S
C551 C567 1.377 . S
C552 C550 1.389 . S
C552 C553 1.524 . S
C552 C566 1.377 . S
C553 C552 1.524 . S
C553 C554 1.397 . S
C553 C558 1.363 . S
C554 H531 0.950 . S
C554 C553 1.397 . S
C554 C555 1.334 . S
C555 H532 0.950 . S
C555 C554 1.334 . S
C555 C556 1.287 . S
C556 C555 1.287 . S
C556 C557 1.524 . S
C556 H575 0.913 . S
C557 H533 0.950 . S
C557 C556 1.524 . S
C557 C558 1.415 . S
C558 H534 0.950 . S
C558 C553 1.363 . S
C558 C557 1.415 . S
C559 H535 0.951 . S
C559 C560 1.366 . S
C559 C561 1.388 . S
C560 C559 1.366 . S
C560 C564 1.385 . S
C561 H536 0.951 . S
C561 C559 1.388 . S
C561 C562 1.366 . S
C562 C561 1.366 . S
C562 C563 1.414 . S
C562 C565 1.499 . S
C563 H537 0.950 . S
C563 C562 1.414 . S
C563 C564 1.374 . S
C564 H538 0.950 . S
C564 C560 1.385 . S
C564 C563 1.374 . S
C565 C562 1.499 . S
C565 C566 1.373 . S
C565 C567 1.389 . S
C566 H539 0.950 . S
C566 C552 1.377 . S
C566 C565 1.373 . S
C567 C551 1.377 . S
C567 C565 1.389 . S
C567 C568 1.524 . S
C568 C567 1.524 . S
C568 C569 1.397 . S
C568 C573 1.363 . S
C569 H540 0.950 . S
C569 C568 1.397 . S
C569 C570 1.334 . S
C570 H541 0.950 . S
C570 C569 1.334 . S
C570 C571 1.287 . S
C571 C570 1.287 . S
C571 C572 1.524 . S
C571 H574 0.999 . S
C572 H542 0.950 . S
C572 C571 1.524 . S
C572 C573 1.415 . S
C573 H543 0.950 . S
C573 C568 1.363 . S
C573 C572 1.415 . S
H574 C571 0.999 . S
H575 C556 0.913 . S
H576 C594 0.951 . S
H577 C596 0.951 . S
H578 C598 0.950 . S
H579 C599 0.950 . S
H580 C601 0.950 . S
H581 C604 0.950 . S
H582 C605 0.950 . S
H583 C607 0.950 . S
H584 C608 0.950 . S
H585 C609 0.951 . S
H586 C611 0.951 . S
H587 C613 0.950 . S
H588 C614 0.950 . S
H589 C616 0.950 . S
H590 C619 0.950 . S
H591 C620 0.950 . S
H592 C622 0.950 . S
H593 C623 0.950 . S
C594 H576 0.951 . S
C594 C595 1.366 . S
C594 C596 1.388 . S
C595 C594 1.366 . S
C595 C599 1.385 . S
C596 H577 0.951 . S
C596 C594 1.388 . S
C596 C597 1.366 . S
C597 C596 1.366 . S
C597 C598 1.414 . S
C597 C600 1.499 . S
C598 H578 0.950 . S
C598 C597 1.414 . S
C598 C599 1.374 . S
C599 H579 0.950 . S
C599 C595 1.385 . S
C599 C598 1.374 . S
C600 C597 1.499 . S
C600 C601 1.373 . S
C600 C602 1.389 . S
C601 H580 0.950 . S
C601 C600 1.373 . S
C601 C617 1.377 . S
C602 C600 1.389 . S
C602 C603 1.524 . S
C602 C616 1.377 . S
C603 C602 1.524 . S
C603 C604 1.397 . S
C603 C608 1.363 . S
C604 H581 0.950 . S
C604 C603 1.397 . S
C604 C605 1.334 . S
C605 H582 0.950 . S
C605 C604 1.334 . S
C605 C606 1.287 . S
C606 C605 1.287 . S
C606 C607 1.524 . S
C606 H625 0.913 . S
C607 H583 0.950 . S
C607 C606 1.524 . S
C607 C608 1.415 . S
C608 H584 0.950 . S
C608 C603 1.363 . S
C608 C607 1.415 . S
C609 H585 0.951 . S
C609 C610 1.366 . S
C609 C611 1.388 . S
C610 C609 1.366 . S
C610 C614 1.385 . S
C611 H586 0.951 . S
C611 C609 1.388 . S
C611 C612 1.366 . S
C612 C611 1.366 . S
C612 C613 1.414 . S
C612 C615 1.499 . S
C613 H587 0.950 . S
C613 C612 1.414 . S
C613 C614 1.374 . S
C614 H588 0.950 . S
C614 C610 1.385 . S
C614 C613 1.374 . S
C615 C612 1.499 . S
C615 C616 1.373 . S
C615 C617 1.389 . S
C616 H589 0.950 . S
C616 C602 1.377 . S
C616 C615 1.373 . S
C617 C601 1.377 . S
C617 C615 1.389 . S
C617 C618 1.524 . S
C618 C617 1.524 . S
C618 C619 1.397 . S
C618 C623 1.363 . S
C619 H590 0.950 . S
C619 C618 1.397 . S
C619 C620 1.334 . S
C620 H591 0.950 . S
C620 C619 1.334 . S
C620 C621 1.287 . S
C621 C620 1.287 . S
C621 C622 1.524 . S
C621 H624 0.999 . S
C622 H592 0.950 . S
C622 C621 1.524 . S
C622 C623 1.415 . S
C623 H593 0.950 . S
C623 C618 1.363 . S
C623 C622 1.415 . S
H624 C621 0.999 . S
H625 C606 0.913 . S
H626 C644 0.951 . S
H627 C646 0.951 1_655 S
H628 C648 0.950 . S
H629 C649 0.950 . S
H630 C651 0.950 . S
H631 C654 0.950 . S
H632 C655 0.950 . S
H633 C657 0.950 . S
H634 C658 0.950 . S
H635 C659 0.951 1_455 S
H636 C661 0.951 . S
H637 C663 0.950 . S
H638 C664 0.950 . S
H639 C666 0.950 . S
H640 C669 0.950 . S
H641 C670 0.950 . S
H642 C672 0.950 . S
H643 C673 0.950 . S
C644 H626 0.951 . S
C644 C645 1.366 . S
C644 C646 1.388 . S
C645 C644 1.366 . S
C645 C649 1.385 . S
C646 H627 0.951 1_455 S
C646 C644 1.388 . S
C646 C647 1.366 . S
C647 C646 1.366 . S
C647 C648 1.414 . S
C647 C650 1.499 . S
C648 H628 0.950 . S
C648 C647 1.414 . S
C648 C649 1.374 . S
C649 H629 0.950 . S
C649 C645 1.385 . S
C649 C648 1.374 . S
C650 C647 1.499 . S
C650 C651 1.373 . S
C650 C652 1.389 1_455 S
C651 H630 0.950 . S
C651 C650 1.373 . S
C651 C667 1.377 . S
C652 C650 1.389 1_655 S
C652 C653 1.524 . S
C652 C666 1.377 . S
C653 C652 1.524 . S
C653 C654 1.397 . S
C653 C658 1.363 . S
C654 H631 0.950 . S
C654 C653 1.397 . S
C654 C655 1.334 . S
C655 H632 0.950 . S
C655 C654 1.334 . S
C655 C656 1.287 . S
C656 C655 1.287 . S
C656 C657 1.524 . S
C656 H675 0.913 . S
C657 H633 0.950 . S
C657 C656 1.524 . S
C657 C658 1.415 . S
C658 H634 0.950 . S
C658 C653 1.363 . S
C658 C657 1.415 . S
C659 H635 0.951 1_655 S
C659 C660 1.366 . S
C659 C661 1.388 1_655 S
C660 C659 1.366 . S
C660 C664 1.385 . S
C661 H636 0.951 . S
C661 C659 1.388 1_455 S
C661 C662 1.366 1_455 S
C662 C661 1.366 1_655 S
C662 C663 1.414 . S
C662 C665 1.504 . S
C663 H637 0.950 . S
C663 C662 1.414 . S
C663 C664 1.374 . S
C664 H638 0.950 . S
C664 C660 1.385 . S
C664 C663 1.374 . S
C665 C662 1.504 . S
C665 C666 1.390 . S
C665 C667 1.368 1_655 S
C666 H639 0.950 . S
C666 C652 1.377 . S
C666 C665 1.390 . S
C667 C651 1.377 . S
C667 C665 1.368 1_455 S
C667 C668 1.524 . S
C668 C667 1.524 . S
C668 C669 1.397 . S
C668 C673 1.363 . S
C669 H640 0.950 . S
C669 C668 1.397 . S
C669 C670 1.334 . S
C670 H641 0.950 . S
C670 C669 1.334 . S
C670 C671 1.287 . S
C671 C670 1.287 . S
C671 C672 1.524 . S
C671 H674 0.999 . S
C672 H642 0.950 . S
C672 C671 1.524 . S
C672 C673 1.415 . S
C673 H643 0.950 . S
C673 C668 1.363 . S
C673 C672 1.415 . S
H674 C671 0.999 . S
H675 C656 0.913 . S
H676 C694 0.951 . S
H677 C696 0.951 . S
H678 C698 0.950 1_565 S
H679 C699 0.950 . S
H680 C701 0.950 . S
H681 C704 0.950 . S
H682 C705 0.950 . S
H683 C707 0.950 . S
H684 C708 0.950 . S
H685 C709 0.951 . S
H686 C711 0.951 . S
H687 C713 0.950 . S
H688 C714 0.950 1_545 S
H689 C716 0.950 . S
H690 C719 0.950 . S
H691 C720 0.950 . S
H692 C722 0.950 1_565 S
H693 C723 0.950 1_565 S
C694 H676 0.951 . S
C694 C695 1.366 . S
C694 C696 1.388 . S
C695 C694 1.366 . S
C695 C699 1.385 . S
C696 H677 0.951 . S
C696 C694 1.388 . S
C696 C697 1.366 . S
C697 C696 1.366 . S
C697 C698 1.414 . S
C697 C700 1.499 . S
C698 H678 0.950 1_545 S
C698 C697 1.414 . S
C698 C699 1.374 . S
C699 H679 0.950 . S
C699 C695 1.385 . S
C699 C698 1.374 . S
C700 C697 1.499 . S
C700 C701 1.373 . S
C700 C702 1.389 . S
C701 H680 0.950 . S
C701 C700 1.373 . S
C701 C717 1.377 . S
C702 C700 1.389 . S
C702 C703 1.523 1_545 S
C702 C716 1.377 1_545 S
C703 C702 1.523 1_565 S
C703 C704 1.405 . S
C703 C708 1.358 1_565 S
C704 H681 0.950 . S
C704 C703 1.405 . S
C704 C705 1.334 . S
C705 H682 0.950 . S
C705 C704 1.334 . S
C705 C706 1.287 . S
C706 C705 1.287 . S
C706 C707 1.524 1_565 S
C706 H725 0.913 . S
C707 H683 0.950 . S
C707 C706 1.524 1_545 S
C707 C708 1.415 . S
C708 H684 0.950 . S
C708 C703 1.358 1_545 S
C708 C707 1.415 . S
C709 H685 0.951 . S
C709 C710 1.366 . S
C709 C711 1.388 . S
C710 C709 1.366 . S
C710 C714 1.385 . S
C711 H686 0.951 . S
C711 C709 1.388 . S
C711 C712 1.366 . S
C712 C711 1.366 . S
C712 C713 1.414 1_565 S
C712 C715 1.499 1_565 S
C713 H687 0.950 . S
C713 C712 1.414 1_545 S
C713 C714 1.374 1_545 S
C714 H688 0.950 1_565 S
C714 C710 1.385 . S
C714 C713 1.374 1_565 S
C715 C712 1.499 1_545 S
C715 C716 1.373 1_545 S
C715 C717 1.389 . S
C716 H689 0.950 . S
C716 C702 1.377 1_565 S
C716 C715 1.373 1_565 S
C717 C701 1.377 . S
C717 C715 1.389 . S
C717 C718 1.524 . S
C718 C717 1.524 . S
C718 C719 1.397 . S
C718 C723 1.363 . S
C719 H690 0.950 . S
C719 C718 1.397 . S
C719 C720 1.334 . S
C720 H691 0.950 . S
C720 C719 1.334 . S
C720 C721 1.287 . S
C721 C720 1.287 . S
C721 C722 1.524 . S
C721 H724 0.999 . S
C722 H692 0.950 1_545 S
C722 C721 1.524 . S
C722 C723 1.415 . S
C723 H693 0.950 1_545 S
C723 C718 1.363 . S
C723 C722 1.415 . S
H724 C721 0.999 . S
H725 C706 0.913 . S
H726 C744 0.951 . S
H727 C746 0.951 . S
H728 C748 0.950 . S
H729 C749 0.950 . S
H730 C751 0.950 . S
H731 C754 0.950 . S
H732 C755 0.950 . S
H733 C757 0.950 . S
H734 C758 0.950 . S
H735 C759 0.951 . S
H736 C761 0.951 . S
H737 C763 0.950 . S
H738 C764 0.950 . S
H739 C766 0.950 . S
H740 C769 0.950 . S
H741 C770 0.950 . S
H742 C772 0.950 . S
H743 C773 0.950 . S
C744 H726 0.951 . S
C744 C745 1.366 . S
C744 C746 1.388 . S
C745 C744 1.366 . S
C745 C749 1.385 . S
C746 H727 0.951 . S
C746 C744 1.388 . S
C746 C747 1.366 . S
C747 C746 1.366 . S
C747 C748 1.414 . S
C747 C750 1.499 . S
C748 H728 0.950 . S
C748 C747 1.414 . S
C748 C749 1.374 . S
C749 H729 0.950 . S
C749 C745 1.385 . S
C749 C748 1.374 . S
C750 C747 1.499 . S
C750 C751 1.373 . S
C750 C752 1.389 . S
C751 H730 0.950 . S
C751 C750 1.373 . S
C751 C767 1.377 . S
C752 C750 1.389 . S
C752 C753 1.524 . S
C752 C766 1.377 . S
C753 C752 1.524 . S
C753 C754 1.397 . S
C753 C758 1.363 . S
C754 H731 0.950 . S
C754 C753 1.397 . S
C754 C755 1.334 . S
C755 H732 0.950 . S
C755 C754 1.334 . S
C755 C756 1.287 . S
C756 C755 1.287 . S
C756 C757 1.524 . S
C756 H775 0.913 . S
C757 H733 0.950 . S
C757 C756 1.524 . S
C757 C758 1.415 . S
C758 H734 0.950 . S
C758 C753 1.363 . S
C758 C757 1.415 . S
C759 H735 0.951 . S
C759 C760 1.366 . S
C759 C761 1.388 . S
C760 C759 1.366 . S
C760 C764 1.385 . S
C761 H736 0.951 . S
C761 C759 1.388 . S
C761 C762 1.366 . S
C762 C761 1.366 . S
C762 C763 1.414 . S
C762 C765 1.499 . S
C763 H737 0.950 . S
C763 C762 1.414 . S
C763 C764 1.374 . S
C764 H738 0.950 . S
C764 C760 1.385 . S
C764 C763 1.374 . S
C765 C762 1.499 . S
C765 C766 1.373 . S
C765 C767 1.389 . S
C766 H739 0.950 . S
C766 C752 1.377 . S
C766 C765 1.373 . S
C767 C751 1.377 . S
C767 C765 1.389 . S
C767 C768 1.524 . S
C768 C767 1.524 . S
C768 C769 1.397 . S
C768 C773 1.363 . S
C769 H740 0.950 . S
C769 C768 1.397 . S
C769 C770 1.334 . S
C770 H741 0.950 . S
C770 C769 1.334 . S
C770 C771 1.287 . S
C771 C770 1.287 . S
C771 C772 1.524 . S
C771 H774 0.999 . S
C772 H742 0.950 . S
C772 C771 1.524 . S
C772 C773 1.415 . S
C773 H743 0.950 . S
C773 C768 1.363 . S
C773 C772 1.415 . S
H774 C771 0.999 . S
H775 C756 0.913 . S
H776 C794 0.951 . S
H777 C796 0.951 . S
H778 C798 0.950 . S
H779 C799 0.950 . S
H780 C801 0.950 . S
H781 C804 0.950 . S
H782 C805 0.950 . S
H783 C807 0.950 . S
H784 C808 0.950 . S
H785 C809 0.951 . S
H786 C811 0.951 . S
H787 C813 0.950 . S
H788 C814 0.950 . S
H789 C816 0.950 . S
H790 C819 0.950 . S
H791 C820 0.950 . S
H792 C822 0.950 . S
H793 C823 0.950 . S
C794 H776 0.951 . S
C794 C795 1.366 . S
C794 C796 1.388 . S
C795 C794 1.366 . S
C795 C799 1.385 . S
C796 H777 0.951 . S
C796 C794 1.388 . S
C796 C797 1.366 . S
C797 C796 1.366 . S
C797 C798 1.414 . S
C797 C800 1.499 . S
C798 H778 0.950 . S
C798 C797 1.414 . S
C798 C799 1.374 . S
C799 H779 0.950 . S
C799 C795 1.385 . S
C799 C798 1.374 . S
C800 C797 1.499 . S
C800 C801 1.373 . S
C800 C802 1.389 . S
C801 H780 0.950 . S
C801 C800 1.373 . S
C801 C817 1.377 . S
C802 C800 1.389 . S
C802 C803 1.524 . S
C802 C816 1.377 . S
C803 C802 1.524 . S
C803 C804 1.397 . S
C803 C808 1.363 . S
C804 H781 0.950 . S
C804 C803 1.397 . S
C804 C805 1.334 . S
C805 H782 0.950 . S
C805 C804 1.334 . S
C805 C806 1.287 . S
C806 C805 1.287 . S
C806 C807 1.524 . S
C806 H825 0.913 . S
C807 H783 0.950 . S
C807 C806 1.524 . S
C807 C808 1.415 . S
C808 H784 0.950 . S
C808 C803 1.363 . S
C808 C807 1.415 . S
C809 H785 0.951 . S
C809 C810 1.366 . S
C809 C811 1.388 . S
C810 C809 1.366 . S
C810 C814 1.385 . S
C811 H786 0.951 . S
C811 C809 1.388 . S
C811 C812 1.366 . S
C812 C811 1.366 . S
C812 C813 1.414 . S
C812 C815 1.499 . S
C813 H787 0.950 . S
C813 C812 1.414 . S
C813 C814 1.374 . S
C814 H788 0.950 . S
C814 C810 1.385 . S
C814 C813 1.374 . S
C815 C812 1.499 . S
C815 C816 1.373 . S
C815 C817 1.389 . S
C816 H789 0.950 . S
C816 C802 1.377 . S
C816 C815 1.373 . S
C817 C801 1.377 . S
C817 C815 1.389 . S
C817 C818 1.524 . S
C818 C817 1.524 . S
C818 C819 1.397 . S
C818 C823 1.363 . S
C819 H790 0.950 . S
C819 C818 1.397 . S
C819 C820 1.334 . S
C820 H791 0.950 . S
C820 C819 1.334 . S
C820 C821 1.287 . S
C821 C820 1.287 . S
C821 C822 1.524 . S
C821 H824 0.999 . S
C822 H792 0.950 . S
C822 C821 1.524 . S
C822 C823 1.415 . S
C823 H793 0.950 . S
C823 C818 1.363 . S
C823 C822 1.415 . S
H824 C821 0.999 . S
H825 C806 0.913 . S
H826 C844 0.951 . S
H827 C846 0.951 . S
H828 C848 0.950 . S
H829 C849 0.950 . S
H830 C851 0.950 . S
H831 C854 0.950 . S
H832 C855 0.950 . S
H833 C857 0.950 . S
H834 C858 0.950 . S
H835 C859 0.951 . S
H836 C861 0.951 . S
H837 C863 0.950 . S
H838 C864 0.950 . S
H839 C866 0.950 . S
H840 C869 0.950 . S
H841 C870 0.950 . S
H842 C872 0.950 . S
H843 C873 0.950 . S
C844 H826 0.951 . S
C844 C845 1.366 . S
C844 C846 1.388 . S
C845 C844 1.366 . S
C845 C849 1.385 . S
C846 H827 0.951 . S
C846 C844 1.388 . S
C846 C847 1.366 . S
C847 C846 1.366 . S
C847 C848 1.414 . S
C847 C850 1.492 1_455 S
C848 H828 0.950 . S
C848 C847 1.414 . S
C848 C849 1.374 . S
C849 H829 0.950 . S
C849 C845 1.385 . S
C849 C848 1.374 . S
C850 C847 1.492 1_655 S
C850 C851 1.360 1_655 S
C850 C852 1.408 . S
C851 H830 0.950 . S
C851 C850 1.360 1_455 S
C851 C867 1.377 . S
C852 C850 1.408 . S
C852 C853 1.524 . S
C852 C866 1.377 . S
C853 C852 1.524 . S
C853 C854 1.397 . S
C853 C858 1.363 . S
C854 H831 0.950 . S
C854 C853 1.397 . S
C854 C855 1.334 . S
C855 H832 0.950 . S
C855 C854 1.334 . S
C855 C856 1.287 . S
C856 C855 1.287 . S
C856 C857 1.524 . S
C856 H875 0.913 . S
C857 H833 0.950 . S
C857 C856 1.524 . S
C857 C858 1.415 . S
C858 H834 0.950 . S
C858 C853 1.363 . S
C858 C857 1.415 . S
C859 H835 0.951 . S
C859 C860 1.366 . S
C859 C861 1.388 . S
C860 C859 1.366 . S
C860 C864 1.385 . S
C861 H836 0.951 . S
C861 C859 1.388 . S
C861 C862 1.366 . S
C862 C861 1.366 . S
C862 C863 1.414 . S
C862 C865 1.499 . S
C863 H837 0.950 . S
C863 C862 1.414 . S
C863 C864 1.374 . S
C864 H838 0.950 . S
C864 C860 1.385 . S
C864 C863 1.374 . S
C865 C862 1.499 . S
C865 C866 1.373 . S
C865 C867 1.389 1_655 S
C866 H839 0.950 . S
C866 C852 1.377 . S
C866 C865 1.373 . S
C867 C851 1.377 . S
C867 C865 1.389 1_455 S
C867 C868 1.524 . S
C868 C867 1.524 . S
C868 C869 1.397 . S
C868 C873 1.363 . S
C869 H840 0.950 . S
C869 C868 1.397 . S
C869 C870 1.334 . S
C870 H841 0.950 . S
C870 C869 1.334 . S
C870 C871 1.287 . S
C871 C870 1.287 . S
C871 C872 1.524 . S
C871 H874 0.999 . S
C872 H842 0.950 . S
C872 C871 1.524 . S
C872 C873 1.415 . S
C873 H843 0.950 . S
C873 C868 1.363 . S
C873 C872 1.415 . S
H874 C871 0.999 . S
H875 C856 0.913 . S
H876 C894 0.951 . S
H877 C896 0.951 . S
H878 C898 0.950 . S
H879 C899 0.950 . S
H880 C901 0.950 . S
H881 C904 0.950 . S
H882 C905 0.950 . S
H883 C907 0.950 . S
H884 C908 0.950 . S
H885 C909 0.951 . S
H886 C911 0.936 1_565 S
H887 C913 0.950 . S
H888 C914 0.950 . S
H889 C916 0.950 . S
H890 C919 0.950 . S
H891 C920 0.950 . S
H892 C922 0.950 . S
H893 C923 0.950 . S
C894 H876 0.951 . S
C894 C895 1.366 . S
C894 C896 1.388 . S
C895 C894 1.366 . S
C895 C899 1.385 . S
C896 H877 0.951 . S
C896 C894 1.388 . S
C896 C897 1.366 . S
C897 C896 1.366 . S
C897 C898 1.414 . S
C897 C900 1.499 . S
C898 H878 0.950 . S
C898 C897 1.414 . S
C898 C899 1.374 . S
C899 H879 0.950 . S
C899 C895 1.385 . S
C899 C898 1.374 . S
C900 C897 1.499 . S
C900 C901 1.373 . S
C900 C902 1.389 1_565 S
C901 H880 0.950 . S
C901 C900 1.373 . S
C901 C917 1.377 . S
C902 C900 1.389 1_545 S
C902 C903 1.524 . S
C902 C916 1.377 . S
C903 C902 1.524 . S
C903 C904 1.397 . S
C903 C908 1.363 . S
C904 H881 0.950 . S
C904 C903 1.397 . S
C904 C905 1.334 . S
C905 H882 0.950 . S
C905 C904 1.334 . S
C905 C906 1.287 . S
C906 C905 1.287 . S
C906 C907 1.524 . S
C906 H925 0.913 . S
C907 H883 0.950 . S
C907 C906 1.524 . S
C907 C908 1.415 . S
C908 H884 0.950 . S
C908 C903 1.363 . S
C908 C907 1.415 . S
C909 H885 0.951 . S
C909 C910 1.366 . S
C909 C911 1.396 . S
C910 C909 1.366 . S
C910 C914 1.385 . S
C911 H886 0.936 1_545 S
C911 C909 1.396 . S
C911 C912 1.373 . S
C912 C911 1.373 . S
C912 C913 1.414 . S
C912 C915 1.498 . S
C913 H887 0.950 . S
C913 C912 1.414 . S
C913 C914 1.374 . S
C914 H888 0.950 . S
C914 C910 1.385 . S
C914 C913 1.374 . S
C915 C912 1.498 . S
C915 C916 1.372 . S
C915 C917 1.391 1_545 S
C916 H889 0.950 . S
C916 C902 1.377 . S
C916 C915 1.372 . S
C917 C901 1.377 . S
C917 C915 1.391 1_565 S
C917 C918 1.524 . S
C918 C917 1.524 . S
C918 C919 1.397 . S
C918 C923 1.363 . S
C919 H890 0.950 . S
C919 C918 1.397 . S
C919 C920 1.334 . S
C920 H891 0.950 . S
C920 C919 1.334 . S
C920 C921 1.287 . S
C921 C920 1.287 . S
C921 C922 1.524 . S
C921 H924 0.999 . S
C922 H892 0.950 . S
C922 C921 1.524 . S
C922 C923 1.415 . S
C923 H893 0.950 . S
C923 C918 1.363 . S
C923 C922 1.415 . S
H924 C921 0.999 . S
H925 C906 0.913 . S
H926 C944 0.951 . S
H927 C946 0.951 . S
H928 C948 0.950 . S
H929 C949 0.950 . S
H930 C951 0.950 . S
H931 C954 0.950 . S
H932 C955 0.950 . S
H933 C957 0.950 . S
H934 C958 0.950 . S
H935 C959 0.951 . S
H936 C961 0.951 . S
H937 C963 0.950 . S
H938 C964 0.950 . S
H939 C966 0.950 . S
H940 C969 0.950 . S
H941 C970 0.950 . S
H942 C972 0.950 . S
H943 C973 0.950 . S
C944 H926 0.951 . S
C944 C945 1.366 . S
C944 C946 1.388 . S
C945 C944 1.366 . S
C945 C949 1.385 . S
C946 H927 0.951 . S
C946 C944 1.388 . S
C946 C947 1.366 . S
C947 C946 1.366 . S
C947 C948 1.414 . S
C947 C950 1.499 . S
C948 H928 0.950 . S
C948 C947 1.414 . S
C948 C949 1.374 . S
C949 H929 0.950 . S
C949 C945 1.385 . S
C949 C948 1.374 . S
C950 C947 1.499 . S
C950 C951 1.373 . S
C950 C952 1.389 . S
C951 H930 0.950 . S
C951 C950 1.373 . S
C951 C967 1.377 . S
C952 C950 1.389 . S
C952 C953 1.524 . S
C952 C966 1.377 . S
C953 C952 1.524 . S
C953 C954 1.397 . S
C953 C958 1.363 . S
C954 H931 0.950 . S
C954 C953 1.397 . S
C954 C955 1.334 . S
C955 H932 0.950 . S
C955 C954 1.334 . S
C955 C956 1.287 . S
C956 C955 1.287 . S
C956 C957 1.524 . S
C956 H975 0.913 . S
C957 H933 0.950 . S
C957 C956 1.524 . S
C957 C958 1.415 . S
C958 H934 0.950 . S
C958 C953 1.363 . S
C958 C957 1.415 . S
C959 H935 0.951 . S
C959 C960 1.366 . S
C959 C961 1.388 . S
C960 C959 1.366 . S
C960 C964 1.385 . S
C961 H936 0.951 . S
C961 C959 1.388 . S
C961 C962 1.366 . S
C962 C961 1.366 . S
C962 C963 1.414 . S
C962 C965 1.499 . S
C963 H937 0.950 . S
C963 C962 1.414 . S
C963 C964 1.374 . S
C964 H938 0.950 . S
C964 C960 1.385 . S
C964 C963 1.374 . S
C965 C962 1.499 . S
C965 C966 1.373 . S
C965 C967 1.389 . S
C966 H939 0.950 . S
C966 C952 1.377 . S
C966 C965 1.373 . S
C967 C951 1.377 . S
C967 C965 1.389 . S
C967 C968 1.524 . S
C968 C967 1.524 . S
C968 C969 1.397 . S
C968 C973 1.363 . S
C969 H940 0.950 . S
C969 C968 1.397 . S
C969 C970 1.334 . S
C970 H941 0.950 . S
C970 C969 1.334 . S
C970 C971 1.287 . S
C971 C970 1.287 . S
C971 C972 1.524 . S
C971 H974 0.999 . S
C972 H942 0.950 . S
C972 C971 1.524 . S
C972 C973 1.415 . S
C973 H943 0.950 . S
C973 C968 1.363 . S
C973 C972 1.415 . S
H974 C971 0.999 . S
H975 C956 0.913 . S
H976 C994 0.951 . S
H977 C996 0.951 . S
H978 C998 0.950 . S
H979 C999 0.950 . S
H980 C1001 0.950 . S
H981 C1004 0.950 . S
H982 C1005 0.950 . S
H983 C1007 0.950 . S
H984 C1008 0.950 . S
H985 C1009 0.951 . S
H986 C1011 0.951 . S
H987 C1013 0.950 . S
H988 C1014 0.950 . S
H989 C1016 0.950 . S
H990 C1019 0.950 . S
H991 C1020 0.950 . S
H992 C1022 0.950 . S
H993 C1023 0.950 . S
C994 H976 0.951 . S
C994 C995 1.366 . S
C994 C996 1.388 . S
C995 C994 1.366 . S
C995 C999 1.385 . S
C996 H977 0.951 . S
C996 C994 1.388 . S
C996 C997 1.366 . S
C997 C996 1.366 . S
C997 C998 1.414 . S
C997 C1000 1.499 . S
C998 H978 0.950 . S
C998 C997 1.414 . S
C998 C999 1.374 . S
C999 H979 0.950 . S
C999 C995 1.385 . S
C999 C998 1.374 . S
C1000 C997 1.499 . S
C1000 C1001 1.373 . S
C1000 C1002 1.389 . S
C1001 H980 0.950 . S
C1001 C1000 1.373 . S
C1001 C1017 1.377 . S
C1002 C1000 1.389 . S
C1002 C1003 1.524 . S
C1002 C1016 1.377 . S
C1003 C1002 1.524 . S
C1003 C1004 1.397 . S
C1003 C1008 1.363 . S
C1004 H981 0.950 . S
C1004 C1003 1.397 . S
C1004 C1005 1.334 . S
C1005 H982 0.950 . S
C1005 C1004 1.334 . S
C1005 C1006 1.287 . S
C1006 C1005 1.287 . S
C1006 C1007 1.524 . S
C1006 H1025 0.913 . S
C1007 H983 0.950 . S
C1007 C1006 1.524 . S
C1007 C1008 1.415 . S
C1008 H984 0.950 . S
C1008 C1003 1.363 . S
C1008 C1007 1.415 . S
C1009 H985 0.951 . S
C1009 C1010 1.366 . S
C1009 C1011 1.388 . S
C1010 C1009 1.366 . S
C1010 C1014 1.385 . S
C1011 H986 0.951 . S
C1011 C1009 1.388 . S
C1011 C1012 1.366 . S
C1012 C1011 1.366 . S
C1012 C1013 1.414 . S
C1012 C1015 1.499 . S
C1013 H987 0.950 . S
C1013 C1012 1.414 . S
C1013 C1014 1.374 . S
C1014 H988 0.950 . S
C1014 C1010 1.385 . S
C1014 C1013 1.374 . S
C1015 C1012 1.499 . S
C1015 C1016 1.373 . S
C1015 C1017 1.389 . S
C1016 H989 0.950 . S
C1016 C1002 1.377 . S
C1016 C1015 1.373 . S
C1017 C1001 1.377 . S
C1017 C1015 1.389 . S
C1017 C1018 1.524 . S
C1018 C1017 1.524 . S
C1018 C1019 1.397 . S
C1018 C1023 1.363 . S
C1019 H990 0.950 . S
C1019 C1018 1.397 . S
C1019 C1020 1.334 . S
C1020 H991 0.950 . S
C1020 C1019 1.334 . S
C1020 C1021 1.287 . S
C1021 C1020 1.287 . S
C1021 C1022 1.524 . S
C1021 H1024 0.999 . S
C1022 H992 0.950 . S
C1022 C1021 1.524 . S
C1022 C1023 1.415 . S
C1023 H993 0.950 . S
C1023 C1018 1.363 . S
C1023 C1022 1.415 . S
H1024 C1021 0.999 . S
H1025 C1006 0.913 . S
H1026 C1044 0.951 . S
H1027 C1046 0.951 . S
H1028 C1048 0.950 . S
H1029 C1049 0.950 . S
H1030 C1051 0.950 . S
H1031 C1054 0.950 . S
H1032 C1055 0.950 . S
H1033 C1057 0.950 . S
H1034 C1058 0.950 . S
H1035 C1059 0.951 . S
H1036 C1061 0.951 . S
H1037 C1063 0.950 . S
H1038 C1064 0.950 . S
H1039 C1066 0.950 . S
H1040 C1069 0.950 . S
H1041 C1070 0.950 . S
H1042 C1072 0.950 . S
H1043 C1073 0.950 . S
C1044 H1026 0.951 . S
C1044 C1045 1.366 . S
C1044 C1046 1.388 . S
C1045 C1044 1.366 . S
C1045 C1049 1.385 . S
C1046 H1027 0.951 . S
C1046 C1044 1.388 . S
C1046 C1047 1.366 . S
C1047 C1046 1.366 . S
C1047 C1048 1.414 . S
C1047 C1050 1.499 . S
C1048 H1028 0.950 . S
C1048 C1047 1.414 . S
C1048 C1049 1.374 . S
C1049 H1029 0.950 . S
C1049 C1045 1.385 . S
C1049 C1048 1.374 . S
C1050 C1047 1.499 . S
C1050 C1051 1.373 . S
C1050 C1052 1.389 . S
C1051 H1030 0.950 . S
C1051 C1050 1.373 . S
C1051 C1067 1.377 . S
C1052 C1050 1.389 . S
C1052 C1053 1.524 . S
C1052 C1066 1.377 . S
C1053 C1052 1.524 . S
C1053 C1054 1.397 . S
C1053 C1058 1.363 . S
C1054 H1031 0.950 . S
C1054 C1053 1.397 . S
C1054 C1055 1.334 . S
C1055 H1032 0.950 . S
C1055 C1054 1.334 . S
C1055 C1056 1.287 . S
C1056 C1055 1.287 . S
C1056 C1057 1.524 . S
C1056 H1075 0.913 . S
C1057 H1033 0.950 . S
C1057 C1056 1.524 . S
C1057 C1058 1.415 . S
C1058 H1034 0.950 . S
C1058 C1053 1.363 . S
C1058 C1057 1.415 . S
C1059 H1035 0.951 . S
C1059 C1060 1.366 . S
C1059 C1061 1.388 . S
C1060 C1059 1.366 . S
C1060 C1064 1.385 . S
C1061 H1036 0.951 . S
C1061 C1059 1.388 . S
C1061 C1062 1.366 . S
C1062 C1061 1.366 . S
C1062 C1063 1.414 . S
C1062 C1065 1.499 . S
C1063 H1037 0.950 . S
C1063 C1062 1.414 . S
C1063 C1064 1.374 . S
C1064 H1038 0.950 . S
C1064 C1060 1.385 . S
C1064 C1063 1.374 . S
C1065 C1062 1.499 . S
C1065 C1066 1.373 . S
C1065 C1067 1.389 . S
C1066 H1039 0.950 . S
C1066 C1052 1.377 . S
C1066 C1065 1.373 . S
C1067 C1051 1.377 . S
C1067 C1065 1.389 . S
C1067 C1068 1.524 . S
C1068 C1067 1.524 . S
C1068 C1069 1.397 . S
C1068 C1073 1.363 . S
C1069 H1040 0.950 . S
C1069 C1068 1.397 . S
C1069 C1070 1.334 . S
C1070 H1041 0.950 . S
C1070 C1069 1.334 . S
C1070 C1071 1.287 . S
C1071 C1070 1.287 . S
C1071 C1072 1.524 . S
C1071 H1074 0.999 . S
C1072 H1042 0.950 . S
C1072 C1071 1.524 . S
C1072 C1073 1.415 . S
C1073 H1043 0.950 . S
C1073 C1068 1.363 . S
C1073 C1072 1.415 . S
H1074 C1071 0.999 . S
H1075 C1056 0.913 . S
H1076 C1094 0.951 . S
H1077 C1096 0.951 . S
H1078 C1098 0.950 . S
H1079 C1099 0.950 . S
H1080 C1101 0.950 . S
H1081 C1104 0.950 . S
H1082 C1105 0.950 . S
H1083 C1107 0.950 . S
H1084 C1108 0.950 . S
H1085 C1109 0.951 . S
H1086 C1111 0.951 . S
H1087 C1113 0.950 . S
H1088 C1114 0.950 . S
H1089 C1116 0.950 . S
H1090 C1119 0.950 . S
H1091 C1120 0.950 . S
H1092 C1122 0.950 . S
H1093 C1123 0.950 . S
C1094 H1076 0.951 . S
C1094 C1095 1.366 . S
C1094 C1096 1.388 . S
C1095 C1094 1.366 . S
C1095 C1099 1.385 . S
C1096 H1077 0.951 . S
C1096 C1094 1.388 . S
C1096 C1097 1.366 . S
C1097 C1096 1.366 . S
C1097 C1098 1.414 . S
C1097 C1100 1.499 . S
C1098 H1078 0.950 . S
C1098 C1097 1.414 . S
C1098 C1099 1.374 . S
C1099 H1079 0.950 . S
C1099 C1095 1.385 . S
C1099 C1098 1.374 . S
C1100 C1097 1.499 . S
C1100 C1101 1.373 . S
C1100 C1102 1.389 . S
C1101 H1080 0.950 . S
C1101 C1100 1.373 . S
C1101 C1117 1.377 . S
C1102 C1100 1.389 . S
C1102 C1103 1.524 . S
C1102 C1116 1.377 . S
C1103 C1102 1.524 . S
C1103 C1104 1.397 . S
C1103 C1108 1.363 . S
C1104 H1081 0.950 . S
C1104 C1103 1.397 . S
C1104 C1105 1.334 . S
C1105 H1082 0.950 . S
C1105 C1104 1.334 . S
C1105 C1106 1.287 . S
C1106 C1105 1.287 . S
C1106 C1107 1.524 . S
C1106 H1125 0.913 . S
C1107 H1083 0.950 . S
C1107 C1106 1.524 . S
C1107 C1108 1.415 . S
C1108 H1084 0.950 . S
C1108 C1103 1.363 . S
C1108 C1107 1.415 . S
C1109 H1085 0.951 . S
C1109 C1110 1.366 . S
C1109 C1111 1.388 . S
C1110 C1109 1.366 . S
C1110 C1114 1.385 . S
C1111 H1086 0.951 . S
C1111 C1109 1.388 . S
C1111 C1112 1.366 . S
C1112 C1111 1.366 . S
C1112 C1113 1.414 . S
C1112 C1115 1.499 . S
C1113 H1087 0.950 . S
C1113 C1112 1.414 . S
C1113 C1114 1.374 . S
C1114 H1088 0.950 . S
C1114 C1110 1.385 . S
C1114 C1113 1.374 . S
C1115 C1112 1.499 . S
C1115 C1116 1.373 . S
C1115 C1117 1.389 . S
C1116 H1089 0.950 . S
C1116 C1102 1.377 . S
C1116 C1115 1.373 . S
C1117 C1101 1.377 . S
C1117 C1115 1.389 . S
C1117 C1118 1.524 . S
C1118 C1117 1.524 . S
C1118 C1119 1.397 . S
C1118 C1123 1.363 . S
C1119 H1090 0.950 . S
C1119 C1118 1.397 . S
C1119 C1120 1.334 . S
C1120 H1091 0.950 . S
C1120 C1119 1.334 . S
C1120 C1121 1.287 . S
C1121 C1120 1.287 . S
C1121 C1122 1.524 . S
C1121 H1124 0.999 . S
C1122 H1092 0.950 . S
C1122 C1121 1.524 . S
C1122 C1123 1.415 . S
C1123 H1093 0.950 . S
C1123 C1118 1.363 . S
C1123 C1122 1.415 . S
H1124 C1121 0.999 . S
H1125 C1106 0.913 . S
H1126 C1144 0.951 . S
H1127 C1146 0.951 . S
H1128 C1148 0.950 . S
H1129 C1149 0.950 . S
H1130 C1151 0.950 . S
H1131 C1154 0.950 . S
H1132 C1155 0.950 . S
H1133 C1157 0.950 . S
H1134 C1158 0.950 . S
H1135 C1159 0.951 . S
H1136 C1161 0.951 . S
H1137 C1163 0.950 . S
H1138 C1164 0.950 . S
H1139 C1166 0.950 . S
H1140 C1169 0.950 . S
H1141 C1170 0.950 . S
H1142 C1172 0.950 . S
H1143 C1173 0.950 . S
C1144 H1126 0.951 . S
C1144 C1145 1.366 . S
C1144 C1146 1.388 . S
C1145 C1144 1.366 . S
C1145 C1149 1.385 . S
C1146 H1127 0.951 . S
C1146 C1144 1.388 . S
C1146 C1147 1.366 . S
C1147 C1146 1.366 . S
C1147 C1148 1.414 . S
C1147 C1150 1.499 . S
C1148 H1128 0.950 . S
C1148 C1147 1.414 . S
C1148 C1149 1.374 . S
C1149 H1129 0.950 . S
C1149 C1145 1.385 . S
C1149 C1148 1.374 . S
C1150 C1147 1.499 . S
C1150 C1151 1.373 . S
C1150 C1152 1.389 . S
C1151 H1130 0.950 . S
C1151 C1150 1.373 . S
C1151 C1167 1.377 . S
C1152 C1150 1.389 . S
C1152 C1153 1.524 . S
C1152 C1166 1.377 . S
C1153 C1152 1.524 . S
C1153 C1154 1.397 . S
C1153 C1158 1.363 . S
C1154 H1131 0.950 . S
C1154 C1153 1.397 . S
C1154 C1155 1.334 . S
C1155 H1132 0.950 . S
C1155 C1154 1.334 . S
C1155 C1156 1.287 . S
C1156 C1155 1.287 . S
C1156 C1157 1.524 . S
C1156 H1175 0.913 . S
C1157 H1133 0.950 . S
C1157 C1156 1.524 . S
C1157 C1158 1.415 . S
C1158 H1134 0.950 . S
C1158 C1153 1.363 . S
C1158 C1157 1.415 . S
C1159 H1135 0.951 . S
C1159 C1160 1.366 . S
C1159 C1161 1.388 . S
C1160 C1159 1.366 . S
C1160 C1164 1.385 . S
C1161 H1136 0.951 . S
C1161 C1159 1.388 . S
C1161 C1162 1.366 . S
C1162 C1161 1.366 . S
C1162 C1163 1.414 . S
C1162 C1165 1.499 . S
C1163 H1137 0.950 . S
C1163 C1162 1.414 . S
C1163 C1164 1.374 . S
C1164 H1138 0.950 . S
C1164 C1160 1.385 . S
C1164 C1163 1.374 . S
C1165 C1162 1.499 . S
C1165 C1166 1.373 . S
C1165 C1167 1.389 . S
C1166 H1139 0.950 . S
C1166 C1152 1.377 . S
C1166 C1165 1.373 . S
C1167 C1151 1.377 . S
C1167 C1165 1.389 . S
C1167 C1168 1.524 . S
C1168 C1167 1.524 . S
C1168 C1169 1.397 . S
C1168 C1173 1.363 . S
C1169 H1140 0.950 . S
C1169 C1168 1.397 . S
C1169 C1170 1.334 . S
C1170 H1141 0.950 . S
C1170 C1169 1.334 . S
C1170 C1171 1.287 . S
C1171 C1170 1.287 . S
C1171 C1172 1.524 . S
C1171 H1174 0.999 . S
C1172 H1142 0.950 . S
C1172 C1171 1.524 . S
C1172 C1173 1.415 . S
C1173 H1143 0.950 . S
C1173 C1168 1.363 . S
C1173 C1172 1.415 . S
H1174 C1171 0.999 . S
H1175 C1156 0.913 . S
H1176 C1194 0.951 . S
H1177 C1196 0.951 . S
H1178 C1198 0.950 . S
H1179 C1199 0.950 . S
H1180 C1201 0.950 . S
H1181 C1204 0.950 . S
H1182 C1205 0.950 . S
H1183 C1207 0.950 . S
H1184 C1208 0.950 . S
H1185 C1209 0.951 . S
H1186 C1211 0.951 . S
H1187 C1213 0.950 . S
H1188 C1214 0.950 . S
H1189 C1216 0.950 . S
H1190 C1219 0.950 . S
H1191 C1220 0.950 . S
H1192 C1222 0.950 . S
H1193 C1223 0.950 . S
C1194 H1176 0.951 . S
C1194 C1195 1.366 1_455 S
C1194 C1196 1.388 . S
C1195 C1194 1.366 1_655 S
C1195 C1199 1.385 . S
C1196 H1177 0.951 . S
C1196 C1194 1.388 . S
C1196 C1197 1.366 1_455 S
C1197 C1196 1.366 1_655 S
C1197 C1198 1.414 . S
C1197 C1200 1.499 . S
C1198 H1178 0.950 . S
C1198 C1197 1.414 . S
C1198 C1199 1.374 . S
C1199 H1179 0.950 . S
C1199 C1195 1.385 . S
C1199 C1198 1.374 . S
C1200 C1197 1.499 . S
C1200 C1201 1.373 . S
C1200 C1202 1.389 1_655 S
C1201 H1180 0.950 . S
C1201 C1200 1.373 . S
C1201 C1217 1.380 1_556 S
C1202 C1200 1.389 1_455 S
C1202 C1203 1.525 . S
C1202 C1216 1.377 1_556 S
C1203 C1202 1.525 . S
C1203 C1204 1.370 1_455 S
C1203 C1208 1.387 . S
C1204 H1181 0.950 . S
C1204 C1203 1.370 1_655 S
C1204 C1205 1.334 . S
C1205 H1182 0.950 . S
C1205 C1204 1.334 . S
C1205 C1206 1.287 . S
C1206 C1205 1.287 . S
C1206 C1207 1.524 1_655 S
C1206 H1225 0.913 . S
C1207 H1183 0.950 . S
C1207 C1206 1.524 1_455 S
C1207 C1208 1.415 . S
C1208 H1184 0.950 . S
C1208 C1203 1.387 . S
C1208 C1207 1.415 . S
C1209 H1185 0.951 . S
C1209 C1210 1.366 1_655 S
C1209 C1211 1.388 . S
C1210 C1209 1.366 1_455 S
C1210 C1214 1.385 . S
C1211 H1186 0.951 . S
C1211 C1209 1.388 . S
C1211 C1212 1.366 1_655 S
C1212 C1211 1.366 1_455 S
C1212 C1213 1.414 . S
C1212 C1215 1.499 . S
C1213 H1187 0.950 . S
C1213 C1212 1.414 . S
C1213 C1214 1.374 . S
C1214 H1188 0.950 . S
C1214 C1210 1.385 . S
C1214 C1213 1.374 . S
C1215 C1212 1.499 . S
C1215 C1216 1.373 . S
C1215 C1217 1.386 1_455 S
C1216 H1189 0.950 . S
C1216 C1202 1.377 1_554 S
C1216 C1215 1.373 . S
C1217 C1201 1.380 1_554 S
C1217 C1215 1.386 1_655 S
C1217 C1218 1.524 1_655 S
C1218 C1217 1.524 1_455 S
C1218 C1219 1.402 . S
C1218 C1223 1.358 1_455 S
C1219 H1190 0.950 . S
C1219 C1218 1.402 . S
C1219 C1220 1.334 . S
C1220 H1191 0.950 . S
C1220 C1219 1.334 . S
C1220 C1221 1.287 . S
C1221 C1220 1.287 . S
C1221 C1222 1.524 1_455 S
C1221 H1224 0.999 . S
C1222 H1192 0.950 . S
C1222 C1221 1.524 1_655 S
C1222 C1223 1.415 . S
C1223 H1193 0.950 . S
C1223 C1218 1.358 1_655 S
C1223 C1222 1.415 . S
H1224 C1221 0.999 . S
H1225 C1206 0.913 . S
H1226 C1244 0.954 1_655 S
H1227 C1246 0.951 . S
H1228 C1248 0.950 . S
H1229 C1249 0.950 . S
H1230 C1251 0.950 . S
H1231 C1254 0.950 . S
H1232 C1255 0.950 . S
H1233 C1257 0.934 1_655 S
H1234 C1258 0.946 1_655 S
H1235 C1259 0.951 1_455 S
H1236 C1261 0.951 . S
H1237 C1263 0.950 . S
H1238 C1264 0.950 . S
H1239 C1266 0.950 . S
H1240 C1269 0.950 . S
H1241 C1270 0.950 . S
H1242 C1272 0.953 . S
H1243 C1273 0.950 1_455 S
C1244 H1226 0.954 1_455 S
C1244 C1245 1.362 1_565 S
C1244 C1246 1.389 1_455 S
C1245 C1244 1.362 1_545 S
C1245 C1249 1.385 . S
C1246 H1227 0.951 . S
C1246 C1244 1.389 1_655 S
C1246 C1247 1.366 1_665 S
C1247 C1246 1.366 1_445 S
C1247 C1248 1.414 . S
C1247 C1250 1.499 . S
C1248 H1228 0.950 . S
C1248 C1247 1.414 . S
C1248 C1249 1.374 . S
C1249 H1229 0.950 . S
C1249 C1245 1.385 . S
C1249 C1248 1.374 . S
C1250 C1247 1.499 . S
C1250 C1251 1.369 1_455 S
C1250 C1252 1.389 1_545 S
C1251 H1230 0.950 . S
C1251 C1250 1.369 1_655 S
C1251 C1267 1.381 . S
C1252 C1250 1.389 1_565 S
C1252 C1253 1.524 . S
C1252 C1266 1.372 1_455 S
C1253 C1252 1.524 . S
C1253 C1254 1.397 . S
C1253 C1258 1.365 . S
C1254 H1231 0.950 . S
C1254 C1253 1.397 . S
C1254 C1255 1.334 . S
C1255 H1232 0.950 . S
C1255 C1254 1.334 . S
C1255 C1256 1.287 . S
C1256 C1255 1.287 . S
C1256 C1257 1.524 . S
C1256 H1275 0.913 . S
C1257 H1233 0.934 1_455 S
C1257 C1256 1.524 . S
C1257 C1258 1.416 . S
C1258 H1234 0.946 1_455 S
C1258 C1253 1.365 . S
C1258 C1257 1.416 . S
C1259 H1235 0.951 1_655 S
C1259 C1260 1.366 1_545 S
C1259 C1261 1.388 1_655 S
C1260 C1259 1.366 1_565 S
C1260 C1264 1.385 . S
C1261 H1236 0.951 . S
C1261 C1259 1.388 1_455 S
C1261 C1262 1.366 1_445 S
C1262 C1261 1.366 1_665 S
C1262 C1263 1.414 . S
C1262 C1265 1.499 . S
C1263 H1237 0.950 . S
C1263 C1262 1.414 . S
C1263 C1264 1.374 . S
C1264 H1238 0.950 . S
C1264 C1260 1.385 . S
C1264 C1263 1.374 . S
C1265 C1262 1.499 . S
C1265 C1266 1.378 . S
C1265 C1267 1.389 1_565 S
C1266 H1239 0.950 . S
C1266 C1252 1.372 1_655 S
C1266 C1265 1.378 . S
C1267 C1251 1.381 . S
C1267 C1265 1.389 1_545 S
C1267 C1268 1.524 . S
C1268 C1267 1.524 . S
C1268 C1269 1.397 . S
C1268 C1273 1.363 . S
C1269 H1240 0.950 . S
C1269 C1268 1.397 . S
C1269 C1270 1.334 . S
C1270 H1241 0.950 . S
C1270 C1269 1.334 . S
C1270 C1271 1.287 . S
C1271 C1270 1.287 . S
C1271 C1272 1.524 . S
C1271 H1274 0.999 . S
C1272 H1242 0.953 . S
C1272 C1271 1.524 . S
C1272 C1273 1.415 . S
C1273 H1243 0.950 1_655 S
C1273 C1268 1.363 . S
C1273 C1272 1.415 . S
H1274 C1271 0.999 . S
H1275 C1256 0.913 . S
H1276 C1294 0.951 . S
H1277 C1296 0.951 1_545 S
H1278 C1298 0.950 . S
H1279 C1299 0.950 . S
H1280 C1301 0.950 . S
H1281 C1304 0.950 . S
H1282 C1305 0.950 . S
H1283 C1307 0.950 . S
H1284 C1308 0.950 1_554 S
H1285 C1309 0.951 . S
H1286 C1311 0.951 1_565 S
H1287 C1313 0.950 . S
H1288 C1314 0.950 . S
H1289 C1316 0.950 . S
H1290 C1319 0.950 . S
H1291 C1320 0.950 . S
H1292 C1322 0.950 . S
H1293 C1323 0.950 1_556 S
C1294 H1276 0.951 . S
C1294 C1295 1.366 . S
C1294 C1296 1.388 . S
C1295 C1294 1.366 . S
C1295 C1299 1.385 . S
C1296 H1277 0.951 1_565 S
C1296 C1294 1.388 . S
C1296 C1297 1.366 . S
C1297 C1296 1.366 . S
C1297 C1298 1.414 . S
C1297 C1300 1.499 . S
C1298 H1278 0.950 . S
C1298 C1297 1.414 . S
C1298 C1299 1.374 . S
C1299 H1279 0.950 . S
C1299 C1295 1.385 . S
C1299 C1298 1.374 . S
C1300 C1297 1.499 . S
C1300 C1301 1.373 1_565 S
C1300 C1302 1.389 . S
C1301 H1280 0.950 . S
C1301 C1300 1.373 1_545 S
C1301 C1317 1.377 1_556 S
C1302 C1300 1.389 . S
C1302 C1303 1.524 . S
C1302 C1316 1.377 1_556 S
C1303 C1302 1.524 . S
C1303 C1304 1.397 . S
C1303 C1308 1.363 . S
C1304 H1281 0.950 . S
C1304 C1303 1.397 . S
C1304 C1305 1.334 . S
C1305 H1282 0.950 . S
C1305 C1304 1.334 . S
C1305 C1306 1.287 . S
C1306 C1305 1.287 . S
C1306 C1307 1.524 . S
C1306 H1325 0.913 . S
C1307 H1283 0.950 . S
C1307 C1306 1.524 . S
C1307 C1308 1.415 . S
C1308 H1284 0.950 1_556 S
C1308 C1303 1.363 . S
C1308 C1307 1.415 . S
C1309 H1285 0.951 . S
C1309 C1310 1.366 . S
C1309 C1311 1.388 . S
C1310 C1309 1.366 . S
C1310 C1314 1.385 . S
C1311 H1286 0.951 1_545 S
C1311 C1309 1.388 . S
C1311 C1312 1.366 . S
C1312 C1311 1.366 . S
C1312 C1313 1.414 . S
C1312 C1315 1.499 . S
C1313 H1287 0.950 . S
C1313 C1312 1.414 . S
C1313 C1314 1.374 . S
C1314 H1288 0.950 . S
C1314 C1310 1.385 . S
C1314 C1313 1.374 . S
C1315 C1312 1.499 . S
C1315 C1316 1.373 1_545 S
C1315 C1317 1.389 . S
C1316 H1289 0.950 . S
C1316 C1302 1.377 1_554 S
C1316 C1315 1.373 1_565 S
C1317 C1301 1.377 1_554 S
C1317 C1315 1.389 . S
C1317 C1318 1.524 . S
C1318 C1317 1.524 . S
C1318 C1319 1.397 . S
C1318 C1323 1.363 . S
C1319 H1290 0.950 . S
C1319 C1318 1.397 . S
C1319 C1320 1.334 . S
C1320 H1291 0.950 . S
C1320 C1319 1.334 . S
C1320 C1321 1.287 . S
C1321 C1320 1.287 . S
C1321 C1322 1.524 . S
C1321 H1324 0.999 . S
C1322 H1292 0.950 . S
C1322 C1321 1.524 . S
C1322 C1323 1.415 . S
C1323 H1293 0.950 1_554 S
C1323 C1318 1.363 . S
C1323 C1322 1.415 . S
H1324 C1321 0.999 . S
H1325 C1306 0.913 . S
H1326 C1344 0.951 . S
H1327 C1346 0.951 . S
H1328 C1348 0.950 . S
H1329 C1349 0.950 . S
H1330 C1351 0.950 . S
H1331 C1354 0.950 . S
H1332 C1355 0.950 . S
H1333 C1357 0.950 . S
H1334 C1358 0.950 . S
H1335 C1359 0.951 . S
H1336 C1361 0.951 . S
H1337 C1363 0.950 . S
H1338 C1364 0.950 . S
H1339 C1366 0.950 . S
H1340 C1369 0.950 . S
H1341 C1370 0.950 . S
H1342 C1372 0.950 . S
H1343 C1373 0.950 . S
C1344 H1326 0.951 . S
C1344 C1345 1.366 . S
C1344 C1346 1.388 . S
C1345 C1344 1.366 . S
C1345 C1349 1.385 . S
C1346 H1327 0.951 . S
C1346 C1344 1.388 . S
C1346 C1347 1.366 . S
C1347 C1346 1.366 . S
C1347 C1348 1.414 . S
C1347 C1350 1.499 . S
C1348 H1328 0.950 . S
C1348 C1347 1.414 . S
C1348 C1349 1.374 . S
C1349 H1329 0.950 . S
C1349 C1345 1.385 . S
C1349 C1348 1.374 . S
C1350 C1347 1.499 . S
C1350 C1351 1.373 . S
C1350 C1352 1.389 . S
C1351 H1330 0.950 . S
C1351 C1350 1.373 . S
C1351 C1367 1.377 . S
C1352 C1350 1.389 . S
C1352 C1353 1.524 . S
C1352 C1366 1.377 . S
C1353 C1352 1.524 . S
C1353 C1354 1.397 . S
C1353 C1358 1.363 . S
C1354 H1331 0.950 . S
C1354 C1353 1.397 . S
C1354 C1355 1.334 . S
C1355 H1332 0.950 . S
C1355 C1354 1.334 . S
C1355 C1356 1.287 . S
C1356 C1355 1.287 . S
C1356 C1357 1.524 . S
C1356 H1375 0.913 . S
C1357 H1333 0.950 . S
C1357 C1356 1.524 . S
C1357 C1358 1.415 . S
C1358 H1334 0.950 . S
C1358 C1353 1.363 . S
C1358 C1357 1.415 . S
C1359 H1335 0.951 . S
C1359 C1360 1.366 . S
C1359 C1361 1.388 . S
C1360 C1359 1.366 . S
C1360 C1364 1.385 . S
C1361 H1336 0.951 . S
C1361 C1359 1.388 . S
C1361 C1362 1.366 . S
C1362 C1361 1.366 . S
C1362 C1363 1.414 . S
C1362 C1365 1.499 . S
C1363 H1337 0.950 . S
C1363 C1362 1.414 . S
C1363 C1364 1.374 . S
C1364 H1338 0.950 . S
C1364 C1360 1.385 . S
C1364 C1363 1.374 . S
C1365 C1362 1.499 . S
C1365 C1366 1.373 . S
C1365 C1367 1.389 . S
C1366 H1339 0.950 . S
C1366 C1352 1.377 . S
C1366 C1365 1.373 . S
C1367 C1351 1.377 . S
C1367 C1365 1.389 . S
C1367 C1368 1.524 . S
C1368 C1367 1.524 . S
C1368 C1369 1.397 . S
C1368 C1373 1.363 . S
C1369 H1340 0.950 . S
C1369 C1368 1.397 . S
C1369 C1370 1.334 . S
C1370 H1341 0.950 . S
C1370 C1369 1.334 . S
C1370 C1371 1.287 . S
C1371 C1370 1.287 . S
C1371 C1372 1.524 . S
C1371 H1374 0.999 . S
C1372 H1342 0.950 . S
C1372 C1371 1.524 . S
C1372 C1373 1.415 . S
C1373 H1343 0.950 . S
C1373 C1368 1.363 . S
C1373 C1372 1.415 . S
H1374 C1371 0.999 . S
H1375 C1356 0.913 . S
C195 C98 1.163 . S
C210 C15 1.160 . S
C245 C120 1.162 . S
C260 C29 1.160 . S
C295 C65 1.159 . S
C310 C150 1.163 . S
C345 C81 1.159 . S
C360 C162 1.163 . S
C395 C95 1.160 . S
C410 C8 1.162 . S
C445 C32 1.163 . S
C460 C117 1.159 . S
C495 C62 1.162 . S
C510 C153 1.160 . S
C545 C74 1.162 . S
C560 C169 1.160 . S
C595 C125 1.167 . S
C610 C76 1.161 . S
C645 C10 1.161 . S
C660 C139 1.167 . S
C695 C40 1.161 . S
C710 C175 1.167 . S
C745 C52 1.160 . S
C760 C103 1.167 . S
C795 C87 1.167 . S
C810 C128 1.161 . S
C845 C21 1.167 . S
C860 C140 1.161 . S
C895 C164 1.161 . S
C910 C37 1.167 . S
C945 C106 1.161 . S
C960 C51 1.167 . S
C995 C7 1.605 . S
C1010 C59 1.606 . S
C1045 C43 1.606 . S
C1060 C73 1.605 . S
C1095 C147 1.606 . S
C1110 C109 1.605 . S
C1145 C161 1.606 . S
C1160 C131 1.605 . S
C1195 C118 1.419 . S
C1210 C18 1.419 . S
C1245 C30 1.419 . S
C1260 C142 1.419 . S
C1295 C172 1.419 . S
C1310 C54 1.419 . S
C1345 C96 1.419 . S
C1360 C84 1.419 . S
