# Generated by pormake.
# Topology sod-a, (4)-cn, num edge types: 1
# Building blocks:
#     Node 0, Type 0, BuildingBlock: AZAVOO_clean_sbu_0, # of connection points: 4
#     Node 1, Type 0, BuildingBlock: AZAVOO_clean_sbu_0, # of connection points: 4
#     Node 2, Type 0, BuildingBlock: AZAVOO_clean_sbu_0, # of connection points: 4
#     Node 3, Type 0, BuildingBlock: AZAVOO_clean_sbu_0, # of connection points: 4
#     Node 4, Type 0, BuildingBlock: AZAVOO_clean_sbu_0, # of connection points: 4
#     Node 5, Type 0, BuildingBlock: AZAVOO_clean_sbu_0, # of connection points: 4
#     Node 6, Type 0, BuildingBlock: AZAVOO_clean_sbu_0, # of connection points: 4
#     Node 7, Type 0, BuildingBlock: AZAVOO_clean_sbu_0, # of connection points: 4
#     Node 8, Type 0, BuildingBlock: AZAVOO_clean_sbu_0, # of connection points: 4
#     Node 9, Type 0, BuildingBlock: AZAVOO_clean_sbu_0, # of connection points: 4
#     Node 10, Type 0, BuildingBlock: AZAVOO_clean_sbu_0, # of connection points: 4
#     Node 11, Type 0, BuildingBlock: AZAVOO_clean_sbu_0, # of connection points: 4
#     Node 12, Type 0, BuildingBlock: AZAVOO_clean_sbu_0, # of connection points: 4
#     Node 13, Type 0, BuildingBlock: AZAVOO_clean_sbu_0, # of connection points: 4
#     Node 14, Type 0, BuildingBlock: AZAVOO_clean_sbu_0, # of connection points: 4
#     Node 15, Type 0, BuildingBlock: AZAVOO_clean_sbu_0, # of connection points: 4
#     Node 16, Type 0, BuildingBlock: AZAVOO_clean_sbu_0, # of connection points: 4
#     Node 17, Type 0, BuildingBlock: AZAVOO_clean_sbu_0, # of connection points: 4
#     Node 18, Type 0, BuildingBlock: AZAVOO_clean_sbu_0, # of connection points: 4
#     Node 19, Type 0, BuildingBlock: AZAVOO_clean_sbu_0, # of connection points: 4
#     Node 20, Type 0, BuildingBlock: AZAVOO_clean_sbu_0, # of connection points: 4
#     Node 21, Type 0, BuildingBlock: AZAVOO_clean_sbu_0, # of connection points: 4
#     Node 22, Type 0, BuildingBlock: AZAVOO_clean_sbu_0, # of connection points: 4
#     Node 23, Type 0, BuildingBlock: AZAVOO_clean_sbu_0, # of connection points: 4
#     Node 24, Type 0, BuildingBlock: AZAVOO_clean_sbu_0, # of connection points: 4
#     Node 25, Type 0, BuildingBlock: AZAVOO_clean_sbu_0, # of connection points: 4
#     Node 26, Type 0, BuildingBlock: AZAVOO_clean_sbu_0, # of connection points: 4
#     Node 27, Type 0, BuildingBlock: AZAVOO_clean_sbu_0, # of connection points: 4
#     Node 28, Type 0, BuildingBlock: AZAVOO_clean_sbu_0, # of connection points: 4
#     Node 29, Type 0, BuildingBlock: AZAVOO_clean_sbu_0, # of connection points: 4
#     Node 30, Type 0, BuildingBlock: AZAVOO_clean_sbu_0, # of connection points: 4
#     Node 31, Type 0, BuildingBlock: AZAVOO_clean_sbu_0, # of connection points: 4
#     Node 32, Type 0, BuildingBlock: AZAVOO_clean_sbu_0, # of connection points: 4
#     Node 33, Type 0, BuildingBlock: AZAVOO_clean_sbu_0, # of connection points: 4
#     Node 34, Type 0, BuildingBlock: AZAVOO_clean_sbu_0, # of connection points: 4
#     Node 35, Type 0, BuildingBlock: AZAVOO_clean_sbu_0, # of connection points: 4
#     Node 36, Type 0, BuildingBlock: AZAVOO_clean_sbu_0, # of connection points: 4
#     Node 37, Type 0, BuildingBlock: AZAVOO_clean_sbu_0, # of connection points: 4
#     Node 38, Type 0, BuildingBlock: AZAVOO_clean_sbu_0, # of connection points: 4
#     Node 39, Type 0, BuildingBlock: AZAVOO_clean_sbu_0, # of connection points: 4
#     Node 40, Type 0, BuildingBlock: AZAVOO_clean_sbu_0, # of connection points: 4
#     Node 41, Type 0, BuildingBlock: AZAVOO_clean_sbu_0, # of connection points: 4
#     Node 42, Type 0, BuildingBlock: AZAVOO_clean_sbu_0, # of connection points: 4
#     Node 43, Type 0, BuildingBlock: AZAVOO_clean_sbu_0, # of connection points: 4
#     Node 44, Type 0, BuildingBlock: AZAVOO_clean_sbu_0, # of connection points: 4
#     Node 45, Type 0, BuildingBlock: AZAVOO_clean_sbu_0, # of connection points: 4
#     Node 46, Type 0, BuildingBlock: AZAVOO_clean_sbu_0, # of connection points: 4
#     Node 47, Type 0, BuildingBlock: AZAVOO_clean_sbu_0, # of connection points: 4
#     Edge 48, Type (0, 0), BuildingBlock: XIVTED_clean_linker_0, # of connection points: 2
#     Edge 49, Type (0, 0), BuildingBlock: XIVTED_clean_linker_0, # of connection points: 2
#     Edge 50, Type (0, 0), BuildingBlock: XIVTED_clean_linker_0, # of connection points: 2
#     Edge 51, Type (0, 0), BuildingBlock: XIVTED_clean_linker_0, # of connection points: 2
#     Edge 52, Type (0, 0), BuildingBlock: XIVTED_clean_linker_0, # of connection points: 2
#     Edge 53, Type (0, 0), BuildingBlock: XIVTED_clean_linker_0, # of connection points: 2
#     Edge 54, Type (0, 0), BuildingBlock: XIVTED_clean_linker_0, # of connection points: 2
#     Edge 55, Type (0, 0), BuildingBlock: XIVTED_clean_linker_0, # of connection points: 2
#     Edge 56, Type (0, 0), BuildingBlock: XIVTED_clean_linker_0, # of connection points: 2
#     Edge 57, Type (0, 0), BuildingBlock: XIVTED_clean_linker_0, # of connection points: 2
#     Edge 58, Type (0, 0), BuildingBlock: XIVTED_clean_linker_0, # of connection points: 2
#     Edge 59, Type (0, 0), BuildingBlock: XIVTED_clean_linker_0, # of connection points: 2
#     Edge 60, Type (0, 0), BuildingBlock: XIVTED_clean_linker_0, # of connection points: 2
#     Edge 61, Type (0, 0), BuildingBlock: XIVTED_clean_linker_0, # of connection points: 2
#     Edge 62, Type (0, 0), BuildingBlock: XIVTED_clean_linker_0, # of connection points: 2
#     Edge 63, Type (0, 0), BuildingBlock: XIVTED_clean_linker_0, # of connection points: 2
#     Edge 64, Type (0, 0), BuildingBlock: XIVTED_clean_linker_0, # of connection points: 2
#     Edge 65, Type (0, 0), BuildingBlock: XIVTED_clean_linker_0, # of connection points: 2
#     Edge 66, Type (0, 0), BuildingBlock: XIVTED_clean_linker_0, # of connection points: 2
#     Edge 67, Type (0, 0), BuildingBlock: XIVTED_clean_linker_0, # of connection points: 2
#     Edge 68, Type (0, 0), BuildingBlock: XIVTED_clean_linker_0, # of connection points: 2
#     Edge 69, Type (0, 0), BuildingBlock: XIVTED_clean_linker_0, # of connection points: 2
#     Edge 70, Type (0, 0), BuildingBlock: XIVTED_clean_linker_0, # of connection points: 2
#     Edge 71, Type (0, 0), BuildingBlock: XIVTED_clean_linker_0, # of connection points: 2
#     Edge 72, Type (0, 0), BuildingBlock: XIVTED_clean_linker_0, # of connection points: 2
#     Edge 73, Type (0, 0), BuildingBlock: XIVTED_clean_linker_0, # of connection points: 2
#     Edge 74, Type (0, 0), BuildingBlock: XIVTED_clean_linker_0, # of connection points: 2
#     Edge 75, Type (0, 0), BuildingBlock: XIVTED_clean_linker_0, # of connection points: 2
#     Edge 76, Type (0, 0), BuildingBlock: XIVTED_clean_linker_0, # of connection points: 2
#     Edge 77, Type (0, 0), BuildingBlock: XIVTED_clean_linker_0, # of connection points: 2
#     Edge 78, Type (0, 0), BuildingBlock: XIVTED_clean_linker_0, # of connection points: 2
#     Edge 79, Type (0, 0), BuildingBlock: XIVTED_clean_linker_0, # of connection points: 2
#     Edge 80, Type (0, 0), BuildingBlock: XIVTED_clean_linker_0, # of connection points: 2
#     Edge 81, Type (0, 0), BuildingBlock: XIVTED_clean_linker_0, # of connection points: 2
#     Edge 82, Type (0, 0), BuildingBlock: XIVTED_clean_linker_0, # of connection points: 2
#     Edge 83, Type (0, 0), BuildingBlock: XIVTED_clean_linker_0, # of connection points: 2
#     Edge 84, Type (0, 0), BuildingBlock: XIVTED_clean_linker_0, # of connection points: 2
#     Edge 85, Type (0, 0), BuildingBlock: XIVTED_clean_linker_0, # of connection points: 2
#     Edge 86, Type (0, 0), BuildingBlock: XIVTED_clean_linker_0, # of connection points: 2
#     Edge 87, Type (0, 0), BuildingBlock: XIVTED_clean_linker_0, # of connection points: 2
#     Edge 88, Type (0, 0), BuildingBlock: XIVTED_clean_linker_0, # of connection points: 2
#     Edge 89, Type (0, 0), BuildingBlock: XIVTED_clean_linker_0, # of connection points: 2
#     Edge 90, Type (0, 0), BuildingBlock: XIVTED_clean_linker_0, # of connection points: 2
#     Edge 91, Type (0, 0), BuildingBlock: XIVTED_clean_linker_0, # of connection points: 2
#     Edge 92, Type (0, 0), BuildingBlock: XIVTED_clean_linker_0, # of connection points: 2
#     Edge 93, Type (0, 0), BuildingBlock: XIVTED_clean_linker_0, # of connection points: 2
#     Edge 94, Type (0, 0), BuildingBlock: XIVTED_clean_linker_0, # of connection points: 2
#     Edge 95, Type (0, 0), BuildingBlock: XIVTED_clean_linker_0, # of connection points: 2
#     Edge 96, Type (0, 0), BuildingBlock: XIVTED_clean_linker_0, # of connection points: 2
#     Edge 97, Type (0, 0), BuildingBlock: XIVTED_clean_linker_0, # of connection points: 2
#     Edge 98, Type (0, 0), BuildingBlock: XIVTED_clean_linker_0, # of connection points: 2
#     Edge 99, Type (0, 0), BuildingBlock: XIVTED_clean_linker_0, # of connection points: 2
#     Edge 100, Type (0, 0), BuildingBlock: XIVTED_clean_linker_0, # of connection points: 2
#     Edge 101, Type (0, 0), BuildingBlock: XIVTED_clean_linker_0, # of connection points: 2
#     Edge 102, Type (0, 0), BuildingBlock: XIVTED_clean_linker_0, # of connection points: 2
#     Edge 103, Type (0, 0), BuildingBlock: XIVTED_clean_linker_0, # of connection points: 2
#     Edge 104, Type (0, 0), BuildingBlock: XIVTED_clean_linker_0, # of connection points: 2
#     Edge 105, Type (0, 0), BuildingBlock: XIVTED_clean_linker_0, # of connection points: 2
#     Edge 106, Type (0, 0), BuildingBlock: XIVTED_clean_linker_0, # of connection points: 2
#     Edge 107, Type (0, 0), BuildingBlock: XIVTED_clean_linker_0, # of connection points: 2
#     Edge 108, Type (0, 0), BuildingBlock: XIVTED_clean_linker_0, # of connection points: 2
#     Edge 109, Type (0, 0), BuildingBlock: XIVTED_clean_linker_0, # of connection points: 2
#     Edge 110, Type (0, 0), BuildingBlock: XIVTED_clean_linker_0, # of connection points: 2
#     Edge 111, Type (0, 0), BuildingBlock: XIVTED_clean_linker_0, # of connection points: 2
#     Edge 112, Type (0, 0), BuildingBlock: XIVTED_clean_linker_0, # of connection points: 2
#     Edge 113, Type (0, 0), BuildingBlock: XIVTED_clean_linker_0, # of connection points: 2
#     Edge 114, Type (0, 0), BuildingBlock: XIVTED_clean_linker_0, # of connection points: 2
#     Edge 115, Type (0, 0), BuildingBlock: XIVTED_clean_linker_0, # of connection points: 2
#     Edge 116, Type (0, 0), BuildingBlock: XIVTED_clean_linker_0, # of connection points: 2
#     Edge 117, Type (0, 0), BuildingBlock: XIVTED_clean_linker_0, # of connection points: 2
#     Edge 118, Type (0, 0), BuildingBlock: XIVTED_clean_linker_0, # of connection points: 2
#     Edge 119, Type (0, 0), BuildingBlock: XIVTED_clean_linker_0, # of connection points: 2
#     Edge 120, Type (0, 0), BuildingBlock: XIVTED_clean_linker_0, # of connection points: 2
#     Edge 121, Type (0, 0), BuildingBlock: XIVTED_clean_linker_0, # of connection points: 2
#     Edge 122, Type (0, 0), BuildingBlock: XIVTED_clean_linker_0, # of connection points: 2
#     Edge 123, Type (0, 0), BuildingBlock: XIVTED_clean_linker_0, # of connection points: 2
#     Edge 124, Type (0, 0), BuildingBlock: XIVTED_clean_linker_0, # of connection points: 2
#     Edge 125, Type (0, 0), BuildingBlock: XIVTED_clean_linker_0, # of connection points: 2
#     Edge 126, Type (0, 0), BuildingBlock: XIVTED_clean_linker_0, # of connection points: 2
#     Edge 127, Type (0, 0), BuildingBlock: XIVTED_clean_linker_0, # of connection points: 2
#     Edge 128, Type (0, 0), BuildingBlock: XIVTED_clean_linker_0, # of connection points: 2
#     Edge 129, Type (0, 0), BuildingBlock: XIVTED_clean_linker_0, # of connection points: 2
#     Edge 130, Type (0, 0), BuildingBlock: XIVTED_clean_linker_0, # of connection points: 2
#     Edge 131, Type (0, 0), BuildingBlock: XIVTED_clean_linker_0, # of connection points: 2
#     Edge 132, Type (0, 0), BuildingBlock: XIVTED_clean_linker_0, # of connection points: 2
#     Edge 133, Type (0, 0), BuildingBlock: XIVTED_clean_linker_0, # of connection points: 2
#     Edge 134, Type (0, 0), BuildingBlock: XIVTED_clean_linker_0, # of connection points: 2
#     Edge 135, Type (0, 0), BuildingBlock: XIVTED_clean_linker_0, # of connection points: 2
#     Edge 136, Type (0, 0), BuildingBlock: XIVTED_clean_linker_0, # of connection points: 2
#     Edge 137, Type (0, 0), BuildingBlock: XIVTED_clean_linker_0, # of connection points: 2
#     Edge 138, Type (0, 0), BuildingBlock: XIVTED_clean_linker_0, # of connection points: 2
#     Edge 139, Type (0, 0), BuildingBlock: XIVTED_clean_linker_0, # of connection points: 2
#     Edge 140, Type (0, 0), BuildingBlock: XIVTED_clean_linker_0, # of connection points: 2
#     Edge 141, Type (0, 0), BuildingBlock: XIVTED_clean_linker_0, # of connection points: 2
#     Edge 142, Type (0, 0), BuildingBlock: XIVTED_clean_linker_0, # of connection points: 2
#     Edge 143, Type (0, 0), BuildingBlock: XIVTED_clean_linker_0, # of connection points: 2
# Relax obj value: 0.796
# Max RMSD: 0.303
# Mean RMSD: 0.301
data_MOF--net-sod-a--node1-AZAVOO_clean_sbu_0--edge1-XIVTED_clean_linker_0
_symmetry_space_group_name_H-M    P1
_symmetry_Int_Tables_number       1
_symmetry_cell_setting            triclinic
loop_
_symmetry_equiv_pos_as_xyz
'x, y, z'
_cell_length_a     78.589451
_cell_length_b     78.538498
_cell_length_c     78.515888
_cell_angle_alpha  89.98331
_cell_angle_beta   89.976558
_cell_angle_gamma 89.99445
loop_
_atom_site_label
_atom_site_type_symbol
_atom_site_fract_x
_atom_site_fract_y
_atom_site_fract_z
_atom_type_partial_charge
Mg0 Mg 0.07882 0.44594 0.30486 0.0
O1 O 0.06781 0.47305 0.30111 0.0
O2 O 0.07006 0.4785 0.2732 0.0
Mg3 Mg 0.08306 0.4562 0.25958 0.0
C4 C 0.0655 0.48277 0.28824 0.0
C5 C 0.0746 0.43492 0.3422 0.0
O6 O 0.08966 0.42876 0.33831 0.0
O7 O 0.05466 0.43506 0.2926 0.0
O8 O 0.05908 0.44071 0.26504 0.0
O9 O 0.10481 0.45748 0.30846 0.0
O10 O 0.09441 0.44886 0.28384 0.0
C11 C 0.05012 0.43426 0.27698 0.0
C12 C 0.10626 0.45653 0.29205 0.0
O13 O 0.06677 0.44381 0.33118 0.0
Mg14 Mg 0.63573 0.08569 0.29951 0.0
O15 O 0.609 0.07376 0.30358 0.0
O16 O 0.5958 0.07354 0.27827 0.0
Mg17 Mg 0.61493 0.08219 0.25795 0.0
C18 C 0.59594 0.07076 0.2943 0.0
C19 C 0.64128 0.06523 0.33428 0.0
O20 O 0.63192 0.0535 0.3269 0.0
O21 O 0.64488 0.05999 0.28944 0.0
O22 O 0.63151 0.05899 0.26432 0.0
O23 O 0.62403 0.11178 0.30119 0.0
O24 O 0.62776 0.09734 0.27734 0.0
C25 C 0.64142 0.05243 0.27544 0.0
C26 C 0.62161 0.11043 0.28493 0.0
O27 O 0.64412 0.07915 0.32654 0.0
Mg28 Mg 0.99862 0.63483 0.3102 0.0
O29 O 0.00889 0.60742 0.30567 0.0
O30 O 0.00308 0.60171 0.27835 0.0
Mg31 Mg 0.99114 0.62483 0.26523 0.0
C32 C 0.00898 0.5973 0.29288 0.0
C33 C 0.00363 0.6445 0.34768 0.0
O34 O 0.98771 0.6487 0.34473 0.0
O35 O 0.02216 0.64548 0.29661 0.0
O36 O 0.01592 0.63942 0.26951 0.0
O37 O 0.97255 0.62366 0.31512 0.0
O38 O 0.98167 0.63246 0.29009 0.0
C39 C 0.02571 0.64594 0.28073 0.0
C40 C 0.97015 0.62492 0.29885 0.0
O41 O 0.01196 0.63701 0.33597 0.0
Mg42 Mg 0.45515 0.00057 0.35046 0.0
O43 O 0.48081 0.01155 0.34055 0.0
O44 O 0.48872 0.99514 0.31854 0.0
Mg45 Mg 0.46736 0.97609 0.31275 0.0
C46 C 0.49141 0.00744 0.32885 0.0
C47 C 0.44726 0.01874 0.38375 0.0
O48 O 0.44914 0.00273 0.38823 0.0
O49 O 0.44166 0.01427 0.3287 0.0
O50 O 0.44957 0.99845 0.30639 0.0
O51 O 0.46946 0.98106 0.36583 0.0
O52 O 0.46025 0.97724 0.33954 0.0
C53 C 0.44135 0.01097 0.31277 0.0
C54 C 0.46874 0.97163 0.35233 0.0
O55 O 0.45045 0.02291 0.36842 0.0
Mg56 Mg 0.07131 0.62644 0.75786 0.0
O57 O 0.05946 0.59967 0.76241 0.0
O58 O 0.06426 0.59311 0.78981 0.0
Mg59 Mg 0.07629 0.61617 0.80311 0.0
C60 C 0.05857 0.58937 0.77503 0.0
C61 C 0.06979 0.63346 0.71959 0.0
O62 O 0.08611 0.63436 0.72309 0.0
O63 O 0.04774 0.63818 0.77014 0.0
O64 O 0.05219 0.63168 0.79752 0.0
O65 O 0.09708 0.61433 0.75413 0.0
O66 O 0.08711 0.62358 0.77871 0.0
C67 C 0.04334 0.63868 0.78581 0.0
C68 C 0.09886 0.6158 0.77045 0.0
O69 O 0.05959 0.62895 0.73134 0.0
Mg70 Mg 0.42454 0.06767 0.76638 0.0
O71 O 0.45253 0.05886 0.76297 0.0
O72 O 0.46564 0.06188 0.78813 0.0
Mg73 Mg 0.44573 0.06992 0.80801 0.0
C74 C 0.46584 0.05802 0.77232 0.0
C75 C 0.40403 0.04789 0.73952 0.0
O76 O 0.39583 0.04471 0.75374 0.0
O77 O 0.41888 0.0421 0.77901 0.0
O78 O 0.43182 0.04452 0.80422 0.0
O79 O 0.43307 0.09496 0.76289 0.0
O80 O 0.43097 0.08176 0.78762 0.0
C81 C 0.42282 0.03611 0.7936 0.0
C82 C 0.43546 0.09501 0.77921 0.0
O83 O 0.41714 0.0574 0.73993 0.0
Mg84 Mg 0.98759 0.43832 0.76705 0.0
O85 O 0.9982 0.46589 0.76882 0.0
O86 O 0.99107 0.47607 0.79455 0.0
Mg87 Mg 0.97834 0.45471 0.80994 0.0
C88 C 0.99787 0.47787 0.77988 0.0
C89 C 0.01356 0.42247 0.7408 0.0
O90 O 0.01854 0.4146 0.75467 0.0
O91 O 0.01011 0.42971 0.78332 0.0
O92 O 0.00326 0.43954 0.80914 0.0
O93 O 0.9619 0.4488 0.75967 0.0
O94 O 0.97001 0.44333 0.78602 0.0
C95 C 0.01323 0.43142 0.79918 0.0
C96 C 0.95884 0.44955 0.77587 0.0
O97 O 0.00155 0.43331 0.74166 0.0
Mg98 Mg 0.61509 0.00567 0.71713 0.0
O99 O 0.58834 0.01418 0.72669 0.0
O100 O 0.58238 0.99794 0.74946 0.0
Mg101 Mg 0.60586 0.98196 0.75611 0.0
C102 C 0.57828 0.00936 0.73861 0.0
C103 C 0.6197 0.0236 0.68275 0.0
O104 O 0.61704 0.00774 0.67816 0.0
O105 O 0.62683 0.02186 0.73801 0.0
O106 O 0.6206 0.00677 0.76132 0.0
O107 O 0.60297 0.98411 0.70276 0.0
O108 O 0.61256 0.98249 0.72916 0.0
C109 C 0.6273 0.01975 0.75412 0.0
C110 C 0.60466 0.97547 0.7167 0.0
O111 O 0.61763 0.02761 0.6983 0.0
Mg112 Mg 0.31457 0.07649 0.44481 0.0
O113 O 0.30854 0.06493 0.47144 0.0
O114 O 0.28012 0.06382 0.47285 0.0
Mg115 Mg 0.26824 0.07303 0.44787 0.0
C116 C 0.29479 0.06144 0.47949 0.0
C117 C 0.35258 0.07881 0.4381 0.0
O118 O 0.34626 0.09229 0.43045 0.0
O119 O 0.30864 0.05067 0.43272 0.0
O120 O 0.28026 0.05013 0.43448 0.0
O121 O 0.31177 0.10277 0.45599 0.0
O122 O 0.29103 0.08827 0.44388 0.0
C123 C 0.29435 0.04342 0.42994 0.0
C124 C 0.29576 0.1014 0.45235 0.0
O125 O 0.34261 0.06945 0.44677 0.0
Mg126 Mg 0.991 0.3375 0.4365 0.0
O127 O 0.00173 0.33232 0.46353 0.0
O128 O 0.98924 0.30858 0.47329 0.0
Mg129 Mg 0.97361 0.29703 0.45152 0.0
C130 C 0.99913 0.32134 0.4753 0.0
C131 C 0.00445 0.37258 0.42581 0.0
O132 O 0.98788 0.3745 0.42469 0.0
O133 O 0.00938 0.3177 0.42604 0.0
O134 O 0.99831 0.2935 0.43612 0.0
O135 O 0.96833 0.35002 0.44858 0.0
O136 O 0.96987 0.32278 0.44161 0.0
C137 C 0.00971 0.30152 0.42771 0.0
C138 C 0.96173 0.33491 0.44895 0.0
O139 O 0.01027 0.35863 0.43159 0.0
Mg140 Mg 0.74107 0.99291 0.43458 0.0
O141 O 0.74604 0.00441 0.46141 0.0
O142 O 0.76825 0.99021 0.47241 0.0
Mg143 Mg 0.77902 0.97226 0.45208 0.0
C144 C 0.75647 0.00136 0.47357 0.0
C145 C 0.72208 0.02788 0.42343 0.0
O146 O 0.73709 0.0352 0.42409 0.0
O147 O 0.76292 0.00934 0.42448 0.0
O148 O 0.78524 0.99565 0.43565 0.0
O149 O 0.72606 0.9717 0.44641 0.0
O150 O 0.75365 0.97075 0.44114 0.0
C151 C 0.77896 0.00768 0.42667 0.0
C152 C 0.74042 0.96378 0.44776 0.0
O153 O 0.72056 0.0124 0.4279 0.0
Mg154 Mg 0.07504 0.75195 0.44217 0.0
O155 O 0.06512 0.75449 0.46998 0.0
O156 O 0.07411 0.77981 0.47966 0.0
Mg157 Mg 0.08706 0.79427 0.45778 0.0
C158 C 0.06648 0.7656 0.48184 0.0
C159 C 0.06708 0.71581 0.42981 0.0
O160 O 0.08356 0.71718 0.42733 0.0
O161 O 0.05317 0.76895 0.43339 0.0
O162 O 0.06193 0.79431 0.44295 0.0
O163 O 0.10055 0.74314 0.45214 0.0
O164 O 0.09384 0.76984 0.44662 0.0
C165 C 0.05119 0.78502 0.43502 0.0
C166 C 0.10463 0.75912 0.45252 0.0
O167 O 0.05931 0.72797 0.43716 0.0
Mg168 Mg 0.30136 0.99076 0.63163 0.0
O169 O 0.2998 0.00251 0.60444 0.0
O170 O 0.2737 0.99553 0.59526 0.0
Mg171 Mg 0.25952 0.97909 0.6147 0.0
C172 C 0.28803 0.00297 0.59316 0.0
C173 C 0.33591 0.99683 0.64679 0.0
O174 O 0.33304 0.98037 0.64778 0.0
O175 O 0.28359 0.01197 0.64114 0.0
O176 O 0.25843 0.00267 0.63162 0.0
O177 O 0.31112 0.96619 0.62034 0.0
O178 O 0.2841 0.97198 0.62505 0.0
C179 C 0.26742 0.01337 0.63991 0.0
C180 C 0.29529 0.9619 0.61875 0.0
O181 O 0.32506 0.00604 0.63905 0.0
Mg182 Mg 0.07051 0.32695 0.62652 0.0
O183 O 0.05881 0.32556 0.5993 0.0
O184 O 0.06978 0.30216 0.58709 0.0
Mg185 Mg 0.08523 0.28737 0.60686 0.0
C186 C 0.06061 0.31559 0.58649 0.0
C187 C 0.06244 0.36017 0.64296 0.0
O188 O 0.07904 0.35821 0.64338 0.0
O189 O 0.05098 0.30729 0.63527 0.0
O190 O 0.06077 0.2838 0.62255 0.0
O191 O 0.09375 0.33937 0.61542 0.0
O192 O 0.09058 0.31166 0.6191 0.0
C193 C 0.04988 0.2914 0.63196 0.0
C194 C 0.0994 0.32407 0.61313 0.0
O195 O 0.05363 0.3491 0.63508 0.0
Mg196 Mg 0.75601 0.08016 0.62015 0.0
O197 O 0.75873 0.06762 0.59364 0.0
O198 O 0.78602 0.06924 0.58563 0.0
Mg199 Mg 0.80106 0.08007 0.60828 0.0
C200 C 0.77057 0.0651 0.58275 0.0
C201 C 0.71802 0.07998 0.63014 0.0
O202 O 0.72308 0.09469 0.6363 0.0
O203 O 0.76615 0.05563 0.63205 0.0
O204 O 0.79347 0.05672 0.62414 0.0
O205 O 0.75468 0.10588 0.60759 0.0
O206 O 0.7783 0.09368 0.61671 0.0
C207 C 0.78116 0.04935 0.63183 0.0
C208 C 0.77112 0.10601 0.60875 0.0
O209 O 0.72866 0.07077 0.62214 0.0
Mg210 Mg 0.00168 0.74754 0.63515 0.0
O211 O 0.01171 0.75079 0.60744 0.0
O212 O 0.00776 0.77823 0.60049 0.0
Mg213 Mg 0.99825 0.7927 0.62402 0.0
C214 C 0.01242 0.7631 0.59674 0.0
C215 C 0.0273 0.71584 0.63574 0.0
O216 O 0.03846 0.72689 0.62999 0.0
O217 O 0.0266 0.75889 0.64481 0.0
O218 O 0.02324 0.78626 0.63771 0.0
O219 O 0.97497 0.74482 0.62511 0.0
O220 O 0.98681 0.76908 0.6329 0.0
C221 C 0.03193 0.77425 0.64441 0.0
C222 C 0.97413 0.76125 0.62624 0.0
O223 O 0.0119 0.72041 0.6376 0.0
Mg224 Mg 0.44173 0.32218 0.07331 0.0
O225 O 0.46892 0.32543 0.06352 0.0
O226 O 0.4848 0.30389 0.07326 0.0
Mg227 Mg 0.46683 0.28554 0.08718 0.0
C228 C 0.4832 0.31783 0.06501 0.0
C229 C 0.42418 0.35556 0.06234 0.0
O230 O 0.42077 0.35533 0.07872 0.0
O231 O 0.43745 0.30257 0.05214 0.0
O232 O 0.45306 0.28079 0.06176 0.0
O233 O 0.45009 0.33496 0.09743 0.0
O234 O 0.45029 0.3071 0.0932 0.0
C235 C 0.44328 0.28746 0.0506 0.0
C236 C 0.45443 0.3199 0.10251 0.0
O237 O 0.43301 0.34359 0.05599 0.0
Mg238 Mg 0.44212 0.76461 0.98956 0.0
O239 O 0.46856 0.76804 0.00204 0.0
O240 O 0.47798 0.79423 0.99575 0.0
Mg241 Mg 0.45636 0.80832 0.98198 0.0
C242 C 0.47999 0.77962 0.0026 0.0
C243 C 0.42985 0.72803 0.99576 0.0
O244 O 0.42468 0.73099 0.98013 0.0
O245 O 0.4307 0.77941 0.01177 0.0
O246 O 0.43994 0.80573 0.00605 0.0
O247 O 0.45481 0.75798 0.96477 0.0
O248 O 0.4471 0.78393 0.97237 0.0
C249 C 0.43163 0.79526 0.01534 0.0
C250 C 0.45478 0.77419 0.96172 0.0
O251 O 0.43826 0.7395 0.00349 0.0
Mg252 Mg 0.32509 0.449 0.97263 0.0
O253 O 0.32284 0.47452 0.98707 0.0
O254 O 0.30104 0.48924 0.97605 0.0
Mg255 Mg 0.28724 0.47127 0.95762 0.0
C256 C 0.31367 0.48793 0.98621 0.0
C257 C 0.3576 0.43168 0.98572 0.0
O258 O 0.35905 0.42965 0.96917 0.0
O259 O 0.30387 0.43842 0.98916 0.0
O260 O 0.28135 0.45325 0.98013 0.0
O261 O 0.33955 0.46254 0.9522 0.0
O262 O 0.31162 0.45873 0.95227 0.0
C263 C 0.2881 0.44221 0.99003 0.0
C264 C 0.32482 0.46566 0.9455 0.0
O265 O 0.3449 0.43983 0.99152 0.0
Mg266 Mg 0.61462 0.30842 0.97451 0.0
O267 O 0.59275 0.32256 0.98754 0.0
O268 O 0.57066 0.30592 0.98059 0.0
Mg269 Mg 0.57735 0.28175 0.96574 0.0
C270 C 0.57686 0.31912 0.98778 0.0
C271 C 0.6343 0.33914 0.98924 0.0
O272 O 0.62334 0.34676 0.97915 0.0
O273 O 0.61215 0.28846 0.99559 0.0
O274 O 0.5897 0.27179 0.99039 0.0
O275 O 0.62945 0.28958 0.95863 0.0
O276 O 0.60153 0.29294 0.95781 0.0
C277 C 0.60239 0.2761 0.99961 0.0
C278 C 0.61477 0.28472 0.95295 0.0
O279 O 0.6341 0.32299 0.99028 0.0
Mg280 Mg 0.71923 0.61477 0.98725 0.0
O281 O 0.72451 0.58876 1.00036 0.0
O282 O 0.74755 0.57757 0.98775 0.0
Mg283 Mg 0.75883 0.59773 0.96995 0.0
C284 C 0.7352 0.57663 0.99829 0.0
C285 C 0.68636 0.62996 0.00087 0.0
O286 O 0.68502 0.63173 0.98428 0.0
O287 O 0.73975 0.62677 0.00366 0.0
O288 O 0.7635 0.61523 0.99313 0.0
O289 O 0.7056 0.60078 0.96651 0.0
O290 O 0.73297 0.60741 0.96614 0.0
C291 C 0.75588 0.62487 0.00381 0.0
C292 C 0.72039 0.59947 0.95934 0.0
O293 O 0.6991 0.62195 0.00679 0.0
Mg294 Mg 0.62566 0.7569 0.08015 0.0
O295 O 0.59941 0.76265 0.06806 0.0
O296 O 0.5919 0.78916 0.07545 0.0
Mg297 Mg 0.61453 0.80117 0.08954 0.0
C298 C 0.58881 0.77501 0.06805 0.0
C299 C 0.63423 0.71941 0.07285 0.0
O300 O 0.63867 0.72102 0.0889 0.0
O301 O 0.63806 0.77176 0.05848 0.0
O302 O 0.63067 0.79838 0.06531 0.0
O303 O 0.61268 0.75023 0.1048 0.0
O304 O 0.62216 0.77585 0.09812 0.0
C305 C 0.63823 0.78777 0.05557 0.0
C306 C 0.61389 0.76626 0.10847 0.0
O307 O 0.62767 0.73212 0.06526 0.0
Mg308 Mg 0.3376 0.62489 0.07797 0.0
O309 O 0.33179 0.5998 0.06353 0.0
O310 O 0.30901 0.58794 0.07595 0.0
Mg311 Mg 0.29873 0.60669 0.09577 0.0
C312 C 0.321 0.58766 0.06495 0.0
C313 C 0.37054 0.63975 0.06387 0.0
O314 O 0.37285 0.64018 0.08044 0.0
O315 O 0.31641 0.63771 0.06304 0.0
O316 O 0.29315 0.62557 0.074 0.0
O317 O 0.35212 0.60968 0.09716 0.0
O318 O 0.32476 0.61609 0.09914 0.0
C319 C 0.30028 0.63577 0.0635 0.0
C320 C 0.33764 0.60772 0.1048 0.0
O321 O 0.35702 0.63302 0.05809 0.0
Mg322 Mg 0.73512 0.43195 0.08114 0.0
O323 O 0.73638 0.45851 0.06811 0.0
O324 O 0.75751 0.47291 0.08077 0.0
Mg325 Mg 0.77146 0.45482 0.09886 0.0
C326 C 0.7452 0.47208 0.07017 0.0
C327 C 0.71694 0.40556 0.06056 0.0
O328 O 0.72775 0.39734 0.07033 0.0
O329 O 0.75742 0.42343 0.06488 0.0
O330 O 0.77903 0.43833 0.07577 0.0
O331 O 0.71921 0.44363 0.10166 0.0
O332 O 0.74728 0.44141 0.1024 0.0
C333 C 0.77308 0.42774 0.06493 0.0
C334 C 0.73351 0.4474 0.10892 0.0
O335 O 0.71647 0.42172 0.06145 0.0
Mg336 Mg 0.5054 0.91726 0.80509 0.0
O337 O 0.51348 0.94569 0.80355 0.0
O338 O 0.50781 0.9546 0.77709 0.0
Mg339 Mg 0.49647 0.93244 0.76192 0.0
C340 C 0.51324 0.95739 0.79218 0.0
C341 C 0.51565 0.90337 0.83903 0.0
O342 O 0.5178 0.89099 0.82797 0.0
O343 O 0.47782 0.92612 0.80674 0.0
O344 O 0.47341 0.93385 0.7797 0.0
O345 O 0.53088 0.90912 0.79624 0.0
O346 O 0.50954 0.91463 0.77885 0.0
C347 C 0.46812 0.93169 0.79494 0.0
C348 C 0.52548 0.91128 0.78084 0.0
O349 O 0.50908 0.91724 0.83387 0.0
Mg350 Mg 0.12185 0.50377 0.86229 0.0
O351 O 0.09626 0.5134 0.85189 0.0
O352 O 0.09776 0.51662 0.82366 0.0
Mg353 Mg 0.12442 0.5075 0.81574 0.0
C354 C 0.08954 0.51758 0.83767 0.0
C355 C 0.11151 0.50355 0.90279 0.0
O356 O 0.10135 0.49874 0.91519 0.0
O357 O 0.11491 0.47728 0.85268 0.0
O358 O 0.11685 0.48073 0.8245 0.0
O359 O 0.13071 0.53085 0.86339 0.0
O360 O 0.13428 0.51412 0.84112 0.0
C361 C 0.11382 0.47147 0.83752 0.0
C362 C 0.13531 0.52909 0.84767 0.0
O363 O 0.10872 0.49792 0.88783 0.0
Mg364 Mg 0.56106 0.1048 0.85264 0.0
O365 O 0.55068 0.08136 0.83818 0.0
O366 O 0.54378 0.08918 0.81171 0.0
Mg367 Mg 0.55059 0.11748 0.80898 0.0
C368 C 0.54491 0.07787 0.82336 0.0
C369 C 0.56945 0.08488 0.8889 0.0
O370 O 0.57743 0.07221 0.89638 0.0
O371 O 0.58591 0.10176 0.83806 0.0
O372 O 0.57861 0.1099 0.81182 0.0
O373 O 0.53438 0.11166 0.85983 0.0
O374 O 0.54724 0.12092 0.83663 0.0
C375 C 0.58963 0.10447 0.82247 0.0
C376 C 0.53348 0.11963 0.84542 0.0
O377 O 0.57146 0.08676 0.87293 0.0
Mg378 Mg 0.93373 0.57214 0.85249 0.0
O379 O 0.95983 0.56151 0.84479 0.0
O380 O 0.95992 0.55461 0.81719 0.0
Mg381 Mg 0.93364 0.56219 0.80678 0.0
C382 C 0.96736 0.55559 0.83163 0.0
C383 C 0.94291 0.57752 0.89302 0.0
O384 O 0.95254 0.58432 0.90489 0.0
O385 O 0.94094 0.59723 0.8397 0.0
O386 O 0.94035 0.59003 0.81218 0.0
O387 O 0.92486 0.54532 0.85669 0.0
O388 O 0.92241 0.55896 0.83227 0.0
C389 C 0.94263 0.601 0.82396 0.0
C390 C 0.92097 0.54499 0.84068 0.0
O391 O 0.94568 0.58154 0.87754 0.0
Mg392 Mg 0.49647 0.09776 0.21062 0.0
O393 O 0.50883 0.07587 0.22606 0.0
O394 O 0.51211 0.08516 0.25278 0.0
Mg395 Mg 0.50214 0.11254 0.25448 0.0
C396 C 0.5135 0.07351 0.24149 0.0
C397 C 0.49479 0.08339 0.17319 0.0
O398 O 0.49281 0.07192 0.16119 0.0
O399 O 0.47125 0.09124 0.22349 0.0
O400 O 0.47559 0.10161 0.24963 0.0
O401 O 0.52213 0.10831 0.20471 0.0
O402 O 0.50702 0.1157 0.2272 0.0
C403 C 0.46612 0.09429 0.23862 0.0
C404 C 0.52116 0.11654 0.21895 0.0
O405 O 0.49099 0.0796 0.1885 0.0
Mg406 Mg 0.94023 0.50883 0.21351 0.0
O407 O 0.96631 0.51967 0.22088 0.0
O408 O 0.96629 0.52574 0.24868 0.0
Mg409 Mg 0.94059 0.51704 0.25953 0.0
C410 C 0.97366 0.52545 0.23416 0.0
C411 C 0.94774 0.50449 0.1726 0.0
O412 O 0.95735 0.49872 0.16018 0.0
O413 O 0.9482 0.48332 0.22523 0.0
O414 O 0.94783 0.4896 0.25298 0.0
O415 O 0.93106 0.53581 0.21065 0.0
O416 O 0.92902 0.521 0.23442 0.0
C417 C 0.95019 0.47907 0.24082 0.0
C418 C 0.92761 0.53539 0.22677 0.0
O419 O 0.95181 0.50082 0.18787 0.0
Mg420 Mg 0.57309 0.92032 0.26759 0.0
O421 O 0.56017 0.94683 0.26761 0.0
O422 O 0.5628 0.95781 0.29375 0.0
Mg423 Mg 0.57758 0.93882 0.31022 0.0
C424 C 0.55768 0.95885 0.27834 0.0
C425 C 0.56418 0.90453 0.23383 0.0
O426 O 0.56267 0.89224 0.24509 0.0
O427 O 0.59876 0.93401 0.26619 0.0
O428 O 0.6005 0.94364 0.29293 0.0
O429 O 0.54912 0.90825 0.27643 0.0
O430 O 0.56875 0.91807 0.2939 0.0
C431 C 0.60675 0.94182 0.27802 0.0
C432 C 0.55367 0.91198 0.2918 0.0
O433 O 0.56993 0.91884 0.23876 0.0
Mg434 Mg 0.12889 0.57536 0.20698 0.0
O435 O 0.10308 0.56565 0.21666 0.0
O436 O 0.10504 0.56039 0.24459 0.0
Mg437 Mg 0.13228 0.56695 0.25286 0.0
C438 C 0.09652 0.56079 0.23073 0.0
C439 C 0.11847 0.57991 0.16694 0.0
O440 O 0.10841 0.586 0.15504 0.0
O441 O 0.1231 0.60109 0.21949 0.0
O442 O 0.12596 0.59473 0.24707 0.0
O443 O 0.13667 0.54816 0.20302 0.0
O444 O 0.14123 0.56245 0.22674 0.0
C445 C 0.12284 0.60539 0.23519 0.0
C446 C 0.14154 0.54817 0.21876 0.0
O447 O 0.11572 0.58414 0.18236 0.0
Mg448 Mg 0.81401 0.49229 0.93854 0.0
O449 O 0.80832 0.50605 0.96427 0.0
O450 O 0.78088 0.50048 0.96986 0.0
Mg451 Mg 0.76966 0.48313 0.9494 0.0
C452 C 0.79505 0.50749 0.97368 0.0
C453 C 0.84761 0.49917 0.92442 0.0
O454 O 0.83727 0.49425 0.91222 0.0
O455 O 0.81611 0.46757 0.95367 0.0
O456 O 0.78846 0.46262 0.95818 0.0
O457 O 0.80524 0.5146 0.92366 0.0
O458 O 0.78813 0.49398 0.93185 0.0
C459 C 0.80407 0.45829 0.95943 0.0
C460 C 0.78993 0.50882 0.92506 0.0
O461 O 0.84233 0.4983 0.93972 0.0
Mg462 Mg 0.57473 0.8561 0.94434 0.0
O463 O 0.56309 0.84686 0.96966 0.0
O464 O 0.55929 0.81869 0.96814 0.0
Mg465 Mg 0.56881 0.80987 0.94197 0.0
C466 C 0.55827 0.83277 0.97624 0.0
C467 C 0.576 0.89618 0.95114 0.0
O468 O 0.57902 0.9099 0.9602 0.0
O469 O 0.60027 0.84529 0.95296 0.0
O470 O 0.59561 0.81734 0.95056 0.0
O471 O 0.5485 0.85883 0.93377 0.0
O472 O 0.56382 0.83539 0.93166 0.0
C473 C 0.60531 0.82987 0.95418 0.0
C474 C 0.54943 0.84293 0.92956 0.0
O475 O 0.58077 0.88177 0.95682 0.0
Mg476 Mg 0.24519 0.5848 0.93606 0.0
O477 O 0.25069 0.56901 0.96054 0.0
O478 O 0.27887 0.57052 0.96465 0.0
Mg479 Mg 0.29095 0.58753 0.94436 0.0
C480 C 0.26411 0.56525 0.96901 0.0
C481 C 0.2101 0.58093 0.92448 0.0
O482 O 0.21976 0.585 0.91143 0.0
O483 O 0.24719 0.60866 0.95257 0.0
O484 O 0.27549 0.60963 0.95549 0.0
O485 O 0.2502 0.56248 0.91958 0.0
O486 O 0.27021 0.58043 0.92743 0.0
C487 C 0.2607 0.61589 0.95802 0.0
C488 C 0.26617 0.56629 0.92015 0.0
O489 O 0.21658 0.58168 0.93931 0.0
Mg490 Mg 0.50853 0.1929 0.94937 0.0
O491 O 0.52117 0.20536 0.97257 0.0
O492 O 0.53117 0.23106 0.96546 0.0
Mg493 Mg 0.52248 0.23589 0.93803 0.0
C494 C 0.52899 0.21913 0.97632 0.0
C495 C 0.49883 0.15655 0.96771 0.0
O496 O 0.49097 0.14845 0.98006 0.0
O497 O 0.48543 0.20965 0.95489 0.0
O498 O 0.49527 0.23562 0.94888 0.0
O499 O 0.5344 0.18386 0.94149 0.0
O500 O 0.52298 0.20826 0.93335 0.0
C501 C 0.48355 0.22579 0.95441 0.0
C502 C 0.53612 0.19851 0.93414 0.0
O503 O 0.49723 0.17265 0.96689 0.0
Mg504 Mg 0.80765 0.57015 0.12841 0.0
O505 O 0.80356 0.55709 0.10202 0.0
O506 O 0.77569 0.56013 0.0968 0.0
Mg507 Mg 0.76225 0.57357 0.11882 0.0
C508 C 0.79054 0.55513 0.09236 0.0
C509 C 0.84224 0.56868 0.14183 0.0
O510 O 0.83153 0.57182 0.15431 0.0
O511 O 0.80574 0.59559 0.11446 0.0
O512 O 0.77756 0.59708 0.1109 0.0
O513 O 0.80267 0.54609 0.14227 0.0
O514 O 0.78251 0.56421 0.13517 0.0
C515 C 0.79244 0.60346 0.10941 0.0
C516 C 0.78664 0.54954 0.14128 0.0
O517 O 0.83653 0.56873 0.12666 0.0
Mg518 Mg 0.49986 0.85473 0.13 0.0
O519 O 0.51137 0.84605 0.10445 0.0
O520 O 0.51423 0.81774 0.10474 0.0
Mg521 Mg 0.5037 0.8082 0.13029 0.0
C522 C 0.51586 0.83213 0.09731 0.0
C523 C 0.50064 0.89531 0.1237 0.0
O524 O 0.49763 0.90906 0.11465 0.0
O525 O 0.47397 0.84545 0.12064 0.0
O526 O 0.47737 0.81723 0.12168 0.0
O527 O 0.52611 0.85565 0.14089 0.0
O528 O 0.50959 0.83296 0.14189 0.0
C529 C 0.46828 0.83036 0.1186 0.0
C530 C 0.52432 0.83965 0.14441 0.0
O531 O 0.49503 0.88106 0.11837 0.0
Mg532 Mg 0.24817 0.49575 0.12022 0.0
O533 O 0.25365 0.51002 0.09478 0.0
O534 O 0.28079 0.50395 0.08847 0.0
Mg535 Mg 0.29252 0.48702 0.10903 0.0
C536 C 0.26662 0.51114 0.08491 0.0
C537 C 0.21455 0.5028 0.13439 0.0
O538 O 0.22494 0.49826 0.1467 0.0
O539 O 0.24629 0.4714 0.10445 0.0
O540 O 0.27394 0.46653 0.09985 0.0
O541 O 0.25671 0.51779 0.13558 0.0
O542 O 0.27404 0.49763 0.12674 0.0
C543 C 0.25832 0.46227 0.0984 0.0
C544 C 0.27209 0.51225 0.13394 0.0
O545 O 0.2198 0.50156 0.11911 0.0
Mg546 Mg 0.56428 0.22892 0.13749 0.0
O547 O 0.55452 0.23239 0.10996 0.0
O548 O 0.56644 0.25703 0.10163 0.0
Mg549 Mg 0.5785 0.27185 0.12369 0.0
C550 C 0.55789 0.24352 0.09847 0.0
C551 C 0.55045 0.19629 0.15189 0.0
O552 O 0.54898 0.20777 0.16397 0.0
O553 O 0.58962 0.22378 0.12375 0.0
O554 O 0.59617 0.24986 0.12971 0.0
O555 O 0.54074 0.24028 0.14877 0.0
O556 O 0.56194 0.25616 0.14 0.0
C557 C 0.59799 0.2371 0.11996 0.0
C558 C 0.54661 0.2553 0.14567 0.0
O559 O 0.55758 0.20058 0.13798 0.0
Mg560 Mg 0.95431 0.85464 0.51544 0.0
O561 O 0.98005 0.84291 0.52358 0.0
O562 O 0.97685 0.81466 0.52487 0.0
Mg563 Mg 0.94922 0.80834 0.51773 0.0
C564 C 0.98604 0.828 0.5263 0.0
C565 C 0.96189 0.8946 0.51516 0.0
O566 O 0.97133 0.90816 0.51256 0.0
O567 O 0.95951 0.84566 0.48827 0.0
O568 O 0.95512 0.81765 0.49074 0.0
O569 O 0.9463 0.85573 0.5427 0.0
O570 O 0.94134 0.83392 0.52568 0.0
C571 C 0.9587 0.83076 0.4818 0.0
C572 C 0.94092 0.84027 0.54078 0.0
O573 O 0.96749 0.88013 0.51044 0.0
Mg574 Mg 0.93379 0.24223 0.5576 0.0
O575 O 0.96102 0.24882 0.54765 0.0
O576 O 0.96407 0.27674 0.55264 0.0
Mg577 Mg 0.94018 0.28785 0.5649 0.0
C578 C 0.96989 0.26253 0.54723 0.0
C579 C 0.92319 0.2073 0.55016 0.0
O580 O 0.90995 0.21752 0.54989 0.0
O581 O 0.94476 0.24315 0.58461 0.0
O582 O 0.94653 0.27135 0.58802 0.0
O583 O 0.92232 0.24852 0.5325 0.0
O584 O 0.92597 0.26738 0.55289 0.0
C585 C 0.94814 0.25621 0.59372 0.0
C586 C 0.92179 0.26423 0.53735 0.0
O587 O 0.93752 0.21348 0.55453 0.0
Mg588 Mg 0.81076 0.92091 0.56763 0.0
O589 O 0.81083 0.94795 0.55564 0.0
O590 O 0.78376 0.9567 0.55457 0.0
Mg591 Mg 0.76663 0.93582 0.56555 0.0
C592 C 0.79962 0.95922 0.55199 0.0
C593 C 0.84575 0.90646 0.56603 0.0
O594 O 0.83507 0.89369 0.56431 0.0
O595 O 0.8068 0.93352 0.59359 0.0
O596 O 0.7794 0.94083 0.59125 0.0
O597 O 0.80713 0.9092 0.5422 0.0
O598 O 0.78589 0.91694 0.55884 0.0
C599 C 0.7932 0.93993 0.5998 0.0
C600 C 0.79098 0.91158 0.54419 0.0
O601 O 0.83972 0.92111 0.56937 0.0
Mg602 Mg 0.14601 0.83171 0.57173 0.0
O603 O 0.11889 0.82711 0.56116 0.0
O604 O 0.11646 0.79947 0.55479 0.0
Mg605 Mg 0.14157 0.78623 0.56166 0.0
C606 C 0.11024 0.81449 0.55557 0.0
C607 C 0.14111 0.87304 0.57872 0.0
O608 O 0.13518 0.88518 0.58857 0.0
O609 O 0.13758 0.81941 0.59668 0.0
O610 O 0.13577 0.79191 0.58966 0.0
O611 O 0.15558 0.83514 0.54499 0.0
O612 O 0.15498 0.81051 0.55834 0.0
C613 C 0.13458 0.80391 0.60057 0.0
C614 C 0.15727 0.81878 0.54442 0.0
O615 O 0.13749 0.85765 0.5823 0.0
Mg616 Mg 0.19164 0.1068 0.55556 0.0
O617 O 0.20484 0.08247 0.5457 0.0
O618 O 0.23265 0.08809 0.54375 0.0
Mg619 Mg 0.23746 0.11527 0.5533 0.0
C620 C 0.22002 0.07798 0.54197 0.0
C621 C 0.15231 0.09617 0.55475 0.0
O622 O 0.13948 0.08567 0.55696 0.0
O623 O 0.20122 0.10049 0.58245 0.0
O624 O 0.22883 0.10685 0.5798 0.0
O625 O 0.19036 0.11633 0.52858 0.0
O626 O 0.21139 0.12191 0.54631 0.0
C627 C 0.21618 0.10188 0.58872 0.0
C628 C 0.20533 0.12273 0.53115 0.0
O629 O 0.16706 0.09165 0.55974 0.0
Mg630 Mg 0.12815 0.24515 0.49537 0.0
O631 O 0.10148 0.25041 0.50726 0.0
O632 O 0.0979 0.27867 0.50582 0.0
Mg633 Mg 0.12106 0.29117 0.49341 0.0
C634 C 0.09255 0.26384 0.50984 0.0
C635 C 0.13881 0.20961 0.49814 0.0
O636 O 0.1523 0.21948 0.49739 0.0
O637 O 0.11591 0.24876 0.46923 0.0
O638 O 0.11372 0.27715 0.46892 0.0
O639 O 0.14078 0.24868 0.52034 0.0
O640 O 0.13614 0.26971 0.50238 0.0
C641 C 0.11202 0.26267 0.46173 0.0
C642 C 0.14097 0.26484 0.51729 0.0
O643 O 0.12428 0.21638 0.49588 0.0
Mg644 Mg 0.86603 0.10262 0.49869 0.0
O645 O 0.85114 0.07969 0.50984 0.0
O646 O 0.8236 0.08685 0.51028 0.0
Mg647 Mg 0.82074 0.11374 0.49931 0.0
C648 C 0.83557 0.07618 0.51308 0.0
C649 C 0.90487 0.09088 0.50069 0.0
O650 O 0.91741 0.07986 0.4997 0.0
O651 O 0.85655 0.09467 0.4723 0.0
O652 O 0.82933 0.10283 0.4737 0.0
O653 O 0.868 0.11403 0.52466 0.0
O654 O 0.84697 0.11925 0.50682 0.0
C655 C 0.84184 0.09636 0.46557 0.0
C656 C 0.85331 0.1209 0.52184 0.0
O657 O 0.89001 0.08627 0.49607 0.0
Mg658 Mg 0.23897 0.92138 0.48928 0.0
O659 O 0.23911 0.94836 0.50112 0.0
O660 O 0.26535 0.95318 0.51106 0.0
Mg661 Mg 0.28183 0.92961 0.50604 0.0
C662 C 0.25003 0.95799 0.50842 0.0
C663 C 0.19856 0.92369 0.47766 0.0
O664 O 0.18729 0.92804 0.4661 0.0
O665 O 0.2539 0.93202 0.46662 0.0
O666 O 0.27981 0.93585 0.47767 0.0
O667 O 0.23273 0.91039 0.51499 0.0
O668 O 0.25877 0.91395 0.50534 0.0
C669 C 0.26947 0.93649 0.46515 0.0
C670 C 0.24892 0.91027 0.51785 0.0
O671 O 0.21408 0.92764 0.47523 0.0
H672 H 0.04506 0.49831 0.26523 0.0
H673 H 0.03068 0.58435 0.31758 0.0
H674 H 0.06485 0.50433 0.3161 0.0
H675 H 0.00342 0.57031 0.27202 0.0
H676 H 0.04366 0.55576 0.31807 0.0
H677 H 0.02998 0.52504 0.26819 0.0
C678 C 0.04635 0.50537 0.27701 0.0
C679 C 0.05634 0.49912 0.29039 0.0
C680 C 0.0347 0.55895 0.30808 0.0
C681 C 0.03928 0.5303 0.29374 0.0
C682 C 0.0273 0.57525 0.30779 0.0
C683 C 0.01612 0.57985 0.29457 0.0
C684 C 0.03082 0.54723 0.29511 0.0
C685 C 0.01217 0.56751 0.28229 0.0
C686 C 0.03767 0.52071 0.27872 0.0
C687 C 0.05728 0.50874 0.30547 0.0
N688 N 0.01951 0.5519 0.28286 0.0
N689 N 0.04902 0.524 0.30668 0.0
H690 H 0.56279 0.07978 0.28929 0.0
H691 H 0.52341 0.99523 0.32359 0.0
H692 H 0.59431 0.04412 0.31662 0.0
H693 H 0.49533 0.04209 0.32877 0.0
H694 H 0.54933 0.01178 0.31791 0.0
H695 H 0.53738 0.06542 0.30058 0.0
C696 C 0.56433 0.06898 0.29774 0.0
C697 C 0.58062 0.06313 0.30211 0.0
C698 C 0.53752 0.01841 0.32045 0.0
C699 C 0.55172 0.04632 0.31443 0.0
C700 C 0.52276 0.00901 0.32364 0.0
C701 C 0.50728 0.01735 0.32674 0.0
C702 C 0.53665 0.03623 0.31969 0.0
C703 C 0.50707 0.03522 0.32659 0.0
C704 C 0.54986 0.06084 0.30417 0.0
C705 C 0.58195 0.04908 0.31308 0.0
N706 N 0.52149 0.04409 0.32279 0.0
N707 N 0.56768 0.04093 0.31861 0.0
H708 H 0.07108 0.55827 0.78387 0.0
H709 H 0.98433 0.50975 0.78217 0.0
H710 H 0.02716 0.58253 0.76172 0.0
H711 H 0.03058 0.48314 0.76949 0.0
H712 H 0.99927 0.537 0.77806 0.0
H713 H 0.05633 0.53071 0.78218 0.0
C714 C 0.05837 0.55774 0.77856 0.0
C715 C 0.05032 0.5726 0.7728 0.0
C716 C 0.00608 0.52518 0.77609 0.0
C717 C 0.03322 0.54137 0.77154 0.0
C718 C 0.9976 0.50969 0.77841 0.0
C719 C 0.00626 0.49426 0.77602 0.0
C720 C 0.02349 0.5252 0.77211 0.0
C721 C 0.02346 0.49481 0.77127 0.0
C722 C 0.05 0.54206 0.77761 0.0
C723 C 0.03382 0.57129 0.76612 0.0
N724 N 0.03162 0.51004 0.76978 0.0
N725 N 0.02566 0.55598 0.76596 0.0
H726 H 0.4705 0.03225 0.74936 0.0
H727 H 0.57083 0.04334 0.73972 0.0
H728 H 0.49798 0.06977 0.77849 0.0
H729 H 0.5476 0.9937 0.74226 0.0
H730 H 0.543 0.05629 0.74625 0.0
H731 H 0.49778 0.0209 0.73891 0.0
C732 C 0.48225 0.03825 0.75332 0.0
C733 C 0.48203 0.05192 0.76483 0.0
C734 C 0.54401 0.04259 0.74511 0.0
C735 C 0.51307 0.03932 0.75265 0.0
C736 C 0.5598 0.03523 0.7413 0.0
C737 C 0.56142 0.01747 0.74044 0.0
C738 C 0.52973 0.0321 0.74752 0.0
C739 C 0.54682 0.00745 0.74283 0.0
C740 C 0.49775 0.03175 0.74743 0.0
C741 C 0.49762 0.05916 0.7697 0.0
N742 N 0.53155 0.01491 0.74613 0.0
N743 N 0.51252 0.05285 0.76349 0.0
H744 H 0.32243 0.04817 0.4971 0.0
H745 H 0.26354 0.01927 0.5753 0.0
H746 H 0.2687 0.05842 0.50207 0.0
H747 H 0.31762 0.00989 0.57512 0.0
H748 H 0.26639 0.03502 0.54898 0.0
H749 H 0.32209 0.03514 0.52568 0.0
C750 C 0.31062 0.0478 0.5042 0.0
C751 C 0.29553 0.0543 0.49704 0.0
C752 C 0.27769 0.02947 0.55449 0.0
C753 C 0.2951 0.03951 0.52968 0.0
C754 C 0.27606 0.02044 0.56962 0.0
C755 C 0.29033 0.01309 0.57737 0.0
C756 C 0.29366 0.03093 0.54658 0.0
C757 C 0.30627 0.01534 0.56952 0.0
C758 C 0.31045 0.04036 0.52049 0.0
C759 C 0.28063 0.05347 0.50686 0.0
N760 N 0.3075 0.0239 0.55441 0.0
N761 N 0.28084 0.04623 0.52253 0.0
H762 H 0.03189 0.33172 0.48079 0.0
H763 H 0.02818 0.32769 0.58213 0.0
H764 H 0.98683 0.31473 0.50715 0.0
H765 H 0.0726 0.31155 0.55419 0.0
H766 H 0.01284 0.331 0.55496 0.0
H767 H 0.04715 0.33236 0.50815 0.0
C768 C 0.02516 0.32838 0.49237 0.0
C769 C 0.00812 0.3231 0.49175 0.0
C770 C 0.02602 0.32695 0.55485 0.0
C771 C 0.0253 0.32419 0.52294 0.0
C772 C 0.03477 0.32514 0.57028 0.0
C773 C 0.05165 0.31933 0.57035 0.0
C774 C 0.03439 0.32341 0.53944 0.0
C775 C 0.05957 0.31601 0.55466 0.0
C776 C 0.03387 0.32868 0.5079 0.0
C777 C 0.0 0.31877 0.50709 0.0
N778 N 0.05091 0.31819 0.53983 0.0
N779 N 0.00863 0.31953 0.5221 0.0
H780 H 0.75639 0.03596 0.47669 0.0
H781 H 0.7486 0.03866 0.57757 0.0
H782 H 0.75523 0.98971 0.50623 0.0
H783 H 0.78323 0.07198 0.55102 0.0
H784 H 0.74323 0.02346 0.5507 0.0
H785 H 0.75851 0.05246 0.50332 0.0
C786 C 0.75622 0.02934 0.4888 0.0
C787 C 0.75558 0.01151 0.48937 0.0
C788 C 0.75185 0.03421 0.55079 0.0
C789 C 0.75766 0.03018 0.51962 0.0
C790 C 0.75487 0.04291 0.56604 0.0
C791 C 0.7664 0.05655 0.56648 0.0
C792 C 0.75998 0.03957 0.53581 0.0
C793 C 0.77431 0.06147 0.55122 0.0
C794 C 0.75754 0.03871 0.50391 0.0
C795 C 0.75567 0.00347 0.50532 0.0
N796 N 0.77085 0.05308 0.53645 0.0
N797 N 0.75654 0.01286 0.51985 0.0
H798 H 0.08128 0.7693 0.51298 0.0
H799 H 0.99767 0.77068 0.5663 0.0
H800 H 0.03417 0.75473 0.48898 0.0
H801 H 0.04321 0.74942 0.58823 0.0
H802 H 0.0106 0.76831 0.53786 0.0
H803 H 0.06781 0.76553 0.541 0.0
C804 C 0.06813 0.76521 0.51365 0.0
C805 C 0.05881 0.7622 0.49871 0.0
C806 C 0.01767 0.76401 0.54889 0.0
C807 C 0.04325 0.75853 0.53058 0.0
C808 C 0.01033 0.76536 0.56506 0.0
C809 C 0.01938 0.7601 0.57953 0.0
C810 C 0.03443 0.75805 0.54729 0.0
C811 C 0.03579 0.75343 0.57732 0.0
C812 C 0.0605 0.76304 0.52959 0.0
C813 C 0.04179 0.75701 0.50024 0.0
N814 N 0.04295 0.7529 0.56152 0.0
N815 N 0.03443 0.75565 0.5159 0.0
H816 H 0.58261 0.32762 0.02082 0.0
H817 H 0.48325 0.33949 0.03775 0.0
H818 H 0.54484 0.33036 0.98112 0.0
H819 H 0.51701 0.31175 0.0711 0.0
H820 H 0.50764 0.34714 0.01993 0.0
H821 H 0.56033 0.33335 0.04199 0.0
C822 C 0.56977 0.33022 0.01651 0.0
C823 C 0.56544 0.32846 0.99928 0.0
C824 C 0.5097 0.33967 0.03135 0.0
C825 C 0.54009 0.33482 0.02325 0.0
C826 C 0.49582 0.3353 0.04153 0.0
C827 C 0.49808 0.32468 0.05575 0.0
C828 C 0.52594 0.33361 0.03556 0.0
C829 C 0.51467 0.31969 0.06007 0.0
C830 C 0.55707 0.33328 0.02858 0.0
C831 C 0.5486 0.33158 0.99433 0.0
N832 N 0.52798 0.32407 0.04991 0.0
N833 N 0.53646 0.33443 0.0063 0.0
H834 H 0.48304 0.76988 0.03573 0.0
H835 H 0.58386 0.76147 0.0364 0.0
H836 H 0.5127 0.78233 0.99127 0.0
H837 H 0.55704 0.78466 0.07831 0.0
H838 H 0.55707 0.76066 0.02015 0.0
H839 H 0.50956 0.76688 0.05219 0.0
C840 C 0.49516 0.77169 0.02941 0.0
C841 C 0.49579 0.77636 0.01219 0.0
C842 C 0.55708 0.76571 0.03299 0.0
C843 C 0.52594 0.77253 0.03069 0.0
C844 C 0.57228 0.76613 0.04225 0.0
C845 C 0.57261 0.77318 0.05867 0.0
C846 C 0.54205 0.77186 0.04044 0.0
C847 C 0.5573 0.77919 0.06565 0.0
C848 C 0.51021 0.77005 0.03878 0.0
C849 C 0.51175 0.77875 0.00455 0.0
N850 N 0.5426 0.77826 0.05655 0.0
N851 N 0.52624 0.77665 0.01382 0.0
H852 H 0.33399 0.58648 0.03251 0.0
H853 H 0.31838 0.48663 0.02051 0.0
H854 H 0.31054 0.55504 0.07101 0.0
H855 H 0.31706 0.5216 0.97822 0.0
H856 H 0.32205 0.51081 0.04001 0.0
H857 H 0.33423 0.5619 0.01313 0.0
C858 C 0.32906 0.57438 0.03694 0.0
C859 C 0.32217 0.57282 0.05337 0.0
C860 C 0.32117 0.51316 0.02644 0.0
C861 C 0.32267 0.54471 0.03142 0.0
C862 C 0.31914 0.4994 0.01535 0.0
C863 C 0.31732 0.50222 0.99782 0.0
C864 C 0.32187 0.52979 0.01988 0.0
C865 C 0.3183 0.51898 0.99171 0.0
C866 C 0.32915 0.56042 0.02587 0.0
C867 C 0.31586 0.55686 0.05841 0.0
N868 N 0.32062 0.53216 0.00272 0.0
N869 N 0.31635 0.54342 0.04752 0.0
H870 H 0.73765 0.54378 0.98743 0.0
H871 H 0.74869 0.50528 0.07968 0.0
H872 H 0.72947 0.57398 0.03252 0.0
H873 H 0.73282 0.47389 0.03751 0.0
H874 H 0.74348 0.53066 0.06236 0.0
H875 H 0.73742 0.51794 0.00505 0.0
C876 C 0.73567 0.54492 0.00105 0.0
C877 C 0.73357 0.56097 0.00859 0.0
C878 C 0.74109 0.51823 0.05691 0.0
C879 C 0.7338 0.53162 0.02881 0.0
C880 C 0.7441 0.50374 0.06676 0.0
C881 C 0.74122 0.48745 0.05999 0.0
C882 C 0.73563 0.51646 0.03999 0.0
C883 C 0.73515 0.48622 0.04322 0.0
C884 C 0.73545 0.5302 0.01106 0.0
C885 C 0.73105 0.56181 0.02625 0.0
N886 N 0.73279 0.50053 0.03369 0.0
N887 N 0.73154 0.54736 0.03582 0.0
H888 H 0.51213 0.98595 0.77212 0.0
H889 H 0.54595 0.04971 0.84427 0.0
H890 H 0.52622 0.96929 0.82261 0.0
H891 H 0.53265 0.06515 0.79319 0.0
H892 H 0.53857 0.02034 0.83693 0.0
H893 H 0.51937 0.01501 0.78004 0.0
C894 C 0.51689 0.98833 0.78485 0.0
C895 C 0.51856 0.97502 0.79671 0.0
C896 C 0.53725 0.03017 0.82734 0.0
C897 C 0.52707 0.00856 0.80578 0.0
C898 C 0.54143 0.04698 0.83153 0.0
C899 C 0.53993 0.06002 0.81935 0.0
C900 C 0.53151 0.0263 0.81085 0.0
C901 C 0.53402 0.05561 0.80304 0.0
C902 C 0.52104 0.005 0.78934 0.0
C903 C 0.52473 0.97907 0.81303 0.0
N904 N 0.53006 0.03917 0.79929 0.0
N905 N 0.52876 0.99546 0.81707 0.0
H906 H 0.98779 0.557 0.85985 0.0
H907 H 0.06752 0.51992 0.86462 0.0
H908 H 0.98817 0.54173 0.80705 0.0
H909 H 0.07032 0.52817 0.81033 0.0
H910 H 0.0379 0.5287 0.86417 0.0
H911 H 0.01737 0.54844 0.86226 0.0
C912 C 0.99403 0.55165 0.84877 0.0
C913 C 0.98535 0.54999 0.83323 0.0
C914 C 0.045 0.52898 0.85237 0.0
C915 C 0.01942 0.53964 0.83603 0.0
C916 C 0.06197 0.52378 0.8526 0.0
C917 C 0.07155 0.5234 0.8375 0.0
C918 C 0.03745 0.53399 0.83694 0.0
C919 C 0.06348 0.52833 0.82229 0.0
C920 C 0.01097 0.54658 0.85021 0.0
C921 C 0.9943 0.54318 0.81929 0.0
N922 N 0.04689 0.53337 0.82239 0.0
N923 N 0.01084 0.5383 0.82101 0.0
H924 H 0.52084 0.06252 0.27375 0.0
H925 H 0.54863 0.96836 0.24576 0.0
H926 H 0.52062 0.04552 0.22148 0.0
H927 H 0.54859 0.9864 0.29768 0.0
H928 H 0.53756 0.99602 0.23654 0.0
H929 H 0.53048 0.03439 0.28256 0.0
C930 C 0.52295 0.05293 0.26408 0.0
C931 C 0.51998 0.05652 0.2468 0.0
C932 C 0.53992 0.99389 0.24995 0.0
C933 C 0.53105 0.02405 0.25691 0.0
C934 C 0.54618 0.97805 0.25526 0.0
C935 C 0.54965 0.97501 0.27255 0.0
C936 C 0.53707 0.00679 0.26203 0.0
C937 C 0.54623 0.98813 0.28423 0.0
C938 C 0.52842 0.0368 0.26916 0.0
C939 C 0.52276 0.0434 0.23492 0.0
N940 N 0.54021 0.00341 0.27875 0.0
N941 N 0.52816 0.02777 0.2402 0.0
H942 H 0.07523 0.55951 0.2583 0.0
H943 H 0.99546 0.52305 0.20682 0.0
H944 H 0.07618 0.55129 0.20395 0.0
H945 H 0.99242 0.54222 0.25824 0.0
H946 H 0.02517 0.53235 0.20547 0.0
H947 H 0.04508 0.5523 0.25854 0.0
C948 C 0.06913 0.55605 0.24642 0.0
C949 C 0.07829 0.55596 0.23108 0.0
C950 C 0.01795 0.53462 0.217 0.0
C951 C 0.04368 0.5474 0.23133 0.0
C952 C 0.00098 0.52931 0.2178 0.0
C953 C 0.99142 0.53171 0.23276 0.0
C954 C 0.02543 0.54242 0.23124 0.0
C955 C 0.99928 0.53994 0.24651 0.0
C956 C 0.05186 0.55196 0.24657 0.0
C957 C 0.06961 0.55155 0.21607 0.0
N958 N 0.01578 0.54497 0.2454 0.0
N959 N 0.05283 0.54732 0.21658 0.0
H960 H 0.76965 0.52509 0.98911 0.0
H961 H 0.81944 0.54212 0.07667 0.0
H962 H 0.82222 0.51083 0.99575 0.0
H963 H 0.76617 0.55227 0.06784 0.0
H964 H 0.82188 0.53189 0.04711 0.0
H965 H 0.7697 0.53746 0.01754 0.0
C966 C 0.78124 0.52461 0.99657 0.0
C967 C 0.79592 0.51683 0.99008 0.0
C968 C 0.80968 0.53634 0.05174 0.0
C969 C 0.79584 0.53048 0.02307 0.0
C970 C 0.80826 0.54213 0.06862 0.0
C971 C 0.79254 0.54799 0.07489 0.0
C972 C 0.79531 0.53653 0.04107 0.0
C973 C 0.77853 0.54777 0.06378 0.0
C974 C 0.78121 0.53157 0.01287 0.0
C975 C 0.81064 0.51676 1.00027 0.0
N976 N 0.78027 0.54219 0.04753 0.0
N977 N 0.81018 0.5233 0.01638 0.0
H978 H 0.55251 0.80514 0.99683 0.0
H979 H 0.52187 0.86014 0.07715 0.0
H980 H 0.54965 0.86005 0.99645 0.0
H981 H 0.52532 0.80527 0.07702 0.0
H982 H 0.53227 0.86052 0.04781 0.0
H983 H 0.543 0.80525 0.02639 0.0
C984 C 0.54973 0.81723 0.00288 0.0
C985 C 0.55186 0.83263 0.99405 0.0
C986 C 0.53079 0.84841 0.05422 0.0
C987 C 0.54065 0.8327 0.02798 0.0
C988 C 0.52485 0.84816 0.07101 0.0
C989 C 0.52269 0.83264 0.07965 0.0
C990 C 0.53458 0.83301 0.04594 0.0
C991 C 0.52678 0.81755 0.07095 0.0
C992 C 0.54427 0.81724 0.01979 0.0
C993 C 0.5482 0.84787 0.00271 0.0
N994 N 0.53248 0.81813 0.0546 0.0
N995 N 0.54272 0.84751 0.01916 0.0
H996 H 0.2878 0.54408 0.98264 0.0
H997 H 0.23845 0.52661 0.07032 0.0
H998 H 0.23754 0.56406 0.99198 0.0
H999 H 0.29138 0.51519 0.06083 0.0
H1000 H 0.23641 0.53872 0.04148 0.0
H1001 H 0.28716 0.5304 0.0105 0.0
C1002 C 0.27662 0.54558 0.99057 0.0
C1003 C 0.26275 0.55534 0.98502 0.0
C1004 C 0.24844 0.53358 0.04581 0.0
C1005 C 0.26232 0.54024 0.01737 0.0
C1006 C 0.24965 0.52673 0.06229 0.0
C1007 C 0.26511 0.51982 0.06811 0.0
C1008 C 0.26276 0.53339 0.03506 0.0
C1009 C 0.27916 0.52029 0.05704 0.0
C1010 C 0.27635 0.53791 0.00655 0.0
C1011 C 0.24849 0.55663 0.99578 0.0
N1012 N 0.27761 0.52686 0.04114 0.0
N1013 N 0.24871 0.54933 0.01157 0.0
H1014 H 0.5247 0.1978 0.00366 0.0
H1015 H 0.56345 0.26388 0.07072 0.0
H1016 H 0.54583 0.24666 0.9898 0.0
H1017 H 0.54193 0.21533 0.08506 0.0
H1018 H 0.55744 0.25751 0.04103 0.0
H1019 H 0.53178 0.20351 0.03337 0.0
C1020 C 0.53094 0.20968 0.00681 0.0
C1021 C 0.53458 0.2218 0.99415 0.0
C1022 C 0.55396 0.24826 0.05065 0.0
C1023 C 0.5426 0.22846 0.02826 0.0
C1024 C 0.55731 0.25192 0.06768 0.0
C1025 C 0.55309 0.24017 0.08052 0.0
C1026 C 0.54633 0.23271 0.0463 0.0
C1027 C 0.54531 0.22483 0.07566 0.0
C1028 C 0.53493 0.21295 0.02382 0.0
C1029 C 0.54269 0.23696 0.99908 0.0
N1030 N 0.5422 0.22154 0.05894 0.0
N1031 N 0.54636 0.23987 0.01574 0.0
H1032 H 0.09167 0.84427 0.55552 0.0
H1033 H 0.00467 0.79853 0.52815 0.0
H1034 H 0.08747 0.79069 0.54403 0.0
H1035 H 0.00936 0.85295 0.53427 0.0
H1036 H 0.03489 0.79552 0.53463 0.0
H1037 H 0.06157 0.8478 0.54829 0.0
C1038 C 0.08448 0.83325 0.55143 0.0
C1039 C 0.09219 0.81712 0.55046 0.0
C1040 C 0.02931 0.80811 0.53462 0.0
C1041 C 0.05761 0.8211 0.54224 0.0
C1042 C 0.01201 0.80986 0.53096 0.0
C1043 C 0.00436 0.82603 0.5307 0.0
C1044 C 0.03915 0.82261 0.53819 0.0
C1045 C 0.01465 0.84023 0.53431 0.0
C1046 C 0.06726 0.83528 0.54731 0.0
C1047 C 0.08213 0.80335 0.54505 0.0
N1048 N 0.03148 0.83818 0.53794 0.0
N1049 N 0.06541 0.80564 0.54122 0.0
H1050 H 0.99198 0.28927 0.5449 0.0
H1051 H 0.0726 0.23505 0.51376 0.0
H1052 H 0.98917 0.23502 0.53628 0.0
H1053 H 0.07215 0.28949 0.52142 0.0
H1054 H 0.04268 0.23398 0.52288 0.0
H1055 H 0.02176 0.28871 0.53702 0.0
C1056 C 0.99755 0.2772 0.54123 0.0
C1057 C 0.98789 0.26214 0.54127 0.0
C1058 C 0.0492 0.24611 0.52261 0.0
C1059 C 0.02242 0.26154 0.532 0.0
C1060 C 0.06631 0.24674 0.5175 0.0
C1061 C 0.07496 0.26239 0.51674 0.0
C1062 C 0.04073 0.26125 0.52704 0.0
C1063 C 0.06608 0.27712 0.52166 0.0
C1064 C 0.01467 0.27693 0.5367 0.0
C1065 C 0.99605 0.24695 0.53639 0.0
N1066 N 0.04954 0.27617 0.52653 0.0
N1067 N 0.01286 0.24703 0.53195 0.0
H1068 H 0.7796 0.98684 0.54467 0.0
H1069 H 0.8567 0.0489 0.51973 0.0
H1070 H 0.83211 0.97057 0.54478 0.0
H1071 H 0.80385 0.06393 0.52086 0.0
H1072 H 0.84834 0.02026 0.52893 0.0
H1073 H 0.78869 0.01508 0.53583 0.0
C1074 C 0.79306 0.98912 0.54272 0.0
C1075 C 0.8051 0.97618 0.54551 0.0
C1076 C 0.8386 0.02986 0.5272 0.0
C1077 C 0.81558 0.00879 0.5352 0.0
C1078 C 0.84336 0.04625 0.52198 0.0
C1079 C 0.83098 0.05894 0.5195 0.0
C1080 C 0.82133 0.02609 0.52993 0.0
C1081 C 0.81389 0.05465 0.52259 0.0
C1082 C 0.79823 0.00533 0.53765 0.0
C1083 C 0.82235 0.98009 0.54278 0.0
N1084 N 0.80961 0.03865 0.52759 0.0
N1085 N 0.82708 0.99603 0.53778 0.0
H1086 H 0.19781 0.05074 0.54034 0.0
H1087 H 0.27108 0.98464 0.51589 0.0
H1088 H 0.24973 0.06497 0.5295 0.0
H1089 H 0.21786 0.97166 0.51185 0.0
H1090 H 0.26316 0.01375 0.52291 0.0
H1091 H 0.20445 0.02144 0.53165 0.0
C1092 C 0.21056 0.04777 0.53604 0.0
C1093 C 0.22329 0.06037 0.53582 0.0
C1094 C 0.25318 0.00457 0.52054 0.0
C1095 C 0.23093 0.02688 0.5259 0.0
C1096 C 0.2577 0.98787 0.51659 0.0
C1097 C 0.24513 0.97561 0.51328 0.0
C1098 C 0.23593 0.00914 0.52148 0.0
C1099 C 0.22799 0.98068 0.51427 0.0
C1100 C 0.21432 0.03104 0.53107 0.0
C1101 C 0.23954 0.05573 0.53006 0.0
N1102 N 0.22388 0.99704 0.51838 0.0
N1103 N 0.24286 0.03942 0.52539 0.0
H1104 H 0.08694 0.41404 0.36725 0.0
H1105 H 0.99589 0.40292 0.41099 0.0
H1106 H 0.04237 0.44288 0.35307 0.0
H1107 H 0.03913 0.37079 0.42181 0.0
H1108 H 0.01412 0.42112 0.3936 0.0
H1109 H 0.07103 0.40164 0.39092 0.0
C1110 C 0.07387 0.41795 0.36923 0.0
C1111 C 0.06591 0.42935 0.35799 0.0
C1112 C 0.01967 0.4102 0.39994 0.0
C1113 C 0.04758 0.41509 0.38505 0.0
C1114 C 0.00928 0.39981 0.40991 0.0
C1115 C 0.01593 0.38514 0.41768 0.0
C1116 C 0.03686 0.4059 0.39764 0.0
C1117 C 0.03341 0.38187 0.41593 0.0
C1118 C 0.06478 0.41083 0.38275 0.0
C1119 C 0.04898 0.43402 0.3613 0.0
N1120 N 0.04322 0.39204 0.40593 0.0
N1121 N 0.04033 0.42673 0.37441 0.0
H1122 H 0.63838 0.03701 0.3547 0.0
H1123 H 0.72136 0.05941 0.40823 0.0
H1124 H 0.66481 0.08504 0.3507 0.0
H1125 H 0.69022 0.0151 0.4176 0.0
H1126 H 0.69938 0.07036 0.3891 0.0
H1127 H 0.6558 0.02989 0.37949 0.0
C1128 C 0.64771 0.04614 0.35913 0.0
C1129 C 0.65025 0.06156 0.35047 0.0
C1130 C 0.69725 0.05835 0.39553 0.0
C1131 C 0.67036 0.05343 0.37877 0.0
C1132 C 0.7098 0.05211 0.4065 0.0
C1133 C 0.70777 0.03618 0.41436 0.0
C1134 C 0.68265 0.04853 0.39228 0.0
C1135 C 0.69246 0.02734 0.41168 0.0
C1136 C 0.65765 0.04208 0.37331 0.0
C1137 C 0.66248 0.07294 0.35688 0.0
N1138 N 0.68062 0.03351 0.40069 0.0
N1139 N 0.67221 0.06856 0.3705 0.0
H1140 H 0.07997 0.6884 0.4126 0.0
H1141 H 0.9896 0.6619 0.37441 0.0
H1142 H 0.03242 0.71124 0.42799 0.0
H1143 H 0.03751 0.6422 0.3561 0.0
H1144 H 0.00465 0.67635 0.39744 0.0
H1145 H 0.06423 0.66788 0.3954 0.0
C1146 C 0.0662 0.68898 0.41256 0.0
C1147 C 0.05752 0.70174 0.4216 0.0
C1148 C 0.01186 0.66871 0.38851 0.0
C1149 C 0.0394 0.67828 0.40176 0.0
C1150 C 0.00327 0.66041 0.37535 0.0
C1151 C 0.01232 0.65099 0.36313 0.0
C1152 C 0.02967 0.66765 0.38948 0.0
C1153 C 0.03001 0.64943 0.36512 0.0
C1154 C 0.05722 0.67725 0.40268 0.0
C1155 C 0.03966 0.70173 0.42113 0.0
N1156 N 0.03812 0.65784 0.37792 0.0
N1157 N 0.03121 0.69031 0.41122 0.0
H1158 H 0.37572 0.09406 0.41698 0.0
H1159 H 0.43668 0.01284 0.41639 0.0
H1160 H 0.3693 0.05041 0.4498 0.0
H1161 H 0.43663 0.05146 0.37725 0.0
H1162 H 0.41672 0.02996 0.43292 0.0
H1163 H 0.40244 0.082 0.40667 0.0
C1164 C 0.38004 0.08207 0.42224 0.0
C1165 C 0.37008 0.07309 0.43408 0.0
C1166 C 0.42127 0.03481 0.42083 0.0
C1167 C 0.40068 0.05921 0.42225 0.0
C1168 C 0.43272 0.02506 0.41138 0.0
C1169 C 0.43811 0.03057 0.39524 0.0
C1170 C 0.41514 0.05019 0.41411 0.0
C1171 C 0.43267 0.04661 0.38953 0.0
C1172 C 0.3953 0.07518 0.4163 0.0
C1173 C 0.37644 0.05768 0.44052 0.0
N1174 N 0.42129 0.05575 0.39886 0.0
N1175 N 0.39124 0.05114 0.43437 0.0
H1176 H 0.08828 0.64561 0.69268 0.0
H1177 H 0.00779 0.69103 0.65063 0.0
H1178 H 0.03656 0.63821 0.70968 0.0
H1179 H 0.05991 0.70358 0.63858 0.0
H1180 H 0.01781 0.66714 0.6678 0.0
H1181 H 0.07772 0.66215 0.66859 0.0
C1182 C 0.07467 0.64722 0.69122 0.0
C1183 C 0.06331 0.64073 0.70341 0.0
C1184 C 0.02705 0.67497 0.66121 0.0
C1185 C 0.05113 0.6598 0.67584 0.0
C1186 C 0.02134 0.68861 0.65134 0.0
C1187 C 0.03304 0.69954 0.64335 0.0
C1188 C 0.04459 0.67221 0.66315 0.0
C1189 C 0.05042 0.69563 0.64464 0.0
C1190 C 0.06866 0.65672 0.67746 0.0
C1191 C 0.04581 0.64311 0.70072 0.0
N1192 N 0.05568 0.68243 0.65455 0.0
N1193 N 0.04027 0.65264 0.68734 0.0
H1194 H 0.40245 0.06233 0.70761 0.0
H1195 H 0.35883 0.98017 0.66675 0.0
H1196 H 0.39105 0.01632 0.73533 0.0
H1197 H 0.34466 0.03075 0.65048 0.0
H1198 H 0.37849 0.99257 0.68724 0.0
H1199 H 0.38848 0.05003 0.68225 0.0
C1200 C 0.3973 0.04955 0.70823 0.0
C1201 C 0.39779 0.0403 0.72353 0.0
C1202 C 0.37123 0.00094 0.67903 0.0
C1203 C 0.3822 0.02622 0.6948 0.0
C1204 C 0.36001 0.9939 0.66727 0.0
C1205 C 0.34982 0.00443 0.65704 0.0
C1206 C 0.37248 0.01868 0.68053 0.0
C1207 C 0.35213 0.02215 0.65824 0.0
C1208 C 0.38928 0.04263 0.69386 0.0
C1209 C 0.39082 0.02389 0.7238 0.0
N1210 N 0.36314 0.02876 0.66992 0.0
N1211 N 0.38337 0.01736 0.70965 0.0
H1212 H 0.02826 0.36655 0.6484 0.0
H1213 H 0.04612 0.41289 0.73487 0.0
H1214 H 0.07847 0.38351 0.66291 0.0
H1215 H 0.99796 0.4201 0.70958 0.0
H1216 H 0.05781 0.40097 0.70866 0.0
H1217 H 0.01611 0.38526 0.6704 0.0
C1218 C 0.0367 0.37438 0.65598 0.0
C1219 C 0.05443 0.37326 0.65396 0.0
C1220 C 0.04475 0.40538 0.70872 0.0
C1221 C 0.04067 0.39437 0.67917 0.0
C1222 C 0.03808 0.41215 0.72369 0.0
C1223 C 0.02109 0.41748 0.72433 0.0
C1224 C 0.03424 0.40348 0.69439 0.0
C1225 C 0.01118 0.41622 0.70951 0.0
C1226 C 0.02976 0.38505 0.6685 0.0
C1227 C 0.06475 0.38375 0.66411 0.0
N1228 N 0.01782 0.40903 0.69516 0.0
N1229 N 0.05775 0.39361 0.67644 0.0
H1230 H 0.70319 0.05041 0.6191 0.0
H1231 H 0.62708 0.01883 0.64902 0.0
H1232 H 0.69358 0.09468 0.65022 0.0
H1233 H 0.63465 0.05429 0.69032 0.0
H1234 H 0.64823 0.0342 0.63231 0.0
H1235 H 0.67619 0.03842 0.62834 0.0
C1236 C 0.69523 0.05776 0.62764 0.0
C1237 C 0.70074 0.07352 0.63399 0.0
C1238 C 0.64537 0.03861 0.64504 0.0
C1239 C 0.66947 0.06 0.64446 0.0
C1240 C 0.63307 0.02997 0.65452 0.0
C1241 C 0.62937 0.03502 0.67127 0.0
C1242 C 0.65419 0.05229 0.65246 0.0
C1243 C 0.63728 0.04976 0.67757 0.0
C1244 C 0.67965 0.05097 0.63281 0.0
C1245 C 0.6899 0.08245 0.64505 0.0
N1246 N 0.6495 0.05772 0.66825 0.0
N1247 N 0.67491 0.07545 0.65012 0.0
H1248 H 0.42878 0.35989 0.02803 0.0
H1249 H 0.35758 0.43215 0.02063 0.0
H1250 H 0.40258 0.3814 0.07132 0.0
H1251 H 0.38476 0.41148 0.97753 0.0
H1252 H 0.37572 0.41552 0.03964 0.0
H1253 H 0.41455 0.38047 0.00959 0.0
C1254 C 0.42012 0.36902 0.03368 0.0
C1255 C 0.41674 0.36881 0.05123 0.0
C1256 C 0.37781 0.41473 0.02603 0.0
C1257 C 0.40035 0.39237 0.03017 0.0
C1258 C 0.36746 0.42423 0.01516 0.0
C1259 C 0.36954 0.42308 0.99745 0.0
C1260 C 0.39029 0.40393 0.01914 0.0
C1261 C 0.38261 0.41268 0.99109 0.0
C1262 C 0.412 0.38077 0.02314 0.0
C1263 C 0.40549 0.38101 0.05785 0.0
N1264 N 0.39239 0.4034 0.00193 0.0
N1265 N 0.39759 0.39221 0.04729 0.0
H1266 H 0.43786 0.71796 0.02823 0.0
H1267 H 0.36826 0.64401 0.02923 0.0
H1268 H 0.40915 0.70263 0.98394 0.0
H1269 H 0.39919 0.65744 0.07263 0.0
H1270 H 0.38529 0.66317 0.01158 0.0
H1271 H 0.42603 0.6938 0.04386 0.0
C1272 C 0.4292 0.70942 0.02173 0.0
C1273 C 0.42434 0.71245 0.00481 0.0
C1274 C 0.38848 0.66178 0.02492 0.0
C1275 C 0.41065 0.68481 0.02266 0.0
C1276 C 0.37877 0.65081 0.03501 0.0
C1277 C 0.38215 0.64928 0.05249 0.0
C1278 C 0.40161 0.67136 0.0324 0.0
C1279 C 0.39599 0.65834 0.05925 0.0
C1280 C 0.42244 0.69561 0.03067 0.0
C1281 C 0.41315 0.70088 0.99702 0.0
N1282 N 0.40508 0.66913 0.04924 0.0
N1283 N 0.40655 0.68769 0.00606 0.0
H1284 H 0.63745 0.37387 0.99066 0.0
H1285 H 0.71522 0.37115 0.05639 0.0
H1286 H 0.65927 0.32753 0.01064 0.0
H1287 H 0.69205 0.41794 0.0392 0.0
H1288 H 0.69546 0.35514 0.03871 0.0
H1289 H 0.65785 0.39033 0.00743 0.0
C1290 C 0.64653 0.36714 0.99856 0.0
C1291 C 0.64663 0.34927 0.99925 0.0
C1292 C 0.69468 0.36891 0.03876 0.0
C1293 C 0.67003 0.36807 0.01846 0.0
C1294 C 0.70599 0.37809 0.04886 0.0
C1295 C 0.70527 0.39594 0.04934 0.0
C1296 C 0.68249 0.37759 0.029 0.0
C1297 C 0.69304 0.40419 0.03925 0.0
C1298 C 0.65817 0.37657 0.00813 0.0
C1299 C 0.6587 0.34127 0.00971 0.0
N1300 N 0.6821 0.39494 0.02951 0.0
N1301 N 0.66989 0.35072 0.01889 0.0
H1302 H 0.65089 0.69114 0.0846 0.0
H1303 H 0.65908 0.64967 0.99204 0.0
H1304 H 0.62746 0.7119 0.03941 0.0
H1305 H 0.68788 0.63279 0.03571 0.0
H1306 H 0.64342 0.66928 0.01034 0.0
H1307 H 0.66061 0.66674 0.06796 0.0
C1308 C 0.64763 0.6905 0.07122 0.0
C1309 C 0.63851 0.70371 0.06334 0.0
C1310 C 0.65303 0.66116 0.01596 0.0
C1311 C 0.64965 0.67578 0.04421 0.0
C1312 C 0.66196 0.6499 0.00552 0.0
C1313 C 0.67499 0.63972 0.0123 0.0
C1314 C 0.65716 0.66229 0.03332 0.0
C1315 C 0.67804 0.6405 0.0299 0.0
C1316 C 0.65321 0.67655 0.06172 0.0
C1317 C 0.63458 0.7021 0.04598 0.0
N1318 N 0.66932 0.65174 0.03977 0.0
N1319 N 0.64029 0.68847 0.03698 0.0
H1320 H 0.55083 0.9187 0.94299 0.0
H1321 H 0.53304 0.8764 0.85224 0.0
H1322 H 0.58041 0.8774 0.92219 0.0
H1323 H 0.51481 0.9266 0.86531 0.0
H1324 H 0.54723 0.87468 0.87975 0.0
H1325 H 0.53494 0.92039 0.91613 0.0
C1326 C 0.55392 0.90995 0.93278 0.0
C1327 C 0.56661 0.89756 0.93493 0.0
C1328 C 0.5401 0.88607 0.87663 0.0
C1329 C 0.54855 0.89941 0.90432 0.0
C1330 C 0.53189 0.88704 0.86094 0.0
C1331 C 0.52279 0.90173 0.85639 0.0
C1332 C 0.53916 0.89983 0.88796 0.0
C1333 C 0.52174 0.91506 0.86827 0.0
C1334 C 0.54485 0.91091 0.9175 0.0
C1335 C 0.57031 0.88671 0.92127 0.0
N1336 N 0.52988 0.91382 0.88352 0.0
N1337 N 0.56124 0.8878 0.90659 0.0
H1338 H 0.19699 0.57117 0.89392 0.0
H1339 H 0.11337 0.52665 0.9287 0.0
H1340 H 0.18616 0.5701 0.94785 0.0
H1341 H 0.14181 0.50728 0.8859 0.0
H1342 H 0.13645 0.54691 0.93444 0.0
H1343 H 0.17251 0.55284 0.88891 0.0
C1344 C 0.18933 0.56731 0.90473 0.0
C1345 C 0.19375 0.57209 0.92139 0.0
C1346 C 0.13752 0.53829 0.92373 0.0
C1347 C 0.16566 0.55106 0.91562 0.0
C1348 C 0.1244 0.52675 0.92042 0.0
C1349 C 0.12544 0.51565 0.90642 0.0
C1350 C 0.15165 0.53882 0.91285 0.0
C1351 C 0.14013 0.51612 0.89632 0.0
C1352 C 0.17544 0.55672 0.90182 0.0
C1353 C 0.18326 0.56666 0.93483 0.0
N1354 N 0.15258 0.52766 0.89961 0.0
N1355 N 0.16966 0.55638 0.93165 0.0
H1356 H 0.55913 0.11796 0.88244 0.0
H1357 H 0.5144 0.12641 0.97361 0.0
H1358 H 0.55503 0.07744 0.91931 0.0
H1359 H 0.50708 0.16406 0.9343 0.0
H1360 H 0.53116 0.10943 0.95393 0.0
H1361 H 0.54154 0.13608 0.90103 0.0
C1362 C 0.5543 0.11279 0.89426 0.0
C1363 C 0.55833 0.09608 0.8992 0.0
C1364 C 0.52599 0.12143 0.94954 0.0
C1365 C 0.53877 0.1168 0.92069 0.0
C1366 C 0.51641 0.13116 0.96081 0.0
C1367 C 0.50956 0.14681 0.95568 0.0
C1368 C 0.52877 0.12729 0.93286 0.0
C1369 C 0.51254 0.15228 0.9389 0.0
C1370 C 0.54441 0.12317 0.90493 0.0
C1371 C 0.55225 0.09022 0.91494 0.0
N1372 N 0.52198 0.14254 0.92805 0.0
N1373 N 0.54285 0.10054 0.92508 0.0
H1374 H 0.85872 0.50748 0.89265 0.0
H1375 H 0.94202 0.55724 0.92122 0.0
H1376 H 0.8723 0.51227 0.94573 0.0
H1377 H 0.91302 0.5705 0.87654 0.0
H1378 H 0.91977 0.53685 0.92927 0.0
H1379 H 0.88245 0.52595 0.88514 0.0
C1380 C 0.86681 0.51224 0.90276 0.0
C1381 C 0.8634 0.50841 0.9199 0.0
C1382 C 0.91839 0.54415 0.91764 0.0
C1383 C 0.89063 0.52963 0.91127 0.0
C1384 C 0.93103 0.55576 0.91303 0.0
C1385 C 0.92958 0.56519 0.89789 0.0
C1386 C 0.90427 0.5419 0.90698 0.0
C1387 C 0.91498 0.56298 0.88791 0.0
C1388 C 0.88028 0.52288 0.89842 0.0
C1389 C 0.87441 0.51495 0.93237 0.0
N1390 N 0.90296 0.55144 0.89254 0.0
N1391 N 0.88756 0.5253 0.92781 0.0
H1392 H 0.55287 0.168 0.13119 0.0
H1393 H 0.48608 0.11434 0.18634 0.0
H1394 H 0.53014 0.18585 0.17796 0.0
H1395 H 0.51961 0.09068 0.14991 0.0
H1396 H 0.49976 0.14172 0.18076 0.0
H1397 H 0.5388 0.14036 0.13545 0.0
C1398 C 0.54498 0.16611 0.14234 0.0
C1399 C 0.54271 0.17926 0.15424 0.0
C1400 C 0.50419 0.13055 0.17401 0.0
C1401 C 0.52647 0.14788 0.15905 0.0
C1402 C 0.49645 0.11491 0.17728 0.0
C1403 C 0.50215 0.10018 0.16901 0.0
C1404 C 0.51754 0.13152 0.16213 0.0
C1405 C 0.51506 0.10174 0.15675 0.0
C1406 C 0.53697 0.15036 0.14476 0.0
C1407 C 0.53233 0.17611 0.16846 0.0
N1408 N 0.52242 0.11714 0.15373 0.0
N1409 N 0.52456 0.16081 0.17041 0.0
H1410 H 0.91878 0.50944 0.19153 0.0
H1411 H 0.86788 0.55912 0.11979 0.0
H1412 H 0.94226 0.52311 0.14379 0.0
H1413 H 0.85557 0.56276 0.17327 0.0
H1414 H 0.89448 0.54456 0.12739 0.0
H1415 H 0.89437 0.52727 0.18424 0.0
C1416 C 0.91898 0.51648 0.17969 0.0
C1417 C 0.93282 0.51522 0.16852 0.0
C1418 C 0.886 0.54874 0.13742 0.0
C1419 C 0.90457 0.53502 0.15969 0.0
C1420 C 0.87085 0.55707 0.1331 0.0
C1421 C 0.85942 0.56208 0.14589 0.0
C1422 C 0.88954 0.5452 0.15461 0.0
C1423 C 0.86392 0.55907 0.16295 0.0
C1424 C 0.90496 0.52653 0.17545 0.0
C1425 C 0.93192 0.52387 0.15287 0.0
N1426 N 0.8785 0.55066 0.16679 0.0
N1427 N 0.91802 0.53337 0.14888 0.0
H1428 H 0.52607 0.91784 0.13072 0.0
H1429 H 0.54756 0.87675 0.22126 0.0
H1430 H 0.49779 0.87627 0.15276 0.0
H1431 H 0.56387 0.92733 0.20717 0.0
H1432 H 0.5328 0.87426 0.19409 0.0
H1433 H 0.54294 0.9198 0.15691 0.0
C1434 C 0.52349 0.90906 0.14105 0.0
C1435 C 0.51083 0.89656 0.13943 0.0
C1436 C 0.53965 0.88588 0.19691 0.0
C1437 C 0.53003 0.89873 0.16933 0.0
C1438 C 0.54819 0.8873 0.21239 0.0
C1439 C 0.5569 0.90234 0.21658 0.0
C1440 C 0.53988 0.89954 0.1854 0.0
C1441 C 0.55727 0.91554 0.20451 0.0
C1442 C 0.53312 0.91019 0.15595 0.0
C1443 C 0.50783 0.88568 0.15325 0.0
N1444 N 0.54883 0.91385 0.18946 0.0
N1445 N 0.51743 0.88694 0.16758 0.0
H1446 H 0.14883 0.57461 0.18323 0.0
H1447 H 0.1894 0.51455 0.11284 0.0
H1448 H 0.12002 0.55906 0.13918 0.0
H1449 H 0.20387 0.5126 0.16586 0.0
H1450 H 0.16528 0.53293 0.12063 0.0
H1451 H 0.17111 0.55434 0.1754 0.0
C1452 C 0.14705 0.56671 0.17209 0.0
C1453 C 0.13229 0.56805 0.16221 0.0
C1454 C 0.1737 0.5283 0.13051 0.0
C1455 C 0.15805 0.54542 0.15269 0.0
C1456 C 0.18742 0.51781 0.12609 0.0
C1457 C 0.19872 0.51207 0.13869 0.0
C1458 C 0.17152 0.53329 0.14756 0.0
C1459 C 0.19555 0.51672 0.15568 0.0
C1460 C 0.15983 0.55525 0.16753 0.0
C1461 C 0.13111 0.55821 0.14731 0.0
N1462 N 0.1824 0.5272 0.15958 0.0
N1463 N 0.14384 0.5473 0.14297 0.0
H1464 H 0.86098 0.87746 0.5546 0.0
H1465 H 0.95248 0.91853 0.53857 0.0
H1466 H 0.87171 0.93009 0.56636 0.0
H1467 H 0.93314 0.87532 0.51079 0.0
H1468 H 0.92482 0.92129 0.55285 0.0
H1469 H 0.8897 0.87439 0.54333 0.0
C1470 C 0.86943 0.88835 0.555 0.0
C1471 C 0.86385 0.90412 0.56132 0.0
C1472 C 0.92674 0.9111 0.54376 0.0
C1473 C 0.89681 0.90063 0.54832 0.0
C1474 C 0.94248 0.90952 0.5356 0.0
C1475 C 0.9453 0.89631 0.52388 0.0
C1476 C 0.91378 0.89936 0.54018 0.0
C1477 C 0.93184 0.88515 0.52033 0.0
C1478 C 0.8858 0.88659 0.54846 0.0
C1479 C 0.87545 0.91773 0.56154 0.0
N1480 N 0.91671 0.88686 0.52852 0.0
N1481 N 0.8914 0.91569 0.55506 0.0
H1482 H 0.88924 0.12085 0.49214 0.0
H1483 H 0.94638 0.18076 0.55104 0.0
H1484 H 0.92868 0.10027 0.52427 0.0
H1485 H 0.89563 0.19367 0.53438 0.0
H1486 H 0.94254 0.1521 0.53887 0.0
H1487 H 0.89391 0.14885 0.5048 0.0
C1488 C 0.89865 0.12215 0.5021 0.0
C1489 C 0.90808 0.10808 0.50767 0.0
C1490 C 0.93227 0.16126 0.53799 0.0
C1491 C 0.91412 0.14029 0.52166 0.0
C1492 C 0.93445 0.17758 0.5449 0.0
C1493 C 0.92131 0.18964 0.54375 0.0
C1494 C 0.91697 0.15716 0.52965 0.0
C1495 C 0.90612 0.18483 0.53564 0.0
C1496 C 0.90147 0.13819 0.50919 0.0
C1497 C 0.92092 0.11076 0.51983 0.0
N1498 N 0.90443 0.16906 0.52883 0.0
N1499 N 0.92356 0.12656 0.52647 0.0
H1500 H 0.20589 0.93022 0.51096 0.0
H1501 H 0.13769 0.86281 0.54578 0.0
H1502 H 0.17723 0.89655 0.47856 0.0
H1503 H 0.16775 0.89501 0.57836 0.0
H1504 H 0.1538 0.87319 0.52109 0.0
H1505 H 0.19389 0.91587 0.53601 0.0
C1506 C 0.19739 0.9195 0.50918 0.0
C1507 C 0.19287 0.9142 0.49279 0.0
C1508 C 0.15709 0.8778 0.53366 0.0
C1509 C 0.17856 0.89817 0.5212 0.0
C1510 C 0.14806 0.87169 0.54773 0.0
C1511 C 0.15183 0.87768 0.56407 0.0
C1512 C 0.16976 0.89026 0.53598 0.0
C1513 C 0.16469 0.8899 0.56593 0.0
C1514 C 0.1904 0.91143 0.52344 0.0
C1515 C 0.1812 0.90082 0.49106 0.0
N1516 N 0.17319 0.89582 0.55205 0.0
N1517 N 0.17442 0.89327 0.50508 0.0
H1518 H 0.12832 0.1038 0.53072 0.0
H1519 H 0.16772 0.19436 0.50952 0.0
H1520 H 0.16918 0.12629 0.55962 0.0
H1521 H 0.11427 0.18457 0.5013 0.0
H1522 H 0.1705 0.16656 0.52289 0.0
H1523 H 0.12446 0.13101 0.51572 0.0
C1524 C 0.13656 0.11441 0.53382 0.0
C1525 C 0.14955 0.1126 0.54598 0.0
C1526 C 0.15818 0.17047 0.5181 0.0
C1527 C 0.14527 0.14352 0.52885 0.0
C1528 C 0.15656 0.18631 0.51034 0.0
C1529 C 0.14068 0.1919 0.50436 0.0
C1530 C 0.14388 0.15994 0.51973 0.0
C1531 C 0.12673 0.1808 0.5058 0.0
C1532 C 0.13434 0.12987 0.52527 0.0
C1533 C 0.15965 0.12681 0.54973 0.0
N1534 N 0.12865 0.16529 0.51336 0.0
N1535 N 0.15743 0.14161 0.54106 0.0
H1536 H 0.12454 0.48435 0.30285 0.0
H1537 H 0.1342 0.5157 0.2083 0.0
H1538 H 0.11636 0.45194 0.25927 0.0
H1539 H 0.15385 0.54397 0.2511 0.0
H1540 H 0.13181 0.49059 0.22646 0.0
H1541 H 0.13948 0.50463 0.28445 0.0
C1542 C 0.12627 0.4813 0.28951 0.0
C1543 C 0.11885 0.46668 0.28247 0.0
C1544 C 0.13689 0.50221 0.23185 0.0
C1545 C 0.13561 0.48986 0.26133 0.0
C1546 C 0.13829 0.51656 0.22144 0.0
C1547 C 0.14367 0.53211 0.22834 0.0
C1548 C 0.14072 0.5035 0.24931 0.0
C1549 C 0.14902 0.5324 0.24541 0.0
C1550 C 0.13473 0.4929 0.27898 0.0
C1551 C 0.12151 0.46331 0.26512 0.0
N1552 N 0.14706 0.51843 0.25542 0.0
N1553 N 0.12937 0.47496 0.25508 0.0
H1554 H 0.55343 0.11713 0.20602 0.0
H1555 H 0.59264 0.12557 0.29721 0.0
H1556 H 0.52413 0.13318 0.24964 0.0
H1557 H 0.62222 0.11859 0.25149 0.0
H1558 H 0.56847 0.13468 0.27972 0.0
H1559 H 0.57943 0.1238 0.22146 0.0
C1560 C 0.55243 0.12223 0.2188 0.0
C1561 C 0.53659 0.12386 0.22683 0.0
C1562 C 0.58041 0.13165 0.27353 0.0
C1563 C 0.56636 0.13133 0.24473 0.0
C1564 C 0.59423 0.12658 0.28354 0.0
C1565 C 0.60926 0.12104 0.2757 0.0
C1566 C 0.58173 0.131 0.25566 0.0
C1567 C 0.61069 0.12249 0.25796 0.0
C1568 C 0.56732 0.12607 0.22764 0.0
C1569 C 0.53609 0.13095 0.24324 0.0
N1570 N 0.59698 0.12699 0.24851 0.0
N1571 N 0.55078 0.13404 0.25183 0.0
H1572 H 0.95767 0.63118 0.26724 0.0
H1573 H 0.91692 0.53867 0.25974 0.0
H1574 H 0.95255 0.59658 0.3096 0.0
H1575 H 0.93545 0.56807 0.21717 0.0
H1576 H 0.92175 0.5631 0.27839 0.0
H1577 H 0.94126 0.61164 0.24955 0.0
C1578 C 0.95279 0.6196 0.27292 0.0
C1579 C 0.95677 0.6153 0.28981 0.0
C1580 C 0.92448 0.56429 0.26492 0.0
C1581 C 0.93805 0.59284 0.26958 0.0
C1582 C 0.92177 0.55035 0.25425 0.0
C1583 C 0.9263 0.55117 0.23696 0.0
C1584 C 0.93162 0.57921 0.25822 0.0
C1585 C 0.932 0.56679 0.23046 0.0
C1586 C 0.94345 0.60844 0.26279 0.0
C1587 C 0.94987 0.6003 0.2966 0.0
N1588 N 0.93476 0.58012 0.24115 0.0
N1589 N 0.94108 0.58943 0.28636 0.0
H1590 H 0.51988 0.90426 0.2897 0.0
H1591 H 0.49972 0.96465 0.36691 0.0
H1592 H 0.55799 0.92124 0.3254 0.0
H1593 H 0.46229 0.94447 0.33223 0.0
H1594 H 0.52009 0.94327 0.35675 0.0
H1595 H 0.49785 0.91252 0.3098 0.0
C1596 C 0.52366 0.90953 0.30187 0.0
C1597 C 0.5408 0.91287 0.3055 0.0
C1598 C 0.50727 0.94323 0.35169 0.0
C1599 C 0.51558 0.92268 0.32851 0.0
C1600 C 0.49564 0.95537 0.35756 0.0
C1601 C 0.47949 0.95648 0.35009 0.0
C1602 C 0.50261 0.93227 0.3383 0.0
C1603 C 0.47478 0.94422 0.33803 0.0
C1604 C 0.51104 0.91428 0.31338 0.0
C1605 C 0.54491 0.91927 0.32168 0.0
N1606 N 0.48638 0.93281 0.3323 0.0
N1607 N 0.53237 0.92441 0.33244 0.0
H1608 H 0.14688 0.52968 0.81475 0.0
H1609 H 0.11103 0.62336 0.80181 0.0
H1610 H 0.12975 0.56267 0.85522 0.0
H1611 H 0.11599 0.58672 0.76122 0.0
H1612 H 0.12679 0.60437 0.82063 0.0
H1613 H 0.14427 0.55335 0.79471 0.0
C1614 C 0.14276 0.54195 0.81948 0.0
C1615 C 0.13788 0.54405 0.83656 0.0
C1616 C 0.12474 0.60059 0.80752 0.0
C1617 C 0.1352 0.5712 0.81377 0.0
C1618 C 0.11577 0.61143 0.79676 0.0
C1619 C 0.11191 0.6064 0.78007 0.0
C1620 C 0.12975 0.58452 0.80159 0.0
C1621 C 0.11859 0.59098 0.77406 0.0
C1622 C 0.14136 0.55546 0.80803 0.0
C1623 C 0.1333 0.56038 0.8421 0.0
N1624 N 0.12691 0.58038 0.78495 0.0
N1625 N 0.1318 0.57327 0.83067 0.0
H1626 H 0.46278 0.11285 0.76659 0.0
H1627 H 0.50165 0.11248 0.85769 0.0
H1628 H 0.4328 0.10519 0.81194 0.0
H1629 H 0.52727 0.1366 0.81548 0.0
H1630 H 0.47505 0.11381 0.84181 0.0
H1631 H 0.48513 0.12589 0.78407 0.0
C1632 C 0.46063 0.11452 0.78012 0.0
C1633 C 0.44612 0.10772 0.78793 0.0
C1634 C 0.48644 0.11906 0.83608 0.0
C1635 C 0.47163 0.12211 0.80797 0.0
C1636 C 0.50166 0.11828 0.84518 0.0
C1637 C 0.51685 0.1238 0.83764 0.0
C1638 C 0.48647 0.12513 0.81922 0.0
C1639 C 0.516 0.13148 0.82149 0.0
C1640 C 0.47343 0.12184 0.79013 0.0
C1641 C 0.44398 0.11005 0.80551 0.0
N1642 N 0.50116 0.13154 0.81262 0.0
N1643 N 0.45676 0.1167 0.815 0.0
H1644 H 0.92507 0.51262 0.85303 0.0
H1645 H 0.94291 0.47725 0.76159 0.0
H1646 H 0.9113 0.54017 0.80752 0.0
H1647 H 0.9441 0.44616 0.80685 0.0
H1648 H 0.92667 0.49878 0.77729 0.0
H1649 H 0.92735 0.48664 0.83617 0.0
C1650 C 0.92226 0.51317 0.83954 0.0
C1651 C 0.91864 0.52871 0.83156 0.0
C1652 C 0.9301 0.48704 0.78367 0.0
C1653 C 0.92148 0.49909 0.8121 0.0
C1654 C 0.93928 0.47472 0.77466 0.0
C1655 C 0.94513 0.46013 0.78308 0.0
C1656 C 0.92696 0.4847 0.80117 0.0
C1657 C 0.94012 0.45745 0.80002 0.0
C1658 C 0.92357 0.49831 0.82988 0.0
C1659 C 0.91483 0.52859 0.81408 0.0
N1660 N 0.93163 0.46978 0.80861 0.0
N1661 N 0.91674 0.51409 0.80484 0.0
H1662 H 0.51921 0.91866 0.74705 0.0
H1663 H 0.61446 0.94931 0.73678 0.0
H1664 H 0.55998 0.90812 0.78231 0.0
H1665 H 0.57361 0.96583 0.70408 0.0
H1666 H 0.59622 0.92685 0.74794 0.0
H1667 H 0.54013 0.92874 0.72633 0.0
C1668 C 0.53254 0.91831 0.7504 0.0
C1669 C 0.53779 0.91332 0.76675 0.0
C1670 C 0.59129 0.93512 0.73807 0.0
C1671 C 0.56177 0.92442 0.74298 0.0
C1672 C 0.60173 0.9479 0.73166 0.0
C1673 C 0.59537 0.95953 0.71974 0.0
C1674 C 0.57424 0.93425 0.73282 0.0
C1675 C 0.5789 0.95712 0.71336 0.0
C1676 C 0.54449 0.92394 0.7385 0.0
C1677 C 0.55529 0.91234 0.77005 0.0
N1678 N 0.5687 0.94496 0.72031 0.0
N1679 N 0.56663 0.91815 0.7584 0.0
H1680 H 0.26323 0.10624 0.44172 0.0
H1681 H 0.23509 0.14053 0.53265 0.0
H1682 H 0.29833 0.12088 0.48131 0.0
H1683 H 0.20165 0.11519 0.49722 0.0
H1684 H 0.25707 0.14166 0.51068 0.0
H1685 H 0.23983 0.11787 0.4585 0.0
C1686 C 0.26605 0.11223 0.45382 0.0
C1687 C 0.28267 0.11225 0.46034 0.0
C1688 C 0.24482 0.13613 0.50762 0.0
C1689 C 0.25593 0.12547 0.47965 0.0
C1690 C 0.23227 0.13544 0.52015 0.0
C1691 C 0.21671 0.12727 0.51689 0.0
C1692 C 0.24177 0.12862 0.49171 0.0
C1693 C 0.21356 0.12137 0.50035 0.0
C1694 C 0.25268 0.11884 0.46339 0.0
C1695 C 0.28567 0.12046 0.4759 0.0
N1696 N 0.22612 0.12188 0.48844 0.0
N1697 N 0.27235 0.12646 0.48521 0.0
H1698 H 0.9124 0.26079 0.50414 0.0
H1699 H 0.9544 0.34836 0.48029 0.0
H1700 H 0.92553 0.29901 0.54134 0.0
H1701 H 0.93781 0.31071 0.44399 0.0
H1702 H 0.9373 0.33423 0.50227 0.0
H1703 H 0.91465 0.28215 0.48185 0.0
C1704 C 0.91559 0.27373 0.50768 0.0
C1705 C 0.91953 0.27791 0.52459 0.0
C1706 C 0.93697 0.32936 0.48937 0.0
C1707 C 0.92241 0.30247 0.49902 0.0
C1708 C 0.94661 0.33752 0.47681 0.0
C1709 C 0.94765 0.33047 0.46045 0.0
C1710 C 0.92847 0.3141 0.48542 0.0
C1711 C 0.93749 0.31636 0.45657 0.0
C1712 C 0.91686 0.28597 0.49492 0.0
C1713 C 0.92311 0.295 0.52844 0.0
N1714 N 0.92857 0.30844 0.46904 0.0
N1715 N 0.9249 0.30659 0.51569 0.0
H1716 H 0.75643 0.91755 0.54306 0.0
H1717 H 0.76373 0.93858 0.44487 0.0
H1718 H 0.79938 0.90528 0.51108 0.0
H1719 H 0.72256 0.956 0.47672 0.0
H1720 H 0.77233 0.91883 0.46719 0.0
H1721 H 0.73986 0.92432 0.51761 0.0
C1722 C 0.76234 0.91612 0.53072 0.0
C1723 C 0.77957 0.91162 0.52923 0.0
C1724 C 0.7612 0.92669 0.46923 0.0
C1725 C 0.76059 0.91896 0.5001 0.0
C1726 C 0.75627 0.93793 0.45647 0.0
C1727 C 0.74263 0.94909 0.45915 0.0
C1728 C 0.75267 0.92691 0.48494 0.0
C1729 C 0.73324 0.94765 0.47426 0.0
C1730 C 0.75282 0.91987 0.51617 0.0
C1731 C 0.78629 0.90918 0.51287 0.0
N1732 N 0.73869 0.93704 0.48681 0.0
N1733 N 0.77689 0.91319 0.49896 0.0
H1734 H 0.12078 0.78918 0.44772 0.0
H1735 H 0.16401 0.78504 0.53905 0.0
H1736 H 0.12193 0.74405 0.479 0.0
H1737 H 0.15125 0.83139 0.51244 0.0
H1738 H 0.157 0.76875 0.51348 0.0
H1739 H 0.14033 0.80308 0.4674 0.0
C1740 C 0.12545 0.78207 0.45858 0.0
C1741 C 0.11948 0.76558 0.46197 0.0
C1742 C 0.15604 0.7825 0.51315 0.0
C1743 C 0.14169 0.78149 0.48464 0.0
C1744 C 0.15998 0.79182 0.52775 0.0
C1745 C 0.15761 0.80954 0.52804 0.0
C1746 C 0.14982 0.79101 0.49874 0.0
C1747 C 0.15297 0.81772 0.51287 0.0
C1748 C 0.13659 0.79003 0.46981 0.0
C1749 C 0.12613 0.75683 0.47603 0.0
N1750 N 0.14892 0.80834 0.49891 0.0
N1751 N 0.13666 0.76504 0.48708 0.0
H1752 H 0.26439 0.94632 0.61834 0.0
H1753 H 0.28183 0.90503 0.52757 0.0
H1754 H 0.31354 0.94538 0.59388 0.0
H1755 H 0.23186 0.91528 0.5479 0.0
H1756 H 0.29422 0.91209 0.5552 0.0
H1757 H 0.25331 0.92751 0.59626 0.0
C1758 C 0.27293 0.94195 0.60843 0.0
C1759 C 0.2898 0.94776 0.60767 0.0
C1760 C 0.28052 0.9125 0.55371 0.0
C1761 C 0.27718 0.92623 0.58236 0.0
C1762 C 0.27343 0.90849 0.53795 0.0
C1763 C 0.25584 0.91006 0.53533 0.0
C1764 C 0.26992 0.91812 0.56695 0.0
C1765 C 0.24551 0.91412 0.54931 0.0
C1766 C 0.26659 0.93118 0.59585 0.0
C1767 C 0.3004 0.94136 0.59482 0.0
N1768 N 0.25275 0.91832 0.56446 0.0
N1769 N 0.29383 0.93115 0.58247 0.0
H1770 H 0.10876 0.34167 0.58447 0.0
H1771 H 0.15134 0.25763 0.54959 0.0
H1772 H 0.12129 0.29756 0.61465 0.0
H1773 H 0.1365 0.29978 0.51761 0.0
H1774 H 0.14861 0.27591 0.57442 0.0
H1775 H 0.12644 0.33043 0.56129 0.0
C1776 C 0.11571 0.32992 0.58642 0.0
C1777 C 0.1134 0.32033 0.60129 0.0
C1778 C 0.14613 0.28126 0.56195 0.0
C1779 C 0.13335 0.30736 0.57496 0.0
C1780 C 0.14769 0.27081 0.54773 0.0
C1781 C 0.14335 0.27695 0.53152 0.0
C1782 C 0.13992 0.29792 0.56001 0.0
C1783 C 0.13922 0.29426 0.52989 0.0
C1784 C 0.1257 0.32346 0.57317 0.0
C1785 C 0.12257 0.30517 0.60321 0.0
N1786 N 0.13718 0.30406 0.54402 0.0
N1787 N 0.13193 0.29902 0.59009 0.0
H1788 H 0.86041 0.11998 0.55593 0.0
H1789 H 0.76352 0.12149 0.57832 0.0
H1790 H 0.82207 0.13648 0.52023 0.0
H1791 H 0.80335 0.11592 0.61566 0.0
H1792 H 0.78448 0.13279 0.55815 0.0
H1793 H 0.84022 0.12424 0.57909 0.0
C1794 C 0.84782 0.12474 0.55297 0.0
C1795 C 0.84268 0.12716 0.53605 0.0
C1796 C 0.78856 0.12955 0.57092 0.0
C1797 C 0.81937 0.13182 0.56248 0.0
C1798 C 0.77656 0.1232 0.58245 0.0
C1799 C 0.78184 0.11745 0.59849 0.0
C1800 C 0.80587 0.12996 0.57553 0.0
C1801 C 0.79886 0.1199 0.60324 0.0
C1802 C 0.83625 0.12718 0.56622 0.0
C1803 C 0.82632 0.13368 0.53302 0.0
N1804 N 0.81034 0.12563 0.5917 0.0
N1805 N 0.81509 0.13538 0.54606 0.0
H1806 H 0.96326 0.79289 0.63442 0.0
H1807 H 0.92792 0.80789 0.54102 0.0
H1808 H 0.95572 0.75272 0.59778 0.0
H1809 H 0.94651 0.84733 0.57445 0.0
H1810 H 0.92922 0.78766 0.56463 0.0
H1811 H 0.94792 0.81246 0.61584 0.0
C1812 C 0.95799 0.7881 0.62261 0.0
C1813 C 0.96102 0.77129 0.61742 0.0
C1814 C 0.93274 0.80081 0.56685 0.0
C1815 C 0.94378 0.79367 0.59596 0.0
C1816 C 0.9321 0.81236 0.55337 0.0
C1817 C 0.93778 0.82916 0.55562 0.0
C1818 C 0.93896 0.80617 0.5827 0.0
C1819 C 0.94238 0.8344 0.57204 0.0
C1820 C 0.94928 0.79929 0.61199 0.0
C1821 C 0.95375 0.76564 0.60215 0.0
N1822 N 0.94316 0.82286 0.5849 0.0
N1823 N 0.94575 0.77694 0.59173 0.0
H1824 H 0.4853 0.33534 0.10558 0.0
H1825 H 0.51687 0.25809 0.163 0.0
H1826 H 0.453 0.29743 0.12853 0.0
H1827 H 0.54956 0.28588 0.1287 0.0
H1828 H 0.49458 0.27917 0.15839 0.0
H1829 H 0.50957 0.32393 0.1217 0.0
C1830 C 0.4832 0.32513 0.11461 0.0
C1831 C 0.46721 0.31729 0.11586 0.0
C1832 C 0.50674 0.28086 0.15211 0.0
C1833 C 0.49474 0.30409 0.13399 0.0
C1834 C 0.51948 0.26883 0.15474 0.0
C1835 C 0.53496 0.27005 0.14592 0.0
C1836 C 0.50939 0.29411 0.14042 0.0
C1837 C 0.53775 0.28437 0.13561 0.0
C1838 C 0.49705 0.3185 0.12363 0.0
C1839 C 0.46516 0.30381 0.12732 0.0
N1840 N 0.52493 0.2957 0.13285 0.0
N1841 N 0.4788 0.29752 0.13582 0.0
H1842 H 0.48376 0.76103 0.94722 0.0
H1843 H 0.51639 0.85385 0.93066 0.0
H1844 H 0.45127 0.8053 0.9472 0.0
H1845 H 0.54686 0.80936 0.92015 0.0
H1846 H 0.4911 0.83593 0.93131 0.0
H1847 H 0.50552 0.77749 0.9321 0.0
C1848 C 0.48102 0.77405 0.94358 0.0
C1849 C 0.46591 0.78197 0.94878 0.0
C1850 C 0.50328 0.83007 0.92863 0.0
C1851 C 0.49072 0.80091 0.93183 0.0
C1852 C 0.51775 0.84033 0.92824 0.0
C1853 C 0.53386 0.83298 0.92608 0.0
C1854 C 0.50498 0.81232 0.92707 0.0
C1855 C 0.53479 0.81546 0.92265 0.0
C1856 C 0.49346 0.78348 0.93502 0.0
C1857 C 0.46296 0.79885 0.94375 0.0
N1858 N 0.52059 0.80563 0.92366 0.0
N1859 N 0.47538 0.80785 0.93585 0.0
H1860 H 0.30202 0.46679 0.91977 0.0
H1861 H 0.30106 0.56698 0.92491 0.0
H1862 H 0.34118 0.49634 0.94427 0.0
H1863 H 0.26062 0.53571 0.90484 0.0
H1864 H 0.32003 0.54236 0.9241 0.0
H1865 H 0.29164 0.49249 0.90582 0.0
C1866 C 0.30874 0.47867 0.92177 0.0
C1867 C 0.32229 0.47958 0.93329 0.0
C1868 C 0.30709 0.541 0.91958 0.0
C1869 C 0.31011 0.50915 0.918 0.0
C1870 C 0.29618 0.55504 0.92016 0.0
C1871 C 0.27898 0.55322 0.91574 0.0
C1872 C 0.30072 0.52511 0.9144 0.0
C1873 C 0.27364 0.5376 0.90892 0.0
C1874 C 0.30277 0.49337 0.91389 0.0
C1875 C 0.33064 0.49519 0.93546 0.0
N1876 N 0.28438 0.52408 0.90876 0.0
N1877 N 0.32412 0.50952 0.92824 0.0
H1878 H 0.56644 0.19079 0.94957 0.0
H1879 H 0.60131 0.28085 0.92165 0.0
H1880 H 0.54414 0.22319 0.91127 0.0
H1881 H 0.62078 0.25256 0.96438 0.0
H1882 H 0.58705 0.25522 0.91142 0.0
H1883 H 0.59216 0.20847 0.94905 0.0
C1884 C 0.56719 0.20128 0.94064 0.0
C1885 C 0.55308 0.20576 0.93065 0.0
C1886 C 0.59485 0.25439 0.92276 0.0
C1887 C 0.58227 0.22605 0.9301 0.0
C1888 C 0.60315 0.26899 0.92846 0.0
C1889 C 0.61224 0.26869 0.94377 0.0
C1890 C 0.59521 0.23956 0.93277 0.0
C1891 C 0.614 0.25316 0.95238 0.0
C1892 C 0.58182 0.21143 0.94043 0.0
C1893 C 0.55466 0.21949 0.91938 0.0
N1894 N 0.60518 0.23926 0.94699 0.0
N1895 N 0.56887 0.22929 0.91959 0.0
H1896 H 0.79045 0.53956 0.90907 0.0
H1897 H 0.70661 0.56763 0.95633 0.0
H1898 H 0.75605 0.50448 0.93362 0.0
H1899 H 0.74306 0.60173 0.93356 0.0
H1900 H 0.71955 0.54389 0.94072 0.0
H1901 H 0.76848 0.56134 0.91008 0.0
C1902 C 0.77819 0.53633 0.9145 0.0
C1903 C 0.77537 0.52036 0.92198 0.0
C1904 C 0.72438 0.55665 0.93872 0.0
C1905 C 0.75019 0.54539 0.92343 0.0
C1906 C 0.7169 0.5702 0.94751 0.0
C1907 C 0.72399 0.58653 0.94634 0.0
C1908 C 0.73899 0.55959 0.92878 0.0
C1909 C 0.73741 0.58923 0.93493 0.0
C1910 C 0.76562 0.5488 0.91506 0.0
C1911 C 0.75907 0.51678 0.92835 0.0
N1912 N 0.74466 0.57585 0.9268 0.0
N1913 N 0.74721 0.52935 0.92934 0.0
H1914 H 0.58432 0.75453 0.123 0.0
H1915 H 0.55796 0.84857 0.14311 0.0
H1916 H 0.61963 0.79654 0.12399 0.0
H1917 H 0.52495 0.80577 0.15289 0.0
H1918 H 0.58207 0.82914 0.14147 0.0
H1919 H 0.56392 0.77181 0.13907 0.0
C1920 C 0.58796 0.7672 0.12704 0.0
C1921 C 0.60348 0.7743 0.12184 0.0
C1922 C 0.5696 0.82397 0.14423 0.0
C1923 C 0.58023 0.79418 0.13988 0.0
C1924 C 0.55581 0.83511 0.14518 0.0
C1925 C 0.53931 0.8287 0.14743 0.0
C1926 C 0.56682 0.80631 0.14529 0.0
C1927 C 0.53735 0.81117 0.15037 0.0
C1928 C 0.5763 0.7771 0.13614 0.0
C1929 C 0.60761 0.79075 0.12741 0.0
N1930 N 0.55087 0.80052 0.1488 0.0
N1931 N 0.59592 0.80026 0.13583 0.0
H1932 H 0.27157 0.54115 0.15295 0.0
H1933 H 0.35272 0.57632 0.10527 0.0
H1934 H 0.30546 0.51002 0.12297 0.0
H1935 H 0.31513 0.60702 0.13088 0.0
H1936 H 0.34108 0.55096 0.11929 0.0
H1937 H 0.29278 0.56372 0.15294 0.0
C1938 C 0.28359 0.53893 0.14656 0.0
C1939 C 0.28646 0.52388 0.13738 0.0
C1940 C 0.33571 0.56332 0.12224 0.0
C1941 C 0.31073 0.54983 0.13708 0.0
C1942 C 0.34244 0.57779 0.11435 0.0
C1943 C 0.33465 0.59366 0.11678 0.0
C1944 C 0.32117 0.56487 0.13256 0.0
C1945 C 0.32131 0.59492 0.12852 0.0
C1946 C 0.29572 0.55185 0.14657 0.0
C1947 C 0.30245 0.52156 0.12976 0.0
N1948 N 0.3148 0.58067 0.13577 0.0
N1949 N 0.31384 0.53459 0.1294 0.0
H1950 H 0.79145 0.52006 0.15873 0.0
H1951 H 0.7145 0.4765 0.11098 0.0
H1952 H 0.75314 0.54766 0.1307 0.0
H1953 H 0.75622 0.44991 0.13468 0.0
H1954 H 0.72314 0.50259 0.12577 0.0
H1955 H 0.77343 0.49486 0.15796 0.0
C1956 C 0.77911 0.52092 0.15262 0.0
C1957 C 0.77407 0.53586 0.14425 0.0
C1958 C 0.73008 0.49092 0.12815 0.0
C1959 C 0.75346 0.50693 0.14308 0.0
C1960 C 0.72506 0.47601 0.11983 0.0
C1961 C 0.73485 0.46118 0.1215 0.0
C1962 C 0.74493 0.49085 0.13814 0.0
C1963 C 0.7485 0.4612 0.13294 0.0
C1964 C 0.76881 0.50651 0.1522 0.0
C1965 C 0.75778 0.53635 0.13693 0.0
N1966 N 0.75331 0.47589 0.14061 0.0
N1967 N 0.74821 0.52195 0.13614 0.0
H1968 H 0.94297 0.61628 0.79265 0.0
H1969 H 0.03261 0.64979 0.81696 0.0
H1970 H 0.96128 0.62263 0.84405 0.0
H1971 H 0.01508 0.64164 0.76555 0.0
H1972 H 0.00315 0.65087 0.8266 0.0
H1973 H 0.96459 0.6362 0.78274 0.0
C1974 C 0.95121 0.62227 0.80194 0.0
C1975 C 0.95078 0.61726 0.81911 0.0
C1976 C 0.00569 0.6493 0.81313 0.0
C1977 C 0.97579 0.63977 0.8078 0.0
C1978 C 0.02253 0.64868 0.80761 0.0
C1979 C 0.02627 0.64499 0.79053 0.0
C1980 C 0.99254 0.64582 0.80153 0.0
C1981 C 0.01276 0.64412 0.77891 0.0
C1982 C 0.9636 0.63364 0.79626 0.0
C1983 C 0.96144 0.62577 0.83063 0.0
N1984 N 0.99646 0.64401 0.78471 0.0
N1985 N 0.97388 0.63622 0.82469 0.0
H1986 H 0.40898 0.0118 0.77257 0.0
H1987 H 0.45759 0.94407 0.82585 0.0
H1988 H 0.4278 0.0192 0.8237 0.0
H1989 H 0.44109 0.93746 0.77388 0.0
H1990 H 0.43648 0.96658 0.82934 0.0
H1991 H 0.41035 0.98108 0.77693 0.0
C1992 C 0.41301 0.007 0.78486 0.0
C1993 C 0.41898 0.01809 0.79754 0.0
C1994 C 0.43709 0.95985 0.81732 0.0
C1995 C 0.42077 0.98295 0.80252 0.0
C1996 C 0.44908 0.94687 0.81536 0.0
C1997 C 0.45156 0.93942 0.79932 0.0
C1998 C 0.42776 0.96542 0.80308 0.0
C1999 C 0.43999 0.94337 0.78629 0.0
C2000 C 0.41378 0.98942 0.78736 0.0
C2001 C 0.42366 0.01112 0.81334 0.0
N2002 N 0.42892 0.95647 0.78828 0.0
N2003 N 0.42488 0.99399 0.81523 0.0
H2004 H 0.11425 0.45211 0.80856 0.0
H2005 H 0.02203 0.42602 0.83242 0.0
H2006 H 0.09357 0.45336 0.85946 0.0
H2007 H 0.04264 0.42497 0.78148 0.0
H2008 H 0.05086 0.42569 0.84381 0.0
H2009 H 0.09214 0.43198 0.80036 0.0
C2010 C 0.10537 0.44774 0.81817 0.0
C2011 C 0.10532 0.45495 0.83453 0.0
C2012 C 0.04912 0.4251 0.83014 0.0
C2013 C 0.07974 0.43225 0.82512 0.0
C2014 C 0.03263 0.42532 0.82362 0.0
C2015 C 0.02995 0.42614 0.80597 0.0
C2016 C 0.06301 0.42609 0.81893 0.0
C2017 C 0.04412 0.42473 0.79519 0.0
C2018 C 0.0927 0.43625 0.81346 0.0
C2019 C 0.09382 0.44848 0.84657 0.0
N2020 N 0.06007 0.42527 0.80183 0.0
N2021 N 0.08114 0.43789 0.84147 0.0
H2022 H 0.63444 0.019 0.78827 0.0
H2023 H 0.60527 0.11292 0.7925 0.0
H2024 H 0.63315 0.05298 0.74507 0.0
H2025 H 0.61053 0.08026 0.83637 0.0
H2026 H 0.62481 0.09461 0.77686 0.0
H2027 H 0.63523 0.04356 0.80719 0.0
C2028 C 0.63475 0.03163 0.78273 0.0
C2029 C 0.63308 0.03394 0.76508 0.0
C2030 C 0.6221 0.09167 0.79006 0.0
C2031 C 0.63365 0.06214 0.7867 0.0
C2032 C 0.61095 0.10217 0.79902 0.0
C2033 C 0.60577 0.09774 0.81554 0.0
C2034 C 0.62776 0.07644 0.79757 0.0
C2035 C 0.61385 0.08393 0.8235 0.0
C2036 C 0.63522 0.04569 0.79356 0.0
C2037 C 0.63399 0.05058 0.75862 0.0
N2038 N 0.62403 0.07345 0.81425 0.0
N2039 N 0.63372 0.06406 0.76945 0.0
H2040 H 0.03828 0.42372 0.24602 0.0
H2041 H 0.95043 0.46279 0.2716 0.0
H2042 H 0.02193 0.43334 0.29759 0.0
H2043 H 0.96908 0.45818 0.22011 0.0
H2044 H 0.97138 0.44183 0.2808 0.0
H2045 H 0.00878 0.42553 0.2366 0.0
C2046 C 0.02841 0.42569 0.25546 0.0
C2047 C 0.03262 0.42898 0.27253 0.0
C2048 C 0.97061 0.44504 0.26741 0.0
C2049 C 0.99888 0.43143 0.26176 0.0
C2050 C 0.95863 0.45701 0.26212 0.0
C2051 C 0.95841 0.46268 0.24515 0.0
C2052 C 0.98262 0.43889 0.25569 0.0
C2053 C 0.96903 0.45445 0.23338 0.0
C2054 C 0.01155 0.42677 0.25005 0.0
C2055 C 0.0193 0.43107 0.28425 0.0
N2056 N 0.98104 0.44331 0.23896 0.0
N2057 N 0.00305 0.43276 0.27856 0.0
H2058 H 0.65544 0.03046 0.29882 0.0
H2059 H 0.61622 0.9552 0.24716 0.0
H2060 H 0.63951 0.03345 0.24628 0.0
H2061 H 0.63162 0.95236 0.29981 0.0
H2062 H 0.63427 0.98026 0.24358 0.0
H2063 H 0.65638 0.9995 0.29638 0.0
C2064 C 0.65257 0.02466 0.28664 0.0
C2065 C 0.64678 0.03454 0.27292 0.0
C2066 C 0.63411 0.97387 0.2558 0.0
C2067 C 0.64756 0.99909 0.27012 0.0
C2068 C 0.62389 0.95944 0.2578 0.0
C2069 C 0.62197 0.95209 0.27396 0.0
C2070 C 0.64225 0.98096 0.2701 0.0
C2071 C 0.63234 0.95802 0.28725 0.0
C2072 C 0.65308 0.00694 0.28525 0.0
C2073 C 0.64351 0.02631 0.25737 0.0
N2074 N 0.64168 0.9724 0.28516 0.0
N2075 N 0.64354 0.00905 0.25652 0.0
H2076 H 0.10374 0.62741 0.21583 0.0
H2077 H 0.05515 0.64855 0.29944 0.0
H2078 H 0.12427 0.62084 0.26638 0.0
H2079 H 0.03517 0.65581 0.24877 0.0
H2080 H 0.08392 0.64847 0.28765 0.0
H2081 H 0.08319 0.6477 0.22723 0.0
C2082 C 0.10434 0.63065 0.22922 0.0
C2083 C 0.11527 0.62188 0.24029 0.0
C2084 C 0.07328 0.65056 0.27914 0.0
C2085 C 0.0915 0.64473 0.25349 0.0
C2086 C 0.05682 0.65069 0.28591 0.0
C2087 C 0.04274 0.65155 0.27498 0.0
C2088 C 0.07555 0.65112 0.26136 0.0
C2089 C 0.04568 0.65452 0.25759 0.0
C2090 C 0.09249 0.64219 0.23578 0.0
C2091 C 0.11563 0.62685 0.25748 0.0
N2092 N 0.06173 0.65376 0.25126 0.0
N2093 N 0.10356 0.63756 0.26365 0.0
H2094 H 0.43347 0.00621 0.27915 0.0
H2095 H 0.44679 0.1033 0.26611 0.0
H2096 H 0.43145 0.04389 0.31911 0.0
H2097 H 0.45057 0.06559 0.22636 0.0
H2098 H 0.42992 0.08346 0.28299 0.0
H2099 H 0.42868 0.02858 0.25818 0.0
C2100 C 0.43162 0.01915 0.28357 0.0
C2101 C 0.43351 0.02329 0.30086 0.0
C2102 C 0.43398 0.07967 0.27036 0.0
C2103 C 0.42828 0.049 0.27687 0.0
C2104 C 0.44355 0.09104 0.26067 0.0
C2105 C 0.45063 0.08583 0.24511 0.0
C2106 C 0.4318 0.0629 0.26456 0.0
C2107 C 0.44571 0.06999 0.2385 0.0
C2108 C 0.42885 0.03194 0.27156 0.0
C2109 C 0.43052 0.04017 0.30587 0.0
N2110 N 0.43705 0.05885 0.24851 0.0
N2111 N 0.42852 0.05249 0.29387 0.0
H2112 H 0.7575 0.02583 0.64247 0.0
H2113 H 0.82091 0.95521 0.61453 0.0
H2114 H 0.8116 0.03296 0.63611 0.0
H2115 H 0.7669 0.94797 0.62102 0.0
H2116 H 0.81941 0.98023 0.6329 0.0
H2117 H 0.76222 0.99523 0.64509 0.0
C2118 C 0.77042 0.02104 0.64206 0.0
C2119 C 0.7841 0.03191 0.63837 0.0
C2120 C 0.80795 0.97287 0.63076 0.0
C2121 C 0.78957 0.99688 0.64109 0.0
C2122 C 0.80885 0.95847 0.62035 0.0
C2123 C 0.79388 0.94993 0.61572 0.0
C2124 C 0.79197 0.97876 0.63631 0.0
C2125 C 0.77865 0.95459 0.62382 0.0
C2126 C 0.77312 0.00353 0.64355 0.0
C2127 C 0.80059 0.02499 0.63834 0.0
N2128 N 0.77798 0.969 0.63332 0.0
N2129 N 0.80282 0.00788 0.6392 0.0
H2130 H 0.04557 0.80514 0.6527 0.0
H2131 H 0.1315 0.77282 0.616 0.0
H2132 H 0.0589 0.75218 0.64676 0.0
H2133 H 0.11823 0.82575 0.62237 0.0
H2134 H 0.10973 0.76515 0.63673 0.0
H2135 H 0.07564 0.81258 0.65153 0.0
C2136 C 0.05487 0.79502 0.65158 0.0
C2137 C 0.0497 0.77807 0.6492 0.0
C2138 C 0.11186 0.77849 0.63397 0.0
C2139 C 0.08413 0.78654 0.64746 0.0
C2140 C 0.12433 0.78289 0.62212 0.0
C2141 C 0.12623 0.7999 0.61697 0.0
C2142 C 0.10104 0.79117 0.64042 0.0
C2143 C 0.11692 0.81243 0.62565 0.0
C2144 C 0.07207 0.79928 0.65091 0.0
C2145 C 0.06229 0.76545 0.64824 0.0
N2146 N 0.10436 0.80777 0.63659 0.0
N2147 N 0.07893 0.76999 0.64687 0.0
H2148 H 0.23394 0.01801 0.64785 0.0
H2149 H 0.24345 0.10913 0.609 0.0
H2150 H 0.28126 0.04531 0.64256 0.0
H2151 H 0.19787 0.07857 0.60731 0.0
H2152 H 0.25435 0.09114 0.63182 0.0
H2153 H 0.21845 0.04469 0.64438 0.0
C2154 C 0.2411 0.02973 0.64655 0.0
C2155 C 0.25889 0.02939 0.64488 0.0
C2156 C 0.24176 0.08863 0.6268 0.0
C2157 C 0.24123 0.05987 0.64052 0.0
C2158 C 0.23551 0.09891 0.61375 0.0
C2159 C 0.21997 0.09497 0.60583 0.0
C2160 C 0.23252 0.07417 0.63178 0.0
C2161 C 0.21006 0.08186 0.6128 0.0
C2162 C 0.23223 0.04496 0.6445 0.0
C2163 C 0.26752 0.04495 0.64358 0.0
N2164 N 0.21672 0.07162 0.62508 0.0
N2165 N 0.25858 0.05953 0.6409 0.0
H2166 H 0.97067 0.23106 0.60235 0.0
H2167 H 0.02085 0.30372 0.6472 0.0
H2168 H 0.94848 0.27768 0.62098 0.0
H2169 H 0.0432 0.2574 0.62777 0.0
H2170 H 0.99312 0.28978 0.64747 0.0
H2171 H 0.99482 0.23533 0.62143 0.0
C2172 C 0.97049 0.2418 0.61101 0.0
C2173 C 0.95789 0.25436 0.60968 0.0
C2174 C 0.00415 0.28252 0.64353 0.0
C2175 C 0.98567 0.25962 0.63109 0.0
C2176 C 0.02004 0.2905 0.64338 0.0
C2177 C 0.03428 0.28195 0.63682 0.0
C2178 C 0.0025 0.26598 0.63685 0.0
C2179 C 0.03246 0.2647 0.6324 0.0
C2180 C 0.98441 0.24435 0.62179 0.0
C2181 C 0.95825 0.26796 0.62127 0.0
N2182 N 0.0168 0.25743 0.63208 0.0
N2183 N 0.97219 0.27051 0.63113 0.0
H2184 H 0.81358 0.00623 0.4235 0.0
H2185 H 0.81614 0.10346 0.44328 0.0
H2186 H 0.77112 0.04057 0.41763 0.0
H2187 H 0.8579 0.06878 0.45147 0.0
H2188 H 0.80335 0.08302 0.42375 0.0
H2189 H 0.83286 0.03053 0.42343 0.0
C2190 C 0.80832 0.01887 0.42177 0.0
C2191 C 0.79064 0.02142 0.4212 0.0
C2192 C 0.81555 0.08004 0.42942 0.0
C2193 C 0.81266 0.04932 0.4214 0.0
C2194 C 0.82291 0.09175 0.44053 0.0
C2195 C 0.83781 0.08755 0.44945 0.0
C2196 C 0.82301 0.06391 0.42747 0.0
C2197 C 0.84622 0.0724 0.44514 0.0
C2198 C 0.81937 0.03276 0.42173 0.0
C2199 C 0.78462 0.03802 0.41852 0.0
N2200 N 0.83843 0.06088 0.43483 0.0
N2201 N 0.79558 0.05139 0.41919 0.0
H2202 H 0.95332 0.80311 0.46134 0.0
H2203 H 0.04512 0.81862 0.42847 0.0
H2204 H 0.97975 0.85123 0.46289 0.0
H2205 H 0.02014 0.76975 0.43045 0.0
H2206 H 0.01745 0.83256 0.42965 0.0
H2207 H 0.97265 0.79351 0.43904 0.0
C2208 C 0.96287 0.81188 0.4566 0.0
C2209 C 0.96541 0.82773 0.46448 0.0
C2210 C 0.01795 0.81878 0.42936 0.0
C2211 C 0.98778 0.81667 0.43926 0.0
C2212 C 0.03377 0.8108 0.4287 0.0
C2213 C 0.03493 0.79301 0.43003 0.0
C2214 C 0.00325 0.8089 0.43174 0.0
C2215 C 0.01983 0.78352 0.42981 0.0
C2216 C 0.97393 0.80636 0.44388 0.0
C2217 C 0.97763 0.83872 0.45751 0.0
N2218 N 0.0046 0.79159 0.43121 0.0
N2219 N 0.98873 0.83278 0.44566 0.0
H2220 H 0.24975 0.95035 0.43978 0.0
H2221 H 0.32011 0.01976 0.43021 0.0
H2222 H 0.30202 0.9444 0.45558 0.0
H2223 H 0.26737 0.02623 0.41635 0.0
H2224 H 0.3162 0.98892 0.4293 0.0
H2225 H 0.25841 0.97367 0.42116 0.0
C2226 C 0.26313 0.95356 0.43894 0.0
C2227 C 0.27507 0.94588 0.44978 0.0
C2228 C 0.30559 0.99708 0.42599 0.0
C2229 C 0.285 0.97279 0.4288 0.0
C2230 C 0.30785 0.01472 0.42644 0.0
C2231 C 0.29388 0.02556 0.42398 0.0
C2232 C 0.28923 0.99034 0.42322 0.0
C2233 C 0.27836 0.0183 0.41891 0.0
C2234 C 0.26807 0.96697 0.42835 0.0
C2235 C 0.29227 0.95039 0.44789 0.0
N2236 N 0.27633 0.00115 0.41912 0.0
N2237 N 0.29666 0.96387 0.438 0.0
H2238 H 0.11199 0.28595 0.43603 0.0
H2239 H 0.01516 0.26701 0.42863 0.0
H2240 H 0.08817 0.23924 0.45221 0.0
H2241 H 0.03932 0.31422 0.41412 0.0
H2242 H 0.0427 0.25282 0.42721 0.0
H2243 H 0.08765 0.29177 0.41768 0.0
C2244 C 0.10189 0.27659 0.4352 0.0
C2245 C 0.10181 0.26235 0.44599 0.0
C2246 C 0.04193 0.26619 0.42392 0.0
C2247 C 0.07364 0.26924 0.4256 0.0
C2248 C 0.02618 0.27434 0.42475 0.0
C2249 C 0.02501 0.29201 0.42214 0.0
C2250 C 0.05664 0.27581 0.42066 0.0
C2251 C 0.03966 0.30069 0.41672 0.0
C2252 C 0.08792 0.27996 0.42481 0.0
C2253 C 0.08858 0.25051 0.44428 0.0
N2254 N 0.05493 0.2926 0.41659 0.0
N2255 N 0.07472 0.25449 0.43472 0.0
H2256 H 0.6464 0.7696 0.02679 0.0
H2257 H 0.62418 0.851 0.97466 0.0
H2258 H 0.6453 0.82074 0.04688 0.0
H2259 H 0.62268 0.79969 0.95506 0.0
H2260 H 0.64294 0.84137 0.99744 0.0
H2261 H 0.6488 0.78131 0.99809 0.0
C2262 C 0.64716 0.78328 0.02524 0.0
C2263 C 0.64496 0.79422 0.03919 0.0
C2264 C 0.63891 0.83229 0.98788 0.0
C2265 C 0.64743 0.8077 0.00639 0.0
C2266 C 0.62826 0.83783 0.97477 0.0
C2267 C 0.62127 0.82598 0.96338 0.0
C2268 C 0.64238 0.8148 0.98963 0.0
C2269 C 0.62727 0.80915 0.96398 0.0
C2270 C 0.64849 0.78998 0.00881 0.0
C2271 C 0.64635 0.81183 0.03641 0.0
N2272 N 0.63708 0.80394 0.97721 0.0
N2273 N 0.64706 0.81803 0.0203 0.0
H2274 H 0.59042 0.21695 0.09222 0.0
H2275 H 0.62474 0.28503 0.02479 0.0
H2276 H 0.61494 0.26414 0.10615 0.0
H2277 H 0.58563 0.24825 0.0129 0.0
H2278 H 0.62635 0.27353 0.05358 0.0
H2279 H 0.59369 0.22452 0.06217 0.0
C2280 C 0.59679 0.22875 0.089 0.0
C2281 C 0.60224 0.24005 0.10178 0.0
C2282 C 0.61753 0.26788 0.04461 0.0
C2283 C 0.60613 0.24863 0.06738 0.0
C2284 C 0.61664 0.27438 0.02812 0.0
C2285 C 0.60492 0.26771 0.01637 0.0
C2286 C 0.60675 0.2545 0.04945 0.0
C2287 C 0.59479 0.25388 0.02152 0.0
C2288 C 0.59856 0.23307 0.07182 0.0
C2289 C 0.61039 0.25514 0.09675 0.0
N2290 N 0.59588 0.24778 0.03771 0.0
N2291 N 0.61201 0.25902 0.07997 0.0
H2292 H 0.74452 0.64546 0.02971 0.0
H2293 H 0.81778 0.60975 0.08642 0.0
H2294 H 0.78981 0.62059 0.01097 0.0
H2295 H 0.77021 0.62975 0.10504 0.0
H2296 H 0.81323 0.62473 0.05955 0.0
H2297 H 0.75885 0.65044 0.05678 0.0
C2298 C 0.75761 0.64137 0.03112 0.0
C2299 C 0.76574 0.632 0.01824 0.0
C2300 C 0.80407 0.62637 0.06973 0.0
C2301 C 0.78215 0.6375 0.04933 0.0
C2302 C 0.80677 0.61796 0.08518 0.0
C2303 C 0.79404 0.61806 0.09771 0.0
C2304 C 0.78852 0.63478 0.06691 0.0
C2305 C 0.78009 0.62897 0.09545 0.0
C2306 C 0.76581 0.64425 0.04661 0.0
C2307 C 0.78284 0.62742 0.0207 0.0
N2308 N 0.77744 0.6365 0.08013 0.0
N2309 N 0.79033 0.62983 0.0361 0.0
H2310 H 0.44882 0.80152 0.11739 0.0
H2311 H 0.42521 0.8281 0.02494 0.0
H2312 H 0.45137 0.85283 0.09791 0.0
H2313 H 0.42433 0.77655 0.04394 0.0
H2314 H 0.42415 0.83858 0.05413 0.0
H2315 H 0.42945 0.79403 0.09435 0.0
C2316 C 0.4449 0.81136 0.10855 0.0
C2317 C 0.45223 0.82765 0.10918 0.0
C2318 C 0.42374 0.82497 0.05194 0.0
C2319 C 0.43038 0.81905 0.08255 0.0
C2320 C 0.42435 0.81897 0.03525 0.0
C2321 C 0.42548 0.80142 0.03204 0.0
C2322 C 0.4246 0.81334 0.0655 0.0
C2323 C 0.42387 0.79019 0.04584 0.0
C2324 C 0.43385 0.80706 0.09536 0.0
C2325 C 0.44635 0.83999 0.09768 0.0
N2326 N 0.424 0.79635 0.06201 0.0
N2327 N 0.43617 0.8353 0.08451 0.0
H2328 H 0.23177 0.46085 0.07597 0.0
H2329 H 0.29771 0.4191 0.01448 0.0
H2330 H 0.27685 0.43374 0.09157 0.0
H2331 H 0.25525 0.45028 0.9988 0.0
H2332 H 0.28389 0.41466 0.04192 0.0
H2333 H 0.23344 0.44699 0.04817 0.0
C2334 C 0.24156 0.45137 0.07384 0.0
C2335 C 0.25454 0.44884 0.08584 0.0
C2336 C 0.27739 0.42215 0.03233 0.0
C2337 C 0.25681 0.43337 0.05399 0.0
C2338 C 0.2853 0.42471 0.01663 0.0
C2339 C 0.27795 0.43562 0.00452 0.0
C2340 C 0.26215 0.43074 0.03605 0.0
C2341 C 0.26165 0.44217 0.00792 0.0
C2342 C 0.24263 0.44359 0.05787 0.0
C2343 C 0.26686 0.43638 0.08244 0.0
N2344 N 0.25451 0.44 0.02353 0.0
N2345 N 0.268 0.42946 0.06665 0.0
H2346 H 0.43846 0.30029 0.01847 0.0
H2347 H 0.46179 0.21059 0.97714 0.0
H2348 H 0.44286 0.25303 0.04612 0.0
H2349 H 0.47304 0.25913 0.95389 0.0
H2350 H 0.44487 0.22525 0.99873 0.0
H2351 H 0.44139 0.28446 0.99168 0.0
C2352 C 0.43952 0.28654 0.01889 0.0
C2353 C 0.44069 0.27797 0.03453 0.0
C2354 C 0.45071 0.23264 0.98865 0.0
C2355 C 0.44407 0.25986 0.00403 0.0
C2356 C 0.46029 0.22427 0.97622 0.0
C2357 C 0.46922 0.23367 0.96389 0.0
C2358 C 0.45 0.25051 0.98872 0.0
C2359 C 0.46667 0.25138 0.96336 0.0
C2360 C 0.44129 0.27754 0.00361 0.0
C2361 C 0.44216 0.26016 0.03434 0.0
N2362 N 0.45756 0.25926 0.97579 0.0
N2363 N 0.44401 0.25172 0.01935 0.0
H2364 H 0.78683 0.42843 0.96261 0.0
H2365 H 0.80652 0.43603 0.05898 0.0
H2366 H 0.8292 0.45641 0.98333 0.0
H2367 H 0.76455 0.40779 0.03753 0.0
H2368 H 0.82101 0.43468 0.03157 0.0
H2369 H 0.78534 0.41175 0.98875 0.0
C2370 C 0.79626 0.43059 0.97245 0.0
C2371 C 0.80785 0.44408 0.97106 0.0
C2372 C 0.80883 0.4284 0.03295 0.0
C2373 C 0.80574 0.42564 0.00128 0.0
C2374 C 0.8005 0.42917 0.04864 0.0
C2375 C 0.78396 0.42262 0.05039 0.0
C2376 C 0.80045 0.42121 0.01888 0.0
C2377 C 0.77705 0.41351 0.03665 0.0
C2378 C 0.79534 0.42115 0.98745 0.0
C2379 C 0.8199 0.44625 0.98403 0.0
N2380 N 0.78513 0.41346 0.02136 0.0
N2381 N 0.81817 0.43752 0.99889 0.0
H2382 H 0.26573 0.63324 0.05886 0.0
H2383 H 0.28215 0.6428 0.96176 0.0
H2384 H 0.31083 0.65521 0.0364 0.0
H2385 H 0.23737 0.61975 0.98349 0.0
H2386 H 0.28732 0.65749 0.9886 0.0
H2387 H 0.25056 0.63802 0.03222 0.0
C2388 C 0.27236 0.63946 0.04849 0.0
C2389 C 0.28981 0.64321 0.04967 0.0
C2390 C 0.27605 0.64966 0.98741 0.0
C2391 C 0.2725 0.64855 0.01905 0.0
C2392 C 0.27303 0.64137 0.97202 0.0
C2393 C 0.25957 0.62973 0.97061 0.0
C2394 C 0.26581 0.64586 0.00158 0.0
C2395 C 0.24803 0.62846 0.98416 0.0
C2396 C 0.26365 0.6422 0.03324 0.0
C2397 C 0.29754 0.65164 0.03594 0.0
N2398 N 0.25172 0.63597 0.99932 0.0
N2399 N 0.28896 0.65362 0.02106 0.0
loop_
_geom_bond_atom_site_label_1
_geom_bond_atom_site_label_2
_geom_bond_distance
_geom_bond_site_symmetry_2
_ccdc_geom_bond_type
Mg0 O1 2.028 . S
Mg0 O7 1.986 . S
Mg0 O9 2.114 . S
Mg0 O10 2.251 . S
Mg0 O13 2.010 . S
O1 Mg0 2.028 . S
O1 C4 1.250 . S
O2 Mg3 2.028 . S
O2 C4 1.248 . S
Mg3 O2 2.028 . S
Mg3 O8 2.032 . S
Mg3 O10 2.079 . S
C4 O1 1.250 . S
C4 O2 1.248 . S
C5 O6 1.264 . S
C5 O13 1.249 . S
O6 C5 1.264 . S
O7 Mg0 1.986 . S
O7 C11 1.246 . S
O8 Mg3 2.032 . S
O8 C11 1.259 . S
O9 Mg0 2.114 . S
O9 C12 1.252 . S
O10 Mg0 2.251 . S
O10 Mg3 2.079 . S
O10 C12 1.273 . S
C11 O7 1.246 . S
C11 O8 1.259 . S
C12 O9 1.252 . S
C12 O10 1.273 . S
O13 Mg0 2.010 . S
O13 C5 1.249 . S
Mg14 O15 2.028 . S
Mg14 O21 1.986 . S
Mg14 O23 2.114 . S
Mg14 O24 2.251 . S
Mg14 O27 2.010 . S
O15 Mg14 2.028 . S
O15 C18 1.250 . S
O16 Mg17 2.028 . S
O16 C18 1.248 . S
Mg17 O16 2.028 . S
Mg17 O22 2.032 . S
Mg17 O24 2.079 . S
C18 O15 1.250 . S
C18 O16 1.248 . S
C19 O20 1.264 . S
C19 O27 1.249 . S
O20 C19 1.264 . S
O21 Mg14 1.986 . S
O21 C25 1.246 . S
O22 Mg17 2.032 . S
O22 C25 1.259 . S
O23 Mg14 2.114 . S
O23 C26 1.252 . S
O24 Mg14 2.251 . S
O24 Mg17 2.079 . S
O24 C26 1.273 . S
C25 O21 1.246 . S
C25 O22 1.259 . S
C26 O23 1.252 . S
C26 O24 1.273 . S
O27 Mg14 2.010 . S
O27 C19 1.249 . S
Mg28 O29 2.028 1_655 S
Mg28 O35 1.986 1_655 S
Mg28 O37 2.114 . S
Mg28 O38 2.251 . S
Mg28 O41 2.010 . S
O29 Mg28 2.028 1_455 S
O29 C32 1.250 . S
O30 Mg31 2.028 . S
O30 C32 1.248 . S
Mg31 O30 2.028 . S
Mg31 O36 2.032 . S
Mg31 O38 2.079 1_455 S
C32 O29 1.250 . S
C32 O30 1.248 . S
C33 O34 1.264 . S
C33 O41 1.249 . S
O34 C33 1.264 . S
O35 Mg28 1.986 1_455 S
O35 C39 1.246 . S
O36 Mg31 2.032 . S
O36 C39 1.259 . S
O37 Mg28 2.114 . S
O37 C40 1.252 . S
O38 Mg28 2.251 . S
O38 Mg31 2.079 1_655 S
O38 C40 1.273 . S
C39 O35 1.246 . S
C39 O36 1.259 . S
C40 O37 1.252 . S
C40 O38 1.273 . S
O41 Mg28 2.010 . S
O41 C33 1.249 . S
Mg42 O43 2.028 1_565 S
Mg42 O49 1.986 1_565 S
Mg42 O51 2.114 . S
Mg42 O52 2.251 . S
Mg42 O55 2.010 . S
O43 Mg42 2.028 1_545 S
O43 C46 1.250 . S
O44 Mg45 2.028 . S
O44 C46 1.248 . S
Mg45 O44 2.028 . S
Mg45 O50 2.032 . S
Mg45 O52 2.079 1_545 S
C46 O43 1.250 . S
C46 O44 1.248 . S
C47 O48 1.264 . S
C47 O55 1.249 . S
O48 C47 1.264 . S
O49 Mg42 1.986 1_545 S
O49 C53 1.246 . S
O50 Mg45 2.032 . S
O50 C53 1.259 . S
O51 Mg42 2.114 . S
O51 C54 1.252 . S
O52 Mg42 2.251 . S
O52 Mg45 2.079 1_565 S
O52 C54 1.273 . S
C53 O49 1.246 . S
C53 O50 1.259 . S
C54 O51 1.252 . S
C54 O52 1.273 . S
O55 Mg42 2.010 . S
O55 C47 1.249 . S
Mg56 O57 2.028 . S
Mg56 O63 1.986 . S
Mg56 O65 2.114 . S
Mg56 O66 2.251 . S
Mg56 O69 2.010 . S
O57 Mg56 2.028 . S
O57 C60 1.250 . S
O58 Mg59 2.028 . S
O58 C60 1.248 . S
Mg59 O58 2.028 . S
Mg59 O64 2.032 . S
Mg59 O66 2.079 . S
C60 O57 1.250 . S
C60 O58 1.248 . S
C61 O62 1.264 . S
C61 O69 1.249 . S
O62 C61 1.264 . S
O63 Mg56 1.986 . S
O63 C67 1.246 . S
O64 Mg59 2.032 . S
O64 C67 1.259 . S
O65 Mg56 2.114 . S
O65 C68 1.252 . S
O66 Mg56 2.251 . S
O66 Mg59 2.079 . S
O66 C68 1.273 . S
C67 O63 1.246 . S
C67 O64 1.259 . S
C68 O65 1.252 . S
C68 O66 1.273 . S
O69 Mg56 2.010 . S
O69 C61 1.249 . S
Mg70 O71 2.028 . S
Mg70 O77 1.986 . S
Mg70 O79 2.114 . S
Mg70 O80 2.251 . S
Mg70 O83 2.010 . S
O71 Mg70 2.028 . S
O71 C74 1.250 . S
O72 Mg73 2.028 . S
O72 C74 1.248 . S
Mg73 O72 2.028 . S
Mg73 O78 2.032 . S
Mg73 O80 2.079 . S
C74 O71 1.250 . S
C74 O72 1.248 . S
C75 O76 1.264 . S
C75 O83 1.249 . S
O76 C75 1.264 . S
O77 Mg70 1.986 . S
O77 C81 1.246 . S
O78 Mg73 2.032 . S
O78 C81 1.259 . S
O79 Mg70 2.114 . S
O79 C82 1.252 . S
O80 Mg70 2.251 . S
O80 Mg73 2.079 . S
O80 C82 1.273 . S
C81 O77 1.246 . S
C81 O78 1.259 . S
C82 O79 1.252 . S
C82 O80 1.273 . S
O83 Mg70 2.010 . S
O83 C75 1.249 . S
Mg84 O85 2.028 1_655 S
Mg84 O91 1.986 1_655 S
Mg84 O93 2.114 . S
Mg84 O94 2.251 . S
Mg84 O97 2.010 . S
O85 Mg84 2.028 1_455 S
O85 C88 1.250 . S
O86 Mg87 2.028 . S
O86 C88 1.248 . S
Mg87 O86 2.028 . S
Mg87 O92 2.032 . S
Mg87 O94 2.079 1_455 S
C88 O85 1.250 . S
C88 O86 1.248 . S
C89 O90 1.264 . S
C89 O97 1.249 . S
O90 C89 1.264 . S
O91 Mg84 1.986 1_455 S
O91 C95 1.246 . S
O92 Mg87 2.032 . S
O92 C95 1.259 . S
O93 Mg84 2.114 . S
O93 C96 1.252 . S
O94 Mg84 2.251 . S
O94 Mg87 2.079 1_655 S
O94 C96 1.273 . S
C95 O91 1.246 . S
C95 O92 1.259 . S
C96 O93 1.252 . S
C96 O94 1.273 . S
O97 Mg84 2.010 . S
O97 C89 1.249 . S
Mg98 O99 2.028 1_565 S
Mg98 O105 1.986 1_565 S
Mg98 O107 2.114 . S
Mg98 O108 2.251 . S
Mg98 O111 2.010 . S
O99 Mg98 2.028 1_545 S
O99 C102 1.250 . S
O100 Mg101 2.028 . S
O100 C102 1.248 . S
Mg101 O100 2.028 . S
Mg101 O106 2.032 . S
Mg101 O108 2.079 1_545 S
C102 O99 1.250 . S
C102 O100 1.248 . S
C103 O104 1.264 . S
C103 O111 1.249 . S
O104 C103 1.264 . S
O105 Mg98 1.986 1_545 S
O105 C109 1.246 . S
O106 Mg101 2.032 . S
O106 C109 1.259 . S
O107 Mg98 2.114 . S
O107 C110 1.252 . S
O108 Mg98 2.251 . S
O108 Mg101 2.079 1_565 S
O108 C110 1.273 . S
C109 O105 1.246 . S
C109 O106 1.259 . S
C110 O107 1.252 . S
C110 O108 1.273 . S
O111 Mg98 2.010 . S
O111 C103 1.249 . S
Mg112 O113 2.028 . S
Mg112 O119 1.986 . S
Mg112 O121 2.114 . S
Mg112 O122 2.251 . S
Mg112 O125 2.010 . S
O113 Mg112 2.028 . S
O113 C116 1.250 . S
O114 Mg115 2.028 . S
O114 C116 1.248 . S
Mg115 O114 2.028 . S
Mg115 O120 2.032 . S
Mg115 O122 2.079 . S
C116 O113 1.250 . S
C116 O114 1.248 . S
C117 O118 1.264 . S
C117 O125 1.249 . S
O118 C117 1.264 . S
O119 Mg112 1.986 . S
O119 C123 1.246 . S
O120 Mg115 2.032 . S
O120 C123 1.259 . S
O121 Mg112 2.114 . S
O121 C124 1.252 . S
O122 Mg112 2.251 . S
O122 Mg115 2.079 . S
O122 C124 1.273 . S
C123 O119 1.246 . S
C123 O120 1.259 . S
C124 O121 1.252 . S
C124 O122 1.273 . S
O125 Mg112 2.010 . S
O125 C117 1.249 . S
Mg126 O127 2.028 1_655 S
Mg126 O133 1.986 1_655 S
Mg126 O135 2.114 . S
Mg126 O136 2.251 . S
Mg126 O139 2.010 . S
O127 Mg126 2.028 1_455 S
O127 C130 1.250 . S
O128 Mg129 2.028 . S
O128 C130 1.248 . S
Mg129 O128 2.028 . S
Mg129 O134 2.032 . S
Mg129 O136 2.079 1_455 S
C130 O127 1.250 . S
C130 O128 1.248 . S
C131 O132 1.264 . S
C131 O139 1.249 . S
O132 C131 1.264 . S
O133 Mg126 1.986 1_455 S
O133 C137 1.246 . S
O134 Mg129 2.032 . S
O134 C137 1.259 . S
O135 Mg126 2.114 . S
O135 C138 1.252 . S
O136 Mg126 2.251 . S
O136 Mg129 2.079 1_655 S
O136 C138 1.273 . S
C137 O133 1.246 . S
C137 O134 1.259 . S
C138 O135 1.252 . S
C138 O136 1.273 . S
O139 Mg126 2.010 . S
O139 C131 1.249 . S
Mg140 O141 2.028 1_565 S
Mg140 O147 1.986 1_565 S
Mg140 O149 2.114 . S
Mg140 O150 2.251 . S
Mg140 O153 2.010 . S
O141 Mg140 2.028 1_545 S
O141 C144 1.250 . S
O142 Mg143 2.028 . S
O142 C144 1.248 . S
Mg143 O142 2.028 . S
Mg143 O148 2.032 . S
Mg143 O150 2.079 1_545 S
C144 O141 1.250 . S
C144 O142 1.248 . S
C145 O146 1.264 . S
C145 O153 1.249 . S
O146 C145 1.264 . S
O147 Mg140 1.986 1_545 S
O147 C151 1.246 . S
O148 Mg143 2.032 . S
O148 C151 1.259 . S
O149 Mg140 2.114 . S
O149 C152 1.252 . S
O150 Mg140 2.251 . S
O150 Mg143 2.079 1_565 S
O150 C152 1.273 . S
C151 O147 1.246 . S
C151 O148 1.259 . S
C152 O149 1.252 . S
C152 O150 1.273 . S
O153 Mg140 2.010 . S
O153 C145 1.249 . S
Mg154 O155 2.028 . S
Mg154 O161 1.986 . S
Mg154 O163 2.114 . S
Mg154 O164 2.251 . S
Mg154 O167 2.010 . S
O155 Mg154 2.028 . S
O155 C158 1.250 . S
O156 Mg157 2.028 . S
O156 C158 1.248 . S
Mg157 O156 2.028 . S
Mg157 O162 2.032 . S
Mg157 O164 2.079 . S
C158 O155 1.250 . S
C158 O156 1.248 . S
C159 O160 1.264 . S
C159 O167 1.249 . S
O160 C159 1.264 . S
O161 Mg154 1.986 . S
O161 C165 1.246 . S
O162 Mg157 2.032 . S
O162 C165 1.259 . S
O163 Mg154 2.114 . S
O163 C166 1.252 . S
O164 Mg154 2.251 . S
O164 Mg157 2.079 . S
O164 C166 1.273 . S
C165 O161 1.246 . S
C165 O162 1.259 . S
C166 O163 1.252 . S
C166 O164 1.273 . S
O167 Mg154 2.010 . S
O167 C159 1.249 . S
Mg168 O169 2.028 1_565 S
Mg168 O175 1.986 1_565 S
Mg168 O177 2.114 . S
Mg168 O178 2.251 . S
Mg168 O181 2.010 . S
O169 Mg168 2.028 1_545 S
O169 C172 1.250 . S
O170 Mg171 2.028 . S
O170 C172 1.248 . S
Mg171 O170 2.028 . S
Mg171 O176 2.032 . S
Mg171 O178 2.079 1_545 S
C172 O169 1.250 . S
C172 O170 1.248 . S
C173 O174 1.264 . S
C173 O181 1.249 . S
O174 C173 1.264 . S
O175 Mg168 1.986 1_545 S
O175 C179 1.246 . S
O176 Mg171 2.032 . S
O176 C179 1.259 . S
O177 Mg168 2.114 . S
O177 C180 1.252 . S
O178 Mg168 2.251 . S
O178 Mg171 2.079 1_565 S
O178 C180 1.273 . S
C179 O175 1.246 . S
C179 O176 1.259 . S
C180 O177 1.252 . S
C180 O178 1.273 . S
O181 Mg168 2.010 . S
O181 C173 1.249 . S
Mg182 O183 2.028 . S
Mg182 O189 1.986 . S
Mg182 O191 2.114 . S
Mg182 O192 2.251 . S
Mg182 O195 2.010 . S
O183 Mg182 2.028 . S
O183 C186 1.250 . S
O184 Mg185 2.028 . S
O184 C186 1.248 . S
Mg185 O184 2.028 . S
Mg185 O190 2.032 . S
Mg185 O192 2.079 . S
C186 O183 1.250 . S
C186 O184 1.248 . S
C187 O188 1.264 . S
C187 O195 1.249 . S
O188 C187 1.264 . S
O189 Mg182 1.986 . S
O189 C193 1.246 . S
O190 Mg185 2.032 . S
O190 C193 1.259 . S
O191 Mg182 2.114 . S
O191 C194 1.252 . S
O192 Mg182 2.251 . S
O192 Mg185 2.079 . S
O192 C194 1.273 . S
C193 O189 1.246 . S
C193 O190 1.259 . S
C194 O191 1.252 . S
C194 O192 1.273 . S
O195 Mg182 2.010 . S
O195 C187 1.249 . S
Mg196 O197 2.028 . S
Mg196 O203 1.986 . S
Mg196 O205 2.114 . S
Mg196 O206 2.251 . S
Mg196 O209 2.010 . S
O197 Mg196 2.028 . S
O197 C200 1.250 . S
O198 Mg199 2.028 . S
O198 C200 1.248 . S
Mg199 O198 2.028 . S
Mg199 O204 2.032 . S
Mg199 O206 2.079 . S
C200 O197 1.250 . S
C200 O198 1.248 . S
C201 O202 1.264 . S
C201 O209 1.249 . S
O202 C201 1.264 . S
O203 Mg196 1.986 . S
O203 C207 1.246 . S
O204 Mg199 2.032 . S
O204 C207 1.259 . S
O205 Mg196 2.114 . S
O205 C208 1.252 . S
O206 Mg196 2.251 . S
O206 Mg199 2.079 . S
O206 C208 1.273 . S
C207 O203 1.246 . S
C207 O204 1.259 . S
C208 O205 1.252 . S
C208 O206 1.273 . S
O209 Mg196 2.010 . S
O209 C201 1.249 . S
Mg210 O211 2.028 1_655 S
Mg210 O217 1.986 1_655 S
Mg210 O219 2.114 . S
Mg210 O220 2.251 . S
Mg210 O223 2.010 . S
O211 Mg210 2.028 1_455 S
O211 C214 1.250 . S
O212 Mg213 2.028 . S
O212 C214 1.248 . S
Mg213 O212 2.028 . S
Mg213 O218 2.032 . S
Mg213 O220 2.079 1_455 S
C214 O211 1.250 . S
C214 O212 1.248 . S
C215 O216 1.264 . S
C215 O223 1.249 . S
O216 C215 1.264 . S
O217 Mg210 1.986 1_455 S
O217 C221 1.246 . S
O218 Mg213 2.032 . S
O218 C221 1.259 . S
O219 Mg210 2.114 . S
O219 C222 1.252 . S
O220 Mg210 2.251 . S
O220 Mg213 2.079 1_655 S
O220 C222 1.273 . S
C221 O217 1.246 . S
C221 O218 1.259 . S
C222 O219 1.252 . S
C222 O220 1.273 . S
O223 Mg210 2.010 . S
O223 C215 1.249 . S
Mg224 O225 2.028 . S
Mg224 O231 1.986 . S
Mg224 O233 2.114 . S
Mg224 O234 2.251 . S
Mg224 O237 2.010 . S
O225 Mg224 2.028 . S
O225 C228 1.250 . S
O226 Mg227 2.028 . S
O226 C228 1.248 . S
Mg227 O226 2.028 . S
Mg227 O232 2.032 . S
Mg227 O234 2.079 . S
C228 O225 1.250 . S
C228 O226 1.248 . S
C229 O230 1.264 . S
C229 O237 1.249 . S
O230 C229 1.264 . S
O231 Mg224 1.986 . S
O231 C235 1.246 . S
O232 Mg227 2.032 . S
O232 C235 1.259 . S
O233 Mg224 2.114 . S
O233 C236 1.252 . S
O234 Mg224 2.251 . S
O234 Mg227 2.079 . S
O234 C236 1.273 . S
C235 O231 1.246 . S
C235 O232 1.259 . S
C236 O233 1.252 . S
C236 O234 1.273 . S
O237 Mg224 2.010 . S
O237 C229 1.249 . S
Mg238 O239 2.028 1_556 S
Mg238 O245 1.986 1_556 S
Mg238 O247 2.114 . S
Mg238 O248 2.251 . S
Mg238 O251 2.010 . S
O239 Mg238 2.028 1_554 S
O239 C242 1.250 . S
O240 Mg241 2.028 . S
O240 C242 1.248 . S
Mg241 O240 2.028 . S
Mg241 O246 2.032 . S
Mg241 O248 2.079 1_554 S
C242 O239 1.250 . S
C242 O240 1.248 . S
C243 O244 1.264 . S
C243 O251 1.249 . S
O244 C243 1.264 . S
O245 Mg238 1.986 1_554 S
O245 C249 1.246 . S
O246 Mg241 2.032 . S
O246 C249 1.259 . S
O247 Mg238 2.114 . S
O247 C250 1.252 . S
O248 Mg238 2.251 . S
O248 Mg241 2.079 1_556 S
O248 C250 1.273 . S
C249 O245 1.246 . S
C249 O246 1.259 . S
C250 O247 1.252 . S
C250 O248 1.273 . S
O251 Mg238 2.010 . S
O251 C243 1.249 . S
Mg252 O253 2.028 1_556 S
Mg252 O259 1.986 1_556 S
Mg252 O261 2.114 . S
Mg252 O262 2.251 . S
Mg252 O265 2.010 . S
O253 Mg252 2.028 1_554 S
O253 C256 1.250 . S
O254 Mg255 2.028 . S
O254 C256 1.248 . S
Mg255 O254 2.028 . S
Mg255 O260 2.032 . S
Mg255 O262 2.079 1_554 S
C256 O253 1.250 . S
C256 O254 1.248 . S
C257 O258 1.264 . S
C257 O265 1.249 . S
O258 C257 1.264 . S
O259 Mg252 1.986 1_554 S
O259 C263 1.246 . S
O260 Mg255 2.032 . S
O260 C263 1.259 . S
O261 Mg252 2.114 . S
O261 C264 1.252 . S
O262 Mg252 2.251 . S
O262 Mg255 2.079 1_556 S
O262 C264 1.273 . S
C263 O259 1.246 . S
C263 O260 1.259 . S
C264 O261 1.252 . S
C264 O262 1.273 . S
O265 Mg252 2.010 . S
O265 C257 1.249 . S
Mg266 O267 2.028 1_556 S
Mg266 O273 1.986 1_556 S
Mg266 O275 2.114 . S
Mg266 O276 2.251 . S
Mg266 O279 2.010 . S
O267 Mg266 2.028 1_554 S
O267 C270 1.250 . S
O268 Mg269 2.028 . S
O268 C270 1.248 . S
Mg269 O268 2.028 . S
Mg269 O274 2.032 . S
Mg269 O276 2.079 1_554 S
C270 O267 1.250 . S
C270 O268 1.248 . S
C271 O272 1.264 . S
C271 O279 1.249 . S
O272 C271 1.264 . S
O273 Mg266 1.986 1_554 S
O273 C277 1.246 . S
O274 Mg269 2.032 . S
O274 C277 1.259 . S
O275 Mg266 2.114 . S
O275 C278 1.252 . S
O276 Mg266 2.251 . S
O276 Mg269 2.079 1_556 S
O276 C278 1.273 . S
C277 O273 1.246 . S
C277 O274 1.259 . S
C278 O275 1.252 . S
C278 O276 1.273 . S
O279 Mg266 2.010 . S
O279 C271 1.249 . S
Mg280 O281 2.028 1_556 S
Mg280 O287 1.986 1_556 S
Mg280 O289 2.114 . S
Mg280 O290 2.251 . S
Mg280 O293 2.010 . S
O281 Mg280 2.028 1_554 S
O281 C284 1.250 . S
O282 Mg283 2.028 . S
O282 C284 1.248 . S
Mg283 O282 2.028 . S
Mg283 O288 2.032 . S
Mg283 O290 2.079 1_554 S
C284 O281 1.250 . S
C284 O282 1.248 . S
C285 O286 1.264 . S
C285 O293 1.249 . S
O286 C285 1.264 . S
O287 Mg280 1.986 1_554 S
O287 C291 1.246 . S
O288 Mg283 2.032 . S
O288 C291 1.259 . S
O289 Mg280 2.114 . S
O289 C292 1.252 . S
O290 Mg280 2.251 . S
O290 Mg283 2.079 1_556 S
O290 C292 1.273 . S
C291 O287 1.246 . S
C291 O288 1.259 . S
C292 O289 1.252 . S
C292 O290 1.273 . S
O293 Mg280 2.010 . S
O293 C285 1.249 . S
Mg294 O295 2.028 . S
Mg294 O301 1.986 . S
Mg294 O303 2.114 . S
Mg294 O304 2.251 . S
Mg294 O307 2.010 . S
O295 Mg294 2.028 . S
O295 C298 1.250 . S
O296 Mg297 2.028 . S
O296 C298 1.248 . S
Mg297 O296 2.028 . S
Mg297 O302 2.032 . S
Mg297 O304 2.079 . S
C298 O295 1.250 . S
C298 O296 1.248 . S
C299 O300 1.264 . S
C299 O307 1.249 . S
O300 C299 1.264 . S
O301 Mg294 1.986 . S
O301 C305 1.246 . S
O302 Mg297 2.032 . S
O302 C305 1.259 . S
O303 Mg294 2.114 . S
O303 C306 1.252 . S
O304 Mg294 2.251 . S
O304 Mg297 2.079 . S
O304 C306 1.273 . S
C305 O301 1.246 . S
C305 O302 1.259 . S
C306 O303 1.252 . S
C306 O304 1.273 . S
O307 Mg294 2.010 . S
O307 C299 1.249 . S
Mg308 O309 2.028 . S
Mg308 O315 1.986 . S
Mg308 O317 2.114 . S
Mg308 O318 2.251 . S
Mg308 O321 2.010 . S
O309 Mg308 2.028 . S
O309 C312 1.250 . S
O310 Mg311 2.028 . S
O310 C312 1.248 . S
Mg311 O310 2.028 . S
Mg311 O316 2.032 . S
Mg311 O318 2.079 . S
C312 O309 1.250 . S
C312 O310 1.248 . S
C313 O314 1.264 . S
C313 O321 1.249 . S
O314 C313 1.264 . S
O315 Mg308 1.986 . S
O315 C319 1.246 . S
O316 Mg311 2.032 . S
O316 C319 1.259 . S
O317 Mg308 2.114 . S
O317 C320 1.252 . S
O318 Mg308 2.251 . S
O318 Mg311 2.079 . S
O318 C320 1.273 . S
C319 O315 1.246 . S
C319 O316 1.259 . S
C320 O317 1.252 . S
C320 O318 1.273 . S
O321 Mg308 2.010 . S
O321 C313 1.249 . S
Mg322 O323 2.028 . S
Mg322 O329 1.986 . S
Mg322 O331 2.114 . S
Mg322 O332 2.251 . S
Mg322 O335 2.010 . S
O323 Mg322 2.028 . S
O323 C326 1.250 . S
O324 Mg325 2.028 . S
O324 C326 1.248 . S
Mg325 O324 2.028 . S
Mg325 O330 2.032 . S
Mg325 O332 2.079 . S
C326 O323 1.250 . S
C326 O324 1.248 . S
C327 O328 1.264 . S
C327 O335 1.249 . S
O328 C327 1.264 . S
O329 Mg322 1.986 . S
O329 C333 1.246 . S
O330 Mg325 2.032 . S
O330 C333 1.259 . S
O331 Mg322 2.114 . S
O331 C334 1.252 . S
O332 Mg322 2.251 . S
O332 Mg325 2.079 . S
O332 C334 1.273 . S
C333 O329 1.246 . S
C333 O330 1.259 . S
C334 O331 1.252 . S
C334 O332 1.273 . S
O335 Mg322 2.010 . S
O335 C327 1.249 . S
Mg336 O337 2.028 . S
Mg336 O343 1.986 . S
Mg336 O345 2.114 . S
Mg336 O346 2.251 . S
Mg336 O349 2.010 . S
O337 Mg336 2.028 . S
O337 C340 1.250 . S
O338 Mg339 2.022 1_545 S
O338 C340 1.231 1_545 S
Mg339 O338 2.022 1_565 S
Mg339 O344 2.032 . S
Mg339 O346 2.079 . S
C340 O337 1.250 . S
C340 O338 1.231 1_565 S
C341 O342 1.264 . S
C341 O349 1.249 . S
O342 C341 1.264 . S
O343 Mg336 1.986 . S
O343 C347 1.246 . S
O344 Mg339 2.032 . S
O344 C347 1.259 . S
O345 Mg336 2.114 . S
O345 C348 1.252 . S
O346 Mg336 2.251 . S
O346 Mg339 2.079 . S
O346 C348 1.273 . S
C347 O343 1.246 . S
C347 O344 1.259 . S
C348 O345 1.252 . S
C348 O346 1.273 . S
O349 Mg336 2.010 . S
O349 C341 1.249 . S
Mg350 O351 2.028 . S
Mg350 O357 1.986 . S
Mg350 O359 2.114 . S
Mg350 O360 2.251 . S
Mg350 O363 2.010 . S
O351 Mg350 2.028 . S
O351 C354 1.250 . S
O352 Mg353 2.028 . S
O352 C354 1.248 . S
Mg353 O352 2.028 . S
Mg353 O358 2.032 . S
Mg353 O360 2.079 . S
C354 O351 1.250 . S
C354 O352 1.248 . S
C355 O356 1.264 . S
C355 O363 1.249 . S
O356 C355 1.264 . S
O357 Mg350 1.986 . S
O357 C361 1.246 . S
O358 Mg353 2.032 . S
O358 C361 1.259 . S
O359 Mg350 2.114 . S
O359 C362 1.252 . S
O360 Mg350 2.251 . S
O360 Mg353 2.079 . S
O360 C362 1.273 . S
C361 O357 1.246 . S
C361 O358 1.259 . S
C362 O359 1.252 . S
C362 O360 1.273 . S
O363 Mg350 2.010 . S
O363 C355 1.249 . S
Mg364 O365 2.028 . S
Mg364 O371 1.986 . S
Mg364 O373 2.114 . S
Mg364 O374 2.251 . S
Mg364 O377 2.010 . S
O365 Mg364 2.028 . S
O365 C368 1.250 . S
O366 Mg367 2.028 . S
O366 C368 1.248 . S
Mg367 O366 2.028 . S
Mg367 O372 2.032 . S
Mg367 O374 2.079 . S
C368 O365 1.250 . S
C368 O366 1.248 . S
C369 O370 1.264 . S
C369 O377 1.249 . S
O370 C369 1.264 . S
O371 Mg364 1.986 . S
O371 C375 1.246 . S
O372 Mg367 2.032 . S
O372 C375 1.259 . S
O373 Mg364 2.114 . S
O373 C376 1.252 . S
O374 Mg364 2.251 . S
O374 Mg367 2.079 . S
O374 C376 1.273 . S
C375 O371 1.246 . S
C375 O372 1.259 . S
C376 O373 1.252 . S
C376 O374 1.273 . S
O377 Mg364 2.010 . S
O377 C369 1.249 . S
Mg378 O379 2.028 . S
Mg378 O385 1.986 . S
Mg378 O387 2.114 . S
Mg378 O388 2.251 . S
Mg378 O391 2.010 . S
O379 Mg378 2.028 . S
O379 C382 1.250 . S
O380 Mg381 2.022 1_455 S
O380 C382 1.229 1_455 S
Mg381 O380 2.022 1_655 S
Mg381 O386 2.032 . S
Mg381 O388 2.079 . S
C382 O379 1.250 . S
C382 O380 1.229 1_655 S
C383 O384 1.264 . S
C383 O391 1.249 . S
O384 C383 1.264 . S
O385 Mg378 1.986 . S
O385 C389 1.246 . S
O386 Mg381 2.032 . S
O386 C389 1.259 . S
O387 Mg378 2.114 . S
O387 C390 1.252 . S
O388 Mg378 2.251 . S
O388 Mg381 2.079 . S
O388 C390 1.273 . S
C389 O385 1.246 . S
C389 O386 1.259 . S
C390 O387 1.252 . S
C390 O388 1.273 . S
O391 Mg378 2.010 . S
O391 C383 1.249 . S
Mg392 O393 2.028 . S
Mg392 O399 1.986 . S
Mg392 O401 2.114 . S
Mg392 O402 2.251 . S
Mg392 O405 2.010 . S
O393 Mg392 2.028 . S
O393 C396 1.250 . S
O394 Mg395 2.028 . S
O394 C396 1.248 . S
Mg395 O394 2.028 . S
Mg395 O400 2.032 . S
Mg395 O402 2.079 . S
C396 O393 1.250 . S
C396 O394 1.248 . S
C397 O398 1.264 . S
C397 O405 1.249 . S
O398 C397 1.264 . S
O399 Mg392 1.986 . S
O399 C403 1.246 . S
O400 Mg395 2.032 . S
O400 C403 1.259 . S
O401 Mg392 2.114 . S
O401 C404 1.252 . S
O402 Mg392 2.251 . S
O402 Mg395 2.079 . S
O402 C404 1.273 . S
C403 O399 1.246 . S
C403 O400 1.259 . S
C404 O401 1.252 . S
C404 O402 1.273 . S
O405 Mg392 2.010 . S
O405 C397 1.249 . S
Mg406 O407 2.028 . S
Mg406 O413 1.986 . S
Mg406 O415 2.114 . S
Mg406 O416 2.251 . S
Mg406 O419 2.010 . S
O407 Mg406 2.028 . S
O407 C410 1.250 . S
O408 Mg409 2.026 1_455 S
O408 C410 1.240 1_455 S
Mg409 O408 2.026 1_655 S
Mg409 O414 2.032 . S
Mg409 O416 2.079 . S
C410 O407 1.250 . S
C410 O408 1.240 1_655 S
C411 O412 1.264 . S
C411 O419 1.249 . S
O412 C411 1.264 . S
O413 Mg406 1.986 . S
O413 C417 1.246 . S
O414 Mg409 2.032 . S
O414 C417 1.259 . S
O415 Mg406 2.114 . S
O415 C418 1.252 . S
O416 Mg406 2.251 . S
O416 Mg409 2.079 . S
O416 C418 1.273 . S
C417 O413 1.246 . S
C417 O414 1.259 . S
C418 O415 1.252 . S
C418 O416 1.273 . S
O419 Mg406 2.010 . S
O419 C411 1.249 . S
Mg420 O421 2.028 . S
Mg420 O427 1.986 . S
Mg420 O429 2.114 . S
Mg420 O430 2.251 . S
Mg420 O433 2.010 . S
O421 Mg420 2.028 . S
O421 C424 1.250 . S
O422 Mg423 2.026 1_545 S
O422 C424 1.243 1_545 S
Mg423 O422 2.026 1_565 S
Mg423 O428 2.032 . S
Mg423 O430 2.079 . S
C424 O421 1.250 . S
C424 O422 1.243 1_565 S
C425 O426 1.264 . S
C425 O433 1.249 . S
O426 C425 1.264 . S
O427 Mg420 1.986 . S
O427 C431 1.246 . S
O428 Mg423 2.032 . S
O428 C431 1.259 . S
O429 Mg420 2.114 . S
O429 C432 1.252 . S
O430 Mg420 2.251 . S
O430 Mg423 2.079 . S
O430 C432 1.273 . S
C431 O427 1.246 . S
C431 O428 1.259 . S
C432 O429 1.252 . S
C432 O430 1.273 . S
O433 Mg420 2.010 . S
O433 C425 1.249 . S
Mg434 O435 2.028 . S
Mg434 O441 1.986 . S
Mg434 O443 2.114 . S
Mg434 O444 2.251 . S
Mg434 O447 2.010 . S
O435 Mg434 2.028 . S
O435 C438 1.250 . S
O436 Mg437 2.028 . S
O436 C438 1.248 . S
Mg437 O436 2.028 . S
Mg437 O442 2.032 . S
Mg437 O444 2.079 . S
C438 O435 1.250 . S
C438 O436 1.248 . S
C439 O440 1.264 . S
C439 O447 1.249 . S
O440 C439 1.264 . S
O441 Mg434 1.986 . S
O441 C445 1.246 . S
O442 Mg437 2.032 . S
O442 C445 1.259 . S
O443 Mg434 2.114 . S
O443 C446 1.252 . S
O444 Mg434 2.251 . S
O444 Mg437 2.079 . S
O444 C446 1.273 . S
C445 O441 1.246 . S
C445 O442 1.259 . S
C446 O443 1.252 . S
C446 O444 1.273 . S
O447 Mg434 2.010 . S
O447 C439 1.249 . S
Mg448 O449 2.028 . S
Mg448 O455 1.986 . S
Mg448 O457 2.114 . S
Mg448 O458 2.251 . S
Mg448 O461 2.010 . S
O449 Mg448 2.028 . S
O449 C452 1.250 . S
O450 Mg451 2.022 1_554 S
O450 C452 1.231 1_554 S
Mg451 O450 2.022 1_556 S
Mg451 O456 2.032 . S
Mg451 O458 2.079 . S
C452 O449 1.250 . S
C452 O450 1.231 1_556 S
C453 O454 1.264 . S
C453 O461 1.249 . S
O454 C453 1.264 . S
O455 Mg448 1.986 . S
O455 C459 1.246 . S
O456 Mg451 2.032 . S
O456 C459 1.259 . S
O457 Mg448 2.114 . S
O457 C460 1.252 . S
O458 Mg448 2.251 . S
O458 Mg451 2.079 . S
O458 C460 1.273 . S
C459 O455 1.246 . S
C459 O456 1.259 . S
C460 O457 1.252 . S
C460 O458 1.273 . S
O461 Mg448 2.010 . S
O461 C453 1.249 . S
Mg462 O463 2.028 . S
Mg462 O469 1.986 . S
Mg462 O471 2.114 . S
Mg462 O472 2.251 . S
Mg462 O475 2.010 . S
O463 Mg462 2.028 . S
O463 C466 1.250 . S
O464 Mg465 2.022 1_554 S
O464 C466 1.229 1_554 S
Mg465 O464 2.022 1_556 S
Mg465 O470 2.032 . S
Mg465 O472 2.079 . S
C466 O463 1.250 . S
C466 O464 1.229 1_556 S
C467 O468 1.264 . S
C467 O475 1.249 . S
O468 C467 1.264 . S
O469 Mg462 1.986 . S
O469 C473 1.246 . S
O470 Mg465 2.032 . S
O470 C473 1.259 . S
O471 Mg462 2.114 . S
O471 C474 1.252 . S
O472 Mg462 2.251 . S
O472 Mg465 2.079 . S
O472 C474 1.273 . S
C473 O469 1.246 . S
C473 O470 1.259 . S
C474 O471 1.252 . S
C474 O472 1.273 . S
O475 Mg462 2.010 . S
O475 C467 1.249 . S
Mg476 O477 2.028 . S
Mg476 O483 1.986 . S
Mg476 O485 2.114 . S
Mg476 O486 2.251 . S
Mg476 O489 2.010 . S
O477 Mg476 2.028 . S
O477 C480 1.250 . S
O478 Mg479 2.026 1_554 S
O478 C480 1.243 1_554 S
Mg479 O478 2.026 1_556 S
Mg479 O484 2.032 . S
Mg479 O486 2.079 . S
C480 O477 1.250 . S
C480 O478 1.243 1_556 S
C481 O482 1.264 . S
C481 O489 1.249 . S
O482 C481 1.264 . S
O483 Mg476 1.986 . S
O483 C487 1.246 . S
O484 Mg479 2.032 . S
O484 C487 1.259 . S
O485 Mg476 2.114 . S
O485 C488 1.252 . S
O486 Mg476 2.251 . S
O486 Mg479 2.079 . S
O486 C488 1.273 . S
C487 O483 1.246 . S
C487 O484 1.259 . S
C488 O485 1.252 . S
C488 O486 1.273 . S
O489 Mg476 2.010 . S
O489 C481 1.249 . S
Mg490 O491 2.028 . S
Mg490 O497 1.986 . S
Mg490 O499 2.114 . S
Mg490 O500 2.251 . S
Mg490 O503 2.010 . S
O491 Mg490 2.028 . S
O491 C494 1.250 . S
O492 Mg493 2.025 1_554 S
O492 C494 1.240 1_554 S
Mg493 O492 2.025 1_556 S
Mg493 O498 2.032 . S
Mg493 O500 2.079 . S
C494 O491 1.250 . S
C494 O492 1.240 1_556 S
C495 O496 1.264 . S
C495 O503 1.249 . S
O496 C495 1.264 . S
O497 Mg490 1.986 . S
O497 C501 1.246 . S
O498 Mg493 2.032 . S
O498 C501 1.259 . S
O499 Mg490 2.114 . S
O499 C502 1.252 . S
O500 Mg490 2.251 . S
O500 Mg493 2.079 . S
O500 C502 1.273 . S
C501 O497 1.246 . S
C501 O498 1.259 . S
C502 O499 1.252 . S
C502 O500 1.273 . S
O503 Mg490 2.010 . S
O503 C495 1.249 . S
Mg504 O505 2.028 . S
Mg504 O511 1.986 . S
Mg504 O513 2.114 . S
Mg504 O514 2.251 . S
Mg504 O517 2.010 . S
O505 Mg504 2.028 . S
O505 C508 1.250 . S
O506 Mg507 2.028 . S
O506 C508 1.248 . S
Mg507 O506 2.028 . S
Mg507 O512 2.032 . S
Mg507 O514 2.079 . S
C508 O505 1.250 . S
C508 O506 1.248 . S
C509 O510 1.264 . S
C509 O517 1.249 . S
O510 C509 1.264 . S
O511 Mg504 1.986 . S
O511 C515 1.246 . S
O512 Mg507 2.032 . S
O512 C515 1.259 . S
O513 Mg504 2.114 . S
O513 C516 1.252 . S
O514 Mg504 2.251 . S
O514 Mg507 2.079 . S
O514 C516 1.273 . S
C515 O511 1.246 . S
C515 O512 1.259 . S
C516 O513 1.252 . S
C516 O514 1.273 . S
O517 Mg504 2.010 . S
O517 C509 1.249 . S
Mg518 O519 2.028 . S
Mg518 O525 1.986 . S
Mg518 O527 2.114 . S
Mg518 O528 2.251 . S
Mg518 O531 2.010 . S
O519 Mg518 2.028 . S
O519 C522 1.250 . S
O520 Mg521 2.028 . S
O520 C522 1.248 . S
Mg521 O520 2.028 . S
Mg521 O526 2.032 . S
Mg521 O528 2.079 . S
C522 O519 1.250 . S
C522 O520 1.248 . S
C523 O524 1.264 . S
C523 O531 1.249 . S
O524 C523 1.264 . S
O525 Mg518 1.986 . S
O525 C529 1.246 . S
O526 Mg521 2.032 . S
O526 C529 1.259 . S
O527 Mg518 2.114 . S
O527 C530 1.252 . S
O528 Mg518 2.251 . S
O528 Mg521 2.079 . S
O528 C530 1.273 . S
C529 O525 1.246 . S
C529 O526 1.259 . S
C530 O527 1.252 . S
C530 O528 1.273 . S
O531 Mg518 2.010 . S
O531 C523 1.249 . S
Mg532 O533 2.028 . S
Mg532 O539 1.986 . S
Mg532 O541 2.114 . S
Mg532 O542 2.251 . S
Mg532 O545 2.010 . S
O533 Mg532 2.028 . S
O533 C536 1.250 . S
O534 Mg535 2.028 . S
O534 C536 1.248 . S
Mg535 O534 2.028 . S
Mg535 O540 2.032 . S
Mg535 O542 2.079 . S
C536 O533 1.250 . S
C536 O534 1.248 . S
C537 O538 1.264 . S
C537 O545 1.249 . S
O538 C537 1.264 . S
O539 Mg532 1.986 . S
O539 C543 1.246 . S
O540 Mg535 2.032 . S
O540 C543 1.259 . S
O541 Mg532 2.114 . S
O541 C544 1.252 . S
O542 Mg532 2.251 . S
O542 Mg535 2.079 . S
O542 C544 1.273 . S
C543 O539 1.246 . S
C543 O540 1.259 . S
C544 O541 1.252 . S
C544 O542 1.273 . S
O545 Mg532 2.010 . S
O545 C537 1.249 . S
Mg546 O547 2.028 . S
Mg546 O553 1.986 . S
Mg546 O555 2.114 . S
Mg546 O556 2.251 . S
Mg546 O559 2.010 . S
O547 Mg546 2.028 . S
O547 C550 1.250 . S
O548 Mg549 2.028 . S
O548 C550 1.248 . S
Mg549 O548 2.028 . S
Mg549 O554 2.032 . S
Mg549 O556 2.079 . S
C550 O547 1.250 . S
C550 O548 1.248 . S
C551 O552 1.264 . S
C551 O559 1.249 . S
O552 C551 1.264 . S
O553 Mg546 1.986 . S
O553 C557 1.246 . S
O554 Mg549 2.032 . S
O554 C557 1.259 . S
O555 Mg546 2.114 . S
O555 C558 1.252 . S
O556 Mg546 2.251 . S
O556 Mg549 2.079 . S
O556 C558 1.273 . S
C557 O553 1.246 . S
C557 O554 1.259 . S
C558 O555 1.252 . S
C558 O556 1.273 . S
O559 Mg546 2.010 . S
O559 C551 1.249 . S
Mg560 O561 2.028 . S
Mg560 O567 1.986 . S
Mg560 O569 2.114 . S
Mg560 O570 2.251 . S
Mg560 O573 2.010 . S
O561 Mg560 2.028 . S
O561 C564 1.250 . S
O562 Mg563 2.022 1_455 S
O562 C564 1.231 1_455 S
Mg563 O562 2.022 1_655 S
Mg563 O568 2.032 . S
Mg563 O570 2.079 . S
C564 O561 1.250 . S
C564 O562 1.231 1_655 S
C565 O566 1.264 . S
C565 O573 1.249 . S
O566 C565 1.264 . S
O567 Mg560 1.986 . S
O567 C571 1.246 . S
O568 Mg563 2.032 . S
O568 C571 1.259 . S
O569 Mg560 2.114 . S
O569 C572 1.252 . S
O570 Mg560 2.251 . S
O570 Mg563 2.079 . S
O570 C572 1.273 . S
C571 O567 1.246 . S
C571 O568 1.259 . S
C572 O569 1.252 . S
C572 O570 1.273 . S
O573 Mg560 2.010 . S
O573 C565 1.249 . S
Mg574 O575 2.028 . S
Mg574 O581 1.986 . S
Mg574 O583 2.114 . S
Mg574 O584 2.251 . S
Mg574 O587 2.010 . S
O575 Mg574 2.028 . S
O575 C578 1.250 . S
O576 Mg577 2.026 1_455 S
O576 C578 1.243 1_455 S
Mg577 O576 2.026 1_655 S
Mg577 O582 2.032 . S
Mg577 O584 2.079 . S
C578 O575 1.250 . S
C578 O576 1.243 1_655 S
C579 O580 1.264 . S
C579 O587 1.249 . S
O580 C579 1.264 . S
O581 Mg574 1.986 . S
O581 C585 1.246 . S
O582 Mg577 2.032 . S
O582 C585 1.259 . S
O583 Mg574 2.114 . S
O583 C586 1.252 . S
O584 Mg574 2.251 . S
O584 Mg577 2.079 . S
O584 C586 1.273 . S
C585 O581 1.246 . S
C585 O582 1.259 . S
C586 O583 1.252 . S
C586 O584 1.273 . S
O587 Mg574 2.010 . S
O587 C579 1.249 . S
Mg588 O589 2.028 . S
Mg588 O595 1.986 . S
Mg588 O597 2.114 . S
Mg588 O598 2.251 . S
Mg588 O601 2.010 . S
O589 Mg588 2.028 . S
O589 C592 1.250 . S
O590 Mg591 2.022 1_545 S
O590 C592 1.229 1_545 S
Mg591 O590 2.022 1_565 S
Mg591 O596 2.032 . S
Mg591 O598 2.079 . S
C592 O589 1.250 . S
C592 O590 1.229 1_565 S
C593 O594 1.264 . S
C593 O601 1.249 . S
O594 C593 1.264 . S
O595 Mg588 1.986 . S
O595 C599 1.246 . S
O596 Mg591 2.032 . S
O596 C599 1.259 . S
O597 Mg588 2.114 . S
O597 C600 1.252 . S
O598 Mg588 2.251 . S
O598 Mg591 2.079 . S
O598 C600 1.273 . S
C599 O595 1.246 . S
C599 O596 1.259 . S
C600 O597 1.252 . S
C600 O598 1.273 . S
O601 Mg588 2.010 . S
O601 C593 1.249 . S
Mg602 O603 2.028 . S
Mg602 O609 1.986 . S
Mg602 O611 2.114 . S
Mg602 O612 2.251 . S
Mg602 O615 2.010 . S
O603 Mg602 2.028 . S
O603 C606 1.250 . S
O604 Mg605 2.028 . S
O604 C606 1.248 . S
Mg605 O604 2.028 . S
Mg605 O610 2.032 . S
Mg605 O612 2.079 . S
C606 O603 1.250 . S
C606 O604 1.248 . S
C607 O608 1.264 . S
C607 O615 1.249 . S
O608 C607 1.264 . S
O609 Mg602 1.986 . S
O609 C613 1.246 . S
O610 Mg605 2.032 . S
O610 C613 1.259 . S
O611 Mg602 2.114 . S
O611 C614 1.252 . S
O612 Mg602 2.251 . S
O612 Mg605 2.079 . S
O612 C614 1.273 . S
C613 O609 1.246 . S
C613 O610 1.259 . S
C614 O611 1.252 . S
C614 O612 1.273 . S
O615 Mg602 2.010 . S
O615 C607 1.249 . S
Mg616 O617 2.028 . S
Mg616 O623 1.986 . S
Mg616 O625 2.114 . S
Mg616 O626 2.251 . S
Mg616 O629 2.010 . S
O617 Mg616 2.028 . S
O617 C620 1.250 . S
O618 Mg619 2.028 . S
O618 C620 1.248 . S
Mg619 O618 2.028 . S
Mg619 O624 2.032 . S
Mg619 O626 2.079 . S
C620 O617 1.250 . S
C620 O618 1.248 . S
C621 O622 1.264 . S
C621 O629 1.249 . S
O622 C621 1.264 . S
O623 Mg616 1.986 . S
O623 C627 1.246 . S
O624 Mg619 2.032 . S
O624 C627 1.259 . S
O625 Mg616 2.114 . S
O625 C628 1.252 . S
O626 Mg616 2.251 . S
O626 Mg619 2.079 . S
O626 C628 1.273 . S
C627 O623 1.246 . S
C627 O624 1.259 . S
C628 O625 1.252 . S
C628 O626 1.273 . S
O629 Mg616 2.010 . S
O629 C621 1.249 . S
Mg630 O631 2.028 . S
Mg630 O637 1.986 . S
Mg630 O639 2.114 . S
Mg630 O640 2.251 . S
Mg630 O643 2.010 . S
O631 Mg630 2.028 . S
O631 C634 1.250 . S
O632 Mg633 2.028 . S
O632 C634 1.248 . S
Mg633 O632 2.028 . S
Mg633 O638 2.032 . S
Mg633 O640 2.079 . S
C634 O631 1.250 . S
C634 O632 1.248 . S
C635 O636 1.264 . S
C635 O643 1.249 . S
O636 C635 1.264 . S
O637 Mg630 1.986 . S
O637 C641 1.246 . S
O638 Mg633 2.032 . S
O638 C641 1.259 . S
O639 Mg630 2.114 . S
O639 C642 1.252 . S
O640 Mg630 2.251 . S
O640 Mg633 2.079 . S
O640 C642 1.273 . S
C641 O637 1.246 . S
C641 O638 1.259 . S
C642 O639 1.252 . S
C642 O640 1.273 . S
O643 Mg630 2.010 . S
O643 C635 1.249 . S
Mg644 O645 2.028 . S
Mg644 O651 1.986 . S
Mg644 O653 2.114 . S
Mg644 O654 2.251 . S
Mg644 O657 2.010 . S
O645 Mg644 2.028 . S
O645 C648 1.250 . S
O646 Mg647 2.028 . S
O646 C648 1.248 . S
Mg647 O646 2.028 . S
Mg647 O652 2.032 . S
Mg647 O654 2.079 . S
C648 O645 1.250 . S
C648 O646 1.248 . S
C649 O650 1.264 . S
C649 O657 1.249 . S
O650 C649 1.264 . S
O651 Mg644 1.986 . S
O651 C655 1.246 . S
O652 Mg647 2.032 . S
O652 C655 1.259 . S
O653 Mg644 2.114 . S
O653 C656 1.252 . S
O654 Mg644 2.251 . S
O654 Mg647 2.079 . S
O654 C656 1.273 . S
C655 O651 1.246 . S
C655 O652 1.259 . S
C656 O653 1.252 . S
C656 O654 1.273 . S
O657 Mg644 2.010 . S
O657 C649 1.249 . S
Mg658 O659 2.028 . S
Mg658 O665 1.986 . S
Mg658 O667 2.114 . S
Mg658 O668 2.251 . S
Mg658 O671 2.010 . S
O659 Mg658 2.028 . S
O659 C662 1.250 . S
O660 Mg661 2.025 1_545 S
O660 C662 1.240 1_545 S
Mg661 O660 2.025 1_565 S
Mg661 O666 2.032 . S
Mg661 O668 2.079 . S
C662 O659 1.250 . S
C662 O660 1.240 1_565 S
C663 O664 1.264 . S
C663 O671 1.249 . S
O664 C663 1.264 . S
O665 Mg658 1.986 . S
O665 C669 1.246 . S
O666 Mg661 2.032 . S
O666 C669 1.259 . S
O667 Mg658 2.114 . S
O667 C670 1.252 . S
O668 Mg658 2.251 . S
O668 Mg661 2.079 . S
O668 C670 1.273 . S
C669 O665 1.246 . S
C669 O666 1.259 . S
C670 O667 1.252 . S
C670 O668 1.273 . S
O671 Mg658 2.010 . S
O671 C663 1.249 . S
H672 C678 0.930 . S
H673 C682 0.930 . S
H674 C687 0.929 . S
H675 C685 0.929 1_655 S
H676 C680 0.929 . S
H677 C686 0.929 . S
C678 H672 0.930 . S
C678 C679 1.367 . S
C678 C686 1.378 . S
C679 C678 1.367 . S
C679 C687 1.433 . S
C680 H676 0.929 . S
C680 C682 1.378 . S
C680 C684 1.350 . S
C681 C684 1.463 . S
C681 C686 1.350 . S
C681 N689 1.427 . S
C682 H673 0.930 . S
C682 C680 1.378 . S
C682 C683 1.367 . S
C683 C682 1.367 . S
C683 C685 1.433 . S
C684 C680 1.350 . S
C684 C681 1.463 . S
C684 N688 1.427 . S
C685 H675 0.929 1_455 S
C685 C683 1.433 . S
C685 N688 1.384 . S
C686 H677 0.929 . S
C686 C678 1.378 . S
C686 C681 1.350 . S
C687 H674 0.929 . S
C687 C679 1.433 . S
C687 N689 1.384 . S
N688 C684 1.427 . S
N688 C685 1.384 . S
N689 C681 1.427 . S
N689 C687 1.384 . S
H690 C696 0.930 . S
H691 C700 0.947 . S
H692 C705 0.929 . S
H693 C703 0.929 . S
H694 C698 0.929 . S
H695 C704 0.929 . S
C696 H690 0.930 . S
C696 C697 1.367 . S
C696 C704 1.378 . S
C697 C696 1.367 . S
C697 C705 1.433 . S
C698 H694 0.929 . S
C698 C700 1.378 . S
C698 C702 1.350 . S
C699 C702 1.463 . S
C699 C704 1.350 . S
C699 N707 1.427 . S
C700 H691 0.947 . S
C700 C698 1.378 . S
C700 C701 1.367 . S
C701 C700 1.367 . S
C701 C703 1.433 . S
C702 C698 1.350 . S
C702 C699 1.463 . S
C702 N706 1.427 . S
C703 H693 0.929 . S
C703 C701 1.433 . S
C703 N706 1.384 . S
C704 H695 0.929 . S
C704 C696 1.378 . S
C704 C699 1.350 . S
C705 H692 0.929 . S
C705 C697 1.433 . S
C705 N707 1.384 . S
N706 C702 1.427 . S
N706 C703 1.384 . S
N707 C699 1.427 . S
N707 C705 1.384 . S
H708 C714 0.930 . S
H709 C718 0.930 1_655 S
H710 C723 0.929 . S
H711 C721 0.929 . S
H712 C716 0.929 . S
H713 C722 0.929 . S
C714 H708 0.930 . S
C714 C715 1.367 . S
C714 C722 1.378 . S
C715 C714 1.367 . S
C715 C723 1.433 . S
C716 H712 0.929 . S
C716 C718 1.378 . S
C716 C720 1.350 . S
C717 C720 1.463 . S
C717 C722 1.350 . S
C717 N725 1.427 . S
C718 H709 0.930 1_455 S
C718 C716 1.378 . S
C718 C719 1.367 . S
C719 C718 1.367 . S
C719 C721 1.433 . S
C720 C716 1.350 . S
C720 C717 1.463 . S
C720 N724 1.427 . S
C721 H711 0.929 . S
C721 C719 1.433 . S
C721 N724 1.384 . S
C722 H713 0.929 . S
C722 C714 1.378 . S
C722 C717 1.350 . S
C723 H710 0.929 . S
C723 C715 1.433 . S
C723 N725 1.384 . S
N724 C720 1.427 . S
N724 C721 1.384 . S
N725 C717 1.427 . S
N725 C723 1.384 . S
H726 C732 0.930 . S
H727 C736 0.930 . S
H728 C741 0.929 . S
H729 C739 0.940 . S
H730 C734 0.929 . S
H731 C740 0.929 . S
C732 H726 0.930 . S
C732 C733 1.367 . S
C732 C740 1.378 . S
C733 C732 1.367 . S
C733 C741 1.433 . S
C734 H730 0.929 . S
C734 C736 1.378 . S
C734 C738 1.350 . S
C735 C738 1.463 . S
C735 C740 1.350 . S
C735 N743 1.427 . S
C736 H727 0.930 . S
C736 C734 1.378 . S
C736 C737 1.367 . S
C737 C736 1.367 . S
C737 C739 1.433 . S
C738 C734 1.350 . S
C738 C735 1.463 . S
C738 N742 1.427 . S
C739 H729 0.940 . S
C739 C737 1.433 . S
C739 N742 1.384 . S
C740 H731 0.929 . S
C740 C732 1.378 . S
C740 C735 1.350 . S
C741 H728 0.929 . S
C741 C733 1.433 . S
C741 N743 1.384 . S
N742 C738 1.427 . S
N742 C739 1.384 . S
N743 C735 1.427 . S
N743 C741 1.384 . S
H744 C750 0.930 . S
H745 C754 0.930 . S
H746 C759 0.929 . S
H747 C757 0.929 1_565 S
H748 C752 0.929 . S
H749 C758 0.929 . S
C750 H744 0.930 . S
C750 C751 1.367 . S
C750 C758 1.378 . S
C751 C750 1.367 . S
C751 C759 1.433 . S
C752 H748 0.929 . S
C752 C754 1.378 . S
C752 C756 1.350 . S
C753 C756 1.463 . S
C753 C758 1.350 . S
C753 N761 1.427 . S
C754 H745 0.930 . S
C754 C752 1.378 . S
C754 C755 1.367 . S
C755 C754 1.367 . S
C755 C757 1.433 . S
C756 C752 1.350 . S
C756 C753 1.463 . S
C756 N760 1.427 . S
C757 H747 0.929 1_545 S
C757 C755 1.433 . S
C757 N760 1.384 . S
C758 H749 0.929 . S
C758 C750 1.378 . S
C758 C753 1.350 . S
C759 H746 0.929 . S
C759 C751 1.433 . S
C759 N761 1.384 . S
N760 C756 1.427 . S
N760 C757 1.384 . S
N761 C753 1.427 . S
N761 C759 1.384 . S
H762 C768 0.930 . S
H763 C772 0.930 . S
H764 C777 0.929 1_655 S
H765 C775 0.929 . S
H766 C770 0.929 . S
H767 C776 0.929 . S
C768 H762 0.930 . S
C768 C769 1.367 . S
C768 C776 1.378 . S
C769 C768 1.367 . S
C769 C777 1.433 . S
C770 H766 0.929 . S
C770 C772 1.378 . S
C770 C774 1.350 . S
C771 C774 1.463 . S
C771 C776 1.350 . S
C771 N779 1.427 . S
C772 H763 0.930 . S
C772 C770 1.378 . S
C772 C773 1.367 . S
C773 C772 1.367 . S
C773 C775 1.433 . S
C774 C770 1.350 . S
C774 C771 1.463 . S
C774 N778 1.427 . S
C775 H765 0.929 . S
C775 C773 1.433 . S
C775 N778 1.384 . S
C776 H767 0.929 . S
C776 C768 1.378 . S
C776 C771 1.350 . S
C777 H764 0.929 1_455 S
C777 C769 1.433 . S
C777 N779 1.384 . S
N778 C774 1.427 . S
N778 C775 1.384 . S
N779 C771 1.427 . S
N779 C777 1.384 . S
H780 C786 0.930 . S
H781 C790 0.930 . S
H782 C795 0.929 1_565 S
H783 C793 0.929 . S
H784 C788 0.929 . S
H785 C794 0.929 . S
C786 H780 0.930 . S
C786 C787 1.367 . S
C786 C794 1.378 . S
C787 C786 1.367 . S
C787 C795 1.433 . S
C788 H784 0.929 . S
C788 C790 1.378 . S
C788 C792 1.350 . S
C789 C792 1.463 . S
C789 C794 1.350 . S
C789 N797 1.427 . S
C790 H781 0.930 . S
C790 C788 1.378 . S
C790 C791 1.367 . S
C791 C790 1.367 . S
C791 C793 1.433 . S
C792 C788 1.350 . S
C792 C789 1.463 . S
C792 N796 1.427 . S
C793 H783 0.929 . S
C793 C791 1.433 . S
C793 N796 1.384 . S
C794 H785 0.929 . S
C794 C786 1.378 . S
C794 C789 1.350 . S
C795 H782 0.929 1_545 S
C795 C787 1.433 . S
C795 N797 1.384 . S
N796 C792 1.427 . S
N796 C793 1.384 . S
N797 C789 1.427 . S
N797 C795 1.384 . S
H798 C804 0.930 . S
H799 C808 0.914 1_655 S
H800 C813 0.929 . S
H801 C811 0.929 . S
H802 C806 0.929 . S
H803 C812 0.929 . S
C804 H798 0.930 . S
C804 C805 1.367 . S
C804 C812 1.378 . S
C805 C804 1.367 . S
C805 C813 1.433 . S
C806 H802 0.929 . S
C806 C808 1.378 . S
C806 C810 1.350 . S
C807 C810 1.463 . S
C807 C812 1.350 . S
C807 N815 1.427 . S
C808 H799 0.914 1_455 S
C808 C806 1.378 . S
C808 C809 1.367 . S
C809 C808 1.367 . S
C809 C811 1.433 . S
C810 C806 1.350 . S
C810 C807 1.463 . S
C810 N814 1.427 . S
C811 H801 0.929 . S
C811 C809 1.433 . S
C811 N814 1.384 . S
C812 H803 0.929 . S
C812 C804 1.378 . S
C812 C807 1.350 . S
C813 H800 0.929 . S
C813 C805 1.433 . S
C813 N815 1.384 . S
N814 C810 1.427 . S
N814 C811 1.384 . S
N815 C807 1.427 . S
N815 C813 1.384 . S
H816 C822 0.930 . S
H817 C826 0.930 . S
H818 C831 0.924 1_556 S
H819 C829 0.929 . S
H820 C824 0.929 . S
H821 C830 0.929 . S
C822 H816 0.930 . S
C822 C823 1.367 . S
C822 C830 1.378 . S
C823 C822 1.367 . S
C823 C831 1.433 . S
C824 H820 0.929 . S
C824 C826 1.378 . S
C824 C828 1.350 . S
C825 C828 1.463 . S
C825 C830 1.350 . S
C825 N833 1.427 . S
C826 H817 0.930 . S
C826 C824 1.378 . S
C826 C827 1.367 . S
C827 C826 1.367 . S
C827 C829 1.433 . S
C828 C824 1.350 . S
C828 C825 1.463 . S
C828 N832 1.427 . S
C829 H819 0.929 . S
C829 C827 1.433 . S
C829 N832 1.384 . S
C830 H821 0.929 . S
C830 C822 1.378 . S
C830 C825 1.350 . S
C831 H818 0.924 1_554 S
C831 C823 1.433 . S
C831 N833 1.384 . S
N832 C828 1.427 . S
N832 C829 1.384 . S
N833 C825 1.427 . S
N833 C831 1.384 . S
H834 C840 0.930 . S
H835 C844 0.930 . S
H836 C849 0.869 1_556 S
H837 C847 0.929 . S
H838 C842 0.929 . S
H839 C848 0.929 . S
C840 H834 0.930 . S
C840 C841 1.367 . S
C840 C848 1.378 . S
C841 C840 1.367 . S
C841 C849 1.465 . S
C842 H838 0.929 . S
C842 C844 1.378 . S
C842 C846 1.350 . S
C843 C846 1.463 . S
C843 C848 1.350 . S
C843 N851 1.427 . S
C844 H835 0.930 . S
C844 C842 1.378 . S
C844 C845 1.367 . S
C845 C844 1.367 . S
C845 C847 1.433 . S
C846 C842 1.350 . S
C846 C843 1.463 . S
C846 N850 1.427 . S
C847 H837 0.929 . S
C847 C845 1.433 . S
C847 N850 1.384 . S
C848 H839 0.929 . S
C848 C840 1.378 . S
C848 C843 1.350 . S
C849 H836 0.869 1_554 S
C849 C841 1.465 . S
C849 N851 1.417 . S
N850 C846 1.427 . S
N850 C847 1.384 . S
N851 C843 1.427 . S
N851 C849 1.417 . S
H852 C858 0.930 . S
H853 C862 0.930 . S
H854 C867 0.929 . S
H855 C865 0.929 1_556 S
H856 C860 0.929 . S
H857 C866 0.929 . S
C858 H852 0.930 . S
C858 C859 1.367 . S
C858 C866 1.378 . S
C859 C858 1.367 . S
C859 C867 1.433 . S
C860 H856 0.929 . S
C860 C862 1.378 . S
C860 C864 1.350 . S
C861 C864 1.463 . S
C861 C866 1.350 . S
C861 N869 1.427 . S
C862 H853 0.930 . S
C862 C860 1.378 . S
C862 C863 1.367 . S
C863 C862 1.367 . S
C863 C865 1.433 . S
C864 C860 1.350 . S
C864 C861 1.463 . S
C864 N868 1.427 . S
C865 H855 0.929 1_554 S
C865 C863 1.433 . S
C865 N868 1.384 . S
C866 H857 0.929 . S
C866 C858 1.378 . S
C866 C861 1.350 . S
C867 H854 0.929 . S
C867 C859 1.433 . S
C867 N869 1.384 . S
N868 C864 1.427 . S
N868 C865 1.384 . S
N869 C861 1.427 . S
N869 C867 1.384 . S
H870 C876 0.930 . S
H871 C880 0.930 . S
H872 C885 0.929 . S
H873 C883 0.929 . S
H874 C878 0.929 . S
H875 C884 0.929 . S
C876 H870 0.930 . S
C876 C877 1.367 . S
C876 C884 1.378 . S
C877 C876 1.367 . S
C877 C885 1.433 . S
C878 H874 0.929 . S
C878 C880 1.378 . S
C878 C882 1.350 . S
C879 C882 1.463 . S
C879 C884 1.350 . S
C879 N887 1.427 . S
C880 H871 0.930 . S
C880 C878 1.378 . S
C880 C881 1.367 . S
C881 C880 1.367 . S
C881 C883 1.433 . S
C882 C878 1.350 . S
C882 C879 1.463 . S
C882 N886 1.427 . S
C883 H873 0.929 . S
C883 C881 1.433 . S
C883 N886 1.384 . S
C884 H875 0.929 . S
C884 C876 1.378 . S
C884 C879 1.350 . S
C885 H872 0.929 . S
C885 C877 1.433 . S
C885 N887 1.384 . S
N886 C882 1.427 . S
N886 C883 1.384 . S
N887 C879 1.427 . S
N887 C885 1.384 . S
H888 C894 0.930 . S
H889 C898 0.930 . S
H890 C903 0.929 . S
H891 C901 0.929 . S
H892 C896 0.929 . S
H893 C902 0.929 . S
C894 H888 0.930 . S
C894 C895 1.367 1_545 S
C894 C902 1.378 . S
C895 C894 1.367 1_565 S
C895 C903 1.433 . S
C896 H892 0.929 . S
C896 C898 1.378 . S
C896 C900 1.350 . S
C897 C900 1.463 . S
C897 C902 1.350 . S
C897 N905 1.427 . S
C898 H889 0.930 . S
C898 C896 1.378 . S
C898 C899 1.367 . S
C899 C898 1.367 . S
C899 C901 1.433 . S
C900 C896 1.350 . S
C900 C897 1.463 . S
C900 N904 1.427 . S
C901 H891 0.929 . S
C901 C899 1.433 . S
C901 N904 1.384 . S
C902 H893 0.929 . S
C902 C894 1.378 . S
C902 C897 1.350 . S
C903 H890 0.929 . S
C903 C895 1.433 . S
C903 N905 1.384 1_565 S
N904 C900 1.427 . S
N904 C901 1.384 . S
N905 C897 1.427 . S
N905 C903 1.384 1_545 S
H906 C912 0.930 . S
H907 C916 0.930 . S
H908 C921 0.902 1_655 S
H909 C919 0.929 . S
H910 C914 0.929 . S
H911 C920 0.929 . S
C912 H906 0.930 . S
C912 C913 1.367 1_455 S
C912 C920 1.378 . S
C913 C912 1.367 1_655 S
C913 C921 1.419 1_655 S
C914 H910 0.929 . S
C914 C916 1.378 . S
C914 C918 1.350 . S
C915 C918 1.463 . S
C915 C920 1.350 . S
C915 N923 1.427 . S
C916 H907 0.930 . S
C916 C914 1.378 . S
C916 C917 1.367 . S
C917 C916 1.367 . S
C917 C919 1.433 . S
C918 C914 1.350 . S
C918 C915 1.463 . S
C918 N922 1.427 . S
C919 H909 0.929 . S
C919 C917 1.433 . S
C919 N922 1.384 . S
C920 H911 0.929 . S
C920 C912 1.378 . S
C920 C915 1.350 . S
C921 H908 0.902 1_455 S
C921 C913 1.419 1_455 S
C921 N923 1.428 . S
N922 C918 1.427 . S
N922 C919 1.384 . S
N923 C915 1.427 . S
N923 C921 1.428 . S
H924 C930 0.930 . S
H925 C934 0.928 1_565 S
H926 C939 0.929 . S
H927 C937 0.898 1_565 S
H928 C932 0.929 . S
H929 C938 0.929 . S
C930 H924 0.930 . S
C930 C931 1.367 . S
C930 C938 1.378 . S
C931 C930 1.367 . S
C931 C939 1.433 . S
C932 H928 0.929 . S
C932 C934 1.378 . S
C932 C936 1.350 . S
C933 C936 1.463 . S
C933 C938 1.350 . S
C933 N941 1.427 . S
C934 H925 0.928 1_545 S
C934 C932 1.378 . S
C934 C935 1.367 1_545 S
C935 C934 1.367 1_565 S
C935 C937 1.415 1_565 S
C936 C932 1.350 . S
C936 C933 1.463 . S
C936 N940 1.427 . S
C937 H927 0.898 1_545 S
C937 C935 1.415 1_545 S
C937 N940 1.438 . S
C938 H929 0.929 . S
C938 C930 1.378 . S
C938 C933 1.350 . S
C939 H926 0.929 . S
C939 C931 1.433 . S
C939 N941 1.384 . S
N940 C936 1.427 . S
N940 C937 1.438 . S
N941 C933 1.427 . S
N941 C939 1.384 . S
H942 C948 0.930 . S
H943 C952 0.969 . S
H944 C957 0.929 . S
H945 C955 0.929 . S
H946 C950 0.929 . S
H947 C956 0.929 . S
C948 H942 0.930 . S
C948 C949 1.367 . S
C948 C956 1.378 . S
C949 C948 1.367 . S
C949 C957 1.433 . S
C950 H946 0.929 . S
C950 C952 1.326 1_455 S
C950 C954 1.350 . S
C951 C954 1.463 . S
C951 C956 1.350 . S
C951 N959 1.427 . S
C952 H943 0.969 . S
C952 C950 1.326 1_655 S
C952 C953 1.382 . S
C953 C952 1.382 . S
C953 C955 1.433 1_655 S
C954 C950 1.350 . S
C954 C951 1.463 . S
C954 N958 1.427 . S
C955 H945 0.929 . S
C955 C953 1.433 1_455 S
C955 N958 1.384 . S
C956 H947 0.929 . S
C956 C948 1.378 . S
C956 C951 1.350 . S
C957 H944 0.929 . S
C957 C949 1.433 . S
C957 N959 1.384 . S
N958 C954 1.427 . S
N958 C955 1.384 . S
N959 C951 1.427 . S
N959 C957 1.384 . S
H960 C966 0.929 1_556 S
H961 C970 0.930 . S
H962 C975 0.929 . S
H963 C973 0.929 . S
H964 C968 0.929 . S
H965 C974 0.929 . S
C966 H960 0.929 1_554 S
C966 C967 1.366 1_554 S
C966 C974 1.379 . S
C967 C966 1.366 1_556 S
C967 C975 1.433 1_556 S
C968 H964 0.929 . S
C968 C970 1.378 . S
C968 C972 1.350 . S
C969 C972 1.463 . S
C969 C974 1.350 . S
C969 N977 1.427 . S
C970 H961 0.930 . S
C970 C968 1.378 . S
C970 C971 1.367 . S
C971 C970 1.367 . S
C971 C973 1.433 . S
C972 C968 1.350 . S
C972 C969 1.463 . S
C972 N976 1.427 . S
C973 H963 0.929 . S
C973 C971 1.433 . S
C973 N976 1.384 . S
C974 H965 0.929 . S
C974 C966 1.379 . S
C974 C969 1.350 . S
C975 H962 0.929 . S
C975 C967 1.433 1_554 S
C975 N977 1.384 . S
N976 C972 1.427 . S
N976 C973 1.384 . S
N977 C969 1.427 . S
N977 C975 1.384 . S
H978 C984 0.930 . S
H979 C988 0.930 . S
H980 C993 0.909 1_556 S
H981 C991 0.929 . S
H982 C986 0.929 . S
H983 C992 0.929 . S
C984 H978 0.930 . S
C984 C985 1.367 1_554 S
C984 C992 1.378 . S
C985 C984 1.367 1_556 S
C985 C993 1.424 1_556 S
C986 H982 0.929 . S
C986 C988 1.378 . S
C986 C990 1.350 . S
C987 C990 1.463 . S
C987 C992 1.350 . S
C987 N995 1.427 . S
C988 H979 0.930 . S
C988 C986 1.378 . S
C988 C989 1.367 . S
C989 C988 1.367 . S
C989 C991 1.433 . S
C990 C986 1.350 . S
C990 C987 1.463 . S
C990 N994 1.427 . S
C991 H981 0.929 . S
C991 C989 1.433 . S
C991 N994 1.384 . S
C992 H983 0.929 . S
C992 C984 1.378 . S
C992 C987 1.350 . S
C993 H980 0.909 1_554 S
C993 C985 1.424 1_554 S
C993 N995 1.415 . S
N994 C990 1.427 . S
N994 C991 1.384 . S
N995 C987 1.427 . S
N995 C993 1.415 . S
H996 C1002 0.930 . S
H997 C1006 0.930 . S
H998 C1011 0.929 . S
H999 C1009 0.929 . S
H1000 C1004 0.929 . S
H1001 C1010 0.929 . S
C1002 H996 0.930 . S
C1002 C1003 1.367 . S
C1002 C1010 1.378 1_556 S
C1003 C1002 1.367 . S
C1003 C1011 1.433 1_556 S
C1004 H1000 0.929 . S
C1004 C1006 1.378 . S
C1004 C1008 1.350 . S
C1005 C1008 1.463 . S
C1005 C1010 1.350 . S
C1005 N1013 1.427 . S
C1006 H997 0.930 . S
C1006 C1004 1.378 . S
C1006 C1007 1.367 . S
C1007 C1006 1.367 . S
C1007 C1009 1.433 . S
C1008 C1004 1.350 . S
C1008 C1005 1.463 . S
C1008 N1012 1.427 . S
C1009 H999 0.929 . S
C1009 C1007 1.433 . S
C1009 N1012 1.384 . S
C1010 H1001 0.929 . S
C1010 C1002 1.378 1_554 S
C1010 C1005 1.350 . S
C1011 H998 0.929 . S
C1011 C1003 1.433 1_554 S
C1011 N1013 1.384 . S
N1012 C1008 1.427 . S
N1012 C1009 1.384 . S
N1013 C1005 1.427 . S
N1013 C1011 1.384 . S
H1014 C1020 0.952 . S
H1015 C1024 0.930 . S
H1016 C1029 0.929 . S
H1017 C1027 0.929 . S
H1018 C1022 0.929 . S
H1019 C1028 0.929 . S
C1020 H1014 0.952 . S
C1020 C1021 1.376 . S
C1020 C1028 1.347 1_556 S
C1021 C1020 1.376 . S
C1021 C1029 1.433 1_556 S
C1022 H1018 0.929 . S
C1022 C1024 1.378 . S
C1022 C1026 1.350 . S
C1023 C1026 1.463 . S
C1023 C1028 1.350 . S
C1023 N1031 1.427 . S
C1024 H1015 0.930 . S
C1024 C1022 1.378 . S
C1024 C1025 1.367 . S
C1025 C1024 1.367 . S
C1025 C1027 1.433 . S
C1026 C1022 1.350 . S
C1026 C1023 1.463 . S
C1026 N1030 1.427 . S
C1027 H1017 0.929 . S
C1027 C1025 1.433 . S
C1027 N1030 1.384 . S
C1028 H1019 0.929 . S
C1028 C1020 1.347 1_554 S
C1028 C1023 1.350 . S
C1029 H1016 0.929 . S
C1029 C1021 1.433 1_554 S
C1029 N1031 1.384 . S
N1030 C1026 1.427 . S
N1030 C1027 1.384 . S
N1031 C1023 1.427 . S
N1031 C1029 1.384 . S
H1032 C1038 0.930 . S
H1033 C1042 0.935 . S
H1034 C1047 0.929 . S
H1035 C1045 0.929 . S
H1036 C1040 0.929 . S
H1037 C1046 0.929 . S
C1038 H1032 0.930 . S
C1038 C1039 1.367 . S
C1038 C1046 1.378 . S
C1039 C1038 1.367 . S
C1039 C1047 1.433 . S
C1040 H1036 0.929 . S
C1040 C1042 1.371 1_455 S
C1040 C1044 1.350 . S
C1041 C1044 1.463 . S
C1041 C1046 1.350 . S
C1041 N1049 1.427 . S
C1042 H1033 0.935 . S
C1042 C1040 1.371 1_655 S
C1042 C1043 1.369 . S
C1043 C1042 1.369 . S
C1043 C1045 1.433 1_655 S
C1044 C1040 1.350 . S
C1044 C1041 1.463 . S
C1044 N1048 1.427 . S
C1045 H1035 0.929 . S
C1045 C1043 1.433 1_455 S
C1045 N1048 1.384 . S
C1046 H1037 0.929 . S
C1046 C1038 1.378 . S
C1046 C1041 1.350 . S
C1047 H1034 0.929 . S
C1047 C1039 1.433 . S
C1047 N1049 1.384 . S
N1048 C1044 1.427 . S
N1048 C1045 1.384 . S
N1049 C1041 1.427 . S
N1049 C1047 1.384 . S
H1050 C1056 0.930 . S
H1051 C1060 0.930 . S
H1052 C1065 0.929 . S
H1053 C1063 0.929 . S
H1054 C1058 0.929 . S
H1055 C1064 0.929 . S
C1056 H1050 0.930 . S
C1056 C1057 1.367 . S
C1056 C1064 1.378 1_655 S
C1057 C1056 1.367 . S
C1057 C1065 1.433 1_655 S
C1058 H1054 0.929 . S
C1058 C1060 1.378 . S
C1058 C1062 1.350 . S
C1059 C1062 1.463 . S
C1059 C1064 1.350 . S
C1059 N1067 1.427 . S
C1060 H1051 0.930 . S
C1060 C1058 1.378 . S
C1060 C1061 1.367 . S
C1061 C1060 1.367 . S
C1061 C1063 1.433 . S
C1062 C1058 1.350 . S
C1062 C1059 1.463 . S
C1062 N1066 1.427 . S
C1063 H1053 0.929 . S
C1063 C1061 1.433 . S
C1063 N1066 1.384 . S
C1064 H1055 0.929 . S
C1064 C1056 1.378 1_455 S
C1064 C1059 1.350 . S
C1065 H1052 0.929 . S
C1065 C1057 1.433 1_455 S
C1065 N1067 1.384 . S
N1066 C1062 1.427 . S
N1066 C1063 1.384 . S
N1067 C1059 1.427 . S
N1067 C1065 1.384 . S
H1068 C1074 0.930 . S
H1069 C1078 0.930 . S
H1070 C1083 0.929 . S
H1071 C1081 0.929 . S
H1072 C1076 0.929 . S
H1073 C1082 0.929 . S
C1074 H1068 0.930 . S
C1074 C1075 1.367 . S
C1074 C1082 1.378 1_565 S
C1075 C1074 1.367 . S
C1075 C1083 1.433 1_565 S
C1076 H1072 0.929 . S
C1076 C1078 1.378 . S
C1076 C1080 1.350 . S
C1077 C1080 1.463 . S
C1077 C1082 1.350 . S
C1077 N1085 1.427 . S
C1078 H1069 0.930 . S
C1078 C1076 1.378 . S
C1078 C1079 1.367 . S
C1079 C1078 1.367 . S
C1079 C1081 1.433 . S
C1080 C1076 1.350 . S
C1080 C1077 1.463 . S
C1080 N1084 1.427 . S
C1081 H1071 0.929 . S
C1081 C1079 1.433 . S
C1081 N1084 1.384 . S
C1082 H1073 0.929 . S
C1082 C1074 1.378 1_545 S
C1082 C1077 1.350 . S
C1083 H1070 0.929 . S
C1083 C1075 1.433 1_545 S
C1083 N1085 1.384 . S
N1084 C1080 1.427 . S
N1084 C1081 1.384 . S
N1085 C1077 1.427 . S
N1085 C1083 1.384 . S
H1086 C1092 0.930 . S
H1087 C1096 0.930 . S
H1088 C1101 0.929 . S
H1089 C1099 0.929 . S
H1090 C1094 0.929 . S
H1091 C1100 0.929 . S
C1092 H1086 0.930 . S
C1092 C1093 1.367 . S
C1092 C1100 1.378 . S
C1093 C1092 1.367 . S
C1093 C1101 1.433 . S
C1094 H1090 0.929 . S
C1094 C1096 1.378 1_545 S
C1094 C1098 1.350 . S
C1095 C1098 1.463 . S
C1095 C1100 1.350 . S
C1095 N1103 1.427 . S
C1096 H1087 0.930 . S
C1096 C1094 1.378 1_565 S
C1096 C1097 1.367 . S
C1097 C1096 1.367 . S
C1097 C1099 1.433 1_565 S
C1098 C1094 1.350 . S
C1098 C1095 1.463 . S
C1098 N1102 1.427 . S
C1099 H1089 0.929 . S
C1099 C1097 1.433 1_545 S
C1099 N1102 1.384 . S
C1100 H1091 0.929 . S
C1100 C1092 1.378 . S
C1100 C1095 1.350 . S
C1101 H1088 0.929 . S
C1101 C1093 1.433 . S
C1101 N1103 1.384 . S
N1102 C1098 1.427 . S
N1102 C1099 1.384 . S
N1103 C1095 1.427 . S
N1103 C1101 1.384 . S
H1104 C1110 0.930 . S
H1105 C1114 0.930 . S
H1106 C1119 0.929 . S
H1107 C1117 0.929 . S
H1108 C1112 0.929 . S
H1109 C1118 0.929 . S
C1110 H1104 0.930 . S
C1110 C1111 1.367 . S
C1110 C1118 1.378 . S
C1111 C1110 1.367 . S
C1111 C1119 1.433 . S
C1112 H1108 0.929 . S
C1112 C1114 1.378 . S
C1112 C1116 1.350 . S
C1113 C1116 1.463 . S
C1113 C1118 1.350 . S
C1113 N1121 1.427 . S
C1114 H1105 0.930 . S
C1114 C1112 1.378 . S
C1114 C1115 1.367 . S
C1115 C1114 1.367 . S
C1115 C1117 1.433 . S
C1116 C1112 1.350 . S
C1116 C1113 1.463 . S
C1116 N1120 1.427 . S
C1117 H1107 0.929 . S
C1117 C1115 1.433 . S
C1117 N1120 1.384 . S
C1118 H1109 0.929 . S
C1118 C1110 1.378 . S
C1118 C1113 1.350 . S
C1119 H1106 0.929 . S
C1119 C1111 1.433 . S
C1119 N1121 1.384 . S
N1120 C1116 1.427 . S
N1120 C1117 1.384 . S
N1121 C1113 1.427 . S
N1121 C1119 1.384 . S
H1122 C1128 0.930 . S
H1123 C1132 0.930 . S
H1124 C1137 0.929 . S
H1125 C1135 0.929 . S
H1126 C1130 0.929 . S
H1127 C1136 0.929 . S
C1128 H1122 0.930 . S
C1128 C1129 1.367 . S
C1128 C1136 1.378 . S
C1129 C1128 1.367 . S
C1129 C1137 1.433 . S
C1130 H1126 0.929 . S
C1130 C1132 1.378 . S
C1130 C1134 1.350 . S
C1131 C1134 1.463 . S
C1131 C1136 1.350 . S
C1131 N1139 1.427 . S
C1132 H1123 0.930 . S
C1132 C1130 1.378 . S
C1132 C1133 1.367 . S
C1133 C1132 1.367 . S
C1133 C1135 1.433 . S
C1134 C1130 1.350 . S
C1134 C1131 1.463 . S
C1134 N1138 1.427 . S
C1135 H1125 0.929 . S
C1135 C1133 1.433 . S
C1135 N1138 1.384 . S
C1136 H1127 0.929 . S
C1136 C1128 1.378 . S
C1136 C1131 1.350 . S
C1137 H1124 0.929 . S
C1137 C1129 1.433 . S
C1137 N1139 1.384 . S
N1138 C1134 1.427 . S
N1138 C1135 1.384 . S
N1139 C1131 1.427 . S
N1139 C1137 1.384 . S
H1140 C1146 0.930 . S
H1141 C1150 0.930 1_655 S
H1142 C1155 0.929 . S
H1143 C1153 0.929 . S
H1144 C1148 0.929 . S
H1145 C1154 0.929 . S
C1146 H1140 0.930 . S
C1146 C1147 1.367 . S
C1146 C1154 1.378 . S
C1147 C1146 1.367 . S
C1147 C1155 1.433 . S
C1148 H1144 0.929 . S
C1148 C1150 1.378 . S
C1148 C1152 1.350 . S
C1149 C1152 1.463 . S
C1149 C1154 1.350 . S
C1149 N1157 1.427 . S
C1150 H1141 0.930 1_455 S
C1150 C1148 1.378 . S
C1150 C1151 1.367 . S
C1151 C1150 1.367 . S
C1151 C1153 1.433 . S
C1152 C1148 1.350 . S
C1152 C1149 1.463 . S
C1152 N1156 1.427 . S
C1153 H1143 0.929 . S
C1153 C1151 1.433 . S
C1153 N1156 1.384 . S
C1154 H1145 0.929 . S
C1154 C1146 1.378 . S
C1154 C1149 1.350 . S
C1155 H1142 0.929 . S
C1155 C1147 1.433 . S
C1155 N1157 1.384 . S
N1156 C1152 1.427 . S
N1156 C1153 1.384 . S
N1157 C1149 1.427 . S
N1157 C1155 1.384 . S
H1158 C1164 0.930 . S
H1159 C1168 0.930 1_565 S
H1160 C1173 0.929 . S
H1161 C1171 0.929 . S
H1162 C1166 0.929 . S
H1163 C1172 0.929 . S
C1164 H1158 0.930 . S
C1164 C1165 1.367 . S
C1164 C1172 1.378 . S
C1165 C1164 1.367 . S
C1165 C1173 1.433 . S
C1166 H1162 0.929 . S
C1166 C1168 1.378 . S
C1166 C1170 1.350 . S
C1167 C1170 1.463 . S
C1167 C1172 1.350 . S
C1167 N1175 1.427 . S
C1168 H1159 0.930 1_545 S
C1168 C1166 1.378 . S
C1168 C1169 1.367 . S
C1169 C1168 1.367 . S
C1169 C1171 1.433 . S
C1170 C1166 1.350 . S
C1170 C1167 1.463 . S
C1170 N1174 1.427 . S
C1171 H1161 0.929 . S
C1171 C1169 1.433 . S
C1171 N1174 1.384 . S
C1172 H1163 0.929 . S
C1172 C1164 1.378 . S
C1172 C1167 1.350 . S
C1173 H1160 0.929 . S
C1173 C1165 1.433 . S
C1173 N1175 1.384 . S
N1174 C1170 1.427 . S
N1174 C1171 1.384 . S
N1175 C1167 1.427 . S
N1175 C1173 1.384 . S
H1176 C1182 0.930 . S
H1177 C1186 0.902 1_655 S
H1178 C1191 0.929 . S
H1179 C1189 0.929 . S
H1180 C1184 0.929 . S
H1181 C1190 0.929 . S
C1182 H1176 0.930 . S
C1182 C1183 1.367 . S
C1182 C1190 1.378 . S
C1183 C1182 1.367 . S
C1183 C1191 1.433 . S
C1184 H1180 0.929 . S
C1184 C1186 1.398 . S
C1184 C1188 1.350 . S
C1185 C1188 1.463 . S
C1185 C1190 1.350 . S
C1185 N1193 1.427 . S
C1186 H1177 0.902 1_455 S
C1186 C1184 1.398 . S
C1186 C1187 1.375 . S
C1187 C1186 1.375 . S
C1187 C1189 1.433 . S
C1188 C1184 1.350 . S
C1188 C1185 1.463 . S
C1188 N1192 1.427 . S
C1189 H1179 0.929 . S
C1189 C1187 1.433 . S
C1189 N1192 1.384 . S
C1190 H1181 0.929 . S
C1190 C1182 1.378 . S
C1190 C1185 1.350 . S
C1191 H1178 0.929 . S
C1191 C1183 1.433 . S
C1191 N1193 1.384 . S
N1192 C1188 1.427 . S
N1192 C1189 1.384 . S
N1193 C1185 1.427 . S
N1193 C1191 1.384 . S
H1194 C1200 0.930 . S
H1195 C1204 0.956 . S
H1196 C1209 0.929 . S
H1197 C1207 0.929 . S
H1198 C1202 0.929 . S
H1199 C1208 0.929 . S
C1200 H1194 0.930 . S
C1200 C1201 1.367 . S
C1200 C1208 1.378 . S
C1201 C1200 1.367 . S
C1201 C1209 1.433 . S
C1202 H1198 0.929 . S
C1202 C1204 1.378 . S
C1202 C1206 1.350 . S
C1203 C1206 1.463 . S
C1203 C1208 1.350 . S
C1203 N1211 1.427 . S
C1204 H1195 0.956 . S
C1204 C1202 1.378 . S
C1204 C1205 1.367 . S
C1205 C1204 1.367 . S
C1205 C1207 1.433 . S
C1206 C1202 1.350 . S
C1206 C1203 1.463 . S
C1206 N1210 1.427 . S
C1207 H1197 0.929 . S
C1207 C1205 1.433 . S
C1207 N1210 1.384 . S
C1208 H1199 0.929 . S
C1208 C1200 1.378 . S
C1208 C1203 1.350 . S
C1209 H1196 0.929 . S
C1209 C1201 1.433 . S
C1209 N1211 1.384 . S
N1210 C1206 1.427 . S
N1210 C1207 1.384 . S
N1211 C1203 1.427 . S
N1211 C1209 1.384 . S
H1212 C1218 0.930 . S
H1213 C1222 0.930 . S
H1214 C1227 0.929 . S
H1215 C1225 0.877 1_655 S
H1216 C1220 0.929 . S
H1217 C1226 0.929 . S
C1218 H1212 0.930 . S
C1218 C1219 1.367 . S
C1218 C1226 1.378 . S
C1219 C1218 1.367 . S
C1219 C1227 1.433 . S
C1220 H1216 0.929 . S
C1220 C1222 1.378 . S
C1220 C1224 1.350 . S
C1221 C1224 1.463 . S
C1221 C1226 1.350 . S
C1221 N1229 1.427 . S
C1222 H1213 0.930 . S
C1222 C1220 1.378 . S
C1222 C1223 1.367 . S
C1223 C1222 1.367 . S
C1223 C1225 1.450 . S
C1224 C1220 1.350 . S
C1224 C1221 1.463 . S
C1224 N1228 1.427 . S
C1225 H1215 0.877 1_455 S
C1225 C1223 1.450 . S
C1225 N1228 1.423 . S
C1226 H1217 0.929 . S
C1226 C1218 1.378 . S
C1226 C1221 1.350 . S
C1227 H1214 0.929 . S
C1227 C1219 1.433 . S
C1227 N1229 1.384 . S
N1228 C1224 1.427 . S
N1228 C1225 1.423 . S
N1229 C1221 1.427 . S
N1229 C1227 1.384 . S
H1230 C1236 0.930 . S
H1231 C1240 0.930 . S
H1232 C1245 0.929 . S
H1233 C1243 0.929 . S
H1234 C1238 0.929 . S
H1235 C1244 0.929 . S
C1236 H1230 0.930 . S
C1236 C1237 1.367 . S
C1236 C1244 1.378 . S
C1237 C1236 1.367 . S
C1237 C1245 1.433 . S
C1238 H1234 0.929 . S
C1238 C1240 1.378 . S
C1238 C1242 1.350 . S
C1239 C1242 1.463 . S
C1239 C1244 1.350 . S
C1239 N1247 1.427 . S
C1240 H1231 0.930 . S
C1240 C1238 1.378 . S
C1240 C1241 1.367 . S
C1241 C1240 1.367 . S
C1241 C1243 1.433 . S
C1242 C1238 1.350 . S
C1242 C1239 1.463 . S
C1242 N1246 1.427 . S
C1243 H1233 0.929 . S
C1243 C1241 1.433 . S
C1243 N1246 1.384 . S
C1244 H1235 0.929 . S
C1244 C1236 1.378 . S
C1244 C1239 1.350 . S
C1245 H1232 0.929 . S
C1245 C1237 1.433 . S
C1245 N1247 1.384 . S
N1246 C1242 1.427 . S
N1246 C1243 1.384 . S
N1247 C1239 1.427 . S
N1247 C1245 1.384 . S
H1248 C1254 0.930 . S
H1249 C1258 0.930 . S
H1250 C1263 0.929 . S
H1251 C1261 0.929 . S
H1252 C1256 0.929 . S
H1253 C1262 0.929 . S
C1254 H1248 0.930 . S
C1254 C1255 1.367 . S
C1254 C1262 1.378 . S
C1255 C1254 1.367 . S
C1255 C1263 1.433 . S
C1256 H1252 0.929 . S
C1256 C1258 1.378 . S
C1256 C1260 1.350 . S
C1257 C1260 1.463 . S
C1257 C1262 1.350 . S
C1257 N1265 1.427 . S
C1258 H1249 0.930 . S
C1258 C1256 1.378 . S
C1258 C1259 1.367 . S
C1259 C1258 1.367 . S
C1259 C1261 1.433 . S
C1260 C1256 1.350 . S
C1260 C1257 1.463 . S
C1260 N1264 1.427 . S
C1261 H1251 0.929 . S
C1261 C1259 1.433 . S
C1261 N1264 1.384 . S
C1262 H1253 0.929 . S
C1262 C1254 1.378 . S
C1262 C1257 1.350 . S
C1263 H1250 0.929 . S
C1263 C1255 1.433 . S
C1263 N1265 1.384 . S
N1264 C1260 1.427 . S
N1264 C1261 1.384 . S
N1265 C1257 1.427 . S
N1265 C1263 1.384 . S
H1266 C1272 0.930 . S
H1267 C1276 0.930 . S
H1268 C1281 0.929 1_556 S
H1269 C1279 0.929 . S
H1270 C1274 0.929 . S
H1271 C1280 0.929 . S
C1272 H1266 0.930 . S
C1272 C1273 1.367 . S
C1272 C1280 1.378 . S
C1273 C1272 1.367 . S
C1273 C1281 1.433 . S
C1274 H1270 0.929 . S
C1274 C1276 1.378 . S
C1274 C1278 1.350 . S
C1275 C1278 1.463 . S
C1275 C1280 1.350 . S
C1275 N1283 1.427 . S
C1276 H1267 0.930 . S
C1276 C1274 1.378 . S
C1276 C1277 1.367 . S
C1277 C1276 1.367 . S
C1277 C1279 1.433 . S
C1278 C1274 1.350 . S
C1278 C1275 1.463 . S
C1278 N1282 1.427 . S
C1279 H1269 0.929 . S
C1279 C1277 1.433 . S
C1279 N1282 1.384 . S
C1280 H1271 0.929 . S
C1280 C1272 1.378 . S
C1280 C1275 1.350 . S
C1281 H1268 0.929 1_554 S
C1281 C1273 1.433 . S
C1281 N1283 1.384 . S
N1282 C1278 1.427 . S
N1282 C1279 1.384 . S
N1283 C1275 1.427 . S
N1283 C1281 1.384 . S
H1284 C1290 0.930 1_556 S
H1285 C1294 0.930 . S
H1286 C1299 0.929 . S
H1287 C1297 0.929 . S
H1288 C1292 0.929 . S
H1289 C1298 0.929 . S
C1290 H1284 0.930 1_554 S
C1290 C1291 1.367 . S
C1290 C1298 1.378 . S
C1291 C1290 1.367 . S
C1291 C1299 1.433 . S
C1292 H1288 0.929 . S
C1292 C1294 1.378 . S
C1292 C1296 1.350 . S
C1293 C1296 1.463 . S
C1293 C1298 1.350 . S
C1293 N1301 1.427 . S
C1294 H1285 0.930 . S
C1294 C1292 1.378 . S
C1294 C1295 1.367 . S
C1295 C1294 1.367 . S
C1295 C1297 1.433 . S
C1296 C1292 1.350 . S
C1296 C1293 1.463 . S
C1296 N1300 1.427 . S
C1297 H1287 0.929 . S
C1297 C1295 1.433 . S
C1297 N1300 1.384 . S
C1298 H1289 0.929 . S
C1298 C1290 1.378 . S
C1298 C1293 1.350 . S
C1299 H1286 0.929 . S
C1299 C1291 1.433 . S
C1299 N1301 1.384 . S
N1300 C1296 1.427 . S
N1300 C1297 1.384 . S
N1301 C1293 1.427 . S
N1301 C1299 1.384 . S
H1302 C1308 0.930 . S
H1303 C1312 0.930 1_556 S
H1304 C1317 0.929 . S
H1305 C1315 0.929 . S
H1306 C1310 0.929 . S
H1307 C1316 0.929 . S
C1308 H1302 0.930 . S
C1308 C1309 1.367 . S
C1308 C1316 1.378 . S
C1309 C1308 1.367 . S
C1309 C1317 1.433 . S
C1310 H1306 0.929 . S
C1310 C1312 1.378 . S
C1310 C1314 1.350 . S
C1311 C1314 1.463 . S
C1311 C1316 1.350 . S
C1311 N1319 1.427 . S
C1312 H1303 0.930 1_554 S
C1312 C1310 1.378 . S
C1312 C1313 1.367 . S
C1313 C1312 1.367 . S
C1313 C1315 1.433 . S
C1314 C1310 1.350 . S
C1314 C1311 1.463 . S
C1314 N1318 1.427 . S
C1315 H1305 0.929 . S
C1315 C1313 1.433 . S
C1315 N1318 1.384 . S
C1316 H1307 0.929 . S
C1316 C1308 1.378 . S
C1316 C1311 1.350 . S
C1317 H1304 0.929 . S
C1317 C1309 1.433 . S
C1317 N1319 1.384 . S
N1318 C1314 1.427 . S
N1318 C1315 1.384 . S
N1319 C1311 1.427 . S
N1319 C1317 1.384 . S
H1320 C1326 0.930 . S
H1321 C1330 0.930 . S
H1322 C1335 0.929 . S
H1323 C1333 0.929 . S
H1324 C1328 0.929 . S
H1325 C1334 0.929 . S
C1326 H1320 0.930 . S
C1326 C1327 1.367 . S
C1326 C1334 1.378 . S
C1327 C1326 1.367 . S
C1327 C1335 1.433 . S
C1328 H1324 0.929 . S
C1328 C1330 1.378 . S
C1328 C1332 1.350 . S
C1329 C1332 1.463 . S
C1329 C1334 1.350 . S
C1329 N1337 1.427 . S
C1330 H1321 0.930 . S
C1330 C1328 1.378 . S
C1330 C1331 1.367 . S
C1331 C1330 1.367 . S
C1331 C1333 1.433 . S
C1332 C1328 1.350 . S
C1332 C1329 1.463 . S
C1332 N1336 1.427 . S
C1333 H1323 0.929 . S
C1333 C1331 1.433 . S
C1333 N1336 1.384 . S
C1334 H1325 0.929 . S
C1334 C1326 1.378 . S
C1334 C1329 1.350 . S
C1335 H1322 0.929 . S
C1335 C1327 1.433 . S
C1335 N1337 1.384 . S
N1336 C1332 1.427 . S
N1336 C1333 1.384 . S
N1337 C1329 1.427 . S
N1337 C1335 1.384 . S
H1338 C1344 0.930 . S
H1339 C1348 0.930 . S
H1340 C1353 0.929 . S
H1341 C1351 0.929 . S
H1342 C1346 0.929 . S
H1343 C1352 0.929 . S
C1344 H1338 0.930 . S
C1344 C1345 1.367 . S
C1344 C1352 1.378 . S
C1345 C1344 1.367 . S
C1345 C1353 1.433 . S
C1346 H1342 0.929 . S
C1346 C1348 1.378 . S
C1346 C1350 1.350 . S
C1347 C1350 1.463 . S
C1347 C1352 1.350 . S
C1347 N1355 1.427 . S
C1348 H1339 0.930 . S
C1348 C1346 1.378 . S
C1348 C1349 1.367 . S
C1349 C1348 1.367 . S
C1349 C1351 1.433 . S
C1350 C1346 1.350 . S
C1350 C1347 1.463 . S
C1350 N1354 1.427 . S
C1351 H1341 0.929 . S
C1351 C1349 1.433 . S
C1351 N1354 1.384 . S
C1352 H1343 0.929 . S
C1352 C1344 1.378 . S
C1352 C1347 1.350 . S
C1353 H1340 0.929 . S
C1353 C1345 1.433 . S
C1353 N1355 1.384 . S
N1354 C1350 1.427 . S
N1354 C1351 1.384 . S
N1355 C1347 1.427 . S
N1355 C1353 1.384 . S
H1356 C1362 0.930 . S
H1357 C1366 0.930 . S
H1358 C1371 0.929 . S
H1359 C1369 0.929 . S
H1360 C1364 0.929 . S
H1361 C1370 0.929 . S
C1362 H1356 0.930 . S
C1362 C1363 1.367 . S
C1362 C1370 1.378 . S
C1363 C1362 1.367 . S
C1363 C1371 1.433 . S
C1364 H1360 0.929 . S
C1364 C1366 1.378 . S
C1364 C1368 1.350 . S
C1365 C1368 1.463 . S
C1365 C1370 1.350 . S
C1365 N1373 1.427 . S
C1366 H1357 0.930 . S
C1366 C1364 1.378 . S
C1366 C1367 1.367 . S
C1367 C1366 1.367 . S
C1367 C1369 1.433 . S
C1368 C1364 1.350 . S
C1368 C1365 1.463 . S
C1368 N1372 1.427 . S
C1369 H1359 0.929 . S
C1369 C1367 1.433 . S
C1369 N1372 1.384 . S
C1370 H1361 0.929 . S
C1370 C1362 1.378 . S
C1370 C1365 1.350 . S
C1371 H1358 0.929 . S
C1371 C1363 1.433 . S
C1371 N1373 1.384 . S
N1372 C1368 1.427 . S
N1372 C1369 1.384 . S
N1373 C1365 1.427 . S
N1373 C1371 1.384 . S
H1374 C1380 0.930 . S
H1375 C1384 0.930 . S
H1376 C1389 0.929 . S
H1377 C1387 0.929 . S
H1378 C1382 0.929 . S
H1379 C1388 0.929 . S
C1380 H1374 0.930 . S
C1380 C1381 1.367 . S
C1380 C1388 1.378 . S
C1381 C1380 1.367 . S
C1381 C1389 1.433 . S
C1382 H1378 0.929 . S
C1382 C1384 1.378 . S
C1382 C1386 1.350 . S
C1383 C1386 1.463 . S
C1383 C1388 1.350 . S
C1383 N1391 1.427 . S
C1384 H1375 0.930 . S
C1384 C1382 1.378 . S
C1384 C1385 1.367 . S
C1385 C1384 1.367 . S
C1385 C1387 1.433 . S
C1386 C1382 1.350 . S
C1386 C1383 1.463 . S
C1386 N1390 1.427 . S
C1387 H1377 0.929 . S
C1387 C1385 1.433 . S
C1387 N1390 1.384 . S
C1388 H1379 0.929 . S
C1388 C1380 1.378 . S
C1388 C1383 1.350 . S
C1389 H1376 0.929 . S
C1389 C1381 1.433 . S
C1389 N1391 1.384 . S
N1390 C1386 1.427 . S
N1390 C1387 1.384 . S
N1391 C1383 1.427 . S
N1391 C1389 1.384 . S
H1392 C1398 0.930 . S
H1393 C1402 0.930 . S
H1394 C1407 0.929 . S
H1395 C1405 0.929 . S
H1396 C1400 0.929 . S
H1397 C1406 0.929 . S
C1398 H1392 0.930 . S
C1398 C1399 1.367 . S
C1398 C1406 1.378 . S
C1399 C1398 1.367 . S
C1399 C1407 1.433 . S
C1400 H1396 0.929 . S
C1400 C1402 1.378 . S
C1400 C1404 1.350 . S
C1401 C1404 1.463 . S
C1401 C1406 1.350 . S
C1401 N1409 1.427 . S
C1402 H1393 0.930 . S
C1402 C1400 1.378 . S
C1402 C1403 1.367 . S
C1403 C1402 1.367 . S
C1403 C1405 1.433 . S
C1404 C1400 1.350 . S
C1404 C1401 1.463 . S
C1404 N1408 1.427 . S
C1405 H1395 0.929 . S
C1405 C1403 1.433 . S
C1405 N1408 1.384 . S
C1406 H1397 0.929 . S
C1406 C1398 1.378 . S
C1406 C1401 1.350 . S
C1407 H1394 0.929 . S
C1407 C1399 1.433 . S
C1407 N1409 1.384 . S
N1408 C1404 1.427 . S
N1408 C1405 1.384 . S
N1409 C1401 1.427 . S
N1409 C1407 1.384 . S
H1410 C1416 0.930 . S
H1411 C1420 0.930 . S
H1412 C1425 0.929 . S
H1413 C1423 0.929 . S
H1414 C1418 0.929 . S
H1415 C1424 0.929 . S
C1416 H1410 0.930 . S
C1416 C1417 1.367 . S
C1416 C1424 1.378 . S
C1417 C1416 1.367 . S
C1417 C1425 1.433 . S
C1418 H1414 0.929 . S
C1418 C1420 1.378 . S
C1418 C1422 1.350 . S
C1419 C1422 1.463 . S
C1419 C1424 1.350 . S
C1419 N1427 1.427 . S
C1420 H1411 0.930 . S
C1420 C1418 1.378 . S
C1420 C1421 1.367 . S
C1421 C1420 1.367 . S
C1421 C1423 1.433 . S
C1422 C1418 1.350 . S
C1422 C1419 1.463 . S
C1422 N1426 1.427 . S
C1423 H1413 0.929 . S
C1423 C1421 1.433 . S
C1423 N1426 1.384 . S
C1424 H1415 0.929 . S
C1424 C1416 1.378 . S
C1424 C1419 1.350 . S
C1425 H1412 0.929 . S
C1425 C1417 1.433 . S
C1425 N1427 1.384 . S
N1426 C1422 1.427 . S
N1426 C1423 1.384 . S
N1427 C1419 1.427 . S
N1427 C1425 1.384 . S
H1428 C1434 0.930 . S
H1429 C1438 0.930 . S
H1430 C1443 0.929 . S
H1431 C1441 0.929 . S
H1432 C1436 0.929 . S
H1433 C1442 0.929 . S
C1434 H1428 0.930 . S
C1434 C1435 1.367 . S
C1434 C1442 1.378 . S
C1435 C1434 1.367 . S
C1435 C1443 1.433 . S
C1436 H1432 0.929 . S
C1436 C1438 1.378 . S
C1436 C1440 1.350 . S
C1437 C1440 1.463 . S
C1437 C1442 1.350 . S
C1437 N1445 1.427 . S
C1438 H1429 0.930 . S
C1438 C1436 1.378 . S
C1438 C1439 1.367 . S
C1439 C1438 1.367 . S
C1439 C1441 1.433 . S
C1440 C1436 1.350 . S
C1440 C1437 1.463 . S
C1440 N1444 1.427 . S
C1441 H1431 0.929 . S
C1441 C1439 1.433 . S
C1441 N1444 1.384 . S
C1442 H1433 0.929 . S
C1442 C1434 1.378 . S
C1442 C1437 1.350 . S
C1443 H1430 0.929 . S
C1443 C1435 1.433 . S
C1443 N1445 1.384 . S
N1444 C1440 1.427 . S
N1444 C1441 1.384 . S
N1445 C1437 1.427 . S
N1445 C1443 1.384 . S
H1446 C1452 0.930 . S
H1447 C1456 0.930 . S
H1448 C1461 0.929 . S
H1449 C1459 0.929 . S
H1450 C1454 0.929 . S
H1451 C1460 0.929 . S
C1452 H1446 0.930 . S
C1452 C1453 1.367 . S
C1452 C1460 1.378 . S
C1453 C1452 1.367 . S
C1453 C1461 1.433 . S
C1454 H1450 0.929 . S
C1454 C1456 1.378 . S
C1454 C1458 1.350 . S
C1455 C1458 1.463 . S
C1455 C1460 1.350 . S
C1455 N1463 1.427 . S
C1456 H1447 0.930 . S
C1456 C1454 1.378 . S
C1456 C1457 1.367 . S
C1457 C1456 1.367 . S
C1457 C1459 1.433 . S
C1458 C1454 1.350 . S
C1458 C1455 1.463 . S
C1458 N1462 1.427 . S
C1459 H1449 0.929 . S
C1459 C1457 1.433 . S
C1459 N1462 1.384 . S
C1460 H1451 0.929 . S
C1460 C1452 1.378 . S
C1460 C1455 1.350 . S
C1461 H1448 0.929 . S
C1461 C1453 1.433 . S
C1461 N1463 1.384 . S
N1462 C1458 1.427 . S
N1462 C1459 1.384 . S
N1463 C1455 1.427 . S
N1463 C1461 1.384 . S
H1464 C1470 0.930 . S
H1465 C1474 0.930 . S
H1466 C1479 0.929 . S
H1467 C1477 0.929 . S
H1468 C1472 0.929 . S
H1469 C1478 0.929 . S
C1470 H1464 0.930 . S
C1470 C1471 1.367 . S
C1470 C1478 1.378 . S
C1471 C1470 1.367 . S
C1471 C1479 1.433 . S
C1472 H1468 0.929 . S
C1472 C1474 1.378 . S
C1472 C1476 1.350 . S
C1473 C1476 1.463 . S
C1473 C1478 1.350 . S
C1473 N1481 1.427 . S
C1474 H1465 0.930 . S
C1474 C1472 1.378 . S
C1474 C1475 1.367 . S
C1475 C1474 1.367 . S
C1475 C1477 1.433 . S
C1476 C1472 1.350 . S
C1476 C1473 1.463 . S
C1476 N1480 1.427 . S
C1477 H1467 0.929 . S
C1477 C1475 1.433 . S
C1477 N1480 1.384 . S
C1478 H1469 0.929 . S
C1478 C1470 1.378 . S
C1478 C1473 1.350 . S
C1479 H1466 0.929 . S
C1479 C1471 1.433 . S
C1479 N1481 1.384 . S
N1480 C1476 1.427 . S
N1480 C1477 1.384 . S
N1481 C1473 1.427 . S
N1481 C1479 1.384 . S
H1482 C1488 0.930 . S
H1483 C1492 0.930 . S
H1484 C1497 0.929 . S
H1485 C1495 0.929 . S
H1486 C1490 0.929 . S
H1487 C1496 0.929 . S
C1488 H1482 0.930 . S
C1488 C1489 1.367 . S
C1488 C1496 1.378 . S
C1489 C1488 1.367 . S
C1489 C1497 1.433 . S
C1490 H1486 0.929 . S
C1490 C1492 1.378 . S
C1490 C1494 1.350 . S
C1491 C1494 1.463 . S
C1491 C1496 1.350 . S
C1491 N1499 1.427 . S
C1492 H1483 0.930 . S
C1492 C1490 1.378 . S
C1492 C1493 1.367 . S
C1493 C1492 1.367 . S
C1493 C1495 1.433 . S
C1494 C1490 1.350 . S
C1494 C1491 1.463 . S
C1494 N1498 1.427 . S
C1495 H1485 0.929 . S
C1495 C1493 1.433 . S
C1495 N1498 1.384 . S
C1496 H1487 0.929 . S
C1496 C1488 1.378 . S
C1496 C1491 1.350 . S
C1497 H1484 0.929 . S
C1497 C1489 1.433 . S
C1497 N1499 1.384 . S
N1498 C1494 1.427 . S
N1498 C1495 1.384 . S
N1499 C1491 1.427 . S
N1499 C1497 1.384 . S
H1500 C1506 0.930 . S
H1501 C1510 0.930 . S
H1502 C1515 0.929 . S
H1503 C1513 0.929 . S
H1504 C1508 0.929 . S
H1505 C1514 0.929 . S
C1506 H1500 0.930 . S
C1506 C1507 1.367 . S
C1506 C1514 1.378 . S
C1507 C1506 1.367 . S
C1507 C1515 1.433 . S
C1508 H1504 0.929 . S
C1508 C1510 1.378 . S
C1508 C1512 1.350 . S
C1509 C1512 1.463 . S
C1509 C1514 1.350 . S
C1509 N1517 1.427 . S
C1510 H1501 0.930 . S
C1510 C1508 1.378 . S
C1510 C1511 1.367 . S
C1511 C1510 1.367 . S
C1511 C1513 1.433 . S
C1512 C1508 1.350 . S
C1512 C1509 1.463 . S
C1512 N1516 1.427 . S
C1513 H1503 0.929 . S
C1513 C1511 1.433 . S
C1513 N1516 1.384 . S
C1514 H1505 0.929 . S
C1514 C1506 1.378 . S
C1514 C1509 1.350 . S
C1515 H1502 0.929 . S
C1515 C1507 1.433 . S
C1515 N1517 1.384 . S
N1516 C1512 1.427 . S
N1516 C1513 1.384 . S
N1517 C1509 1.427 . S
N1517 C1515 1.384 . S
H1518 C1524 0.930 . S
H1519 C1528 0.930 . S
H1520 C1533 0.929 . S
H1521 C1531 0.929 . S
H1522 C1526 0.929 . S
H1523 C1532 0.929 . S
C1524 H1518 0.930 . S
C1524 C1525 1.367 . S
C1524 C1532 1.378 . S
C1525 C1524 1.367 . S
C1525 C1533 1.433 . S
C1526 H1522 0.929 . S
C1526 C1528 1.378 . S
C1526 C1530 1.350 . S
C1527 C1530 1.463 . S
C1527 C1532 1.350 . S
C1527 N1535 1.427 . S
C1528 H1519 0.930 . S
C1528 C1526 1.378 . S
C1528 C1529 1.367 . S
C1529 C1528 1.367 . S
C1529 C1531 1.433 . S
C1530 C1526 1.350 . S
C1530 C1527 1.463 . S
C1530 N1534 1.427 . S
C1531 H1521 0.929 . S
C1531 C1529 1.433 . S
C1531 N1534 1.384 . S
C1532 H1523 0.929 . S
C1532 C1524 1.378 . S
C1532 C1527 1.350 . S
C1533 H1520 0.929 . S
C1533 C1525 1.433 . S
C1533 N1535 1.384 . S
N1534 C1530 1.427 . S
N1534 C1531 1.384 . S
N1535 C1527 1.427 . S
N1535 C1533 1.384 . S
H1536 C1542 0.930 . S
H1537 C1546 0.930 . S
H1538 C1551 0.929 . S
H1539 C1549 0.929 . S
H1540 C1544 0.929 . S
H1541 C1550 0.929 . S
C1542 H1536 0.930 . S
C1542 C1543 1.367 . S
C1542 C1550 1.378 . S
C1543 C1542 1.367 . S
C1543 C1551 1.433 . S
C1544 H1540 0.929 . S
C1544 C1546 1.378 . S
C1544 C1548 1.350 . S
C1545 C1548 1.463 . S
C1545 C1550 1.350 . S
C1545 N1553 1.427 . S
C1546 H1537 0.930 . S
C1546 C1544 1.378 . S
C1546 C1547 1.367 . S
C1547 C1546 1.367 . S
C1547 C1549 1.433 . S
C1548 C1544 1.350 . S
C1548 C1545 1.463 . S
C1548 N1552 1.427 . S
C1549 H1539 0.929 . S
C1549 C1547 1.433 . S
C1549 N1552 1.384 . S
C1550 H1541 0.929 . S
C1550 C1542 1.378 . S
C1550 C1545 1.350 . S
C1551 H1538 0.929 . S
C1551 C1543 1.433 . S
C1551 N1553 1.384 . S
N1552 C1548 1.427 . S
N1552 C1549 1.384 . S
N1553 C1545 1.427 . S
N1553 C1551 1.384 . S
H1554 C1560 0.930 . S
H1555 C1564 0.930 . S
H1556 C1569 0.929 . S
H1557 C1567 0.929 . S
H1558 C1562 0.929 . S
H1559 C1568 0.929 . S
C1560 H1554 0.930 . S
C1560 C1561 1.367 . S
C1560 C1568 1.378 . S
C1561 C1560 1.367 . S
C1561 C1569 1.433 . S
C1562 H1558 0.929 . S
C1562 C1564 1.378 . S
C1562 C1566 1.350 . S
C1563 C1566 1.463 . S
C1563 C1568 1.350 . S
C1563 N1571 1.427 . S
C1564 H1555 0.930 . S
C1564 C1562 1.378 . S
C1564 C1565 1.367 . S
C1565 C1564 1.367 . S
C1565 C1567 1.433 . S
C1566 C1562 1.350 . S
C1566 C1563 1.463 . S
C1566 N1570 1.427 . S
C1567 H1557 0.929 . S
C1567 C1565 1.433 . S
C1567 N1570 1.384 . S
C1568 H1559 0.929 . S
C1568 C1560 1.378 . S
C1568 C1563 1.350 . S
C1569 H1556 0.929 . S
C1569 C1561 1.433 . S
C1569 N1571 1.384 . S
N1570 C1566 1.427 . S
N1570 C1567 1.384 . S
N1571 C1563 1.427 . S
N1571 C1569 1.384 . S
H1572 C1578 0.930 . S
H1573 C1582 0.930 . S
H1574 C1587 0.929 . S
H1575 C1585 0.929 . S
H1576 C1580 0.929 . S
H1577 C1586 0.929 . S
C1578 H1572 0.930 . S
C1578 C1579 1.367 . S
C1578 C1586 1.378 . S
C1579 C1578 1.367 . S
C1579 C1587 1.433 . S
C1580 H1576 0.929 . S
C1580 C1582 1.378 . S
C1580 C1584 1.350 . S
C1581 C1584 1.463 . S
C1581 C1586 1.350 . S
C1581 N1589 1.427 . S
C1582 H1573 0.930 . S
C1582 C1580 1.378 . S
C1582 C1583 1.367 . S
C1583 C1582 1.367 . S
C1583 C1585 1.433 . S
C1584 C1580 1.350 . S
C1584 C1581 1.463 . S
C1584 N1588 1.427 . S
C1585 H1575 0.929 . S
C1585 C1583 1.433 . S
C1585 N1588 1.384 . S
C1586 H1577 0.929 . S
C1586 C1578 1.378 . S
C1586 C1581 1.350 . S
C1587 H1574 0.929 . S
C1587 C1579 1.433 . S
C1587 N1589 1.384 . S
N1588 C1584 1.427 . S
N1588 C1585 1.384 . S
N1589 C1581 1.427 . S
N1589 C1587 1.384 . S
H1590 C1596 0.930 . S
H1591 C1600 0.930 . S
H1592 C1605 0.929 . S
H1593 C1603 0.929 . S
H1594 C1598 0.929 . S
H1595 C1604 0.929 . S
C1596 H1590 0.930 . S
C1596 C1597 1.367 . S
C1596 C1604 1.378 . S
C1597 C1596 1.367 . S
C1597 C1605 1.433 . S
C1598 H1594 0.929 . S
C1598 C1600 1.378 . S
C1598 C1602 1.350 . S
C1599 C1602 1.463 . S
C1599 C1604 1.350 . S
C1599 N1607 1.427 . S
C1600 H1591 0.930 . S
C1600 C1598 1.378 . S
C1600 C1601 1.367 . S
C1601 C1600 1.367 . S
C1601 C1603 1.433 . S
C1602 C1598 1.350 . S
C1602 C1599 1.463 . S
C1602 N1606 1.427 . S
C1603 H1593 0.929 . S
C1603 C1601 1.433 . S
C1603 N1606 1.384 . S
C1604 H1595 0.929 . S
C1604 C1596 1.378 . S
C1604 C1599 1.350 . S
C1605 H1592 0.929 . S
C1605 C1597 1.433 . S
C1605 N1607 1.384 . S
N1606 C1602 1.427 . S
N1606 C1603 1.384 . S
N1607 C1599 1.427 . S
N1607 C1605 1.384 . S
H1608 C1614 0.930 . S
H1609 C1618 0.930 . S
H1610 C1623 0.929 . S
H1611 C1621 0.929 . S
H1612 C1616 0.929 . S
H1613 C1622 0.929 . S
C1614 H1608 0.930 . S
C1614 C1615 1.367 . S
C1614 C1622 1.378 . S
C1615 C1614 1.367 . S
C1615 C1623 1.433 . S
C1616 H1612 0.929 . S
C1616 C1618 1.378 . S
C1616 C1620 1.350 . S
C1617 C1620 1.463 . S
C1617 C1622 1.350 . S
C1617 N1625 1.427 . S
C1618 H1609 0.930 . S
C1618 C1616 1.378 . S
C1618 C1619 1.367 . S
C1619 C1618 1.367 . S
C1619 C1621 1.433 . S
C1620 C1616 1.350 . S
C1620 C1617 1.463 . S
C1620 N1624 1.427 . S
C1621 H1611 0.929 . S
C1621 C1619 1.433 . S
C1621 N1624 1.384 . S
C1622 H1613 0.929 . S
C1622 C1614 1.378 . S
C1622 C1617 1.350 . S
C1623 H1610 0.929 . S
C1623 C1615 1.433 . S
C1623 N1625 1.384 . S
N1624 C1620 1.427 . S
N1624 C1621 1.384 . S
N1625 C1617 1.427 . S
N1625 C1623 1.384 . S
H1626 C1632 0.930 . S
H1627 C1636 0.930 . S
H1628 C1641 0.929 . S
H1629 C1639 0.929 . S
H1630 C1634 0.929 . S
H1631 C1640 0.929 . S
C1632 H1626 0.930 . S
C1632 C1633 1.367 . S
C1632 C1640 1.378 . S
C1633 C1632 1.367 . S
C1633 C1641 1.433 . S
C1634 H1630 0.929 . S
C1634 C1636 1.378 . S
C1634 C1638 1.350 . S
C1635 C1638 1.463 . S
C1635 C1640 1.350 . S
C1635 N1643 1.427 . S
C1636 H1627 0.930 . S
C1636 C1634 1.378 . S
C1636 C1637 1.367 . S
C1637 C1636 1.367 . S
C1637 C1639 1.433 . S
C1638 C1634 1.350 . S
C1638 C1635 1.463 . S
C1638 N1642 1.427 . S
C1639 H1629 0.929 . S
C1639 C1637 1.433 . S
C1639 N1642 1.384 . S
C1640 H1631 0.929 . S
C1640 C1632 1.378 . S
C1640 C1635 1.350 . S
C1641 H1628 0.929 . S
C1641 C1633 1.433 . S
C1641 N1643 1.384 . S
N1642 C1638 1.427 . S
N1642 C1639 1.384 . S
N1643 C1635 1.427 . S
N1643 C1641 1.384 . S
H1644 C1650 0.930 . S
H1645 C1654 0.930 . S
H1646 C1659 0.929 . S
H1647 C1657 0.929 . S
H1648 C1652 0.929 . S
H1649 C1658 0.929 . S
C1650 H1644 0.930 . S
C1650 C1651 1.367 . S
C1650 C1658 1.378 . S
C1651 C1650 1.367 . S
C1651 C1659 1.433 . S
C1652 H1648 0.929 . S
C1652 C1654 1.378 . S
C1652 C1656 1.350 . S
C1653 C1656 1.463 . S
C1653 C1658 1.350 . S
C1653 N1661 1.427 . S
C1654 H1645 0.930 . S
C1654 C1652 1.378 . S
C1654 C1655 1.367 . S
C1655 C1654 1.367 . S
C1655 C1657 1.433 . S
C1656 C1652 1.350 . S
C1656 C1653 1.463 . S
C1656 N1660 1.427 . S
C1657 H1647 0.929 . S
C1657 C1655 1.433 . S
C1657 N1660 1.384 . S
C1658 H1649 0.929 . S
C1658 C1650 1.378 . S
C1658 C1653 1.350 . S
C1659 H1646 0.929 . S
C1659 C1651 1.433 . S
C1659 N1661 1.384 . S
N1660 C1656 1.427 . S
N1660 C1657 1.384 . S
N1661 C1653 1.427 . S
N1661 C1659 1.384 . S
H1662 C1668 0.930 . S
H1663 C1672 0.930 . S
H1664 C1677 0.929 . S
H1665 C1675 0.929 . S
H1666 C1670 0.929 . S
H1667 C1676 0.929 . S
C1668 H1662 0.930 . S
C1668 C1669 1.367 . S
C1668 C1676 1.378 . S
C1669 C1668 1.367 . S
C1669 C1677 1.433 . S
C1670 H1666 0.929 . S
C1670 C1672 1.378 . S
C1670 C1674 1.350 . S
C1671 C1674 1.463 . S
C1671 C1676 1.350 . S
C1671 N1679 1.427 . S
C1672 H1663 0.930 . S
C1672 C1670 1.378 . S
C1672 C1673 1.367 . S
C1673 C1672 1.367 . S
C1673 C1675 1.433 . S
C1674 C1670 1.350 . S
C1674 C1671 1.463 . S
C1674 N1678 1.427 . S
C1675 H1665 0.929 . S
C1675 C1673 1.433 . S
C1675 N1678 1.384 . S
C1676 H1667 0.929 . S
C1676 C1668 1.378 . S
C1676 C1671 1.350 . S
C1677 H1664 0.929 . S
C1677 C1669 1.433 . S
C1677 N1679 1.384 . S
N1678 C1674 1.427 . S
N1678 C1675 1.384 . S
N1679 C1671 1.427 . S
N1679 C1677 1.384 . S
H1680 C1686 0.930 . S
H1681 C1690 0.930 . S
H1682 C1695 0.929 . S
H1683 C1693 0.929 . S
H1684 C1688 0.929 . S
H1685 C1694 0.929 . S
C1686 H1680 0.930 . S
C1686 C1687 1.367 . S
C1686 C1694 1.378 . S
C1687 C1686 1.367 . S
C1687 C1695 1.433 . S
C1688 H1684 0.929 . S
C1688 C1690 1.378 . S
C1688 C1692 1.350 . S
C1689 C1692 1.463 . S
C1689 C1694 1.350 . S
C1689 N1697 1.427 . S
C1690 H1681 0.930 . S
C1690 C1688 1.378 . S
C1690 C1691 1.367 . S
C1691 C1690 1.367 . S
C1691 C1693 1.433 . S
C1692 C1688 1.350 . S
C1692 C1689 1.463 . S
C1692 N1696 1.427 . S
C1693 H1683 0.929 . S
C1693 C1691 1.433 . S
C1693 N1696 1.384 . S
C1694 H1685 0.929 . S
C1694 C1686 1.378 . S
C1694 C1689 1.350 . S
C1695 H1682 0.929 . S
C1695 C1687 1.433 . S
C1695 N1697 1.384 . S
N1696 C1692 1.427 . S
N1696 C1693 1.384 . S
N1697 C1689 1.427 . S
N1697 C1695 1.384 . S
H1698 C1704 0.930 . S
H1699 C1708 0.930 . S
H1700 C1713 0.929 . S
H1701 C1711 0.929 . S
H1702 C1706 0.929 . S
H1703 C1712 0.929 . S
C1704 H1698 0.930 . S
C1704 C1705 1.367 . S
C1704 C1712 1.378 . S
C1705 C1704 1.367 . S
C1705 C1713 1.433 . S
C1706 H1702 0.929 . S
C1706 C1708 1.378 . S
C1706 C1710 1.350 . S
C1707 C1710 1.463 . S
C1707 C1712 1.350 . S
C1707 N1715 1.427 . S
C1708 H1699 0.930 . S
C1708 C1706 1.378 . S
C1708 C1709 1.367 . S
C1709 C1708 1.367 . S
C1709 C1711 1.433 . S
C1710 C1706 1.350 . S
C1710 C1707 1.463 . S
C1710 N1714 1.427 . S
C1711 H1701 0.929 . S
C1711 C1709 1.433 . S
C1711 N1714 1.384 . S
C1712 H1703 0.929 . S
C1712 C1704 1.378 . S
C1712 C1707 1.350 . S
C1713 H1700 0.929 . S
C1713 C1705 1.433 . S
C1713 N1715 1.384 . S
N1714 C1710 1.427 . S
N1714 C1711 1.384 . S
N1715 C1707 1.427 . S
N1715 C1713 1.384 . S
H1716 C1722 0.930 . S
H1717 C1726 0.930 . S
H1718 C1731 0.929 . S
H1719 C1729 0.929 . S
H1720 C1724 0.929 . S
H1721 C1730 0.929 . S
C1722 H1716 0.930 . S
C1722 C1723 1.367 . S
C1722 C1730 1.378 . S
C1723 C1722 1.367 . S
C1723 C1731 1.433 . S
C1724 H1720 0.929 . S
C1724 C1726 1.378 . S
C1724 C1728 1.350 . S
C1725 C1728 1.463 . S
C1725 C1730 1.350 . S
C1725 N1733 1.427 . S
C1726 H1717 0.930 . S
C1726 C1724 1.378 . S
C1726 C1727 1.367 . S
C1727 C1726 1.367 . S
C1727 C1729 1.433 . S
C1728 C1724 1.350 . S
C1728 C1725 1.463 . S
C1728 N1732 1.427 . S
C1729 H1719 0.929 . S
C1729 C1727 1.433 . S
C1729 N1732 1.384 . S
C1730 H1721 0.929 . S
C1730 C1722 1.378 . S
C1730 C1725 1.350 . S
C1731 H1718 0.929 . S
C1731 C1723 1.433 . S
C1731 N1733 1.384 . S
N1732 C1728 1.427 . S
N1732 C1729 1.384 . S
N1733 C1725 1.427 . S
N1733 C1731 1.384 . S
H1734 C1740 0.930 . S
H1735 C1744 0.930 . S
H1736 C1749 0.929 . S
H1737 C1747 0.929 . S
H1738 C1742 0.929 . S
H1739 C1748 0.929 . S
C1740 H1734 0.930 . S
C1740 C1741 1.367 . S
C1740 C1748 1.378 . S
C1741 C1740 1.367 . S
C1741 C1749 1.433 . S
C1742 H1738 0.929 . S
C1742 C1744 1.378 . S
C1742 C1746 1.350 . S
C1743 C1746 1.463 . S
C1743 C1748 1.350 . S
C1743 N1751 1.427 . S
C1744 H1735 0.930 . S
C1744 C1742 1.378 . S
C1744 C1745 1.367 . S
C1745 C1744 1.367 . S
C1745 C1747 1.433 . S
C1746 C1742 1.350 . S
C1746 C1743 1.463 . S
C1746 N1750 1.427 . S
C1747 H1737 0.929 . S
C1747 C1745 1.433 . S
C1747 N1750 1.384 . S
C1748 H1739 0.929 . S
C1748 C1740 1.378 . S
C1748 C1743 1.350 . S
C1749 H1736 0.929 . S
C1749 C1741 1.433 . S
C1749 N1751 1.384 . S
N1750 C1746 1.427 . S
N1750 C1747 1.384 . S
N1751 C1743 1.427 . S
N1751 C1749 1.384 . S
H1752 C1758 0.930 . S
H1753 C1762 0.930 . S
H1754 C1767 0.929 . S
H1755 C1765 0.929 . S
H1756 C1760 0.929 . S
H1757 C1766 0.929 . S
C1758 H1752 0.930 . S
C1758 C1759 1.367 . S
C1758 C1766 1.378 . S
C1759 C1758 1.367 . S
C1759 C1767 1.433 . S
C1760 H1756 0.929 . S
C1760 C1762 1.378 . S
C1760 C1764 1.350 . S
C1761 C1764 1.463 . S
C1761 C1766 1.350 . S
C1761 N1769 1.427 . S
C1762 H1753 0.930 . S
C1762 C1760 1.378 . S
C1762 C1763 1.367 . S
C1763 C1762 1.367 . S
C1763 C1765 1.433 . S
C1764 C1760 1.350 . S
C1764 C1761 1.463 . S
C1764 N1768 1.427 . S
C1765 H1755 0.929 . S
C1765 C1763 1.433 . S
C1765 N1768 1.384 . S
C1766 H1757 0.929 . S
C1766 C1758 1.378 . S
C1766 C1761 1.350 . S
C1767 H1754 0.929 . S
C1767 C1759 1.433 . S
C1767 N1769 1.384 . S
N1768 C1764 1.427 . S
N1768 C1765 1.384 . S
N1769 C1761 1.427 . S
N1769 C1767 1.384 . S
H1770 C1776 0.930 . S
H1771 C1780 0.930 . S
H1772 C1785 0.929 . S
H1773 C1783 0.929 . S
H1774 C1778 0.929 . S
H1775 C1784 0.929 . S
C1776 H1770 0.930 . S
C1776 C1777 1.367 . S
C1776 C1784 1.378 . S
C1777 C1776 1.367 . S
C1777 C1785 1.433 . S
C1778 H1774 0.929 . S
C1778 C1780 1.378 . S
C1778 C1782 1.350 . S
C1779 C1782 1.463 . S
C1779 C1784 1.350 . S
C1779 N1787 1.427 . S
C1780 H1771 0.930 . S
C1780 C1778 1.378 . S
C1780 C1781 1.367 . S
C1781 C1780 1.367 . S
C1781 C1783 1.433 . S
C1782 C1778 1.350 . S
C1782 C1779 1.463 . S
C1782 N1786 1.427 . S
C1783 H1773 0.929 . S
C1783 C1781 1.433 . S
C1783 N1786 1.384 . S
C1784 H1775 0.929 . S
C1784 C1776 1.378 . S
C1784 C1779 1.350 . S
C1785 H1772 0.929 . S
C1785 C1777 1.433 . S
C1785 N1787 1.384 . S
N1786 C1782 1.427 . S
N1786 C1783 1.384 . S
N1787 C1779 1.427 . S
N1787 C1785 1.384 . S
H1788 C1794 0.930 . S
H1789 C1798 0.930 . S
H1790 C1803 0.929 . S
H1791 C1801 0.929 . S
H1792 C1796 0.929 . S
H1793 C1802 0.929 . S
C1794 H1788 0.930 . S
C1794 C1795 1.367 . S
C1794 C1802 1.378 . S
C1795 C1794 1.367 . S
C1795 C1803 1.433 . S
C1796 H1792 0.929 . S
C1796 C1798 1.378 . S
C1796 C1800 1.350 . S
C1797 C1800 1.463 . S
C1797 C1802 1.350 . S
C1797 N1805 1.427 . S
C1798 H1789 0.930 . S
C1798 C1796 1.378 . S
C1798 C1799 1.367 . S
C1799 C1798 1.367 . S
C1799 C1801 1.433 . S
C1800 C1796 1.350 . S
C1800 C1797 1.463 . S
C1800 N1804 1.427 . S
C1801 H1791 0.929 . S
C1801 C1799 1.433 . S
C1801 N1804 1.384 . S
C1802 H1793 0.929 . S
C1802 C1794 1.378 . S
C1802 C1797 1.350 . S
C1803 H1790 0.929 . S
C1803 C1795 1.433 . S
C1803 N1805 1.384 . S
N1804 C1800 1.427 . S
N1804 C1801 1.384 . S
N1805 C1797 1.427 . S
N1805 C1803 1.384 . S
H1806 C1812 0.930 . S
H1807 C1816 0.930 . S
H1808 C1821 0.929 . S
H1809 C1819 0.929 . S
H1810 C1814 0.929 . S
H1811 C1820 0.929 . S
C1812 H1806 0.930 . S
C1812 C1813 1.367 . S
C1812 C1820 1.378 . S
C1813 C1812 1.367 . S
C1813 C1821 1.433 . S
C1814 H1810 0.929 . S
C1814 C1816 1.378 . S
C1814 C1818 1.350 . S
C1815 C1818 1.463 . S
C1815 C1820 1.350 . S
C1815 N1823 1.427 . S
C1816 H1807 0.930 . S
C1816 C1814 1.378 . S
C1816 C1817 1.367 . S
C1817 C1816 1.367 . S
C1817 C1819 1.433 . S
C1818 C1814 1.350 . S
C1818 C1815 1.463 . S
C1818 N1822 1.427 . S
C1819 H1809 0.929 . S
C1819 C1817 1.433 . S
C1819 N1822 1.384 . S
C1820 H1811 0.929 . S
C1820 C1812 1.378 . S
C1820 C1815 1.350 . S
C1821 H1808 0.929 . S
C1821 C1813 1.433 . S
C1821 N1823 1.384 . S
N1822 C1818 1.427 . S
N1822 C1819 1.384 . S
N1823 C1815 1.427 . S
N1823 C1821 1.384 . S
H1824 C1830 0.930 . S
H1825 C1834 0.930 . S
H1826 C1839 0.929 . S
H1827 C1837 0.929 . S
H1828 C1832 0.929 . S
H1829 C1838 0.929 . S
C1830 H1824 0.930 . S
C1830 C1831 1.367 . S
C1830 C1838 1.378 . S
C1831 C1830 1.367 . S
C1831 C1839 1.433 . S
C1832 H1828 0.929 . S
C1832 C1834 1.378 . S
C1832 C1836 1.350 . S
C1833 C1836 1.463 . S
C1833 C1838 1.350 . S
C1833 N1841 1.427 . S
C1834 H1825 0.930 . S
C1834 C1832 1.378 . S
C1834 C1835 1.367 . S
C1835 C1834 1.367 . S
C1835 C1837 1.433 . S
C1836 C1832 1.350 . S
C1836 C1833 1.463 . S
C1836 N1840 1.427 . S
C1837 H1827 0.929 . S
C1837 C1835 1.433 . S
C1837 N1840 1.384 . S
C1838 H1829 0.929 . S
C1838 C1830 1.378 . S
C1838 C1833 1.350 . S
C1839 H1826 0.929 . S
C1839 C1831 1.433 . S
C1839 N1841 1.384 . S
N1840 C1836 1.427 . S
N1840 C1837 1.384 . S
N1841 C1833 1.427 . S
N1841 C1839 1.384 . S
H1842 C1848 0.930 . S
H1843 C1852 0.930 . S
H1844 C1857 0.929 . S
H1845 C1855 0.929 . S
H1846 C1850 0.929 . S
H1847 C1856 0.929 . S
C1848 H1842 0.930 . S
C1848 C1849 1.367 . S
C1848 C1856 1.378 . S
C1849 C1848 1.367 . S
C1849 C1857 1.433 . S
C1850 H1846 0.929 . S
C1850 C1852 1.378 . S
C1850 C1854 1.350 . S
C1851 C1854 1.463 . S
C1851 C1856 1.350 . S
C1851 N1859 1.427 . S
C1852 H1843 0.930 . S
C1852 C1850 1.378 . S
C1852 C1853 1.367 . S
C1853 C1852 1.367 . S
C1853 C1855 1.433 . S
C1854 C1850 1.350 . S
C1854 C1851 1.463 . S
C1854 N1858 1.427 . S
C1855 H1845 0.929 . S
C1855 C1853 1.433 . S
C1855 N1858 1.384 . S
C1856 H1847 0.929 . S
C1856 C1848 1.378 . S
C1856 C1851 1.350 . S
C1857 H1844 0.929 . S
C1857 C1849 1.433 . S
C1857 N1859 1.384 . S
N1858 C1854 1.427 . S
N1858 C1855 1.384 . S
N1859 C1851 1.427 . S
N1859 C1857 1.384 . S
H1860 C1866 0.930 . S
H1861 C1870 0.930 . S
H1862 C1875 0.929 . S
H1863 C1873 0.929 . S
H1864 C1868 0.929 . S
H1865 C1874 0.929 . S
C1866 H1860 0.930 . S
C1866 C1867 1.367 . S
C1866 C1874 1.378 . S
C1867 C1866 1.367 . S
C1867 C1875 1.433 . S
C1868 H1864 0.929 . S
C1868 C1870 1.378 . S
C1868 C1872 1.350 . S
C1869 C1872 1.463 . S
C1869 C1874 1.350 . S
C1869 N1877 1.427 . S
C1870 H1861 0.930 . S
C1870 C1868 1.378 . S
C1870 C1871 1.367 . S
C1871 C1870 1.367 . S
C1871 C1873 1.433 . S
C1872 C1868 1.350 . S
C1872 C1869 1.463 . S
C1872 N1876 1.427 . S
C1873 H1863 0.929 . S
C1873 C1871 1.433 . S
C1873 N1876 1.384 . S
C1874 H1865 0.929 . S
C1874 C1866 1.378 . S
C1874 C1869 1.350 . S
C1875 H1862 0.929 . S
C1875 C1867 1.433 . S
C1875 N1877 1.384 . S
N1876 C1872 1.427 . S
N1876 C1873 1.384 . S
N1877 C1869 1.427 . S
N1877 C1875 1.384 . S
H1878 C1884 0.930 . S
H1879 C1888 0.930 . S
H1880 C1893 0.929 . S
H1881 C1891 0.929 . S
H1882 C1886 0.929 . S
H1883 C1892 0.929 . S
C1884 H1878 0.930 . S
C1884 C1885 1.367 . S
C1884 C1892 1.378 . S
C1885 C1884 1.367 . S
C1885 C1893 1.433 . S
C1886 H1882 0.929 . S
C1886 C1888 1.378 . S
C1886 C1890 1.350 . S
C1887 C1890 1.463 . S
C1887 C1892 1.350 . S
C1887 N1895 1.427 . S
C1888 H1879 0.930 . S
C1888 C1886 1.378 . S
C1888 C1889 1.367 . S
C1889 C1888 1.367 . S
C1889 C1891 1.433 . S
C1890 C1886 1.350 . S
C1890 C1887 1.463 . S
C1890 N1894 1.427 . S
C1891 H1881 0.929 . S
C1891 C1889 1.433 . S
C1891 N1894 1.384 . S
C1892 H1883 0.929 . S
C1892 C1884 1.378 . S
C1892 C1887 1.350 . S
C1893 H1880 0.929 . S
C1893 C1885 1.433 . S
C1893 N1895 1.384 . S
N1894 C1890 1.427 . S
N1894 C1891 1.384 . S
N1895 C1887 1.427 . S
N1895 C1893 1.384 . S
H1896 C1902 0.930 . S
H1897 C1906 0.930 . S
H1898 C1911 0.929 . S
H1899 C1909 0.929 . S
H1900 C1904 0.929 . S
H1901 C1910 0.929 . S
C1902 H1896 0.930 . S
C1902 C1903 1.367 . S
C1902 C1910 1.378 . S
C1903 C1902 1.367 . S
C1903 C1911 1.433 . S
C1904 H1900 0.929 . S
C1904 C1906 1.378 . S
C1904 C1908 1.350 . S
C1905 C1908 1.463 . S
C1905 C1910 1.350 . S
C1905 N1913 1.427 . S
C1906 H1897 0.930 . S
C1906 C1904 1.378 . S
C1906 C1907 1.367 . S
C1907 C1906 1.367 . S
C1907 C1909 1.433 . S
C1908 C1904 1.350 . S
C1908 C1905 1.463 . S
C1908 N1912 1.427 . S
C1909 H1899 0.929 . S
C1909 C1907 1.433 . S
C1909 N1912 1.384 . S
C1910 H1901 0.929 . S
C1910 C1902 1.378 . S
C1910 C1905 1.350 . S
C1911 H1898 0.929 . S
C1911 C1903 1.433 . S
C1911 N1913 1.384 . S
N1912 C1908 1.427 . S
N1912 C1909 1.384 . S
N1913 C1905 1.427 . S
N1913 C1911 1.384 . S
H1914 C1920 0.930 . S
H1915 C1924 0.930 . S
H1916 C1929 0.929 . S
H1917 C1927 0.929 . S
H1918 C1922 0.929 . S
H1919 C1928 0.929 . S
C1920 H1914 0.930 . S
C1920 C1921 1.367 . S
C1920 C1928 1.378 . S
C1921 C1920 1.367 . S
C1921 C1929 1.433 . S
C1922 H1918 0.929 . S
C1922 C1924 1.378 . S
C1922 C1926 1.350 . S
C1923 C1926 1.463 . S
C1923 C1928 1.350 . S
C1923 N1931 1.427 . S
C1924 H1915 0.930 . S
C1924 C1922 1.378 . S
C1924 C1925 1.367 . S
C1925 C1924 1.367 . S
C1925 C1927 1.433 . S
C1926 C1922 1.350 . S
C1926 C1923 1.463 . S
C1926 N1930 1.427 . S
C1927 H1917 0.929 . S
C1927 C1925 1.433 . S
C1927 N1930 1.384 . S
C1928 H1919 0.929 . S
C1928 C1920 1.378 . S
C1928 C1923 1.350 . S
C1929 H1916 0.929 . S
C1929 C1921 1.433 . S
C1929 N1931 1.384 . S
N1930 C1926 1.427 . S
N1930 C1927 1.384 . S
N1931 C1923 1.427 . S
N1931 C1929 1.384 . S
H1932 C1938 0.930 . S
H1933 C1942 0.930 . S
H1934 C1947 0.929 . S
H1935 C1945 0.929 . S
H1936 C1940 0.929 . S
H1937 C1946 0.929 . S
C1938 H1932 0.930 . S
C1938 C1939 1.367 . S
C1938 C1946 1.378 . S
C1939 C1938 1.367 . S
C1939 C1947 1.433 . S
C1940 H1936 0.929 . S
C1940 C1942 1.378 . S
C1940 C1944 1.350 . S
C1941 C1944 1.463 . S
C1941 C1946 1.350 . S
C1941 N1949 1.427 . S
C1942 H1933 0.930 . S
C1942 C1940 1.378 . S
C1942 C1943 1.367 . S
C1943 C1942 1.367 . S
C1943 C1945 1.433 . S
C1944 C1940 1.350 . S
C1944 C1941 1.463 . S
C1944 N1948 1.427 . S
C1945 H1935 0.929 . S
C1945 C1943 1.433 . S
C1945 N1948 1.384 . S
C1946 H1937 0.929 . S
C1946 C1938 1.378 . S
C1946 C1941 1.350 . S
C1947 H1934 0.929 . S
C1947 C1939 1.433 . S
C1947 N1949 1.384 . S
N1948 C1944 1.427 . S
N1948 C1945 1.384 . S
N1949 C1941 1.427 . S
N1949 C1947 1.384 . S
H1950 C1956 0.930 . S
H1951 C1960 0.930 . S
H1952 C1965 0.929 . S
H1953 C1963 0.929 . S
H1954 C1958 0.929 . S
H1955 C1964 0.929 . S
C1956 H1950 0.930 . S
C1956 C1957 1.367 . S
C1956 C1964 1.378 . S
C1957 C1956 1.367 . S
C1957 C1965 1.433 . S
C1958 H1954 0.929 . S
C1958 C1960 1.378 . S
C1958 C1962 1.350 . S
C1959 C1962 1.463 . S
C1959 C1964 1.350 . S
C1959 N1967 1.427 . S
C1960 H1951 0.930 . S
C1960 C1958 1.378 . S
C1960 C1961 1.367 . S
C1961 C1960 1.367 . S
C1961 C1963 1.433 . S
C1962 C1958 1.350 . S
C1962 C1959 1.463 . S
C1962 N1966 1.427 . S
C1963 H1953 0.929 . S
C1963 C1961 1.433 . S
C1963 N1966 1.384 . S
C1964 H1955 0.929 . S
C1964 C1956 1.378 . S
C1964 C1959 1.350 . S
C1965 H1952 0.929 . S
C1965 C1957 1.433 . S
C1965 N1967 1.384 . S
N1966 C1962 1.427 . S
N1966 C1963 1.384 . S
N1967 C1959 1.427 . S
N1967 C1965 1.384 . S
H1968 C1974 0.930 . S
H1969 C1978 0.930 . S
H1970 C1983 0.929 . S
H1971 C1981 0.929 . S
H1972 C1976 0.929 . S
H1973 C1982 0.929 . S
C1974 H1968 0.930 . S
C1974 C1975 1.367 . S
C1974 C1982 1.378 . S
C1975 C1974 1.367 . S
C1975 C1983 1.433 . S
C1976 H1972 0.929 . S
C1976 C1978 1.378 . S
C1976 C1980 1.350 . S
C1977 C1980 1.463 1_655 S
C1977 C1982 1.350 . S
C1977 N1985 1.427 . S
C1978 H1969 0.930 . S
C1978 C1976 1.378 . S
C1978 C1979 1.367 . S
C1979 C1978 1.367 . S
C1979 C1981 1.433 . S
C1980 C1976 1.350 . S
C1980 C1977 1.463 1_455 S
C1980 N1984 1.427 . S
C1981 H1971 0.929 . S
C1981 C1979 1.433 . S
C1981 N1984 1.384 . S
C1982 H1973 0.929 . S
C1982 C1974 1.378 . S
C1982 C1977 1.350 . S
C1983 H1970 0.929 . S
C1983 C1975 1.433 . S
C1983 N1985 1.384 . S
N1984 C1980 1.427 . S
N1984 C1981 1.384 . S
N1985 C1977 1.427 . S
N1985 C1983 1.384 . S
H1986 C1992 0.930 . S
H1987 C1996 0.930 . S
H1988 C2001 0.929 . S
H1989 C1999 0.929 . S
H1990 C1994 0.921 1_545 S
H1991 C2000 0.937 . S
C1992 H1986 0.930 . S
C1992 C1993 1.367 . S
C1992 C2000 1.378 . S
C1993 C1992 1.367 . S
C1993 C2001 1.433 . S
C1994 H1990 0.921 1_565 S
C1994 C1996 1.384 . S
C1994 C1998 1.351 . S
C1995 C1998 1.463 1_545 S
C1995 C2000 1.350 . S
C1995 N2003 1.427 . S
C1996 H1987 0.930 . S
C1996 C1994 1.384 . S
C1996 C1997 1.367 . S
C1997 C1996 1.367 . S
C1997 C1999 1.433 . S
C1998 C1994 1.351 . S
C1998 C1995 1.463 1_565 S
C1998 N2002 1.427 . S
C1999 H1989 0.929 . S
C1999 C1997 1.433 . S
C1999 N2002 1.384 . S
C2000 H1991 0.937 . S
C2000 C1992 1.378 . S
C2000 C1995 1.350 . S
C2001 H1988 0.929 . S
C2001 C1993 1.433 . S
C2001 N2003 1.384 . S
N2002 C1998 1.427 . S
N2002 C1999 1.384 . S
N2003 C1995 1.427 . S
N2003 C2001 1.384 . S
H2004 C2010 0.930 . S
H2005 C2014 0.930 . S
H2006 C2019 0.929 . S
H2007 C2017 0.929 . S
H2008 C2012 0.929 . S
H2009 C2018 0.929 . S
C2010 H2004 0.930 . S
C2010 C2011 1.367 . S
C2010 C2018 1.378 . S
C2011 C2010 1.367 . S
C2011 C2019 1.433 . S
C2012 H2008 0.929 . S
C2012 C2014 1.378 . S
C2012 C2016 1.350 . S
C2013 C2016 1.463 . S
C2013 C2018 1.350 . S
C2013 N2021 1.427 . S
C2014 H2005 0.930 . S
C2014 C2012 1.378 . S
C2014 C2015 1.367 . S
C2015 C2014 1.367 . S
C2015 C2017 1.433 . S
C2016 C2012 1.350 . S
C2016 C2013 1.463 . S
C2016 N2020 1.427 . S
C2017 H2007 0.929 . S
C2017 C2015 1.433 . S
C2017 N2020 1.384 . S
C2018 H2009 0.929 . S
C2018 C2010 1.378 . S
C2018 C2013 1.350 . S
C2019 H2006 0.929 . S
C2019 C2011 1.433 . S
C2019 N2021 1.384 . S
N2020 C2016 1.427 . S
N2020 C2017 1.384 . S
N2021 C2013 1.427 . S
N2021 C2019 1.384 . S
H2022 C2028 0.930 . S
H2023 C2032 0.930 . S
H2024 C2037 0.929 . S
H2025 C2035 0.929 . S
H2026 C2030 0.929 . S
H2027 C2036 0.929 . S
C2028 H2022 0.930 . S
C2028 C2029 1.367 . S
C2028 C2036 1.378 . S
C2029 C2028 1.367 . S
C2029 C2037 1.433 . S
C2030 H2026 0.929 . S
C2030 C2032 1.378 . S
C2030 C2034 1.350 . S
C2031 C2034 1.463 . S
C2031 C2036 1.350 . S
C2031 N2039 1.427 . S
C2032 H2023 0.930 . S
C2032 C2030 1.378 . S
C2032 C2033 1.367 . S
C2033 C2032 1.367 . S
C2033 C2035 1.433 . S
C2034 C2030 1.350 . S
C2034 C2031 1.463 . S
C2034 N2038 1.427 . S
C2035 H2025 0.929 . S
C2035 C2033 1.433 . S
C2035 N2038 1.384 . S
C2036 H2027 0.929 . S
C2036 C2028 1.378 . S
C2036 C2031 1.350 . S
C2037 H2024 0.929 . S
C2037 C2029 1.433 . S
C2037 N2039 1.384 . S
N2038 C2034 1.427 . S
N2038 C2035 1.384 . S
N2039 C2031 1.427 . S
N2039 C2037 1.384 . S
H2040 C2046 0.930 . S
H2041 C2050 0.930 . S
H2042 C2055 0.929 . S
H2043 C2053 0.929 . S
H2044 C2048 0.929 . S
H2045 C2054 0.929 . S
C2046 H2040 0.930 . S
C2046 C2047 1.367 . S
C2046 C2054 1.378 . S
C2047 C2046 1.367 . S
C2047 C2055 1.433 . S
C2048 H2044 0.929 . S
C2048 C2050 1.378 . S
C2048 C2052 1.350 . S
C2049 C2052 1.463 1_455 S
C2049 C2054 1.350 . S
C2049 N2057 1.427 . S
C2050 H2041 0.930 . S
C2050 C2048 1.378 . S
C2050 C2051 1.367 . S
C2051 C2050 1.367 . S
C2051 C2053 1.433 . S
C2052 C2048 1.350 . S
C2052 C2049 1.463 1_655 S
C2052 N2056 1.427 . S
C2053 H2043 0.929 . S
C2053 C2051 1.433 . S
C2053 N2056 1.384 . S
C2054 H2045 0.929 . S
C2054 C2046 1.378 . S
C2054 C2049 1.350 . S
C2055 H2042 0.929 . S
C2055 C2047 1.433 . S
C2055 N2057 1.384 . S
N2056 C2052 1.427 . S
N2056 C2053 1.384 . S
N2057 C2049 1.427 . S
N2057 C2055 1.384 . S
H2058 C2064 0.930 . S
H2059 C2068 0.930 . S
H2060 C2073 0.929 . S
H2061 C2071 0.929 . S
H2062 C2066 0.929 . S
H2063 C2072 0.929 . S
C2064 H2058 0.930 . S
C2064 C2065 1.367 . S
C2064 C2072 1.378 . S
C2065 C2064 1.367 . S
C2065 C2073 1.433 . S
C2066 H2062 0.929 . S
C2066 C2068 1.378 . S
C2066 C2070 1.350 . S
C2067 C2070 1.463 1_545 S
C2067 C2072 1.350 . S
C2067 N2075 1.427 . S
C2068 H2059 0.930 . S
C2068 C2066 1.378 . S
C2068 C2069 1.367 . S
C2069 C2068 1.367 . S
C2069 C2071 1.433 . S
C2070 C2066 1.350 . S
C2070 C2067 1.463 1_565 S
C2070 N2074 1.427 . S
C2071 H2061 0.929 . S
C2071 C2069 1.433 . S
C2071 N2074 1.384 . S
C2072 H2063 0.929 . S
C2072 C2064 1.378 . S
C2072 C2067 1.350 . S
C2073 H2060 0.929 . S
C2073 C2065 1.433 . S
C2073 N2075 1.384 . S
N2074 C2070 1.427 . S
N2074 C2071 1.384 . S
N2075 C2067 1.427 . S
N2075 C2073 1.384 . S
H2076 C2082 0.930 . S
H2077 C2086 0.930 . S
H2078 C2091 0.929 . S
H2079 C2089 0.929 . S
H2080 C2084 0.929 . S
H2081 C2090 0.929 . S
C2082 H2076 0.930 . S
C2082 C2083 1.367 . S
C2082 C2090 1.378 . S
C2083 C2082 1.367 . S
C2083 C2091 1.433 . S
C2084 H2080 0.929 . S
C2084 C2086 1.378 . S
C2084 C2088 1.350 . S
C2085 C2088 1.463 . S
C2085 C2090 1.350 . S
C2085 N2093 1.427 . S
C2086 H2077 0.930 . S
C2086 C2084 1.378 . S
C2086 C2087 1.367 . S
C2087 C2086 1.367 . S
C2087 C2089 1.433 . S
C2088 C2084 1.350 . S
C2088 C2085 1.463 . S
C2088 N2092 1.427 . S
C2089 H2079 0.929 . S
C2089 C2087 1.433 . S
C2089 N2092 1.384 . S
C2090 H2081 0.929 . S
C2090 C2082 1.378 . S
C2090 C2085 1.350 . S
C2091 H2078 0.929 . S
C2091 C2083 1.433 . S
C2091 N2093 1.384 . S
N2092 C2088 1.427 . S
N2092 C2089 1.384 . S
N2093 C2085 1.427 . S
N2093 C2091 1.384 . S
H2094 C2100 0.930 . S
H2095 C2104 0.930 . S
H2096 C2109 0.929 . S
H2097 C2107 0.929 . S
H2098 C2102 0.929 . S
H2099 C2108 0.929 . S
C2100 H2094 0.930 . S
C2100 C2101 1.367 . S
C2100 C2108 1.378 . S
C2101 C2100 1.367 . S
C2101 C2109 1.433 . S
C2102 H2098 0.929 . S
C2102 C2104 1.378 . S
C2102 C2106 1.350 . S
C2103 C2106 1.463 . S
C2103 C2108 1.350 . S
C2103 N2111 1.427 . S
C2104 H2095 0.930 . S
C2104 C2102 1.378 . S
C2104 C2105 1.367 . S
C2105 C2104 1.367 . S
C2105 C2107 1.433 . S
C2106 C2102 1.350 . S
C2106 C2103 1.463 . S
C2106 N2110 1.427 . S
C2107 H2097 0.929 . S
C2107 C2105 1.433 . S
C2107 N2110 1.384 . S
C2108 H2099 0.929 . S
C2108 C2100 1.378 . S
C2108 C2103 1.350 . S
C2109 H2096 0.929 . S
C2109 C2101 1.433 . S
C2109 N2111 1.384 . S
N2110 C2106 1.427 . S
N2110 C2107 1.384 . S
N2111 C2103 1.427 . S
N2111 C2109 1.384 . S
H2112 C2118 0.930 . S
H2113 C2122 0.930 . S
H2114 C2127 0.929 . S
H2115 C2125 0.929 . S
H2116 C2120 0.929 . S
H2117 C2126 0.929 . S
C2118 H2112 0.930 . S
C2118 C2119 1.367 . S
C2118 C2126 1.378 . S
C2119 C2118 1.367 . S
C2119 C2127 1.433 . S
C2120 H2116 0.929 . S
C2120 C2122 1.378 . S
C2120 C2124 1.350 . S
C2121 C2124 1.463 1_545 S
C2121 C2126 1.350 . S
C2121 N2129 1.427 . S
C2122 H2113 0.930 . S
C2122 C2120 1.378 . S
C2122 C2123 1.367 . S
C2123 C2122 1.367 . S
C2123 C2125 1.433 . S
C2124 C2120 1.350 . S
C2124 C2121 1.463 1_565 S
C2124 N2128 1.427 . S
C2125 H2115 0.929 . S
C2125 C2123 1.433 . S
C2125 N2128 1.384 . S
C2126 H2117 0.929 . S
C2126 C2118 1.378 . S
C2126 C2121 1.350 . S
C2127 H2114 0.929 . S
C2127 C2119 1.433 . S
C2127 N2129 1.384 . S
N2128 C2124 1.427 . S
N2128 C2125 1.384 . S
N2129 C2121 1.427 . S
N2129 C2127 1.384 . S
H2130 C2136 0.930 . S
H2131 C2140 0.930 . S
H2132 C2145 0.929 . S
H2133 C2143 0.929 . S
H2134 C2138 0.929 . S
H2135 C2144 0.929 . S
C2136 H2130 0.930 . S
C2136 C2137 1.367 . S
C2136 C2144 1.378 . S
C2137 C2136 1.367 . S
C2137 C2145 1.433 . S
C2138 H2134 0.929 . S
C2138 C2140 1.378 . S
C2138 C2142 1.350 . S
C2139 C2142 1.463 . S
C2139 C2144 1.350 . S
C2139 N2147 1.427 . S
C2140 H2131 0.930 . S
C2140 C2138 1.378 . S
C2140 C2141 1.367 . S
C2141 C2140 1.367 . S
C2141 C2143 1.433 . S
C2142 C2138 1.350 . S
C2142 C2139 1.463 . S
C2142 N2146 1.427 . S
C2143 H2133 0.929 . S
C2143 C2141 1.433 . S
C2143 N2146 1.384 . S
C2144 H2135 0.929 . S
C2144 C2136 1.378 . S
C2144 C2139 1.350 . S
C2145 H2132 0.929 . S
C2145 C2137 1.433 . S
C2145 N2147 1.384 . S
N2146 C2142 1.427 . S
N2146 C2143 1.384 . S
N2147 C2139 1.427 . S
N2147 C2145 1.384 . S
H2148 C2154 0.930 . S
H2149 C2158 0.930 . S
H2150 C2163 0.929 . S
H2151 C2161 0.929 . S
H2152 C2156 0.929 . S
H2153 C2162 0.929 . S
C2154 H2148 0.930 . S
C2154 C2155 1.367 . S
C2154 C2162 1.378 . S
C2155 C2154 1.367 . S
C2155 C2163 1.433 . S
C2156 H2152 0.929 . S
C2156 C2158 1.378 . S
C2156 C2160 1.350 . S
C2157 C2160 1.463 . S
C2157 C2162 1.350 . S
C2157 N2165 1.427 . S
C2158 H2149 0.930 . S
C2158 C2156 1.378 . S
C2158 C2159 1.367 . S
C2159 C2158 1.367 . S
C2159 C2161 1.433 . S
C2160 C2156 1.350 . S
C2160 C2157 1.463 . S
C2160 N2164 1.427 . S
C2161 H2151 0.929 . S
C2161 C2159 1.433 . S
C2161 N2164 1.384 . S
C2162 H2153 0.929 . S
C2162 C2154 1.378 . S
C2162 C2157 1.350 . S
C2163 H2150 0.929 . S
C2163 C2155 1.433 . S
C2163 N2165 1.384 . S
N2164 C2160 1.427 . S
N2164 C2161 1.384 . S
N2165 C2157 1.427 . S
N2165 C2163 1.384 . S
H2166 C2172 0.930 . S
H2167 C2176 0.930 . S
H2168 C2181 0.929 . S
H2169 C2179 0.929 . S
H2170 C2174 0.929 1_655 S
H2171 C2180 0.929 . S
C2172 H2166 0.930 . S
C2172 C2173 1.367 . S
C2172 C2180 1.378 1_655 S
C2173 C2172 1.367 . S
C2173 C2181 1.433 . S
C2174 H2170 0.929 1_455 S
C2174 C2176 1.378 . S
C2174 C2178 1.350 . S
C2175 C2178 1.463 1_655 S
C2175 C2180 1.350 1_655 S
C2175 N2183 1.427 . S
C2176 H2167 0.930 . S
C2176 C2174 1.378 . S
C2176 C2177 1.367 . S
C2177 C2176 1.367 . S
C2177 C2179 1.433 . S
C2178 C2174 1.350 . S
C2178 C2175 1.463 1_455 S
C2178 N2182 1.427 . S
C2179 H2169 0.929 . S
C2179 C2177 1.433 . S
C2179 N2182 1.384 . S
C2180 H2171 0.929 . S
C2180 C2172 1.378 1_455 S
C2180 C2175 1.350 1_455 S
C2181 H2168 0.929 . S
C2181 C2173 1.433 . S
C2181 N2183 1.384 . S
N2182 C2178 1.427 . S
N2182 C2179 1.384 . S
N2183 C2175 1.427 . S
N2183 C2181 1.384 . S
H2184 C2190 0.930 . S
H2185 C2194 0.930 . S
H2186 C2199 0.929 . S
H2187 C2197 0.929 . S
H2188 C2192 0.929 . S
H2189 C2198 0.929 . S
C2190 H2184 0.930 . S
C2190 C2191 1.367 . S
C2190 C2198 1.378 . S
C2191 C2190 1.367 . S
C2191 C2199 1.433 . S
C2192 H2188 0.929 . S
C2192 C2194 1.378 . S
C2192 C2196 1.350 . S
C2193 C2196 1.463 . S
C2193 C2198 1.350 . S
C2193 N2201 1.427 . S
C2194 H2185 0.930 . S
C2194 C2192 1.378 . S
C2194 C2195 1.367 . S
C2195 C2194 1.367 . S
C2195 C2197 1.433 . S
C2196 C2192 1.350 . S
C2196 C2193 1.463 . S
C2196 N2200 1.427 . S
C2197 H2187 0.929 . S
C2197 C2195 1.433 . S
C2197 N2200 1.384 . S
C2198 H2189 0.929 . S
C2198 C2190 1.378 . S
C2198 C2193 1.350 . S
C2199 H2186 0.929 . S
C2199 C2191 1.433 . S
C2199 N2201 1.384 . S
N2200 C2196 1.427 . S
N2200 C2197 1.384 . S
N2201 C2193 1.427 . S
N2201 C2199 1.384 . S
H2202 C2208 0.930 . S
H2203 C2212 0.930 . S
H2204 C2217 0.929 . S
H2205 C2215 0.929 . S
H2206 C2210 0.929 . S
H2207 C2216 0.929 . S
C2208 H2202 0.930 . S
C2208 C2209 1.367 . S
C2208 C2216 1.378 . S
C2209 C2208 1.367 . S
C2209 C2217 1.433 . S
C2210 H2206 0.929 . S
C2210 C2212 1.378 . S
C2210 C2214 1.350 . S
C2211 C2214 1.463 1_655 S
C2211 C2216 1.350 . S
C2211 N2219 1.427 . S
C2212 H2203 0.930 . S
C2212 C2210 1.378 . S
C2212 C2213 1.367 . S
C2213 C2212 1.367 . S
C2213 C2215 1.433 . S
C2214 C2210 1.350 . S
C2214 C2211 1.463 1_455 S
C2214 N2218 1.427 . S
C2215 H2205 0.929 . S
C2215 C2213 1.433 . S
C2215 N2218 1.384 . S
C2216 H2207 0.929 . S
C2216 C2208 1.378 . S
C2216 C2211 1.350 . S
C2217 H2204 0.929 . S
C2217 C2209 1.433 . S
C2217 N2219 1.384 . S
N2218 C2214 1.427 . S
N2218 C2215 1.384 . S
N2219 C2211 1.427 . S
N2219 C2217 1.384 . S
H2220 C2226 0.930 . S
H2221 C2230 0.930 . S
H2222 C2235 0.929 . S
H2223 C2233 0.929 . S
H2224 C2228 0.929 . S
H2225 C2234 0.929 . S
C2226 H2220 0.930 . S
C2226 C2227 1.367 . S
C2226 C2234 1.378 . S
C2227 C2226 1.367 . S
C2227 C2235 1.433 . S
C2228 H2224 0.929 . S
C2228 C2230 1.378 . S
C2228 C2232 1.350 . S
C2229 C2232 1.463 1_565 S
C2229 C2234 1.350 . S
C2229 N2237 1.427 . S
C2230 H2221 0.930 . S
C2230 C2228 1.378 . S
C2230 C2231 1.367 . S
C2231 C2230 1.367 . S
C2231 C2233 1.433 . S
C2232 C2228 1.350 . S
C2232 C2229 1.463 1_545 S
C2232 N2236 1.427 . S
C2233 H2223 0.929 . S
C2233 C2231 1.433 . S
C2233 N2236 1.384 . S
C2234 H2225 0.929 . S
C2234 C2226 1.378 . S
C2234 C2229 1.350 . S
C2235 H2222 0.929 . S
C2235 C2227 1.433 . S
C2235 N2237 1.384 . S
N2236 C2232 1.427 . S
N2236 C2233 1.384 . S
N2237 C2229 1.427 . S
N2237 C2235 1.384 . S
H2238 C2244 0.930 . S
H2239 C2248 0.930 . S
H2240 C2253 0.929 . S
H2241 C2251 0.929 . S
H2242 C2246 0.929 . S
H2243 C2252 0.929 . S
C2244 H2238 0.930 . S
C2244 C2245 1.367 . S
C2244 C2252 1.378 . S
C2245 C2244 1.367 . S
C2245 C2253 1.433 . S
C2246 H2242 0.929 . S
C2246 C2248 1.378 . S
C2246 C2250 1.350 . S
C2247 C2250 1.463 . S
C2247 C2252 1.350 . S
C2247 N2255 1.427 . S
C2248 H2239 0.930 . S
C2248 C2246 1.378 . S
C2248 C2249 1.367 . S
C2249 C2248 1.367 . S
C2249 C2251 1.433 . S
C2250 C2246 1.350 . S
C2250 C2247 1.463 . S
C2250 N2254 1.427 . S
C2251 H2241 0.929 . S
C2251 C2249 1.433 . S
C2251 N2254 1.384 . S
C2252 H2243 0.929 . S
C2252 C2244 1.378 . S
C2252 C2247 1.350 . S
C2253 H2240 0.929 . S
C2253 C2245 1.433 . S
C2253 N2255 1.384 . S
N2254 C2250 1.427 . S
N2254 C2251 1.384 . S
N2255 C2247 1.427 . S
N2255 C2253 1.384 . S
H2256 C2262 0.930 . S
H2257 C2266 0.930 . S
H2258 C2271 0.929 . S
H2259 C2269 0.929 . S
H2260 C2264 0.929 . S
H2261 C2270 0.929 1_556 S
C2262 H2256 0.930 . S
C2262 C2263 1.367 . S
C2262 C2270 1.378 . S
C2263 C2262 1.367 . S
C2263 C2271 1.433 . S
C2264 H2260 0.929 . S
C2264 C2266 1.378 1_554 S
C2264 C2268 1.350 1_554 S
C2265 C2268 1.463 1_554 S
C2265 C2270 1.350 . S
C2265 N2273 1.427 . S
C2266 H2257 0.930 . S
C2266 C2264 1.378 1_556 S
C2266 C2267 1.367 . S
C2267 C2266 1.367 . S
C2267 C2269 1.433 . S
C2268 C2264 1.350 1_556 S
C2268 C2265 1.463 1_556 S
C2268 N2272 1.427 . S
C2269 H2259 0.929 . S
C2269 C2267 1.433 . S
C2269 N2272 1.384 . S
C2270 H2261 0.929 1_554 S
C2270 C2262 1.378 . S
C2270 C2265 1.350 . S
C2271 H2258 0.929 . S
C2271 C2263 1.433 . S
C2271 N2273 1.384 . S
N2272 C2268 1.427 . S
N2272 C2269 1.384 . S
N2273 C2265 1.427 . S
N2273 C2271 1.384 . S
H2274 C2280 0.930 . S
H2275 C2284 0.930 . S
H2276 C2289 0.929 . S
H2277 C2287 0.929 . S
H2278 C2282 0.929 . S
H2279 C2288 0.929 . S
C2280 H2274 0.930 . S
C2280 C2281 1.367 . S
C2280 C2288 1.378 . S
C2281 C2280 1.367 . S
C2281 C2289 1.433 . S
C2282 H2278 0.929 . S
C2282 C2284 1.378 . S
C2282 C2286 1.350 . S
C2283 C2286 1.463 . S
C2283 C2288 1.350 . S
C2283 N2291 1.427 . S
C2284 H2275 0.930 . S
C2284 C2282 1.378 . S
C2284 C2285 1.367 . S
C2285 C2284 1.367 . S
C2285 C2287 1.433 . S
C2286 C2282 1.350 . S
C2286 C2283 1.463 . S
C2286 N2290 1.427 . S
C2287 H2277 0.929 . S
C2287 C2285 1.433 . S
C2287 N2290 1.384 . S
C2288 H2279 0.929 . S
C2288 C2280 1.378 . S
C2288 C2283 1.350 . S
C2289 H2276 0.929 . S
C2289 C2281 1.433 . S
C2289 N2291 1.384 . S
N2290 C2286 1.427 . S
N2290 C2287 1.384 . S
N2291 C2283 1.427 . S
N2291 C2289 1.384 . S
H2292 C2298 0.930 . S
H2293 C2302 0.930 . S
H2294 C2307 0.929 . S
H2295 C2305 0.929 . S
H2296 C2300 0.929 . S
H2297 C2306 0.929 . S
C2298 H2292 0.930 . S
C2298 C2299 1.367 . S
C2298 C2306 1.378 . S
C2299 C2298 1.367 . S
C2299 C2307 1.433 . S
C2300 H2296 0.929 . S
C2300 C2302 1.378 . S
C2300 C2304 1.350 . S
C2301 C2304 1.463 . S
C2301 C2306 1.350 . S
C2301 N2309 1.427 . S
C2302 H2293 0.930 . S
C2302 C2300 1.378 . S
C2302 C2303 1.367 . S
C2303 C2302 1.367 . S
C2303 C2305 1.433 . S
C2304 C2300 1.350 . S
C2304 C2301 1.463 . S
C2304 N2308 1.427 . S
C2305 H2295 0.929 . S
C2305 C2303 1.433 . S
C2305 N2308 1.384 . S
C2306 H2297 0.929 . S
C2306 C2298 1.378 . S
C2306 C2301 1.350 . S
C2307 H2294 0.929 . S
C2307 C2299 1.433 . S
C2307 N2309 1.384 . S
N2308 C2304 1.427 . S
N2308 C2305 1.384 . S
N2309 C2301 1.427 . S
N2309 C2307 1.384 . S
H2310 C2316 0.930 . S
H2311 C2320 0.930 . S
H2312 C2325 0.929 . S
H2313 C2323 0.929 . S
H2314 C2318 0.929 . S
H2315 C2324 0.929 . S
C2316 H2310 0.930 . S
C2316 C2317 1.367 . S
C2316 C2324 1.378 . S
C2317 C2316 1.367 . S
C2317 C2325 1.433 . S
C2318 H2314 0.929 . S
C2318 C2320 1.378 . S
C2318 C2322 1.350 . S
C2319 C2322 1.463 . S
C2319 C2324 1.350 . S
C2319 N2327 1.427 . S
C2320 H2311 0.930 . S
C2320 C2318 1.378 . S
C2320 C2321 1.367 . S
C2321 C2320 1.367 . S
C2321 C2323 1.433 . S
C2322 C2318 1.350 . S
C2322 C2319 1.463 . S
C2322 N2326 1.427 . S
C2323 H2313 0.929 . S
C2323 C2321 1.433 . S
C2323 N2326 1.384 . S
C2324 H2315 0.929 . S
C2324 C2316 1.378 . S
C2324 C2319 1.350 . S
C2325 H2312 0.929 . S
C2325 C2317 1.433 . S
C2325 N2327 1.384 . S
N2326 C2322 1.427 . S
N2326 C2323 1.384 . S
N2327 C2319 1.427 . S
N2327 C2325 1.384 . S
H2328 C2334 0.930 . S
H2329 C2338 0.930 . S
H2330 C2343 0.929 . S
H2331 C2341 0.929 . S
H2332 C2336 0.929 . S
H2333 C2342 0.929 . S
C2334 H2328 0.930 . S
C2334 C2335 1.367 . S
C2334 C2342 1.378 . S
C2335 C2334 1.367 . S
C2335 C2343 1.433 . S
C2336 H2332 0.929 . S
C2336 C2338 1.378 . S
C2336 C2340 1.350 . S
C2337 C2340 1.463 . S
C2337 C2342 1.350 . S
C2337 N2345 1.427 . S
C2338 H2329 0.930 . S
C2338 C2336 1.378 . S
C2338 C2339 1.367 . S
C2339 C2338 1.367 . S
C2339 C2341 1.433 . S
C2340 C2336 1.350 . S
C2340 C2337 1.463 . S
C2340 N2344 1.427 . S
C2341 H2331 0.929 . S
C2341 C2339 1.433 . S
C2341 N2344 1.384 . S
C2342 H2333 0.929 . S
C2342 C2334 1.378 . S
C2342 C2337 1.350 . S
C2343 H2330 0.929 . S
C2343 C2335 1.433 . S
C2343 N2345 1.384 . S
N2344 C2340 1.427 . S
N2344 C2341 1.384 . S
N2345 C2337 1.427 . S
N2345 C2343 1.384 . S
H2346 C2352 0.930 . S
H2347 C2356 0.930 . S
H2348 C2361 0.929 . S
H2349 C2359 0.929 . S
H2350 C2354 0.897 1_554 S
H2351 C2360 0.947 . S
C2352 H2346 0.930 . S
C2352 C2353 1.367 . S
C2352 C2360 1.378 . S
C2353 C2352 1.367 . S
C2353 C2361 1.433 . S
C2354 H2350 0.897 1_556 S
C2354 C2356 1.407 . S
C2354 C2358 1.353 . S
C2355 C2358 1.463 1_554 S
C2355 C2360 1.350 . S
C2355 N2363 1.427 . S
C2356 H2347 0.930 . S
C2356 C2354 1.407 . S
C2356 C2357 1.367 . S
C2357 C2356 1.367 . S
C2357 C2359 1.433 . S
C2358 C2354 1.353 . S
C2358 C2355 1.463 1_556 S
C2358 N2362 1.427 . S
C2359 H2349 0.929 . S
C2359 C2357 1.433 . S
C2359 N2362 1.384 . S
C2360 H2351 0.947 . S
C2360 C2352 1.378 . S
C2360 C2355 1.350 . S
C2361 H2348 0.929 . S
C2361 C2353 1.433 . S
C2361 N2363 1.384 . S
N2362 C2358 1.427 . S
N2362 C2359 1.384 . S
N2363 C2355 1.427 . S
N2363 C2361 1.384 . S
H2364 C2370 0.930 . S
H2365 C2374 0.930 . S
H2366 C2379 0.929 . S
H2367 C2377 0.929 . S
H2368 C2372 0.929 . S
H2369 C2378 0.929 . S
C2370 H2364 0.930 . S
C2370 C2371 1.367 . S
C2370 C2378 1.378 . S
C2371 C2370 1.367 . S
C2371 C2379 1.433 . S
C2372 H2368 0.929 . S
C2372 C2374 1.378 . S
C2372 C2376 1.350 . S
C2373 C2376 1.463 1_556 S
C2373 C2378 1.350 . S
C2373 N2381 1.427 . S
C2374 H2365 0.930 . S
C2374 C2372 1.378 . S
C2374 C2375 1.367 . S
C2375 C2374 1.367 . S
C2375 C2377 1.433 . S
C2376 C2372 1.350 . S
C2376 C2373 1.463 1_554 S
C2376 N2380 1.427 . S
C2377 H2367 0.929 . S
C2377 C2375 1.433 . S
C2377 N2380 1.384 . S
C2378 H2369 0.929 . S
C2378 C2370 1.378 . S
C2378 C2373 1.350 . S
C2379 H2366 0.929 . S
C2379 C2371 1.433 . S
C2379 N2381 1.384 . S
N2380 C2376 1.427 . S
N2380 C2377 1.384 . S
N2381 C2373 1.427 . S
N2381 C2379 1.384 . S
H2382 C2388 0.930 . S
H2383 C2392 0.930 . S
H2384 C2397 0.929 . S
H2385 C2395 0.929 . S
H2386 C2390 0.929 . S
H2387 C2396 0.929 . S
C2388 H2382 0.930 . S
C2388 C2389 1.367 . S
C2388 C2396 1.378 . S
C2389 C2388 1.367 . S
C2389 C2397 1.433 . S
C2390 H2386 0.929 . S
C2390 C2392 1.378 . S
C2390 C2394 1.350 . S
C2391 C2394 1.463 1_554 S
C2391 C2396 1.350 . S
C2391 N2399 1.427 . S
C2392 H2383 0.930 . S
C2392 C2390 1.378 . S
C2392 C2393 1.367 . S
C2393 C2392 1.367 . S
C2393 C2395 1.433 . S
C2394 C2390 1.350 . S
C2394 C2391 1.463 1_556 S
C2394 N2398 1.427 . S
C2395 H2385 0.929 . S
C2395 C2393 1.433 . S
C2395 N2398 1.384 . S
C2396 H2387 0.929 . S
C2396 C2388 1.378 . S
C2396 C2391 1.350 . S
C2397 H2384 0.929 . S
C2397 C2389 1.433 . S
C2397 N2399 1.384 . S
N2398 C2394 1.427 . S
N2398 C2395 1.384 . S
N2399 C2391 1.427 . S
N2399 C2397 1.384 . S
C679 C4 0.665 . S
C683 C32 0.633 . S
C697 C18 0.626 . S
C701 C46 0.672 . S
C715 C60 0.669 . S
C719 C88 0.633 . S
C733 C74 0.625 . S
C737 C102 0.671 . S
C751 C116 0.633 . S
C755 C172 0.664 . S
C769 C130 0.626 . S
C773 C186 0.669 . S
C787 C144 0.664 . S
C791 C200 0.632 . S
C805 C158 0.672 . S
C809 C214 0.628 . S
C823 C270 0.626 . S
C827 C228 0.672 . S
C841 C242 0.651 . S
C845 C298 0.645 . S
C859 C312 0.659 . S
C863 C256 0.636 . S
C877 C284 0.627 . S
C881 C326 0.673 . S
C895 C340 0.619 . S
C899 C368 0.665 . S
C913 C382 0.667 . S
C917 C354 0.615 . S
C931 C396 0.616 . S
C935 C424 0.668 . S
C949 C438 0.664 . S
C953 C410 0.616 . S
C967 C452 0.616 . S
C971 C508 0.666 . S
C985 C466 0.616 . S
C989 C522 0.667 . S
C1003 C480 0.625 . S
C1007 C536 0.657 . S
C1021 C494 0.664 . S
C1025 C550 0.616 . S
C1039 C606 0.616 . S
C1043 C564 0.665 . S
C1057 C578 0.647 . S
C1061 C634 0.635 . S
C1075 C592 0.621 . S
C1079 C648 0.659 . S
C1093 C620 0.621 . S
C1097 C662 0.658 . S
C1111 C5 1.310 . S
C1115 C131 1.339 1_455 S
C1129 C19 1.336 . S
C1133 C145 1.308 1_545 S
C1147 C159 1.318 . S
C1151 C33 1.336 1_455 S
C1165 C117 1.314 . S
C1169 C47 1.335 1_545 S
C1183 C61 1.317 . S
C1187 C215 1.333 1_455 S
C1201 C75 1.340 . S
C1205 C173 1.313 1_545 S
C1219 C187 1.331 . S
C1223 C89 1.313 1_455 S
C1237 C201 1.338 . S
C1241 C103 1.312 1_545 S
C1255 C229 1.337 . S
C1259 C257 1.312 1_554 S
C1273 C243 1.312 1_554 S
C1277 C313 1.332 . S
C1291 C271 1.337 1_554 S
C1295 C327 1.318 . S
C1309 C299 1.334 . S
C1313 C285 1.317 1_554 S
C1327 C467 1.318 . S
C1331 C341 1.296 . S
C1345 C481 1.297 . S
C1349 C355 1.321 . S
C1363 C369 1.289 . S
C1367 C495 1.319 . S
C1381 C453 1.295 . S
C1385 C383 1.318 . S
C1399 C551 1.320 . S
C1403 C397 1.291 . S
C1417 C411 1.291 . S
C1421 C509 1.317 . S
C1435 C523 1.323 . S
C1439 C425 1.293 . S
C1453 C439 1.302 . S
C1457 C537 1.307 . S
C1471 C593 1.298 . S
C1475 C565 1.316 . S
C1489 C649 1.296 . S
C1493 C579 1.318 . S
C1507 C663 1.301 . S
C1511 C607 1.305 . S
C1525 C621 1.320 . S
C1529 C635 1.293 . S
C1543 C12 0.747 . S
C1547 C446 0.726 . S
C1561 C404 0.724 . S
C1565 C26 0.749 . S
C1579 C40 0.724 . S
C1583 C418 0.731 . S
C1597 C432 0.724 . S
C1601 C54 0.755 . S
C1615 C362 0.722 . S
C1619 C68 0.761 . S
C1633 C82 0.737 . S
C1637 C376 0.730 . S
C1651 C390 0.725 . S
C1655 C96 0.737 . S
C1669 C348 0.727 . S
C1673 C110 0.759 . S
C1687 C124 0.715 . S
C1691 C628 0.732 . S
C1705 C586 0.729 . S
C1709 C138 0.727 . S
C1723 C600 0.723 . S
C1727 C152 0.748 . S
C1741 C166 0.732 . S
C1745 C614 0.732 . S
C1759 C180 0.743 . S
C1763 C670 0.728 . S
C1777 C194 0.738 . S
C1781 C642 0.726 . S
C1795 C656 0.722 . S
C1799 C208 0.760 . S
C1813 C222 0.749 . S
C1817 C572 0.729 . S
C1831 C236 0.719 . S
C1835 C558 0.731 . S
C1849 C250 0.756 . S
C1853 C474 0.721 . S
C1867 C264 0.763 . S
C1871 C488 0.723 . S
C1885 C502 0.724 . S
C1889 C278 0.762 . S
C1903 C460 0.726 . S
C1907 C292 0.761 . S
C1921 C306 0.760 . S
C1925 C530 0.722 . S
C1939 C544 0.723 . S
C1943 C320 0.760 . S
C1957 C516 0.732 . S
C1961 C334 0.727 . S
C1975 C389 0.727 . S
C1979 C67 0.650 . S
C1993 C81 0.627 . S
C1997 C347 0.763 . S
C2011 C361 0.719 . S
C2015 C95 0.655 . S
C2029 C109 0.637 . S
C2033 C375 0.743 . S
C2047 C11 0.620 . S
C2051 C417 0.774 . S
C2065 C25 0.621 . S
C2069 C431 0.775 . S
C2083 C445 0.775 . S
C2087 C39 0.621 . S
C2101 C53 0.636 . S
C2105 C403 0.749 . S
C2119 C207 0.621 . S
C2123 C599 0.775 . S
C2137 C221 0.617 . S
C2141 C613 0.775 . S
C2155 C179 0.625 . S
C2159 C627 0.766 . S
C2173 C585 0.749 . S
C2177 C193 0.638 . S
C2191 C151 0.624 . S
C2195 C655 0.770 . S
C2209 C571 0.723 . S
C2213 C165 0.650 . S
C2227 C669 0.774 . S
C2231 C123 0.620 . S
C2245 C641 0.765 . S
C2249 C137 0.627 . S
C2263 C305 0.634 . S
C2267 C473 0.757 . S
C2281 C557 0.730 . S
C2285 C277 0.649 . S
C2299 C291 0.652 . S
C2303 C515 0.720 . S
C2317 C529 0.756 . S
C2321 C249 0.633 . S
C2335 C543 0.733 . S
C2339 C263 0.647 . S
C2353 C235 0.627 . S
C2357 C501 0.764 . S
C2371 C459 0.729 . S
C2375 C333 0.646 . S
C2389 C319 0.655 . S
C2393 C487 0.719 . S
