# Generated by pormake.
# Topology pcu-i, (5)-cn, num edge types: 1
# Building blocks:
#     Node 0, Type 0, BuildingBlock: BEQFEK_clean_sbu_0, # of connection points: 5
#     Node 1, Type 0, BuildingBlock: BEQFEK_clean_sbu_0, # of connection points: 5
#     Node 2, Type 0, BuildingBlock: BEQFEK_clean_sbu_0, # of connection points: 5
#     Node 3, Type 0, BuildingBlock: BEQFEK_clean_sbu_0, # of connection points: 5
#     Node 4, Type 0, BuildingBlock: BEQFEK_clean_sbu_0, # of connection points: 5
#     Node 5, Type 0, BuildingBlock: BEQFEK_clean_sbu_0, # of connection points: 5
#     Node 6, Type 0, BuildingBlock: BEQFEK_clean_sbu_0, # of connection points: 5
#     Node 7, Type 0, BuildingBlock: BEQFEK_clean_sbu_0, # of connection points: 5
#     Node 8, Type 0, BuildingBlock: BEQFEK_clean_sbu_0, # of connection points: 5
#     Node 9, Type 0, BuildingBlock: BEQFEK_clean_sbu_0, # of connection points: 5
#     Node 10, Type 0, BuildingBlock: BEQFEK_clean_sbu_0, # of connection points: 5
#     Node 11, Type 0, BuildingBlock: BEQFEK_clean_sbu_0, # of connection points: 5
#     Node 12, Type 0, BuildingBlock: BEQFEK_clean_sbu_0, # of connection points: 5
#     Node 13, Type 0, BuildingBlock: BEQFEK_clean_sbu_0, # of connection points: 5
#     Node 14, Type 0, BuildingBlock: BEQFEK_clean_sbu_0, # of connection points: 5
#     Node 15, Type 0, BuildingBlock: BEQFEK_clean_sbu_0, # of connection points: 5
#     Node 16, Type 0, BuildingBlock: BEQFEK_clean_sbu_0, # of connection points: 5
#     Node 17, Type 0, BuildingBlock: BEQFEK_clean_sbu_0, # of connection points: 5
#     Node 18, Type 0, BuildingBlock: BEQFEK_clean_sbu_0, # of connection points: 5
#     Node 19, Type 0, BuildingBlock: BEQFEK_clean_sbu_0, # of connection points: 5
#     Node 20, Type 0, BuildingBlock: BEQFEK_clean_sbu_0, # of connection points: 5
#     Node 21, Type 0, BuildingBlock: BEQFEK_clean_sbu_0, # of connection points: 5
#     Node 22, Type 0, BuildingBlock: BEQFEK_clean_sbu_0, # of connection points: 5
#     Node 23, Type 0, BuildingBlock: BEQFEK_clean_sbu_0, # of connection points: 5
#     Edge 24, Type (0, 0), BuildingBlock: UVAHIK_clean_linker_0, # of connection points: 2
#     Edge 25, Type (0, 0), BuildingBlock: UVAHIK_clean_linker_0, # of connection points: 2
#     Edge 26, Type (0, 0), BuildingBlock: UVAHIK_clean_linker_0, # of connection points: 2
#     Edge 27, Type (0, 0), BuildingBlock: UVAHIK_clean_linker_0, # of connection points: 2
#     Edge 28, Type (0, 0), BuildingBlock: UVAHIK_clean_linker_0, # of connection points: 2
#     Edge 29, Type (0, 0), BuildingBlock: UVAHIK_clean_linker_0, # of connection points: 2
#     Edge 30, Type (0, 0), BuildingBlock: UVAHIK_clean_linker_0, # of connection points: 2
#     Edge 31, Type (0, 0), BuildingBlock: UVAHIK_clean_linker_0, # of connection points: 2
#     Edge 32, Type (0, 0), BuildingBlock: UVAHIK_clean_linker_0, # of connection points: 2
#     Edge 33, Type (0, 0), BuildingBlock: UVAHIK_clean_linker_0, # of connection points: 2
#     Edge 34, Type (0, 0), BuildingBlock: UVAHIK_clean_linker_0, # of connection points: 2
#     Edge 35, Type (0, 0), BuildingBlock: UVAHIK_clean_linker_0, # of connection points: 2
#     Edge 36, Type (0, 0), BuildingBlock: UVAHIK_clean_linker_0, # of connection points: 2
#     Edge 37, Type (0, 0), BuildingBlock: UVAHIK_clean_linker_0, # of connection points: 2
#     Edge 38, Type (0, 0), BuildingBlock: UVAHIK_clean_linker_0, # of connection points: 2
#     Edge 39, Type (0, 0), BuildingBlock: UVAHIK_clean_linker_0, # of connection points: 2
#     Edge 40, Type (0, 0), BuildingBlock: UVAHIK_clean_linker_0, # of connection points: 2
#     Edge 41, Type (0, 0), BuildingBlock: UVAHIK_clean_linker_0, # of connection points: 2
#     Edge 42, Type (0, 0), BuildingBlock: UVAHIK_clean_linker_0, # of connection points: 2
#     Edge 43, Type (0, 0), BuildingBlock: UVAHIK_clean_linker_0, # of connection points: 2
#     Edge 44, Type (0, 0), BuildingBlock: UVAHIK_clean_linker_0, # of connection points: 2
#     Edge 45, Type (0, 0), BuildingBlock: UVAHIK_clean_linker_0, # of connection points: 2
#     Edge 46, Type (0, 0), BuildingBlock: UVAHIK_clean_linker_0, # of connection points: 2
#     Edge 47, Type (0, 0), BuildingBlock: UVAHIK_clean_linker_0, # of connection points: 2
#     Edge 48, Type (0, 0), BuildingBlock: UVAHIK_clean_linker_0, # of connection points: 2
#     Edge 49, Type (0, 0), BuildingBlock: UVAHIK_clean_linker_0, # of connection points: 2
#     Edge 50, Type (0, 0), BuildingBlock: UVAHIK_clean_linker_0, # of connection points: 2
#     Edge 51, Type (0, 0), BuildingBlock: UVAHIK_clean_linker_0, # of connection points: 2
#     Edge 52, Type (0, 0), BuildingBlock: UVAHIK_clean_linker_0, # of connection points: 2
#     Edge 53, Type (0, 0), BuildingBlock: UVAHIK_clean_linker_0, # of connection points: 2
#     Edge 54, Type (0, 0), BuildingBlock: UVAHIK_clean_linker_0, # of connection points: 2
#     Edge 55, Type (0, 0), BuildingBlock: UVAHIK_clean_linker_0, # of connection points: 2
#     Edge 56, Type (0, 0), BuildingBlock: UVAHIK_clean_linker_0, # of connection points: 2
#     Edge 57, Type (0, 0), BuildingBlock: UVAHIK_clean_linker_0, # of connection points: 2
#     Edge 58, Type (0, 0), BuildingBlock: UVAHIK_clean_linker_0, # of connection points: 2
#     Edge 59, Type (0, 0), BuildingBlock: UVAHIK_clean_linker_0, # of connection points: 2
#     Edge 60, Type (0, 0), BuildingBlock: UVAHIK_clean_linker_0, # of connection points: 2
#     Edge 61, Type (0, 0), BuildingBlock: UVAHIK_clean_linker_0, # of connection points: 2
#     Edge 62, Type (0, 0), BuildingBlock: UVAHIK_clean_linker_0, # of connection points: 2
#     Edge 63, Type (0, 0), BuildingBlock: UVAHIK_clean_linker_0, # of connection points: 2
#     Edge 64, Type (0, 0), BuildingBlock: UVAHIK_clean_linker_0, # of connection points: 2
#     Edge 65, Type (0, 0), BuildingBlock: UVAHIK_clean_linker_0, # of connection points: 2
#     Edge 66, Type (0, 0), BuildingBlock: UVAHIK_clean_linker_0, # of connection points: 2
#     Edge 67, Type (0, 0), BuildingBlock: UVAHIK_clean_linker_0, # of connection points: 2
#     Edge 68, Type (0, 0), BuildingBlock: UVAHIK_clean_linker_0, # of connection points: 2
#     Edge 69, Type (0, 0), BuildingBlock: UVAHIK_clean_linker_0, # of connection points: 2
#     Edge 70, Type (0, 0), BuildingBlock: UVAHIK_clean_linker_0, # of connection points: 2
#     Edge 71, Type (0, 0), BuildingBlock: UVAHIK_clean_linker_0, # of connection points: 2
#     Edge 72, Type (0, 0), BuildingBlock: UVAHIK_clean_linker_0, # of connection points: 2
#     Edge 73, Type (0, 0), BuildingBlock: UVAHIK_clean_linker_0, # of connection points: 2
#     Edge 74, Type (0, 0), BuildingBlock: UVAHIK_clean_linker_0, # of connection points: 2
#     Edge 75, Type (0, 0), BuildingBlock: UVAHIK_clean_linker_0, # of connection points: 2
#     Edge 76, Type (0, 0), BuildingBlock: UVAHIK_clean_linker_0, # of connection points: 2
#     Edge 77, Type (0, 0), BuildingBlock: UVAHIK_clean_linker_0, # of connection points: 2
#     Edge 78, Type (0, 0), BuildingBlock: UVAHIK_clean_linker_0, # of connection points: 2
#     Edge 79, Type (0, 0), BuildingBlock: UVAHIK_clean_linker_0, # of connection points: 2
#     Edge 80, Type (0, 0), BuildingBlock: UVAHIK_clean_linker_0, # of connection points: 2
#     Edge 81, Type (0, 0), BuildingBlock: UVAHIK_clean_linker_0, # of connection points: 2
#     Edge 82, Type (0, 0), BuildingBlock: UVAHIK_clean_linker_0, # of connection points: 2
#     Edge 83, Type (0, 0), BuildingBlock: UVAHIK_clean_linker_0, # of connection points: 2
# Relax obj value: 0.229
# Max RMSD: 0.180
# Mean RMSD: 0.180
data_MOF--net-pcu-i--node1-BEQFEK_clean_sbu_0--edge1-UVAHIK_clean_linker_0
_symmetry_space_group_name_H-M    P1
_symmetry_Int_Tables_number       1
_symmetry_cell_setting            triclinic
loop_
_symmetry_equiv_pos_as_xyz
'x, y, z'
_cell_length_a     71.423985
_cell_length_b     71.551112
_cell_length_c     71.434377
_cell_angle_alpha  89.999009
_cell_angle_beta   90.003015
_cell_angle_gamma 90.001982
loop_
_atom_site_label
_atom_site_type_symbol
_atom_site_fract_x
_atom_site_fract_y
_atom_site_fract_z
_atom_type_partial_charge
Co0 Co 0.1386 0.11979 0.37004 0.0
Co1 Co 0.13573 0.16249 0.36149 0.0
C2 C 0.10203 0.13959 0.37169 0.0
O3 O 0.11167 0.12478 0.3734 0.0
O4 O 0.10964 0.15497 0.36703 0.0
C5 C 0.12948 0.08164 0.36533 0.0
O6 O 0.11374 0.08884 0.35914 0.0
C7 C 0.12567 0.1925 0.33642 0.0
C8 C 0.14043 0.21691 0.34828 0.0
C9 C 0.12936 0.21126 0.33338 0.0
N10 N 0.13447 0.18721 0.35213 0.0
N11 N 0.14307 0.20189 0.35934 0.0
C12 C 0.11367 0.17973 0.3249 0.0
H13 H 0.10705 0.16898 0.33389 0.0
H14 H 0.12247 0.17235 0.31446 0.0
H15 H 0.10268 0.18772 0.31738 0.0
C16 C 0.15877 0.1203 0.33412 0.0
N17 N 0.14766 0.12868 0.34682 0.0
N18 N 0.14743 0.14677 0.34361 0.0
C19 C 0.15889 0.15057 0.32908 0.0
C20 C 0.16629 0.13387 0.32248 0.0
C21 C 0.16364 0.09995 0.33437 0.0
H22 H 0.17132 0.09663 0.34746 0.0
H23 H 0.15059 0.09158 0.33411 0.0
H24 H 0.17232 0.09596 0.32213 0.0
O25 O 0.15289 0.13175 0.39062 0.0
O26 O 0.15068 0.16219 0.38462 0.0
H27 H 0.16667 0.17848 0.33711 0.0
H28 H 0.17982 0.16936 0.31765 0.0
C29 C 0.16579 0.16978 0.32431 0.0
H30 H 0.15596 0.17646 0.31435 0.0
H31 H 0.15113 0.20154 0.37153 0.0
O32 O 0.14229 0.09247 0.37122 0.0
C33 C 0.15662 0.14872 0.39466 0.0
Co34 Co 0.86655 0.14122 0.37681 0.0
Co35 Co 0.82518 0.14065 0.36262 0.0
C36 C 0.84589 0.10547 0.37264 0.0
O37 O 0.8607 0.11434 0.37696 0.0
O38 O 0.83131 0.11399 0.367 0.0
C39 C 0.90257 0.13265 0.39205 0.0
O40 O 0.8937 0.11861 0.39991 0.0
C41 C 0.79687 0.13241 0.33459 0.0
C42 C 0.77186 0.1468 0.34575 0.0
C43 C 0.77814 0.13589 0.33102 0.0
N44 N 0.80152 0.14103 0.35062 0.0
N45 N 0.78652 0.14957 0.35727 0.0
C46 C 0.80981 0.12001 0.32374 0.0
H47 H 0.82277 0.11713 0.33178 0.0
H48 H 0.8138 0.12685 0.31042 0.0
H49 H 0.80264 0.10669 0.32023 0.0
C50 C 0.87196 0.16146 0.34135 0.0
N51 N 0.86109 0.1518 0.35329 0.0
N52 N 0.84361 0.15241 0.34752 0.0
C53 C 0.84274 0.16294 0.33189 0.0
C54 C 0.86072 0.16881 0.32738 0.0
C55 C 0.89261 0.16411 0.34374 0.0
H56 H 0.8952 0.17339 0.35591 0.0
H57 H 0.89931 0.15042 0.34666 0.0
H58 H 0.89909 0.17031 0.33106 0.0
O59 O 0.85239 0.15439 0.39657 0.0
O60 O 0.8229 0.15395 0.3867 0.0
H61 H 0.81376 0.17095 0.33375 0.0
H62 H 0.82695 0.18344 0.31624 0.0
C63 C 0.82494 0.16967 0.32308 0.0
H64 H 0.82044 0.15957 0.31222 0.0
H65 H 0.78628 0.15722 0.36971 0.0
O66 O 0.89349 0.14415 0.38201 0.0
C67 C 0.83518 0.15856 0.39875 0.0
Co68 Co 0.85351 0.8685 0.35928 0.0
Co69 Co 0.855 0.82523 0.3542 0.0
C70 C 0.88919 0.84984 0.35008 0.0
O71 O 0.8801 0.86483 0.35297 0.0
O72 O 0.8811 0.834 0.35039 0.0
C73 C 0.85937 0.90535 0.37121 0.0
O74 O 0.87292 0.89715 0.38056 0.0
C75 C 0.85935 0.79338 0.3297 0.0
C76 C 0.8516 0.76944 0.34764 0.0
C77 C 0.85742 0.77411 0.32973 0.0
N78 N 0.85464 0.79982 0.34668 0.0
N79 N 0.85005 0.78549 0.3574 0.0
C80 C 0.8666 0.80551 0.3142 0.0
H81 H 0.87177 0.81901 0.31972 0.0
H82 H 0.85514 0.80858 0.30421 0.0
H83 H 0.87798 0.79827 0.30649 0.0
C84 C 0.82318 0.86461 0.3316 0.0
N85 N 0.83749 0.85745 0.34154 0.0
N86 N 0.83741 0.83914 0.33996 0.0
C87 C 0.82272 0.834 0.32929 0.0
C88 C 0.81334 0.84999 0.32352 0.0
C89 C 0.81868 0.88501 0.33061 0.0
H90 H 0.83174 0.89313 0.32849 0.0
H91 H 0.80879 0.88809 0.31904 0.0
H92 H 0.81236 0.88949 0.34408 0.0
O93 O 0.84828 0.85793 0.38431 0.0
O94 O 0.84867 0.82705 0.38096 0.0
H95 H 0.80067 0.81376 0.32473 0.0
H96 H 0.82307 0.80769 0.31508 0.0
C97 C 0.816 0.81427 0.32721 0.0
H98 H 0.81926 0.8061 0.33997 0.0
H99 H 0.84592 0.78665 0.37138 0.0
O100 O 0.84886 0.89553 0.36079 0.0
C101 C 0.84657 0.84154 0.39109 0.0
Co102 Co 0.12616 0.84981 0.36743 0.0
Co103 Co 0.17 0.84834 0.36658 0.0
C104 C 0.14887 0.88346 0.35804 0.0
O105 O 0.13318 0.8754 0.36034 0.0
O106 O 0.16419 0.87463 0.36007 0.0
C107 C 0.09027 0.85568 0.35149 0.0
O108 O 0.1002 0.86417 0.33854 0.0
C109 C 0.20615 0.85169 0.34869 0.0
C110 C 0.22523 0.83716 0.36821 0.0
C111 C 0.2248 0.84687 0.3514 0.0
N112 N 0.19617 0.84526 0.36322 0.0
N113 N 0.20762 0.83669 0.37493 0.0
C114 C 0.19741 0.86086 0.33199 0.0
H115 H 0.18234 0.8572 0.33106 0.0
H116 H 0.20461 0.85653 0.31892 0.0
H117 H 0.19854 0.87625 0.33346 0.0
C118 C 0.13092 0.81811 0.34135 0.0
N119 N 0.13794 0.83205 0.35185 0.0
N120 N 0.15636 0.83112 0.35166 0.0
C121 C 0.16162 0.81634 0.34121 0.0
C122 C 0.14567 0.80779 0.33424 0.0
C123 C 0.1105 0.8137 0.3396 0.0
H124 H 0.10377 0.81436 0.35358 0.0
H125 H 0.10379 0.82426 0.33044 0.0
H126 H 0.10816 0.79964 0.3335 0.0
O127 O 0.13313 0.84535 0.39384 0.0
O128 O 0.16422 0.84418 0.39315 0.0
H129 H 0.18853 0.80912 0.35227 0.0
H130 H 0.1823 0.79654 0.33117 0.0
C131 C 0.18145 0.81018 0.33849 0.0
H132 H 0.18897 0.82074 0.33 0.0
H133 H 0.20338 0.83039 0.38742 0.0
O134 O 0.09863 0.84817 0.36528 0.0
C135 C 0.14882 0.84338 0.40209 0.0
Co136 Co 0.13704 0.87207 0.63551 0.0
Co137 Co 0.13435 0.82845 0.63745 0.0
C138 C 0.10067 0.85308 0.64259 0.0
O139 O 0.11023 0.86788 0.64041 0.0
O140 O 0.10832 0.83705 0.64187 0.0
C141 C 0.13059 0.91044 0.64442 0.0
O142 O 0.11499 0.90392 0.65162 0.0
C143 C 0.13024 0.79449 0.6589 0.0
C144 C 0.13906 0.7724 0.63914 0.0
C145 C 0.13312 0.77541 0.65737 0.0
N146 N 0.13463 0.80245 0.64249 0.0
N147 N 0.13974 0.78921 0.63065 0.0
C148 C 0.12278 0.80506 0.67542 0.0
H149 H 0.11574 0.81806 0.67086 0.0
H150 H 0.1345 0.80909 0.68474 0.0
H151 H 0.11283 0.7963 0.68351 0.0
C152 C 0.16686 0.86529 0.66314 0.0
N153 N 0.1524 0.85923 0.65271 0.0
N154 N 0.15211 0.84084 0.65284 0.0
C155 C 0.1668 0.83459 0.66292 0.0
C156 C 0.17651 0.84989 0.66991 0.0
C157 C 0.17176 0.88546 0.66577 0.0
H158 H 0.15894 0.89348 0.66922 0.0
H159 H 0.18215 0.88739 0.67715 0.0
H160 H 0.17755 0.89108 0.6525 0.0
O161 O 0.14289 0.86359 0.60976 0.0
O162 O 0.14086 0.8326 0.61109 0.0
H163 H 0.18875 0.81385 0.66528 0.0
H164 H 0.16642 0.80703 0.67456 0.0
C165 C 0.1734 0.8147 0.66304 0.0
H166 H 0.16998 0.80783 0.64958 0.0
H167 H 0.14393 0.79167 0.61686 0.0
O168 O 0.14211 0.89923 0.63683 0.0
C169 C 0.14391 0.84759 0.60198 0.0
Co170 Co 0.12753 0.141 0.60878 0.0
Co171 Co 0.16893 0.14465 0.62272 0.0
C172 C 0.149 0.10795 0.62262 0.0
O173 O 0.13419 0.11532 0.61609 0.0
O174 O 0.16358 0.11764 0.62569 0.0
C175 C 0.08971 0.13104 0.61344 0.0
O176 O 0.09711 0.12115 0.62706 0.0
C177 C 0.19707 0.14437 0.65188 0.0
C178 C 0.22164 0.15723 0.63818 0.0
C179 C 0.21544 0.14964 0.6549 0.0
N180 N 0.19247 0.14885 0.63424 0.0
N181 N 0.2072 0.15649 0.62606 0.0
C182 C 0.18442 0.13406 0.66503 0.0
H183 H 0.17027 0.1323 0.65888 0.0
H184 H 0.18316 0.14165 0.67848 0.0
H185 H 0.19053 0.12013 0.66811 0.0
C186 C 0.12182 0.17036 0.63735 0.0
N187 N 0.13274 0.15793 0.62833 0.0
N188 N 0.15017 0.15979 0.63408 0.0
C189 C 0.15087 0.17366 0.64685 0.0
C190 C 0.13295 0.18059 0.64944 0.0
C191 C 0.10116 0.17231 0.63444 0.0
H192 H 0.09815 0.17397 0.6193 0.0
H193 H 0.09411 0.15945 0.63944 0.0
H194 H 0.09528 0.18436 0.64223 0.0
O195 O 0.14153 0.14862 0.58614 0.0
O196 O 0.17099 0.15099 0.59597 0.0
H197 H 0.17981 0.18149 0.64436 0.0
H198 H 0.16634 0.19618 0.65983 0.0
C199 C 0.16849 0.18161 0.65495 0.0
H200 H 0.17285 0.17307 0.66713 0.0
H201 H 0.20741 0.16116 0.61222 0.0
O202 O 0.10036 0.141 0.60326 0.0
C203 C 0.15876 0.15217 0.58306 0.0
Co204 Co 0.85176 0.13061 0.60841 0.0
Co205 Co 0.8559 0.17275 0.61952 0.0
C206 C 0.88932 0.14903 0.61176 0.0
O207 O 0.87906 0.13502 0.60801 0.0
O208 O 0.8822 0.16454 0.61671 0.0
C209 C 0.85946 0.09264 0.61456 0.0
O210 O 0.87343 0.10011 0.62389 0.0
C211 C 0.8652 0.20287 0.64511 0.0
C212 C 0.84746 0.22603 0.63495 0.0
C213 C 0.85961 0.22097 0.64921 0.0
N214 N 0.85635 0.19733 0.6295 0.0
N215 N 0.84611 0.21137 0.62322 0.0
C216 C 0.87857 0.19079 0.65585 0.0
H217 H 0.8711 0.1784 0.66144 0.0
H218 H 0.88535 0.19855 0.66745 0.0
H219 H 0.88957 0.18557 0.64624 0.0
C220 C 0.82777 0.13056 0.64186 0.0
N221 N 0.84057 0.13894 0.63086 0.0
N222 N 0.84191 0.15669 0.63549 0.0
C223 C 0.82982 0.1602 0.64958 0.0
C224 C 0.82055 0.14375 0.65409 0.0
C225 C 0.82036 0.11126 0.63852 0.0
H226 H 0.81687 0.10954 0.62349 0.0
H227 H 0.83134 0.10093 0.64217 0.0
H228 H 0.80769 0.1083 0.64699 0.0
O229 O 0.83989 0.14369 0.58716 0.0
O230 O 0.84341 0.17364 0.59484 0.0
H231 H 0.8224 0.18898 0.64577 0.0
H232 H 0.81431 0.17916 0.66768 0.0
C233 C 0.82587 0.17925 0.65734 0.0
H234 H 0.83846 0.18448 0.6646 0.0
H235 H 0.83751 0.21064 0.61142 0.0
O236 O 0.848 0.10329 0.60611 0.0
C237 C 0.83758 0.16103 0.58367 0.0
Co238 Co 0.86402 0.85843 0.62192 0.0
Co239 Co 0.82017 0.85722 0.62379 0.0
C240 C 0.84165 0.89332 0.62501 0.0
O241 O 0.8573 0.88491 0.62441 0.0
O242 O 0.8263 0.88433 0.62458 0.0
C243 C 0.90017 0.86675 0.63576 0.0
O244 O 0.89048 0.87752 0.64708 0.0
C245 C 0.785 0.86159 0.6439 0.0
C246 C 0.76566 0.84347 0.62797 0.0
C247 C 0.76689 0.85449 0.64389 0.0
N248 N 0.79415 0.85462 0.62903 0.0
N249 N 0.78244 0.84403 0.61939 0.0
C250 C 0.79359 0.87493 0.65761 0.0
H251 H 0.80371 0.88423 0.65052 0.0
H252 H 0.80134 0.86696 0.66844 0.0
H253 H 0.78274 0.88366 0.66446 0.0
C254 C 0.86001 0.83121 0.65261 0.0
N255 N 0.85269 0.8438 0.64068 0.0
N256 N 0.83429 0.84296 0.64144 0.0
C257 C 0.82934 0.82962 0.65386 0.0
C258 C 0.84548 0.82186 0.66136 0.0
C259 C 0.88054 0.82757 0.65483 0.0
H260 H 0.88682 0.82446 0.64097 0.0
H261 H 0.88734 0.84027 0.66051 0.0
H262 H 0.88339 0.81586 0.66457 0.0
O263 O 0.8563 0.84906 0.5971 0.0
O264 O 0.8252 0.84779 0.59831 0.0
H265 H 0.80291 0.82092 0.64262 0.0
H266 H 0.80964 0.80872 0.66365 0.0
C267 C 0.80981 0.82244 0.65642 0.0
H268 H 0.8017 0.83253 0.66495 0.0
H269 H 0.78609 0.83671 0.60728 0.0
O270 O 0.89158 0.85695 0.62366 0.0
C271 C 0.84055 0.84535 0.58956 0.0
Co272 Co 0.38023 0.14556 0.12548 0.0
Co273 Co 0.36625 0.14777 0.16693 0.0
C274 C 0.37137 0.11114 0.14733 0.0
O275 O 0.37683 0.11908 0.13239 0.0
O276 O 0.36687 0.12063 0.16167 0.0
C277 C 0.37572 0.13518 0.08803 0.0
O278 O 0.36299 0.12451 0.09589 0.0
C279 C 0.33712 0.14416 0.19495 0.0
C280 C 0.34949 0.15786 0.21977 0.0
C281 C 0.33356 0.14881 0.21341 0.0
N282 N 0.35426 0.1504 0.19047 0.0
N283 N 0.36164 0.15853 0.20535 0.0
C284 C 0.32498 0.13289 0.18209 0.0
H285 H 0.33284 0.12846 0.16948 0.0
H286 H 0.31285 0.14135 0.17744 0.0
H287 H 0.31946 0.12047 0.18958 0.0
C288 C 0.34837 0.17151 0.12001 0.0
N289 N 0.35859 0.15985 0.13074 0.0
N290 N 0.353 0.16127 0.14825 0.0
C291 C 0.33923 0.17412 0.14924 0.0
C292 C 0.33569 0.18077 0.13137 0.0
C293 C 0.3512 0.17423 0.09942 0.0
H294 H 0.36613 0.17739 0.09657 0.0
H295 H 0.3475 0.16112 0.09203 0.0
H296 H 0.3423 0.18559 0.09376 0.0
O297 O 0.40183 0.15615 0.13926 0.0
O298 O 0.39203 0.15743 0.1688 0.0
H299 H 0.34276 0.18245 0.17796 0.0
H300 H 0.32643 0.19659 0.16497 0.0
C301 C 0.33171 0.18216 0.16709 0.0
H302 H 0.3199 0.17347 0.17209 0.0
H303 H 0.37497 0.1645 0.20568 0.0
O304 O 0.38543 0.14597 0.0983 0.0
C305 C 0.4046 0.16012 0.15645 0.0
Co306 Co 0.84915 0.37594 0.1248 0.0
Co307 Co 0.85404 0.36102 0.16564 0.0
C308 C 0.8868 0.37323 0.14216 0.0
O309 O 0.87657 0.37734 0.12819 0.0
O310 O 0.87972 0.36688 0.15721 0.0
C311 C 0.85453 0.38932 0.08726 0.0
O312 O 0.87059 0.39551 0.09375 0.0
C313 C 0.86542 0.33203 0.19162 0.0
C314 C 0.85255 0.34118 0.21821 0.0
C315 C 0.86305 0.327 0.21019 0.0
N316 N 0.85648 0.34827 0.18873 0.0
N317 N 0.84896 0.3538 0.2047 0.0
C318 C 0.87662 0.32206 0.17695 0.0
H319 H 0.88185 0.33206 0.16633 0.0
H320 H 0.86764 0.31174 0.16966 0.0
H321 H 0.88856 0.31451 0.18341 0.0
C322 C 0.82917 0.34015 0.12079 0.0
N323 N 0.84001 0.35191 0.13074 0.0
N324 N 0.84106 0.34598 0.14813 0.0
C325 C 0.83039 0.33053 0.14996 0.0
C326 C 0.82274 0.32622 0.13263 0.0
C327 C 0.82415 0.34293 0.10065 0.0
H328 H 0.83698 0.34603 0.09247 0.0
H329 H 0.81725 0.33036 0.0947 0.0
H330 H 0.81455 0.35507 0.0994 0.0
O331 O 0.83654 0.39485 0.14073 0.0
O332 O 0.84004 0.38428 0.1698 0.0
H333 H 0.82479 0.33301 0.17948 0.0
H334 H 0.8105 0.31602 0.16758 0.0
C335 C 0.82472 0.32222 0.16838 0.0
H336 H 0.83463 0.31094 0.17222 0.0
H337 H 0.84114 0.36601 0.20629 0.0
O338 O 0.84321 0.38123 0.09831 0.0
C339 C 0.83388 0.39642 0.15832 0.0
Co340 Co 0.63076 0.84852 0.11494 0.0
Co341 Co 0.62858 0.84881 0.15868 0.0
C342 C 0.63311 0.88405 0.13602 0.0
O343 O 0.63357 0.87525 0.12059 0.0
O344 O 0.63115 0.87544 0.15146 0.0
C345 C 0.6492 0.8535 0.08039 0.0
O346 O 0.66072 0.86316 0.09098 0.0
C347 C 0.64853 0.85296 0.19342 0.0
C348 C 0.6295 0.84102 0.21464 0.0
C349 C 0.64725 0.84848 0.21221 0.0
N350 N 0.63251 0.84801 0.18498 0.0
N351 N 0.62101 0.84116 0.19776 0.0
C352 C 0.66483 0.8617 0.18349 0.0
H353 H 0.67367 0.85065 0.17717 0.0
H354 H 0.67353 0.86995 0.19336 0.0
H355 H 0.65988 0.87084 0.17201 0.0
C356 C 0.65978 0.82007 0.12279 0.0
N357 N 0.64788 0.83356 0.12843 0.0
N358 N 0.64619 0.83285 0.14677 0.0
C359 C 0.65643 0.8184 0.15328 0.0
C360 C 0.66568 0.81022 0.13835 0.0
C361 C 0.66333 0.81491 0.10279 0.0
H362 H 0.64986 0.8139 0.09515 0.0
H363 H 0.67199 0.82592 0.09614 0.0
H364 H 0.67085 0.80139 0.10158 0.0
O365 O 0.6048 0.84044 0.12096 0.0
O366 O 0.60322 0.84035 0.15212 0.0
H367 H 0.64112 0.81261 0.17853 0.0
H368 H 0.6595 0.79603 0.17353 0.0
C369 C 0.65547 0.81098 0.17287 0.0
H370 H 0.66534 0.81882 0.18184 0.0
H371 H 0.60767 0.836 0.19486 0.0
O372 O 0.63501 0.84578 0.08781 0.0
C373 C 0.59574 0.83769 0.13613 0.0
Co374 Co 0.14398 0.61344 0.12238 0.0
Co375 Co 0.14128 0.62241 0.16513 0.0
C376 C 0.10714 0.61457 0.14245 0.0
O377 O 0.1169 0.6119 0.12782 0.0
O378 O 0.11476 0.61899 0.15792 0.0
C379 C 0.13565 0.62282 0.08536 0.0
O380 O 0.12374 0.63371 0.09416 0.0
C381 C 0.13326 0.64514 0.19817 0.0
C382 C 0.152 0.63245 0.21927 0.0
C383 C 0.13951 0.64703 0.21651 0.0
N384 N 0.14205 0.63046 0.19043 0.0
N385 N 0.15299 0.62275 0.20318 0.0
C386 C 0.11893 0.65667 0.18812 0.0
H387 H 0.11143 0.6481 0.17762 0.0
H388 H 0.12598 0.66822 0.18054 0.0
H389 H 0.10865 0.66266 0.19811 0.0
C390 C 0.16664 0.64808 0.12316 0.0
N391 N 0.15477 0.63597 0.13138 0.0
N392 N 0.15397 0.63961 0.14943 0.0
C393 C 0.16557 0.65398 0.15331 0.0
C394 C 0.17385 0.65989 0.13677 0.0
C395 C 0.17195 0.64751 0.10288 0.0
H396 H 0.17669 0.63323 0.0991 0.0
H397 H 0.15951 0.65097 0.09431 0.0
H398 H 0.18306 0.65776 0.09941 0.0
O399 O 0.15713 0.59182 0.13375 0.0
O400 O 0.15456 0.59844 0.16405 0.0
H401 H 0.17379 0.64684 0.18128 0.0
H402 H 0.18432 0.66799 0.17276 0.0
C403 C 0.17134 0.6595 0.17272 0.0
H404 H 0.16001 0.66781 0.17927 0.0
H405 H 0.16157 0.6112 0.20074 0.0
O406 O 0.14635 0.61229 0.09487 0.0
C407 C 0.16025 0.5879 0.15088 0.0
Co408 Co 0.35643 0.85428 0.87856 0.0
Co409 Co 0.35896 0.85206 0.83486 0.0
C410 C 0.34945 0.88769 0.85506 0.0
O411 O 0.35017 0.87996 0.87104 0.0
O412 O 0.35267 0.87846 0.84021 0.0
C413 C 0.33916 0.86142 0.91365 0.0
O414 O 0.32768 0.87131 0.90325 0.0
C415 C 0.33941 0.85112 0.79966 0.0
C416 C 0.36084 0.84228 0.7792 0.0
C417 C 0.34204 0.84672 0.78102 0.0
N418 N 0.35575 0.84906 0.80864 0.0
N419 N 0.36862 0.84395 0.79634 0.0
C420 C 0.32171 0.85774 0.80878 0.0
H421 H 0.3246 0.86379 0.82276 0.0
H422 H 0.3119 0.84588 0.8106 0.0
H423 H 0.31472 0.86826 0.79975 0.0
C424 C 0.33076 0.82239 0.87242 0.0
N425 N 0.3415 0.83649 0.866 0.0
N426 N 0.34332 0.83491 0.84773 0.0
C427 C 0.33427 0.81939 0.84203 0.0
C428 C 0.32577 0.8112 0.8574 0.0
C429 C 0.32594 0.81948 0.89259 0.0
H430 H 0.31885 0.83214 0.89801 0.0
H431 H 0.31651 0.80733 0.89461 0.0
H432 H 0.33897 0.81737 0.90077 0.0
O433 O 0.38331 0.84932 0.87313 0.0
O434 O 0.38507 0.84748 0.84206 0.0
H435 H 0.33537 0.79518 0.82398 0.0
H436 H 0.32508 0.81558 0.81376 0.0
C437 C 0.33642 0.81063 0.82308 0.0
H438 H 0.35016 0.81431 0.8169 0.0
H439 H 0.38258 0.84129 0.7997 0.0
O440 O 0.35254 0.85264 0.90589 0.0
C441 C 0.39274 0.84686 0.85816 0.0
Co442 Co 0.13678 0.35855 0.87274 0.0
Co443 Co 0.13422 0.35269 0.82963 0.0
C444 C 0.10002 0.35803 0.85349 0.0
O445 O 0.10962 0.35953 0.86838 0.0
O446 O 0.10782 0.35532 0.83772 0.0
C447 C 0.13222 0.37169 0.90941 0.0
O448 O 0.1208 0.38327 0.90085 0.0
C449 C 0.12566 0.32992 0.79721 0.0
C450 C 0.13812 0.34604 0.77394 0.0
C451 C 0.12839 0.32979 0.77801 0.0
N452 N 0.13362 0.34539 0.80419 0.0
N453 N 0.14096 0.35506 0.79024 0.0
C454 C 0.11487 0.31615 0.80876 0.0
H455 H 0.10953 0.32284 0.82169 0.0
H456 H 0.12422 0.30453 0.813 0.0
H457 H 0.10305 0.31024 0.8006 0.0
C458 C 0.16021 0.32523 0.87001 0.0
N459 N 0.14763 0.33697 0.86245 0.0
N460 N 0.14753 0.33488 0.84416 0.0
C461 C 0.16044 0.32197 0.83943 0.0
C462 C 0.16884 0.3154 0.8557 0.0
C463 C 0.1656 0.32532 0.89026 0.0
H464 H 0.1528 0.32494 0.89905 0.0
H465 H 0.1746 0.31318 0.89379 0.0
H466 H 0.17326 0.33843 0.89346 0.0
O467 O 0.14928 0.38064 0.86205 0.0
O468 O 0.14713 0.37692 0.83124 0.0
H469 H 0.18165 0.31294 0.81961 0.0
H470 H 0.15782 0.3093 0.81245 0.0
C471 C 0.16736 0.31902 0.81984 0.0
H472 H 0.16752 0.33249 0.81217 0.0
H473 H 0.14796 0.36776 0.79186 0.0
O474 O 0.14085 0.35943 0.8999 0.0
C475 C 0.15255 0.3862 0.84543 0.0
Co476 Co 0.62308 0.13742 0.86567 0.0
Co477 Co 0.63366 0.13687 0.82326 0.0
C478 C 0.64059 0.10386 0.84778 0.0
O479 O 0.63396 0.11226 0.862 0.0
O480 O 0.64135 0.11183 0.8319 0.0
C481 C 0.63288 0.13627 0.90376 0.0
O482 O 0.64862 0.13002 0.89657 0.0
C483 C 0.65808 0.13387 0.79092 0.0
C484 C 0.64127 0.14703 0.76854 0.0
C485 C 0.65838 0.13854 0.77204 0.0
N486 N 0.64162 0.13937 0.79811 0.0
N487 N 0.63153 0.14705 0.78466 0.0
C488 C 0.6736 0.12597 0.80259 0.0
H489 H 0.67143 0.12941 0.81758 0.0
H490 H 0.68735 0.13154 0.79796 0.0
H491 H 0.67373 0.11054 0.80112 0.0
C492 C 0.64497 0.17257 0.864 0.0
N493 N 0.63874 0.15658 0.85624 0.0
N494 N 0.64356 0.1562 0.83846 0.0
C495 C 0.65318 0.17188 0.83437 0.0
C496 C 0.65435 0.18277 0.85042 0.0
C497 C 0.64003 0.17898 0.88334 0.0
H498 H 0.62533 0.17521 0.88659 0.0
H499 H 0.64933 0.17192 0.89357 0.0
H500 H 0.64173 0.19432 0.88488 0.0
O501 O 0.59844 0.13863 0.85325 0.0
O502 O 0.60616 0.13856 0.82311 0.0
H503 H 0.64903 0.17777 0.8053 0.0
H504 H 0.66915 0.18946 0.81536 0.0
C505 C 0.66077 0.17643 0.81537 0.0
H506 H 0.66993 0.16491 0.81062 0.0
H507 H 0.61814 0.15255 0.78657 0.0
O508 O 0.6195 0.14054 0.89286 0.0
C509 C 0.59389 0.1391 0.83601 0.0
Co510 Co 0.85269 0.62558 0.87153 0.0
Co511 Co 0.85542 0.63241 0.82841 0.0
C512 C 0.88913 0.63404 0.85384 0.0
O513 O 0.87957 0.63078 0.86848 0.0
O514 O 0.88142 0.63501 0.83781 0.0
C515 C 0.85764 0.61236 0.90822 0.0
O516 O 0.87114 0.60302 0.89993 0.0
C517 C 0.85941 0.65828 0.7976 0.0
C518 C 0.8507 0.6416 0.77306 0.0
C519 C 0.85625 0.65935 0.7785 0.0
N520 N 0.8555 0.64084 0.80327 0.0
N521 N 0.85051 0.63083 0.78854 0.0
C522 C 0.86651 0.67334 0.81033 0.0
H523 H 0.87427 0.66717 0.82226 0.0
H524 H 0.85454 0.68131 0.81613 0.0
H525 H 0.87572 0.68316 0.80259 0.0
C526 C 0.82349 0.65448 0.86806 0.0
N527 N 0.83765 0.6444 0.86084 0.0
N528 N 0.83787 0.64641 0.84254 0.0
C529 C 0.82335 0.65729 0.83743 0.0
C530 C 0.81393 0.66301 0.85345 0.0
C531 C 0.81879 0.65514 0.88846 0.0
H532 H 0.83183 0.65626 0.89681 0.0
H533 H 0.80954 0.66716 0.89174 0.0
H534 H 0.81163 0.64197 0.89246 0.0
O535 O 0.84678 0.60119 0.85977 0.0
O536 O 0.84833 0.60595 0.82905 0.0
H537 H 0.801 0.66085 0.81729 0.0
H538 H 0.82278 0.67173 0.81116 0.0
C539 C 0.81644 0.65919 0.81769 0.0
H540 H 0.82023 0.64669 0.80939 0.0
H541 H 0.84656 0.6168 0.78912 0.0
O542 O 0.84749 0.62325 0.89853 0.0
C543 C 0.84542 0.59526 0.84299 0.0
Co544 Co 0.12455 0.38063 0.14542 0.0
Co545 Co 0.16561 0.36542 0.14528 0.0
C546 C 0.14573 0.37412 0.10978 0.0
O547 O 0.13132 0.3796 0.11865 0.0
O548 O 0.16004 0.36802 0.11837 0.0
C549 C 0.08725 0.37722 0.13442 0.0
O550 O 0.09519 0.36517 0.12304 0.0
C551 C 0.195 0.33806 0.1385 0.0
C552 C 0.21903 0.35023 0.15375 0.0
C553 C 0.21376 0.33533 0.14256 0.0
N554 N 0.18938 0.35381 0.14702 0.0
N555 N 0.20378 0.36103 0.15614 0.0
C556 C 0.18299 0.3268 0.12552 0.0
H557 H 0.16937 0.33379 0.12306 0.0
H558 H 0.18021 0.31286 0.13166 0.0
H559 H 0.19041 0.32465 0.11204 0.0
C560 C 0.11895 0.34693 0.16882 0.0
N561 N 0.12966 0.35776 0.15772 0.0
N562 N 0.14695 0.35138 0.15786 0.0
C563 C 0.14781 0.33632 0.16916 0.0
C564 C 0.13007 0.33292 0.17627 0.0
C565 C 0.09868 0.35045 0.17279 0.0
H566 H 0.09667 0.36523 0.17701 0.0
H567 H 0.09049 0.34795 0.15985 0.0
H568 H 0.09319 0.34109 0.18387 0.0
O569 O 0.13857 0.40107 0.15765 0.0
O570 O 0.16776 0.39033 0.15675 0.0
H571 H 0.17671 0.33758 0.17734 0.0
H572 H 0.16371 0.31894 0.18828 0.0
C573 C 0.16561 0.32699 0.17514 0.0
H574 H 0.17021 0.31722 0.16403 0.0
H575 H 0.20326 0.37347 0.16374 0.0
O576 O 0.0974 0.38598 0.14611 0.0
C577 C 0.15599 0.40296 0.16107 0.0
Co578 Co 0.12599 0.60918 0.85055 0.0
Co579 Co 0.16897 0.61763 0.84926 0.0
C580 C 0.14753 0.62033 0.88483 0.0
O581 O 0.13267 0.6153 0.87651 0.0
O582 O 0.16284 0.62219 0.87596 0.0
C583 C 0.08995 0.6213 0.85879 0.0
O584 O 0.09999 0.63432 0.86701 0.0
C585 C 0.20115 0.64203 0.85018 0.0
C586 C 0.22389 0.62455 0.8386 0.0
C587 C 0.21993 0.64216 0.84558 0.0
N588 N 0.19417 0.62517 0.84596 0.0
N589 N 0.20781 0.61469 0.83915 0.0
C590 C 0.19014 0.65729 0.8594 0.0
H591 H 0.17503 0.65375 0.85978 0.0
H592 H 0.19207 0.6707 0.8519 0.0
H593 H 0.19533 0.65924 0.87391 0.0
C594 C 0.12598 0.63684 0.8198 0.0
N595 N 0.13481 0.62731 0.83346 0.0
N596 N 0.15289 0.63083 0.83267 0.0
C597 C 0.15613 0.64267 0.81834 0.0
C598 C 0.13921 0.64694 0.80989 0.0
C599 C 0.10532 0.63617 0.81634 0.0
H600 H 0.10054 0.62142 0.81595 0.0
H601 H 0.09802 0.64335 0.82798 0.0
H602 H 0.10135 0.64322 0.80312 0.0
O603 O 0.13676 0.5846 0.84426 0.0
O604 O 0.16732 0.59071 0.84385 0.0
H605 H 0.18489 0.6362 0.8124 0.0
H606 H 0.17459 0.65298 0.79665 0.0
C607 C 0.17513 0.64818 0.81141 0.0
H608 H 0.18056 0.65982 0.82009 0.0
H609 H 0.20613 0.60088 0.83477 0.0
O610 O 0.09831 0.60823 0.8501 0.0
C611 C 0.1537 0.57936 0.84214 0.0
Co612 Co 0.37109 0.12329 0.85153 0.0
Co613 Co 0.36873 0.16692 0.85202 0.0
C614 C 0.37406 0.14447 0.88716 0.0
O615 O 0.37416 0.12916 0.8782 0.0
O616 O 0.37184 0.15999 0.87879 0.0
C617 C 0.36153 0.0865 0.8623 0.0
O618 O 0.3556 0.09518 0.87738 0.0
C619 C 0.34576 0.19899 0.85913 0.0
C620 C 0.35943 0.22178 0.84341 0.0
C621 C 0.34358 0.21744 0.85376 0.0
N622 N 0.36181 0.19253 0.8519 0.0
N623 N 0.37019 0.20629 0.84283 0.0
C624 C 0.33259 0.18737 0.87061 0.0
H625 H 0.34054 0.17751 0.87953 0.0
H626 H 0.32352 0.17898 0.86123 0.0
H627 H 0.3236 0.19633 0.87956 0.0
C628 C 0.33619 0.12749 0.83022 0.0
N629 N 0.34978 0.13467 0.84113 0.0
N630 N 0.34952 0.153 0.83988 0.0
C631 C 0.33617 0.15804 0.82752 0.0
C632 C 0.32709 0.14208 0.82129 0.0
C633 C 0.33314 0.10703 0.82715 0.0
H634 H 0.3318 0.09993 0.84087 0.0
H635 H 0.3203 0.10432 0.81885 0.0
H636 H 0.34542 0.10105 0.81975 0.0
O637 O 0.39337 0.13183 0.83757 0.0
O638 O 0.39252 0.16296 0.83851 0.0
H639 H 0.3296 0.17618 0.80418 0.0
H640 H 0.32473 0.18562 0.82687 0.0
C641 C 0.33477 0.17704 0.8188 0.0
H642 H 0.34861 0.18402 0.81878 0.0
H643 H 0.38275 0.20486 0.83549 0.0
O644 O 0.36897 0.09591 0.84917 0.0
C645 C 0.40032 0.14773 0.83346 0.0
Co646 Co 0.86216 0.36727 0.85369 0.0
Co647 Co 0.81854 0.36494 0.85263 0.0
C648 C 0.83969 0.3659 0.88883 0.0
O649 O 0.85528 0.36679 0.88029 0.0
O650 O 0.82431 0.36484 0.87989 0.0
C651 C 0.89973 0.37478 0.8634 0.0
O652 O 0.89167 0.38518 0.87624 0.0
C653 C 0.78292 0.34604 0.85719 0.0
C654 C 0.76357 0.36386 0.84094 0.0
C655 C 0.76434 0.34766 0.85158 0.0
N656 N 0.79251 0.36054 0.85017 0.0
N657 N 0.78088 0.37129 0.84065 0.0
C658 C 0.79204 0.33037 0.86767 0.0
H659 H 0.80744 0.33065 0.86561 0.0
H660 H 0.7864 0.31669 0.863 0.0
H661 H 0.78919 0.33203 0.88285 0.0
C662 C 0.85864 0.33534 0.82837 0.0
N663 N 0.851 0.34762 0.84035 0.0
N664 N 0.83264 0.34674 0.83918 0.0
C665 C 0.82802 0.33392 0.82611 0.0
C666 C 0.84438 0.32625 0.81894 0.0
C667 C 0.87923 0.33366 0.82481 0.0
H668 H 0.88669 0.33194 0.83832 0.0
H669 H 0.88248 0.3216 0.81561 0.0
H670 H 0.88435 0.34671 0.81814 0.0
O671 O 0.85471 0.3913 0.84264 0.0
O672 O 0.82366 0.39002 0.8423 0.0
H673 H 0.8015 0.34484 0.81718 0.0
H674 H 0.80885 0.32406 0.80477 0.0
C675 C 0.80865 0.33116 0.81858 0.0
H676 H 0.80054 0.32241 0.82848 0.0
H677 H 0.78483 0.38346 0.83364 0.0
O678 O 0.8896 0.36567 0.85201 0.0
C679 C 0.8389 0.3986 0.83893 0.0
Co680 Co 0.62717 0.86902 0.85424 0.0
Co681 Co 0.62957 0.82547 0.8512 0.0
C682 C 0.64523 0.8461 0.88411 0.0
O683 O 0.64012 0.86171 0.87739 0.0
O684 O 0.64211 0.83093 0.87538 0.0
C685 C 0.64352 0.90461 0.8581 0.0
O686 O 0.65771 0.89438 0.86376 0.0
C687 C 0.65031 0.79122 0.84711 0.0
C688 C 0.62863 0.77003 0.841 0.0
C689 C 0.64771 0.77241 0.84351 0.0
N690 N 0.6336 0.7997 0.8465 0.0
N691 N 0.62064 0.78701 0.84286 0.0
C692 C 0.66811 0.80086 0.85258 0.0
H693 H 0.66628 0.81625 0.85245 0.0
H694 H 0.67967 0.7971 0.84296 0.0
H695 H 0.67219 0.79631 0.86687 0.0
C696 C 0.64555 0.86631 0.81719 0.0
N697 N 0.63854 0.85846 0.83283 0.0
N698 N 0.63913 0.84014 0.83117 0.0
C699 C 0.64624 0.83578 0.81421 0.0
C700 C 0.65065 0.85222 0.80495 0.0
C701 C 0.64637 0.88689 0.81357 0.0
H702 H 0.63283 0.89344 0.81742 0.0
H703 H 0.65753 0.89315 0.82236 0.0
H704 H 0.64944 0.88995 0.79865 0.0
O705 O 0.60067 0.86102 0.85578 0.0
O706 O 0.60249 0.83003 0.85389 0.0
H707 H 0.63631 0.80774 0.81037 0.0
H708 H 0.65109 0.81611 0.79164 0.0
C709 C 0.64878 0.81631 0.80698 0.0
H710 H 0.66119 0.80997 0.81377 0.0
H711 H 0.60635 0.78991 0.84183 0.0
O712 O 0.62846 0.89657 0.85307 0.0
C713 C 0.59292 0.84496 0.85558 0.0
Co714 Co 0.86906 0.60213 0.14351 0.0
Co715 Co 0.82731 0.61534 0.14497 0.0
C716 C 0.84622 0.60684 0.10867 0.0
O717 O 0.86132 0.6024 0.11697 0.0
O718 O 0.83194 0.61222 0.11782 0.0
C719 C 0.90619 0.60676 0.13167 0.0
O720 O 0.89773 0.61807 0.1199 0.0
C721 C 0.79672 0.64196 0.13996 0.0
C722 C 0.7751 0.63068 0.159 0.0
C723 C 0.77891 0.64537 0.14694 0.0
N724 N 0.80324 0.62622 0.14786 0.0
N725 N 0.7902 0.61943 0.15907 0.0
C726 C 0.80724 0.65301 0.12557 0.0
H727 H 0.81711 0.64396 0.11781 0.0
H728 H 0.81556 0.66406 0.13258 0.0
H729 H 0.79743 0.65974 0.11557 0.0
C730 C 0.87396 0.63621 0.16652 0.0
N731 N 0.86341 0.62502 0.15562 0.0
N732 N 0.84581 0.63039 0.15665 0.0
C733 C 0.84457 0.64501 0.1685 0.0
C734 C 0.86238 0.64928 0.17495 0.0
C735 C 0.89455 0.63376 0.16957 0.0
H736 H 0.89744 0.61927 0.1743 0.0
H737 H 0.90196 0.63605 0.15614 0.0
H738 H 0.90018 0.64382 0.17994 0.0
O739 O 0.85642 0.58141 0.15689 0.0
O740 O 0.82677 0.59082 0.1574 0.0
H741 H 0.81656 0.64094 0.17862 0.0
H742 H 0.82861 0.6602 0.18941 0.0
C743 C 0.82651 0.65254 0.17608 0.0
H744 H 0.82028 0.66229 0.16578 0.0
H745 H 0.79173 0.60729 0.16702 0.0
O746 O 0.89644 0.59794 0.14365 0.0
C747 C 0.83934 0.5789 0.16146 0.0
Co748 Co 0.36762 0.87322 0.14401 0.0
Co749 Co 0.35875 0.83044 0.1436 0.0
C750 C 0.34742 0.85536 0.11197 0.0
O751 O 0.35433 0.86966 0.11996 0.0
O752 O 0.34813 0.83935 0.11965 0.0
C753 C 0.35659 0.9109 0.14404 0.0
O754 O 0.34063 0.90325 0.13901 0.0
C755 C 0.33426 0.79831 0.14273 0.0
C756 C 0.35215 0.77532 0.15311 0.0
C757 C 0.33424 0.77943 0.14693 0.0
N758 N 0.35131 0.80516 0.14653 0.0
N759 N 0.36202 0.79138 0.15265 0.0
C760 C 0.31892 0.80967 0.13405 0.0
H761 H 0.32086 0.80965 0.11866 0.0
H762 H 0.31971 0.82435 0.13901 0.0
H763 H 0.30485 0.80394 0.13702 0.0
C764 C 0.34895 0.87018 0.18103 0.0
N765 N 0.35442 0.86288 0.16452 0.0
N766 N 0.35041 0.84493 0.16425 0.0
C767 C 0.34206 0.84027 0.18052 0.0
C768 C 0.34094 0.85611 0.1917 0.0
C769 C 0.35289 0.8898 0.18712 0.0
H770 H 0.36709 0.89404 0.18249 0.0
H771 H 0.34253 0.89931 0.18057 0.0
H772 H 0.35195 0.89128 0.20256 0.0
O773 O 0.39261 0.86166 0.14216 0.0
O774 O 0.38638 0.83122 0.14204 0.0
H775 H 0.34668 0.81098 0.18458 0.0
H776 H 0.32805 0.82042 0.1989 0.0
C777 C 0.33493 0.8211 0.18503 0.0
H778 H 0.32446 0.81695 0.17439 0.0
H779 H 0.37601 0.79295 0.15656 0.0
O780 O 0.37058 0.90042 0.14726 0.0
C781 C 0.39801 0.8447 0.14147 0.0
Co782 Co 0.61611 0.12113 0.13848 0.0
Co783 Co 0.62924 0.16282 0.14061 0.0
C784 C 0.62094 0.14414 0.104 0.0
O785 O 0.61652 0.12892 0.11201 0.0
O786 O 0.62616 0.15827 0.11344 0.0
C787 C 0.61675 0.08373 0.12527 0.0
O788 O 0.62343 0.09186 0.11021 0.0
C789 C 0.65769 0.19114 0.1356 0.0
C790 C 0.64617 0.21548 0.15078 0.0
C791 C 0.66154 0.20943 0.1406 0.0
N792 N 0.64098 0.18646 0.14276 0.0
N793 N 0.63406 0.20107 0.15172 0.0
C794 C 0.66922 0.17854 0.12344 0.0
H795 H 0.66047 0.16734 0.11727 0.0
H796 H 0.6803 0.17178 0.13192 0.0
H797 H 0.6761 0.1867 0.11215 0.0
C798 C 0.65023 0.11585 0.16115 0.0
N799 N 0.639 0.12665 0.15056 0.0
N800 N 0.64412 0.14423 0.15232 0.0
C801 C 0.65848 0.14522 0.16454 0.0
C802 C 0.66297 0.12724 0.1703 0.0
C803 C 0.64799 0.09517 0.16336 0.0
H804 H 0.63436 0.09216 0.17016 0.0
H805 H 0.64798 0.0885 0.14935 0.0
H806 H 0.65947 0.08901 0.1718 0.0
O807 O 0.59535 0.13401 0.15172 0.0
O808 O 0.60459 0.1637 0.15286 0.0
H809 H 0.65388 0.17338 0.17408 0.0
H810 H 0.67074 0.1605 0.18766 0.0
C811 C 0.66534 0.16299 0.17331 0.0
H812 H 0.67692 0.1688 0.16481 0.0
H813 H 0.62115 0.20116 0.15857 0.0
O814 O 0.61207 0.09373 0.13922 0.0
C815 C 0.59264 0.15099 0.15649 0.0
C816 C 0.1512 0.16156 0.55029 0.0
C817 C 0.16468 0.15759 0.56402 0.0
C818 C 0.15665 0.16579 0.53207 0.0
C819 C 0.19339 0.15544 0.49891 0.0
H820 H 0.16412 0.18913 0.46809 0.0
C821 C 0.17127 0.13857 0.42475 0.0
C822 C 0.16687 0.15295 0.41211 0.0
C823 C 0.17819 0.14279 0.44249 0.0
C824 C 0.17286 0.17998 0.47643 0.0
H825 H 0.19452 0.15557 0.56956 0.0
H826 H 0.204 0.16277 0.53748 0.0
H827 H 0.16209 0.19131 0.50195 0.0
H828 H 0.16806 0.18293 0.40748 0.0
H829 H 0.18027 0.19025 0.43849 0.0
H830 H 0.20358 0.14361 0.47334 0.0
C831 C 0.18923 0.16259 0.54093 0.0
C832 C 0.17151 0.18111 0.49585 0.0
C833 C 0.18378 0.15848 0.55926 0.0
C834 C 0.171 0.17154 0.41702 0.0
C835 C 0.178 0.17575 0.43478 0.0
C836 C 0.1948 0.15434 0.47944 0.0
C837 C 0.17569 0.16609 0.52712 0.0
C838 C 0.18097 0.16819 0.50722 0.0
C839 C 0.18093 0.16147 0.44796 0.0
C840 C 0.18376 0.16595 0.46802 0.0
H841 H 0.13639 0.1611 0.55351 0.0
H842 H 0.14586 0.16809 0.52166 0.0
H843 H 0.20089 0.14532 0.50733 0.0
H844 H 0.16843 0.12409 0.42135 0.0
H845 H 0.1801 0.13144 0.45234 0.0
C846 C 0.84281 0.17387 0.42918 0.0
C847 C 0.8293 0.16804 0.41615 0.0
C848 C 0.83741 0.18058 0.44665 0.0
C849 C 0.80015 0.17286 0.48004 0.0
H850 H 0.83232 0.20452 0.51009 0.0
C851 C 0.82314 0.15303 0.55285 0.0
C852 C 0.82855 0.16664 0.56592 0.0
C853 C 0.81645 0.15827 0.5353 0.0
C854 C 0.82278 0.196 0.50198 0.0
H855 H 0.79946 0.16611 0.41067 0.0
H856 H 0.79003 0.17786 0.44135 0.0
H857 H 0.83337 0.20688 0.47619 0.0
H858 H 0.82982 0.19648 0.57136 0.0
H859 H 0.81805 0.20562 0.54063 0.0
H860 H 0.79002 0.16154 0.50582 0.0
C861 C 0.80481 0.177 0.43806 0.0
C862 C 0.82355 0.19722 0.4825 0.0
C863 C 0.81022 0.17029 0.4205 0.0
C864 C 0.82603 0.18563 0.56148 0.0
C865 C 0.81927 0.19088 0.5439 0.0
C866 C 0.79925 0.17177 0.49952 0.0
C867 C 0.81837 0.18166 0.45153 0.0
C868 C 0.81315 0.1848 0.47136 0.0
C869 C 0.81492 0.17725 0.53043 0.0
C870 C 0.81145 0.18245 0.51063 0.0
H871 H 0.85762 0.17251 0.42622 0.0
H872 H 0.84827 0.18377 0.45675 0.0
H873 H 0.79187 0.16314 0.47189 0.0
H874 H 0.82477 0.13827 0.55584 0.0
H875 H 0.81353 0.14737 0.5252 0.0
C876 C 0.84167 0.82165 0.41962 0.0
C877 C 0.8429 0.83945 0.41133 0.0
C878 C 0.83984 0.81988 0.43902 0.0
C879 C 0.85235 0.84508 0.4813 0.0
H880 H 0.81783 0.8121 0.50713 0.0
C881 C 0.82311 0.83787 0.56004 0.0
C882 C 0.84015 0.83925 0.56981 0.0
C883 C 0.82302 0.83454 0.54077 0.0
C884 C 0.82755 0.82132 0.50003 0.0
H885 H 0.84215 0.86932 0.4168 0.0
H886 H 0.83901 0.86615 0.45052 0.0
H887 H 0.81743 0.81368 0.47278 0.0
H888 H 0.87036 0.8367 0.56732 0.0
H889 H 0.87012 0.83085 0.53379 0.0
H890 H 0.86232 0.853 0.50829 0.0
C891 C 0.83971 0.85361 0.44204 0.0
C892 C 0.82738 0.82215 0.48047 0.0
C893 C 0.84146 0.8554 0.42272 0.0
C894 C 0.857 0.83602 0.56017 0.0
C895 C 0.85689 0.83269 0.54097 0.0
C896 C 0.85263 0.84413 0.50073 0.0
C897 C 0.83931 0.83586 0.45039 0.0
C898 C 0.83963 0.83424 0.47099 0.0
C899 C 0.83996 0.83254 0.53099 0.0
C900 C 0.84017 0.83235 0.51031 0.0
H901 H 0.84263 0.8091 0.4112 0.0
H902 H 0.83959 0.80605 0.44517 0.0
H903 H 0.86211 0.85433 0.4743 0.0
H904 H 0.80988 0.84016 0.56708 0.0
H905 H 0.80978 0.83455 0.53338 0.0
C906 C 0.15014 0.86277 0.57107 0.0
C907 C 0.14781 0.84642 0.58172 0.0
C908 C 0.15216 0.86173 0.55169 0.0
C909 C 0.16298 0.83001 0.51252 0.0
H910 H 0.1313 0.86396 0.4844 0.0
C911 C 0.13259 0.84171 0.43305 0.0
C912 C 0.14926 0.84107 0.42262 0.0
C913 C 0.13313 0.84113 0.45254 0.0
C914 C 0.14012 0.8543 0.49207 0.0
H915 H 0.14669 0.8161 0.58047 0.0
H916 H 0.15006 0.81436 0.54659 0.0
H917 H 0.13193 0.8658 0.51841 0.0
H918 H 0.17952 0.83853 0.42446 0.0
H919 H 0.18039 0.83762 0.45855 0.0
H920 H 0.17091 0.81834 0.48605 0.0
C921 C 0.15041 0.82795 0.55327 0.0
C922 C 0.14068 0.85553 0.51151 0.0
C923 C 0.14836 0.82897 0.57266 0.0
C924 C 0.16642 0.83913 0.43208 0.0
C925 C 0.16694 0.8385 0.4516 0.0
C926 C 0.16247 0.82883 0.49301 0.0
C927 C 0.15193 0.84434 0.54258 0.0
C928 C 0.15207 0.84338 0.52193 0.0
C929 C 0.15032 0.83986 0.46199 0.0
C930 C 0.15094 0.84091 0.48264 0.0
H931 H 0.14996 0.87642 0.57762 0.0
H932 H 0.15362 0.87457 0.54379 0.0
H933 H 0.17194 0.82053 0.52023 0.0
H934 H 0.11913 0.84307 0.4262 0.0
H935 H 0.12009 0.84189 0.46024 0.0
C936 C 0.43674 0.17151 0.1488 0.0
C937 C 0.42318 0.16704 0.1623 0.0
C938 C 0.45495 0.17593 0.15418 0.0
C939 C 0.48775 0.16386 0.19071 0.0
H940 H 0.52032 0.19559 0.16115 0.0
C941 C 0.56101 0.14269 0.16895 0.0
C942 C 0.57475 0.15628 0.16543 0.0
C943 C 0.54327 0.14792 0.17515 0.0
C944 C 0.51148 0.18698 0.16994 0.0
H945 H 0.41778 0.16493 0.19215 0.0
H946 H 0.44976 0.17255 0.20153 0.0
H947 H 0.48657 0.19979 0.15937 0.0
H948 H 0.5811 0.18593 0.1671 0.0
H949 H 0.55004 0.19503 0.17794 0.0
H950 H 0.51264 0.15052 0.20069 0.0
C951 C 0.44625 0.17249 0.18677 0.0
C952 C 0.49212 0.18927 0.16875 0.0
C953 C 0.42795 0.16815 0.18138 0.0
C954 C 0.57075 0.17511 0.16944 0.0
C955 C 0.55297 0.18036 0.17565 0.0
C956 C 0.50712 0.16159 0.19194 0.0
C957 C 0.46003 0.17595 0.17319 0.0
C958 C 0.48007 0.17708 0.17836 0.0
C959 C 0.53888 0.16687 0.17801 0.0
C960 C 0.51911 0.17247 0.1808 0.0
H961 H 0.43349 0.17095 0.13399 0.0
H962 H 0.4653 0.17827 0.14334 0.0
H963 H 0.47884 0.15423 0.1983 0.0
H964 H 0.56366 0.12804 0.16616 0.0
H965 H 0.53268 0.13719 0.1766 0.0
C966 C 0.81492 0.55819 0.17571 0.0
C967 C 0.83377 0.56141 0.17093 0.0
C968 C 0.80929 0.54083 0.18264 0.0
C969 C 0.82732 0.49475 0.19909 0.0
H970 H 0.78766 0.47494 0.16778 0.0
C971 C 0.8239 0.41681 0.18505 0.0
C972 C 0.82468 0.4134 0.16566 0.0
C973 C 0.81804 0.43417 0.19179 0.0
C974 C 0.79857 0.48028 0.17686 0.0
H975 H 0.86167 0.54942 0.171 0.0
H976 H 0.85185 0.51914 0.18263 0.0
H977 H 0.79222 0.50854 0.16979 0.0
H978 H 0.81821 0.42484 0.13829 0.0
H979 H 0.80841 0.45507 0.14993 0.0
H980 H 0.83488 0.46645 0.20465 0.0
C981 C 0.8414 0.53003 0.18129 0.0
C982 C 0.80109 0.49956 0.17817 0.0
C983 C 0.84703 0.54736 0.17438 0.0
C984 C 0.818 0.42709 0.15328 0.0
C985 C 0.81214 0.44439 0.16001 0.0
C986 C 0.82489 0.47546 0.19767 0.0
C987 C 0.8224 0.52639 0.18496 0.0
C988 C 0.81623 0.50692 0.18837 0.0
C989 C 0.81281 0.44839 0.17928 0.0
C990 C 0.81124 0.46805 0.18559 0.0
H991 H 0.80437 0.56883 0.17347 0.0
H992 H 0.79459 0.53849 0.18554 0.0
H993 H 0.83883 0.50006 0.20741 0.0
H994 H 0.82871 0.40644 0.19499 0.0
H995 H 0.81847 0.43678 0.20672 0.0
C996 C 0.56509 0.83065 0.15154 0.0
C997 C 0.5758 0.8323 0.13512 0.0
C998 C 0.54583 0.8276 0.15054 0.0
C999 C 0.50687 0.83736 0.1192 0.0
H1000 H 0.47835 0.80939 0.15595 0.0
C1001 C 0.42483 0.82212 0.13994 0.0
C1002 C 0.4182 0.84063 0.13956 0.0
C1003 C 0.44391 0.81839 0.13784 0.0
C1004 C 0.48612 0.81705 0.14543 0.0
H1005 H 0.57485 0.83077 0.10477 0.0
H1006 H 0.54123 0.82532 0.10307 0.0
H1007 H 0.51239 0.80609 0.15483 0.0
H1008 H 0.42642 0.86972 0.13672 0.0
H1009 H 0.45961 0.86318 0.13318 0.0
H1010 H 0.48069 0.84855 0.10999 0.0
C1011 C 0.54772 0.82672 0.1167 0.0
C1012 C 0.50559 0.81528 0.14489 0.0
C1013 C 0.56699 0.8298 0.11769 0.0
C1014 C 0.43103 0.8553 0.13705 0.0
C1015 C 0.45004 0.85156 0.13487 0.0
C1016 C 0.48745 0.83915 0.11977 0.0
C1017 C 0.53688 0.82608 0.13309 0.0
C1018 C 0.51618 0.82576 0.13205 0.0
C1019 C 0.45667 0.83308 0.13519 0.0
C1020 C 0.47694 0.82939 0.13319 0.0
H1021 H 0.57144 0.83241 0.1652 0.0
H1022 H 0.53784 0.82736 0.16342 0.0
H1023 H 0.51463 0.84575 0.10925 0.0
H1024 H 0.4153 0.8105 0.14184 0.0
H1025 H 0.44867 0.80401 0.13808 0.0
C1026 C 0.15027 0.43483 0.17412 0.0
C1027 C 0.16292 0.42078 0.16883 0.0
C1028 C 0.15672 0.45263 0.17865 0.0
C1029 C 0.194 0.48338 0.16445 0.0
H1030 H 0.16726 0.51763 0.19685 0.0
C1031 C 0.17263 0.55633 0.14237 0.0
C1032 C 0.16978 0.57029 0.15587 0.0
C1033 C 0.1791 0.53873 0.1477 0.0
C1034 C 0.1753 0.50831 0.18802 0.0
H1035 H 0.1924 0.41393 0.16571 0.0
H1036 H 0.20361 0.44517 0.17352 0.0
H1037 H 0.1646 0.48417 0.20206 0.0
H1038 H 0.17322 0.57737 0.18525 0.0
H1039 H 0.1846 0.54665 0.19448 0.0
H1040 H 0.204 0.50751 0.14986 0.0
C1041 C 0.18871 0.44239 0.17398 0.0
C1042 C 0.17362 0.48912 0.19093 0.0
C1043 C 0.18226 0.42452 0.16952 0.0
C1044 C 0.17492 0.56677 0.17455 0.0
C1045 C 0.18147 0.5492 0.17986 0.0
C1046 C 0.19573 0.50258 0.16157 0.0
C1047 C 0.17596 0.45676 0.17796 0.0
C1048 C 0.1821 0.47649 0.17853 0.0
C1049 C 0.18294 0.53479 0.16662 0.0
C1050 C 0.18556 0.51518 0.17269 0.0
H1051 H 0.13531 0.43236 0.17391 0.0
H1052 H 0.14651 0.46346 0.18146 0.0
H1053 H 0.20072 0.47398 0.15464 0.0
H1054 H 0.16892 0.55864 0.12785 0.0
H1055 H 0.17988 0.52787 0.13716 0.0
C1056 C 0.42222 0.8435 0.87689 0.0
C1057 C 0.41315 0.84373 0.85942 0.0
C1058 C 0.44163 0.84151 0.87795 0.0
C1059 C 0.48311 0.82677 0.85072 0.0
H1060 H 0.50966 0.86095 0.88346 0.0
C1061 C 0.56137 0.85979 0.85906 0.0
C1062 C 0.57237 0.84358 0.85746 0.0
C1063 C 0.54196 0.85847 0.86075 0.0
C1064 C 0.50243 0.85135 0.87422 0.0
H1065 H 0.41734 0.84155 0.82938 0.0
H1066 H 0.45115 0.83831 0.83125 0.0
H1067 H 0.47554 0.8606 0.88354 0.0
H1068 H 0.57158 0.81324 0.8566 0.0
H1069 H 0.5377 0.81099 0.85969 0.0
H1070 H 0.50999 0.81803 0.8409 0.0
C1071 C 0.44325 0.83946 0.84414 0.0
C1072 C 0.4829 0.85098 0.87444 0.0
C1073 C 0.42386 0.84145 0.84308 0.0
C1074 C 0.56353 0.82602 0.85772 0.0
C1075 C 0.54411 0.82471 0.85942 0.0
C1076 C 0.50263 0.82714 0.85051 0.0
C1077 C 0.45235 0.83967 0.86156 0.0
C1078 C 0.47304 0.83888 0.86249 0.0
C1079 C 0.53313 0.84093 0.86089 0.0
C1080 C 0.51248 0.83963 0.86206 0.0
H1081 H 0.41437 0.84511 0.88977 0.0
H1082 H 0.44826 0.84149 0.89158 0.0
H1083 H 0.47588 0.81715 0.84151 0.0
H1084 H 0.56772 0.87354 0.85888 0.0
H1085 H 0.53384 0.87123 0.86158 0.0
C1086 C 0.16019 0.41396 0.82565 0.0
C1087 C 0.16182 0.40437 0.84273 0.0
C1088 C 0.16608 0.43249 0.82423 0.0
C1089 C 0.16764 0.47204 0.85534 0.0
H1090 H 0.18372 0.49915 0.81113 0.0
C1091 C 0.17604 0.55348 0.83455 0.0
C1092 C 0.15776 0.55943 0.83892 0.0
C1093 C 0.18025 0.53444 0.83356 0.0
C1094 C 0.17943 0.49169 0.82361 0.0
H1095 H 0.17297 0.40577 0.87096 0.0
H1096 H 0.18346 0.43804 0.86837 0.0
H1097 H 0.18735 0.46502 0.81238 0.0
H1098 H 0.1294 0.55013 0.84472 0.0
H1099 H 0.13686 0.51698 0.84319 0.0
H1100 H 0.15906 0.49845 0.86627 0.0
C1101 C 0.17717 0.43142 0.85627 0.0
C1102 C 0.18145 0.47226 0.82432 0.0
C1103 C 0.17111 0.41298 0.85776 0.0
C1104 C 0.14363 0.54603 0.84143 0.0
C1105 C 0.14788 0.52708 0.84064 0.0
C1106 C 0.1655 0.49131 0.85455 0.0
C1107 C 0.17383 0.44163 0.83982 0.0
C1108 C 0.17513 0.46224 0.84003 0.0
C1109 C 0.16628 0.52117 0.83713 0.0
C1110 C 0.17086 0.50119 0.83849 0.0
H1111 H 0.15325 0.40759 0.81377 0.0
H1112 H 0.16324 0.44004 0.81139 0.0
H1113 H 0.16237 0.46474 0.86753 0.0
H1114 H 0.1872 0.5635 0.83239 0.0
H1115 H 0.19452 0.53011 0.8308 0.0
C1116 C 0.42568 0.13215 0.81528 0.0
C1117 C 0.41866 0.14828 0.82402 0.0
C1118 C 0.4443 0.13135 0.80955 0.0
C1119 C 0.48852 0.15848 0.80498 0.0
H1120 H 0.51007 0.11437 0.82809 0.0
C1121 C 0.56008 0.13627 0.84422 0.0
C1122 C 0.57394 0.14006 0.83082 0.0
C1123 C 0.54123 0.13671 0.83926 0.0
C1124 C 0.50424 0.12668 0.82144 0.0
H1125 H 0.42505 0.17685 0.83194 0.0
H1126 H 0.45774 0.17527 0.82242 0.0
H1127 H 0.47634 0.11669 0.82462 0.0
H1128 H 0.57895 0.14766 0.80181 0.0
H1129 H 0.54578 0.14869 0.79326 0.0
H1130 H 0.51665 0.16875 0.80275 0.0
C1131 C 0.44883 0.16331 0.81979 0.0
C1132 C 0.48494 0.12794 0.81923 0.0
C1133 C 0.43012 0.16417 0.82537 0.0
C1134 C 0.56856 0.14458 0.81242 0.0
C1135 C 0.54964 0.14525 0.80752 0.0
C1136 C 0.50793 0.15715 0.80711 0.0
C1137 C 0.4563 0.14659 0.81264 0.0
C1138 C 0.47682 0.14408 0.81149 0.0
C1139 C 0.53586 0.14113 0.82088 0.0
C1140 C 0.51583 0.14149 0.81593 0.0
H1141 H 0.41704 0.11981 0.81368 0.0
H1142 H 0.4496 0.11842 0.80369 0.0
H1143 H 0.48262 0.17102 0.79886 0.0
H1144 H 0.56377 0.13275 0.8585 0.0
H1145 H 0.53081 0.13375 0.84988 0.0
C1146 C 0.84089 0.56277 0.85482 0.0
C1147 C 0.8415 0.57529 0.83968 0.0
C1148 C 0.83919 0.54365 0.85166 0.0
C1149 C 0.8253 0.50762 0.81831 0.0
H1150 H 0.86251 0.47816 0.84468 0.0
C1151 C 0.855 0.4273 0.82737 0.0
C1152 C 0.83831 0.41803 0.83205 0.0
C1153 C 0.85496 0.44645 0.82391 0.0
C1154 C 0.8522 0.4862 0.83699 0.0
H1155 H 0.83967 0.57767 0.80941 0.0
H1156 H 0.83662 0.54407 0.80398 0.0
H1157 H 0.86233 0.51193 0.84821 0.0
H1158 H 0.80823 0.42122 0.83511 0.0
H1159 H 0.80825 0.45481 0.82934 0.0
H1160 H 0.81501 0.48164 0.80736 0.0
C1161 C 0.83755 0.54918 0.81823 0.0
C1162 C 0.85195 0.50548 0.83923 0.0
C1163 C 0.83939 0.56836 0.82137 0.0
C1164 C 0.82135 0.42801 0.83171 0.0
C1165 C 0.82133 0.44722 0.82828 0.0
C1166 C 0.82544 0.48818 0.8162 0.0
C1167 C 0.83794 0.53667 0.83334 0.0
C1168 C 0.83837 0.51633 0.83013 0.0
C1169 C 0.83824 0.4567 0.8251 0.0
C1170 C 0.83884 0.47732 0.82565 0.0
H1171 H 0.84234 0.56765 0.8691 0.0
H1172 H 0.83924 0.53425 0.86356 0.0
H1173 H 0.81471 0.51576 0.81115 0.0
H1174 H 0.86826 0.41995 0.82719 0.0
H1175 H 0.86815 0.45341 0.82114 0.0
C1176 C 0.16589 0.91401 0.35599 0.0
C1177 C 0.14918 0.90376 0.35431 0.0
C1178 C 0.16567 0.93349 0.35471 0.0
C1179 C 0.13721 0.9737 0.33922 0.0
H1180 H 0.16119 -0.00029 0.38039 0.0
C1181 C 0.11841 0.0493 0.35828 0.0
C1182 C 0.13293 0.06137 0.36371 0.0
C1183 C 0.12181 0.03026 0.35583 0.0
C1184 C 0.15467 0.99271 0.36863 0.0
H1185 H 0.11933 0.90583 0.34892 0.0
H1186 H 0.119 0.93973 0.34667 0.0
H1187 H 0.16521 0.96604 0.37713 0.0
H1188 H 0.16242 0.06297 0.37086 0.0
H1189 H 0.1684 0.02972 0.36641 0.0
H1190 H 0.12646 0.0003 0.33083 0.0
C1191 C 0.13226 0.93274 0.34897 0.0
C1192 C 0.157 0.97344 0.36675 0.0
C1193 C 0.13244 0.91331 0.35038 0.0
C1194 C 0.1509 0.05399 0.3668 0.0
C1195 C 0.15432 0.03494 0.36428 0.0
C1196 C 0.13494 0.99298 0.34104 0.0
C1197 C 0.14879 0.94305 0.35153 0.0
C1198 C 0.14802 0.9637 0.35222 0.0
C1199 C 0.13983 0.02289 0.35867 0.0
C1200 C 0.14336 0.00265 0.35597 0.0
H1201 H 0.17904 0.90706 0.35895 0.0
H1202 H 0.17865 0.94112 0.35653 0.0
H1203 H 0.13032 0.96657 0.32775 0.0
H1204 H 0.10439 0.05455 0.35587 0.0
H1205 H 0.11026 0.02129 0.35187 0.0
C1206 C 0.93376 0.11979 0.40152 0.0
C1207 C 0.92314 0.13423 0.39347 0.0
C1208 C 0.95331 0.12059 0.40135 0.0
C1209 C 0.99341 0.15249 0.3956 0.0
H1210 H 0.0191 0.10837 0.37731 0.0
C1211 C 0.07028 0.15444 0.37127 0.0
C1212 C 0.08168 0.13898 0.37541 0.0
C1213 C 0.05108 0.15386 0.37488 0.0
C1214 C 0.01221 0.12072 0.38273 0.0
H1215 H 0.92465 0.16117 0.37957 0.0
H1216 H 0.95872 0.16256 0.37934 0.0
H1217 H 0.98534 0.1075 0.38204 0.0
H1218 H 0.08188 0.11084 0.38679 0.0
H1219 H 0.04847 0.10999 0.39339 0.0
H1220 H 0.02025 0.16574 0.39628 0.0
C1221 C 0.95195 0.15065 0.38581 0.0
C1222 C 0.99286 0.12021 0.38543 0.0
C1223 C 0.93243 0.1498 0.38585 0.0
C1224 C 0.07347 0.12296 0.38331 0.0
C1225 C 0.05429 0.12243 0.38703 0.0
C1226 C 0.01279 0.15297 0.39302 0.0
C1227 C 0.96258 0.13592 0.39327 0.0
C1228 C 0.98325 0.13615 0.39171 0.0
C1229 C 0.04286 0.13786 0.38281 0.0
C1230 C 0.02239 0.13714 0.38636 0.0
H1231 H 0.92702 0.10763 0.40753 0.0
H1232 H 0.96118 0.10913 0.40737 0.0
H1233 H 0.98637 0.16491 0.40066 0.0
H1234 H 0.07615 0.16696 0.36508 0.0
H1235 H 0.04263 0.16587 0.37116 0.0
C1236 C 0.86935 0.9369 0.38248 0.0
C1237 C 0.85658 0.92575 0.37254 0.0
C1238 C 0.86696 0.95624 0.38336 0.0
C1239 C 0.84377 -0.00477 0.3588 0.0
H1240 H 0.85546 0.02247 0.40427 0.0
C1241 C 0.83084 0.07448 0.36632 0.0
C1242 C 0.84576 0.08485 0.37387 0.0
C1243 C 0.83106 0.05498 0.36693 0.0
C1244 C 0.85224 0.01504 0.39145 0.0
H1245 H 0.83107 0.92607 0.35603 0.0
H1246 H 0.82672 0.95979 0.35786 0.0
H1247 H 0.85769 0.98844 0.40399 0.0
H1248 H 0.87246 0.08286 0.38827 0.0
H1249 H 0.8728 0.04883 0.38932 0.0
H1250 H 0.83833 0.02186 0.34629 0.0
C1251 C 0.83878 0.95364 0.36468 0.0
C1252 C 0.85355 -0.00443 0.39127 0.0
C1253 C 0.84122 0.9343 0.36371 0.0
C1254 C 0.86076 0.0753 0.3823 0.0
C1255 C 0.8609 0.05581 0.38302 0.0
C1256 C 0.84236 0.01468 0.35902 0.0
C1257 C 0.85169 0.96484 0.37441 0.0
C1258 C 0.8495 0.98546 0.37489 0.0
C1259 C 0.84613 0.04546 0.37522 0.0
C1260 C 0.84674 0.02478 0.3753 0.0
H1261 H 0.88136 0.93073 0.38938 0.0
H1262 H 0.87731 0.96449 0.39075 0.0
H1263 H 0.84083 0.9879 0.34587 0.0
H1264 H 0.81908 0.08141 0.35971 0.0
H1265 H 0.81942 0.04733 0.36095 0.0
C1266 C 0.91971 0.83458 0.34207 0.0
C1267 C 0.9097 0.85068 0.34727 0.0
C1268 C 0.93921 0.83501 0.34073 0.0
C1269 C 0.98003 0.83642 0.35187 0.0
H1270 H 0.00665 0.87985 0.33329 0.0
C1271 C 0.05895 0.84686 0.36446 0.0
C1272 C 0.06966 0.85466 0.34993 0.0
C1273 C 0.03947 0.8461 0.36311 0.0
C1274 C -0.00056 0.86753 0.33834 0.0
H1275 H 0.91229 0.87997 0.35473 0.0
H1276 H 0.9463 0.88062 0.35273 0.0
H1277 H 0.97258 0.87901 0.33176 0.0
H1278 H 0.06835 0.86757 0.32248 0.0
H1279 H 0.03436 0.86595 0.31999 0.0
H1280 H 0.00688 0.82478 0.35814 0.0
C1281 C 0.93909 0.86773 0.34939 0.0
C1282 C 0.9799 0.86714 0.33767 0.0
C1283 C 0.91957 0.86733 0.35062 0.0
C1284 C 0.06049 0.86156 0.33396 0.0
C1285 C 0.04099 0.86073 0.33258 0.0
C1286 C -0.00044 0.83678 0.35248 0.0
C1287 C 0.94915 0.85151 0.34466 0.0
C1288 C 0.96995 0.85164 0.34455 0.0
C1289 C 0.03025 0.85303 0.34716 0.0
C1290 C 0.0095 0.8524 0.34587 0.0
H1291 H 0.91252 0.82156 0.33922 0.0
H1292 H 0.94651 0.82237 0.33671 0.0
H1293 H 0.97283 0.82435 0.35751 0.0
H1294 H 0.06559 0.84149 0.37698 0.0
H1295 H 0.03161 0.84036 0.37472 0.0
C1296 C 0.16597 0.078 0.62926 0.0
C1297 C 0.14905 0.08778 0.62696 0.0
C1298 C 0.16584 0.05883 0.63305 0.0
C1299 C 0.137 0.02161 0.65271 0.0
H1300 H 0.16404 0.9883 0.61951 0.0
C1301 C 0.12004 0.94341 0.64854 0.0
C1302 C 0.13449 0.93068 0.64476 0.0
C1303 C 0.12346 0.96259 0.64816 0.0
C1304 C 0.15671 -0.00263 0.62918 0.0
H1305 H 0.11876 0.08525 0.62723 0.0
H1306 H 0.11859 0.05191 0.63415 0.0
H1307 H 0.16737 0.02204 0.6159 0.0
H1308 H 0.16401 0.92796 0.63821 0.0
H1309 H 0.17014 0.96149 0.63806 0.0
H1310 H 0.12637 -0.00288 0.66611 0.0
C1311 C 0.13191 0.05906 0.63293 0.0
C1312 C 0.15859 0.01668 0.62704 0.0
C1313 C 0.13203 0.0781 0.62883 0.0
C1314 C 0.15255 0.93748 0.641 0.0
C1315 C 0.15604 0.95669 0.64084 0.0
C1316 C 0.13531 0.00232 0.65503 0.0
C1317 C 0.1488 0.04925 0.63497 0.0
C1318 C 0.14843 0.02893 0.63853 0.0
C1319 C 0.14148 0.96949 0.64424 0.0
C1320 C 0.14479 0.98996 0.64301 0.0
H1321 H 0.1793 0.0851 0.62788 0.0
H1322 H 0.17903 0.05152 0.63461 0.0
H1323 H 0.12921 0.03082 0.66189 0.0
H1324 H 0.10594 0.93859 0.65138 0.0
H1325 H 0.11182 0.97201 0.65047 0.0
C1326 C 0.05748 0.12256 0.62398 0.0
C1327 C 0.06917 0.13186 0.61121 0.0
C1328 C 0.03806 0.124 0.62255 0.0
C1329 C 0.00099 0.15405 0.60291 0.0
H1330 H 0.96947 0.11158 0.61483 0.0
C1331 C 0.91789 0.13097 0.60257 0.0
C1332 C 0.9099 0.14717 0.61031 0.0
C1333 C 0.9373 0.12907 0.60132 0.0
C1334 C 0.97804 0.12353 0.61124 0.0
H1335 H 0.06964 0.14969 0.58665 0.0
H1336 H 0.03566 0.15192 0.58391 0.0
H1337 H 0.00329 0.10781 0.6143 0.0
H1338 H 0.91607 0.17413 0.62279 0.0
H1339 H 0.94994 0.17062 0.62104 0.0
H1340 H 0.97569 0.16968 0.59947 0.0
C1341 C 0.04154 0.14377 0.59525 0.0
C1342 C -0.00254 0.12143 0.61117 0.0
C1343 C 0.06101 0.14239 0.59675 0.0
C1344 C 0.92176 0.16149 0.6167 0.0
C1345 C 0.94119 0.15953 0.61557 0.0
C1346 C 0.98155 0.15614 0.60288 0.0
C1347 C 0.02985 0.1347 0.60823 0.0
C1348 C 0.00918 0.13671 0.60721 0.0
C1349 C 0.94919 0.14327 0.60792 0.0
C1350 C 0.96984 0.14094 0.60722 0.0
H1351 H 0.06331 0.11439 0.63534 0.0
H1352 H 0.0295 0.11708 0.63296 0.0
H1353 H 0.00961 0.16616 0.59998 0.0
H1354 H 0.90916 0.11972 0.59738 0.0
H1355 H 0.94297 0.1165 0.59507 0.0
C1356 C 0.82501 0.92406 0.6219 0.0
C1357 C 0.84147 0.91397 0.62573 0.0
C1358 C 0.82528 0.9436 0.62155 0.0
C1359 C 0.8518 0.98428 0.63825 0.0
H1360 H 0.83164 0.00969 0.59473 0.0
C1361 C 0.87045 0.06046 0.62223 0.0
C1362 C 0.8564 0.07225 0.61521 0.0
C1363 C 0.86736 0.04129 0.62383 0.0
C1364 C 0.83707 0.00286 0.60712 0.0
H1365 H 0.87095 0.91646 0.63272 0.0
H1366 H 0.87131 0.95046 0.63227 0.0
H1367 H 0.82793 0.97589 0.59778 0.0
H1368 H 0.82811 0.0732 0.60421 0.0
H1369 H 0.82258 0.03967 0.60728 0.0
H1370 H 0.86095 0.0111 0.64767 0.0
C1371 C 0.85824 0.94328 0.62952 0.0
C1372 C 0.83495 0.98351 0.60885 0.0
C1373 C 0.85804 0.9238 0.62966 0.0
C1374 C 0.83925 0.06444 0.60956 0.0
C1375 C 0.8361 0.04522 0.61129 0.0
C1376 C 0.8538 0.0036 0.63661 0.0
C1377 C 0.84192 0.95337 0.62529 0.0
C1378 C 0.84259 0.97402 0.62427 0.0
C1379 C 0.85008 0.03345 0.6186 0.0
C1380 C 0.84678 0.01308 0.62085 0.0
H1381 H 0.81203 0.91688 0.61881 0.0
H1382 H 0.81248 0.95108 0.61837 0.0
H1383 H 0.85758 0.97733 0.65042 0.0
H1384 H 0.88387 0.06604 0.62656 0.0
H1385 H 0.87859 0.03258 0.6291 0.0
C1386 C 0.07095 0.87149 0.64138 0.0
C1387 C 0.08016 0.85451 0.64495 0.0
C1388 C 0.05146 0.87257 0.64216 0.0
C1389 C 0.01052 0.87382 0.65258 0.0
H1390 H 0.9822 0.83212 0.63262 0.0
C1391 C 0.92975 0.87277 0.65348 0.0
C1392 C 0.92068 0.86521 0.63777 0.0
C1393 C 0.94912 0.87104 0.65554 0.0
C1394 C 0.98989 0.84396 0.6381 0.0
H1395 H 0.07619 0.82552 0.65292 0.0
H1396 H 0.04218 0.82753 0.6548 0.0
H1397 H 0.01613 0.83017 0.63421 0.0
H1398 H 0.92478 0.85008 0.61178 0.0
H1399 H 0.9586 0.84756 0.61505 0.0
H1400 H 0.98435 0.88797 0.65562 0.0
C1401 C 0.04999 0.8399 0.65089 0.0
C1402 C 0.00936 0.84273 0.63929 0.0
C1403 C 0.0695 0.83877 0.64992 0.0
C1404 C 0.93136 0.85597 0.6241 0.0
C1405 C 0.95075 0.85441 0.62606 0.0
C1406 C 0.99106 0.87513 0.65123 0.0
C1407 C 0.04072 0.85675 0.64674 0.0
C1408 C 0.01993 0.85769 0.64643 0.0
C1409 C 0.95987 0.86188 0.64183 0.0
C1410 C 0.98052 0.86026 0.64384 0.0
H1411 H 0.07874 0.88386 0.63741 0.0
H1412 H 0.04482 0.8857 0.6386 0.0
H1413 H 0.01819 0.88552 0.65839 0.0
H1414 H 0.92188 0.87984 0.66433 0.0
H1415 H 0.95563 0.87671 0.668 0.0
C1416 C 0.38361 0.12802 0.91646 0.0
C1417 C 0.37648 0.14409 0.90769 0.0
C1418 C 0.38544 0.1273 0.93588 0.0
C1419 C 0.37612 0.12435 0.97681 0.0
H1420 H 0.38902 0.16795 0.00633 0.0
C1421 C 0.36436 0.12642 0.0562 0.0
C1422 C 0.37748 0.13578 0.06744 0.0
C1423 C 0.36548 0.12742 0.03674 0.0
C1424 C 0.38563 0.15557 -0.0017 0.0
H1425 H 0.36586 0.17209 0.91236 0.0
H1426 H 0.36846 0.17063 0.94637 0.0
H1427 H 0.3895 0.16989 0.97228 0.0
H1428 H 0.40222 0.15334 0.06713 0.0
H1429 H 0.40448 0.1547 0.03305 0.0
H1430 H 0.37276 0.10987 0.00272 0.0
C1431 C 0.37307 0.15873 0.93822 0.0
C1432 C 0.38564 0.15676 0.97876 0.0
C1433 C 0.37146 0.15954 0.91873 0.0
C1434 C 0.39188 0.14602 0.05882 0.0
C1435 C 0.3931 0.14689 0.0393 0.0
C1436 C 0.37627 0.12312 -0.00371 0.0
C1437 C 0.37993 0.14253 0.94704 0.0
C1438 C 0.38071 0.1412 0.96779 0.0
C1439 C 0.37986 0.13764 0.02803 0.0
C1440 C 0.38079 0.13877 0.00729 0.0
H1441 H 0.38782 0.11596 0.90832 0.0
H1442 H 0.39116 0.11476 0.94215 0.0
H1443 H 0.372 0.11214 0.96886 0.0
H1444 H 0.353 0.11854 0.0624 0.0
H1445 H 0.35483 0.12043 0.02853 0.0
C1446 C 0.83316 0.3836 0.06007 0.0
C1447 C 0.85051 0.38983 0.06698 0.0
C1448 C 0.82999 0.38244 0.04081 0.0
C1449 C 0.84891 0.3976 0.99476 0.0
H1450 H 0.82412 0.3529 0.97653 0.0
C1451 C 0.85605 0.37255 0.91899 0.0
C1452 C 0.83954 0.36761 0.90947 0.0
C1453 C 0.85582 0.37579 0.93822 0.0
C1454 C 0.83086 0.36555 0.98144 0.0
H1455 H 0.87794 0.4002 0.0591 0.0
H1456 H 0.87257 0.39782 0.02559 0.0
H1457 H 0.82639 0.35845 0.01017 0.0
H1458 H 0.80995 0.36159 0.91283 0.0
H1459 H 0.80967 0.367 0.94669 0.0
H1460 H 0.85393 0.40432 0.96601 0.0
C1461 C 0.86127 0.39413 0.03499 0.0
C1462 C 0.83212 0.36879 0.0007 0.0
C1463 C 0.8644 0.39541 0.05424 0.0
C1464 C 0.82289 0.36541 0.91975 0.0
C1465 C 0.82272 0.36848 0.9391 0.0
C1466 C 0.8478 0.39427 0.97556 0.0
C1467 C 0.84412 0.38739 0.02804 0.0
C1468 C 0.8414 0.38472 0.00759 0.0
C1469 C 0.83913 0.374 0.94843 0.0
C1470 C 0.83902 0.37808 0.96873 0.0
H1471 H 0.82212 0.37931 0.06953 0.0
H1472 H 0.81651 0.3775 0.03594 0.0
H1473 H 0.8558 0.4102 -0.00044 0.0
H1474 H 0.86914 0.37435 0.91155 0.0
H1475 H 0.86873 0.37973 0.94513 0.0
C1476 C 0.6541 0.8619 0.91398 0.0
C1477 C 0.65336 0.84554 0.90314 0.0
C1478 C 0.6591 0.86111 0.93282 0.0
C1479 C 0.6742 0.85756 0.97197 0.0
H1480 H 0.65021 0.81693 -0.00133 0.0
C1481 C 0.67057 0.85613 0.05272 0.0
C1482 C 0.65323 0.85075 0.06031 0.0
C1483 C 0.67432 0.85349 0.0337 0.0
C1484 C 0.65696 0.8284 0.99144 0.0
H1485 H 0.65881 0.8157 0.90318 0.0
H1486 H 0.66795 0.81438 0.93607 0.0
H1487 H 0.65106 0.81647 0.9647 0.0
H1488 H 0.62627 0.83833 0.05397 0.0
H1489 H 0.63252 0.83429 0.0208 0.0
H1490 H 0.67887 0.87014 -0.00132 0.0
C1491 C 0.66414 0.82776 0.9301 0.0
C1492 C 0.65774 0.82799 0.97192 0.0
C1493 C 0.65899 0.82853 0.91123 0.0
C1494 C 0.63978 0.84257 0.04856 0.0
C1495 C 0.64346 0.84009 0.02955 0.0
C1496 C 0.67324 0.85807 0.99148 0.0
C1497 C 0.66367 0.84396 0.94126 0.0
C1498 C 0.66586 0.84284 0.96192 0.0
C1499 C 0.66075 0.84554 0.02186 0.0
C1500 C 0.6641 0.84376 0.00141 0.0
H1501 H 0.64994 0.87527 0.90819 0.0
H1502 H 0.65833 0.87385 0.94097 0.0
H1503 H 0.68088 0.86906 0.96472 0.0
H1504 H 0.68128 0.86231 0.06148 0.0
H1505 H 0.68785 0.85765 0.0283 0.0
C1506 C 0.12921 0.63875 0.05494 0.0
C1507 C 0.13764 0.62402 0.06483 0.0
C1508 C 0.13128 0.64014 0.03557 0.0
C1509 C 0.15986 0.62277 0.99572 0.0
H1510 H 0.11667 0.63822 0.96673 0.0
C1511 C 0.13072 0.61858 0.91539 0.0
C1512 C 0.14695 0.62326 0.90531 0.0
C1513 C 0.13022 0.62035 0.9348 0.0
C1514 C 0.12885 0.63378 0.9746 0.0
H1515 H 0.15484 0.59919 0.06223 0.0
H1516 H 0.15794 0.60124 0.02832 0.0
H1517 H 0.1146 0.63724 0.00062 0.0
H1518 H 0.17529 0.63392 0.90771 0.0
H1519 H 0.17427 0.63743 0.94172 0.0
H1520 H 0.17378 0.61842 0.96956 0.0
C1521 C 0.15011 0.612 0.03555 0.0
C1522 C 0.12775 0.63346 0.99408 0.0
C1523 C 0.14821 0.61072 0.05498 0.0
C1524 C 0.1626 0.63011 0.91508 0.0
C1525 C 0.16205 0.63202 0.93457 0.0
C1526 C 0.16091 0.62293 0.97619 0.0
C1527 C 0.14164 0.62672 0.02561 0.0
C1528 C 0.14318 0.62779 0.00489 0.0
C1529 C 0.14588 0.62704 0.94465 0.0
C1530 C 0.14533 0.62822 0.9654 0.0
H1531 H 0.12115 0.64935 0.06217 0.0
H1532 H 0.12485 0.65185 0.02843 0.0
H1533 H 0.17211 0.61862 0.00363 0.0
H1534 H 0.11843 0.61315 0.90835 0.0
H1535 H 0.11766 0.61604 0.94211 0.0
C1536 C 0.34329 0.87332 0.08218 0.0
C1537 C 0.34007 0.85702 0.09268 0.0
C1538 C 0.33889 0.87388 0.06314 0.0
C1539 C 0.33379 0.84157 0.02349 0.0
H1540 H 0.32059 0.8868 -0.00332 0.0
C1541 C 0.32098 0.86897 0.94268 0.0
C1542 C 0.33641 0.86026 0.93412 0.0
C1543 C 0.31858 0.86806 0.96208 0.0
C1544 C 0.32402 0.87397 0.00395 0.0
H1545 H 0.32836 0.82906 0.09174 0.0
H1546 H 0.32021 0.83023 0.0587 0.0
H1547 H 0.31976 0.88655 0.0308 0.0
H1548 H 0.36136 0.84373 0.93917 0.0
H1549 H 0.35739 0.84246 0.97293 0.0
H1550 H 0.33794 0.82894 -0.00329 0.0
C1551 C 0.32666 0.84238 0.06503 0.0
C1552 C 0.32375 0.87389 0.02351 0.0
C1553 C 0.33123 0.84175 0.08402 0.0
C1554 C 0.3493 0.85054 0.94531 0.0
C1555 C 0.34693 0.84969 0.96468 0.0
C1556 C 0.33397 0.84162 0.00397 0.0
C1557 C 0.33101 0.85822 0.05422 0.0
C1558 C 0.32901 0.8578 0.03352 0.0
C1559 C 0.33157 0.85846 0.9733 0.0
C1560 C 0.32951 0.85793 0.99397 0.0
H1561 H 0.35006 0.88535 0.08841 0.0
H1562 H 0.3426 0.88625 0.05524 0.0
H1563 H 0.33815 0.82898 0.03069 0.0
H1564 H 0.31075 0.87651 0.93442 0.0
H1565 H 0.30649 0.8748 0.96827 0.0
C1566 C 0.14891 0.36211 0.93863 0.0
C1567 C 0.1349 0.37276 0.92985 0.0
C1568 C 0.1513 0.36294 0.95799 0.0
C1569 C 0.1396 0.39156 -0.00039 0.0
H1570 H 0.14962 0.34551 0.02646 0.0
C1571 C 0.13139 0.38415 0.07949 0.0
C1572 C 0.14571 0.37472 0.08913 0.0
C1573 C 0.13118 0.38453 0.05997 0.0
C1574 C 0.14704 0.3585 0.01911 0.0
H1575 H 0.11243 0.39263 0.93445 0.0
H1576 H 0.11629 0.39373 0.96829 0.0
H1577 H 0.14703 0.34498 0.99244 0.0
H1578 H 0.17106 0.35829 0.08585 0.0
H1579 H 0.17056 0.35887 0.05168 0.0
H1580 H 0.13914 0.40494 0.02642 0.0
C1581 C 0.1257 0.38504 0.96019 0.0
C1582 C 0.14559 0.35823 -0.00036 0.0
C1583 C 0.1234 0.38432 0.9408 0.0
C1584 C 0.15985 0.36571 0.07883 0.0
C1585 C 0.15953 0.36595 0.05929 0.0
C1586 C 0.1409 0.3918 0.0191 0.0
C1587 C 0.13964 0.37432 0.96901 0.0
C1588 C 0.14176 0.37474 0.98967 0.0
C1589 C 0.14519 0.37535 0.0497 0.0
C1590 C 0.14454 0.37525 0.02902 0.0
H1591 H 0.15809 0.35317 0.93053 0.0
H1592 H 0.16237 0.35474 0.96431 0.0
H1593 H 0.13697 0.40458 0.99234 0.0
H1594 H 0.12029 0.39124 0.087 0.0
H1595 H 0.11985 0.39171 0.0529 0.0
C1596 C 0.61387 0.13005 0.07274 0.0
C1597 C 0.62047 0.14523 0.08334 0.0
C1598 C 0.6141 0.13071 0.05322 0.0
C1599 C 0.63825 0.15344 0.01413 0.0
H1600 H 0.59746 0.13283 0.98482 0.0
C1601 C 0.64597 0.13453 0.93617 0.0
C1602 C 0.63096 0.13876 0.92419 0.0
C1603 C 0.64414 0.13677 0.9555 0.0
C1604 C 0.60888 0.13881 0.9928 0.0
H1605 H 0.63222 0.17317 0.08171 0.0
H1606 H 0.63254 0.17432 0.04758 0.0
H1607 H 0.59465 0.13455 0.01881 0.0
H1608 H 0.60232 0.14884 0.92305 0.0
H1609 H 0.59918 0.15278 0.95683 0.0
H1610 H 0.65248 0.15771 0.98811 0.0
C1611 C 0.62734 0.16185 0.05443 0.0
C1612 C 0.60735 0.13962 0.01226 0.0
C1613 C 0.62706 0.16122 0.07397 0.0
C1614 C 0.61412 0.14538 0.93192 0.0
C1615 C 0.61229 0.14757 0.95126 0.0
C1616 C 0.63981 0.15258 0.99467 0.0
C1617 C 0.62098 0.14655 0.04386 0.0
C1618 C 0.6221 0.14677 0.02314 0.0
C1619 C 0.62727 0.14325 0.96325 0.0
C1620 C 0.62522 0.14508 0.98382 0.0
H1621 H 0.6087 0.11751 0.07949 0.0
H1622 H 0.60933 0.11861 0.04546 0.0
H1623 H 0.64992 0.15888 0.02214 0.0
H1624 H 0.65912 0.1294 0.93066 0.0
H1625 H 0.65585 0.13309 0.9644 0.0
C1626 C 0.86709 0.60012 0.93961 0.0
C1627 C 0.85459 0.61054 0.92859 0.0
C1628 C 0.86454 0.59879 0.95894 0.0
C1629 C 0.84149 0.62271 -0.00149 0.0
H1630 H 0.85316 0.57671 0.02476 0.0
C1631 C 0.83023 0.61377 0.07818 0.0
C1632 C 0.84544 0.60602 0.08799 0.0
C1633 C 0.82989 0.61353 0.05862 0.0
C1634 C 0.84992 0.58966 0.01761 0.0
H1635 H 0.82937 0.62744 0.92914 0.0
H1636 H 0.82472 0.62484 0.96285 0.0
H1637 H 0.855 0.57764 0.99068 0.0
H1638 H 0.87205 0.59167 0.08494 0.0
H1639 H 0.87138 0.59122 0.05087 0.0
H1640 H 0.83643 0.6347 0.0255 0.0
C1641 C 0.83671 0.61798 0.9566 0.0
C1642 C 0.85102 0.59022 -0.0019 0.0
C1643 C 0.83932 0.61939 0.93727 0.0
C1644 C 0.86013 0.59777 0.07783 0.0
C1645 C 0.8597 0.5974 0.05831 0.0
C1646 C 0.84027 0.6221 0.01801 0.0
C1647 C 0.84935 0.60776 0.96768 0.0
C1648 C 0.84706 0.60682 0.98833 0.0
C1649 C 0.84465 0.60538 0.0485 0.0
C1650 C 0.84471 0.60565 0.02777 0.0
H1651 H 0.87904 0.59319 0.93336 0.0
H1652 H 0.87472 0.59106 0.96707 0.0
H1653 H 0.8386 0.63579 0.99146 0.0
H1654 H 0.8187 0.62025 0.08559 0.0
H1655 H 0.81806 0.61967 0.0514 0.0
C1656 C 0.91534 0.38576 0.12604 0.0
C1657 C 0.90729 0.37588 0.14102 0.0
C1658 C 0.93472 0.38825 0.12509 0.0
C1659 C 0.97628 0.38101 0.12043 0.0
H1660 H 0.0053 0.38799 0.16577 0.0
C1661 C 0.05556 0.36812 0.1229 0.0
C1662 C 0.06671 0.37956 0.13434 0.0
C1663 C 0.03611 0.36975 0.12319 0.0
C1664 C -0.00258 0.38632 0.15293 0.0
H1665 H 0.91328 0.36077 0.16669 0.0
H1666 H 0.94701 0.3647 0.16476 0.0
H1667 H 0.97128 0.38757 0.16746 0.0
H1668 H 0.06626 0.40198 0.15477 0.0
H1669 H 0.03222 0.40507 0.15503 0.0
H1670 H 0.0024 0.38006 0.10586 0.0
C1671 C 0.93837 0.37094 0.15398 0.0
C1672 C 0.9779 0.38581 0.15394 0.0
C1673 C 0.91902 0.36856 0.15501 0.0
C1674 C 0.05802 0.3929 0.14586 0.0
C1675 C 0.03852 0.39461 0.14607 0.0
C1676 C 0.99578 0.38163 0.11941 0.0
C1677 C 0.94646 0.38081 0.13902 0.0
C1678 C 0.96712 0.38282 0.13775 0.0
C1679 C 0.02734 0.38295 0.13484 0.0
C1680 C 0.00659 0.38395 0.13569 0.0
H1681 H 0.90668 0.39168 0.1151 0.0
H1682 H 0.94048 0.39613 0.11349 0.0
H1683 H 0.96842 0.37855 0.1077 0.0
H1684 H 0.0618 0.35764 0.11392 0.0
H1685 H 0.02793 0.36031 0.11461 0.0
C1686 C 0.92053 0.64015 0.8395 0.0
C1687 C 0.90975 0.63522 0.85521 0.0
C1688 C 0.94005 0.63947 0.84026 0.0
C1689 C 0.97956 0.62432 0.84169 0.0
H1690 H 0.00703 0.63905 0.88611 0.0
C1691 C 0.05829 0.60847 0.85074 0.0
C1692 C 0.06932 0.6226 0.8588 0.0
C1693 C 0.03878 0.61001 0.8506 0.0
C1694 C -0.00041 0.63501 0.87354 0.0
H1695 H 0.91106 0.62618 0.88419 0.0
H1696 H 0.94506 0.62474 0.8854 0.0
H1697 H 0.9732 0.64309 0.88513 0.0
H1698 H 0.06856 0.64944 0.87295 0.0
H1699 H 0.03467 0.65225 0.87237 0.0
H1700 H 0.006 0.61671 0.82991 0.0
C1701 C 0.93846 0.62937 0.87257 0.0
C1702 C 0.98016 0.63714 0.87306 0.0
C1703 C 0.91894 0.63015 0.87186 0.0
C1704 C 0.06046 0.63825 0.86672 0.0
C1705 C 0.04101 0.63982 0.86649 0.0
C1706 C -0.00101 0.62227 0.84214 0.0
C1707 C 0.94923 0.63375 0.8567 0.0
C1708 C 0.96992 0.63183 0.85713 0.0
C1709 C 0.02993 0.62573 0.85843 0.0
C1710 C 0.00923 0.6276 0.85807 0.0
H1711 H 0.91389 0.64425 0.8265 0.0
H1712 H 0.94795 0.6433 0.8279 0.0
H1713 H 0.97207 0.61983 0.8293 0.0
H1714 H 0.06471 0.59622 0.84458 0.0
H1715 H 0.03063 0.59879 0.8445 0.0
C1716 C 0.35211 0.05552 0.87533 0.0
C1717 C 0.35852 0.06623 0.86016 0.0
C1718 C 0.34903 0.03638 0.87329 0.0
C1719 C 0.3622 -0.00374 0.84382 0.0
H1720 H 0.32043 0.97232 0.86893 0.0
C1721 C 0.34845 0.91748 0.83672 0.0
C1722 C 0.34618 0.90805 0.85384 0.0
C1723 C 0.34751 0.93695 0.83599 0.0
C1724 C 0.33216 0.97884 0.86187 0.0
H1725 H 0.3665 0.06536 0.83086 0.0
H1726 H 0.3609 0.03196 0.82723 0.0
H1727 H 0.32383 0.00624 0.87047 0.0
H1728 H 0.34012 0.91159 0.88341 0.0
H1729 H 0.33851 0.94555 0.88209 0.0
H1730 H 0.37062 0.96885 0.83538 0.0
C1731 C 0.35854 0.0383 0.8408 0.0
C1732 C 0.33416 -0.00177 0.8628 0.0
C1733 C 0.36171 0.05744 0.84287 0.0
C1734 C 0.34203 0.91843 0.87002 0.0
C1735 C 0.34099 0.93788 0.86926 0.0
C1736 C 0.36014 0.97691 0.84281 0.0
C1737 C 0.35221 0.02755 0.856 0.0
C1738 C 0.34936 0.00712 0.85401 0.0
C1739 C 0.34415 0.94735 0.85232 0.0
C1740 C 0.34525 0.96799 0.85204 0.0
H1741 H 0.34958 0.06189 0.88885 0.0
H1742 H 0.34446 0.02844 0.88536 0.0
H1743 H 0.37421 0.00264 0.83713 0.0
H1744 H 0.35156 0.9099 0.82397 0.0
H1745 H 0.34977 0.94391 0.82271 0.0
C1746 C 0.92892 0.36453 0.84706 0.0
C1747 C 0.92032 0.37358 0.86226 0.0
C1748 C 0.94839 0.36329 0.84601 0.0
C1749 C 0.99044 0.36343 0.87503 0.0
H1750 H 0.01623 0.37502 0.82868 0.0
C1751 C 0.07086 0.36678 0.87074 0.0
C1752 C 0.07945 0.35977 0.8545 0.0
C1753 C 0.05144 0.36873 0.87163 0.0
C1754 C 0.00923 0.37148 0.84166 0.0
H1755 H 0.92535 0.38839 0.88829 0.0
H1756 H 0.95941 0.38605 0.88649 0.0
H1757 H 0.98224 0.37793 0.8303 0.0
H1758 H 0.0744 0.34907 0.82653 0.0
H1759 H 0.04047 0.35201 0.82826 0.0
H1760 H 0.01728 0.35661 0.88634 0.0
C1761 C 0.95104 0.37993 0.87543 0.0
C1762 C 0.98979 0.37322 0.84258 0.0
C1763 C 0.93157 0.38134 0.8764 0.0
C1764 C 0.0682 0.35463 0.8392 0.0
C1765 C 0.04876 0.35643 0.84016 0.0
C1766 C 0.00986 0.36153 0.87407 0.0
C1767 C 0.95962 0.3709 0.86023 0.0
C1768 C 0.98023 0.36923 0.85928 0.0
C1769 C 0.04016 0.36355 0.85637 0.0
C1770 C 0.01949 0.36555 0.85737 0.0
H1771 H 0.92062 0.35842 0.83594 0.0
H1772 H 0.95465 0.3561 0.83422 0.0
H1773 H 0.98337 0.36003 0.888 0.0
H1774 H 0.07914 0.371 0.88272 0.0
H1775 H 0.04531 0.37455 0.88421 0.0
C1776 C 0.64328 0.07425 0.86627 0.0
C1777 C 0.64602 0.08398 0.84939 0.0
C1778 C 0.6461 0.05496 0.86713 0.0
C1779 C 0.65959 0.01468 0.86706 0.0
H1780 H 0.63799 0.98697 0.82568 0.0
C1781 C 0.66196 0.934 0.86261 0.0
C1782 C 0.64534 0.92514 0.85692 0.0
C1783 C 0.66375 0.9534 0.86138 0.0
C1784 C 0.64403 0.99451 0.83736 0.0
H1785 H 0.65502 0.08123 0.82048 0.0
H1786 H 0.66011 0.0476 0.82209 0.0
H1787 H 0.63898 0.02096 0.82442 0.0
H1788 H 0.61757 0.92966 0.84548 0.0
H1789 H 0.62063 0.96351 0.84351 0.0
H1790 H 0.66402 0.98819 0.88026 0.0
C1791 C 0.65543 0.05486 0.83454 0.0
C1792 C 0.64483 0.01397 0.83653 0.0
C1793 C 0.6526 0.07415 0.83366 0.0
C1794 C 0.63056 0.93606 0.84996 0.0
C1795 C 0.63237 0.95544 0.8487 0.0
C1796 C 0.6588 -0.00482 0.86787 0.0
C1797 C 0.65175 0.045 0.85115 0.0
C1798 C 0.65242 0.02429 0.85146 0.0
C1799 C 0.64898 0.96432 0.85438 0.0
C1800 C 0.65078 0.98492 0.85313 0.0
H1801 H 0.63827 0.08139 0.87867 0.0
H1802 H 0.64301 0.04775 0.8801 0.0
H1803 H 0.66565 0.02224 0.87871 0.0
H1804 H 0.67363 0.92597 0.86799 0.0
H1805 H 0.67679 0.95982 0.86569 0.0
C1806 C 0.07826 0.60386 0.12579 0.0
C1807 C 0.08658 0.61241 0.14143 0.0
C1808 C 0.05885 0.60184 0.12473 0.0
C1809 C 0.01755 0.60957 0.12043 0.0
H1810 H 0.98812 0.59969 0.16494 0.0
C1811 C 0.93754 0.61817 0.12128 0.0
C1812 C 0.92684 0.60571 0.13206 0.0
C1813 C 0.95705 0.61785 0.12219 0.0
C1814 C -0.00387 0.60221 0.15232 0.0
H1815 H 0.08104 0.62563 0.16819 0.0
H1816 H 0.04714 0.62263 0.16609 0.0
H1817 H 0.02211 0.60071 0.16712 0.0
H1818 H 0.92818 0.58288 0.15198 0.0
H1819 H 0.96231 0.58199 0.15322 0.0
H1820 H 0.99164 0.61053 0.10552 0.0
C1821 C 0.05563 0.61705 0.15484 0.0
C1822 C 0.01563 0.60308 0.15363 0.0
C1823 C 0.07507 0.61888 0.156 0.0
C1824 C 0.93606 0.59271 0.14356 0.0
C1825 C 0.95561 0.59229 0.14436 0.0
C1826 C -0.00192 0.60854 0.1191 0.0
C1827 C 0.04728 0.60853 0.13917 0.0
C1828 C 0.02657 0.60694 0.13772 0.0
C1829 C 0.96634 0.60495 0.13378 0.0
C1830 C 0.98711 0.60505 0.13506 0.0
H1831 H 0.08675 0.59857 0.1144 0.0
H1832 H 0.05295 0.59491 0.11262 0.0
H1833 H 0.02548 0.61278 0.10792 0.0
H1834 H 0.93087 0.62844 0.11237 0.0
H1835 H 0.96482 0.62804 0.1141 0.0
C1836 C 0.36369 0.08137 0.16415 0.0
C1837 C 0.37019 0.09052 0.14799 0.0
C1838 C 0.36253 0.06189 0.1647 0.0
C1839 C 0.38086 0.01942 0.14197 0.0
H1840 H 0.33682 -0.00413 0.16325 0.0
C1841 C 0.37528 0.93959 0.15128 0.0
C1842 C 0.35822 0.93138 0.14594 0.0
C1843 C 0.37692 0.95899 0.1526 0.0
C1844 C 0.34917 0.00226 0.1572 0.0
H1845 H 0.38052 0.08635 0.1197 0.0
H1846 H 0.37834 0.05242 0.12065 0.0
H1847 H 0.33935 0.02988 0.16314 0.0
H1848 H 0.32944 0.93706 0.13804 0.0
H1849 H 0.33237 0.97091 0.14019 0.0
H1850 H 0.39048 0.99184 0.13561 0.0
C1851 C 0.37437 0.0603 0.13297 0.0
C1852 C 0.3507 0.02171 0.15732 0.0
C1853 C 0.37551 0.07976 0.13241 0.0
C1854 C 0.34277 0.94295 0.1422 0.0
C1855 C 0.34441 0.96235 0.14354 0.0
C1856 C 0.37934 -2e-05 0.14189 0.0
C1857 C 0.36787 0.05116 0.14912 0.0
C1858 C 0.36651 0.0305 0.14958 0.0
C1859 C 0.36153 0.97058 0.14864 0.0
C1860 C 0.36342 0.99119 0.14939 0.0
H1861 H 0.35948 0.08923 0.17641 0.0
H1862 H 0.35763 0.05522 0.1774 0.0
H1863 H 0.3933 0.02579 0.1361 0.0
H1864 H 0.38741 0.93105 0.15435 0.0
H1865 H 0.39022 0.96493 0.1568 0.0
C1866 C 0.62104 0.05223 0.11091 0.0
C1867 C 0.61686 0.06315 0.1267 0.0
C1868 C 0.62283 0.03288 0.11248 0.0
C1869 C 0.61162 0.99262 0.14281 0.0
H1870 H 0.65266 0.96933 0.11595 0.0
C1871 C 0.63069 0.91488 0.15249 0.0
C1872 C 0.63361 0.90471 0.13589 0.0
C1873 C 0.62951 0.93436 0.15206 0.0
C1874 C 0.64108 0.97562 0.12343 0.0
H1875 H 0.61082 0.06232 0.15646 0.0
H1876 H 0.61412 0.02849 0.15923 0.0
H1877 H 0.64806 0.003 0.11372 0.0
H1878 H 0.6382 0.90709 0.10594 0.0
H1879 H 0.63613 0.94104 0.10525 0.0
H1880 H 0.60466 0.96518 0.1525 0.0
C1881 C 0.61582 0.03489 0.14559 0.0
C1882 C 0.63839 0.99489 0.12212 0.0
C1883 C 0.61397 0.05427 0.14401 0.0
C1884 C 0.63593 0.91448 0.11898 0.0
C1885 C 0.63482 0.93395 0.11858 0.0
C1886 C 0.61434 0.97334 0.14416 0.0
C1887 C 0.62055 0.02402 0.12989 0.0
C1888 C 0.62354 0.00359 0.13166 0.0
C1889 C 0.63134 0.94407 0.13507 0.0
C1890 C 0.62901 0.96463 0.13437 0.0
H1891 H 0.62322 0.05864 0.09735 0.0
H1892 H 0.62609 0.02486 0.10004 0.0
H1893 H 0.59994 -0.00112 0.15017 0.0
H1894 H 0.62891 0.90779 0.16577 0.0
H1895 H 0.62707 0.94182 0.16503 0.0
C1896 C 0.1208 0.24161 0.31845 0.0
C1897 C 0.12504 0.22254 0.31667 0.0
C1898 C 0.1182 0.25265 0.30253 0.0
C1899 C 0.13288 0.25492 0.25371 0.0
H1900 H 0.09413 0.29257 0.24886 0.0
C1901 C 0.12801 0.30026 0.18787 0.0
C1902 C 0.12516 0.31937 0.19093 0.0
C1903 C 0.12522 0.2875 0.20237 0.0
C1904 C 0.10509 0.28218 0.25008 0.0
H1905 H 0.13047 0.2002 0.29686 0.0
H1906 H 0.12551 0.21929 0.26918 0.0
H1907 H 0.09445 0.27205 0.27625 0.0
H1908 H 0.11714 0.34039 0.21117 0.0
H1909 H 0.11252 0.31818 0.23673 0.0
H1910 H 0.14393 0.26527 0.22798 0.0
C1911 C 0.12402 0.22569 0.28285 0.0
C1912 C 0.10525 0.27045 0.26572 0.0
C1913 C 0.12656 0.21468 0.29873 0.0
C1914 C 0.1191 0.32561 0.20851 0.0
C1915 C 0.11643 0.31289 0.22307 0.0
C1916 C 0.13279 0.26667 0.23817 0.0
C1917 C 0.12007 0.24483 0.28458 0.0
C1918 C 0.11921 0.25678 0.26771 0.0
C1919 C 0.11978 0.29372 0.22025 0.0
C1920 C 0.11897 0.28051 0.23621 0.0
H1921 H 0.11975 0.24801 0.33216 0.0
H1922 H 0.1154 0.26743 0.30426 0.0
H1923 H 0.14402 0.24473 0.25504 0.0
H1924 H 0.13274 0.29526 0.17435 0.0
H1925 H 0.12765 0.27281 0.19967 0.0
C1926 C 0.66835 0.11326 0.20179 0.0
C1927 C 0.67552 0.1222 0.18585 0.0
C1928 C 0.67969 0.11053 0.21746 0.0
C1929 C 0.72847 0.10998 0.23414 0.0
H1930 H 0.7073 0.12936 0.2802 0.0
C1931 C 0.774 0.13225 0.29656 0.0
C1932 C 0.76695 0.13004 0.31474 0.0
C1933 C 0.7629 0.1279 0.28109 0.0
C1934 C 0.71334 0.12349 0.26761 0.0
H1935 H 0.7 0.13489 0.17337 0.0
H1936 H 0.72 0.13002 0.2008 0.0
H1937 H 0.68784 0.12718 0.25237 0.0
H1938 H 0.74304 0.12142 0.33121 0.0
H1939 H 0.7237 0.1133 0.30417 0.0
H1940 H 0.75404 0.10643 0.24932 0.0
C1941 C 0.70571 0.12497 0.20114 0.0
C1942 C 0.70218 0.12229 0.25164 0.0
C1943 C 0.69431 0.12783 0.18552 0.0
C1944 C 0.74873 0.1232 0.31726 0.0
C1945 C 0.73768 0.11865 0.30179 0.0
C1946 C 0.73961 0.11099 0.25018 0.0
C1947 C 0.69838 0.11665 0.21739 0.0
C1948 C 0.70973 0.11587 0.23467 0.0
C1949 C 0.74455 0.1212 0.2835 0.0
C1950 C 0.73228 0.11814 0.267 0.0
H1951 H 0.65379 0.10906 0.20239 0.0
H1952 H 0.67374 0.10403 0.22979 0.0
H1953 H 0.73455 0.10479 0.22125 0.0
H1954 H 0.78776 0.13812 0.29423 0.0
H1955 H 0.76849 0.1305 0.26724 0.0
C1956 C 0.869 0.74351 0.31755 0.0
C1957 C 0.86074 0.76098 0.31416 0.0
C1958 C 0.87231 0.73113 0.30277 0.0
C1959 C 0.87678 0.72948 0.25129 0.0
H1960 H 0.86238 0.67754 0.25688 0.0
C1961 C 0.86189 0.68115 0.18882 0.0
C1962 C 0.86702 0.66231 0.19021 0.0
C1963 C 0.86433 0.69312 0.20404 0.0
C1964 C 0.86681 0.69191 0.25519 0.0
H1965 H 0.84821 0.77865 0.29292 0.0
H1966 H 0.85419 0.75729 0.26718 0.0
H1967 H 0.86045 0.69849 0.2837 0.0
H1968 H 0.87881 0.64105 0.20827 0.0
H1969 H 0.88347 0.66207 0.23487 0.0
H1970 H 0.88275 0.723 0.22266 0.0
C1971 C 0.85872 0.75338 0.28111 0.0
C1972 C 0.86568 0.70391 0.27055 0.0
C1973 C 0.85538 0.76567 0.29586 0.0
C1974 C 0.87503 0.65564 0.20685 0.0
C1975 C 0.87749 0.6676 0.22208 0.0
C1976 C 0.87793 0.71748 0.23593 0.0
C1977 C 0.86729 0.73602 0.28438 0.0
C1978 C 0.87029 0.72289 0.26865 0.0
C1979 C 0.87187 0.6864 0.22094 0.0
C1980 C 0.87261 0.69866 0.23763 0.0
H1981 H 0.87314 0.73952 0.33159 0.0
H1982 H 0.87894 0.71784 0.3057 0.0
H1983 H 0.88074 0.74399 0.24951 0.0
H1984 H 0.85551 0.68646 0.17613 0.0
H1985 H 0.8596 0.70745 0.20281 0.0
C1986 C 0.31986 0.87095 0.21524 0.0
C1987 C 0.33346 0.85751 0.2109 0.0
C1988 C 0.31169 0.87131 0.233 0.0
C1989 C 0.29986 0.83968 0.27082 0.0
H1990 H 0.28808 0.88486 0.29838 0.0
C1991 C 0.25505 0.8364 0.33739 0.0
C1992 C 0.24086 0.84991 0.3387 0.0
C1993 C 0.26944 0.83836 0.32429 0.0
C1994 C 0.29116 0.87212 0.29079 0.0
H1995 H 0.35023 0.83479 0.22183 0.0
H1996 H 0.33564 0.83511 0.25284 0.0
H1997 H 0.30765 0.88669 0.27038 0.0
H1998 H 0.23183 0.8771 0.32878 0.0
H1999 H 0.25613 0.88004 0.30525 0.0
H2000 H 0.28272 0.82516 0.29047 0.0
C2001 C 0.33116 0.84523 0.24249 0.0
C2002 C 0.30242 0.87319 0.27483 0.0
C2003 C 0.33943 0.845 0.22479 0.0
C2004 C 0.24202 0.866 0.32752 0.0
C2005 C 0.25626 0.86789 0.31429 0.0
C2006 C 0.28846 0.83863 0.28662 0.0
C2007 C 0.31696 0.85816 0.24664 0.0
C2008 C 0.30664 0.857 0.26455 0.0
C2009 C 0.26992 0.85389 0.31221 0.0
C2010 C 0.28371 0.85487 0.29665 0.0
H2011 H 0.31509 0.88075 0.20471 0.0
H2012 H 0.30067 0.88134 0.2358 0.0
H2013 H 0.30269 0.82701 0.263 0.0
H2014 H 0.25471 0.82399 0.34607 0.0
H2015 H 0.27999 0.82752 0.3234 0.0
C2016 C 0.12438 0.7434 0.66832 0.0
C2017 C 0.13166 0.7612 0.67222 0.0
C2018 C 0.12288 0.73005 0.68255 0.0
C2019 C 0.12147 0.72606 0.734 0.0
H2020 H 0.13877 0.67532 0.72594 0.0
C2021 C 0.14199 0.67786 0.79446 0.0
C2022 C 0.1362 0.65919 0.79365 0.0
C2023 C 0.13935 0.68959 0.77912 0.0
C2024 C 0.13362 0.68936 0.72831 0.0
H2025 H 0.1445 0.77851 0.69357 0.0
H2026 H 0.14168 0.75549 0.71834 0.0
H2027 H 0.13777 0.69719 0.69966 0.0
H2028 H 0.12367 0.63776 0.77633 0.0
H2029 H 0.1189 0.65838 0.74931 0.0
H2030 H 0.11774 0.71843 0.76269 0.0
C2031 C 0.13648 0.752 0.70453 0.0
C2032 C 0.13303 0.70185 0.71328 0.0
C2033 C 0.138 0.76524 0.69035 0.0
C2034 C 0.12796 0.65225 0.77724 0.0
C2035 C 0.12539 0.66397 0.76182 0.0
C2036 C 0.12208 0.71362 0.74898 0.0
C2037 C 0.12876 0.73433 0.70084 0.0
C2038 C 0.12737 0.72044 0.71611 0.0
C2039 C 0.13099 0.68277 0.76266 0.0
C2040 C 0.12856 0.69528 0.74637 0.0
H2041 H 0.11959 0.73992 0.65436 0.0
H2042 H 0.11692 0.71651 0.67933 0.0
H2043 H 0.11667 0.74021 0.73649 0.0
H2044 H 0.14852 0.68337 0.807 0.0
H2045 H 0.14411 0.70394 0.78004 0.0
C2046 C 0.24389 0.13962 0.67236 0.0
C2047 C 0.22624 0.14818 0.67234 0.0
C2048 C 0.25407 0.13814 0.68899 0.0
C2049 C 0.25984 0.16 0.73483 0.0
H2050 H 0.28258 0.11287 0.74901 0.0
C2051 C 0.29732 0.15108 0.80557 0.0
C2052 C 0.31407 0.14089 0.80536 0.0
C2053 C 0.28562 0.15109 0.78991 0.0
C2054 C 0.27648 0.12618 0.74516 0.0
H2055 H 0.20574 0.16285 0.68916 0.0
H2056 H 0.22347 0.1602 0.7183 0.0
H2057 H 0.26447 0.1149 0.72011 0.0
H2058 H 0.33207 0.12302 0.78882 0.0
H2059 H 0.31185 0.1232 0.76132 0.0
H2060 H 0.27218 0.17148 0.75952 0.0
C2061 C 0.22932 0.15438 0.70558 0.0
C2062 C 0.2661 0.12732 0.72864 0.0
C2063 C 0.21908 0.15568 0.68901 0.0
C2064 C 0.31897 0.13064 0.78938 0.0
C2065 C 0.30737 0.13075 0.77367 0.0
C2066 C 0.27035 0.15892 0.75125 0.0
C2067 C 0.24687 0.14553 0.70574 0.0
C2068 C 0.25773 0.14425 0.72331 0.0
C2069 C 0.29062 0.14109 0.77369 0.0
C2070 C 0.27885 0.14201 0.75659 0.0
H2071 H 0.24968 0.13391 0.65956 0.0
H2072 H 0.26768 0.13147 0.68871 0.0
H2073 H 0.25369 0.17328 0.73092 0.0
H2074 H 0.2934 0.15915 0.81779 0.0
H2075 H 0.2727 0.15899 0.79049 0.0
C2076 C 0.85458 0.32303 0.7859 0.0
C2077 C 0.84636 0.31506 0.80181 0.0
C2078 C 0.85686 0.31249 0.76965 0.0
C2079 C 0.84028 0.2693 0.74625 0.0
H2080 H 0.88435 0.27712 0.71546 0.0
C2081 C 0.85851 0.22179 0.68405 0.0
C2082 C 0.8616 0.23112 0.66703 0.0
C2083 C 0.85793 0.23172 0.70082 0.0
C2084 C 0.87197 0.27487 0.72392 0.0
H2085 H 0.83395 0.29014 0.81355 0.0
H2086 H 0.83847 0.2713 0.78529 0.0
H2087 H 0.88067 0.29474 0.74448 0.0
H2088 H 0.8666 0.25801 0.65409 0.0
H2089 H 0.86601 0.27547 0.68366 0.0
H2090 H 0.83186 0.24911 0.72579 0.0
C2091 C 0.84282 0.28579 0.78512 0.0
C2092 C 0.86977 0.28501 0.74048 0.0
C2093 C 0.84031 0.29647 0.80132 0.0
C2094 C 0.86446 0.25051 0.6671 0.0
C2095 C 0.86414 0.26045 0.68395 0.0
C2096 C 0.84262 0.25899 0.72984 0.0
C2097 C 0.85116 0.29368 0.76909 0.0
C2098 C 0.85381 0.28245 0.75178 0.0
C2099 C 0.86052 0.25115 0.70089 0.0
C2100 C 0.85842 0.26177 0.71849 0.0
H2101 H 0.85914 0.33748 0.78603 0.0
H2102 H 0.86292 0.31918 0.75748 0.0
H2103 H 0.82766 0.2672 0.75438 0.0
H2104 H 0.85574 0.20692 0.68437 0.0
H2105 H 0.85516 0.22426 0.71372 0.0
C2106 C 0.67754 0.86253 0.78562 0.0
C2107 C 0.65976 0.85439 0.78663 0.0
C2108 C 0.68651 0.86442 0.7684 0.0
C2109 C 0.68656 0.84533 0.72033 0.0
H2110 H 0.72092 0.88651 0.71217 0.0
C2111 C 0.73325 0.85586 0.65374 0.0
C2112 C 0.75234 0.85622 0.65853 0.0
C2113 C 0.7195 0.85712 0.66766 0.0
C2114 C 0.71122 0.87505 0.71422 0.0
H2115 H 0.63694 0.84241 0.77077 0.0
H2116 H 0.65243 0.84606 0.74037 0.0
H2117 H 0.70074 0.88659 0.7397 0.0
H2118 H 0.77185 0.85639 0.68186 0.0
H2119 H 0.74803 0.85977 0.70584 0.0
H2120 H 0.69725 0.83389 0.69469 0.0
C2121 C 0.6597 0.85057 0.75288 0.0
C2122 C 0.69979 0.87497 0.73004 0.0
C2123 C 0.65081 0.84851 0.7702 0.0
C2124 C 0.75739 0.85729 0.67751 0.0
C2125 C 0.74374 0.85894 0.69131 0.0
C2126 C 0.69781 0.84558 0.70431 0.0
C2127 C 0.67773 0.85845 0.7518 0.0
C2128 C 0.6878 0.8598 0.73364 0.0
C2129 C 0.72472 0.85892 0.6865 0.0
C2130 C 0.7106 0.86016 0.70148 0.0
H2131 H 0.68462 0.86712 0.79823 0.0
H2132 H 0.70053 0.87017 0.76821 0.0
H2133 H 0.67762 0.83334 0.7227 0.0
H2134 H 0.72895 0.8547 0.63924 0.0
H2135 H 0.70486 0.85687 0.66372 0.0
C2136 C 0.19941 0.12442 0.31733 0.0
C2137 C 0.18274 0.13194 0.3102 0.0
C2138 C 0.21561 0.12429 0.30645 0.0
C2139 C 0.23331 0.12797 0.25831 0.0
H2140 H 0.27811 0.14712 0.2823 0.0
C2141 C 0.29878 0.14926 0.21648 0.0
C2142 C 0.31639 0.14537 0.22426 0.0
C2143 C 0.28252 0.14626 0.22685 0.0
C2144 C 0.26583 0.14144 0.27546 0.0
H2145 H 0.16963 0.14506 0.28629 0.0
H2146 H 0.19807 0.14479 0.26703 0.0
H2147 H 0.24942 0.14377 0.30038 0.0
H2148 H 0.33099 0.1356 0.24893 0.0
H2149 H 0.30251 0.12996 0.26707 0.0
H2150 H 0.24971 0.12561 0.23338 0.0
C2151 C 0.19855 0.1388 0.28095 0.0
C2152 C 0.24939 0.13956 0.28581 0.0
C2153 C 0.18235 0.13902 0.29192 0.0
C2154 C 0.31752 0.13864 0.24265 0.0
C2155 C 0.30123 0.13549 0.25301 0.0
C2156 C 0.2498 0.12972 0.24796 0.0
C2157 C 0.2154 0.1317 0.28825 0.0
C2158 C 0.23295 0.13293 0.27732 0.0
C2159 C 0.28354 0.13931 0.24523 0.0
C2160 C 0.26622 0.13662 0.25639 0.0
H2161 H 0.20007 0.11918 0.33155 0.0
H2162 H 0.22837 0.11862 0.31235 0.0
H2163 H 0.22086 0.12264 0.25149 0.0
H2164 H 0.29757 0.15515 0.20259 0.0
H2165 H 0.26917 0.14982 0.22061 0.0
C2166 C 0.86595 0.29223 0.2102 0.0
C2167 C 0.86833 0.30938 0.21945 0.0
C2168 C 0.86895 0.27545 0.21967 0.0
C2169 C 0.88999 0.2543 0.26168 0.0
H2170 H 0.8478 0.2203 0.25889 0.0
C2171 C 0.87478 0.19925 0.31817 0.0
C2172 C 0.86595 0.18255 0.31299 0.0
C2173 C 0.87813 0.21311 0.30485 0.0
C2174 C 0.85993 0.22935 0.25954 0.0
H2175 H 0.87597 0.32256 0.24564 0.0
H2176 H 0.88128 0.29314 0.26228 0.0
H2177 H 0.84862 0.24764 0.23877 0.0
H2178 H 0.85425 0.1667 0.29003 0.0
H2179 H 0.86056 0.1907 0.26648 0.0
H2180 H 0.90121 0.23611 0.28264 0.0
C2181 C 0.87734 0.2927 0.24764 0.0
C2182 C 0.86036 0.24507 0.24803 0.0
C2183 C 0.87419 0.30949 0.23819 0.0
C2184 C 0.86105 0.17957 0.29425 0.0
C2185 C 0.86457 0.19334 0.28086 0.0
C2186 C 0.88967 0.23845 0.27309 0.0
C2187 C 0.87437 0.27553 0.23856 0.0
C2188 C 0.87519 0.25788 0.24926 0.0
C2189 C 0.8728 0.21044 0.28608 0.0
C2190 C 0.87442 0.22601 0.27244 0.0
H2191 H 0.86088 0.29168 0.19594 0.0
H2192 H 0.86655 0.2624 0.21237 0.0
H2193 H 0.90167 0.2639 0.26274 0.0
H2194 H 0.87841 0.2019 0.33265 0.0
H2195 H 0.88416 0.22621 0.30947 0.0
C2196 C 0.67994 0.8405 0.22091 0.0
C2197 C 0.66261 0.84822 0.22595 0.0
C2198 C 0.69472 0.84027 0.23358 0.0
C2199 C 0.71408 0.86452 0.27357 0.0
H2200 H 0.74442 0.81979 0.27824 0.0
C2201 C 0.78005 0.86044 0.32081 0.0
C2202 C 0.79542 0.8508 0.31331 0.0
C2203 C 0.76276 0.86011 0.31167 0.0
C2204 C 0.73619 0.83244 0.27697 0.0
H2205 H 0.64682 0.86128 0.24825 0.0
H2206 H 0.67306 0.8612 0.27062 0.0
H2207 H 0.71561 0.81883 0.26003 0.0
H2208 H 0.80512 0.83357 0.2904 0.0
H2209 H 0.77506 0.83322 0.27415 0.0
H2210 H 0.73502 0.87831 0.29 0.0
C2211 C 0.6751 0.8554 0.25676 0.0
C2212 C 0.71965 0.83185 0.26665 0.0
C2213 C 0.66015 0.85539 0.24407 0.0
C2214 C 0.79338 0.84104 0.29644 0.0
C2215 C 0.77616 0.84074 0.28726 0.0
C2216 C 0.73075 0.86516 0.28383 0.0
C2217 C 0.69251 0.8478 0.25158 0.0
C2218 C 0.70865 0.84796 0.26453 0.0
C2219 C 0.76058 0.85009 0.29487 0.0
C2220 C 0.74218 0.84921 0.28529 0.0
H2221 H 0.68209 0.8345 0.20717 0.0
H2222 H 0.70801 0.83446 0.22918 0.0
H2223 H 0.70589 0.87717 0.27201 0.0
H2224 H 0.78128 0.86781 0.334 0.0
H2225 H 0.751 0.86729 0.31798 0.0
C2226 C 0.13331 0.68077 0.22382 0.0
C2227 C 0.13615 0.66234 0.23 0.0
C2228 C 0.13194 0.69537 0.23665 0.0
C2229 C 0.14959 0.70975 0.28141 0.0
H2230 H 0.11101 0.74782 0.27916 0.0
C2231 C 0.14994 0.77346 0.33089 0.0
C2232 C 0.14433 0.79056 0.32319 0.0
C2233 C 0.14763 0.75695 0.32075 0.0
C2234 C 0.12201 0.73742 0.27983 0.0
H2235 H 0.14006 0.64483 0.25448 0.0
H2236 H 0.13818 0.6706 0.27694 0.0
H2237 H 0.10865 0.72023 0.25922 0.0
H2238 H 0.13207 0.80423 0.29916 0.0
H2239 H 0.12873 0.77554 0.28096 0.0
H2240 H 0.1635 0.72721 0.30126 0.0
C2241 C 0.13662 0.67355 0.26214 0.0
C2242 C 0.12055 0.72159 0.26853 0.0
C2243 C 0.13767 0.65887 0.24931 0.0
C2244 C 0.13651 0.79108 0.30524 0.0
C2245 C 0.13442 0.77464 0.29497 0.0
C2246 C 0.15121 0.72571 0.29251 0.0
C2247 C 0.13388 0.69193 0.25587 0.0
C2248 C 0.13442 0.70774 0.2691 0.0
C2249 C 0.13983 0.75734 0.30265 0.0
C2250 C 0.13756 0.73986 0.29168 0.0
H2251 H 0.13307 0.68419 0.2091 0.0
H2252 H 0.13026 0.70951 0.23148 0.0
H2253 H 0.16059 0.69933 0.28188 0.0
H2254 H 0.15575 0.77286 0.34489 0.0
H2255 H 0.15168 0.74387 0.32721 0.0
C2256 C 0.31128 0.83476 0.77021 0.0
C2257 C 0.3275 0.84516 0.76654 0.0
C2258 C 0.29676 0.8342 0.75723 0.0
C2259 C 0.27577 0.86168 0.71992 0.0
H2260 H 0.24715 0.81642 0.71126 0.0
C2261 C 0.20994 0.85981 0.67269 0.0
C2262 C 0.1947 0.84958 0.67967 0.0
C2263 C 0.22737 0.85882 0.6815 0.0
C2264 C 0.25493 0.82919 0.71364 0.0
H2265 H 0.34186 0.8624 0.74623 0.0
H2266 H 0.3162 0.86157 0.72329 0.0
H2267 H 0.27616 0.81491 0.72919 0.0
H2268 H 0.18548 0.83038 0.70116 0.0
H2269 H 0.21587 0.82877 0.71679 0.0
H2270 H 0.25428 0.87605 0.7048 0.0
C2271 C 0.3147 0.85399 0.73633 0.0
C2272 C 0.27157 0.82831 0.72382 0.0
C2273 C 0.32936 0.8544 0.74934 0.0
C2274 C 0.19709 0.83836 0.69556 0.0
C2275 C 0.21449 0.83736 0.70438 0.0
C2276 C 0.25909 0.86257 0.70974 0.0
C2277 C 0.29818 0.84404 0.74028 0.0
C2278 C 0.28194 0.8446 0.7274 0.0
C2279 C 0.22985 0.84751 0.6974 0.0
C2280 C 0.2483 0.84639 0.70684 0.0
H2281 H 0.30975 0.82712 0.7832 0.0
H2282 H 0.28417 0.82652 0.76073 0.0
H2283 H 0.28338 0.87449 0.72264 0.0
H2284 H 0.20848 0.86826 0.66019 0.0
H2285 H 0.23898 0.86662 0.67566 0.0
C2286 C 0.12569 0.29619 0.76915 0.0
C2287 C 0.1234 0.31508 0.76448 0.0
C2288 C 0.12213 0.28229 0.75597 0.0
C2289 C 0.1215 0.27481 0.70535 0.0
H2290 H 0.10181 0.22639 0.71983 0.0
C2291 C 0.11913 0.21218 0.65448 0.0
C2292 C 0.12733 0.19597 0.66185 0.0
C2293 C 0.11481 0.22716 0.66624 0.0
C2294 C 0.10726 0.23988 0.71559 0.0
H2295 H 0.11564 0.33438 0.74245 0.0
H2296 H 0.1092 0.30999 0.7193 0.0
H2297 H 0.1006 0.25236 0.74196 0.0
H2298 H 0.13734 0.18232 0.68693 0.0
H2299 H 0.12974 0.20848 0.70762 0.0
H2300 H 0.12852 0.26217 0.67913 0.0
C2301 C 0.11378 0.30594 0.73317 0.0
C2302 C 0.10661 0.25471 0.72824 0.0
C2303 C 0.11742 0.31987 0.74639 0.0
C2304 C 0.13091 0.19473 0.68107 0.0
C2305 C 0.12645 0.2096 0.69285 0.0
C2306 C 0.12202 0.26 0.69266 0.0
C2307 C 0.11628 0.287 0.73779 0.0
C2308 C 0.11425 0.27218 0.72345 0.0
C2309 C 0.11853 0.22602 0.68552 0.0
C2310 C 0.1154 0.24228 0.69787 0.0
H2311 H 0.131 0.2921 0.78273 0.0
H2312 H 0.12471 0.26788 0.75984 0.0
H2313 H 0.12768 0.28803 0.70129 0.0
H2314 H 0.11647 0.2134 0.6396 0.0
H2315 H 0.10872 0.23968 0.66027 0.0
C2316 C 0.68699 0.12231 0.75954 0.0
C2317 C 0.67401 0.13703 0.75858 0.0
C2318 C 0.70247 0.12194 0.74761 0.0
C2319 C 0.73087 0.15366 0.71829 0.0
H2320 H 0.75176 0.1076 0.69868 0.0
C2321 C 0.78788 0.15291 0.6619 0.0
C2322 C 0.8036 0.1418 0.66566 0.0
C2323 C 0.77191 0.15144 0.67298 0.0
C2324 C 0.74611 0.12053 0.7042 0.0
H2325 H 0.66625 0.16209 0.74338 0.0
H2326 H 0.69281 0.1611 0.72212 0.0
H2327 H 0.72349 0.10653 0.71796 0.0
H2328 H 0.81488 0.11983 0.68315 0.0
H2329 H 0.78663 0.11702 0.7026 0.0
H2330 H 0.75328 0.16765 0.70425 0.0
C2331 C 0.69151 0.15025 0.73261 0.0
C2332 C 0.72997 0.11994 0.71525 0.0
C2333 C 0.67618 0.15071 0.74467 0.0
C2334 C 0.80291 0.12865 0.6802 0.0
C2335 C 0.7868 0.12701 0.6912 0.0
C2336 C 0.74683 0.15425 0.70711 0.0
C2337 C 0.70508 0.1361 0.73422 0.0
C2338 C 0.72214 0.13652 0.72238 0.0
C2339 C 0.77128 0.13859 0.68782 0.0
C2340 C 0.75456 0.13771 0.69993 0.0
H2341 H 0.68529 0.11107 0.76951 0.0
H2342 H 0.7126 0.1108 0.74921 0.0
H2343 H 0.72551 0.16665 0.72392 0.0
H2344 H 0.78799 0.16279 0.6504 0.0
H2345 H 0.75999 0.16029 0.6699 0.0
C2346 C 0.86316 0.67502 0.74806 0.0
C2347 C 0.85647 0.6761 0.76649 0.0
C2348 C 0.8628 0.69077 0.7365 0.0
C2349 C 0.85844 0.74235 0.73803 0.0
H2350 H 0.84356 0.73678 0.68612 0.0
C2351 C 0.83908 0.80509 0.69123 0.0
C2352 C 0.84685 0.80512 0.67323 0.0
C2353 C 0.8406 0.78923 0.70253 0.0
C2354 C 0.8479 0.73851 0.70055 0.0
H2355 H 0.84309 0.69407 0.78694 0.0
H2356 H 0.84245 0.72147 0.76688 0.0
H2357 H 0.84604 0.70918 0.70601 0.0
H2358 H 0.86169 0.7888 0.65249 0.0
H2359 H 0.86444 0.761 0.67225 0.0
H2360 H 0.86001 0.77172 0.73259 0.0
C2361 C 0.84862 0.70873 0.76152 0.0
C2362 C 0.84939 0.72271 0.71192 0.0
C2363 C 0.84907 0.69304 0.77306 0.0
C2364 C 0.8558 0.78905 0.66647 0.0
C2365 C 0.85724 0.77317 0.67769 0.0
C2366 C 0.85685 0.75814 0.72669 0.0
C2367 C 0.85549 0.7078 0.74311 0.0
C2368 C 0.85459 0.72447 0.73082 0.0
C2369 C 0.84974 0.77314 0.69587 0.0
C2370 C 0.8515 0.75637 0.70786 0.0
H2371 H 0.8688 0.66204 0.74266 0.0
H2372 H 0.86832 0.68964 0.72243 0.0
H2373 H 0.86279 0.74414 0.75245 0.0
H2374 H 0.83199 0.81737 0.69657 0.0
H2375 H 0.83448 0.78949 0.7164 0.0
C2376 C 0.30403 0.19507 0.13078 0.0
C2377 C 0.3231 0.19623 0.12637 0.0
C2378 C 0.29233 0.2104 0.12788 0.0
C2379 C 0.29419 0.26099 0.12746 0.0
H2380 H 0.24314 0.25714 0.10938 0.0
C2381 C 0.24417 0.32391 0.12996 0.0
C2382 C 0.22603 0.32002 0.13639 0.0
C2383 C 0.25619 0.30937 0.12491 0.0
C2384 C 0.25734 0.25842 0.11452 0.0
H2385 H 0.34509 0.21396 0.11545 0.0
H2386 H 0.32458 0.24093 0.11032 0.0
H2387 H 0.26398 0.23017 0.1071 0.0
H2388 H 0.20642 0.298 0.14333 0.0
H2389 H 0.22733 0.27262 0.13471 0.0
H2390 H 0.28744 0.28887 0.13569 0.0
C2391 C 0.31865 0.22816 0.11589 0.0
C2392 C 0.26926 0.24301 0.11316 0.0
C2393 C 0.33031 0.21276 0.11867 0.0
C2394 C 0.22007 0.3014 0.13774 0.0
C2395 C 0.23211 0.28686 0.13283 0.0
C2396 C 0.28225 0.27634 0.12895 0.0
C2397 C 0.2996 0.2272 0.12073 0.0
C2398 C 0.28767 0.24406 0.11995 0.0
C2399 C 0.25035 0.29066 0.1265 0.0
C2400 C 0.26358 0.2751 0.12286 0.0
H2401 H 0.2983 0.18244 0.13689 0.0
H2402 H 0.27776 0.20937 0.13199 0.0
H2403 H 0.30825 0.2621 0.13303 0.0
H2404 H 0.24904 0.33821 0.12885 0.0
H2405 H 0.27009 0.31278 0.11992 0.0
C2406 C 0.24944 0.65717 0.85655 0.0
C2407 C 0.23276 0.65815 0.84627 0.0
C2408 C 0.26114 0.67279 0.85777 0.0
C2409 C 0.27261 0.71683 0.83409 0.0
H2410 H 0.28799 0.73414 0.8832 0.0
C2411 C 0.30029 0.791 0.84528 0.0
C2412 C 0.3154 0.79343 0.85753 0.0
C2413 C 0.29121 0.7738 0.8442 0.0
C2414 C 0.28405 0.72934 0.86937 0.0
H2415 H 0.21558 0.67544 0.8283 0.0
H2416 H 0.23594 0.70276 0.8304 0.0
H2417 H 0.27102 0.70463 0.88022 0.0
H2418 H 0.33317 0.78007 0.8781 0.0
H2419 H 0.31733 0.74978 0.87618 0.0
H2420 H 0.28555 0.74143 0.82317 0.0
C2421 C 0.23995 0.6901 0.83768 0.0
C2422 C 0.27436 0.71247 0.86768 0.0
C2423 C 0.22821 0.67459 0.83665 0.0
C2424 C 0.32127 0.77851 0.86882 0.0
C2425 C 0.31224 0.76123 0.86768 0.0
C2426 C 0.28239 0.7336 0.83576 0.0
C2427 C 0.25643 0.68941 0.84839 0.0
C2428 C 0.26827 0.70625 0.85006 0.0
C2429 C 0.29722 0.75865 0.85521 0.0
C2430 C 0.28791 0.74022 0.85344 0.0
H2431 H 0.25319 0.64449 0.86395 0.0
H2432 H 0.27386 0.67189 0.86598 0.0
H2433 H 0.26831 0.71219 0.82031 0.0
H2434 H 0.2956 0.80239 0.83646 0.0
H2435 H 0.27946 0.77239 0.83472 0.0
C2436 C 0.30903 0.22043 0.85067 0.0
C2437 C 0.32636 0.22873 0.85477 0.0
C2438 C 0.2927 0.23098 0.85083 0.0
C2439 C 0.27091 0.27216 0.87041 0.0
H2440 H 0.23665 0.26673 0.82859 0.0
C2441 C 0.2026 0.31483 0.86407 0.0
C2442 C 0.18687 0.30557 0.85686 0.0
C2443 C 0.22006 0.30612 0.86403 0.0
C2444 C 0.24594 0.26822 0.84048 0.0
H2445 H 0.34035 0.25461 0.86188 0.0
H2446 H 0.31139 0.27327 0.86248 0.0
H2447 H 0.26682 0.25087 0.82788 0.0
H2448 H 0.17669 0.28018 0.84404 0.0
H2449 H 0.20718 0.26455 0.84438 0.0
H2450 H 0.24984 0.28908 0.88328 0.0
C2451 C 0.31061 0.25849 0.85926 0.0
C2452 C 0.26325 0.25926 0.84 0.0
C2453 C 0.32709 0.2479 0.85888 0.0
C2454 C 0.18871 0.28745 0.84974 0.0
C2455 C 0.20615 0.27865 0.8498 0.0
C2456 C 0.25349 0.28102 0.87098 0.0
C2457 C 0.29332 0.25009 0.85509 0.0
C2458 C 0.27578 0.26097 0.85504 0.0
C2459 C 0.22206 0.28797 0.85677 0.0
C2460 C 0.24074 0.27897 0.8561 0.0
H2461 H 0.30803 0.20583 0.84696 0.0
H2462 H 0.27953 0.22415 0.84768 0.0
H2463 H 0.2803 0.27353 0.88224 0.0
H2464 H 0.20149 0.329 0.86928 0.0
H2465 H 0.23205 0.3138 0.8692 0.0
C2466 C 0.65688 0.21583 0.83963 0.0
C2467 C 0.66213 0.20176 0.85225 0.0
C2468 C 0.66492 0.23355 0.8408 0.0
C2469 C 0.69056 0.26562 0.87175 0.0
H2470 H 0.71241 0.2839 0.82557 0.0
C2471 C 0.74765 0.32249 0.86964 0.0
C2472 C 0.7489 0.33405 0.85381 0.0
C2473 C 0.73429 0.30827 0.87046 0.0
C2474 C 0.70606 0.27929 0.83853 0.0
H2475 H 0.67906 0.19519 0.8765 0.0
H2476 H 0.69311 0.22635 0.8787 0.0
H2477 H 0.69396 0.2554 0.82524 0.0
H2478 H 0.73588 0.34104 0.82728 0.0
H2479 H 0.71213 0.31675 0.82902 0.0
H2480 H 0.70273 0.28949 0.88508 0.0
C2481 C 0.68283 0.22366 0.86788 0.0
C2482 C 0.69554 0.26289 0.83833 0.0
C2483 C 0.6749 0.20587 0.86658 0.0
C2484 C 0.73551 0.33213 0.83953 0.0
C2485 C 0.722 0.31808 0.84045 0.0
C2486 C 0.70094 0.28218 0.87193 0.0
C2487 C 0.67814 0.23756 0.85479 0.0
C2488 C 0.68794 0.25575 0.85497 0.0
C2489 C 0.72163 0.30558 0.85563 0.0
C2490 C 0.70906 0.28905 0.85535 0.0
H2491 H 0.64669 0.21306 0.82874 0.0
H2492 H 0.6609 0.24411 0.8307 0.0
H2493 H 0.68466 0.26047 0.88474 0.0
H2494 H 0.75711 0.32418 0.88132 0.0
H2495 H 0.7344 0.29897 0.88242 0.0
C2496 C 0.67783 0.7603 0.83115 0.0
C2497 C 0.66221 0.75787 0.84274 0.0
C2498 C 0.69263 0.74765 0.8318 0.0
C2499 C 0.71474 0.71405 0.86361 0.0
H2500 H 0.74427 0.70236 0.81958 0.0
C2501 C 0.78072 0.66643 0.86413 0.0
C2502 C 0.79611 0.67341 0.85409 0.0
C2503 C 0.76338 0.67541 0.86311 0.0
C2504 C 0.73618 0.70558 0.83199 0.0
H2505 H 0.64896 0.73985 0.86314 0.0
H2506 H 0.67488 0.71736 0.86416 0.0
H2507 H 0.7148 0.71918 0.81611 0.0
H2508 H 0.80577 0.69536 0.83561 0.0
H2509 H 0.77544 0.71103 0.83371 0.0
H2510 H 0.73629 0.70047 0.87946 0.0
C2511 C 0.67588 0.72929 0.85489 0.0
C2512 C 0.71932 0.71519 0.83002 0.0
C2513 C 0.66103 0.74202 0.85421 0.0
C2514 C 0.79403 0.68969 0.84337 0.0
C2515 C 0.7767 0.69856 0.84222 0.0
C2516 C 0.73158 0.7043 0.86557 0.0
C2517 C 0.692 0.73219 0.84394 0.0
C2518 C 0.70862 0.71991 0.84584 0.0
C2519 C 0.76115 0.69136 0.85186 0.0
C2520 C 0.74264 0.70036 0.84981 0.0
H2521 H 0.67874 0.77217 0.82179 0.0
H2522 H 0.70486 0.75038 0.82326 0.0
H2523 H 0.70693 0.71766 0.87609 0.0
H2524 H 0.7819 0.65368 0.8722 0.0
H2525 H 0.75157 0.66953 0.87058 0.0
C2526 C 0.66771 0.77566 0.14131 0.0
C2527 C 0.6766 0.79286 0.13841 0.0
C2528 C 0.67806 0.75913 0.14094 0.0
C2529 C 0.72321 0.73954 0.12472 0.0
H2530 H 0.71293 0.7013 0.16181 0.0
C2531 C 0.77419 0.67965 0.14166 0.0
C2532 C 0.76662 0.66166 0.14377 0.0
C2533 C 0.76247 0.69509 0.13955 0.0
C2534 C 0.71578 0.71175 0.15122 0.0
H2535 H 0.70285 0.80667 0.13251 0.0
H2536 H 0.72122 0.7778 0.13233 0.0
H2537 H 0.69392 0.72958 0.16112 0.0
H2538 H 0.74089 0.64574 0.14581 0.0
H2539 H 0.72032 0.67286 0.14231 0.0
H2540 H 0.74542 0.72185 0.11518 0.0
C2541 C 0.70627 0.77694 0.13464 0.0
C2542 C 0.7049 0.72794 0.1508 0.0
C2543 C 0.69586 0.79344 0.1349 0.0
C2544 C 0.74709 0.65944 0.14404 0.0
C2545 C 0.73534 0.67492 0.14208 0.0
C2546 C 0.73418 0.72341 0.12523 0.0
C2547 C 0.69748 0.75959 0.13767 0.0
C2548 C 0.70858 0.74208 0.13764 0.0
C2549 C 0.74295 0.69288 0.13984 0.0
C2550 C 0.73065 0.70945 0.13857 0.0
H2551 H 0.65275 0.77504 0.14373 0.0
H2552 H 0.67083 0.74599 0.14301 0.0
H2553 H 0.72618 0.75001 0.11417 0.0
H2554 H 0.78912 0.682 0.1423 0.0
H2555 H 0.76869 0.70884 0.1383 0.0
C2556 C 0.18886 0.69089 0.14188 0.0
C2557 C 0.19001 0.67256 0.13509 0.0
C2558 C 0.20466 0.70237 0.14186 0.0
C2559 C 0.25626 0.69967 0.14104 0.0
H2560 H 0.25253 0.75285 0.13132 0.0
C2561 C 0.32036 0.74925 0.13637 0.0
C2562 C 0.31843 0.76633 0.1458 0.0
C2563 C 0.30498 0.73731 0.13449 0.0
C2564 C 0.25373 0.73802 0.13416 0.0
H2565 H 0.20833 0.65167 0.12303 0.0
H2566 H 0.23581 0.67191 0.12226 0.0
H2567 H 0.22482 0.73319 0.12808 0.0
H2568 H 0.2997 0.78365 0.16216 0.0
H2569 H 0.27271 0.76303 0.15854 0.0
H2570 H 0.28524 0.70458 0.147 0.0
C2571 C 0.22284 0.67741 0.12784 0.0
C2572 C 0.23788 0.72678 0.13235 0.0
C2573 C 0.20707 0.66591 0.12802 0.0
C2574 C 0.30125 0.77091 0.15412 0.0
C2575 C 0.28588 0.75909 0.15213 0.0
C2576 C 0.27215 0.7109 0.1427 0.0
C2577 C 0.22188 0.69569 0.135 0.0
C2578 C 0.23892 0.7075 0.13596 0.0
C2579 C 0.28752 0.74232 0.14207 0.0
C2580 C 0.27096 0.73021 0.13948 0.0
H2581 H 0.17583 0.69616 0.14758 0.0
H2582 H 0.20351 0.71627 0.14774 0.0
H2583 H 0.25748 0.68492 0.14422 0.0
H2584 H 0.3336 0.74539 0.13006 0.0
H2585 H 0.30661 0.72441 0.12671 0.0
C2586 C 0.69635 0.21182 0.13926 0.0
C2587 C 0.67873 0.2202 0.137 0.0
C2588 C 0.71264 0.22217 0.13649 0.0
C2589 C 0.7313 0.26445 0.11425 0.0
H2590 H 0.76919 0.26145 0.15302 0.0
C2591 C 0.79039 0.31861 0.12218 0.0
C2592 C 0.80777 0.31257 0.12899 0.0
C2593 C 0.77545 0.30611 0.12085 0.0
C2594 C 0.75896 0.26219 0.14185 0.0
H2595 H 0.66418 0.24589 0.13031 0.0
H2596 H 0.69281 0.26411 0.12541 0.0
H2597 H 0.74136 0.242 0.15515 0.0
H2598 H 0.82362 0.28891 0.13915 0.0
H2599 H 0.79765 0.26679 0.13638 0.0
H2600 H 0.74889 0.2847 0.10095 0.0
C2601 C 0.69398 0.24946 0.12906 0.0
C2602 C 0.74298 0.25109 0.14313 0.0
C2603 C 0.67765 0.23912 0.13199 0.0
C2604 C 0.81026 0.29377 0.13385 0.0
C2605 C 0.79538 0.28122 0.13239 0.0
C2606 C 0.74739 0.27547 0.11287 0.0
C2607 C 0.71162 0.24109 0.13142 0.0
C2608 C 0.72892 0.25226 0.12946 0.0
C2609 C 0.77769 0.28734 0.12626 0.0
C2610 C 0.7613 0.27461 0.12678 0.0
H2611 H 0.69759 0.19742 0.14371 0.0
H2612 H 0.72607 0.21539 0.13842 0.0
H2613 H 0.72074 0.26543 0.1034 0.0
H2614 H 0.78811 0.33316 0.11868 0.0
H2615 H 0.76196 0.31138 0.11638 0.0
loop_
_geom_bond_atom_site_label_1
_geom_bond_atom_site_label_2
_geom_bond_distance
_geom_bond_site_symmetry_2
_ccdc_geom_bond_type
Co0 O3 1.970 . S
Co0 N17 1.989 . S
Co0 O25 1.967 . S
Co0 O32 1.920 . S
Co1 O4 1.966 . S
Co1 N10 2.022 . S
Co1 N18 1.993 . S
Co1 O26 1.941 . S
C2 O3 1.258 . S
C2 O4 1.263 . S
O3 Co0 1.970 . S
O3 C2 1.258 . S
O4 Co1 1.966 . S
O4 C2 1.263 . S
C5 O6 1.235 . S
C5 O32 1.289 . S
O6 C5 1.235 . S
C7 C9 1.400 . S
C7 N10 1.351 . S
C7 C12 1.501 . S
C8 C9 1.387 . S
C8 N11 1.341 . S
C9 C7 1.400 . S
C9 C8 1.387 . S
N10 Co1 2.022 . S
N10 C7 1.351 . S
N10 N11 1.365 . S
N11 C8 1.341 . S
N11 N10 1.365 . S
N11 H31 0.862 . S
C12 C7 1.501 . S
C12 H13 0.961 . S
C12 H14 0.961 . S
C12 H15 0.960 . S
H13 C12 0.961 . S
H14 C12 0.961 . S
H15 C12 0.960 . S
C16 N17 1.342 . S
C16 C20 1.401 . S
C16 C21 1.499 . S
N17 Co0 1.989 . S
N17 C16 1.342 . S
N17 N18 1.388 . S
N18 Co1 1.993 . S
N18 N17 1.388 . S
N18 C19 1.346 . S
C19 N18 1.346 . S
C19 C20 1.396 . S
C19 C29 1.510 . S
C20 C16 1.401 . S
C20 C19 1.396 . S
C21 C16 1.499 . S
C21 H22 0.959 . S
C21 H23 0.960 . S
C21 H24 0.961 . S
H22 C21 0.959 . S
H23 C21 0.960 . S
H24 C21 0.961 . S
O25 Co0 1.967 . S
O25 C33 1.258 . S
O26 Co1 1.941 . S
O26 C33 1.266 . S
H27 C29 0.959 . S
H28 C29 0.961 . S
C29 C19 1.510 . S
C29 H27 0.959 . S
C29 H28 0.961 . S
C29 H30 0.960 . S
H30 C29 0.960 . S
H31 N11 0.862 . S
O32 Co0 1.920 . S
O32 C5 1.289 . S
C33 O25 1.258 . S
C33 O26 1.266 . S
Co34 O37 1.970 . S
Co34 N51 1.989 . S
Co34 O59 1.967 . S
Co34 O66 1.920 . S
Co35 O38 1.966 . S
Co35 N44 2.022 . S
Co35 N52 1.993 . S
Co35 O60 1.941 . S
C36 O37 1.258 . S
C36 O38 1.263 . S
O37 Co34 1.970 . S
O37 C36 1.258 . S
O38 Co35 1.966 . S
O38 C36 1.263 . S
C39 O40 1.235 . S
C39 O66 1.289 . S
O40 C39 1.235 . S
C41 C43 1.400 . S
C41 N44 1.351 . S
C41 C46 1.501 . S
C42 C43 1.387 . S
C42 N45 1.341 . S
C43 C41 1.400 . S
C43 C42 1.387 . S
N44 Co35 2.022 . S
N44 C41 1.351 . S
N44 N45 1.365 . S
N45 C42 1.341 . S
N45 N44 1.365 . S
N45 H65 0.862 . S
C46 C41 1.501 . S
C46 H47 0.961 . S
C46 H48 0.961 . S
C46 H49 0.960 . S
H47 C46 0.961 . S
H48 C46 0.961 . S
H49 C46 0.960 . S
C50 N51 1.342 . S
C50 C54 1.401 . S
C50 C55 1.499 . S
N51 Co34 1.989 . S
N51 C50 1.342 . S
N51 N52 1.388 . S
N52 Co35 1.993 . S
N52 N51 1.388 . S
N52 C53 1.346 . S
C53 N52 1.346 . S
C53 C54 1.396 . S
C53 C63 1.510 . S
C54 C50 1.401 . S
C54 C53 1.396 . S
C55 C50 1.499 . S
C55 H56 0.959 . S
C55 H57 0.960 . S
C55 H58 0.961 . S
H56 C55 0.959 . S
H57 C55 0.960 . S
H58 C55 0.961 . S
O59 Co34 1.967 . S
O59 C67 1.258 . S
O60 Co35 1.941 . S
O60 C67 1.266 . S
H61 C63 0.959 . S
H62 C63 0.961 . S
C63 C53 1.510 . S
C63 H61 0.959 . S
C63 H62 0.961 . S
C63 H64 0.960 . S
H64 C63 0.960 . S
H65 N45 0.862 . S
O66 Co34 1.920 . S
O66 C39 1.289 . S
C67 O59 1.258 . S
C67 O60 1.266 . S
Co68 O71 1.970 . S
Co68 N85 1.989 . S
Co68 O93 1.967 . S
Co68 O100 1.920 . S
Co69 O72 1.966 . S
Co69 N78 2.022 . S
Co69 N86 1.993 . S
Co69 O94 1.941 . S
C70 O71 1.258 . S
C70 O72 1.263 . S
O71 Co68 1.970 . S
O71 C70 1.258 . S
O72 Co69 1.966 . S
O72 C70 1.263 . S
C73 O74 1.235 . S
C73 O100 1.289 . S
O74 C73 1.235 . S
C75 C77 1.400 . S
C75 N78 1.351 . S
C75 C80 1.501 . S
C76 C77 1.387 . S
C76 N79 1.341 . S
C77 C75 1.400 . S
C77 C76 1.387 . S
N78 Co69 2.022 . S
N78 C75 1.351 . S
N78 N79 1.365 . S
N79 C76 1.341 . S
N79 N78 1.365 . S
N79 H99 0.862 . S
C80 C75 1.501 . S
C80 H81 0.961 . S
C80 H82 0.961 . S
C80 H83 0.960 . S
H81 C80 0.961 . S
H82 C80 0.961 . S
H83 C80 0.960 . S
C84 N85 1.342 . S
C84 C88 1.401 . S
C84 C89 1.499 . S
N85 Co68 1.989 . S
N85 C84 1.342 . S
N85 N86 1.388 . S
N86 Co69 1.993 . S
N86 N85 1.388 . S
N86 C87 1.346 . S
C87 N86 1.346 . S
C87 C88 1.396 . S
C87 C97 1.510 . S
C88 C84 1.401 . S
C88 C87 1.396 . S
C89 C84 1.499 . S
C89 H90 0.959 . S
C89 H91 0.960 . S
C89 H92 0.961 . S
H90 C89 0.959 . S
H91 C89 0.960 . S
H92 C89 0.961 . S
O93 Co68 1.967 . S
O93 C101 1.258 . S
O94 Co69 1.941 . S
O94 C101 1.266 . S
H95 C97 0.959 . S
H96 C97 0.961 . S
C97 C87 1.510 . S
C97 H95 0.959 . S
C97 H96 0.961 . S
C97 H98 0.960 . S
H98 C97 0.960 . S
H99 N79 0.862 . S
O100 Co68 1.920 . S
O100 C73 1.289 . S
C101 O93 1.258 . S
C101 O94 1.266 . S
Co102 O105 1.970 . S
Co102 N119 1.989 . S
Co102 O127 1.967 . S
Co102 O134 1.920 . S
Co103 O106 1.966 . S
Co103 N112 2.022 . S
Co103 N120 1.993 . S
Co103 O128 1.941 . S
C104 O105 1.258 . S
C104 O106 1.263 . S
O105 Co102 1.970 . S
O105 C104 1.258 . S
O106 Co103 1.966 . S
O106 C104 1.263 . S
C107 O108 1.235 . S
C107 O134 1.289 . S
O108 C107 1.235 . S
C109 C111 1.400 . S
C109 N112 1.351 . S
C109 C114 1.501 . S
C110 C111 1.387 . S
C110 N113 1.341 . S
C111 C109 1.400 . S
C111 C110 1.387 . S
N112 Co103 2.022 . S
N112 C109 1.351 . S
N112 N113 1.365 . S
N113 C110 1.341 . S
N113 N112 1.365 . S
N113 H133 0.862 . S
C114 C109 1.501 . S
C114 H115 0.961 . S
C114 H116 0.961 . S
C114 H117 0.960 . S
H115 C114 0.961 . S
H116 C114 0.961 . S
H117 C114 0.960 . S
C118 N119 1.342 . S
C118 C122 1.401 . S
C118 C123 1.499 . S
N119 Co102 1.989 . S
N119 C118 1.342 . S
N119 N120 1.388 . S
N120 Co103 1.993 . S
N120 N119 1.388 . S
N120 C121 1.346 . S
C121 N120 1.346 . S
C121 C122 1.396 . S
C121 C131 1.510 . S
C122 C118 1.401 . S
C122 C121 1.396 . S
C123 C118 1.499 . S
C123 H124 0.959 . S
C123 H125 0.960 . S
C123 H126 0.961 . S
H124 C123 0.959 . S
H125 C123 0.960 . S
H126 C123 0.961 . S
O127 Co102 1.967 . S
O127 C135 1.258 . S
O128 Co103 1.941 . S
O128 C135 1.266 . S
H129 C131 0.959 . S
H130 C131 0.961 . S
C131 C121 1.510 . S
C131 H129 0.959 . S
C131 H130 0.961 . S
C131 H132 0.960 . S
H132 C131 0.960 . S
H133 N113 0.862 . S
O134 Co102 1.920 . S
O134 C107 1.289 . S
C135 O127 1.258 . S
C135 O128 1.266 . S
Co136 O139 1.970 . S
Co136 N153 1.989 . S
Co136 O161 1.967 . S
Co136 O168 1.920 . S
Co137 O140 1.966 . S
Co137 N146 2.022 . S
Co137 N154 1.993 . S
Co137 O162 1.941 . S
C138 O139 1.258 . S
C138 O140 1.263 . S
O139 Co136 1.970 . S
O139 C138 1.258 . S
O140 Co137 1.966 . S
O140 C138 1.263 . S
C141 O142 1.235 . S
C141 O168 1.289 . S
O142 C141 1.235 . S
C143 C145 1.400 . S
C143 N146 1.351 . S
C143 C148 1.501 . S
C144 C145 1.387 . S
C144 N147 1.341 . S
C145 C143 1.400 . S
C145 C144 1.387 . S
N146 Co137 2.022 . S
N146 C143 1.351 . S
N146 N147 1.365 . S
N147 C144 1.341 . S
N147 N146 1.365 . S
N147 H167 0.862 . S
C148 C143 1.501 . S
C148 H149 0.961 . S
C148 H150 0.961 . S
C148 H151 0.960 . S
H149 C148 0.961 . S
H150 C148 0.961 . S
H151 C148 0.960 . S
C152 N153 1.342 . S
C152 C156 1.401 . S
C152 C157 1.499 . S
N153 Co136 1.989 . S
N153 C152 1.342 . S
N153 N154 1.388 . S
N154 Co137 1.993 . S
N154 N153 1.388 . S
N154 C155 1.346 . S
C155 N154 1.346 . S
C155 C156 1.396 . S
C155 C165 1.510 . S
C156 C152 1.401 . S
C156 C155 1.396 . S
C157 C152 1.499 . S
C157 H158 0.959 . S
C157 H159 0.960 . S
C157 H160 0.961 . S
H158 C157 0.959 . S
H159 C157 0.960 . S
H160 C157 0.961 . S
O161 Co136 1.967 . S
O161 C169 1.258 . S
O162 Co137 1.941 . S
O162 C169 1.266 . S
H163 C165 0.959 . S
H164 C165 0.961 . S
C165 C155 1.510 . S
C165 H163 0.959 . S
C165 H164 0.961 . S
C165 H166 0.960 . S
H166 C165 0.960 . S
H167 N147 0.862 . S
O168 Co136 1.920 . S
O168 C141 1.289 . S
C169 O161 1.258 . S
C169 O162 1.266 . S
Co170 O173 1.970 . S
Co170 N187 1.989 . S
Co170 O195 1.967 . S
Co170 O202 1.920 . S
Co171 O174 1.966 . S
Co171 N180 2.022 . S
Co171 N188 1.993 . S
Co171 O196 1.941 . S
C172 O173 1.258 . S
C172 O174 1.263 . S
O173 Co170 1.970 . S
O173 C172 1.258 . S
O174 Co171 1.966 . S
O174 C172 1.263 . S
C175 O176 1.235 . S
C175 O202 1.289 . S
O176 C175 1.235 . S
C177 C179 1.400 . S
C177 N180 1.351 . S
C177 C182 1.501 . S
C178 C179 1.387 . S
C178 N181 1.341 . S
C179 C177 1.400 . S
C179 C178 1.387 . S
N180 Co171 2.022 . S
N180 C177 1.351 . S
N180 N181 1.365 . S
N181 C178 1.341 . S
N181 N180 1.365 . S
N181 H201 0.862 . S
C182 C177 1.501 . S
C182 H183 0.961 . S
C182 H184 0.961 . S
C182 H185 0.960 . S
H183 C182 0.961 . S
H184 C182 0.961 . S
H185 C182 0.960 . S
C186 N187 1.342 . S
C186 C190 1.401 . S
C186 C191 1.499 . S
N187 Co170 1.989 . S
N187 C186 1.342 . S
N187 N188 1.388 . S
N188 Co171 1.993 . S
N188 N187 1.388 . S
N188 C189 1.346 . S
C189 N188 1.346 . S
C189 C190 1.396 . S
C189 C199 1.510 . S
C190 C186 1.401 . S
C190 C189 1.396 . S
C191 C186 1.499 . S
C191 H192 0.959 . S
C191 H193 0.960 . S
C191 H194 0.961 . S
H192 C191 0.959 . S
H193 C191 0.960 . S
H194 C191 0.961 . S
O195 Co170 1.967 . S
O195 C203 1.258 . S
O196 Co171 1.941 . S
O196 C203 1.266 . S
H197 C199 0.959 . S
H198 C199 0.961 . S
C199 C189 1.510 . S
C199 H197 0.959 . S
C199 H198 0.961 . S
C199 H200 0.960 . S
H200 C199 0.960 . S
H201 N181 0.862 . S
O202 Co170 1.920 . S
O202 C175 1.289 . S
C203 O195 1.258 . S
C203 O196 1.266 . S
Co204 O207 1.970 . S
Co204 N221 1.989 . S
Co204 O229 1.967 . S
Co204 O236 1.920 . S
Co205 O208 1.966 . S
Co205 N214 2.022 . S
Co205 N222 1.993 . S
Co205 O230 1.941 . S
C206 O207 1.258 . S
C206 O208 1.263 . S
O207 Co204 1.970 . S
O207 C206 1.258 . S
O208 Co205 1.966 . S
O208 C206 1.263 . S
C209 O210 1.235 . S
C209 O236 1.289 . S
O210 C209 1.235 . S
C211 C213 1.400 . S
C211 N214 1.351 . S
C211 C216 1.501 . S
C212 C213 1.387 . S
C212 N215 1.341 . S
C213 C211 1.400 . S
C213 C212 1.387 . S
N214 Co205 2.022 . S
N214 C211 1.351 . S
N214 N215 1.365 . S
N215 C212 1.341 . S
N215 N214 1.365 . S
N215 H235 0.862 . S
C216 C211 1.501 . S
C216 H217 0.961 . S
C216 H218 0.961 . S
C216 H219 0.960 . S
H217 C216 0.961 . S
H218 C216 0.961 . S
H219 C216 0.960 . S
C220 N221 1.342 . S
C220 C224 1.401 . S
C220 C225 1.499 . S
N221 Co204 1.989 . S
N221 C220 1.342 . S
N221 N222 1.388 . S
N222 Co205 1.993 . S
N222 N221 1.388 . S
N222 C223 1.346 . S
C223 N222 1.346 . S
C223 C224 1.396 . S
C223 C233 1.510 . S
C224 C220 1.401 . S
C224 C223 1.396 . S
C225 C220 1.499 . S
C225 H226 0.959 . S
C225 H227 0.960 . S
C225 H228 0.961 . S
H226 C225 0.959 . S
H227 C225 0.960 . S
H228 C225 0.961 . S
O229 Co204 1.967 . S
O229 C237 1.258 . S
O230 Co205 1.941 . S
O230 C237 1.266 . S
H231 C233 0.959 . S
H232 C233 0.961 . S
C233 C223 1.510 . S
C233 H231 0.959 . S
C233 H232 0.961 . S
C233 H234 0.960 . S
H234 C233 0.960 . S
H235 N215 0.862 . S
O236 Co204 1.920 . S
O236 C209 1.289 . S
C237 O229 1.258 . S
C237 O230 1.266 . S
Co238 O241 1.970 . S
Co238 N255 1.989 . S
Co238 O263 1.967 . S
Co238 O270 1.920 . S
Co239 O242 1.966 . S
Co239 N248 2.022 . S
Co239 N256 1.993 . S
Co239 O264 1.941 . S
C240 O241 1.258 . S
C240 O242 1.263 . S
O241 Co238 1.970 . S
O241 C240 1.258 . S
O242 Co239 1.966 . S
O242 C240 1.263 . S
C243 O244 1.235 . S
C243 O270 1.289 . S
O244 C243 1.235 . S
C245 C247 1.400 . S
C245 N248 1.351 . S
C245 C250 1.501 . S
C246 C247 1.387 . S
C246 N249 1.341 . S
C247 C245 1.400 . S
C247 C246 1.387 . S
N248 Co239 2.022 . S
N248 C245 1.351 . S
N248 N249 1.365 . S
N249 C246 1.341 . S
N249 N248 1.365 . S
N249 H269 0.862 . S
C250 C245 1.501 . S
C250 H251 0.961 . S
C250 H252 0.961 . S
C250 H253 0.960 . S
H251 C250 0.961 . S
H252 C250 0.961 . S
H253 C250 0.960 . S
C254 N255 1.342 . S
C254 C258 1.401 . S
C254 C259 1.499 . S
N255 Co238 1.989 . S
N255 C254 1.342 . S
N255 N256 1.388 . S
N256 Co239 1.993 . S
N256 N255 1.388 . S
N256 C257 1.346 . S
C257 N256 1.346 . S
C257 C258 1.396 . S
C257 C267 1.510 . S
C258 C254 1.401 . S
C258 C257 1.396 . S
C259 C254 1.499 . S
C259 H260 0.959 . S
C259 H261 0.960 . S
C259 H262 0.961 . S
H260 C259 0.959 . S
H261 C259 0.960 . S
H262 C259 0.961 . S
O263 Co238 1.967 . S
O263 C271 1.258 . S
O264 Co239 1.941 . S
O264 C271 1.266 . S
H265 C267 0.959 . S
H266 C267 0.961 . S
C267 C257 1.510 . S
C267 H265 0.959 . S
C267 H266 0.961 . S
C267 H268 0.960 . S
H268 C267 0.960 . S
H269 N249 0.862 . S
O270 Co238 1.920 . S
O270 C243 1.289 . S
C271 O263 1.258 . S
C271 O264 1.266 . S
Co272 O275 1.970 . S
Co272 N289 1.989 . S
Co272 O297 1.967 . S
Co272 O304 1.920 . S
Co273 O276 1.966 . S
Co273 N282 2.022 . S
Co273 N290 1.993 . S
Co273 O298 1.941 . S
C274 O275 1.258 . S
C274 O276 1.263 . S
O275 Co272 1.970 . S
O275 C274 1.258 . S
O276 Co273 1.966 . S
O276 C274 1.263 . S
C277 O278 1.235 . S
C277 O304 1.289 . S
O278 C277 1.235 . S
C279 C281 1.400 . S
C279 N282 1.351 . S
C279 C284 1.501 . S
C280 C281 1.387 . S
C280 N283 1.341 . S
C281 C279 1.400 . S
C281 C280 1.387 . S
N282 Co273 2.022 . S
N282 C279 1.351 . S
N282 N283 1.365 . S
N283 C280 1.341 . S
N283 N282 1.365 . S
N283 H303 0.862 . S
C284 C279 1.501 . S
C284 H285 0.961 . S
C284 H286 0.961 . S
C284 H287 0.960 . S
H285 C284 0.961 . S
H286 C284 0.961 . S
H287 C284 0.960 . S
C288 N289 1.342 . S
C288 C292 1.401 . S
C288 C293 1.499 . S
N289 Co272 1.989 . S
N289 C288 1.342 . S
N289 N290 1.388 . S
N290 Co273 1.993 . S
N290 N289 1.388 . S
N290 C291 1.346 . S
C291 N290 1.346 . S
C291 C292 1.396 . S
C291 C301 1.510 . S
C292 C288 1.401 . S
C292 C291 1.396 . S
C293 C288 1.499 . S
C293 H294 0.959 . S
C293 H295 0.960 . S
C293 H296 0.961 . S
H294 C293 0.959 . S
H295 C293 0.960 . S
H296 C293 0.961 . S
O297 Co272 1.967 . S
O297 C305 1.258 . S
O298 Co273 1.941 . S
O298 C305 1.266 . S
H299 C301 0.959 . S
H300 C301 0.961 . S
C301 C291 1.510 . S
C301 H299 0.959 . S
C301 H300 0.961 . S
C301 H302 0.960 . S
H302 C301 0.960 . S
H303 N283 0.862 . S
O304 Co272 1.920 . S
O304 C277 1.289 . S
C305 O297 1.258 . S
C305 O298 1.266 . S
Co306 O309 1.970 . S
Co306 N323 1.989 . S
Co306 O331 1.967 . S
Co306 O338 1.920 . S
Co307 O310 1.966 . S
Co307 N316 2.022 . S
Co307 N324 1.993 . S
Co307 O332 1.941 . S
C308 O309 1.258 . S
C308 O310 1.263 . S
O309 Co306 1.970 . S
O309 C308 1.258 . S
O310 Co307 1.966 . S
O310 C308 1.263 . S
C311 O312 1.235 . S
C311 O338 1.289 . S
O312 C311 1.235 . S
C313 C315 1.400 . S
C313 N316 1.351 . S
C313 C318 1.501 . S
C314 C315 1.387 . S
C314 N317 1.341 . S
C315 C313 1.400 . S
C315 C314 1.387 . S
N316 Co307 2.022 . S
N316 C313 1.351 . S
N316 N317 1.365 . S
N317 C314 1.341 . S
N317 N316 1.365 . S
N317 H337 0.862 . S
C318 C313 1.501 . S
C318 H319 0.961 . S
C318 H320 0.961 . S
C318 H321 0.960 . S
H319 C318 0.961 . S
H320 C318 0.961 . S
H321 C318 0.960 . S
C322 N323 1.342 . S
C322 C326 1.401 . S
C322 C327 1.499 . S
N323 Co306 1.989 . S
N323 C322 1.342 . S
N323 N324 1.388 . S
N324 Co307 1.993 . S
N324 N323 1.388 . S
N324 C325 1.346 . S
C325 N324 1.346 . S
C325 C326 1.396 . S
C325 C335 1.510 . S
C326 C322 1.401 . S
C326 C325 1.396 . S
C327 C322 1.499 . S
C327 H328 0.959 . S
C327 H329 0.960 . S
C327 H330 0.961 . S
H328 C327 0.959 . S
H329 C327 0.960 . S
H330 C327 0.961 . S
O331 Co306 1.967 . S
O331 C339 1.258 . S
O332 Co307 1.941 . S
O332 C339 1.266 . S
H333 C335 0.959 . S
H334 C335 0.961 . S
C335 C325 1.510 . S
C335 H333 0.959 . S
C335 H334 0.961 . S
C335 H336 0.960 . S
H336 C335 0.960 . S
H337 N317 0.862 . S
O338 Co306 1.920 . S
O338 C311 1.289 . S
C339 O331 1.258 . S
C339 O332 1.266 . S
Co340 O343 1.970 . S
Co340 N357 1.989 . S
Co340 O365 1.967 . S
Co340 O372 1.920 . S
Co341 O344 1.966 . S
Co341 N350 2.022 . S
Co341 N358 1.993 . S
Co341 O366 1.941 . S
C342 O343 1.258 . S
C342 O344 1.263 . S
O343 Co340 1.970 . S
O343 C342 1.258 . S
O344 Co341 1.966 . S
O344 C342 1.263 . S
C345 O346 1.235 . S
C345 O372 1.289 . S
O346 C345 1.235 . S
C347 C349 1.400 . S
C347 N350 1.351 . S
C347 C352 1.501 . S
C348 C349 1.387 . S
C348 N351 1.341 . S
C349 C347 1.400 . S
C349 C348 1.387 . S
N350 Co341 2.022 . S
N350 C347 1.351 . S
N350 N351 1.365 . S
N351 C348 1.341 . S
N351 N350 1.365 . S
N351 H371 0.862 . S
C352 C347 1.501 . S
C352 H353 0.961 . S
C352 H354 0.961 . S
C352 H355 0.960 . S
H353 C352 0.961 . S
H354 C352 0.961 . S
H355 C352 0.960 . S
C356 N357 1.342 . S
C356 C360 1.401 . S
C356 C361 1.499 . S
N357 Co340 1.989 . S
N357 C356 1.342 . S
N357 N358 1.388 . S
N358 Co341 1.993 . S
N358 N357 1.388 . S
N358 C359 1.346 . S
C359 N358 1.346 . S
C359 C360 1.396 . S
C359 C369 1.510 . S
C360 C356 1.401 . S
C360 C359 1.396 . S
C361 C356 1.499 . S
C361 H362 0.959 . S
C361 H363 0.960 . S
C361 H364 0.961 . S
H362 C361 0.959 . S
H363 C361 0.960 . S
H364 C361 0.961 . S
O365 Co340 1.967 . S
O365 C373 1.258 . S
O366 Co341 1.941 . S
O366 C373 1.266 . S
H367 C369 0.959 . S
H368 C369 0.961 . S
C369 C359 1.510 . S
C369 H367 0.959 . S
C369 H368 0.961 . S
C369 H370 0.960 . S
H370 C369 0.960 . S
H371 N351 0.862 . S
O372 Co340 1.920 . S
O372 C345 1.289 . S
C373 O365 1.258 . S
C373 O366 1.266 . S
Co374 O377 1.970 . S
Co374 N391 1.989 . S
Co374 O399 1.967 . S
Co374 O406 1.920 . S
Co375 O378 1.966 . S
Co375 N384 2.022 . S
Co375 N392 1.993 . S
Co375 O400 1.941 . S
C376 O377 1.258 . S
C376 O378 1.263 . S
O377 Co374 1.970 . S
O377 C376 1.258 . S
O378 Co375 1.966 . S
O378 C376 1.263 . S
C379 O380 1.235 . S
C379 O406 1.289 . S
O380 C379 1.235 . S
C381 C383 1.400 . S
C381 N384 1.351 . S
C381 C386 1.501 . S
C382 C383 1.387 . S
C382 N385 1.341 . S
C383 C381 1.400 . S
C383 C382 1.387 . S
N384 Co375 2.022 . S
N384 C381 1.351 . S
N384 N385 1.365 . S
N385 C382 1.341 . S
N385 N384 1.365 . S
N385 H405 0.862 . S
C386 C381 1.501 . S
C386 H387 0.961 . S
C386 H388 0.961 . S
C386 H389 0.960 . S
H387 C386 0.961 . S
H388 C386 0.961 . S
H389 C386 0.960 . S
C390 N391 1.342 . S
C390 C394 1.401 . S
C390 C395 1.499 . S
N391 Co374 1.989 . S
N391 C390 1.342 . S
N391 N392 1.388 . S
N392 Co375 1.993 . S
N392 N391 1.388 . S
N392 C393 1.346 . S
C393 N392 1.346 . S
C393 C394 1.396 . S
C393 C403 1.510 . S
C394 C390 1.401 . S
C394 C393 1.396 . S
C395 C390 1.499 . S
C395 H396 0.959 . S
C395 H397 0.960 . S
C395 H398 0.961 . S
H396 C395 0.959 . S
H397 C395 0.960 . S
H398 C395 0.961 . S
O399 Co374 1.967 . S
O399 C407 1.258 . S
O400 Co375 1.941 . S
O400 C407 1.266 . S
H401 C403 0.959 . S
H402 C403 0.961 . S
C403 C393 1.510 . S
C403 H401 0.959 . S
C403 H402 0.961 . S
C403 H404 0.960 . S
H404 C403 0.960 . S
H405 N385 0.862 . S
O406 Co374 1.920 . S
O406 C379 1.289 . S
C407 O399 1.258 . S
C407 O400 1.266 . S
Co408 O411 1.970 . S
Co408 N425 1.989 . S
Co408 O433 1.967 . S
Co408 O440 1.920 . S
Co409 O412 1.966 . S
Co409 N418 2.022 . S
Co409 N426 1.993 . S
Co409 O434 1.941 . S
C410 O411 1.258 . S
C410 O412 1.263 . S
O411 Co408 1.970 . S
O411 C410 1.258 . S
O412 Co409 1.966 . S
O412 C410 1.263 . S
C413 O414 1.235 . S
C413 O440 1.289 . S
O414 C413 1.235 . S
C415 C417 1.400 . S
C415 N418 1.351 . S
C415 C420 1.501 . S
C416 C417 1.387 . S
C416 N419 1.341 . S
C417 C415 1.400 . S
C417 C416 1.387 . S
N418 Co409 2.022 . S
N418 C415 1.351 . S
N418 N419 1.365 . S
N419 C416 1.341 . S
N419 N418 1.365 . S
N419 H439 0.862 . S
C420 C415 1.501 . S
C420 H421 0.961 . S
C420 H422 0.961 . S
C420 H423 0.960 . S
H421 C420 0.961 . S
H422 C420 0.961 . S
H423 C420 0.960 . S
C424 N425 1.342 . S
C424 C428 1.401 . S
C424 C429 1.499 . S
N425 Co408 1.989 . S
N425 C424 1.342 . S
N425 N426 1.388 . S
N426 Co409 1.993 . S
N426 N425 1.388 . S
N426 C427 1.346 . S
C427 N426 1.346 . S
C427 C428 1.396 . S
C427 C437 1.510 . S
C428 C424 1.401 . S
C428 C427 1.396 . S
C429 C424 1.499 . S
C429 H430 0.959 . S
C429 H431 0.960 . S
C429 H432 0.961 . S
H430 C429 0.959 . S
H431 C429 0.960 . S
H432 C429 0.961 . S
O433 Co408 1.967 . S
O433 C441 1.258 . S
O434 Co409 1.941 . S
O434 C441 1.266 . S
H435 C437 0.959 . S
H436 C437 0.961 . S
C437 C427 1.510 . S
C437 H435 0.959 . S
C437 H436 0.961 . S
C437 H438 0.960 . S
H438 C437 0.960 . S
H439 N419 0.862 . S
O440 Co408 1.920 . S
O440 C413 1.289 . S
C441 O433 1.258 . S
C441 O434 1.266 . S
Co442 O445 1.970 . S
Co442 N459 1.989 . S
Co442 O467 1.967 . S
Co442 O474 1.920 . S
Co443 O446 1.966 . S
Co443 N452 2.022 . S
Co443 N460 1.993 . S
Co443 O468 1.941 . S
C444 O445 1.258 . S
C444 O446 1.263 . S
O445 Co442 1.970 . S
O445 C444 1.258 . S
O446 Co443 1.966 . S
O446 C444 1.263 . S
C447 O448 1.235 . S
C447 O474 1.289 . S
O448 C447 1.235 . S
C449 C451 1.400 . S
C449 N452 1.351 . S
C449 C454 1.501 . S
C450 C451 1.387 . S
C450 N453 1.341 . S
C451 C449 1.400 . S
C451 C450 1.387 . S
N452 Co443 2.022 . S
N452 C449 1.351 . S
N452 N453 1.365 . S
N453 C450 1.341 . S
N453 N452 1.365 . S
N453 H473 0.862 . S
C454 C449 1.501 . S
C454 H455 0.961 . S
C454 H456 0.961 . S
C454 H457 0.960 . S
H455 C454 0.961 . S
H456 C454 0.961 . S
H457 C454 0.960 . S
C458 N459 1.342 . S
C458 C462 1.401 . S
C458 C463 1.499 . S
N459 Co442 1.989 . S
N459 C458 1.342 . S
N459 N460 1.388 . S
N460 Co443 1.993 . S
N460 N459 1.388 . S
N460 C461 1.346 . S
C461 N460 1.346 . S
C461 C462 1.396 . S
C461 C471 1.510 . S
C462 C458 1.401 . S
C462 C461 1.396 . S
C463 C458 1.499 . S
C463 H464 0.959 . S
C463 H465 0.960 . S
C463 H466 0.961 . S
H464 C463 0.959 . S
H465 C463 0.960 . S
H466 C463 0.961 . S
O467 Co442 1.967 . S
O467 C475 1.258 . S
O468 Co443 1.941 . S
O468 C475 1.266 . S
H469 C471 0.959 . S
H470 C471 0.961 . S
C471 C461 1.510 . S
C471 H469 0.959 . S
C471 H470 0.961 . S
C471 H472 0.960 . S
H472 C471 0.960 . S
H473 N453 0.862 . S
O474 Co442 1.920 . S
O474 C447 1.289 . S
C475 O467 1.258 . S
C475 O468 1.266 . S
Co476 O479 1.970 . S
Co476 N493 1.989 . S
Co476 O501 1.967 . S
Co476 O508 1.920 . S
Co477 O480 1.966 . S
Co477 N486 2.022 . S
Co477 N494 1.993 . S
Co477 O502 1.941 . S
C478 O479 1.258 . S
C478 O480 1.263 . S
O479 Co476 1.970 . S
O479 C478 1.258 . S
O480 Co477 1.966 . S
O480 C478 1.263 . S
C481 O482 1.235 . S
C481 O508 1.289 . S
O482 C481 1.235 . S
C483 C485 1.400 . S
C483 N486 1.351 . S
C483 C488 1.501 . S
C484 C485 1.387 . S
C484 N487 1.341 . S
C485 C483 1.400 . S
C485 C484 1.387 . S
N486 Co477 2.022 . S
N486 C483 1.351 . S
N486 N487 1.365 . S
N487 C484 1.341 . S
N487 N486 1.365 . S
N487 H507 0.862 . S
C488 C483 1.501 . S
C488 H489 0.961 . S
C488 H490 0.961 . S
C488 H491 0.960 . S
H489 C488 0.961 . S
H490 C488 0.961 . S
H491 C488 0.960 . S
C492 N493 1.342 . S
C492 C496 1.401 . S
C492 C497 1.499 . S
N493 Co476 1.989 . S
N493 C492 1.342 . S
N493 N494 1.388 . S
N494 Co477 1.993 . S
N494 N493 1.388 . S
N494 C495 1.346 . S
C495 N494 1.346 . S
C495 C496 1.396 . S
C495 C505 1.510 . S
C496 C492 1.401 . S
C496 C495 1.396 . S
C497 C492 1.499 . S
C497 H498 0.959 . S
C497 H499 0.960 . S
C497 H500 0.961 . S
H498 C497 0.959 . S
H499 C497 0.960 . S
H500 C497 0.961 . S
O501 Co476 1.967 . S
O501 C509 1.258 . S
O502 Co477 1.941 . S
O502 C509 1.266 . S
H503 C505 0.959 . S
H504 C505 0.961 . S
C505 C495 1.510 . S
C505 H503 0.959 . S
C505 H504 0.961 . S
C505 H506 0.960 . S
H506 C505 0.960 . S
H507 N487 0.862 . S
O508 Co476 1.920 . S
O508 C481 1.289 . S
C509 O501 1.258 . S
C509 O502 1.266 . S
Co510 O513 1.970 . S
Co510 N527 1.989 . S
Co510 O535 1.967 . S
Co510 O542 1.920 . S
Co511 O514 1.966 . S
Co511 N520 2.022 . S
Co511 N528 1.993 . S
Co511 O536 1.941 . S
C512 O513 1.258 . S
C512 O514 1.263 . S
O513 Co510 1.970 . S
O513 C512 1.258 . S
O514 Co511 1.966 . S
O514 C512 1.263 . S
C515 O516 1.235 . S
C515 O542 1.289 . S
O516 C515 1.235 . S
C517 C519 1.400 . S
C517 N520 1.351 . S
C517 C522 1.501 . S
C518 C519 1.387 . S
C518 N521 1.341 . S
C519 C517 1.400 . S
C519 C518 1.387 . S
N520 Co511 2.022 . S
N520 C517 1.351 . S
N520 N521 1.365 . S
N521 C518 1.341 . S
N521 N520 1.365 . S
N521 H541 0.862 . S
C522 C517 1.501 . S
C522 H523 0.961 . S
C522 H524 0.961 . S
C522 H525 0.960 . S
H523 C522 0.961 . S
H524 C522 0.961 . S
H525 C522 0.960 . S
C526 N527 1.342 . S
C526 C530 1.401 . S
C526 C531 1.499 . S
N527 Co510 1.989 . S
N527 C526 1.342 . S
N527 N528 1.388 . S
N528 Co511 1.993 . S
N528 N527 1.388 . S
N528 C529 1.346 . S
C529 N528 1.346 . S
C529 C530 1.396 . S
C529 C539 1.510 . S
C530 C526 1.401 . S
C530 C529 1.396 . S
C531 C526 1.499 . S
C531 H532 0.959 . S
C531 H533 0.960 . S
C531 H534 0.961 . S
H532 C531 0.959 . S
H533 C531 0.960 . S
H534 C531 0.961 . S
O535 Co510 1.967 . S
O535 C543 1.258 . S
O536 Co511 1.941 . S
O536 C543 1.266 . S
H537 C539 0.959 . S
H538 C539 0.961 . S
C539 C529 1.510 . S
C539 H537 0.959 . S
C539 H538 0.961 . S
C539 H540 0.960 . S
H540 C539 0.960 . S
H541 N521 0.862 . S
O542 Co510 1.920 . S
O542 C515 1.289 . S
C543 O535 1.258 . S
C543 O536 1.266 . S
Co544 O547 1.970 . S
Co544 N561 1.989 . S
Co544 O569 1.967 . S
Co544 O576 1.920 . S
Co545 O548 1.966 . S
Co545 N554 2.022 . S
Co545 N562 1.993 . S
Co545 O570 1.941 . S
C546 O547 1.258 . S
C546 O548 1.263 . S
O547 Co544 1.970 . S
O547 C546 1.258 . S
O548 Co545 1.966 . S
O548 C546 1.263 . S
C549 O550 1.235 . S
C549 O576 1.289 . S
O550 C549 1.235 . S
C551 C553 1.400 . S
C551 N554 1.351 . S
C551 C556 1.501 . S
C552 C553 1.387 . S
C552 N555 1.341 . S
C553 C551 1.400 . S
C553 C552 1.387 . S
N554 Co545 2.022 . S
N554 C551 1.351 . S
N554 N555 1.365 . S
N555 C552 1.341 . S
N555 N554 1.365 . S
N555 H575 0.862 . S
C556 C551 1.501 . S
C556 H557 0.961 . S
C556 H558 0.961 . S
C556 H559 0.960 . S
H557 C556 0.961 . S
H558 C556 0.961 . S
H559 C556 0.960 . S
C560 N561 1.342 . S
C560 C564 1.401 . S
C560 C565 1.499 . S
N561 Co544 1.989 . S
N561 C560 1.342 . S
N561 N562 1.388 . S
N562 Co545 1.993 . S
N562 N561 1.388 . S
N562 C563 1.346 . S
C563 N562 1.346 . S
C563 C564 1.396 . S
C563 C573 1.510 . S
C564 C560 1.401 . S
C564 C563 1.396 . S
C565 C560 1.499 . S
C565 H566 0.959 . S
C565 H567 0.960 . S
C565 H568 0.961 . S
H566 C565 0.959 . S
H567 C565 0.960 . S
H568 C565 0.961 . S
O569 Co544 1.967 . S
O569 C577 1.258 . S
O570 Co545 1.941 . S
O570 C577 1.266 . S
H571 C573 0.959 . S
H572 C573 0.961 . S
C573 C563 1.510 . S
C573 H571 0.959 . S
C573 H572 0.961 . S
C573 H574 0.960 . S
H574 C573 0.960 . S
H575 N555 0.862 . S
O576 Co544 1.920 . S
O576 C549 1.289 . S
C577 O569 1.258 . S
C577 O570 1.266 . S
Co578 O581 1.970 . S
Co578 N595 1.989 . S
Co578 O603 1.967 . S
Co578 O610 1.920 . S
Co579 O582 1.966 . S
Co579 N588 2.022 . S
Co579 N596 1.993 . S
Co579 O604 1.941 . S
C580 O581 1.258 . S
C580 O582 1.263 . S
O581 Co578 1.970 . S
O581 C580 1.258 . S
O582 Co579 1.966 . S
O582 C580 1.263 . S
C583 O584 1.235 . S
C583 O610 1.289 . S
O584 C583 1.235 . S
C585 C587 1.400 . S
C585 N588 1.351 . S
C585 C590 1.501 . S
C586 C587 1.387 . S
C586 N589 1.341 . S
C587 C585 1.400 . S
C587 C586 1.387 . S
N588 Co579 2.022 . S
N588 C585 1.351 . S
N588 N589 1.365 . S
N589 C586 1.341 . S
N589 N588 1.365 . S
N589 H609 0.862 . S
C590 C585 1.501 . S
C590 H591 0.961 . S
C590 H592 0.961 . S
C590 H593 0.960 . S
H591 C590 0.961 . S
H592 C590 0.961 . S
H593 C590 0.960 . S
C594 N595 1.342 . S
C594 C598 1.401 . S
C594 C599 1.499 . S
N595 Co578 1.989 . S
N595 C594 1.342 . S
N595 N596 1.388 . S
N596 Co579 1.993 . S
N596 N595 1.388 . S
N596 C597 1.346 . S
C597 N596 1.346 . S
C597 C598 1.396 . S
C597 C607 1.510 . S
C598 C594 1.401 . S
C598 C597 1.396 . S
C599 C594 1.499 . S
C599 H600 0.959 . S
C599 H601 0.960 . S
C599 H602 0.961 . S
H600 C599 0.959 . S
H601 C599 0.960 . S
H602 C599 0.961 . S
O603 Co578 1.967 . S
O603 C611 1.258 . S
O604 Co579 1.941 . S
O604 C611 1.266 . S
H605 C607 0.959 . S
H606 C607 0.961 . S
C607 C597 1.510 . S
C607 H605 0.959 . S
C607 H606 0.961 . S
C607 H608 0.960 . S
H608 C607 0.960 . S
H609 N589 0.862 . S
O610 Co578 1.920 . S
O610 C583 1.289 . S
C611 O603 1.258 . S
C611 O604 1.266 . S
Co612 O615 1.970 . S
Co612 N629 1.989 . S
Co612 O637 1.967 . S
Co612 O644 1.920 . S
Co613 O616 1.966 . S
Co613 N622 2.022 . S
Co613 N630 1.993 . S
Co613 O638 1.941 . S
C614 O615 1.258 . S
C614 O616 1.263 . S
O615 Co612 1.970 . S
O615 C614 1.258 . S
O616 Co613 1.966 . S
O616 C614 1.263 . S
C617 O618 1.235 . S
C617 O644 1.289 . S
O618 C617 1.235 . S
C619 C621 1.400 . S
C619 N622 1.351 . S
C619 C624 1.501 . S
C620 C621 1.387 . S
C620 N623 1.341 . S
C621 C619 1.400 . S
C621 C620 1.387 . S
N622 Co613 2.022 . S
N622 C619 1.351 . S
N622 N623 1.365 . S
N623 C620 1.341 . S
N623 N622 1.365 . S
N623 H643 0.862 . S
C624 C619 1.501 . S
C624 H625 0.961 . S
C624 H626 0.961 . S
C624 H627 0.960 . S
H625 C624 0.961 . S
H626 C624 0.961 . S
H627 C624 0.960 . S
C628 N629 1.342 . S
C628 C632 1.401 . S
C628 C633 1.499 . S
N629 Co612 1.989 . S
N629 C628 1.342 . S
N629 N630 1.388 . S
N630 Co613 1.993 . S
N630 N629 1.388 . S
N630 C631 1.346 . S
C631 N630 1.346 . S
C631 C632 1.396 . S
C631 C641 1.510 . S
C632 C628 1.401 . S
C632 C631 1.396 . S
C633 C628 1.499 . S
C633 H634 0.959 . S
C633 H635 0.960 . S
C633 H636 0.961 . S
H634 C633 0.959 . S
H635 C633 0.960 . S
H636 C633 0.961 . S
O637 Co612 1.967 . S
O637 C645 1.258 . S
O638 Co613 1.941 . S
O638 C645 1.266 . S
H639 C641 0.959 . S
H640 C641 0.961 . S
C641 C631 1.510 . S
C641 H639 0.959 . S
C641 H640 0.961 . S
C641 H642 0.960 . S
H642 C641 0.960 . S
H643 N623 0.862 . S
O644 Co612 1.920 . S
O644 C617 1.289 . S
C645 O637 1.258 . S
C645 O638 1.266 . S
Co646 O649 1.970 . S
Co646 N663 1.989 . S
Co646 O671 1.967 . S
Co646 O678 1.920 . S
Co647 O650 1.966 . S
Co647 N656 2.022 . S
Co647 N664 1.993 . S
Co647 O672 1.941 . S
C648 O649 1.258 . S
C648 O650 1.263 . S
O649 Co646 1.970 . S
O649 C648 1.258 . S
O650 Co647 1.966 . S
O650 C648 1.263 . S
C651 O652 1.235 . S
C651 O678 1.289 . S
O652 C651 1.235 . S
C653 C655 1.400 . S
C653 N656 1.351 . S
C653 C658 1.501 . S
C654 C655 1.387 . S
C654 N657 1.341 . S
C655 C653 1.400 . S
C655 C654 1.387 . S
N656 Co647 2.022 . S
N656 C653 1.351 . S
N656 N657 1.365 . S
N657 C654 1.341 . S
N657 N656 1.365 . S
N657 H677 0.862 . S
C658 C653 1.501 . S
C658 H659 0.961 . S
C658 H660 0.961 . S
C658 H661 0.960 . S
H659 C658 0.961 . S
H660 C658 0.961 . S
H661 C658 0.960 . S
C662 N663 1.342 . S
C662 C666 1.401 . S
C662 C667 1.499 . S
N663 Co646 1.989 . S
N663 C662 1.342 . S
N663 N664 1.388 . S
N664 Co647 1.993 . S
N664 N663 1.388 . S
N664 C665 1.346 . S
C665 N664 1.346 . S
C665 C666 1.396 . S
C665 C675 1.510 . S
C666 C662 1.401 . S
C666 C665 1.396 . S
C667 C662 1.499 . S
C667 H668 0.959 . S
C667 H669 0.960 . S
C667 H670 0.961 . S
H668 C667 0.959 . S
H669 C667 0.960 . S
H670 C667 0.961 . S
O671 Co646 1.967 . S
O671 C679 1.258 . S
O672 Co647 1.941 . S
O672 C679 1.266 . S
H673 C675 0.959 . S
H674 C675 0.961 . S
C675 C665 1.510 . S
C675 H673 0.959 . S
C675 H674 0.961 . S
C675 H676 0.960 . S
H676 C675 0.960 . S
H677 N657 0.862 . S
O678 Co646 1.920 . S
O678 C651 1.289 . S
C679 O671 1.258 . S
C679 O672 1.266 . S
Co680 O683 1.970 . S
Co680 N697 1.989 . S
Co680 O705 1.967 . S
Co680 O712 1.920 . S
Co681 O684 1.966 . S
Co681 N690 2.022 . S
Co681 N698 1.993 . S
Co681 O706 1.941 . S
C682 O683 1.258 . S
C682 O684 1.263 . S
O683 Co680 1.970 . S
O683 C682 1.258 . S
O684 Co681 1.966 . S
O684 C682 1.263 . S
C685 O686 1.235 . S
C685 O712 1.289 . S
O686 C685 1.235 . S
C687 C689 1.400 . S
C687 N690 1.351 . S
C687 C692 1.501 . S
C688 C689 1.387 . S
C688 N691 1.341 . S
C689 C687 1.400 . S
C689 C688 1.387 . S
N690 Co681 2.022 . S
N690 C687 1.351 . S
N690 N691 1.365 . S
N691 C688 1.341 . S
N691 N690 1.365 . S
N691 H711 0.862 . S
C692 C687 1.501 . S
C692 H693 0.961 . S
C692 H694 0.961 . S
C692 H695 0.960 . S
H693 C692 0.961 . S
H694 C692 0.961 . S
H695 C692 0.960 . S
C696 N697 1.342 . S
C696 C700 1.401 . S
C696 C701 1.499 . S
N697 Co680 1.989 . S
N697 C696 1.342 . S
N697 N698 1.388 . S
N698 Co681 1.993 . S
N698 N697 1.388 . S
N698 C699 1.346 . S
C699 N698 1.346 . S
C699 C700 1.396 . S
C699 C709 1.510 . S
C700 C696 1.401 . S
C700 C699 1.396 . S
C701 C696 1.499 . S
C701 H702 0.959 . S
C701 H703 0.960 . S
C701 H704 0.961 . S
H702 C701 0.959 . S
H703 C701 0.960 . S
H704 C701 0.961 . S
O705 Co680 1.967 . S
O705 C713 1.258 . S
O706 Co681 1.941 . S
O706 C713 1.266 . S
H707 C709 0.959 . S
H708 C709 0.961 . S
C709 C699 1.510 . S
C709 H707 0.959 . S
C709 H708 0.961 . S
C709 H710 0.960 . S
H710 C709 0.960 . S
H711 N691 0.862 . S
O712 Co680 1.920 . S
O712 C685 1.289 . S
C713 O705 1.258 . S
C713 O706 1.266 . S
Co714 O717 1.970 . S
Co714 N731 1.989 . S
Co714 O739 1.967 . S
Co714 O746 1.920 . S
Co715 O718 1.966 . S
Co715 N724 2.022 . S
Co715 N732 1.993 . S
Co715 O740 1.941 . S
C716 O717 1.258 . S
C716 O718 1.263 . S
O717 Co714 1.970 . S
O717 C716 1.258 . S
O718 Co715 1.966 . S
O718 C716 1.263 . S
C719 O720 1.235 . S
C719 O746 1.289 . S
O720 C719 1.235 . S
C721 C723 1.400 . S
C721 N724 1.351 . S
C721 C726 1.501 . S
C722 C723 1.387 . S
C722 N725 1.341 . S
C723 C721 1.400 . S
C723 C722 1.387 . S
N724 Co715 2.022 . S
N724 C721 1.351 . S
N724 N725 1.365 . S
N725 C722 1.341 . S
N725 N724 1.365 . S
N725 H745 0.862 . S
C726 C721 1.501 . S
C726 H727 0.961 . S
C726 H728 0.961 . S
C726 H729 0.960 . S
H727 C726 0.961 . S
H728 C726 0.961 . S
H729 C726 0.960 . S
C730 N731 1.342 . S
C730 C734 1.401 . S
C730 C735 1.499 . S
N731 Co714 1.989 . S
N731 C730 1.342 . S
N731 N732 1.388 . S
N732 Co715 1.993 . S
N732 N731 1.388 . S
N732 C733 1.346 . S
C733 N732 1.346 . S
C733 C734 1.396 . S
C733 C743 1.510 . S
C734 C730 1.401 . S
C734 C733 1.396 . S
C735 C730 1.499 . S
C735 H736 0.959 . S
C735 H737 0.960 . S
C735 H738 0.961 . S
H736 C735 0.959 . S
H737 C735 0.960 . S
H738 C735 0.961 . S
O739 Co714 1.967 . S
O739 C747 1.258 . S
O740 Co715 1.941 . S
O740 C747 1.266 . S
H741 C743 0.959 . S
H742 C743 0.961 . S
C743 C733 1.510 . S
C743 H741 0.959 . S
C743 H742 0.961 . S
C743 H744 0.960 . S
H744 C743 0.960 . S
H745 N725 0.862 . S
O746 Co714 1.920 . S
O746 C719 1.289 . S
C747 O739 1.258 . S
C747 O740 1.266 . S
Co748 O751 1.970 . S
Co748 N765 1.989 . S
Co748 O773 1.967 . S
Co748 O780 1.920 . S
Co749 O752 1.966 . S
Co749 N758 2.022 . S
Co749 N766 1.993 . S
Co749 O774 1.941 . S
C750 O751 1.258 . S
C750 O752 1.263 . S
O751 Co748 1.970 . S
O751 C750 1.258 . S
O752 Co749 1.966 . S
O752 C750 1.263 . S
C753 O754 1.235 . S
C753 O780 1.289 . S
O754 C753 1.235 . S
C755 C757 1.400 . S
C755 N758 1.351 . S
C755 C760 1.501 . S
C756 C757 1.387 . S
C756 N759 1.341 . S
C757 C755 1.400 . S
C757 C756 1.387 . S
N758 Co749 2.022 . S
N758 C755 1.351 . S
N758 N759 1.365 . S
N759 C756 1.341 . S
N759 N758 1.365 . S
N759 H779 0.862 . S
C760 C755 1.501 . S
C760 H761 0.961 . S
C760 H762 0.961 . S
C760 H763 0.960 . S
H761 C760 0.961 . S
H762 C760 0.961 . S
H763 C760 0.960 . S
C764 N765 1.342 . S
C764 C768 1.401 . S
C764 C769 1.499 . S
N765 Co748 1.989 . S
N765 C764 1.342 . S
N765 N766 1.388 . S
N766 Co749 1.993 . S
N766 N765 1.388 . S
N766 C767 1.346 . S
C767 N766 1.346 . S
C767 C768 1.396 . S
C767 C777 1.510 . S
C768 C764 1.401 . S
C768 C767 1.396 . S
C769 C764 1.499 . S
C769 H770 0.959 . S
C769 H771 0.960 . S
C769 H772 0.961 . S
H770 C769 0.959 . S
H771 C769 0.960 . S
H772 C769 0.961 . S
O773 Co748 1.967 . S
O773 C781 1.258 . S
O774 Co749 1.941 . S
O774 C781 1.266 . S
H775 C777 0.959 . S
H776 C777 0.961 . S
C777 C767 1.510 . S
C777 H775 0.959 . S
C777 H776 0.961 . S
C777 H778 0.960 . S
H778 C777 0.960 . S
H779 N759 0.862 . S
O780 Co748 1.920 . S
O780 C753 1.289 . S
C781 O773 1.258 . S
C781 O774 1.266 . S
Co782 O785 1.970 . S
Co782 N799 1.989 . S
Co782 O807 1.967 . S
Co782 O814 1.920 . S
Co783 O786 1.966 . S
Co783 N792 2.022 . S
Co783 N800 1.993 . S
Co783 O808 1.941 . S
C784 O785 1.258 . S
C784 O786 1.263 . S
O785 Co782 1.970 . S
O785 C784 1.258 . S
O786 Co783 1.966 . S
O786 C784 1.263 . S
C787 O788 1.235 . S
C787 O814 1.289 . S
O788 C787 1.235 . S
C789 C791 1.400 . S
C789 N792 1.351 . S
C789 C794 1.501 . S
C790 C791 1.387 . S
C790 N793 1.341 . S
C791 C789 1.400 . S
C791 C790 1.387 . S
N792 Co783 2.022 . S
N792 C789 1.351 . S
N792 N793 1.365 . S
N793 C790 1.341 . S
N793 N792 1.365 . S
N793 H813 0.862 . S
C794 C789 1.501 . S
C794 H795 0.961 . S
C794 H796 0.961 . S
C794 H797 0.960 . S
H795 C794 0.961 . S
H796 C794 0.961 . S
H797 C794 0.960 . S
C798 N799 1.342 . S
C798 C802 1.401 . S
C798 C803 1.499 . S
N799 Co782 1.989 . S
N799 C798 1.342 . S
N799 N800 1.388 . S
N800 Co783 1.993 . S
N800 N799 1.388 . S
N800 C801 1.346 . S
C801 N800 1.346 . S
C801 C802 1.396 . S
C801 C811 1.510 . S
C802 C798 1.401 . S
C802 C801 1.396 . S
C803 C798 1.499 . S
C803 H804 0.959 . S
C803 H805 0.960 . S
C803 H806 0.961 . S
H804 C803 0.959 . S
H805 C803 0.960 . S
H806 C803 0.961 . S
O807 Co782 1.967 . S
O807 C815 1.258 . S
O808 Co783 1.941 . S
O808 C815 1.266 . S
H809 C811 0.959 . S
H810 C811 0.961 . S
C811 C801 1.510 . S
C811 H809 0.959 . S
C811 H810 0.961 . S
C811 H812 0.960 . S
H812 C811 0.960 . S
H813 N793 0.862 . S
O814 Co782 1.920 . S
O814 C787 1.289 . S
C815 O807 1.258 . S
C815 O808 1.266 . S
C816 C817 1.349 . S
C816 C818 1.327 . S
C816 H841 0.950 . S
C817 C816 1.349 . S
C817 C833 1.349 . S
C818 C816 1.327 . S
C818 C837 1.429 . S
C818 H842 0.950 . S
C819 C836 1.574 . S
C819 C838 1.368 . S
C819 H843 0.949 . S
H820 C824 0.949 . S
C821 C822 1.349 . S
C821 C823 1.327 . S
C821 H844 0.950 . S
C822 C821 1.349 . S
C822 C834 1.349 . S
C823 C821 1.327 . S
C823 C839 1.429 . S
C823 H845 0.950 . S
C824 H820 0.949 . S
C824 C832 1.574 . S
C824 C840 1.368 . S
H825 C833 0.950 . S
H826 C831 0.950 . S
H827 C832 0.949 . S
H828 C834 0.950 . S
H829 C835 0.950 . S
H830 C836 0.949 . S
C831 H826 0.950 . S
C831 C833 1.327 . S
C831 C837 1.429 . S
C832 C824 1.574 . S
C832 H827 0.949 . S
C832 C838 1.368 . S
C833 C817 1.349 . S
C833 H825 0.950 . S
C833 C831 1.327 . S
C834 C822 1.349 . S
C834 H828 0.950 . S
C834 C835 1.327 . S
C835 H829 0.950 . S
C835 C834 1.327 . S
C835 C839 1.429 . S
C836 C819 1.574 . S
C836 H830 0.949 . S
C836 C840 1.368 . S
C837 C818 1.429 . S
C837 C831 1.429 . S
C837 C838 1.523 . S
C838 C819 1.368 . S
C838 C832 1.368 . S
C838 C837 1.523 . S
C839 C823 1.429 . S
C839 C835 1.429 . S
C839 C840 1.523 . S
C840 C824 1.368 . S
C840 C836 1.368 . S
C840 C839 1.523 . S
H841 C816 0.950 . S
H842 C818 0.950 . S
H843 C819 0.949 . S
H844 C821 0.950 . S
H845 C823 0.950 . S
C846 C847 1.349 . S
C846 C848 1.327 . S
C846 H871 0.950 . S
C847 C846 1.349 . S
C847 C863 1.349 . S
C848 C846 1.327 . S
C848 C867 1.429 . S
C848 H872 0.950 . S
C849 C866 1.574 . S
C849 C868 1.368 . S
C849 H873 0.949 . S
H850 C854 0.949 . S
C851 C852 1.349 . S
C851 C853 1.327 . S
C851 H874 0.950 . S
C852 C851 1.349 . S
C852 C864 1.349 . S
C853 C851 1.327 . S
C853 C869 1.429 . S
C853 H875 0.950 . S
C854 H850 0.949 . S
C854 C862 1.574 . S
C854 C870 1.368 . S
H855 C863 0.950 . S
H856 C861 0.950 . S
H857 C862 0.949 . S
H858 C864 0.950 . S
H859 C865 0.950 . S
H860 C866 0.949 . S
C861 H856 0.950 . S
C861 C863 1.327 . S
C861 C867 1.429 . S
C862 C854 1.574 . S
C862 H857 0.949 . S
C862 C868 1.368 . S
C863 C847 1.349 . S
C863 H855 0.950 . S
C863 C861 1.327 . S
C864 C852 1.349 . S
C864 H858 0.950 . S
C864 C865 1.327 . S
C865 H859 0.950 . S
C865 C864 1.327 . S
C865 C869 1.429 . S
C866 C849 1.574 . S
C866 H860 0.949 . S
C866 C870 1.368 . S
C867 C848 1.429 . S
C867 C861 1.429 . S
C867 C868 1.523 . S
C868 C849 1.368 . S
C868 C862 1.368 . S
C868 C867 1.523 . S
C869 C853 1.429 . S
C869 C865 1.429 . S
C869 C870 1.523 . S
C870 C854 1.368 . S
C870 C866 1.368 . S
C870 C869 1.523 . S
H871 C846 0.950 . S
H872 C848 0.950 . S
H873 C849 0.949 . S
H874 C851 0.950 . S
H875 C853 0.950 . S
C876 C877 1.349 . S
C876 C878 1.327 . S
C876 H901 0.950 . S
C877 C876 1.349 . S
C877 C893 1.349 . S
C878 C876 1.327 . S
C878 C897 1.429 . S
C878 H902 0.950 . S
C879 C896 1.574 . S
C879 C898 1.368 . S
C879 H903 0.949 . S
H880 C884 0.949 . S
C881 C882 1.349 . S
C881 C883 1.327 . S
C881 H904 0.950 . S
C882 C881 1.349 . S
C882 C894 1.349 . S
C883 C881 1.327 . S
C883 C899 1.429 . S
C883 H905 0.950 . S
C884 H880 0.949 . S
C884 C892 1.574 . S
C884 C900 1.368 . S
H885 C893 0.950 . S
H886 C891 0.950 . S
H887 C892 0.949 . S
H888 C894 0.950 . S
H889 C895 0.950 . S
H890 C896 0.949 . S
C891 H886 0.950 . S
C891 C893 1.327 . S
C891 C897 1.429 . S
C892 C884 1.574 . S
C892 H887 0.949 . S
C892 C898 1.368 . S
C893 C877 1.349 . S
C893 H885 0.950 . S
C893 C891 1.327 . S
C894 C882 1.349 . S
C894 H888 0.950 . S
C894 C895 1.327 . S
C895 H889 0.950 . S
C895 C894 1.327 . S
C895 C899 1.429 . S
C896 C879 1.574 . S
C896 H890 0.949 . S
C896 C900 1.368 . S
C897 C878 1.429 . S
C897 C891 1.429 . S
C897 C898 1.523 . S
C898 C879 1.368 . S
C898 C892 1.368 . S
C898 C897 1.523 . S
C899 C883 1.429 . S
C899 C895 1.429 . S
C899 C900 1.523 . S
C900 C884 1.368 . S
C900 C896 1.368 . S
C900 C899 1.523 . S
H901 C876 0.950 . S
H902 C878 0.950 . S
H903 C879 0.949 . S
H904 C881 0.950 . S
H905 C883 0.950 . S
C906 C907 1.349 . S
C906 C908 1.327 . S
C906 H931 0.950 . S
C907 C906 1.349 . S
C907 C923 1.349 . S
C908 C906 1.327 . S
C908 C927 1.429 . S
C908 H932 0.950 . S
C909 C926 1.574 . S
C909 C928 1.368 . S
C909 H933 0.949 . S
H910 C914 0.949 . S
C911 C912 1.349 . S
C911 C913 1.327 . S
C911 H934 0.950 . S
C912 C911 1.349 . S
C912 C924 1.349 . S
C913 C911 1.327 . S
C913 C929 1.429 . S
C913 H935 0.950 . S
C914 H910 0.949 . S
C914 C922 1.574 . S
C914 C930 1.368 . S
H915 C923 0.950 . S
H916 C921 0.950 . S
H917 C922 0.949 . S
H918 C924 0.950 . S
H919 C925 0.950 . S
H920 C926 0.949 . S
C921 H916 0.950 . S
C921 C923 1.327 . S
C921 C927 1.429 . S
C922 C914 1.574 . S
C922 H917 0.949 . S
C922 C928 1.368 . S
C923 C907 1.349 . S
C923 H915 0.950 . S
C923 C921 1.327 . S
C924 C912 1.349 . S
C924 H918 0.950 . S
C924 C925 1.327 . S
C925 H919 0.950 . S
C925 C924 1.327 . S
C925 C929 1.429 . S
C926 C909 1.574 . S
C926 H920 0.949 . S
C926 C930 1.368 . S
C927 C908 1.429 . S
C927 C921 1.429 . S
C927 C928 1.523 . S
C928 C909 1.368 . S
C928 C922 1.368 . S
C928 C927 1.523 . S
C929 C913 1.429 . S
C929 C925 1.429 . S
C929 C930 1.523 . S
C930 C914 1.368 . S
C930 C926 1.368 . S
C930 C929 1.523 . S
H931 C906 0.950 . S
H932 C908 0.950 . S
H933 C909 0.949 . S
H934 C911 0.950 . S
H935 C913 0.950 . S
C936 C937 1.349 . S
C936 C938 1.327 . S
C936 H961 0.950 . S
C937 C936 1.349 . S
C937 C953 1.349 . S
C938 C936 1.327 . S
C938 C957 1.429 . S
C938 H962 0.950 . S
C939 C956 1.574 . S
C939 C958 1.368 . S
C939 H963 0.949 . S
H940 C944 0.949 . S
C941 C942 1.349 . S
C941 C943 1.327 . S
C941 H964 0.950 . S
C942 C941 1.349 . S
C942 C954 1.349 . S
C943 C941 1.327 . S
C943 C959 1.429 . S
C943 H965 0.950 . S
C944 H940 0.949 . S
C944 C952 1.574 . S
C944 C960 1.368 . S
H945 C953 0.950 . S
H946 C951 0.950 . S
H947 C952 0.949 . S
H948 C954 0.950 . S
H949 C955 0.950 . S
H950 C956 0.949 . S
C951 H946 0.950 . S
C951 C953 1.327 . S
C951 C957 1.429 . S
C952 C944 1.574 . S
C952 H947 0.949 . S
C952 C958 1.368 . S
C953 C937 1.349 . S
C953 H945 0.950 . S
C953 C951 1.327 . S
C954 C942 1.349 . S
C954 H948 0.950 . S
C954 C955 1.327 . S
C955 H949 0.950 . S
C955 C954 1.327 . S
C955 C959 1.429 . S
C956 C939 1.574 . S
C956 H950 0.949 . S
C956 C960 1.368 . S
C957 C938 1.429 . S
C957 C951 1.429 . S
C957 C958 1.523 . S
C958 C939 1.368 . S
C958 C952 1.368 . S
C958 C957 1.523 . S
C959 C943 1.429 . S
C959 C955 1.429 . S
C959 C960 1.523 . S
C960 C944 1.368 . S
C960 C956 1.368 . S
C960 C959 1.523 . S
H961 C936 0.950 . S
H962 C938 0.950 . S
H963 C939 0.949 . S
H964 C941 0.950 . S
H965 C943 0.950 . S
C966 C967 1.349 . S
C966 C968 1.327 . S
C966 H991 0.950 . S
C967 C966 1.349 . S
C967 C983 1.349 . S
C968 C966 1.327 . S
C968 C987 1.429 . S
C968 H992 0.950 . S
C969 C986 1.574 . S
C969 C988 1.368 . S
C969 H993 0.949 . S
H970 C974 0.949 . S
C971 C972 1.349 . S
C971 C973 1.327 . S
C971 H994 0.950 . S
C972 C971 1.349 . S
C972 C984 1.349 . S
C973 C971 1.327 . S
C973 C989 1.429 . S
C973 H995 0.950 . S
C974 H970 0.949 . S
C974 C982 1.574 . S
C974 C990 1.368 . S
H975 C983 0.950 . S
H976 C981 0.950 . S
H977 C982 0.949 . S
H978 C984 0.950 . S
H979 C985 0.950 . S
H980 C986 0.949 . S
C981 H976 0.950 . S
C981 C983 1.327 . S
C981 C987 1.429 . S
C982 C974 1.574 . S
C982 H977 0.949 . S
C982 C988 1.368 . S
C983 C967 1.349 . S
C983 H975 0.950 . S
C983 C981 1.327 . S
C984 C972 1.349 . S
C984 H978 0.950 . S
C984 C985 1.327 . S
C985 H979 0.950 . S
C985 C984 1.327 . S
C985 C989 1.429 . S
C986 C969 1.574 . S
C986 H980 0.949 . S
C986 C990 1.368 . S
C987 C968 1.429 . S
C987 C981 1.429 . S
C987 C988 1.523 . S
C988 C969 1.368 . S
C988 C982 1.368 . S
C988 C987 1.523 . S
C989 C973 1.429 . S
C989 C985 1.429 . S
C989 C990 1.523 . S
C990 C974 1.368 . S
C990 C986 1.368 . S
C990 C989 1.523 . S
H991 C966 0.950 . S
H992 C968 0.950 . S
H993 C969 0.949 . S
H994 C971 0.950 . S
H995 C973 0.950 . S
C996 C997 1.349 . S
C996 C998 1.327 . S
C996 H1021 0.950 . S
C997 C996 1.349 . S
C997 C1013 1.349 . S
C998 C996 1.327 . S
C998 C1017 1.429 . S
C998 H1022 0.950 . S
C999 C1016 1.574 . S
C999 C1018 1.368 . S
C999 H1023 0.949 . S
H1000 C1004 0.949 . S
C1001 C1002 1.349 . S
C1001 C1003 1.327 . S
C1001 H1024 0.950 . S
C1002 C1001 1.349 . S
C1002 C1014 1.349 . S
C1003 C1001 1.327 . S
C1003 C1019 1.429 . S
C1003 H1025 0.950 . S
C1004 H1000 0.949 . S
C1004 C1012 1.574 . S
C1004 C1020 1.368 . S
H1005 C1013 0.950 . S
H1006 C1011 0.950 . S
H1007 C1012 0.949 . S
H1008 C1014 0.950 . S
H1009 C1015 0.950 . S
H1010 C1016 0.949 . S
C1011 H1006 0.950 . S
C1011 C1013 1.327 . S
C1011 C1017 1.429 . S
C1012 C1004 1.574 . S
C1012 H1007 0.949 . S
C1012 C1018 1.368 . S
C1013 C997 1.349 . S
C1013 H1005 0.950 . S
C1013 C1011 1.327 . S
C1014 C1002 1.349 . S
C1014 H1008 0.950 . S
C1014 C1015 1.327 . S
C1015 H1009 0.950 . S
C1015 C1014 1.327 . S
C1015 C1019 1.429 . S
C1016 C999 1.574 . S
C1016 H1010 0.949 . S
C1016 C1020 1.368 . S
C1017 C998 1.429 . S
C1017 C1011 1.429 . S
C1017 C1018 1.523 . S
C1018 C999 1.368 . S
C1018 C1012 1.368 . S
C1018 C1017 1.523 . S
C1019 C1003 1.429 . S
C1019 C1015 1.429 . S
C1019 C1020 1.523 . S
C1020 C1004 1.368 . S
C1020 C1016 1.368 . S
C1020 C1019 1.523 . S
H1021 C996 0.950 . S
H1022 C998 0.950 . S
H1023 C999 0.949 . S
H1024 C1001 0.950 . S
H1025 C1003 0.950 . S
C1026 C1027 1.349 . S
C1026 C1028 1.327 . S
C1026 H1051 0.950 . S
C1027 C1026 1.349 . S
C1027 C1043 1.349 . S
C1028 C1026 1.327 . S
C1028 C1047 1.429 . S
C1028 H1052 0.950 . S
C1029 C1046 1.574 . S
C1029 C1048 1.368 . S
C1029 H1053 0.949 . S
H1030 C1034 0.949 . S
C1031 C1032 1.349 . S
C1031 C1033 1.327 . S
C1031 H1054 0.950 . S
C1032 C1031 1.349 . S
C1032 C1044 1.349 . S
C1033 C1031 1.327 . S
C1033 C1049 1.429 . S
C1033 H1055 0.950 . S
C1034 H1030 0.949 . S
C1034 C1042 1.574 . S
C1034 C1050 1.368 . S
H1035 C1043 0.950 . S
H1036 C1041 0.950 . S
H1037 C1042 0.949 . S
H1038 C1044 0.950 . S
H1039 C1045 0.950 . S
H1040 C1046 0.949 . S
C1041 H1036 0.950 . S
C1041 C1043 1.327 . S
C1041 C1047 1.429 . S
C1042 C1034 1.574 . S
C1042 H1037 0.949 . S
C1042 C1048 1.368 . S
C1043 C1027 1.349 . S
C1043 H1035 0.950 . S
C1043 C1041 1.327 . S
C1044 C1032 1.349 . S
C1044 H1038 0.950 . S
C1044 C1045 1.327 . S
C1045 H1039 0.950 . S
C1045 C1044 1.327 . S
C1045 C1049 1.429 . S
C1046 C1029 1.574 . S
C1046 H1040 0.949 . S
C1046 C1050 1.368 . S
C1047 C1028 1.429 . S
C1047 C1041 1.429 . S
C1047 C1048 1.523 . S
C1048 C1029 1.368 . S
C1048 C1042 1.368 . S
C1048 C1047 1.523 . S
C1049 C1033 1.429 . S
C1049 C1045 1.429 . S
C1049 C1050 1.523 . S
C1050 C1034 1.368 . S
C1050 C1046 1.368 . S
C1050 C1049 1.523 . S
H1051 C1026 0.950 . S
H1052 C1028 0.950 . S
H1053 C1029 0.949 . S
H1054 C1031 0.950 . S
H1055 C1033 0.950 . S
C1056 C1057 1.349 . S
C1056 C1058 1.327 . S
C1056 H1081 0.950 . S
C1057 C1056 1.349 . S
C1057 C1073 1.349 . S
C1058 C1056 1.327 . S
C1058 C1077 1.429 . S
C1058 H1082 0.950 . S
C1059 C1076 1.574 . S
C1059 C1078 1.368 . S
C1059 H1083 0.949 . S
H1060 C1064 0.949 . S
C1061 C1062 1.349 . S
C1061 C1063 1.327 . S
C1061 H1084 0.950 . S
C1062 C1061 1.349 . S
C1062 C1074 1.349 . S
C1063 C1061 1.327 . S
C1063 C1079 1.429 . S
C1063 H1085 0.950 . S
C1064 H1060 0.949 . S
C1064 C1072 1.574 . S
C1064 C1080 1.368 . S
H1065 C1073 0.950 . S
H1066 C1071 0.950 . S
H1067 C1072 0.949 . S
H1068 C1074 0.950 . S
H1069 C1075 0.950 . S
H1070 C1076 0.949 . S
C1071 H1066 0.950 . S
C1071 C1073 1.327 . S
C1071 C1077 1.429 . S
C1072 C1064 1.574 . S
C1072 H1067 0.949 . S
C1072 C1078 1.368 . S
C1073 C1057 1.349 . S
C1073 H1065 0.950 . S
C1073 C1071 1.327 . S
C1074 C1062 1.349 . S
C1074 H1068 0.950 . S
C1074 C1075 1.327 . S
C1075 H1069 0.950 . S
C1075 C1074 1.327 . S
C1075 C1079 1.429 . S
C1076 C1059 1.574 . S
C1076 H1070 0.949 . S
C1076 C1080 1.368 . S
C1077 C1058 1.429 . S
C1077 C1071 1.429 . S
C1077 C1078 1.523 . S
C1078 C1059 1.368 . S
C1078 C1072 1.368 . S
C1078 C1077 1.523 . S
C1079 C1063 1.429 . S
C1079 C1075 1.429 . S
C1079 C1080 1.523 . S
C1080 C1064 1.368 . S
C1080 C1076 1.368 . S
C1080 C1079 1.523 . S
H1081 C1056 0.950 . S
H1082 C1058 0.950 . S
H1083 C1059 0.949 . S
H1084 C1061 0.950 . S
H1085 C1063 0.950 . S
C1086 C1087 1.349 . S
C1086 C1088 1.327 . S
C1086 H1111 0.950 . S
C1087 C1086 1.349 . S
C1087 C1103 1.349 . S
C1088 C1086 1.327 . S
C1088 C1107 1.429 . S
C1088 H1112 0.950 . S
C1089 C1106 1.574 . S
C1089 C1108 1.368 . S
C1089 H1113 0.949 . S
H1090 C1094 0.949 . S
C1091 C1092 1.349 . S
C1091 C1093 1.327 . S
C1091 H1114 0.950 . S
C1092 C1091 1.349 . S
C1092 C1104 1.349 . S
C1093 C1091 1.327 . S
C1093 C1109 1.429 . S
C1093 H1115 0.950 . S
C1094 H1090 0.949 . S
C1094 C1102 1.574 . S
C1094 C1110 1.368 . S
H1095 C1103 0.950 . S
H1096 C1101 0.950 . S
H1097 C1102 0.949 . S
H1098 C1104 0.950 . S
H1099 C1105 0.950 . S
H1100 C1106 0.949 . S
C1101 H1096 0.950 . S
C1101 C1103 1.327 . S
C1101 C1107 1.429 . S
C1102 C1094 1.574 . S
C1102 H1097 0.949 . S
C1102 C1108 1.368 . S
C1103 C1087 1.349 . S
C1103 H1095 0.950 . S
C1103 C1101 1.327 . S
C1104 C1092 1.349 . S
C1104 H1098 0.950 . S
C1104 C1105 1.327 . S
C1105 H1099 0.950 . S
C1105 C1104 1.327 . S
C1105 C1109 1.429 . S
C1106 C1089 1.574 . S
C1106 H1100 0.949 . S
C1106 C1110 1.368 . S
C1107 C1088 1.429 . S
C1107 C1101 1.429 . S
C1107 C1108 1.523 . S
C1108 C1089 1.368 . S
C1108 C1102 1.368 . S
C1108 C1107 1.523 . S
C1109 C1093 1.429 . S
C1109 C1105 1.429 . S
C1109 C1110 1.523 . S
C1110 C1094 1.368 . S
C1110 C1106 1.368 . S
C1110 C1109 1.523 . S
H1111 C1086 0.950 . S
H1112 C1088 0.950 . S
H1113 C1089 0.949 . S
H1114 C1091 0.950 . S
H1115 C1093 0.950 . S
C1116 C1117 1.349 . S
C1116 C1118 1.327 . S
C1116 H1141 0.950 . S
C1117 C1116 1.349 . S
C1117 C1133 1.349 . S
C1118 C1116 1.327 . S
C1118 C1137 1.429 . S
C1118 H1142 0.950 . S
C1119 C1136 1.574 . S
C1119 C1138 1.368 . S
C1119 H1143 0.949 . S
H1120 C1124 0.949 . S
C1121 C1122 1.349 . S
C1121 C1123 1.327 . S
C1121 H1144 0.950 . S
C1122 C1121 1.349 . S
C1122 C1134 1.349 . S
C1123 C1121 1.327 . S
C1123 C1139 1.429 . S
C1123 H1145 0.950 . S
C1124 H1120 0.949 . S
C1124 C1132 1.574 . S
C1124 C1140 1.368 . S
H1125 C1133 0.950 . S
H1126 C1131 0.950 . S
H1127 C1132 0.949 . S
H1128 C1134 0.950 . S
H1129 C1135 0.950 . S
H1130 C1136 0.949 . S
C1131 H1126 0.950 . S
C1131 C1133 1.327 . S
C1131 C1137 1.429 . S
C1132 C1124 1.574 . S
C1132 H1127 0.949 . S
C1132 C1138 1.368 . S
C1133 C1117 1.349 . S
C1133 H1125 0.950 . S
C1133 C1131 1.327 . S
C1134 C1122 1.349 . S
C1134 H1128 0.950 . S
C1134 C1135 1.327 . S
C1135 H1129 0.950 . S
C1135 C1134 1.327 . S
C1135 C1139 1.429 . S
C1136 C1119 1.574 . S
C1136 H1130 0.949 . S
C1136 C1140 1.368 . S
C1137 C1118 1.429 . S
C1137 C1131 1.429 . S
C1137 C1138 1.523 . S
C1138 C1119 1.368 . S
C1138 C1132 1.368 . S
C1138 C1137 1.523 . S
C1139 C1123 1.429 . S
C1139 C1135 1.429 . S
C1139 C1140 1.523 . S
C1140 C1124 1.368 . S
C1140 C1136 1.368 . S
C1140 C1139 1.523 . S
H1141 C1116 0.950 . S
H1142 C1118 0.950 . S
H1143 C1119 0.949 . S
H1144 C1121 0.950 . S
H1145 C1123 0.950 . S
C1146 C1147 1.349 . S
C1146 C1148 1.327 . S
C1146 H1171 0.950 . S
C1147 C1146 1.349 . S
C1147 C1163 1.349 . S
C1148 C1146 1.327 . S
C1148 C1167 1.429 . S
C1148 H1172 0.950 . S
C1149 C1166 1.574 . S
C1149 C1168 1.368 . S
C1149 H1173 0.949 . S
H1150 C1154 0.949 . S
C1151 C1152 1.349 . S
C1151 C1153 1.327 . S
C1151 H1174 0.950 . S
C1152 C1151 1.349 . S
C1152 C1164 1.349 . S
C1153 C1151 1.327 . S
C1153 C1169 1.429 . S
C1153 H1175 0.950 . S
C1154 H1150 0.949 . S
C1154 C1162 1.574 . S
C1154 C1170 1.368 . S
H1155 C1163 0.950 . S
H1156 C1161 0.950 . S
H1157 C1162 0.949 . S
H1158 C1164 0.950 . S
H1159 C1165 0.950 . S
H1160 C1166 0.949 . S
C1161 H1156 0.950 . S
C1161 C1163 1.327 . S
C1161 C1167 1.429 . S
C1162 C1154 1.574 . S
C1162 H1157 0.949 . S
C1162 C1168 1.368 . S
C1163 C1147 1.349 . S
C1163 H1155 0.950 . S
C1163 C1161 1.327 . S
C1164 C1152 1.349 . S
C1164 H1158 0.950 . S
C1164 C1165 1.327 . S
C1165 H1159 0.950 . S
C1165 C1164 1.327 . S
C1165 C1169 1.429 . S
C1166 C1149 1.574 . S
C1166 H1160 0.949 . S
C1166 C1170 1.368 . S
C1167 C1148 1.429 . S
C1167 C1161 1.429 . S
C1167 C1168 1.523 . S
C1168 C1149 1.368 . S
C1168 C1162 1.368 . S
C1168 C1167 1.523 . S
C1169 C1153 1.429 . S
C1169 C1165 1.429 . S
C1169 C1170 1.523 . S
C1170 C1154 1.368 . S
C1170 C1166 1.368 . S
C1170 C1169 1.523 . S
H1171 C1146 0.950 . S
H1172 C1148 0.950 . S
H1173 C1149 0.949 . S
H1174 C1151 0.950 . S
H1175 C1153 0.950 . S
C1176 C1177 1.349 . S
C1176 C1178 1.327 . S
C1176 H1201 0.950 . S
C1177 C1176 1.349 . S
C1177 C1193 1.349 . S
C1178 C1176 1.327 . S
C1178 C1197 1.429 . S
C1178 H1202 0.950 . S
C1179 C1196 1.574 . S
C1179 C1198 1.368 . S
C1179 H1203 0.949 . S
H1180 C1184 0.949 1_545 S
C1181 C1182 1.349 . S
C1181 C1183 1.327 . S
C1181 H1204 0.950 . S
C1182 C1181 1.349 . S
C1182 C1194 1.349 . S
C1183 C1181 1.327 . S
C1183 C1199 1.429 . S
C1183 H1205 0.950 . S
C1184 H1180 0.949 1_565 S
C1184 C1192 1.574 . S
C1184 C1200 1.368 1_565 S
H1185 C1193 0.950 . S
H1186 C1191 0.950 . S
H1187 C1192 0.949 . S
H1188 C1194 0.950 . S
H1189 C1195 0.950 . S
H1190 C1196 0.949 1_545 S
C1191 H1186 0.950 . S
C1191 C1193 1.327 . S
C1191 C1197 1.429 . S
C1192 C1184 1.574 . S
C1192 H1187 0.949 . S
C1192 C1198 1.368 . S
C1193 C1177 1.349 . S
C1193 H1185 0.950 . S
C1193 C1191 1.327 . S
C1194 C1182 1.349 . S
C1194 H1188 0.950 . S
C1194 C1195 1.327 . S
C1195 H1189 0.950 . S
C1195 C1194 1.327 . S
C1195 C1199 1.429 . S
C1196 C1179 1.574 . S
C1196 H1190 0.949 1_565 S
C1196 C1200 1.368 1_565 S
C1197 C1178 1.429 . S
C1197 C1191 1.429 . S
C1197 C1198 1.523 . S
C1198 C1179 1.368 . S
C1198 C1192 1.368 . S
C1198 C1197 1.523 . S
C1199 C1183 1.429 . S
C1199 C1195 1.429 . S
C1199 C1200 1.523 . S
C1200 C1184 1.368 1_545 S
C1200 C1196 1.368 1_545 S
C1200 C1199 1.523 . S
H1201 C1176 0.950 . S
H1202 C1178 0.950 . S
H1203 C1179 0.949 . S
H1204 C1181 0.950 . S
H1205 C1183 0.950 . S
C1206 C1207 1.349 . S
C1206 C1208 1.327 . S
C1206 H1231 0.950 . S
C1207 C1206 1.349 . S
C1207 C1223 1.349 . S
C1208 C1206 1.327 . S
C1208 C1227 1.429 . S
C1208 H1232 0.950 . S
C1209 C1226 1.574 . S
C1209 C1228 1.368 1_455 S
C1209 H1233 0.949 1_455 S
H1210 C1214 0.949 . S
C1211 C1212 1.349 . S
C1211 C1213 1.327 . S
C1211 H1234 0.950 . S
C1212 C1211 1.349 . S
C1212 C1224 1.349 . S
C1213 C1211 1.327 . S
C1213 C1229 1.429 . S
C1213 H1235 0.950 . S
C1214 H1210 0.949 . S
C1214 C1222 1.574 . S
C1214 C1230 1.368 . S
H1215 C1223 0.950 . S
H1216 C1221 0.950 . S
H1217 C1222 0.949 1_655 S
H1218 C1224 0.950 . S
H1219 C1225 0.950 . S
H1220 C1226 0.949 . S
C1221 H1216 0.950 . S
C1221 C1223 1.327 . S
C1221 C1227 1.429 . S
C1222 C1214 1.574 . S
C1222 H1217 0.949 1_455 S
C1222 C1228 1.368 1_455 S
C1223 C1207 1.349 . S
C1223 H1215 0.950 . S
C1223 C1221 1.327 . S
C1224 C1212 1.349 . S
C1224 H1218 0.950 . S
C1224 C1225 1.327 . S
C1225 H1219 0.950 . S
C1225 C1224 1.327 . S
C1225 C1229 1.429 . S
C1226 C1209 1.574 . S
C1226 H1220 0.949 . S
C1226 C1230 1.368 . S
C1227 C1208 1.429 . S
C1227 C1221 1.429 . S
C1227 C1228 1.523 . S
C1228 C1209 1.368 1_655 S
C1228 C1222 1.368 1_655 S
C1228 C1227 1.523 . S
C1229 C1213 1.429 . S
C1229 C1225 1.429 . S
C1229 C1230 1.523 . S
C1230 C1214 1.368 . S
C1230 C1226 1.368 . S
C1230 C1229 1.523 . S
H1231 C1206 0.950 . S
H1232 C1208 0.950 . S
H1233 C1209 0.949 1_655 S
H1234 C1211 0.950 . S
H1235 C1213 0.950 . S
C1236 C1237 1.349 . S
C1236 C1238 1.327 . S
C1236 H1261 0.950 . S
C1237 C1236 1.349 . S
C1237 C1253 1.349 . S
C1238 C1236 1.327 . S
C1238 C1257 1.429 . S
C1238 H1262 0.950 . S
C1239 C1256 1.574 . S
C1239 C1258 1.368 1_545 S
C1239 H1263 0.949 1_545 S
H1240 C1244 0.949 . S
C1241 C1242 1.349 . S
C1241 C1243 1.327 . S
C1241 H1264 0.950 . S
C1242 C1241 1.349 . S
C1242 C1254 1.349 . S
C1243 C1241 1.327 . S
C1243 C1259 1.429 . S
C1243 H1265 0.950 . S
C1244 H1240 0.949 . S
C1244 C1252 1.574 . S
C1244 C1260 1.368 . S
H1245 C1253 0.950 . S
H1246 C1251 0.950 . S
H1247 C1252 0.949 1_565 S
H1248 C1254 0.950 . S
H1249 C1255 0.950 . S
H1250 C1256 0.949 . S
C1251 H1246 0.950 . S
C1251 C1253 1.327 . S
C1251 C1257 1.429 . S
C1252 C1244 1.574 . S
C1252 H1247 0.949 1_545 S
C1252 C1258 1.368 1_545 S
C1253 C1237 1.349 . S
C1253 H1245 0.950 . S
C1253 C1251 1.327 . S
C1254 C1242 1.349 . S
C1254 H1248 0.950 . S
C1254 C1255 1.327 . S
C1255 H1249 0.950 . S
C1255 C1254 1.327 . S
C1255 C1259 1.429 . S
C1256 C1239 1.574 . S
C1256 H1250 0.949 . S
C1256 C1260 1.368 . S
C1257 C1238 1.429 . S
C1257 C1251 1.429 . S
C1257 C1258 1.523 . S
C1258 C1239 1.368 1_565 S
C1258 C1252 1.368 1_565 S
C1258 C1257 1.523 . S
C1259 C1243 1.429 . S
C1259 C1255 1.429 . S
C1259 C1260 1.523 . S
C1260 C1244 1.368 . S
C1260 C1256 1.368 . S
C1260 C1259 1.523 . S
H1261 C1236 0.950 . S
H1262 C1238 0.950 . S
H1263 C1239 0.949 1_565 S
H1264 C1241 0.950 . S
H1265 C1243 0.950 . S
C1266 C1267 1.349 . S
C1266 C1268 1.327 . S
C1266 H1291 0.950 . S
C1267 C1266 1.349 . S
C1267 C1283 1.349 . S
C1268 C1266 1.327 . S
C1268 C1287 1.429 . S
C1268 H1292 0.950 . S
C1269 C1286 1.574 . S
C1269 C1288 1.368 . S
C1269 H1293 0.949 . S
H1270 C1274 0.949 1_455 S
C1271 C1272 1.349 . S
C1271 C1273 1.327 . S
C1271 H1294 0.950 . S
C1272 C1271 1.349 . S
C1272 C1284 1.349 . S
C1273 C1271 1.327 . S
C1273 C1289 1.429 . S
C1273 H1295 0.950 . S
C1274 H1270 0.949 1_655 S
C1274 C1282 1.574 . S
C1274 C1290 1.368 1_655 S
H1275 C1283 0.950 . S
H1276 C1281 0.950 . S
H1277 C1282 0.949 . S
H1278 C1284 0.950 . S
H1279 C1285 0.950 . S
H1280 C1286 0.949 1_455 S
C1281 H1276 0.950 . S
C1281 C1283 1.327 . S
C1281 C1287 1.429 . S
C1282 C1274 1.574 . S
C1282 H1277 0.949 . S
C1282 C1288 1.368 . S
C1283 C1267 1.349 . S
C1283 H1275 0.950 . S
C1283 C1281 1.327 . S
C1284 C1272 1.349 . S
C1284 H1278 0.950 . S
C1284 C1285 1.327 . S
C1285 H1279 0.950 . S
C1285 C1284 1.327 . S
C1285 C1289 1.429 . S
C1286 C1269 1.574 . S
C1286 H1280 0.949 1_655 S
C1286 C1290 1.368 1_655 S
C1287 C1268 1.429 . S
C1287 C1281 1.429 . S
C1287 C1288 1.523 . S
C1288 C1269 1.368 . S
C1288 C1282 1.368 . S
C1288 C1287 1.523 . S
C1289 C1273 1.429 . S
C1289 C1285 1.429 . S
C1289 C1290 1.523 . S
C1290 C1274 1.368 1_455 S
C1290 C1286 1.368 1_455 S
C1290 C1289 1.523 . S
H1291 C1266 0.950 . S
H1292 C1268 0.950 . S
H1293 C1269 0.949 . S
H1294 C1271 0.950 . S
H1295 C1273 0.950 . S
C1296 C1297 1.349 . S
C1296 C1298 1.327 . S
C1296 H1321 0.950 . S
C1297 C1296 1.349 . S
C1297 C1313 1.349 . S
C1298 C1296 1.327 . S
C1298 C1317 1.429 . S
C1298 H1322 0.950 . S
C1299 C1316 1.574 . S
C1299 C1318 1.368 . S
C1299 H1323 0.949 . S
H1300 C1304 0.949 1_565 S
C1301 C1302 1.349 . S
C1301 C1303 1.327 . S
C1301 H1324 0.950 . S
C1302 C1301 1.349 . S
C1302 C1314 1.349 . S
C1303 C1301 1.327 . S
C1303 C1319 1.429 . S
C1303 H1325 0.950 . S
C1304 H1300 0.949 1_545 S
C1304 C1312 1.574 . S
C1304 C1320 1.368 1_545 S
H1305 C1313 0.950 . S
H1306 C1311 0.950 . S
H1307 C1312 0.949 . S
H1308 C1314 0.950 . S
H1309 C1315 0.950 . S
H1310 C1316 0.949 1_565 S
C1311 H1306 0.950 . S
C1311 C1313 1.327 . S
C1311 C1317 1.429 . S
C1312 C1304 1.574 . S
C1312 H1307 0.949 . S
C1312 C1318 1.368 . S
C1313 C1297 1.349 . S
C1313 H1305 0.950 . S
C1313 C1311 1.327 . S
C1314 C1302 1.349 . S
C1314 H1308 0.950 . S
C1314 C1315 1.327 . S
C1315 H1309 0.950 . S
C1315 C1314 1.327 . S
C1315 C1319 1.429 . S
C1316 C1299 1.574 . S
C1316 H1310 0.949 1_545 S
C1316 C1320 1.368 1_545 S
C1317 C1298 1.429 . S
C1317 C1311 1.429 . S
C1317 C1318 1.523 . S
C1318 C1299 1.368 . S
C1318 C1312 1.368 . S
C1318 C1317 1.523 . S
C1319 C1303 1.429 . S
C1319 C1315 1.429 . S
C1319 C1320 1.523 . S
C1320 C1304 1.368 1_565 S
C1320 C1316 1.368 1_565 S
C1320 C1319 1.523 . S
H1321 C1296 0.950 . S
H1322 C1298 0.950 . S
H1323 C1299 0.949 . S
H1324 C1301 0.950 . S
H1325 C1303 0.950 . S
C1326 C1327 1.349 . S
C1326 C1328 1.327 . S
C1326 H1351 0.950 . S
C1327 C1326 1.349 . S
C1327 C1343 1.349 . S
C1328 C1326 1.327 . S
C1328 C1347 1.429 . S
C1328 H1352 0.950 . S
C1329 C1346 1.574 . S
C1329 C1348 1.368 1_655 S
C1329 H1353 0.949 1_655 S
H1330 C1334 0.949 . S
C1331 C1332 1.349 . S
C1331 C1333 1.327 . S
C1331 H1354 0.950 . S
C1332 C1331 1.349 . S
C1332 C1344 1.349 . S
C1333 C1331 1.327 . S
C1333 C1349 1.429 . S
C1333 H1355 0.950 . S
C1334 H1330 0.949 . S
C1334 C1342 1.574 . S
C1334 C1350 1.368 . S
H1335 C1343 0.950 . S
H1336 C1341 0.950 . S
H1337 C1342 0.949 1_455 S
H1338 C1344 0.950 . S
H1339 C1345 0.950 . S
H1340 C1346 0.949 . S
C1341 H1336 0.950 . S
C1341 C1343 1.327 . S
C1341 C1347 1.429 . S
C1342 C1334 1.574 . S
C1342 H1337 0.949 1_655 S
C1342 C1348 1.368 1_655 S
C1343 C1327 1.349 . S
C1343 H1335 0.950 . S
C1343 C1341 1.327 . S
C1344 C1332 1.349 . S
C1344 H1338 0.950 . S
C1344 C1345 1.327 . S
C1345 H1339 0.950 . S
C1345 C1344 1.327 . S
C1345 C1349 1.429 . S
C1346 C1329 1.574 . S
C1346 H1340 0.949 . S
C1346 C1350 1.368 . S
C1347 C1328 1.429 . S
C1347 C1341 1.429 . S
C1347 C1348 1.523 . S
C1348 C1329 1.368 1_455 S
C1348 C1342 1.368 1_455 S
C1348 C1347 1.523 . S
C1349 C1333 1.429 . S
C1349 C1345 1.429 . S
C1349 C1350 1.523 . S
C1350 C1334 1.368 . S
C1350 C1346 1.368 . S
C1350 C1349 1.523 . S
H1351 C1326 0.950 . S
H1352 C1328 0.950 . S
H1353 C1329 0.949 1_455 S
H1354 C1331 0.950 . S
H1355 C1333 0.950 . S
C1356 C1357 1.349 . S
C1356 C1358 1.327 . S
C1356 H1381 0.950 . S
C1357 C1356 1.349 . S
C1357 C1373 1.349 . S
C1358 C1356 1.327 . S
C1358 C1377 1.429 . S
C1358 H1382 0.950 . S
C1359 C1376 1.574 . S
C1359 C1378 1.368 . S
C1359 H1383 0.949 . S
H1360 C1364 0.949 1_545 S
C1361 C1362 1.349 . S
C1361 C1363 1.327 . S
C1361 H1384 0.950 . S
C1362 C1361 1.349 . S
C1362 C1374 1.349 . S
C1363 C1361 1.327 . S
C1363 C1379 1.429 . S
C1363 H1385 0.950 . S
C1364 H1360 0.949 1_565 S
C1364 C1372 1.574 . S
C1364 C1380 1.368 1_565 S
H1365 C1373 0.950 . S
H1366 C1371 0.950 . S
H1367 C1372 0.949 . S
H1368 C1374 0.950 . S
H1369 C1375 0.950 . S
H1370 C1376 0.949 1_545 S
C1371 H1366 0.950 . S
C1371 C1373 1.327 . S
C1371 C1377 1.429 . S
C1372 C1364 1.574 . S
C1372 H1367 0.949 . S
C1372 C1378 1.368 . S
C1373 C1357 1.349 . S
C1373 H1365 0.950 . S
C1373 C1371 1.327 . S
C1374 C1362 1.349 . S
C1374 H1368 0.950 . S
C1374 C1375 1.327 . S
C1375 H1369 0.950 . S
C1375 C1374 1.327 . S
C1375 C1379 1.429 . S
C1376 C1359 1.574 . S
C1376 H1370 0.949 1_565 S
C1376 C1380 1.368 1_565 S
C1377 C1358 1.429 . S
C1377 C1371 1.429 . S
C1377 C1378 1.523 . S
C1378 C1359 1.368 . S
C1378 C1372 1.368 . S
C1378 C1377 1.523 . S
C1379 C1363 1.429 . S
C1379 C1375 1.429 . S
C1379 C1380 1.523 . S
C1380 C1364 1.368 1_545 S
C1380 C1376 1.368 1_545 S
C1380 C1379 1.523 . S
H1381 C1356 0.950 . S
H1382 C1358 0.950 . S
H1383 C1359 0.949 . S
H1384 C1361 0.950 . S
H1385 C1363 0.950 . S
C1386 C1387 1.349 . S
C1386 C1388 1.327 . S
C1386 H1411 0.950 . S
C1387 C1386 1.349 . S
C1387 C1403 1.349 . S
C1388 C1386 1.327 . S
C1388 C1407 1.429 . S
C1388 H1412 0.950 . S
C1389 C1406 1.574 . S
C1389 C1408 1.368 . S
C1389 H1413 0.949 . S
H1390 C1394 0.949 1_655 S
C1391 C1392 1.349 . S
C1391 C1393 1.327 . S
C1391 H1414 0.950 . S
C1392 C1391 1.349 . S
C1392 C1404 1.349 . S
C1393 C1391 1.327 . S
C1393 C1409 1.429 . S
C1393 H1415 0.950 . S
C1394 H1390 0.949 1_455 S
C1394 C1402 1.574 . S
C1394 C1410 1.368 1_455 S
H1395 C1403 0.950 . S
H1396 C1401 0.950 . S
H1397 C1402 0.949 . S
H1398 C1404 0.950 . S
H1399 C1405 0.950 . S
H1400 C1406 0.949 1_655 S
C1401 H1396 0.950 . S
C1401 C1403 1.327 . S
C1401 C1407 1.429 . S
C1402 C1394 1.574 . S
C1402 H1397 0.949 . S
C1402 C1408 1.368 . S
C1403 C1387 1.349 . S
C1403 H1395 0.950 . S
C1403 C1401 1.327 . S
C1404 C1392 1.349 . S
C1404 H1398 0.950 . S
C1404 C1405 1.327 . S
C1405 H1399 0.950 . S
C1405 C1404 1.327 . S
C1405 C1409 1.429 . S
C1406 C1389 1.574 . S
C1406 H1400 0.949 1_455 S
C1406 C1410 1.368 1_455 S
C1407 C1388 1.429 . S
C1407 C1401 1.429 . S
C1407 C1408 1.523 . S
C1408 C1389 1.368 . S
C1408 C1402 1.368 . S
C1408 C1407 1.523 . S
C1409 C1393 1.429 . S
C1409 C1405 1.429 . S
C1409 C1410 1.523 . S
C1410 C1394 1.368 1_655 S
C1410 C1406 1.368 1_655 S
C1410 C1409 1.523 . S
H1411 C1386 0.950 . S
H1412 C1388 0.950 . S
H1413 C1389 0.949 . S
H1414 C1391 0.950 . S
H1415 C1393 0.950 . S
C1416 C1417 1.349 . S
C1416 C1418 1.327 . S
C1416 H1441 0.950 . S
C1417 C1416 1.349 . S
C1417 C1433 1.349 . S
C1418 C1416 1.327 . S
C1418 C1437 1.429 . S
C1418 H1442 0.950 . S
C1419 C1436 1.574 . S
C1419 C1438 1.368 . S
C1419 H1443 0.949 . S
H1420 C1424 0.949 1_554 S
C1421 C1422 1.349 . S
C1421 C1423 1.327 . S
C1421 H1444 0.950 . S
C1422 C1421 1.349 . S
C1422 C1434 1.349 . S
C1423 C1421 1.327 . S
C1423 C1439 1.429 . S
C1423 H1445 0.950 . S
C1424 H1420 0.949 1_556 S
C1424 C1432 1.574 . S
C1424 C1440 1.368 1_556 S
H1425 C1433 0.950 . S
H1426 C1431 0.950 . S
H1427 C1432 0.949 . S
H1428 C1434 0.950 . S
H1429 C1435 0.950 . S
H1430 C1436 0.949 1_554 S
C1431 H1426 0.950 . S
C1431 C1433 1.327 . S
C1431 C1437 1.429 . S
C1432 C1424 1.574 . S
C1432 H1427 0.949 . S
C1432 C1438 1.368 . S
C1433 C1417 1.349 . S
C1433 H1425 0.950 . S
C1433 C1431 1.327 . S
C1434 C1422 1.349 . S
C1434 H1428 0.950 . S
C1434 C1435 1.327 . S
C1435 H1429 0.950 . S
C1435 C1434 1.327 . S
C1435 C1439 1.429 . S
C1436 C1419 1.574 . S
C1436 H1430 0.949 1_556 S
C1436 C1440 1.368 1_556 S
C1437 C1418 1.429 . S
C1437 C1431 1.429 . S
C1437 C1438 1.523 . S
C1438 C1419 1.368 . S
C1438 C1432 1.368 . S
C1438 C1437 1.523 . S
C1439 C1423 1.429 . S
C1439 C1435 1.429 . S
C1439 C1440 1.523 . S
C1440 C1424 1.368 1_554 S
C1440 C1436 1.368 1_554 S
C1440 C1439 1.523 . S
H1441 C1416 0.950 . S
H1442 C1418 0.950 . S
H1443 C1419 0.949 . S
H1444 C1421 0.950 . S
H1445 C1423 0.950 . S
C1446 C1447 1.349 . S
C1446 C1448 1.327 . S
C1446 H1471 0.950 . S
C1447 C1446 1.349 . S
C1447 C1463 1.349 . S
C1448 C1446 1.327 . S
C1448 C1467 1.429 . S
C1448 H1472 0.950 . S
C1449 C1466 1.574 . S
C1449 C1468 1.368 1_556 S
C1449 H1473 0.949 1_556 S
H1450 C1454 0.949 . S
C1451 C1452 1.349 . S
C1451 C1453 1.327 . S
C1451 H1474 0.950 . S
C1452 C1451 1.349 . S
C1452 C1464 1.349 . S
C1453 C1451 1.327 . S
C1453 C1469 1.429 . S
C1453 H1475 0.950 . S
C1454 H1450 0.949 . S
C1454 C1462 1.574 . S
C1454 C1470 1.368 . S
H1455 C1463 0.950 . S
H1456 C1461 0.950 . S
H1457 C1462 0.949 1_554 S
H1458 C1464 0.950 . S
H1459 C1465 0.950 . S
H1460 C1466 0.949 . S
C1461 H1456 0.950 . S
C1461 C1463 1.327 . S
C1461 C1467 1.429 . S
C1462 C1454 1.574 . S
C1462 H1457 0.949 1_556 S
C1462 C1468 1.368 1_556 S
C1463 C1447 1.349 . S
C1463 H1455 0.950 . S
C1463 C1461 1.327 . S
C1464 C1452 1.349 . S
C1464 H1458 0.950 . S
C1464 C1465 1.327 . S
C1465 H1459 0.950 . S
C1465 C1464 1.327 . S
C1465 C1469 1.429 . S
C1466 C1449 1.574 . S
C1466 H1460 0.949 . S
C1466 C1470 1.368 . S
C1467 C1448 1.429 . S
C1467 C1461 1.429 . S
C1467 C1468 1.523 . S
C1468 C1449 1.368 1_554 S
C1468 C1462 1.368 1_554 S
C1468 C1467 1.523 . S
C1469 C1453 1.429 . S
C1469 C1465 1.429 . S
C1469 C1470 1.523 . S
C1470 C1454 1.368 . S
C1470 C1466 1.368 . S
C1470 C1469 1.523 . S
H1471 C1446 0.950 . S
H1472 C1448 0.950 . S
H1473 C1449 0.949 1_554 S
H1474 C1451 0.950 . S
H1475 C1453 0.950 . S
C1476 C1477 1.349 . S
C1476 C1478 1.327 . S
C1476 H1501 0.950 . S
C1477 C1476 1.349 . S
C1477 C1493 1.349 . S
C1478 C1476 1.327 . S
C1478 C1497 1.429 . S
C1478 H1502 0.950 . S
C1479 C1496 1.574 . S
C1479 C1498 1.368 . S
C1479 H1503 0.949 . S
H1480 C1484 0.949 1_554 S
C1481 C1482 1.349 . S
C1481 C1483 1.327 . S
C1481 H1504 0.950 . S
C1482 C1481 1.349 . S
C1482 C1494 1.349 . S
C1483 C1481 1.327 . S
C1483 C1499 1.429 . S
C1483 H1505 0.950 . S
C1484 H1480 0.949 1_556 S
C1484 C1492 1.574 . S
C1484 C1500 1.368 1_556 S
H1485 C1493 0.950 . S
H1486 C1491 0.950 . S
H1487 C1492 0.949 . S
H1488 C1494 0.950 . S
H1489 C1495 0.950 . S
H1490 C1496 0.949 1_554 S
C1491 H1486 0.950 . S
C1491 C1493 1.327 . S
C1491 C1497 1.429 . S
C1492 C1484 1.574 . S
C1492 H1487 0.949 . S
C1492 C1498 1.368 . S
C1493 C1477 1.349 . S
C1493 H1485 0.950 . S
C1493 C1491 1.327 . S
C1494 C1482 1.349 . S
C1494 H1488 0.950 . S
C1494 C1495 1.327 . S
C1495 H1489 0.950 . S
C1495 C1494 1.327 . S
C1495 C1499 1.429 . S
C1496 C1479 1.574 . S
C1496 H1490 0.949 1_556 S
C1496 C1500 1.368 1_556 S
C1497 C1478 1.429 . S
C1497 C1491 1.429 . S
C1497 C1498 1.523 . S
C1498 C1479 1.368 . S
C1498 C1492 1.368 . S
C1498 C1497 1.523 . S
C1499 C1483 1.429 . S
C1499 C1495 1.429 . S
C1499 C1500 1.523 . S
C1500 C1484 1.368 1_554 S
C1500 C1496 1.368 1_554 S
C1500 C1499 1.523 . S
H1501 C1476 0.950 . S
H1502 C1478 0.950 . S
H1503 C1479 0.949 . S
H1504 C1481 0.950 . S
H1505 C1483 0.950 . S
C1506 C1507 1.349 . S
C1506 C1508 1.327 . S
C1506 H1531 0.950 . S
C1507 C1506 1.349 . S
C1507 C1523 1.349 . S
C1508 C1506 1.327 . S
C1508 C1527 1.429 . S
C1508 H1532 0.950 . S
C1509 C1526 1.574 . S
C1509 C1528 1.368 1_556 S
C1509 H1533 0.949 1_556 S
H1510 C1514 0.949 . S
C1511 C1512 1.349 . S
C1511 C1513 1.327 . S
C1511 H1534 0.950 . S
C1512 C1511 1.349 . S
C1512 C1524 1.349 . S
C1513 C1511 1.327 . S
C1513 C1529 1.429 . S
C1513 H1535 0.950 . S
C1514 H1510 0.949 . S
C1514 C1522 1.574 . S
C1514 C1530 1.368 . S
H1515 C1523 0.950 . S
H1516 C1521 0.950 . S
H1517 C1522 0.949 1_554 S
H1518 C1524 0.950 . S
H1519 C1525 0.950 . S
H1520 C1526 0.949 . S
C1521 H1516 0.950 . S
C1521 C1523 1.327 . S
C1521 C1527 1.429 . S
C1522 C1514 1.574 . S
C1522 H1517 0.949 1_556 S
C1522 C1528 1.368 1_556 S
C1523 C1507 1.349 . S
C1523 H1515 0.950 . S
C1523 C1521 1.327 . S
C1524 C1512 1.349 . S
C1524 H1518 0.950 . S
C1524 C1525 1.327 . S
C1525 H1519 0.950 . S
C1525 C1524 1.327 . S
C1525 C1529 1.429 . S
C1526 C1509 1.574 . S
C1526 H1520 0.949 . S
C1526 C1530 1.368 . S
C1527 C1508 1.429 . S
C1527 C1521 1.429 . S
C1527 C1528 1.523 . S
C1528 C1509 1.368 1_554 S
C1528 C1522 1.368 1_554 S
C1528 C1527 1.523 . S
C1529 C1513 1.429 . S
C1529 C1525 1.429 . S
C1529 C1530 1.523 . S
C1530 C1514 1.368 . S
C1530 C1526 1.368 . S
C1530 C1529 1.523 . S
H1531 C1506 0.950 . S
H1532 C1508 0.950 . S
H1533 C1509 0.949 1_554 S
H1534 C1511 0.950 . S
H1535 C1513 0.950 . S
C1536 C1537 1.349 . S
C1536 C1538 1.327 . S
C1536 H1561 0.950 . S
C1537 C1536 1.349 . S
C1537 C1553 1.349 . S
C1538 C1536 1.327 . S
C1538 C1557 1.429 . S
C1538 H1562 0.950 . S
C1539 C1556 1.574 . S
C1539 C1558 1.368 . S
C1539 H1563 0.949 . S
H1540 C1544 0.949 1_556 S
C1541 C1542 1.349 . S
C1541 C1543 1.327 . S
C1541 H1564 0.950 . S
C1542 C1541 1.349 . S
C1542 C1554 1.349 . S
C1543 C1541 1.327 . S
C1543 C1559 1.429 . S
C1543 H1565 0.950 . S
C1544 H1540 0.949 1_554 S
C1544 C1552 1.574 . S
C1544 C1560 1.368 1_554 S
H1545 C1553 0.950 . S
H1546 C1551 0.950 . S
H1547 C1552 0.949 . S
H1548 C1554 0.950 . S
H1549 C1555 0.950 . S
H1550 C1556 0.949 1_556 S
C1551 H1546 0.950 . S
C1551 C1553 1.327 . S
C1551 C1557 1.429 . S
C1552 C1544 1.574 . S
C1552 H1547 0.949 . S
C1552 C1558 1.368 . S
C1553 C1537 1.349 . S
C1553 H1545 0.950 . S
C1553 C1551 1.327 . S
C1554 C1542 1.349 . S
C1554 H1548 0.950 . S
C1554 C1555 1.327 . S
C1555 H1549 0.950 . S
C1555 C1554 1.327 . S
C1555 C1559 1.429 . S
C1556 C1539 1.574 . S
C1556 H1550 0.949 1_554 S
C1556 C1560 1.368 1_554 S
C1557 C1538 1.429 . S
C1557 C1551 1.429 . S
C1557 C1558 1.523 . S
C1558 C1539 1.368 . S
C1558 C1552 1.368 . S
C1558 C1557 1.523 . S
C1559 C1543 1.429 . S
C1559 C1555 1.429 . S
C1559 C1560 1.523 . S
C1560 C1544 1.368 1_556 S
C1560 C1556 1.368 1_556 S
C1560 C1559 1.523 . S
H1561 C1536 0.950 . S
H1562 C1538 0.950 . S
H1563 C1539 0.949 . S
H1564 C1541 0.950 . S
H1565 C1543 0.950 . S
C1566 C1567 1.349 . S
C1566 C1568 1.327 . S
C1566 H1591 0.950 . S
C1567 C1566 1.349 . S
C1567 C1583 1.349 . S
C1568 C1566 1.327 . S
C1568 C1587 1.429 . S
C1568 H1592 0.950 . S
C1569 C1586 1.574 . S
C1569 C1588 1.368 1_554 S
C1569 H1593 0.949 1_554 S
H1570 C1574 0.949 . S
C1571 C1572 1.349 . S
C1571 C1573 1.327 . S
C1571 H1594 0.950 . S
C1572 C1571 1.349 . S
C1572 C1584 1.349 . S
C1573 C1571 1.327 . S
C1573 C1589 1.429 . S
C1573 H1595 0.950 . S
C1574 H1570 0.949 . S
C1574 C1582 1.574 . S
C1574 C1590 1.368 . S
H1575 C1583 0.950 . S
H1576 C1581 0.950 . S
H1577 C1582 0.949 1_556 S
H1578 C1584 0.950 . S
H1579 C1585 0.950 . S
H1580 C1586 0.949 . S
C1581 H1576 0.950 . S
C1581 C1583 1.327 . S
C1581 C1587 1.429 . S
C1582 C1574 1.574 . S
C1582 H1577 0.949 1_554 S
C1582 C1588 1.368 1_554 S
C1583 C1567 1.349 . S
C1583 H1575 0.950 . S
C1583 C1581 1.327 . S
C1584 C1572 1.349 . S
C1584 H1578 0.950 . S
C1584 C1585 1.327 . S
C1585 H1579 0.950 . S
C1585 C1584 1.327 . S
C1585 C1589 1.429 . S
C1586 C1569 1.574 . S
C1586 H1580 0.949 . S
C1586 C1590 1.368 . S
C1587 C1568 1.429 . S
C1587 C1581 1.429 . S
C1587 C1588 1.523 . S
C1588 C1569 1.368 1_556 S
C1588 C1582 1.368 1_556 S
C1588 C1587 1.523 . S
C1589 C1573 1.429 . S
C1589 C1585 1.429 . S
C1589 C1590 1.523 . S
C1590 C1574 1.368 . S
C1590 C1586 1.368 . S
C1590 C1589 1.523 . S
H1591 C1566 0.950 . S
H1592 C1568 0.950 . S
H1593 C1569 0.949 1_556 S
H1594 C1571 0.950 . S
H1595 C1573 0.950 . S
C1596 C1597 1.349 . S
C1596 C1598 1.327 . S
C1596 H1621 0.950 . S
C1597 C1596 1.349 . S
C1597 C1613 1.349 . S
C1598 C1596 1.327 . S
C1598 C1617 1.429 . S
C1598 H1622 0.950 . S
C1599 C1616 1.574 . S
C1599 C1618 1.368 . S
C1599 H1623 0.949 . S
H1600 C1604 0.949 1_556 S
C1601 C1602 1.349 . S
C1601 C1603 1.327 . S
C1601 H1624 0.950 . S
C1602 C1601 1.349 . S
C1602 C1614 1.349 . S
C1603 C1601 1.327 . S
C1603 C1619 1.429 . S
C1603 H1625 0.950 . S
C1604 H1600 0.949 1_554 S
C1604 C1612 1.574 . S
C1604 C1620 1.368 1_554 S
H1605 C1613 0.950 . S
H1606 C1611 0.950 . S
H1607 C1612 0.949 . S
H1608 C1614 0.950 . S
H1609 C1615 0.950 . S
H1610 C1616 0.949 1_556 S
C1611 H1606 0.950 . S
C1611 C1613 1.327 . S
C1611 C1617 1.429 . S
C1612 C1604 1.574 . S
C1612 H1607 0.949 . S
C1612 C1618 1.368 . S
C1613 C1597 1.349 . S
C1613 H1605 0.950 . S
C1613 C1611 1.327 . S
C1614 C1602 1.349 . S
C1614 H1608 0.950 . S
C1614 C1615 1.327 . S
C1615 H1609 0.950 . S
C1615 C1614 1.327 . S
C1615 C1619 1.429 . S
C1616 C1599 1.574 . S
C1616 H1610 0.949 1_554 S
C1616 C1620 1.368 1_554 S
C1617 C1598 1.429 . S
C1617 C1611 1.429 . S
C1617 C1618 1.523 . S
C1618 C1599 1.368 . S
C1618 C1612 1.368 . S
C1618 C1617 1.523 . S
C1619 C1603 1.429 . S
C1619 C1615 1.429 . S
C1619 C1620 1.523 . S
C1620 C1604 1.368 1_556 S
C1620 C1616 1.368 1_556 S
C1620 C1619 1.523 . S
H1621 C1596 0.950 . S
H1622 C1598 0.950 . S
H1623 C1599 0.949 . S
H1624 C1601 0.950 . S
H1625 C1603 0.950 . S
C1626 C1627 1.349 . S
C1626 C1628 1.327 . S
C1626 H1651 0.950 . S
C1627 C1626 1.349 . S
C1627 C1643 1.349 . S
C1628 C1626 1.327 . S
C1628 C1647 1.429 . S
C1628 H1652 0.950 . S
C1629 C1646 1.574 . S
C1629 C1648 1.368 1_554 S
C1629 H1653 0.949 1_554 S
H1630 C1634 0.949 . S
C1631 C1632 1.349 . S
C1631 C1633 1.327 . S
C1631 H1654 0.950 . S
C1632 C1631 1.349 . S
C1632 C1644 1.349 . S
C1633 C1631 1.327 . S
C1633 C1649 1.429 . S
C1633 H1655 0.950 . S
C1634 H1630 0.949 . S
C1634 C1642 1.574 . S
C1634 C1650 1.368 . S
H1635 C1643 0.950 . S
H1636 C1641 0.950 . S
H1637 C1642 0.949 1_556 S
H1638 C1644 0.950 . S
H1639 C1645 0.950 . S
H1640 C1646 0.949 . S
C1641 H1636 0.950 . S
C1641 C1643 1.327 . S
C1641 C1647 1.429 . S
C1642 C1634 1.574 . S
C1642 H1637 0.949 1_554 S
C1642 C1648 1.368 1_554 S
C1643 C1627 1.349 . S
C1643 H1635 0.950 . S
C1643 C1641 1.327 . S
C1644 C1632 1.349 . S
C1644 H1638 0.950 . S
C1644 C1645 1.327 . S
C1645 H1639 0.950 . S
C1645 C1644 1.327 . S
C1645 C1649 1.429 . S
C1646 C1629 1.574 . S
C1646 H1640 0.949 . S
C1646 C1650 1.368 . S
C1647 C1628 1.429 . S
C1647 C1641 1.429 . S
C1647 C1648 1.523 . S
C1648 C1629 1.368 1_556 S
C1648 C1642 1.368 1_556 S
C1648 C1647 1.523 . S
C1649 C1633 1.429 . S
C1649 C1645 1.429 . S
C1649 C1650 1.523 . S
C1650 C1634 1.368 . S
C1650 C1646 1.368 . S
C1650 C1649 1.523 . S
H1651 C1626 0.950 . S
H1652 C1628 0.950 . S
H1653 C1629 0.949 1_556 S
H1654 C1631 0.950 . S
H1655 C1633 0.950 . S
C1656 C1657 1.349 . S
C1656 C1658 1.327 . S
C1656 H1681 0.950 . S
C1657 C1656 1.349 . S
C1657 C1673 1.349 . S
C1658 C1656 1.327 . S
C1658 C1677 1.429 . S
C1658 H1682 0.950 . S
C1659 C1676 1.574 . S
C1659 C1678 1.368 . S
C1659 H1683 0.949 . S
H1660 C1664 0.949 1_455 S
C1661 C1662 1.349 . S
C1661 C1663 1.327 . S
C1661 H1684 0.950 . S
C1662 C1661 1.349 . S
C1662 C1674 1.349 . S
C1663 C1661 1.327 . S
C1663 C1679 1.429 . S
C1663 H1685 0.950 . S
C1664 H1660 0.949 1_655 S
C1664 C1672 1.574 . S
C1664 C1680 1.368 1_655 S
H1665 C1673 0.950 . S
H1666 C1671 0.950 . S
H1667 C1672 0.949 . S
H1668 C1674 0.950 . S
H1669 C1675 0.950 . S
H1670 C1676 0.949 1_455 S
C1671 H1666 0.950 . S
C1671 C1673 1.327 . S
C1671 C1677 1.429 . S
C1672 C1664 1.574 . S
C1672 H1667 0.949 . S
C1672 C1678 1.368 . S
C1673 C1657 1.349 . S
C1673 H1665 0.950 . S
C1673 C1671 1.327 . S
C1674 C1662 1.349 . S
C1674 H1668 0.950 . S
C1674 C1675 1.327 . S
C1675 H1669 0.950 . S
C1675 C1674 1.327 . S
C1675 C1679 1.429 . S
C1676 C1659 1.574 . S
C1676 H1670 0.949 1_655 S
C1676 C1680 1.368 1_655 S
C1677 C1658 1.429 . S
C1677 C1671 1.429 . S
C1677 C1678 1.523 . S
C1678 C1659 1.368 . S
C1678 C1672 1.368 . S
C1678 C1677 1.523 . S
C1679 C1663 1.429 . S
C1679 C1675 1.429 . S
C1679 C1680 1.523 . S
C1680 C1664 1.368 1_455 S
C1680 C1676 1.368 1_455 S
C1680 C1679 1.523 . S
H1681 C1656 0.950 . S
H1682 C1658 0.950 . S
H1683 C1659 0.949 . S
H1684 C1661 0.950 . S
H1685 C1663 0.950 . S
C1686 C1687 1.349 . S
C1686 C1688 1.327 . S
C1686 H1711 0.950 . S
C1687 C1686 1.349 . S
C1687 C1703 1.349 . S
C1688 C1686 1.327 . S
C1688 C1707 1.429 . S
C1688 H1712 0.950 . S
C1689 C1706 1.574 . S
C1689 C1708 1.368 . S
C1689 H1713 0.949 . S
H1690 C1694 0.949 1_455 S
C1691 C1692 1.349 . S
C1691 C1693 1.327 . S
C1691 H1714 0.950 . S
C1692 C1691 1.349 . S
C1692 C1704 1.349 . S
C1693 C1691 1.327 . S
C1693 C1709 1.429 . S
C1693 H1715 0.950 . S
C1694 H1690 0.949 1_655 S
C1694 C1702 1.574 . S
C1694 C1710 1.368 1_655 S
H1695 C1703 0.950 . S
H1696 C1701 0.950 . S
H1697 C1702 0.949 . S
H1698 C1704 0.950 . S
H1699 C1705 0.950 . S
H1700 C1706 0.949 1_455 S
C1701 H1696 0.950 . S
C1701 C1703 1.327 . S
C1701 C1707 1.429 . S
C1702 C1694 1.574 . S
C1702 H1697 0.949 . S
C1702 C1708 1.368 . S
C1703 C1687 1.349 . S
C1703 H1695 0.950 . S
C1703 C1701 1.327 . S
C1704 C1692 1.349 . S
C1704 H1698 0.950 . S
C1704 C1705 1.327 . S
C1705 H1699 0.950 . S
C1705 C1704 1.327 . S
C1705 C1709 1.429 . S
C1706 C1689 1.574 . S
C1706 H1700 0.949 1_655 S
C1706 C1710 1.368 1_655 S
C1707 C1688 1.429 . S
C1707 C1701 1.429 . S
C1707 C1708 1.523 . S
C1708 C1689 1.368 . S
C1708 C1702 1.368 . S
C1708 C1707 1.523 . S
C1709 C1693 1.429 . S
C1709 C1705 1.429 . S
C1709 C1710 1.523 . S
C1710 C1694 1.368 1_455 S
C1710 C1706 1.368 1_455 S
C1710 C1709 1.523 . S
H1711 C1686 0.950 . S
H1712 C1688 0.950 . S
H1713 C1689 0.949 . S
H1714 C1691 0.950 . S
H1715 C1693 0.950 . S
C1716 C1717 1.349 . S
C1716 C1718 1.327 . S
C1716 H1741 0.950 . S
C1717 C1716 1.349 . S
C1717 C1733 1.349 . S
C1718 C1716 1.327 . S
C1718 C1737 1.429 . S
C1718 H1742 0.950 . S
C1719 C1736 1.574 . S
C1719 C1738 1.368 1_565 S
C1719 H1743 0.949 1_565 S
H1720 C1724 0.949 . S
C1721 C1722 1.349 . S
C1721 C1723 1.327 . S
C1721 H1744 0.950 . S
C1722 C1721 1.349 . S
C1722 C1734 1.349 . S
C1723 C1721 1.327 . S
C1723 C1739 1.429 . S
C1723 H1745 0.950 . S
C1724 H1720 0.949 . S
C1724 C1732 1.574 . S
C1724 C1740 1.368 . S
H1725 C1733 0.950 . S
H1726 C1731 0.950 . S
H1727 C1732 0.949 1_545 S
H1728 C1734 0.950 . S
H1729 C1735 0.950 . S
H1730 C1736 0.949 . S
C1731 H1726 0.950 . S
C1731 C1733 1.327 . S
C1731 C1737 1.429 . S
C1732 C1724 1.574 . S
C1732 H1727 0.949 1_565 S
C1732 C1738 1.368 1_565 S
C1733 C1717 1.349 . S
C1733 H1725 0.950 . S
C1733 C1731 1.327 . S
C1734 C1722 1.349 . S
C1734 H1728 0.950 . S
C1734 C1735 1.327 . S
C1735 H1729 0.950 . S
C1735 C1734 1.327 . S
C1735 C1739 1.429 . S
C1736 C1719 1.574 . S
C1736 H1730 0.949 . S
C1736 C1740 1.368 . S
C1737 C1718 1.429 . S
C1737 C1731 1.429 . S
C1737 C1738 1.523 . S
C1738 C1719 1.368 1_545 S
C1738 C1732 1.368 1_545 S
C1738 C1737 1.523 . S
C1739 C1723 1.429 . S
C1739 C1735 1.429 . S
C1739 C1740 1.523 . S
C1740 C1724 1.368 . S
C1740 C1736 1.368 . S
C1740 C1739 1.523 . S
H1741 C1716 0.950 . S
H1742 C1718 0.950 . S
H1743 C1719 0.949 1_545 S
H1744 C1721 0.950 . S
H1745 C1723 0.950 . S
C1746 C1747 1.349 . S
C1746 C1748 1.327 . S
C1746 H1771 0.950 . S
C1747 C1746 1.349 . S
C1747 C1763 1.349 . S
C1748 C1746 1.327 . S
C1748 C1767 1.429 . S
C1748 H1772 0.950 . S
C1749 C1766 1.574 . S
C1749 C1768 1.368 1_455 S
C1749 H1773 0.949 1_455 S
H1750 C1754 0.949 . S
C1751 C1752 1.349 . S
C1751 C1753 1.327 . S
C1751 H1774 0.950 . S
C1752 C1751 1.349 . S
C1752 C1764 1.349 . S
C1753 C1751 1.327 . S
C1753 C1769 1.429 . S
C1753 H1775 0.950 . S
C1754 H1750 0.949 . S
C1754 C1762 1.574 . S
C1754 C1770 1.368 . S
H1755 C1763 0.950 . S
H1756 C1761 0.950 . S
H1757 C1762 0.949 1_655 S
H1758 C1764 0.950 . S
H1759 C1765 0.950 . S
H1760 C1766 0.949 . S
C1761 H1756 0.950 . S
C1761 C1763 1.327 . S
C1761 C1767 1.429 . S
C1762 C1754 1.574 . S
C1762 H1757 0.949 1_455 S
C1762 C1768 1.368 1_455 S
C1763 C1747 1.349 . S
C1763 H1755 0.950 . S
C1763 C1761 1.327 . S
C1764 C1752 1.349 . S
C1764 H1758 0.950 . S
C1764 C1765 1.327 . S
C1765 H1759 0.950 . S
C1765 C1764 1.327 . S
C1765 C1769 1.429 . S
C1766 C1749 1.574 . S
C1766 H1760 0.949 . S
C1766 C1770 1.368 . S
C1767 C1748 1.429 . S
C1767 C1761 1.429 . S
C1767 C1768 1.523 . S
C1768 C1749 1.368 1_655 S
C1768 C1762 1.368 1_655 S
C1768 C1767 1.523 . S
C1769 C1753 1.429 . S
C1769 C1765 1.429 . S
C1769 C1770 1.523 . S
C1770 C1754 1.368 . S
C1770 C1766 1.368 . S
C1770 C1769 1.523 . S
H1771 C1746 0.950 . S
H1772 C1748 0.950 . S
H1773 C1749 0.949 1_655 S
H1774 C1751 0.950 . S
H1775 C1753 0.950 . S
C1776 C1777 1.349 . S
C1776 C1778 1.327 . S
C1776 H1801 0.950 . S
C1777 C1776 1.349 . S
C1777 C1793 1.349 . S
C1778 C1776 1.327 . S
C1778 C1797 1.429 . S
C1778 H1802 0.950 . S
C1779 C1796 1.574 . S
C1779 C1798 1.368 . S
C1779 H1803 0.949 . S
H1780 C1784 0.949 1_565 S
C1781 C1782 1.349 . S
C1781 C1783 1.327 . S
C1781 H1804 0.950 . S
C1782 C1781 1.349 . S
C1782 C1794 1.349 . S
C1783 C1781 1.327 . S
C1783 C1799 1.429 . S
C1783 H1805 0.950 . S
C1784 H1780 0.949 1_545 S
C1784 C1792 1.574 . S
C1784 C1800 1.368 1_545 S
H1785 C1793 0.950 . S
H1786 C1791 0.950 . S
H1787 C1792 0.949 . S
H1788 C1794 0.950 . S
H1789 C1795 0.950 . S
H1790 C1796 0.949 1_565 S
C1791 H1786 0.950 . S
C1791 C1793 1.327 . S
C1791 C1797 1.429 . S
C1792 C1784 1.574 . S
C1792 H1787 0.949 . S
C1792 C1798 1.368 . S
C1793 C1777 1.349 . S
C1793 H1785 0.950 . S
C1793 C1791 1.327 . S
C1794 C1782 1.349 . S
C1794 H1788 0.950 . S
C1794 C1795 1.327 . S
C1795 H1789 0.950 . S
C1795 C1794 1.327 . S
C1795 C1799 1.429 . S
C1796 C1779 1.574 . S
C1796 H1790 0.949 1_545 S
C1796 C1800 1.368 1_545 S
C1797 C1778 1.429 . S
C1797 C1791 1.429 . S
C1797 C1798 1.523 . S
C1798 C1779 1.368 . S
C1798 C1792 1.368 . S
C1798 C1797 1.523 . S
C1799 C1783 1.429 . S
C1799 C1795 1.429 . S
C1799 C1800 1.523 . S
C1800 C1784 1.368 1_565 S
C1800 C1796 1.368 1_565 S
C1800 C1799 1.523 . S
H1801 C1776 0.950 . S
H1802 C1778 0.950 . S
H1803 C1779 0.949 . S
H1804 C1781 0.950 . S
H1805 C1783 0.950 . S
C1806 C1807 1.349 . S
C1806 C1808 1.327 . S
C1806 H1831 0.950 . S
C1807 C1806 1.349 . S
C1807 C1823 1.349 . S
C1808 C1806 1.327 . S
C1808 C1827 1.429 . S
C1808 H1832 0.950 . S
C1809 C1826 1.574 . S
C1809 C1828 1.368 . S
C1809 H1833 0.949 . S
H1810 C1814 0.949 1_655 S
C1811 C1812 1.349 . S
C1811 C1813 1.327 . S
C1811 H1834 0.950 . S
C1812 C1811 1.349 . S
C1812 C1824 1.349 . S
C1813 C1811 1.327 . S
C1813 C1829 1.429 . S
C1813 H1835 0.950 . S
C1814 H1810 0.949 1_455 S
C1814 C1822 1.574 . S
C1814 C1830 1.368 1_455 S
H1815 C1823 0.950 . S
H1816 C1821 0.950 . S
H1817 C1822 0.949 . S
H1818 C1824 0.950 . S
H1819 C1825 0.950 . S
H1820 C1826 0.949 1_655 S
C1821 H1816 0.950 . S
C1821 C1823 1.327 . S
C1821 C1827 1.429 . S
C1822 C1814 1.574 . S
C1822 H1817 0.949 . S
C1822 C1828 1.368 . S
C1823 C1807 1.349 . S
C1823 H1815 0.950 . S
C1823 C1821 1.327 . S
C1824 C1812 1.349 . S
C1824 H1818 0.950 . S
C1824 C1825 1.327 . S
C1825 H1819 0.950 . S
C1825 C1824 1.327 . S
C1825 C1829 1.429 . S
C1826 C1809 1.574 . S
C1826 H1820 0.949 1_455 S
C1826 C1830 1.368 1_455 S
C1827 C1808 1.429 . S
C1827 C1821 1.429 . S
C1827 C1828 1.523 . S
C1828 C1809 1.368 . S
C1828 C1822 1.368 . S
C1828 C1827 1.523 . S
C1829 C1813 1.429 . S
C1829 C1825 1.429 . S
C1829 C1830 1.523 . S
C1830 C1814 1.368 1_655 S
C1830 C1826 1.368 1_655 S
C1830 C1829 1.523 . S
H1831 C1806 0.950 . S
H1832 C1808 0.950 . S
H1833 C1809 0.949 . S
H1834 C1811 0.950 . S
H1835 C1813 0.950 . S
C1836 C1837 1.349 . S
C1836 C1838 1.327 . S
C1836 H1861 0.950 . S
C1837 C1836 1.349 . S
C1837 C1853 1.349 . S
C1838 C1836 1.327 . S
C1838 C1857 1.429 . S
C1838 H1862 0.950 . S
C1839 C1856 1.574 . S
C1839 C1858 1.368 . S
C1839 H1863 0.949 . S
H1840 C1844 0.949 1_565 S
C1841 C1842 1.349 . S
C1841 C1843 1.327 . S
C1841 H1864 0.950 . S
C1842 C1841 1.349 . S
C1842 C1854 1.349 . S
C1843 C1841 1.327 . S
C1843 C1859 1.429 . S
C1843 H1865 0.950 . S
C1844 H1840 0.949 1_545 S
C1844 C1852 1.574 . S
C1844 C1860 1.368 1_545 S
H1845 C1853 0.950 . S
H1846 C1851 0.950 . S
H1847 C1852 0.949 . S
H1848 C1854 0.950 . S
H1849 C1855 0.950 . S
H1850 C1856 0.949 1_565 S
C1851 H1846 0.950 . S
C1851 C1853 1.327 . S
C1851 C1857 1.429 . S
C1852 C1844 1.574 . S
C1852 H1847 0.949 . S
C1852 C1858 1.368 . S
C1853 C1837 1.349 . S
C1853 H1845 0.950 . S
C1853 C1851 1.327 . S
C1854 C1842 1.349 . S
C1854 H1848 0.950 . S
C1854 C1855 1.327 . S
C1855 H1849 0.950 . S
C1855 C1854 1.327 . S
C1855 C1859 1.429 . S
C1856 C1839 1.574 . S
C1856 H1850 0.949 1_545 S
C1856 C1860 1.368 1_545 S
C1857 C1838 1.429 . S
C1857 C1851 1.429 . S
C1857 C1858 1.523 . S
C1858 C1839 1.368 . S
C1858 C1852 1.368 . S
C1858 C1857 1.523 . S
C1859 C1843 1.429 . S
C1859 C1855 1.429 . S
C1859 C1860 1.523 . S
C1860 C1844 1.368 1_565 S
C1860 C1856 1.368 1_565 S
C1860 C1859 1.523 . S
H1861 C1836 0.950 . S
H1862 C1838 0.950 . S
H1863 C1839 0.949 . S
H1864 C1841 0.950 . S
H1865 C1843 0.950 . S
C1866 C1867 1.349 . S
C1866 C1868 1.327 . S
C1866 H1891 0.950 . S
C1867 C1866 1.349 . S
C1867 C1883 1.349 . S
C1868 C1866 1.327 . S
C1868 C1887 1.429 . S
C1868 H1892 0.950 . S
C1869 C1886 1.574 . S
C1869 C1888 1.368 1_565 S
C1869 H1893 0.949 1_565 S
H1870 C1874 0.949 . S
C1871 C1872 1.349 . S
C1871 C1873 1.327 . S
C1871 H1894 0.950 . S
C1872 C1871 1.349 . S
C1872 C1884 1.349 . S
C1873 C1871 1.327 . S
C1873 C1889 1.429 . S
C1873 H1895 0.950 . S
C1874 H1870 0.949 . S
C1874 C1882 1.574 . S
C1874 C1890 1.368 . S
H1875 C1883 0.950 . S
H1876 C1881 0.950 . S
H1877 C1882 0.949 1_545 S
H1878 C1884 0.950 . S
H1879 C1885 0.950 . S
H1880 C1886 0.949 . S
C1881 H1876 0.950 . S
C1881 C1883 1.327 . S
C1881 C1887 1.429 . S
C1882 C1874 1.574 . S
C1882 H1877 0.949 1_565 S
C1882 C1888 1.368 1_565 S
C1883 C1867 1.349 . S
C1883 H1875 0.950 . S
C1883 C1881 1.327 . S
C1884 C1872 1.349 . S
C1884 H1878 0.950 . S
C1884 C1885 1.327 . S
C1885 H1879 0.950 . S
C1885 C1884 1.327 . S
C1885 C1889 1.429 . S
C1886 C1869 1.574 . S
C1886 H1880 0.949 . S
C1886 C1890 1.368 . S
C1887 C1868 1.429 . S
C1887 C1881 1.429 . S
C1887 C1888 1.523 . S
C1888 C1869 1.368 1_545 S
C1888 C1882 1.368 1_545 S
C1888 C1887 1.523 . S
C1889 C1873 1.429 . S
C1889 C1885 1.429 . S
C1889 C1890 1.523 . S
C1890 C1874 1.368 . S
C1890 C1886 1.368 . S
C1890 C1889 1.523 . S
H1891 C1866 0.950 . S
H1892 C1868 0.950 . S
H1893 C1869 0.949 1_545 S
H1894 C1871 0.950 . S
H1895 C1873 0.950 . S
C1896 C1897 1.349 . S
C1896 C1898 1.327 . S
C1896 H1921 0.950 . S
C1897 C1896 1.349 . S
C1897 C1913 1.349 . S
C1898 C1896 1.327 . S
C1898 C1917 1.429 . S
C1898 H1922 0.950 . S
C1899 C1916 1.574 . S
C1899 C1918 1.368 . S
C1899 H1923 0.949 . S
H1900 C1904 0.949 . S
C1901 C1902 1.349 . S
C1901 C1903 1.327 . S
C1901 H1924 0.950 . S
C1902 C1901 1.349 . S
C1902 C1914 1.349 . S
C1903 C1901 1.327 . S
C1903 C1919 1.429 . S
C1903 H1925 0.950 . S
C1904 H1900 0.949 . S
C1904 C1912 1.574 . S
C1904 C1920 1.368 . S
H1905 C1913 0.950 . S
H1906 C1911 0.950 . S
H1907 C1912 0.949 . S
H1908 C1914 0.950 . S
H1909 C1915 0.950 . S
H1910 C1916 0.949 . S
C1911 H1906 0.950 . S
C1911 C1913 1.327 . S
C1911 C1917 1.429 . S
C1912 C1904 1.574 . S
C1912 H1907 0.949 . S
C1912 C1918 1.368 . S
C1913 C1897 1.349 . S
C1913 H1905 0.950 . S
C1913 C1911 1.327 . S
C1914 C1902 1.349 . S
C1914 H1908 0.950 . S
C1914 C1915 1.327 . S
C1915 H1909 0.950 . S
C1915 C1914 1.327 . S
C1915 C1919 1.429 . S
C1916 C1899 1.574 . S
C1916 H1910 0.949 . S
C1916 C1920 1.368 . S
C1917 C1898 1.429 . S
C1917 C1911 1.429 . S
C1917 C1918 1.523 . S
C1918 C1899 1.368 . S
C1918 C1912 1.368 . S
C1918 C1917 1.523 . S
C1919 C1903 1.429 . S
C1919 C1915 1.429 . S
C1919 C1920 1.523 . S
C1920 C1904 1.368 . S
C1920 C1916 1.368 . S
C1920 C1919 1.523 . S
H1921 C1896 0.950 . S
H1922 C1898 0.950 . S
H1923 C1899 0.949 . S
H1924 C1901 0.950 . S
H1925 C1903 0.950 . S
C1926 C1927 1.349 . S
C1926 C1928 1.327 . S
C1926 H1951 0.950 . S
C1927 C1926 1.349 . S
C1927 C1943 1.349 . S
C1928 C1926 1.327 . S
C1928 C1947 1.429 . S
C1928 H1952 0.950 . S
C1929 C1946 1.574 . S
C1929 C1948 1.368 . S
C1929 H1953 0.949 . S
H1930 C1934 0.949 . S
C1931 C1932 1.349 . S
C1931 C1933 1.327 . S
C1931 H1954 0.950 . S
C1932 C1931 1.349 . S
C1932 C1944 1.349 . S
C1933 C1931 1.327 . S
C1933 C1949 1.429 . S
C1933 H1955 0.950 . S
C1934 H1930 0.949 . S
C1934 C1942 1.574 . S
C1934 C1950 1.368 . S
H1935 C1943 0.950 . S
H1936 C1941 0.950 . S
H1937 C1942 0.949 . S
H1938 C1944 0.950 . S
H1939 C1945 0.950 . S
H1940 C1946 0.949 . S
C1941 H1936 0.950 . S
C1941 C1943 1.327 . S
C1941 C1947 1.429 . S
C1942 C1934 1.574 . S
C1942 H1937 0.949 . S
C1942 C1948 1.368 . S
C1943 C1927 1.349 . S
C1943 H1935 0.950 . S
C1943 C1941 1.327 . S
C1944 C1932 1.349 . S
C1944 H1938 0.950 . S
C1944 C1945 1.327 . S
C1945 H1939 0.950 . S
C1945 C1944 1.327 . S
C1945 C1949 1.429 . S
C1946 C1929 1.574 . S
C1946 H1940 0.949 . S
C1946 C1950 1.368 . S
C1947 C1928 1.429 . S
C1947 C1941 1.429 . S
C1947 C1948 1.523 . S
C1948 C1929 1.368 . S
C1948 C1942 1.368 . S
C1948 C1947 1.523 . S
C1949 C1933 1.429 . S
C1949 C1945 1.429 . S
C1949 C1950 1.523 . S
C1950 C1934 1.368 . S
C1950 C1946 1.368 . S
C1950 C1949 1.523 . S
H1951 C1926 0.950 . S
H1952 C1928 0.950 . S
H1953 C1929 0.949 . S
H1954 C1931 0.950 . S
H1955 C1933 0.950 . S
C1956 C1957 1.349 . S
C1956 C1958 1.327 . S
C1956 H1981 0.950 . S
C1957 C1956 1.349 . S
C1957 C1973 1.349 . S
C1958 C1956 1.327 . S
C1958 C1977 1.429 . S
C1958 H1982 0.950 . S
C1959 C1976 1.574 . S
C1959 C1978 1.368 . S
C1959 H1983 0.949 . S
H1960 C1964 0.949 . S
C1961 C1962 1.349 . S
C1961 C1963 1.327 . S
C1961 H1984 0.950 . S
C1962 C1961 1.349 . S
C1962 C1974 1.349 . S
C1963 C1961 1.327 . S
C1963 C1979 1.429 . S
C1963 H1985 0.950 . S
C1964 H1960 0.949 . S
C1964 C1972 1.574 . S
C1964 C1980 1.368 . S
H1965 C1973 0.950 . S
H1966 C1971 0.950 . S
H1967 C1972 0.949 . S
H1968 C1974 0.950 . S
H1969 C1975 0.950 . S
H1970 C1976 0.949 . S
C1971 H1966 0.950 . S
C1971 C1973 1.327 . S
C1971 C1977 1.429 . S
C1972 C1964 1.574 . S
C1972 H1967 0.949 . S
C1972 C1978 1.368 . S
C1973 C1957 1.349 . S
C1973 H1965 0.950 . S
C1973 C1971 1.327 . S
C1974 C1962 1.349 . S
C1974 H1968 0.950 . S
C1974 C1975 1.327 . S
C1975 H1969 0.950 . S
C1975 C1974 1.327 . S
C1975 C1979 1.429 . S
C1976 C1959 1.574 . S
C1976 H1970 0.949 . S
C1976 C1980 1.368 . S
C1977 C1958 1.429 . S
C1977 C1971 1.429 . S
C1977 C1978 1.523 . S
C1978 C1959 1.368 . S
C1978 C1972 1.368 . S
C1978 C1977 1.523 . S
C1979 C1963 1.429 . S
C1979 C1975 1.429 . S
C1979 C1980 1.523 . S
C1980 C1964 1.368 . S
C1980 C1976 1.368 . S
C1980 C1979 1.523 . S
H1981 C1956 0.950 . S
H1982 C1958 0.950 . S
H1983 C1959 0.949 . S
H1984 C1961 0.950 . S
H1985 C1963 0.950 . S
C1986 C1987 1.349 . S
C1986 C1988 1.327 . S
C1986 H2011 0.950 . S
C1987 C1986 1.349 . S
C1987 C2003 1.349 . S
C1988 C1986 1.327 . S
C1988 C2007 1.429 . S
C1988 H2012 0.950 . S
C1989 C2006 1.574 . S
C1989 C2008 1.368 . S
C1989 H2013 0.949 . S
H1990 C1994 0.949 . S
C1991 C1992 1.349 . S
C1991 C1993 1.327 . S
C1991 H2014 0.950 . S
C1992 C1991 1.349 . S
C1992 C2004 1.349 . S
C1993 C1991 1.327 . S
C1993 C2009 1.429 . S
C1993 H2015 0.950 . S
C1994 H1990 0.949 . S
C1994 C2002 1.574 . S
C1994 C2010 1.368 . S
H1995 C2003 0.950 . S
H1996 C2001 0.950 . S
H1997 C2002 0.949 . S
H1998 C2004 0.950 . S
H1999 C2005 0.950 . S
H2000 C2006 0.949 . S
C2001 H1996 0.950 . S
C2001 C2003 1.327 . S
C2001 C2007 1.429 . S
C2002 C1994 1.574 . S
C2002 H1997 0.949 . S
C2002 C2008 1.368 . S
C2003 C1987 1.349 . S
C2003 H1995 0.950 . S
C2003 C2001 1.327 . S
C2004 C1992 1.349 . S
C2004 H1998 0.950 . S
C2004 C2005 1.327 . S
C2005 H1999 0.950 . S
C2005 C2004 1.327 . S
C2005 C2009 1.429 . S
C2006 C1989 1.574 . S
C2006 H2000 0.949 . S
C2006 C2010 1.368 . S
C2007 C1988 1.429 . S
C2007 C2001 1.429 . S
C2007 C2008 1.523 . S
C2008 C1989 1.368 . S
C2008 C2002 1.368 . S
C2008 C2007 1.523 . S
C2009 C1993 1.429 . S
C2009 C2005 1.429 . S
C2009 C2010 1.523 . S
C2010 C1994 1.368 . S
C2010 C2006 1.368 . S
C2010 C2009 1.523 . S
H2011 C1986 0.950 . S
H2012 C1988 0.950 . S
H2013 C1989 0.949 . S
H2014 C1991 0.950 . S
H2015 C1993 0.950 . S
C2016 C2017 1.349 . S
C2016 C2018 1.327 . S
C2016 H2041 0.950 . S
C2017 C2016 1.349 . S
C2017 C2033 1.349 . S
C2018 C2016 1.327 . S
C2018 C2037 1.429 . S
C2018 H2042 0.950 . S
C2019 C2036 1.574 . S
C2019 C2038 1.368 . S
C2019 H2043 0.949 . S
H2020 C2024 0.949 . S
C2021 C2022 1.349 . S
C2021 C2023 1.327 . S
C2021 H2044 0.950 . S
C2022 C2021 1.349 . S
C2022 C2034 1.349 . S
C2023 C2021 1.327 . S
C2023 C2039 1.429 . S
C2023 H2045 0.950 . S
C2024 H2020 0.949 . S
C2024 C2032 1.574 . S
C2024 C2040 1.368 . S
H2025 C2033 0.950 . S
H2026 C2031 0.950 . S
H2027 C2032 0.949 . S
H2028 C2034 0.950 . S
H2029 C2035 0.950 . S
H2030 C2036 0.949 . S
C2031 H2026 0.950 . S
C2031 C2033 1.327 . S
C2031 C2037 1.429 . S
C2032 C2024 1.574 . S
C2032 H2027 0.949 . S
C2032 C2038 1.368 . S
C2033 C2017 1.349 . S
C2033 H2025 0.950 . S
C2033 C2031 1.327 . S
C2034 C2022 1.349 . S
C2034 H2028 0.950 . S
C2034 C2035 1.327 . S
C2035 H2029 0.950 . S
C2035 C2034 1.327 . S
C2035 C2039 1.429 . S
C2036 C2019 1.574 . S
C2036 H2030 0.949 . S
C2036 C2040 1.368 . S
C2037 C2018 1.429 . S
C2037 C2031 1.429 . S
C2037 C2038 1.523 . S
C2038 C2019 1.368 . S
C2038 C2032 1.368 . S
C2038 C2037 1.523 . S
C2039 C2023 1.429 . S
C2039 C2035 1.429 . S
C2039 C2040 1.523 . S
C2040 C2024 1.368 . S
C2040 C2036 1.368 . S
C2040 C2039 1.523 . S
H2041 C2016 0.950 . S
H2042 C2018 0.950 . S
H2043 C2019 0.949 . S
H2044 C2021 0.950 . S
H2045 C2023 0.950 . S
C2046 C2047 1.349 . S
C2046 C2048 1.327 . S
C2046 H2071 0.950 . S
C2047 C2046 1.349 . S
C2047 C2063 1.349 . S
C2048 C2046 1.327 . S
C2048 C2067 1.429 . S
C2048 H2072 0.950 . S
C2049 C2066 1.574 . S
C2049 C2068 1.368 . S
C2049 H2073 0.949 . S
H2050 C2054 0.949 . S
C2051 C2052 1.349 . S
C2051 C2053 1.327 . S
C2051 H2074 0.950 . S
C2052 C2051 1.349 . S
C2052 C2064 1.349 . S
C2053 C2051 1.327 . S
C2053 C2069 1.429 . S
C2053 H2075 0.950 . S
C2054 H2050 0.949 . S
C2054 C2062 1.574 . S
C2054 C2070 1.368 . S
H2055 C2063 0.950 . S
H2056 C2061 0.950 . S
H2057 C2062 0.949 . S
H2058 C2064 0.950 . S
H2059 C2065 0.950 . S
H2060 C2066 0.949 . S
C2061 H2056 0.950 . S
C2061 C2063 1.327 . S
C2061 C2067 1.429 . S
C2062 C2054 1.574 . S
C2062 H2057 0.949 . S
C2062 C2068 1.368 . S
C2063 C2047 1.349 . S
C2063 H2055 0.950 . S
C2063 C2061 1.327 . S
C2064 C2052 1.349 . S
C2064 H2058 0.950 . S
C2064 C2065 1.327 . S
C2065 H2059 0.950 . S
C2065 C2064 1.327 . S
C2065 C2069 1.429 . S
C2066 C2049 1.574 . S
C2066 H2060 0.949 . S
C2066 C2070 1.368 . S
C2067 C2048 1.429 . S
C2067 C2061 1.429 . S
C2067 C2068 1.523 . S
C2068 C2049 1.368 . S
C2068 C2062 1.368 . S
C2068 C2067 1.523 . S
C2069 C2053 1.429 . S
C2069 C2065 1.429 . S
C2069 C2070 1.523 . S
C2070 C2054 1.368 . S
C2070 C2066 1.368 . S
C2070 C2069 1.523 . S
H2071 C2046 0.950 . S
H2072 C2048 0.950 . S
H2073 C2049 0.949 . S
H2074 C2051 0.950 . S
H2075 C2053 0.950 . S
C2076 C2077 1.349 . S
C2076 C2078 1.327 . S
C2076 H2101 0.950 . S
C2077 C2076 1.349 . S
C2077 C2093 1.349 . S
C2078 C2076 1.327 . S
C2078 C2097 1.429 . S
C2078 H2102 0.950 . S
C2079 C2096 1.574 . S
C2079 C2098 1.368 . S
C2079 H2103 0.949 . S
H2080 C2084 0.949 . S
C2081 C2082 1.349 . S
C2081 C2083 1.327 . S
C2081 H2104 0.950 . S
C2082 C2081 1.349 . S
C2082 C2094 1.349 . S
C2083 C2081 1.327 . S
C2083 C2099 1.429 . S
C2083 H2105 0.950 . S
C2084 H2080 0.949 . S
C2084 C2092 1.574 . S
C2084 C2100 1.368 . S
H2085 C2093 0.950 . S
H2086 C2091 0.950 . S
H2087 C2092 0.949 . S
H2088 C2094 0.950 . S
H2089 C2095 0.950 . S
H2090 C2096 0.949 . S
C2091 H2086 0.950 . S
C2091 C2093 1.327 . S
C2091 C2097 1.429 . S
C2092 C2084 1.574 . S
C2092 H2087 0.949 . S
C2092 C2098 1.368 . S
C2093 C2077 1.349 . S
C2093 H2085 0.950 . S
C2093 C2091 1.327 . S
C2094 C2082 1.349 . S
C2094 H2088 0.950 . S
C2094 C2095 1.327 . S
C2095 H2089 0.950 . S
C2095 C2094 1.327 . S
C2095 C2099 1.429 . S
C2096 C2079 1.574 . S
C2096 H2090 0.949 . S
C2096 C2100 1.368 . S
C2097 C2078 1.429 . S
C2097 C2091 1.429 . S
C2097 C2098 1.523 . S
C2098 C2079 1.368 . S
C2098 C2092 1.368 . S
C2098 C2097 1.523 . S
C2099 C2083 1.429 . S
C2099 C2095 1.429 . S
C2099 C2100 1.523 . S
C2100 C2084 1.368 . S
C2100 C2096 1.368 . S
C2100 C2099 1.523 . S
H2101 C2076 0.950 . S
H2102 C2078 0.950 . S
H2103 C2079 0.949 . S
H2104 C2081 0.950 . S
H2105 C2083 0.950 . S
C2106 C2107 1.349 . S
C2106 C2108 1.327 . S
C2106 H2131 0.950 . S
C2107 C2106 1.349 . S
C2107 C2123 1.349 . S
C2108 C2106 1.327 . S
C2108 C2127 1.429 . S
C2108 H2132 0.950 . S
C2109 C2126 1.574 . S
C2109 C2128 1.368 . S
C2109 H2133 0.949 . S
H2110 C2114 0.949 . S
C2111 C2112 1.349 . S
C2111 C2113 1.327 . S
C2111 H2134 0.950 . S
C2112 C2111 1.349 . S
C2112 C2124 1.349 . S
C2113 C2111 1.327 . S
C2113 C2129 1.429 . S
C2113 H2135 0.950 . S
C2114 H2110 0.949 . S
C2114 C2122 1.574 . S
C2114 C2130 1.368 . S
H2115 C2123 0.950 . S
H2116 C2121 0.950 . S
H2117 C2122 0.949 . S
H2118 C2124 0.950 . S
H2119 C2125 0.950 . S
H2120 C2126 0.949 . S
C2121 H2116 0.950 . S
C2121 C2123 1.327 . S
C2121 C2127 1.429 . S
C2122 C2114 1.574 . S
C2122 H2117 0.949 . S
C2122 C2128 1.368 . S
C2123 C2107 1.349 . S
C2123 H2115 0.950 . S
C2123 C2121 1.327 . S
C2124 C2112 1.349 . S
C2124 H2118 0.950 . S
C2124 C2125 1.327 . S
C2125 H2119 0.950 . S
C2125 C2124 1.327 . S
C2125 C2129 1.429 . S
C2126 C2109 1.574 . S
C2126 H2120 0.949 . S
C2126 C2130 1.368 . S
C2127 C2108 1.429 . S
C2127 C2121 1.429 . S
C2127 C2128 1.523 . S
C2128 C2109 1.368 . S
C2128 C2122 1.368 . S
C2128 C2127 1.523 . S
C2129 C2113 1.429 . S
C2129 C2125 1.429 . S
C2129 C2130 1.523 . S
C2130 C2114 1.368 . S
C2130 C2126 1.368 . S
C2130 C2129 1.523 . S
H2131 C2106 0.950 . S
H2132 C2108 0.950 . S
H2133 C2109 0.949 . S
H2134 C2111 0.950 . S
H2135 C2113 0.950 . S
C2136 C2137 1.349 . S
C2136 C2138 1.327 . S
C2136 H2161 0.950 . S
C2137 C2136 1.349 . S
C2137 C2153 1.349 . S
C2138 C2136 1.327 . S
C2138 C2157 1.429 . S
C2138 H2162 0.950 . S
C2139 C2156 1.574 . S
C2139 C2158 1.368 . S
C2139 H2163 0.949 . S
H2140 C2144 0.949 . S
C2141 C2142 1.349 . S
C2141 C2143 1.327 . S
C2141 H2164 0.950 . S
C2142 C2141 1.349 . S
C2142 C2154 1.349 . S
C2143 C2141 1.327 . S
C2143 C2159 1.429 . S
C2143 H2165 0.950 . S
C2144 H2140 0.949 . S
C2144 C2152 1.574 . S
C2144 C2160 1.368 . S
H2145 C2153 0.950 . S
H2146 C2151 0.950 . S
H2147 C2152 0.949 . S
H2148 C2154 0.950 . S
H2149 C2155 0.950 . S
H2150 C2156 0.949 . S
C2151 H2146 0.950 . S
C2151 C2153 1.327 . S
C2151 C2157 1.429 . S
C2152 C2144 1.574 . S
C2152 H2147 0.949 . S
C2152 C2158 1.368 . S
C2153 C2137 1.349 . S
C2153 H2145 0.950 . S
C2153 C2151 1.327 . S
C2154 C2142 1.349 . S
C2154 H2148 0.950 . S
C2154 C2155 1.327 . S
C2155 H2149 0.950 . S
C2155 C2154 1.327 . S
C2155 C2159 1.429 . S
C2156 C2139 1.574 . S
C2156 H2150 0.949 . S
C2156 C2160 1.368 . S
C2157 C2138 1.429 . S
C2157 C2151 1.429 . S
C2157 C2158 1.523 . S
C2158 C2139 1.368 . S
C2158 C2152 1.368 . S
C2158 C2157 1.523 . S
C2159 C2143 1.429 . S
C2159 C2155 1.429 . S
C2159 C2160 1.523 . S
C2160 C2144 1.368 . S
C2160 C2156 1.368 . S
C2160 C2159 1.523 . S
H2161 C2136 0.950 . S
H2162 C2138 0.950 . S
H2163 C2139 0.949 . S
H2164 C2141 0.950 . S
H2165 C2143 0.950 . S
C2166 C2167 1.349 . S
C2166 C2168 1.327 . S
C2166 H2191 0.950 . S
C2167 C2166 1.349 . S
C2167 C2183 1.349 . S
C2168 C2166 1.327 . S
C2168 C2187 1.429 . S
C2168 H2192 0.950 . S
C2169 C2186 1.574 . S
C2169 C2188 1.368 . S
C2169 H2193 0.949 . S
H2170 C2174 0.949 . S
C2171 C2172 1.349 . S
C2171 C2173 1.327 . S
C2171 H2194 0.950 . S
C2172 C2171 1.349 . S
C2172 C2184 1.349 . S
C2173 C2171 1.327 . S
C2173 C2189 1.429 . S
C2173 H2195 0.950 . S
C2174 H2170 0.949 . S
C2174 C2182 1.574 . S
C2174 C2190 1.368 . S
H2175 C2183 0.950 . S
H2176 C2181 0.950 . S
H2177 C2182 0.949 . S
H2178 C2184 0.950 . S
H2179 C2185 0.950 . S
H2180 C2186 0.949 . S
C2181 H2176 0.950 . S
C2181 C2183 1.327 . S
C2181 C2187 1.429 . S
C2182 C2174 1.574 . S
C2182 H2177 0.949 . S
C2182 C2188 1.368 . S
C2183 C2167 1.349 . S
C2183 H2175 0.950 . S
C2183 C2181 1.327 . S
C2184 C2172 1.349 . S
C2184 H2178 0.950 . S
C2184 C2185 1.327 . S
C2185 H2179 0.950 . S
C2185 C2184 1.327 . S
C2185 C2189 1.429 . S
C2186 C2169 1.574 . S
C2186 H2180 0.949 . S
C2186 C2190 1.368 . S
C2187 C2168 1.429 . S
C2187 C2181 1.429 . S
C2187 C2188 1.523 . S
C2188 C2169 1.368 . S
C2188 C2182 1.368 . S
C2188 C2187 1.523 . S
C2189 C2173 1.429 . S
C2189 C2185 1.429 . S
C2189 C2190 1.523 . S
C2190 C2174 1.368 . S
C2190 C2186 1.368 . S
C2190 C2189 1.523 . S
H2191 C2166 0.950 . S
H2192 C2168 0.950 . S
H2193 C2169 0.949 . S
H2194 C2171 0.950 . S
H2195 C2173 0.950 . S
C2196 C2197 1.349 . S
C2196 C2198 1.327 . S
C2196 H2221 0.950 . S
C2197 C2196 1.349 . S
C2197 C2213 1.349 . S
C2198 C2196 1.327 . S
C2198 C2217 1.429 . S
C2198 H2222 0.950 . S
C2199 C2216 1.574 . S
C2199 C2218 1.368 . S
C2199 H2223 0.949 . S
H2200 C2204 0.949 . S
C2201 C2202 1.349 . S
C2201 C2203 1.327 . S
C2201 H2224 0.950 . S
C2202 C2201 1.349 . S
C2202 C2214 1.349 . S
C2203 C2201 1.327 . S
C2203 C2219 1.429 . S
C2203 H2225 0.950 . S
C2204 H2200 0.949 . S
C2204 C2212 1.574 . S
C2204 C2220 1.368 . S
H2205 C2213 0.950 . S
H2206 C2211 0.950 . S
H2207 C2212 0.949 . S
H2208 C2214 0.950 . S
H2209 C2215 0.950 . S
H2210 C2216 0.949 . S
C2211 H2206 0.950 . S
C2211 C2213 1.327 . S
C2211 C2217 1.429 . S
C2212 C2204 1.574 . S
C2212 H2207 0.949 . S
C2212 C2218 1.368 . S
C2213 C2197 1.349 . S
C2213 H2205 0.950 . S
C2213 C2211 1.327 . S
C2214 C2202 1.349 . S
C2214 H2208 0.950 . S
C2214 C2215 1.327 . S
C2215 H2209 0.950 . S
C2215 C2214 1.327 . S
C2215 C2219 1.429 . S
C2216 C2199 1.574 . S
C2216 H2210 0.949 . S
C2216 C2220 1.368 . S
C2217 C2198 1.429 . S
C2217 C2211 1.429 . S
C2217 C2218 1.523 . S
C2218 C2199 1.368 . S
C2218 C2212 1.368 . S
C2218 C2217 1.523 . S
C2219 C2203 1.429 . S
C2219 C2215 1.429 . S
C2219 C2220 1.523 . S
C2220 C2204 1.368 . S
C2220 C2216 1.368 . S
C2220 C2219 1.523 . S
H2221 C2196 0.950 . S
H2222 C2198 0.950 . S
H2223 C2199 0.949 . S
H2224 C2201 0.950 . S
H2225 C2203 0.950 . S
C2226 C2227 1.349 . S
C2226 C2228 1.327 . S
C2226 H2251 0.950 . S
C2227 C2226 1.349 . S
C2227 C2243 1.349 . S
C2228 C2226 1.327 . S
C2228 C2247 1.429 . S
C2228 H2252 0.950 . S
C2229 C2246 1.574 . S
C2229 C2248 1.368 . S
C2229 H2253 0.949 . S
H2230 C2234 0.949 . S
C2231 C2232 1.349 . S
C2231 C2233 1.327 . S
C2231 H2254 0.950 . S
C2232 C2231 1.349 . S
C2232 C2244 1.349 . S
C2233 C2231 1.327 . S
C2233 C2249 1.429 . S
C2233 H2255 0.950 . S
C2234 H2230 0.949 . S
C2234 C2242 1.574 . S
C2234 C2250 1.368 . S
H2235 C2243 0.950 . S
H2236 C2241 0.950 . S
H2237 C2242 0.949 . S
H2238 C2244 0.950 . S
H2239 C2245 0.950 . S
H2240 C2246 0.949 . S
C2241 H2236 0.950 . S
C2241 C2243 1.327 . S
C2241 C2247 1.429 . S
C2242 C2234 1.574 . S
C2242 H2237 0.949 . S
C2242 C2248 1.368 . S
C2243 C2227 1.349 . S
C2243 H2235 0.950 . S
C2243 C2241 1.327 . S
C2244 C2232 1.349 . S
C2244 H2238 0.950 . S
C2244 C2245 1.327 . S
C2245 H2239 0.950 . S
C2245 C2244 1.327 . S
C2245 C2249 1.429 . S
C2246 C2229 1.574 . S
C2246 H2240 0.949 . S
C2246 C2250 1.368 . S
C2247 C2228 1.429 . S
C2247 C2241 1.429 . S
C2247 C2248 1.523 . S
C2248 C2229 1.368 . S
C2248 C2242 1.368 . S
C2248 C2247 1.523 . S
C2249 C2233 1.429 . S
C2249 C2245 1.429 . S
C2249 C2250 1.523 . S
C2250 C2234 1.368 . S
C2250 C2246 1.368 . S
C2250 C2249 1.523 . S
H2251 C2226 0.950 . S
H2252 C2228 0.950 . S
H2253 C2229 0.949 . S
H2254 C2231 0.950 . S
H2255 C2233 0.950 . S
C2256 C2257 1.349 . S
C2256 C2258 1.327 . S
C2256 H2281 0.950 . S
C2257 C2256 1.349 . S
C2257 C2273 1.349 . S
C2258 C2256 1.327 . S
C2258 C2277 1.429 . S
C2258 H2282 0.950 . S
C2259 C2276 1.574 . S
C2259 C2278 1.368 . S
C2259 H2283 0.949 . S
H2260 C2264 0.949 . S
C2261 C2262 1.349 . S
C2261 C2263 1.327 . S
C2261 H2284 0.950 . S
C2262 C2261 1.349 . S
C2262 C2274 1.349 . S
C2263 C2261 1.327 . S
C2263 C2279 1.429 . S
C2263 H2285 0.950 . S
C2264 H2260 0.949 . S
C2264 C2272 1.574 . S
C2264 C2280 1.368 . S
H2265 C2273 0.950 . S
H2266 C2271 0.950 . S
H2267 C2272 0.949 . S
H2268 C2274 0.950 . S
H2269 C2275 0.950 . S
H2270 C2276 0.949 . S
C2271 H2266 0.950 . S
C2271 C2273 1.327 . S
C2271 C2277 1.429 . S
C2272 C2264 1.574 . S
C2272 H2267 0.949 . S
C2272 C2278 1.368 . S
C2273 C2257 1.349 . S
C2273 H2265 0.950 . S
C2273 C2271 1.327 . S
C2274 C2262 1.349 . S
C2274 H2268 0.950 . S
C2274 C2275 1.327 . S
C2275 H2269 0.950 . S
C2275 C2274 1.327 . S
C2275 C2279 1.429 . S
C2276 C2259 1.574 . S
C2276 H2270 0.949 . S
C2276 C2280 1.368 . S
C2277 C2258 1.429 . S
C2277 C2271 1.429 . S
C2277 C2278 1.523 . S
C2278 C2259 1.368 . S
C2278 C2272 1.368 . S
C2278 C2277 1.523 . S
C2279 C2263 1.429 . S
C2279 C2275 1.429 . S
C2279 C2280 1.523 . S
C2280 C2264 1.368 . S
C2280 C2276 1.368 . S
C2280 C2279 1.523 . S
H2281 C2256 0.950 . S
H2282 C2258 0.950 . S
H2283 C2259 0.949 . S
H2284 C2261 0.950 . S
H2285 C2263 0.950 . S
C2286 C2287 1.349 . S
C2286 C2288 1.327 . S
C2286 H2311 0.950 . S
C2287 C2286 1.349 . S
C2287 C2303 1.349 . S
C2288 C2286 1.327 . S
C2288 C2307 1.429 . S
C2288 H2312 0.950 . S
C2289 C2306 1.574 . S
C2289 C2308 1.368 . S
C2289 H2313 0.949 . S
H2290 C2294 0.949 . S
C2291 C2292 1.349 . S
C2291 C2293 1.327 . S
C2291 H2314 0.950 . S
C2292 C2291 1.349 . S
C2292 C2304 1.349 . S
C2293 C2291 1.327 . S
C2293 C2309 1.429 . S
C2293 H2315 0.950 . S
C2294 H2290 0.949 . S
C2294 C2302 1.574 . S
C2294 C2310 1.368 . S
H2295 C2303 0.950 . S
H2296 C2301 0.950 . S
H2297 C2302 0.949 . S
H2298 C2304 0.950 . S
H2299 C2305 0.950 . S
H2300 C2306 0.949 . S
C2301 H2296 0.950 . S
C2301 C2303 1.327 . S
C2301 C2307 1.429 . S
C2302 C2294 1.574 . S
C2302 H2297 0.949 . S
C2302 C2308 1.368 . S
C2303 C2287 1.349 . S
C2303 H2295 0.950 . S
C2303 C2301 1.327 . S
C2304 C2292 1.349 . S
C2304 H2298 0.950 . S
C2304 C2305 1.327 . S
C2305 H2299 0.950 . S
C2305 C2304 1.327 . S
C2305 C2309 1.429 . S
C2306 C2289 1.574 . S
C2306 H2300 0.949 . S
C2306 C2310 1.368 . S
C2307 C2288 1.429 . S
C2307 C2301 1.429 . S
C2307 C2308 1.523 . S
C2308 C2289 1.368 . S
C2308 C2302 1.368 . S
C2308 C2307 1.523 . S
C2309 C2293 1.429 . S
C2309 C2305 1.429 . S
C2309 C2310 1.523 . S
C2310 C2294 1.368 . S
C2310 C2306 1.368 . S
C2310 C2309 1.523 . S
H2311 C2286 0.950 . S
H2312 C2288 0.950 . S
H2313 C2289 0.949 . S
H2314 C2291 0.950 . S
H2315 C2293 0.950 . S
C2316 C2317 1.349 . S
C2316 C2318 1.327 . S
C2316 H2341 0.950 . S
C2317 C2316 1.349 . S
C2317 C2333 1.349 . S
C2318 C2316 1.327 . S
C2318 C2337 1.429 . S
C2318 H2342 0.950 . S
C2319 C2336 1.574 . S
C2319 C2338 1.368 . S
C2319 H2343 0.949 . S
H2320 C2324 0.949 . S
C2321 C2322 1.349 . S
C2321 C2323 1.327 . S
C2321 H2344 0.950 . S
C2322 C2321 1.349 . S
C2322 C2334 1.349 . S
C2323 C2321 1.327 . S
C2323 C2339 1.429 . S
C2323 H2345 0.950 . S
C2324 H2320 0.949 . S
C2324 C2332 1.574 . S
C2324 C2340 1.368 . S
H2325 C2333 0.950 . S
H2326 C2331 0.950 . S
H2327 C2332 0.949 . S
H2328 C2334 0.950 . S
H2329 C2335 0.950 . S
H2330 C2336 0.949 . S
C2331 H2326 0.950 . S
C2331 C2333 1.327 . S
C2331 C2337 1.429 . S
C2332 C2324 1.574 . S
C2332 H2327 0.949 . S
C2332 C2338 1.368 . S
C2333 C2317 1.349 . S
C2333 H2325 0.950 . S
C2333 C2331 1.327 . S
C2334 C2322 1.349 . S
C2334 H2328 0.950 . S
C2334 C2335 1.327 . S
C2335 H2329 0.950 . S
C2335 C2334 1.327 . S
C2335 C2339 1.429 . S
C2336 C2319 1.574 . S
C2336 H2330 0.949 . S
C2336 C2340 1.368 . S
C2337 C2318 1.429 . S
C2337 C2331 1.429 . S
C2337 C2338 1.523 . S
C2338 C2319 1.368 . S
C2338 C2332 1.368 . S
C2338 C2337 1.523 . S
C2339 C2323 1.429 . S
C2339 C2335 1.429 . S
C2339 C2340 1.523 . S
C2340 C2324 1.368 . S
C2340 C2336 1.368 . S
C2340 C2339 1.523 . S
H2341 C2316 0.950 . S
H2342 C2318 0.950 . S
H2343 C2319 0.949 . S
H2344 C2321 0.950 . S
H2345 C2323 0.950 . S
C2346 C2347 1.349 . S
C2346 C2348 1.327 . S
C2346 H2371 0.950 . S
C2347 C2346 1.349 . S
C2347 C2363 1.349 . S
C2348 C2346 1.327 . S
C2348 C2367 1.429 . S
C2348 H2372 0.950 . S
C2349 C2366 1.574 . S
C2349 C2368 1.368 . S
C2349 H2373 0.949 . S
H2350 C2354 0.949 . S
C2351 C2352 1.349 . S
C2351 C2353 1.327 . S
C2351 H2374 0.950 . S
C2352 C2351 1.349 . S
C2352 C2364 1.349 . S
C2353 C2351 1.327 . S
C2353 C2369 1.429 . S
C2353 H2375 0.950 . S
C2354 H2350 0.949 . S
C2354 C2362 1.574 . S
C2354 C2370 1.368 . S
H2355 C2363 0.950 . S
H2356 C2361 0.950 . S
H2357 C2362 0.949 . S
H2358 C2364 0.950 . S
H2359 C2365 0.950 . S
H2360 C2366 0.949 . S
C2361 H2356 0.950 . S
C2361 C2363 1.327 . S
C2361 C2367 1.429 . S
C2362 C2354 1.574 . S
C2362 H2357 0.949 . S
C2362 C2368 1.368 . S
C2363 C2347 1.349 . S
C2363 H2355 0.950 . S
C2363 C2361 1.327 . S
C2364 C2352 1.349 . S
C2364 H2358 0.950 . S
C2364 C2365 1.327 . S
C2365 H2359 0.950 . S
C2365 C2364 1.327 . S
C2365 C2369 1.429 . S
C2366 C2349 1.574 . S
C2366 H2360 0.949 . S
C2366 C2370 1.368 . S
C2367 C2348 1.429 . S
C2367 C2361 1.429 . S
C2367 C2368 1.523 . S
C2368 C2349 1.368 . S
C2368 C2362 1.368 . S
C2368 C2367 1.523 . S
C2369 C2353 1.429 . S
C2369 C2365 1.429 . S
C2369 C2370 1.523 . S
C2370 C2354 1.368 . S
C2370 C2366 1.368 . S
C2370 C2369 1.523 . S
H2371 C2346 0.950 . S
H2372 C2348 0.950 . S
H2373 C2349 0.949 . S
H2374 C2351 0.950 . S
H2375 C2353 0.950 . S
C2376 C2377 1.349 . S
C2376 C2378 1.327 . S
C2376 H2401 0.950 . S
C2377 C2376 1.349 . S
C2377 C2393 1.349 . S
C2378 C2376 1.327 . S
C2378 C2397 1.429 . S
C2378 H2402 0.950 . S
C2379 C2396 1.574 . S
C2379 C2398 1.368 . S
C2379 H2403 0.949 . S
H2380 C2384 0.949 . S
C2381 C2382 1.349 . S
C2381 C2383 1.327 . S
C2381 H2404 0.950 . S
C2382 C2381 1.349 . S
C2382 C2394 1.349 . S
C2383 C2381 1.327 . S
C2383 C2399 1.429 . S
C2383 H2405 0.950 . S
C2384 H2380 0.949 . S
C2384 C2392 1.574 . S
C2384 C2400 1.368 . S
H2385 C2393 0.950 . S
H2386 C2391 0.950 . S
H2387 C2392 0.949 . S
H2388 C2394 0.950 . S
H2389 C2395 0.950 . S
H2390 C2396 0.949 . S
C2391 H2386 0.950 . S
C2391 C2393 1.327 . S
C2391 C2397 1.429 . S
C2392 C2384 1.574 . S
C2392 H2387 0.949 . S
C2392 C2398 1.368 . S
C2393 C2377 1.349 . S
C2393 H2385 0.950 . S
C2393 C2391 1.327 . S
C2394 C2382 1.349 . S
C2394 H2388 0.950 . S
C2394 C2395 1.327 . S
C2395 H2389 0.950 . S
C2395 C2394 1.327 . S
C2395 C2399 1.429 . S
C2396 C2379 1.574 . S
C2396 H2390 0.949 . S
C2396 C2400 1.368 . S
C2397 C2378 1.429 . S
C2397 C2391 1.429 . S
C2397 C2398 1.523 . S
C2398 C2379 1.368 . S
C2398 C2392 1.368 . S
C2398 C2397 1.523 . S
C2399 C2383 1.429 . S
C2399 C2395 1.429 . S
C2399 C2400 1.523 . S
C2400 C2384 1.368 . S
C2400 C2396 1.368 . S
C2400 C2399 1.523 . S
H2401 C2376 0.950 . S
H2402 C2378 0.950 . S
H2403 C2379 0.949 . S
H2404 C2381 0.950 . S
H2405 C2383 0.950 . S
C2406 C2407 1.349 . S
C2406 C2408 1.327 . S
C2406 H2431 0.950 . S
C2407 C2406 1.349 . S
C2407 C2423 1.349 . S
C2408 C2406 1.327 . S
C2408 C2427 1.429 . S
C2408 H2432 0.950 . S
C2409 C2426 1.574 . S
C2409 C2428 1.368 . S
C2409 H2433 0.949 . S
H2410 C2414 0.949 . S
C2411 C2412 1.349 . S
C2411 C2413 1.327 . S
C2411 H2434 0.950 . S
C2412 C2411 1.349 . S
C2412 C2424 1.349 . S
C2413 C2411 1.327 . S
C2413 C2429 1.429 . S
C2413 H2435 0.950 . S
C2414 H2410 0.949 . S
C2414 C2422 1.574 . S
C2414 C2430 1.368 . S
H2415 C2423 0.950 . S
H2416 C2421 0.950 . S
H2417 C2422 0.949 . S
H2418 C2424 0.950 . S
H2419 C2425 0.950 . S
H2420 C2426 0.949 . S
C2421 H2416 0.950 . S
C2421 C2423 1.327 . S
C2421 C2427 1.429 . S
C2422 C2414 1.574 . S
C2422 H2417 0.949 . S
C2422 C2428 1.368 . S
C2423 C2407 1.349 . S
C2423 H2415 0.950 . S
C2423 C2421 1.327 . S
C2424 C2412 1.349 . S
C2424 H2418 0.950 . S
C2424 C2425 1.327 . S
C2425 H2419 0.950 . S
C2425 C2424 1.327 . S
C2425 C2429 1.429 . S
C2426 C2409 1.574 . S
C2426 H2420 0.949 . S
C2426 C2430 1.368 . S
C2427 C2408 1.429 . S
C2427 C2421 1.429 . S
C2427 C2428 1.523 . S
C2428 C2409 1.368 . S
C2428 C2422 1.368 . S
C2428 C2427 1.523 . S
C2429 C2413 1.429 . S
C2429 C2425 1.429 . S
C2429 C2430 1.523 . S
C2430 C2414 1.368 . S
C2430 C2426 1.368 . S
C2430 C2429 1.523 . S
H2431 C2406 0.950 . S
H2432 C2408 0.950 . S
H2433 C2409 0.949 . S
H2434 C2411 0.950 . S
H2435 C2413 0.950 . S
C2436 C2437 1.349 . S
C2436 C2438 1.327 . S
C2436 H2461 0.950 . S
C2437 C2436 1.349 . S
C2437 C2453 1.349 . S
C2438 C2436 1.327 . S
C2438 C2457 1.429 . S
C2438 H2462 0.950 . S
C2439 C2456 1.574 . S
C2439 C2458 1.368 . S
C2439 H2463 0.949 . S
H2440 C2444 0.949 . S
C2441 C2442 1.349 . S
C2441 C2443 1.327 . S
C2441 H2464 0.950 . S
C2442 C2441 1.349 . S
C2442 C2454 1.349 . S
C2443 C2441 1.327 . S
C2443 C2459 1.429 . S
C2443 H2465 0.950 . S
C2444 H2440 0.949 . S
C2444 C2452 1.574 . S
C2444 C2460 1.368 . S
H2445 C2453 0.950 . S
H2446 C2451 0.950 . S
H2447 C2452 0.949 . S
H2448 C2454 0.950 . S
H2449 C2455 0.950 . S
H2450 C2456 0.949 . S
C2451 H2446 0.950 . S
C2451 C2453 1.327 . S
C2451 C2457 1.429 . S
C2452 C2444 1.574 . S
C2452 H2447 0.949 . S
C2452 C2458 1.368 . S
C2453 C2437 1.349 . S
C2453 H2445 0.950 . S
C2453 C2451 1.327 . S
C2454 C2442 1.349 . S
C2454 H2448 0.950 . S
C2454 C2455 1.327 . S
C2455 H2449 0.950 . S
C2455 C2454 1.327 . S
C2455 C2459 1.429 . S
C2456 C2439 1.574 . S
C2456 H2450 0.949 . S
C2456 C2460 1.368 . S
C2457 C2438 1.429 . S
C2457 C2451 1.429 . S
C2457 C2458 1.523 . S
C2458 C2439 1.368 . S
C2458 C2452 1.368 . S
C2458 C2457 1.523 . S
C2459 C2443 1.429 . S
C2459 C2455 1.429 . S
C2459 C2460 1.523 . S
C2460 C2444 1.368 . S
C2460 C2456 1.368 . S
C2460 C2459 1.523 . S
H2461 C2436 0.950 . S
H2462 C2438 0.950 . S
H2463 C2439 0.949 . S
H2464 C2441 0.950 . S
H2465 C2443 0.950 . S
C2466 C2467 1.349 . S
C2466 C2468 1.327 . S
C2466 H2491 0.950 . S
C2467 C2466 1.349 . S
C2467 C2483 1.349 . S
C2468 C2466 1.327 . S
C2468 C2487 1.429 . S
C2468 H2492 0.950 . S
C2469 C2486 1.574 . S
C2469 C2488 1.368 . S
C2469 H2493 0.949 . S
H2470 C2474 0.949 . S
C2471 C2472 1.349 . S
C2471 C2473 1.327 . S
C2471 H2494 0.950 . S
C2472 C2471 1.349 . S
C2472 C2484 1.349 . S
C2473 C2471 1.327 . S
C2473 C2489 1.429 . S
C2473 H2495 0.950 . S
C2474 H2470 0.949 . S
C2474 C2482 1.574 . S
C2474 C2490 1.368 . S
H2475 C2483 0.950 . S
H2476 C2481 0.950 . S
H2477 C2482 0.949 . S
H2478 C2484 0.950 . S
H2479 C2485 0.950 . S
H2480 C2486 0.949 . S
C2481 H2476 0.950 . S
C2481 C2483 1.327 . S
C2481 C2487 1.429 . S
C2482 C2474 1.574 . S
C2482 H2477 0.949 . S
C2482 C2488 1.368 . S
C2483 C2467 1.349 . S
C2483 H2475 0.950 . S
C2483 C2481 1.327 . S
C2484 C2472 1.349 . S
C2484 H2478 0.950 . S
C2484 C2485 1.327 . S
C2485 H2479 0.950 . S
C2485 C2484 1.327 . S
C2485 C2489 1.429 . S
C2486 C2469 1.574 . S
C2486 H2480 0.949 . S
C2486 C2490 1.368 . S
C2487 C2468 1.429 . S
C2487 C2481 1.429 . S
C2487 C2488 1.523 . S
C2488 C2469 1.368 . S
C2488 C2482 1.368 . S
C2488 C2487 1.523 . S
C2489 C2473 1.429 . S
C2489 C2485 1.429 . S
C2489 C2490 1.523 . S
C2490 C2474 1.368 . S
C2490 C2486 1.368 . S
C2490 C2489 1.523 . S
H2491 C2466 0.950 . S
H2492 C2468 0.950 . S
H2493 C2469 0.949 . S
H2494 C2471 0.950 . S
H2495 C2473 0.950 . S
C2496 C2497 1.349 . S
C2496 C2498 1.327 . S
C2496 H2521 0.950 . S
C2497 C2496 1.349 . S
C2497 C2513 1.349 . S
C2498 C2496 1.327 . S
C2498 C2517 1.429 . S
C2498 H2522 0.950 . S
C2499 C2516 1.574 . S
C2499 C2518 1.368 . S
C2499 H2523 0.949 . S
H2500 C2504 0.949 . S
C2501 C2502 1.349 . S
C2501 C2503 1.327 . S
C2501 H2524 0.950 . S
C2502 C2501 1.349 . S
C2502 C2514 1.349 . S
C2503 C2501 1.327 . S
C2503 C2519 1.429 . S
C2503 H2525 0.950 . S
C2504 H2500 0.949 . S
C2504 C2512 1.574 . S
C2504 C2520 1.368 . S
H2505 C2513 0.950 . S
H2506 C2511 0.950 . S
H2507 C2512 0.949 . S
H2508 C2514 0.950 . S
H2509 C2515 0.950 . S
H2510 C2516 0.949 . S
C2511 H2506 0.950 . S
C2511 C2513 1.327 . S
C2511 C2517 1.429 . S
C2512 C2504 1.574 . S
C2512 H2507 0.949 . S
C2512 C2518 1.368 . S
C2513 C2497 1.349 . S
C2513 H2505 0.950 . S
C2513 C2511 1.327 . S
C2514 C2502 1.349 . S
C2514 H2508 0.950 . S
C2514 C2515 1.327 . S
C2515 H2509 0.950 . S
C2515 C2514 1.327 . S
C2515 C2519 1.429 . S
C2516 C2499 1.574 . S
C2516 H2510 0.949 . S
C2516 C2520 1.368 . S
C2517 C2498 1.429 . S
C2517 C2511 1.429 . S
C2517 C2518 1.523 . S
C2518 C2499 1.368 . S
C2518 C2512 1.368 . S
C2518 C2517 1.523 . S
C2519 C2503 1.429 . S
C2519 C2515 1.429 . S
C2519 C2520 1.523 . S
C2520 C2504 1.368 . S
C2520 C2516 1.368 . S
C2520 C2519 1.523 . S
H2521 C2496 0.950 . S
H2522 C2498 0.950 . S
H2523 C2499 0.949 . S
H2524 C2501 0.950 . S
H2525 C2503 0.950 . S
C2526 C2527 1.349 . S
C2526 C2528 1.327 . S
C2526 H2551 0.950 . S
C2527 C2526 1.349 . S
C2527 C2543 1.349 . S
C2528 C2526 1.327 . S
C2528 C2547 1.429 . S
C2528 H2552 0.950 . S
C2529 C2546 1.574 . S
C2529 C2548 1.368 . S
C2529 H2553 0.949 . S
H2530 C2534 0.949 . S
C2531 C2532 1.349 . S
C2531 C2533 1.327 . S
C2531 H2554 0.950 . S
C2532 C2531 1.349 . S
C2532 C2544 1.349 . S
C2533 C2531 1.327 . S
C2533 C2549 1.429 . S
C2533 H2555 0.950 . S
C2534 H2530 0.949 . S
C2534 C2542 1.574 . S
C2534 C2550 1.368 . S
H2535 C2543 0.950 . S
H2536 C2541 0.950 . S
H2537 C2542 0.949 . S
H2538 C2544 0.950 . S
H2539 C2545 0.950 . S
H2540 C2546 0.949 . S
C2541 H2536 0.950 . S
C2541 C2543 1.327 . S
C2541 C2547 1.429 . S
C2542 C2534 1.574 . S
C2542 H2537 0.949 . S
C2542 C2548 1.368 . S
C2543 C2527 1.349 . S
C2543 H2535 0.950 . S
C2543 C2541 1.327 . S
C2544 C2532 1.349 . S
C2544 H2538 0.950 . S
C2544 C2545 1.327 . S
C2545 H2539 0.950 . S
C2545 C2544 1.327 . S
C2545 C2549 1.429 . S
C2546 C2529 1.574 . S
C2546 H2540 0.949 . S
C2546 C2550 1.368 . S
C2547 C2528 1.429 . S
C2547 C2541 1.429 . S
C2547 C2548 1.523 . S
C2548 C2529 1.368 . S
C2548 C2542 1.368 . S
C2548 C2547 1.523 . S
C2549 C2533 1.429 . S
C2549 C2545 1.429 . S
C2549 C2550 1.523 . S
C2550 C2534 1.368 . S
C2550 C2546 1.368 . S
C2550 C2549 1.523 . S
H2551 C2526 0.950 . S
H2552 C2528 0.950 . S
H2553 C2529 0.949 . S
H2554 C2531 0.950 . S
H2555 C2533 0.950 . S
C2556 C2557 1.349 . S
C2556 C2558 1.327 . S
C2556 H2581 0.950 . S
C2557 C2556 1.349 . S
C2557 C2573 1.349 . S
C2558 C2556 1.327 . S
C2558 C2577 1.429 . S
C2558 H2582 0.950 . S
C2559 C2576 1.574 . S
C2559 C2578 1.368 . S
C2559 H2583 0.949 . S
H2560 C2564 0.949 . S
C2561 C2562 1.349 . S
C2561 C2563 1.327 . S
C2561 H2584 0.950 . S
C2562 C2561 1.349 . S
C2562 C2574 1.349 . S
C2563 C2561 1.327 . S
C2563 C2579 1.429 . S
C2563 H2585 0.950 . S
C2564 H2560 0.949 . S
C2564 C2572 1.574 . S
C2564 C2580 1.368 . S
H2565 C2573 0.950 . S
H2566 C2571 0.950 . S
H2567 C2572 0.949 . S
H2568 C2574 0.950 . S
H2569 C2575 0.950 . S
H2570 C2576 0.949 . S
C2571 H2566 0.950 . S
C2571 C2573 1.327 . S
C2571 C2577 1.429 . S
C2572 C2564 1.574 . S
C2572 H2567 0.949 . S
C2572 C2578 1.368 . S
C2573 C2557 1.349 . S
C2573 H2565 0.950 . S
C2573 C2571 1.327 . S
C2574 C2562 1.349 . S
C2574 H2568 0.950 . S
C2574 C2575 1.327 . S
C2575 H2569 0.950 . S
C2575 C2574 1.327 . S
C2575 C2579 1.429 . S
C2576 C2559 1.574 . S
C2576 H2570 0.949 . S
C2576 C2580 1.368 . S
C2577 C2558 1.429 . S
C2577 C2571 1.429 . S
C2577 C2578 1.523 . S
C2578 C2559 1.368 . S
C2578 C2572 1.368 . S
C2578 C2577 1.523 . S
C2579 C2563 1.429 . S
C2579 C2575 1.429 . S
C2579 C2580 1.523 . S
C2580 C2564 1.368 . S
C2580 C2576 1.368 . S
C2580 C2579 1.523 . S
H2581 C2556 0.950 . S
H2582 C2558 0.950 . S
H2583 C2559 0.949 . S
H2584 C2561 0.950 . S
H2585 C2563 0.950 . S
C2586 C2587 1.349 . S
C2586 C2588 1.327 . S
C2586 H2611 0.950 . S
C2587 C2586 1.349 . S
C2587 C2603 1.349 . S
C2588 C2586 1.327 . S
C2588 C2607 1.429 . S
C2588 H2612 0.950 . S
C2589 C2606 1.574 . S
C2589 C2608 1.368 . S
C2589 H2613 0.949 . S
H2590 C2594 0.949 . S
C2591 C2592 1.349 . S
C2591 C2593 1.327 . S
C2591 H2614 0.950 . S
C2592 C2591 1.349 . S
C2592 C2604 1.349 . S
C2593 C2591 1.327 . S
C2593 C2609 1.429 . S
C2593 H2615 0.950 . S
C2594 H2590 0.949 . S
C2594 C2602 1.574 . S
C2594 C2610 1.368 . S
H2595 C2603 0.950 . S
H2596 C2601 0.950 . S
H2597 C2602 0.949 . S
H2598 C2604 0.950 . S
H2599 C2605 0.950 . S
H2600 C2606 0.949 . S
C2601 H2596 0.950 . S
C2601 C2603 1.327 . S
C2601 C2607 1.429 . S
C2602 C2594 1.574 . S
C2602 H2597 0.949 . S
C2602 C2608 1.368 . S
C2603 C2587 1.349 . S
C2603 H2595 0.950 . S
C2603 C2601 1.327 . S
C2604 C2592 1.349 . S
C2604 H2598 0.950 . S
C2604 C2605 1.327 . S
C2605 H2599 0.950 . S
C2605 C2604 1.327 . S
C2605 C2609 1.429 . S
C2606 C2589 1.574 . S
C2606 H2600 0.949 . S
C2606 C2610 1.368 . S
C2607 C2588 1.429 . S
C2607 C2601 1.429 . S
C2607 C2608 1.523 . S
C2608 C2589 1.368 . S
C2608 C2602 1.368 . S
C2608 C2607 1.523 . S
C2609 C2593 1.429 . S
C2609 C2605 1.429 . S
C2609 C2610 1.523 . S
C2610 C2594 1.368 . S
C2610 C2606 1.368 . S
C2610 C2609 1.523 . S
H2611 C2586 0.950 . S
H2612 C2588 0.950 . S
H2613 C2589 0.949 . S
H2614 C2591 0.950 . S
H2615 C2593 0.950 . S
C817 C203 0.411 . S
C822 C33 0.411 . S
C847 C67 0.411 . S
C852 C237 0.411 . S
C877 C101 0.411 . S
C882 C271 0.411 . S
C907 C169 0.411 . S
C912 C135 0.411 . S
C937 C305 0.411 . S
C942 C815 0.411 . S
C967 C747 0.411 . S
C972 C339 0.411 . S
C997 C373 0.411 . S
C1002 C781 0.411 . S
C1027 C577 0.411 . S
C1032 C407 0.411 . S
C1057 C441 0.411 . S
C1062 C713 0.411 . S
C1087 C475 0.411 . S
C1092 C611 0.411 . S
C1117 C645 0.411 . S
C1122 C509 0.411 . S
C1147 C543 0.411 . S
C1152 C679 0.411 . S
C1177 C104 1.961 . S
C1182 C5 1.910 . S
C1207 C39 1.910 . S
C1212 C2 1.961 . S
C1237 C73 1.910 . S
C1242 C36 1.961 . S
C1267 C70 1.961 . S
C1272 C107 1.910 . S
C1297 C172 1.961 . S
C1302 C141 1.910 . S
C1327 C175 1.910 . S
C1332 C206 1.961 . S
C1357 C240 1.961 . S
C1362 C209 1.910 . S
C1387 C138 1.961 . S
C1392 C243 1.910 . S
C1417 C614 1.961 . S
C1422 C277 1.910 . S
C1447 C311 1.910 . S
C1452 C648 1.961 . S
C1477 C682 1.961 . S
C1482 C345 1.910 . S
C1507 C379 1.910 . S
C1512 C580 1.961 . S
C1537 C750 1.961 . S
C1542 C413 1.910 . S
C1567 C447 1.910 . S
C1572 C546 1.961 . S
C1597 C784 1.961 . S
C1602 C481 1.910 . S
C1627 C515 1.910 . S
C1632 C716 1.961 . S
C1657 C308 1.961 . S
C1662 C549 1.910 . S
C1687 C512 1.961 . S
C1692 C583 1.910 . S
C1717 C617 1.910 . S
C1722 C410 1.961 . S
C1747 C651 1.910 . S
C1752 C444 1.961 . S
C1777 C478 1.961 . S
C1782 C685 1.910 . S
C1807 C376 1.961 . S
C1812 C719 1.910 . S
C1837 C274 1.961 . S
C1842 C753 1.910 . S
C1867 C787 1.910 . S
C1872 C342 1.961 . S
C1897 C9 1.243 . S
C1902 C564 1.256 . S
C1927 C802 1.256 . S
C1932 C43 1.243 . S
C1957 C77 1.243 . S
C1962 C734 1.256 . S
C1987 C768 1.256 . S
C1992 C111 1.243 . S
C2017 C145 1.243 . S
C2022 C598 1.256 . S
C2047 C179 1.243 . S
C2052 C632 1.256 . S
C2077 C666 1.256 . S
C2082 C213 1.243 . S
C2107 C700 1.256 . S
C2112 C247 1.243 . S
C2137 C20 1.256 . S
C2142 C281 1.243 . S
C2167 C315 1.243 . S
C2172 C54 1.256 . S
C2197 C349 1.243 . S
C2202 C88 1.256 . S
C2227 C383 1.243 . S
C2232 C122 1.256 . S
C2257 C417 1.243 . S
C2262 C156 1.256 . S
C2287 C451 1.243 . S
C2292 C190 1.256 . S
C2317 C485 1.243 . S
C2322 C224 1.256 . S
C2347 C519 1.243 . S
C2352 C258 1.256 . S
C2377 C292 1.256 . S
C2382 C553 1.243 . S
C2407 C587 1.243 . S
C2412 C428 1.256 . S
C2437 C621 1.243 . S
C2442 C462 1.256 . S
C2467 C496 1.256 . S
C2472 C655 1.243 . S
C2497 C689 1.243 . S
C2502 C530 1.256 . S
C2527 C360 1.256 . S
C2532 C723 1.243 . S
C2557 C394 1.256 . S
C2562 C757 1.243 . S
C2587 C791 1.243 . S
C2592 C326 1.256 . S
