# Generated by pormake.
# Topology snk, (6)-cn, num edge types: 1
# Building blocks:
#     Node 0, Type 0, BuildingBlock: KUMBUR_clean_sbu_1, # of connection points: 6
#     Node 1, Type 0, BuildingBlock: KUMBUR_clean_sbu_1, # of connection points: 6
#     Node 2, Type 0, BuildingBlock: KUMBUR_clean_sbu_1, # of connection points: 6
#     Node 3, Type 0, BuildingBlock: KUMBUR_clean_sbu_1, # of connection points: 6
#     Node 4, Type 0, BuildingBlock: KUMBUR_clean_sbu_1, # of connection points: 6
#     Node 5, Type 0, BuildingBlock: KUMBUR_clean_sbu_1, # of connection points: 6
#     Node 6, Type 0, BuildingBlock: KUMBUR_clean_sbu_1, # of connection points: 6
#     Node 7, Type 0, BuildingBlock: KUMBUR_clean_sbu_1, # of connection points: 6
#     Edge 8, Type (0, 0), BuildingBlock: AJUNOK_clean_linker_0, # of connection points: 2
#     Edge 9, Type (0, 0), BuildingBlock: AJUNOK_clean_linker_0, # of connection points: 2
#     Edge 10, Type (0, 0), BuildingBlock: AJUNOK_clean_linker_0, # of connection points: 2
#     Edge 11, Type (0, 0), BuildingBlock: AJUNOK_clean_linker_0, # of connection points: 2
#     Edge 12, Type (0, 0), BuildingBlock: AJUNOK_clean_linker_0, # of connection points: 2
#     Edge 13, Type (0, 0), BuildingBlock: AJUNOK_clean_linker_0, # of connection points: 2
#     Edge 14, Type (0, 0), BuildingBlock: AJUNOK_clean_linker_0, # of connection points: 2
#     Edge 15, Type (0, 0), BuildingBlock: AJUNOK_clean_linker_0, # of connection points: 2
#     Edge 16, Type (0, 0), BuildingBlock: AJUNOK_clean_linker_0, # of connection points: 2
#     Edge 17, Type (0, 0), BuildingBlock: AJUNOK_clean_linker_0, # of connection points: 2
#     Edge 18, Type (0, 0), BuildingBlock: AJUNOK_clean_linker_0, # of connection points: 2
#     Edge 19, Type (0, 0), BuildingBlock: AJUNOK_clean_linker_0, # of connection points: 2
#     Edge 20, Type (0, 0), BuildingBlock: AJUNOK_clean_linker_0, # of connection points: 2
#     Edge 21, Type (0, 0), BuildingBlock: AJUNOK_clean_linker_0, # of connection points: 2
#     Edge 22, Type (0, 0), BuildingBlock: AJUNOK_clean_linker_0, # of connection points: 2
#     Edge 23, Type (0, 0), BuildingBlock: AJUNOK_clean_linker_0, # of connection points: 2
#     Edge 24, Type (0, 0), BuildingBlock: AJUNOK_clean_linker_0, # of connection points: 2
#     Edge 25, Type (0, 0), BuildingBlock: AJUNOK_clean_linker_0, # of connection points: 2
#     Edge 26, Type (0, 0), BuildingBlock: AJUNOK_clean_linker_0, # of connection points: 2
#     Edge 27, Type (0, 0), BuildingBlock: AJUNOK_clean_linker_0, # of connection points: 2
#     Edge 28, Type (0, 0), BuildingBlock: AJUNOK_clean_linker_0, # of connection points: 2
#     Edge 29, Type (0, 0), BuildingBlock: AJUNOK_clean_linker_0, # of connection points: 2
#     Edge 30, Type (0, 0), BuildingBlock: AJUNOK_clean_linker_0, # of connection points: 2
#     Edge 31, Type (0, 0), BuildingBlock: AJUNOK_clean_linker_0, # of connection points: 2
# Relax obj value: 0.013
# Max RMSD: 0.089
# Mean RMSD: 0.087
data_MOF--net-snk--node1-KUMBUR_clean_sbu_1--edge1-AJUNOK_clean_linker_0
_symmetry_space_group_name_H-M    P1
_symmetry_Int_Tables_number       1
_symmetry_cell_setting            triclinic
loop_
_symmetry_equiv_pos_as_xyz
'x, y, z'
_cell_length_a     27.195059
_cell_length_b     27.165941
_cell_length_c     20.233938
_cell_angle_alpha  89.538751
_cell_angle_beta   90.376482
_cell_angle_gamma 90.356381
loop_
_atom_site_label
_atom_site_type_symbol
_atom_site_fract_x
_atom_site_fract_y
_atom_site_fract_z
_atom_type_partial_charge
Tb0 Tb 1.0064 0.04934 0.61174 0.0
C1 C 0.98121 0.86206 0.42817 0.0
N2 N 0.02196 0.8893 0.44312 0.0
C3 C 0.07366 0.8213 0.41677 0.0
C4 C 0.98539 0.81344 0.40547 0.0
C5 C 0.06776 0.86857 0.44182 0.0
C6 C 0.03246 0.79421 0.39655 0.0
C7 C 0.89234 0.85679 0.41724 0.0
C8 C 0.93532 0.88418 0.43138 0.0
C9 C 0.89626 0.80746 0.39774 0.0
C10 C 0.94271 0.78612 0.3907 0.0
Tb11 Tb 1.00758 0.97173 0.45152 0.0
N12 N 0.93301 0.93282 0.44673 0.0
C13 C 0.84681 0.88028 0.42108 0.0
C14 C 0.88885 0.95623 0.44777 0.0
C15 C 0.84509 0.93021 0.43658 0.0
H16 H 0.10022 0.8901 0.45303 0.0
H17 H 0.81012 0.94896 0.43842 0.0
H18 H 0.91097 0.12609 0.61836 0.0
H19 H 0.2 0.07325 0.6597 0.0
H20 H 0.88724 0.99474 0.45728 0.0
H21 H 0.81295 0.86056 0.41067 0.0
H22 H 0.12513 0.02689 0.63034 0.0
H23 H 0.11002 0.80596 0.41269 0.0
H24 H 0.86366 0.78593 0.38628 0.0
H25 H 0.94525 0.74847 0.37381 0.0
H26 H 0.89779 0.21109 0.65486 0.0
H27 H 0.03733 0.75769 0.37654 0.0
H28 H 0.19521 0.16279 0.68017 0.0
N29 N 0.98916 0.13069 0.62583 0.0
C30 C 0.0288 0.1594 0.64119 0.0
C31 C 0.93482 0.19715 0.65043 0.0
C32 C 0.02273 0.20826 0.66236 0.0
C33 C 0.94252 0.14928 0.62829 0.0
C34 C 0.97501 0.22668 0.66783 0.0
N35 N 0.07923 0.08961 0.62704 0.0
C36 C 0.12293 0.06597 0.63577 0.0
C37 C 0.11685 0.16616 0.66082 0.0
C38 C 0.07527 0.13828 0.64156 0.0
C39 C 0.16244 0.14268 0.66542 0.0
C40 C 0.16531 0.09217 0.65387 0.0
H41 H 0.96877 0.26368 0.68544 0.0
H42 H 0.06021 0.27423 0.69592 0.0
H43 H 0.1427 0.23773 0.69314 0.0
O44 O 0.02046 1.00714 0.69771 0.0
O45 O 0.04966 0.08281 0.52972 0.0
O46 O 0.07287 0.01948 0.46062 0.0
O47 O 0.98343 0.07705 0.70195 0.0
O48 O 0.04478 0.97788 0.61402 0.0
O49 O 0.07539 0.96404 0.51022 0.0
O50 O 0.98805 1.00327 0.35867 0.0
O51 O 0.97118 0.93855 0.54011 0.0
O52 O 0.94001 1.00492 0.59421 0.0
O53 O 0.03321 0.9391 0.36589 0.0
O54 O 0.9716 0.0447 0.44582 0.0
O55 O 0.94086 0.05987 0.5493 0.0
C56 C 0.07573 0.06569 0.48011 0.0
C57 C 0.96494 0.02081 0.78482 0.0
C58 C 0.9535 1.00823 0.90181 0.0
C59 C 0.90232 0.01024 0.89261 0.0
C60 C 0.91381 0.02059 0.7749 0.0
C61 C 0.88254 0.0147 0.82892 0.0
C62 C 0.98448 0.01276 0.84753 0.0
C63 C 0.07603 0.95632 0.57447 0.0
C64 C 0.99858 0.03909 0.73489 0.0
C65 C 0.06419 0.23649 0.67995 0.0
C66 C 0.11119 0.21571 0.67834 0.0
C67 C 0.94169 0.95708 0.58519 0.0
C68 C 0.04481 0.98711 0.27217 0.0
C69 C 0.05191 1.00324 0.15471 0.0
C70 C 0.10336 1.00323 0.16063 0.0
C71 C 0.09642 0.98762 0.2781 0.0
C72 C 0.02287 0.99555 0.21067 0.0
C73 C 0.12548 0.99621 0.22245 0.0
C74 C 0.94197 0.06869 0.48531 0.0
C75 C 0.01341 0.97078 0.32655 0.0
H76 H 0.87787 1.00868 0.93457 0.0
H77 H 0.8983 0.0277 0.72638 0.0
H78 H 0.84308 0.01572 0.82178 0.0
H79 H 0.02405 0.01416 0.85495 0.0
H80 H 0.12626 1.00835 0.11749 0.0
H81 H 0.11413 0.98079 0.32538 0.0
H82 H 0.98315 0.99346 0.20565 0.0
H83 H 0.16516 0.99646 0.22702 0.0
Tb84 Tb 0.21111 0.75326 0.85378 0.0
C85 C 0.41545 0.727 0.73513 0.0
N86 N 0.38754 0.76806 0.72745 0.0
C87 C 0.45734 0.81886 0.75361 0.0
C88 C 0.46521 0.73028 0.75425 0.0
C89 C 0.40816 0.81378 0.73407 0.0
C90 C 0.48586 0.77693 0.76446 0.0
C91 C 0.41966 0.63778 0.73931 0.0
C92 C 0.39316 0.68131 0.72712 0.0
C93 C 0.46957 0.64085 0.75718 0.0
C94 C 0.49234 0.68697 0.76391 0.0
Tb95 Tb 0.30611 0.7542 0.70524 0.0
N96 N 0.34422 0.67979 0.7128 0.0
C97 C 0.39479 0.59265 0.73434 0.0
C98 C 0.32112 0.63599 0.70177 0.0
C99 C 0.34567 0.5917 0.71371 0.0
H100 H 0.38676 0.84649 0.72473 0.0
H101 H 0.32665 0.55693 0.70737 0.0
H102 H 0.13385 0.65781 0.84842 0.0
H103 H 0.18024 0.94929 0.86795 0.0
H104 H 0.28385 0.63523 0.68432 0.0
H105 H 0.4132 0.55844 0.74555 0.0
H106 H 0.22962 0.87368 0.87289 0.0
H107 H 0.47325 0.85512 0.76024 0.0
H108 H 0.49081 0.6079 0.76628 0.0
H109 H 0.53083 0.68878 0.77704 0.0
H110 H 0.04526 0.64491 0.82627 0.0
H111 H 0.52386 0.781 0.78004 0.0
H112 H 0.09048 0.94407 0.84773 0.0
N113 N 0.12908 0.73604 0.84506 0.0
C114 C 0.09897 0.77571 0.8408 0.0
C115 C 0.05996 0.68189 0.83041 0.0
C116 C 0.04824 0.77011 0.82866 0.0
C117 C 0.11015 0.68935 0.84244 0.0
C118 C 0.02923 0.72251 0.82148 0.0
N119 N 0.16919 0.82601 0.85298 0.0
C120 C 0.19086 0.8708 0.86296 0.0
C121 C 0.0897 0.86446 0.84296 0.0
C122 C 0.11949 0.82225 0.84671 0.0
C123 C 0.11203 0.91069 0.85009 0.0
C124 C 0.16275 0.91379 0.86103 0.0
H125 H 0.99091 0.71681 0.80872 0.0
H126 H 0.97933 0.80848 0.81332 0.0
H127 H 0.01547 0.89111 0.82741 0.0
O128 O 0.23666 0.776 0.94709 0.0
O129 O 0.18729 0.79075 0.76076 0.0
O130 O 0.25529 0.81685 0.70094 0.0
O131 O 0.17771 0.72339 0.93889 0.0
O132 O 0.2813 0.79415 0.86308 0.0
O133 O 0.30381 0.8237 0.76025 0.0
O134 O 0.29352 0.72737 0.60914 0.0
O135 O 0.32634 0.72359 0.8039 0.0
O136 O 0.25745 0.6876 0.84702 0.0
O137 O 0.34658 0.78475 0.62665 0.0
O138 O 0.23442 0.71619 0.69091 0.0
O139 O 0.21024 0.68647 0.79313 0.0
C140 C 0.20792 0.81863 0.71457 0.0
C141 C 0.23211 0.71508 0.0299 0.0
C142 C 0.26091 0.70429 0.1437 0.0
C143 C 0.28216 0.65926 0.12619 0.0
C144 C 0.25224 0.66932 1.014 0.0
C145 C 0.27763 0.64187 0.06169 0.0
C146 C 0.23652 0.73244 0.09485 0.0
C147 C 0.30433 0.82653 0.82529 0.0
C148 C 0.20791 0.74569 0.97891 0.0
C149 C 0.01841 0.81206 0.82308 0.0
C150 C 0.03898 0.85912 0.83109 0.0
C151 C 0.30537 0.68907 0.84023 0.0
C152 C 0.30516 0.78528 0.52331 0.0
C153 C 0.2792 0.78469 0.40763 0.0
C154 C 0.26775 0.83485 0.41181 0.0
C155 C 0.29469 0.83574 0.52589 0.0
C156 C 0.29796 0.75994 0.46359 0.0
C157 C 0.27581 0.86024 0.47051 0.0
C158 C 0.2086 0.68549 0.72805 0.0
C159 C 0.32377 0.75879 0.58215 0.0
H160 H 0.3014 0.63711 0.16272 0.0
H161 H 0.2482 0.65483 0.96482 0.0
H162 H 0.29349 0.60682 0.04875 0.0
H163 H 0.22143 0.76804 0.10717 0.0
H164 H 0.25365 0.85465 0.36908 0.0
H165 H 0.30166 0.8562 0.57054 0.0
H166 H 0.30668 0.72111 0.46072 0.0
H167 H 0.2679 0.89914 0.47268 0.0
Tb168 Tb 0.49949 0.96022 0.11371 0.0
C169 C 0.55949 0.15103 0.96264 0.0
N170 N 0.5134 0.13323 0.97344 0.0
C171 C 0.48684 0.21349 1.00614 0.0
C172 C 0.57133 0.20082 0.97454 0.0
C173 C 0.47679 0.16398 0.99296 0.0
C174 C 0.53443 0.2319 0.99745 0.0
C175 C 0.64365 0.13556 0.9308 0.0
C176 C 0.59536 0.11847 0.94261 0.0
C177 C 0.65566 0.18517 0.94231 0.0
C178 C 0.61966 0.21763 0.96462 0.0
Tb179 Tb 0.50193 0.05087 0.95586 0.0
N180 N 0.58265 0.07037 0.93362 0.0
C181 C 0.67821 0.10249 0.90662 0.0
C182 C 0.61524 0.03936 0.90434 0.0
C183 C 0.66365 0.05442 0.89219 0.0
H184 H 0.43964 0.15064 0.99747 0.0
H185 H 0.68941 0.0292 0.87026 0.0
H186 H 0.58121 0.87084 0.09872 0.0
H187 H 0.29997 0.95893 0.12451 0.0
H188 H 0.60408 1.00361 0.88738 0.0
H189 H 0.71564 0.11416 0.89668 0.0
H190 H 0.38114 0.99772 0.12194 0.0
H191 H 0.45776 0.23759 1.02214 0.0
H192 H 0.69262 0.19883 0.93386 0.0
H193 H 0.62952 0.25568 0.97385 0.0
H194 H 0.5807 0.78048 0.10648 0.0
H195 H 0.54203 0.27037 1.00705 0.0
H196 H 0.29219 0.86822 0.12364 0.0
N197 N 0.50354 0.87695 0.10662 0.0
C198 C 0.4598 0.8529 0.11311 0.0
C199 C 0.5463 0.80023 0.10679 0.0
C200 C 0.45764 0.80111 0.1155 0.0
C201 C 0.5465 0.85149 0.10184 0.0
C202 C 0.5017 0.7749 0.11365 0.0
N203 N 0.42043 0.93047 0.11389 0.0
C204 C 0.37909 0.9585 0.11885 0.0
C205 C 0.37077 0.85649 0.11937 0.0
C206 C 0.41688 0.88039 0.11614 0.0
C207 C 0.32831 0.8852 0.12129 0.0
C208 C 0.33256 0.9364 0.12145 0.0
H209 H 0.50156 0.7352 0.1179 0.0
H210 H 0.40938 0.73739 0.12091 0.0
H211 H 0.33336 0.78596 0.12291 0.0
O212 O 0.48134 0.98107 0.21126 0.0
O213 O 0.46499 0.93393 1.02137 0.0
O214 O 0.43691 1.00342 0.96897 0.0
O215 O 0.53008 0.92115 0.19344 0.0
O216 O 0.46707 0.0332 0.12225 0.0
O217 O 0.43837 0.06102 1.02096 0.0
O218 O 0.50667 0.03415 0.85341 0.0
O219 O 0.53856 0.07604 0.04798 0.0
O220 O 0.5654 1.00713 0.10498 0.0
O221 O 0.46124 0.09393 0.88871 0.0
O222 O 0.53447 0.97663 0.94912 0.0
O223 O 0.56553 0.9559 0.05247 0.0
C224 C 0.43776 0.95529 0.97547 0.0
C225 C 0.54018 0.96166 0.2959 0.0
C226 C 0.54602 0.99074 0.40975 0.0
C227 C 0.59622 0.9794 0.41069 0.0
C228 C 0.59047 0.94978 0.29848 0.0
C229 C 0.61816 0.95868 0.35551 0.0
C230 C 0.51799 0.98183 0.35227 0.0
C231 C 0.44027 0.06343 0.08603 0.0
C232 C 0.50953 0.94782 0.2381 0.0
C233 C 0.41178 0.77722 0.11949 0.0
C234 C 0.36847 0.80485 0.12071 0.0
C235 C 0.56666 0.05497 0.09348 0.0
C236 C 0.46069 0.08188 0.76982 0.0
C237 C 0.46538 0.07182 0.64999 0.0
C238 C 0.42907 0.10778 0.64168 0.0
C239 C 0.42428 0.11771 0.76002 0.0
C240 C 0.48091 0.05844 0.7143 0.0
C241 C 0.40825 0.13003 0.69648 0.0
C242 C 0.56528 0.95182 0.98753 0.0
C243 C 0.4767 0.06964 0.83807 0.0
H244 H 0.61823 0.98581 0.45466 0.0
H245 H 0.60842 0.93294 0.25681 0.0
H246 H 0.65672 0.94909 0.35712 0.0
H247 H 0.47899 0.98988 0.35183 0.0
H248 H 0.41654 0.11835 0.59265 0.0
H249 H 0.40797 0.13615 0.80162 0.0
H250 H 0.50903 0.03068 0.72082 0.0
H251 H 0.37949 0.15685 0.68966 0.0
Tb252 Tb 0.22322 0.27729 0.20986 0.0
C253 C 0.41249 0.28887 0.41762 0.0
N254 N 0.38749 0.24724 0.40125 0.0
C255 C 0.45797 0.19846 0.43099 0.0
C256 C 0.46109 0.28673 0.4426 0.0
C257 C 0.40947 0.20233 0.4082 0.0
C258 C 0.48379 0.24084 0.44884 0.0
C259 C 0.41344 0.37757 0.42897 0.0
C260 C 0.38866 0.33367 0.4119 0.0
C261 C 0.46159 0.37556 0.45426 0.0
C262 C 0.48521 0.33023 0.46158 0.0
Tb263 Tb 0.30583 0.25781 0.37671 0.0
N264 N 0.34136 0.33421 0.38947 0.0
C265 C 0.38897 0.42225 0.42087 0.0
C266 C 0.31754 0.37804 0.38118 0.0
C267 C 0.34102 0.42255 0.3961 0.0
H268 H 0.388 0.16913 0.40316 0.0
H269 H 0.32187 0.45704 0.38912 0.0
H270 H 0.14275 0.36936 0.22014 0.0
H271 H 0.20127 0.0873 0.1348 0.0
H272 H 0.28072 0.37947 0.36222 0.0
H273 H 0.4068 0.45654 0.43387 0.0
H274 H 0.24329 0.1557 0.18934 0.0
H275 H 0.47462 0.16264 0.43754 0.0
H276 H 0.48093 0.40883 0.46828 0.0
H277 H 0.52243 0.32927 0.48101 0.0
H278 H 0.05668 0.38415 0.18848 0.0
H279 H 0.52101 0.23772 0.46781 0.0
H280 H 0.11737 0.09842 0.0893 0.0
N281 N 0.1419 0.29399 0.19117 0.0
C282 C 0.11557 0.25748 0.16206 0.0
C283 C 0.07259 0.34819 0.18128 0.0
C284 C 0.06671 0.26506 0.14054 0.0
C285 C 0.12125 0.33924 0.2004 0.0
C286 C 0.0453 0.31107 0.15069 0.0
N287 N 0.18488 0.20667 0.17499 0.0
C288 C 0.20726 0.16194 0.16963 0.0
C289 C 0.11243 0.17407 0.12089 0.0
C290 C 0.13811 0.21267 0.15244 0.0
C291 C 0.13588 0.12885 0.11341 0.0
C292 C 0.18322 0.12254 0.13887 0.0
H293 H 1.00789 0.31836 0.13484 0.0
H294 H 1.0037 0.23205 0.09141 0.0
H295 H 0.04428 0.15265 0.07322 0.0
O296 O 0.25334 0.27241 0.11451 0.0
O297 O 0.18709 0.23083 0.28605 0.0
O298 O 0.25419 0.20032 0.34242 0.0
O299 O 0.21287 0.33629 0.14352 0.0
O300 O 0.29003 0.23179 0.201 0.0
O301 O 0.31816 0.19992 0.30247 0.0
O302 O 0.277 0.27357 0.47038 0.0
O303 O 0.34529 0.29393 0.29348 0.0
O304 O 0.27614 0.32747 0.25432 0.0
O305 O 0.31833 0.20755 0.45479 0.0
O306 O 0.23609 0.29778 0.38723 0.0
O307 O 0.20545 0.32956 0.28795 0.0
C308 C 0.20612 0.2033 0.33396 0.0
C309 C 0.20541 0.31148 0.03199 0.0
C310 C 0.20506 0.29518 0.91396 0.0
C311 C 0.15457 0.30553 0.91108 0.0
C312 C 0.15523 0.3234 1.02776 0.0
C313 C 0.12987 0.31969 0.96788 0.0
C314 C 0.23021 0.29817 0.97462 0.0
C315 C 0.31795 0.20166 0.23661 0.0
C316 C 0.23303 0.31332 0.09485 0.0
C317 C 0.04115 0.22688 0.10863 0.0
C318 C 0.0641 0.18161 0.0985 0.0
C319 C 0.32352 0.32137 0.24843 0.0
C320 C 0.3232 0.2439 0.56136 0.0
C321 C 0.31832 0.26149 0.67864 0.0
C322 C 0.36978 0.2608 0.6835 0.0
C323 C 0.37456 0.24108 0.56785 0.0
C324 C 0.29522 0.25419 0.61729 0.0
C325 C 0.39777 0.25057 0.62805 0.0
C326 C 0.20485 0.32492 0.35298 0.0
C327 C 0.29742 0.23533 0.49808 0.0
H328 H 0.13443 0.30316 0.86483 0.0
H329 H 0.13553 0.33619 0.07006 0.0
H330 H 0.09111 0.3284 0.96537 0.0
H331 H 0.26943 0.29127 0.97707 0.0
H332 H 0.38815 0.26715 0.73039 0.0
H333 H 0.39706 0.2309 0.52744 0.0
H334 H 0.25541 0.25512 0.61351 0.0
H335 H 0.43743 0.24872 0.63204 0.0
Tb336 Tb 0.70771 0.25865 0.35259 0.0
C337 C 0.88308 0.17541 0.21824 0.0
N338 N 0.87687 0.2248 0.21357 0.0
C339 C 0.96218 0.23747 0.23825 0.0
C340 C 0.92825 0.15504 0.23797 0.0
C341 C 0.91609 0.25581 0.22084 0.0
C342 C 0.96804 0.18698 0.24792 0.0
C343 C 0.84948 0.09426 0.20092 0.0
C344 C 0.84389 0.14578 0.20186 0.0
C345 C 0.89264 0.07325 0.22708 0.0
C346 C 0.93196 0.10379 0.24634 0.0
Tb347 Tb 0.79835 0.25212 0.1965 0.0
N348 N 0.8025 0.16792 0.17898 0.0
C349 C 0.81332 0.0661 0.16926 0.0
C350 C 0.77134 0.14139 0.13919 0.0
C351 C 0.77536 0.09007 0.13537 0.0
H352 H 0.91172 0.29459 0.21377 0.0
H353 H 0.74911 0.06911 0.10641 0.0
H354 H 0.62487 0.16921 0.32912 0.0
H355 H 0.68833 0.45663 0.37211 0.0
H356 H 0.74274 0.15935 0.11079 0.0
H357 H 0.81631 0.02642 0.16653 0.0
H358 H 0.7332 0.37903 0.37351 0.0
H359 H 0.99261 0.26236 0.24705 0.0
H360 H 0.89708 0.03366 0.22899 0.0
H361 H 0.96581 0.08734 0.26389 0.0
H362 H 0.53737 0.16321 0.29921 0.0
H363 H 1.00315 0.17365 0.2642 0.0
H364 H 0.59912 0.45728 0.3483 0.0
N365 N 0.62526 0.24754 0.33367 0.0
C366 C 0.59755 0.28906 0.33264 0.0
C367 C 0.55378 0.19888 0.30812 0.0
C368 C 0.54699 0.28721 0.31687 0.0
C369 C 0.60372 0.20254 0.32405 0.0
C370 C 0.5254 0.24141 0.30354 0.0
N371 N 0.67057 0.33445 0.3519 0.0
C372 C 0.69453 0.37789 0.36356 0.0
C373 C 0.59381 0.37807 0.3395 0.0
C374 C 0.62082 0.33397 0.34293 0.0
C375 C 0.61849 0.42258 0.35034 0.0
C376 C 0.66893 0.42236 0.36329 0.0
H377 H 0.48681 0.23848 0.29035 0.0
H378 H 0.48144 0.33053 0.29914 0.0
H379 H 0.52219 0.41 0.32035 0.0
O380 O 0.72439 0.27683 0.45339 0.0
O381 O 0.68227 0.29117 0.25756 0.0
O382 O 0.7516 0.31769 0.20359 0.0
O383 O 0.66917 0.22209 0.42726 0.0
O384 O 0.77593 0.30328 0.36148 0.0
O385 O 0.81352 0.31745 0.25882 0.0
O386 O 0.78291 0.24846 0.0938 0.0
O387 O 0.82828 0.23144 0.2954 0.0
O388 O 0.76113 0.19819 0.34733 0.0
O389 O 0.84434 0.29148 0.13048 0.0
O390 O 0.72309 0.22109 0.19237 0.0
O391 O 0.70987 0.1899 0.2963 0.0
C392 C 0.70366 0.31781 0.21106 0.0
C393 C 0.67798 0.23638 0.54432 0.0
C394 C 0.69496 0.24052 0.66318 0.0
C395 C 0.65141 0.2141 0.67539 0.0
C396 C 0.63429 0.21036 0.55823 0.0
C397 C 0.62118 0.19945 0.62322 0.0
C398 C 0.7081 0.25206 0.59733 0.0
C399 C 0.80786 0.32682 0.32287 0.0
C400 C 0.6912 0.24572 0.4743 0.0
C401 C 0.52018 0.33117 0.31205 0.0
C402 C 0.54342 0.37644 0.32394 0.0
C403 C 0.8091 0.2031 0.3419 0.0
C404 C 0.8325 0.2914 1.0108 0.0
C405 C 0.81336 0.29454 0.89243 0.0
C406 C 0.85566 0.32345 0.88226 0.0
C407 C 0.87466 0.32025 0.99921 0.0
C408 C 0.80212 0.27814 0.9569 0.0
C409 C 0.88613 0.33601 0.93531 0.0
C410 C 0.70181 0.18899 0.2322 0.0
C411 C 0.81979 0.27685 0.07924 0.0
H412 H 0.64059 0.20516 0.72555 0.0
H413 H 0.61009 0.19823 0.51876 0.0
H414 H 0.58749 0.17935 0.63316 0.0
H415 H 0.74193 0.27206 0.58755 0.0
H416 H 0.86535 0.33597 0.83303 0.0
H417 H 0.89872 0.33089 0.0396 0.0
H418 H 0.76933 0.25608 0.96508 0.0
H419 H 0.91871 0.35823 0.9269 0.0
Tb420 Tb 0.71704 0.77992 0.70149 0.0
C421 C 0.90176 0.7668 0.91888 0.0
N422 N 0.87572 0.73008 0.88984 0.0
C423 C 0.94125 0.67353 0.91246 0.0
C424 C 0.94812 0.75793 0.94798 0.0
C425 C 0.89514 0.68399 0.88486 0.0
C426 C 0.96725 0.71033 0.94575 0.0
C427 C 0.90656 0.85218 0.95172 0.0
C428 C 0.88119 0.81322 0.92084 0.0
C429 C 0.95286 0.84366 0.98068 0.0
C430 C 0.97363 0.79664 0.97876 0.0
Tb431 Tb 0.79608 0.74893 0.86535 0.0
N432 N 0.83593 0.81989 0.89348 0.0
C433 C 0.88401 0.89816 0.95417 0.0
C434 C 0.81455 0.86518 0.8937 0.0
C435 C 0.83809 0.90487 0.92418 0.0
H436 H 0.87356 0.65435 0.86399 0.0
H437 H 0.82019 0.94028 0.92569 0.0
H438 H 0.64694 0.87996 0.707 0.0
H439 H 0.67736 0.59136 0.63594 0.0
H440 H 0.77913 0.8709 0.87131 0.0
H441 H 0.90155 0.92838 0.97979 0.0
H442 H 0.72782 0.65853 0.68182 0.0
H443 H 0.95649 0.63704 0.90905 0.0
H444 H 0.9727 0.87301 1.00522 0.0
H445 H 0.00937 0.79059 1.00125 0.0
H446 H 0.56272 0.90278 0.67283 0.0
H447 H 1.00264 0.70192 0.96788 0.0
H448 H 0.59242 0.60826 0.59687 0.0
N449 N 0.63809 0.80439 0.68179 0.0
C450 C 0.60765 0.76941 0.65678 0.0
C451 C 0.57489 0.86511 0.66819 0.0
C452 C 0.55968 0.78106 0.63529 0.0
C453 C 0.62235 0.85186 0.6882 0.0
C454 C 0.54364 0.82964 0.6409 0.0
N455 N 0.6719 0.71251 0.67124 0.0
C456 C 0.69084 0.66625 0.66585 0.0
C457 C 0.59503 0.68468 0.62438 0.0
C458 C 0.62513 0.72195 0.65118 0.0
C459 C 0.61422 0.63736 0.61866 0.0
C460 C 0.66218 0.62793 0.6401 0.0
H461 H 0.50708 0.83992 0.62487 0.0
H462 H 0.49247 0.75227 0.59174 0.0
H463 H 0.52394 0.66801 0.58129 0.0
O464 O 0.7491 0.77036 0.60785 0.0
O465 O 0.67932 0.73144 0.77524 0.0
O466 O 0.74683 0.6948 0.81988 0.0
O467 O 0.71063 0.83673 0.63095 0.0
O468 O 0.78299 0.73404 0.68792 0.0
O469 O 0.81217 0.69721 0.78533 0.0
O470 O 0.76841 0.75964 0.96127 0.0
O471 O 0.83597 0.79305 0.78964 0.0
O472 O 0.76865 0.83079 0.7486 0.0
O473 O 0.80348 0.69176 0.93531 0.0
O474 O 0.72611 0.78897 0.87787 0.0
O475 O 0.70428 0.8316 0.78211 0.0
C476 C 0.69892 0.69845 0.81588 0.0
C477 C 0.70673 0.81004 0.51971 0.0
C478 C 0.71171 0.79712 0.40076 0.0
C479 C 0.66286 0.81286 0.39368 0.0
C480 C 0.658 0.82615 0.51137 0.0
C481 C 0.63616 0.82708 0.44883 0.0
C482 C 0.73325 0.79502 0.46408 0.0
C483 C 0.81157 0.70264 0.72006 0.0
C484 C 0.73153 0.81156 0.58484 0.0
C485 C 0.52949 0.74408 0.60843 0.0
C486 C 0.54722 0.69602 0.6029 0.0
C487 C 0.8163 0.82466 0.74751 0.0
C488 C 0.81358 0.71881 0.04655 0.0
C489 C 0.8158 0.73759 0.16471 0.0
C490 C 0.86123 0.71352 0.17018 0.0
C491 C 0.85813 0.69337 0.05418 0.0
C492 C 0.79268 0.74111 0.10229 0.0
C493 C 0.88225 0.69174 0.11513 0.0
C494 C 0.69938 0.82194 0.84584 0.0
C495 C 0.78599 0.71802 0.98302 0.0
H496 H 0.6454 0.8142 0.34542 0.0
H497 H 0.63685 0.83886 0.55268 0.0
H498 H 0.59864 0.83955 0.44298 0.0
H499 H 0.7711 0.78323 0.46974 0.0
H500 H 0.87995 0.71064 0.21747 0.0
H501 H 0.8739 0.67352 1.01376 0.0
H502 H 0.75707 0.75862 0.09779 0.0
H503 H 0.91668 0.67222 0.12011 0.0
Tb504 Tb 0.52005 0.54646 0.09331 0.0
C505 C 0.52333 0.35268 0.88876 0.0
N506 N 0.54853 0.39529 0.89858 0.0
C507 C 0.62237 0.3572 0.85989 0.0
C508 C 0.54655 0.31063 0.86335 0.0
C509 C 0.59723 0.39851 0.88242 0.0
C510 C 0.59696 0.31302 0.85026 0.0
C511 C 0.44454 0.31078 0.88396 0.0
C512 C 0.47324 0.35275 0.89874 0.0
C513 C 0.4675 0.26831 0.86019 0.0
C514 C 0.51839 0.26833 0.84954 0.0
Tb515 Tb 0.50354 0.46178 0.93142 0.0
N516 N 0.45215 0.39551 0.91731 0.0
C517 C 0.39344 0.31365 0.89029 0.0
C518 C 0.40202 0.39944 0.91898 0.0
C519 C 0.37203 0.35834 0.90731 0.0
H520 H 0.61698 0.43295 0.88709 0.0
H521 H 0.33243 0.36137 0.91026 0.0
H522 H 0.5078 0.66201 0.04317 0.0
H523 H 0.66884 0.46957 0.24079 0.0
H524 H 0.38518 0.43423 0.93023 0.0
H525 H 0.37017 0.28215 0.87994 0.0
H526 H 0.58204 0.47913 0.20587 0.0
H527 H 0.66115 0.35968 0.84894 0.0
H528 H 0.44611 0.23569 0.84849 0.0
H529 H 0.53554 0.23565 0.83005 0.0
H530 H 0.5631 0.72906 1.00501 0.0
H531 H 0.61631 0.28143 0.83124 0.0
H532 H 0.73315 0.52406 0.19439 0.0
N533 N 0.56651 0.61501 0.07211 0.0
C534 C 0.61547 0.61061 0.08223 0.0
C535 C 0.57831 0.69624 1.02759 0.0
C536 C 0.64823 0.64849 0.06399 0.0
C537 C 0.54715 0.65829 0.0491 0.0
C538 C 0.6292 0.69124 0.03464 0.0
N539 N 0.598 0.5359 0.13568 0.0
C540 C 0.60999 0.5027 0.18435 0.0
C541 C 0.68171 0.56583 0.13455 0.0
C542 C 0.63194 0.56941 0.11541 0.0
C543 C 0.6953 0.52818 0.17833 0.0
C544 C 0.65896 0.49758 0.20508 0.0
H545 H 0.65328 0.72093 1.01875 0.0
H546 H 0.72413 0.67123 0.06316 0.0
H547 H 0.75403 0.59934 0.12581 0.0
O548 O 0.52668 0.57623 0.18933 0.0
O549 O 0.5374 0.57164 0.9917 0.0
O550 O 0.57153 0.5062 0.94119 0.0
O551 O 0.45809 0.57787 0.1375 0.0
O552 O 0.54324 0.46872 0.09562 0.0
O553 O 0.57076 0.45053 0.99129 0.0
O554 O 0.49607 0.52248 0.8655 0.0
O555 O 0.4605 0.43311 1.01712 0.0
O556 O 0.46709 0.48534 0.10903 0.0
O557 O 0.48987 0.44846 0.83084 0.0
O558 O 0.44057 0.50537 0.96723 0.0
O559 O 0.47365 0.57522 1.01345 0.0
C560 C 0.57163 0.55358 0.95364 0.0
C561 C 0.45385 0.57083 0.25468 0.0
C562 C 0.4519 0.55189 0.3737 0.0
C563 C 0.4003 0.54972 0.37003 0.0
C564 C 0.40216 0.56957 0.25364 0.0
C565 C 0.37578 0.55851 0.31063 0.0
C566 C 0.47877 0.56174 0.31535 0.0
C567 C 0.57387 0.44617 0.05597 0.0
C568 C 0.48024 0.58597 0.19347 0.0
C569 C 0.69851 0.64291 0.07736 0.0
C570 C 0.71539 0.60179 0.11286 0.0
C571 C 0.44863 0.44637 0.07809 0.0
C572 C 0.52466 0.50504 0.75697 0.0
C573 C 0.5356 0.51682 0.63741 0.0
C574 C 0.58678 0.51471 0.64709 0.0
C575 C 0.57589 0.50517 0.76532 0.0
C576 C 0.50472 0.51064 0.69282 0.0
C577 C 0.60667 0.50961 0.71062 0.0
C578 C 0.43971 0.5532 0.97746 0.0
C579 C 0.49213 0.49447 0.81371 0.0
H580 H 0.37868 0.54168 0.41363 0.0
H581 H 0.38188 0.57777 0.20868 0.0
H582 H 0.336 0.55753 0.30904 0.0
H583 H 0.51853 0.56404 0.31778 0.0
H584 H 0.61154 0.51857 0.60564 0.0
H585 H 0.59214 0.50071 0.81386 0.0
H586 H 0.46527 0.50913 0.68571 0.0
H587 H 0.64617 0.50905 0.7175 0.0
Tb588 Tb 0.99731 0.46629 0.60835 0.0
C589 C 0.07366 0.65062 0.47197 0.0
N590 N 0.02601 0.6359 0.47608 0.0
C591 C 1.00266 0.71587 0.5122 0.0
C592 C 0.08832 0.69796 0.49186 0.0
C593 C 0.99012 0.66827 0.49266 0.0
C594 C 0.05215 0.73027 0.51379 0.0
C595 C 0.15761 0.63063 0.44496 0.0
C596 C 0.10765 0.61707 0.44994 0.0
C597 C 0.17288 0.67761 0.46585 0.0
C598 C 0.13831 0.71115 0.48961 0.0
Tb599 Tb 0.00918 0.55641 0.45028 0.0
N600 N 0.09134 0.57171 0.43159 0.0
C601 C 0.19041 0.5969 0.4181 0.0
C602 C 0.12254 0.54045 0.40015 0.0
C603 C 0.1726 0.55199 0.39446 0.0
H604 H 0.95196 0.65714 0.49184 0.0
H605 H 0.19729 0.52648 0.37098 0.0
H606 H 0.08751 0.38289 0.59331 0.0
H607 H 0.80584 0.43523 0.65794 0.0
H608 H 0.10918 0.50702 0.37784 0.0
H609 H 0.22913 0.60583 0.41334 0.0
H610 H 0.88371 0.48252 0.65644 0.0
H611 H 0.97423 0.74121 0.52637 0.0
H612 H 0.21119 0.68853 0.46306 0.0
H613 H 0.15049 0.7473 0.50527 0.0
H614 H 0.09479 0.29912 0.54867 0.0
H615 H 0.06188 0.76664 0.53135 0.0
H616 H 0.80319 0.34983 0.61485 0.0
N617 N 0.00959 0.38528 0.58177 0.0
C618 C 0.96827 0.35791 0.5727 0.0
C619 C 0.0589 0.31563 0.55377 0.0
C620 C 0.97029 0.3093 0.54956 0.0
C621 C 0.05463 0.36345 0.57811 0.0
C622 C 0.01652 0.28882 0.53786 0.0
N623 N 0.92419 0.42499 0.61213 0.0
C624 C 0.88286 0.44518 0.63835 0.0
C625 C 0.8806 0.34945 0.59029 0.0
C626 C 0.92413 0.37771 0.59153 0.0
C627 C 0.8375 0.37029 0.61495 0.0
C628 C 0.83881 0.41833 0.63951 0.0
H629 H 0.02005 0.25127 0.52121 0.0
H630 H 0.92679 0.24471 0.52487 0.0
H631 H 0.84846 0.27969 0.561 0.0
O632 O 0.97678 0.49257 0.70128 0.0
O633 O 0.93869 0.46681 0.53025 0.0
O634 O 0.98038 0.48205 0.43475 0.0
O635 O 0.02334 0.4298 0.69458 0.0
O636 O 0.96568 0.5396 0.61561 0.0
O637 O 0.94178 0.56476 0.51043 0.0
O638 O 0.02098 0.57309 0.34932 0.0
O639 O 0.0351 0.58064 0.54907 0.0
O640 O 0.06474 0.51125 0.60028 0.0
O641 O 0.95084 0.58511 0.3938 0.0
O642 O 0.04037 0.48213 0.44326 0.0
O643 O 0.06545 0.46236 0.54936 0.0
C644 C 0.9437 0.46099 0.46593 0.0
C645 C 0.03178 0.48159 0.78897 0.0
C646 C 0.03525 0.51082 0.90345 0.0
C647 C 0.08232 0.53046 0.89088 0.0
C648 C 0.07868 0.50151 0.77784 0.0
C649 C 0.10379 0.52571 0.82864 0.0
C650 C 0.01039 0.48598 0.85191 0.0
C651 C 0.938 0.56626 0.57567 0.0
C652 C 1.00244 0.46067 0.73423 0.0
C653 C 0.92635 0.28212 0.54262 0.0
C654 C 0.88167 0.30183 0.56396 0.0
C655 C 0.0661 0.55915 0.59026 0.0
C656 C 0.95046 0.55707 0.28271 0.0
C657 C 0.94873 0.53118 0.16655 0.0
C658 C 0.90334 0.50765 0.17804 0.0
C659 C 0.90467 0.53367 0.29201 0.0
C660 C 0.9724 0.55559 0.21956 0.0
C661 C 0.88148 0.5092 0.24008 0.0
C662 C 0.06865 0.45737 0.48473 0.0
C663 C 0.97495 0.58308 0.33852 0.0
H664 H 0.10228 0.55024 0.92893 0.0
H665 H 0.09552 0.49889 0.72971 0.0
H666 H 0.13983 0.54142 0.81952 0.0
H667 H 0.97424 0.47025 0.86042 0.0
H668 H 0.88499 0.48723 0.13919 0.0
H669 H 0.88679 0.53371 0.33968 0.0
H670 H 1.00745 0.57381 0.21154 0.0
H671 H 0.84662 0.49073 0.2482 0.0
C672 C 0.14808 0.12609 0.47435 0.0
C673 C 0.10919 0.10051 0.4431 0.0
C674 C 0.17974 0.15829 0.43881 0.0
C675 C 0.17311 0.16755 0.37058 0.0
H676 H 0.15472 0.1208 0.52635 0.0
H677 H 0.20912 0.17673 0.46535 0.0
S678 S 0.07699 0.10992 0.2656 0.0
N679 N 0.0661 0.08717 0.33992 0.0
N680 N 0.12432 0.14749 0.27397 0.0
C681 C 0.13395 0.1426 0.33934 0.0
C682 C 0.10248 0.10926 0.3752 0.0
C683 C 0.09249 0.88086 0.64341 0.0
C684 C 0.11088 0.92005 0.60479 0.0
C685 C 0.12394 0.84809 0.67721 0.0
C686 C 0.17553 0.85409 0.67668 0.0
H687 H 0.05328 0.87555 0.64789 0.0
H688 H 0.10732 0.81807 0.70459 0.0
S689 S 0.2419 0.95654 0.592 0.0
N690 N 0.18383 0.96481 0.57061 0.0
N691 N 0.24268 0.90702 0.63993 0.0
C692 C 0.19428 0.89459 0.6402 0.0
C693 C 0.16215 0.92658 0.60307 0.0
C694 C 0.33416 0.91166 0.85844 0.0
C695 C 0.34022 0.86019 0.85846 0.0
C696 C 0.36599 0.94257 0.89548 0.0
C697 C 0.40552 0.92317 0.933 0.0
H698 H 0.3038 0.92797 0.83135 0.0
H699 H 0.35899 0.98177 0.89559 0.0
S700 S 0.4412 0.79129 0.94005 0.0
N701 N 0.39032 0.79194 0.89522 0.0
N702 N 0.45196 0.84918 0.95955 0.0
C703 C 0.41323 0.87194 0.92981 0.0
C704 C 0.38011 0.84074 0.89408 0.0
C705 C 0.37079 0.12592 0.09321 0.0
C706 C 0.40958 0.09956 0.12321 0.0
C707 C 0.34176 0.15895 0.12973 0.0
C708 C 0.34908 0.16595 0.19844 0.0
H709 H 0.3625 0.1209 0.04128 0.0
H710 H 0.31285 0.17853 0.10378 0.0
S711 S 0.44524 0.10498 0.30082 0.0
N712 N 0.45457 0.08455 0.22578 0.0
N713 N 0.39769 0.14185 0.29351 0.0
C714 C 0.38718 0.13902 0.22841 0.0
C715 C 0.41785 0.10713 0.19127 0.0
C716 C 0.86464 0.93894 0.653 0.0
C717 C 0.90929 0.92282 0.62545 0.0
C718 C 0.83461 0.90726 0.69181 0.0
C719 C 0.84843 0.85831 0.70653 0.0
H720 H 0.8524 0.97624 0.64387 0.0
H721 H 0.80057 0.92153 0.71122 0.0
S722 S 0.96057 0.79727 0.64593 0.0
N723 N 0.96408 0.85322 0.61402 0.0
N724 N 0.90951 0.79535 0.68935 0.0
C725 C 0.89284 0.84186 0.67953 0.0
C726 C 0.92258 0.8735 0.63841 0.0
C727 C 0.85669 0.09523 0.4482 0.0
C728 C 0.9074 0.10529 0.4549 0.0
C729 C 0.82516 0.12721 0.41263 0.0
C730 C 0.84258 0.17147 0.38386 0.0
H731 H 0.84114 0.06195 0.46921 0.0
H732 H 0.78695 0.11657 0.40664 0.0
S733 S 0.97007 0.22003 0.40138 0.0
N734 N 0.9723 0.16513 0.43679 0.0
N735 N 0.91266 0.22724 0.3759 0.0
C736 C 0.89245 0.1837 0.3953 0.0
C737 C 0.92483 0.15024 0.42928 0.0
C738 C 0.63011 0.17112 0.15802 0.0
C739 C 0.66543 0.15378 0.20319 0.0
C740 C 0.59717 0.13907 0.12623 0.0
C741 C 0.60045 0.08753 0.13333 0.0
H742 H 0.6278 0.20995 0.14704 0.0
H743 H 0.56895 0.15522 0.09557 0.0
S744 S 0.68926 0.02301 0.24392 0.0
N745 N 0.70113 0.08194 0.25594 0.0
N746 N 0.64377 0.0208 0.18942 0.0
C747 C 0.63612 0.06951 0.17841 0.0
C748 C 0.66758 0.10274 0.2145 0.0
C749 C 0.61832 0.86477 0.85966 0.0
C750 C 0.66497 0.85276 0.88518 0.0
C751 C 0.58628 0.896 0.89353 0.0
C752 C 0.59914 0.91628 0.95522 0.0
H753 H 0.60582 0.84906 0.81381 0.0
H754 H 0.55096 0.9042 0.87106 0.0
S755 S 0.71571 0.89387 0.04638 0.0
N756 N 0.72098 0.86115 0.97851 0.0
N757 N 0.66144 0.92058 0.04159 0.0
C758 C 0.64491 0.90312 0.98273 0.0
C759 C 0.6775 0.87107 0.94811 0.0
C760 C 0.58565 0.63321 0.89007 0.0
C761 C 0.60416 0.5883 0.91515 0.0
C762 C 0.61623 0.66802 0.85768 0.0
C763 C 0.66685 0.65973 0.84858 0.0
H764 H 0.54715 0.64189 0.89624 0.0
H765 H 0.60034 0.70246 0.84122 0.0
S766 S 0.73396 0.54823 0.90663 0.0
N767 N 0.67659 0.5378 0.92931 0.0
N768 N 0.73394 0.60239 0.86893 0.0
C769 C 0.68575 0.61473 0.87347 0.0
C770 C 0.65448 0.57924 0.90613 0.0
C771 C 0.69041 0.38891 0.12989 0.0
C772 C 0.67171 0.34778 0.16506 0.0
C773 C 0.65938 0.41907 0.09044 0.0
C774 C 0.60846 0.40968 0.08568 0.0
H775 H 0.72887 0.39892 0.1346 0.0
H776 H 0.67481 0.45146 0.06663 0.0
S777 S 0.54351 0.30028 0.15167 0.0
N778 N 0.60018 0.29477 0.18028 0.0
N779 N 0.54283 0.35222 0.10902 0.0
C780 C 0.59029 0.36701 0.11609 0.0
C781 C 0.62157 0.336 0.15514 0.0
C782 C 0.86356 0.41316 0.45432 0.0
C783 C 0.90841 0.42906 0.42709 0.0
C784 C 0.83188 0.38022 0.42091 0.0
C785 C 0.84134 0.36436 0.35581 0.0
H786 H 0.85269 0.42625 0.50214 0.0
H787 H 0.79947 0.36742 0.44677 0.0
S788 S 0.95039 0.40162 0.25676 0.0
N789 N 0.95967 0.42785 0.329 0.0
N790 N 0.89674 0.37333 0.26269 0.0
C791 C 0.88421 0.3835 0.3258 0.0
C792 C 0.91825 0.41416 0.36179 0.0
C793 C 0.88643 0.64979 0.70814 0.0
C794 C 0.84358 0.66965 0.67978 0.0
C795 C 0.91647 0.61729 0.67362 0.0
C796 C 0.9057 0.60315 0.60816 0.0
H797 H 0.89764 0.6599 0.75727 0.0
H798 H 0.94882 0.60336 0.69892 0.0
S799 S 0.80021 0.64755 0.50755 0.0
N800 N 0.7935 0.6748 0.57956 0.0
N801 N 0.85038 0.6139 0.51456 0.0
C802 C 0.86412 0.62413 0.57766 0.0
C803 C 0.83312 0.65731 0.61327 0.0
C804 C 0.39238 0.33334 0.1659 0.0
C805 C 0.35333 0.35323 0.20243 0.0
C806 C 0.42092 0.36287 0.1225 0.0
C807 C 0.41379 0.41414 0.1169 0.0
H808 H 0.40046 0.29443 0.17005 0.0
H809 H 0.44933 0.34548 0.09409 0.0
S810 S 0.31272 0.48331 0.19526 0.0
N811 N 0.30558 0.42657 0.22361 0.0
N812 N 0.36144 0.48229 0.14691 0.0
C813 C 0.37405 0.43411 0.15183 0.0
C814 C 0.34349 0.4037 0.19342 0.0
C815 C 0.41838 0.6335 0.92396 0.0
C816 C 0.40382 0.58539 0.94151 0.0
C817 C 0.38639 0.66582 0.89115 0.0
C818 C 0.33768 0.65254 0.87533 0.0
H819 H 0.45537 0.64633 0.93457 0.0
H820 H 0.40055 0.70143 0.87717 0.0
S821 S 0.28142 0.5298 0.90712 0.0
N822 N 0.33755 0.52506 0.93826 0.0
N823 N 0.27715 0.58628 0.87676 0.0
C824 C 0.32259 0.60418 0.89158 0.0
C825 C 0.35566 0.57063 0.92445 0.0
C826 C 0.18224 0.60269 0.68196 0.0
C827 C 0.17202 0.65245 0.69526 0.0
C828 C 0.14787 0.57244 0.64849 0.0
C829 C 0.10129 0.59029 0.62926 0.0
H830 H 0.21699 0.58688 0.6969 0.0
H831 H 0.15803 0.53498 0.63712 0.0
S832 S 0.05313 0.71406 0.66713 0.0
N833 N 0.1109 0.71649 0.69197 0.0
N834 N 0.04426 0.65822 0.63775 0.0
C835 C 0.0896 0.63875 0.64712 0.0
C836 C 0.12539 0.67008 0.67794 0.0
C837 C 0.1219 0.36314 0.36784 0.0
C838 C 0.17028 0.35648 0.39085 0.0
C839 C 0.08945 0.39534 0.399 0.0
C840 C 0.10344 0.4214 0.45596 0.0
H841 H 0.10842 0.34246 0.32627 0.0
H842 H 0.05282 0.3995 0.37849 0.0
S843 S 0.2239 0.41295 0.54198 0.0
N844 N 0.2291 0.37572 0.47831 0.0
N845 N 0.16792 0.43601 0.53711 0.0
C846 C 0.15075 0.41323 0.48199 0.0
C847 C 0.18407 0.38062 0.44973 0.0
C848 C 0.012 0.9705 0.98186 0.0
C849 C 0.976 1.00607 0.96788 0.0
C850 C 0.03742 0.97056 0.04207 0.0
C851 C 0.02786 1.0065 0.08964 0.0
H852 H 0.02052 0.94252 0.94589 0.0
H853 H 0.06415 0.94195 0.0519 0.0
S854 S 0.94127 0.11071 0.07326 0.0
N855 N 0.93459 0.07996 1.00376 0.0
N856 N 0.98262 0.08022 0.11734 0.0
C857 C 0.99271 0.04278 0.07566 0.0
C858 C 0.96667 0.04255 1.01456 0.0
C859 C 0.31447 0.74167 0.31021 0.0
C860 C 0.27313 0.75938 0.34364 0.0
C861 C 0.31018 0.72316 0.24583 0.0
C862 C 0.26442 0.7219 0.21284 0.0
H863 H 0.35054 0.7437 0.33311 0.0
H864 H 0.34311 0.71108 0.22102 0.0
S865 S 0.14438 0.75807 0.28282 0.0
N866 N 0.18474 0.77069 0.34174 0.0
N867 N 0.17642 0.73559 0.22106 0.0
C868 C 0.22261 0.73767 0.247 0.0
C869 C 0.22703 0.75647 0.31235 0.0
C870 C 0.5154 0.07887 0.54744 0.0
C871 C 0.48709 0.04952 0.59054 0.0
C872 C 0.53375 0.05973 0.48838 0.0
C873 C 0.52344 0.01099 0.46988 0.0
H874 H 0.5234 0.11688 0.55958 0.0
H875 H 0.55606 0.08319 0.45687 0.0
S876 S 0.44897 0.92002 0.56377 0.0
N877 N 0.44867 0.96984 0.61012 0.0
N878 N 0.48237 0.9341 0.49822 0.0
C879 C 0.49461 0.98149 0.51199 0.0
C880 C 0.47663 1.00072 0.57266 0.0
C881 C 0.22636 0.31423 0.79699 0.0
C882 C 0.23219 0.28392 0.85316 0.0
C883 C 0.25402 0.30641 0.74014 0.0
C884 C 0.28856 0.26833 0.73806 0.0
H885 H 0.20117 0.34495 0.79755 0.0
H886 H 0.24917 0.33091 0.69809 0.0
S887 S 0.31441 0.176 0.86933 0.0
N888 N 0.27243 0.21222 0.90138 0.0
N889 N 0.32497 0.19805 0.79444 0.0
C890 C 0.29384 0.23698 0.79302 0.0
C891 C 0.26552 0.24468 0.85071 0.0
C892 C 0.77215 0.23188 0.82006 0.0
C893 C 0.78158 0.2815 0.83512 0.0
C894 C 0.74489 0.21895 0.76354 0.0
C895 C 0.72621 0.25518 0.72014 0.0
H896 H 0.78657 0.20289 0.85161 0.0
H897 H 0.73842 0.18032 0.75358 0.0
S898 S 0.73419 0.39005 0.7432 0.0
N899 N 0.76612 0.36691 0.80571 0.0
N900 N 0.7148 0.34247 0.69964 0.0
C901 C 0.73415 0.30483 0.73571 0.0
C902 C 0.76183 0.31801 0.7932 0.0
C903 C 0.76188 0.73705 0.33745 0.0
C904 C 0.74022 0.78368 0.34164 0.0
C905 C 0.7866 0.72279 0.2802 0.0
C906 C 0.79081 0.75478 0.22531 0.0
H907 H 0.75867 0.71102 0.37806 0.0
H908 H 0.80165 0.68599 0.2784 0.0
S909 S 0.7457 0.88322 0.21573 0.0
N910 N 0.72782 0.86326 0.28902 0.0
N911 N 0.77459 0.8367 0.18133 0.0
C912 C 0.77058 0.80211 0.22989 0.0
C913 C 0.74531 0.81652 0.28814 0.0
C914 C 0.53221 0.50119 0.51416 0.0
C915 C 0.51487 0.5267 0.56983 0.0
C916 C 0.51318 0.5105 0.45027 0.0
C917 C 0.47626 0.54582 0.43964 0.0
H918 H 0.55994 0.47302 0.52019 0.0
H919 H 0.52622 0.48882 0.40937 0.0
S920 S 0.42259 0.62686 0.56659 0.0
N921 N 0.46133 0.59156 0.60824 0.0
N922 N 0.4263 0.6093 0.48899 0.0
C923 C 0.46009 0.57277 0.49434 0.0
C924 C 0.47908 0.5631 0.55911 0.0
C925 C 0.04048 0.50868 1.02803 0.0
C926 C 0.01242 0.51688 0.97008 0.0
C927 C 0.02019 0.51455 0.09127 0.0
C928 C 0.97102 0.52908 0.09929 0.0
H929 H 0.07827 0.49668 1.02452 0.0
H930 H 0.04284 0.50643 0.13419 0.0
S931 S 0.88262 0.55874 0.96428 0.0
N932 N 0.93309 0.5422 0.92554 0.0
N933 N 0.89565 0.55449 0.04389 0.0
C934 C 0.94291 0.53857 0.04189 0.0
C935 C 0.96334 0.53206 0.97757 0.0
loop_
_geom_bond_atom_site_label_1
_geom_bond_atom_site_label_2
_geom_bond_distance
_geom_bond_site_symmetry_2
_ccdc_geom_bond_type
Tb0 N29 2.617 . S
Tb0 N35 2.572 1_655 S
Tb0 O44 2.465 1_655 S
Tb0 O45 2.387 1_655 S
Tb0 O47 2.428 . S
Tb0 O48 2.308 1_645 S
Tb0 O52 2.349 1_545 S
Tb0 O55 2.393 . S
Tb0 C64 2.802 . S
C1 N2 1.379 1_655 S
C1 C4 1.416 . S
C1 C8 1.424 . S
N2 C1 1.379 1_455 S
N2 C5 1.334 . S
N2 Tb11 2.617 . S
C3 C5 1.390 . S
C3 C6 1.339 . S
C3 H23 0.930 . S
C4 C1 1.416 . S
C4 C6 1.416 1_655 S
C4 C10 1.448 . S
C5 N2 1.334 . S
C5 C3 1.390 . S
C5 H16 0.930 . S
C6 C3 1.339 . S
C6 C4 1.416 1_455 S
C6 H27 0.930 . S
C7 C8 1.413 . S
C7 C9 1.427 . S
C7 C13 1.416 . S
C8 C1 1.424 . S
C8 C7 1.413 . S
C8 N12 1.361 . S
C9 C7 1.427 . S
C9 C10 1.328 . S
C9 H24 0.929 . S
C10 C4 1.448 . S
C10 C9 1.328 . S
C10 H25 0.930 . S
Tb11 N2 2.617 . S
Tb11 N12 2.572 1_455 S
Tb11 O46 2.349 1_565 S
Tb11 O49 2.393 . S
Tb11 O50 2.465 1_455 S
Tb11 O51 2.387 1_455 S
Tb11 O53 2.428 . S
Tb11 O54 2.308 1_465 S
Tb11 C75 2.802 . S
N12 C8 1.361 . S
N12 Tb11 2.572 1_655 S
N12 C14 1.340 . S
C13 C7 1.416 . S
C13 C15 1.332 . S
C13 H21 0.931 . S
C14 N12 1.340 . S
C14 C15 1.407 . S
C14 H20 0.930 . S
C15 C13 1.332 . S
C15 C14 1.407 . S
C15 H17 0.929 . S
H16 C5 0.930 . S
H17 C15 0.929 . S
H18 C33 0.930 . S
H19 C40 0.929 . S
H20 C14 0.930 . S
H21 C13 0.931 . S
H22 C36 0.930 . S
H23 C3 0.930 . S
H24 C9 0.929 . S
H25 C10 0.930 . S
H26 C31 0.930 . S
H27 C6 0.930 . S
H28 C39 0.931 . S
N29 Tb0 2.617 . S
N29 C30 1.379 1_655 S
N29 C33 1.334 . S
C30 N29 1.379 1_455 S
C30 C32 1.416 . S
C30 C38 1.424 . S
C31 H26 0.930 . S
C31 C33 1.390 . S
C31 C34 1.339 . S
C32 C30 1.416 . S
C32 C34 1.416 1_455 S
C32 C65 1.448 . S
C33 H18 0.930 . S
C33 N29 1.334 . S
C33 C31 1.390 . S
C34 C31 1.339 . S
C34 C32 1.416 1_655 S
C34 H41 0.930 . S
N35 Tb0 2.572 1_455 S
N35 C36 1.340 . S
N35 C38 1.361 . S
C36 H22 0.930 . S
C36 N35 1.340 . S
C36 C40 1.407 . S
C37 C38 1.413 . S
C37 C39 1.416 . S
C37 C66 1.427 . S
C38 C30 1.424 . S
C38 N35 1.361 . S
C38 C37 1.413 . S
C39 H28 0.931 . S
C39 C37 1.416 . S
C39 C40 1.332 . S
C40 H19 0.929 . S
C40 C36 1.407 . S
C40 C39 1.332 . S
H41 C34 0.930 . S
H42 C65 0.930 . S
H43 C66 0.929 . S
O44 Tb0 2.465 1_455 S
O44 C64 1.264 1_455 S
O45 Tb0 2.387 1_455 S
O45 C56 1.264 . S
O46 Tb11 2.349 1_545 S
O46 C56 1.243 . S
O47 Tb0 2.428 . S
O47 C64 1.256 . S
O48 Tb0 2.308 1_465 S
O48 C63 1.266 . S
O49 Tb11 2.393 . S
O49 C63 1.248 . S
O50 Tb11 2.465 1_655 S
O50 C75 1.264 1_655 S
O51 Tb11 2.387 1_655 S
O51 C67 1.264 . S
O52 Tb0 2.349 1_565 S
O52 C67 1.243 . S
O53 Tb11 2.428 . S
O53 C75 1.256 . S
O54 Tb11 2.308 1_645 S
O54 C74 1.266 . S
O55 Tb0 2.393 . S
O55 C74 1.248 . S
C56 O45 1.264 . S
C56 O46 1.243 . S
C57 C60 1.399 . S
C57 C62 1.383 . S
C57 C64 1.496 . S
C58 C59 1.399 . S
C58 C62 1.389 . S
C59 C58 1.399 . S
C59 C61 1.380 . S
C59 H76 0.929 . S
C60 C57 1.399 . S
C60 C61 1.392 . S
C60 H77 0.929 . S
C61 C59 1.380 . S
C61 C60 1.392 . S
C61 H78 0.929 . S
C62 C57 1.383 . S
C62 C58 1.389 . S
C62 H79 0.931 1_645 S
C63 O48 1.266 . S
C63 O49 1.248 . S
C64 Tb0 2.802 . S
C64 O44 1.264 1_655 S
C64 O47 1.256 . S
C64 C57 1.496 . S
C65 C32 1.448 . S
C65 H42 0.930 . S
C65 C66 1.328 . S
C66 C37 1.427 . S
C66 H43 0.929 . S
C66 C65 1.328 . S
C67 O51 1.264 . S
C67 O52 1.243 . S
C68 C71 1.399 . S
C68 C72 1.383 . S
C68 C75 1.496 . S
C69 C70 1.399 . S
C69 C72 1.389 . S
C70 C69 1.399 . S
C70 C73 1.380 . S
C70 H80 0.929 . S
C71 C68 1.399 . S
C71 C73 1.392 . S
C71 H81 0.929 . S
C72 C68 1.383 . S
C72 C69 1.389 . S
C72 H82 0.931 1_465 S
C73 C70 1.380 . S
C73 C71 1.392 . S
C73 H83 0.929 . S
C74 O54 1.266 . S
C74 O55 1.248 . S
C75 Tb11 2.802 . S
C75 O50 1.264 1_455 S
C75 O53 1.256 . S
C75 C68 1.496 . S
H76 C59 0.929 . S
H77 C60 0.929 . S
H78 C61 0.929 . S
H79 C62 0.931 1_465 S
H80 C70 0.929 . S
H81 C71 0.929 . S
H82 C72 0.931 1_645 S
H83 C73 0.929 . S
Tb84 N113 2.617 . S
Tb84 N119 2.572 . S
Tb84 O128 2.465 . S
Tb84 O129 2.387 . S
Tb84 O131 2.428 . S
Tb84 O132 2.308 . S
Tb84 O136 2.349 . S
Tb84 O139 2.393 . S
Tb84 C148 2.802 . S
C85 N86 1.379 . S
C85 C88 1.416 . S
C85 C92 1.424 . S
N86 C85 1.379 . S
N86 C89 1.334 . S
N86 Tb95 2.617 . S
C87 C89 1.390 . S
C87 C90 1.339 . S
C87 H107 0.930 . S
C88 C85 1.416 . S
C88 C90 1.416 . S
C88 C94 1.448 . S
C89 N86 1.334 . S
C89 C87 1.390 . S
C89 H100 0.930 . S
C90 C87 1.339 . S
C90 C88 1.416 . S
C90 H111 0.930 . S
C91 C92 1.413 . S
C91 C93 1.427 . S
C91 C97 1.416 . S
C92 C85 1.424 . S
C92 C91 1.413 . S
C92 N96 1.361 . S
C93 C91 1.427 . S
C93 C94 1.328 . S
C93 H108 0.929 . S
C94 C88 1.448 . S
C94 C93 1.328 . S
C94 H109 0.930 . S
Tb95 N86 2.617 . S
Tb95 N96 2.572 . S
Tb95 O130 2.349 . S
Tb95 O133 2.393 . S
Tb95 O134 2.465 . S
Tb95 O135 2.387 . S
Tb95 O137 2.428 . S
Tb95 O138 2.308 . S
Tb95 C159 2.802 . S
N96 C92 1.361 . S
N96 Tb95 2.572 . S
N96 C98 1.340 . S
C97 C91 1.416 . S
C97 C99 1.332 . S
C97 H105 0.931 . S
C98 N96 1.340 . S
C98 C99 1.407 . S
C98 H104 0.930 . S
C99 C97 1.332 . S
C99 C98 1.407 . S
C99 H101 0.929 . S
H100 C89 0.930 . S
H101 C99 0.929 . S
H102 C117 0.930 . S
H103 C124 0.929 . S
H104 C98 0.930 . S
H105 C97 0.931 . S
H106 C120 0.930 . S
H107 C87 0.930 . S
H108 C93 0.929 . S
H109 C94 0.930 . S
H110 C115 0.930 . S
H111 C90 0.930 . S
H112 C123 0.931 . S
N113 Tb84 2.617 . S
N113 C114 1.379 . S
N113 C117 1.334 . S
C114 N113 1.379 . S
C114 C116 1.416 . S
C114 C122 1.424 . S
C115 H110 0.930 . S
C115 C117 1.390 . S
C115 C118 1.339 . S
C116 C114 1.416 . S
C116 C118 1.416 . S
C116 C149 1.448 . S
C117 H102 0.930 . S
C117 N113 1.334 . S
C117 C115 1.390 . S
C118 C115 1.339 . S
C118 C116 1.416 . S
C118 H125 0.930 1_455 S
N119 Tb84 2.572 . S
N119 C120 1.340 . S
N119 C122 1.361 . S
C120 H106 0.930 . S
C120 N119 1.340 . S
C120 C124 1.407 . S
C121 C122 1.413 . S
C121 C123 1.416 . S
C121 C150 1.427 . S
C122 C114 1.424 . S
C122 N119 1.361 . S
C122 C121 1.413 . S
C123 H112 0.931 . S
C123 C121 1.416 . S
C123 C124 1.332 . S
C124 H103 0.929 . S
C124 C120 1.407 . S
C124 C123 1.332 . S
H125 C118 0.930 1_655 S
H126 C149 0.930 1_655 S
H127 C150 0.929 . S
O128 Tb84 2.465 . S
O128 C148 1.264 . S
O129 Tb84 2.387 . S
O129 C140 1.264 . S
O130 Tb95 2.349 . S
O130 C140 1.243 . S
O131 Tb84 2.428 . S
O131 C148 1.256 . S
O132 Tb84 2.308 . S
O132 C147 1.266 . S
O133 Tb95 2.393 . S
O133 C147 1.248 . S
O134 Tb95 2.465 . S
O134 C159 1.264 . S
O135 Tb95 2.387 . S
O135 C151 1.264 . S
O136 Tb84 2.349 . S
O136 C151 1.243 . S
O137 Tb95 2.428 . S
O137 C159 1.256 . S
O138 Tb95 2.308 . S
O138 C158 1.266 . S
O139 Tb84 2.393 . S
O139 C158 1.248 . S
C140 O129 1.264 . S
C140 O130 1.243 . S
C141 C144 1.399 . S
C141 C146 1.383 . S
C141 C148 1.496 1_554 S
C142 C143 1.399 . S
C142 C146 1.389 . S
C143 C142 1.399 . S
C143 C145 1.380 . S
C143 H160 0.929 . S
C144 C141 1.399 . S
C144 C145 1.392 . S
C144 H161 0.929 . S
C145 C143 1.380 . S
C145 C144 1.392 . S
C145 H162 0.929 . S
C146 C141 1.383 . S
C146 C142 1.389 . S
C146 H163 0.931 . S
C147 O132 1.266 . S
C147 O133 1.248 . S
C148 Tb84 2.802 . S
C148 O128 1.264 . S
C148 O131 1.256 . S
C148 C141 1.496 1_556 S
C149 C116 1.448 . S
C149 H126 0.930 1_455 S
C149 C150 1.328 . S
C150 C121 1.427 . S
C150 H127 0.929 . S
C150 C149 1.328 . S
C151 O135 1.264 . S
C151 O136 1.243 . S
C152 C155 1.399 . S
C152 C156 1.383 . S
C152 C159 1.496 . S
C153 C154 1.399 . S
C153 C156 1.389 . S
C154 C153 1.399 . S
C154 C157 1.380 . S
C154 H164 0.929 . S
C155 C152 1.399 . S
C155 C157 1.392 . S
C155 H165 0.929 . S
C156 C152 1.383 . S
C156 C153 1.389 . S
C156 H166 0.931 . S
C157 C154 1.380 . S
C157 C155 1.392 . S
C157 H167 0.929 . S
C158 O138 1.266 . S
C158 O139 1.248 . S
C159 Tb95 2.802 . S
C159 O134 1.264 . S
C159 O137 1.256 . S
C159 C152 1.496 . S
H160 C143 0.929 . S
H161 C144 0.929 . S
H162 C145 0.929 . S
H163 C146 0.931 . S
H164 C154 0.929 . S
H165 C155 0.929 . S
H166 C156 0.931 . S
H167 C157 0.929 . S
Tb168 N197 2.617 . S
Tb168 N203 2.572 . S
Tb168 O212 2.465 . S
Tb168 O213 2.387 1_554 S
Tb168 O215 2.428 . S
Tb168 O216 2.308 1_565 S
Tb168 O220 2.349 1_565 S
Tb168 O223 2.393 . S
Tb168 C232 2.802 . S
C169 N170 1.379 . S
C169 C172 1.416 . S
C169 C176 1.424 . S
N170 C169 1.379 . S
N170 C173 1.334 . S
N170 Tb179 2.617 . S
C171 C173 1.390 . S
C171 C174 1.339 . S
C171 H191 0.930 . S
C172 C169 1.416 . S
C172 C174 1.416 . S
C172 C178 1.448 . S
C173 N170 1.334 . S
C173 C171 1.390 . S
C173 H184 0.930 . S
C174 C171 1.339 . S
C174 C172 1.416 . S
C174 H195 0.930 . S
C175 C176 1.413 . S
C175 C177 1.427 . S
C175 C181 1.416 . S
C176 C169 1.424 . S
C176 C175 1.413 . S
C176 N180 1.361 . S
C177 C175 1.427 . S
C177 C178 1.328 . S
C177 H192 0.929 . S
C178 C172 1.448 . S
C178 C177 1.328 . S
C178 H193 0.930 . S
Tb179 N170 2.617 . S
Tb179 N180 2.572 . S
Tb179 O214 2.349 1_545 S
Tb179 O217 2.393 . S
Tb179 O218 2.465 . S
Tb179 O219 2.387 1_556 S
Tb179 O221 2.428 . S
Tb179 O222 2.308 1_545 S
Tb179 C243 2.802 . S
N180 C176 1.361 . S
N180 Tb179 2.572 . S
N180 C182 1.340 . S
C181 C175 1.416 . S
C181 C183 1.332 . S
C181 H189 0.931 . S
C182 N180 1.340 . S
C182 C183 1.407 . S
C182 H188 0.930 . S
C183 C181 1.332 . S
C183 C182 1.407 . S
C183 H185 0.929 . S
H184 C173 0.930 . S
H185 C183 0.929 . S
H186 C201 0.930 . S
H187 C208 0.929 . S
H188 C182 0.930 . S
H189 C181 0.931 . S
H190 C204 0.930 . S
H191 C171 0.930 . S
H192 C177 0.929 . S
H193 C178 0.930 . S
H194 C199 0.930 . S
H195 C174 0.930 . S
H196 C207 0.931 . S
N197 Tb168 2.617 . S
N197 C198 1.379 . S
N197 C201 1.334 . S
C198 N197 1.379 . S
C198 C200 1.416 . S
C198 C206 1.424 . S
C199 H194 0.930 . S
C199 C201 1.390 . S
C199 C202 1.339 . S
C200 C198 1.416 . S
C200 C202 1.416 . S
C200 C233 1.448 . S
C201 H186 0.930 . S
C201 N197 1.334 . S
C201 C199 1.390 . S
C202 C199 1.339 . S
C202 C200 1.416 . S
C202 H209 0.930 . S
N203 Tb168 2.572 . S
N203 C204 1.340 . S
N203 C206 1.361 . S
C204 H190 0.930 . S
C204 N203 1.340 . S
C204 C208 1.407 . S
C205 C206 1.413 . S
C205 C207 1.416 . S
C205 C234 1.427 . S
C206 C198 1.424 . S
C206 N203 1.361 . S
C206 C205 1.413 . S
C207 H196 0.931 . S
C207 C205 1.416 . S
C207 C208 1.332 . S
C208 H187 0.929 . S
C208 C204 1.407 . S
C208 C207 1.332 . S
H209 C202 0.930 . S
H210 C233 0.930 . S
H211 C234 0.929 . S
O212 Tb168 2.465 . S
O212 C232 1.264 . S
O213 Tb168 2.387 1_556 S
O213 C224 1.264 . S
O214 Tb179 2.349 1_565 S
O214 C224 1.243 . S
O215 Tb168 2.428 . S
O215 C232 1.256 . S
O216 Tb168 2.308 1_545 S
O216 C231 1.266 . S
O217 Tb179 2.393 . S
O217 C231 1.248 1_556 S
O218 Tb179 2.465 . S
O218 C243 1.264 . S
O219 Tb179 2.387 1_554 S
O219 C235 1.264 . S
O220 Tb168 2.349 1_545 S
O220 C235 1.243 . S
O221 Tb179 2.428 . S
O221 C243 1.256 . S
O222 Tb179 2.308 1_565 S
O222 C242 1.266 . S
O223 Tb168 2.393 . S
O223 C242 1.248 1_554 S
C224 O213 1.264 . S
C224 O214 1.243 . S
C225 C228 1.399 . S
C225 C230 1.383 . S
C225 C232 1.496 . S
C226 C227 1.399 . S
C226 C230 1.389 . S
C227 C226 1.399 . S
C227 C229 1.380 . S
C227 H244 0.929 . S
C228 C225 1.399 . S
C228 C229 1.392 . S
C228 H245 0.929 . S
C229 C227 1.380 . S
C229 C228 1.392 . S
C229 H246 0.929 . S
C230 C225 1.383 . S
C230 C226 1.389 . S
C230 H247 0.931 1_565 S
C231 O216 1.266 . S
C231 O217 1.248 1_554 S
C232 Tb168 2.802 . S
C232 O212 1.264 . S
C232 O215 1.256 . S
C232 C225 1.496 . S
C233 C200 1.448 . S
C233 H210 0.930 . S
C233 C234 1.328 . S
C234 C205 1.427 . S
C234 H211 0.929 . S
C234 C233 1.328 . S
C235 O219 1.264 . S
C235 O220 1.243 . S
C236 C239 1.399 . S
C236 C240 1.383 . S
C236 C243 1.496 . S
C237 C238 1.399 . S
C237 C240 1.389 . S
C238 C237 1.399 . S
C238 C241 1.380 . S
C238 H248 0.929 . S
C239 C236 1.399 . S
C239 C241 1.392 . S
C239 H249 0.929 . S
C240 C236 1.383 . S
C240 C237 1.389 . S
C240 H250 0.931 1_545 S
C241 C238 1.380 . S
C241 C239 1.392 . S
C241 H251 0.929 . S
C242 O222 1.266 . S
C242 O223 1.248 1_556 S
C243 Tb179 2.802 . S
C243 O218 1.264 . S
C243 O221 1.256 . S
C243 C236 1.496 . S
H244 C227 0.929 . S
H245 C228 0.929 . S
H246 C229 0.929 . S
H247 C230 0.931 1_545 S
H248 C238 0.929 . S
H249 C239 0.929 . S
H250 C240 0.931 1_565 S
H251 C241 0.929 . S
Tb252 N281 2.617 . S
Tb252 N287 2.572 . S
Tb252 O296 2.465 . S
Tb252 O297 2.387 . S
Tb252 O299 2.428 . S
Tb252 O300 2.308 . S
Tb252 O304 2.349 . S
Tb252 O307 2.393 . S
Tb252 C316 2.802 . S
C253 N254 1.379 . S
C253 C256 1.416 . S
C253 C260 1.424 . S
N254 C253 1.379 . S
N254 C257 1.334 . S
N254 Tb263 2.617 . S
C255 C257 1.390 . S
C255 C258 1.339 . S
C255 H275 0.930 . S
C256 C253 1.416 . S
C256 C258 1.416 . S
C256 C262 1.448 . S
C257 N254 1.334 . S
C257 C255 1.390 . S
C257 H268 0.930 . S
C258 C255 1.339 . S
C258 C256 1.416 . S
C258 H279 0.930 . S
C259 C260 1.413 . S
C259 C261 1.427 . S
C259 C265 1.416 . S
C260 C253 1.424 . S
C260 C259 1.413 . S
C260 N264 1.361 . S
C261 C259 1.427 . S
C261 C262 1.328 . S
C261 H276 0.929 . S
C262 C256 1.448 . S
C262 C261 1.328 . S
C262 H277 0.930 . S
Tb263 N254 2.617 . S
Tb263 N264 2.572 . S
Tb263 O298 2.349 . S
Tb263 O301 2.393 . S
Tb263 O302 2.465 . S
Tb263 O303 2.387 . S
Tb263 O305 2.428 . S
Tb263 O306 2.308 . S
Tb263 C327 2.802 . S
N264 C260 1.361 . S
N264 Tb263 2.572 . S
N264 C266 1.340 . S
C265 C259 1.416 . S
C265 C267 1.332 . S
C265 H273 0.931 . S
C266 N264 1.340 . S
C266 C267 1.407 . S
C266 H272 0.930 . S
C267 C265 1.332 . S
C267 C266 1.407 . S
C267 H269 0.929 . S
H268 C257 0.930 . S
H269 C267 0.929 . S
H270 C285 0.930 . S
H271 C292 0.929 . S
H272 C266 0.930 . S
H273 C265 0.931 . S
H274 C288 0.930 . S
H275 C255 0.930 . S
H276 C261 0.929 . S
H277 C262 0.930 . S
H278 C283 0.930 . S
H279 C258 0.930 . S
H280 C291 0.931 . S
N281 Tb252 2.617 . S
N281 C282 1.379 . S
N281 C285 1.334 . S
C282 N281 1.379 . S
C282 C284 1.416 . S
C282 C290 1.424 . S
C283 H278 0.930 . S
C283 C285 1.390 . S
C283 C286 1.339 . S
C284 C282 1.416 . S
C284 C286 1.416 . S
C284 C317 1.448 . S
C285 H270 0.930 . S
C285 N281 1.334 . S
C285 C283 1.390 . S
C286 C283 1.339 . S
C286 C284 1.416 . S
C286 H293 0.930 1_455 S
N287 Tb252 2.572 . S
N287 C288 1.340 . S
N287 C290 1.361 . S
C288 H274 0.930 . S
C288 N287 1.340 . S
C288 C292 1.407 . S
C289 C290 1.413 . S
C289 C291 1.416 . S
C289 C318 1.427 . S
C290 C282 1.424 . S
C290 N287 1.361 . S
C290 C289 1.413 . S
C291 H280 0.931 . S
C291 C289 1.416 . S
C291 C292 1.332 . S
C292 H271 0.929 . S
C292 C288 1.407 . S
C292 C291 1.332 . S
H293 C286 0.930 1_655 S
H294 C317 0.930 1_655 S
H295 C318 0.929 . S
O296 Tb252 2.465 . S
O296 C316 1.264 . S
O297 Tb252 2.387 . S
O297 C308 1.264 . S
O298 Tb263 2.349 . S
O298 C308 1.243 . S
O299 Tb252 2.428 . S
O299 C316 1.256 . S
O300 Tb252 2.308 . S
O300 C315 1.266 . S
O301 Tb263 2.393 . S
O301 C315 1.248 . S
O302 Tb263 2.465 . S
O302 C327 1.264 . S
O303 Tb263 2.387 . S
O303 C319 1.264 . S
O304 Tb252 2.349 . S
O304 C319 1.243 . S
O305 Tb263 2.428 . S
O305 C327 1.256 . S
O306 Tb263 2.308 . S
O306 C326 1.266 . S
O307 Tb252 2.393 . S
O307 C326 1.248 . S
C308 O297 1.264 . S
C308 O298 1.243 . S
C309 C312 1.399 . S
C309 C314 1.383 . S
C309 C316 1.496 1_556 S
C310 C311 1.399 . S
C310 C314 1.389 . S
C311 C310 1.399 . S
C311 C313 1.380 . S
C311 H328 0.929 . S
C312 C309 1.399 . S
C312 C313 1.392 . S
C312 H329 0.929 . S
C313 C311 1.380 . S
C313 C312 1.392 . S
C313 H330 0.929 . S
C314 C309 1.383 . S
C314 C310 1.389 . S
C314 H331 0.931 . S
C315 O300 1.266 . S
C315 O301 1.248 . S
C316 Tb252 2.802 . S
C316 O296 1.264 . S
C316 O299 1.256 . S
C316 C309 1.496 1_554 S
C317 C284 1.448 . S
C317 H294 0.930 1_455 S
C317 C318 1.328 . S
C318 C289 1.427 . S
C318 H295 0.929 . S
C318 C317 1.328 . S
C319 O303 1.264 . S
C319 O304 1.243 . S
C320 C323 1.399 . S
C320 C324 1.383 . S
C320 C327 1.496 . S
C321 C322 1.399 . S
C321 C324 1.389 . S
C322 C321 1.399 . S
C322 C325 1.380 . S
C322 H332 0.929 . S
C323 C320 1.399 . S
C323 C325 1.392 . S
C323 H333 0.929 . S
C324 C320 1.383 . S
C324 C321 1.389 . S
C324 H334 0.931 . S
C325 C322 1.380 . S
C325 C323 1.392 . S
C325 H335 0.929 . S
C326 O306 1.266 . S
C326 O307 1.248 . S
C327 Tb263 2.802 . S
C327 O302 1.264 . S
C327 O305 1.256 . S
C327 C320 1.496 . S
H328 C311 0.929 . S
H329 C312 0.929 . S
H330 C313 0.929 . S
H331 C314 0.931 . S
H332 C322 0.929 . S
H333 C323 0.929 . S
H334 C324 0.931 . S
H335 C325 0.929 . S
Tb336 N365 2.617 . S
Tb336 N371 2.572 . S
Tb336 O380 2.465 . S
Tb336 O381 2.387 . S
Tb336 O383 2.428 . S
Tb336 O384 2.308 . S
Tb336 O388 2.349 . S
Tb336 O391 2.393 . S
Tb336 C400 2.802 . S
C337 N338 1.379 . S
C337 C340 1.416 . S
C337 C344 1.424 . S
N338 C337 1.379 . S
N338 C341 1.334 . S
N338 Tb347 2.617 . S
C339 C341 1.390 . S
C339 C342 1.339 . S
C339 H359 0.930 . S
C340 C337 1.416 . S
C340 C342 1.416 . S
C340 C346 1.448 . S
C341 N338 1.334 . S
C341 C339 1.390 . S
C341 H352 0.930 . S
C342 C339 1.339 . S
C342 C340 1.416 . S
C342 H363 0.930 1_655 S
C343 C344 1.413 . S
C343 C345 1.427 . S
C343 C349 1.416 . S
C344 C337 1.424 . S
C344 C343 1.413 . S
C344 N348 1.361 . S
C345 C343 1.427 . S
C345 C346 1.328 . S
C345 H360 0.929 . S
C346 C340 1.448 . S
C346 C345 1.328 . S
C346 H361 0.930 1_655 S
Tb347 N338 2.617 . S
Tb347 N348 2.572 . S
Tb347 O382 2.349 . S
Tb347 O385 2.393 . S
Tb347 O386 2.465 . S
Tb347 O387 2.387 . S
Tb347 O389 2.428 . S
Tb347 O390 2.308 . S
Tb347 C411 2.802 . S
N348 C344 1.361 . S
N348 Tb347 2.572 . S
N348 C350 1.340 . S
C349 C343 1.416 . S
C349 C351 1.332 . S
C349 H357 0.931 . S
C350 N348 1.340 . S
C350 C351 1.407 . S
C350 H356 0.930 . S
C351 C349 1.332 . S
C351 C350 1.407 . S
C351 H353 0.929 . S
H352 C341 0.930 . S
H353 C351 0.929 . S
H354 C369 0.930 . S
H355 C376 0.929 . S
H356 C350 0.930 . S
H357 C349 0.931 . S
H358 C372 0.930 . S
H359 C339 0.930 . S
H360 C345 0.929 . S
H361 C346 0.930 1_455 S
H362 C367 0.930 . S
H363 C342 0.930 1_455 S
H364 C375 0.931 . S
N365 Tb336 2.617 . S
N365 C366 1.379 . S
N365 C369 1.334 . S
C366 N365 1.379 . S
C366 C368 1.416 . S
C366 C374 1.424 . S
C367 H362 0.930 . S
C367 C369 1.390 . S
C367 C370 1.339 . S
C368 C366 1.416 . S
C368 C370 1.416 . S
C368 C401 1.448 . S
C369 H354 0.930 . S
C369 N365 1.334 . S
C369 C367 1.390 . S
C370 C367 1.339 . S
C370 C368 1.416 . S
C370 H377 0.930 . S
N371 Tb336 2.572 . S
N371 C372 1.340 . S
N371 C374 1.361 . S
C372 H358 0.930 . S
C372 N371 1.340 . S
C372 C376 1.407 . S
C373 C374 1.413 . S
C373 C375 1.416 . S
C373 C402 1.427 . S
C374 C366 1.424 . S
C374 N371 1.361 . S
C374 C373 1.413 . S
C375 H364 0.931 . S
C375 C373 1.416 . S
C375 C376 1.332 . S
C376 H355 0.929 . S
C376 C372 1.407 . S
C376 C375 1.332 . S
H377 C370 0.930 . S
H378 C401 0.930 . S
H379 C402 0.929 . S
O380 Tb336 2.465 . S
O380 C400 1.264 . S
O381 Tb336 2.387 . S
O381 C392 1.264 . S
O382 Tb347 2.349 . S
O382 C392 1.243 . S
O383 Tb336 2.428 . S
O383 C400 1.256 . S
O384 Tb336 2.308 . S
O384 C399 1.266 . S
O385 Tb347 2.393 . S
O385 C399 1.248 . S
O386 Tb347 2.465 . S
O386 C411 1.264 . S
O387 Tb347 2.387 . S
O387 C403 1.264 . S
O388 Tb336 2.349 . S
O388 C403 1.243 . S
O389 Tb347 2.428 . S
O389 C411 1.256 . S
O390 Tb347 2.308 . S
O390 C410 1.266 . S
O391 Tb336 2.393 . S
O391 C410 1.248 . S
C392 O381 1.264 . S
C392 O382 1.243 . S
C393 C396 1.399 . S
C393 C398 1.383 . S
C393 C400 1.496 . S
C394 C395 1.399 . S
C394 C398 1.389 . S
C395 C394 1.399 . S
C395 C397 1.380 . S
C395 H412 0.929 . S
C396 C393 1.399 . S
C396 C397 1.392 . S
C396 H413 0.929 . S
C397 C395 1.380 . S
C397 C396 1.392 . S
C397 H414 0.929 . S
C398 C393 1.383 . S
C398 C394 1.389 . S
C398 H415 0.931 . S
C399 O384 1.266 . S
C399 O385 1.248 . S
C400 Tb336 2.802 . S
C400 O380 1.264 . S
C400 O383 1.256 . S
C400 C393 1.496 . S
C401 C368 1.448 . S
C401 H378 0.930 . S
C401 C402 1.328 . S
C402 C373 1.427 . S
C402 H379 0.929 . S
C402 C401 1.328 . S
C403 O387 1.264 . S
C403 O388 1.243 . S
C404 C407 1.399 . S
C404 C408 1.383 . S
C404 C411 1.496 1_556 S
C405 C406 1.399 . S
C405 C408 1.389 . S
C406 C405 1.399 . S
C406 C409 1.380 . S
C406 H416 0.929 . S
C407 C404 1.399 . S
C407 C409 1.392 . S
C407 H417 0.929 . S
C408 C404 1.383 . S
C408 C405 1.389 . S
C408 H418 0.931 . S
C409 C406 1.380 . S
C409 C407 1.392 . S
C409 H419 0.929 . S
C410 O390 1.266 . S
C410 O391 1.248 . S
C411 Tb347 2.802 . S
C411 O386 1.264 . S
C411 O389 1.256 . S
C411 C404 1.496 1_554 S
H412 C395 0.929 . S
H413 C396 0.929 . S
H414 C397 0.929 . S
H415 C398 0.931 . S
H416 C406 0.929 . S
H417 C407 0.929 . S
H418 C408 0.931 . S
H419 C409 0.929 . S
Tb420 N449 2.617 . S
Tb420 N455 2.572 . S
Tb420 O464 2.465 . S
Tb420 O465 2.387 . S
Tb420 O467 2.428 . S
Tb420 O468 2.308 . S
Tb420 O472 2.349 . S
Tb420 O475 2.393 . S
Tb420 C484 2.802 . S
C421 N422 1.379 . S
C421 C424 1.416 . S
C421 C428 1.424 . S
N422 C421 1.379 . S
N422 C425 1.334 . S
N422 Tb431 2.617 . S
C423 C425 1.390 . S
C423 C426 1.339 . S
C423 H443 0.930 . S
C424 C421 1.416 . S
C424 C426 1.416 . S
C424 C430 1.448 . S
C425 N422 1.334 . S
C425 C423 1.390 . S
C425 H436 0.930 . S
C426 C423 1.339 . S
C426 C424 1.416 . S
C426 H447 0.930 1_655 S
C427 C428 1.413 . S
C427 C429 1.427 . S
C427 C433 1.416 . S
C428 C421 1.424 . S
C428 C427 1.413 . S
C428 N432 1.361 . S
C429 C427 1.427 . S
C429 C430 1.328 . S
C429 H444 0.929 . S
C430 C424 1.448 . S
C430 C429 1.328 . S
C430 H445 0.930 1_655 S
Tb431 N422 2.617 . S
Tb431 N432 2.572 . S
Tb431 O466 2.349 . S
Tb431 O469 2.393 . S
Tb431 O470 2.465 . S
Tb431 O471 2.387 . S
Tb431 O473 2.428 . S
Tb431 O474 2.308 . S
Tb431 C495 2.802 . S
N432 C428 1.361 . S
N432 Tb431 2.572 . S
N432 C434 1.340 . S
C433 C427 1.416 . S
C433 C435 1.332 . S
C433 H441 0.931 . S
C434 N432 1.340 . S
C434 C435 1.407 . S
C434 H440 0.930 . S
C435 C433 1.332 . S
C435 C434 1.407 . S
C435 H437 0.929 . S
H436 C425 0.930 . S
H437 C435 0.929 . S
H438 C453 0.930 . S
H439 C460 0.929 . S
H440 C434 0.930 . S
H441 C433 0.931 . S
H442 C456 0.930 . S
H443 C423 0.930 . S
H444 C429 0.929 . S
H445 C430 0.930 1_455 S
H446 C451 0.930 . S
H447 C426 0.930 1_455 S
H448 C459 0.931 . S
N449 Tb420 2.617 . S
N449 C450 1.379 . S
N449 C453 1.334 . S
C450 N449 1.379 . S
C450 C452 1.416 . S
C450 C458 1.424 . S
C451 H446 0.930 . S
C451 C453 1.390 . S
C451 C454 1.339 . S
C452 C450 1.416 . S
C452 C454 1.416 . S
C452 C485 1.448 . S
C453 H438 0.930 . S
C453 N449 1.334 . S
C453 C451 1.390 . S
C454 C451 1.339 . S
C454 C452 1.416 . S
C454 H461 0.930 . S
N455 Tb420 2.572 . S
N455 C456 1.340 . S
N455 C458 1.361 . S
C456 H442 0.930 . S
C456 N455 1.340 . S
C456 C460 1.407 . S
C457 C458 1.413 . S
C457 C459 1.416 . S
C457 C486 1.427 . S
C458 C450 1.424 . S
C458 N455 1.361 . S
C458 C457 1.413 . S
C459 H448 0.931 . S
C459 C457 1.416 . S
C459 C460 1.332 . S
C460 H439 0.929 . S
C460 C456 1.407 . S
C460 C459 1.332 . S
H461 C454 0.930 . S
H462 C485 0.930 . S
H463 C486 0.929 . S
O464 Tb420 2.465 . S
O464 C484 1.264 . S
O465 Tb420 2.387 . S
O465 C476 1.264 . S
O466 Tb431 2.349 . S
O466 C476 1.243 . S
O467 Tb420 2.428 . S
O467 C484 1.256 . S
O468 Tb420 2.308 . S
O468 C483 1.266 . S
O469 Tb431 2.393 . S
O469 C483 1.248 . S
O470 Tb431 2.465 . S
O470 C495 1.264 . S
O471 Tb431 2.387 . S
O471 C487 1.264 . S
O472 Tb420 2.349 . S
O472 C487 1.243 . S
O473 Tb431 2.428 . S
O473 C495 1.256 . S
O474 Tb431 2.308 . S
O474 C494 1.266 . S
O475 Tb420 2.393 . S
O475 C494 1.248 . S
C476 O465 1.264 . S
C476 O466 1.243 . S
C477 C480 1.399 . S
C477 C482 1.383 . S
C477 C484 1.496 . S
C478 C479 1.399 . S
C478 C482 1.389 . S
C479 C478 1.399 . S
C479 C481 1.380 . S
C479 H496 0.929 . S
C480 C477 1.399 . S
C480 C481 1.392 . S
C480 H497 0.929 . S
C481 C479 1.380 . S
C481 C480 1.392 . S
C481 H498 0.929 . S
C482 C477 1.383 . S
C482 C478 1.389 . S
C482 H499 0.931 . S
C483 O468 1.266 . S
C483 O469 1.248 . S
C484 Tb420 2.802 . S
C484 O464 1.264 . S
C484 O467 1.256 . S
C484 C477 1.496 . S
C485 C452 1.448 . S
C485 H462 0.930 . S
C485 C486 1.328 . S
C486 C457 1.427 . S
C486 H463 0.929 . S
C486 C485 1.328 . S
C487 O471 1.264 . S
C487 O472 1.243 . S
C488 C491 1.399 . S
C488 C492 1.383 . S
C488 C495 1.496 1_554 S
C489 C490 1.399 . S
C489 C492 1.389 . S
C490 C489 1.399 . S
C490 C493 1.380 . S
C490 H500 0.929 . S
C491 C488 1.399 . S
C491 C493 1.392 . S
C491 H501 0.929 . S
C492 C488 1.383 . S
C492 C489 1.389 . S
C492 H502 0.931 . S
C493 C490 1.380 . S
C493 C491 1.392 . S
C493 H503 0.929 . S
C494 O474 1.266 . S
C494 O475 1.248 . S
C495 Tb431 2.802 . S
C495 O470 1.264 . S
C495 O473 1.256 . S
C495 C488 1.496 1_556 S
H496 C479 0.929 . S
H497 C480 0.929 . S
H498 C481 0.929 . S
H499 C482 0.931 . S
H500 C490 0.929 . S
H501 C491 0.929 . S
H502 C492 0.931 . S
H503 C493 0.929 . S
Tb504 N533 2.617 . S
Tb504 N539 2.572 . S
Tb504 O548 2.465 . S
Tb504 O549 2.387 1_554 S
Tb504 O551 2.428 . S
Tb504 O552 2.308 . S
Tb504 O556 2.349 . S
Tb504 O559 2.393 . S
Tb504 C568 2.802 . S
C505 N506 1.379 . S
C505 C508 1.416 . S
C505 C512 1.424 . S
N506 C505 1.379 . S
N506 C509 1.334 . S
N506 Tb515 2.617 . S
C507 C509 1.390 . S
C507 C510 1.339 . S
C507 H527 0.930 . S
C508 C505 1.416 . S
C508 C510 1.416 . S
C508 C514 1.448 . S
C509 N506 1.334 . S
C509 C507 1.390 . S
C509 H520 0.930 . S
C510 C507 1.339 . S
C510 C508 1.416 . S
C510 H531 0.930 . S
C511 C512 1.413 . S
C511 C513 1.427 . S
C511 C517 1.416 . S
C512 C505 1.424 . S
C512 C511 1.413 . S
C512 N516 1.361 . S
C513 C511 1.427 . S
C513 C514 1.328 . S
C513 H528 0.929 . S
C514 C508 1.448 . S
C514 C513 1.328 . S
C514 H529 0.930 . S
Tb515 N506 2.617 . S
Tb515 N516 2.572 . S
Tb515 O550 2.349 . S
Tb515 O553 2.393 . S
Tb515 O554 2.465 . S
Tb515 O555 2.387 1_556 S
Tb515 O557 2.428 . S
Tb515 O558 2.308 . S
Tb515 C579 2.802 . S
N516 C512 1.361 . S
N516 Tb515 2.572 . S
N516 C518 1.340 . S
C517 C511 1.416 . S
C517 C519 1.332 . S
C517 H525 0.931 . S
C518 N516 1.340 . S
C518 C519 1.407 . S
C518 H524 0.930 . S
C519 C517 1.332 . S
C519 C518 1.407 . S
C519 H521 0.929 . S
H520 C509 0.930 . S
H521 C519 0.929 . S
H522 C537 0.930 . S
H523 C544 0.929 . S
H524 C518 0.930 . S
H525 C517 0.931 . S
H526 C540 0.930 . S
H527 C507 0.930 . S
H528 C513 0.929 . S
H529 C514 0.930 . S
H530 C535 0.930 . S
H531 C510 0.930 . S
H532 C543 0.931 . S
N533 Tb504 2.617 . S
N533 C534 1.379 . S
N533 C537 1.334 . S
C534 N533 1.379 . S
C534 C536 1.416 . S
C534 C542 1.424 . S
C535 H530 0.930 . S
C535 C537 1.390 . S
C535 C538 1.339 . S
C536 C534 1.416 . S
C536 C538 1.416 . S
C536 C569 1.448 . S
C537 H522 0.930 . S
C537 N533 1.334 . S
C537 C535 1.390 . S
C538 C535 1.339 . S
C538 C536 1.416 . S
C538 H545 0.930 . S
N539 Tb504 2.572 . S
N539 C540 1.340 . S
N539 C542 1.361 . S
C540 H526 0.930 . S
C540 N539 1.340 . S
C540 C544 1.407 . S
C541 C542 1.413 . S
C541 C543 1.416 . S
C541 C570 1.427 . S
C542 C534 1.424 . S
C542 N539 1.361 . S
C542 C541 1.413 . S
C543 H532 0.931 . S
C543 C541 1.416 . S
C543 C544 1.332 . S
C544 H523 0.929 . S
C544 C540 1.407 . S
C544 C543 1.332 . S
H545 C538 0.930 . S
H546 C569 0.930 . S
H547 C570 0.929 . S
O548 Tb504 2.465 . S
O548 C568 1.264 . S
O549 Tb504 2.387 1_556 S
O549 C560 1.264 . S
O550 Tb515 2.349 . S
O550 C560 1.243 . S
O551 Tb504 2.428 . S
O551 C568 1.256 . S
O552 Tb504 2.308 . S
O552 C567 1.266 . S
O553 Tb515 2.393 . S
O553 C567 1.248 1_556 S
O554 Tb515 2.465 . S
O554 C579 1.264 . S
O555 Tb515 2.387 1_554 S
O555 C571 1.264 . S
O556 Tb504 2.349 . S
O556 C571 1.243 . S
O557 Tb515 2.428 . S
O557 C579 1.256 . S
O558 Tb515 2.308 . S
O558 C578 1.266 . S
O559 Tb504 2.393 . S
O559 C578 1.248 1_554 S
C560 O549 1.264 . S
C560 O550 1.243 . S
C561 C564 1.399 . S
C561 C566 1.383 . S
C561 C568 1.496 . S
C562 C563 1.399 . S
C562 C566 1.389 . S
C563 C562 1.399 . S
C563 C565 1.380 . S
C563 H580 0.929 . S
C564 C561 1.399 . S
C564 C565 1.392 . S
C564 H581 0.929 . S
C565 C563 1.380 . S
C565 C564 1.392 . S
C565 H582 0.929 . S
C566 C561 1.383 . S
C566 C562 1.389 . S
C566 H583 0.931 . S
C567 O552 1.266 . S
C567 O553 1.248 1_554 S
C568 Tb504 2.802 . S
C568 O548 1.264 . S
C568 O551 1.256 . S
C568 C561 1.496 . S
C569 C536 1.448 . S
C569 H546 0.930 . S
C569 C570 1.328 . S
C570 C541 1.427 . S
C570 H547 0.929 . S
C570 C569 1.328 . S
C571 O555 1.264 . S
C571 O556 1.243 . S
C572 C575 1.399 . S
C572 C576 1.383 . S
C572 C579 1.496 . S
C573 C574 1.399 . S
C573 C576 1.389 . S
C574 C573 1.399 . S
C574 C577 1.380 . S
C574 H584 0.929 . S
C575 C572 1.399 . S
C575 C577 1.392 . S
C575 H585 0.929 . S
C576 C572 1.383 . S
C576 C573 1.389 . S
C576 H586 0.931 . S
C577 C574 1.380 . S
C577 C575 1.392 . S
C577 H587 0.929 . S
C578 O558 1.266 . S
C578 O559 1.248 1_556 S
C579 Tb515 2.802 . S
C579 O554 1.264 . S
C579 O557 1.256 . S
C579 C572 1.496 . S
H580 C563 0.929 . S
H581 C564 0.929 . S
H582 C565 0.929 . S
H583 C566 0.931 . S
H584 C574 0.929 . S
H585 C575 0.929 . S
H586 C576 0.931 . S
H587 C577 0.929 . S
Tb588 N617 2.617 . S
Tb588 N623 2.572 1_455 S
Tb588 O632 2.465 1_455 S
Tb588 O633 2.387 1_455 S
Tb588 O635 2.428 . S
Tb588 O636 2.308 1_455 S
Tb588 O640 2.349 . S
Tb588 O643 2.393 . S
Tb588 C652 2.802 . S
C589 N590 1.379 1_455 S
C589 C592 1.416 . S
C589 C596 1.424 . S
N590 C589 1.379 1_655 S
N590 C593 1.334 . S
N590 Tb599 2.617 . S
C591 C593 1.390 . S
C591 C594 1.339 . S
C591 H611 0.930 . S
C592 C589 1.416 . S
C592 C594 1.416 1_455 S
C592 C598 1.448 . S
C593 N590 1.334 . S
C593 C591 1.390 . S
C593 H604 0.930 . S
C594 C591 1.339 . S
C594 C592 1.416 1_655 S
C594 H615 0.930 . S
C595 C596 1.413 . S
C595 C597 1.427 . S
C595 C601 1.416 . S
C596 C589 1.424 . S
C596 C595 1.413 . S
C596 N600 1.361 . S
C597 C595 1.427 . S
C597 C598 1.328 . S
C597 H612 0.929 . S
C598 C592 1.448 . S
C598 C597 1.328 . S
C598 H613 0.930 . S
Tb599 N590 2.617 . S
Tb599 N600 2.572 1_655 S
Tb599 O634 2.349 . S
Tb599 O637 2.393 . S
Tb599 O638 2.465 1_655 S
Tb599 O639 2.387 1_655 S
Tb599 O641 2.428 . S
Tb599 O642 2.308 1_655 S
Tb599 C663 2.802 . S
N600 C596 1.361 . S
N600 Tb599 2.572 1_455 S
N600 C602 1.340 . S
C601 C595 1.416 . S
C601 C603 1.332 . S
C601 H609 0.931 . S
C602 N600 1.340 . S
C602 C603 1.407 . S
C602 H608 0.930 . S
C603 C601 1.332 . S
C603 C602 1.407 . S
C603 H605 0.929 . S
H604 C593 0.930 . S
H605 C603 0.929 . S
H606 C621 0.930 . S
H607 C628 0.929 . S
H608 C602 0.930 . S
H609 C601 0.931 . S
H610 C624 0.930 . S
H611 C591 0.930 . S
H612 C597 0.929 . S
H613 C598 0.930 . S
H614 C619 0.930 . S
H615 C594 0.930 . S
H616 C627 0.931 . S
N617 Tb588 2.617 . S
N617 C618 1.379 1_455 S
N617 C621 1.334 . S
C618 N617 1.379 1_655 S
C618 C620 1.416 . S
C618 C626 1.424 . S
C619 H614 0.930 . S
C619 C621 1.390 . S
C619 C622 1.339 . S
C620 C618 1.416 . S
C620 C622 1.416 1_655 S
C620 C653 1.448 . S
C621 H606 0.930 . S
C621 N617 1.334 . S
C621 C619 1.390 . S
C622 C619 1.339 . S
C622 C620 1.416 1_455 S
C622 H629 0.930 . S
N623 Tb588 2.572 1_655 S
N623 C624 1.340 . S
N623 C626 1.361 . S
C624 H610 0.930 . S
C624 N623 1.340 . S
C624 C628 1.407 . S
C625 C626 1.413 . S
C625 C627 1.416 . S
C625 C654 1.427 . S
C626 C618 1.424 . S
C626 N623 1.361 . S
C626 C625 1.413 . S
C627 H616 0.931 . S
C627 C625 1.416 . S
C627 C628 1.332 . S
C628 H607 0.929 . S
C628 C624 1.407 . S
C628 C627 1.332 . S
H629 C622 0.930 . S
H630 C653 0.930 . S
H631 C654 0.929 . S
O632 Tb588 2.465 1_655 S
O632 C652 1.264 1_655 S
O633 Tb588 2.387 1_655 S
O633 C644 1.264 . S
O634 Tb599 2.349 . S
O634 C644 1.243 . S
O635 Tb588 2.428 . S
O635 C652 1.256 . S
O636 Tb588 2.308 1_655 S
O636 C651 1.266 . S
O637 Tb599 2.393 . S
O637 C651 1.248 . S
O638 Tb599 2.465 1_455 S
O638 C663 1.264 1_455 S
O639 Tb599 2.387 1_455 S
O639 C655 1.264 . S
O640 Tb588 2.349 . S
O640 C655 1.243 . S
O641 Tb599 2.428 . S
O641 C663 1.256 . S
O642 Tb599 2.308 1_455 S
O642 C662 1.266 . S
O643 Tb588 2.393 . S
O643 C662 1.248 . S
C644 O633 1.264 . S
C644 O634 1.243 . S
C645 C648 1.399 . S
C645 C650 1.383 . S
C645 C652 1.496 . S
C646 C647 1.399 . S
C646 C650 1.389 . S
C647 C646 1.399 . S
C647 C649 1.380 . S
C647 H664 0.929 . S
C648 C645 1.399 . S
C648 C649 1.392 . S
C648 H665 0.929 . S
C649 C647 1.380 . S
C649 C648 1.392 . S
C649 H666 0.929 . S
C650 C645 1.383 . S
C650 C646 1.389 . S
C650 H667 0.931 1_455 S
C651 O636 1.266 . S
C651 O637 1.248 . S
C652 Tb588 2.802 . S
C652 O632 1.264 1_455 S
C652 O635 1.256 . S
C652 C645 1.496 . S
C653 C620 1.448 . S
C653 H630 0.930 . S
C653 C654 1.328 . S
C654 C625 1.427 . S
C654 H631 0.929 . S
C654 C653 1.328 . S
C655 O639 1.264 . S
C655 O640 1.243 . S
C656 C659 1.399 . S
C656 C660 1.383 . S
C656 C663 1.496 . S
C657 C658 1.399 . S
C657 C660 1.389 . S
C658 C657 1.399 . S
C658 C661 1.380 . S
C658 H668 0.929 . S
C659 C656 1.399 . S
C659 C661 1.392 . S
C659 H669 0.929 . S
C660 C656 1.383 . S
C660 C657 1.389 . S
C660 H670 0.931 1_655 S
C661 C658 1.380 . S
C661 C659 1.392 . S
C661 H671 0.929 . S
C662 O642 1.266 . S
C662 O643 1.248 . S
C663 Tb599 2.802 . S
C663 O638 1.264 1_655 S
C663 O641 1.256 . S
C663 C656 1.496 . S
H664 C647 0.929 . S
H665 C648 0.929 . S
H666 C649 0.929 . S
H667 C650 0.931 1_655 S
H668 C658 0.929 . S
H669 C659 0.929 . S
H670 C660 0.931 1_455 S
H671 C661 0.929 . S
C672 C673 1.369 . S
C672 C674 1.419 . S
C672 H676 0.930 . S
C673 C672 1.369 . S
C673 C682 1.429 . S
C674 C672 1.419 . S
C674 C675 1.363 . S
C674 H677 0.929 . S
C675 C674 1.363 . S
C675 C681 1.428 . S
H676 C672 0.930 . S
H677 C674 0.929 . S
S678 N679 1.613 . S
S678 N680 1.610 . S
N679 S678 1.613 . S
N679 C682 1.350 . S
N680 S678 1.610 . S
N680 C681 1.351 . S
C681 C675 1.428 . S
C681 N680 1.351 . S
C681 C682 1.434 . S
C682 C673 1.429 . S
C682 N679 1.350 . S
C682 C681 1.434 . S
C683 C684 1.369 . S
C683 C685 1.419 . S
C683 H687 0.930 . S
C684 C683 1.369 . S
C684 C693 1.429 . S
C685 C683 1.419 . S
C685 C686 1.363 . S
C685 H688 0.929 . S
C686 C685 1.363 . S
C686 C692 1.428 . S
H687 C683 0.930 . S
H688 C685 0.929 . S
S689 N690 1.613 . S
S689 N691 1.610 . S
N690 S689 1.613 . S
N690 C693 1.350 . S
N691 S689 1.610 . S
N691 C692 1.351 . S
C692 C686 1.428 . S
C692 N691 1.351 . S
C692 C693 1.434 . S
C693 C684 1.429 . S
C693 N690 1.350 . S
C693 C692 1.434 . S
C694 C695 1.369 . S
C694 C696 1.419 . S
C694 H698 0.930 . S
C695 C694 1.369 . S
C695 C704 1.429 . S
C696 C694 1.419 . S
C696 C697 1.363 . S
C696 H699 0.929 . S
C697 C696 1.363 . S
C697 C703 1.428 . S
H698 C694 0.930 . S
H699 C696 0.929 . S
S700 N701 1.613 . S
S700 N702 1.610 . S
N701 S700 1.613 . S
N701 C704 1.350 . S
N702 S700 1.610 . S
N702 C703 1.351 . S
C703 C697 1.428 . S
C703 N702 1.351 . S
C703 C704 1.434 . S
C704 C695 1.429 . S
C704 N701 1.350 . S
C704 C703 1.434 . S
C705 C706 1.369 . S
C705 C707 1.419 . S
C705 H709 0.930 . S
C706 C705 1.369 . S
C706 C715 1.429 . S
C707 C705 1.419 . S
C707 C708 1.363 . S
C707 H710 0.929 . S
C708 C707 1.363 . S
C708 C714 1.428 . S
H709 C705 0.930 . S
H710 C707 0.929 . S
S711 N712 1.613 . S
S711 N713 1.610 . S
N712 S711 1.613 . S
N712 C715 1.350 . S
N713 S711 1.610 . S
N713 C714 1.351 . S
C714 C708 1.428 . S
C714 N713 1.351 . S
C714 C715 1.434 . S
C715 C706 1.429 . S
C715 N712 1.350 . S
C715 C714 1.434 . S
C716 C717 1.369 . S
C716 C718 1.419 . S
C716 H720 0.930 . S
C717 C716 1.369 . S
C717 C726 1.429 . S
C718 C716 1.419 . S
C718 C719 1.363 . S
C718 H721 0.929 . S
C719 C718 1.363 . S
C719 C725 1.428 . S
H720 C716 0.930 . S
H721 C718 0.929 . S
S722 N723 1.613 . S
S722 N724 1.610 . S
N723 S722 1.613 . S
N723 C726 1.350 . S
N724 S722 1.610 . S
N724 C725 1.351 . S
C725 C719 1.428 . S
C725 N724 1.351 . S
C725 C726 1.434 . S
C726 C717 1.429 . S
C726 N723 1.350 . S
C726 C725 1.434 . S
C727 C728 1.369 . S
C727 C729 1.419 . S
C727 H731 0.930 . S
C728 C727 1.369 . S
C728 C737 1.429 . S
C729 C727 1.419 . S
C729 C730 1.363 . S
C729 H732 0.929 . S
C730 C729 1.363 . S
C730 C736 1.428 . S
H731 C727 0.930 . S
H732 C729 0.929 . S
S733 N734 1.613 . S
S733 N735 1.610 . S
N734 S733 1.613 . S
N734 C737 1.350 . S
N735 S733 1.610 . S
N735 C736 1.351 . S
C736 C730 1.428 . S
C736 N735 1.351 . S
C736 C737 1.434 . S
C737 C728 1.429 . S
C737 N734 1.350 . S
C737 C736 1.434 . S
C738 C739 1.369 . S
C738 C740 1.419 . S
C738 H742 0.930 . S
C739 C738 1.369 . S
C739 C748 1.429 . S
C740 C738 1.419 . S
C740 C741 1.363 . S
C740 H743 0.929 . S
C741 C740 1.363 . S
C741 C747 1.428 . S
H742 C738 0.930 . S
H743 C740 0.929 . S
S744 N745 1.613 . S
S744 N746 1.610 . S
N745 S744 1.613 . S
N745 C748 1.350 . S
N746 S744 1.610 . S
N746 C747 1.351 . S
C747 C741 1.428 . S
C747 N746 1.351 . S
C747 C748 1.434 . S
C748 C739 1.429 . S
C748 N745 1.350 . S
C748 C747 1.434 . S
C749 C750 1.369 . S
C749 C751 1.419 . S
C749 H753 0.930 . S
C750 C749 1.369 . S
C750 C759 1.429 . S
C751 C749 1.419 . S
C751 C752 1.363 . S
C751 H754 0.929 . S
C752 C751 1.363 . S
C752 C758 1.428 . S
H753 C749 0.930 . S
H754 C751 0.929 . S
S755 N756 1.613 1_554 S
S755 N757 1.610 . S
N756 S755 1.613 1_556 S
N756 C759 1.350 . S
N757 S755 1.610 . S
N757 C758 1.351 1_554 S
C758 C752 1.428 . S
C758 N757 1.351 1_556 S
C758 C759 1.434 . S
C759 C750 1.429 . S
C759 N756 1.350 . S
C759 C758 1.434 . S
C760 C761 1.369 . S
C760 C762 1.419 . S
C760 H764 0.930 . S
C761 C760 1.369 . S
C761 C770 1.429 . S
C762 C760 1.419 . S
C762 C763 1.363 . S
C762 H765 0.929 . S
C763 C762 1.363 . S
C763 C769 1.428 . S
H764 C760 0.930 . S
H765 C762 0.929 . S
S766 N767 1.613 . S
S766 N768 1.610 . S
N767 S766 1.613 . S
N767 C770 1.350 . S
N768 S766 1.610 . S
N768 C769 1.351 . S
C769 C763 1.428 . S
C769 N768 1.351 . S
C769 C770 1.434 . S
C770 C761 1.429 . S
C770 N767 1.350 . S
C770 C769 1.434 . S
C771 C772 1.369 . S
C771 C773 1.419 . S
C771 H775 0.930 . S
C772 C771 1.369 . S
C772 C781 1.429 . S
C773 C771 1.419 . S
C773 C774 1.363 . S
C773 H776 0.929 . S
C774 C773 1.363 . S
C774 C780 1.428 . S
H775 C771 0.930 . S
H776 C773 0.929 . S
S777 N778 1.613 . S
S777 N779 1.610 . S
N778 S777 1.613 . S
N778 C781 1.350 . S
N779 S777 1.610 . S
N779 C780 1.351 . S
C780 C774 1.428 . S
C780 N779 1.351 . S
C780 C781 1.434 . S
C781 C772 1.429 . S
C781 N778 1.350 . S
C781 C780 1.434 . S
C782 C783 1.369 . S
C782 C784 1.419 . S
C782 H786 0.930 . S
C783 C782 1.369 . S
C783 C792 1.429 . S
C784 C782 1.419 . S
C784 C785 1.363 . S
C784 H787 0.929 . S
C785 C784 1.363 . S
C785 C791 1.428 . S
H786 C782 0.930 . S
H787 C784 0.929 . S
S788 N789 1.613 . S
S788 N790 1.610 . S
N789 S788 1.613 . S
N789 C792 1.350 . S
N790 S788 1.610 . S
N790 C791 1.351 . S
C791 C785 1.428 . S
C791 N790 1.351 . S
C791 C792 1.434 . S
C792 C783 1.429 . S
C792 N789 1.350 . S
C792 C791 1.434 . S
C793 C794 1.369 . S
C793 C795 1.419 . S
C793 H797 0.930 . S
C794 C793 1.369 . S
C794 C803 1.429 . S
C795 C793 1.419 . S
C795 C796 1.363 . S
C795 H798 0.929 . S
C796 C795 1.363 . S
C796 C802 1.428 . S
H797 C793 0.930 . S
H798 C795 0.929 . S
S799 N800 1.613 . S
S799 N801 1.610 . S
N800 S799 1.613 . S
N800 C803 1.350 . S
N801 S799 1.610 . S
N801 C802 1.351 . S
C802 C796 1.428 . S
C802 N801 1.351 . S
C802 C803 1.434 . S
C803 C794 1.429 . S
C803 N800 1.350 . S
C803 C802 1.434 . S
C804 C805 1.369 . S
C804 C806 1.419 . S
C804 H808 0.930 . S
C805 C804 1.369 . S
C805 C814 1.429 . S
C806 C804 1.419 . S
C806 C807 1.363 . S
C806 H809 0.929 . S
C807 C806 1.363 . S
C807 C813 1.428 . S
H808 C804 0.930 . S
H809 C806 0.929 . S
S810 N811 1.613 . S
S810 N812 1.610 . S
N811 S810 1.613 . S
N811 C814 1.350 . S
N812 S810 1.610 . S
N812 C813 1.351 . S
C813 C807 1.428 . S
C813 N812 1.351 . S
C813 C814 1.434 . S
C814 C805 1.429 . S
C814 N811 1.350 . S
C814 C813 1.434 . S
C815 C816 1.369 . S
C815 C817 1.419 . S
C815 H819 0.930 . S
C816 C815 1.369 . S
C816 C825 1.429 . S
C817 C815 1.419 . S
C817 C818 1.363 . S
C817 H820 0.929 . S
C818 C817 1.363 . S
C818 C824 1.428 . S
H819 C815 0.930 . S
H820 C817 0.929 . S
S821 N822 1.613 . S
S821 N823 1.610 . S
N822 S821 1.613 . S
N822 C825 1.350 . S
N823 S821 1.610 . S
N823 C824 1.351 . S
C824 C818 1.428 . S
C824 N823 1.351 . S
C824 C825 1.434 . S
C825 C816 1.429 . S
C825 N822 1.350 . S
C825 C824 1.434 . S
C826 C827 1.369 . S
C826 C828 1.419 . S
C826 H830 0.930 . S
C827 C826 1.369 . S
C827 C836 1.429 . S
C828 C826 1.419 . S
C828 C829 1.363 . S
C828 H831 0.929 . S
C829 C828 1.363 . S
C829 C835 1.428 . S
H830 C826 0.930 . S
H831 C828 0.929 . S
S832 N833 1.613 . S
S832 N834 1.610 . S
N833 S832 1.613 . S
N833 C836 1.350 . S
N834 S832 1.610 . S
N834 C835 1.351 . S
C835 C829 1.428 . S
C835 N834 1.351 . S
C835 C836 1.434 . S
C836 C827 1.429 . S
C836 N833 1.350 . S
C836 C835 1.434 . S
C837 C838 1.369 . S
C837 C839 1.419 . S
C837 H841 0.930 . S
C838 C837 1.369 . S
C838 C847 1.429 . S
C839 C837 1.419 . S
C839 C840 1.363 . S
C839 H842 0.929 . S
C840 C839 1.363 . S
C840 C846 1.428 . S
H841 C837 0.930 . S
H842 C839 0.929 . S
S843 N844 1.613 . S
S843 N845 1.610 . S
N844 S843 1.613 . S
N844 C847 1.350 . S
N845 S843 1.610 . S
N845 C846 1.351 . S
C846 C840 1.428 . S
C846 N845 1.351 . S
C846 C847 1.434 . S
C847 C838 1.429 . S
C847 N844 1.350 . S
C847 C846 1.434 . S
C848 C849 1.369 1_465 S
C848 C850 1.419 1_556 S
C848 H852 0.930 . S
C849 C848 1.369 1_645 S
C849 C858 1.429 . S
C850 C848 1.419 1_554 S
C850 C851 1.363 . S
C850 H853 0.929 . S
C851 C850 1.363 . S
C851 C857 1.428 1_465 S
H852 C848 0.930 . S
H853 C850 0.929 . S
S854 N855 1.613 1_554 S
S854 N856 1.610 . S
N855 S854 1.613 1_556 S
N855 C858 1.350 . S
N856 S854 1.610 . S
N856 C857 1.351 . S
C857 C851 1.428 1_645 S
C857 N856 1.351 . S
C857 C858 1.434 1_554 S
C858 C849 1.429 . S
C858 N855 1.350 . S
C858 C857 1.434 1_556 S
C859 C860 1.369 . S
C859 C861 1.419 . S
C859 H863 0.930 . S
C860 C859 1.369 . S
C860 C869 1.429 . S
C861 C859 1.419 . S
C861 C862 1.363 . S
C861 H864 0.929 . S
C862 C861 1.363 . S
C862 C868 1.428 . S
H863 C859 0.930 . S
H864 C861 0.929 . S
S865 N866 1.613 . S
S865 N867 1.610 . S
N866 S865 1.613 . S
N866 C869 1.350 . S
N867 S865 1.610 . S
N867 C868 1.351 . S
C868 C862 1.428 . S
C868 N867 1.351 . S
C868 C869 1.434 . S
C869 C860 1.429 . S
C869 N866 1.350 . S
C869 C868 1.434 . S
C870 C871 1.361 1_545 S
C870 C872 1.419 . S
C870 H874 0.930 . S
C871 C870 1.361 1_565 S
C871 C880 1.437 . S
C872 C870 1.419 . S
C872 C873 1.357 1_545 S
C872 H875 0.929 . S
C873 C872 1.357 1_565 S
C873 C879 1.435 . S
H874 C870 0.930 . S
H875 C872 0.929 . S
S876 N877 1.613 . S
S876 N878 1.610 . S
N877 S876 1.613 . S
N877 C880 1.350 . S
N878 S876 1.610 . S
N878 C879 1.351 . S
C879 C873 1.435 . S
C879 N878 1.351 . S
C879 C880 1.434 . S
C880 C871 1.437 . S
C880 N877 1.350 . S
C880 C879 1.434 . S
C881 C882 1.369 . S
C881 C883 1.419 . S
C881 H885 0.930 . S
C882 C881 1.369 . S
C882 C891 1.429 . S
C883 C881 1.419 . S
C883 C884 1.363 . S
C883 H886 0.929 . S
C884 C883 1.363 . S
C884 C890 1.428 . S
H885 C881 0.930 . S
H886 C883 0.929 . S
S887 N888 1.613 . S
S887 N889 1.610 . S
N888 S887 1.613 . S
N888 C891 1.350 . S
N889 S887 1.610 . S
N889 C890 1.351 . S
C890 C884 1.428 . S
C890 N889 1.351 . S
C890 C891 1.434 . S
C891 C882 1.429 . S
C891 N888 1.350 . S
C891 C890 1.434 . S
C892 C893 1.369 . S
C892 C894 1.419 . S
C892 H896 0.930 . S
C893 C892 1.369 . S
C893 C902 1.429 . S
C894 C892 1.419 . S
C894 C895 1.363 . S
C894 H897 0.929 . S
C895 C894 1.363 . S
C895 C901 1.428 . S
H896 C892 0.930 . S
H897 C894 0.929 . S
S898 N899 1.613 . S
S898 N900 1.610 . S
N899 S898 1.613 . S
N899 C902 1.350 . S
N900 S898 1.610 . S
N900 C901 1.351 . S
C901 C895 1.428 . S
C901 N900 1.351 . S
C901 C902 1.434 . S
C902 C893 1.429 . S
C902 N899 1.350 . S
C902 C901 1.434 . S
C903 C904 1.369 . S
C903 C905 1.419 . S
C903 H907 0.930 . S
C904 C903 1.369 . S
C904 C913 1.429 . S
C905 C903 1.419 . S
C905 C906 1.363 . S
C905 H908 0.929 . S
C906 C905 1.363 . S
C906 C912 1.428 . S
H907 C903 0.930 . S
H908 C905 0.929 . S
S909 N910 1.613 . S
S909 N911 1.610 . S
N910 S909 1.613 . S
N910 C913 1.350 . S
N911 S909 1.610 . S
N911 C912 1.351 . S
C912 C906 1.428 . S
C912 N911 1.351 . S
C912 C913 1.434 . S
C913 C904 1.429 . S
C913 N910 1.350 . S
C913 C912 1.434 . S
C914 C915 1.369 . S
C914 C916 1.419 . S
C914 H918 0.930 . S
C915 C914 1.369 . S
C915 C924 1.429 . S
C916 C914 1.419 . S
C916 C917 1.363 . S
C916 H919 0.929 . S
C917 C916 1.363 . S
C917 C923 1.428 . S
H918 C914 0.930 . S
H919 C916 0.929 . S
S920 N921 1.613 . S
S920 N922 1.610 . S
N921 S920 1.613 . S
N921 C924 1.350 . S
N922 S920 1.610 . S
N922 C923 1.351 . S
C923 C917 1.428 . S
C923 N922 1.351 . S
C923 C924 1.434 . S
C924 C915 1.429 . S
C924 N921 1.350 . S
C924 C923 1.434 . S
C925 C926 1.369 . S
C925 C927 1.419 1_556 S
C925 H929 0.930 . S
C926 C925 1.369 . S
C926 C935 1.429 1_455 S
C927 C925 1.419 1_554 S
C927 C928 1.363 1_455 S
C927 H930 0.929 . S
C928 C927 1.363 1_655 S
C928 C934 1.428 . S
H929 C925 0.930 . S
H930 C927 0.929 . S
S931 N932 1.613 . S
S931 N933 1.610 1_556 S
N932 S931 1.613 . S
N932 C935 1.350 . S
N933 S931 1.610 1_554 S
N933 C934 1.351 . S
C934 C928 1.428 . S
C934 N933 1.351 . S
C934 C935 1.434 1_554 S
C935 C926 1.429 1_655 S
C935 N932 1.350 . S
C935 C934 1.434 1_556 S
C673 C56 1.504 . S
C675 C308 1.504 . S
C684 C63 1.519 . S
C686 C140 1.506 . S
C695 C147 1.516 . S
C697 C224 1.507 . S
C706 C231 1.522 . S
C708 C315 1.518 . S
C717 C67 1.506 . S
C719 C487 1.506 . S
C728 C74 1.519 . S
C730 C403 1.506 . S
C739 C410 1.515 . S
C741 C235 1.506 . S
C750 C494 1.522 . S
C752 C242 1.521 . S
C761 C560 1.508 . S
C763 C476 1.506 . S
C772 C392 1.505 . S
C774 C567 1.519 . S
C783 C644 1.507 . S
C785 C399 1.517 . S
C794 C483 1.522 . S
C796 C651 1.521 . S
C805 C319 1.508 . S
C807 C571 1.506 . S
C816 C578 1.520 . S
C818 C151 1.510 . S
C827 C158 1.517 . S
C829 C655 1.505 . S
C838 C326 1.522 . S
C840 C662 1.519 . S
C849 C58 1.283 . S
C851 C69 1.293 . S
C860 C153 1.280 . S
C862 C142 1.266 . S
C871 C237 1.280 1_565 S
C873 C226 1.277 . S
C882 C310 1.283 . S
C884 C321 1.270 . S
C893 C405 1.266 . S
C895 C394 1.277 . S
C904 C478 1.275 . S
C906 C489 1.276 . S
C915 C573 1.295 . S
C917 C562 1.284 . S
C926 C646 1.285 . S
C928 C657 1.272 . S
