# Generated by pormake.
# Topology fce, (5)-cn, num edge types: 1
# Building blocks:
#     Node 0, Type 0, BuildingBlock: BEQFEK_clean_sbu_0, # of connection points: 5
#     Node 1, Type 0, BuildingBlock: BEQFEK_clean_sbu_0, # of connection points: 5
#     Node 2, Type 0, BuildingBlock: BEQFEK_clean_sbu_0, # of connection points: 5
#     Node 3, Type 0, BuildingBlock: BEQFEK_clean_sbu_0, # of connection points: 5
#     Node 4, Type 0, BuildingBlock: BEQFEK_clean_sbu_0, # of connection points: 5
#     Node 5, Type 0, BuildingBlock: BEQFEK_clean_sbu_0, # of connection points: 5
#     Node 6, Type 0, BuildingBlock: BEQFEK_clean_sbu_0, # of connection points: 5
#     Node 7, Type 0, BuildingBlock: BEQFEK_clean_sbu_0, # of connection points: 5
#     Node 8, Type 0, BuildingBlock: BEQFEK_clean_sbu_0, # of connection points: 5
#     Node 9, Type 0, BuildingBlock: BEQFEK_clean_sbu_0, # of connection points: 5
#     Node 10, Type 0, BuildingBlock: BEQFEK_clean_sbu_0, # of connection points: 5
#     Node 11, Type 0, BuildingBlock: BEQFEK_clean_sbu_0, # of connection points: 5
#     Node 12, Type 0, BuildingBlock: BEQFEK_clean_sbu_0, # of connection points: 5
#     Node 13, Type 0, BuildingBlock: BEQFEK_clean_sbu_0, # of connection points: 5
#     Node 14, Type 0, BuildingBlock: BEQFEK_clean_sbu_0, # of connection points: 5
#     Node 15, Type 0, BuildingBlock: BEQFEK_clean_sbu_0, # of connection points: 5
#     Node 16, Type 0, BuildingBlock: BEQFEK_clean_sbu_0, # of connection points: 5
#     Node 17, Type 0, BuildingBlock: BEQFEK_clean_sbu_0, # of connection points: 5
#     Node 18, Type 0, BuildingBlock: BEQFEK_clean_sbu_0, # of connection points: 5
#     Node 19, Type 0, BuildingBlock: BEQFEK_clean_sbu_0, # of connection points: 5
#     Node 20, Type 0, BuildingBlock: BEQFEK_clean_sbu_0, # of connection points: 5
#     Node 21, Type 0, BuildingBlock: BEQFEK_clean_sbu_0, # of connection points: 5
#     Node 22, Type 0, BuildingBlock: BEQFEK_clean_sbu_0, # of connection points: 5
#     Node 23, Type 0, BuildingBlock: BEQFEK_clean_sbu_0, # of connection points: 5
#     Edge 24, Type (0, 0), BuildingBlock: XIVTED_clean_linker_0, # of connection points: 2
#     Edge 25, Type (0, 0), BuildingBlock: XIVTED_clean_linker_0, # of connection points: 2
#     Edge 26, Type (0, 0), BuildingBlock: XIVTED_clean_linker_0, # of connection points: 2
#     Edge 27, Type (0, 0), BuildingBlock: XIVTED_clean_linker_0, # of connection points: 2
#     Edge 28, Type (0, 0), BuildingBlock: XIVTED_clean_linker_0, # of connection points: 2
#     Edge 29, Type (0, 0), BuildingBlock: XIVTED_clean_linker_0, # of connection points: 2
#     Edge 30, Type (0, 0), BuildingBlock: XIVTED_clean_linker_0, # of connection points: 2
#     Edge 31, Type (0, 0), BuildingBlock: XIVTED_clean_linker_0, # of connection points: 2
#     Edge 32, Type (0, 0), BuildingBlock: XIVTED_clean_linker_0, # of connection points: 2
#     Edge 33, Type (0, 0), BuildingBlock: XIVTED_clean_linker_0, # of connection points: 2
#     Edge 34, Type (0, 0), BuildingBlock: XIVTED_clean_linker_0, # of connection points: 2
#     Edge 35, Type (0, 0), BuildingBlock: XIVTED_clean_linker_0, # of connection points: 2
#     Edge 36, Type (0, 0), BuildingBlock: XIVTED_clean_linker_0, # of connection points: 2
#     Edge 37, Type (0, 0), BuildingBlock: XIVTED_clean_linker_0, # of connection points: 2
#     Edge 38, Type (0, 0), BuildingBlock: XIVTED_clean_linker_0, # of connection points: 2
#     Edge 39, Type (0, 0), BuildingBlock: XIVTED_clean_linker_0, # of connection points: 2
#     Edge 40, Type (0, 0), BuildingBlock: XIVTED_clean_linker_0, # of connection points: 2
#     Edge 41, Type (0, 0), BuildingBlock: XIVTED_clean_linker_0, # of connection points: 2
#     Edge 42, Type (0, 0), BuildingBlock: XIVTED_clean_linker_0, # of connection points: 2
#     Edge 43, Type (0, 0), BuildingBlock: XIVTED_clean_linker_0, # of connection points: 2
#     Edge 44, Type (0, 0), BuildingBlock: XIVTED_clean_linker_0, # of connection points: 2
#     Edge 45, Type (0, 0), BuildingBlock: XIVTED_clean_linker_0, # of connection points: 2
#     Edge 46, Type (0, 0), BuildingBlock: XIVTED_clean_linker_0, # of connection points: 2
#     Edge 47, Type (0, 0), BuildingBlock: XIVTED_clean_linker_0, # of connection points: 2
#     Edge 48, Type (0, 0), BuildingBlock: XIVTED_clean_linker_0, # of connection points: 2
#     Edge 49, Type (0, 0), BuildingBlock: XIVTED_clean_linker_0, # of connection points: 2
#     Edge 50, Type (0, 0), BuildingBlock: XIVTED_clean_linker_0, # of connection points: 2
#     Edge 51, Type (0, 0), BuildingBlock: XIVTED_clean_linker_0, # of connection points: 2
#     Edge 52, Type (0, 0), BuildingBlock: XIVTED_clean_linker_0, # of connection points: 2
#     Edge 53, Type (0, 0), BuildingBlock: XIVTED_clean_linker_0, # of connection points: 2
#     Edge 54, Type (0, 0), BuildingBlock: XIVTED_clean_linker_0, # of connection points: 2
#     Edge 55, Type (0, 0), BuildingBlock: XIVTED_clean_linker_0, # of connection points: 2
#     Edge 56, Type (0, 0), BuildingBlock: XIVTED_clean_linker_0, # of connection points: 2
#     Edge 57, Type (0, 0), BuildingBlock: XIVTED_clean_linker_0, # of connection points: 2
#     Edge 58, Type (0, 0), BuildingBlock: XIVTED_clean_linker_0, # of connection points: 2
#     Edge 59, Type (0, 0), BuildingBlock: XIVTED_clean_linker_0, # of connection points: 2
#     Edge 60, Type (0, 0), BuildingBlock: XIVTED_clean_linker_0, # of connection points: 2
#     Edge 61, Type (0, 0), BuildingBlock: XIVTED_clean_linker_0, # of connection points: 2
#     Edge 62, Type (0, 0), BuildingBlock: XIVTED_clean_linker_0, # of connection points: 2
#     Edge 63, Type (0, 0), BuildingBlock: XIVTED_clean_linker_0, # of connection points: 2
#     Edge 64, Type (0, 0), BuildingBlock: XIVTED_clean_linker_0, # of connection points: 2
#     Edge 65, Type (0, 0), BuildingBlock: XIVTED_clean_linker_0, # of connection points: 2
#     Edge 66, Type (0, 0), BuildingBlock: XIVTED_clean_linker_0, # of connection points: 2
#     Edge 67, Type (0, 0), BuildingBlock: XIVTED_clean_linker_0, # of connection points: 2
#     Edge 68, Type (0, 0), BuildingBlock: XIVTED_clean_linker_0, # of connection points: 2
#     Edge 69, Type (0, 0), BuildingBlock: XIVTED_clean_linker_0, # of connection points: 2
#     Edge 70, Type (0, 0), BuildingBlock: XIVTED_clean_linker_0, # of connection points: 2
#     Edge 71, Type (0, 0), BuildingBlock: XIVTED_clean_linker_0, # of connection points: 2
#     Edge 72, Type (0, 0), BuildingBlock: XIVTED_clean_linker_0, # of connection points: 2
#     Edge 73, Type (0, 0), BuildingBlock: XIVTED_clean_linker_0, # of connection points: 2
#     Edge 74, Type (0, 0), BuildingBlock: XIVTED_clean_linker_0, # of connection points: 2
#     Edge 75, Type (0, 0), BuildingBlock: XIVTED_clean_linker_0, # of connection points: 2
#     Edge 76, Type (0, 0), BuildingBlock: XIVTED_clean_linker_0, # of connection points: 2
#     Edge 77, Type (0, 0), BuildingBlock: XIVTED_clean_linker_0, # of connection points: 2
#     Edge 78, Type (0, 0), BuildingBlock: XIVTED_clean_linker_0, # of connection points: 2
#     Edge 79, Type (0, 0), BuildingBlock: XIVTED_clean_linker_0, # of connection points: 2
#     Edge 80, Type (0, 0), BuildingBlock: XIVTED_clean_linker_0, # of connection points: 2
#     Edge 81, Type (0, 0), BuildingBlock: XIVTED_clean_linker_0, # of connection points: 2
#     Edge 82, Type (0, 0), BuildingBlock: XIVTED_clean_linker_0, # of connection points: 2
#     Edge 83, Type (0, 0), BuildingBlock: XIVTED_clean_linker_0, # of connection points: 2
# Relax obj value: 0.912
# Max RMSD: 0.236
# Mean RMSD: 0.236
data_MOF--net-fce--node1-BEQFEK_clean_sbu_0--edge1-XIVTED_clean_linker_0
_symmetry_space_group_name_H-M    P1
_symmetry_Int_Tables_number       1
_symmetry_cell_setting            triclinic
loop_
_symmetry_equiv_pos_as_xyz
'x, y, z'
_cell_length_a     48.704103
_cell_length_b     48.628567
_cell_length_c     48.694831
_cell_angle_alpha  89.96175
_cell_angle_beta   90.016243
_cell_angle_gamma 89.975546
loop_
_atom_site_label
_atom_site_type_symbol
_atom_site_fract_x
_atom_site_fract_y
_atom_site_fract_z
_atom_type_partial_charge
Co0 Co 0.123 0.42629 0.23555 0.0
Co1 Co 0.15848 0.40132 0.28323 0.0
C2 C 0.13789 0.4579 0.28747 0.0
O3 O 0.12724 0.45553 0.26375 0.0
O4 O 0.14999 0.43774 0.2988 0.0
C5 C 0.07203 0.44653 0.2246 0.0
O6 O 0.07116 0.44084 0.25097 0.0
C7 C 0.17098 0.38178 0.33808 0.0
C8 C 0.2004 0.34803 0.33057 0.0
C9 C 0.1857 0.36119 0.3511 0.0
N10 N 0.17669 0.38088 0.31111 0.0
N11 N 0.19468 0.36099 0.30677 0.0
C12 C 0.14911 0.39964 0.35038 0.0
H13 H 0.13343 0.40504 0.33479 0.0
H14 H 0.13884 0.38919 0.36783 0.0
H15 H 0.15864 0.41889 0.35802 0.0
C16 C 0.09035 0.37618 0.24584 0.0
N17 N 0.11254 0.392 0.25043 0.0
N18 N 0.12614 0.38218 0.27161 0.0
C19 C 0.11216 0.3604 0.28177 0.0
C20 C 0.08873 0.35624 0.26603 0.0
C21 C 0.07045 0.37991 0.22271 0.0
H22 H 0.08043 0.39036 0.20511 0.0
H23 H 0.05267 0.39216 0.2298 0.0
H24 H 0.06247 0.35962 0.21597 0.0
O25 O 0.15858 0.42329 0.21749 0.0
O26 O 0.18459 0.40929 0.25247 0.0
H27 H 0.14123 0.33978 0.30758 0.0
H28 H 0.10682 0.32676 0.31048 0.0
C29 C 0.11928 0.34563 0.30779 0.0
H30 H 0.11544 0.35934 0.32552 0.0
H31 H 0.202 0.35542 0.28741 0.0
O32 O 0.09382 0.44128 0.21123 0.0
C33 C 0.18206 0.41791 0.2278 0.0
Co34 Co 0.57695 0.11602 0.2338 0.0
Co35 Co 0.60016 0.14437 0.28655 0.0
C36 C 0.54349 0.12588 0.28583 0.0
O37 O 0.54663 0.11966 0.26071 0.0
O38 O 0.56367 0.13361 0.30036 0.0
C39 C 0.55502 0.06732 0.21779 0.0
O40 O 0.56171 0.06318 0.2436 0.0
C41 C 0.61835 0.14839 0.34294 0.0
C42 C 0.64531 0.1849 0.34322 0.0
C43 C 0.63488 0.1642 0.35977 0.0
N44 N 0.61913 0.15898 0.31748 0.0
N45 N 0.63518 0.18091 0.31773 0.0
C46 C 0.60047 0.12469 0.35116 0.0
H47 H 0.5798 0.13269 0.35645 0.0
H48 H 0.59816 0.11009 0.33383 0.0
H49 H 0.60863 0.11374 0.36935 0.0
C50 C 0.62591 0.08075 0.24209 0.0
N51 N 0.6101 0.10244 0.24887 0.0
N52 N 0.61986 0.11383 0.27135 0.0
C53 C 0.64189 0.09916 0.27982 0.0
C54 C 0.64616 0.07747 0.26175 0.0
C55 C 0.62187 0.06298 0.21734 0.0
H56 H 0.61165 0.0747 0.20069 0.0
H57 H 0.60916 0.04491 0.22287 0.0
H58 H 0.64197 0.05516 0.20992 0.0
O59 O 0.58215 0.15303 0.21947 0.0
O60 O 0.59182 0.17412 0.25892 0.0
H61 H 0.66127 0.12646 0.30844 0.0
H62 H 0.67716 0.09308 0.30617 0.0
C63 C 0.65727 0.10419 0.30595 0.0
H64 H 0.64488 0.09685 0.32355 0.0
H65 H 0.63929 0.19302 0.30055 0.0
O66 O 0.56078 0.09025 0.20667 0.0
C67 C 0.58516 0.17497 0.2335 0.0
Co68 Co 0.87375 0.58147 0.23542 0.0
Co69 Co 0.83551 0.60751 0.28132 0.0
C70 C 0.84931 0.54742 0.281 0.0
O71 O 0.86236 0.5498 0.25846 0.0
O72 O 0.83877 0.56826 0.29288 0.0
C73 C 0.90076 0.54367 0.20062 0.0
O74 O 0.87872 0.52918 0.20621 0.0
C75 C 0.82729 0.62591 0.33711 0.0
C76 C 0.7924 0.65477 0.33406 0.0
C77 C 0.81128 0.64376 0.35229 0.0
N78 N 0.81856 0.62642 0.31099 0.0
N79 N 0.79745 0.64344 0.30928 0.0
C80 C 0.85043 0.6083 0.34722 0.0
H81 H 0.84175 0.58977 0.35729 0.0
H82 H 0.86363 0.60163 0.32991 0.0
H83 H 0.86297 0.61937 0.36267 0.0
C84 C 0.91366 0.61966 0.25983 0.0
N85 N 0.88831 0.60887 0.25806 0.0
N86 N 0.87153 0.6223 0.2745 0.0
C87 C 0.8857 0.64282 0.28657 0.0
C88 C 0.91286 0.64155 0.27804 0.0
C89 C 0.93832 0.60771 0.24588 0.0
H90 H 0.93863 0.61463 0.22417 0.0
H91 H 0.93706 0.58494 0.24607 0.0
H92 H 0.95767 0.61417 0.256 0.0
O93 O 0.84196 0.59923 0.21768 0.0
O94 O 0.81093 0.60753 0.24848 0.0
H95 H 0.85161 0.66777 0.29959 0.0
H96 H 0.88486 0.68393 0.30292 0.0
C97 C 0.87346 0.66426 0.30488 0.0
H98 H 0.87502 0.65746 0.32651 0.0
H99 H 0.78699 0.64788 0.2911 0.0
O100 O 0.90216 0.56827 0.20929 0.0
C101 C 0.81828 0.59412 0.2273 0.0
Co102 Co 0.41315 0.86642 0.24411 0.0
Co103 Co 0.39042 0.82576 0.28895 0.0
C104 C 0.44596 0.85103 0.294 0.0
O105 O 0.44274 0.86474 0.27201 0.0
O106 O 0.42707 0.83548 0.30299 0.0
C107 C 0.43169 0.91824 0.23072 0.0
O108 O 0.42734 0.9205 0.25725 0.0
C109 C 0.37465 0.81474 0.3448 0.0
C110 C 0.34329 0.78216 0.34132 0.0
C111 C 0.35605 0.79952 0.35997 0.0
N112 N 0.37299 0.80686 0.31843 0.0
N113 N 0.35464 0.78694 0.31649 0.0
C114 C 0.39073 0.83925 0.35432 0.0
H115 H 0.41149 0.83242 0.36079 0.0
H116 H 0.39299 0.85438 0.33743 0.0
H117 H 0.38064 0.8495 0.37198 0.0
C118 C 0.3612 0.89572 0.25729 0.0
N119 N 0.37829 0.87399 0.25956 0.0
N120 N 0.36907 0.85744 0.27889 0.0
C121 C 0.3462 0.86873 0.28981 0.0
C122 C 0.34082 0.89358 0.27696 0.0
C123 C 0.36511 0.91945 0.23812 0.0
H124 H 0.37611 0.91282 0.21937 0.0
H125 H 0.37679 0.93593 0.24865 0.0
H126 H 0.34494 0.92819 0.23209 0.0
O127 O 0.41357 0.83035 0.22608 0.0
O128 O 0.39859 0.80069 0.25761 0.0
H129 H 0.32718 0.83493 0.31073 0.0
H130 H 0.30993 0.8674 0.3152 0.0
C131 C 0.33031 0.85729 0.31349 0.0
H132 H 0.34167 0.86102 0.33282 0.0
H133 H 0.34875 0.77774 0.29805 0.0
O134 O 0.42597 0.89573 0.21878 0.0
C135 C 0.40868 0.80579 0.23394 0.0
Co136 Co 0.12504 0.58152 0.75127 0.0
Co137 Co 0.16493 0.60779 0.70718 0.0
C138 C 0.15144 0.54896 0.70448 0.0
O139 O 0.13812 0.55116 0.72687 0.0
O140 O 0.16186 0.5699 0.69278 0.0
C141 C 0.07731 0.55369 0.75951 0.0
O142 O 0.07986 0.55458 0.73266 0.0
C143 C 0.18075 0.62815 0.65341 0.0
C144 C 0.20792 0.66312 0.66334 0.0
C145 C 0.19522 0.64971 0.64164 0.0
N146 N 0.18456 0.62892 0.68072 0.0
N147 N 0.20131 0.64949 0.68652 0.0
C148 C 0.16062 0.60939 0.63959 0.0
H149 H 0.14501 0.60204 0.65444 0.0
H150 H 0.15012 0.61997 0.62234 0.0
H151 H 0.17177 0.59132 0.63129 0.0
C152 C 0.08809 0.62548 0.73124 0.0
N153 N 0.11203 0.61161 0.73075 0.0
N154 N 0.12876 0.62327 0.7129 0.0
C155 C 0.11523 0.64431 0.70075 0.0
C156 C 0.08913 0.64623 0.71189 0.0
C157 C 0.06427 0.61876 0.74944 0.0
H158 H 0.07154 0.61041 0.76931 0.0
H159 H 0.0511 0.60342 0.73903 0.0
H160 H 0.05155 0.63718 0.75358 0.0
O161 O 0.15561 0.59744 0.77163 0.0
O162 O 0.18785 0.60344 0.74142 0.0
H163 H 0.14788 0.6687 0.68407 0.0
H164 H 0.11397 0.68145 0.67647 0.0
C165 C 0.12663 0.66261 0.67885 0.0
H166 H 0.12662 0.65153 0.659 0.0
H167 H 0.20698 0.65514 0.70639 0.0
O168 O 0.09565 0.56496 0.77429 0.0
C169 C 0.17914 0.59088 0.76268 0.0
Co170 Co 0.41666 0.11848 0.75867 0.0
Co171 Co 0.38855 0.15535 0.71301 0.0
C172 C 0.44909 0.14581 0.71343 0.0
O173 O 0.44732 0.13269 0.736 0.0
O174 O 0.42771 0.15439 0.70094 0.0
C175 C 0.45624 0.0942 0.79365 0.0
O176 O 0.4694 0.11692 0.78748 0.0
C177 C 0.36733 0.16222 0.65783 0.0
C178 C 0.33903 0.19752 0.66144 0.0
C179 C 0.34895 0.17814 0.64313 0.0
N180 N 0.36814 0.17149 0.68377 0.0
N181 N 0.3514 0.19281 0.68579 0.0
C182 C 0.38446 0.13894 0.64727 0.0
H183 H 0.40041 0.14727 0.63328 0.0
H184 H 0.3946 0.12786 0.66442 0.0
H185 H 0.37174 0.12438 0.63523 0.0
C186 C 0.37985 0.07669 0.73558 0.0
N187 N 0.39024 0.1023 0.73615 0.0
N188 N 0.37559 0.11852 0.72018 0.0
C189 C 0.3547 0.1037 0.70959 0.0
C190 C 0.3569 0.07668 0.71871 0.0
C191 C 0.39259 0.05269 0.75003 0.0
H192 H 0.38541 0.05233 0.77166 0.0
H193 H 0.41527 0.05478 0.75007 0.0
H194 H 0.38698 0.03298 0.74005 0.0
O195 O 0.39664 0.14879 0.77631 0.0
O196 O 0.38905 0.18034 0.74566 0.0
H197 H 0.32844 0.13745 0.69818 0.0
H198 H 0.31231 0.10399 0.69696 0.0
C199 C 0.33161 0.11548 0.69303 0.0
H200 H 0.33642 0.11359 0.6709 0.0
H201 H 0.34798 0.20375 0.7039 0.0
O202 O 0.43182 0.0911 0.78496 0.0
C203 C 0.40111 0.173 0.76766 0.0
Co204 Co 0.87748 0.41892 0.75931 0.0
Co205 Co 0.84044 0.39011 0.71436 0.0
C206 C 0.84866 0.4507 0.71411 0.0
O207 O 0.86201 0.44928 0.73658 0.0
O208 O 0.84013 0.42912 0.70195 0.0
C209 C 0.90387 0.46001 0.79111 0.0
O210 O 0.88141 0.47365 0.78505 0.0
C211 C 0.82739 0.37124 0.65931 0.0
C212 C 0.80166 0.33464 0.66697 0.0
C213 C 0.81393 0.34981 0.6462 0.0
N214 N 0.82332 0.36877 0.68648 0.0
N215 N 0.80751 0.34715 0.69094 0.0
C216 C 0.84654 0.39182 0.64679 0.0
H217 H 0.86128 0.39955 0.66234 0.0
H218 H 0.85805 0.38264 0.6294 0.0
H219 H 0.83443 0.40947 0.63891 0.0
C220 C 0.91976 0.38422 0.73445 0.0
N221 N 0.89368 0.39299 0.73627 0.0
N222 N 0.87797 0.37847 0.71968 0.0
C223 C 0.89384 0.35949 0.70706 0.0
C224 C 0.92076 0.36274 0.71589 0.0
C225 C 0.94308 0.39603 0.75063 0.0
H226 H 0.93888 0.39331 0.77286 0.0
H227 H 0.94458 0.41843 0.74651 0.0
H228 H 0.96289 0.38595 0.74563 0.0
O229 O 0.84879 0.39789 0.77813 0.0
O230 O 0.81686 0.38982 0.7482 0.0
H231 H 0.86323 0.33199 0.69124 0.0
H232 H 0.89809 0.32183 0.68388 0.0
C233 C 0.88396 0.3396 0.68582 0.0
H234 H 0.88302 0.35006 0.66563 0.0
H235 H 0.80173 0.34027 0.7104 0.0
O236 O 0.90564 0.43489 0.78412 0.0
C237 C 0.82441 0.40204 0.77003 0.0
Co238 Co 0.58267 0.88094 0.75556 0.0
Co239 Co 0.60595 0.84805 0.7052 0.0
C240 C 0.54907 0.86905 0.70465 0.0
O241 O 0.55211 0.87867 0.7287 0.0
O242 O 0.56894 0.85769 0.69221 0.0
C243 C 0.56214 0.93049 0.77163 0.0
O244 O 0.56685 0.93392 0.74528 0.0
C245 C 0.62266 0.84409 0.64868 0.0
C246 C 0.64961 0.8076 0.64725 0.0
C247 C 0.63899 0.82871 0.63131 0.0
N248 N 0.62374 0.83292 0.67387 0.0
N249 N 0.63968 0.81092 0.67292 0.0
C250 C 0.60529 0.86849 0.64143 0.0
H251 H 0.5843 0.86124 0.63636 0.0
H252 H 0.60374 0.88271 0.65917 0.0
H253 H 0.61336 0.87968 0.62333 0.0
C254 C 0.6329 0.91425 0.74527 0.0
N255 N 0.61648 0.89253 0.74005 0.0
N256 N 0.62595 0.87928 0.71848 0.0
C257 C 0.64824 0.89282 0.70899 0.0
C258 C 0.65306 0.91568 0.72531 0.0
C259 C 0.62869 0.93454 0.76796 0.0
H260 H 0.6177 0.92492 0.78539 0.0
H261 H 0.61685 0.95234 0.76007 0.0
H262 H 0.64872 0.94242 0.7754 0.0
O263 O 0.58608 0.84377 0.77066 0.0
O264 O 0.59918 0.8195 0.73407 0.0
H265 H 0.68473 0.89544 0.68406 0.0
H266 H 0.65319 0.89168 0.66538 0.0
C267 C 0.66441 0.88509 0.68404 0.0
H268 H 0.66759 0.86256 0.68341 0.0
H269 H 0.64413 0.7985 0.68982 0.0
O270 O 0.56841 0.90773 0.78283 0.0
C271 C 0.59107 0.8208 0.75901 0.0
Co272 Co 0.23287 0.11205 0.4204 0.0
Co273 Co 0.28251 0.14614 0.39412 0.0
C274 C 0.27922 0.13609 0.45443 0.0
O275 O 0.25653 0.12331 0.45181 0.0
O276 O 0.29199 0.14561 0.43368 0.0
C277 C 0.19781 0.08722 0.45974 0.0
O278 O 0.20481 0.1091 0.47387 0.0
C279 C 0.33965 0.15686 0.37832 0.0
C280 C 0.33456 0.1746 0.3369 0.0
C281 C 0.35422 0.16478 0.35505 0.0
N282 N 0.3127 0.16062 0.37352 0.0
N283 N 0.30986 0.17198 0.34902 0.0
C284 C 0.35085 0.14646 0.40502 0.0
H285 H 0.3401 0.15662 0.42227 0.0
H286 H 0.34722 0.12398 0.40661 0.0
H287 H 0.37307 0.15095 0.40715 0.0
C288 C 0.25423 0.06932 0.38383 0.0
N289 N 0.2549 0.09502 0.39397 0.0
N290 N 0.27479 0.10906 0.38208 0.0
C291 C 0.28758 0.09226 0.36405 0.0
C292 C 0.27487 0.06673 0.36454 0.0
C293 C 0.23544 0.04723 0.39408 0.0
H294 H 0.21386 0.05329 0.38997 0.0
H295 H 0.23792 0.0451 0.41663 0.0
H296 H 0.23964 0.02712 0.3842 0.0
O297 O 0.21694 0.14417 0.4015 0.0
O298 O 0.2503 0.17166 0.39103 0.0
H299 H 0.3071 0.11935 0.33553 0.0
H300 H 0.31688 0.0839 0.33164 0.0
C301 C 0.31173 0.10013 0.34679 0.0
H302 H 0.32977 0.10359 0.36022 0.0
H303 H 0.29097 0.17637 0.33994 0.0
O304 O 0.20551 0.08535 0.43487 0.0
C305 C 0.2289 0.16706 0.40531 0.0
Co306 Co 0.88307 0.24456 0.42056 0.0
Co307 Co 0.84316 0.28944 0.39477 0.0
C308 C 0.85624 0.28886 0.45464 0.0
O309 O 0.87027 0.26691 0.45193 0.0
O310 O 0.8457 0.30108 0.43396 0.0
C311 C 0.91418 0.21151 0.45803 0.0
O312 O 0.89472 0.21858 0.47531 0.0
C313 C 0.83063 0.34479 0.37553 0.0
C314 C 0.80052 0.3373 0.34245 0.0
C315 C 0.81565 0.35789 0.35507 0.0
N316 N 0.82475 0.3178 0.37485 0.0
N317 N 0.80635 0.3135 0.35538 0.0
C318 C 0.85269 0.3569 0.39318 0.0
H319 H 0.86682 0.34061 0.40063 0.0
H320 H 0.8645 0.37265 0.38165 0.0
H321 H 0.8431 0.36696 0.41123 0.0
C322 C 0.92173 0.26922 0.38162 0.0
N323 N 0.89673 0.2677 0.3932 0.0
N324 N 0.8795 0.28385 0.37996 0.0
C325 C 0.89309 0.29567 0.35886 0.0
C326 C 0.92029 0.28693 0.35934 0.0
C327 C 0.94668 0.25521 0.39292 0.0
H328 H 0.94603 0.25538 0.41568 0.0
H329 H 0.96585 0.26542 0.38606 0.0
H330 H 0.94688 0.2335 0.38594 0.0
O331 O 0.85208 0.2258 0.40303 0.0
O332 O 0.81971 0.25563 0.39609 0.0
H333 H 0.89173 0.31275 0.31796 0.0
H334 H 0.88002 0.33522 0.34479 0.0
C335 C 0.88008 0.31363 0.33754 0.0
H336 H 0.85868 0.307 0.33368 0.0
H337 H 0.79878 0.29415 0.35005 0.0
O338 O 0.91227 0.21895 0.43307 0.0
C339 C 0.8282 0.23442 0.40886 0.0
Co340 Co 0.75532 0.87749 0.41122 0.0
Co341 Co 0.71182 0.83788 0.38481 0.0
C342 C 0.70345 0.86308 0.44032 0.0
O343 O 0.72562 0.87666 0.43879 0.0
O344 O 0.69591 0.84758 0.42079 0.0
C345 C 0.76876 0.9281 0.43225 0.0
O346 O 0.74285 0.93144 0.42552 0.0
C347 C 0.65687 0.83256 0.365 0.0
C348 C 0.65578 0.79316 0.34256 0.0
C349 C 0.63987 0.81562 0.34995 0.0
N350 N 0.68186 0.82103 0.36626 0.0
N351 N 0.68116 0.79734 0.35298 0.0
C352 C 0.64935 0.85888 0.37918 0.0
H353 H 0.64171 0.85398 0.40008 0.0
H354 H 0.6676 0.87236 0.38121 0.0
H355 H 0.63289 0.87005 0.36814 0.0
C356 C 0.74576 0.90806 0.35877 0.0
N357 N 0.74228 0.88617 0.37551 0.0
N358 N 0.72433 0.86929 0.36436 0.0
C359 C 0.71593 0.88008 0.34023 0.0
C360 C 0.72844 0.90542 0.33627 0.0
C361 C 0.76401 0.93204 0.36493 0.0
H362 H 0.78132 0.92561 0.37816 0.0
H363 H 0.75192 0.9484 0.37521 0.0
H364 H 0.77267 0.94081 0.34583 0.0
O365 O 0.7722 0.84059 0.41219 0.0
O366 O 0.74175 0.8116 0.39397 0.0
H367 H 0.69915 0.84418 0.32075 0.0
H368 H 0.69875 0.87488 0.29979 0.0
C369 C 0.69604 0.86675 0.32094 0.0
H370 H 0.67476 0.87134 0.32747 0.0
H371 H 0.69794 0.78415 0.3509 0.0
O372 O 0.78055 0.90547 0.4267 0.0
C373 C 0.7647 0.81627 0.40578 0.0
Co374 Co 0.12271 0.76564 0.42232 0.0
Co375 Co 0.15793 0.71858 0.3936 0.0
C376 C 0.14766 0.71821 0.45397 0.0
O377 O 0.13494 0.74107 0.45261 0.0
O378 O 0.15679 0.70642 0.43248 0.0
C379 C 0.0962 0.798 0.46306 0.0
O380 O 0.11777 0.79058 0.47743 0.0
C381 C 0.16647 0.66248 0.37513 0.0
C382 C 0.19266 0.66782 0.33849 0.0
C383 C 0.17836 0.64825 0.3535 0.0
N384 N 0.17321 0.68917 0.37282 0.0
N385 N 0.18936 0.69218 0.35123 0.0
C386 C 0.14613 0.65175 0.39557 0.0
H387 H 0.13272 0.66858 0.40307 0.0
H388 H 0.13325 0.63532 0.38641 0.0
H389 H 0.15739 0.64296 0.41334 0.0
C390 C 0.08044 0.74455 0.38517 0.0
N391 N 0.10624 0.74442 0.39492 0.0
N392 N 0.12119 0.72667 0.38096 0.0
C393 C 0.10512 0.71527 0.36139 0.0
C394 C 0.0788 0.72605 0.36367 0.0
C395 C 0.0579 0.76228 0.39628 0.0
H396 H 0.06412 0.78417 0.39479 0.0
H397 H 0.05464 0.7574 0.41831 0.0
H398 H 0.03841 0.75944 0.38485 0.0
O399 O 0.15425 0.78291 0.40381 0.0
O400 O 0.18349 0.75093 0.39352 0.0
H401 H 0.13536 0.69703 0.33504 0.0
H402 H 0.10055 0.69193 0.3238 0.0
C403 C 0.1141 0.69312 0.34203 0.0
H404 H 0.11322 0.673 0.35264 0.0
H405 H 0.1969 0.71106 0.34437 0.0
O406 O 0.09527 0.79176 0.43774 0.0
C407 C 0.17759 0.77199 0.40789 0.0
Co408 Co 0.23959 0.86814 0.57946 0.0
Co409 Co 0.28999 0.83583 0.60363 0.0
C410 C 0.29091 0.85448 0.54644 0.0
O411 O 0.26669 0.86382 0.54922 0.0
O412 O 0.30379 0.84435 0.5667 0.0
C413 C 0.22613 0.91826 0.55871 0.0
O414 O 0.25256 0.92012 0.5638 0.0
C415 C 0.34632 0.82834 0.62112 0.0
C416 C 0.34288 0.79964 0.65611 0.0
C417 C 0.36144 0.81573 0.64166 0.0
N418 N 0.32005 0.82016 0.62328 0.0
N419 N 0.31818 0.80258 0.64391 0.0
C420 C 0.35582 0.85075 0.60221 0.0
H421 H 0.33882 0.86521 0.5977 0.0
H422 H 0.37314 0.86246 0.61125 0.0
H423 H 0.3628 0.84143 0.58263 0.0
C424 C 0.24946 0.90234 0.62855 0.0
N425 N 0.25499 0.88019 0.61294 0.0
N426 N 0.27707 0.86789 0.62247 0.0
C427 C 0.28685 0.88274 0.64383 0.0
C428 C 0.26991 0.90535 0.64803 0.0
C429 C 0.22496 0.92063 0.6253 0.0
H430 H 0.20779 0.90937 0.61549 0.0
H431 H 0.23049 0.9387 0.61265 0.0
H432 H 0.21828 0.92842 0.64566 0.0
O433 O 0.22342 0.83182 0.58404 0.0
O434 O 0.26054 0.80778 0.59609 0.0
H435 H 0.31443 0.8553 0.66441 0.0
H436 H 0.31584 0.89002 0.67684 0.0
C437 C 0.31344 0.87717 0.65823 0.0
H438 H 0.33073 0.88172 0.64419 0.0
H439 H 0.29981 0.79378 0.65058 0.0
O440 O 0.21367 0.89604 0.56456 0.0
C441 C 0.23548 0.80889 0.58826 0.0
Co442 Co 0.12842 0.24416 0.5734 0.0
Co443 Co 0.16662 0.2906 0.59778 0.0
C444 C 0.14546 0.29418 0.5408 0.0
O445 O 0.13364 0.27096 0.54327 0.0
O446 O 0.15803 0.30524 0.56087 0.0
C447 C 0.09824 0.21034 0.53628 0.0
O448 O 0.11862 0.21627 0.51962 0.0
C449 C 0.18621 0.34537 0.61353 0.0
C450 C 0.1993 0.33854 0.65632 0.0
C451 C 0.19369 0.35919 0.63743 0.0
N452 N 0.18573 0.31818 0.61869 0.0
N453 N 0.19466 0.31418 0.644 0.0
C454 C 0.18105 0.35735 0.5857 0.0
H455 H 0.19052 0.34399 0.56989 0.0
H456 H 0.1586 0.35838 0.58187 0.0
H457 H 0.19024 0.37812 0.5837 0.0
C458 C 0.09298 0.26156 0.61842 0.0
N459 N 0.11752 0.26182 0.60573 0.0
N460 N 0.13296 0.2814 0.61613 0.0
C461 C 0.11836 0.29448 0.63576 0.0
C462 C 0.09261 0.28235 0.63783 0.0
C463 C 0.069 0.24491 0.60871 0.0
H464 H 0.07463 0.2228 0.60884 0.0
H465 H 0.06397 0.25081 0.58728 0.0
H466 H 0.05055 0.24796 0.62166 0.0
O467 O 0.16325 0.22481 0.57773 0.0
O468 O 0.19144 0.25861 0.59009 0.0
H469 H 0.14552 0.31451 0.66359 0.0
H470 H 0.11154 0.32825 0.66416 0.0
C471 C 0.12769 0.31978 0.65055 0.0
H472 H 0.13387 0.33568 0.63546 0.0
H473 H 0.19544 0.295 0.65358 0.0
O474 O 0.09922 0.21876 0.56095 0.0
C475 C 0.18736 0.2339 0.58219 0.0
Co476 Co 0.7503 0.12341 0.58274 0.0
Co477 Co 0.70547 0.16316 0.60699 0.0
C478 C 0.69781 0.1369 0.55258 0.0
O479 O 0.7206 0.12439 0.5549 0.0
O480 O 0.689 0.15242 0.57159 0.0
C481 C 0.76359 0.07154 0.56387 0.0
O482 O 0.73771 0.06824 0.5707 0.0
C483 C 0.6506 0.17638 0.62618 0.0
C484 C 0.65754 0.20902 0.65689 0.0
C485 C 0.63725 0.19274 0.64528 0.0
N486 N 0.67747 0.18268 0.62642 0.0
N487 N 0.68146 0.20255 0.6445 0.0
C488 C 0.63872 0.15269 0.61049 0.0
H489 H 0.65449 0.13658 0.60718 0.0
H490 H 0.62102 0.14351 0.62151 0.0
H491 H 0.63158 0.16013 0.59015 0.0
C492 C 0.74099 0.09469 0.63569 0.0
N493 N 0.73697 0.11601 0.61843 0.0
N494 N 0.71727 0.13179 0.62815 0.0
C495 C 0.70761 0.12022 0.65146 0.0
C496 C 0.72193 0.09607 0.65674 0.0
C497 C 0.76122 0.07196 0.63118 0.0
H498 H 0.77857 0.07914 0.61837 0.0
H499 H 0.75082 0.05433 0.62116 0.0
H500 H 0.76949 0.0646 0.65109 0.0
O501 O 0.7683 0.15927 0.58131 0.0
O502 O 0.73624 0.18839 0.59614 0.0
H503 H 0.68617 0.15307 0.67144 0.0
H504 H 0.68231 0.12006 0.68788 0.0
C505 C 0.68379 0.13074 0.66777 0.0
H506 H 0.66452 0.12713 0.65627 0.0
H507 H 0.70065 0.21081 0.64924 0.0
O508 O 0.77511 0.09452 0.56839 0.0
C509 C 0.75996 0.18365 0.58596 0.0
Co510 Co 0.87259 0.75574 0.57768 0.0
Co511 Co 0.8353 0.70753 0.60168 0.0
C512 C 0.8503 0.7071 0.54373 0.0
O513 O 0.86254 0.73005 0.54702 0.0
O514 O 0.8395 0.6944 0.56385 0.0
C515 C 0.92144 0.76595 0.553 0.0
O516 O 0.9203 0.73903 0.55504 0.0
C517 C 0.81557 0.6531 0.61933 0.0
C518 C 0.80599 0.66092 0.6629 0.0
C519 C 0.80911 0.63988 0.64391 0.0
N520 N 0.81758 0.68029 0.6241 0.0
N521 N 0.81094 0.68489 0.64998 0.0
C522 C 0.81901 0.64059 0.59148 0.0
H523 H 0.80955 0.65418 0.57585 0.0
H524 H 0.8412 0.63854 0.58675 0.0
H525 H 0.80886 0.62022 0.59019 0.0
C526 C 0.9092 0.73764 0.62241 0.0
N527 N 0.88571 0.73592 0.60796 0.0
N528 N 0.8713 0.71476 0.61676 0.0
C529 C 0.88659 0.70101 0.63544 0.0
C530 C 0.91081 0.71535 0.63985 0.0
C531 C 0.93037 0.75968 0.61919 0.0
H532 H 0.9212 0.77855 0.61036 0.0
H533 H 0.94707 0.75207 0.60576 0.0
H534 H 0.93964 0.76475 0.63937 0.0
O535 O 0.83999 0.77395 0.59197 0.0
O536 O 0.81063 0.74081 0.59759 0.0
H537 H 0.8636 0.67639 0.66342 0.0
H538 H 0.89741 0.66347 0.65685 0.0
C539 C 0.87935 0.67357 0.64728 0.0
H540 H 0.87096 0.66007 0.63099 0.0
H541 H 0.81174 0.70418 0.65933 0.0
O542 O 0.90154 0.78016 0.5622 0.0
C543 C 0.81778 0.76251 0.58468 0.0
Co544 Co 0.4189 0.24496 0.12602 0.0
Co545 Co 0.39342 0.29053 0.1653 0.0
C546 C 0.45325 0.28969 0.15111 0.0
O547 O 0.45081 0.26731 0.13775 0.0
O548 O 0.43248 0.30183 0.16147 0.0
C549 C 0.45539 0.2107 0.09517 0.0
O550 O 0.47326 0.21892 0.11362 0.0
C551 C 0.37414 0.34643 0.17245 0.0
C552 C 0.34757 0.34425 0.2091 0.0
C553 C 0.35691 0.36197 0.18886 0.0
N554 N 0.37479 0.32061 0.18224 0.0
N555 N 0.35911 0.31946 0.20437 0.0
C556 C 0.39034 0.35605 0.14813 0.0
H557 H 0.40701 0.36984 0.15532 0.0
H558 H 0.39952 0.33841 0.13701 0.0
H559 H 0.37725 0.36806 0.13388 0.0
C560 C 0.38017 0.2697 0.087 0.0
N561 N 0.3917 0.26803 0.11202 0.0
N562 N 0.37805 0.2836 0.12943 0.0
C563 C 0.35663 0.29497 0.116 0.0
C564 C 0.3575 0.28689 0.08865 0.0
C565 C 0.39175 0.25627 0.06189 0.0
H566 H 0.38382 0.23492 0.06052 0.0
H567 H 0.41446 0.2554 0.06326 0.0
H568 H 0.38586 0.26755 0.04298 0.0
O569 O 0.40067 0.22792 0.15772 0.0
O570 O 0.39553 0.25782 0.19028 0.0
H571 H 0.33246 0.30602 0.15132 0.0
H572 H 0.3145 0.308 0.11884 0.0
C573 C 0.33444 0.31154 0.12932 0.0
H574 H 0.33934 0.33368 0.1275 0.0
H575 H 0.35575 0.30162 0.21583 0.0
O576 O 0.43046 0.2181 0.0975 0.0
C577 C 0.40749 0.2363 0.18143 0.0
Co578 Co 0.42576 0.7652 0.87252 0.0
Co579 Co 0.39874 0.71757 0.83685 0.0
C580 C 0.45806 0.71693 0.84865 0.0
O581 O 0.45609 0.73997 0.86089 0.0
O582 O 0.43697 0.70473 0.83928 0.0
C583 C 0.45299 0.77498 0.91979 0.0
O584 O 0.45193 0.74808 0.91753 0.0
C585 C 0.38041 0.66171 0.82643 0.0
C586 C 0.34328 0.66783 0.80112 0.0
C587 C 0.35855 0.64784 0.81457 0.0
N588 N 0.37801 0.68862 0.8205 0.0
N589 N 0.35614 0.69209 0.80481 0.0
C590 C 0.40107 0.65035 0.84624 0.0
H591 H 0.40817 0.66658 0.86056 0.0
H592 H 0.39232 0.63309 0.8583 0.0
H593 H 0.41904 0.64259 0.83458 0.0
C594 C 0.38293 0.74795 0.91164 0.0
N595 N 0.39608 0.74548 0.88747 0.0
N596 N 0.38451 0.72571 0.87299 0.0
C597 C 0.36432 0.71431 0.88835 0.0
C598 C 0.36302 0.72788 0.91337 0.0
C599 C 0.38763 0.77028 0.93222 0.0
H600 H 0.39491 0.78928 0.92199 0.0
H601 H 0.40302 0.76333 0.94741 0.0
H602 H 0.36839 0.77485 0.94356 0.0
O603 O 0.40955 0.78333 0.84049 0.0
O604 O 0.40069 0.75046 0.81159 0.0
H605 H 0.33973 0.69273 0.85895 0.0
H606 H 0.32988 0.68663 0.89399 0.0
C607 C 0.34757 0.68988 0.88008 0.0
H608 H 0.36054 0.67122 0.88082 0.0
H609 H 0.34909 0.71119 0.79802 0.0
O610 O 0.44231 0.78961 0.90092 0.0
C611 C 0.41473 0.77175 0.81773 0.0
Co612 Co 0.23772 0.42961 0.88021 0.0
Co613 Co 0.28557 0.40219 0.84696 0.0
C614 C 0.28851 0.46095 0.86427 0.0
O615 O 0.26505 0.45931 0.87562 0.0
O616 O 0.29953 0.44007 0.85302 0.0
C617 C 0.20243 0.46856 0.9062 0.0
O618 O 0.20984 0.4843 0.88555 0.0
C619 C 0.34117 0.38265 0.83945 0.0
C620 C 0.33606 0.34776 0.81088 0.0
C621 C 0.3553 0.36143 0.82682 0.0
N622 N 0.3148 0.38151 0.83149 0.0
N623 N 0.31193 0.36098 0.81395 0.0
C624 C 0.35154 0.40138 0.86157 0.0
H625 H 0.33453 0.40763 0.87537 0.0
H626 H 0.36783 0.39127 0.8739 0.0
H627 H 0.36028 0.42012 0.85195 0.0
C628 C 0.25046 0.38506 0.91853 0.0
N629 N 0.25376 0.39748 0.89409 0.0
N630 N 0.27354 0.38525 0.88038 0.0
C631 C 0.28324 0.36424 0.8958 0.0
C632 C 0.26917 0.36373 0.92063 0.0
C633 C 0.23104 0.39479 0.94028 0.0
H634 H 0.2101 0.39652 0.93147 0.0
H635 H 0.23744 0.41549 0.94741 0.0
H636 H 0.23044 0.38047 0.95802 0.0
O637 O 0.22115 0.42348 0.84412 0.0
O638 O 0.25572 0.40665 0.81943 0.0
H639 H 0.30639 0.34088 0.86652 0.0
H640 H 0.30844 0.32791 0.90103 0.0
C641 C 0.3075 0.34685 0.88841 0.0
H642 H 0.32659 0.35866 0.89201 0.0
H643 H 0.29324 0.35509 0.80528 0.0
O644 O 0.2105 0.44372 0.90676 0.0
C645 C 0.23121 0.41573 0.82123 0.0
Co646 Co 0.57292 0.23945 0.88629 0.0
Co647 Co 0.59759 0.28501 0.8477 0.0
C648 C 0.54155 0.29017 0.87302 0.0
O649 O 0.54358 0.26734 0.88557 0.0
O650 O 0.56112 0.29932 0.8584 0.0
C651 C 0.53763 0.20236 0.91409 0.0
O652 O 0.52215 0.20659 0.89238 0.0
C653 C 0.61582 0.34078 0.84137 0.0
C654 C 0.63902 0.34117 0.80242 0.0
C655 C 0.6309 0.35764 0.8242 0.0
N656 N 0.61526 0.31541 0.83056 0.0
N657 N 0.62898 0.31572 0.80713 0.0
C658 C 0.60074 0.34872 0.86702 0.0
H659 H 0.5796 0.35505 0.86138 0.0
H660 H 0.59932 0.33092 0.88121 0.0
H661 H 0.61057 0.36623 0.87768 0.0
C662 C 0.62213 0.25246 0.91828 0.0
N663 N 0.60707 0.25476 0.89525 0.0
N664 N 0.61833 0.27299 0.8788 0.0
C665 C 0.64144 0.28247 0.89083 0.0
C666 C 0.64441 0.27009 0.91636 0.0
C667 C 0.61284 0.23692 0.94315 0.0
H668 H 0.61132 0.21475 0.93801 0.0
H669 H 0.59208 0.24412 0.9492 0.0
H670 H 0.62707 0.23949 0.96074 0.0
O671 O 0.57327 0.22265 0.84964 0.0
O672 O 0.58924 0.25494 0.82131 0.0
H673 H 0.66086 0.30245 0.85657 0.0
H674 H 0.68075 0.30246 0.88795 0.0
C675 C 0.65976 0.30426 0.87922 0.0
H676 H 0.65165 0.3248 0.88477 0.0
H677 H 0.63172 0.29858 0.79456 0.0
O678 O 0.5615 0.21287 0.91478 0.0
C679 C 0.57886 0.23119 0.82549 0.0
Co680 Co 0.74771 0.57789 0.87822 0.0
Co681 Co 0.7095 0.60409 0.8333 0.0
C682 C 0.69842 0.5483 0.8586 0.0
O683 O 0.71872 0.55003 0.87493 0.0
O684 O 0.69281 0.5676 0.84181 0.0
C685 C 0.78185 0.54226 0.9088 0.0
O686 O 0.77795 0.52649 0.88724 0.0
C687 C 0.65616 0.62433 0.81808 0.0
C688 C 0.66453 0.65421 0.78495 0.0
C689 C 0.64371 0.64354 0.80119 0.0
N690 N 0.68303 0.62356 0.81213 0.0
N691 N 0.68793 0.64108 0.79195 0.0
C692 C 0.64364 0.60985 0.8422 0.0
H693 H 0.6594 0.60589 0.85818 0.0
H694 H 0.62673 0.62214 0.85128 0.0
H695 H 0.63519 0.58983 0.83529 0.0
C696 C 0.73192 0.62742 0.90812 0.0
N697 N 0.73266 0.61251 0.88491 0.0
N698 N 0.7178 0.62455 0.86585 0.0
C699 C 0.70782 0.64827 0.87621 0.0
C700 C 0.71612 0.65072 0.90341 0.0
C701 C 0.74248 0.617 0.9351 0.0
H702 H 0.76517 0.61896 0.93546 0.0
H703 H 0.73732 0.5949 0.93736 0.0
H704 H 0.73375 0.62833 0.95279 0.0
O705 O 0.76855 0.57685 0.84375 0.0
O706 O 0.74231 0.59513 0.81108 0.0
H707 H 0.69709 0.66971 0.83921 0.0
H708 H 0.69081 0.68882 0.87037 0.0
C709 C 0.69009 0.66813 0.86079 0.0
H710 H 0.66854 0.66088 0.86108 0.0
H711 H 0.7074 0.6451 0.78397 0.0
O712 O 0.77162 0.56629 0.90891 0.0
C713 C 0.76433 0.58317 0.8187 0.0
Co714 Co 0.5758 0.76539 0.12012 0.0
Co715 Co 0.60243 0.71339 0.14942 0.0
C716 C 0.5423 0.71647 0.13962 0.0
O717 O 0.54459 0.74074 0.12996 0.0
O718 O 0.5633 0.70259 0.14681 0.0
C719 C 0.53641 0.80208 0.09718 0.0
O720 O 0.52156 0.79312 0.11782 0.0
C721 C 0.61921 0.65591 0.15411 0.0
C722 C 0.65699 0.65881 0.17904 0.0
C723 C 0.64066 0.64041 0.16469 0.0
N724 N 0.6228 0.68224 0.16173 0.0
N725 N 0.64514 0.68376 0.17706 0.0
C726 C 0.59749 0.64662 0.13442 0.0
H727 H 0.59058 0.66402 0.12139 0.0
H728 H 0.6052 0.62976 0.12115 0.0
H729 H 0.57962 0.63887 0.14623 0.0
C730 C 0.61223 0.74818 0.07559 0.0
N731 N 0.60226 0.74521 0.10113 0.0
N732 N 0.61531 0.72511 0.11378 0.0
C733 C 0.63431 0.71476 0.09638 0.0
C734 C 0.63281 0.729 0.07166 0.0
C735 C 0.60233 0.76932 0.05553 0.0
H736 H 0.60456 0.79006 0.06474 0.0
H737 H 0.58022 0.76588 0.05126 0.0
H738 H 0.61405 0.76872 0.03602 0.0
O739 O 0.59526 0.77822 0.15299 0.0
O740 O 0.60276 0.74256 0.17866 0.0
H741 H 0.6609 0.6922 0.12327 0.0
H742 H 0.66895 0.68821 0.08736 0.0
C743 C 0.65203 0.69034 0.10241 0.0
H744 H 0.63938 0.67146 0.10147 0.0
H745 H 0.65296 0.70204 0.18511 0.0
O746 O 0.56148 0.79501 0.09585 0.0
C747 C 0.59022 0.76526 0.17504 0.0
Co748 Co 0.24051 0.58409 0.11989 0.0
Co749 Co 0.28429 0.61084 0.16039 0.0
C750 C 0.28517 0.55061 0.14692 0.0
O751 O 0.26362 0.5527 0.13219 0.0
O752 O 0.29599 0.57158 0.15835 0.0
C753 C 0.20785 0.54669 0.08853 0.0
O754 O 0.21646 0.52902 0.10702 0.0
C755 C 0.33957 0.62967 0.1718 0.0
C756 C 0.33312 0.66342 0.20144 0.0
C757 C 0.35318 0.65027 0.18606 0.0
N758 N 0.3128 0.63075 0.1783 0.0
N759 N 0.3091 0.65061 0.19644 0.0
C760 C 0.35088 0.61161 0.1496 0.0
H761 H 0.33419 0.60418 0.136 0.0
H762 H 0.36635 0.62283 0.13719 0.0
H763 H 0.361 0.59353 0.15913 0.0
C764 C 0.26575 0.62219 0.08098 0.0
N765 N 0.26358 0.61126 0.10621 0.0
N766 N 0.27909 0.62506 0.12359 0.0
C767 C 0.29114 0.64589 0.10976 0.0
C768 C 0.28322 0.64461 0.08236 0.0
C769 C 0.25269 0.61007 0.05592 0.0
H770 H 0.2524 0.58732 0.05753 0.0
H771 H 0.26387 0.61597 0.03697 0.0
H772 H 0.23119 0.61747 0.05441 0.0
O773 O 0.22212 0.603 0.1505 0.0
O774 O 0.25045 0.61019 0.18378 0.0
H775 H 0.30768 0.68701 0.11056 0.0
H776 H 0.33035 0.66066 0.1229 0.0
C777 C 0.30869 0.66763 0.12258 0.0
H778 H 0.30185 0.67176 0.14387 0.0
H779 H 0.29 0.65632 0.2043 0.0
O780 O 0.21457 0.57184 0.09085 0.0
C781 C 0.23004 0.59681 0.1745 0.0
Co782 Co 0.75718 0.41736 0.1175 0.0
Co783 Co 0.71129 0.39383 0.15616 0.0
C784 C 0.70545 0.449 0.13044 0.0
O785 O 0.72864 0.4462 0.11877 0.0
O786 O 0.69538 0.42986 0.14515 0.0
C787 C 0.79097 0.45409 0.08828 0.0
O788 O 0.78531 0.46973 0.10954 0.0
C789 C 0.6568 0.37444 0.17081 0.0
C790 C 0.66522 0.34366 0.20313 0.0
C791 C 0.64427 0.35518 0.18764 0.0
N792 N 0.68386 0.37435 0.17611 0.0
N793 N 0.68875 0.35623 0.19576 0.0
C794 C 0.64393 0.39026 0.14774 0.0
H795 H 0.65926 0.39454 0.13146 0.0
H796 H 0.62647 0.37877 0.13868 0.0
H797 H 0.63617 0.41016 0.15575 0.0
C798 C 0.7446 0.36755 0.08643 0.0
N799 N 0.74211 0.38297 0.10919 0.0
N800 N 0.72279 0.37272 0.12503 0.0
C801 C 0.71246 0.35015 0.11263 0.0
C802 C 0.72576 0.34626 0.08771 0.0
C803 C 0.76139 0.37584 0.06204 0.0
H804 H 0.78301 0.37896 0.06848 0.0
H805 H 0.75357 0.39567 0.05388 0.0
H806 H 0.76071 0.36015 0.04553 0.0
O807 O 0.77526 0.41752 0.15337 0.0
O808 O 0.74198 0.40357 0.18136 0.0
H809 H 0.6906 0.32987 0.14504 0.0
H810 H 0.68671 0.31404 0.11174 0.0
C811 C 0.68841 0.33394 0.12277 0.0
H812 H 0.6693 0.34578 0.11922 0.0
H813 H 0.70828 0.35163 0.2033 0.0
O814 O 0.78258 0.42935 0.08824 0.0
C815 C 0.76607 0.41313 0.17747 0.0
H816 H 0.93275 0.33953 0.34522 0.0
H817 H 0.07647 0.30179 0.27537 0.0
H818 H 0.95985 0.25585 0.3341 0.0
H819 H 0.04259 0.38357 0.27967 0.0
H820 H 0.03361 0.28364 0.29521 0.0
H821 H 0.97227 0.35545 0.31901 0.0
C822 C 0.94688 0.32449 0.33689 0.0
C823 C 0.94315 0.29639 0.34181 0.0
C824 C 0.0355 0.30551 0.2915 0.0
C825 C 0.98885 0.3144 0.31232 0.0
C826 C 0.05988 0.31579 0.28027 0.0
C827 C 0.06282 0.34409 0.27588 0.0
C828 C 0.01422 0.32382 0.29845 0.0
C829 C 0.04091 0.36154 0.28248 0.0
C830 C 0.96957 0.33356 0.32208 0.0
C831 C 0.9623 0.27776 0.33099 0.0
N832 N 0.01762 0.35115 0.29355 0.0
N833 N 0.98451 0.2871 0.31688 0.0
H834 H 0.67528 0.92127 0.33451 0.0
H835 H 0.70149 0.06696 0.26676 0.0
H836 H 0.75496 0.94247 0.30217 0.0
H837 H 0.62182 0.02878 0.27179 0.0
H838 H 0.72265 0.02306 0.28098 0.0
H839 H 0.65596 0.96168 0.31249 0.0
C840 C 0.68866 0.9342 0.32232 0.0
C841 C 0.71678 0.92849 0.32017 0.0
C842 C 0.70058 0.02428 0.27859 0.0
C843 C 0.69491 0.97558 0.29564 0.0
C844 C 0.68858 0.04924 0.27063 0.0
C845 C 0.65999 0.05126 0.26819 0.0
C846 C 0.68368 0.00158 0.28444 0.0
C847 C 0.64399 0.02791 0.27331 0.0
C848 C 0.67765 0.95745 0.30992 0.0
C849 C 0.73327 0.94646 0.30478 0.0
N850 N 0.65602 0.00413 0.28142 0.0
N851 N 0.72214 0.96947 0.29329 0.0
H852 H 0.03507 0.70349 0.38921 0.0
H853 H 0.95427 0.66787 0.25052 0.0
H854 H 0.06547 0.72531 0.30902 0.0
H855 H 0.92481 0.64908 0.33187 0.0
H856 H 0.99447 0.69054 0.27093 0.0
H857 H 0.99349 0.68513 0.36811 0.0
C858 C 0.03281 0.70446 0.36709 0.0
C859 C 0.05355 0.71569 0.35072 0.0
C860 C 0.97908 0.68165 0.28428 0.0
C861 C 0.0063 0.69462 0.32632 0.0
C862 C 0.95626 0.66872 0.27266 0.0
C863 C 0.93631 0.65677 0.28962 0.0
C864 C 0.98185 0.68245 0.31301 0.0
C865 C 0.93957 0.65843 0.31813 0.0
C866 C 0.00916 0.69396 0.35502 0.0
C867 C 0.04991 0.71645 0.3222 0.0
N868 N 0.96196 0.67092 0.32892 0.0
N869 N 0.02669 0.70592 0.31081 0.0
H870 H 0.29827 0.92545 0.25786 0.0
H871 H 0.32368 0.04094 0.37076 0.0
H872 H 0.35469 0.91616 0.32543 0.0
H873 H 0.24653 0.03521 0.32785 0.0
H874 H 0.33829 0.99776 0.34945 0.0
H875 H 0.2809 0.96814 0.27903 0.0
C876 C 0.30667 0.93229 0.27729 0.0
C877 C 0.32765 0.9174 0.29016 0.0
C878 C 0.31815 0.0059 0.34468 0.0
C879 C 0.30865 0.96592 0.31391 0.0
C880 C 0.30994 0.03053 0.35668 0.0
C881 C 0.28398 0.04135 0.35091 0.0
C882 C 0.30033 0.99223 0.32656 0.0
C883 C 0.26673 0.02726 0.3327 0.0
C884 C 0.29686 0.95651 0.28929 0.0
C885 C 0.33822 0.92701 0.31512 0.0
N886 N 0.27525 0.00335 0.32098 0.0
N887 N 0.32876 0.95079 0.32608 0.0
H888 H 0.93727 0.73556 0.6849 0.0
H889 H 0.06821 0.63913 0.6611 0.0
H890 H 0.94228 0.67321 0.62232 0.0
H891 H 0.05575 0.68452 0.73602 0.0
H892 H 0.02459 0.65685 0.64357 0.0
H893 H 0.98258 0.72119 0.70211 0.0
C894 C 0.94787 0.71861 0.67511 0.0
C895 C 0.9362 0.70518 0.65254 0.0
C896 C 0.03141 0.6631 0.66379 0.0
C897 C 0.98779 0.68923 0.67134 0.0
C898 C 0.05638 0.65324 0.67362 0.0
C899 C 0.06524 0.66037 0.69999 0.0
C900 C 0.01532 0.68027 0.68048 0.0
C901 C 0.04928 0.67847 0.71563 0.0
C902 C 0.97365 0.71053 0.68476 0.0
C903 C 0.95062 0.68368 0.64008 0.0
N904 N 0.0249 0.68777 0.70568 0.0
N905 N 0.97577 0.67642 0.64958 0.0
H906 H 0.33491 0.03586 0.75086 0.0
H907 H 0.27895 0.9527 0.62071 0.0
H908 H 0.34146 0.06318 0.66686 0.0
H909 H 0.28057 0.91795 0.70215 0.0
H910 H 0.29626 0.99588 0.63895 0.0
H911 H 0.31028 0.99474 0.73503 0.0
C912 C 0.33103 0.03323 0.72912 0.0
C913 C 0.34024 0.05282 0.71008 0.0
C914 C 0.29271 0.97897 0.65299 0.0
C915 C 0.312 0.00629 0.69194 0.0
C916 C 0.28261 0.95438 0.64259 0.0
C917 C 0.27832 0.93189 0.66003 0.0
C918 C 0.29883 0.98109 0.68107 0.0
C919 C 0.28381 0.93491 0.68811 0.0
C920 C 0.31693 0.00987 0.72013 0.0
C921 C 0.3344 0.04876 0.68224 0.0
N922 N 0.29399 0.95911 0.69782 0.0
N923 N 0.32077 0.02591 0.67401 0.0
H924 H 0.93624 0.30879 0.71877 0.0
H925 H 0.0715 0.33312 0.62893 0.0
H926 H 0.9614 0.38784 0.68776 0.0
H927 H 0.05734 0.2584 0.67437 0.0
H928 H 0.02948 0.35251 0.64822 0.0
H929 H 0.9787 0.28852 0.7003 0.0
C930 C 0.95073 0.32175 0.70793 0.0
C931 C 0.94559 0.34987 0.70458 0.0
C932 C 0.03558 0.33194 0.65419 0.0
C933 C 0.99377 0.32719 0.68366 0.0
C934 C 0.05959 0.32097 0.64329 0.0
C935 C 0.0679 0.29437 0.65049 0.0
C936 C 0.01957 0.31603 0.67215 0.0
C937 C 0.05155 0.2791 0.66858 0.0
C938 C 0.97491 0.3103 0.69756 0.0
C939 C 0.96484 0.36603 0.69068 0.0
N940 N 0.02802 0.29014 0.67881 0.0
N941 N 0.98809 0.35445 0.68066 0.0
H942 H 0.69413 0.94535 0.75042 0.0
H943 H 0.67252 0.07241 0.64891 0.0
H944 H 0.64056 0.94476 0.67997 0.0
H945 H 0.74686 0.06407 0.69625 0.0
H946 H 0.65654 0.0285 0.66695 0.0
H947 H 0.71114 0.99104 0.73626 0.0
C948 C 0.68624 0.95477 0.73187 0.0
C949 C 0.66617 0.94141 0.71614 0.0
C950 C 0.67628 0.03629 0.6736 0.0
C951 C 0.68476 0.99333 0.70036 0.0
C952 C 0.68523 0.0615 0.66358 0.0
C953 C 0.71096 0.07178 0.67123 0.0
C954 C 0.69316 0.02117 0.69145 0.0
C955 C 0.7269 0.05665 0.68988 0.0
C956 C 0.69584 0.98072 0.72386 0.0
C957 C 0.65633 0.95433 0.69241 0.0
N958 N 0.71777 0.03193 0.69939 0.0
N959 N 0.66557 0.97963 0.68535 0.0
H960 H 0.34444 0.34009 0.07806 0.0
H961 H 0.27327 0.30886 0.93323 0.0
H962 H 0.33293 0.25784 0.04712 0.0
H963 H 0.28684 0.38996 0.96617 0.0
H964 H 0.29193 0.28899 0.97583 0.0
H965 H 0.31951 0.35812 0.03865 0.0
C966 C 0.33622 0.32579 0.06314 0.0
C967 C 0.34063 0.29747 0.0658 0.0
C968 C 0.29061 0.31112 0.97378 0.0
C969 C 0.31267 0.31796 0.02015 0.0
C970 C 0.28008 0.32238 0.94954 0.0
C971 C 0.27865 0.35097 0.94639 0.0
C972 C 0.29973 0.32871 0.99481 0.0
C973 C 0.28748 0.36777 0.96798 0.0
C974 C 0.3222 0.33609 0.04048 0.0
C975 C 0.33012 0.27987 0.04557 0.0
N976 N 0.29772 0.3564 0.99123 0.0
N977 N 0.31672 0.29041 0.02343 0.0
H978 H 0.25385 0.66895 0.04109 0.0
H979 H 0.38936 0.71367 0.95988 0.0
H980 H 0.33636 0.65701 0.07091 0.0
H981 H 0.30826 0.72049 0.92509 0.0
H982 H 0.36941 0.69705 0.00261 0.0
H983 H 0.27243 0.69192 0.00024 0.0
C984 C 0.27586 0.67141 0.03907 0.0
C985 C 0.29368 0.66107 0.0592 0.0
C986 C 0.35586 0.70218 0.98573 0.0
C987 C 0.31498 0.68721 0.01291 0.0
C988 C 0.36725 0.71173 0.96139 0.0
C989 C 0.35035 0.7182 0.93905 0.0
C990 C 0.3273 0.69899 0.98776 0.0
C991 C 0.32189 0.71527 0.94186 0.0
C992 C 0.28643 0.68449 0.01585 0.0
C993 C 0.32195 0.66496 0.05595 0.0
N994 N 0.31118 0.70573 0.96585 0.0
N995 N 0.33174 0.67758 0.03314 0.0
H996 H 0.63965 0.32111 0.93739 0.0
H997 H 0.74823 0.30389 0.05823 0.0
H998 H 0.6826 0.24446 0.94888 0.0
H999 H 0.67801 0.35765 0.06229 0.0
H1000 H 0.7301 0.28442 0.01506 0.0
H1001 H 0.66044 0.3387 0.9795 0.0
C1002 C 0.6539 0.3082 0.94863 0.0
C1003 C 0.65967 0.28145 0.93981 0.0
C1004 C 0.71861 0.30028 0.02563 0.0
C1005 C 0.68311 0.30113 0.98806 0.0
C1006 C 0.72885 0.31123 0.05013 0.0
C1007 C 0.71431 0.33206 0.06366 0.0
C1008 C 0.69413 0.31083 0.01457 0.0
C1009 C 0.68955 0.34136 0.05245 0.0
C1010 C 0.6655 0.31809 0.97276 0.0
C1011 C 0.67787 0.26527 0.95519 0.0
N1012 N 0.68033 0.33083 0.02841 0.0
N1013 N 0.68905 0.27538 0.97873 0.0
H1014 H 0.68767 0.72792 0.05968 0.0
H1015 H 0.6621 0.66129 0.91232 0.0
H1016 H 0.6077 0.71429 0.02437 0.0
H1017 H 0.74294 0.68012 0.94309 0.0
H1018 H 0.64203 0.6852 0.95135 0.0
H1019 H 0.70876 0.71397 0.01601 0.0
C1020 C 0.67465 0.72202 0.04263 0.0
C1021 C 0.64605 0.72192 0.04544 0.0
C1022 C 0.66417 0.68451 0.94947 0.0
C1023 C 0.6697 0.70628 0.99573 0.0
C1024 C 0.67563 0.67109 0.927 0.0
C1025 C 0.70418 0.66881 0.92458 0.0
C1026 C 0.6814 0.69539 0.96988 0.0
C1027 C 0.72078 0.68135 0.94446 0.0
C1028 C 0.6866 0.71425 0.01774 0.0
C1029 C 0.62988 0.71455 0.02287 0.0
N1030 N 0.70915 0.69385 0.96655 0.0
N1031 N 0.64194 0.70685 -0.00101 0.0
H1032 H 0.19559 0.55874 0.15279 0.0
H1033 H 0.22758 0.43988 0.2523 0.0
H1034 H 0.26048 0.56728 0.21266 0.0
H1035 H 0.18984 0.42806 0.17308 0.0
H1036 H 0.24732 0.48293 0.23598 0.0
H1037 H 0.19629 0.5094 0.15971 0.0
C1038 C 0.21008 0.55023 0.1674 0.0
C1039 C 0.22841 0.56723 0.18168 0.0
C1040 C 0.23559 0.47041 0.22181 0.0
C1041 C 0.22925 0.51032 0.18985 0.0
C1042 C 0.2246 0.44551 0.23098 0.0
C1043 C 0.20579 0.43117 0.21441 0.0
C1044 C 0.22764 0.48057 0.19604 0.0
C1045 C 0.20332 0.43916 0.18687 0.0
C1046 C 0.21071 0.52193 0.17109 0.0
C1047 C 0.24615 0.55497 0.20096 0.0
N1048 N 0.21317 0.46395 0.17881 0.0
N1049 N 0.24607 0.52718 0.20457 0.0
H1050 H 0.44365 0.19956 0.15988 0.0
H1051 H 0.56173 0.21702 0.26282 0.0
H1052 H 0.43827 0.26431 0.22033 0.0
H1053 H 0.57469 0.18853 0.17995 0.0
H1054 H 0.51947 0.23952 0.24794 0.0
H1055 H 0.49263 0.19626 0.1684 0.0
C1056 C 0.45275 0.21315 0.17496 0.0
C1057 C 0.43675 0.23251 0.18908 0.0
C1058 C 0.5321 0.2292 0.23282 0.0
C1059 C 0.49319 0.22866 0.19912 0.0
C1060 C 0.55651 0.2166 0.2412 0.0
C1061 C 0.57111 0.19974 0.22282 0.0
C1062 C 0.52252 0.22475 0.20602 0.0
C1063 C 0.5635 0.20046 0.19503 0.0
C1064 C 0.48085 0.21145 0.1796 0.0
C1065 C 0.44978 0.24915 0.20883 0.0
N1066 N 0.53914 0.2118 0.18764 0.0
N1067 N 0.47727 0.24671 0.21344 0.0
H1068 H 0.74281 0.43298 0.22464 0.0
H1069 H 0.78437 0.56502 0.26261 0.0
H1070 H 0.81966 0.4296 0.18077 0.0
H1071 H 0.83206 0.55679 0.18832 0.0
H1072 H 0.77621 0.51539 0.26221 0.0
H1073 H 0.75648 0.47668 0.24447 0.0
C1074 C 0.76322 0.44066 0.22027 0.0
C1075 C 0.77962 0.42826 0.2 0.0
C1076 C 0.78822 0.52449 0.24588 0.0
C1077 C 0.79527 0.47847 0.22239 0.0
C1078 C 0.79282 0.55288 0.246 0.0
C1079 C 0.80937 0.56506 0.22566 0.0
C1080 C 0.79998 0.50833 0.22506 0.0
C1081 C 0.81964 0.54827 0.20469 0.0
C1082 C 0.77094 0.46594 0.23147 0.0
C1083 C 0.80597 0.43899 0.19558 0.0
N1084 N 0.81498 0.52082 0.20508 0.0
N1085 N 0.81257 0.46404 0.20583 0.0
H1086 H 0.43301 0.76008 0.25596 0.0
H1087 H 0.55346 0.80613 0.16535 0.0
H1088 H 0.42144 0.80313 0.17939 0.0
H1089 H 0.56113 0.72823 0.20736 0.0
H1090 H 0.50447 0.80573 0.17452 0.0
H1091 H 0.4777 0.74403 0.23966 0.0
C1092 C 0.43911 0.76497 0.23513 0.0
C1093 C 0.42405 0.78403 0.21943 0.0
C1094 C 0.5168 0.78856 0.18151 0.0
C1095 C 0.47526 0.76653 0.20129 0.0
C1096 C 0.54488 0.78893 0.17658 0.0
C1097 C 0.56142 0.76684 0.18488 0.0
C1098 C 0.50503 0.76628 0.19547 0.0
C1099 C 0.54911 0.74552 0.20017 0.0
C1100 C 0.46489 0.75612 0.22605 0.0
C1101 C 0.43287 0.78924 0.19251 0.0
N1102 N 0.52154 0.74575 0.20499 0.0
N1103 N 0.45843 0.78149 0.18467 0.0
H1104 H 0.17648 0.42426 0.81215 0.0
H1105 H 0.21942 0.56167 0.73519 0.0
H1106 H 0.25598 0.435 0.77476 0.0
H1107 H 0.15486 0.55236 0.79539 0.0
H1108 H 0.22737 0.51182 0.73722 0.0
H1109 H 0.16054 0.46567 0.78883 0.0
C1110 C 0.1902 0.43456 0.79796 0.0
C1111 C 0.21795 0.42704 0.79648 0.0
C1112 C 0.21137 0.52085 0.74976 0.0
C1113 C 0.20033 0.47484 0.77084 0.0
C1114 C 0.207 0.54927 0.74887 0.0
C1115 C 0.18639 0.56135 0.76513 0.0
C1116 C 0.19492 0.50446 0.76687 0.0
C1117 C 0.17092 0.54416 0.7824 0.0
C1118 C 0.18127 0.45852 0.78508 0.0
C1119 C 0.23463 0.44069 0.77725 0.0
N1120 N 0.17546 0.5167 0.78271 0.0
N1121 N 0.22594 0.46476 0.76603 0.0
H1122 H 0.56623 0.1767 0.82136 0.0
H1123 H 0.43095 0.2098 0.73591 0.0
H1124 H 0.55657 0.25421 0.77933 0.0
H1125 H 0.43591 0.15992 0.80919 0.0
H1126 H 0.48023 0.2198 0.74024 0.0
H1127 H 0.52337 0.16084 0.80084 0.0
C1128 C 0.55578 0.18992 0.8068 0.0
C1129 C 0.56438 0.21717 0.80289 0.0
C1130 C 0.47036 0.20665 0.75523 0.0
C1131 C 0.51508 0.19957 0.78023 0.0
C1132 C 0.44224 0.20116 0.75303 0.0
C1133 C 0.42934 0.18349 0.77198 0.0
C1134 C 0.48553 0.19423 0.77635 0.0
C1135 C 0.44503 0.17316 0.7938 0.0
C1136 C 0.53107 0.18105 0.79551 0.0
C1137 C 0.55029 0.23325 0.78343 0.0
N1138 N 0.47229 0.17842 0.7952 0.0
N1139 N 0.52568 0.22457 0.77349 0.0
H1140 H 0.81831 0.56867 0.82174 0.0
H1141 H 0.78612 0.43094 0.73929 0.0
H1142 H 0.74631 0.56022 0.7709 0.0
H1143 H 0.8391 0.43795 0.81012 0.0
H1144 H 0.77634 0.48031 0.74255 0.0
H1145 H 0.8347 0.52436 0.80503 0.0
C1146 C 0.80656 0.55808 0.80608 0.0
C1147 C 0.78048 0.5676 0.79844 0.0
C1148 C 0.79005 0.4709 0.75733 0.0
C1149 C 0.79838 0.51653 0.7803 0.0
C1150 C 0.79545 0.4427 0.75571 0.0
C1151 C 0.81396 0.43034 0.77417 0.0
C1152 C 0.80329 0.4867 0.77747 0.0
C1153 C 0.82516 0.44663 0.79511 0.0
C1154 C 0.81561 0.5325 0.79702 0.0
C1155 C 0.76629 0.55329 0.77778 0.0
N1156 N 0.81988 0.47396 0.79601 0.0
N1157 N 0.77495 0.52786 0.77008 0.0
H1158 H 0.44054 0.74033 0.77792 0.0
H1159 H 0.5841 0.80951 0.81354 0.0
H1160 H 0.4561 0.8034 0.83848 0.0
H1161 H 0.56612 0.77786 0.73282 0.0
H1162 H 0.54228 0.7879 0.8307 0.0
H1163 H 0.48996 0.73951 0.76732 0.0
C1164 C 0.45421 0.75396 0.78897 0.0
C1165 C 0.44402 0.77191 0.80922 0.0
C1166 C 0.54796 0.78497 0.80939 0.0
C1167 C 0.50034 0.77032 0.79778 0.0
C1168 C 0.57208 0.79689 0.79969 0.0
C1169 C 0.57792 0.79649 0.7715 0.0
C1170 C 0.52972 0.77276 0.79068 0.0
C1171 C 0.56193 0.77936 0.7546 0.0
C1172 C 0.48236 0.75323 0.78309 0.0
C1173 C 0.46279 0.78912 0.82281 0.0
N1174 N 0.53783 0.76902 0.7642 0.0
N1175 N 0.48992 0.78776 0.81694 0.0
H1176 H 0.26475 0.20367 0.43042 0.0
H1177 H 0.19231 0.17845 0.57469 0.0
H1178 H 0.19253 0.15452 0.44572 0.0
H1179 H 0.23222 0.25538 0.5561 0.0
H1180 H 0.21064 0.15927 0.53217 0.0
H1181 H 0.26619 0.21548 0.47957 0.0
C1182 C 0.24926 0.19532 0.44401 0.0
C1183 C 0.22889 0.17736 0.43401 0.0
C1184 C 0.21609 0.1801 0.53786 0.0
C1185 C 0.23111 0.19011 0.49001 0.0
C1186 C 0.20605 0.19091 0.56238 0.0
C1187 C 0.20978 0.21888 0.56834 0.0
C1188 C 0.22989 0.19744 0.51941 0.0
C1189 C 0.22819 0.2339 0.55188 0.0
C1190 C 0.25033 0.20184 0.47202 0.0
C1191 C 0.20912 0.16764 0.45255 0.0
N1192 N 0.23677 0.22333 0.52749 0.0
N1193 N 0.21093 0.17384 0.47961 0.0
H1194 H 0.8153 0.19055 0.5804 0.0
H1195 H 0.84758 0.19782 0.44655 0.0
H1196 H 0.73758 0.22504 0.55572 0.0
H1197 H 0.78896 0.26389 0.43763 0.0
H1198 H 0.8364 0.19494 0.49494 0.0
H1199 H 0.83636 0.20992 0.53919 0.0
C1200 C 0.8029 0.20307 0.56678 0.0
C1201 C 0.77454 0.20558 0.57105 0.0
C1202 C 0.82643 0.21062 0.48271 0.0
C1203 C 0.79784 0.2257 0.52287 0.0
C1204 C 0.83249 0.21194 0.45483 0.0
C1205 C 0.81952 0.23137 0.43793 0.0
C1206 C 0.80695 0.22867 0.494 0.0
C1207 C 0.79964 0.24867 0.44985 0.0
C1208 C 0.81473 0.21348 0.54287 0.0
C1209 C 0.75947 0.22228 0.55296 0.0
N1210 N 0.79384 0.24679 0.47714 0.0
N1211 N 0.77111 0.23098 0.5291 0.0
H1212 H 0.78026 0.73191 0.55479 0.0
H1213 H 0.81923 0.8122 0.4179 0.0
H1214 H 0.84167 0.79546 0.54607 0.0
H1215 H 0.74201 0.77017 0.42833 0.0
H1216 H 0.83633 0.78996 0.45943 0.0
H1217 H 0.77289 0.73337 0.50484 0.0
C1218 C 0.79216 0.74613 0.5425 0.0
C1219 C 0.81155 0.76367 0.55482 0.0
C1220 C 0.81589 0.78496 0.45222 0.0
C1221 C 0.80372 0.76481 0.4978 0.0
C1222 C 0.80629 0.79733 0.42826 0.0
C1223 C 0.77891 0.79367 0.42017 0.0
C1224 C 0.79781 0.76923 0.4683 0.0
C1225 C 0.76312 0.77394 0.43416 0.0
C1226 C 0.78815 0.74671 0.51401 0.0
C1227 C 0.82646 0.78155 0.53773 0.0
N1228 N 0.77245 0.76314 0.4582 0.0
N1229 N 0.82225 0.78159 0.51024 0.0
H1230 H 0.26289 0.7674 0.562 0.0
H1231 H 0.1634 0.80798 0.44808 0.0
H1232 H 0.18129 0.7972 0.57901 0.0
H1233 H 0.21457 0.73688 0.43366 0.0
H1234 H 0.17346 0.80469 0.49682 0.0
H1235 H 0.24715 0.75124 0.51722 0.0
C1236 C 0.24127 0.7692 0.55707 0.0
C1237 C 0.22366 0.78506 0.57363 0.0
C1238 C 0.18225 0.78957 0.48305 0.0
C1239 C 0.20597 0.76735 0.52238 0.0
C1240 C 0.17676 0.79162 0.45514 0.0
C1241 C 0.18741 0.77219 0.43676 0.0
C1242 C 0.19921 0.76843 0.49282 0.0
C1243 C 0.20548 0.75204 0.44713 0.0
C1244 C 0.23245 0.76032 0.53122 0.0
C1245 C 0.19581 0.78609 0.56635 0.0
N1246 N 0.21089 0.75069 0.47458 0.0
N1247 N 0.18804 0.77855 0.54069 0.0
H1248 H 0.16286 0.34613 0.52694 0.0
H1249 H 0.1781 0.30857 0.36816 0.0
H1250 H 0.1347 0.2698 0.49147 0.0
H1251 H 0.18452 0.39168 0.39829 0.0
H1252 H 0.16666 0.29306 0.41458 0.0
H1253 H 0.17366 0.36293 0.48083 0.0
C1254 C 0.1587 0.33301 0.50949 0.0
C1255 C 0.14804 0.30644 0.51314 0.0
C1256 C 0.17058 0.3147 0.41106 0.0
C1257 C 0.16072 0.32536 0.46045 0.0
C1258 C 0.1774 0.32348 0.38468 0.0
C1259 C 0.18196 0.35142 0.3795 0.0
C1260 C 0.16868 0.334 0.43243 0.0
C1261 C 0.18072 0.36998 0.4015 0.0
C1262 C 0.16491 0.3426 0.48319 0.0
C1263 C 0.14287 0.29043 0.48971 0.0
N1264 N 0.17414 0.36095 0.42707 0.0
N1265 N 0.14953 0.30003 0.46442 0.0
H1266 H 0.6292 0.19951 0.40282 0.0
H1267 H 0.70625 0.10206 0.50921 0.0
H1268 H 0.65687 0.11794 0.38215 0.0
H1269 H 0.65769 0.17194 0.53441 0.0
H1270 H 0.68861 0.1074 0.46254 0.0
H1271 H 0.64084 0.19059 0.45111 0.0
C1272 C 0.63763 0.17971 0.40858 0.0
C1273 C 0.64172 0.15925 0.3888 0.0
C1274 C 0.68154 0.12134 0.47836 0.0
C1275 C 0.65526 0.14893 0.44356 0.0
C1276 C 0.69155 0.11826 0.50504 0.0
C1277 C 0.68359 0.13669 0.52573 0.0
C1278 C 0.66377 0.14325 0.47223 0.0
C1279 C 0.66443 0.15727 0.51912 0.0
C1280 C 0.6441 0.17454 0.43606 0.0
C1281 C 0.6529 0.13399 0.39703 0.0
N1282 N 0.65548 0.16024 0.49285 0.0
N1283 N 0.65939 0.12956 0.42379 0.0
H1284 H 0.87561 0.72399 0.49647 0.0
H1285 H 0.77755 0.6386 0.39668 0.0
H1286 H 0.81435 0.66734 0.52662 0.0
H1287 H 0.85603 0.67066 0.37145 0.0
H1288 H 0.78721 0.65377 0.44394 0.0
H1289 H 0.86549 0.70905 0.44964 0.0
C1290 C 0.86023 0.70822 0.49329 0.0
C1291 C 0.84603 0.69666 0.51556 0.0
C1292 C 0.80233 0.65737 0.42804 0.0
C1293 C 0.83407 0.67986 0.46201 0.0
C1294 C 0.79677 0.64884 0.40121 0.0
C1295 C 0.81625 0.6531 0.38053 0.0
C1296 C 0.82729 0.67067 0.43388 0.0
C1297 C 0.84077 0.66663 0.38708 0.0
C1298 C 0.85444 0.69975 0.46656 0.0
C1299 C 0.82608 0.67653 0.51014 0.0
N1300 N 0.8456 0.675 0.41321 0.0
N1301 N 0.82058 0.66886 0.48389 0.0
H1302 H 0.26462 0.86202 0.49735 0.0
H1303 H 0.38815 0.80529 0.40555 0.0
H1304 H 0.34272 0.83778 0.53178 0.0
H1305 H 0.30397 0.8077 0.37833 0.0
H1306 H 0.37343 0.82116 0.45103 0.0
H1307 H 0.28079 0.84795 0.45209 0.0
C1308 C 0.28535 0.85421 0.49536 0.0
C1309 C 0.30229 0.85096 0.51849 0.0
C1310 C 0.35817 0.81803 0.43517 0.0
C1311 C 0.32076 0.83446 0.46669 0.0
C1312 C 0.36653 0.80891 0.40933 0.0
C1313 C 0.3472 0.80528 0.38833 0.0
C1314 C 0.3303 0.82379 0.43986 0.0
C1315 C 0.31945 0.81012 0.39411 0.0
C1316 C 0.29445 0.84589 0.46953 0.0
C1317 C 0.32892 0.84056 0.51457 0.0
N1318 N 0.31183 0.81939 0.4193 0.0
N1319 N 0.3373 0.83257 0.48917 0.0
H1320 H 0.17299 0.66918 0.4659 0.0
H1321 H 0.18786 0.70284 0.62576 0.0
H1322 H 0.13873 0.74151 0.50433 0.0
H1323 H 0.19626 0.62075 0.59336 0.0
H1324 H 0.17743 0.7196 0.57951 0.0
H1325 H 0.1876 0.65278 0.51115 0.0
C1326 C 0.16836 0.68153 0.48382 0.0
C1327 C 0.15452 0.70675 0.48127 0.0
C1328 C 0.1816 0.69792 0.58252 0.0
C1329 C 0.17166 0.68833 0.53292 0.0
C1330 C 0.18781 0.68841 0.60882 0.0
C1331 C 0.19244 0.66031 0.61336 0.0
C1332 C 0.1803 0.67922 0.5606 0.0
C1333 C 0.1922 0.64248 0.59074 0.0
C1334 C 0.17679 0.67218 0.5096 0.0
C1335 C 0.14918 0.72189 0.50524 0.0
N1336 N 0.18606 0.6522 0.56529 0.0
N1337 N 0.15792 0.71253 0.53001 0.0
H1338 H 0.35116 0.21225 0.59866 0.0
H1339 H 0.26251 0.11317 0.50295 0.0
H1340 H 0.32238 0.13271 0.62493 0.0
H1341 H 0.31899 0.17295 0.46964 0.0
H1342 H 0.27872 0.12441 0.54908 0.0
H1343 H 0.33382 0.20251 0.55213 0.0
C1344 C 0.34121 0.19276 0.59452 0.0
C1345 C 0.33854 0.173 0.61526 0.0
C1346 C 0.28766 0.13493 0.53163 0.0
C1347 C 0.31841 0.16195 0.56279 0.0
C1348 C 0.27844 0.12853 0.5053 0.0
C1349 C 0.28969 0.14186 0.48234 0.0
C1350 C 0.30798 0.15508 0.53511 0.0
C1351 C 0.31006 0.16184 0.4867 0.0
C1352 C 0.33143 0.18719 0.5681 0.0
C1353 C 0.32529 0.14818 0.60921 0.0
N1354 N 0.31849 0.16794 0.5126 0.0
N1355 N 0.31563 0.14336 0.58352 0.0
H1356 H 0.86372 0.26112 0.50274 0.0
H1357 H 0.81219 0.38221 0.6 0.0
H1358 H 0.83357 0.33821 0.47052 0.0
H1359 H 0.82138 0.29808 0.62657 0.0
H1360 H 0.82157 0.36773 0.55268 0.0
H1361 H 0.85067 0.27566 0.54865 0.0
C1362 C 0.85461 0.28127 0.50532 0.0
C1363 C 0.84989 0.29856 0.4827 0.0
C1364 C 0.82136 0.35244 0.56886 0.0
C1365 C 0.83482 0.31534 0.53548 0.0
C1366 C 0.81618 0.3607 0.59584 0.0
C1367 C 0.81654 0.34136 0.61721 0.0
C1368 C 0.82711 0.32468 0.56337 0.0
C1369 C 0.82104 0.31366 0.61068 0.0
C1370 C 0.84694 0.28946 0.53159 0.0
C1371 C 0.83764 0.32427 0.48739 0.0
N1372 N 0.82646 0.30619 0.58438 0.0
N1373 N 0.83065 0.33198 0.51332 0.0
H1374 H 0.66237 0.82769 0.4554 0.0
H1375 H 0.66276 0.87551 0.61252 0.0
H1376 H 0.71129 0.89514 0.48593 0.0
H1377 H 0.63283 0.79656 0.58582 0.0
H1378 H 0.67468 0.88674 0.56498 0.0
H1379 H 0.64442 0.82045 0.50169 0.0
C1380 C 0.66898 0.84131 0.4717 0.0
C1381 C 0.68861 0.86191 0.4668 0.0
C1382 C 0.66538 0.86701 0.56944 0.0
C1383 C 0.66828 0.8535 0.51983 0.0
C1384 C 0.65852 0.86066 0.59649 0.0
C1385 C 0.64652 0.83526 0.6028 0.0
C1386 C 0.66018 0.84779 0.54859 0.0
C1387 C 0.64197 0.81641 0.58158 0.0
C1388 C 0.65888 0.83698 0.49817 0.0
C1389 C 0.69638 0.87889 0.48877 0.0
N1390 N 0.64871 0.8231 0.5553 0.0
N1391 N 0.68632 0.87418 0.51437 0.0
H1392 H 0.38822 0.12255 0.3725 0.0
H1393 H 0.4976 0.13906 0.25717 0.0
H1394 H 0.38586 0.19305 0.31857 0.0
H1395 H 0.52573 0.12057 0.3392 0.0
H1396 H 0.45208 0.14951 0.27561 0.0
H1397 H 0.43513 0.11331 0.35769 0.0
C1398 C 0.39776 0.13677 0.35838 0.0
C1399 C 0.38336 0.15951 0.3478 0.0
C1400 C 0.46821 0.14296 0.28947 0.0
C1401 C 0.43627 0.14741 0.32912 0.0
C1402 C 0.49405 0.13667 0.27901 0.0
C1403 C 0.51538 0.12875 0.29672 0.0
C1404 C 0.46345 0.14061 0.31773 0.0
C1405 C 0.50977 0.12652 0.3249 0.0
C1406 C 0.42441 0.13107 0.34957 0.0
C1407 C 0.3963 0.17562 0.32766 0.0
N1408 N 0.48416 0.1322 0.33459 0.0
N1409 N 0.42193 0.1691 0.31875 0.0
H1410 H 0.85629 0.49806 0.25514 0.0
H1411 H 0.8198 0.40547 0.38523 0.0
H1412 H 0.83107 0.53327 0.33252 0.0
H1413 H 0.818 0.3752 0.30203 0.0
H1414 H 0.82764 0.45207 0.36755 0.0
H1415 H 0.84643 0.45235 0.27321 0.0
C1416 C 0.8489 0.49619 0.27604 0.0
C1417 C 0.84458 0.51958 0.29238 0.0
C1418 C 0.82543 0.43522 0.3532 0.0
C1419 C 0.83337 0.46714 0.31325 0.0
C1420 C 0.82115 0.40864 0.36327 0.0
C1421 C 0.81863 0.38645 0.34505 0.0
C1422 C 0.82748 0.43951 0.32474 0.0
C1423 C 0.81986 0.39175 0.31677 0.0
C1424 C 0.8431 0.47006 0.28627 0.0
C1425 C 0.83469 0.51582 0.31921 0.0
N1426 N 0.82448 0.41769 0.30748 0.0
N1427 N 0.82957 0.49006 0.32888 0.0
H1428 H 0.6213 0.85866 0.3198 0.0
H1429 H 0.46312 0.81737 0.33578 0.0
H1430 H 0.59407 0.78553 0.36166 0.0
H1431 H 0.49192 0.88075 0.28068 0.0
H1432 H 0.51038 0.80929 0.35042 0.0
H1433 H 0.57352 0.86998 0.30903 0.0
C1434 C 0.60512 0.84502 0.32669 0.0
C1435 C 0.61135 0.82131 0.34179 0.0
C1436 C 0.50631 0.82511 0.33529 0.0
C1437 C 0.55682 0.83401 0.32967 0.0
C1438 C 0.47929 0.82993 0.32707 0.0
C1439 C 0.47351 0.84963 0.30675 0.0
C1440 C 0.52772 0.84017 0.32324 0.0
C1441 C 0.49538 0.86524 0.29626 0.0
C1442 C 0.57792 0.85145 0.32056 0.0
C1443 C 0.58991 0.80401 0.34996 0.0
N1444 N 0.52152 0.86004 0.30449 0.0
N1445 N 0.56348 0.81078 0.34392 0.0
H1446 H 0.15722 0.47168 0.33873 0.0
H1447 H 0.16709 0.63084 0.3018 0.0
H1448 H 0.12319 0.50721 0.26486 0.0
H1449 H 0.17616 0.60127 0.38481 0.0
H1450 H 0.15456 0.58446 0.28718 0.0
H1451 H 0.16636 0.5181 0.35599 0.0
C1452 C 0.15132 0.48919 0.3263 0.0
C1453 C 0.13957 0.48549 0.30021 0.0
C1454 C 0.15918 0.5881 0.30863 0.0
C1455 C 0.15046 0.53851 0.31962 0.0
C1456 C 0.16658 0.61449 0.31691 0.0
C1457 C 0.17242 0.61985 0.34456 0.0
C1458 C 0.15802 0.56678 0.32806 0.0
C1459 C 0.17138 0.598 0.36336 0.0
C1460 C 0.15662 0.51566 0.33615 0.0
C1461 C 0.13235 0.50898 0.28504 0.0
N1462 N 0.16438 0.57232 0.35475 0.0
N1463 N 0.13821 0.53443 0.29482 0.0
H1464 H 0.4072 0.81907 0.60936 0.0
H1465 H 0.50018 0.88092 0.72974 0.0
H1466 H 0.37957 0.82847 0.69292 0.0
H1467 H 0.534 0.85058 0.65356 0.0
H1468 H 0.45441 0.86826 0.71382 0.0
H1469 H 0.45283 0.83536 0.62312 0.0
C1470 C 0.41086 0.82445 0.63063 0.0
C1471 C 0.38972 0.82257 0.65006 0.0
C1472 C 0.47184 0.86459 0.70051 0.0
C1473 C 0.4415 0.84144 0.66586 0.0
C1474 C 0.49799 0.87207 0.70945 0.0
C1475 C 0.52108 0.86662 0.69306 0.0
C1476 C 0.46866 0.85175 0.6749 0.0
C1477 C 0.51685 0.85504 0.66697 0.0
C1478 C 0.43682 0.83376 0.63846 0.0
C1479 C 0.39544 0.82952 0.67739 0.0
N1480 N 0.49116 0.84783 0.65876 0.0
N1481 N 0.42076 0.83887 0.68445 0.0
H1482 H 0.14801 0.49982 0.73143 0.0
H1483 H 0.15958 0.39816 0.61323 0.0
H1484 H 0.16798 0.53485 0.65243 0.0
H1485 H 0.2169 0.3873 0.68014 0.0
H1486 H 0.15205 0.44524 0.6278 0.0
H1487 H 0.16193 0.45453 0.71435 0.0
C1488 C 0.15518 0.498 0.71047 0.0
C1489 C 0.15718 0.52122 0.69342 0.0
C1490 C 0.1667 0.43261 0.63884 0.0
C1491 C 0.17215 0.46948 0.67371 0.0
C1492 C 0.17158 0.40573 0.63022 0.0
C1493 C 0.19016 0.38878 0.64454 0.0
C1494 C 0.1793 0.44224 0.66273 0.0
C1495 C 0.20285 0.39966 0.6681 0.0
C1496 C 0.16321 0.47223 0.70088 0.0
C1497 C 0.16631 0.51753 0.66631 0.0
N1498 N 0.19689 0.4256 0.67673 0.0
N1499 N 0.17314 0.49201 0.65712 0.0
H1500 H 0.49802 0.14257 0.74068 0.0
H1501 H 0.59058 0.18893 0.61424 0.0
H1502 H 0.46305 0.1666 0.66276 0.0
H1503 H 0.61903 0.19003 0.69806 0.0
H1504 H 0.54405 0.17882 0.63065 0.0
H1505 H 0.54303 0.15717 0.72448 0.0
C1506 C 0.49981 0.15069 0.72004 0.0
C1507 C 0.47667 0.15323 0.70299 0.0
C1508 C 0.56042 0.18151 0.64546 0.0
C1509 C 0.52838 0.16995 0.68428 0.0
C1510 C 0.58692 0.18719 0.63611 0.0
C1511 C 0.60861 0.18997 0.65485 0.0
C1512 C 0.5557 0.17829 0.67373 0.0
C1513 C 0.60282 0.18799 0.68297 0.0
C1514 C 0.52554 0.15924 0.71089 0.0
C1515 C 0.48032 0.16422 0.67657 0.0
N1516 N 0.57697 0.18191 0.69156 0.0
N1517 N 0.50573 0.17201 0.66795 0.0
H1518 H 0.83947 0.59855 0.61869 0.0
H1519 H 0.84786 0.49978 0.74131 0.0
H1520 H 0.78622 0.61385 0.68798 0.0
H1521 H 0.8336 0.4641 0.66142 0.0
H1522 H 0.83397 0.54466 0.72321 0.0
H1523 H 0.84541 0.55146 0.6342 0.0
C1524 C 0.82801 0.59197 0.63646 0.0
C1525 C 0.81118 0.61022 0.65127 0.0
C1526 C 0.83383 0.52692 0.70976 0.0
C1527 C 0.82012 0.55664 0.67036 0.0
C1528 C 0.84183 0.50136 0.71997 0.0
C1529 C 0.84159 0.47809 0.70291 0.0
C1530 C 0.82668 0.52945 0.68202 0.0
C1531 C 0.83388 0.48146 0.67531 0.0
C1532 C 0.83195 0.56505 0.64558 0.0
C1533 C 0.79901 0.60051 0.67562 0.0
N1534 N 0.8271 0.50681 0.66557 0.0
N1535 N 0.80405 0.57451 0.68465 0.0
H1536 H 0.35976 0.40682 0.22251 0.0
H1537 H 0.27143 0.50208 0.12212 0.0
H1538 H 0.32997 0.38021 0.14358 0.0
H1539 H 0.32389 0.53576 0.1852 0.0
H1540 H 0.28852 0.45622 0.1331 0.0
H1541 H 0.34243 0.45341 0.21266 0.0
C1542 C 0.34966 0.4109 0.2031 0.0
C1543 C 0.34675 0.39 0.18354 0.0
C1544 C 0.29642 0.47366 0.14443 0.0
C1545 C 0.32661 0.44261 0.17235 0.0
C1546 C 0.28668 0.49988 0.13816 0.0
C1547 C 0.29644 0.52289 0.15256 0.0
C1548 C 0.31586 0.47028 0.16545 0.0
C1549 C 0.31602 0.51866 0.17335 0.0
C1550 C 0.33988 0.43737 0.19746 0.0
C1551 C 0.33324 0.39601 0.15885 0.0
N1552 N 0.32502 0.49283 0.17926 0.0
N1553 N 0.32362 0.42174 0.15397 0.0
H1554 H 0.38905 0.60035 0.81465 0.0
H1555 H 0.26709 0.51094 0.87844 0.0
H1556 H 0.30726 0.63124 0.82867 0.0
H1557 H 0.33866 0.4737 0.84153 0.0
H1558 H 0.28492 0.55614 0.86637 0.0
H1559 H 0.37367 0.55443 0.82905 0.0
C1560 C 0.36786 0.5974 0.8207 0.0
C1561 C 0.34939 0.61954 0.82065 0.0
C1562 C 0.2968 0.53809 0.86104 0.0
C1563 C 0.33179 0.56744 0.83729 0.0
C1564 C 0.28675 0.51222 0.86813 0.0
C1565 C 0.30129 0.48838 0.86082 0.0
C1566 C 0.3217 0.54027 0.8467 0.0
C1567 C 0.32668 0.49148 0.84746 0.0
C1568 C 0.35911 0.57126 0.82887 0.0
C1569 C 0.3221 0.61466 0.82832 0.0
N1570 N 0.33605 0.51697 0.84072 0.0
N1571 N 0.31417 0.58919 0.83655 0.0
H1572 H 0.37079 0.30908 0.83839 0.0
H1573 H 0.5298 0.34166 0.8532 0.0
H1574 H 0.40266 0.39144 0.83075 0.0
H1575 H 0.49161 0.26967 0.8884 0.0
H1576 H 0.48425 0.36018 0.84292 0.0
H1577 H 0.41618 0.29329 0.85313 0.0
C1578 C 0.38748 0.32376 0.83961 0.0
C1579 C 0.38311 0.35157 0.83352 0.0
C1580 C 0.48589 0.34051 0.85324 0.0
C1581 C 0.43487 0.33381 0.85047 0.0
C1582 C 0.51187 0.32997 0.85922 0.0
C1583 C 0.51456 0.304 0.87157 0.0
C1584 C 0.46251 0.32477 0.85924 0.0
C1585 C 0.49057 0.28976 0.87886 0.0
C1586 C 0.41324 0.31484 0.84831 0.0
C1587 C 0.40526 0.36986 0.83557 0.0
N1588 N 0.46556 0.30015 0.87222 0.0
N1589 N 0.43029 0.36064 0.84381 0.0
H1590 H 0.70153 0.50424 0.89339 0.0
H1591 H 0.62369 0.40216 0.79072 0.0
H1592 H 0.66226 0.53163 0.81868 0.0
H1593 H 0.65758 0.37778 0.86877 0.0
H1594 H 0.63674 0.45001 0.80056 0.0
H1595 H 0.68332 0.45827 0.8856 0.0
C1596 C 0.68875 0.5007 0.87552 0.0
C1597 C 0.68361 0.52182 0.85656 0.0
C1598 C 0.64111 0.43422 0.81562 0.0
C1599 C 0.66303 0.46895 0.84724 0.0
C1600 C 0.63381 0.40699 0.80993 0.0
C1601 C 0.63912 0.38632 0.82924 0.0
C1602 C 0.65411 0.44055 0.84064 0.0
C1603 C 0.6525 0.39336 0.85371 0.0
C1604 C 0.67844 0.47436 0.87101 0.0
C1605 C 0.66681 0.51597 0.83383 0.0
N1606 N 0.65951 0.41988 0.85872 0.0
N1607 N 0.65737 0.48999 0.82963 0.0
H1608 H 0.50799 0.74185 0.85569 0.0
H1609 H 0.59608 0.6143 0.80362 0.0
H1610 H 0.47082 0.66653 0.82697 0.0
H1611 H 0.62778 0.69702 0.80576 0.0
H1612 H 0.55034 0.63207 0.81477 0.0
H1613 H 0.55278 0.72458 0.8412 0.0
C1614 C 0.50925 0.72156 0.84661 0.0
C1615 C 0.48557 0.70562 0.84253 0.0
C1616 C 0.56723 0.64637 0.81252 0.0
C1617 C 0.53682 0.68577 0.82594 0.0
C1618 C 0.59325 0.63625 0.80617 0.0
C1619 C 0.61556 0.65428 0.80394 0.0
C1620 C 0.56367 0.67467 0.81705 0.0
C1621 C 0.61097 0.68253 0.80722 0.0
C1622 C 0.53482 0.71184 0.83813 0.0
C1623 C 0.4885 0.67955 0.8305 0.0
N1624 N 0.58554 0.69187 0.81397 0.0
N1625 N 0.51367 0.6704 0.82271 0.0
H1626 H 0.72504 0.49631 0.10737 0.0
H1627 H 0.60718 0.59495 0.16462 0.0
H1628 H 0.65599 0.46457 0.15318 0.0
H1629 H 0.69061 0.62071 0.15004 0.0
H1630 H 0.62031 0.54755 0.15268 0.0
H1631 H 0.70739 0.5427 0.11374 0.0
C1632 C 0.70592 0.49898 0.11841 0.0
C1633 C 0.69216 0.47642 0.13004 0.0
C1634 C 0.63565 0.56365 0.15205 0.0
C1635 C 0.67196 0.52974 0.13751 0.0
C1636 C 0.62818 0.59061 0.15875 0.0
C1637 C 0.64788 0.61165 0.1582 0.0
C1638 C 0.66285 0.55796 0.14435 0.0
C1639 C 0.67488 0.60501 0.15084 0.0
C1640 C 0.69598 0.52556 0.12219 0.0
C1641 C 0.66739 0.48134 0.14404 0.0
N1642 N 0.68153 0.57878 0.14403 0.0
N1643 N 0.65814 0.50754 0.14754 0.0
H1644 H 0.37085 0.70324 0.1824 0.0
H1645 H 0.52841 0.66483 0.15766 0.0
H1646 H 0.40013 0.61955 0.18045 0.0
H1647 H 0.49294 0.74313 0.13528 0.0
H1648 H 0.48274 0.64856 0.17081 0.0
H1649 H 0.4172 0.71923 0.17134 0.0
C1650 C 0.3871 0.68824 0.1798 0.0
C1651 C 0.38161 0.66001 0.18182 0.0
C1652 C 0.485 0.66925 0.16289 0.0
C1653 C 0.43452 0.67809 0.16902 0.0
C1654 C 0.51104 0.67854 0.15531 0.0
C1655 C 0.51456 0.7054 0.14529 0.0
C1656 C 0.46238 0.68703 0.16075 0.0
C1657 C 0.49126 0.72224 0.14276 0.0
C1658 C 0.41346 0.69736 0.17326 0.0
C1659 C 0.40338 0.64145 0.17836 0.0
N1660 N 0.46621 0.71285 0.15063 0.0
N1661 N 0.42891 0.65081 0.17205 0.0
H1662 H 0.46762 0.34046 0.17099 0.0
H1663 H 0.62641 0.3022 0.1869 0.0
H1664 H 0.50223 0.26297 0.14495 0.0
H1665 H 0.5973 0.38593 0.18494 0.0
H1666 H 0.57933 0.28615 0.17929 0.0
H1667 H 0.51385 0.35645 0.18273 0.0
C1668 C 0.48491 0.32686 0.16764 0.0
C1669 C 0.48106 0.3004 0.15681 0.0
C1670 C 0.58325 0.30803 0.18059 0.0
C1671 C 0.53378 0.31836 0.17066 0.0
C1672 C 0.61002 0.31716 0.18515 0.0
C1673 C 0.61566 0.34539 0.18609 0.0
C1674 C 0.56201 0.32731 0.17735 0.0
C1675 C 0.59377 0.36399 0.18377 0.0
C1676 C 0.51124 0.33598 0.17438 0.0
C1677 C 0.50422 0.28361 0.153 0.0
N1678 N 0.56785 0.35462 0.17941 0.0
N1679 N 0.52956 0.29282 0.16006 0.0
H1680 H 0.01984 0.42961 0.23234 0.0
H1681 H 0.95212 0.56548 0.19166 0.0
H1682 H 0.06814 0.48877 0.18747 0.0
H1683 H 0.90684 0.4892 0.18864 0.0
H1684 H 0.99499 0.53933 0.18794 0.0
H1685 H 0.97809 0.4516 0.21565 0.0
C1686 C 0.02159 0.44697 0.2185 0.0
C1687 C 0.04732 0.45742 0.21114 0.0
C1688 C 0.97559 0.52846 0.18732 0.0
C1689 C -0.00031 0.48327 0.19273 0.0
C1690 C 0.95112 0.54333 0.1895 0.0
C1691 C 0.92588 0.52945 0.19115 0.0
C1692 C 0.97469 0.49962 0.18731 0.0
C1693 C 0.92582 0.50076 0.18801 0.0
C1694 C 0.99778 0.45947 0.20892 0.0
C1695 C 0.04854 0.48011 0.19339 0.0
N1696 N 0.94989 0.48674 0.18694 0.0
N1697 N 0.02494 0.4928 0.18526 0.0
H1698 H 0.56718 0.0138 0.20876 0.0
H1699 H 0.42083 0.97262 0.23585 0.0
H1700 H 0.50331 0.07417 0.19817 0.0
H1701 H 0.47339 0.9154 0.19341 0.0
H1702 H 0.44953 0.01056 0.21956 0.0
H1703 H 0.53379 0.97731 0.19959 0.0
C1704 C 0.54628 0.01932 0.20346 0.0
C1705 C 0.53784 0.04683 0.20403 0.0
C1706 C 0.45435 0.9898 0.21312 0.0
C1707 C 0.49946 0.00545 0.19487 0.0
C1708 C 0.43808 0.96819 0.22251 0.0
C1709 C 0.44499 0.94101 0.21604 0.0
C1710 C 0.47823 0.98399 0.19807 0.0
C1711 C 0.46748 0.93618 0.19876 0.0
C1712 C 0.52724 0.99856 0.19828 0.0
C1713 C 0.51052 0.0531 0.1976 0.0
N1714 N 0.48386 0.95747 0.19098 0.0
N1715 N 0.49201 0.03247 0.19407 0.0
H1716 H 0.0261 0.561 0.73972 0.0
H1717 H 0.95481 0.43936 0.80436 0.0
H1718 H 0.07044 0.52179 0.80569 0.0
H1719 H 0.91042 0.51561 0.79426 0.0
H1720 H 0.99799 0.46541 0.80465 0.0
H1721 H 0.98355 0.54119 0.75703 0.0
C1722 C 0.0268 0.54845 0.75809 0.0
C1723 C 0.05168 0.54312 0.77146 0.0
C1724 C 0.97867 0.47636 0.8032 0.0
C1725 C 0.00323 0.51972 0.79081 0.0
C1726 C 0.95405 0.46158 0.80295 0.0
C1727 C 0.929 0.47528 0.79868 0.0
C1728 C 0.97807 0.50481 0.79856 0.0
C1729 C 0.92924 0.50411 0.79715 0.0
C1730 C 0.00252 0.53726 0.768 0.0
C1731 C 0.05151 0.52646 0.79501 0.0
N1732 N 0.95345 0.51785 0.7963 0.0
N1733 N 0.0276 0.51472 0.80368 0.0
H1734 H 0.51724 0.9288 0.80524 0.0
H1735 H 0.51015 0.09264 0.80887 0.0
H1736 H 0.57845 0.98353 0.77217 0.0
H1737 H 0.43807 0.04134 0.8024 0.0
H1738 H 0.53819 0.05147 0.81466 0.0
H1739 H 0.49146 0.96903 0.8222 0.0
C1740 C 0.52565 0.94922 0.80241 0.0
C1741 C 0.5498 0.9531 0.78726 0.0
C1742 C 0.51615 0.04931 0.81261 0.0
C1743 C 0.52096 0.99862 0.80662 0.0
C1744 C 0.50008 0.07278 0.80933 0.0
C1745 C 0.4718 0.07038 0.80435 0.0
C1746 C 0.50385 0.02329 0.81102 0.0
C1747 C 0.45988 0.0441 0.80564 0.0
C1748 C 0.51094 0.97205 0.81191 0.0
C1749 C 0.55981 0.97982 0.78369 0.0
N1750 N 0.47607 0.02146 0.80835 0.0
N1751 N 0.54528 0.00161 0.79318 0.0
H1752 H 0.23221 0.97087 0.57516 0.0
H1753 H 0.18767 0.03552 0.43902 0.0
H1754 H 0.18827 0.92057 0.51703 0.0
H1755 H 0.18675 0.08216 0.51445 0.0
H1756 H 0.18476 0.99305 0.46594 0.0
H1757 H 0.21396 0.0119 0.55309 0.0
C1758 C 0.21821 0.96851 0.55803 0.0
C1759 C 0.21159 0.94242 0.5479 0.0
C1760 C 0.18441 0.01265 0.47649 0.0
C1761 C 0.19142 0.98932 0.52187 0.0
C1762 C 0.18613 0.03691 0.46116 0.0
C1763 C 0.18825 0.06242 0.47454 0.0
C1764 C 0.18526 0.01403 0.50527 0.0
C1765 C 0.1858 0.06296 0.50325 0.0
C1766 C 0.20774 0.99194 0.54546 0.0
C1767 C 0.19364 0.94045 0.52546 0.0
N1768 N 0.18514 0.0391 0.51768 0.0
N1769 N 0.18465 0.96371 0.51266 0.0
H1770 H 0.05152 0.19697 0.56464 0.0
H1771 H 0.96091 0.1994 0.42897 0.0
H1772 H 0.08525 0.19903 0.48269 0.0
H1773 H 0.92745 0.19831 0.51106 0.0
H1774 H 0.0063 0.18974 0.44794 0.0
H1775 H 0.00626 0.18787 0.54523 0.0
C1776 C 0.04952 0.19504 0.54258 0.0
C1777 C 0.07215 0.19932 0.52524 0.0
C1778 C 0.98896 0.19117 0.46178 0.0
C1779 C 0.02024 0.18919 0.50284 0.0
C1780 C 0.96299 0.19665 0.45095 0.0
C1781 C 0.9404 0.20023 0.4685 0.0
C1782 C 0.99242 0.18941 0.49037 0.0
C1783 C 0.94433 0.19613 0.49677 0.0
C1784 C 0.02361 0.18988 0.53149 0.0
C1785 C 0.06833 0.19624 0.49683 0.0
N1786 N 0.96991 0.19137 0.50686 0.0
N1787 N 0.04279 0.19182 0.4865 0.0
H1788 H 0.76148 0.0165 0.57258 0.0
H1789 H 0.77043 0.98294 0.42279 0.0
H1790 H 0.7958 0.07774 0.51857 0.0
H1791 H 0.79557 0.92078 0.48068 0.0
H1792 H 0.78157 0.01847 0.45666 0.0
H1793 H 0.77545 0.98063 0.54016 0.0
C1794 C 0.77261 0.02224 0.55419 0.0
C1795 C 0.77743 0.04994 0.54802 0.0
C1796 C 0.78551 0.99711 0.46164 0.0
C1797 C 0.79261 0.0094 0.51068 0.0
C1798 C 0.77913 0.97692 0.44239 0.0
C1799 C 0.78215 0.9491 0.44914 0.0
C1800 C 0.79383 0.98924 0.4881 0.0
C1801 C 0.79317 0.94213 0.4748 0.0
C1802 C 0.78067 0.00184 0.53579 0.0
C1803 C 0.79182 0.05651 0.52397 0.0
N1804 N 0.79786 0.96209 0.49376 0.0
N1805 N 0.79822 0.03639 0.50568 0.0
H1806 H 0.97309 0.74958 0.56435 0.0
H1807 H 0.04566 0.81083 0.44103 0.0
H1808 H 0.92773 0.81055 0.5187 0.0
H1809 H 0.08846 0.80288 0.51832 0.0
H1810 H 0.00194 0.81144 0.46609 0.0
H1811 H 0.01568 0.7675 0.54532 0.0
C1812 C 0.97217 0.76706 0.5506 0.0
C1813 C 0.94697 0.77879 0.54321 0.0
C1814 C 0.02101 0.81038 0.47749 0.0
C1815 C 0.99559 0.79878 0.52061 0.0
C1816 C 0.04596 0.80996 0.46325 0.0
C1817 C 0.07074 0.80609 0.47756 0.0
C1818 C 0.02101 0.80641 0.50602 0.0
C1819 C 0.06988 0.80535 0.50636 0.0
C1820 C 0.99648 0.77733 0.53981 0.0
C1821 C 0.94689 0.80117 0.52499 0.0
N1822 N 0.04538 0.80471 0.51959 0.0
N1823 N 0.97091 0.81012 0.5137 0.0
H1824 H 0.4856 0.18219 0.92191 0.0
H1825 H 0.42562 0.19867 0.0489 0.0
H1826 H 0.56161 0.19772 0.96475 0.0
H1827 H 0.50753 0.19413 0.08241 0.0
H1828 H 0.44371 0.18692 0.00404 0.0
H1829 H 0.4632 0.17361 0.96574 0.0
C1830 C 0.49765 0.18355 0.94056 0.0
C1831 C 0.52535 0.19143 0.93966 0.0
C1832 C 0.45782 0.18765 0.02113 0.0
C1833 C 0.49955 0.18274 0.99028 0.0
C1834 C 0.44738 0.19452 0.04694 0.0
C1835 C 0.46514 0.19791 0.06938 0.0
C1836 C 0.48632 0.1841 0.01773 0.0
C1837 C 0.49311 0.19216 0.0656 0.0
C1838 C 0.48472 0.17898 0.96576 0.0
C1839 C 0.54007 0.19226 0.96443 0.0
N1840 N 0.50286 0.18599 0.04021 0.0
N1841 N 0.52688 0.18845 0.9887 0.0
H1842 H 0.55958 0.81915 0.04846 0.0
H1843 H 0.44545 0.75364 0.97028 0.0
H1844 H 0.48132 0.80761 0.08852 0.0
H1845 H 0.48201 0.82294 0.92874 0.0
H1846 H 0.46225 0.7713 0.01385 0.0
H1847 H 0.53576 0.82153 0.0041 0.0
C1848 C 0.53738 0.81796 0.04808 0.0
C1849 C 0.52248 0.81232 0.07217 0.0
C1850 C 0.46624 0.78291 0.99527 0.0
C1851 C 0.49549 0.81475 0.02173 0.0
C1852 C 0.4568 0.77279 0.97038 0.0
C1853 C 0.4622 0.78701 0.94595 0.0
C1854 C 0.4822 0.80683 0.99575 0.0
C1855 C 0.47731 0.81157 0.94726 0.0
C1856 C 0.52386 0.81943 0.02277 0.0
C1857 C 0.49373 0.81134 0.07046 0.0
N1858 N 0.48745 0.82047 0.97183 0.0
N1859 N 0.48123 0.81163 0.04556 0.0
H1860 H 0.19225 0.523 0.91678 0.0
H1861 H 0.18996 0.49466 0.07713 0.0
H1862 H 0.18635 0.44228 0.95326 0.0
H1863 H 0.19723 0.57553 0.04123 0.0
H1864 H 0.17796 0.47629 0.03211 0.0
H1865 H 0.18329 0.54339 0.96172 0.0
C1866 C 0.18849 0.50953 0.9341 0.0
C1867 C 0.19072 0.48089 0.93137 0.0
C1868 C 0.18174 0.49814 0.03412 0.0
C1869 C 0.18077 0.50411 0.98292 0.0
C1870 C 0.18859 0.50866 0.05986 0.0
C1871 C 0.19521 0.53657 0.06284 0.0
C1872 C 0.18179 0.5156 0.01112 0.0
C1873 C 0.1927 0.55379 0.03982 0.0
C1874 C 0.18346 0.52121 0.95981 0.0
C1875 C 0.18537 0.46448 0.9545 0.0
N1876 N 0.18667 0.54293 0.01482 0.0
N1877 N 0.18113 0.47633 0.97937 0.0
H1878 H 0.80245 0.42842 0.03951 0.0
H1879 H 0.79215 0.56881 0.95733 0.0
H1880 H 0.80192 0.50835 0.07805 0.0
H1881 H 0.79811 0.48922 0.91854 0.0
H1882 H 0.80391 0.54763 0.00123 0.0
H1883 H 0.80934 0.45056 0.99505 0.0
C1884 C 0.8043 0.4506 0.03871 0.0
C1885 C 0.80105 0.46658 0.06249 0.0
C1886 C 0.80308 0.53484 0.98306 0.0
C1887 C 0.80857 0.4921 0.01157 0.0
C1888 C 0.79636 0.54694 0.95795 0.0
C1889 C 0.79365 0.53068 0.9343 0.0
C1890 C 0.80685 0.50623 0.9846 0.0
C1891 C 0.79962 0.5025 0.9363 0.0
C1892 C 0.80819 0.46325 0.01328 0.0
C1893 C 0.80393 0.49522 0.06022 0.0
N1894 N 0.8055 0.4911 0.9611 0.0
N1895 N 0.80704 0.50708 0.03515 0.0
loop_
_geom_bond_atom_site_label_1
_geom_bond_atom_site_label_2
_geom_bond_distance
_geom_bond_site_symmetry_2
_ccdc_geom_bond_type
Co0 O3 1.970 . S
Co0 N17 1.989 . S
Co0 O25 1.967 . S
Co0 O32 1.920 . S
Co1 O4 1.966 . S
Co1 N10 2.022 . S
Co1 N18 1.993 . S
Co1 O26 1.941 . S
C2 O3 1.258 . S
C2 O4 1.263 . S
O3 Co0 1.970 . S
O3 C2 1.258 . S
O4 Co1 1.966 . S
O4 C2 1.263 . S
C5 O6 1.235 . S
C5 O32 1.289 . S
O6 C5 1.235 . S
C7 C9 1.400 . S
C7 N10 1.351 . S
C7 C12 1.501 . S
C8 C9 1.387 . S
C8 N11 1.341 . S
C9 C7 1.400 . S
C9 C8 1.387 . S
N10 Co1 2.022 . S
N10 C7 1.351 . S
N10 N11 1.365 . S
N11 C8 1.341 . S
N11 N10 1.365 . S
N11 H31 0.862 . S
C12 C7 1.501 . S
C12 H13 0.961 . S
C12 H14 0.961 . S
C12 H15 0.960 . S
H13 C12 0.961 . S
H14 C12 0.961 . S
H15 C12 0.960 . S
C16 N17 1.342 . S
C16 C20 1.401 . S
C16 C21 1.499 . S
N17 Co0 1.989 . S
N17 C16 1.342 . S
N17 N18 1.388 . S
N18 Co1 1.993 . S
N18 N17 1.388 . S
N18 C19 1.346 . S
C19 N18 1.346 . S
C19 C20 1.396 . S
C19 C29 1.510 . S
C20 C16 1.401 . S
C20 C19 1.396 . S
C21 C16 1.499 . S
C21 H22 0.959 . S
C21 H23 0.960 . S
C21 H24 0.961 . S
H22 C21 0.959 . S
H23 C21 0.960 . S
H24 C21 0.961 . S
O25 Co0 1.967 . S
O25 C33 1.258 . S
O26 Co1 1.941 . S
O26 C33 1.266 . S
H27 C29 0.959 . S
H28 C29 0.961 . S
C29 C19 1.510 . S
C29 H27 0.959 . S
C29 H28 0.961 . S
C29 H30 0.960 . S
H30 C29 0.960 . S
H31 N11 0.862 . S
O32 Co0 1.920 . S
O32 C5 1.289 . S
C33 O25 1.258 . S
C33 O26 1.266 . S
Co34 O37 1.970 . S
Co34 N51 1.989 . S
Co34 O59 1.967 . S
Co34 O66 1.920 . S
Co35 O38 1.966 . S
Co35 N44 2.022 . S
Co35 N52 1.993 . S
Co35 O60 1.941 . S
C36 O37 1.258 . S
C36 O38 1.263 . S
O37 Co34 1.970 . S
O37 C36 1.258 . S
O38 Co35 1.966 . S
O38 C36 1.263 . S
C39 O40 1.235 . S
C39 O66 1.289 . S
O40 C39 1.235 . S
C41 C43 1.400 . S
C41 N44 1.351 . S
C41 C46 1.501 . S
C42 C43 1.387 . S
C42 N45 1.341 . S
C43 C41 1.400 . S
C43 C42 1.387 . S
N44 Co35 2.022 . S
N44 C41 1.351 . S
N44 N45 1.365 . S
N45 C42 1.341 . S
N45 N44 1.365 . S
N45 H65 0.862 . S
C46 C41 1.501 . S
C46 H47 0.961 . S
C46 H48 0.961 . S
C46 H49 0.960 . S
H47 C46 0.961 . S
H48 C46 0.961 . S
H49 C46 0.960 . S
C50 N51 1.342 . S
C50 C54 1.401 . S
C50 C55 1.499 . S
N51 Co34 1.989 . S
N51 C50 1.342 . S
N51 N52 1.388 . S
N52 Co35 1.993 . S
N52 N51 1.388 . S
N52 C53 1.346 . S
C53 N52 1.346 . S
C53 C54 1.396 . S
C53 C63 1.510 . S
C54 C50 1.401 . S
C54 C53 1.396 . S
C55 C50 1.499 . S
C55 H56 0.959 . S
C55 H57 0.960 . S
C55 H58 0.961 . S
H56 C55 0.959 . S
H57 C55 0.960 . S
H58 C55 0.961 . S
O59 Co34 1.967 . S
O59 C67 1.258 . S
O60 Co35 1.941 . S
O60 C67 1.266 . S
H61 C63 0.959 . S
H62 C63 0.961 . S
C63 C53 1.510 . S
C63 H61 0.959 . S
C63 H62 0.961 . S
C63 H64 0.960 . S
H64 C63 0.960 . S
H65 N45 0.862 . S
O66 Co34 1.920 . S
O66 C39 1.289 . S
C67 O59 1.258 . S
C67 O60 1.266 . S
Co68 O71 1.970 . S
Co68 N85 1.989 . S
Co68 O93 1.967 . S
Co68 O100 1.920 . S
Co69 O72 1.966 . S
Co69 N78 2.022 . S
Co69 N86 1.993 . S
Co69 O94 1.941 . S
C70 O71 1.258 . S
C70 O72 1.263 . S
O71 Co68 1.970 . S
O71 C70 1.258 . S
O72 Co69 1.966 . S
O72 C70 1.263 . S
C73 O74 1.235 . S
C73 O100 1.289 . S
O74 C73 1.235 . S
C75 C77 1.400 . S
C75 N78 1.351 . S
C75 C80 1.501 . S
C76 C77 1.387 . S
C76 N79 1.341 . S
C77 C75 1.400 . S
C77 C76 1.387 . S
N78 Co69 2.022 . S
N78 C75 1.351 . S
N78 N79 1.365 . S
N79 C76 1.341 . S
N79 N78 1.365 . S
N79 H99 0.862 . S
C80 C75 1.501 . S
C80 H81 0.961 . S
C80 H82 0.961 . S
C80 H83 0.960 . S
H81 C80 0.961 . S
H82 C80 0.961 . S
H83 C80 0.960 . S
C84 N85 1.342 . S
C84 C88 1.401 . S
C84 C89 1.499 . S
N85 Co68 1.989 . S
N85 C84 1.342 . S
N85 N86 1.388 . S
N86 Co69 1.993 . S
N86 N85 1.388 . S
N86 C87 1.346 . S
C87 N86 1.346 . S
C87 C88 1.396 . S
C87 C97 1.510 . S
C88 C84 1.401 . S
C88 C87 1.396 . S
C89 C84 1.499 . S
C89 H90 0.959 . S
C89 H91 0.960 . S
C89 H92 0.961 . S
H90 C89 0.959 . S
H91 C89 0.960 . S
H92 C89 0.961 . S
O93 Co68 1.967 . S
O93 C101 1.258 . S
O94 Co69 1.941 . S
O94 C101 1.266 . S
H95 C97 0.959 . S
H96 C97 0.961 . S
C97 C87 1.510 . S
C97 H95 0.959 . S
C97 H96 0.961 . S
C97 H98 0.960 . S
H98 C97 0.960 . S
H99 N79 0.862 . S
O100 Co68 1.920 . S
O100 C73 1.289 . S
C101 O93 1.258 . S
C101 O94 1.266 . S
Co102 O105 1.970 . S
Co102 N119 1.989 . S
Co102 O127 1.967 . S
Co102 O134 1.920 . S
Co103 O106 1.966 . S
Co103 N112 2.022 . S
Co103 N120 1.993 . S
Co103 O128 1.941 . S
C104 O105 1.258 . S
C104 O106 1.263 . S
O105 Co102 1.970 . S
O105 C104 1.258 . S
O106 Co103 1.966 . S
O106 C104 1.263 . S
C107 O108 1.235 . S
C107 O134 1.289 . S
O108 C107 1.235 . S
C109 C111 1.400 . S
C109 N112 1.351 . S
C109 C114 1.501 . S
C110 C111 1.387 . S
C110 N113 1.341 . S
C111 C109 1.400 . S
C111 C110 1.387 . S
N112 Co103 2.022 . S
N112 C109 1.351 . S
N112 N113 1.365 . S
N113 C110 1.341 . S
N113 N112 1.365 . S
N113 H133 0.862 . S
C114 C109 1.501 . S
C114 H115 0.961 . S
C114 H116 0.961 . S
C114 H117 0.960 . S
H115 C114 0.961 . S
H116 C114 0.961 . S
H117 C114 0.960 . S
C118 N119 1.342 . S
C118 C122 1.401 . S
C118 C123 1.499 . S
N119 Co102 1.989 . S
N119 C118 1.342 . S
N119 N120 1.388 . S
N120 Co103 1.993 . S
N120 N119 1.388 . S
N120 C121 1.346 . S
C121 N120 1.346 . S
C121 C122 1.396 . S
C121 C131 1.510 . S
C122 C118 1.401 . S
C122 C121 1.396 . S
C123 C118 1.499 . S
C123 H124 0.959 . S
C123 H125 0.960 . S
C123 H126 0.961 . S
H124 C123 0.959 . S
H125 C123 0.960 . S
H126 C123 0.961 . S
O127 Co102 1.967 . S
O127 C135 1.258 . S
O128 Co103 1.941 . S
O128 C135 1.266 . S
H129 C131 0.959 . S
H130 C131 0.961 . S
C131 C121 1.510 . S
C131 H129 0.959 . S
C131 H130 0.961 . S
C131 H132 0.960 . S
H132 C131 0.960 . S
H133 N113 0.862 . S
O134 Co102 1.920 . S
O134 C107 1.289 . S
C135 O127 1.258 . S
C135 O128 1.266 . S
Co136 O139 1.970 . S
Co136 N153 1.989 . S
Co136 O161 1.967 . S
Co136 O168 1.920 . S
Co137 O140 1.966 . S
Co137 N146 2.022 . S
Co137 N154 1.993 . S
Co137 O162 1.941 . S
C138 O139 1.258 . S
C138 O140 1.263 . S
O139 Co136 1.970 . S
O139 C138 1.258 . S
O140 Co137 1.966 . S
O140 C138 1.263 . S
C141 O142 1.235 . S
C141 O168 1.289 . S
O142 C141 1.235 . S
C143 C145 1.400 . S
C143 N146 1.351 . S
C143 C148 1.501 . S
C144 C145 1.387 . S
C144 N147 1.341 . S
C145 C143 1.400 . S
C145 C144 1.387 . S
N146 Co137 2.022 . S
N146 C143 1.351 . S
N146 N147 1.365 . S
N147 C144 1.341 . S
N147 N146 1.365 . S
N147 H167 0.862 . S
C148 C143 1.501 . S
C148 H149 0.961 . S
C148 H150 0.961 . S
C148 H151 0.960 . S
H149 C148 0.961 . S
H150 C148 0.961 . S
H151 C148 0.960 . S
C152 N153 1.342 . S
C152 C156 1.401 . S
C152 C157 1.499 . S
N153 Co136 1.989 . S
N153 C152 1.342 . S
N153 N154 1.388 . S
N154 Co137 1.993 . S
N154 N153 1.388 . S
N154 C155 1.346 . S
C155 N154 1.346 . S
C155 C156 1.396 . S
C155 C165 1.510 . S
C156 C152 1.401 . S
C156 C155 1.396 . S
C157 C152 1.499 . S
C157 H158 0.959 . S
C157 H159 0.960 . S
C157 H160 0.961 . S
H158 C157 0.959 . S
H159 C157 0.960 . S
H160 C157 0.961 . S
O161 Co136 1.967 . S
O161 C169 1.258 . S
O162 Co137 1.941 . S
O162 C169 1.266 . S
H163 C165 0.959 . S
H164 C165 0.961 . S
C165 C155 1.510 . S
C165 H163 0.959 . S
C165 H164 0.961 . S
C165 H166 0.960 . S
H166 C165 0.960 . S
H167 N147 0.862 . S
O168 Co136 1.920 . S
O168 C141 1.289 . S
C169 O161 1.258 . S
C169 O162 1.266 . S
Co170 O173 1.970 . S
Co170 N187 1.989 . S
Co170 O195 1.967 . S
Co170 O202 1.920 . S
Co171 O174 1.966 . S
Co171 N180 2.022 . S
Co171 N188 1.993 . S
Co171 O196 1.941 . S
C172 O173 1.258 . S
C172 O174 1.263 . S
O173 Co170 1.970 . S
O173 C172 1.258 . S
O174 Co171 1.966 . S
O174 C172 1.263 . S
C175 O176 1.235 . S
C175 O202 1.289 . S
O176 C175 1.235 . S
C177 C179 1.400 . S
C177 N180 1.351 . S
C177 C182 1.501 . S
C178 C179 1.387 . S
C178 N181 1.341 . S
C179 C177 1.400 . S
C179 C178 1.387 . S
N180 Co171 2.022 . S
N180 C177 1.351 . S
N180 N181 1.365 . S
N181 C178 1.341 . S
N181 N180 1.365 . S
N181 H201 0.862 . S
C182 C177 1.501 . S
C182 H183 0.961 . S
C182 H184 0.961 . S
C182 H185 0.960 . S
H183 C182 0.961 . S
H184 C182 0.961 . S
H185 C182 0.960 . S
C186 N187 1.342 . S
C186 C190 1.401 . S
C186 C191 1.499 . S
N187 Co170 1.989 . S
N187 C186 1.342 . S
N187 N188 1.388 . S
N188 Co171 1.993 . S
N188 N187 1.388 . S
N188 C189 1.346 . S
C189 N188 1.346 . S
C189 C190 1.396 . S
C189 C199 1.510 . S
C190 C186 1.401 . S
C190 C189 1.396 . S
C191 C186 1.499 . S
C191 H192 0.959 . S
C191 H193 0.960 . S
C191 H194 0.961 . S
H192 C191 0.959 . S
H193 C191 0.960 . S
H194 C191 0.961 . S
O195 Co170 1.967 . S
O195 C203 1.258 . S
O196 Co171 1.941 . S
O196 C203 1.266 . S
H197 C199 0.959 . S
H198 C199 0.961 . S
C199 C189 1.510 . S
C199 H197 0.959 . S
C199 H198 0.961 . S
C199 H200 0.960 . S
H200 C199 0.960 . S
H201 N181 0.862 . S
O202 Co170 1.920 . S
O202 C175 1.289 . S
C203 O195 1.258 . S
C203 O196 1.266 . S
Co204 O207 1.970 . S
Co204 N221 1.989 . S
Co204 O229 1.967 . S
Co204 O236 1.920 . S
Co205 O208 1.966 . S
Co205 N214 2.022 . S
Co205 N222 1.993 . S
Co205 O230 1.941 . S
C206 O207 1.258 . S
C206 O208 1.263 . S
O207 Co204 1.970 . S
O207 C206 1.258 . S
O208 Co205 1.966 . S
O208 C206 1.263 . S
C209 O210 1.235 . S
C209 O236 1.289 . S
O210 C209 1.235 . S
C211 C213 1.400 . S
C211 N214 1.351 . S
C211 C216 1.501 . S
C212 C213 1.387 . S
C212 N215 1.341 . S
C213 C211 1.400 . S
C213 C212 1.387 . S
N214 Co205 2.022 . S
N214 C211 1.351 . S
N214 N215 1.365 . S
N215 C212 1.341 . S
N215 N214 1.365 . S
N215 H235 0.862 . S
C216 C211 1.501 . S
C216 H217 0.961 . S
C216 H218 0.961 . S
C216 H219 0.960 . S
H217 C216 0.961 . S
H218 C216 0.961 . S
H219 C216 0.960 . S
C220 N221 1.342 . S
C220 C224 1.401 . S
C220 C225 1.499 . S
N221 Co204 1.989 . S
N221 C220 1.342 . S
N221 N222 1.388 . S
N222 Co205 1.993 . S
N222 N221 1.388 . S
N222 C223 1.346 . S
C223 N222 1.346 . S
C223 C224 1.396 . S
C223 C233 1.510 . S
C224 C220 1.401 . S
C224 C223 1.396 . S
C225 C220 1.499 . S
C225 H226 0.959 . S
C225 H227 0.960 . S
C225 H228 0.961 . S
H226 C225 0.959 . S
H227 C225 0.960 . S
H228 C225 0.961 . S
O229 Co204 1.967 . S
O229 C237 1.258 . S
O230 Co205 1.941 . S
O230 C237 1.266 . S
H231 C233 0.959 . S
H232 C233 0.961 . S
C233 C223 1.510 . S
C233 H231 0.959 . S
C233 H232 0.961 . S
C233 H234 0.960 . S
H234 C233 0.960 . S
H235 N215 0.862 . S
O236 Co204 1.920 . S
O236 C209 1.289 . S
C237 O229 1.258 . S
C237 O230 1.266 . S
Co238 O241 1.970 . S
Co238 N255 1.989 . S
Co238 O263 1.967 . S
Co238 O270 1.920 . S
Co239 O242 1.966 . S
Co239 N248 2.022 . S
Co239 N256 1.993 . S
Co239 O264 1.941 . S
C240 O241 1.258 . S
C240 O242 1.263 . S
O241 Co238 1.970 . S
O241 C240 1.258 . S
O242 Co239 1.966 . S
O242 C240 1.263 . S
C243 O244 1.235 . S
C243 O270 1.289 . S
O244 C243 1.235 . S
C245 C247 1.400 . S
C245 N248 1.351 . S
C245 C250 1.501 . S
C246 C247 1.387 . S
C246 N249 1.341 . S
C247 C245 1.400 . S
C247 C246 1.387 . S
N248 Co239 2.022 . S
N248 C245 1.351 . S
N248 N249 1.365 . S
N249 C246 1.341 . S
N249 N248 1.365 . S
N249 H269 0.862 . S
C250 C245 1.501 . S
C250 H251 0.961 . S
C250 H252 0.961 . S
C250 H253 0.960 . S
H251 C250 0.961 . S
H252 C250 0.961 . S
H253 C250 0.960 . S
C254 N255 1.342 . S
C254 C258 1.401 . S
C254 C259 1.499 . S
N255 Co238 1.989 . S
N255 C254 1.342 . S
N255 N256 1.388 . S
N256 Co239 1.993 . S
N256 N255 1.388 . S
N256 C257 1.346 . S
C257 N256 1.346 . S
C257 C258 1.396 . S
C257 C267 1.510 . S
C258 C254 1.401 . S
C258 C257 1.396 . S
C259 C254 1.499 . S
C259 H260 0.959 . S
C259 H261 0.960 . S
C259 H262 0.961 . S
H260 C259 0.959 . S
H261 C259 0.960 . S
H262 C259 0.961 . S
O263 Co238 1.967 . S
O263 C271 1.258 . S
O264 Co239 1.941 . S
O264 C271 1.266 . S
H265 C267 0.959 . S
H266 C267 0.961 . S
C267 C257 1.510 . S
C267 H265 0.959 . S
C267 H266 0.961 . S
C267 H268 0.960 . S
H268 C267 0.960 . S
H269 N249 0.862 . S
O270 Co238 1.920 . S
O270 C243 1.289 . S
C271 O263 1.258 . S
C271 O264 1.266 . S
Co272 O275 1.970 . S
Co272 N289 1.989 . S
Co272 O297 1.967 . S
Co272 O304 1.920 . S
Co273 O276 1.966 . S
Co273 N282 2.022 . S
Co273 N290 1.993 . S
Co273 O298 1.941 . S
C274 O275 1.258 . S
C274 O276 1.263 . S
O275 Co272 1.970 . S
O275 C274 1.258 . S
O276 Co273 1.966 . S
O276 C274 1.263 . S
C277 O278 1.235 . S
C277 O304 1.289 . S
O278 C277 1.235 . S
C279 C281 1.400 . S
C279 N282 1.351 . S
C279 C284 1.501 . S
C280 C281 1.387 . S
C280 N283 1.341 . S
C281 C279 1.400 . S
C281 C280 1.387 . S
N282 Co273 2.022 . S
N282 C279 1.351 . S
N282 N283 1.365 . S
N283 C280 1.341 . S
N283 N282 1.365 . S
N283 H303 0.862 . S
C284 C279 1.501 . S
C284 H285 0.961 . S
C284 H286 0.961 . S
C284 H287 0.960 . S
H285 C284 0.961 . S
H286 C284 0.961 . S
H287 C284 0.960 . S
C288 N289 1.342 . S
C288 C292 1.401 . S
C288 C293 1.499 . S
N289 Co272 1.989 . S
N289 C288 1.342 . S
N289 N290 1.388 . S
N290 Co273 1.993 . S
N290 N289 1.388 . S
N290 C291 1.346 . S
C291 N290 1.346 . S
C291 C292 1.396 . S
C291 C301 1.510 . S
C292 C288 1.401 . S
C292 C291 1.396 . S
C293 C288 1.499 . S
C293 H294 0.959 . S
C293 H295 0.960 . S
C293 H296 0.961 . S
H294 C293 0.959 . S
H295 C293 0.960 . S
H296 C293 0.961 . S
O297 Co272 1.967 . S
O297 C305 1.258 . S
O298 Co273 1.941 . S
O298 C305 1.266 . S
H299 C301 0.959 . S
H300 C301 0.961 . S
C301 C291 1.510 . S
C301 H299 0.959 . S
C301 H300 0.961 . S
C301 H302 0.960 . S
H302 C301 0.960 . S
H303 N283 0.862 . S
O304 Co272 1.920 . S
O304 C277 1.289 . S
C305 O297 1.258 . S
C305 O298 1.266 . S
Co306 O309 1.970 . S
Co306 N323 1.989 . S
Co306 O331 1.967 . S
Co306 O338 1.920 . S
Co307 O310 1.966 . S
Co307 N316 2.022 . S
Co307 N324 1.993 . S
Co307 O332 1.941 . S
C308 O309 1.258 . S
C308 O310 1.263 . S
O309 Co306 1.970 . S
O309 C308 1.258 . S
O310 Co307 1.966 . S
O310 C308 1.263 . S
C311 O312 1.235 . S
C311 O338 1.289 . S
O312 C311 1.235 . S
C313 C315 1.400 . S
C313 N316 1.351 . S
C313 C318 1.501 . S
C314 C315 1.387 . S
C314 N317 1.341 . S
C315 C313 1.400 . S
C315 C314 1.387 . S
N316 Co307 2.022 . S
N316 C313 1.351 . S
N316 N317 1.365 . S
N317 C314 1.341 . S
N317 N316 1.365 . S
N317 H337 0.862 . S
C318 C313 1.501 . S
C318 H319 0.961 . S
C318 H320 0.961 . S
C318 H321 0.960 . S
H319 C318 0.961 . S
H320 C318 0.961 . S
H321 C318 0.960 . S
C322 N323 1.342 . S
C322 C326 1.401 . S
C322 C327 1.499 . S
N323 Co306 1.989 . S
N323 C322 1.342 . S
N323 N324 1.388 . S
N324 Co307 1.993 . S
N324 N323 1.388 . S
N324 C325 1.346 . S
C325 N324 1.346 . S
C325 C326 1.396 . S
C325 C335 1.510 . S
C326 C322 1.401 . S
C326 C325 1.396 . S
C327 C322 1.499 . S
C327 H328 0.959 . S
C327 H329 0.960 . S
C327 H330 0.961 . S
H328 C327 0.959 . S
H329 C327 0.960 . S
H330 C327 0.961 . S
O331 Co306 1.967 . S
O331 C339 1.258 . S
O332 Co307 1.941 . S
O332 C339 1.266 . S
H333 C335 0.959 . S
H334 C335 0.961 . S
C335 C325 1.510 . S
C335 H333 0.959 . S
C335 H334 0.961 . S
C335 H336 0.960 . S
H336 C335 0.960 . S
H337 N317 0.862 . S
O338 Co306 1.920 . S
O338 C311 1.289 . S
C339 O331 1.258 . S
C339 O332 1.266 . S
Co340 O343 1.970 . S
Co340 N357 1.989 . S
Co340 O365 1.967 . S
Co340 O372 1.920 . S
Co341 O344 1.966 . S
Co341 N350 2.022 . S
Co341 N358 1.993 . S
Co341 O366 1.941 . S
C342 O343 1.258 . S
C342 O344 1.263 . S
O343 Co340 1.970 . S
O343 C342 1.258 . S
O344 Co341 1.966 . S
O344 C342 1.263 . S
C345 O346 1.235 . S
C345 O372 1.289 . S
O346 C345 1.235 . S
C347 C349 1.400 . S
C347 N350 1.351 . S
C347 C352 1.501 . S
C348 C349 1.387 . S
C348 N351 1.341 . S
C349 C347 1.400 . S
C349 C348 1.387 . S
N350 Co341 2.022 . S
N350 C347 1.351 . S
N350 N351 1.365 . S
N351 C348 1.341 . S
N351 N350 1.365 . S
N351 H371 0.862 . S
C352 C347 1.501 . S
C352 H353 0.961 . S
C352 H354 0.961 . S
C352 H355 0.960 . S
H353 C352 0.961 . S
H354 C352 0.961 . S
H355 C352 0.960 . S
C356 N357 1.342 . S
C356 C360 1.401 . S
C356 C361 1.499 . S
N357 Co340 1.989 . S
N357 C356 1.342 . S
N357 N358 1.388 . S
N358 Co341 1.993 . S
N358 N357 1.388 . S
N358 C359 1.346 . S
C359 N358 1.346 . S
C359 C360 1.396 . S
C359 C369 1.510 . S
C360 C356 1.401 . S
C360 C359 1.396 . S
C361 C356 1.499 . S
C361 H362 0.959 . S
C361 H363 0.960 . S
C361 H364 0.961 . S
H362 C361 0.959 . S
H363 C361 0.960 . S
H364 C361 0.961 . S
O365 Co340 1.967 . S
O365 C373 1.258 . S
O366 Co341 1.941 . S
O366 C373 1.266 . S
H367 C369 0.959 . S
H368 C369 0.961 . S
C369 C359 1.510 . S
C369 H367 0.959 . S
C369 H368 0.961 . S
C369 H370 0.960 . S
H370 C369 0.960 . S
H371 N351 0.862 . S
O372 Co340 1.920 . S
O372 C345 1.289 . S
C373 O365 1.258 . S
C373 O366 1.266 . S
Co374 O377 1.970 . S
Co374 N391 1.989 . S
Co374 O399 1.967 . S
Co374 O406 1.920 . S
Co375 O378 1.966 . S
Co375 N384 2.022 . S
Co375 N392 1.993 . S
Co375 O400 1.941 . S
C376 O377 1.258 . S
C376 O378 1.263 . S
O377 Co374 1.970 . S
O377 C376 1.258 . S
O378 Co375 1.966 . S
O378 C376 1.263 . S
C379 O380 1.235 . S
C379 O406 1.289 . S
O380 C379 1.235 . S
C381 C383 1.400 . S
C381 N384 1.351 . S
C381 C386 1.501 . S
C382 C383 1.387 . S
C382 N385 1.341 . S
C383 C381 1.400 . S
C383 C382 1.387 . S
N384 Co375 2.022 . S
N384 C381 1.351 . S
N384 N385 1.365 . S
N385 C382 1.341 . S
N385 N384 1.365 . S
N385 H405 0.862 . S
C386 C381 1.501 . S
C386 H387 0.961 . S
C386 H388 0.961 . S
C386 H389 0.960 . S
H387 C386 0.961 . S
H388 C386 0.961 . S
H389 C386 0.960 . S
C390 N391 1.342 . S
C390 C394 1.401 . S
C390 C395 1.499 . S
N391 Co374 1.989 . S
N391 C390 1.342 . S
N391 N392 1.388 . S
N392 Co375 1.993 . S
N392 N391 1.388 . S
N392 C393 1.346 . S
C393 N392 1.346 . S
C393 C394 1.396 . S
C393 C403 1.510 . S
C394 C390 1.401 . S
C394 C393 1.396 . S
C395 C390 1.499 . S
C395 H396 0.959 . S
C395 H397 0.960 . S
C395 H398 0.961 . S
H396 C395 0.959 . S
H397 C395 0.960 . S
H398 C395 0.961 . S
O399 Co374 1.967 . S
O399 C407 1.258 . S
O400 Co375 1.941 . S
O400 C407 1.266 . S
H401 C403 0.959 . S
H402 C403 0.961 . S
C403 C393 1.510 . S
C403 H401 0.959 . S
C403 H402 0.961 . S
C403 H404 0.960 . S
H404 C403 0.960 . S
H405 N385 0.862 . S
O406 Co374 1.920 . S
O406 C379 1.289 . S
C407 O399 1.258 . S
C407 O400 1.266 . S
Co408 O411 1.970 . S
Co408 N425 1.989 . S
Co408 O433 1.967 . S
Co408 O440 1.920 . S
Co409 O412 1.966 . S
Co409 N418 2.022 . S
Co409 N426 1.993 . S
Co409 O434 1.941 . S
C410 O411 1.258 . S
C410 O412 1.263 . S
O411 Co408 1.970 . S
O411 C410 1.258 . S
O412 Co409 1.966 . S
O412 C410 1.263 . S
C413 O414 1.235 . S
C413 O440 1.289 . S
O414 C413 1.235 . S
C415 C417 1.400 . S
C415 N418 1.351 . S
C415 C420 1.501 . S
C416 C417 1.387 . S
C416 N419 1.341 . S
C417 C415 1.400 . S
C417 C416 1.387 . S
N418 Co409 2.022 . S
N418 C415 1.351 . S
N418 N419 1.365 . S
N419 C416 1.341 . S
N419 N418 1.365 . S
N419 H439 0.862 . S
C420 C415 1.501 . S
C420 H421 0.961 . S
C420 H422 0.961 . S
C420 H423 0.960 . S
H421 C420 0.961 . S
H422 C420 0.961 . S
H423 C420 0.960 . S
C424 N425 1.342 . S
C424 C428 1.401 . S
C424 C429 1.499 . S
N425 Co408 1.989 . S
N425 C424 1.342 . S
N425 N426 1.388 . S
N426 Co409 1.993 . S
N426 N425 1.388 . S
N426 C427 1.346 . S
C427 N426 1.346 . S
C427 C428 1.396 . S
C427 C437 1.510 . S
C428 C424 1.401 . S
C428 C427 1.396 . S
C429 C424 1.499 . S
C429 H430 0.959 . S
C429 H431 0.960 . S
C429 H432 0.961 . S
H430 C429 0.959 . S
H431 C429 0.960 . S
H432 C429 0.961 . S
O433 Co408 1.967 . S
O433 C441 1.258 . S
O434 Co409 1.941 . S
O434 C441 1.266 . S
H435 C437 0.959 . S
H436 C437 0.961 . S
C437 C427 1.510 . S
C437 H435 0.959 . S
C437 H436 0.961 . S
C437 H438 0.960 . S
H438 C437 0.960 . S
H439 N419 0.862 . S
O440 Co408 1.920 . S
O440 C413 1.289 . S
C441 O433 1.258 . S
C441 O434 1.266 . S
Co442 O445 1.970 . S
Co442 N459 1.989 . S
Co442 O467 1.967 . S
Co442 O474 1.920 . S
Co443 O446 1.966 . S
Co443 N452 2.022 . S
Co443 N460 1.993 . S
Co443 O468 1.941 . S
C444 O445 1.258 . S
C444 O446 1.263 . S
O445 Co442 1.970 . S
O445 C444 1.258 . S
O446 Co443 1.966 . S
O446 C444 1.263 . S
C447 O448 1.235 . S
C447 O474 1.289 . S
O448 C447 1.235 . S
C449 C451 1.400 . S
C449 N452 1.351 . S
C449 C454 1.501 . S
C450 C451 1.387 . S
C450 N453 1.341 . S
C451 C449 1.400 . S
C451 C450 1.387 . S
N452 Co443 2.022 . S
N452 C449 1.351 . S
N452 N453 1.365 . S
N453 C450 1.341 . S
N453 N452 1.365 . S
N453 H473 0.862 . S
C454 C449 1.501 . S
C454 H455 0.961 . S
C454 H456 0.961 . S
C454 H457 0.960 . S
H455 C454 0.961 . S
H456 C454 0.961 . S
H457 C454 0.960 . S
C458 N459 1.342 . S
C458 C462 1.401 . S
C458 C463 1.499 . S
N459 Co442 1.989 . S
N459 C458 1.342 . S
N459 N460 1.388 . S
N460 Co443 1.993 . S
N460 N459 1.388 . S
N460 C461 1.346 . S
C461 N460 1.346 . S
C461 C462 1.396 . S
C461 C471 1.510 . S
C462 C458 1.401 . S
C462 C461 1.396 . S
C463 C458 1.499 . S
C463 H464 0.959 . S
C463 H465 0.960 . S
C463 H466 0.961 . S
H464 C463 0.959 . S
H465 C463 0.960 . S
H466 C463 0.961 . S
O467 Co442 1.967 . S
O467 C475 1.258 . S
O468 Co443 1.941 . S
O468 C475 1.266 . S
H469 C471 0.959 . S
H470 C471 0.961 . S
C471 C461 1.510 . S
C471 H469 0.959 . S
C471 H470 0.961 . S
C471 H472 0.960 . S
H472 C471 0.960 . S
H473 N453 0.862 . S
O474 Co442 1.920 . S
O474 C447 1.289 . S
C475 O467 1.258 . S
C475 O468 1.266 . S
Co476 O479 1.970 . S
Co476 N493 1.989 . S
Co476 O501 1.967 . S
Co476 O508 1.920 . S
Co477 O480 1.966 . S
Co477 N486 2.022 . S
Co477 N494 1.993 . S
Co477 O502 1.941 . S
C478 O479 1.258 . S
C478 O480 1.263 . S
O479 Co476 1.970 . S
O479 C478 1.258 . S
O480 Co477 1.966 . S
O480 C478 1.263 . S
C481 O482 1.235 . S
C481 O508 1.289 . S
O482 C481 1.235 . S
C483 C485 1.400 . S
C483 N486 1.351 . S
C483 C488 1.501 . S
C484 C485 1.387 . S
C484 N487 1.341 . S
C485 C483 1.400 . S
C485 C484 1.387 . S
N486 Co477 2.022 . S
N486 C483 1.351 . S
N486 N487 1.365 . S
N487 C484 1.341 . S
N487 N486 1.365 . S
N487 H507 0.862 . S
C488 C483 1.501 . S
C488 H489 0.961 . S
C488 H490 0.961 . S
C488 H491 0.960 . S
H489 C488 0.961 . S
H490 C488 0.961 . S
H491 C488 0.960 . S
C492 N493 1.342 . S
C492 C496 1.401 . S
C492 C497 1.499 . S
N493 Co476 1.989 . S
N493 C492 1.342 . S
N493 N494 1.388 . S
N494 Co477 1.993 . S
N494 N493 1.388 . S
N494 C495 1.346 . S
C495 N494 1.346 . S
C495 C496 1.396 . S
C495 C505 1.510 . S
C496 C492 1.401 . S
C496 C495 1.396 . S
C497 C492 1.499 . S
C497 H498 0.959 . S
C497 H499 0.960 . S
C497 H500 0.961 . S
H498 C497 0.959 . S
H499 C497 0.960 . S
H500 C497 0.961 . S
O501 Co476 1.967 . S
O501 C509 1.258 . S
O502 Co477 1.941 . S
O502 C509 1.266 . S
H503 C505 0.959 . S
H504 C505 0.961 . S
C505 C495 1.510 . S
C505 H503 0.959 . S
C505 H504 0.961 . S
C505 H506 0.960 . S
H506 C505 0.960 . S
H507 N487 0.862 . S
O508 Co476 1.920 . S
O508 C481 1.289 . S
C509 O501 1.258 . S
C509 O502 1.266 . S
Co510 O513 1.970 . S
Co510 N527 1.989 . S
Co510 O535 1.967 . S
Co510 O542 1.920 . S
Co511 O514 1.966 . S
Co511 N520 2.022 . S
Co511 N528 1.993 . S
Co511 O536 1.941 . S
C512 O513 1.258 . S
C512 O514 1.263 . S
O513 Co510 1.970 . S
O513 C512 1.258 . S
O514 Co511 1.966 . S
O514 C512 1.263 . S
C515 O516 1.235 . S
C515 O542 1.289 . S
O516 C515 1.235 . S
C517 C519 1.400 . S
C517 N520 1.351 . S
C517 C522 1.501 . S
C518 C519 1.387 . S
C518 N521 1.341 . S
C519 C517 1.400 . S
C519 C518 1.387 . S
N520 Co511 2.022 . S
N520 C517 1.351 . S
N520 N521 1.365 . S
N521 C518 1.341 . S
N521 N520 1.365 . S
N521 H541 0.862 . S
C522 C517 1.501 . S
C522 H523 0.961 . S
C522 H524 0.961 . S
C522 H525 0.960 . S
H523 C522 0.961 . S
H524 C522 0.961 . S
H525 C522 0.960 . S
C526 N527 1.342 . S
C526 C530 1.401 . S
C526 C531 1.499 . S
N527 Co510 1.989 . S
N527 C526 1.342 . S
N527 N528 1.388 . S
N528 Co511 1.993 . S
N528 N527 1.388 . S
N528 C529 1.346 . S
C529 N528 1.346 . S
C529 C530 1.396 . S
C529 C539 1.510 . S
C530 C526 1.401 . S
C530 C529 1.396 . S
C531 C526 1.499 . S
C531 H532 0.959 . S
C531 H533 0.960 . S
C531 H534 0.961 . S
H532 C531 0.959 . S
H533 C531 0.960 . S
H534 C531 0.961 . S
O535 Co510 1.967 . S
O535 C543 1.258 . S
O536 Co511 1.941 . S
O536 C543 1.266 . S
H537 C539 0.959 . S
H538 C539 0.961 . S
C539 C529 1.510 . S
C539 H537 0.959 . S
C539 H538 0.961 . S
C539 H540 0.960 . S
H540 C539 0.960 . S
H541 N521 0.862 . S
O542 Co510 1.920 . S
O542 C515 1.289 . S
C543 O535 1.258 . S
C543 O536 1.266 . S
Co544 O547 1.970 . S
Co544 N561 1.989 . S
Co544 O569 1.967 . S
Co544 O576 1.920 . S
Co545 O548 1.966 . S
Co545 N554 2.022 . S
Co545 N562 1.993 . S
Co545 O570 1.941 . S
C546 O547 1.258 . S
C546 O548 1.263 . S
O547 Co544 1.970 . S
O547 C546 1.258 . S
O548 Co545 1.966 . S
O548 C546 1.263 . S
C549 O550 1.235 . S
C549 O576 1.289 . S
O550 C549 1.235 . S
C551 C553 1.400 . S
C551 N554 1.351 . S
C551 C556 1.501 . S
C552 C553 1.387 . S
C552 N555 1.341 . S
C553 C551 1.400 . S
C553 C552 1.387 . S
N554 Co545 2.022 . S
N554 C551 1.351 . S
N554 N555 1.365 . S
N555 C552 1.341 . S
N555 N554 1.365 . S
N555 H575 0.862 . S
C556 C551 1.501 . S
C556 H557 0.961 . S
C556 H558 0.961 . S
C556 H559 0.960 . S
H557 C556 0.961 . S
H558 C556 0.961 . S
H559 C556 0.960 . S
C560 N561 1.342 . S
C560 C564 1.401 . S
C560 C565 1.499 . S
N561 Co544 1.989 . S
N561 C560 1.342 . S
N561 N562 1.388 . S
N562 Co545 1.993 . S
N562 N561 1.388 . S
N562 C563 1.346 . S
C563 N562 1.346 . S
C563 C564 1.396 . S
C563 C573 1.510 . S
C564 C560 1.401 . S
C564 C563 1.396 . S
C565 C560 1.499 . S
C565 H566 0.959 . S
C565 H567 0.960 . S
C565 H568 0.961 . S
H566 C565 0.959 . S
H567 C565 0.960 . S
H568 C565 0.961 . S
O569 Co544 1.967 . S
O569 C577 1.258 . S
O570 Co545 1.941 . S
O570 C577 1.266 . S
H571 C573 0.959 . S
H572 C573 0.961 . S
C573 C563 1.510 . S
C573 H571 0.959 . S
C573 H572 0.961 . S
C573 H574 0.960 . S
H574 C573 0.960 . S
H575 N555 0.862 . S
O576 Co544 1.920 . S
O576 C549 1.289 . S
C577 O569 1.258 . S
C577 O570 1.266 . S
Co578 O581 1.970 . S
Co578 N595 1.989 . S
Co578 O603 1.967 . S
Co578 O610 1.920 . S
Co579 O582 1.966 . S
Co579 N588 2.022 . S
Co579 N596 1.993 . S
Co579 O604 1.941 . S
C580 O581 1.258 . S
C580 O582 1.263 . S
O581 Co578 1.970 . S
O581 C580 1.258 . S
O582 Co579 1.966 . S
O582 C580 1.263 . S
C583 O584 1.235 . S
C583 O610 1.289 . S
O584 C583 1.235 . S
C585 C587 1.400 . S
C585 N588 1.351 . S
C585 C590 1.501 . S
C586 C587 1.387 . S
C586 N589 1.341 . S
C587 C585 1.400 . S
C587 C586 1.387 . S
N588 Co579 2.022 . S
N588 C585 1.351 . S
N588 N589 1.365 . S
N589 C586 1.341 . S
N589 N588 1.365 . S
N589 H609 0.862 . S
C590 C585 1.501 . S
C590 H591 0.961 . S
C590 H592 0.961 . S
C590 H593 0.960 . S
H591 C590 0.961 . S
H592 C590 0.961 . S
H593 C590 0.960 . S
C594 N595 1.342 . S
C594 C598 1.401 . S
C594 C599 1.499 . S
N595 Co578 1.989 . S
N595 C594 1.342 . S
N595 N596 1.388 . S
N596 Co579 1.993 . S
N596 N595 1.388 . S
N596 C597 1.346 . S
C597 N596 1.346 . S
C597 C598 1.396 . S
C597 C607 1.510 . S
C598 C594 1.401 . S
C598 C597 1.396 . S
C599 C594 1.499 . S
C599 H600 0.959 . S
C599 H601 0.960 . S
C599 H602 0.961 . S
H600 C599 0.959 . S
H601 C599 0.960 . S
H602 C599 0.961 . S
O603 Co578 1.967 . S
O603 C611 1.258 . S
O604 Co579 1.941 . S
O604 C611 1.266 . S
H605 C607 0.959 . S
H606 C607 0.961 . S
C607 C597 1.510 . S
C607 H605 0.959 . S
C607 H606 0.961 . S
C607 H608 0.960 . S
H608 C607 0.960 . S
H609 N589 0.862 . S
O610 Co578 1.920 . S
O610 C583 1.289 . S
C611 O603 1.258 . S
C611 O604 1.266 . S
Co612 O615 1.970 . S
Co612 N629 1.989 . S
Co612 O637 1.967 . S
Co612 O644 1.920 . S
Co613 O616 1.966 . S
Co613 N622 2.022 . S
Co613 N630 1.993 . S
Co613 O638 1.941 . S
C614 O615 1.258 . S
C614 O616 1.263 . S
O615 Co612 1.970 . S
O615 C614 1.258 . S
O616 Co613 1.966 . S
O616 C614 1.263 . S
C617 O618 1.235 . S
C617 O644 1.289 . S
O618 C617 1.235 . S
C619 C621 1.400 . S
C619 N622 1.351 . S
C619 C624 1.501 . S
C620 C621 1.387 . S
C620 N623 1.341 . S
C621 C619 1.400 . S
C621 C620 1.387 . S
N622 Co613 2.022 . S
N622 C619 1.351 . S
N622 N623 1.365 . S
N623 C620 1.341 . S
N623 N622 1.365 . S
N623 H643 0.862 . S
C624 C619 1.501 . S
C624 H625 0.961 . S
C624 H626 0.961 . S
C624 H627 0.960 . S
H625 C624 0.961 . S
H626 C624 0.961 . S
H627 C624 0.960 . S
C628 N629 1.342 . S
C628 C632 1.401 . S
C628 C633 1.499 . S
N629 Co612 1.989 . S
N629 C628 1.342 . S
N629 N630 1.388 . S
N630 Co613 1.993 . S
N630 N629 1.388 . S
N630 C631 1.346 . S
C631 N630 1.346 . S
C631 C632 1.396 . S
C631 C641 1.510 . S
C632 C628 1.401 . S
C632 C631 1.396 . S
C633 C628 1.499 . S
C633 H634 0.959 . S
C633 H635 0.960 . S
C633 H636 0.961 . S
H634 C633 0.959 . S
H635 C633 0.960 . S
H636 C633 0.961 . S
O637 Co612 1.967 . S
O637 C645 1.258 . S
O638 Co613 1.941 . S
O638 C645 1.266 . S
H639 C641 0.959 . S
H640 C641 0.961 . S
C641 C631 1.510 . S
C641 H639 0.959 . S
C641 H640 0.961 . S
C641 H642 0.960 . S
H642 C641 0.960 . S
H643 N623 0.862 . S
O644 Co612 1.920 . S
O644 C617 1.289 . S
C645 O637 1.258 . S
C645 O638 1.266 . S
Co646 O649 1.970 . S
Co646 N663 1.989 . S
Co646 O671 1.967 . S
Co646 O678 1.920 . S
Co647 O650 1.966 . S
Co647 N656 2.022 . S
Co647 N664 1.993 . S
Co647 O672 1.941 . S
C648 O649 1.258 . S
C648 O650 1.263 . S
O649 Co646 1.970 . S
O649 C648 1.258 . S
O650 Co647 1.966 . S
O650 C648 1.263 . S
C651 O652 1.235 . S
C651 O678 1.289 . S
O652 C651 1.235 . S
C653 C655 1.400 . S
C653 N656 1.351 . S
C653 C658 1.501 . S
C654 C655 1.387 . S
C654 N657 1.341 . S
C655 C653 1.400 . S
C655 C654 1.387 . S
N656 Co647 2.022 . S
N656 C653 1.351 . S
N656 N657 1.365 . S
N657 C654 1.341 . S
N657 N656 1.365 . S
N657 H677 0.862 . S
C658 C653 1.501 . S
C658 H659 0.961 . S
C658 H660 0.961 . S
C658 H661 0.960 . S
H659 C658 0.961 . S
H660 C658 0.961 . S
H661 C658 0.960 . S
C662 N663 1.342 . S
C662 C666 1.401 . S
C662 C667 1.499 . S
N663 Co646 1.989 . S
N663 C662 1.342 . S
N663 N664 1.388 . S
N664 Co647 1.993 . S
N664 N663 1.388 . S
N664 C665 1.346 . S
C665 N664 1.346 . S
C665 C666 1.396 . S
C665 C675 1.510 . S
C666 C662 1.401 . S
C666 C665 1.396 . S
C667 C662 1.499 . S
C667 H668 0.959 . S
C667 H669 0.960 . S
C667 H670 0.961 . S
H668 C667 0.959 . S
H669 C667 0.960 . S
H670 C667 0.961 . S
O671 Co646 1.967 . S
O671 C679 1.258 . S
O672 Co647 1.941 . S
O672 C679 1.266 . S
H673 C675 0.959 . S
H674 C675 0.961 . S
C675 C665 1.510 . S
C675 H673 0.959 . S
C675 H674 0.961 . S
C675 H676 0.960 . S
H676 C675 0.960 . S
H677 N657 0.862 . S
O678 Co646 1.920 . S
O678 C651 1.289 . S
C679 O671 1.258 . S
C679 O672 1.266 . S
Co680 O683 1.970 . S
Co680 N697 1.989 . S
Co680 O705 1.967 . S
Co680 O712 1.920 . S
Co681 O684 1.966 . S
Co681 N690 2.022 . S
Co681 N698 1.993 . S
Co681 O706 1.941 . S
C682 O683 1.258 . S
C682 O684 1.263 . S
O683 Co680 1.970 . S
O683 C682 1.258 . S
O684 Co681 1.966 . S
O684 C682 1.263 . S
C685 O686 1.235 . S
C685 O712 1.289 . S
O686 C685 1.235 . S
C687 C689 1.400 . S
C687 N690 1.351 . S
C687 C692 1.501 . S
C688 C689 1.387 . S
C688 N691 1.341 . S
C689 C687 1.400 . S
C689 C688 1.387 . S
N690 Co681 2.022 . S
N690 C687 1.351 . S
N690 N691 1.365 . S
N691 C688 1.341 . S
N691 N690 1.365 . S
N691 H711 0.862 . S
C692 C687 1.501 . S
C692 H693 0.961 . S
C692 H694 0.961 . S
C692 H695 0.960 . S
H693 C692 0.961 . S
H694 C692 0.961 . S
H695 C692 0.960 . S
C696 N697 1.342 . S
C696 C700 1.401 . S
C696 C701 1.499 . S
N697 Co680 1.989 . S
N697 C696 1.342 . S
N697 N698 1.388 . S
N698 Co681 1.993 . S
N698 N697 1.388 . S
N698 C699 1.346 . S
C699 N698 1.346 . S
C699 C700 1.396 . S
C699 C709 1.510 . S
C700 C696 1.401 . S
C700 C699 1.396 . S
C701 C696 1.499 . S
C701 H702 0.959 . S
C701 H703 0.960 . S
C701 H704 0.961 . S
H702 C701 0.959 . S
H703 C701 0.960 . S
H704 C701 0.961 . S
O705 Co680 1.967 . S
O705 C713 1.258 . S
O706 Co681 1.941 . S
O706 C713 1.266 . S
H707 C709 0.959 . S
H708 C709 0.961 . S
C709 C699 1.510 . S
C709 H707 0.959 . S
C709 H708 0.961 . S
C709 H710 0.960 . S
H710 C709 0.960 . S
H711 N691 0.862 . S
O712 Co680 1.920 . S
O712 C685 1.289 . S
C713 O705 1.258 . S
C713 O706 1.266 . S
Co714 O717 1.970 . S
Co714 N731 1.989 . S
Co714 O739 1.967 . S
Co714 O746 1.920 . S
Co715 O718 1.966 . S
Co715 N724 2.022 . S
Co715 N732 1.993 . S
Co715 O740 1.941 . S
C716 O717 1.258 . S
C716 O718 1.263 . S
O717 Co714 1.970 . S
O717 C716 1.258 . S
O718 Co715 1.966 . S
O718 C716 1.263 . S
C719 O720 1.235 . S
C719 O746 1.289 . S
O720 C719 1.235 . S
C721 C723 1.400 . S
C721 N724 1.351 . S
C721 C726 1.501 . S
C722 C723 1.387 . S
C722 N725 1.341 . S
C723 C721 1.400 . S
C723 C722 1.387 . S
N724 Co715 2.022 . S
N724 C721 1.351 . S
N724 N725 1.365 . S
N725 C722 1.341 . S
N725 N724 1.365 . S
N725 H745 0.862 . S
C726 C721 1.501 . S
C726 H727 0.961 . S
C726 H728 0.961 . S
C726 H729 0.960 . S
H727 C726 0.961 . S
H728 C726 0.961 . S
H729 C726 0.960 . S
C730 N731 1.342 . S
C730 C734 1.401 . S
C730 C735 1.499 . S
N731 Co714 1.989 . S
N731 C730 1.342 . S
N731 N732 1.388 . S
N732 Co715 1.993 . S
N732 N731 1.388 . S
N732 C733 1.346 . S
C733 N732 1.346 . S
C733 C734 1.396 . S
C733 C743 1.510 . S
C734 C730 1.401 . S
C734 C733 1.396 . S
C735 C730 1.499 . S
C735 H736 0.959 . S
C735 H737 0.960 . S
C735 H738 0.961 . S
H736 C735 0.959 . S
H737 C735 0.960 . S
H738 C735 0.961 . S
O739 Co714 1.967 . S
O739 C747 1.258 . S
O740 Co715 1.941 . S
O740 C747 1.266 . S
H741 C743 0.959 . S
H742 C743 0.961 . S
C743 C733 1.510 . S
C743 H741 0.959 . S
C743 H742 0.961 . S
C743 H744 0.960 . S
H744 C743 0.960 . S
H745 N725 0.862 . S
O746 Co714 1.920 . S
O746 C719 1.289 . S
C747 O739 1.258 . S
C747 O740 1.266 . S
Co748 O751 1.970 . S
Co748 N765 1.989 . S
Co748 O773 1.967 . S
Co748 O780 1.920 . S
Co749 O752 1.966 . S
Co749 N758 2.022 . S
Co749 N766 1.993 . S
Co749 O774 1.941 . S
C750 O751 1.258 . S
C750 O752 1.263 . S
O751 Co748 1.970 . S
O751 C750 1.258 . S
O752 Co749 1.966 . S
O752 C750 1.263 . S
C753 O754 1.235 . S
C753 O780 1.289 . S
O754 C753 1.235 . S
C755 C757 1.400 . S
C755 N758 1.351 . S
C755 C760 1.501 . S
C756 C757 1.387 . S
C756 N759 1.341 . S
C757 C755 1.400 . S
C757 C756 1.387 . S
N758 Co749 2.022 . S
N758 C755 1.351 . S
N758 N759 1.365 . S
N759 C756 1.341 . S
N759 N758 1.365 . S
N759 H779 0.862 . S
C760 C755 1.501 . S
C760 H761 0.961 . S
C760 H762 0.961 . S
C760 H763 0.960 . S
H761 C760 0.961 . S
H762 C760 0.961 . S
H763 C760 0.960 . S
C764 N765 1.342 . S
C764 C768 1.401 . S
C764 C769 1.499 . S
N765 Co748 1.989 . S
N765 C764 1.342 . S
N765 N766 1.388 . S
N766 Co749 1.993 . S
N766 N765 1.388 . S
N766 C767 1.346 . S
C767 N766 1.346 . S
C767 C768 1.396 . S
C767 C777 1.510 . S
C768 C764 1.401 . S
C768 C767 1.396 . S
C769 C764 1.499 . S
C769 H770 0.959 . S
C769 H771 0.960 . S
C769 H772 0.961 . S
H770 C769 0.959 . S
H771 C769 0.960 . S
H772 C769 0.961 . S
O773 Co748 1.967 . S
O773 C781 1.258 . S
O774 Co749 1.941 . S
O774 C781 1.266 . S
H775 C777 0.959 . S
H776 C777 0.961 . S
C777 C767 1.510 . S
C777 H775 0.959 . S
C777 H776 0.961 . S
C777 H778 0.960 . S
H778 C777 0.960 . S
H779 N759 0.862 . S
O780 Co748 1.920 . S
O780 C753 1.289 . S
C781 O773 1.258 . S
C781 O774 1.266 . S
Co782 O785 1.970 . S
Co782 N799 1.989 . S
Co782 O807 1.967 . S
Co782 O814 1.920 . S
Co783 O786 1.966 . S
Co783 N792 2.022 . S
Co783 N800 1.993 . S
Co783 O808 1.941 . S
C784 O785 1.258 . S
C784 O786 1.263 . S
O785 Co782 1.970 . S
O785 C784 1.258 . S
O786 Co783 1.966 . S
O786 C784 1.263 . S
C787 O788 1.235 . S
C787 O814 1.289 . S
O788 C787 1.235 . S
C789 C791 1.400 . S
C789 N792 1.351 . S
C789 C794 1.501 . S
C790 C791 1.387 . S
C790 N793 1.341 . S
C791 C789 1.400 . S
C791 C790 1.387 . S
N792 Co783 2.022 . S
N792 C789 1.351 . S
N792 N793 1.365 . S
N793 C790 1.341 . S
N793 N792 1.365 . S
N793 H813 0.862 . S
C794 C789 1.501 . S
C794 H795 0.961 . S
C794 H796 0.961 . S
C794 H797 0.960 . S
H795 C794 0.961 . S
H796 C794 0.961 . S
H797 C794 0.960 . S
C798 N799 1.342 . S
C798 C802 1.401 . S
C798 C803 1.499 . S
N799 Co782 1.989 . S
N799 C798 1.342 . S
N799 N800 1.388 . S
N800 Co783 1.993 . S
N800 N799 1.388 . S
N800 C801 1.346 . S
C801 N800 1.346 . S
C801 C802 1.396 . S
C801 C811 1.510 . S
C802 C798 1.401 . S
C802 C801 1.396 . S
C803 C798 1.499 . S
C803 H804 0.959 . S
C803 H805 0.960 . S
C803 H806 0.961 . S
H804 C803 0.959 . S
H805 C803 0.960 . S
H806 C803 0.961 . S
O807 Co782 1.967 . S
O807 C815 1.258 . S
O808 Co783 1.941 . S
O808 C815 1.266 . S
H809 C811 0.959 . S
H810 C811 0.961 . S
C811 C801 1.510 . S
C811 H809 0.959 . S
C811 H810 0.961 . S
C811 H812 0.960 . S
H812 C811 0.960 . S
H813 N793 0.862 . S
O814 Co782 1.920 . S
O814 C787 1.289 . S
C815 O807 1.258 . S
C815 O808 1.266 . S
H816 C822 0.930 . S
H817 C826 0.930 . S
H818 C831 0.929 . S
H819 C829 0.929 . S
H820 C824 0.929 . S
H821 C830 0.929 . S
C822 H816 0.930 . S
C822 C823 1.367 . S
C822 C830 1.378 . S
C823 C822 1.367 . S
C823 C831 1.433 . S
C824 H820 0.929 . S
C824 C826 1.378 . S
C824 C828 1.350 . S
C825 C828 1.463 1_655 S
C825 C830 1.350 . S
C825 N833 1.427 . S
C826 H817 0.930 . S
C826 C824 1.378 . S
C826 C827 1.367 . S
C827 C826 1.367 . S
C827 C829 1.433 . S
C828 C824 1.350 . S
C828 C825 1.463 1_455 S
C828 N832 1.427 . S
C829 H819 0.929 . S
C829 C827 1.433 . S
C829 N832 1.384 . S
C830 H821 0.929 . S
C830 C822 1.378 . S
C830 C825 1.350 . S
C831 H818 0.929 . S
C831 C823 1.433 . S
C831 N833 1.384 . S
N832 C828 1.427 . S
N832 C829 1.384 . S
N833 C825 1.427 . S
N833 C831 1.384 . S
H834 C840 0.930 . S
H835 C844 0.930 . S
H836 C849 0.929 . S
H837 C847 0.929 . S
H838 C842 0.929 . S
H839 C848 0.929 . S
C840 H834 0.930 . S
C840 C841 1.367 . S
C840 C848 1.378 . S
C841 C840 1.367 . S
C841 C849 1.433 . S
C842 H838 0.929 . S
C842 C844 1.378 . S
C842 C846 1.350 . S
C843 C846 1.463 1_565 S
C843 C848 1.350 . S
C843 N851 1.427 . S
C844 H835 0.930 . S
C844 C842 1.378 . S
C844 C845 1.367 . S
C845 C844 1.367 . S
C845 C847 1.433 . S
C846 C842 1.350 . S
C846 C843 1.463 1_545 S
C846 N850 1.427 . S
C847 H837 0.929 . S
C847 C845 1.433 . S
C847 N850 1.384 . S
C848 H839 0.929 . S
C848 C840 1.378 . S
C848 C843 1.350 . S
C849 H836 0.929 . S
C849 C841 1.433 . S
C849 N851 1.384 . S
N850 C846 1.427 . S
N850 C847 1.384 . S
N851 C843 1.427 . S
N851 C849 1.384 . S
H852 C858 0.930 . S
H853 C862 0.930 . S
H854 C867 0.929 . S
H855 C865 0.929 . S
H856 C860 0.929 . S
H857 C866 0.929 . S
C858 H852 0.930 . S
C858 C859 1.367 . S
C858 C866 1.378 . S
C859 C858 1.367 . S
C859 C867 1.433 . S
C860 H856 0.929 . S
C860 C862 1.378 . S
C860 C864 1.350 . S
C861 C864 1.463 1_455 S
C861 C866 1.350 . S
C861 N869 1.427 . S
C862 H853 0.930 . S
C862 C860 1.378 . S
C862 C863 1.367 . S
C863 C862 1.367 . S
C863 C865 1.433 . S
C864 C860 1.350 . S
C864 C861 1.463 1_655 S
C864 N868 1.427 . S
C865 H855 0.929 . S
C865 C863 1.433 . S
C865 N868 1.384 . S
C866 H857 0.929 . S
C866 C858 1.378 . S
C866 C861 1.350 . S
C867 H854 0.929 . S
C867 C859 1.433 . S
C867 N869 1.384 . S
N868 C864 1.427 . S
N868 C865 1.384 . S
N869 C861 1.427 . S
N869 C867 1.384 . S
H870 C876 0.930 . S
H871 C880 0.930 . S
H872 C885 0.929 . S
H873 C883 0.929 . S
H874 C878 0.929 . S
H875 C884 0.929 . S
C876 H870 0.930 . S
C876 C877 1.367 . S
C876 C884 1.378 . S
C877 C876 1.367 . S
C877 C885 1.433 . S
C878 H874 0.929 . S
C878 C880 1.378 . S
C878 C882 1.350 . S
C879 C882 1.463 1_565 S
C879 C884 1.350 . S
C879 N887 1.427 . S
C880 H871 0.930 . S
C880 C878 1.378 . S
C880 C881 1.367 . S
C881 C880 1.367 . S
C881 C883 1.433 . S
C882 C878 1.350 . S
C882 C879 1.463 1_545 S
C882 N886 1.427 . S
C883 H873 0.929 . S
C883 C881 1.433 . S
C883 N886 1.384 . S
C884 H875 0.929 . S
C884 C876 1.378 . S
C884 C879 1.350 . S
C885 H872 0.929 . S
C885 C877 1.433 . S
C885 N887 1.384 . S
N886 C882 1.427 . S
N886 C883 1.384 . S
N887 C879 1.427 . S
N887 C885 1.384 . S
H888 C894 0.930 . S
H889 C898 0.930 . S
H890 C903 0.929 . S
H891 C901 0.929 . S
H892 C896 0.929 . S
H893 C902 0.929 . S
C894 H888 0.930 . S
C894 C895 1.367 . S
C894 C902 1.378 . S
C895 C894 1.367 . S
C895 C903 1.433 . S
C896 H892 0.929 . S
C896 C898 1.378 . S
C896 C900 1.350 . S
C897 C900 1.463 1_655 S
C897 C902 1.350 . S
C897 N905 1.427 . S
C898 H889 0.930 . S
C898 C896 1.378 . S
C898 C899 1.367 . S
C899 C898 1.367 . S
C899 C901 1.433 . S
C900 C896 1.350 . S
C900 C897 1.463 1_455 S
C900 N904 1.427 . S
C901 H891 0.929 . S
C901 C899 1.433 . S
C901 N904 1.384 . S
C902 H893 0.929 . S
C902 C894 1.378 . S
C902 C897 1.350 . S
C903 H890 0.929 . S
C903 C895 1.433 . S
C903 N905 1.384 . S
N904 C900 1.427 . S
N904 C901 1.384 . S
N905 C897 1.427 . S
N905 C903 1.384 . S
H906 C912 0.930 . S
H907 C916 0.930 . S
H908 C921 0.929 . S
H909 C919 0.929 . S
H910 C914 0.929 . S
H911 C920 0.929 . S
C912 H906 0.930 . S
C912 C913 1.367 . S
C912 C920 1.378 . S
C913 C912 1.367 . S
C913 C921 1.433 . S
C914 H910 0.929 . S
C914 C916 1.378 . S
C914 C918 1.350 . S
C915 C918 1.463 1_545 S
C915 C920 1.350 . S
C915 N923 1.427 . S
C916 H907 0.930 . S
C916 C914 1.378 . S
C916 C917 1.367 . S
C917 C916 1.367 . S
C917 C919 1.433 . S
C918 C914 1.350 . S
C918 C915 1.463 1_565 S
C918 N922 1.427 . S
C919 H909 0.929 . S
C919 C917 1.433 . S
C919 N922 1.384 . S
C920 H911 0.929 . S
C920 C912 1.378 . S
C920 C915 1.350 . S
C921 H908 0.929 . S
C921 C913 1.433 . S
C921 N923 1.384 . S
N922 C918 1.427 . S
N922 C919 1.384 . S
N923 C915 1.427 . S
N923 C921 1.384 . S
H924 C930 0.930 . S
H925 C934 0.930 . S
H926 C939 0.929 . S
H927 C937 0.929 . S
H928 C932 0.929 . S
H929 C938 0.929 . S
C930 H924 0.930 . S
C930 C931 1.367 . S
C930 C938 1.378 . S
C931 C930 1.367 . S
C931 C939 1.433 . S
C932 H928 0.929 . S
C932 C934 1.378 . S
C932 C936 1.350 . S
C933 C936 1.463 1_655 S
C933 C938 1.350 . S
C933 N941 1.427 . S
C934 H925 0.930 . S
C934 C932 1.378 . S
C934 C935 1.367 . S
C935 C934 1.367 . S
C935 C937 1.433 . S
C936 C932 1.350 . S
C936 C933 1.463 1_455 S
C936 N940 1.427 . S
C937 H927 0.929 . S
C937 C935 1.433 . S
C937 N940 1.384 . S
C938 H929 0.929 . S
C938 C930 1.378 . S
C938 C933 1.350 . S
C939 H926 0.929 . S
C939 C931 1.433 . S
C939 N941 1.384 . S
N940 C936 1.427 . S
N940 C937 1.384 . S
N941 C933 1.427 . S
N941 C939 1.384 . S
H942 C948 0.930 . S
H943 C952 0.930 . S
H944 C957 0.929 . S
H945 C955 0.929 . S
H946 C950 0.929 1_565 S
H947 C956 0.929 1_545 S
C948 H942 0.930 . S
C948 C949 1.367 . S
C948 C956 1.378 . S
C949 C948 1.367 . S
C949 C957 1.433 . S
C950 H946 0.929 1_545 S
C950 C952 1.378 . S
C950 C954 1.350 . S
C951 C954 1.463 1_565 S
C951 C956 1.350 . S
C951 N959 1.427 . S
C952 H943 0.930 . S
C952 C950 1.378 . S
C952 C953 1.367 . S
C953 C952 1.367 . S
C953 C955 1.433 . S
C954 C950 1.350 . S
C954 C951 1.463 1_545 S
C954 N958 1.427 . S
C955 H945 0.929 . S
C955 C953 1.433 . S
C955 N958 1.384 . S
C956 H947 0.929 1_565 S
C956 C948 1.378 . S
C956 C951 1.350 . S
C957 H944 0.929 . S
C957 C949 1.433 . S
C957 N959 1.384 . S
N958 C954 1.427 . S
N958 C955 1.384 . S
N959 C951 1.427 . S
N959 C957 1.384 . S
H960 C966 0.930 . S
H961 C970 0.930 . S
H962 C975 0.929 . S
H963 C973 0.929 . S
H964 C968 0.929 . S
H965 C974 0.929 . S
C966 H960 0.930 . S
C966 C967 1.367 . S
C966 C974 1.378 . S
C967 C966 1.367 . S
C967 C975 1.433 . S
C968 H964 0.929 . S
C968 C970 1.378 . S
C968 C972 1.350 . S
C969 C972 1.463 1_554 S
C969 C974 1.350 . S
C969 N977 1.427 . S
C970 H961 0.930 . S
C970 C968 1.378 . S
C970 C971 1.367 . S
C971 C970 1.367 . S
C971 C973 1.433 . S
C972 C968 1.350 . S
C972 C969 1.463 1_556 S
C972 N976 1.427 . S
C973 H963 0.929 . S
C973 C971 1.433 . S
C973 N976 1.384 . S
C974 H965 0.929 . S
C974 C966 1.378 . S
C974 C969 1.350 . S
C975 H962 0.929 . S
C975 C967 1.433 . S
C975 N977 1.384 . S
N976 C972 1.427 . S
N976 C973 1.384 . S
N977 C969 1.427 . S
N977 C975 1.384 . S
H978 C984 0.930 . S
H979 C988 0.930 . S
H980 C993 0.929 . S
H981 C991 0.929 . S
H982 C986 0.929 1_554 S
H983 C992 0.929 1_556 S
C984 H978 0.930 . S
C984 C985 1.367 . S
C984 C992 1.378 . S
C985 C984 1.367 . S
C985 C993 1.433 . S
C986 H982 0.929 1_556 S
C986 C988 1.378 . S
C986 C990 1.350 . S
C987 C990 1.463 1_554 S
C987 C992 1.350 . S
C987 N995 1.427 . S
C988 H979 0.930 . S
C988 C986 1.378 . S
C988 C989 1.367 . S
C989 C988 1.367 . S
C989 C991 1.433 . S
C990 C986 1.350 . S
C990 C987 1.463 1_556 S
C990 N994 1.427 . S
C991 H981 0.929 . S
C991 C989 1.433 . S
C991 N994 1.384 . S
C992 H983 0.929 1_554 S
C992 C984 1.378 . S
C992 C987 1.350 . S
C993 H980 0.929 . S
C993 C985 1.433 . S
C993 N995 1.384 . S
N994 C990 1.427 . S
N994 C991 1.384 . S
N995 C987 1.427 . S
N995 C993 1.384 . S
H996 C1002 0.930 . S
H997 C1006 0.930 . S
H998 C1011 0.929 . S
H999 C1009 0.929 . S
H1000 C1004 0.929 . S
H1001 C1010 0.929 . S
C1002 H996 0.930 . S
C1002 C1003 1.367 . S
C1002 C1010 1.378 . S
C1003 C1002 1.367 . S
C1003 C1011 1.433 . S
C1004 H1000 0.929 . S
C1004 C1006 1.378 . S
C1004 C1008 1.350 . S
C1005 C1008 1.463 1_556 S
C1005 C1010 1.350 . S
C1005 N1013 1.427 . S
C1006 H997 0.930 . S
C1006 C1004 1.378 . S
C1006 C1007 1.367 . S
C1007 C1006 1.367 . S
C1007 C1009 1.433 . S
C1008 C1004 1.350 . S
C1008 C1005 1.463 1_554 S
C1008 N1012 1.427 . S
C1009 H999 0.929 . S
C1009 C1007 1.433 . S
C1009 N1012 1.384 . S
C1010 H1001 0.929 . S
C1010 C1002 1.378 . S
C1010 C1005 1.350 . S
C1011 H998 0.929 . S
C1011 C1003 1.433 . S
C1011 N1013 1.384 . S
N1012 C1008 1.427 . S
N1012 C1009 1.384 . S
N1013 C1005 1.427 . S
N1013 C1011 1.384 . S
H1014 C1020 0.930 . S
H1015 C1024 0.930 . S
H1016 C1029 0.929 . S
H1017 C1027 0.929 . S
H1018 C1022 0.929 . S
H1019 C1028 0.929 . S
C1020 H1014 0.930 . S
C1020 C1021 1.367 . S
C1020 C1028 1.378 . S
C1021 C1020 1.367 . S
C1021 C1029 1.433 . S
C1022 H1018 0.929 . S
C1022 C1024 1.378 . S
C1022 C1026 1.350 . S
C1023 C1026 1.463 1_554 S
C1023 C1028 1.350 . S
C1023 N1031 1.427 . S
C1024 H1015 0.930 . S
C1024 C1022 1.378 . S
C1024 C1025 1.367 . S
C1025 C1024 1.367 . S
C1025 C1027 1.433 . S
C1026 C1022 1.350 . S
C1026 C1023 1.463 1_556 S
C1026 N1030 1.427 . S
C1027 H1017 0.929 . S
C1027 C1025 1.433 . S
C1027 N1030 1.384 . S
C1028 H1019 0.929 . S
C1028 C1020 1.378 . S
C1028 C1023 1.350 . S
C1029 H1016 0.929 . S
C1029 C1021 1.433 . S
C1029 N1031 1.384 . S
N1030 C1026 1.427 . S
N1030 C1027 1.384 . S
N1031 C1023 1.427 . S
N1031 C1029 1.384 . S
H1032 C1038 0.930 . S
H1033 C1042 0.930 . S
H1034 C1047 0.929 . S
H1035 C1045 0.929 . S
H1036 C1040 0.929 . S
H1037 C1046 0.929 . S
C1038 H1032 0.930 . S
C1038 C1039 1.367 . S
C1038 C1046 1.378 . S
C1039 C1038 1.367 . S
C1039 C1047 1.433 . S
C1040 H1036 0.929 . S
C1040 C1042 1.378 . S
C1040 C1044 1.350 . S
C1041 C1044 1.463 . S
C1041 C1046 1.350 . S
C1041 N1049 1.427 . S
C1042 H1033 0.930 . S
C1042 C1040 1.378 . S
C1042 C1043 1.367 . S
C1043 C1042 1.367 . S
C1043 C1045 1.433 . S
C1044 C1040 1.350 . S
C1044 C1041 1.463 . S
C1044 N1048 1.427 . S
C1045 H1035 0.929 . S
C1045 C1043 1.433 . S
C1045 N1048 1.384 . S
C1046 H1037 0.929 . S
C1046 C1038 1.378 . S
C1046 C1041 1.350 . S
C1047 H1034 0.929 . S
C1047 C1039 1.433 . S
C1047 N1049 1.384 . S
N1048 C1044 1.427 . S
N1048 C1045 1.384 . S
N1049 C1041 1.427 . S
N1049 C1047 1.384 . S
H1050 C1056 0.930 . S
H1051 C1060 0.930 . S
H1052 C1065 0.929 . S
H1053 C1063 0.929 . S
H1054 C1058 0.929 . S
H1055 C1064 0.929 . S
C1056 H1050 0.930 . S
C1056 C1057 1.367 . S
C1056 C1064 1.378 . S
C1057 C1056 1.367 . S
C1057 C1065 1.433 . S
C1058 H1054 0.929 . S
C1058 C1060 1.378 . S
C1058 C1062 1.350 . S
C1059 C1062 1.463 . S
C1059 C1064 1.350 . S
C1059 N1067 1.427 . S
C1060 H1051 0.930 . S
C1060 C1058 1.378 . S
C1060 C1061 1.367 . S
C1061 C1060 1.367 . S
C1061 C1063 1.433 . S
C1062 C1058 1.350 . S
C1062 C1059 1.463 . S
C1062 N1066 1.427 . S
C1063 H1053 0.929 . S
C1063 C1061 1.433 . S
C1063 N1066 1.384 . S
C1064 H1055 0.929 . S
C1064 C1056 1.378 . S
C1064 C1059 1.350 . S
C1065 H1052 0.929 . S
C1065 C1057 1.433 . S
C1065 N1067 1.384 . S
N1066 C1062 1.427 . S
N1066 C1063 1.384 . S
N1067 C1059 1.427 . S
N1067 C1065 1.384 . S
H1068 C1074 0.930 . S
H1069 C1078 0.930 . S
H1070 C1083 0.929 . S
H1071 C1081 0.929 . S
H1072 C1076 0.929 . S
H1073 C1082 0.929 . S
C1074 H1068 0.930 . S
C1074 C1075 1.367 . S
C1074 C1082 1.378 . S
C1075 C1074 1.367 . S
C1075 C1083 1.433 . S
C1076 H1072 0.929 . S
C1076 C1078 1.378 . S
C1076 C1080 1.350 . S
C1077 C1080 1.463 . S
C1077 C1082 1.350 . S
C1077 N1085 1.427 . S
C1078 H1069 0.930 . S
C1078 C1076 1.378 . S
C1078 C1079 1.367 . S
C1079 C1078 1.367 . S
C1079 C1081 1.433 . S
C1080 C1076 1.350 . S
C1080 C1077 1.463 . S
C1080 N1084 1.427 . S
C1081 H1071 0.929 . S
C1081 C1079 1.433 . S
C1081 N1084 1.384 . S
C1082 H1073 0.929 . S
C1082 C1074 1.378 . S
C1082 C1077 1.350 . S
C1083 H1070 0.929 . S
C1083 C1075 1.433 . S
C1083 N1085 1.384 . S
N1084 C1080 1.427 . S
N1084 C1081 1.384 . S
N1085 C1077 1.427 . S
N1085 C1083 1.384 . S
H1086 C1092 0.930 . S
H1087 C1096 0.930 . S
H1088 C1101 0.929 . S
H1089 C1099 0.929 . S
H1090 C1094 0.929 . S
H1091 C1100 0.929 . S
C1092 H1086 0.930 . S
C1092 C1093 1.367 . S
C1092 C1100 1.378 . S
C1093 C1092 1.367 . S
C1093 C1101 1.433 . S
C1094 H1090 0.929 . S
C1094 C1096 1.378 . S
C1094 C1098 1.350 . S
C1095 C1098 1.463 . S
C1095 C1100 1.350 . S
C1095 N1103 1.427 . S
C1096 H1087 0.930 . S
C1096 C1094 1.378 . S
C1096 C1097 1.367 . S
C1097 C1096 1.367 . S
C1097 C1099 1.433 . S
C1098 C1094 1.350 . S
C1098 C1095 1.463 . S
C1098 N1102 1.427 . S
C1099 H1089 0.929 . S
C1099 C1097 1.433 . S
C1099 N1102 1.384 . S
C1100 H1091 0.929 . S
C1100 C1092 1.378 . S
C1100 C1095 1.350 . S
C1101 H1088 0.929 . S
C1101 C1093 1.433 . S
C1101 N1103 1.384 . S
N1102 C1098 1.427 . S
N1102 C1099 1.384 . S
N1103 C1095 1.427 . S
N1103 C1101 1.384 . S
H1104 C1110 0.930 . S
H1105 C1114 0.930 . S
H1106 C1119 0.929 . S
H1107 C1117 0.929 . S
H1108 C1112 0.929 . S
H1109 C1118 0.929 . S
C1110 H1104 0.930 . S
C1110 C1111 1.367 . S
C1110 C1118 1.378 . S
C1111 C1110 1.367 . S
C1111 C1119 1.433 . S
C1112 H1108 0.929 . S
C1112 C1114 1.378 . S
C1112 C1116 1.350 . S
C1113 C1116 1.463 . S
C1113 C1118 1.350 . S
C1113 N1121 1.427 . S
C1114 H1105 0.930 . S
C1114 C1112 1.378 . S
C1114 C1115 1.367 . S
C1115 C1114 1.367 . S
C1115 C1117 1.433 . S
C1116 C1112 1.350 . S
C1116 C1113 1.463 . S
C1116 N1120 1.427 . S
C1117 H1107 0.929 . S
C1117 C1115 1.433 . S
C1117 N1120 1.384 . S
C1118 H1109 0.929 . S
C1118 C1110 1.378 . S
C1118 C1113 1.350 . S
C1119 H1106 0.929 . S
C1119 C1111 1.433 . S
C1119 N1121 1.384 . S
N1120 C1116 1.427 . S
N1120 C1117 1.384 . S
N1121 C1113 1.427 . S
N1121 C1119 1.384 . S
H1122 C1128 0.930 . S
H1123 C1132 0.930 . S
H1124 C1137 0.929 . S
H1125 C1135 0.929 . S
H1126 C1130 0.929 . S
H1127 C1136 0.929 . S
C1128 H1122 0.930 . S
C1128 C1129 1.367 . S
C1128 C1136 1.378 . S
C1129 C1128 1.367 . S
C1129 C1137 1.433 . S
C1130 H1126 0.929 . S
C1130 C1132 1.378 . S
C1130 C1134 1.350 . S
C1131 C1134 1.463 . S
C1131 C1136 1.350 . S
C1131 N1139 1.427 . S
C1132 H1123 0.930 . S
C1132 C1130 1.378 . S
C1132 C1133 1.367 . S
C1133 C1132 1.367 . S
C1133 C1135 1.433 . S
C1134 C1130 1.350 . S
C1134 C1131 1.463 . S
C1134 N1138 1.427 . S
C1135 H1125 0.929 . S
C1135 C1133 1.433 . S
C1135 N1138 1.384 . S
C1136 H1127 0.929 . S
C1136 C1128 1.378 . S
C1136 C1131 1.350 . S
C1137 H1124 0.929 . S
C1137 C1129 1.433 . S
C1137 N1139 1.384 . S
N1138 C1134 1.427 . S
N1138 C1135 1.384 . S
N1139 C1131 1.427 . S
N1139 C1137 1.384 . S
H1140 C1146 0.930 . S
H1141 C1150 0.930 . S
H1142 C1155 0.929 . S
H1143 C1153 0.929 . S
H1144 C1148 0.929 . S
H1145 C1154 0.929 . S
C1146 H1140 0.930 . S
C1146 C1147 1.367 . S
C1146 C1154 1.378 . S
C1147 C1146 1.367 . S
C1147 C1155 1.433 . S
C1148 H1144 0.929 . S
C1148 C1150 1.378 . S
C1148 C1152 1.350 . S
C1149 C1152 1.463 . S
C1149 C1154 1.350 . S
C1149 N1157 1.427 . S
C1150 H1141 0.930 . S
C1150 C1148 1.378 . S
C1150 C1151 1.367 . S
C1151 C1150 1.367 . S
C1151 C1153 1.433 . S
C1152 C1148 1.350 . S
C1152 C1149 1.463 . S
C1152 N1156 1.427 . S
C1153 H1143 0.929 . S
C1153 C1151 1.433 . S
C1153 N1156 1.384 . S
C1154 H1145 0.929 . S
C1154 C1146 1.378 . S
C1154 C1149 1.350 . S
C1155 H1142 0.929 . S
C1155 C1147 1.433 . S
C1155 N1157 1.384 . S
N1156 C1152 1.427 . S
N1156 C1153 1.384 . S
N1157 C1149 1.427 . S
N1157 C1155 1.384 . S
H1158 C1164 0.930 . S
H1159 C1168 0.930 . S
H1160 C1173 0.929 . S
H1161 C1171 0.929 . S
H1162 C1166 0.929 . S
H1163 C1172 0.929 . S
C1164 H1158 0.930 . S
C1164 C1165 1.367 . S
C1164 C1172 1.378 . S
C1165 C1164 1.367 . S
C1165 C1173 1.433 . S
C1166 H1162 0.929 . S
C1166 C1168 1.378 . S
C1166 C1170 1.350 . S
C1167 C1170 1.463 . S
C1167 C1172 1.350 . S
C1167 N1175 1.427 . S
C1168 H1159 0.930 . S
C1168 C1166 1.378 . S
C1168 C1169 1.367 . S
C1169 C1168 1.367 . S
C1169 C1171 1.433 . S
C1170 C1166 1.350 . S
C1170 C1167 1.463 . S
C1170 N1174 1.427 . S
C1171 H1161 0.929 . S
C1171 C1169 1.433 . S
C1171 N1174 1.384 . S
C1172 H1163 0.929 . S
C1172 C1164 1.378 . S
C1172 C1167 1.350 . S
C1173 H1160 0.929 . S
C1173 C1165 1.433 . S
C1173 N1175 1.384 . S
N1174 C1170 1.427 . S
N1174 C1171 1.384 . S
N1175 C1167 1.427 . S
N1175 C1173 1.384 . S
H1176 C1182 0.930 . S
H1177 C1186 0.930 . S
H1178 C1191 0.929 . S
H1179 C1189 0.929 . S
H1180 C1184 0.929 . S
H1181 C1190 0.929 . S
C1182 H1176 0.930 . S
C1182 C1183 1.367 . S
C1182 C1190 1.378 . S
C1183 C1182 1.367 . S
C1183 C1191 1.433 . S
C1184 H1180 0.929 . S
C1184 C1186 1.378 . S
C1184 C1188 1.350 . S
C1185 C1188 1.463 . S
C1185 C1190 1.350 . S
C1185 N1193 1.427 . S
C1186 H1177 0.930 . S
C1186 C1184 1.378 . S
C1186 C1187 1.367 . S
C1187 C1186 1.367 . S
C1187 C1189 1.433 . S
C1188 C1184 1.350 . S
C1188 C1185 1.463 . S
C1188 N1192 1.427 . S
C1189 H1179 0.929 . S
C1189 C1187 1.433 . S
C1189 N1192 1.384 . S
C1190 H1181 0.929 . S
C1190 C1182 1.378 . S
C1190 C1185 1.350 . S
C1191 H1178 0.929 . S
C1191 C1183 1.433 . S
C1191 N1193 1.384 . S
N1192 C1188 1.427 . S
N1192 C1189 1.384 . S
N1193 C1185 1.427 . S
N1193 C1191 1.384 . S
H1194 C1200 0.930 . S
H1195 C1204 0.930 . S
H1196 C1209 0.929 . S
H1197 C1207 0.929 . S
H1198 C1202 0.929 . S
H1199 C1208 0.929 . S
C1200 H1194 0.930 . S
C1200 C1201 1.367 . S
C1200 C1208 1.378 . S
C1201 C1200 1.367 . S
C1201 C1209 1.433 . S
C1202 H1198 0.929 . S
C1202 C1204 1.378 . S
C1202 C1206 1.350 . S
C1203 C1206 1.463 . S
C1203 C1208 1.350 . S
C1203 N1211 1.427 . S
C1204 H1195 0.930 . S
C1204 C1202 1.378 . S
C1204 C1205 1.367 . S
C1205 C1204 1.367 . S
C1205 C1207 1.433 . S
C1206 C1202 1.350 . S
C1206 C1203 1.463 . S
C1206 N1210 1.427 . S
C1207 H1197 0.929 . S
C1207 C1205 1.433 . S
C1207 N1210 1.384 . S
C1208 H1199 0.929 . S
C1208 C1200 1.378 . S
C1208 C1203 1.350 . S
C1209 H1196 0.929 . S
C1209 C1201 1.433 . S
C1209 N1211 1.384 . S
N1210 C1206 1.427 . S
N1210 C1207 1.384 . S
N1211 C1203 1.427 . S
N1211 C1209 1.384 . S
H1212 C1218 0.930 . S
H1213 C1222 0.930 . S
H1214 C1227 0.929 . S
H1215 C1225 0.929 . S
H1216 C1220 0.929 . S
H1217 C1226 0.929 . S
C1218 H1212 0.930 . S
C1218 C1219 1.367 . S
C1218 C1226 1.378 . S
C1219 C1218 1.367 . S
C1219 C1227 1.433 . S
C1220 H1216 0.929 . S
C1220 C1222 1.378 . S
C1220 C1224 1.350 . S
C1221 C1224 1.463 . S
C1221 C1226 1.350 . S
C1221 N1229 1.427 . S
C1222 H1213 0.930 . S
C1222 C1220 1.378 . S
C1222 C1223 1.367 . S
C1223 C1222 1.367 . S
C1223 C1225 1.433 . S
C1224 C1220 1.350 . S
C1224 C1221 1.463 . S
C1224 N1228 1.427 . S
C1225 H1215 0.929 . S
C1225 C1223 1.433 . S
C1225 N1228 1.384 . S
C1226 H1217 0.929 . S
C1226 C1218 1.378 . S
C1226 C1221 1.350 . S
C1227 H1214 0.929 . S
C1227 C1219 1.433 . S
C1227 N1229 1.384 . S
N1228 C1224 1.427 . S
N1228 C1225 1.384 . S
N1229 C1221 1.427 . S
N1229 C1227 1.384 . S
H1230 C1236 0.930 . S
H1231 C1240 0.930 . S
H1232 C1245 0.929 . S
H1233 C1243 0.929 . S
H1234 C1238 0.929 . S
H1235 C1244 0.929 . S
C1236 H1230 0.930 . S
C1236 C1237 1.367 . S
C1236 C1244 1.378 . S
C1237 C1236 1.367 . S
C1237 C1245 1.433 . S
C1238 H1234 0.929 . S
C1238 C1240 1.378 . S
C1238 C1242 1.350 . S
C1239 C1242 1.463 . S
C1239 C1244 1.350 . S
C1239 N1247 1.427 . S
C1240 H1231 0.930 . S
C1240 C1238 1.378 . S
C1240 C1241 1.367 . S
C1241 C1240 1.367 . S
C1241 C1243 1.433 . S
C1242 C1238 1.350 . S
C1242 C1239 1.463 . S
C1242 N1246 1.427 . S
C1243 H1233 0.929 . S
C1243 C1241 1.433 . S
C1243 N1246 1.384 . S
C1244 H1235 0.929 . S
C1244 C1236 1.378 . S
C1244 C1239 1.350 . S
C1245 H1232 0.929 . S
C1245 C1237 1.433 . S
C1245 N1247 1.384 . S
N1246 C1242 1.427 . S
N1246 C1243 1.384 . S
N1247 C1239 1.427 . S
N1247 C1245 1.384 . S
H1248 C1254 0.930 . S
H1249 C1258 0.930 . S
H1250 C1263 0.929 . S
H1251 C1261 0.929 . S
H1252 C1256 0.929 . S
H1253 C1262 0.929 . S
C1254 H1248 0.930 . S
C1254 C1255 1.367 . S
C1254 C1262 1.378 . S
C1255 C1254 1.367 . S
C1255 C1263 1.433 . S
C1256 H1252 0.929 . S
C1256 C1258 1.378 . S
C1256 C1260 1.350 . S
C1257 C1260 1.463 . S
C1257 C1262 1.350 . S
C1257 N1265 1.427 . S
C1258 H1249 0.930 . S
C1258 C1256 1.378 . S
C1258 C1259 1.367 . S
C1259 C1258 1.367 . S
C1259 C1261 1.433 . S
C1260 C1256 1.350 . S
C1260 C1257 1.463 . S
C1260 N1264 1.427 . S
C1261 H1251 0.929 . S
C1261 C1259 1.433 . S
C1261 N1264 1.384 . S
C1262 H1253 0.929 . S
C1262 C1254 1.378 . S
C1262 C1257 1.350 . S
C1263 H1250 0.929 . S
C1263 C1255 1.433 . S
C1263 N1265 1.384 . S
N1264 C1260 1.427 . S
N1264 C1261 1.384 . S
N1265 C1257 1.427 . S
N1265 C1263 1.384 . S
H1266 C1272 0.930 . S
H1267 C1276 0.930 . S
H1268 C1281 0.929 . S
H1269 C1279 0.929 . S
H1270 C1274 0.929 . S
H1271 C1280 0.929 . S
C1272 H1266 0.930 . S
C1272 C1273 1.367 . S
C1272 C1280 1.378 . S
C1273 C1272 1.367 . S
C1273 C1281 1.433 . S
C1274 H1270 0.929 . S
C1274 C1276 1.378 . S
C1274 C1278 1.350 . S
C1275 C1278 1.463 . S
C1275 C1280 1.350 . S
C1275 N1283 1.427 . S
C1276 H1267 0.930 . S
C1276 C1274 1.378 . S
C1276 C1277 1.367 . S
C1277 C1276 1.367 . S
C1277 C1279 1.433 . S
C1278 C1274 1.350 . S
C1278 C1275 1.463 . S
C1278 N1282 1.427 . S
C1279 H1269 0.929 . S
C1279 C1277 1.433 . S
C1279 N1282 1.384 . S
C1280 H1271 0.929 . S
C1280 C1272 1.378 . S
C1280 C1275 1.350 . S
C1281 H1268 0.929 . S
C1281 C1273 1.433 . S
C1281 N1283 1.384 . S
N1282 C1278 1.427 . S
N1282 C1279 1.384 . S
N1283 C1275 1.427 . S
N1283 C1281 1.384 . S
H1284 C1290 0.930 . S
H1285 C1294 0.930 . S
H1286 C1299 0.929 . S
H1287 C1297 0.929 . S
H1288 C1292 0.929 . S
H1289 C1298 0.929 . S
C1290 H1284 0.930 . S
C1290 C1291 1.367 . S
C1290 C1298 1.378 . S
C1291 C1290 1.367 . S
C1291 C1299 1.433 . S
C1292 H1288 0.929 . S
C1292 C1294 1.378 . S
C1292 C1296 1.350 . S
C1293 C1296 1.463 . S
C1293 C1298 1.350 . S
C1293 N1301 1.427 . S
C1294 H1285 0.930 . S
C1294 C1292 1.378 . S
C1294 C1295 1.367 . S
C1295 C1294 1.367 . S
C1295 C1297 1.433 . S
C1296 C1292 1.350 . S
C1296 C1293 1.463 . S
C1296 N1300 1.427 . S
C1297 H1287 0.929 . S
C1297 C1295 1.433 . S
C1297 N1300 1.384 . S
C1298 H1289 0.929 . S
C1298 C1290 1.378 . S
C1298 C1293 1.350 . S
C1299 H1286 0.929 . S
C1299 C1291 1.433 . S
C1299 N1301 1.384 . S
N1300 C1296 1.427 . S
N1300 C1297 1.384 . S
N1301 C1293 1.427 . S
N1301 C1299 1.384 . S
H1302 C1308 0.930 . S
H1303 C1312 0.930 . S
H1304 C1317 0.929 . S
H1305 C1315 0.929 . S
H1306 C1310 0.929 . S
H1307 C1316 0.929 . S
C1308 H1302 0.930 . S
C1308 C1309 1.367 . S
C1308 C1316 1.378 . S
C1309 C1308 1.367 . S
C1309 C1317 1.433 . S
C1310 H1306 0.929 . S
C1310 C1312 1.378 . S
C1310 C1314 1.350 . S
C1311 C1314 1.463 . S
C1311 C1316 1.350 . S
C1311 N1319 1.427 . S
C1312 H1303 0.930 . S
C1312 C1310 1.378 . S
C1312 C1313 1.367 . S
C1313 C1312 1.367 . S
C1313 C1315 1.433 . S
C1314 C1310 1.350 . S
C1314 C1311 1.463 . S
C1314 N1318 1.427 . S
C1315 H1305 0.929 . S
C1315 C1313 1.433 . S
C1315 N1318 1.384 . S
C1316 H1307 0.929 . S
C1316 C1308 1.378 . S
C1316 C1311 1.350 . S
C1317 H1304 0.929 . S
C1317 C1309 1.433 . S
C1317 N1319 1.384 . S
N1318 C1314 1.427 . S
N1318 C1315 1.384 . S
N1319 C1311 1.427 . S
N1319 C1317 1.384 . S
H1320 C1326 0.930 . S
H1321 C1330 0.930 . S
H1322 C1335 0.929 . S
H1323 C1333 0.929 . S
H1324 C1328 0.929 . S
H1325 C1334 0.929 . S
C1326 H1320 0.930 . S
C1326 C1327 1.367 . S
C1326 C1334 1.378 . S
C1327 C1326 1.367 . S
C1327 C1335 1.433 . S
C1328 H1324 0.929 . S
C1328 C1330 1.378 . S
C1328 C1332 1.350 . S
C1329 C1332 1.463 . S
C1329 C1334 1.350 . S
C1329 N1337 1.427 . S
C1330 H1321 0.930 . S
C1330 C1328 1.378 . S
C1330 C1331 1.367 . S
C1331 C1330 1.367 . S
C1331 C1333 1.433 . S
C1332 C1328 1.350 . S
C1332 C1329 1.463 . S
C1332 N1336 1.427 . S
C1333 H1323 0.929 . S
C1333 C1331 1.433 . S
C1333 N1336 1.384 . S
C1334 H1325 0.929 . S
C1334 C1326 1.378 . S
C1334 C1329 1.350 . S
C1335 H1322 0.929 . S
C1335 C1327 1.433 . S
C1335 N1337 1.384 . S
N1336 C1332 1.427 . S
N1336 C1333 1.384 . S
N1337 C1329 1.427 . S
N1337 C1335 1.384 . S
H1338 C1344 0.930 . S
H1339 C1348 0.930 . S
H1340 C1353 0.929 . S
H1341 C1351 0.929 . S
H1342 C1346 0.929 . S
H1343 C1352 0.929 . S
C1344 H1338 0.930 . S
C1344 C1345 1.367 . S
C1344 C1352 1.378 . S
C1345 C1344 1.367 . S
C1345 C1353 1.433 . S
C1346 H1342 0.929 . S
C1346 C1348 1.378 . S
C1346 C1350 1.350 . S
C1347 C1350 1.463 . S
C1347 C1352 1.350 . S
C1347 N1355 1.427 . S
C1348 H1339 0.930 . S
C1348 C1346 1.378 . S
C1348 C1349 1.367 . S
C1349 C1348 1.367 . S
C1349 C1351 1.433 . S
C1350 C1346 1.350 . S
C1350 C1347 1.463 . S
C1350 N1354 1.427 . S
C1351 H1341 0.929 . S
C1351 C1349 1.433 . S
C1351 N1354 1.384 . S
C1352 H1343 0.929 . S
C1352 C1344 1.378 . S
C1352 C1347 1.350 . S
C1353 H1340 0.929 . S
C1353 C1345 1.433 . S
C1353 N1355 1.384 . S
N1354 C1350 1.427 . S
N1354 C1351 1.384 . S
N1355 C1347 1.427 . S
N1355 C1353 1.384 . S
H1356 C1362 0.930 . S
H1357 C1366 0.930 . S
H1358 C1371 0.929 . S
H1359 C1369 0.929 . S
H1360 C1364 0.929 . S
H1361 C1370 0.929 . S
C1362 H1356 0.930 . S
C1362 C1363 1.367 . S
C1362 C1370 1.378 . S
C1363 C1362 1.367 . S
C1363 C1371 1.433 . S
C1364 H1360 0.929 . S
C1364 C1366 1.378 . S
C1364 C1368 1.350 . S
C1365 C1368 1.463 . S
C1365 C1370 1.350 . S
C1365 N1373 1.427 . S
C1366 H1357 0.930 . S
C1366 C1364 1.378 . S
C1366 C1367 1.367 . S
C1367 C1366 1.367 . S
C1367 C1369 1.433 . S
C1368 C1364 1.350 . S
C1368 C1365 1.463 . S
C1368 N1372 1.427 . S
C1369 H1359 0.929 . S
C1369 C1367 1.433 . S
C1369 N1372 1.384 . S
C1370 H1361 0.929 . S
C1370 C1362 1.378 . S
C1370 C1365 1.350 . S
C1371 H1358 0.929 . S
C1371 C1363 1.433 . S
C1371 N1373 1.384 . S
N1372 C1368 1.427 . S
N1372 C1369 1.384 . S
N1373 C1365 1.427 . S
N1373 C1371 1.384 . S
H1374 C1380 0.930 . S
H1375 C1384 0.930 . S
H1376 C1389 0.929 . S
H1377 C1387 0.929 . S
H1378 C1382 0.929 . S
H1379 C1388 0.929 . S
C1380 H1374 0.930 . S
C1380 C1381 1.367 . S
C1380 C1388 1.378 . S
C1381 C1380 1.367 . S
C1381 C1389 1.433 . S
C1382 H1378 0.929 . S
C1382 C1384 1.378 . S
C1382 C1386 1.350 . S
C1383 C1386 1.463 . S
C1383 C1388 1.350 . S
C1383 N1391 1.427 . S
C1384 H1375 0.930 . S
C1384 C1382 1.378 . S
C1384 C1385 1.367 . S
C1385 C1384 1.367 . S
C1385 C1387 1.433 . S
C1386 C1382 1.350 . S
C1386 C1383 1.463 . S
C1386 N1390 1.427 . S
C1387 H1377 0.929 . S
C1387 C1385 1.433 . S
C1387 N1390 1.384 . S
C1388 H1379 0.929 . S
C1388 C1380 1.378 . S
C1388 C1383 1.350 . S
C1389 H1376 0.929 . S
C1389 C1381 1.433 . S
C1389 N1391 1.384 . S
N1390 C1386 1.427 . S
N1390 C1387 1.384 . S
N1391 C1383 1.427 . S
N1391 C1389 1.384 . S
H1392 C1398 0.930 . S
H1393 C1402 0.930 . S
H1394 C1407 0.929 . S
H1395 C1405 0.929 . S
H1396 C1400 0.929 . S
H1397 C1406 0.929 . S
C1398 H1392 0.930 . S
C1398 C1399 1.367 . S
C1398 C1406 1.378 . S
C1399 C1398 1.367 . S
C1399 C1407 1.433 . S
C1400 H1396 0.929 . S
C1400 C1402 1.378 . S
C1400 C1404 1.350 . S
C1401 C1404 1.463 . S
C1401 C1406 1.350 . S
C1401 N1409 1.427 . S
C1402 H1393 0.930 . S
C1402 C1400 1.378 . S
C1402 C1403 1.367 . S
C1403 C1402 1.367 . S
C1403 C1405 1.433 . S
C1404 C1400 1.350 . S
C1404 C1401 1.463 . S
C1404 N1408 1.427 . S
C1405 H1395 0.929 . S
C1405 C1403 1.433 . S
C1405 N1408 1.384 . S
C1406 H1397 0.929 . S
C1406 C1398 1.378 . S
C1406 C1401 1.350 . S
C1407 H1394 0.929 . S
C1407 C1399 1.433 . S
C1407 N1409 1.384 . S
N1408 C1404 1.427 . S
N1408 C1405 1.384 . S
N1409 C1401 1.427 . S
N1409 C1407 1.384 . S
H1410 C1416 0.930 . S
H1411 C1420 0.930 . S
H1412 C1425 0.929 . S
H1413 C1423 0.929 . S
H1414 C1418 0.929 . S
H1415 C1424 0.929 . S
C1416 H1410 0.930 . S
C1416 C1417 1.367 . S
C1416 C1424 1.378 . S
C1417 C1416 1.367 . S
C1417 C1425 1.433 . S
C1418 H1414 0.929 . S
C1418 C1420 1.378 . S
C1418 C1422 1.350 . S
C1419 C1422 1.463 . S
C1419 C1424 1.350 . S
C1419 N1427 1.427 . S
C1420 H1411 0.930 . S
C1420 C1418 1.378 . S
C1420 C1421 1.367 . S
C1421 C1420 1.367 . S
C1421 C1423 1.433 . S
C1422 C1418 1.350 . S
C1422 C1419 1.463 . S
C1422 N1426 1.427 . S
C1423 H1413 0.929 . S
C1423 C1421 1.433 . S
C1423 N1426 1.384 . S
C1424 H1415 0.929 . S
C1424 C1416 1.378 . S
C1424 C1419 1.350 . S
C1425 H1412 0.929 . S
C1425 C1417 1.433 . S
C1425 N1427 1.384 . S
N1426 C1422 1.427 . S
N1426 C1423 1.384 . S
N1427 C1419 1.427 . S
N1427 C1425 1.384 . S
H1428 C1434 0.930 . S
H1429 C1438 0.930 . S
H1430 C1443 0.929 . S
H1431 C1441 0.929 . S
H1432 C1436 0.929 . S
H1433 C1442 0.929 . S
C1434 H1428 0.930 . S
C1434 C1435 1.367 . S
C1434 C1442 1.378 . S
C1435 C1434 1.367 . S
C1435 C1443 1.433 . S
C1436 H1432 0.929 . S
C1436 C1438 1.378 . S
C1436 C1440 1.350 . S
C1437 C1440 1.463 . S
C1437 C1442 1.350 . S
C1437 N1445 1.427 . S
C1438 H1429 0.930 . S
C1438 C1436 1.378 . S
C1438 C1439 1.367 . S
C1439 C1438 1.367 . S
C1439 C1441 1.433 . S
C1440 C1436 1.350 . S
C1440 C1437 1.463 . S
C1440 N1444 1.427 . S
C1441 H1431 0.929 . S
C1441 C1439 1.433 . S
C1441 N1444 1.384 . S
C1442 H1433 0.929 . S
C1442 C1434 1.378 . S
C1442 C1437 1.350 . S
C1443 H1430 0.929 . S
C1443 C1435 1.433 . S
C1443 N1445 1.384 . S
N1444 C1440 1.427 . S
N1444 C1441 1.384 . S
N1445 C1437 1.427 . S
N1445 C1443 1.384 . S
H1446 C1452 0.930 . S
H1447 C1456 0.930 . S
H1448 C1461 0.929 . S
H1449 C1459 0.929 . S
H1450 C1454 0.929 . S
H1451 C1460 0.929 . S
C1452 H1446 0.930 . S
C1452 C1453 1.367 . S
C1452 C1460 1.378 . S
C1453 C1452 1.367 . S
C1453 C1461 1.433 . S
C1454 H1450 0.929 . S
C1454 C1456 1.378 . S
C1454 C1458 1.350 . S
C1455 C1458 1.463 . S
C1455 C1460 1.350 . S
C1455 N1463 1.427 . S
C1456 H1447 0.930 . S
C1456 C1454 1.378 . S
C1456 C1457 1.367 . S
C1457 C1456 1.367 . S
C1457 C1459 1.433 . S
C1458 C1454 1.350 . S
C1458 C1455 1.463 . S
C1458 N1462 1.427 . S
C1459 H1449 0.929 . S
C1459 C1457 1.433 . S
C1459 N1462 1.384 . S
C1460 H1451 0.929 . S
C1460 C1452 1.378 . S
C1460 C1455 1.350 . S
C1461 H1448 0.929 . S
C1461 C1453 1.433 . S
C1461 N1463 1.384 . S
N1462 C1458 1.427 . S
N1462 C1459 1.384 . S
N1463 C1455 1.427 . S
N1463 C1461 1.384 . S
H1464 C1470 0.930 . S
H1465 C1474 0.930 . S
H1466 C1479 0.929 . S
H1467 C1477 0.929 . S
H1468 C1472 0.929 . S
H1469 C1478 0.929 . S
C1470 H1464 0.930 . S
C1470 C1471 1.367 . S
C1470 C1478 1.378 . S
C1471 C1470 1.367 . S
C1471 C1479 1.433 . S
C1472 H1468 0.929 . S
C1472 C1474 1.378 . S
C1472 C1476 1.350 . S
C1473 C1476 1.463 . S
C1473 C1478 1.350 . S
C1473 N1481 1.427 . S
C1474 H1465 0.930 . S
C1474 C1472 1.378 . S
C1474 C1475 1.367 . S
C1475 C1474 1.367 . S
C1475 C1477 1.433 . S
C1476 C1472 1.350 . S
C1476 C1473 1.463 . S
C1476 N1480 1.427 . S
C1477 H1467 0.929 . S
C1477 C1475 1.433 . S
C1477 N1480 1.384 . S
C1478 H1469 0.929 . S
C1478 C1470 1.378 . S
C1478 C1473 1.350 . S
C1479 H1466 0.929 . S
C1479 C1471 1.433 . S
C1479 N1481 1.384 . S
N1480 C1476 1.427 . S
N1480 C1477 1.384 . S
N1481 C1473 1.427 . S
N1481 C1479 1.384 . S
H1482 C1488 0.930 . S
H1483 C1492 0.930 . S
H1484 C1497 0.929 . S
H1485 C1495 0.929 . S
H1486 C1490 0.929 . S
H1487 C1496 0.929 . S
C1488 H1482 0.930 . S
C1488 C1489 1.367 . S
C1488 C1496 1.378 . S
C1489 C1488 1.367 . S
C1489 C1497 1.433 . S
C1490 H1486 0.929 . S
C1490 C1492 1.378 . S
C1490 C1494 1.350 . S
C1491 C1494 1.463 . S
C1491 C1496 1.350 . S
C1491 N1499 1.427 . S
C1492 H1483 0.930 . S
C1492 C1490 1.378 . S
C1492 C1493 1.367 . S
C1493 C1492 1.367 . S
C1493 C1495 1.433 . S
C1494 C1490 1.350 . S
C1494 C1491 1.463 . S
C1494 N1498 1.427 . S
C1495 H1485 0.929 . S
C1495 C1493 1.433 . S
C1495 N1498 1.384 . S
C1496 H1487 0.929 . S
C1496 C1488 1.378 . S
C1496 C1491 1.350 . S
C1497 H1484 0.929 . S
C1497 C1489 1.433 . S
C1497 N1499 1.384 . S
N1498 C1494 1.427 . S
N1498 C1495 1.384 . S
N1499 C1491 1.427 . S
N1499 C1497 1.384 . S
H1500 C1506 0.930 . S
H1501 C1510 0.930 . S
H1502 C1515 0.929 . S
H1503 C1513 0.929 . S
H1504 C1508 0.929 . S
H1505 C1514 0.929 . S
C1506 H1500 0.930 . S
C1506 C1507 1.367 . S
C1506 C1514 1.378 . S
C1507 C1506 1.367 . S
C1507 C1515 1.433 . S
C1508 H1504 0.929 . S
C1508 C1510 1.378 . S
C1508 C1512 1.350 . S
C1509 C1512 1.463 . S
C1509 C1514 1.350 . S
C1509 N1517 1.427 . S
C1510 H1501 0.930 . S
C1510 C1508 1.378 . S
C1510 C1511 1.367 . S
C1511 C1510 1.367 . S
C1511 C1513 1.433 . S
C1512 C1508 1.350 . S
C1512 C1509 1.463 . S
C1512 N1516 1.427 . S
C1513 H1503 0.929 . S
C1513 C1511 1.433 . S
C1513 N1516 1.384 . S
C1514 H1505 0.929 . S
C1514 C1506 1.378 . S
C1514 C1509 1.350 . S
C1515 H1502 0.929 . S
C1515 C1507 1.433 . S
C1515 N1517 1.384 . S
N1516 C1512 1.427 . S
N1516 C1513 1.384 . S
N1517 C1509 1.427 . S
N1517 C1515 1.384 . S
H1518 C1524 0.930 . S
H1519 C1528 0.930 . S
H1520 C1533 0.929 . S
H1521 C1531 0.929 . S
H1522 C1526 0.929 . S
H1523 C1532 0.929 . S
C1524 H1518 0.930 . S
C1524 C1525 1.367 . S
C1524 C1532 1.378 . S
C1525 C1524 1.367 . S
C1525 C1533 1.433 . S
C1526 H1522 0.929 . S
C1526 C1528 1.378 . S
C1526 C1530 1.350 . S
C1527 C1530 1.463 . S
C1527 C1532 1.350 . S
C1527 N1535 1.427 . S
C1528 H1519 0.930 . S
C1528 C1526 1.378 . S
C1528 C1529 1.367 . S
C1529 C1528 1.367 . S
C1529 C1531 1.433 . S
C1530 C1526 1.350 . S
C1530 C1527 1.463 . S
C1530 N1534 1.427 . S
C1531 H1521 0.929 . S
C1531 C1529 1.433 . S
C1531 N1534 1.384 . S
C1532 H1523 0.929 . S
C1532 C1524 1.378 . S
C1532 C1527 1.350 . S
C1533 H1520 0.929 . S
C1533 C1525 1.433 . S
C1533 N1535 1.384 . S
N1534 C1530 1.427 . S
N1534 C1531 1.384 . S
N1535 C1527 1.427 . S
N1535 C1533 1.384 . S
H1536 C1542 0.930 . S
H1537 C1546 0.930 . S
H1538 C1551 0.929 . S
H1539 C1549 0.929 . S
H1540 C1544 0.929 . S
H1541 C1550 0.929 . S
C1542 H1536 0.930 . S
C1542 C1543 1.367 . S
C1542 C1550 1.378 . S
C1543 C1542 1.367 . S
C1543 C1551 1.433 . S
C1544 H1540 0.929 . S
C1544 C1546 1.378 . S
C1544 C1548 1.350 . S
C1545 C1548 1.463 . S
C1545 C1550 1.350 . S
C1545 N1553 1.427 . S
C1546 H1537 0.930 . S
C1546 C1544 1.378 . S
C1546 C1547 1.367 . S
C1547 C1546 1.367 . S
C1547 C1549 1.433 . S
C1548 C1544 1.350 . S
C1548 C1545 1.463 . S
C1548 N1552 1.427 . S
C1549 H1539 0.929 . S
C1549 C1547 1.433 . S
C1549 N1552 1.384 . S
C1550 H1541 0.929 . S
C1550 C1542 1.378 . S
C1550 C1545 1.350 . S
C1551 H1538 0.929 . S
C1551 C1543 1.433 . S
C1551 N1553 1.384 . S
N1552 C1548 1.427 . S
N1552 C1549 1.384 . S
N1553 C1545 1.427 . S
N1553 C1551 1.384 . S
H1554 C1560 0.930 . S
H1555 C1564 0.930 . S
H1556 C1569 0.929 . S
H1557 C1567 0.929 . S
H1558 C1562 0.929 . S
H1559 C1568 0.929 . S
C1560 H1554 0.930 . S
C1560 C1561 1.367 . S
C1560 C1568 1.378 . S
C1561 C1560 1.367 . S
C1561 C1569 1.433 . S
C1562 H1558 0.929 . S
C1562 C1564 1.378 . S
C1562 C1566 1.350 . S
C1563 C1566 1.463 . S
C1563 C1568 1.350 . S
C1563 N1571 1.427 . S
C1564 H1555 0.930 . S
C1564 C1562 1.378 . S
C1564 C1565 1.367 . S
C1565 C1564 1.367 . S
C1565 C1567 1.433 . S
C1566 C1562 1.350 . S
C1566 C1563 1.463 . S
C1566 N1570 1.427 . S
C1567 H1557 0.929 . S
C1567 C1565 1.433 . S
C1567 N1570 1.384 . S
C1568 H1559 0.929 . S
C1568 C1560 1.378 . S
C1568 C1563 1.350 . S
C1569 H1556 0.929 . S
C1569 C1561 1.433 . S
C1569 N1571 1.384 . S
N1570 C1566 1.427 . S
N1570 C1567 1.384 . S
N1571 C1563 1.427 . S
N1571 C1569 1.384 . S
H1572 C1578 0.930 . S
H1573 C1582 0.930 . S
H1574 C1587 0.929 . S
H1575 C1585 0.929 . S
H1576 C1580 0.929 . S
H1577 C1586 0.929 . S
C1578 H1572 0.930 . S
C1578 C1579 1.367 . S
C1578 C1586 1.378 . S
C1579 C1578 1.367 . S
C1579 C1587 1.433 . S
C1580 H1576 0.929 . S
C1580 C1582 1.378 . S
C1580 C1584 1.350 . S
C1581 C1584 1.463 . S
C1581 C1586 1.350 . S
C1581 N1589 1.427 . S
C1582 H1573 0.930 . S
C1582 C1580 1.378 . S
C1582 C1583 1.367 . S
C1583 C1582 1.367 . S
C1583 C1585 1.433 . S
C1584 C1580 1.350 . S
C1584 C1581 1.463 . S
C1584 N1588 1.427 . S
C1585 H1575 0.929 . S
C1585 C1583 1.433 . S
C1585 N1588 1.384 . S
C1586 H1577 0.929 . S
C1586 C1578 1.378 . S
C1586 C1581 1.350 . S
C1587 H1574 0.929 . S
C1587 C1579 1.433 . S
C1587 N1589 1.384 . S
N1588 C1584 1.427 . S
N1588 C1585 1.384 . S
N1589 C1581 1.427 . S
N1589 C1587 1.384 . S
H1590 C1596 0.930 . S
H1591 C1600 0.930 . S
H1592 C1605 0.929 . S
H1593 C1603 0.929 . S
H1594 C1598 0.929 . S
H1595 C1604 0.929 . S
C1596 H1590 0.930 . S
C1596 C1597 1.367 . S
C1596 C1604 1.378 . S
C1597 C1596 1.367 . S
C1597 C1605 1.433 . S
C1598 H1594 0.929 . S
C1598 C1600 1.378 . S
C1598 C1602 1.350 . S
C1599 C1602 1.463 . S
C1599 C1604 1.350 . S
C1599 N1607 1.427 . S
C1600 H1591 0.930 . S
C1600 C1598 1.378 . S
C1600 C1601 1.367 . S
C1601 C1600 1.367 . S
C1601 C1603 1.433 . S
C1602 C1598 1.350 . S
C1602 C1599 1.463 . S
C1602 N1606 1.427 . S
C1603 H1593 0.929 . S
C1603 C1601 1.433 . S
C1603 N1606 1.384 . S
C1604 H1595 0.929 . S
C1604 C1596 1.378 . S
C1604 C1599 1.350 . S
C1605 H1592 0.929 . S
C1605 C1597 1.433 . S
C1605 N1607 1.384 . S
N1606 C1602 1.427 . S
N1606 C1603 1.384 . S
N1607 C1599 1.427 . S
N1607 C1605 1.384 . S
H1608 C1614 0.930 . S
H1609 C1618 0.930 . S
H1610 C1623 0.929 . S
H1611 C1621 0.929 . S
H1612 C1616 0.929 . S
H1613 C1622 0.929 . S
C1614 H1608 0.930 . S
C1614 C1615 1.367 . S
C1614 C1622 1.378 . S
C1615 C1614 1.367 . S
C1615 C1623 1.433 . S
C1616 H1612 0.929 . S
C1616 C1618 1.378 . S
C1616 C1620 1.350 . S
C1617 C1620 1.463 . S
C1617 C1622 1.350 . S
C1617 N1625 1.427 . S
C1618 H1609 0.930 . S
C1618 C1616 1.378 . S
C1618 C1619 1.367 . S
C1619 C1618 1.367 . S
C1619 C1621 1.433 . S
C1620 C1616 1.350 . S
C1620 C1617 1.463 . S
C1620 N1624 1.427 . S
C1621 H1611 0.929 . S
C1621 C1619 1.433 . S
C1621 N1624 1.384 . S
C1622 H1613 0.929 . S
C1622 C1614 1.378 . S
C1622 C1617 1.350 . S
C1623 H1610 0.929 . S
C1623 C1615 1.433 . S
C1623 N1625 1.384 . S
N1624 C1620 1.427 . S
N1624 C1621 1.384 . S
N1625 C1617 1.427 . S
N1625 C1623 1.384 . S
H1626 C1632 0.930 . S
H1627 C1636 0.930 . S
H1628 C1641 0.929 . S
H1629 C1639 0.929 . S
H1630 C1634 0.929 . S
H1631 C1640 0.929 . S
C1632 H1626 0.930 . S
C1632 C1633 1.367 . S
C1632 C1640 1.378 . S
C1633 C1632 1.367 . S
C1633 C1641 1.433 . S
C1634 H1630 0.929 . S
C1634 C1636 1.378 . S
C1634 C1638 1.350 . S
C1635 C1638 1.463 . S
C1635 C1640 1.350 . S
C1635 N1643 1.427 . S
C1636 H1627 0.930 . S
C1636 C1634 1.378 . S
C1636 C1637 1.367 . S
C1637 C1636 1.367 . S
C1637 C1639 1.433 . S
C1638 C1634 1.350 . S
C1638 C1635 1.463 . S
C1638 N1642 1.427 . S
C1639 H1629 0.929 . S
C1639 C1637 1.433 . S
C1639 N1642 1.384 . S
C1640 H1631 0.929 . S
C1640 C1632 1.378 . S
C1640 C1635 1.350 . S
C1641 H1628 0.929 . S
C1641 C1633 1.433 . S
C1641 N1643 1.384 . S
N1642 C1638 1.427 . S
N1642 C1639 1.384 . S
N1643 C1635 1.427 . S
N1643 C1641 1.384 . S
H1644 C1650 0.930 . S
H1645 C1654 0.930 . S
H1646 C1659 0.929 . S
H1647 C1657 0.929 . S
H1648 C1652 0.929 . S
H1649 C1658 0.929 . S
C1650 H1644 0.930 . S
C1650 C1651 1.367 . S
C1650 C1658 1.378 . S
C1651 C1650 1.367 . S
C1651 C1659 1.433 . S
C1652 H1648 0.929 . S
C1652 C1654 1.378 . S
C1652 C1656 1.350 . S
C1653 C1656 1.463 . S
C1653 C1658 1.350 . S
C1653 N1661 1.427 . S
C1654 H1645 0.930 . S
C1654 C1652 1.378 . S
C1654 C1655 1.367 . S
C1655 C1654 1.367 . S
C1655 C1657 1.433 . S
C1656 C1652 1.350 . S
C1656 C1653 1.463 . S
C1656 N1660 1.427 . S
C1657 H1647 0.929 . S
C1657 C1655 1.433 . S
C1657 N1660 1.384 . S
C1658 H1649 0.929 . S
C1658 C1650 1.378 . S
C1658 C1653 1.350 . S
C1659 H1646 0.929 . S
C1659 C1651 1.433 . S
C1659 N1661 1.384 . S
N1660 C1656 1.427 . S
N1660 C1657 1.384 . S
N1661 C1653 1.427 . S
N1661 C1659 1.384 . S
H1662 C1668 0.930 . S
H1663 C1672 0.930 . S
H1664 C1677 0.929 . S
H1665 C1675 0.929 . S
H1666 C1670 0.929 . S
H1667 C1676 0.929 . S
C1668 H1662 0.930 . S
C1668 C1669 1.367 . S
C1668 C1676 1.378 . S
C1669 C1668 1.367 . S
C1669 C1677 1.433 . S
C1670 H1666 0.929 . S
C1670 C1672 1.378 . S
C1670 C1674 1.350 . S
C1671 C1674 1.463 . S
C1671 C1676 1.350 . S
C1671 N1679 1.427 . S
C1672 H1663 0.930 . S
C1672 C1670 1.378 . S
C1672 C1673 1.367 . S
C1673 C1672 1.367 . S
C1673 C1675 1.433 . S
C1674 C1670 1.350 . S
C1674 C1671 1.463 . S
C1674 N1678 1.427 . S
C1675 H1665 0.929 . S
C1675 C1673 1.433 . S
C1675 N1678 1.384 . S
C1676 H1667 0.929 . S
C1676 C1668 1.378 . S
C1676 C1671 1.350 . S
C1677 H1664 0.929 . S
C1677 C1669 1.433 . S
C1677 N1679 1.384 . S
N1678 C1674 1.427 . S
N1678 C1675 1.384 . S
N1679 C1671 1.427 . S
N1679 C1677 1.384 . S
H1680 C1686 0.930 . S
H1681 C1690 0.930 . S
H1682 C1695 0.929 . S
H1683 C1693 0.929 . S
H1684 C1688 0.929 . S
H1685 C1694 0.929 . S
C1686 H1680 0.930 . S
C1686 C1687 1.367 . S
C1686 C1694 1.378 . S
C1687 C1686 1.367 . S
C1687 C1695 1.433 . S
C1688 H1684 0.929 . S
C1688 C1690 1.378 . S
C1688 C1692 1.350 . S
C1689 C1692 1.463 1_455 S
C1689 C1694 1.350 . S
C1689 N1697 1.427 . S
C1690 H1681 0.930 . S
C1690 C1688 1.378 . S
C1690 C1691 1.367 . S
C1691 C1690 1.367 . S
C1691 C1693 1.433 . S
C1692 C1688 1.350 . S
C1692 C1689 1.463 1_655 S
C1692 N1696 1.427 . S
C1693 H1683 0.929 . S
C1693 C1691 1.433 . S
C1693 N1696 1.384 . S
C1694 H1685 0.929 . S
C1694 C1686 1.378 . S
C1694 C1689 1.350 . S
C1695 H1682 0.929 . S
C1695 C1687 1.433 . S
C1695 N1697 1.384 . S
N1696 C1692 1.427 . S
N1696 C1693 1.384 . S
N1697 C1689 1.427 . S
N1697 C1695 1.384 . S
H1698 C1704 0.930 . S
H1699 C1708 0.930 . S
H1700 C1713 0.929 . S
H1701 C1711 0.929 . S
H1702 C1706 0.946 . S
H1703 C1712 0.946 . S
C1704 H1698 0.930 . S
C1704 C1705 1.367 . S
C1704 C1712 1.378 . S
C1705 C1704 1.367 . S
C1705 C1713 1.433 . S
C1706 H1702 0.946 . S
C1706 C1708 1.378 . S
C1706 C1710 1.350 . S
C1707 C1710 1.463 1_545 S
C1707 C1712 1.350 . S
C1707 N1715 1.427 . S
C1708 H1699 0.930 . S
C1708 C1706 1.378 . S
C1708 C1709 1.367 . S
C1709 C1708 1.367 . S
C1709 C1711 1.433 . S
C1710 C1706 1.350 . S
C1710 C1707 1.463 1_565 S
C1710 N1714 1.427 . S
C1711 H1701 0.929 . S
C1711 C1709 1.433 . S
C1711 N1714 1.384 . S
C1712 H1703 0.946 . S
C1712 C1704 1.378 . S
C1712 C1707 1.350 . S
C1713 H1700 0.929 . S
C1713 C1705 1.433 . S
C1713 N1715 1.384 . S
N1714 C1710 1.427 . S
N1714 C1711 1.384 . S
N1715 C1707 1.427 . S
N1715 C1713 1.384 . S
H1716 C1722 0.930 . S
H1717 C1726 0.930 . S
H1718 C1731 0.929 . S
H1719 C1729 0.929 . S
H1720 C1724 0.929 . S
H1721 C1730 0.929 . S
C1722 H1716 0.930 . S
C1722 C1723 1.367 . S
C1722 C1730 1.378 . S
C1723 C1722 1.367 . S
C1723 C1731 1.433 . S
C1724 H1720 0.929 . S
C1724 C1726 1.378 . S
C1724 C1728 1.350 . S
C1725 C1728 1.463 1_455 S
C1725 C1730 1.350 . S
C1725 N1733 1.427 . S
C1726 H1717 0.930 . S
C1726 C1724 1.378 . S
C1726 C1727 1.367 . S
C1727 C1726 1.367 . S
C1727 C1729 1.433 . S
C1728 C1724 1.350 . S
C1728 C1725 1.463 1_655 S
C1728 N1732 1.427 . S
C1729 H1719 0.929 . S
C1729 C1727 1.433 . S
C1729 N1732 1.384 . S
C1730 H1721 0.929 . S
C1730 C1722 1.378 . S
C1730 C1725 1.350 . S
C1731 H1718 0.929 . S
C1731 C1723 1.433 . S
C1731 N1733 1.384 . S
N1732 C1728 1.427 . S
N1732 C1729 1.384 . S
N1733 C1725 1.427 . S
N1733 C1731 1.384 . S
H1734 C1740 0.930 . S
H1735 C1744 0.930 . S
H1736 C1749 0.929 . S
H1737 C1747 0.929 . S
H1738 C1742 0.929 . S
H1739 C1748 0.929 . S
C1740 H1734 0.930 . S
C1740 C1741 1.367 . S
C1740 C1748 1.378 . S
C1741 C1740 1.367 . S
C1741 C1749 1.433 . S
C1742 H1738 0.929 . S
C1742 C1744 1.378 . S
C1742 C1746 1.350 . S
C1743 C1746 1.463 1_565 S
C1743 C1748 1.350 . S
C1743 N1751 1.427 . S
C1744 H1735 0.930 . S
C1744 C1742 1.378 . S
C1744 C1745 1.367 . S
C1745 C1744 1.367 . S
C1745 C1747 1.433 . S
C1746 C1742 1.350 . S
C1746 C1743 1.463 1_545 S
C1746 N1750 1.427 . S
C1747 H1737 0.929 . S
C1747 C1745 1.433 . S
C1747 N1750 1.384 . S
C1748 H1739 0.929 . S
C1748 C1740 1.378 . S
C1748 C1743 1.350 . S
C1749 H1736 0.929 . S
C1749 C1741 1.433 . S
C1749 N1751 1.384 . S
N1750 C1746 1.427 . S
N1750 C1747 1.384 . S
N1751 C1743 1.427 . S
N1751 C1749 1.384 . S
H1752 C1758 0.930 . S
H1753 C1762 0.930 . S
H1754 C1767 0.929 . S
H1755 C1765 0.929 . S
H1756 C1760 0.929 1_565 S
H1757 C1766 0.929 1_545 S
C1758 H1752 0.930 . S
C1758 C1759 1.367 . S
C1758 C1766 1.378 . S
C1759 C1758 1.367 . S
C1759 C1767 1.433 . S
C1760 H1756 0.929 1_545 S
C1760 C1762 1.378 . S
C1760 C1764 1.350 . S
C1761 C1764 1.463 1_565 S
C1761 C1766 1.350 . S
C1761 N1769 1.427 . S
C1762 H1753 0.930 . S
C1762 C1760 1.378 . S
C1762 C1763 1.367 . S
C1763 C1762 1.367 . S
C1763 C1765 1.433 . S
C1764 C1760 1.350 . S
C1764 C1761 1.463 1_545 S
C1764 N1768 1.427 . S
C1765 H1755 0.929 . S
C1765 C1763 1.433 . S
C1765 N1768 1.384 . S
C1766 H1757 0.929 1_565 S
C1766 C1758 1.378 . S
C1766 C1761 1.350 . S
C1767 H1754 0.929 . S
C1767 C1759 1.433 . S
C1767 N1769 1.384 . S
N1768 C1764 1.427 . S
N1768 C1765 1.384 . S
N1769 C1761 1.427 . S
N1769 C1767 1.384 . S
H1770 C1776 0.930 . S
H1771 C1780 0.930 . S
H1772 C1785 0.929 . S
H1773 C1783 0.929 . S
H1774 C1778 0.923 1_455 S
H1775 C1784 0.923 1_655 S
C1776 H1770 0.930 . S
C1776 C1777 1.367 . S
C1776 C1784 1.378 . S
C1777 C1776 1.367 . S
C1777 C1785 1.433 . S
C1778 H1774 0.923 1_655 S
C1778 C1780 1.378 . S
C1778 C1782 1.350 . S
C1779 C1782 1.463 1_455 S
C1779 C1784 1.350 . S
C1779 N1787 1.427 . S
C1780 H1771 0.930 . S
C1780 C1778 1.378 . S
C1780 C1781 1.367 . S
C1781 C1780 1.367 . S
C1781 C1783 1.433 . S
C1782 C1778 1.350 . S
C1782 C1779 1.463 1_655 S
C1782 N1786 1.427 . S
C1783 H1773 0.929 . S
C1783 C1781 1.433 . S
C1783 N1786 1.384 . S
C1784 H1775 0.923 1_455 S
C1784 C1776 1.378 . S
C1784 C1779 1.350 . S
C1785 H1772 0.929 . S
C1785 C1777 1.433 . S
C1785 N1787 1.384 . S
N1786 C1782 1.427 . S
N1786 C1783 1.384 . S
N1787 C1779 1.427 . S
N1787 C1785 1.384 . S
H1788 C1794 0.930 . S
H1789 C1798 0.930 . S
H1790 C1803 0.929 . S
H1791 C1801 0.929 . S
H1792 C1796 0.929 1_545 S
H1793 C1802 0.929 1_565 S
C1794 H1788 0.930 . S
C1794 C1795 1.367 . S
C1794 C1802 1.378 . S
C1795 C1794 1.367 . S
C1795 C1803 1.433 . S
C1796 H1792 0.929 1_565 S
C1796 C1798 1.378 . S
C1796 C1800 1.350 . S
C1797 C1800 1.463 1_545 S
C1797 C1802 1.350 . S
C1797 N1805 1.427 . S
C1798 H1789 0.930 . S
C1798 C1796 1.378 . S
C1798 C1799 1.367 . S
C1799 C1798 1.367 . S
C1799 C1801 1.433 . S
C1800 C1796 1.350 . S
C1800 C1797 1.463 1_565 S
C1800 N1804 1.427 . S
C1801 H1791 0.929 . S
C1801 C1799 1.433 . S
C1801 N1804 1.384 . S
C1802 H1793 0.929 1_545 S
C1802 C1794 1.378 . S
C1802 C1797 1.350 . S
C1803 H1790 0.929 . S
C1803 C1795 1.433 . S
C1803 N1805 1.384 . S
N1804 C1800 1.427 . S
N1804 C1801 1.384 . S
N1805 C1797 1.427 . S
N1805 C1803 1.384 . S
H1806 C1812 0.930 . S
H1807 C1816 0.930 . S
H1808 C1821 0.929 . S
H1809 C1819 0.929 . S
H1810 C1814 0.929 . S
H1811 C1820 0.929 . S
C1812 H1806 0.930 . S
C1812 C1813 1.367 . S
C1812 C1820 1.378 . S
C1813 C1812 1.367 . S
C1813 C1821 1.433 . S
C1814 H1810 0.929 . S
C1814 C1816 1.378 . S
C1814 C1818 1.350 . S
C1815 C1818 1.463 1_655 S
C1815 C1820 1.350 . S
C1815 N1823 1.427 . S
C1816 H1807 0.930 . S
C1816 C1814 1.378 . S
C1816 C1817 1.367 . S
C1817 C1816 1.367 . S
C1817 C1819 1.433 . S
C1818 C1814 1.350 . S
C1818 C1815 1.463 1_455 S
C1818 N1822 1.427 . S
C1819 H1809 0.929 . S
C1819 C1817 1.433 . S
C1819 N1822 1.384 . S
C1820 H1811 0.929 . S
C1820 C1812 1.378 . S
C1820 C1815 1.350 . S
C1821 H1808 0.929 . S
C1821 C1813 1.433 . S
C1821 N1823 1.384 . S
N1822 C1818 1.427 . S
N1822 C1819 1.384 . S
N1823 C1815 1.427 . S
N1823 C1821 1.384 . S
H1824 C1830 0.930 . S
H1825 C1834 0.930 . S
H1826 C1839 0.929 . S
H1827 C1837 0.929 . S
H1828 C1832 0.929 . S
H1829 C1838 0.929 . S
C1830 H1824 0.930 . S
C1830 C1831 1.367 . S
C1830 C1838 1.378 . S
C1831 C1830 1.367 . S
C1831 C1839 1.433 . S
C1832 H1828 0.929 . S
C1832 C1834 1.378 . S
C1832 C1836 1.350 . S
C1833 C1836 1.463 1_556 S
C1833 C1838 1.350 . S
C1833 N1841 1.427 . S
C1834 H1825 0.930 . S
C1834 C1832 1.378 . S
C1834 C1835 1.367 . S
C1835 C1834 1.367 . S
C1835 C1837 1.433 . S
C1836 C1832 1.350 . S
C1836 C1833 1.463 1_554 S
C1836 N1840 1.427 . S
C1837 H1827 0.929 . S
C1837 C1835 1.433 . S
C1837 N1840 1.384 . S
C1838 H1829 0.929 . S
C1838 C1830 1.378 . S
C1838 C1833 1.350 . S
C1839 H1826 0.929 . S
C1839 C1831 1.433 . S
C1839 N1841 1.384 . S
N1840 C1836 1.427 . S
N1840 C1837 1.384 . S
N1841 C1833 1.427 . S
N1841 C1839 1.384 . S
H1842 C1848 0.930 . S
H1843 C1852 0.930 . S
H1844 C1857 0.929 . S
H1845 C1855 0.929 . S
H1846 C1850 0.915 1_554 S
H1847 C1856 0.915 1_556 S
C1848 H1842 0.930 . S
C1848 C1849 1.367 . S
C1848 C1856 1.378 . S
C1849 C1848 1.367 . S
C1849 C1857 1.433 . S
C1850 H1846 0.915 1_556 S
C1850 C1852 1.378 . S
C1850 C1854 1.350 . S
C1851 C1854 1.463 1_554 S
C1851 C1856 1.350 . S
C1851 N1859 1.427 . S
C1852 H1843 0.930 . S
C1852 C1850 1.378 . S
C1852 C1853 1.367 . S
C1853 C1852 1.367 . S
C1853 C1855 1.433 . S
C1854 C1850 1.350 . S
C1854 C1851 1.463 1_556 S
C1854 N1858 1.427 . S
C1855 H1845 0.929 . S
C1855 C1853 1.433 . S
C1855 N1858 1.384 . S
C1856 H1847 0.915 1_554 S
C1856 C1848 1.378 . S
C1856 C1851 1.350 . S
C1857 H1844 0.929 . S
C1857 C1849 1.433 . S
C1857 N1859 1.384 . S
N1858 C1854 1.427 . S
N1858 C1855 1.384 . S
N1859 C1851 1.427 . S
N1859 C1857 1.384 . S
H1860 C1866 0.930 . S
H1861 C1870 0.930 . S
H1862 C1875 0.929 . S
H1863 C1873 0.929 . S
H1864 C1868 0.929 . S
H1865 C1874 0.929 . S
C1866 H1860 0.930 . S
C1866 C1867 1.367 . S
C1866 C1874 1.378 . S
C1867 C1866 1.367 . S
C1867 C1875 1.433 . S
C1868 H1864 0.929 . S
C1868 C1870 1.378 . S
C1868 C1872 1.350 . S
C1869 C1872 1.463 1_556 S
C1869 C1874 1.350 . S
C1869 N1877 1.427 . S
C1870 H1861 0.930 . S
C1870 C1868 1.378 . S
C1870 C1871 1.367 . S
C1871 C1870 1.367 . S
C1871 C1873 1.433 . S
C1872 C1868 1.350 . S
C1872 C1869 1.463 1_554 S
C1872 N1876 1.427 . S
C1873 H1863 0.929 . S
C1873 C1871 1.433 . S
C1873 N1876 1.384 . S
C1874 H1865 0.929 . S
C1874 C1866 1.378 . S
C1874 C1869 1.350 . S
C1875 H1862 0.929 . S
C1875 C1867 1.433 . S
C1875 N1877 1.384 . S
N1876 C1872 1.427 . S
N1876 C1873 1.384 . S
N1877 C1869 1.427 . S
N1877 C1875 1.384 . S
H1878 C1884 0.930 . S
H1879 C1888 0.930 . S
H1880 C1893 0.929 . S
H1881 C1891 0.929 . S
H1882 C1886 0.929 1_554 S
H1883 C1892 0.929 1_556 S
C1884 H1878 0.930 . S
C1884 C1885 1.367 . S
C1884 C1892 1.378 . S
C1885 C1884 1.367 . S
C1885 C1893 1.433 . S
C1886 H1882 0.929 1_556 S
C1886 C1888 1.378 . S
C1886 C1890 1.350 . S
C1887 C1890 1.463 1_554 S
C1887 C1892 1.350 . S
C1887 N1895 1.427 . S
C1888 H1879 0.930 . S
C1888 C1886 1.378 . S
C1888 C1889 1.367 . S
C1889 C1888 1.367 . S
C1889 C1891 1.433 . S
C1890 C1886 1.350 . S
C1890 C1887 1.463 1_556 S
C1890 N1894 1.427 . S
C1891 H1881 0.929 . S
C1891 C1889 1.433 . S
C1891 N1894 1.384 . S
C1892 H1883 0.929 1_554 S
C1892 C1884 1.378 . S
C1892 C1887 1.350 . S
C1893 H1880 0.929 . S
C1893 C1885 1.433 . S
C1893 N1895 1.384 . S
N1894 C1890 1.427 . S
N1894 C1891 1.384 . S
N1895 C1887 1.427 . S
N1895 C1893 1.384 . S
C823 C326 1.636 . S
C827 C20 1.643 . S
C841 C360 1.631 . S
C845 C54 1.645 . S
C859 C394 1.629 . S
C863 C88 1.642 . S
C877 C122 1.644 . S
C881 C292 1.630 . S
C895 C530 1.642 . S
C899 C156 1.629 . S
C913 C190 1.640 . S
C917 C428 1.630 . S
C931 C224 1.644 . S
C935 C462 1.634 . S
C949 C258 1.638 . S
C953 C496 1.631 . S
C967 C564 1.630 . S
C971 C632 1.645 . S
C985 C768 1.636 . S
C989 C598 1.633 . S
C1003 C666 1.630 . S
C1007 C802 1.645 . S
C1021 C734 1.645 . S
C1025 C700 1.631 . S
C1039 C781 1.449 . S
C1043 C33 1.446 . S
C1057 C577 1.458 . S
C1061 C67 1.452 . S
C1075 C815 1.471 . S
C1079 C101 1.471 . S
C1093 C135 1.453 . S
C1097 C747 1.458 . S
C1111 C645 1.472 . S
C1115 C169 1.470 . S
C1129 C679 1.460 . S
C1133 C203 1.454 . S
C1147 C713 1.451 . S
C1151 C237 1.447 . S
C1165 C611 1.469 . S
C1169 C271 1.471 . S
C1183 C305 1.471 . S
C1187 C475 1.472 . S
C1201 C509 1.444 . S
C1205 C339 1.444 . S
C1219 C543 1.453 . S
C1223 C373 1.458 . S
C1237 C441 1.458 . S
C1241 C407 1.463 . S
C1255 C444 1.883 . S
C1259 C9 1.853 . S
C1273 C43 1.860 . S
C1277 C478 1.879 . S
C1291 C512 1.879 . S
C1295 C77 1.860 . S
C1309 C410 1.879 . S
C1313 C111 1.860 . S
C1327 C376 1.883 . S
C1331 C145 1.852 . S
C1345 C179 1.860 . S
C1349 C274 1.880 . S
C1363 C308 1.877 . S
C1367 C213 1.857 . S
C1381 C342 1.879 . S
C1385 C247 1.851 . S
C1399 C281 1.852 . S
C1403 C36 1.879 . S
C1417 C70 1.877 . S
C1421 C315 1.859 . S
C1435 C349 1.852 . S
C1439 C104 1.879 . S
C1453 C2 1.883 . S
C1457 C383 1.853 . S
C1471 C417 1.860 . S
C1475 C240 1.879 . S
C1489 C138 1.878 . S
C1493 C451 1.853 . S
C1507 C172 1.877 . S
C1511 C485 1.856 . S
C1525 C519 1.854 . S
C1529 C206 1.877 . S
C1543 C553 1.860 . S
C1547 C750 1.879 . S
C1561 C587 1.860 . S
C1565 C614 1.877 . S
C1579 C621 1.851 . S
C1583 C648 1.883 . S
C1597 C682 1.880 . S
C1601 C655 1.860 . S
C1615 C580 1.879 . S
C1619 C689 1.860 . S
C1633 C784 1.877 . S
C1637 C723 1.858 . S
C1651 C757 1.851 . S
C1655 C716 1.882 . S
C1669 C546 1.883 . S
C1673 C791 1.855 . S
C1687 C5 0.853 . S
C1691 C73 0.883 . S
C1705 C39 0.880 . S
C1709 C107 0.855 . S
C1723 C141 0.851 . S
C1727 C209 0.885 . S
C1741 C243 0.883 . S
C1745 C175 0.858 . S
C1759 C413 0.859 . S
C1763 C277 0.876 . S
C1777 C447 0.879 . S
C1781 C311 0.856 . S
C1795 C481 0.858 . S
C1799 C345 0.876 . S
C1813 C515 0.851 . S
C1817 C379 0.886 . S
C1831 C651 0.851 . S
C1835 C549 0.886 . S
C1849 C719 0.879 . S
C1853 C583 0.856 . S
C1867 C617 0.880 . S
C1871 C753 0.861 . S
C1885 C787 0.859 . S
C1889 C685 0.875 . S
