# Generated by pormake.
# Topology crb, (4)-cn, num edge types: 1
# Building blocks:
#     Node 0, Type 0, BuildingBlock: KUFVIS_clean_sbu_0, # of connection points: 4
#     Node 1, Type 0, BuildingBlock: KUFVIS_clean_sbu_0, # of connection points: 4
#     Node 2, Type 0, BuildingBlock: KUFVIS_clean_sbu_0, # of connection points: 4
#     Node 3, Type 0, BuildingBlock: KUFVIS_clean_sbu_0, # of connection points: 4
#     Node 4, Type 0, BuildingBlock: KUFVIS_clean_sbu_0, # of connection points: 4
#     Node 5, Type 0, BuildingBlock: KUFVIS_clean_sbu_0, # of connection points: 4
#     Node 6, Type 0, BuildingBlock: KUFVIS_clean_sbu_0, # of connection points: 4
#     Node 7, Type 0, BuildingBlock: KUFVIS_clean_sbu_0, # of connection points: 4
#     Edge 8, Type (0, 0), BuildingBlock: XIVTED_clean_linker_0, # of connection points: 2
#     Edge 9, Type (0, 0), BuildingBlock: XIVTED_clean_linker_0, # of connection points: 2
#     Edge 10, Type (0, 0), BuildingBlock: XIVTED_clean_linker_0, # of connection points: 2
#     Edge 11, Type (0, 0), BuildingBlock: XIVTED_clean_linker_0, # of connection points: 2
#     Edge 12, Type (0, 0), BuildingBlock: XIVTED_clean_linker_0, # of connection points: 2
#     Edge 13, Type (0, 0), BuildingBlock: XIVTED_clean_linker_0, # of connection points: 2
#     Edge 14, Type (0, 0), BuildingBlock: XIVTED_clean_linker_0, # of connection points: 2
#     Edge 15, Type (0, 0), BuildingBlock: XIVTED_clean_linker_0, # of connection points: 2
#     Edge 16, Type (0, 0), BuildingBlock: XIVTED_clean_linker_0, # of connection points: 2
#     Edge 17, Type (0, 0), BuildingBlock: XIVTED_clean_linker_0, # of connection points: 2
#     Edge 18, Type (0, 0), BuildingBlock: XIVTED_clean_linker_0, # of connection points: 2
#     Edge 19, Type (0, 0), BuildingBlock: XIVTED_clean_linker_0, # of connection points: 2
#     Edge 20, Type (0, 0), BuildingBlock: XIVTED_clean_linker_0, # of connection points: 2
#     Edge 21, Type (0, 0), BuildingBlock: XIVTED_clean_linker_0, # of connection points: 2
#     Edge 22, Type (0, 0), BuildingBlock: XIVTED_clean_linker_0, # of connection points: 2
#     Edge 23, Type (0, 0), BuildingBlock: XIVTED_clean_linker_0, # of connection points: 2
# Relax obj value: 0.084
# Max RMSD: 0.128
# Mean RMSD: 0.128
data_MOF--net-crb--node1-KUFVIS_clean_sbu_0--edge1-XIVTED_clean_linker_0
_symmetry_space_group_name_H-M    P1
_symmetry_Int_Tables_number       1
_symmetry_cell_setting            triclinic
loop_
_symmetry_equiv_pos_as_xyz
'x, y, z'
_cell_length_a     41.85365
_cell_length_b     44.059
_cell_length_c     23.385088
_cell_angle_alpha  90.169741
_cell_angle_beta   89.986098
_cell_angle_gamma 89.997156
loop_
_atom_site_label
_atom_site_type_symbol
_atom_site_fract_x
_atom_site_fract_y
_atom_site_fract_z
_atom_type_partial_charge
Mn0 Mn 0.32941 0.36178 0.0557 0.0
Mn1 Mn 0.35804 0.29227 0.02119 0.0
C2 C 0.38371 0.35171 0.06133 0.0
C3 C 0.3153 0.41213 0.03736 0.0
C4 C 0.32304 0.3052 0.13158 0.0
O5 O 0.29332 0.34384 1.00649 0.0
O6 O 0.31591 0.29859 0.98481 0.0
C7 C 0.36786 0.30114 0.89692 0.0
N8 N 0.37977 0.29404 0.9494 0.0
C9 C 0.4324 0.28631 0.91058 0.0
C10 C 0.42067 0.29335 0.85606 0.0
C11 C 0.38825 0.3008 0.84922 0.0
C12 C 0.41086 0.28664 0.95641 0.0
H13 H 0.34302 0.30708 0.89152 0.0
C14 C 0.2932 0.31801 0.9811 0.0
O15 O 0.30338 0.39719 0.07996 0.0
O16 O 0.33408 0.39727 1.00293 0.0
N17 N 0.39896 0.28382 0.05347 0.0
C18 C 0.40685 0.27961 0.10942 0.0
C19 C 0.43869 0.27348 0.12402 0.0
C20 C 0.46197 0.27168 0.08098 0.0
C21 C 0.45313 0.2753 0.02356 0.0
C22 C 0.421 0.28115 0.01155 0.0
H23 H 0.38911 0.28144 0.14277 0.0
O24 O 0.37115 0.37312 0.09224 0.0
O25 O 0.36408 0.3364 0.02934 0.0
O26 O 0.31887 0.33333 0.1219 0.0
O27 O 0.33683 0.28745 0.09625 0.0
C28 C 0.47516 0.27474 0.97808 0.0
C29 C 0.46482 0.27998 0.92158 0.0
H30 H 0.4364 0.29346 0.81927 0.0
H31 H 0.37905 0.30643 0.80732 0.0
H32 H 0.44539 0.27074 0.1684 0.0
H33 H 0.48664 0.26835 0.09276 0.0
H34 H 0.50026 0.27146 0.98642 0.0
H35 H 0.48215 0.27996 0.88717 0.0
Mn36 Mn 0.67179 0.34345 1.00343 0.0
Mn37 Mn 0.64729 0.27201 0.03138 0.0
C38 C 0.61848 0.32984 0.99139 0.0
C39 C 0.68102 0.39442 0.02621 0.0
C40 C 0.68411 0.28854 0.92495 0.0
O41 O 0.70738 0.32781 0.05589 0.0
O42 O 0.68827 0.28054 0.07054 0.0
C43 C 0.6348 0.27824 0.15557 0.0
N44 N 0.62453 0.27077 0.1021 0.0
C45 C 0.57464 0.25195 0.13877 0.0
C46 C 0.58463 0.25946 0.19428 0.0
C47 C 0.61474 0.27288 0.20265 0.0
C48 C 0.59533 0.2585 0.09346 0.0
H49 H 0.65816 0.28805 0.16223 0.0
C50 C 0.70914 0.30141 0.07836 0.0
O51 O 0.69607 0.38103 0.98479 0.0
O52 O 0.6618 0.37783 0.05655 0.0
N53 N 0.60773 0.26073 0.99662 0.0
C54 C 0.60118 0.2562 0.94016 0.0
C55 C 0.57203 0.24289 0.92429 0.0
C56 C 0.55023 0.23392 0.96663 0.0
C57 C 0.55733 0.23923 0.02442 0.0
C58 C 0.58659 0.25287 0.0376 0.0
H59 H 0.61828 0.26225 0.90755 0.0
O60 O 0.63084 0.35198 0.96226 0.0
O61 O 0.63798 0.31558 0.02509 0.0
O62 O 0.68718 0.31655 0.9373 0.0
O63 O 0.66971 0.26984 0.95733 0.0
C64 C 0.53669 0.23123 0.06949 0.0
C65 C 0.54512 0.23799 0.12659 0.0
H66 H 0.56941 0.25499 0.23076 0.0
H67 H 0.62263 0.27873 0.24536 0.0
H68 H 0.56661 0.23906 0.8796 0.0
H69 H 0.52798 0.22319 0.95426 0.0
H70 H 0.51404 0.22029 0.06065 0.0
H71 H 0.52874 0.23229 0.16078 0.0
Mn72 Mn 0.66601 0.67211 0.05252 0.0
Mn73 Mn 0.6377 0.74193 0.0206 0.0
C74 C 0.61213 0.68325 0.06374 0.0
C75 C 0.67809 0.62149 0.03152 0.0
C76 C 0.67548 0.72886 0.12774 0.0
O77 O 0.70085 0.68914 0.99969 0.0
O78 O 0.67891 0.73496 0.98121 0.0
C79 C 0.62494 0.73253 0.89724 0.0
N80 N 0.61434 0.74008 0.95049 0.0
C81 C 0.56087 0.74775 0.91569 0.0
C82 C 0.57124 0.74025 0.86041 0.0
C83 C 0.60343 0.73263 0.85116 0.0
C84 C 0.58349 0.74771 0.95979 0.0
H85 H 0.64959 0.72638 0.89001 0.0
C86 C 0.70103 0.71511 0.97515 0.0
O87 O 0.69229 0.63598 0.07261 0.0
O88 O 0.65812 0.63684 1.00044 0.0
N89 N 0.59769 0.75109 0.05582 0.0
C90 C 0.59118 0.75578 0.11226 0.0
C91 C 0.5598 0.76241 0.12918 0.0
C92 C 0.53554 0.76413 0.08793 0.0
C93 C 0.54295 0.75981 0.02998 0.0
C94 C 0.57472 0.75365 0.01558 0.0
H95 H 0.60968 0.75401 0.14425 0.0
O96 O 0.6252 0.66176 0.09352 0.0
O97 O 0.63111 0.69803 0.02989 0.0
O98 O 0.67946 0.70069 0.1175 0.0
O99 O 0.6606 0.74655 0.09393 0.0
C100 C 0.51986 0.75997 0.98629 0.0
C101 C 0.52876 0.75419 0.92914 0.0
H102 H 0.55463 0.73991 0.8249 0.0
H103 H 0.61159 0.72664 0.80868 0.0
H104 H 0.55421 0.76563 0.17397 0.0
H105 H 0.51123 0.76797 0.10154 0.0
H106 H 0.49501 0.76322 0.99662 0.0
H107 H 0.51059 0.75391 0.89618 0.0
Mn108 Mn 0.32387 0.69021 0.9962 0.0
Mn109 Mn 0.34815 0.76116 0.02979 0.0
C110 C 0.37756 0.70342 0.98966 0.0
C111 C 0.3127 0.63912 0.01418 0.0
C112 C 0.31426 0.74597 0.91945 0.0
O113 O 0.28681 0.70581 0.04569 0.0
O114 O 0.30631 0.75247 0.06557 0.0
C115 C 0.3579 0.75327 0.15434 0.0
N116 N 0.36935 0.7614 0.10207 0.0
C117 C 0.41841 0.77966 0.1432 0.0
C118 C 0.4072 0.77147 0.19755 0.0
C119 C 0.37692 0.75799 0.20306 0.0
C120 C 0.39875 0.77365 0.09613 0.0
H121 H 0.33439 0.74346 0.1588 0.0
C122 C 0.28493 0.73183 0.07001 0.0
O123 O 0.29992 0.65357 0.97184 0.0
O124 O 0.33083 0.65477 0.0485 0.0
N125 N 0.38848 0.77266 0.99841 0.0
C126 C 0.39615 0.77813 0.94276 0.0
C127 C 0.42545 0.79196 0.92972 0.0
C128 C 0.44623 0.80049 0.97405 0.0
C129 C 0.43804 0.79412 0.03095 0.0
C130 C 0.40868 0.78003 0.04127 0.0
H131 H 0.37979 0.77252 0.90865 0.0
O132 O 0.36587 0.68151 0.95888 0.0
O133 O 0.35736 0.7175 0.02249 0.0
O134 O 0.31123 0.71784 0.93001 0.0
O135 O 0.32735 0.76444 0.95422 0.0
C136 C 0.45767 0.80153 0.07785 0.0
C137 C 0.44812 0.79385 0.13388 0.0
H138 H 0.4216 0.77549 0.2353 0.0
H139 H 0.36808 0.75164 0.24485 0.0
H140 H 0.43173 0.79658 0.8857 0.0
H141 H 0.46858 0.81165 0.96388 0.0
H142 H 0.48035 0.81284 0.07123 0.0
H143 H 0.46371 0.79916 0.1695 0.0
Mn144 Mn 0.82519 0.84272 0.5511 0.0
Mn145 Mn 0.84997 0.77171 0.51881 0.0
C146 C 0.87891 0.82969 0.55881 0.0
C147 C 0.81424 0.89382 0.53251 0.0
C148 C 0.81508 0.78711 0.62805 0.0
O149 O 0.78856 0.82689 0.50081 0.0
O150 O 0.80835 0.78019 0.48211 0.0
C151 C 0.86049 0.77906 0.39433 0.0
N152 N 0.87162 0.77119 0.44695 0.0
C153 C 0.92091 0.7527 0.40703 0.0
C154 C 0.91004 0.76064 0.35235 0.0
C155 C 0.8798 0.7741 0.34605 0.0
C156 C 0.90097 0.75891 0.45363 0.0
H157 H 0.83701 0.78887 0.38927 0.0
C158 C 0.78694 0.80075 0.47685 0.0
O159 O 0.80107 0.87946 0.57459 0.0
O160 O 0.83257 0.87806 0.49871 0.0
N161 N 0.89013 0.76045 0.55114 0.0
C162 C 0.89751 0.75534 0.60703 0.0
C163 C 0.92679 0.74168 0.62086 0.0
C164 C 0.94784 0.73294 0.57706 0.0
C165 C 0.93994 0.73892 0.51991 0.0
C166 C 0.91059 0.75286 0.50879 0.0
H167 H 0.88094 0.76113 0.64073 0.0
O168 O 0.86692 0.85157 0.58932 0.0
O169 O 0.85894 0.81543 0.5258 0.0
O170 O 0.81202 0.8152 0.61715 0.0
O171 O 0.82865 0.76862 0.59391 0.0
C172 C 0.95981 0.73121 0.47349 0.0
C173 C 0.95057 0.73856 0.41715 0.0
H174 H 0.92467 0.75645 0.31493 0.0
H175 H 0.87123 0.78027 0.304 0.0
H176 H 0.93284 0.73735 0.66508 0.0
H177 H 0.97016 0.7219 0.58785 0.0
H178 H 0.98247 0.71998 0.48073 0.0
H179 H 0.96638 0.73308 0.38192 0.0
Mn180 Mn 0.16797 0.86094 0.49421 0.0
Mn181 Mn 0.1393 0.79167 0.52937 0.0
C182 C 0.11367 0.85085 0.48834 0.0
C183 C 0.18199 0.91132 0.51298 0.0
C184 C 0.17443 0.80393 0.41891 0.0
O185 O 0.20404 0.84325 0.54355 0.0
O186 O 0.18138 0.79821 0.5659 0.0
C187 C 0.12927 0.80133 0.65347 0.0
N188 N 0.11744 0.7939 0.60101 0.0
C189 C 0.06473 0.7865 0.63962 0.0
C190 C 0.07638 0.79389 0.69412 0.0
C191 C 0.10879 0.80133 0.70105 0.0
C192 C 0.08636 0.78649 0.59391 0.0
H193 H 0.15411 0.80729 0.65894 0.0
C194 C 0.20411 0.81761 0.56932 0.0
O195 O 0.19395 0.89641 0.4702 0.0
O196 O 0.16317 0.89647 0.54713 0.0
N197 N 0.09843 0.78301 0.49696 0.0
C198 C 0.09064 0.77846 0.44101 0.0
C199 C 0.05881 0.77232 0.42629 0.0
C200 C 0.03544 0.77087 0.46922 0.0
C201 C 0.04419 0.77481 0.52664 0.0
C202 C 0.07632 0.78065 0.53879 0.0
H203 H 0.10844 0.78004 0.40775 0.0
O204 O 0.12627 0.87214 0.45745 0.0
O205 O 0.13325 0.83572 0.52055 0.0
O206 O 0.17858 0.83215 0.42811 0.0
O207 O 0.16062 0.78645 0.45452 0.0
C208 C 0.02207 0.77461 0.57199 0.0
C209 C 0.03232 0.78018 0.62849 0.0
H210 H 0.06058 0.79428 0.73081 0.0
H211 H 0.11792 0.80723 0.74293 0.0
H212 H 0.05218 0.76933 0.38191 0.0
H213 H 0.01078 0.7676 0.45732 0.0
H214 H 0.99697 0.7714 0.56352 0.0
H215 H 0.01492 0.78045 0.66279 0.0
Mn216 Mn 0.17391 0.18941 0.55279 0.0
Mn217 Mn 0.14916 0.26031 0.52075 0.0
C218 C 0.12023 0.20248 0.56091 0.0
C219 C 0.185 0.13841 0.53322 0.0
C220 C 0.18385 0.24511 0.63016 0.0
O221 O 0.2106 0.20517 0.50278 0.0
O222 O 0.19075 0.25172 0.48383 0.0
C223 C 0.13852 0.25251 0.39632 0.0
N224 N 0.12744 0.26057 0.44897 0.0
C225 C 0.07814 0.27897 0.40921 0.0
C226 C 0.08897 0.27085 0.3545 0.0
C227 C 0.11919 0.25732 0.3481 0.0
C228 C 0.0981 0.27285 0.45575 0.0
H229 H 0.16199 0.24268 0.39119 0.0
C230 C 0.21219 0.23116 0.47865 0.0
O231 O 0.19807 0.15266 0.5757 0.0
O232 O 0.1666 0.1542 0.4998 0.0
N233 N 0.10905 0.27172 0.55322 0.0
C234 C 0.10177 0.27713 0.60912 0.0
C235 C 0.07256 0.29096 0.62303 0.0
C236 C 0.05149 0.29957 0.57929 0.0
C237 C 0.05929 0.29328 0.52213 0.0
C238 C 0.08855 0.27916 0.51094 0.0
H239 H 0.11836 0.27147 0.64278 0.0
O240 O 0.13221 0.18053 0.59096 0.0
O241 O 0.14013 0.21665 0.52778 0.0
O242 O 0.18693 0.21697 0.61923 0.0
O243 O 0.17049 0.26353 0.59585 0.0
C244 C 0.03937 0.30082 0.47577 0.0
C245 C 0.04854 0.29323 0.4194 0.0
H246 H 0.07433 0.27495 0.31712 0.0
H247 H 0.12772 0.25102 0.30602 0.0
H248 H 0.06659 0.29551 0.66725 0.0
H249 H 0.02922 0.31073 0.59013 0.0
H250 H 0.01675 0.31214 0.48306 0.0
H251 H 0.03272 0.29863 0.38422 0.0
Mn252 Mn 0.83115 0.17156 0.49929 0.0
Mn253 Mn 0.86018 0.24122 0.53166 0.0
C254 C 0.88537 0.18172 0.49073 0.0
C255 C 0.81746 0.12118 0.51863 0.0
C256 C 0.82356 0.22792 0.42323 0.0
O257 O 0.79574 0.18963 0.55007 0.0
O258 O 0.8186 0.23496 0.56998 0.0
C259 C 0.87177 0.23257 0.65547 0.0
N260 N 0.88291 0.23963 0.60243 0.0
C261 C 0.93612 0.2472 0.63865 0.0
C262 C 0.92519 0.24021 0.69374 0.0
C263 C 0.89286 0.23287 0.70217 0.0
C264 C 0.91389 0.24698 0.5939 0.0
H265 H 0.847 0.22666 0.66208 0.0
C266 C 0.79594 0.2156 0.57501 0.0
O267 O 0.80485 0.13603 0.47659 0.0
O268 O 0.83669 0.13615 0.55206 0.0
N269 N 0.90059 0.24967 0.49742 0.0
C270 C 0.90764 0.25384 0.44109 0.0
C271 C 0.93924 0.26007 0.42497 0.0
C272 C 0.96313 0.26194 0.46688 0.0
C273 C 0.95516 0.25822 0.52469 0.0
C274 C 0.92322 0.25242 0.53827 0.0
H275 H 0.88943 0.25196 0.40861 0.0
O276 O 0.87236 0.1602 0.46073 0.0
O277 O 0.86621 0.19706 0.5236 0.0
O278 O 0.81955 0.19983 0.43343 0.0
O279 O 0.83791 0.24579 0.4576 0.0
C280 C 0.97786 0.25859 0.56905 0.0
C281 C 0.96839 0.25333 0.62603 0.0
H282 H 0.94147 0.24002 0.72973 0.0
H283 H 0.88428 0.22727 0.7445 0.0
H284 H 0.94527 0.26283 0.38029 0.0
H285 H 0.98761 0.26535 0.4539 0.0
H286 H 0.00283 0.26162 0.55941 0.0
H287 H 0.98626 0.25319 0.65952 0.0
H288 H 0.29645 0.45111 0.12145 0.0
H289 H 0.29489 0.59964 0.93036 0.0
H290 H 0.32428 0.44889 0.94381 0.0
H291 H 0.32326 0.60255 0.10767 0.0
H292 H 0.2932 0.54419 0.93505 0.0
H293 H 0.29374 0.50658 0.11698 0.0
C294 C 0.30155 0.46225 0.08123 0.0
C295 C 0.3106 0.44535 0.03283 0.0
C296 C 0.2996 0.55701 0.97295 0.0
C297 C 0.30728 0.50874 0.0276 0.0
C298 C 0.30038 0.58864 0.97054 0.0
C299 C 0.30923 0.60576 0.01879 0.0
C300 C 0.30703 0.54233 0.02431 0.0
C301 C 0.31637 0.59022 0.06951 0.0
C302 C 0.30022 0.49389 0.07896 0.0
C303 C 0.31724 0.46105 0.98208 0.0
N304 N 0.31493 0.55933 0.07107 0.0
N305 N 0.31528 0.4919 0.98067 0.0
H306 H 0.41437 0.35595 0.95984 0.0
H307 H 0.58708 0.32279 0.0923 0.0
H308 H 0.43176 0.34766 0.14058 0.0
H309 H 0.571 0.33897 0.91303 0.0
H310 H 0.53009 0.32973 0.11037 0.0
H311 H 0.47176 0.35119 0.94194 0.0
C312 C 0.43043 0.35304 0.99574 0.0
C313 C 0.41845 0.35089 0.05153 0.0
C314 C 0.53889 0.33152 0.06696 0.0
C315 C 0.48404 0.34549 0.03162 0.0
C316 C 0.57134 0.32685 0.05642 0.0
C317 C 0.58358 0.32928 1.00076 0.0
C318 C 0.51854 0.33933 0.02164 0.0
C319 C 0.56239 0.33638 0.9564 0.0
C320 C 0.46316 0.35046 0.98558 0.0
C321 C 0.44015 0.34849 0.09683 0.0
N322 N 0.53089 0.34116 0.96776 0.0
N323 N 0.47194 0.34528 0.08585 0.0
H324 H 0.63447 0.43237 0.06564 0.0
H325 H 0.73007 0.58624 0.05697 0.0
H326 H 0.73092 0.43227 1.00066 0.0
H327 H 0.63309 0.58109 0.99549 0.0
H328 H 0.73245 0.53036 0.05748 0.0
H329 H 0.63491 0.48811 0.06433 0.0
C330 C 0.65594 0.44408 0.05221 0.0
C331 C 0.68273 0.42775 0.03333 0.0
C332 C 0.71081 0.5416 0.04349 0.0
C333 C 0.68338 0.49124 0.03206 0.0
C334 C 0.70944 0.57334 0.04305 0.0
C335 C 0.68143 0.58822 0.02565 0.0
C336 C 0.6836 0.52477 0.02845 0.0
C337 C 0.65526 0.57049 1.0085 0.0
C338 C 0.65603 0.47579 0.0509 0.0
C339 C 0.70979 0.44407 0.01554 0.0
N340 N 0.65679 0.53969 0.01119 0.0
N341 N 0.70954 0.47499 0.01569 0.0
H342 H 0.42514 0.69795 0.91087 0.0
H343 H 0.56509 0.68762 0.14541 0.0
H344 H 0.40866 0.70852 0.09166 0.0
H345 H 0.58004 0.67881 0.96394 0.0
H346 H 0.50728 0.69281 0.12807 0.0
H347 H 0.48218 0.69076 0.93004 0.0
C348 C 0.43372 0.69937 0.95451 0.0
C349 C 0.41238 0.7046 0.99958 0.0
C350 C 0.5232 0.68962 0.09206 0.0
C351 C 0.47733 0.69522 0.02235 0.0
C352 C 0.55608 0.68664 0.10203 0.0
C353 C 0.5772 0.6841 0.0558 0.0
C354 C 0.51158 0.6895 0.03554 0.0
C355 C 0.5645 0.68196 1.00051 0.0
C356 C 0.46618 0.69496 0.96559 0.0
C357 C 0.42452 0.70559 0.05553 0.0
N358 N 0.53259 0.68501 0.99184 0.0
N359 N 0.45617 0.70086 0.06539 0.0
H360 H 0.82529 0.93016 0.43897 0.0
H361 H 0.82736 0.0846 0.61212 0.0
H362 H 0.79701 0.93356 0.61631 0.0
H363 H 0.79856 0.08196 0.43505 0.0
H364 H 0.82394 0.02887 0.61498 0.0
H365 H 0.82328 0.98598 0.43606 0.0
C366 C 0.81848 0.94261 0.47708 0.0
C367 C 0.81113 0.92722 0.52782 0.0
C368 C 0.81815 0.04062 0.57571 0.0
C369 C 0.80963 0.99077 0.52522 0.0
C370 C 0.8201 0.07234 0.57408 0.0
C371 C 0.81305 0.08792 0.52341 0.0
C372 C 0.81 0.02443 0.52592 0.0
C373 C 0.80393 0.07089 0.47517 0.0
C374 C 0.81731 0.97437 0.4754 0.0
C375 C 0.8026 0.94449 0.57612 0.0
N376 N 0.80307 0.04006 0.47737 0.0
N377 N 0.80247 0.97532 0.57386 0.0
H378 H 0.08284 0.85575 0.58955 0.0
H379 H 0.90982 0.82307 0.45707 0.0
H380 H 0.06574 0.84631 0.40882 0.0
H381 H 0.9267 0.83792 0.63667 0.0
H382 H 0.96685 0.82986 0.43856 0.0
H383 H 0.02544 0.85117 0.60719 0.0
C384 C 0.06684 0.85261 0.55359 0.0
C385 C 0.0789 0.85008 0.49791 0.0
C386 C 0.9582 0.83138 0.48212 0.0
C387 C 0.01328 0.84487 0.51751 0.0
C388 C 0.92574 0.82681 0.49286 0.0
C389 C 0.91373 0.82892 0.54875 0.0
C390 C 0.97876 0.8388 0.52749 0.0
C391 C 0.93513 0.83559 0.59311 0.0
C392 C 0.03409 0.85012 0.5636 0.0
C393 C 0.05727 0.84741 0.45252 0.0
N394 N 0.9666 0.84031 0.58155 0.0
N395 N 0.02546 0.8443 0.46335 0.0
H396 H 0.17371 0.10257 0.43878 0.0
H397 H 0.17378 0.94747 0.60776 0.0
H398 H 0.20329 0.09834 0.61531 0.0
H399 H 0.19999 0.95079 0.42946 0.0
H400 H 0.17746 1.00313 0.612 0.0
H401 H 0.17612 0.04681 0.43402 0.0
C402 C 0.1809 0.08995 0.47632 0.0
C403 C 0.18844 0.10509 0.5274 0.0
C404 C 0.18265 0.99156 0.57214 0.0
C405 C 0.19046 0.0416 0.52268 0.0
C406 C 0.18054 0.95988 0.56971 0.0
C407 C 0.18674 0.94451 0.5183 0.0
C408 C 0.19013 1.00795 0.52243 0.0
C409 C 0.19527 0.96171 0.47011 0.0
C410 C 0.18231 0.05822 0.47357 0.0
C411 C 0.1975 0.08762 0.57492 0.0
N412 N 0.19629 0.99253 0.47312 0.0
N413 N 0.19786 0.05681 0.57164 0.0
H414 H 0.93217 0.18499 0.40881 0.0
H415 H 0.07329 0.19681 0.64084 0.0
H416 H 0.91768 0.17841 0.59064 0.0
H417 H 0.08834 0.20763 0.45983 0.0
H418 H 0.01612 0.18937 0.62294 0.0
H419 H 0.99 0.19021 0.42542 0.0
C420 C 0.94129 0.18453 0.45214 0.0
C421 C 0.92029 0.18265 0.49863 0.0
C422 C 0.03184 0.19368 0.5871 0.0
C423 C 0.98597 0.18805 0.51808 0.0
C424 C 0.06437 0.19824 0.59745 0.0
C425 C 0.08533 0.2036 0.55192 0.0
C426 C 0.02028 0.1939 0.53061 0.0
C427 C 0.07277 0.20459 0.4963 0.0
C428 C 0.97418 0.18752 0.46169 0.0
C429 C 0.93313 0.1811 0.55386 0.0
N430 N 0.04108 0.19969 0.48715 0.0
N431 N 0.96509 0.18413 0.56213 0.0
H432 H 0.24093 0.19345 0.39976 0.0
H433 H 0.30443 0.33698 0.22633 0.0
H434 H 0.24119 0.28539 0.46335 0.0
H435 H 0.31628 0.24532 0.16401 0.0
H436 H 0.28474 0.31707 0.31639 0.0
H437 H 0.27325 0.21005 0.31757 0.0
C438 C 0.24865 0.21688 0.39736 0.0
C439 C 0.23827 0.23814 0.43814 0.0
C440 C 0.29176 0.30118 0.28327 0.0
C441 C 0.27438 0.25737 0.34413 0.0
C442 C 0.30288 0.3126 0.23149 0.0
C443 C 0.31175 0.29285 0.18707 0.0
C444 C 0.28904 0.26967 0.29102 0.0
C445 C 0.30955 0.26142 0.19692 0.0
C446 C 0.26676 0.22642 0.35019 0.0
C447 C 0.24847 0.26831 0.43259 0.0
N448 N 0.29811 0.25079 0.24765 0.0
N449 N 0.26558 0.27704 0.38625 0.0
H450 H 0.73845 0.33907 0.15687 0.0
H451 H 0.80307 0.19583 0.33016 0.0
H452 H 0.73704 0.24674 0.09514 0.0
H453 H 0.81654 0.2877 0.39031 0.0
H454 H 0.78191 0.21545 0.24099 0.0
H455 H 0.77126 0.32254 0.23846 0.0
C456 C 0.74578 0.31554 0.15963 0.0
C457 C 0.73483 0.29418 0.11952 0.0
C458 C 0.78959 0.23145 0.27343 0.0
C459 C 0.7716 0.27507 0.21277 0.0
C460 C 0.80157 0.22019 0.32471 0.0
C461 C 0.81135 0.24009 0.36826 0.0
C462 C 0.78694 0.26294 0.26534 0.0
C463 C 0.80914 0.27149 0.35807 0.0
C464 C 0.76422 0.30606 0.20642 0.0
C465 C 0.74467 0.26391 0.12544 0.0
N466 N 0.79688 0.28196 0.30785 0.0
N467 N 0.76214 0.25526 0.17137 0.0
H468 H 0.75733 0.74668 0.46341 0.0
H469 H 0.68039 0.78882 0.16071 0.0
H470 H 0.75897 0.83768 0.39627 0.0
H471 H 0.69841 0.6977 0.22017 0.0
H472 H 0.70096 0.80861 0.25169 0.0
H473 H 0.72562 0.7304 0.38161 0.0
C474 C 0.75031 0.76342 0.43194 0.0
C475 C 0.76088 0.79353 0.43644 0.0
C476 C 0.70026 0.78431 0.24475 0.0
C477 C 0.72529 0.77484 0.34144 0.0
C478 C 0.68859 0.77295 0.1928 0.0
C479 C 0.68789 0.74148 0.18238 0.0
C480 C 0.71098 0.76406 0.28684 0.0
C481 C 0.69872 0.7221 0.22578 0.0
C482 C 0.73245 0.75405 0.38493 0.0
C483 C 0.75111 0.81429 0.39452 0.0
N484 N 0.70978 0.73369 0.27587 0.0
N485 N 0.73422 0.80445 0.34812 0.0
H486 H 0.18005 0.74376 0.38741 0.0
H487 H 0.25407 0.78536 0.08205 0.0
H488 H 0.19414 0.8347 0.32382 0.0
H489 H 0.25755 0.69479 0.15095 0.0
H490 H 0.22181 0.80144 0.16333 0.0
H491 H 0.19993 0.72364 0.29609 0.0
C492 C 0.18717 0.75951 0.3543 0.0
C493 C 0.1857 0.79104 0.36371 0.0
C494 C 0.22913 0.77791 0.1605 0.0
C495 C 0.20803 0.76809 0.25896 0.0
C496 C 0.24732 0.76866 0.11378 0.0
C497 C 0.25856 0.73874 0.10994 0.0
C498 C 0.22239 0.75723 0.20443 0.0
C499 C 0.24915 0.71802 0.15221 0.0
C500 C 0.19847 0.74797 0.30219 0.0
C501 C 0.19514 0.81027 0.31904 0.0
N502 N 0.232 0.72778 0.19837 0.0
N503 N 0.2059 0.7985 0.26889 0.0
H504 H 0.23633 0.85534 0.64367 0.0
H505 H 0.29359 0.71283 0.82761 0.0
H506 H 0.22904 0.76197 0.58948 0.0
H507 H 0.30885 0.80529 0.88299 0.0
H508 H 0.27392 0.73151 0.73659 0.0
H509 H 0.26819 0.83889 0.72646 0.0
C510 C 0.24227 0.83154 0.64824 0.0
C511 C 0.22992 0.80994 0.60994 0.0
C512 C 0.28166 0.74782 0.76842 0.0
C513 C 0.26552 0.79094 0.70471 0.0
C514 C 0.29279 0.73712 0.82075 0.0
C515 C 0.30263 0.75748 0.86353 0.0
C516 C 0.27999 0.77922 0.75843 0.0
C517 C 0.30133 0.78873 0.85147 0.0
C518 C 0.26012 0.82211 0.69578 0.0
C519 C 0.23788 0.77934 0.61826 0.0
N520 N 0.28995 0.79867 0.80023 0.0
N521 N 0.25482 0.77077 0.66492 0.0
H522 H 0.26096 0.35537 0.90655 0.0
H523 H 0.20552 0.21217 0.72125 0.0
H524 H 0.26848 0.26221 0.96089 0.0
H525 H 0.18858 0.30444 0.6673 0.0
H526 H 0.22506 0.2311 0.81245 0.0
H527 H 0.22945 0.33853 0.82346 0.0
C528 C 0.25513 0.33153 0.90196 0.0
C529 C 0.26746 0.31012 0.94039 0.0
C530 C 0.21697 0.24731 0.78088 0.0
C531 C 0.2323 0.29065 0.84522 0.0
C532 C 0.20593 0.23647 0.72845 0.0
C533 C 0.19563 0.2567 0.68605 0.0
C534 C 0.21809 0.27872 0.79132 0.0
C535 C 0.19646 0.28797 0.69851 0.0
C536 C 0.23749 0.32188 0.85423 0.0
C537 C 0.25965 0.27946 0.932 0.0
N538 N 0.20774 0.29804 0.74983 0.0
N539 N 0.24294 0.27065 0.88515 0.0
H540 H 0.70954 0.32179 0.83713 0.0
H541 H 0.76261 0.1786 0.64897 0.0
H542 H 0.68782 0.22959 0.88586 0.0
H543 H 0.77299 0.27192 0.59698 0.0
H544 H 0.7312 0.19573 0.73201 0.0
H545 H 0.73041 0.30312 0.7465 0.0
C546 C 0.70919 0.29758 0.82892 0.0
C547 C 0.69708 0.27728 0.86964 0.0
C548 C 0.7399 0.21237 0.7018 0.0
C549 C 0.72101 0.25558 0.76512 0.0
C550 C 0.75751 0.20256 0.65411 0.0
C551 C 0.77059 0.22389 0.61631 0.0
C552 C 0.7355 0.24366 0.71145 0.0
C553 C 0.76362 0.25471 0.62539 0.0
C554 C 0.72099 0.2869 0.77684 0.0
C555 C 0.69706 0.24613 0.85598 0.0
N556 N 0.74693 0.26364 0.6722 0.0
N557 N 0.70903 0.23622 0.80508 0.0
H558 H 0.73337 0.67753 0.90035 0.0
H559 H 0.79297 0.82022 0.71888 0.0
H560 H 0.72531 0.77093 0.95418 0.0
H561 H 0.80921 0.72779 0.66416 0.0
H562 H 0.77172 0.80147 0.80873 0.0
H563 H 0.76587 0.69407 0.81836 0.0
C564 C 0.73915 0.70136 0.89578 0.0
C565 C 0.72645 0.72293 0.93378 0.0
C566 C 0.78002 0.78518 0.7773 0.0
C567 C 0.76289 0.74201 0.84004 0.0
C568 C 0.79207 0.79592 0.72565 0.0
C569 C 0.80266 0.7756 0.68341 0.0
C570 C 0.77818 0.75377 0.7871 0.0
C571 C 0.80116 0.74433 0.6953 0.0
C572 C 0.75741 0.71083 0.84874 0.0
C573 C 0.73433 0.75356 0.92555 0.0
N574 N 0.78889 0.73435 0.74585 0.0
N575 N 0.75171 0.76216 0.87944 0.0
loop_
_geom_bond_atom_site_label_1
_geom_bond_atom_site_label_2
_geom_bond_distance
_geom_bond_site_symmetry_2
_ccdc_geom_bond_type
Mn0 O5 2.095 1_554 S
Mn0 O15 2.162 . S
Mn0 O16 2.297 1_554 S
Mn0 O24 2.385 . S
Mn0 O25 2.209 . S
Mn0 O26 2.094 . S
Mn1 O6 2.121 1_554 S
Mn1 N8 2.257 1_554 S
Mn1 N17 2.282 . S
Mn1 O25 2.215 . S
Mn1 O27 2.117 . S
C2 O24 1.234 . S
C2 O25 1.283 . S
C3 O15 1.281 . S
C3 O16 1.236 1_554 S
C4 O26 1.240 . S
C4 O27 1.264 . S
O5 Mn0 2.095 1_556 S
O5 C14 1.250 . S
O6 Mn1 2.121 1_556 S
O6 C14 1.258 . S
C7 N8 1.326 . S
C7 C11 1.460 . S
C7 H13 0.929 . S
N8 Mn1 2.257 1_556 S
N8 C7 1.326 . S
N8 C12 1.362 . S
C9 C10 1.258 . S
C9 C12 1.431 . S
C9 C29 1.449 . S
C10 C9 1.258 . S
C10 C11 1.477 . S
C10 H30 0.931 . S
C11 C7 1.460 . S
C11 C10 1.477 . S
C11 H31 0.930 . S
C12 N8 1.362 . S
C12 C9 1.431 . S
C12 C22 1.476 1_556 S
H13 C7 0.929 . S
C14 O5 1.250 . S
C14 O6 1.258 . S
O15 Mn0 2.162 . S
O15 C3 1.281 . S
O16 Mn0 2.297 1_556 S
O16 C3 1.236 1_556 S
N17 Mn1 2.282 . S
N17 C18 1.328 . S
N17 C22 1.318 . S
C18 N17 1.328 . S
C18 C19 1.457 . S
C18 H23 0.929 . S
C19 C18 1.457 . S
C19 C20 1.291 . S
C19 H32 0.931 . S
C20 C19 1.291 . S
C20 C21 1.373 . S
C20 H33 0.929 . S
C21 C20 1.373 . S
C21 C22 1.396 . S
C21 C28 1.403 . S
C22 C12 1.476 1_554 S
C22 N17 1.318 . S
C22 C21 1.396 . S
H23 C18 0.929 . S
O24 Mn0 2.385 . S
O24 C2 1.234 . S
O25 Mn0 2.209 . S
O25 Mn1 2.215 . S
O25 C2 1.283 . S
O26 Mn0 2.094 . S
O26 C4 1.240 . S
O27 Mn1 2.117 . S
O27 C4 1.264 . S
C28 C21 1.403 . S
C28 C29 1.399 1_554 S
C28 H34 0.929 . S
C29 C9 1.449 . S
C29 C28 1.399 1_556 S
C29 H35 0.930 . S
H30 C10 0.931 . S
H31 C11 0.930 . S
H32 C19 0.931 . S
H33 C20 0.929 . S
H34 C28 0.929 . S
H35 C29 0.930 . S
Mn36 O41 2.095 1_556 S
Mn36 O51 2.162 . S
Mn36 O52 2.297 1_556 S
Mn36 O60 2.385 . S
Mn36 O61 2.209 1_556 S
Mn36 O62 2.094 . S
Mn37 O42 2.121 . S
Mn37 N44 2.257 . S
Mn37 N53 2.282 1_554 S
Mn37 O61 2.215 . S
Mn37 O63 2.117 1_554 S
C38 O60 1.234 . S
C38 O61 1.283 1_556 S
C39 O51 1.281 1_554 S
C39 O52 1.236 . S
C40 O62 1.240 . S
C40 O63 1.264 . S
O41 Mn36 2.095 1_554 S
O41 C50 1.250 . S
O42 Mn37 2.121 . S
O42 C50 1.258 . S
C43 N44 1.326 . S
C43 C47 1.460 . S
C43 H49 0.929 . S
N44 Mn37 2.257 . S
N44 C43 1.326 . S
N44 C48 1.362 . S
C45 C46 1.258 . S
C45 C48 1.431 . S
C45 C65 1.449 . S
C46 C45 1.258 . S
C46 C47 1.477 . S
C46 H66 0.931 . S
C47 C43 1.460 . S
C47 C46 1.477 . S
C47 H67 0.930 . S
C48 N44 1.362 . S
C48 C45 1.431 . S
C48 C58 1.476 1_554 S
H49 C43 0.929 . S
C50 O41 1.250 . S
C50 O42 1.258 . S
O51 Mn36 2.162 . S
O51 C39 1.281 1_556 S
O52 Mn36 2.297 1_554 S
O52 C39 1.236 . S
N53 Mn37 2.282 1_556 S
N53 C54 1.328 . S
N53 C58 1.318 . S
C54 N53 1.328 . S
C54 C55 1.457 . S
C54 H59 0.929 . S
C55 C54 1.457 . S
C55 C56 1.291 . S
C55 H68 0.931 . S
C56 C55 1.291 . S
C56 C57 1.373 . S
C56 H69 0.929 . S
C57 C56 1.373 . S
C57 C58 1.396 . S
C57 C64 1.403 . S
C58 C48 1.476 1_556 S
C58 N53 1.318 . S
C58 C57 1.396 . S
H59 C54 0.929 . S
O60 Mn36 2.385 . S
O60 C38 1.234 . S
O61 Mn36 2.209 1_554 S
O61 Mn37 2.215 . S
O61 C38 1.283 1_554 S
O62 Mn36 2.094 . S
O62 C40 1.240 . S
O63 Mn37 2.117 1_556 S
O63 C40 1.264 . S
C64 C57 1.403 . S
C64 C65 1.399 1_556 S
C64 H70 0.929 . S
C65 C45 1.449 . S
C65 C64 1.399 1_554 S
C65 H71 0.930 . S
H66 C46 0.931 . S
H67 C47 0.930 . S
H68 C55 0.931 . S
H69 C56 0.929 . S
H70 C64 0.929 . S
H71 C65 0.930 . S
Mn72 O77 2.095 1_554 S
Mn72 O87 2.162 . S
Mn72 O88 2.297 1_554 S
Mn72 O96 2.385 . S
Mn72 O97 2.209 . S
Mn72 O98 2.094 . S
Mn73 O78 2.121 1_554 S
Mn73 N80 2.257 1_554 S
Mn73 N89 2.282 . S
Mn73 O97 2.215 . S
Mn73 O99 2.117 . S
C74 O96 1.234 . S
C74 O97 1.283 . S
C75 O87 1.281 . S
C75 O88 1.236 1_554 S
C76 O98 1.240 . S
C76 O99 1.264 . S
O77 Mn72 2.095 1_556 S
O77 C86 1.250 . S
O78 Mn73 2.121 1_556 S
O78 C86 1.258 . S
C79 N80 1.326 . S
C79 C83 1.460 . S
C79 H85 0.929 . S
N80 Mn73 2.257 1_556 S
N80 C79 1.326 . S
N80 C84 1.362 . S
C81 C82 1.258 . S
C81 C84 1.431 . S
C81 C101 1.449 . S
C82 C81 1.258 . S
C82 C83 1.477 . S
C82 H102 0.931 . S
C83 C79 1.460 . S
C83 C82 1.477 . S
C83 H103 0.930 . S
C84 N80 1.362 . S
C84 C81 1.431 . S
C84 C94 1.476 1_556 S
H85 C79 0.929 . S
C86 O77 1.250 . S
C86 O78 1.258 . S
O87 Mn72 2.162 . S
O87 C75 1.281 . S
O88 Mn72 2.297 1_556 S
O88 C75 1.236 1_556 S
N89 Mn73 2.282 . S
N89 C90 1.328 . S
N89 C94 1.318 . S
C90 N89 1.328 . S
C90 C91 1.457 . S
C90 H95 0.929 . S
C91 C90 1.457 . S
C91 C92 1.291 . S
C91 H104 0.931 . S
C92 C91 1.291 . S
C92 C93 1.373 . S
C92 H105 0.929 . S
C93 C92 1.373 . S
C93 C94 1.396 . S
C93 C100 1.403 . S
C94 C84 1.476 1_554 S
C94 N89 1.318 . S
C94 C93 1.396 . S
H95 C90 0.929 . S
O96 Mn72 2.385 . S
O96 C74 1.234 . S
O97 Mn72 2.209 . S
O97 Mn73 2.215 . S
O97 C74 1.283 . S
O98 Mn72 2.094 . S
O98 C76 1.240 . S
O99 Mn73 2.117 . S
O99 C76 1.264 . S
C100 C93 1.403 . S
C100 C101 1.399 1_554 S
C100 H106 0.929 . S
C101 C81 1.449 . S
C101 C100 1.399 1_556 S
C101 H107 0.930 . S
H102 C82 0.931 . S
H103 C83 0.930 . S
H104 C91 0.931 . S
H105 C92 0.929 . S
H106 C100 0.929 . S
H107 C101 0.930 . S
Mn108 O113 2.095 1_556 S
Mn108 O123 2.162 . S
Mn108 O124 2.297 1_556 S
Mn108 O132 2.385 . S
Mn108 O133 2.209 1_556 S
Mn108 O134 2.094 . S
Mn109 O114 2.121 . S
Mn109 N116 2.257 . S
Mn109 N125 2.282 1_554 S
Mn109 O133 2.215 . S
Mn109 O135 2.117 1_554 S
C110 O132 1.234 . S
C110 O133 1.283 1_556 S
C111 O123 1.281 1_554 S
C111 O124 1.236 . S
C112 O134 1.240 . S
C112 O135 1.264 . S
O113 Mn108 2.095 1_554 S
O113 C122 1.250 . S
O114 Mn109 2.121 . S
O114 C122 1.258 . S
C115 N116 1.326 . S
C115 C119 1.460 . S
C115 H121 0.929 . S
N116 Mn109 2.257 . S
N116 C115 1.326 . S
N116 C120 1.362 . S
C117 C118 1.258 . S
C117 C120 1.431 . S
C117 C137 1.449 . S
C118 C117 1.258 . S
C118 C119 1.477 . S
C118 H138 0.931 . S
C119 C115 1.460 . S
C119 C118 1.477 . S
C119 H139 0.930 . S
C120 N116 1.362 . S
C120 C117 1.431 . S
C120 C130 1.476 1_554 S
H121 C115 0.929 . S
C122 O113 1.250 . S
C122 O114 1.258 . S
O123 Mn108 2.162 . S
O123 C111 1.281 1_556 S
O124 Mn108 2.297 1_554 S
O124 C111 1.236 . S
N125 Mn109 2.282 1_556 S
N125 C126 1.328 . S
N125 C130 1.318 . S
C126 N125 1.328 . S
C126 C127 1.457 . S
C126 H131 0.929 . S
C127 C126 1.457 . S
C127 C128 1.291 . S
C127 H140 0.931 . S
C128 C127 1.291 . S
C128 C129 1.373 . S
C128 H141 0.929 . S
C129 C128 1.373 . S
C129 C130 1.396 . S
C129 C136 1.403 . S
C130 C120 1.476 1_556 S
C130 N125 1.318 . S
C130 C129 1.396 . S
H131 C126 0.929 . S
O132 Mn108 2.385 . S
O132 C110 1.234 . S
O133 Mn108 2.209 1_554 S
O133 Mn109 2.215 . S
O133 C110 1.283 1_554 S
O134 Mn108 2.094 . S
O134 C112 1.240 . S
O135 Mn109 2.117 1_556 S
O135 C112 1.264 . S
C136 C129 1.403 . S
C136 C137 1.399 1_556 S
C136 H142 0.929 . S
C137 C117 1.449 . S
C137 C136 1.399 1_554 S
C137 H143 0.930 . S
H138 C118 0.931 . S
H139 C119 0.930 . S
H140 C127 0.931 . S
H141 C128 0.929 . S
H142 C136 0.929 . S
H143 C137 0.930 . S
Mn144 O149 2.095 . S
Mn144 O159 2.162 . S
Mn144 O160 2.297 . S
Mn144 O168 2.385 . S
Mn144 O169 2.209 . S
Mn144 O170 2.094 . S
Mn145 O150 2.121 . S
Mn145 N152 2.257 . S
Mn145 N161 2.282 . S
Mn145 O169 2.215 . S
Mn145 O171 2.117 . S
C146 O168 1.234 . S
C146 O169 1.283 . S
C147 O159 1.281 . S
C147 O160 1.236 . S
C148 O170 1.240 . S
C148 O171 1.264 . S
O149 Mn144 2.095 . S
O149 C158 1.250 . S
O150 Mn145 2.121 . S
O150 C158 1.258 . S
C151 N152 1.326 . S
C151 C155 1.460 . S
C151 H157 0.929 . S
N152 Mn145 2.257 . S
N152 C151 1.326 . S
N152 C156 1.362 . S
C153 C154 1.258 . S
C153 C156 1.431 . S
C153 C173 1.449 . S
C154 C153 1.258 . S
C154 C155 1.477 . S
C154 H174 0.931 . S
C155 C151 1.460 . S
C155 C154 1.477 . S
C155 H175 0.930 . S
C156 N152 1.362 . S
C156 C153 1.431 . S
C156 C166 1.476 . S
H157 C151 0.929 . S
C158 O149 1.250 . S
C158 O150 1.258 . S
O159 Mn144 2.162 . S
O159 C147 1.281 . S
O160 Mn144 2.297 . S
O160 C147 1.236 . S
N161 Mn145 2.282 . S
N161 C162 1.328 . S
N161 C166 1.318 . S
C162 N161 1.328 . S
C162 C163 1.457 . S
C162 H167 0.929 . S
C163 C162 1.457 . S
C163 C164 1.291 . S
C163 H176 0.931 . S
C164 C163 1.291 . S
C164 C165 1.373 . S
C164 H177 0.929 . S
C165 C164 1.373 . S
C165 C166 1.396 . S
C165 C172 1.403 . S
C166 C156 1.476 . S
C166 N161 1.318 . S
C166 C165 1.396 . S
H167 C162 0.929 . S
O168 Mn144 2.385 . S
O168 C146 1.234 . S
O169 Mn144 2.209 . S
O169 Mn145 2.215 . S
O169 C146 1.283 . S
O170 Mn144 2.094 . S
O170 C148 1.240 . S
O171 Mn145 2.117 . S
O171 C148 1.264 . S
C172 C165 1.403 . S
C172 C173 1.399 . S
C172 H178 0.929 . S
C173 C153 1.449 . S
C173 C172 1.399 . S
C173 H179 0.930 . S
H174 C154 0.931 . S
H175 C155 0.930 . S
H176 C163 0.931 . S
H177 C164 0.929 . S
H178 C172 0.929 . S
H179 C173 0.930 . S
Mn180 O185 2.095 . S
Mn180 O195 2.162 . S
Mn180 O196 2.297 . S
Mn180 O204 2.385 . S
Mn180 O205 2.209 . S
Mn180 O206 2.094 . S
Mn181 O186 2.121 . S
Mn181 N188 2.257 . S
Mn181 N197 2.282 . S
Mn181 O205 2.215 . S
Mn181 O207 2.117 . S
C182 O204 1.234 . S
C182 O205 1.283 . S
C183 O195 1.281 . S
C183 O196 1.236 . S
C184 O206 1.240 . S
C184 O207 1.264 . S
O185 Mn180 2.095 . S
O185 C194 1.250 . S
O186 Mn181 2.121 . S
O186 C194 1.258 . S
C187 N188 1.326 . S
C187 C191 1.460 . S
C187 H193 0.929 . S
N188 Mn181 2.257 . S
N188 C187 1.326 . S
N188 C192 1.362 . S
C189 C190 1.258 . S
C189 C192 1.431 . S
C189 C209 1.449 . S
C190 C189 1.258 . S
C190 C191 1.477 . S
C190 H210 0.931 . S
C191 C187 1.460 . S
C191 C190 1.477 . S
C191 H211 0.930 . S
C192 N188 1.362 . S
C192 C189 1.431 . S
C192 C202 1.476 . S
H193 C187 0.929 . S
C194 O185 1.250 . S
C194 O186 1.258 . S
O195 Mn180 2.162 . S
O195 C183 1.281 . S
O196 Mn180 2.297 . S
O196 C183 1.236 . S
N197 Mn181 2.282 . S
N197 C198 1.328 . S
N197 C202 1.318 . S
C198 N197 1.328 . S
C198 C199 1.457 . S
C198 H203 0.929 . S
C199 C198 1.457 . S
C199 C200 1.291 . S
C199 H212 0.931 . S
C200 C199 1.291 . S
C200 C201 1.373 . S
C200 H213 0.929 . S
C201 C200 1.373 . S
C201 C202 1.396 . S
C201 C208 1.403 . S
C202 C192 1.476 . S
C202 N197 1.318 . S
C202 C201 1.396 . S
H203 C198 0.929 . S
O204 Mn180 2.385 . S
O204 C182 1.234 . S
O205 Mn180 2.209 . S
O205 Mn181 2.215 . S
O205 C182 1.283 . S
O206 Mn180 2.094 . S
O206 C184 1.240 . S
O207 Mn181 2.117 . S
O207 C184 1.264 . S
C208 C201 1.403 . S
C208 C209 1.399 . S
C208 H214 0.929 . S
C209 C189 1.449 . S
C209 C208 1.399 . S
C209 H215 0.930 . S
H210 C190 0.931 . S
H211 C191 0.930 . S
H212 C199 0.931 . S
H213 C200 0.929 . S
H214 C208 0.929 . S
H215 C209 0.930 . S
Mn216 O221 2.095 . S
Mn216 O231 2.162 . S
Mn216 O232 2.297 . S
Mn216 O240 2.385 . S
Mn216 O241 2.209 . S
Mn216 O242 2.094 . S
Mn217 O222 2.121 . S
Mn217 N224 2.257 . S
Mn217 N233 2.282 . S
Mn217 O241 2.215 . S
Mn217 O243 2.117 . S
C218 O240 1.234 . S
C218 O241 1.283 . S
C219 O231 1.281 . S
C219 O232 1.236 . S
C220 O242 1.240 . S
C220 O243 1.264 . S
O221 Mn216 2.095 . S
O221 C230 1.250 . S
O222 Mn217 2.121 . S
O222 C230 1.258 . S
C223 N224 1.326 . S
C223 C227 1.460 . S
C223 H229 0.929 . S
N224 Mn217 2.257 . S
N224 C223 1.326 . S
N224 C228 1.362 . S
C225 C226 1.258 . S
C225 C228 1.431 . S
C225 C245 1.449 . S
C226 C225 1.258 . S
C226 C227 1.477 . S
C226 H246 0.931 . S
C227 C223 1.460 . S
C227 C226 1.477 . S
C227 H247 0.930 . S
C228 N224 1.362 . S
C228 C225 1.431 . S
C228 C238 1.476 . S
H229 C223 0.929 . S
C230 O221 1.250 . S
C230 O222 1.258 . S
O231 Mn216 2.162 . S
O231 C219 1.281 . S
O232 Mn216 2.297 . S
O232 C219 1.236 . S
N233 Mn217 2.282 . S
N233 C234 1.328 . S
N233 C238 1.318 . S
C234 N233 1.328 . S
C234 C235 1.457 . S
C234 H239 0.929 . S
C235 C234 1.457 . S
C235 C236 1.291 . S
C235 H248 0.931 . S
C236 C235 1.291 . S
C236 C237 1.373 . S
C236 H249 0.929 . S
C237 C236 1.373 . S
C237 C238 1.396 . S
C237 C244 1.403 . S
C238 C228 1.476 . S
C238 N233 1.318 . S
C238 C237 1.396 . S
H239 C234 0.929 . S
O240 Mn216 2.385 . S
O240 C218 1.234 . S
O241 Mn216 2.209 . S
O241 Mn217 2.215 . S
O241 C218 1.283 . S
O242 Mn216 2.094 . S
O242 C220 1.240 . S
O243 Mn217 2.117 . S
O243 C220 1.264 . S
C244 C237 1.403 . S
C244 C245 1.399 . S
C244 H250 0.929 . S
C245 C225 1.449 . S
C245 C244 1.399 . S
C245 H251 0.930 . S
H246 C226 0.931 . S
H247 C227 0.930 . S
H248 C235 0.931 . S
H249 C236 0.929 . S
H250 C244 0.929 . S
H251 C245 0.930 . S
Mn252 O257 2.095 . S
Mn252 O267 2.162 . S
Mn252 O268 2.297 . S
Mn252 O276 2.385 . S
Mn252 O277 2.209 . S
Mn252 O278 2.094 . S
Mn253 O258 2.121 . S
Mn253 N260 2.257 . S
Mn253 N269 2.282 . S
Mn253 O277 2.215 . S
Mn253 O279 2.117 . S
C254 O276 1.234 . S
C254 O277 1.283 . S
C255 O267 1.281 . S
C255 O268 1.236 . S
C256 O278 1.240 . S
C256 O279 1.264 . S
O257 Mn252 2.095 . S
O257 C266 1.250 . S
O258 Mn253 2.121 . S
O258 C266 1.258 . S
C259 N260 1.326 . S
C259 C263 1.460 . S
C259 H265 0.929 . S
N260 Mn253 2.257 . S
N260 C259 1.326 . S
N260 C264 1.362 . S
C261 C262 1.258 . S
C261 C264 1.431 . S
C261 C281 1.449 . S
C262 C261 1.258 . S
C262 C263 1.477 . S
C262 H282 0.931 . S
C263 C259 1.460 . S
C263 C262 1.477 . S
C263 H283 0.930 . S
C264 N260 1.362 . S
C264 C261 1.431 . S
C264 C274 1.476 . S
H265 C259 0.929 . S
C266 O257 1.250 . S
C266 O258 1.258 . S
O267 Mn252 2.162 . S
O267 C255 1.281 . S
O268 Mn252 2.297 . S
O268 C255 1.236 . S
N269 Mn253 2.282 . S
N269 C270 1.328 . S
N269 C274 1.318 . S
C270 N269 1.328 . S
C270 C271 1.457 . S
C270 H275 0.929 . S
C271 C270 1.457 . S
C271 C272 1.291 . S
C271 H284 0.931 . S
C272 C271 1.291 . S
C272 C273 1.373 . S
C272 H285 0.929 . S
C273 C272 1.373 . S
C273 C274 1.396 . S
C273 C280 1.403 . S
C274 C264 1.476 . S
C274 N269 1.318 . S
C274 C273 1.396 . S
H275 C270 0.929 . S
O276 Mn252 2.385 . S
O276 C254 1.234 . S
O277 Mn252 2.209 . S
O277 Mn253 2.215 . S
O277 C254 1.283 . S
O278 Mn252 2.094 . S
O278 C256 1.240 . S
O279 Mn253 2.117 . S
O279 C256 1.264 . S
C280 C273 1.403 . S
C280 C281 1.399 . S
C280 H286 0.929 . S
C281 C261 1.449 . S
C281 C280 1.399 . S
C281 H287 0.930 . S
H282 C262 0.931 . S
H283 C263 0.930 . S
H284 C271 0.931 . S
H285 C272 0.929 . S
H286 C280 0.929 . S
H287 C281 0.930 . S
H288 C294 0.930 . S
H289 C298 0.930 . S
H290 C303 0.929 . S
H291 C301 0.929 . S
H292 C296 0.929 . S
H293 C302 0.929 . S
C294 H288 0.930 . S
C294 C295 1.367 . S
C294 C302 1.378 . S
C295 C294 1.367 . S
C295 C303 1.433 1_554 S
C296 H292 0.929 . S
C296 C298 1.378 . S
C296 C300 1.350 1_556 S
C297 C300 1.463 . S
C297 C302 1.350 . S
C297 N305 1.427 1_554 S
C298 H289 0.930 . S
C298 C296 1.378 . S
C298 C299 1.367 1_556 S
C299 C298 1.367 1_554 S
C299 C301 1.433 . S
C300 C296 1.350 1_554 S
C300 C297 1.463 . S
C300 N304 1.427 . S
C301 H291 0.929 . S
C301 C299 1.433 . S
C301 N304 1.384 . S
C302 H293 0.929 . S
C302 C294 1.378 . S
C302 C297 1.350 . S
C303 H290 0.929 . S
C303 C295 1.433 1_556 S
C303 N305 1.384 . S
N304 C300 1.427 . S
N304 C301 1.384 . S
N305 C297 1.427 1_556 S
N305 C303 1.384 . S
H306 C312 0.930 . S
H307 C316 0.930 . S
H308 C321 0.929 . S
H309 C319 0.929 . S
H310 C314 0.929 . S
H311 C320 0.929 . S
C312 H306 0.930 . S
C312 C313 1.367 1_556 S
C312 C320 1.378 . S
C313 C312 1.367 1_554 S
C313 C321 1.433 . S
C314 H310 0.929 . S
C314 C316 1.378 . S
C314 C318 1.350 . S
C315 C318 1.463 . S
C315 C320 1.350 1_554 S
C315 N323 1.427 . S
C316 H307 0.930 . S
C316 C314 1.378 . S
C316 C317 1.367 1_554 S
C317 C316 1.367 1_556 S
C317 C319 1.433 . S
C318 C314 1.350 . S
C318 C315 1.463 . S
C318 N322 1.427 1_554 S
C319 H309 0.929 . S
C319 C317 1.433 . S
C319 N322 1.384 . S
C320 H311 0.929 . S
C320 C312 1.378 . S
C320 C315 1.350 1_556 S
C321 H308 0.929 . S
C321 C313 1.433 . S
C321 N323 1.384 . S
N322 C318 1.427 1_556 S
N322 C319 1.384 . S
N323 C315 1.427 . S
N323 C321 1.384 . S
H324 C330 0.930 . S
H325 C334 0.930 . S
H326 C339 0.929 1_556 S
H327 C337 0.929 . S
H328 C332 0.929 . S
H329 C338 0.929 . S
C330 H324 0.930 . S
C330 C331 1.367 . S
C330 C338 1.378 . S
C331 C330 1.367 . S
C331 C339 1.433 . S
C332 H328 0.929 . S
C332 C334 1.378 . S
C332 C336 1.350 1_556 S
C333 C336 1.463 . S
C333 C338 1.350 . S
C333 N341 1.427 . S
C334 H325 0.930 . S
C334 C332 1.378 . S
C334 C335 1.367 1_556 S
C335 C334 1.367 1_554 S
C335 C337 1.433 . S
C336 C332 1.350 1_554 S
C336 C333 1.463 . S
C336 N340 1.427 . S
C337 H327 0.929 . S
C337 C335 1.433 . S
C337 N340 1.384 . S
C338 H329 0.929 . S
C338 C330 1.378 . S
C338 C333 1.350 . S
C339 H326 0.929 1_554 S
C339 C331 1.433 . S
C339 N341 1.384 . S
N340 C336 1.427 . S
N340 C337 1.384 . S
N341 C333 1.427 . S
N341 C339 1.384 . S
H342 C348 0.930 . S
H343 C352 0.930 . S
H344 C357 0.929 . S
H345 C355 0.929 1_556 S
H346 C350 0.929 . S
H347 C356 0.929 . S
C348 H342 0.930 . S
C348 C349 1.367 . S
C348 C356 1.378 . S
C349 C348 1.367 . S
C349 C357 1.433 1_556 S
C350 H346 0.929 . S
C350 C352 1.378 . S
C350 C354 1.350 . S
C351 C354 1.463 . S
C351 C356 1.350 1_554 S
C351 N359 1.427 . S
C352 H343 0.930 . S
C352 C350 1.378 . S
C352 C353 1.367 . S
C353 C352 1.367 . S
C353 C355 1.433 . S
C354 C350 1.350 . S
C354 C351 1.463 . S
C354 N358 1.429 . S
C355 H345 0.929 1_554 S
C355 C353 1.433 . S
C355 N358 1.384 . S
C356 H347 0.929 . S
C356 C348 1.378 . S
C356 C351 1.350 1_556 S
C357 H344 0.929 . S
C357 C349 1.433 1_554 S
C357 N359 1.384 . S
N358 C354 1.429 . S
N358 C355 1.384 . S
N359 C351 1.427 . S
N359 C357 1.384 . S
H360 C366 0.930 . S
H361 C370 0.930 . S
H362 C375 0.929 . S
H363 C373 0.929 . S
H364 C368 0.929 . S
H365 C374 0.929 . S
C366 H360 0.930 . S
C366 C367 1.367 . S
C366 C374 1.378 . S
C367 C366 1.367 . S
C367 C375 1.433 . S
C368 H364 0.929 . S
C368 C370 1.378 . S
C368 C372 1.350 . S
C369 C372 1.463 1_565 S
C369 C374 1.350 . S
C369 N377 1.427 . S
C370 H361 0.930 . S
C370 C368 1.378 . S
C370 C371 1.367 . S
C371 C370 1.367 . S
C371 C373 1.433 . S
C372 C368 1.350 . S
C372 C369 1.463 1_545 S
C372 N376 1.427 . S
C373 H363 0.929 . S
C373 C371 1.433 . S
C373 N376 1.384 . S
C374 H365 0.929 . S
C374 C366 1.378 . S
C374 C369 1.350 . S
C375 H362 0.929 . S
C375 C367 1.433 . S
C375 N377 1.384 . S
N376 C372 1.427 . S
N376 C373 1.384 . S
N377 C369 1.427 . S
N377 C375 1.384 . S
H378 C384 0.930 . S
H379 C388 0.930 . S
H380 C393 0.929 . S
H381 C391 0.929 . S
H382 C386 0.929 . S
H383 C392 0.929 . S
C384 H378 0.930 . S
C384 C385 1.367 . S
C384 C392 1.378 . S
C385 C384 1.367 . S
C385 C393 1.433 . S
C386 H382 0.929 . S
C386 C388 1.378 . S
C386 C390 1.350 . S
C387 C390 1.463 1_455 S
C387 C392 1.350 . S
C387 N395 1.427 . S
C388 H379 0.930 . S
C388 C386 1.378 . S
C388 C389 1.367 . S
C389 C388 1.367 . S
C389 C391 1.433 . S
C390 C386 1.350 . S
C390 C387 1.463 1_655 S
C390 N394 1.427 . S
C391 H381 0.929 . S
C391 C389 1.433 . S
C391 N394 1.384 . S
C392 H383 0.929 . S
C392 C384 1.378 . S
C392 C387 1.350 . S
C393 H380 0.929 . S
C393 C385 1.433 . S
C393 N395 1.384 . S
N394 C390 1.427 . S
N394 C391 1.384 . S
N395 C387 1.427 . S
N395 C393 1.384 . S
H396 C402 0.930 . S
H397 C406 0.930 . S
H398 C411 0.929 . S
H399 C409 0.929 . S
H400 C404 0.929 . S
H401 C410 0.929 . S
C402 H396 0.930 . S
C402 C403 1.367 . S
C402 C410 1.378 . S
C403 C402 1.367 . S
C403 C411 1.433 . S
C404 H400 0.929 . S
C404 C406 1.378 . S
C404 C408 1.350 . S
C405 C408 1.463 1_545 S
C405 C410 1.350 . S
C405 N413 1.427 . S
C406 H397 0.930 . S
C406 C404 1.378 . S
C406 C407 1.367 . S
C407 C406 1.367 . S
C407 C409 1.433 . S
C408 C404 1.350 . S
C408 C405 1.463 1_565 S
C408 N412 1.427 . S
C409 H399 0.929 . S
C409 C407 1.433 . S
C409 N412 1.384 . S
C410 H401 0.929 . S
C410 C402 1.378 . S
C410 C405 1.350 . S
C411 H398 0.929 . S
C411 C403 1.433 . S
C411 N413 1.384 . S
N412 C408 1.427 . S
N412 C409 1.384 . S
N413 C405 1.427 . S
N413 C411 1.384 . S
H414 C420 0.930 . S
H415 C424 0.930 . S
H416 C429 0.929 . S
H417 C427 0.929 . S
H418 C422 0.929 . S
H419 C428 0.929 . S
C420 H414 0.930 . S
C420 C421 1.367 . S
C420 C428 1.378 . S
C421 C420 1.367 . S
C421 C429 1.433 . S
C422 H418 0.929 . S
C422 C424 1.378 . S
C422 C426 1.350 . S
C423 C426 1.463 1_655 S
C423 C428 1.350 . S
C423 N431 1.427 . S
C424 H415 0.930 . S
C424 C422 1.378 . S
C424 C425 1.367 . S
C425 C424 1.367 . S
C425 C427 1.433 . S
C426 C422 1.350 . S
C426 C423 1.463 1_455 S
C426 N430 1.427 . S
C427 H417 0.929 . S
C427 C425 1.433 . S
C427 N430 1.384 . S
C428 H419 0.929 . S
C428 C420 1.378 . S
C428 C423 1.350 . S
C429 H416 0.929 . S
C429 C421 1.433 . S
C429 N431 1.384 . S
N430 C426 1.427 . S
N430 C427 1.384 . S
N431 C423 1.427 . S
N431 C429 1.384 . S
H432 C438 0.930 . S
H433 C442 0.930 . S
H434 C447 0.929 . S
H435 C445 0.929 . S
H436 C440 0.929 . S
H437 C446 0.929 . S
C438 H432 0.930 . S
C438 C439 1.367 . S
C438 C446 1.378 . S
C439 C438 1.367 . S
C439 C447 1.433 . S
C440 H436 0.929 . S
C440 C442 1.378 . S
C440 C444 1.350 . S
C441 C444 1.463 . S
C441 C446 1.350 . S
C441 N449 1.427 . S
C442 H433 0.930 . S
C442 C440 1.378 . S
C442 C443 1.367 . S
C443 C442 1.367 . S
C443 C445 1.433 . S
C444 C440 1.350 . S
C444 C441 1.463 . S
C444 N448 1.427 . S
C445 H435 0.929 . S
C445 C443 1.433 . S
C445 N448 1.384 . S
C446 H437 0.929 . S
C446 C438 1.378 . S
C446 C441 1.350 . S
C447 H434 0.929 . S
C447 C439 1.433 . S
C447 N449 1.384 . S
N448 C444 1.427 . S
N448 C445 1.384 . S
N449 C441 1.427 . S
N449 C447 1.384 . S
H450 C456 0.930 . S
H451 C460 0.930 . S
H452 C465 0.929 . S
H453 C463 0.929 . S
H454 C458 0.929 . S
H455 C464 0.929 . S
C456 H450 0.930 . S
C456 C457 1.367 . S
C456 C464 1.378 . S
C457 C456 1.367 . S
C457 C465 1.433 . S
C458 H454 0.929 . S
C458 C460 1.378 . S
C458 C462 1.350 . S
C459 C462 1.463 . S
C459 C464 1.350 . S
C459 N467 1.427 . S
C460 H451 0.930 . S
C460 C458 1.378 . S
C460 C461 1.367 . S
C461 C460 1.367 . S
C461 C463 1.433 . S
C462 C458 1.350 . S
C462 C459 1.463 . S
C462 N466 1.427 . S
C463 H453 0.929 . S
C463 C461 1.433 . S
C463 N466 1.384 . S
C464 H455 0.929 . S
C464 C456 1.378 . S
C464 C459 1.350 . S
C465 H452 0.929 . S
C465 C457 1.433 . S
C465 N467 1.384 . S
N466 C462 1.427 . S
N466 C463 1.384 . S
N467 C459 1.427 . S
N467 C465 1.384 . S
H468 C474 0.930 . S
H469 C478 0.930 . S
H470 C483 0.929 . S
H471 C481 0.929 . S
H472 C476 0.929 . S
H473 C482 0.929 . S
C474 H468 0.930 . S
C474 C475 1.367 . S
C474 C482 1.378 . S
C475 C474 1.367 . S
C475 C483 1.433 . S
C476 H472 0.929 . S
C476 C478 1.378 . S
C476 C480 1.350 . S
C477 C480 1.463 . S
C477 C482 1.350 . S
C477 N485 1.427 . S
C478 H469 0.930 . S
C478 C476 1.378 . S
C478 C479 1.367 . S
C479 C478 1.367 . S
C479 C481 1.433 . S
C480 C476 1.350 . S
C480 C477 1.463 . S
C480 N484 1.427 . S
C481 H471 0.929 . S
C481 C479 1.433 . S
C481 N484 1.384 . S
C482 H473 0.929 . S
C482 C474 1.378 . S
C482 C477 1.350 . S
C483 H470 0.929 . S
C483 C475 1.433 . S
C483 N485 1.384 . S
N484 C480 1.427 . S
N484 C481 1.384 . S
N485 C477 1.427 . S
N485 C483 1.384 . S
H486 C492 0.930 . S
H487 C496 0.930 . S
H488 C501 0.929 . S
H489 C499 0.929 . S
H490 C494 0.929 . S
H491 C500 0.929 . S
C492 H486 0.930 . S
C492 C493 1.367 . S
C492 C500 1.378 . S
C493 C492 1.367 . S
C493 C501 1.433 . S
C494 H490 0.929 . S
C494 C496 1.378 . S
C494 C498 1.350 . S
C495 C498 1.463 . S
C495 C500 1.350 . S
C495 N503 1.427 . S
C496 H487 0.930 . S
C496 C494 1.378 . S
C496 C497 1.367 . S
C497 C496 1.367 . S
C497 C499 1.433 . S
C498 C494 1.350 . S
C498 C495 1.463 . S
C498 N502 1.427 . S
C499 H489 0.929 . S
C499 C497 1.433 . S
C499 N502 1.384 . S
C500 H491 0.929 . S
C500 C492 1.378 . S
C500 C495 1.350 . S
C501 H488 0.929 . S
C501 C493 1.433 . S
C501 N503 1.384 . S
N502 C498 1.427 . S
N502 C499 1.384 . S
N503 C495 1.427 . S
N503 C501 1.384 . S
H504 C510 0.930 . S
H505 C514 0.930 . S
H506 C519 0.929 . S
H507 C517 0.929 . S
H508 C512 0.929 . S
H509 C518 0.929 . S
C510 H504 0.930 . S
C510 C511 1.367 . S
C510 C518 1.378 . S
C511 C510 1.367 . S
C511 C519 1.433 . S
C512 H508 0.929 . S
C512 C514 1.378 . S
C512 C516 1.350 . S
C513 C516 1.463 . S
C513 C518 1.350 . S
C513 N521 1.427 . S
C514 H505 0.930 . S
C514 C512 1.378 . S
C514 C515 1.367 . S
C515 C514 1.367 . S
C515 C517 1.433 . S
C516 C512 1.350 . S
C516 C513 1.463 . S
C516 N520 1.427 . S
C517 H507 0.929 . S
C517 C515 1.433 . S
C517 N520 1.384 . S
C518 H509 0.929 . S
C518 C510 1.378 . S
C518 C513 1.350 . S
C519 H506 0.929 . S
C519 C511 1.433 . S
C519 N521 1.384 . S
N520 C516 1.427 . S
N520 C517 1.384 . S
N521 C513 1.427 . S
N521 C519 1.384 . S
H522 C528 0.930 . S
H523 C532 0.930 . S
H524 C537 0.929 . S
H525 C535 0.929 . S
H526 C530 0.929 . S
H527 C536 0.929 . S
C528 H522 0.930 . S
C528 C529 1.367 . S
C528 C536 1.378 . S
C529 C528 1.367 . S
C529 C537 1.433 . S
C530 H526 0.929 . S
C530 C532 1.378 . S
C530 C534 1.350 . S
C531 C534 1.463 . S
C531 C536 1.350 . S
C531 N539 1.427 . S
C532 H523 0.930 . S
C532 C530 1.378 . S
C532 C533 1.367 . S
C533 C532 1.367 . S
C533 C535 1.433 . S
C534 C530 1.350 . S
C534 C531 1.463 . S
C534 N538 1.427 . S
C535 H525 0.929 . S
C535 C533 1.433 . S
C535 N538 1.384 . S
C536 H527 0.929 . S
C536 C528 1.378 . S
C536 C531 1.350 . S
C537 H524 0.929 . S
C537 C529 1.433 . S
C537 N539 1.384 . S
N538 C534 1.427 . S
N538 C535 1.384 . S
N539 C531 1.427 . S
N539 C537 1.384 . S
H540 C546 0.930 . S
H541 C550 0.930 . S
H542 C555 0.929 . S
H543 C553 0.929 . S
H544 C548 0.929 . S
H545 C554 0.929 . S
C546 H540 0.930 . S
C546 C547 1.367 . S
C546 C554 1.378 . S
C547 C546 1.367 . S
C547 C555 1.433 . S
C548 H544 0.929 . S
C548 C550 1.378 . S
C548 C552 1.350 . S
C549 C552 1.463 . S
C549 C554 1.350 . S
C549 N557 1.427 . S
C550 H541 0.930 . S
C550 C548 1.378 . S
C550 C551 1.367 . S
C551 C550 1.367 . S
C551 C553 1.433 . S
C552 C548 1.350 . S
C552 C549 1.463 . S
C552 N556 1.427 . S
C553 H543 0.929 . S
C553 C551 1.433 . S
C553 N556 1.384 . S
C554 H545 0.929 . S
C554 C546 1.378 . S
C554 C549 1.350 . S
C555 H542 0.929 . S
C555 C547 1.433 . S
C555 N557 1.384 . S
N556 C552 1.427 . S
N556 C553 1.384 . S
N557 C549 1.427 . S
N557 C555 1.384 . S
H558 C564 0.930 . S
H559 C568 0.930 . S
H560 C573 0.929 . S
H561 C571 0.929 . S
H562 C566 0.929 . S
H563 C572 0.929 . S
C564 H558 0.930 . S
C564 C565 1.367 . S
C564 C572 1.378 . S
C565 C564 1.367 . S
C565 C573 1.433 . S
C566 H562 0.929 . S
C566 C568 1.378 . S
C566 C570 1.350 . S
C567 C570 1.463 . S
C567 C572 1.350 . S
C567 N575 1.427 . S
C568 H559 0.930 . S
C568 C566 1.378 . S
C568 C569 1.367 . S
C569 C568 1.367 . S
C569 C571 1.433 . S
C570 C566 1.350 . S
C570 C567 1.463 . S
C570 N574 1.427 . S
C571 H561 0.929 . S
C571 C569 1.433 . S
C571 N574 1.384 . S
C572 H563 0.929 . S
C572 C564 1.378 . S
C572 C567 1.350 . S
C573 H560 0.929 . S
C573 C565 1.433 . S
C573 N575 1.384 . S
N574 C570 1.427 . S
N574 C571 1.384 . S
N575 C567 1.427 . S
N575 C573 1.384 . S
C295 C3 1.506 . S
C299 C111 1.506 . S
C313 C2 1.506 . S
C317 C38 1.509 . S
C331 C39 1.510 . S
C335 C75 1.510 . S
C349 C110 1.510 . S
C353 C74 1.506 . S
C367 C147 1.511 . S
C371 C255 1.511 . S
C385 C182 1.505 . S
C389 C146 1.510 . S
C403 C219 1.511 . S
C407 C183 1.511 . S
C421 C254 1.508 . S
C425 C218 1.508 . S
C439 C230 1.406 . S
C443 C4 1.472 . S
C457 C50 1.415 . S
C461 C256 1.473 . S
C475 C158 1.401 . S
C479 C76 1.472 . S
C493 C184 1.472 . S
C497 C122 1.401 . S
C511 C194 1.405 . S
C515 C112 1.472 . S
C529 C14 1.413 . S
C533 C220 1.473 . S
C547 C40 1.474 . S
C551 C266 1.417 . S
C565 C86 1.418 . S
C569 C148 1.474 . S
