# Generated by pormake.
# Topology wkj, (6)-cn, num edge types: 1
# Building blocks:
#     Node 0, Type 0, BuildingBlock: NUHQIS_clean_sbu_0, # of connection points: 6
#     Node 1, Type 0, BuildingBlock: NUHQIS_clean_sbu_0, # of connection points: 6
#     Node 2, Type 0, BuildingBlock: NUHQIS_clean_sbu_0, # of connection points: 6
#     Node 3, Type 0, BuildingBlock: NUHQIS_clean_sbu_0, # of connection points: 6
#     Node 4, Type 0, BuildingBlock: NUHQIS_clean_sbu_0, # of connection points: 6
#     Node 5, Type 0, BuildingBlock: NUHQIS_clean_sbu_0, # of connection points: 6
#     Node 6, Type 0, BuildingBlock: NUHQIS_clean_sbu_0, # of connection points: 6
#     Node 7, Type 0, BuildingBlock: NUHQIS_clean_sbu_0, # of connection points: 6
#     Node 8, Type 0, BuildingBlock: NUHQIS_clean_sbu_0, # of connection points: 6
#     Node 9, Type 0, BuildingBlock: NUHQIS_clean_sbu_0, # of connection points: 6
#     Node 10, Type 0, BuildingBlock: NUHQIS_clean_sbu_0, # of connection points: 6
#     Node 11, Type 0, BuildingBlock: NUHQIS_clean_sbu_0, # of connection points: 6
#     Edge 12, Type (0, 0), BuildingBlock: XIVTED_clean_linker_0, # of connection points: 2
#     Edge 13, Type (0, 0), BuildingBlock: XIVTED_clean_linker_0, # of connection points: 2
#     Edge 14, Type (0, 0), BuildingBlock: XIVTED_clean_linker_0, # of connection points: 2
#     Edge 15, Type (0, 0), BuildingBlock: XIVTED_clean_linker_0, # of connection points: 2
#     Edge 16, Type (0, 0), BuildingBlock: XIVTED_clean_linker_0, # of connection points: 2
#     Edge 17, Type (0, 0), BuildingBlock: XIVTED_clean_linker_0, # of connection points: 2
#     Edge 18, Type (0, 0), BuildingBlock: XIVTED_clean_linker_0, # of connection points: 2
#     Edge 19, Type (0, 0), BuildingBlock: XIVTED_clean_linker_0, # of connection points: 2
#     Edge 20, Type (0, 0), BuildingBlock: XIVTED_clean_linker_0, # of connection points: 2
#     Edge 21, Type (0, 0), BuildingBlock: XIVTED_clean_linker_0, # of connection points: 2
#     Edge 22, Type (0, 0), BuildingBlock: XIVTED_clean_linker_0, # of connection points: 2
#     Edge 23, Type (0, 0), BuildingBlock: XIVTED_clean_linker_0, # of connection points: 2
#     Edge 24, Type (0, 0), BuildingBlock: XIVTED_clean_linker_0, # of connection points: 2
#     Edge 25, Type (0, 0), BuildingBlock: XIVTED_clean_linker_0, # of connection points: 2
#     Edge 26, Type (0, 0), BuildingBlock: XIVTED_clean_linker_0, # of connection points: 2
#     Edge 27, Type (0, 0), BuildingBlock: XIVTED_clean_linker_0, # of connection points: 2
#     Edge 28, Type (0, 0), BuildingBlock: XIVTED_clean_linker_0, # of connection points: 2
#     Edge 29, Type (0, 0), BuildingBlock: XIVTED_clean_linker_0, # of connection points: 2
#     Edge 30, Type (0, 0), BuildingBlock: XIVTED_clean_linker_0, # of connection points: 2
#     Edge 31, Type (0, 0), BuildingBlock: XIVTED_clean_linker_0, # of connection points: 2
#     Edge 32, Type (0, 0), BuildingBlock: XIVTED_clean_linker_0, # of connection points: 2
#     Edge 33, Type (0, 0), BuildingBlock: XIVTED_clean_linker_0, # of connection points: 2
#     Edge 34, Type (0, 0), BuildingBlock: XIVTED_clean_linker_0, # of connection points: 2
#     Edge 35, Type (0, 0), BuildingBlock: XIVTED_clean_linker_0, # of connection points: 2
#     Edge 36, Type (0, 0), BuildingBlock: XIVTED_clean_linker_0, # of connection points: 2
#     Edge 37, Type (0, 0), BuildingBlock: XIVTED_clean_linker_0, # of connection points: 2
#     Edge 38, Type (0, 0), BuildingBlock: XIVTED_clean_linker_0, # of connection points: 2
#     Edge 39, Type (0, 0), BuildingBlock: XIVTED_clean_linker_0, # of connection points: 2
#     Edge 40, Type (0, 0), BuildingBlock: XIVTED_clean_linker_0, # of connection points: 2
#     Edge 41, Type (0, 0), BuildingBlock: XIVTED_clean_linker_0, # of connection points: 2
#     Edge 42, Type (0, 0), BuildingBlock: XIVTED_clean_linker_0, # of connection points: 2
#     Edge 43, Type (0, 0), BuildingBlock: XIVTED_clean_linker_0, # of connection points: 2
#     Edge 44, Type (0, 0), BuildingBlock: XIVTED_clean_linker_0, # of connection points: 2
#     Edge 45, Type (0, 0), BuildingBlock: XIVTED_clean_linker_0, # of connection points: 2
#     Edge 46, Type (0, 0), BuildingBlock: XIVTED_clean_linker_0, # of connection points: 2
#     Edge 47, Type (0, 0), BuildingBlock: XIVTED_clean_linker_0, # of connection points: 2
# Relax obj value: 0.756
# Max RMSD: 0.176
# Mean RMSD: 0.176
data_MOF--net-wkj--node1-NUHQIS_clean_sbu_0--edge1-XIVTED_clean_linker_0
_symmetry_space_group_name_H-M    P1
_symmetry_Int_Tables_number       1
_symmetry_cell_setting            triclinic
loop_
_symmetry_equiv_pos_as_xyz
'x, y, z'
_cell_length_a     49.144813
_cell_length_b     49.1878
_cell_length_c     30.507453
_cell_angle_alpha  89.831733
_cell_angle_beta   89.599343
_cell_angle_gamma 119.92483
loop_
_atom_site_label
_atom_site_type_symbol
_atom_site_fract_x
_atom_site_fract_y
_atom_site_fract_z
_atom_type_partial_charge
Tb0 Tb 0.44505 0.08158 0.36619 0.0
Eu1 Eu 0.51391 0.09617 0.34538 0.0
C2 C 0.4937 0.15105 0.33519 0.0
C3 C 0.45976 0.05701 0.27048 0.0
C4 C 0.37653 0.08264 0.41572 0.0
C5 C 0.32938 0.07686 0.45028 0.0
C6 C 0.34452 0.07295 0.41391 0.0
C7 C 0.39402 0.09933 0.45212 0.0
C8 C 0.3789 0.10286 0.48865 0.0
C9 C 0.34603 0.08983 0.48922 0.0
C10 C 0.39028 0.07089 0.38348 0.0
O11 O 0.43965 0.03589 0.36036 0.0
O12 O 0.48783 0.05066 0.38541 0.0
O13 O 0.51742 0.10004 0.42074 0.0
O14 O 0.46806 0.09149 0.43544 0.0
C15 C 0.4578 0.02946 0.38303 0.0
O16 O 0.54896 0.0922 0.30518 0.0
O17 O 0.56316 0.1205 0.36352 0.0
O18 O 0.51295 0.14096 0.32289 0.0
O19 O 0.4684 0.13235 0.35782 0.0
O20 O 0.44167 0.06512 0.29428 0.0
O21 O 0.48773 0.0646 0.28626 0.0
C22 C 0.49629 0.09706 0.45029 0.0
O23 O 0.40821 0.09056 0.35319 0.0
O24 O 0.40271 0.05523 0.40023 0.0
C25 C 0.59615 0.14077 0.30239 0.0
C26 C 0.63775 0.19169 0.24854 0.0
C27 C 0.64319 0.16655 0.25685 0.0
C28 C 0.62239 0.14117 0.28343 0.0
C29 C 0.59177 0.16656 0.29628 0.0
C30 C 0.61214 0.19158 0.26968 0.0
C31 C 0.57251 0.11349 0.32746 0.0
H32 H 0.30422 0.06733 0.44915 0.0
H33 H 0.33079 0.06035 0.3857 0.0
H34 H 0.41888 0.10719 0.45382 0.0
H35 H 0.39268 0.11291 0.51782 0.0
H36 H 0.66284 0.16592 0.24169 0.0
H37 H 0.62635 0.12159 0.28823 0.0
H38 H 0.57193 0.16699 0.31101 0.0
H39 H 0.60642 0.20985 0.26374 0.0
Tb40 Tb 0.39752 0.49205 0.71035 0.0
Eu41 Eu 0.44974 0.56233 0.68495 0.0
C42 C 0.37503 0.53728 0.67851 0.0
C43 C 0.43261 0.50575 0.61138 0.0
C44 C 0.33166 0.41837 0.75905 0.0
C45 C 0.29174 0.36772 0.78721 0.0
C46 C 0.31021 0.38655 0.75237 0.0
C47 C 0.33256 0.43185 0.79979 0.0
C48 C 0.31433 0.41305 0.83469 0.0
C49 C 0.29482 0.38045 0.82935 0.0
C50 C 0.35609 0.4358 0.72599 0.0
O51 O 0.44346 0.49784 0.70095 0.0
O52 O 0.47476 0.54486 0.72813 0.0
O53 O 0.44629 0.56468 0.76185 0.0
O54 O 0.41159 0.51315 0.77946 0.0
C55 C 0.46502 0.5149 0.72892 0.0
O56 O 0.49103 0.59951 0.65085 0.0
O57 O 0.46292 0.61109 0.69363 0.0
O58 O 0.40213 0.55262 0.6577 0.0
O59 O 0.37199 0.51782 0.70991 0.0
O60 O 0.40729 0.48833 0.63717 0.0
O61 O 0.45376 0.53416 0.62562 0.0
C62 C 0.43139 0.54269 0.79272 0.0
O63 O 0.35187 0.45419 0.69946 0.0
O64 O 0.38465 0.44923 0.74062 0.0
C65 C 0.48193 0.641 0.62899 0.0
C66 C 0.46244 0.66605 0.561 0.0
C67 C 0.48122 0.65257 0.55173 0.0
C68 C 0.49082 0.64006 0.58542 0.0
C69 C 0.46627 0.65772 0.63857 0.0
C70 C 0.4563 0.66983 0.60483 0.0
C71 C 0.48481 0.62131 0.6634 0.0
H72 H 0.27655 0.34285 0.78178 0.0
H73 H 0.30916 0.37584 0.72097 0.0
H74 H 0.34904 0.45644 0.80546 0.0
H75 H 0.31765 0.42374 0.86663 0.0
H76 H 0.48616 0.64916 0.51816 0.0
H77 H 0.50329 0.6278 0.57696 0.0
H78 H 0.45968 0.65947 0.67197 0.0
H79 H 0.44209 0.68035 0.61282 0.0
Tb80 Tb 0.90382 0.36567 1.03658 0.0
Eu81 Eu 0.88844 0.42056 1.01366 0.0
C82 C 0.83572 0.34546 0.99959 0.0
C83 C 0.92726 0.40235 0.93768 0.0
C84 C 0.93482 0.3178 1.08878 0.0
C85 C 0.95236 0.28373 1.11971 0.0
C86 C 0.93561 0.2897 1.08797 0.0
C87 C 0.95053 0.33976 1.12172 0.0
C88 C 0.96772 0.3341 0.15287 0.0
C89 C 0.96888 0.30612 0.15196 0.0
C90 C 0.91814 0.32422 1.05456 0.0
O91 O 0.93667 0.41015 1.06399 0.0
O92 O 0.94126 0.44378 1.0126 0.0
O93 O 0.88908 0.4208 1.09094 0.0
O94 O 0.89225 0.37667 1.10568 0.0
C95 C 0.95485 0.43225 1.03701 0.0
O96 O 0.87567 0.4461 0.96761 0.0
O97 O 0.88005 0.45802 1.03624 0.0
O98 O 0.84164 0.37472 1.00209 0.0
O99 O 0.85739 0.33836 1.00882 0.0
O100 O 0.9244 0.38011 0.96636 0.0
O101 O 0.91495 0.42017 0.94926 0.0
C102 C 0.88936 0.40094 1.12063 0.0
O103 O 0.89174 0.32246 1.06628 0.0
O104 O 0.93527 0.34884 1.03023 0.0
C105 C 0.83733 0.45525 0.99696 0.0
C106 C 0.77444 0.42772 0.97012 0.0
C107 C 0.79797 0.4555 0.94992 0.0
C108 C 0.82916 0.46908 0.96323 0.0
C109 C 0.81343 0.43039 1.02128 0.0
C110 C 0.78215 0.41696 1.00828 0.0
C111 C 0.86957 0.46071 0.99825 0.0
H112 H 0.95284 0.26196 1.11871 0.0
H113 H 0.92341 0.2725 1.0627 0.0
H114 H 0.94957 0.36126 1.12323 0.0
H115 H 0.9798 0.3514 0.17808 0.0
H116 H 0.79325 0.46469 0.92045 0.0
H117 H 0.84726 0.48819 0.94398 0.0
H118 H 0.81918 0.41928 1.04754 0.0
H119 H 0.76458 0.39617 1.02536 0.0
Tb120 Tb 0.53011 0.91442 0.36801 0.0
Eu121 Eu 0.46412 0.90198 0.35056 0.0
C122 C 0.48299 0.84648 0.34066 0.0
C123 C 0.51498 0.94314 0.27579 0.0
C124 C 0.60693 0.92743 0.40836 0.0
C125 C 0.61673 0.92478 0.48543 0.0
C126 C 0.59572 0.91758 0.45113 0.0
C127 C 0.63934 0.94351 0.39993 0.0
C128 C 0.66045 0.95094 0.43437 0.0
C129 C 0.64932 0.94221 0.4776 0.0
C130 C 0.58511 0.92267 0.37293 0.0
O131 O 0.535 0.95261 0.40613 0.0
O132 O 0.48962 0.95052 0.3833 0.0
O133 O 0.45871 0.89237 0.4251 0.0
O134 O 0.50942 0.90574 0.43945 0.0
C135 C 0.51637 0.96416 0.40528 0.0
O136 O 0.42755 0.8966 0.3052 0.0
O137 O 0.41618 0.88545 0.37368 0.0
O138 O 0.46675 0.85866 0.32349 0.0
O139 O 0.50471 0.86354 0.36855 0.0
O140 O 0.53078 0.93076 0.29577 0.0
O141 O 0.48935 0.93881 0.29603 0.0
C142 C 0.48015 0.89717 0.45462 0.0
O143 O 0.55979 0.89529 0.37184 0.0
O144 O 0.57891 0.94521 0.36689 0.0
C145 C 0.38055 0.85057 0.32187 0.0
C146 C 0.34917 0.79152 0.28136 0.0
C147 C 0.34772 0.81726 0.26358 0.0
C148 C 0.36333 0.84655 0.28371 0.0
C149 C 0.37874 0.8241 0.34255 0.0
C150 C 0.36294 0.79476 0.32262 0.0
C151 C 0.40516 0.88234 0.33421 0.0
H152 H 0.60735 0.91832 0.51845 0.0
H153 H 0.57074 0.90532 0.45824 0.0
H154 H 0.64829 0.95123 0.36697 0.0
H155 H 0.68542 0.96441 0.42745 0.0
H156 H 0.33753 0.81582 0.23172 0.0
H157 H 0.36443 0.86663 0.26722 0.0
H158 H 0.39174 0.82644 0.37217 0.0
H159 H 0.36399 0.77531 0.33757 0.0
Tb160 Tb 0.6192 0.53299 0.70967 0.0
Eu161 Eu 0.58041 0.46146 0.68374 0.0
C162 C 0.65581 0.49926 0.66884 0.0
C163 C 0.58487 0.51671 0.61278 0.0
C164 C 0.66256 0.61278 0.76242 0.0
C165 C 0.68451 0.66687 0.78519 0.0
C166 C 0.67472 0.64455 0.75201 0.0
C167 C 0.66005 0.60337 0.80636 0.0
C168 C 0.67005 0.62569 0.83955 0.0
C169 C 0.68248 0.65766 0.82924 0.0
C170 C 0.65433 0.59028 0.72676 0.0
O171 O 0.57646 0.51788 0.74666 0.0
O172 O 0.54407 0.47146 0.71231 0.0
O173 O 0.57987 0.45741 0.76055 0.0
O174 O 0.61132 0.50926 0.77803 0.0
C175 C 0.54939 0.49191 0.7434 0.0
O176 O 0.55159 0.42437 0.63735 0.0
O177 O 0.56412 0.41236 0.69906 0.0
O178 O 0.63064 0.47192 0.67536 0.0
O179 O 0.65458 0.52504 0.67535 0.0
O180 O 0.59679 0.5364 0.64639 0.0
O181 O 0.57988 0.48764 0.61861 0.0
C182 C 0.59329 0.47914 0.79145 0.0
O183 O 0.66239 0.56889 0.73177 0.0
O184 O 0.62635 0.57888 0.71027 0.0
C185 C 0.56781 0.38668 0.63618 0.0
C186 C 0.60281 0.37032 0.57958 0.0
C187 C 0.57235 0.36369 0.56828 0.0
C188 C 0.55502 0.37185 0.59636 0.0
C189 C 0.59681 0.39028 0.64948 0.0
C190 C 0.61407 0.38204 0.62149 0.0
C191 C 0.55373 0.40289 0.65974 0.0
H192 H 0.69397 0.69132 0.77641 0.0
H193 H 0.67692 0.65214 0.71814 0.0
H194 H 0.6506 0.57887 0.81495 0.0
H195 H 0.66761 0.61789 0.87333 0.0
H196 H 0.56301 0.35495 0.53607 0.0
H197 H 0.53275 0.36882 0.58546 0.0
H198 H 0.60732 0.40154 0.68014 0.0
H199 H 0.63726 0.38706 0.63132 0.0
Tb200 Tb 0.07736 0.57831 1.03979 0.0
Eu201 Eu 0.13078 0.56676 1.01367 0.0
C202 C 0.14822 0.63715 1.01669 0.0
C203 C 0.0706 0.55634 0.94045 0.0
C204 C 0.02987 0.61006 1.09097 0.0
C205 C 0.00245 0.63813 1.10934 0.0
C206 C 0.00767 0.619 1.08082 0.0
C207 C 0.04793 0.62161 0.12885 0.0
C208 C 0.04262 0.64056 0.15751 0.0
C209 C 0.01932 0.64849 0.1486 0.0
C210 C 0.03394 0.58886 1.06153 0.0
O211 O 0.06254 0.52871 1.0213 0.0
O212 O 0.10083 0.52779 1.05667 0.0
O213 O 0.12874 0.56035 1.09184 0.0
O214 O 0.09313 0.5757 1.10875 0.0
C215 C 0.07465 0.51224 1.03761 0.0
O216 O 0.14537 0.53977 0.97255 0.0
O217 O 0.17875 0.57571 1.01545 0.0
O218 O 0.1587 0.61786 1.02105 0.0
O219 O 0.11736 0.62625 1.01833 0.0
O220 O 0.05616 0.5591 0.9752 0.0
O221 O 0.10019 0.5615 0.94706 0.0
C222 C 0.11261 0.56609 1.12277 0.0
O223 O 0.05298 0.60245 1.02848 0.0
O224 O 0.03824 0.56723 1.07983 0.0
C225 C 0.19711 0.57192 0.94664 0.0
C226 C 0.24039 0.6027 0.87777 0.0
C227 C 0.23897 0.5765 0.89884 0.0
C228 C 0.21752 0.56129 0.93327 0.0
C229 C 0.1986 0.59807 0.92589 0.0
C230 C 0.22001 0.61332 0.89192 0.0
C231 C 0.17489 0.55691 0.98312 0.0
H232 H 0.9846 0.64406 1.10128 0.0
H233 H 0.99391 0.61065 1.05123 0.0
H234 H 0.0655 0.61527 0.13689 0.0
H235 H 0.05571 0.64759 0.18775 0.0
H236 H 0.25427 0.56771 0.88856 0.0
H237 H 0.21678 0.54123 0.94926 0.0
H238 H 0.18301 0.60662 0.93586 0.0
H239 H 0.21977 0.63284 0.87575 0.0
Tb240 Tb 0.92124 0.50176 0.54564 0.0
Eu241 Eu 0.8693 0.43544 0.5738 0.0
C242 C 0.8499 0.4882 0.57121 0.0
C243 C 0.92874 0.48589 0.64641 0.0
C244 C 0.96676 0.58064 0.4936 0.0
C245 C 0.94344 0.60735 0.45558 0.0
C246 C 0.94075 0.58435 0.4851 0.0
C247 C 0.99565 0.60077 0.4735 0.0
C248 C 0.99831 0.62357 0.44375 0.0
C249 C 0.97208 0.62673 0.4337 0.0
C250 C 0.96409 0.55569 0.52282 0.0
O251 O 0.9379 0.46809 0.56309 0.0
O252 O 0.89957 0.42857 0.52862 0.0
O253 O 0.86986 0.43232 0.49485 0.0
O254 O 0.9064 0.48278 0.47679 0.0
C255 C 0.92655 0.44003 0.54558 0.0
O256 O 0.85577 0.39356 0.61396 0.0
O257 O 0.82205 0.39542 0.57055 0.0
O258 O 0.84116 0.45887 0.57732 0.0
O259 O 0.87947 0.50859 0.55958 0.0
O260 O 0.94031 0.50558 0.61285 0.0
O261 O 0.90147 0.45877 0.63927 0.0
C262 C 0.88628 0.45382 0.46333 0.0
O263 O 0.9461 0.55 0.55721 0.0
O264 O 0.95954 0.52994 0.50403 0.0
C265 C 0.80371 0.37308 0.63922 0.0
C266 C 0.75844 0.36045 0.70519 0.0
C267 C 0.75891 0.33566 0.68286 0.0
C268 C 0.78132 0.34199 0.64976 0.0
C269 C 0.80339 0.39772 0.66168 0.0
C270 C 0.781 0.3915 0.69418 0.0
C271 C 0.82622 0.38066 0.60303 0.0
H272 H 0.92287 0.6093 0.4489 0.0
H273 H 0.91822 0.56906 0.50057 0.0
H274 H 0.01595 0.59824 0.47984 0.0
H275 H 0.02057 0.63753 0.42692 0.0
H276 H 0.74196 0.31152 0.6909 0.0
H277 H 0.7811 0.32271 0.63237 0.0
H278 H 0.82049 0.42189 0.65392 0.0
H279 H 0.78194 0.41114 0.71151 0.0
Tb280 Tb 0.37256 0.91035 0.87158 0.0
Eu281 Eu 0.41834 0.88361 0.8972 0.0
C282 C 0.34084 0.84141 0.91366 0.0
C283 C 0.40542 0.92838 0.96902 0.0
C284 C 0.33617 0.95483 0.81858 0.0
C285 C 0.32831 0.99884 0.80255 0.0
C286 C 0.33462 0.98121 0.83245 0.0
C287 C 0.33184 0.94656 0.77415 0.0
C288 C 0.32523 0.96401 0.74431 0.0
C289 C 0.32305 0.99009 0.75836 0.0
C290 C 0.33991 0.93525 0.85175 0.0
O291 O 0.42115 0.94667 0.87286 0.0
O292 O 0.44858 0.92413 0.85238 0.0
O293 O 0.4172 0.87885 0.82065 0.0
O294 O 0.3848 0.89841 0.80319 0.0
C295 C 0.44162 0.94618 0.84621 0.0
O296 O 0.45295 0.88166 0.94021 0.0
O297 O 0.43351 0.84961 0.88599 0.0
O298 O 0.36883 0.84396 0.9162 0.0
O299 O 0.33758 0.86433 0.89739 0.0
O300 O 0.3804 0.92194 0.94447 0.0
O301 O 0.42486 0.91874 0.9542 0.0
C302 C 0.40343 0.88698 0.78984 0.0
O303 O 0.33292 0.90692 0.84082 0.0
O304 O 0.36499 0.94876 0.87557 0.0
C305 C 0.43952 0.82868 0.95233 0.0
C306 C 0.41362 0.78044 1.01601 0.0
C307 C 0.441 0.80908 1.02487 0.0
C308 C 0.45383 0.83298 0.99328 0.0
C309 C 0.4138 0.79905 0.94221 0.0
C310 C 0.401 0.77521 0.97375 0.0
C311 C 0.44897 0.85577 0.9225 0.0
H312 H 0.32679 0.01885 0.81414 0.0
H313 H 0.33771 0.98784 0.86668 0.0
H314 H 0.3331 0.92642 0.76256 0.0
H315 H 0.3219 0.95718 0.71018 0.0
H316 H 0.45114 0.814 1.05729 0.0
H317 H 0.47376 0.85546 1.0018 0.0
H318 H 0.40233 0.79468 0.91076 0.0
H319 H 0.38014 0.7533 0.96583 0.0
Tb320 Tb 0.46451 0.38483 0.2146 0.0
Eu321 Eu 0.53354 0.43617 0.22994 0.0
C322 C 0.5086 0.362 0.25318 0.0
C323 C 0.48056 0.42806 0.30594 0.0
C324 C 0.38686 0.33455 0.16419 0.0
C325 C 0.34137 0.29935 1.1213 0.0
C326 C 0.36434 0.30405 0.15199 0.0
C327 C 0.38615 0.36028 0.14558 0.0
C328 C 0.36309 0.35561 1.11543 0.0
C329 C 0.34047 0.32513 1.10292 0.0
C330 C 0.41073 0.3395 0.19674 0.0
O331 O 0.45761 0.42233 0.19563 0.0
O332 O 0.50996 0.45874 0.1905 0.0
O333 O 0.53793 0.43829 0.15573 0.0
O334 O 0.48912 0.39627 0.14455 0.0
C335 C 0.48006 0.44911 0.18197 0.0
O336 O 0.56893 0.46938 0.275 0.0
O337 O 0.58266 0.46393 0.20986 0.0
O338 O 0.53248 0.38845 0.23824 0.0
O339 O 0.48111 0.35989 0.25557 0.0
O340 O 0.45985 0.40357 0.28202 0.0
O341 O 0.50976 0.44418 0.29079 0.0
C342 C 0.51719 0.41895 0.12774 0.0
O343 O 0.43683 0.3422 0.1816 0.0
O344 O 0.41598 0.36072 0.22596 0.0
C345 C 0.61685 0.46974 0.26761 0.0
C346 C 0.65323 0.44995 0.31437 0.0
C347 C 0.64918 0.47462 0.33011 0.0
C348 C 0.63117 0.48442 0.30687 0.0
C349 C 0.62326 0.44713 0.24982 0.0
C350 C 0.64145 0.43748 0.27288 0.0
C351 C 0.59228 0.47505 0.24884 0.0
H352 H 0.32431 0.27564 1.112 0.0
H353 H 0.3646 0.28394 0.16607 0.0
H354 H 0.40347 0.38403 0.15427 0.0
H355 H 0.36347 0.37596 1.101 0.0
H356 H 0.65757 0.48458 0.36215 0.0
H357 H 0.62664 0.50195 0.32112 0.0
H358 H 0.61272 0.43548 0.21938 0.0
H359 H 0.64453 0.4188 0.25956 0.0
Tb360 Tb 0.10144 0.46489 0.55069 0.0
Eu361 Eu 0.11001 0.53328 0.57055 0.0
C362 C 0.16815 0.51838 0.5852 0.0
C363 C 0.07489 0.47663 0.6478 0.0
C364 C 0.08338 0.38994 0.49656 0.0
C365 C 0.06073 0.33746 0.46675 0.0
C366 C 0.06897 0.3574 0.50285 0.0
C367 C 0.08964 0.40245 0.45398 0.0
C368 C 0.08172 0.38265 0.41803 0.0
C369 C 0.06716 0.34997 0.42403 0.0
C370 C 0.09241 0.41067 0.53451 0.0
O371 O 0.06685 0.47273 0.52011 0.0
O372 O 0.05786 0.49963 0.57012 0.0
O373 O 0.11146 0.53238 0.49352 0.0
O374 O 0.11172 0.48645 0.48098 0.0
C375 C 0.04682 0.47468 0.54565 0.0
O376 O 0.11895 0.57146 0.61479 0.0
O377 O 0.11375 0.57687 0.54563 0.0
O378 O 0.15841 0.53898 0.58569 0.0
O379 O 0.14957 0.48925 0.57375 0.0
O380 O 0.08007 0.45809 0.62053 0.0
O381 O 0.08484 0.50613 0.63504 0.0
C382 C 0.11297 0.51269 0.46495 0.0
O383 O 0.11959 0.43627 0.53138 0.0
O384 O 0.07098 0.41601 0.55081 0.0
C385 C 0.15556 0.61879 0.58319 0.0
C386 C 0.21837 0.65302 0.61011 0.0
C387 C 0.19504 0.65717 0.63108 0.0
C388 C 0.16381 0.64006 0.61773 0.0
C389 C 0.17946 0.61855 0.55786 0.0
C390 C 0.21072 0.63578 0.57103 0.0
C391 C 0.12385 0.59114 0.58298 0.0
H392 H 0.04932 0.31236 0.47217 0.0
H393 H 0.06403 0.34745 0.53563 0.0
H394 H 0.10055 0.42752 0.44849 0.0
H395 H 0.08619 0.3929 0.38545 0.0
H396 H 0.19992 0.67027 0.66125 0.0
H397 H 0.14576 0.64053 0.63778 0.0
H398 H 0.17373 0.6023 0.53095 0.0
H399 H 0.22823 0.63267 0.55357 0.0
Tb400 Tb 0.59769 0.08424 0.8677 0.0
Eu401 Eu 0.5558 0.11339 0.89313 0.0
C402 C 0.62964 0.15321 0.90561 0.0
C403 C 0.56378 0.06408 0.96486 0.0
C404 C 0.6496 0.05703 0.81384 0.0
C405 C 0.67877 0.03149 0.79157 0.0
C406 C 0.66608 0.04152 0.82455 0.0
C407 C 0.64582 0.06247 0.7698 0.0
C408 C 0.65866 0.0526 0.73678 0.0
C409 C 0.67529 0.03706 0.74737 0.0
C410 C 0.638 0.06856 0.84933 0.0
O411 O 0.55467 0.05261 0.83489 0.0
O412 O 0.52074 0.06735 0.86409 0.0
O413 O 0.55314 0.1151 0.81665 0.0
O414 O 0.58914 0.09993 0.79967 0.0
C415 C 0.52732 0.05124 0.8359 0.0
O416 O 0.52959 0.12259 0.94363 0.0
O417 O 0.53589 0.14353 0.87963 0.0
O418 O 0.60557 0.15491 0.89145 0.0
O419 O 0.62707 0.12545 0.90858 0.0
O420 O 0.57821 0.05835 0.93204 0.0
O421 O 0.55516 0.08561 0.95767 0.0
C422 C 0.56874 0.10903 0.78596 0.0
O423 O 0.64269 0.097 0.84475 0.0
O424 O 0.61019 0.04915 0.86533 0.0
C425 C 0.54494 0.17606 0.94092 0.0
C426 C 0.58713 0.22742 0.99172 0.0
C427 C 0.55756 0.20511 1.00892 0.0
C428 C 0.53666 0.17959 0.98369 0.0
C429 C 0.5726 0.20053 0.92192 0.0
C430 C 0.59345 0.22605 0.94711 0.0
C431 C 0.5291 0.14471 0.92061 0.0
H432 H 0.69146 0.01959 0.8006 0.0
H433 H 0.66931 0.03735 0.85852 0.0
H434 H 0.63309 0.07438 0.76102 0.0
H435 H 0.65505 0.0566 0.70292 0.0
H436 H 0.55193 0.20533 1.04326 0.0
H437 H 0.5155 0.1611 0.99902 0.0
H438 H 0.57964 0.19869 0.88885 0.0
H439 H 0.61582 0.24312 0.93281 0.0
Tb440 Tb 0.54224 0.63511 0.22113 0.0
Eu441 Eu 0.47743 0.57825 0.23252 0.0
C442 C 0.49154 0.64695 0.25963 0.0
C443 C 0.53009 0.5908 0.31002 0.0
C444 C 0.61084 0.70473 0.17209 0.0
C445 C 0.61864 0.71494 1.09395 0.0
C446 C 0.59856 0.70225 0.12998 0.0
C447 C 0.64346 0.72115 0.17787 0.0
C448 C 0.66364 0.73362 0.14165 0.0
C449 C 0.65137 0.73002 1.09924 0.0
C450 C 0.58998 0.68845 0.20953 0.0
O451 O 0.55467 0.60545 0.18757 0.0
O452 O 0.50807 0.55989 0.20091 0.0
O453 O 0.47642 0.57676 0.15803 0.0
O454 O 0.5199 0.62504 0.15034 0.0
C455 C 0.53692 0.57539 0.18374 0.0
O456 O 0.44214 0.54245 0.27622 0.0
O457 O 0.42967 0.54677 0.21016 0.0
O458 O 0.47227 0.6228 0.23593 0.0
O459 O 0.51783 0.64814 0.2696 0.0
O460 O 0.5508 0.61263 0.28206 0.0
O461 O 0.50005 0.57685 0.29905 0.0
C462 C 0.49525 0.59966 0.13154 0.0
O463 O 0.56113 0.68281 0.20638 0.0
O464 O 0.59119 0.66426 0.2247 0.0
C465 C 0.39459 0.54218 0.26678 0.0
C466 C 0.3688 0.57322 0.31371 0.0
C467 C 0.37044 0.54801 0.33298 0.0
C468 C 0.38326 0.53261 0.30963 0.0
C469 C 0.3883 0.56387 0.24545 0.0
C470 C 0.37542 0.57921 0.26875 0.0
C471 C 0.4192 0.53611 0.24941 0.0
H472 H 0.60843 0.71113 1.06162 0.0
H473 H 0.57346 0.68944 0.12456 0.0
H474 H 0.65331 0.72328 0.21019 0.0
H475 H 0.68876 0.74506 0.14657 0.0
H476 H 0.36551 0.54267 0.36757 0.0
H477 H 0.38757 0.51578 0.32669 0.0
H478 H 0.39626 0.57149 0.21212 0.0
H479 H 0.37381 0.59806 0.2528 0.0
H480 H 0.45604 0.1759 0.3551 0.0
H481 H 0.55706 0.34729 0.24023 0.0
H482 H 0.54332 0.20186 0.28826 0.0
H483 H 0.46459 0.30944 0.2972 0.0
H484 H 0.55593 0.29761 0.25946 0.0
H485 H 0.46211 0.22667 0.3365 0.0
C486 C 0.4767 0.1922 0.33652 0.0
C487 C 0.4991 0.18374 0.32349 0.0
C488 C 0.53596 0.30029 0.26785 0.0
C489 C 0.50635 0.24387 0.30142 0.0
C490 C 0.53665 0.32888 0.25702 0.0
C491 C 0.51088 0.3332 0.26687 0.0
C492 C 0.50939 0.27557 0.2891 0.0
C493 C 0.48515 0.30787 0.28852 0.0
C494 C 0.48013 0.2216 0.32573 0.0
C495 C 0.52525 0.20679 0.29927 0.0
N496 N 0.48516 0.28075 0.29865 0.0
N497 N 0.52811 0.23553 0.28912 0.0
H498 H 0.32613 0.53142 0.73022 0.0
H499 H 0.20886 0.50671 0.53875 0.0
H500 H 0.35878 0.54821 0.59615 0.0
H501 H 0.20293 0.54914 0.65901 0.0
H502 H 0.26067 0.51549 0.56052 0.0
H503 H 0.2783 0.53172 0.70739 0.0
C504 C 0.3234 0.53537 0.69599 0.0
C505 C 0.34688 0.53994 0.6652 0.0
C506 C 0.24825 0.5232 0.58201 0.0
C507 C 0.29121 0.5393 0.63851 0.0
C508 C 0.2186 0.51822 0.56959 0.0
C509 C 0.2014 0.52745 0.59677 0.0
C510 C 0.26075 0.53651 0.62289 0.0
C511 C 0.21532 0.54194 0.63667 0.0
C512 C 0.29603 0.5356 0.68301 0.0
C513 C 0.34166 0.54483 0.62123 0.0
N514 N 0.24379 0.54551 0.64881 0.0
N515 N 0.31433 0.54382 0.60919 0.0
H516 H 0.78323 0.34625 0.965 0.0
H517 H 0.68186 0.15701 0.94449 0.0
H518 H 0.81511 0.28239 1.00292 0.0
H519 H 0.64619 0.21627 0.89937 0.0
H520 H 0.73008 0.20362 0.96723 0.0
H521 H 0.7327 0.30067 0.94237 0.0
C522 C 0.77968 0.32282 0.96886 0.0
C523 C 0.80389 0.31861 0.98614 0.0
C524 C 0.7118 0.20665 0.95241 0.0
C525 C 0.74583 0.26593 0.95996 0.0
C526 C 0.68402 0.17981 0.93931 0.0
C527 C 0.65943 0.18226 0.91991 0.0
C528 C 0.7157 0.23682 0.94626 0.0
C529 C 0.66422 0.2129 0.91426 0.0
C530 C 0.75079 0.29672 0.95575 0.0
C531 C 0.79763 0.28737 0.98982 0.0
N532 N 0.6916 0.23879 0.92725 0.0
N533 N 0.76963 0.26268 0.97702 0.0
H534 H 0.5235 0.69279 0.32053 0.0
H535 H 0.44455 0.80133 0.27742 0.0
H536 H 0.44764 0.66397 0.22934 0.0
H537 H 0.51394 0.81799 0.37521 0.0
H538 H 0.4435 0.75175 0.25816 0.0
H539 H 0.51867 0.73831 0.33953 0.0
C540 C 0.50559 0.69579 0.30444 0.0
C541 C 0.48601 0.67384 0.27308 0.0
C542 C 0.45885 0.76624 0.28397 0.0
C543 C 0.48047 0.72776 0.29483 0.0
C544 C 0.45939 0.79471 0.29514 0.0
C545 C 0.47936 0.81457 0.32829 0.0
C546 C 0.47854 0.75727 0.30581 0.0
C547 C 0.49807 0.80413 0.34947 0.0
C548 C 0.50285 0.72217 0.31541 0.0
C549 C 0.46333 0.67984 0.25379 0.0
N550 N 0.49723 0.77685 0.3379 0.0
N551 N 0.46134 0.70607 0.26468 0.0
H552 H 0.7171 0.55028 0.66488 0.0
H553 H 0.78859 0.45135 0.55083 0.0
H554 H 0.66416 0.45173 0.63532 0.0
H555 H 0.84989 0.54109 0.60898 0.0
H556 H 0.74335 0.45564 0.57319 0.0
H557 H 0.76527 0.55121 0.63858 0.0
C558 C 0.71541 0.52881 0.65284 0.0
C559 C 0.686 0.50081 0.65267 0.0
C560 C 0.76656 0.47467 0.58093 0.0
C561 C 0.74171 0.50191 0.62166 0.0
C562 C 0.79276 0.4724 0.56777 0.0
C563 C 0.82371 0.49589 0.57766 0.0
C564 C 0.77044 0.5008 0.60461 0.0
C565 C 0.82682 0.52246 0.5999 0.0
C566 C 0.74312 0.52941 0.63784 0.0
C567 C 0.68589 0.47391 0.63654 0.0
N568 N 0.80066 0.5241 0.61275 0.0
N569 N 0.71291 0.47522 0.62172 0.0
H570 H 0.33651 0.7911 0.96132 0.0
H571 H 0.14667 0.68466 0.96579 0.0
H572 H 0.2779 0.82362 0.90381 0.0
H573 H 0.20889 0.66648 1.04338 0.0
H574 H 0.19267 0.73483 0.94122 0.0
H575 H 0.28917 0.74427 0.98841 0.0
C576 C 0.31377 0.78851 0.95417 0.0
C577 C 0.31171 0.81186 0.93001 0.0
C578 C 0.19612 0.71994 0.96403 0.0
C579 C 0.25639 0.75726 0.96131 0.0
C580 C 0.16966 0.69135 0.9785 0.0
C581 C 0.17342 0.67088 1.00706 0.0
C582 C 0.22675 0.72819 0.97779 0.0
C583 C 0.20435 0.68103 1.02135 0.0
C584 C 0.28652 0.7616 0.96988 0.0
C585 C 0.28107 0.8066 0.92226 0.0
N586 N 0.22938 0.70836 1.00648 0.0
N587 N 0.25489 0.78008 0.93754 0.0
H588 H 0.58741 0.2608 1.06434 0.0
H589 H 0.66194 0.18324 0.17141 0.0
H590 H 0.64597 0.23505 0.99002 0.0
H591 H 0.65236 0.25379 0.2428 0.0
H592 H 0.66956 0.21272 1.10454 0.0
H593 H 0.62127 0.27084 0.12754 0.0
C594 C 0.60808 0.25844 1.06078 0.0
C595 C 0.6132 0.24597 1.02236 0.0
C596 C 0.66672 0.22236 0.13498 0.0
C597 C 0.65155 0.25666 1.09459 0.0
C598 C 0.66249 0.20547 0.17361 0.0
C599 C 0.65463 0.21499 0.21275 0.0
C600 C 0.66194 0.24825 0.13528 0.0
C601 C 0.6563 0.24442 0.2129 0.0
C602 C 0.62753 0.26427 1.09684 0.0
C603 C 0.64073 0.24405 1.01919 0.0
N604 N 0.65835 0.25934 0.17443 0.0
N605 N 0.65826 0.24818 1.05534 0.0
H606 H 0.33279 0.56582 0.38735 0.0
H607 H 0.48389 0.69517 0.48116 0.0
H608 H 0.40697 0.63661 0.30678 0.0
H609 H 0.39954 0.64402 0.55911 0.0
H610 H 0.45174 0.68484 0.41597 0.0
H611 H 0.34967 0.60299 0.44774 0.0
C612 C 0.3519 0.58953 0.38186 0.0
C613 C 0.36921 0.59769 0.34252 0.0
C614 C 0.44011 0.67671 0.44749 0.0
C615 C 0.38922 0.64007 0.41163 0.0
C616 C 0.45855 0.68264 0.48468 0.0
C617 C 0.44434 0.66976 0.52525 0.0
C618 C 0.40738 0.65686 0.45087 0.0
C619 C 0.41144 0.65406 0.52828 0.0
C620 C 0.36161 0.61082 0.41637 0.0
C621 C 0.39327 0.62898 0.3368 0.0
N622 N 0.39405 0.64718 0.49134 0.0
N623 N 0.40326 0.64871 0.37146 0.0
H624 H 0.73826 0.44223 0.91608 0.0
H625 H 0.74279 0.31795 0.77242 0.0
H626 H 0.74507 0.36342 0.96479 0.0
H627 H 0.72525 0.39023 0.72414 0.0
H628 H 0.72261 0.32147 0.8441 0.0
H629 H 0.71178 0.4119 0.8513 0.0
C630 C 0.73341 0.41824 0.9139 0.0
C631 C 0.74599 0.40625 0.94456 0.0
C632 C 0.72228 0.33599 0.81758 0.0
C633 C 0.71607 0.37154 0.87031 0.0
C634 C 0.7337 0.33384 0.77646 0.0
C635 C 0.73693 0.35478 0.74285 0.0
C636 C 0.71478 0.35973 0.82519 0.0
C637 C 0.7244 0.37459 0.74984 0.0
C638 C 0.71824 0.40085 0.87678 0.0
C639 C 0.73733 0.37442 0.94112 0.0
N640 N 0.71477 0.37729 0.79059 0.0
N641 N 0.724 0.35857 0.90379 0.0
H642 H 0.4352 0.76069 1.08521 0.0
H643 H 0.30265 0.76051 0.2202 0.0
H644 H 0.35042 0.7521 1.03095 0.0
H645 H 0.38458 0.76289 0.27481 0.0
H646 H 0.30902 0.73592 0.1546 0.0
H647 H 0.40779 0.7407 0.15515 0.0
C648 C 0.41058 0.75378 1.08769 0.0
C649 C 0.39541 0.75909 1.05271 0.0
C650 C 0.32505 0.7409 0.18152 0.0
C651 C 0.36406 0.73685 0.13273 0.0
C652 C 0.32138 0.75497 0.21905 0.0
C653 C 0.34401 0.76526 0.25215 0.0
C654 C 0.35183 0.73772 0.17697 0.0
C655 C 0.36704 0.75631 0.24964 0.0
C656 C 0.39485 0.74226 0.1276 0.0
C657 C 0.36326 0.74891 1.05726 0.0
N658 N 0.371 0.74403 0.21202 0.0
N659 N 0.34891 0.73915 1.09694 0.0
H660 H 0.70052 0.47499 0.37553 0.0
H661 H 0.59175 0.32832 0.51315 0.0
H662 H 0.62881 0.38663 0.32382 0.0
H663 H 0.66367 0.41628 0.56546 0.0
H664 H 0.61991 0.34176 0.44311 0.0
H665 H 0.70265 0.44751 0.44103 0.0
C666 C 0.68588 0.44971 0.37734 0.0
C667 C 0.66352 0.43333 0.34494 0.0
C668 C 0.63009 0.35773 0.47031 0.0
C669 C 0.66548 0.40179 0.41995 0.0
C670 C 0.61396 0.35001 0.51033 0.0
C671 C 0.62464 0.37176 0.5446 0.0
C672 C 0.6566 0.38766 0.46443 0.0
C673 C 0.65407 0.39905 0.53965 0.0
C674 C 0.68715 0.43397 0.41474 0.0
C675 C 0.64598 0.40046 0.34829 0.0
N676 N 0.66852 0.4067 0.49983 0.0
N677 N 0.64665 0.3859 0.38575 0.0
H678 H 0.25087 0.57315 0.80903 0.0
H679 H 0.25644 0.70272 0.66363 0.0
H680 H 0.27486 0.66514 0.85551 0.0
H681 H 0.24337 0.61437 0.61646 0.0
H682 H 0.28352 0.6979 0.72734 0.0
H683 H 0.26829 0.59498 0.73578 0.0
C684 C 0.26076 0.59816 0.80421 0.0
C685 C 0.26014 0.61711 0.83804 0.0
C686 C 0.27566 0.68005 0.70231 0.0
C687 C 0.2791 0.64211 0.75382 0.0
C688 C 0.26021 0.68286 0.66582 0.0
C689 C 0.24622 0.65822 0.63568 0.0
C690 C 0.27656 0.65218 0.70886 0.0
C691 C 0.2529 0.63363 0.63937 0.0
C692 C 0.27059 0.61067 0.76215 0.0
C693 C 0.27361 0.64942 0.82982 0.0
N694 N 0.26662 0.63069 0.67612 0.0
N695 N 0.28163 0.66075 0.78827 0.0
H696 H 0.45861 0.95312 1.02455 0.0
H697 H 0.4009 0.02771 0.22294 0.0
H698 H 0.36911 0.94869 1.01962 0.0
H699 H 0.49445 0.04271 0.21091 0.0
H700 H 0.38728 0.9979 0.15306 0.0
H701 H 0.47 0.983 1.09335 0.0
C702 C 0.44099 0.9581 1.03747 0.0
C703 C 0.41244 0.94731 1.01402 0.0
C704 C 0.4109 0.00764 0.16541 0.0
C705 C 0.42605 0.9833 1.09703 0.0
C706 C 0.4189 0.02507 0.20612 0.0
C707 C 0.44937 0.03855 0.22509 0.0
C708 C 0.43316 0.00272 0.14163 0.0
C709 C 0.47064 0.03319 0.19949 0.0
C710 C 0.44775 0.97565 1.0776 0.0
C711 C 0.39146 0.95573 1.03482 0.0
N712 N 0.4623 0.01626 0.1606 0.0
N713 N 0.3985 0.97258 1.07399 0.0
H714 H 0.51801 0.47965 0.36025 0.0
H715 H 0.39361 0.44973 0.56271 0.0
H716 H 0.42348 0.40195 0.35892 0.0
H717 H 0.48494 0.53194 0.55225 0.0
H718 H 0.40355 0.4311 0.49215 0.0
H719 H 0.50645 0.49686 0.43012 0.0
C720 C 0.49462 0.46587 0.37404 0.0
C721 C 0.47206 0.43869 0.3512 0.0
C722 C 0.42159 0.45327 0.50495 0.0
C723 C 0.45806 0.45965 0.43567 0.0
C724 C 0.41585 0.4642 0.54613 0.0
C725 C 0.43811 0.49314 0.56569 0.0
C726 C 0.45029 0.47072 0.48113 0.0
C727 C 0.46643 0.50973 0.54026 0.0
C728 C 0.48796 0.47612 0.41486 0.0
C729 C 0.44228 0.42291 0.37343 0.0
N730 N 0.47144 0.49852 0.50078 0.0
N731 N 0.43646 0.43335 0.41323 0.0
H732 H 0.05637 0.50768 0.70835 0.0
H733 H 0.95361 0.36935 0.89142 0.0
H734 H 0.04402 0.41547 0.69201 0.0
H735 H 0.95099 0.45504 0.87965 0.0
H736 H 0.98784 0.38458 0.82497 0.0
H737 H 0.02305 0.48869 0.77418 0.0
C738 C 0.04689 0.48339 0.71796 0.0
C739 C 0.05438 0.46388 0.69219 0.0
C740 C 0.97981 0.40019 0.83649 0.0
C741 C 0.01274 0.44103 0.77153 0.0
C742 C 0.9597 0.39129 0.87522 0.0
C743 C 0.94789 0.41028 0.89324 0.0
C744 C 0.98977 0.4291 0.81385 0.0
C745 C 0.95827 0.43872 0.8687 0.0
C746 C 0.02697 0.47239 0.75623 0.0
C747 C 0.04002 0.43236 0.70925 0.0
N748 N 0.97804 0.44691 0.83195 0.0
N749 N 0.02046 0.42231 0.74665 0.0
H750 H 0.4992 0.98651 0.24094 0.0
H751 H 0.58099 0.0197 0.99508 0.0
H752 H 0.55291 0.94341 0.20144 0.0
H753 H 0.53164 0.0652 1.04352 0.0
H754 H 0.57145 0.99187 1.06626 0.0
H755 H 0.51254 0.01492 0.17014 0.0
C756 C 0.51353 0.98242 0.21774 0.0
C757 C 0.52457 0.96157 0.22973 0.0
C758 C 0.56259 0.00788 1.06177 0.0
C759 C 0.53882 0.99475 0.14338 0.0
C760 C 0.56808 0.02417 1.0202 0.0
C761 C 0.55743 0.04582 1.01085 0.0
C762 C 0.54588 0.0123 1.09668 0.0
C763 C 0.54079 0.04936 1.04706 0.0
C764 C 0.52084 0.99883 0.17636 0.0
C765 C 0.54342 0.95878 0.19583 0.0
N766 N 0.53576 0.03326 1.08685 0.0
N767 N 0.54946 0.9745 0.15533 0.0
H768 H 0.55953 0.55669 0.59647 0.0
H769 H 0.58134 0.58077 0.33093 0.0
H770 H 0.59089 0.50297 0.52286 0.0
H771 H 0.5012 0.57682 0.39457 0.0
H772 H 0.59361 0.56264 0.40024 0.0
H773 H 0.54667 0.5736 0.52681 0.0
C774 C 0.56405 0.54834 0.56601 0.0
C775 C 0.5766 0.52772 0.56778 0.0
C776 C 0.57342 0.56592 0.39952 0.0
C777 C 0.56229 0.54894 0.48391 0.0
C778 C 0.56632 0.57665 0.35922 0.0
C779 C 0.5399 0.58109 0.35481 0.0
C780 C 0.555 0.56017 0.43833 0.0
C781 C 0.52185 0.57431 0.39451 0.0
C782 C 0.55649 0.55821 0.52544 0.0
C783 C 0.58128 0.5185 0.52515 0.0
N784 N 0.52984 0.56501 0.4334 0.0
N785 N 0.57476 0.52927 0.4863 0.0
H786 H 0.08961 0.56698 0.84853 0.0
H787 H 0.99139 0.53282 0.66011 0.0
H788 H 0.00489 0.52122 0.92579 0.0
H789 H 0.91544 0.46284 0.73811 0.0
H790 H 0.02454 0.55021 0.72523 0.0
H791 H 0.05732 0.55242 0.78161 0.0
C792 C 0.06432 0.55373 0.85219 0.0
C793 C 0.05117 0.54584 0.8953 0.0
C794 C 0.00073 0.53102 0.72902 0.0
C795 C 0.01163 0.5279 0.81431 0.0
C796 C 0.98109 0.52073 0.69072 0.0
C797 C 0.94923 0.4956 0.69087 0.0
C798 C 0.98969 0.51709 0.77108 0.0
C799 C 0.93922 0.48204 0.73391 0.0
C800 C 0.0453 0.54547 0.81295 0.0
C801 C 0.01735 0.52848 0.89476 0.0
N802 N 0.95875 0.49281 0.77089 0.0
N803 N -0.00044 0.52018 0.85636 0.0
H804 H 0.44212 0.96707 0.39312 0.0
H805 H 0.51946 0.95413 0.49222 0.0
H806 H 0.43475 0.03959 0.4607 0.0
H807 H 0.52655 0.02541 0.40393 0.0
H808 H 0.48985 0.96746 0.54401 0.0
H809 H 0.44621 0.94674 0.46441 0.0
C810 C 0.44146 0.97887 0.42268 0.0
C811 C 0.44331 0.00814 0.42071 0.0
C812 C 0.49989 0.9818 0.51487 0.0
C813 C 0.45561 0.98935 0.49836 0.0
C814 C 0.51554 0.9733 0.48439 0.0
C815 C 0.52008 0.98529 0.44145 0.0
C816 C 0.48994 0.00253 0.50089 0.0
C817 C 0.51949 0.01301 0.43498 0.0
C818 C 0.44355 0.96731 0.46384 0.0
C819 C 0.4396 0.02056 0.46034 0.0
N820 N 0.50543 0.02176 0.46597 0.0
N821 N 0.44678 0.0115 0.49864 0.0
H822 H 0.43501 0.4524 0.74936 0.0
H823 H 0.50229 0.43195 0.76466 0.0
H824 H 0.49056 0.5436 0.80744 0.0
H825 H 0.56151 0.52208 0.82284 0.0
H826 H 0.47177 0.41559 0.83339 0.0
H827 H 0.43261 0.42855 0.81973 0.0
C828 C 0.44683 0.46756 0.77671 0.0
C829 C 0.4649 0.50022 0.77121 0.0
C830 C 0.49113 0.4394 0.83021 0.0
C831 C 0.46835 0.47228 0.84809 0.0
C832 C 0.50761 0.44901 0.7903 0.0
C833 C 0.53057 0.48079 0.78429 0.0
C834 C 0.49292 0.46343 0.85725 0.0
C835 C 0.54009 0.49958 0.82231 0.0
C836 C 0.44525 0.45391 0.81735 0.0
C837 C 0.47892 0.51825 0.80857 0.0
N838 N 0.52205 0.48928 0.85933 0.0
N839 N 0.47987 0.50392 0.84615 0.0
H840 H 0.98487 0.45581 0.95849 0.0
H841 H 0.07856 0.46337 1.07308 0.0
H842 H 0.98111 0.39891 1.06867 0.0
H843 H 0.08188 0.50578 0.94876 0.0
H844 H 0.0714 0.41659 1.03305 0.0
H845 H 0.01918 0.44137 0.9207 0.0
C846 C 0.99173 0.44073 0.97519 0.0
C847 C 0.9806 0.42922 1.01735 0.0
C848 C 0.07306 0.43629 1.01479 0.0
C849 C 0.02474 0.41741 0.97721 0.0
C850 C 0.07566 0.46216 1.03783 0.0
C851 C 0.07256 0.48528 1.01447 0.0
C852 C 0.05979 0.43213 0.9729 0.0
C853 C 0.07635 0.48552 0.96852 0.0
C854 C 0.01077 0.43172 0.9532 0.0
C855 C 0.98997 0.40934 1.0368 0.0
N856 N 0.07279 0.45912 0.94865 0.0
N857 N 0.01152 0.40405 1.01669 0.0
H858 H 0.0166 0.46471 0.62465 0.0
H859 H 0.92565 0.39138 0.50321 0.0
H860 H 0.02288 0.41613 0.51087 0.0
H861 H 0.92125 0.42278 0.63251 0.0
H862 H 0.93101 0.34864 0.5368 0.0
H863 H 0.98225 0.41471 0.65905 0.0
C864 C 0.01038 0.44357 0.60647 0.0
C865 C 0.02184 0.4449 0.56401 0.0
C866 C 0.92948 0.36558 0.55777 0.0
C867 C 0.97642 0.38803 0.5996 0.0
C868 C 0.92818 0.39077 0.5384 0.0
C869 C 0.93092 0.41536 0.56517 0.0
C870 C 0.9412 0.37074 0.60066 0.0
C871 C 0.92669 0.40904 0.61059 0.0
C872 C 0.99108 0.41475 0.62638 0.0
C873 C 0.01309 0.41649 0.54263 0.0
N874 N 0.92918 0.38458 0.62713 0.0
N875 N 0.99059 0.38905 0.56046 0.0
H876 H 0.40412 0.96613 0.80791 0.0
H877 H 0.54374 0.03416 0.7588 0.0
H878 H 0.47629 0.94379 0.77664 0.0
H879 H 0.47658 0.05744 0.8122 0.0
H880 H 0.51411 0.01877 0.69115 0.0
H881 H 0.40936 0.98737 0.73429 0.0
C882 C 0.42189 0.96669 0.78627 0.0
C883 C 0.44347 0.95777 0.80097 0.0
C884 C 0.50584 0.0274 0.71779 0.0
C885 C 0.45165 0.98553 0.7201 0.0
C886 C 0.5219 0.0345 0.75743 0.0
C887 C 0.50946 0.04172 0.79461 0.0
C888 C 0.47437 0.0201 0.71983 0.0
C889 C 0.48402 0.04666 0.78758 0.0
C890 C 0.42378 0.9773 0.74326 0.0
C891 C 0.46277 0.95508 0.76921 0.0
N892 N 0.46759 0.03658 0.74973 0.0
N893 N 0.46522 0.96767 0.72867 0.0
H894 H 0.54673 0.59695 1.1003 0.0
H895 H 0.46535 0.49679 0.17486 0.0
H896 H 0.55044 0.52642 0.17932 0.0
H897 H 0.47065 0.42665 1.09794 0.0
H898 H 0.47651 0.52818 1.10818 0.0
H899 H 0.52801 0.56084 1.03875 0.0
C900 C 0.54457 0.5741 1.10422 0.0
C901 C 0.5449 0.56221 0.1461 0.0
C902 C 0.47515 0.50566 1.10552 0.0
C903 C 0.52593 0.52256 1.07652 0.0
C904 C 0.46925 0.48813 0.14423 0.0
C905 C 0.47265 0.46163 0.14309 0.0
C906 C 0.49198 0.50025 1.07195 0.0
C907 C 0.47435 0.45003 1.10169 0.0
C908 C 0.53514 0.55401 1.0684 0.0
C909 C 0.54627 0.53464 0.14852 0.0
N910 N 0.48494 0.47001 1.06678 0.0
N911 N 0.538 0.51592 1.11267 0.0
H912 H 0.27658 0.96763 0.69754 0.0
H913 H 0.36261 0.12607 0.56413 0.0
H914 H 0.35289 0.05381 0.74731 0.0
H915 H 0.2912 0.03715 0.51319 0.0
H916 H 0.3469 0.10499 0.63841 0.0
H917 H 0.27006 0.99713 0.63805 0.0
C918 C 0.29174 0.99286 0.6961 0.0
C919 C 0.31583 0.00826 0.72654 0.0
C920 C 0.33411 0.09044 0.61092 0.0
C921 C 0.30872 0.04219 0.65856 0.0
C922 C 0.34307 0.10245 0.56845 0.0
C923 C 0.32923 0.08296 0.53213 0.0
C924 C 0.31116 0.05879 0.61689 0.0
C925 C 0.30315 0.05303 0.53985 0.0
C926 C 0.2879 0.00974 0.66236 0.0
C927 C 0.33429 0.04104 0.72407 0.0
N928 N 0.29555 0.04161 0.58133 0.0
N929 N 0.3308 0.05688 0.69002 0.0
H930 H 0.30506 0.35364 1.09577 0.0
H931 H 0.29246 0.32419 0.84263 0.0
H932 H 0.32477 0.28749 1.0309 0.0
H933 H 0.27091 0.38952 0.90651 0.0
H934 H 0.28834 0.29908 0.91283 0.0
H935 H 0.27792 0.35597 1.03033 0.0
C936 C 0.30312 0.33914 1.06797 0.0
C937 C 0.31783 0.32096 1.06824 0.0
C938 C 0.28379 0.31846 0.91148 0.0
C939 C 0.28714 0.3237 0.99316 0.0
C940 C 0.28583 0.33272 0.87112 0.0
C941 C 0.28294 0.35971 0.86869 0.0
C942 C 0.27935 0.33155 0.94979 0.0
C943 C 0.27444 0.3695 0.90704 0.0
C944 C 0.28755 0.34039 1.03066 0.0
C945 C 0.31402 0.30206 1.03186 0.0
N946 N 0.27373 0.35593 0.9462 0.0
N947 N 0.29964 0.30446 0.99539 0.0
H948 H 0.94819 0.25578 0.2075 0.0
H949 H 0.00977 0.29809 0.41136 0.0
H950 H 0.03005 0.34379 0.17287 0.0
H951 H 0.09966 0.35562 0.34835 0.0
H952 H 0.98774 0.27454 0.34107 0.0
H953 H 0.97519 0.25292 0.27319 0.0
C954 C 0.97209 0.27415 0.21342 0.0
C955 C 0.98676 0.30049 0.18574 0.0
C956 C 0.01259 0.2913 0.3426 0.0
C957 C 0.01729 0.29792 0.26073 0.0
C958 C 0.02517 0.30485 0.38294 0.0
C959 C 0.05633 0.3294 0.3853 0.0
C960 C 0.03138 0.30264 0.30455 0.0
C961 C 0.07524 0.33737 0.34753 0.0
C962 C 0.98736 0.2727 0.25105 0.0
C963 C 0.01776 0.32352 0.19422 0.0
N964 N 0.06226 0.3246 0.30846 0.0
N965 N 0.03187 0.32191 0.23133 0.0
H966 H 0.67073 0.97943 0.74204 0.0
H967 H 0.69772 0.00211 0.48763 0.0
H968 H 0.70695 0.06745 0.67252 0.0
H969 H 0.64923 0.91241 0.55386 0.0
H970 H 0.72008 0.02707 0.55724 0.0
H971 H 0.68095 0.95669 0.67729 0.0
C972 C 0.68157 0.9942 0.7135 0.0
C973 C 0.68719 0.02509 0.71208 0.0
C974 C 0.70523 0.00181 0.55642 0.0
C975 C 0.69854 -0.00084 0.6379 0.0
C976 C 0.69265 0.98746 0.51654 0.0
C977 C 0.67074 0.95526 0.5153 0.0
C978 C 0.69546 0.98384 0.59517 0.0
C979 C 0.66519 0.9375 0.55377 0.0
C980 C 0.68733 0.98119 0.67652 0.0
C981 C 0.70135 0.04321 0.67439 0.0
N982 N 0.6768 0.95213 0.59245 0.0
N983 N 0.70601 0.02981 0.63847 0.0
H984 H 0.65001 0.75834 1.02237 0.0
H985 H 0.71743 0.66349 0.9016 0.0
H986 H 0.69816 0.71632 1.08643 0.0
H987 H 0.66857 0.70471 0.83742 0.0
H988 H 0.72426 0.69573 0.96583 0.0
H989 H 0.67099 0.75326 0.95197 0.0
C990 C 0.66573 0.74885 1.0217 0.0
C991 C 0.67166 0.73691 1.06001 0.0
C992 C 0.71257 0.69821 0.93741 0.0
C993 C 0.69522 0.7305 0.97981 0.0
C994 C 0.70851 0.67967 0.9009 0.0
C995 C 0.69172 0.68091 0.86473 0.0
C996 C 0.69925 0.71771 0.93798 0.0
C997 C 0.68138 0.70282 0.86488 0.0
C998 C 0.67767 0.74591 0.98154 0.0
C999 C 0.69268 0.7255 1.0576 0.0
N1000 N 0.68473 0.71991 0.90136 0.0
N1001 N 0.70308 0.72182 1.01797 0.0
H1002 H 0.95975 0.63484 0.17127 0.0
H1003 H 0.02071 0.68475 0.40837 0.0
H1004 H 0.05679 0.69568 0.20547 0.0
H1005 H 0.92716 0.61382 0.37184 0.0
H1006 H 0.02918 0.70664 0.33427 0.0
H1007 H 0.94383 0.64633 0.24109 0.0
C1008 C 0.97779 0.65147 0.19274 0.0
C1009 C 0.00976 0.66327 0.18323 0.0
C1010 C 0.00646 0.68688 0.34294 0.0
C1011 C 0.99155 0.67558 0.26405 0.0
C1012 C 0.00166 0.67424 0.38518 0.0
C1013 C 0.9737 0.64652 0.39579 0.0
C1014 C 0.9832 0.67151 0.31124 0.0
C1015 C 0.94938 0.63478 0.36507 0.0
C1016 C 0.96862 0.65787 0.23291 0.0
C1017 C 0.03189 0.68491 0.21239 0.0
N1018 N 0.955 0.64683 0.32383 0.0
N1019 N 0.02241 0.68965 0.25212 0.0
H1020 H 0.46581 0.09964 0.53097 0.0
H1021 H 0.59388 0.09882 0.70587 0.0
H1022 H 0.54889 0.09835 0.4895 0.0
H1023 H 0.52063 0.11691 0.7469 0.0
H1024 H 0.57658 0.09596 0.62896 0.0
H1025 H 0.48292 0.10296 0.60828 0.0
C1026 C 0.48765 0.10005 0.53733 0.0
C1027 C 0.50552 0.0989 0.50102 0.0
C1028 C 0.56418 0.10073 0.65451 0.0
C1029 C 0.52601 0.10246 0.5938 0.0
C1030 C 0.57435 0.10255 0.69941 0.0
C1031 C 0.55958 0.1087 0.73545 0.0
C1032 C 0.53817 0.10456 0.64311 0.0
C1033 C 0.53376 0.11256 0.72203 0.0
C1034 C 0.49762 0.10199 0.58247 0.0
C1035 C 0.5337 0.0994 0.51445 0.0
N1036 N 0.52422 0.11034 0.6785 0.0
N1037 N 0.54258 0.10098 0.55815 0.0
H1038 H 0.40583 0.50697 0.87227 0.0
H1039 H 0.52774 0.63522 1.05232 0.0
H1040 H 0.47812 0.59908 0.83271 0.0
H1041 H 0.44329 0.55064 1.08914 0.0
H1042 H 0.51295 0.62249 0.97399 0.0
H1043 H 0.42116 0.52136 0.94965 0.0
C1044 C 0.42481 0.53037 0.87913 0.0
C1045 C 0.43988 0.55151 0.84335 0.0
C1046 C 0.4975 0.60654 0.99906 0.0
C1047 C 0.45895 0.56878 0.9364 0.0
C1048 C 0.50607 0.61401 1.0448 0.0
C1049 C 0.48727 0.59436 1.08015 0.0
C1050 C 0.46962 0.57868 0.98622 0.0
C1051 C 0.45943 0.5671 1.06511 0.0
C1052 C 0.43381 0.53871 0.92434 0.0
C1053 C 0.46486 0.5814 0.85735 0.0
N1054 N 0.45197 0.56034 1.02101 0.0
N1055 N 0.47332 0.58874 0.90124 0.0
H1056 H 0.89782 0.45566 0.16357 0.0
H1057 H 0.86216 0.39427 0.42077 0.0
H1058 H 0.87847 0.36307 0.19908 0.0
H1059 H 0.90827 0.49199 0.38573 0.0
H1060 H 0.86296 0.38133 0.34239 0.0
H1061 H 0.89698 0.46756 0.24197 0.0
C1062 C 0.89321 0.43742 0.18731 0.0
C1063 C 0.88824 0.40789 0.1719 0.0
C1064 C 0.87286 0.4057 0.35138 0.0
C1065 C 0.88672 0.42205 0.26679 0.0
C1066 C 0.87228 0.41332 0.39713 0.0
C1067 C 0.88497 0.44473 0.41253 0.0
C1068 C 0.8858 0.42925 0.31802 0.0
C1069 C 0.89789 0.46741 0.37768 0.0
C1070 C 0.8928 0.4445 0.23315 0.0
C1071 C 0.88256 0.38622 0.20707 0.0
N1072 N 0.89768 0.45937 0.33367 0.0
N1073 N 0.88176 0.39352 0.2513 0.0
H1074 H 0.51065 0.89708 0.53626 0.0
H1075 H 0.38107 0.89945 0.70908 0.0
H1076 H 0.42528 0.89215 0.49304 0.0
H1077 H 0.45014 0.87612 0.75152 0.0
H1078 H 0.39913 0.90145 0.63232 0.0
H1079 H 0.49249 0.89409 0.6134 0.0
C1080 C 0.4881 0.89534 0.54217 0.0
C1081 C 0.47 0.89477 0.50539 0.0
C1082 C 0.41045 0.89572 0.65816 0.0
C1083 C 0.44835 0.89189 0.59801 0.0
C1084 C 0.39982 0.8944 0.70298 0.0
C1085 C 0.41311 0.88698 0.73938 0.0
C1086 C 0.43563 0.8903 0.6472 0.0
C1087 C 0.43809 0.88149 0.72637 0.0
C1088 C 0.47753 0.89365 0.58722 0.0
C1089 C 0.44085 0.89266 0.51832 0.0
N1090 N 0.44823 0.88343 0.68294 0.0
N1091 N 0.4315 0.89159 0.56192 0.0
H1092 H 0.54898 0.42065 0.82952 0.0
H1093 H 0.56633 0.47278 1.08847 0.0
H1094 H 0.61236 0.51455 0.87206 0.0
H1095 H 0.49157 0.38331 1.04645 0.0
H1096 H 0.58395 0.48654 1.01206 0.0
H1097 H 0.52988 0.40581 0.90579 0.0
C1098 C 0.55953 0.43843 0.8545 0.0
C1099 C 0.58326 0.46935 0.84176 0.0
C1100 C 0.56371 0.46377 1.01892 0.0
C1101 C 0.5602 0.45151 0.93391 0.0
C1102 C 0.5533 0.45552 1.06367 0.0
C1103 C 0.52686 0.42623 1.07682 0.0
C1104 C 0.54846 0.44287 0.98392 0.0
C1105 C 0.51191 0.40611 1.04029 0.0
C1106 C 0.54813 0.42969 0.89901 0.0
C1107 C 0.59457 0.49038 0.8781 0.0
N1108 N 0.52282 0.41458 0.99695 0.0
N1109 N 0.58332 0.48121 0.92102 0.0
H1110 H 0.12457 0.48491 0.38906 0.0
H1111 H 0.09084 0.58357 0.19837 0.0
H1112 H 0.10317 0.5575 0.41945 0.0
H1113 H 0.13666 0.53096 0.16738 0.0
H1114 H 0.09155 0.57129 0.27686 0.0
H1115 H 0.1255 0.4975 0.30995 0.0
C1116 C 0.12002 0.50353 0.37983 0.0
C1117 C 0.11394 0.5199 0.41356 0.0
C1118 C 0.10158 0.56231 0.25326 0.0
C1119 C 0.11444 0.53473 0.31868 0.0
C1120 C 0.10123 0.56947 0.20741 0.0
C1121 C 0.11397 0.55894 0.17368 0.0
C1122 C 0.11421 0.54346 0.26808 0.0
C1123 C 0.12667 0.54037 0.19036 0.0
C1124 C 0.12059 0.51085 0.33367 0.0
C1125 C 0.10821 0.54377 0.3966 0.0
N1126 N 0.12623 0.53333 0.23493 0.0
N1127 N 0.10841 0.55 0.35189 0.0
loop_
_geom_bond_atom_site_label_1
_geom_bond_atom_site_label_2
_geom_bond_distance
_geom_bond_site_symmetry_2
_ccdc_geom_bond_type
Tb0 C10 2.825 . S
Tb0 O11 2.347 . S
Tb0 O14 2.366 . S
Tb0 O19 2.418 . S
Tb0 O20 2.384 . S
Tb0 O23 2.479 . S
Tb0 O24 2.471 . S
Eu1 O12 2.418 . S
Eu1 O13 2.384 . S
Eu1 O16 2.479 . S
Eu1 O17 2.471 . S
Eu1 O18 2.347 . S
Eu1 O21 2.366 . S
Eu1 C31 2.825 . S
C2 O18 1.259 . S
C2 O19 1.265 . S
C3 O20 1.255 . S
C3 O21 1.265 . S
C4 C6 1.380 . S
C4 C7 1.374 . S
C4 C10 1.507 . S
C5 C6 1.384 . S
C5 C9 1.387 . S
C5 H32 0.930 . S
C6 C4 1.380 . S
C6 C5 1.384 . S
C6 H33 0.931 . S
C7 C4 1.374 . S
C7 C8 1.390 . S
C7 H34 0.930 . S
C8 C7 1.390 . S
C8 C9 1.391 . S
C8 H35 0.930 . S
C9 C5 1.387 . S
C9 C8 1.391 . S
C10 Tb0 2.825 . S
C10 C4 1.507 . S
C10 O23 1.238 . S
C10 O24 1.247 . S
O11 Tb0 2.347 . S
O11 C15 1.259 . S
O12 Eu1 2.418 . S
O12 C15 1.265 . S
O13 Eu1 2.384 . S
O13 C22 1.255 . S
O14 Tb0 2.366 . S
O14 C22 1.265 . S
C15 O11 1.259 . S
C15 O12 1.265 . S
O16 Eu1 2.479 . S
O16 C31 1.238 . S
O17 Eu1 2.471 . S
O17 C31 1.247 . S
O18 Eu1 2.347 . S
O18 C2 1.259 . S
O19 Tb0 2.418 . S
O19 C2 1.265 . S
O20 Tb0 2.384 . S
O20 C3 1.255 . S
O21 Eu1 2.366 . S
O21 C3 1.265 . S
C22 O13 1.255 . S
C22 O14 1.265 . S
O23 Tb0 2.479 . S
O23 C10 1.238 . S
O24 Tb0 2.471 . S
O24 C10 1.247 . S
C25 C28 1.380 . S
C25 C29 1.374 . S
C25 C31 1.507 . S
C26 C27 1.387 . S
C26 C30 1.391 . S
C27 C26 1.387 . S
C27 C28 1.384 . S
C27 H36 0.930 . S
C28 C25 1.380 . S
C28 C27 1.384 . S
C28 H37 0.931 . S
C29 C25 1.374 . S
C29 C30 1.390 . S
C29 H38 0.930 . S
C30 C26 1.391 . S
C30 C29 1.390 . S
C30 H39 0.930 . S
C31 Eu1 2.825 . S
C31 O16 1.238 . S
C31 O17 1.247 . S
C31 C25 1.507 . S
H32 C5 0.930 . S
H33 C6 0.931 . S
H34 C7 0.930 . S
H35 C8 0.930 . S
H36 C27 0.930 . S
H37 C28 0.931 . S
H38 C29 0.930 . S
H39 C30 0.930 . S
Tb40 C50 2.825 . S
Tb40 O51 2.347 . S
Tb40 O54 2.366 . S
Tb40 O59 2.418 . S
Tb40 O60 2.384 . S
Tb40 O63 2.479 . S
Tb40 O64 2.471 . S
Eu41 O52 2.418 . S
Eu41 O53 2.384 . S
Eu41 O56 2.479 . S
Eu41 O57 2.471 . S
Eu41 O58 2.347 . S
Eu41 O61 2.366 . S
Eu41 C71 2.825 . S
C42 O58 1.259 . S
C42 O59 1.265 . S
C43 O60 1.255 . S
C43 O61 1.265 . S
C44 C46 1.380 . S
C44 C47 1.374 . S
C44 C50 1.507 . S
C45 C46 1.384 . S
C45 C49 1.387 . S
C45 H72 0.930 . S
C46 C44 1.380 . S
C46 C45 1.384 . S
C46 H73 0.931 . S
C47 C44 1.374 . S
C47 C48 1.390 . S
C47 H74 0.930 . S
C48 C47 1.390 . S
C48 C49 1.391 . S
C48 H75 0.930 . S
C49 C45 1.387 . S
C49 C48 1.391 . S
C50 Tb40 2.825 . S
C50 C44 1.507 . S
C50 O63 1.238 . S
C50 O64 1.247 . S
O51 Tb40 2.347 . S
O51 C55 1.259 . S
O52 Eu41 2.418 . S
O52 C55 1.265 . S
O53 Eu41 2.384 . S
O53 C62 1.255 . S
O54 Tb40 2.366 . S
O54 C62 1.265 . S
C55 O51 1.259 . S
C55 O52 1.265 . S
O56 Eu41 2.479 . S
O56 C71 1.238 . S
O57 Eu41 2.471 . S
O57 C71 1.247 . S
O58 Eu41 2.347 . S
O58 C42 1.259 . S
O59 Tb40 2.418 . S
O59 C42 1.265 . S
O60 Tb40 2.384 . S
O60 C43 1.255 . S
O61 Eu41 2.366 . S
O61 C43 1.265 . S
C62 O53 1.255 . S
C62 O54 1.265 . S
O63 Tb40 2.479 . S
O63 C50 1.238 . S
O64 Tb40 2.471 . S
O64 C50 1.247 . S
C65 C68 1.380 . S
C65 C69 1.374 . S
C65 C71 1.507 . S
C66 C67 1.387 . S
C66 C70 1.391 . S
C67 C66 1.387 . S
C67 C68 1.384 . S
C67 H76 0.930 . S
C68 C65 1.380 . S
C68 C67 1.384 . S
C68 H77 0.931 . S
C69 C65 1.374 . S
C69 C70 1.390 . S
C69 H78 0.930 . S
C70 C66 1.391 . S
C70 C69 1.390 . S
C70 H79 0.930 . S
C71 Eu41 2.825 . S
C71 O56 1.238 . S
C71 O57 1.247 . S
C71 C65 1.507 . S
H72 C45 0.930 . S
H73 C46 0.931 . S
H74 C47 0.930 . S
H75 C48 0.930 . S
H76 C67 0.930 . S
H77 C68 0.931 . S
H78 C69 0.930 . S
H79 C70 0.930 . S
Tb80 C90 2.825 1_556 S
Tb80 O91 2.347 . S
Tb80 O94 2.366 . S
Tb80 O99 2.418 . S
Tb80 O100 2.384 . S
Tb80 O103 2.479 . S
Tb80 O104 2.471 . S
Eu81 O92 2.418 . S
Eu81 O93 2.384 . S
Eu81 O96 2.479 . S
Eu81 O97 2.471 . S
Eu81 O98 2.347 . S
Eu81 O101 2.366 . S
Eu81 C111 2.825 . S
C82 O98 1.259 . S
C82 O99 1.265 . S
C83 O100 1.255 . S
C83 O101 1.265 . S
C84 C86 1.380 . S
C84 C87 1.374 . S
C84 C90 1.507 . S
C85 C86 1.384 . S
C85 C89 1.387 . S
C85 H112 0.930 . S
C86 C84 1.380 . S
C86 C85 1.384 . S
C86 H113 0.931 . S
C87 C84 1.374 . S
C87 C88 1.390 . S
C87 H114 0.930 . S
C88 C87 1.390 . S
C88 C89 1.391 . S
C88 H115 0.930 . S
C89 C85 1.387 . S
C89 C88 1.391 . S
C90 Tb80 2.825 1_554 S
C90 C84 1.507 . S
C90 O103 1.238 1_554 S
C90 O104 1.247 1_554 S
O91 Tb80 2.347 . S
O91 C95 1.259 . S
O92 Eu81 2.418 . S
O92 C95 1.265 . S
O93 Eu81 2.384 . S
O93 C102 1.255 . S
O94 Tb80 2.366 . S
O94 C102 1.265 . S
C95 O91 1.259 . S
C95 O92 1.265 . S
O96 Eu81 2.479 . S
O96 C111 1.238 . S
O97 Eu81 2.471 . S
O97 C111 1.247 . S
O98 Eu81 2.347 . S
O98 C82 1.259 . S
O99 Tb80 2.418 . S
O99 C82 1.265 . S
O100 Tb80 2.384 . S
O100 C83 1.255 . S
O101 Eu81 2.366 . S
O101 C83 1.265 . S
C102 O93 1.255 . S
C102 O94 1.265 . S
O103 Tb80 2.479 . S
O103 C90 1.238 1_556 S
O104 Tb80 2.471 . S
O104 C90 1.247 1_556 S
C105 C108 1.380 . S
C105 C109 1.374 . S
C105 C111 1.507 . S
C106 C107 1.387 . S
C106 C110 1.391 . S
C107 C106 1.387 . S
C107 C108 1.384 . S
C107 H116 0.930 . S
C108 C105 1.380 . S
C108 C107 1.384 . S
C108 H117 0.931 . S
C109 C105 1.374 . S
C109 C110 1.390 . S
C109 H118 0.930 . S
C110 C106 1.391 . S
C110 C109 1.390 . S
C110 H119 0.930 . S
C111 Eu81 2.825 . S
C111 O96 1.238 . S
C111 O97 1.247 . S
C111 C105 1.507 . S
H112 C85 0.930 . S
H113 C86 0.931 . S
H114 C87 0.930 . S
H115 C88 0.930 . S
H116 C107 0.930 . S
H117 C108 0.931 . S
H118 C109 0.930 . S
H119 C110 0.930 . S
Tb120 C130 2.825 . S
Tb120 O131 2.347 . S
Tb120 O134 2.366 . S
Tb120 O139 2.418 . S
Tb120 O140 2.384 . S
Tb120 O143 2.479 . S
Tb120 O144 2.471 . S
Eu121 O132 2.418 . S
Eu121 O133 2.384 . S
Eu121 O136 2.479 . S
Eu121 O137 2.471 . S
Eu121 O138 2.347 . S
Eu121 O141 2.366 . S
Eu121 C151 2.825 . S
C122 O138 1.259 . S
C122 O139 1.265 . S
C123 O140 1.255 . S
C123 O141 1.265 . S
C124 C126 1.380 . S
C124 C127 1.374 . S
C124 C130 1.507 . S
C125 C126 1.384 . S
C125 C129 1.387 . S
C125 H152 0.930 . S
C126 C124 1.380 . S
C126 C125 1.384 . S
C126 H153 0.931 . S
C127 C124 1.374 . S
C127 C128 1.390 . S
C127 H154 0.930 . S
C128 C127 1.390 . S
C128 C129 1.391 . S
C128 H155 0.930 . S
C129 C125 1.387 . S
C129 C128 1.391 . S
C130 Tb120 2.825 . S
C130 C124 1.507 . S
C130 O143 1.238 . S
C130 O144 1.247 . S
O131 Tb120 2.347 . S
O131 C135 1.259 . S
O132 Eu121 2.418 . S
O132 C135 1.265 . S
O133 Eu121 2.384 . S
O133 C142 1.255 . S
O134 Tb120 2.366 . S
O134 C142 1.265 . S
C135 O131 1.259 . S
C135 O132 1.265 . S
O136 Eu121 2.479 . S
O136 C151 1.238 . S
O137 Eu121 2.471 . S
O137 C151 1.247 . S
O138 Eu121 2.347 . S
O138 C122 1.259 . S
O139 Tb120 2.418 . S
O139 C122 1.265 . S
O140 Tb120 2.384 . S
O140 C123 1.255 . S
O141 Eu121 2.366 . S
O141 C123 1.265 . S
C142 O133 1.255 . S
C142 O134 1.265 . S
O143 Tb120 2.479 . S
O143 C130 1.238 . S
O144 Tb120 2.471 . S
O144 C130 1.247 . S
C145 C148 1.380 . S
C145 C149 1.374 . S
C145 C151 1.507 . S
C146 C147 1.387 . S
C146 C150 1.391 . S
C147 C146 1.387 . S
C147 C148 1.384 . S
C147 H156 0.930 . S
C148 C145 1.380 . S
C148 C147 1.384 . S
C148 H157 0.931 . S
C149 C145 1.374 . S
C149 C150 1.390 . S
C149 H158 0.930 . S
C150 C146 1.391 . S
C150 C149 1.390 . S
C150 H159 0.930 . S
C151 Eu121 2.825 . S
C151 O136 1.238 . S
C151 O137 1.247 . S
C151 C145 1.507 . S
H152 C125 0.930 . S
H153 C126 0.931 . S
H154 C127 0.930 . S
H155 C128 0.930 . S
H156 C147 0.930 . S
H157 C148 0.931 . S
H158 C149 0.930 . S
H159 C150 0.930 . S
Tb160 C170 2.825 . S
Tb160 O171 2.347 . S
Tb160 O174 2.366 . S
Tb160 O179 2.418 . S
Tb160 O180 2.384 . S
Tb160 O183 2.479 . S
Tb160 O184 2.471 . S
Eu161 O172 2.418 . S
Eu161 O173 2.384 . S
Eu161 O176 2.479 . S
Eu161 O177 2.471 . S
Eu161 O178 2.347 . S
Eu161 O181 2.366 . S
Eu161 C191 2.825 . S
C162 O178 1.259 . S
C162 O179 1.265 . S
C163 O180 1.255 . S
C163 O181 1.265 . S
C164 C166 1.380 . S
C164 C167 1.374 . S
C164 C170 1.507 . S
C165 C166 1.384 . S
C165 C169 1.387 . S
C165 H192 0.930 . S
C166 C164 1.380 . S
C166 C165 1.384 . S
C166 H193 0.931 . S
C167 C164 1.374 . S
C167 C168 1.390 . S
C167 H194 0.930 . S
C168 C167 1.390 . S
C168 C169 1.391 . S
C168 H195 0.930 . S
C169 C165 1.387 . S
C169 C168 1.391 . S
C170 Tb160 2.825 . S
C170 C164 1.507 . S
C170 O183 1.238 . S
C170 O184 1.247 . S
O171 Tb160 2.347 . S
O171 C175 1.259 . S
O172 Eu161 2.418 . S
O172 C175 1.265 . S
O173 Eu161 2.384 . S
O173 C182 1.255 . S
O174 Tb160 2.366 . S
O174 C182 1.265 . S
C175 O171 1.259 . S
C175 O172 1.265 . S
O176 Eu161 2.479 . S
O176 C191 1.238 . S
O177 Eu161 2.471 . S
O177 C191 1.247 . S
O178 Eu161 2.347 . S
O178 C162 1.259 . S
O179 Tb160 2.418 . S
O179 C162 1.265 . S
O180 Tb160 2.384 . S
O180 C163 1.255 . S
O181 Eu161 2.366 . S
O181 C163 1.265 . S
C182 O173 1.255 . S
C182 O174 1.265 . S
O183 Tb160 2.479 . S
O183 C170 1.238 . S
O184 Tb160 2.471 . S
O184 C170 1.247 . S
C185 C188 1.380 . S
C185 C189 1.374 . S
C185 C191 1.507 . S
C186 C187 1.387 . S
C186 C190 1.391 . S
C187 C186 1.387 . S
C187 C188 1.384 . S
C187 H196 0.930 . S
C188 C185 1.380 . S
C188 C187 1.384 . S
C188 H197 0.931 . S
C189 C185 1.374 . S
C189 C190 1.390 . S
C189 H198 0.930 . S
C190 C186 1.391 . S
C190 C189 1.390 . S
C190 H199 0.930 . S
C191 Eu161 2.825 . S
C191 O176 1.238 . S
C191 O177 1.247 . S
C191 C185 1.507 . S
H192 C165 0.930 . S
H193 C166 0.931 . S
H194 C167 0.930 . S
H195 C168 0.930 . S
H196 C187 0.930 . S
H197 C188 0.931 . S
H198 C189 0.930 . S
H199 C190 0.930 . S
Tb200 C210 2.825 1_556 S
Tb200 O211 2.347 . S
Tb200 O214 2.366 . S
Tb200 O219 2.418 . S
Tb200 O220 2.384 . S
Tb200 O223 2.479 . S
Tb200 O224 2.471 . S
Eu201 O212 2.418 . S
Eu201 O213 2.384 . S
Eu201 O216 2.479 . S
Eu201 O217 2.471 . S
Eu201 O218 2.347 . S
Eu201 O221 2.366 . S
Eu201 C231 2.825 . S
C202 O218 1.259 . S
C202 O219 1.265 . S
C203 O220 1.255 . S
C203 O221 1.265 . S
C204 C206 1.380 . S
C204 C207 1.374 . S
C204 C210 1.507 . S
C205 C206 1.384 . S
C205 C209 1.387 . S
C205 H232 0.930 . S
C206 C204 1.380 . S
C206 C205 1.384 . S
C206 H233 0.931 . S
C207 C204 1.374 . S
C207 C208 1.390 . S
C207 H234 0.930 . S
C208 C207 1.390 . S
C208 C209 1.391 . S
C208 H235 0.930 . S
C209 C205 1.387 . S
C209 C208 1.391 . S
C210 Tb200 2.825 1_554 S
C210 C204 1.507 . S
C210 O223 1.238 1_554 S
C210 O224 1.247 1_554 S
O211 Tb200 2.347 . S
O211 C215 1.259 . S
O212 Eu201 2.418 . S
O212 C215 1.265 . S
O213 Eu201 2.384 . S
O213 C222 1.255 . S
O214 Tb200 2.366 . S
O214 C222 1.265 . S
C215 O211 1.259 . S
C215 O212 1.265 . S
O216 Eu201 2.479 . S
O216 C231 1.238 . S
O217 Eu201 2.471 . S
O217 C231 1.247 . S
O218 Eu201 2.347 . S
O218 C202 1.259 . S
O219 Tb200 2.418 . S
O219 C202 1.265 . S
O220 Tb200 2.384 . S
O220 C203 1.255 . S
O221 Eu201 2.366 . S
O221 C203 1.265 . S
C222 O213 1.255 . S
C222 O214 1.265 . S
O223 Tb200 2.479 . S
O223 C210 1.238 1_556 S
O224 Tb200 2.471 . S
O224 C210 1.247 1_556 S
C225 C228 1.380 . S
C225 C229 1.374 . S
C225 C231 1.507 . S
C226 C227 1.387 . S
C226 C230 1.391 . S
C227 C226 1.387 . S
C227 C228 1.384 . S
C227 H236 0.930 . S
C228 C225 1.380 . S
C228 C227 1.384 . S
C228 H237 0.931 . S
C229 C225 1.374 . S
C229 C230 1.390 . S
C229 H238 0.930 . S
C230 C226 1.391 . S
C230 C229 1.390 . S
C230 H239 0.930 . S
C231 Eu201 2.825 . S
C231 O216 1.238 . S
C231 O217 1.247 . S
C231 C225 1.507 . S
H232 C205 0.930 . S
H233 C206 0.931 . S
H234 C207 0.930 . S
H235 C208 0.930 . S
H236 C227 0.930 . S
H237 C228 0.931 . S
H238 C229 0.930 . S
H239 C230 0.930 . S
Tb240 C250 2.825 . S
Tb240 O251 2.347 . S
Tb240 O254 2.366 . S
Tb240 O259 2.418 . S
Tb240 O260 2.384 . S
Tb240 O263 2.479 . S
Tb240 O264 2.471 . S
Eu241 O252 2.418 . S
Eu241 O253 2.384 . S
Eu241 O256 2.479 . S
Eu241 O257 2.471 . S
Eu241 O258 2.347 . S
Eu241 O261 2.366 . S
Eu241 C271 2.825 . S
C242 O258 1.259 . S
C242 O259 1.265 . S
C243 O260 1.255 . S
C243 O261 1.265 . S
C244 C246 1.380 . S
C244 C247 1.374 . S
C244 C250 1.507 . S
C245 C246 1.384 . S
C245 C249 1.387 . S
C245 H272 0.930 . S
C246 C244 1.380 . S
C246 C245 1.384 . S
C246 H273 0.931 . S
C247 C244 1.374 . S
C247 C248 1.390 . S
C247 H274 0.930 . S
C248 C247 1.390 . S
C248 C249 1.391 . S
C248 H275 0.930 . S
C249 C245 1.387 . S
C249 C248 1.391 . S
C250 Tb240 2.825 . S
C250 C244 1.507 . S
C250 O263 1.238 . S
C250 O264 1.247 . S
O251 Tb240 2.347 . S
O251 C255 1.259 . S
O252 Eu241 2.418 . S
O252 C255 1.265 . S
O253 Eu241 2.384 . S
O253 C262 1.255 . S
O254 Tb240 2.366 . S
O254 C262 1.265 . S
C255 O251 1.259 . S
C255 O252 1.265 . S
O256 Eu241 2.479 . S
O256 C271 1.238 . S
O257 Eu241 2.471 . S
O257 C271 1.247 . S
O258 Eu241 2.347 . S
O258 C242 1.259 . S
O259 Tb240 2.418 . S
O259 C242 1.265 . S
O260 Tb240 2.384 . S
O260 C243 1.255 . S
O261 Eu241 2.366 . S
O261 C243 1.265 . S
C262 O253 1.255 . S
C262 O254 1.265 . S
O263 Tb240 2.479 . S
O263 C250 1.238 . S
O264 Tb240 2.471 . S
O264 C250 1.247 . S
C265 C268 1.380 . S
C265 C269 1.374 . S
C265 C271 1.507 . S
C266 C267 1.387 . S
C266 C270 1.391 . S
C267 C266 1.387 . S
C267 C268 1.384 . S
C267 H276 0.930 . S
C268 C265 1.380 . S
C268 C267 1.384 . S
C268 H277 0.931 . S
C269 C265 1.374 . S
C269 C270 1.390 . S
C269 H278 0.930 . S
C270 C266 1.391 . S
C270 C269 1.390 . S
C270 H279 0.930 . S
C271 Eu241 2.825 . S
C271 O256 1.238 . S
C271 O257 1.247 . S
C271 C265 1.507 . S
H272 C245 0.930 . S
H273 C246 0.931 . S
H274 C247 0.930 . S
H275 C248 0.930 . S
H276 C267 0.930 . S
H277 C268 0.931 . S
H278 C269 0.930 . S
H279 C270 0.930 . S
Tb280 C290 2.825 . S
Tb280 O291 2.347 . S
Tb280 O294 2.366 . S
Tb280 O299 2.418 . S
Tb280 O300 2.384 . S
Tb280 O303 2.479 . S
Tb280 O304 2.471 . S
Eu281 O292 2.418 . S
Eu281 O293 2.384 . S
Eu281 O296 2.479 . S
Eu281 O297 2.471 . S
Eu281 O298 2.347 . S
Eu281 O301 2.366 . S
Eu281 C311 2.825 . S
C282 O298 1.259 . S
C282 O299 1.265 . S
C283 O300 1.255 . S
C283 O301 1.265 . S
C284 C286 1.380 . S
C284 C287 1.374 . S
C284 C290 1.507 . S
C285 C286 1.384 . S
C285 C289 1.387 . S
C285 H312 0.930 . S
C286 C284 1.380 . S
C286 C285 1.384 . S
C286 H313 0.931 . S
C287 C284 1.374 . S
C287 C288 1.390 . S
C287 H314 0.930 . S
C288 C287 1.390 . S
C288 C289 1.391 . S
C288 H315 0.930 . S
C289 C285 1.387 . S
C289 C288 1.391 . S
C290 Tb280 2.825 . S
C290 C284 1.507 . S
C290 O303 1.238 . S
C290 O304 1.247 . S
O291 Tb280 2.347 . S
O291 C295 1.259 . S
O292 Eu281 2.418 . S
O292 C295 1.265 . S
O293 Eu281 2.384 . S
O293 C302 1.255 . S
O294 Tb280 2.366 . S
O294 C302 1.265 . S
C295 O291 1.259 . S
C295 O292 1.265 . S
O296 Eu281 2.479 . S
O296 C311 1.238 . S
O297 Eu281 2.471 . S
O297 C311 1.247 . S
O298 Eu281 2.347 . S
O298 C282 1.259 . S
O299 Tb280 2.418 . S
O299 C282 1.265 . S
O300 Tb280 2.384 . S
O300 C283 1.255 . S
O301 Eu281 2.366 . S
O301 C283 1.265 . S
C302 O293 1.255 . S
C302 O294 1.265 . S
O303 Tb280 2.479 . S
O303 C290 1.238 . S
O304 Tb280 2.471 . S
O304 C290 1.247 . S
C305 C308 1.380 . S
C305 C309 1.374 . S
C305 C311 1.507 . S
C306 C307 1.387 . S
C306 C310 1.391 . S
C307 C306 1.387 . S
C307 C308 1.384 . S
C307 H316 0.930 . S
C308 C305 1.380 . S
C308 C307 1.384 . S
C308 H317 0.931 . S
C309 C305 1.374 . S
C309 C310 1.390 . S
C309 H318 0.930 . S
C310 C306 1.391 . S
C310 C309 1.390 . S
C310 H319 0.930 . S
C311 Eu281 2.825 . S
C311 O296 1.238 . S
C311 O297 1.247 . S
C311 C305 1.507 . S
H312 C285 0.930 . S
H313 C286 0.931 . S
H314 C287 0.930 . S
H315 C288 0.930 . S
H316 C307 0.930 . S
H317 C308 0.931 . S
H318 C309 0.930 . S
H319 C310 0.930 . S
Tb320 C330 2.825 1_554 S
Tb320 O331 2.347 . S
Tb320 O334 2.366 . S
Tb320 O339 2.418 . S
Tb320 O340 2.384 . S
Tb320 O343 2.479 . S
Tb320 O344 2.471 . S
Eu321 O332 2.418 . S
Eu321 O333 2.384 . S
Eu321 O336 2.479 . S
Eu321 O337 2.471 . S
Eu321 O338 2.347 . S
Eu321 O341 2.366 . S
Eu321 C351 2.825 . S
C322 O338 1.259 . S
C322 O339 1.265 . S
C323 O340 1.255 . S
C323 O341 1.265 . S
C324 C326 1.380 . S
C324 C327 1.374 . S
C324 C330 1.507 . S
C325 C326 1.384 . S
C325 C329 1.387 . S
C325 H352 0.930 . S
C326 C324 1.380 . S
C326 C325 1.384 . S
C326 H353 0.931 . S
C327 C324 1.374 . S
C327 C328 1.390 . S
C327 H354 0.930 . S
C328 C327 1.390 . S
C328 C329 1.391 . S
C328 H355 0.930 . S
C329 C325 1.387 . S
C329 C328 1.391 . S
C330 Tb320 2.825 1_556 S
C330 C324 1.507 . S
C330 O343 1.238 1_556 S
C330 O344 1.247 1_556 S
O331 Tb320 2.347 . S
O331 C335 1.259 . S
O332 Eu321 2.418 . S
O332 C335 1.265 . S
O333 Eu321 2.384 . S
O333 C342 1.255 . S
O334 Tb320 2.366 . S
O334 C342 1.265 . S
C335 O331 1.259 . S
C335 O332 1.265 . S
O336 Eu321 2.479 . S
O336 C351 1.238 . S
O337 Eu321 2.471 . S
O337 C351 1.247 . S
O338 Eu321 2.347 . S
O338 C322 1.259 . S
O339 Tb320 2.418 . S
O339 C322 1.265 . S
O340 Tb320 2.384 . S
O340 C323 1.255 . S
O341 Eu321 2.366 . S
O341 C323 1.265 . S
C342 O333 1.255 . S
C342 O334 1.265 . S
O343 Tb320 2.479 . S
O343 C330 1.238 1_554 S
O344 Tb320 2.471 . S
O344 C330 1.247 1_554 S
C345 C348 1.380 . S
C345 C349 1.374 . S
C345 C351 1.507 . S
C346 C347 1.387 . S
C346 C350 1.391 . S
C347 C346 1.387 . S
C347 C348 1.384 . S
C347 H356 0.930 . S
C348 C345 1.380 . S
C348 C347 1.384 . S
C348 H357 0.931 . S
C349 C345 1.374 . S
C349 C350 1.390 . S
C349 H358 0.930 . S
C350 C346 1.391 . S
C350 C349 1.390 . S
C350 H359 0.930 . S
C351 Eu321 2.825 . S
C351 O336 1.238 . S
C351 O337 1.247 . S
C351 C345 1.507 . S
H352 C325 0.930 . S
H353 C326 0.931 . S
H354 C327 0.930 . S
H355 C328 0.930 . S
H356 C347 0.930 . S
H357 C348 0.931 . S
H358 C349 0.930 . S
H359 C350 0.930 . S
Tb360 C370 2.825 . S
Tb360 O371 2.347 . S
Tb360 O374 2.366 . S
Tb360 O379 2.418 . S
Tb360 O380 2.384 . S
Tb360 O383 2.479 . S
Tb360 O384 2.471 . S
Eu361 O372 2.418 . S
Eu361 O373 2.384 . S
Eu361 O376 2.479 . S
Eu361 O377 2.471 . S
Eu361 O378 2.347 . S
Eu361 O381 2.366 . S
Eu361 C391 2.825 . S
C362 O378 1.259 . S
C362 O379 1.265 . S
C363 O380 1.255 . S
C363 O381 1.265 . S
C364 C366 1.380 . S
C364 C367 1.374 . S
C364 C370 1.507 . S
C365 C366 1.384 . S
C365 C369 1.387 . S
C365 H392 0.930 . S
C366 C364 1.380 . S
C366 C365 1.384 . S
C366 H393 0.931 . S
C367 C364 1.374 . S
C367 C368 1.390 . S
C367 H394 0.930 . S
C368 C367 1.390 . S
C368 C369 1.391 . S
C368 H395 0.930 . S
C369 C365 1.387 . S
C369 C368 1.391 . S
C370 Tb360 2.825 . S
C370 C364 1.507 . S
C370 O383 1.238 . S
C370 O384 1.247 . S
O371 Tb360 2.347 . S
O371 C375 1.259 . S
O372 Eu361 2.418 . S
O372 C375 1.265 . S
O373 Eu361 2.384 . S
O373 C382 1.255 . S
O374 Tb360 2.366 . S
O374 C382 1.265 . S
C375 O371 1.259 . S
C375 O372 1.265 . S
O376 Eu361 2.479 . S
O376 C391 1.238 . S
O377 Eu361 2.471 . S
O377 C391 1.247 . S
O378 Eu361 2.347 . S
O378 C362 1.259 . S
O379 Tb360 2.418 . S
O379 C362 1.265 . S
O380 Tb360 2.384 . S
O380 C363 1.255 . S
O381 Eu361 2.366 . S
O381 C363 1.265 . S
C382 O373 1.255 . S
C382 O374 1.265 . S
O383 Tb360 2.479 . S
O383 C370 1.238 . S
O384 Tb360 2.471 . S
O384 C370 1.247 . S
C385 C388 1.380 . S
C385 C389 1.374 . S
C385 C391 1.507 . S
C386 C387 1.387 . S
C386 C390 1.391 . S
C387 C386 1.387 . S
C387 C388 1.384 . S
C387 H396 0.930 . S
C388 C385 1.380 . S
C388 C387 1.384 . S
C388 H397 0.931 . S
C389 C385 1.374 . S
C389 C390 1.390 . S
C389 H398 0.930 . S
C390 C386 1.391 . S
C390 C389 1.390 . S
C390 H399 0.930 . S
C391 Eu361 2.825 . S
C391 O376 1.238 . S
C391 O377 1.247 . S
C391 C385 1.507 . S
H392 C365 0.930 . S
H393 C366 0.931 . S
H394 C367 0.930 . S
H395 C368 0.930 . S
H396 C387 0.930 . S
H397 C388 0.931 . S
H398 C389 0.930 . S
H399 C390 0.930 . S
Tb400 C410 2.825 . S
Tb400 O411 2.347 . S
Tb400 O414 2.366 . S
Tb400 O419 2.418 . S
Tb400 O420 2.384 . S
Tb400 O423 2.479 . S
Tb400 O424 2.471 . S
Eu401 O412 2.418 . S
Eu401 O413 2.384 . S
Eu401 O416 2.479 . S
Eu401 O417 2.471 . S
Eu401 O418 2.347 . S
Eu401 O421 2.366 . S
Eu401 C431 2.825 . S
C402 O418 1.259 . S
C402 O419 1.265 . S
C403 O420 1.255 . S
C403 O421 1.265 . S
C404 C406 1.380 . S
C404 C407 1.374 . S
C404 C410 1.507 . S
C405 C406 1.384 . S
C405 C409 1.387 . S
C405 H432 0.930 . S
C406 C404 1.380 . S
C406 C405 1.384 . S
C406 H433 0.931 . S
C407 C404 1.374 . S
C407 C408 1.390 . S
C407 H434 0.930 . S
C408 C407 1.390 . S
C408 C409 1.391 . S
C408 H435 0.930 . S
C409 C405 1.387 . S
C409 C408 1.391 . S
C410 Tb400 2.825 . S
C410 C404 1.507 . S
C410 O423 1.238 . S
C410 O424 1.247 . S
O411 Tb400 2.347 . S
O411 C415 1.259 . S
O412 Eu401 2.418 . S
O412 C415 1.265 . S
O413 Eu401 2.384 . S
O413 C422 1.255 . S
O414 Tb400 2.366 . S
O414 C422 1.265 . S
C415 O411 1.259 . S
C415 O412 1.265 . S
O416 Eu401 2.479 . S
O416 C431 1.238 . S
O417 Eu401 2.471 . S
O417 C431 1.247 . S
O418 Eu401 2.347 . S
O418 C402 1.259 . S
O419 Tb400 2.418 . S
O419 C402 1.265 . S
O420 Tb400 2.384 . S
O420 C403 1.255 . S
O421 Eu401 2.366 . S
O421 C403 1.265 . S
C422 O413 1.255 . S
C422 O414 1.265 . S
O423 Tb400 2.479 . S
O423 C410 1.238 . S
O424 Tb400 2.471 . S
O424 C410 1.247 . S
C425 C428 1.380 . S
C425 C429 1.374 . S
C425 C431 1.507 . S
C426 C427 1.387 . S
C426 C430 1.391 . S
C427 C426 1.387 . S
C427 C428 1.384 . S
C427 H436 0.930 . S
C428 C425 1.380 . S
C428 C427 1.384 . S
C428 H437 0.931 . S
C429 C425 1.374 . S
C429 C430 1.390 . S
C429 H438 0.930 . S
C430 C426 1.391 . S
C430 C429 1.390 . S
C430 H439 0.930 . S
C431 Eu401 2.825 . S
C431 O416 1.238 . S
C431 O417 1.247 . S
C431 C425 1.507 . S
H432 C405 0.930 . S
H433 C406 0.931 . S
H434 C407 0.930 . S
H435 C408 0.930 . S
H436 C427 0.930 . S
H437 C428 0.931 . S
H438 C429 0.930 . S
H439 C430 0.930 . S
Tb440 C450 2.825 1_554 S
Tb440 O451 2.347 . S
Tb440 O454 2.366 . S
Tb440 O459 2.418 . S
Tb440 O460 2.384 . S
Tb440 O463 2.479 . S
Tb440 O464 2.471 . S
Eu441 O452 2.418 . S
Eu441 O453 2.384 . S
Eu441 O456 2.479 . S
Eu441 O457 2.471 . S
Eu441 O458 2.347 . S
Eu441 O461 2.366 . S
Eu441 C471 2.825 . S
C442 O458 1.259 . S
C442 O459 1.265 . S
C443 O460 1.255 . S
C443 O461 1.265 . S
C444 C446 1.380 . S
C444 C447 1.374 . S
C444 C450 1.507 . S
C445 C446 1.384 . S
C445 C449 1.387 . S
C445 H472 0.930 . S
C446 C444 1.380 . S
C446 C445 1.384 . S
C446 H473 0.931 . S
C447 C444 1.374 . S
C447 C448 1.390 . S
C447 H474 0.930 . S
C448 C447 1.390 . S
C448 C449 1.391 . S
C448 H475 0.930 . S
C449 C445 1.387 . S
C449 C448 1.391 . S
C450 Tb440 2.825 1_556 S
C450 C444 1.507 . S
C450 O463 1.238 1_556 S
C450 O464 1.247 1_556 S
O451 Tb440 2.347 . S
O451 C455 1.259 . S
O452 Eu441 2.418 . S
O452 C455 1.265 . S
O453 Eu441 2.384 . S
O453 C462 1.255 . S
O454 Tb440 2.366 . S
O454 C462 1.265 . S
C455 O451 1.259 . S
C455 O452 1.265 . S
O456 Eu441 2.479 . S
O456 C471 1.238 . S
O457 Eu441 2.471 . S
O457 C471 1.247 . S
O458 Eu441 2.347 . S
O458 C442 1.259 . S
O459 Tb440 2.418 . S
O459 C442 1.265 . S
O460 Tb440 2.384 . S
O460 C443 1.255 . S
O461 Eu441 2.366 . S
O461 C443 1.265 . S
C462 O453 1.255 . S
C462 O454 1.265 . S
O463 Tb440 2.479 . S
O463 C450 1.238 1_554 S
O464 Tb440 2.471 . S
O464 C450 1.247 1_554 S
C465 C468 1.380 . S
C465 C469 1.374 . S
C465 C471 1.507 . S
C466 C467 1.387 . S
C466 C470 1.391 . S
C467 C466 1.387 . S
C467 C468 1.384 . S
C467 H476 0.930 . S
C468 C465 1.380 . S
C468 C467 1.384 . S
C468 H477 0.931 . S
C469 C465 1.374 . S
C469 C470 1.390 . S
C469 H478 0.930 . S
C470 C466 1.391 . S
C470 C469 1.390 . S
C470 H479 0.930 . S
C471 Eu441 2.825 . S
C471 O456 1.238 . S
C471 O457 1.247 . S
C471 C465 1.507 . S
H472 C445 0.930 . S
H473 C446 0.931 . S
H474 C447 0.930 . S
H475 C448 0.930 . S
H476 C467 0.930 . S
H477 C468 0.931 . S
H478 C469 0.930 . S
H479 C470 0.930 . S
H480 C486 0.930 . S
H481 C490 0.930 . S
H482 C495 0.929 . S
H483 C493 0.929 . S
H484 C488 0.929 . S
H485 C494 0.929 . S
C486 H480 0.930 . S
C486 C487 1.367 . S
C486 C494 1.378 . S
C487 C486 1.367 . S
C487 C495 1.433 . S
C488 H484 0.929 . S
C488 C490 1.378 . S
C488 C492 1.350 . S
C489 C492 1.463 . S
C489 C494 1.350 . S
C489 N497 1.427 . S
C490 H481 0.930 . S
C490 C488 1.378 . S
C490 C491 1.367 . S
C491 C490 1.367 . S
C491 C493 1.433 . S
C492 C488 1.350 . S
C492 C489 1.463 . S
C492 N496 1.427 . S
C493 H483 0.929 . S
C493 C491 1.433 . S
C493 N496 1.384 . S
C494 H485 0.929 . S
C494 C486 1.378 . S
C494 C489 1.350 . S
C495 H482 0.929 . S
C495 C487 1.433 . S
C495 N497 1.384 . S
N496 C492 1.427 . S
N496 C493 1.384 . S
N497 C489 1.427 . S
N497 C495 1.384 . S
H498 C504 0.930 . S
H499 C508 0.930 . S
H500 C513 0.929 . S
H501 C511 0.929 . S
H502 C506 0.929 . S
H503 C512 0.929 . S
C504 H498 0.930 . S
C504 C505 1.367 . S
C504 C512 1.378 . S
C505 C504 1.367 . S
C505 C513 1.433 . S
C506 H502 0.929 . S
C506 C508 1.378 . S
C506 C510 1.350 . S
C507 C510 1.463 . S
C507 C512 1.350 . S
C507 N515 1.427 . S
C508 H499 0.930 . S
C508 C506 1.378 . S
C508 C509 1.367 . S
C509 C508 1.367 . S
C509 C511 1.433 . S
C510 C506 1.350 . S
C510 C507 1.463 . S
C510 N514 1.427 . S
C511 H501 0.929 . S
C511 C509 1.433 . S
C511 N514 1.384 . S
C512 H503 0.929 . S
C512 C504 1.378 . S
C512 C507 1.350 . S
C513 H500 0.929 . S
C513 C505 1.433 . S
C513 N515 1.384 . S
N514 C510 1.427 . S
N514 C511 1.384 . S
N515 C507 1.427 . S
N515 C513 1.384 . S
H516 C522 0.930 . S
H517 C526 0.930 . S
H518 C531 0.929 . S
H519 C529 0.929 . S
H520 C524 0.929 . S
H521 C530 0.929 . S
C522 H516 0.930 . S
C522 C523 1.367 . S
C522 C530 1.378 . S
C523 C522 1.367 . S
C523 C531 1.433 . S
C524 H520 0.929 . S
C524 C526 1.378 . S
C524 C528 1.350 . S
C525 C528 1.463 . S
C525 C530 1.350 . S
C525 N533 1.427 . S
C526 H517 0.930 . S
C526 C524 1.378 . S
C526 C527 1.367 . S
C527 C526 1.367 . S
C527 C529 1.433 . S
C528 C524 1.350 . S
C528 C525 1.463 . S
C528 N532 1.427 . S
C529 H519 0.929 . S
C529 C527 1.433 . S
C529 N532 1.384 . S
C530 H521 0.929 . S
C530 C522 1.378 . S
C530 C525 1.350 . S
C531 H518 0.929 . S
C531 C523 1.433 . S
C531 N533 1.384 . S
N532 C528 1.427 . S
N532 C529 1.384 . S
N533 C525 1.427 . S
N533 C531 1.384 . S
H534 C540 0.930 . S
H535 C544 0.930 . S
H536 C549 0.929 . S
H537 C547 0.929 . S
H538 C542 0.929 . S
H539 C548 0.929 . S
C540 H534 0.930 . S
C540 C541 1.367 . S
C540 C548 1.378 . S
C541 C540 1.367 . S
C541 C549 1.433 . S
C542 H538 0.929 . S
C542 C544 1.378 . S
C542 C546 1.350 . S
C543 C546 1.463 . S
C543 C548 1.350 . S
C543 N551 1.427 . S
C544 H535 0.930 . S
C544 C542 1.378 . S
C544 C545 1.367 . S
C545 C544 1.367 . S
C545 C547 1.433 . S
C546 C542 1.350 . S
C546 C543 1.463 . S
C546 N550 1.427 . S
C547 H537 0.929 . S
C547 C545 1.433 . S
C547 N550 1.384 . S
C548 H539 0.929 . S
C548 C540 1.378 . S
C548 C543 1.350 . S
C549 H536 0.929 . S
C549 C541 1.433 . S
C549 N551 1.384 . S
N550 C546 1.427 . S
N550 C547 1.384 . S
N551 C543 1.427 . S
N551 C549 1.384 . S
H552 C558 0.930 . S
H553 C562 0.930 . S
H554 C567 0.929 . S
H555 C565 0.929 . S
H556 C560 0.929 . S
H557 C566 0.929 . S
C558 H552 0.930 . S
C558 C559 1.367 . S
C558 C566 1.378 . S
C559 C558 1.367 . S
C559 C567 1.433 . S
C560 H556 0.929 . S
C560 C562 1.378 . S
C560 C564 1.350 . S
C561 C564 1.463 . S
C561 C566 1.350 . S
C561 N569 1.427 . S
C562 H553 0.930 . S
C562 C560 1.378 . S
C562 C563 1.367 . S
C563 C562 1.367 . S
C563 C565 1.433 . S
C564 C560 1.350 . S
C564 C561 1.463 . S
C564 N568 1.427 . S
C565 H555 0.929 . S
C565 C563 1.433 . S
C565 N568 1.384 . S
C566 H557 0.929 . S
C566 C558 1.378 . S
C566 C561 1.350 . S
C567 H554 0.929 . S
C567 C559 1.433 . S
C567 N569 1.384 . S
N568 C564 1.427 . S
N568 C565 1.384 . S
N569 C561 1.427 . S
N569 C567 1.384 . S
H570 C576 0.930 . S
H571 C580 0.930 . S
H572 C585 0.929 . S
H573 C583 0.929 . S
H574 C578 0.929 . S
H575 C584 0.929 . S
C576 H570 0.930 . S
C576 C577 1.367 . S
C576 C584 1.378 . S
C577 C576 1.367 . S
C577 C585 1.433 . S
C578 H574 0.929 . S
C578 C580 1.378 . S
C578 C582 1.350 . S
C579 C582 1.463 . S
C579 C584 1.350 . S
C579 N587 1.427 . S
C580 H571 0.930 . S
C580 C578 1.378 . S
C580 C581 1.367 . S
C581 C580 1.367 . S
C581 C583 1.433 . S
C582 C578 1.350 . S
C582 C579 1.463 . S
C582 N586 1.427 . S
C583 H573 0.929 . S
C583 C581 1.433 . S
C583 N586 1.384 . S
C584 H575 0.929 . S
C584 C576 1.378 . S
C584 C579 1.350 . S
C585 H572 0.929 . S
C585 C577 1.433 . S
C585 N587 1.384 . S
N586 C582 1.427 . S
N586 C583 1.384 . S
N587 C579 1.427 . S
N587 C585 1.384 . S
H588 C594 0.930 . S
H589 C598 0.930 . S
H590 C603 0.929 . S
H591 C601 0.929 . S
H592 C596 0.929 . S
H593 C602 0.929 . S
C594 H588 0.930 . S
C594 C595 1.367 . S
C594 C602 1.378 . S
C595 C594 1.367 . S
C595 C603 1.433 . S
C596 H592 0.929 . S
C596 C598 1.378 . S
C596 C600 1.350 . S
C597 C600 1.463 1_556 S
C597 C602 1.350 . S
C597 N605 1.427 . S
C598 H589 0.930 . S
C598 C596 1.378 . S
C598 C599 1.367 . S
C599 C598 1.367 . S
C599 C601 1.433 . S
C600 C596 1.350 . S
C600 C597 1.463 1_554 S
C600 N604 1.427 . S
C601 H591 0.929 . S
C601 C599 1.433 . S
C601 N604 1.384 . S
C602 H593 0.929 . S
C602 C594 1.378 . S
C602 C597 1.350 . S
C603 H590 0.929 . S
C603 C595 1.433 . S
C603 N605 1.384 . S
N604 C600 1.427 . S
N604 C601 1.384 . S
N605 C597 1.427 . S
N605 C603 1.384 . S
H606 C612 0.930 . S
H607 C616 0.930 . S
H608 C621 0.929 . S
H609 C619 0.929 . S
H610 C614 0.929 . S
H611 C620 0.929 . S
C612 H606 0.930 . S
C612 C613 1.367 . S
C612 C620 1.378 . S
C613 C612 1.367 . S
C613 C621 1.433 . S
C614 H610 0.929 . S
C614 C616 1.378 . S
C614 C618 1.350 . S
C615 C618 1.463 . S
C615 C620 1.350 . S
C615 N623 1.427 . S
C616 H607 0.930 . S
C616 C614 1.378 . S
C616 C617 1.367 . S
C617 C616 1.367 . S
C617 C619 1.433 . S
C618 C614 1.350 . S
C618 C615 1.463 . S
C618 N622 1.427 . S
C619 H609 0.929 . S
C619 C617 1.433 . S
C619 N622 1.384 . S
C620 H611 0.929 . S
C620 C612 1.378 . S
C620 C615 1.350 . S
C621 H608 0.929 . S
C621 C613 1.433 . S
C621 N623 1.384 . S
N622 C618 1.427 . S
N622 C619 1.384 . S
N623 C615 1.427 . S
N623 C621 1.384 . S
H624 C630 0.930 . S
H625 C634 0.930 . S
H626 C639 0.929 . S
H627 C637 0.929 . S
H628 C632 0.929 . S
H629 C638 0.929 . S
C630 H624 0.930 . S
C630 C631 1.367 . S
C630 C638 1.378 . S
C631 C630 1.367 . S
C631 C639 1.433 . S
C632 H628 0.929 . S
C632 C634 1.378 . S
C632 C636 1.350 . S
C633 C636 1.463 . S
C633 C638 1.350 . S
C633 N641 1.427 . S
C634 H625 0.930 . S
C634 C632 1.378 . S
C634 C635 1.367 . S
C635 C634 1.367 . S
C635 C637 1.433 . S
C636 C632 1.350 . S
C636 C633 1.463 . S
C636 N640 1.427 . S
C637 H627 0.929 . S
C637 C635 1.433 . S
C637 N640 1.384 . S
C638 H629 0.929 . S
C638 C630 1.378 . S
C638 C633 1.350 . S
C639 H626 0.929 . S
C639 C631 1.433 . S
C639 N641 1.384 . S
N640 C636 1.427 . S
N640 C637 1.384 . S
N641 C633 1.427 . S
N641 C639 1.384 . S
H642 C648 0.930 . S
H643 C652 0.930 . S
H644 C657 0.929 . S
H645 C655 0.929 . S
H646 C650 0.929 . S
H647 C656 0.929 . S
C648 H642 0.930 . S
C648 C649 1.367 . S
C648 C656 1.378 . S
C649 C648 1.367 . S
C649 C657 1.433 . S
C650 H646 0.929 . S
C650 C652 1.378 . S
C650 C654 1.350 . S
C651 C654 1.463 1_556 S
C651 C656 1.350 . S
C651 N659 1.427 . S
C652 H643 0.930 . S
C652 C650 1.378 . S
C652 C653 1.367 . S
C653 C652 1.367 . S
C653 C655 1.433 . S
C654 C650 1.350 . S
C654 C651 1.463 1_554 S
C654 N658 1.427 . S
C655 H645 0.929 . S
C655 C653 1.433 . S
C655 N658 1.384 . S
C656 H647 0.929 . S
C656 C648 1.378 . S
C656 C651 1.350 . S
C657 H644 0.929 . S
C657 C649 1.433 . S
C657 N659 1.384 . S
N658 C654 1.427 . S
N658 C655 1.384 . S
N659 C651 1.427 . S
N659 C657 1.384 . S
H660 C666 0.930 . S
H661 C670 0.930 . S
H662 C675 0.929 . S
H663 C673 0.929 . S
H664 C668 0.929 . S
H665 C674 0.929 . S
C666 H660 0.930 . S
C666 C667 1.367 . S
C666 C674 1.378 . S
C667 C666 1.367 . S
C667 C675 1.433 . S
C668 H664 0.929 . S
C668 C670 1.378 . S
C668 C672 1.350 . S
C669 C672 1.463 . S
C669 C674 1.350 . S
C669 N677 1.427 . S
C670 H661 0.930 . S
C670 C668 1.378 . S
C670 C671 1.367 . S
C671 C670 1.367 . S
C671 C673 1.433 . S
C672 C668 1.350 . S
C672 C669 1.463 . S
C672 N676 1.427 . S
C673 H663 0.929 . S
C673 C671 1.433 . S
C673 N676 1.384 . S
C674 H665 0.929 . S
C674 C666 1.378 . S
C674 C669 1.350 . S
C675 H662 0.929 . S
C675 C667 1.433 . S
C675 N677 1.384 . S
N676 C672 1.427 . S
N676 C673 1.384 . S
N677 C669 1.427 . S
N677 C675 1.384 . S
H678 C684 0.930 . S
H679 C688 0.930 . S
H680 C693 0.929 . S
H681 C691 0.929 . S
H682 C686 0.929 . S
H683 C692 0.929 . S
C684 H678 0.930 . S
C684 C685 1.367 . S
C684 C692 1.378 . S
C685 C684 1.367 . S
C685 C693 1.433 . S
C686 H682 0.929 . S
C686 C688 1.378 . S
C686 C690 1.350 . S
C687 C690 1.463 . S
C687 C692 1.350 . S
C687 N695 1.427 . S
C688 H679 0.930 . S
C688 C686 1.378 . S
C688 C689 1.367 . S
C689 C688 1.367 . S
C689 C691 1.433 . S
C690 C686 1.350 . S
C690 C687 1.463 . S
C690 N694 1.427 . S
C691 H681 0.929 . S
C691 C689 1.433 . S
C691 N694 1.384 . S
C692 H683 0.929 . S
C692 C684 1.378 . S
C692 C687 1.350 . S
C693 H680 0.929 . S
C693 C685 1.433 . S
C693 N695 1.384 . S
N694 C690 1.427 . S
N694 C691 1.384 . S
N695 C687 1.427 . S
N695 C693 1.384 . S
H696 C702 0.930 . S
H697 C706 0.930 . S
H698 C711 0.937 . S
H699 C709 0.940 . S
H700 C704 0.929 1_556 S
H701 C710 0.929 1_554 S
C702 H696 0.930 . S
C702 C703 1.367 . S
C702 C710 1.378 . S
C703 C702 1.367 . S
C703 C711 1.433 . S
C704 H700 0.929 1_554 S
C704 C706 1.378 . S
C704 C708 1.350 . S
C705 C708 1.463 1_566 S
C705 C710 1.350 . S
C705 N713 1.427 1_565 S
C706 H697 0.930 . S
C706 C704 1.378 . S
C706 C707 1.367 . S
C707 C706 1.367 . S
C707 C709 1.433 . S
C708 C704 1.350 . S
C708 C705 1.463 1_544 S
C708 N712 1.427 1_545 S
C709 H699 0.940 . S
C709 C707 1.433 . S
C709 N712 1.384 1_545 S
C710 H701 0.929 1_556 S
C710 C702 1.378 . S
C710 C705 1.350 . S
C711 H698 0.937 . S
C711 C703 1.433 . S
C711 N713 1.384 1_565 S
N712 C708 1.427 1_565 S
N712 C709 1.384 1_565 S
N713 C705 1.427 1_545 S
N713 C711 1.384 1_545 S
H714 C720 0.930 . S
H715 C724 0.930 . S
H716 C729 0.929 . S
H717 C727 0.929 . S
H718 C722 0.929 . S
H719 C728 0.929 . S
C720 H714 0.930 . S
C720 C721 1.367 . S
C720 C728 1.378 . S
C721 C720 1.367 . S
C721 C729 1.433 . S
C722 H718 0.929 . S
C722 C724 1.378 . S
C722 C726 1.350 . S
C723 C726 1.463 . S
C723 C728 1.350 . S
C723 N731 1.427 . S
C724 H715 0.930 . S
C724 C722 1.378 . S
C724 C725 1.367 . S
C725 C724 1.367 . S
C725 C727 1.433 . S
C726 C722 1.350 . S
C726 C723 1.463 . S
C726 N730 1.427 . S
C727 H717 0.929 . S
C727 C725 1.433 . S
C727 N730 1.384 . S
C728 H719 0.929 . S
C728 C720 1.378 . S
C728 C723 1.350 . S
C729 H716 0.929 . S
C729 C721 1.433 . S
C729 N731 1.384 . S
N730 C726 1.427 . S
N730 C727 1.384 . S
N731 C723 1.427 . S
N731 C729 1.384 . S
H732 C738 0.930 . S
H733 C742 0.930 . S
H734 C747 0.929 . S
H735 C745 0.929 . S
H736 C740 0.929 . S
H737 C746 0.929 . S
C738 H732 0.930 . S
C738 C739 1.367 . S
C738 C746 1.378 . S
C739 C738 1.367 . S
C739 C747 1.433 . S
C740 H736 0.929 . S
C740 C742 1.378 . S
C740 C744 1.350 . S
C741 C744 1.463 1_455 S
C741 C746 1.350 . S
C741 N749 1.427 . S
C742 H733 0.930 . S
C742 C740 1.378 . S
C742 C743 1.367 . S
C743 C742 1.367 . S
C743 C745 1.433 . S
C744 C740 1.350 . S
C744 C741 1.463 1_655 S
C744 N748 1.427 . S
C745 H735 0.929 . S
C745 C743 1.433 . S
C745 N748 1.384 . S
C746 H737 0.929 . S
C746 C738 1.378 . S
C746 C741 1.350 . S
C747 H734 0.929 . S
C747 C739 1.433 . S
C747 N749 1.384 . S
N748 C744 1.427 . S
N748 C745 1.384 . S
N749 C741 1.427 . S
N749 C747 1.384 . S
H750 C756 0.914 1_545 S
H751 C760 0.912 1_565 S
H752 C765 0.929 . S
H753 C763 0.929 . S
H754 C758 0.929 . S
H755 C764 0.929 . S
C756 H750 0.914 1_565 S
C756 C757 1.367 . S
C756 C764 1.378 1_565 S
C757 C756 1.367 . S
C757 C765 1.433 . S
C758 H754 0.929 . S
C758 C760 1.378 1_565 S
C758 C762 1.350 1_565 S
C759 C762 1.463 1_564 S
C759 C764 1.350 1_565 S
C759 N767 1.427 . S
C760 H751 0.912 1_545 S
C760 C758 1.378 1_545 S
C760 C761 1.367 . S
C761 C760 1.367 . S
C761 C763 1.433 . S
C762 C758 1.350 1_545 S
C762 C759 1.463 1_546 S
C762 N766 1.427 . S
C763 H753 0.929 . S
C763 C761 1.433 . S
C763 N766 1.384 . S
C764 H755 0.929 . S
C764 C756 1.378 1_545 S
C764 C759 1.350 1_545 S
C765 H752 0.929 . S
C765 C757 1.433 . S
C765 N767 1.384 . S
N766 C762 1.427 . S
N766 C763 1.384 . S
N767 C759 1.427 . S
N767 C765 1.384 . S
H768 C774 0.930 . S
H769 C778 0.930 . S
H770 C783 0.929 . S
H771 C781 0.929 . S
H772 C776 0.929 . S
H773 C782 0.929 . S
C774 H768 0.930 . S
C774 C775 1.367 . S
C774 C782 1.378 . S
C775 C774 1.367 . S
C775 C783 1.433 . S
C776 H772 0.929 . S
C776 C778 1.378 . S
C776 C780 1.350 . S
C777 C780 1.463 . S
C777 C782 1.350 . S
C777 N785 1.427 . S
C778 H769 0.930 . S
C778 C776 1.378 . S
C778 C779 1.367 . S
C779 C778 1.367 . S
C779 C781 1.433 . S
C780 C776 1.350 . S
C780 C777 1.463 . S
C780 N784 1.427 . S
C781 H771 0.929 . S
C781 C779 1.433 . S
C781 N784 1.384 . S
C782 H773 0.929 . S
C782 C774 1.378 . S
C782 C777 1.350 . S
C783 H770 0.929 . S
C783 C775 1.433 . S
C783 N785 1.384 . S
N784 C780 1.427 . S
N784 C781 1.384 . S
N785 C777 1.427 . S
N785 C783 1.384 . S
H786 C792 0.930 . S
H787 C796 0.930 . S
H788 C801 0.929 . S
H789 C799 0.929 . S
H790 C794 0.929 . S
H791 C800 0.929 . S
C792 H786 0.930 . S
C792 C793 1.367 . S
C792 C800 1.378 . S
C793 C792 1.367 . S
C793 C801 1.433 . S
C794 H790 0.929 . S
C794 C796 1.378 . S
C794 C798 1.350 . S
C795 C798 1.463 1_455 S
C795 C800 1.350 . S
C795 N803 1.427 . S
C796 H787 0.930 . S
C796 C794 1.378 . S
C796 C797 1.367 . S
C797 C796 1.367 . S
C797 C799 1.433 . S
C798 C794 1.350 . S
C798 C795 1.463 1_655 S
C798 N802 1.427 . S
C799 H789 0.929 . S
C799 C797 1.433 . S
C799 N802 1.384 . S
C800 H791 0.929 . S
C800 C792 1.378 . S
C800 C795 1.350 . S
C801 H788 0.929 . S
C801 C793 1.433 . S
C801 N803 1.384 . S
N802 C798 1.427 . S
N802 C799 1.384 . S
N803 C795 1.427 . S
N803 C801 1.384 . S
H804 C810 0.930 . S
H805 C814 0.930 . S
H806 C819 0.929 . S
H807 C817 0.929 . S
H808 C812 0.929 . S
H809 C818 0.929 . S
C810 H804 0.930 . S
C810 C811 1.367 . S
C810 C818 1.378 . S
C811 C810 1.367 . S
C811 C819 1.433 . S
C812 H808 0.929 . S
C812 C814 1.378 . S
C812 C816 1.350 . S
C813 C816 1.463 1_545 S
C813 C818 1.350 . S
C813 N821 1.427 . S
C814 H805 0.930 . S
C814 C812 1.378 . S
C814 C815 1.367 . S
C815 C814 1.367 . S
C815 C817 1.433 . S
C816 C812 1.350 . S
C816 C813 1.463 1_565 S
C816 N820 1.427 . S
C817 H807 0.929 . S
C817 C815 1.433 . S
C817 N820 1.384 . S
C818 H809 0.929 . S
C818 C810 1.378 . S
C818 C813 1.350 . S
C819 H806 0.929 . S
C819 C811 1.433 . S
C819 N821 1.384 . S
N820 C816 1.427 . S
N820 C817 1.384 . S
N821 C813 1.427 . S
N821 C819 1.384 . S
H822 C828 0.930 . S
H823 C832 0.930 . S
H824 C837 0.929 . S
H825 C835 0.929 . S
H826 C830 0.929 . S
H827 C836 0.929 . S
C828 H822 0.930 . S
C828 C829 1.367 . S
C828 C836 1.378 . S
C829 C828 1.367 . S
C829 C837 1.433 . S
C830 H826 0.929 . S
C830 C832 1.378 . S
C830 C834 1.350 . S
C831 C834 1.463 . S
C831 C836 1.350 . S
C831 N839 1.427 . S
C832 H823 0.930 . S
C832 C830 1.378 . S
C832 C833 1.367 . S
C833 C832 1.367 . S
C833 C835 1.433 . S
C834 C830 1.350 . S
C834 C831 1.463 . S
C834 N838 1.427 . S
C835 H825 0.929 . S
C835 C833 1.433 . S
C835 N838 1.384 . S
C836 H827 0.929 . S
C836 C828 1.378 . S
C836 C831 1.350 . S
C837 H824 0.929 . S
C837 C829 1.433 . S
C837 N839 1.384 . S
N838 C834 1.427 . S
N838 C835 1.384 . S
N839 C831 1.427 . S
N839 C837 1.384 . S
H840 C846 0.930 . S
H841 C850 0.930 . S
H842 C855 0.929 . S
H843 C853 0.929 . S
H844 C848 0.929 . S
H845 C854 0.929 . S
C846 H840 0.930 . S
C846 C847 1.367 . S
C846 C854 1.378 . S
C847 C846 1.367 . S
C847 C855 1.433 . S
C848 H844 0.929 . S
C848 C850 1.378 . S
C848 C852 1.350 . S
C849 C852 1.463 1_655 S
C849 C854 1.350 . S
C849 N857 1.427 . S
C850 H841 0.930 . S
C850 C848 1.378 . S
C850 C851 1.367 . S
C851 C850 1.367 . S
C851 C853 1.433 . S
C852 C848 1.350 . S
C852 C849 1.463 1_455 S
C852 N856 1.427 . S
C853 H843 0.929 . S
C853 C851 1.433 . S
C853 N856 1.384 . S
C854 H845 0.929 . S
C854 C846 1.378 . S
C854 C849 1.350 . S
C855 H842 0.929 . S
C855 C847 1.433 . S
C855 N857 1.384 . S
N856 C852 1.427 . S
N856 C853 1.384 . S
N857 C849 1.427 . S
N857 C855 1.384 . S
H858 C864 0.930 . S
H859 C868 0.930 . S
H860 C873 0.929 . S
H861 C871 0.929 . S
H862 C866 0.929 . S
H863 C872 0.929 . S
C864 H858 0.930 . S
C864 C865 1.367 . S
C864 C872 1.378 . S
C865 C864 1.367 . S
C865 C873 1.433 . S
C866 H862 0.929 . S
C866 C868 1.378 . S
C866 C870 1.350 . S
C867 C870 1.463 1_455 S
C867 C872 1.350 . S
C867 N875 1.427 . S
C868 H859 0.930 . S
C868 C866 1.378 . S
C868 C869 1.367 . S
C869 C868 1.367 . S
C869 C871 1.433 . S
C870 C866 1.350 . S
C870 C867 1.463 1_655 S
C870 N874 1.427 . S
C871 H861 0.929 . S
C871 C869 1.433 . S
C871 N874 1.384 . S
C872 H863 0.929 . S
C872 C864 1.378 . S
C872 C867 1.350 . S
C873 H860 0.929 . S
C873 C865 1.433 . S
C873 N875 1.384 . S
N874 C870 1.427 . S
N874 C871 1.384 . S
N875 C867 1.427 . S
N875 C873 1.384 . S
H876 C882 0.930 . S
H877 C886 0.930 . S
H878 C891 0.929 . S
H879 C889 0.929 . S
H880 C884 0.929 1_565 S
H881 C890 0.929 1_545 S
C882 H876 0.930 . S
C882 C883 1.367 . S
C882 C890 1.378 . S
C883 C882 1.367 . S
C883 C891 1.433 . S
C884 H880 0.929 1_545 S
C884 C886 1.378 . S
C884 C888 1.350 . S
C885 C888 1.463 1_565 S
C885 C890 1.350 . S
C885 N893 1.427 . S
C886 H877 0.930 . S
C886 C884 1.378 . S
C886 C887 1.367 . S
C887 C886 1.367 . S
C887 C889 1.433 . S
C888 C884 1.350 . S
C888 C885 1.463 1_545 S
C888 N892 1.427 . S
C889 H879 0.929 . S
C889 C887 1.433 . S
C889 N892 1.384 . S
C890 H881 0.929 1_565 S
C890 C882 1.378 . S
C890 C885 1.350 . S
C891 H878 0.929 . S
C891 C883 1.433 . S
C891 N893 1.384 . S
N892 C888 1.427 . S
N892 C889 1.384 . S
N893 C885 1.427 . S
N893 C891 1.384 . S
H894 C900 0.930 . S
H895 C904 0.930 . S
H896 C909 0.929 . S
H897 C907 0.929 . S
H898 C902 0.929 . S
H899 C908 0.929 . S
C900 H894 0.930 . S
C900 C901 1.367 . S
C900 C908 1.378 . S
C901 C900 1.367 . S
C901 C909 1.433 . S
C902 H898 0.929 . S
C902 C904 1.378 . S
C902 C906 1.350 . S
C903 C906 1.463 . S
C903 C908 1.350 . S
C903 N911 1.427 . S
C904 H895 0.930 . S
C904 C902 1.378 . S
C904 C905 1.367 . S
C905 C904 1.367 . S
C905 C907 1.433 . S
C906 C902 1.350 . S
C906 C903 1.463 . S
C906 N910 1.427 . S
C907 H897 0.929 . S
C907 C905 1.433 . S
C907 N910 1.384 . S
C908 H899 0.929 . S
C908 C900 1.378 . S
C908 C903 1.350 . S
C909 H896 0.929 . S
C909 C901 1.433 . S
C909 N911 1.384 . S
N910 C906 1.427 . S
N910 C907 1.384 . S
N911 C903 1.427 . S
N911 C909 1.384 . S
H912 C918 0.930 . S
H913 C922 0.930 . S
H914 C927 0.929 . S
H915 C925 0.929 . S
H916 C920 0.929 . S
H917 C926 0.929 . S
C918 H912 0.930 . S
C918 C919 1.367 . S
C918 C926 1.378 . S
C919 C918 1.367 . S
C919 C927 1.433 . S
C920 H916 0.929 . S
C920 C922 1.378 . S
C920 C924 1.350 . S
C921 C924 1.463 1_565 S
C921 C926 1.350 . S
C921 N929 1.427 . S
C922 H913 0.930 . S
C922 C920 1.378 . S
C922 C923 1.367 . S
C923 C922 1.367 . S
C923 C925 1.433 . S
C924 C920 1.350 . S
C924 C921 1.463 1_545 S
C924 N928 1.427 . S
C925 H915 0.929 . S
C925 C923 1.433 . S
C925 N928 1.384 . S
C926 H917 0.929 . S
C926 C918 1.378 . S
C926 C921 1.350 . S
C927 H914 0.929 . S
C927 C919 1.433 . S
C927 N929 1.384 . S
N928 C924 1.427 . S
N928 C925 1.384 . S
N929 C921 1.427 . S
N929 C927 1.384 . S
H930 C936 0.930 . S
H931 C940 0.930 . S
H932 C945 0.929 . S
H933 C943 0.929 . S
H934 C938 0.929 . S
H935 C944 0.929 . S
C936 H930 0.930 . S
C936 C937 1.367 . S
C936 C944 1.378 . S
C937 C936 1.367 . S
C937 C945 1.433 . S
C938 H934 0.929 . S
C938 C940 1.378 . S
C938 C942 1.350 . S
C939 C942 1.463 . S
C939 C944 1.350 . S
C939 N947 1.427 . S
C940 H931 0.930 . S
C940 C938 1.378 . S
C940 C941 1.367 . S
C941 C940 1.367 . S
C941 C943 1.433 . S
C942 C938 1.350 . S
C942 C939 1.463 . S
C942 N946 1.427 . S
C943 H933 0.929 . S
C943 C941 1.433 . S
C943 N946 1.384 . S
C944 H935 0.929 . S
C944 C936 1.378 . S
C944 C939 1.350 . S
C945 H932 0.929 . S
C945 C937 1.433 . S
C945 N947 1.384 . S
N946 C942 1.427 . S
N946 C943 1.384 . S
N947 C939 1.427 . S
N947 C945 1.384 . S
H948 C954 0.930 . S
H949 C958 0.930 . S
H950 C963 0.929 . S
H951 C961 0.929 . S
H952 C956 0.929 . S
H953 C962 0.929 . S
C954 H948 0.930 . S
C954 C955 1.367 . S
C954 C962 1.378 . S
C955 C954 1.367 . S
C955 C963 1.433 . S
C956 H952 0.929 . S
C956 C958 1.378 . S
C956 C960 1.350 . S
C957 C960 1.463 1_655 S
C957 C962 1.350 . S
C957 N965 1.427 . S
C958 H949 0.930 . S
C958 C956 1.378 . S
C958 C959 1.367 . S
C959 C958 1.367 . S
C959 C961 1.433 . S
C960 C956 1.350 . S
C960 C957 1.463 1_455 S
C960 N964 1.427 . S
C961 H951 0.929 . S
C961 C959 1.433 . S
C961 N964 1.384 . S
C962 H953 0.929 . S
C962 C954 1.378 . S
C962 C957 1.350 . S
C963 H950 0.929 . S
C963 C955 1.433 . S
C963 N965 1.384 . S
N964 C960 1.427 . S
N964 C961 1.384 . S
N965 C957 1.427 . S
N965 C963 1.384 . S
H966 C972 0.930 . S
H967 C976 0.930 . S
H968 C981 0.929 . S
H969 C979 0.929 . S
H970 C974 0.929 . S
H971 C980 0.929 . S
C972 H966 0.930 . S
C972 C973 1.367 . S
C972 C980 1.378 . S
C973 C972 1.367 . S
C973 C981 1.433 . S
C974 H970 0.929 . S
C974 C976 1.378 . S
C974 C978 1.350 . S
C975 C978 1.463 1_545 S
C975 C980 1.350 . S
C975 N983 1.427 . S
C976 H967 0.930 . S
C976 C974 1.378 . S
C976 C977 1.367 . S
C977 C976 1.367 . S
C977 C979 1.433 . S
C978 C974 1.350 . S
C978 C975 1.463 1_565 S
C978 N982 1.427 . S
C979 H969 0.929 . S
C979 C977 1.433 . S
C979 N982 1.384 . S
C980 H971 0.929 . S
C980 C972 1.378 . S
C980 C975 1.350 . S
C981 H968 0.929 . S
C981 C973 1.433 . S
C981 N983 1.384 . S
N982 C978 1.427 . S
N982 C979 1.384 . S
N983 C975 1.427 . S
N983 C981 1.384 . S
H984 C990 0.930 . S
H985 C994 0.930 . S
H986 C999 0.929 . S
H987 C997 0.929 . S
H988 C992 0.929 . S
H989 C998 0.929 . S
C990 H984 0.930 . S
C990 C991 1.367 . S
C990 C998 1.378 . S
C991 C990 1.367 . S
C991 C999 1.433 . S
C992 H988 0.929 . S
C992 C994 1.378 . S
C992 C996 1.350 . S
C993 C996 1.463 . S
C993 C998 1.350 . S
C993 N1001 1.427 . S
C994 H985 0.930 . S
C994 C992 1.378 . S
C994 C995 1.367 . S
C995 C994 1.367 . S
C995 C997 1.433 . S
C996 C992 1.350 . S
C996 C993 1.463 . S
C996 N1000 1.427 . S
C997 H987 0.929 . S
C997 C995 1.433 . S
C997 N1000 1.384 . S
C998 H989 0.929 . S
C998 C990 1.378 . S
C998 C993 1.350 . S
C999 H986 0.929 . S
C999 C991 1.433 . S
C999 N1001 1.384 . S
N1000 C996 1.427 . S
N1000 C997 1.384 . S
N1001 C993 1.427 . S
N1001 C999 1.384 . S
H1002 C1008 0.930 . S
H1003 C1012 0.930 . S
H1004 C1017 0.929 . S
H1005 C1015 0.929 . S
H1006 C1010 0.929 1_455 S
H1007 C1016 0.929 1_655 S
C1008 H1002 0.930 . S
C1008 C1009 1.367 . S
C1008 C1016 1.378 . S
C1009 C1008 1.367 . S
C1009 C1017 1.433 . S
C1010 H1006 0.929 1_655 S
C1010 C1012 1.378 . S
C1010 C1014 1.350 . S
C1011 C1014 1.463 1_455 S
C1011 C1016 1.350 . S
C1011 N1019 1.427 . S
C1012 H1003 0.930 . S
C1012 C1010 1.378 . S
C1012 C1013 1.367 . S
C1013 C1012 1.367 . S
C1013 C1015 1.433 . S
C1014 C1010 1.350 . S
C1014 C1011 1.463 1_655 S
C1014 N1018 1.427 . S
C1015 H1005 0.929 . S
C1015 C1013 1.433 . S
C1015 N1018 1.384 . S
C1016 H1007 0.929 1_455 S
C1016 C1008 1.378 . S
C1016 C1011 1.350 . S
C1017 H1004 0.929 . S
C1017 C1009 1.433 . S
C1017 N1019 1.384 . S
N1018 C1014 1.427 . S
N1018 C1015 1.384 . S
N1019 C1011 1.427 . S
N1019 C1017 1.384 . S
H1020 C1026 0.930 . S
H1021 C1030 0.930 . S
H1022 C1035 0.929 . S
H1023 C1033 0.929 . S
H1024 C1028 0.929 . S
H1025 C1034 0.929 . S
C1026 H1020 0.930 . S
C1026 C1027 1.367 . S
C1026 C1034 1.378 . S
C1027 C1026 1.367 . S
C1027 C1035 1.433 . S
C1028 H1024 0.929 . S
C1028 C1030 1.378 . S
C1028 C1032 1.350 . S
C1029 C1032 1.463 . S
C1029 C1034 1.350 . S
C1029 N1037 1.427 . S
C1030 H1021 0.930 . S
C1030 C1028 1.378 . S
C1030 C1031 1.367 . S
C1031 C1030 1.367 . S
C1031 C1033 1.433 . S
C1032 C1028 1.350 . S
C1032 C1029 1.463 . S
C1032 N1036 1.427 . S
C1033 H1023 0.929 . S
C1033 C1031 1.433 . S
C1033 N1036 1.384 . S
C1034 H1025 0.929 . S
C1034 C1026 1.378 . S
C1034 C1029 1.350 . S
C1035 H1022 0.929 . S
C1035 C1027 1.433 . S
C1035 N1037 1.384 . S
N1036 C1032 1.427 . S
N1036 C1033 1.384 . S
N1037 C1029 1.427 . S
N1037 C1035 1.384 . S
H1038 C1044 0.930 . S
H1039 C1048 0.930 . S
H1040 C1053 0.929 . S
H1041 C1051 0.929 . S
H1042 C1046 0.929 . S
H1043 C1052 0.929 . S
C1044 H1038 0.930 . S
C1044 C1045 1.367 . S
C1044 C1052 1.378 . S
C1045 C1044 1.367 . S
C1045 C1053 1.433 . S
C1046 H1042 0.929 . S
C1046 C1048 1.378 . S
C1046 C1050 1.350 . S
C1047 C1050 1.463 . S
C1047 C1052 1.350 . S
C1047 N1055 1.427 . S
C1048 H1039 0.930 . S
C1048 C1046 1.378 . S
C1048 C1049 1.367 . S
C1049 C1048 1.367 . S
C1049 C1051 1.433 . S
C1050 C1046 1.350 . S
C1050 C1047 1.463 . S
C1050 N1054 1.427 . S
C1051 H1041 0.929 . S
C1051 C1049 1.433 . S
C1051 N1054 1.384 . S
C1052 H1043 0.929 . S
C1052 C1044 1.378 . S
C1052 C1047 1.350 . S
C1053 H1040 0.929 . S
C1053 C1045 1.433 . S
C1053 N1055 1.384 . S
N1054 C1050 1.427 . S
N1054 C1051 1.384 . S
N1055 C1047 1.427 . S
N1055 C1053 1.384 . S
H1056 C1062 0.930 . S
H1057 C1066 0.930 . S
H1058 C1071 0.929 . S
H1059 C1069 0.929 . S
H1060 C1064 0.929 . S
H1061 C1070 0.929 . S
C1062 H1056 0.930 . S
C1062 C1063 1.367 . S
C1062 C1070 1.378 . S
C1063 C1062 1.367 . S
C1063 C1071 1.433 . S
C1064 H1060 0.929 . S
C1064 C1066 1.378 . S
C1064 C1068 1.350 . S
C1065 C1068 1.463 . S
C1065 C1070 1.350 . S
C1065 N1073 1.427 . S
C1066 H1057 0.930 . S
C1066 C1064 1.378 . S
C1066 C1067 1.367 . S
C1067 C1066 1.367 . S
C1067 C1069 1.433 . S
C1068 C1064 1.350 . S
C1068 C1065 1.463 . S
C1068 N1072 1.427 . S
C1069 H1059 0.929 . S
C1069 C1067 1.433 . S
C1069 N1072 1.384 . S
C1070 H1061 0.929 . S
C1070 C1062 1.378 . S
C1070 C1065 1.350 . S
C1071 H1058 0.929 . S
C1071 C1063 1.433 . S
C1071 N1073 1.384 . S
N1072 C1068 1.427 . S
N1072 C1069 1.384 . S
N1073 C1065 1.427 . S
N1073 C1071 1.384 . S
H1074 C1080 0.930 . S
H1075 C1084 0.930 . S
H1076 C1089 0.929 . S
H1077 C1087 0.929 . S
H1078 C1082 0.929 . S
H1079 C1088 0.929 . S
C1080 H1074 0.930 . S
C1080 C1081 1.367 . S
C1080 C1088 1.378 . S
C1081 C1080 1.367 . S
C1081 C1089 1.433 . S
C1082 H1078 0.929 . S
C1082 C1084 1.378 . S
C1082 C1086 1.350 . S
C1083 C1086 1.463 . S
C1083 C1088 1.350 . S
C1083 N1091 1.427 . S
C1084 H1075 0.930 . S
C1084 C1082 1.378 . S
C1084 C1085 1.367 . S
C1085 C1084 1.367 . S
C1085 C1087 1.433 . S
C1086 C1082 1.350 . S
C1086 C1083 1.463 . S
C1086 N1090 1.427 . S
C1087 H1077 0.929 . S
C1087 C1085 1.433 . S
C1087 N1090 1.384 . S
C1088 H1079 0.929 . S
C1088 C1080 1.378 . S
C1088 C1083 1.350 . S
C1089 H1076 0.929 . S
C1089 C1081 1.433 . S
C1089 N1091 1.384 . S
N1090 C1086 1.427 . S
N1090 C1087 1.384 . S
N1091 C1083 1.427 . S
N1091 C1089 1.384 . S
H1092 C1098 0.930 . S
H1093 C1102 0.930 . S
H1094 C1107 0.929 . S
H1095 C1105 0.929 . S
H1096 C1100 0.929 . S
H1097 C1106 0.929 . S
C1098 H1092 0.930 . S
C1098 C1099 1.367 . S
C1098 C1106 1.378 . S
C1099 C1098 1.367 . S
C1099 C1107 1.433 . S
C1100 H1096 0.929 . S
C1100 C1102 1.378 . S
C1100 C1104 1.350 . S
C1101 C1104 1.463 . S
C1101 C1106 1.350 . S
C1101 N1109 1.427 . S
C1102 H1093 0.930 . S
C1102 C1100 1.378 . S
C1102 C1103 1.367 . S
C1103 C1102 1.367 . S
C1103 C1105 1.433 . S
C1104 C1100 1.350 . S
C1104 C1101 1.463 . S
C1104 N1108 1.427 . S
C1105 H1095 0.929 . S
C1105 C1103 1.433 . S
C1105 N1108 1.384 . S
C1106 H1097 0.929 . S
C1106 C1098 1.378 . S
C1106 C1101 1.350 . S
C1107 H1094 0.929 . S
C1107 C1099 1.433 . S
C1107 N1109 1.384 . S
N1108 C1104 1.427 . S
N1108 C1105 1.384 . S
N1109 C1101 1.427 . S
N1109 C1107 1.384 . S
H1110 C1116 0.930 . S
H1111 C1120 0.930 . S
H1112 C1125 0.929 . S
H1113 C1123 0.929 . S
H1114 C1118 0.929 . S
H1115 C1124 0.929 . S
C1116 H1110 0.930 . S
C1116 C1117 1.367 . S
C1116 C1124 1.378 . S
C1117 C1116 1.367 . S
C1117 C1125 1.433 . S
C1118 H1114 0.929 . S
C1118 C1120 1.378 . S
C1118 C1122 1.350 . S
C1119 C1122 1.463 . S
C1119 C1124 1.350 . S
C1119 N1127 1.427 . S
C1120 H1111 0.930 . S
C1120 C1118 1.378 . S
C1120 C1121 1.367 . S
C1121 C1120 1.367 . S
C1121 C1123 1.433 . S
C1122 C1118 1.350 . S
C1122 C1119 1.463 . S
C1122 N1126 1.427 . S
C1123 H1113 0.929 . S
C1123 C1121 1.433 . S
C1123 N1126 1.384 . S
C1124 H1115 0.929 . S
C1124 C1116 1.378 . S
C1124 C1119 1.350 . S
C1125 H1112 0.929 . S
C1125 C1117 1.433 . S
C1125 N1127 1.384 . S
N1126 C1122 1.427 . S
N1126 C1123 1.384 . S
N1127 C1119 1.427 . S
N1127 C1125 1.384 . S
C487 C2 1.101 . S
C491 C322 1.110 . S
C505 C42 1.114 . S
C509 C362 1.111 . S
C523 C82 1.114 . S
C527 C402 1.113 . S
C541 C442 1.098 . S
C545 C122 1.099 . S
C559 C162 1.105 . S
C563 C242 1.113 . S
C577 C282 1.109 . S
C581 C202 1.101 . S
C595 C426 1.609 . S
C599 C26 1.605 . S
C613 C466 1.606 . S
C617 C66 1.605 . S
C631 C106 1.619 . S
C635 C266 1.615 . S
C649 C306 1.605 . S
C653 C146 1.607 . S
C667 C346 1.605 . S
C671 C186 1.606 . S
C685 C226 1.607 . S
C689 C386 1.614 . S
C703 C283 4.377 . S
C707 C3 4.379 . S
C721 C323 4.376 . S
C725 C43 4.377 . S
C739 C363 4.377 . S
C743 C83 4.379 . S
C757 C123 4.376 . S
C761 C403 4.377 . S
C775 C163 4.377 . S
C779 C443 4.377 . S
C793 C203 4.377 . S
C797 C243 4.379 . S
C811 C15 0.464 . S
C815 C135 0.491 . S
C829 C55 0.490 . S
C833 C175 0.502 . S
C847 C95 0.453 . S
C851 C215 0.472 . S
C865 C375 0.453 . S
C869 C255 0.471 . S
C883 C295 0.490 . S
C887 C415 0.502 . S
C901 C455 0.499 . S
C905 C335 0.474 . S
C919 C289 0.716 . S
C923 C9 0.710 . S
C937 C329 0.679 . S
C941 C49 0.687 . S
C955 C89 0.689 . S
C959 C369 0.700 . S
C973 C409 0.703 . S
C977 C129 0.691 . S
C991 C449 0.693 . S
C995 C169 0.683 . S
C1009 C209 0.683 . S
C1013 C249 0.677 . S
C1027 C22 4.615 . S
C1031 C422 4.613 . S
C1045 C62 4.612 . S
C1049 C462 4.615 1_556 S
C1063 C102 4.612 1_554 S
C1067 C262 4.614 . S
C1081 C142 4.615 . S
C1085 C302 4.612 . S
C1099 C182 4.615 . S
C1103 C342 4.612 1_556 S
C1117 C382 4.612 . S
C1121 C222 4.615 1_554 S
