# Generated by pormake.
# Topology wkc, (5)-cn, num edge types: 1
# Building blocks:
#     Node 0, Type 0, BuildingBlock: BEQFEK_clean_sbu_0, # of connection points: 5
#     Node 1, Type 0, BuildingBlock: BEQFEK_clean_sbu_0, # of connection points: 5
#     Node 2, Type 0, BuildingBlock: BEQFEK_clean_sbu_0, # of connection points: 5
#     Node 3, Type 0, BuildingBlock: BEQFEK_clean_sbu_0, # of connection points: 5
#     Node 4, Type 0, BuildingBlock: BEQFEK_clean_sbu_0, # of connection points: 5
#     Node 5, Type 0, BuildingBlock: BEQFEK_clean_sbu_0, # of connection points: 5
#     Node 6, Type 0, BuildingBlock: BEQFEK_clean_sbu_0, # of connection points: 5
#     Node 7, Type 0, BuildingBlock: BEQFEK_clean_sbu_0, # of connection points: 5
#     Node 8, Type 0, BuildingBlock: BEQFEK_clean_sbu_0, # of connection points: 5
#     Node 9, Type 0, BuildingBlock: BEQFEK_clean_sbu_0, # of connection points: 5
#     Node 10, Type 0, BuildingBlock: BEQFEK_clean_sbu_0, # of connection points: 5
#     Node 11, Type 0, BuildingBlock: BEQFEK_clean_sbu_0, # of connection points: 5
#     Edge 12, Type (0, 0), None
#     Edge 13, Type (0, 0), None
#     Edge 14, Type (0, 0), None
#     Edge 15, Type (0, 0), None
#     Edge 16, Type (0, 0), None
#     Edge 17, Type (0, 0), None
#     Edge 18, Type (0, 0), None
#     Edge 19, Type (0, 0), None
#     Edge 20, Type (0, 0), None
#     Edge 21, Type (0, 0), None
#     Edge 22, Type (0, 0), None
#     Edge 23, Type (0, 0), None
#     Edge 24, Type (0, 0), None
#     Edge 25, Type (0, 0), None
#     Edge 26, Type (0, 0), None
#     Edge 27, Type (0, 0), None
#     Edge 28, Type (0, 0), None
#     Edge 29, Type (0, 0), None
#     Edge 30, Type (0, 0), None
#     Edge 31, Type (0, 0), None
#     Edge 32, Type (0, 0), None
#     Edge 33, Type (0, 0), None
#     Edge 34, Type (0, 0), None
#     Edge 35, Type (0, 0), None
#     Edge 36, Type (0, 0), None
#     Edge 37, Type (0, 0), None
#     Edge 38, Type (0, 0), None
#     Edge 39, Type (0, 0), None
#     Edge 40, Type (0, 0), None
#     Edge 41, Type (0, 0), None
# Relax obj value: 0.286
# Max RMSD: 0.174
# Mean RMSD: 0.174
data_MOF--net-wkc--node1-BEQFEK_clean_sbu_0--edge1-none
_symmetry_space_group_name_H-M    P1
_symmetry_Int_Tables_number       1
_symmetry_cell_setting            triclinic
loop_
_symmetry_equiv_pos_as_xyz
'x, y, z'
_cell_length_a     22.00243
_cell_length_b     22.000833
_cell_length_c     19.919813
_cell_angle_alpha  89.999791
_cell_angle_beta   89.999679
_cell_angle_gamma 119.99644
loop_
_atom_site_label
_atom_site_type_symbol
_atom_site_fract_x
_atom_site_fract_y
_atom_site_fract_z
_atom_type_partial_charge
Co0 Co 0.26496 0.30554 1.00347 0.0
Co1 Co 0.26876 0.42418 0.09323 0.0
C2 C 0.13284 0.3016 0.04413 0.0
O3 O 0.16004 0.27347 1.00777 0.0
O4 O 0.17111 0.35801 0.07548 0.0
C5 C 0.26198 0.20039 0.89426 0.0
O6 O 0.20382 0.18777 0.86398 0.0
C7 C 0.25372 0.54279 0.08074 0.0
C8 C 0.28284 0.59408 0.18 0.0
C9 C 0.26323 0.60072 0.11542 0.0
N10 N 0.26804 0.50383 0.12218 0.0
N11 N 0.28456 0.53379 0.18191 0.0
C12 C 0.23298 0.52519 1.00861 0.0
H13 H 0.21839 0.47019 0.99744 0.0
H14 H 0.27751 0.56063 0.97581 0.0
H15 H 0.18824 0.53336 0.99686 0.0
C16 C 0.38299 0.43351 0.93565 0.0
N17 N 0.32835 0.40215 0.97904 0.0
N18 N 0.33295 0.44989 1.02163 0.0
C19 C 0.39122 0.5118 1.00845 0.0
C20 C 0.42501 0.50405 0.95355 0.0
C21 C 0.39814 0.39545 0.88199 0.0
H22 H 0.41666 0.36195 0.90568 0.0
H23 H 0.34925 0.36058 0.854 0.0
H24 H 0.43914 0.43267 0.84696 0.0
O25 O 0.29254 0.29663 0.09918 0.0
O26 O 0.29465 0.38169 0.16277 0.0
H27 H 0.47492 0.61065 0.04594 0.0
H28 H 0.39305 0.60757 0.03214 0.0
C29 C 0.41718 0.57681 0.05016 0.0
H30 H 0.40333 0.56288 0.10361 0.0
H31 H 0.2989 0.51426 0.22298 0.0
O32 O 0.28507 0.24186 0.94488 0.0
C33 C 0.30098 0.32781 0.15579 0.0
Co34 Co 0.95501 0.2687 0.17014 0.0
Co35 Co 0.84019 0.27254 0.25989 0.0
C36 C 0.82681 0.13659 0.21079 0.0
O37 O 0.88215 0.16378 0.17444 0.0
O38 O 0.8087 0.17488 0.24213 0.0
C39 C 0.0572 0.26573 0.06095 0.0
O40 O 0.01169 0.20755 0.03068 0.0
C41 C 0.70654 0.2575 0.24741 0.0
C42 C 0.68438 0.28661 0.34668 0.0
C43 C 0.65812 0.267 0.2821 0.0
N44 N 0.75982 0.27182 0.28885 0.0
N45 N 0.74638 0.28834 0.34858 0.0
C46 C 0.7034 0.23675 0.17529 0.0
H47 H 0.74382 0.22218 0.1641 0.0
H48 H 0.71248 0.28129 0.14248 0.0
H49 H 0.6505 0.192 0.16354 0.0
C50 C 0.94509 0.38675 0.10232 0.0
N51 N 0.9218 0.33211 0.1457 0.0
N52 N 0.87867 0.33672 0.1883 0.0
C53 C 0.87504 0.395 0.17511 0.0
C54 C 0.91657 0.42878 0.12021 0.0
C55 C -0.00172 0.40189 0.04864 0.0
H56 H 0.0503 0.42043 0.07233 0.0
H57 H 0.98426 0.35299 1.02067 0.0
H58 H 0.00205 0.44288 1.0136 0.0
O59 O 0.99149 0.29627 0.26585 0.0
O60 O 0.90855 0.2984 0.32943 0.0
H61 H 0.85989 0.47871 0.2126 0.0
H62 H 0.7811 0.39683 0.1988 0.0
C63 C 0.83599 0.42096 0.21682 0.0
H64 H 0.83606 0.40711 0.27027 0.0
H65 H 0.78025 0.30267 0.38965 0.0
O66 O 0.03882 0.28882 0.11156 0.0
C67 C 0.96876 0.30472 0.32245 0.0
Co68 Co 0.68185 0.95879 0.33679 0.0
Co69 Co 0.56321 0.84394 0.42653 0.0
C70 C 0.68579 0.83059 0.37744 0.0
O71 O 0.71393 0.88594 0.34109 0.0
O72 O 0.62938 0.81246 0.40878 0.0
C73 C 0.78703 0.06095 0.22762 0.0
O74 O 0.79971 0.01543 0.19739 0.0
C75 C 0.44462 0.71028 0.41406 0.0
C76 C 0.39334 0.68812 0.51333 0.0
C77 C 0.3867 0.66186 0.44875 0.0
N78 N 0.48357 0.76356 0.4555 0.0
N79 N 0.45362 0.75013 0.51522 0.0
C80 C 0.46222 0.70712 0.34193 0.0
H81 H 0.51721 0.74754 0.33075 0.0
H82 H 0.42676 0.71621 0.30913 0.0
H83 H 0.45406 0.65422 0.33019 0.0
C84 C 0.55387 0.94885 0.26897 0.0
N85 N 0.58523 0.92556 0.31235 0.0
N86 N 0.53749 0.88241 0.35493 0.0
C87 C 0.47558 0.87877 0.34175 0.0
C88 C 0.48333 0.92032 0.28685 0.0
C89 C 0.59192 0.00207 0.21531 0.0
H90 H 0.62539 0.05408 0.23901 0.0
H91 H 0.62682 0.98807 0.18733 0.0
H92 H 0.5547 0.00584 0.18027 0.0
O93 O 0.69075 0.99526 0.43249 0.0
O94 O 0.60569 0.91231 0.49608 0.0
H95 H 0.37672 0.8636 0.37923 0.0
H96 H 0.37983 0.78482 0.36543 0.0
C97 C 0.41058 0.83971 0.38345 0.0
H98 H 0.4245 0.83978 0.43691 0.0
H99 H 0.47315 0.784 0.55629 0.0
O100 O 0.74553 0.04258 0.2782 0.0
C101 C 0.65956 0.97252 0.4891 0.0
Co102 Co 0.7187 0.68567 0.50346 0.0
Co103 Co 0.71491 0.56704 0.59321 0.0
C104 C 0.85083 0.68961 0.54411 0.0
O105 O 0.82363 0.71775 0.50776 0.0
O106 O 0.81255 0.6332 0.57546 0.0
C107 C 0.72168 0.79084 0.39427 0.0
O108 O 0.77987 0.80353 0.36403 0.0
C109 C 0.72997 0.44843 0.58074 0.0
C110 C 0.70084 0.39715 0.68002 0.0
C111 C 0.72045 0.39051 0.61544 0.0
N112 N 0.71564 0.4874 0.62218 0.0
N113 N 0.69912 0.45744 0.68191 0.0
C114 C 0.75071 0.46603 0.50862 0.0
H115 H 0.7653 0.52103 0.49744 0.0
H116 H 0.70618 0.43059 0.47582 0.0
H117 H 0.79545 0.45786 0.49688 0.0
C118 C 0.60067 0.55769 0.43564 0.0
N119 N 0.65532 0.58906 0.47902 0.0
N120 N 0.65072 0.54131 0.52162 0.0
C121 C 0.59245 0.4794 0.50844 0.0
C122 C 0.55866 0.48715 0.45354 0.0
C123 C 0.58552 0.59574 0.38197 0.0
H124 H 0.56696 0.62921 0.40566 0.0
H125 H 0.63441 0.63063 0.354 0.0
H126 H 0.54454 0.55851 0.34693 0.0
O127 O 0.69112 0.69458 0.59916 0.0
O128 O 0.68903 0.60952 0.66275 0.0
H129 H 0.50876 0.38055 0.54594 0.0
H130 H 0.59064 0.38364 0.53214 0.0
C131 C 0.56651 0.4144 0.55015 0.0
H132 H 0.58036 0.42833 0.60361 0.0
H133 H 0.68478 0.47698 0.72297 0.0
O134 O 0.69857 0.74935 0.44487 0.0
C135 C 0.68268 0.6634 0.65576 0.0
Co136 Co 0.02864 0.72248 0.67012 0.0
Co137 Co 0.14347 0.71867 0.75988 0.0
C138 C 0.15683 0.85461 0.71078 0.0
O139 O 0.10149 0.82741 0.67443 0.0
O140 O 0.17495 0.81632 0.74212 0.0
C141 C 0.92646 0.72549 0.56093 0.0
O142 O 0.97197 0.78368 0.53069 0.0
C143 C 0.27712 0.73371 0.7474 0.0
C144 C 0.29927 0.70458 0.84667 0.0
C145 C 0.32553 0.7242 0.7821 0.0
N146 N 0.22384 0.71939 0.78884 0.0
N147 N 0.23727 0.70286 0.84857 0.0
C148 C 0.28027 0.75446 0.67528 0.0
H149 H 0.23986 0.76905 0.6641 0.0
H150 H 0.27118 0.70992 0.64248 0.0
H151 H 0.33317 0.7992 0.66354 0.0
C152 C 0.03857 0.60443 0.60231 0.0
N153 N 0.06186 0.65908 0.64569 0.0
N154 N 0.105 0.65448 0.68828 0.0
C155 C 0.10863 0.5962 0.6751 0.0
C156 C 0.06709 0.56241 0.62021 0.0
C157 C 0.98537 0.58928 0.54864 0.0
H158 H 0.93335 0.57074 0.57234 0.0
H159 H -0.00062 0.63817 0.52066 0.0
H160 H 0.9816 0.54828 0.51361 0.0
O161 O 0.99215 0.6949 0.76583 0.0
O162 O 0.0751 0.69279 0.82941 0.0
H163 H 0.1238 0.5125 0.71259 0.0
H164 H 0.20258 0.59438 0.6988 0.0
C165 C 0.14768 0.57025 0.71681 0.0
H166 H 0.14761 0.58409 0.77027 0.0
H167 H 0.2034 0.68852 0.88963 0.0
O168 O 0.94484 0.70237 0.61153 0.0
C169 C 0.01488 0.68645 0.82243 0.0
Co170 Co 0.30176 0.03242 0.83678 0.0
Co171 Co 0.4204 0.14725 0.92656 0.0
C172 C 0.29785 0.16063 0.87742 0.0
O173 O 0.2697 0.10529 0.84107 0.0
O174 O 0.35424 0.17874 0.90879 0.0
C175 C 0.19659 0.93024 0.7276 0.0
O176 O 0.18391 0.97576 0.69736 0.0
C177 C 0.53901 0.28089 0.91408 0.0
C178 C 0.59028 0.30304 1.01335 0.0
C179 C 0.59694 0.32929 0.94877 0.0
N180 N 0.50004 0.22761 0.95552 0.0
N181 N 0.52999 0.24104 1.01525 0.0
C182 C 0.52142 0.28403 0.84195 0.0
H183 H 0.46643 0.24363 0.83077 0.0
H184 H 0.55687 0.27493 0.80916 0.0
H185 H 0.5296 0.33695 0.8302 0.0
C186 C 0.42974 0.04235 0.76898 0.0
N187 N 0.39837 0.06563 0.81237 0.0
N188 N 0.44611 0.10876 0.85497 0.0
C189 C 0.50801 0.11239 0.8418 0.0
C190 C 0.50027 0.07086 0.78689 0.0
C191 C 0.3917 0.98917 0.71529 0.0
H192 H 0.35822 0.93714 0.73897 0.0
H193 H 0.35682 0.00319 0.68732 0.0
H194 H 0.42892 0.98541 0.68025 0.0
O195 O 0.29283 -0.00406 0.93249 0.0
O196 O 0.37788 0.07888 0.99609 0.0
H197 H 0.60684 0.1275 0.87931 0.0
H198 H 0.60378 0.20631 0.86551 0.0
C199 C 0.573 0.15141 0.88352 0.0
H200 H 0.55907 0.15134 0.93697 0.0
H201 H 0.51045 0.20717 0.05632 0.0
O202 O 0.23808 0.94862 0.77819 0.0
C203 C 0.324 0.01867 0.9891 0.0
Co204 Co 0.68192 0.72245 0.86603 0.0
Co205 Co 0.56323 0.71858 0.77631 0.0
C206 C 0.68582 0.85454 0.82538 0.0
O207 O 0.71397 0.82736 0.86174 0.0
O208 O 0.62941 0.81624 0.79404 0.0
C209 C 0.78709 0.72545 0.97519 0.0
O210 O 0.79971 0.78362 1.00546 0.0
C211 C 0.44463 0.73363 0.78885 0.0
C212 C 0.39331 0.70451 0.68959 0.0
C213 C 0.38668 0.72407 0.75419 0.0
N214 N 0.48357 0.7193 0.74738 0.0
N215 N 0.45359 0.70278 0.68767 0.0
C216 C 0.46229 0.75444 0.86095 0.0
H217 H 0.51727 0.76897 0.87212 0.0
H218 H 0.42682 0.70996 0.8938 0.0
H219 H 0.4542 0.79924 0.87265 0.0
C220 C 0.55399 0.60449 0.93398 0.0
N221 N 0.58533 0.65907 0.89051 0.0
N222 N 0.53756 0.65443 0.84794 0.0
C223 C 0.47564 0.59621 0.86122 0.0
C224 C 0.48341 0.56254 0.91621 0.0
C225 C 0.59208 0.58938 0.98764 0.0
H226 H 0.62552 0.57079 0.96395 0.0
H227 H 0.62701 0.6383 1.01556 0.0
H228 H 0.55489 0.54844 1.02273 0.0
O229 O 0.69082 0.69489 0.77032 0.0
O230 O 0.60571 0.69271 0.70676 0.0
H231 H 0.37677 0.51247 0.82382 0.0
H232 H 0.37984 0.59434 0.83761 0.0
C233 C 0.4106 0.57021 0.81956 0.0
H234 H 0.42447 0.58403 0.7661 0.0
H235 H 0.47312 0.68845 0.64658 0.0
O236 O 0.74562 0.70233 0.92459 0.0
C237 C 0.65963 0.68644 0.71372 0.0
Co238 Co 0.95506 0.6857 0.03269 0.0
Co239 Co 0.84025 0.567 0.94297 0.0
C240 C 0.82686 0.68959 0.99204 0.0
O241 O 0.8822 0.71775 0.02839 0.0
O242 O 0.80875 0.63317 0.9607 0.0
C243 C 0.05722 0.79087 0.14187 0.0
O244 O 0.01167 0.80347 0.17216 0.0
C245 C 0.70662 0.44839 0.95552 0.0
C246 C 0.68441 0.39706 0.85626 0.0
C247 C 0.65822 0.39043 0.92087 0.0
N248 N 0.75988 0.48733 0.91405 0.0
N249 N 0.74642 0.45734 0.85433 0.0
C250 C 0.70346 0.46605 0.02762 0.0
H251 H 0.74392 0.52104 0.03878 0.0
H252 H 0.71247 0.43058 0.06047 0.0
H253 H 0.65058 0.45798 0.03931 0.0
C254 C 0.9451 0.55777 0.10063 0.0
N255 N 0.92186 0.5891 0.05717 0.0
N256 N 0.87872 0.54132 1.0146 0.0
C257 C 0.87504 0.47941 0.02788 0.0
C258 C 0.91648 0.48719 0.08287 0.0
C259 C -0.0017 0.59586 0.15429 0.0
H260 H 0.05032 0.62932 0.13059 0.0
H261 H 0.98429 0.63078 0.18222 0.0
H262 H 0.00207 0.55867 0.18937 0.0
O263 O 0.99153 0.6946 0.93698 0.0
O264 O 0.90861 0.60948 0.87342 0.0
H265 H 0.8599 0.38052 0.99049 0.0
H266 H 0.78111 0.3836 1.00427 0.0
C267 C 0.836 0.41436 0.98623 0.0
H268 H 0.83605 0.42823 0.93276 0.0
H269 H 0.78026 0.47686 0.81325 0.0
O270 O 0.03886 0.7494 0.09126 0.0
C271 C 0.96879 0.6634 0.88038 0.0
Co272 Co 0.26492 0.95884 0.19936 0.0
Co273 Co 0.2688 0.84402 0.10963 0.0
C274 C 0.13284 0.83064 0.15871 0.0
O275 O 0.16001 0.88597 0.19507 0.0
O276 O 0.17114 0.81253 0.12736 0.0
C277 C 0.26194 0.06101 0.30855 0.0
O278 O 0.20379 0.01548 0.33883 0.0
C279 C 0.25378 0.71039 0.12216 0.0
C280 C 0.28291 0.68819 1.02291 0.0
C281 C 0.26335 0.66199 0.08751 0.0
N282 N 0.2681 0.76365 0.0807 0.0
N283 N 0.28463 0.7502 1.02098 0.0
C284 C 0.23297 0.70723 0.19427 0.0
H285 H 0.21842 0.74768 0.20543 0.0
H286 H 0.27745 0.71625 0.22712 0.0
H287 H 0.18818 0.65434 0.20597 0.0
C288 C 0.38288 0.94885 0.2673 0.0
N289 N 0.32831 0.92562 0.22384 0.0
N290 N 0.33295 0.88249 0.18126 0.0
C291 C 0.39118 0.8788 0.19453 0.0
C292 C 0.42484 0.92023 0.24952 0.0
C293 C 0.39798 0.00204 0.32097 0.0
H294 H 0.41656 0.05408 0.29729 0.0
H295 H 0.34906 0.98804 0.34889 0.0
H296 H 0.43892 0.00579 0.35606 0.0
O297 O 0.29249 0.99531 0.10366 0.0
O298 O 0.29467 0.91238 0.04008 0.0
H299 H 0.47492 0.86368 0.15711 0.0
H300 H 0.39306 0.78487 0.17089 0.0
C301 C 0.41718 0.83976 0.15286 0.0
H302 H 0.40336 0.83982 0.09939 0.0
H303 H 0.29895 0.78404 0.9799 0.0
O304 O 0.28503 0.04264 0.25794 0.0
C305 C 0.30095 0.97258 0.04705 0.0
Co306 Co 0.30173 0.26875 0.36605 0.0
Co307 Co 0.42041 0.27259 0.27633 0.0
C308 C 0.29782 0.13664 0.3254 0.0
O309 O 0.26967 0.16383 0.36175 0.0
O310 O 0.35423 0.17493 0.29406 0.0
C311 C 0.19654 0.26572 0.47521 0.0
O312 O 0.18391 0.20753 0.50545 0.0
C313 C 0.53901 0.25754 0.28885 0.0
C314 C 0.59033 0.28668 0.1896 0.0
C315 C 0.59697 0.26711 0.2542 0.0
N316 N 0.50007 0.27187 0.24739 0.0
N317 N 0.53005 0.2884 0.18768 0.0
C318 C 0.52135 0.23672 0.36096 0.0
H319 H 0.46637 0.22218 0.37212 0.0
H320 H 0.55682 0.28121 0.39381 0.0
H321 H 0.52945 0.19193 0.37265 0.0
C322 C 0.42967 0.3867 0.43398 0.0
N323 N 0.39833 0.33212 0.39053 0.0
N324 N 0.4461 0.33675 0.34795 0.0
C325 C 0.50802 0.39497 0.36123 0.0
C326 C 0.50025 0.42865 0.41621 0.0
C327 C 0.39159 0.40183 0.48764 0.0
H328 H 0.35815 0.42042 0.46394 0.0
H329 H 0.35666 0.35291 0.51557 0.0
H330 H 0.42879 0.44278 0.52273 0.0
O331 O 0.29284 0.29632 0.27034 0.0
O332 O 0.37793 0.29848 0.20678 0.0
H333 H 0.60689 0.4787 0.32382 0.0
H334 H 0.60381 0.39683 0.3376 0.0
C335 C 0.57305 0.42096 0.31956 0.0
H336 H 0.55918 0.40714 0.2661 0.0
H337 H 0.51053 0.30273 0.1466 0.0
O338 O 0.23804 0.28885 0.42462 0.0
C339 C 0.32403 0.30477 0.21374 0.0
Co340 Co 0.02857 0.30546 0.53271 0.0
Co341 Co 0.14339 0.42416 0.44298 0.0
C342 C 0.15677 0.30157 0.49206 0.0
O343 O 0.10143 0.27341 0.52841 0.0
O344 O 0.17489 0.35799 0.46072 0.0
C345 C 0.92638 0.20027 0.64186 0.0
O346 O 0.97191 0.18761 0.67211 0.0
C347 C 0.27703 0.54276 0.45551 0.0
C348 C 0.29922 0.59408 0.35625 0.0
C349 C 0.32543 0.60071 0.42085 0.0
N350 N 0.22376 0.50382 0.41405 0.0
N351 N 0.23722 0.5338 0.35433 0.0
C352 C 0.28019 0.5251 0.52761 0.0
H353 H 0.23974 0.47012 0.53878 0.0
H354 H 0.27119 0.56058 0.56046 0.0
H355 H 0.33307 0.53318 0.5393 0.0
C356 C 0.03855 0.43341 0.60065 0.0
N357 N 0.06179 0.40207 0.55718 0.0
N358 N 0.10493 0.44984 0.51461 0.0
C359 C 0.10862 0.51177 0.52789 0.0
C360 C 0.06718 0.50399 0.58288 0.0
C361 C 0.98536 0.39533 0.65431 0.0
H362 H 0.93333 0.3619 0.63061 0.0
H363 H -0.00066 0.36038 0.68222 0.0
H364 H 0.98162 0.43253 0.6894 0.0
O365 O 0.99211 0.29657 0.437 0.0
O366 O 0.07504 0.38167 0.37343 0.0
H367 H 0.12377 0.61065 0.49049 0.0
H368 H 0.20255 0.60756 0.50427 0.0
C369 C 0.14767 0.57681 0.48623 0.0
H370 H 0.14761 0.56294 0.43276 0.0
H371 H 0.20337 0.51428 0.31325 0.0
O372 O 0.94476 0.24177 0.59127 0.0
C373 C 0.01485 0.32777 0.3804 0.0
Co374 Co 0.71866 0.03233 0.69936 0.0
Co375 Co 0.71481 0.14717 0.60965 0.0
C376 C 0.85076 0.16052 0.6587 0.0
O377 O 0.82357 0.10517 0.69505 0.0
O378 O 0.81247 0.17865 0.62737 0.0
C379 C 0.72167 0.93017 0.80854 0.0
O380 O 0.77984 0.97571 0.8388 0.0
C381 C 0.72987 0.28082 0.62219 0.0
C382 C 0.70073 0.30302 0.52294 0.0
C383 C 0.72031 0.32923 0.58753 0.0
N384 N 0.71553 0.22755 0.58073 0.0
N385 N 0.69899 0.24101 0.52101 0.0
C386 C 0.7507 0.28398 0.69429 0.0
H387 H 0.76522 0.24352 0.70545 0.0
H388 H 0.70623 0.27499 0.72714 0.0
H389 H 0.7955 0.33686 0.70597 0.0
C390 C 0.60072 0.04232 0.76731 0.0
N391 N 0.65529 0.06556 0.72385 0.0
N392 N 0.65067 0.10871 0.68129 0.0
C393 C 0.59245 0.11242 0.69457 0.0
C394 C 0.55877 0.07096 0.74955 0.0
C395 C 0.58559 0.98909 0.82095 0.0
H396 H 0.56702 0.93707 0.79724 0.0
H397 H 0.6345 0.00308 0.84889 0.0
H398 H 0.54464 0.98533 0.85604 0.0
O399 O 0.69107 -0.00414 0.60365 0.0
O400 O 0.68891 0.07881 0.5401 0.0
H401 H 0.50873 0.1276 0.65719 0.0
H402 H 0.59061 0.20637 0.67097 0.0
C403 C 0.56646 0.15148 0.65293 0.0
H404 H 0.58027 0.15143 0.59946 0.0
H405 H 0.68466 0.20715 0.47993 0.0
O406 O 0.69856 0.94853 0.75793 0.0
C407 C 0.68261 0.01861 0.54706 0.0
loop_
_geom_bond_atom_site_label_1
_geom_bond_atom_site_label_2
_geom_bond_distance
_geom_bond_site_symmetry_2
_ccdc_geom_bond_type
Co0 O3 1.970 . S
Co0 N17 1.989 . S
Co0 O25 1.967 1_556 S
Co0 O32 1.920 . S
Co1 O4 1.966 . S
Co1 N10 2.022 . S
Co1 N18 1.993 1_554 S
Co1 O26 1.941 . S
C2 O3 1.258 1_554 S
C2 O4 1.263 . S
O3 Co0 1.970 . S
O3 C2 1.258 1_556 S
O4 Co1 1.966 . S
O4 C2 1.263 . S
C5 O6 1.235 . S
C5 O32 1.289 . S
O6 C5 1.235 . S
C7 C9 1.400 . S
C7 N10 1.351 . S
C7 C12 1.501 . S
C8 C9 1.387 . S
C8 N11 1.341 . S
C9 C7 1.400 . S
C9 C8 1.387 . S
N10 Co1 2.022 . S
N10 C7 1.351 . S
N10 N11 1.365 . S
N11 C8 1.341 . S
N11 N10 1.365 . S
N11 H31 0.862 . S
C12 C7 1.501 . S
C12 H13 0.961 . S
C12 H14 0.961 . S
C12 H15 0.960 . S
H13 C12 0.961 . S
H14 C12 0.961 . S
H15 C12 0.960 . S
C16 N17 1.342 . S
C16 C20 1.401 . S
C16 C21 1.499 . S
N17 Co0 1.989 . S
N17 C16 1.342 . S
N17 N18 1.388 . S
N18 Co1 1.993 1_556 S
N18 N17 1.388 . S
N18 C19 1.346 . S
C19 N18 1.346 . S
C19 C20 1.396 . S
C19 C29 1.510 . S
C20 C16 1.401 . S
C20 C19 1.396 . S
C21 C16 1.499 . S
C21 H22 0.959 . S
C21 H23 0.960 . S
C21 H24 0.961 . S
H22 C21 0.959 . S
H23 C21 0.960 . S
H24 C21 0.961 . S
O25 Co0 1.967 1_554 S
O25 C33 1.258 . S
O26 Co1 1.941 . S
O26 C33 1.266 . S
H27 C29 0.959 . S
H28 C29 0.961 . S
C29 C19 1.510 . S
C29 H27 0.959 . S
C29 H28 0.961 . S
C29 H30 0.960 1_556 S
H30 C29 0.960 1_554 S
H31 N11 0.862 . S
O32 Co0 1.920 . S
O32 C5 1.289 . S
C33 O25 1.258 . S
C33 O26 1.266 . S
Co34 O37 1.970 . S
Co34 N51 1.989 . S
Co34 O59 1.968 . S
Co34 O66 1.920 1_655 S
Co35 O38 1.966 . S
Co35 N44 2.022 . S
Co35 N52 1.993 . S
Co35 O60 1.941 . S
C36 O37 1.258 . S
C36 O38 1.263 . S
O37 Co34 1.970 . S
O37 C36 1.258 . S
O38 Co35 1.966 . S
O38 C36 1.263 . S
C39 O40 1.235 . S
C39 O66 1.289 . S
O40 C39 1.235 . S
C41 C43 1.400 . S
C41 N44 1.351 . S
C41 C46 1.501 . S
C42 C43 1.387 . S
C42 N45 1.341 . S
C43 C41 1.400 . S
C43 C42 1.387 . S
N44 Co35 2.022 . S
N44 C41 1.351 . S
N44 N45 1.365 . S
N45 C42 1.341 . S
N45 N44 1.365 . S
N45 H65 0.862 . S
C46 C41 1.501 . S
C46 H47 0.961 . S
C46 H48 0.961 . S
C46 H49 0.960 . S
H47 C46 0.961 . S
H48 C46 0.961 . S
H49 C46 0.960 . S
C50 N51 1.342 . S
C50 C54 1.401 . S
C50 C55 1.499 1_655 S
N51 Co34 1.989 . S
N51 C50 1.342 . S
N51 N52 1.388 . S
N52 Co35 1.993 . S
N52 N51 1.388 . S
N52 C53 1.346 . S
C53 N52 1.346 . S
C53 C54 1.396 . S
C53 C63 1.510 . S
C54 C50 1.401 . S
C54 C53 1.396 . S
C55 C50 1.499 1_455 S
C55 H56 0.959 . S
C55 H57 0.960 1_554 S
C55 H58 0.961 . S
H56 C55 0.959 . S
H57 C55 0.960 1_556 S
H58 C55 0.961 . S
O59 Co34 1.968 . S
O59 C67 1.263 . S
O60 Co35 1.941 . S
O60 C67 1.266 . S
H61 C63 0.959 . S
H62 C63 0.961 . S
C63 C53 1.510 . S
C63 H61 0.959 . S
C63 H62 0.961 . S
C63 H64 0.960 . S
H64 C63 0.960 . S
H65 N45 0.862 . S
O66 Co34 1.920 1_455 S
O66 C39 1.289 . S
C67 O59 1.263 . S
C67 O60 1.266 . S
Co68 O71 1.970 . S
Co68 N85 1.989 . S
Co68 O93 1.962 1_565 S
Co68 O100 1.920 1_565 S
Co69 O72 1.966 . S
Co69 N78 2.022 . S
Co69 N86 1.993 . S
Co69 O94 1.941 . S
C70 O71 1.258 . S
C70 O72 1.263 . S
O71 Co68 1.970 . S
O71 C70 1.258 . S
O72 Co69 1.966 . S
O72 C70 1.263 . S
C73 O74 1.235 . S
C73 O100 1.289 . S
O74 C73 1.235 . S
C75 C77 1.400 . S
C75 N78 1.351 . S
C75 C80 1.501 . S
C76 C77 1.387 . S
C76 N79 1.341 . S
C77 C75 1.400 . S
C77 C76 1.387 . S
N78 Co69 2.022 . S
N78 C75 1.351 . S
N78 N79 1.365 . S
N79 C76 1.341 . S
N79 N78 1.365 . S
N79 H99 0.862 . S
C80 C75 1.501 . S
C80 H81 0.961 . S
C80 H82 0.961 . S
C80 H83 0.960 . S
H81 C80 0.961 . S
H82 C80 0.961 . S
H83 C80 0.960 . S
C84 N85 1.342 . S
C84 C88 1.401 . S
C84 C89 1.499 1_565 S
N85 Co68 1.989 . S
N85 C84 1.342 . S
N85 N86 1.388 . S
N86 Co69 1.993 . S
N86 N85 1.388 . S
N86 C87 1.346 . S
C87 N86 1.346 . S
C87 C88 1.396 . S
C87 C97 1.510 . S
C88 C84 1.401 . S
C88 C87 1.396 . S
C89 C84 1.499 1_545 S
C89 H90 0.959 . S
C89 H91 0.960 . S
C89 H92 0.961 . S
H90 C89 0.959 . S
H91 C89 0.960 . S
H92 C89 0.961 . S
O93 Co68 1.962 1_545 S
O93 C101 1.258 1_545 S
O94 Co69 1.941 . S
O94 C101 1.266 . S
H95 C97 0.959 . S
H96 C97 0.961 . S
C97 C87 1.510 . S
C97 H95 0.959 . S
C97 H96 0.961 . S
C97 H98 0.960 . S
H98 C97 0.960 . S
H99 N79 0.862 . S
O100 Co68 1.920 1_545 S
O100 C73 1.289 . S
C101 O93 1.258 1_565 S
C101 O94 1.266 . S
Co102 O105 1.970 . S
Co102 N119 1.989 . S
Co102 O127 1.967 . S
Co102 O134 1.920 . S
Co103 O106 1.966 . S
Co103 N112 2.022 . S
Co103 N120 1.993 . S
Co103 O128 1.941 . S
C104 O105 1.258 . S
C104 O106 1.263 . S
O105 Co102 1.970 . S
O105 C104 1.258 . S
O106 Co103 1.966 . S
O106 C104 1.263 . S
C107 O108 1.235 . S
C107 O134 1.289 . S
O108 C107 1.235 . S
C109 C111 1.400 . S
C109 N112 1.351 . S
C109 C114 1.501 . S
C110 C111 1.387 . S
C110 N113 1.341 . S
C111 C109 1.400 . S
C111 C110 1.387 . S
N112 Co103 2.022 . S
N112 C109 1.351 . S
N112 N113 1.365 . S
N113 C110 1.341 . S
N113 N112 1.365 . S
N113 H133 0.862 . S
C114 C109 1.501 . S
C114 H115 0.961 . S
C114 H116 0.961 . S
C114 H117 0.960 . S
H115 C114 0.961 . S
H116 C114 0.961 . S
H117 C114 0.960 . S
C118 N119 1.342 . S
C118 C122 1.401 . S
C118 C123 1.499 . S
N119 Co102 1.989 . S
N119 C118 1.342 . S
N119 N120 1.388 . S
N120 Co103 1.993 . S
N120 N119 1.388 . S
N120 C121 1.346 . S
C121 N120 1.346 . S
C121 C122 1.396 . S
C121 C131 1.510 . S
C122 C118 1.401 . S
C122 C121 1.396 . S
C123 C118 1.499 . S
C123 H124 0.959 . S
C123 H125 0.960 . S
C123 H126 0.961 . S
H124 C123 0.959 . S
H125 C123 0.960 . S
H126 C123 0.961 . S
O127 Co102 1.967 . S
O127 C135 1.258 . S
O128 Co103 1.941 . S
O128 C135 1.266 . S
H129 C131 0.959 . S
H130 C131 0.961 . S
C131 C121 1.510 . S
C131 H129 0.959 . S
C131 H130 0.961 . S
C131 H132 0.960 . S
H132 C131 0.960 . S
H133 N113 0.862 . S
O134 Co102 1.920 . S
O134 C107 1.289 . S
C135 O127 1.258 . S
C135 O128 1.266 . S
Co136 O139 1.970 . S
Co136 N153 1.989 . S
Co136 O161 1.967 1_455 S
Co136 O168 1.920 1_455 S
Co137 O140 1.966 . S
Co137 N146 2.022 . S
Co137 N154 1.993 . S
Co137 O162 1.941 . S
C138 O139 1.258 . S
C138 O140 1.263 . S
O139 Co136 1.970 . S
O139 C138 1.258 . S
O140 Co137 1.966 . S
O140 C138 1.263 . S
C141 O142 1.235 . S
C141 O168 1.289 . S
O142 C141 1.235 . S
C143 C145 1.400 . S
C143 N146 1.351 . S
C143 C148 1.501 . S
C144 C145 1.387 . S
C144 N147 1.341 . S
C145 C143 1.400 . S
C145 C144 1.387 . S
N146 Co137 2.022 . S
N146 C143 1.351 . S
N146 N147 1.365 . S
N147 C144 1.341 . S
N147 N146 1.365 . S
N147 H167 0.862 . S
C148 C143 1.501 . S
C148 H149 0.961 . S
C148 H150 0.961 . S
C148 H151 0.960 . S
H149 C148 0.961 . S
H150 C148 0.961 . S
H151 C148 0.960 . S
C152 N153 1.342 . S
C152 C156 1.401 . S
C152 C157 1.499 1_455 S
N153 Co136 1.989 . S
N153 C152 1.342 . S
N153 N154 1.388 . S
N154 Co137 1.993 . S
N154 N153 1.388 . S
N154 C155 1.346 . S
C155 N154 1.346 . S
C155 C156 1.396 . S
C155 C165 1.510 . S
C156 C152 1.401 . S
C156 C155 1.396 . S
C157 C152 1.499 1_655 S
C157 H158 0.959 . S
C157 H159 0.960 . S
C157 H160 0.961 . S
H158 C157 0.959 . S
H159 C157 0.960 . S
H160 C157 0.961 . S
O161 Co136 1.967 1_655 S
O161 C169 1.258 1_655 S
O162 Co137 1.941 . S
O162 C169 1.266 . S
H163 C165 0.959 . S
H164 C165 0.961 . S
C165 C155 1.510 . S
C165 H163 0.959 . S
C165 H164 0.961 . S
C165 H166 0.960 . S
H166 C165 0.960 . S
H167 N147 0.862 . S
O168 Co136 1.920 1_655 S
O168 C141 1.289 . S
C169 O161 1.258 1_455 S
C169 O162 1.266 . S
Co170 O173 1.970 . S
Co170 N187 1.989 . S
Co170 O195 1.963 1_545 S
Co170 O202 1.920 1_545 S
Co171 O174 1.966 . S
Co171 N180 2.022 . S
Co171 N188 1.993 . S
Co171 O196 1.941 . S
C172 O173 1.258 . S
C172 O174 1.263 . S
O173 Co170 1.970 . S
O173 C172 1.258 . S
O174 Co171 1.966 . S
O174 C172 1.263 . S
C175 O176 1.235 . S
C175 O202 1.289 . S
O176 C175 1.235 . S
C177 C179 1.400 . S
C177 N180 1.351 . S
C177 C182 1.501 . S
C178 C179 1.387 . S
C178 N181 1.341 . S
C179 C177 1.400 . S
C179 C178 1.387 . S
N180 Co171 2.022 . S
N180 C177 1.351 . S
N180 N181 1.365 . S
N181 C178 1.341 . S
N181 N180 1.365 . S
N181 H201 0.862 . S
C182 C177 1.501 . S
C182 H183 0.961 . S
C182 H184 0.961 . S
C182 H185 0.960 . S
H183 C182 0.961 . S
H184 C182 0.961 . S
H185 C182 0.960 . S
C186 N187 1.342 . S
C186 C190 1.401 . S
C186 C191 1.499 1_545 S
N187 Co170 1.989 . S
N187 C186 1.342 . S
N187 N188 1.388 . S
N188 Co171 1.993 . S
N188 N187 1.388 . S
N188 C189 1.346 . S
C189 N188 1.346 . S
C189 C190 1.396 . S
C189 C199 1.510 . S
C190 C186 1.401 . S
C190 C189 1.396 . S
C191 C186 1.499 1_565 S
C191 H192 0.959 . S
C191 H193 0.960 . S
C191 H194 0.961 . S
H192 C191 0.959 . S
H193 C191 0.960 . S
H194 C191 0.961 . S
O195 Co170 1.963 1_565 S
O195 C203 1.258 1_565 S
O196 Co171 1.941 . S
O196 C203 1.266 . S
H197 C199 0.959 . S
H198 C199 0.961 . S
C199 C189 1.510 . S
C199 H197 0.959 . S
C199 H198 0.961 . S
C199 H200 0.960 . S
H200 C199 0.960 . S
H201 N181 0.862 . S
O202 Co170 1.920 1_565 S
O202 C175 1.289 . S
C203 O195 1.258 1_545 S
C203 O196 1.266 . S
Co204 O207 1.970 . S
Co204 N221 1.989 . S
Co204 O229 1.967 . S
Co204 O236 1.920 . S
Co205 O208 1.966 . S
Co205 N214 2.022 . S
Co205 N222 1.993 . S
Co205 O230 1.941 . S
C206 O207 1.258 . S
C206 O208 1.263 . S
O207 Co204 1.970 . S
O207 C206 1.258 . S
O208 Co205 1.966 . S
O208 C206 1.263 . S
C209 O210 1.235 . S
C209 O236 1.289 . S
O210 C209 1.235 . S
C211 C213 1.400 . S
C211 N214 1.351 . S
C211 C216 1.501 . S
C212 C213 1.387 . S
C212 N215 1.341 . S
C213 C211 1.400 . S
C213 C212 1.387 . S
N214 Co205 2.022 . S
N214 C211 1.351 . S
N214 N215 1.365 . S
N215 C212 1.341 . S
N215 N214 1.365 . S
N215 H235 0.862 . S
C216 C211 1.501 . S
C216 H217 0.961 . S
C216 H218 0.961 . S
C216 H219 0.960 . S
H217 C216 0.961 . S
H218 C216 0.961 . S
H219 C216 0.960 . S
C220 N221 1.342 . S
C220 C224 1.401 . S
C220 C225 1.499 . S
N221 Co204 1.989 . S
N221 C220 1.342 . S
N221 N222 1.388 . S
N222 Co205 1.993 . S
N222 N221 1.388 . S
N222 C223 1.346 . S
C223 N222 1.346 . S
C223 C224 1.396 . S
C223 C233 1.510 . S
C224 C220 1.401 . S
C224 C223 1.396 . S
C225 C220 1.499 . S
C225 H226 0.959 . S
C225 H227 0.973 . S
C225 H228 0.961 . S
H226 C225 0.959 . S
H227 C225 0.973 . S
H228 C225 0.961 . S
O229 Co204 1.967 . S
O229 C237 1.258 . S
O230 Co205 1.941 . S
O230 C237 1.266 . S
H231 C233 0.959 . S
H232 C233 0.961 . S
C233 C223 1.510 . S
C233 H231 0.959 . S
C233 H232 0.961 . S
C233 H234 0.960 . S
H234 C233 0.960 . S
H235 N215 0.862 . S
O236 Co204 1.920 . S
O236 C209 1.289 . S
C237 O229 1.258 . S
C237 O230 1.266 . S
Co238 O241 1.970 . S
Co238 N255 1.988 1_556 S
Co238 O263 1.971 . S
Co238 O270 1.920 1_656 S
Co239 O242 1.966 . S
Co239 N248 2.022 . S
Co239 N256 1.993 1_556 S
Co239 O264 1.941 . S
C240 O241 1.258 . S
C240 O242 1.263 . S
O241 Co238 1.970 . S
O241 C240 1.258 . S
O242 Co239 1.966 . S
O242 C240 1.263 . S
C243 O244 1.235 . S
C243 O270 1.289 . S
O244 C243 1.235 . S
C245 C247 1.400 . S
C245 N248 1.351 . S
C245 C250 1.501 . S
C246 C247 1.387 . S
C246 N249 1.341 . S
C247 C245 1.400 . S
C247 C246 1.387 . S
N248 Co239 2.022 . S
N248 C245 1.351 . S
N248 N249 1.365 . S
N249 C246 1.341 . S
N249 N248 1.365 . S
N249 H269 0.862 . S
C250 C245 1.501 . S
C250 H251 0.961 . S
C250 H252 0.961 . S
C250 H253 0.960 . S
H251 C250 0.961 . S
H252 C250 0.961 . S
H253 C250 0.960 . S
C254 N255 1.342 . S
C254 C258 1.401 . S
C254 C259 1.499 1_655 S
N255 Co238 1.988 1_554 S
N255 C254 1.342 . S
N255 N256 1.388 . S
N256 Co239 1.993 1_554 S
N256 N255 1.388 . S
N256 C257 1.346 . S
C257 N256 1.346 . S
C257 C258 1.396 . S
C257 C267 1.510 . S
C258 C254 1.401 . S
C258 C257 1.396 . S
C259 C254 1.499 1_455 S
C259 H260 0.959 . S
C259 H261 0.960 . S
C259 H262 0.961 . S
H260 C259 0.959 . S
H261 C259 0.960 . S
H262 C259 0.961 . S
O263 Co238 1.971 . S
O263 C271 1.258 . S
O264 Co239 1.941 . S
O264 C271 1.266 . S
H265 C267 0.959 . S
H266 C267 0.961 . S
C267 C257 1.510 . S
C267 H265 0.959 . S
C267 H266 0.961 . S
C267 H268 0.960 1_554 S
H268 C267 0.960 1_556 S
H269 N249 0.862 . S
O270 Co238 1.920 1_454 S
O270 C243 1.289 . S
C271 O263 1.258 . S
C271 O264 1.266 . S
Co272 O275 1.970 . S
Co272 N289 1.989 . S
Co272 O297 1.964 1_565 S
Co272 O304 1.920 1_565 S
Co273 O276 1.966 . S
Co273 N282 2.022 . S
Co273 N290 1.993 . S
Co273 O298 1.941 . S
C274 O275 1.258 . S
C274 O276 1.263 . S
O275 Co272 1.970 . S
O275 C274 1.258 . S
O276 Co273 1.966 . S
O276 C274 1.263 . S
C277 O278 1.235 . S
C277 O304 1.289 . S
O278 C277 1.235 . S
C279 C281 1.400 . S
C279 N282 1.351 . S
C279 C284 1.501 . S
C280 C281 1.387 . S
C280 N283 1.341 . S
C281 C279 1.400 . S
C281 C280 1.387 . S
N282 Co273 2.022 . S
N282 C279 1.351 . S
N282 N283 1.365 . S
N283 C280 1.341 . S
N283 N282 1.365 . S
N283 H303 0.862 . S
C284 C279 1.501 . S
C284 H285 0.961 . S
C284 H286 0.961 . S
C284 H287 0.960 . S
H285 C284 0.961 . S
H286 C284 0.961 . S
H287 C284 0.960 . S
C288 N289 1.342 . S
C288 C292 1.401 . S
C288 C293 1.499 1_565 S
N289 Co272 1.989 . S
N289 C288 1.342 . S
N289 N290 1.388 . S
N290 Co273 1.993 . S
N290 N289 1.388 . S
N290 C291 1.346 . S
C291 N290 1.346 . S
C291 C292 1.396 . S
C291 C301 1.510 . S
C292 C288 1.401 . S
C292 C291 1.396 . S
C293 C288 1.499 1_545 S
C293 H294 0.959 . S
C293 H295 0.960 . S
C293 H296 0.961 . S
H294 C293 0.959 . S
H295 C293 0.960 . S
H296 C293 0.961 . S
O297 Co272 1.964 1_545 S
O297 C305 1.249 1_545 S
O298 Co273 1.941 . S
O298 C305 1.266 . S
H299 C301 0.959 . S
H300 C301 0.961 . S
C301 C291 1.510 . S
C301 H299 0.959 . S
C301 H300 0.961 . S
C301 H302 0.960 . S
H302 C301 0.960 . S
H303 N283 0.862 . S
O304 Co272 1.920 1_545 S
O304 C277 1.289 . S
C305 O297 1.249 1_565 S
C305 O298 1.266 . S
Co306 O309 1.970 . S
Co306 N323 1.989 . S
Co306 O331 1.967 . S
Co306 O338 1.920 . S
Co307 O310 1.966 . S
Co307 N316 2.022 . S
Co307 N324 1.993 . S
Co307 O332 1.941 . S
C308 O309 1.258 . S
C308 O310 1.263 . S
O309 Co306 1.970 . S
O309 C308 1.258 . S
O310 Co307 1.966 . S
O310 C308 1.263 . S
C311 O312 1.235 . S
C311 O338 1.289 . S
O312 C311 1.235 . S
C313 C315 1.400 . S
C313 N316 1.351 . S
C313 C318 1.501 . S
C314 C315 1.387 . S
C314 N317 1.341 . S
C315 C313 1.400 . S
C315 C314 1.387 . S
N316 Co307 2.022 . S
N316 C313 1.351 . S
N316 N317 1.365 . S
N317 C314 1.341 . S
N317 N316 1.365 . S
N317 H337 0.862 . S
C318 C313 1.501 . S
C318 H319 0.961 . S
C318 H320 0.961 . S
C318 H321 0.960 . S
H319 C318 0.961 . S
H320 C318 0.961 . S
H321 C318 0.960 . S
C322 N323 1.342 . S
C322 C326 1.401 . S
C322 C327 1.499 . S
N323 Co306 1.989 . S
N323 C322 1.342 . S
N323 N324 1.388 . S
N324 Co307 1.993 . S
N324 N323 1.388 . S
N324 C325 1.346 . S
C325 N324 1.346 . S
C325 C326 1.396 . S
C325 C335 1.510 . S
C326 C322 1.401 . S
C326 C325 1.396 . S
C327 C322 1.499 . S
C327 H328 0.959 . S
C327 H329 0.960 . S
C327 H330 0.961 . S
H328 C327 0.959 . S
H329 C327 0.960 . S
H330 C327 0.961 . S
O331 Co306 1.967 . S
O331 C339 1.258 . S
O332 Co307 1.941 . S
O332 C339 1.266 . S
H333 C335 0.959 . S
H334 C335 0.961 . S
C335 C325 1.510 . S
C335 H333 0.959 . S
C335 H334 0.961 . S
C335 H336 0.960 . S
H336 C335 0.960 . S
H337 N317 0.862 . S
O338 Co306 1.920 . S
O338 C311 1.289 . S
C339 O331 1.258 . S
C339 O332 1.266 . S
Co340 O343 1.970 . S
Co340 N357 1.989 . S
Co340 O365 1.967 1_455 S
Co340 O372 1.920 1_455 S
Co341 O344 1.966 . S
Co341 N350 2.022 . S
Co341 N358 1.993 . S
Co341 O366 1.941 . S
C342 O343 1.258 . S
C342 O344 1.263 . S
O343 Co340 1.970 . S
O343 C342 1.258 . S
O344 Co341 1.966 . S
O344 C342 1.263 . S
C345 O346 1.235 . S
C345 O372 1.289 . S
O346 C345 1.235 . S
C347 C349 1.400 . S
C347 N350 1.351 . S
C347 C352 1.501 . S
C348 C349 1.387 . S
C348 N351 1.341 . S
C349 C347 1.400 . S
C349 C348 1.387 . S
N350 Co341 2.022 . S
N350 C347 1.351 . S
N350 N351 1.365 . S
N351 C348 1.341 . S
N351 N350 1.365 . S
N351 H371 0.862 . S
C352 C347 1.501 . S
C352 H353 0.961 . S
C352 H354 0.961 . S
C352 H355 0.960 . S
H353 C352 0.961 . S
H354 C352 0.961 . S
H355 C352 0.960 . S
C356 N357 1.342 . S
C356 C360 1.401 . S
C356 C361 1.499 1_455 S
N357 Co340 1.989 . S
N357 C356 1.342 . S
N357 N358 1.388 . S
N358 Co341 1.993 . S
N358 N357 1.388 . S
N358 C359 1.346 . S
C359 N358 1.346 . S
C359 C360 1.396 . S
C359 C369 1.510 . S
C360 C356 1.401 . S
C360 C359 1.396 . S
C361 C356 1.499 1_655 S
C361 H362 0.959 . S
C361 H363 0.960 . S
C361 H364 0.961 . S
H362 C361 0.959 . S
H363 C361 0.960 . S
H364 C361 0.961 . S
O365 Co340 1.967 1_655 S
O365 C373 1.258 1_655 S
O366 Co341 1.941 . S
O366 C373 1.266 . S
H367 C369 0.959 . S
H368 C369 0.961 . S
C369 C359 1.510 . S
C369 H367 0.959 . S
C369 H368 0.961 . S
C369 H370 0.960 . S
H370 C369 0.960 . S
H371 N351 0.862 . S
O372 Co340 1.920 1_655 S
O372 C345 1.289 . S
C373 O365 1.258 1_455 S
C373 O366 1.266 . S
Co374 O377 1.970 . S
Co374 N391 1.989 . S
Co374 O399 1.965 1_545 S
Co374 O406 1.920 1_545 S
Co375 O378 1.966 . S
Co375 N384 2.022 . S
Co375 N392 1.993 . S
Co375 O400 1.941 . S
C376 O377 1.258 . S
C376 O378 1.263 . S
O377 Co374 1.970 . S
O377 C376 1.258 . S
O378 Co375 1.966 . S
O378 C376 1.263 . S
C379 O380 1.235 . S
C379 O406 1.289 . S
O380 C379 1.235 . S
C381 C383 1.400 . S
C381 N384 1.351 . S
C381 C386 1.501 . S
C382 C383 1.387 . S
C382 N385 1.341 . S
C383 C381 1.400 . S
C383 C382 1.387 . S
N384 Co375 2.022 . S
N384 C381 1.351 . S
N384 N385 1.365 . S
N385 C382 1.341 . S
N385 N384 1.365 . S
N385 H405 0.862 . S
C386 C381 1.501 . S
C386 H387 0.961 . S
C386 H388 0.961 . S
C386 H389 0.960 . S
H387 C386 0.961 . S
H388 C386 0.961 . S
H389 C386 0.960 . S
C390 N391 1.342 . S
C390 C394 1.401 . S
C390 C395 1.499 1_545 S
N391 Co374 1.989 . S
N391 C390 1.342 . S
N391 N392 1.388 . S
N392 Co375 1.993 . S
N392 N391 1.388 . S
N392 C393 1.346 . S
C393 N392 1.346 . S
C393 C394 1.396 . S
C393 C403 1.510 . S
C394 C390 1.401 . S
C394 C393 1.396 . S
C395 C390 1.499 1_565 S
C395 H396 0.959 . S
C395 H397 0.960 . S
C395 H398 0.961 . S
H396 C395 0.959 . S
H397 C395 0.960 . S
H398 C395 0.961 . S
O399 Co374 1.965 1_565 S
O399 C407 1.251 1_565 S
O400 Co375 1.941 . S
O400 C407 1.266 . S
H401 C403 0.959 . S
H402 C403 0.961 . S
C403 C393 1.510 . S
C403 H401 0.959 . S
C403 H402 0.961 . S
C403 H404 0.960 . S
H404 C403 0.960 . S
H405 N385 0.862 . S
O406 Co374 1.920 1_565 S
O406 C379 1.289 . S
C407 O399 1.251 1_545 S
C407 O400 1.266 . S
C172 C5 1.690 . S
C2 C39 1.690 . S
C36 C73 1.690 . S
C107 C70 1.690 . S
C141 C104 1.690 . S
C138 C175 1.690 . S
C240 C209 1.690 . S
C274 C243 1.690 . S
C308 C277 1.690 . S
C342 C311 1.690 . S
C376 C345 1.690 . S
C206 C379 1.690 . S
C281 C9 1.413 . S
C43 C315 1.413 . S
C77 C349 1.413 . S
C111 C383 1.413 . S
C145 C213 1.413 . S
C247 C179 1.413 . S
C339 C33 1.543 . S
C373 C67 1.543 1_455 S
C101 C407 1.543 1_565 S
C135 C237 1.543 . S
C169 C271 1.543 1_455 S
C305 C203 1.543 1_564 S
C20 C224 2.431 . S
C258 C54 2.431 . S
C88 C292 2.431 . S
C326 C122 2.431 . S
C360 C156 2.431 . S
C394 C190 2.431 . S
