# Generated by pormake.
# Topology wgl, (5)-cn, num edge types: 1
# Building blocks:
#     Node 0, Type 0, BuildingBlock: BEQFEK_clean_sbu_0, # of connection points: 5
#     Node 1, Type 0, BuildingBlock: BEQFEK_clean_sbu_0, # of connection points: 5
#     Node 2, Type 0, BuildingBlock: BEQFEK_clean_sbu_0, # of connection points: 5
#     Node 3, Type 0, BuildingBlock: BEQFEK_clean_sbu_0, # of connection points: 5
#     Node 4, Type 0, BuildingBlock: BEQFEK_clean_sbu_0, # of connection points: 5
#     Node 5, Type 0, BuildingBlock: BEQFEK_clean_sbu_0, # of connection points: 5
#     Node 6, Type 0, BuildingBlock: BEQFEK_clean_sbu_0, # of connection points: 5
#     Node 7, Type 0, BuildingBlock: BEQFEK_clean_sbu_0, # of connection points: 5
#     Node 8, Type 0, BuildingBlock: BEQFEK_clean_sbu_0, # of connection points: 5
#     Node 9, Type 0, BuildingBlock: BEQFEK_clean_sbu_0, # of connection points: 5
#     Node 10, Type 0, BuildingBlock: BEQFEK_clean_sbu_0, # of connection points: 5
#     Node 11, Type 0, BuildingBlock: BEQFEK_clean_sbu_0, # of connection points: 5
#     Node 12, Type 0, BuildingBlock: BEQFEK_clean_sbu_0, # of connection points: 5
#     Node 13, Type 0, BuildingBlock: BEQFEK_clean_sbu_0, # of connection points: 5
#     Node 14, Type 0, BuildingBlock: BEQFEK_clean_sbu_0, # of connection points: 5
#     Node 15, Type 0, BuildingBlock: BEQFEK_clean_sbu_0, # of connection points: 5
#     Node 16, Type 0, BuildingBlock: BEQFEK_clean_sbu_0, # of connection points: 5
#     Node 17, Type 0, BuildingBlock: BEQFEK_clean_sbu_0, # of connection points: 5
#     Node 18, Type 0, BuildingBlock: BEQFEK_clean_sbu_0, # of connection points: 5
#     Node 19, Type 0, BuildingBlock: BEQFEK_clean_sbu_0, # of connection points: 5
#     Node 20, Type 0, BuildingBlock: BEQFEK_clean_sbu_0, # of connection points: 5
#     Node 21, Type 0, BuildingBlock: BEQFEK_clean_sbu_0, # of connection points: 5
#     Node 22, Type 0, BuildingBlock: BEQFEK_clean_sbu_0, # of connection points: 5
#     Node 23, Type 0, BuildingBlock: BEQFEK_clean_sbu_0, # of connection points: 5
#     Node 24, Type 0, BuildingBlock: BEQFEK_clean_sbu_0, # of connection points: 5
#     Node 25, Type 0, BuildingBlock: BEQFEK_clean_sbu_0, # of connection points: 5
#     Node 26, Type 0, BuildingBlock: BEQFEK_clean_sbu_0, # of connection points: 5
#     Node 27, Type 0, BuildingBlock: BEQFEK_clean_sbu_0, # of connection points: 5
#     Node 28, Type 0, BuildingBlock: BEQFEK_clean_sbu_0, # of connection points: 5
#     Node 29, Type 0, BuildingBlock: BEQFEK_clean_sbu_0, # of connection points: 5
#     Node 30, Type 0, BuildingBlock: BEQFEK_clean_sbu_0, # of connection points: 5
#     Node 31, Type 0, BuildingBlock: BEQFEK_clean_sbu_0, # of connection points: 5
#     Edge 32, Type (0, 0), BuildingBlock: TEMPAE_clean_linker_10, # of connection points: 2
#     Edge 33, Type (0, 0), BuildingBlock: TEMPAE_clean_linker_10, # of connection points: 2
#     Edge 34, Type (0, 0), BuildingBlock: TEMPAE_clean_linker_10, # of connection points: 2
#     Edge 35, Type (0, 0), BuildingBlock: TEMPAE_clean_linker_10, # of connection points: 2
#     Edge 36, Type (0, 0), BuildingBlock: TEMPAE_clean_linker_10, # of connection points: 2
#     Edge 37, Type (0, 0), BuildingBlock: TEMPAE_clean_linker_10, # of connection points: 2
#     Edge 38, Type (0, 0), BuildingBlock: TEMPAE_clean_linker_10, # of connection points: 2
#     Edge 39, Type (0, 0), BuildingBlock: TEMPAE_clean_linker_10, # of connection points: 2
#     Edge 40, Type (0, 0), BuildingBlock: TEMPAE_clean_linker_10, # of connection points: 2
#     Edge 41, Type (0, 0), BuildingBlock: TEMPAE_clean_linker_10, # of connection points: 2
#     Edge 42, Type (0, 0), BuildingBlock: TEMPAE_clean_linker_10, # of connection points: 2
#     Edge 43, Type (0, 0), BuildingBlock: TEMPAE_clean_linker_10, # of connection points: 2
#     Edge 44, Type (0, 0), BuildingBlock: TEMPAE_clean_linker_10, # of connection points: 2
#     Edge 45, Type (0, 0), BuildingBlock: TEMPAE_clean_linker_10, # of connection points: 2
#     Edge 46, Type (0, 0), BuildingBlock: TEMPAE_clean_linker_10, # of connection points: 2
#     Edge 47, Type (0, 0), BuildingBlock: TEMPAE_clean_linker_10, # of connection points: 2
#     Edge 48, Type (0, 0), BuildingBlock: TEMPAE_clean_linker_10, # of connection points: 2
#     Edge 49, Type (0, 0), BuildingBlock: TEMPAE_clean_linker_10, # of connection points: 2
#     Edge 50, Type (0, 0), BuildingBlock: TEMPAE_clean_linker_10, # of connection points: 2
#     Edge 51, Type (0, 0), BuildingBlock: TEMPAE_clean_linker_10, # of connection points: 2
#     Edge 52, Type (0, 0), BuildingBlock: TEMPAE_clean_linker_10, # of connection points: 2
#     Edge 53, Type (0, 0), BuildingBlock: TEMPAE_clean_linker_10, # of connection points: 2
#     Edge 54, Type (0, 0), BuildingBlock: TEMPAE_clean_linker_10, # of connection points: 2
#     Edge 55, Type (0, 0), BuildingBlock: TEMPAE_clean_linker_10, # of connection points: 2
#     Edge 56, Type (0, 0), BuildingBlock: TEMPAE_clean_linker_10, # of connection points: 2
#     Edge 57, Type (0, 0), BuildingBlock: TEMPAE_clean_linker_10, # of connection points: 2
#     Edge 58, Type (0, 0), BuildingBlock: TEMPAE_clean_linker_10, # of connection points: 2
#     Edge 59, Type (0, 0), BuildingBlock: TEMPAE_clean_linker_10, # of connection points: 2
#     Edge 60, Type (0, 0), BuildingBlock: TEMPAE_clean_linker_10, # of connection points: 2
#     Edge 61, Type (0, 0), BuildingBlock: TEMPAE_clean_linker_10, # of connection points: 2
#     Edge 62, Type (0, 0), BuildingBlock: TEMPAE_clean_linker_10, # of connection points: 2
#     Edge 63, Type (0, 0), BuildingBlock: TEMPAE_clean_linker_10, # of connection points: 2
#     Edge 64, Type (0, 0), BuildingBlock: TEMPAE_clean_linker_10, # of connection points: 2
#     Edge 65, Type (0, 0), BuildingBlock: TEMPAE_clean_linker_10, # of connection points: 2
#     Edge 66, Type (0, 0), BuildingBlock: TEMPAE_clean_linker_10, # of connection points: 2
#     Edge 67, Type (0, 0), BuildingBlock: TEMPAE_clean_linker_10, # of connection points: 2
#     Edge 68, Type (0, 0), BuildingBlock: TEMPAE_clean_linker_10, # of connection points: 2
#     Edge 69, Type (0, 0), BuildingBlock: TEMPAE_clean_linker_10, # of connection points: 2
#     Edge 70, Type (0, 0), BuildingBlock: TEMPAE_clean_linker_10, # of connection points: 2
#     Edge 71, Type (0, 0), BuildingBlock: TEMPAE_clean_linker_10, # of connection points: 2
#     Edge 72, Type (0, 0), BuildingBlock: TEMPAE_clean_linker_10, # of connection points: 2
#     Edge 73, Type (0, 0), BuildingBlock: TEMPAE_clean_linker_10, # of connection points: 2
#     Edge 74, Type (0, 0), BuildingBlock: TEMPAE_clean_linker_10, # of connection points: 2
#     Edge 75, Type (0, 0), BuildingBlock: TEMPAE_clean_linker_10, # of connection points: 2
#     Edge 76, Type (0, 0), BuildingBlock: TEMPAE_clean_linker_10, # of connection points: 2
#     Edge 77, Type (0, 0), BuildingBlock: TEMPAE_clean_linker_10, # of connection points: 2
#     Edge 78, Type (0, 0), BuildingBlock: TEMPAE_clean_linker_10, # of connection points: 2
#     Edge 79, Type (0, 0), BuildingBlock: TEMPAE_clean_linker_10, # of connection points: 2
#     Edge 80, Type (0, 0), BuildingBlock: TEMPAE_clean_linker_10, # of connection points: 2
#     Edge 81, Type (0, 0), BuildingBlock: TEMPAE_clean_linker_10, # of connection points: 2
#     Edge 82, Type (0, 0), BuildingBlock: TEMPAE_clean_linker_10, # of connection points: 2
#     Edge 83, Type (0, 0), BuildingBlock: TEMPAE_clean_linker_10, # of connection points: 2
#     Edge 84, Type (0, 0), BuildingBlock: TEMPAE_clean_linker_10, # of connection points: 2
#     Edge 85, Type (0, 0), BuildingBlock: TEMPAE_clean_linker_10, # of connection points: 2
#     Edge 86, Type (0, 0), BuildingBlock: TEMPAE_clean_linker_10, # of connection points: 2
#     Edge 87, Type (0, 0), BuildingBlock: TEMPAE_clean_linker_10, # of connection points: 2
#     Edge 88, Type (0, 0), BuildingBlock: TEMPAE_clean_linker_10, # of connection points: 2
#     Edge 89, Type (0, 0), BuildingBlock: TEMPAE_clean_linker_10, # of connection points: 2
#     Edge 90, Type (0, 0), BuildingBlock: TEMPAE_clean_linker_10, # of connection points: 2
#     Edge 91, Type (0, 0), BuildingBlock: TEMPAE_clean_linker_10, # of connection points: 2
#     Edge 92, Type (0, 0), BuildingBlock: TEMPAE_clean_linker_10, # of connection points: 2
#     Edge 93, Type (0, 0), BuildingBlock: TEMPAE_clean_linker_10, # of connection points: 2
#     Edge 94, Type (0, 0), BuildingBlock: TEMPAE_clean_linker_10, # of connection points: 2
#     Edge 95, Type (0, 0), BuildingBlock: TEMPAE_clean_linker_10, # of connection points: 2
#     Edge 96, Type (0, 0), BuildingBlock: TEMPAE_clean_linker_10, # of connection points: 2
#     Edge 97, Type (0, 0), BuildingBlock: TEMPAE_clean_linker_10, # of connection points: 2
#     Edge 98, Type (0, 0), BuildingBlock: TEMPAE_clean_linker_10, # of connection points: 2
#     Edge 99, Type (0, 0), BuildingBlock: TEMPAE_clean_linker_10, # of connection points: 2
#     Edge 100, Type (0, 0), BuildingBlock: TEMPAE_clean_linker_10, # of connection points: 2
#     Edge 101, Type (0, 0), BuildingBlock: TEMPAE_clean_linker_10, # of connection points: 2
#     Edge 102, Type (0, 0), BuildingBlock: TEMPAE_clean_linker_10, # of connection points: 2
#     Edge 103, Type (0, 0), BuildingBlock: TEMPAE_clean_linker_10, # of connection points: 2
#     Edge 104, Type (0, 0), BuildingBlock: TEMPAE_clean_linker_10, # of connection points: 2
#     Edge 105, Type (0, 0), BuildingBlock: TEMPAE_clean_linker_10, # of connection points: 2
#     Edge 106, Type (0, 0), BuildingBlock: TEMPAE_clean_linker_10, # of connection points: 2
#     Edge 107, Type (0, 0), BuildingBlock: TEMPAE_clean_linker_10, # of connection points: 2
#     Edge 108, Type (0, 0), BuildingBlock: TEMPAE_clean_linker_10, # of connection points: 2
#     Edge 109, Type (0, 0), BuildingBlock: TEMPAE_clean_linker_10, # of connection points: 2
#     Edge 110, Type (0, 0), BuildingBlock: TEMPAE_clean_linker_10, # of connection points: 2
#     Edge 111, Type (0, 0), BuildingBlock: TEMPAE_clean_linker_10, # of connection points: 2
# Relax obj value: 0.070
# Max RMSD: 0.100
# Mean RMSD: 0.100
data_MOF--net-wgl--node1-BEQFEK_clean_sbu_0--edge1-TEMPAE_clean_linker_10
_symmetry_space_group_name_H-M    P1
_symmetry_Int_Tables_number       1
_symmetry_cell_setting            triclinic
loop_
_symmetry_equiv_pos_as_xyz
'x, y, z'
_cell_length_a     57.424135
_cell_length_b     57.415159
_cell_length_c     60.786787
_cell_angle_alpha  90.009863
_cell_angle_beta   90.017706
_cell_angle_gamma 90.00456
loop_
_atom_site_label
_atom_site_type_symbol
_atom_site_fract_x
_atom_site_fract_y
_atom_site_fract_z
_atom_type_partial_charge
Co0 Co 0.30975 0.26357 0.117 0.0
Co1 Co 0.27974 0.3088 0.12193 0.0
C2 C 0.27846 0.2798 0.08047 0.0
O3 O 0.29297 0.26498 0.08808 0.0
O4 O 0.27215 0.29736 0.09185 0.0
C5 C 0.34101 0.22621 0.10551 0.0
O6 O 0.34383 0.238 0.08717 0.0
C7 C 0.23956 0.34139 0.12468 0.0
C8 C 0.25607 0.37025 0.14304 0.0
C9 C 0.23535 0.36347 0.13329 0.0
N10 N 0.26174 0.33555 0.12927 0.0
N11 N 0.27141 0.35287 0.14029 0.0
C12 C 0.22333 0.3265 0.11152 0.0
H13 H 0.23298 0.31293 0.10239 0.0
H14 H 0.21105 0.31761 0.12284 0.0
H15 H 0.21312 0.33733 0.09987 0.0
C16 C 0.2849 0.25258 0.15895 0.0
N17 N 0.28852 0.26618 0.14118 0.0
N18 N 0.27595 0.28521 0.14319 0.0
C19 C 0.26421 0.28455 0.16237 0.0
C20 C 0.2694 0.26377 0.17304 0.0
C21 C 0.29638 0.22947 0.16242 0.0
H22 H 0.31509 0.23224 0.16618 0.0
H23 H 0.29521 0.21901 0.14712 0.0
H24 H 0.28815 0.21965 0.17607 0.0
O25 O 0.33404 0.28853 0.11855 0.0
O26 O 0.31197 0.31986 0.1232 0.0
H27 H 0.26206 0.3205 0.17125 0.0
H28 H 0.24504 0.3019 0.18861 0.0
C29 C 0.25086 0.3048 0.17147 0.0
H30 H 0.23547 0.30818 0.16091 0.0
H31 H 0.28861 0.3529 0.14584 0.0
O32 O 0.32683 0.23372 0.11989 0.0
C33 C 0.33185 0.31037 0.12158 0.0
Co34 Co 0.98177 0.06051 0.36719 0.0
Co35 Co 0.9365 0.03095 0.37093 0.0
C36 C 0.96695 0.02907 0.3305 0.0
O37 O 0.98152 0.04375 0.3382 0.0
O38 O 0.94914 0.02297 0.34157 0.0
C39 C 0.02123 0.08909 0.35567 0.0
O40 O 0.01168 0.08951 0.33603 0.0
C41 C 0.9078 0.98889 0.37382 0.0
C42 C 0.87332 0.00407 0.38137 0.0
C43 C 0.88467 0.98328 0.37721 0.0
N44 N 0.91007 0.01206 0.37591 0.0
N45 N 0.88945 0.02101 0.38058 0.0
C46 C 0.927 0.97285 0.36703 0.0
H47 H 0.9439 0.98221 0.36654 0.0
H48 H 0.92813 0.95802 0.37868 0.0
H49 H 0.92306 0.96562 0.3505 0.0
C50 C 0.99141 0.03578 0.40954 0.0
N51 N 0.97836 0.03934 0.39139 0.0
N52 N 0.95902 0.02721 0.39315 0.0
C53 C 0.95884 0.01597 0.41261 0.0
C54 C 0.97945 0.02088 0.42366 0.0
C55 C 0.01472 0.04673 0.41331 0.0
H56 H 0.0253 0.04551 0.3981 0.0
H57 H 0.02422 0.03814 0.42697 0.0
H58 H 0.01231 0.06545 0.41726 0.0
O59 O 0.95672 0.08488 0.36818 0.0
O60 O 0.9251 0.06304 0.372 0.0
H61 H 0.92192 0.013 0.41731 0.0
H62 H 0.9389 0.00173 0.43978 0.0
C63 C 0.93804 0.00345 0.42163 0.0
H64 H 0.93713 0.9858 0.41427 0.0
H65 H 0.88626 0.03875 0.38274 0.0
O66 O 0.01153 0.07745 0.37088 0.0
C67 C 0.93479 0.08286 0.3707 0.0
Co68 Co 0.18911 0.73518 0.62054 0.0
Co69 Co 0.21923 0.69002 0.62472 0.0
C70 C 0.21977 0.71896 0.5834 0.0
O71 O 0.20548 0.73378 0.59135 0.0
O72 O 0.22625 0.70132 0.59458 0.0
C73 C 0.15906 0.77312 0.60857 0.0
O74 O 0.15693 0.76158 0.59001 0.0
C75 C 0.25905 0.65696 0.62669 0.0
C76 C 0.24321 0.62924 0.64701 0.0
C77 C 0.2635 0.63531 0.63611 0.0
N78 N 0.23719 0.66327 0.63199 0.0
N79 N 0.2279 0.64662 0.64414 0.0
C80 C 0.27478 0.67104 0.61225 0.0
H81 H 0.26482 0.68412 0.60281 0.0
H82 H 0.28753 0.6805 0.62267 0.0
H83 H 0.28446 0.65955 0.60076 0.0
C84 C 0.21486 0.74601 0.66214 0.0
N85 N 0.21075 0.73249 0.64439 0.0
N86 N 0.22369 0.71365 0.64582 0.0
C87 C 0.23641 0.7145 0.66444 0.0
C88 C 0.2313 0.73508 0.67543 0.0
C89 C 0.2029 0.76871 0.66638 0.0
H90 H 0.20415 0.77988 0.65154 0.0
H91 H 0.21068 0.77803 0.68059 0.0
H92 H 0.18417 0.76545 0.66963 0.0
O93 O 0.16474 0.7103 0.62234 0.0
O94 O 0.18697 0.67904 0.62641 0.0
H95 H 0.25872 0.6983 0.68906 0.0
H96 H 0.26506 0.69104 0.66078 0.0
C97 C 0.25095 0.6947 0.67273 0.0
H98 H 0.23995 0.67893 0.67419 0.0
H99 H 0.21102 0.64709 0.65046 0.0
O100 O 0.17237 0.76517 0.62348 0.0
C101 C 0.16702 0.68845 0.62519 0.0
Co102 Co 0.51473 0.9399 0.86531 0.0
Co103 Co 0.56033 0.96899 0.86944 0.0
C104 C 0.53001 0.97263 0.82943 0.0
O105 O 0.5156 0.95766 0.83688 0.0
O106 O 0.54782 0.97862 0.84055 0.0
C107 C 0.46477 0.92988 0.86483 0.0
O108 O 0.46142 0.95231 0.86194 0.0
C109 C 0.59002 0.0104 0.87385 0.0
C110 C 0.62276 0.99446 0.88562 0.0
C111 C 0.61272 0.0157 0.88026 0.0
N112 N 0.58706 0.98724 0.87552 0.0
N113 N 0.60669 0.97783 0.88248 0.0
C114 C 0.57085 0.02671 0.8675 0.0
H115 H 0.55365 0.01828 0.86993 0.0
H116 H 0.5718 0.04296 0.87735 0.0
H117 H 0.57257 0.03117 0.84981 0.0
C118 C 0.50618 0.96232 0.90936 0.0
N119 N 0.51843 0.95973 0.89054 0.0
N120 N 0.53788 0.97179 0.89216 0.0
C121 C 0.53869 0.98228 0.91198 0.0
C122 C 0.51857 0.97682 0.9235 0.0
C123 C 0.48325 0.95082 0.91379 0.0
H124 H 0.46986 0.95872 0.90303 0.0
H125 H 0.47747 0.95311 0.93103 0.0
H126 H 0.48442 0.93198 0.9099 0.0
O127 O 0.53946 0.91562 0.86601 0.0
O128 O 0.57161 0.93668 0.86854 0.0
H129 H 0.55866 0.99706 0.93895 0.0
H130 H 0.56108 0.01201 0.91299 0.0
C131 C 0.55964 0.99466 0.92087 0.0
H132 H 0.57555 0.98454 0.91708 0.0
H133 H 0.60908 0.96005 0.88521 0.0
O134 O 0.4853 0.92193 0.86665 0.0
C135 C 0.56152 0.91702 0.86751 0.0
Co136 Co 0.3149 0.73312 0.39223 0.0
Co137 Co 0.27996 0.69221 0.38559 0.0
C138 C 0.279 0.7198 0.4269 0.0
O139 O 0.29561 0.73268 0.42003 0.0
O140 O 0.27112 0.70324 0.41513 0.0
C141 C 0.32557 0.78186 0.38981 0.0
O142 O 0.30302 0.78405 0.38675 0.0
C143 C 0.23878 0.66167 0.38308 0.0
C144 C 0.24932 0.63813 0.35605 0.0
C145 C 0.23145 0.64279 0.37067 0.0
N146 N 0.26004 0.66793 0.37602 0.0
N147 N 0.26626 0.65374 0.35994 0.0
C148 C 0.22548 0.67431 0.40053 0.0
H149 H 0.22924 0.69324 0.39967 0.0
H150 H 0.20646 0.67138 0.39875 0.0
H151 H 0.2311 0.66784 0.41689 0.0
C152 C 0.29684 0.74417 0.34664 0.0
N153 N 0.29617 0.73251 0.36599 0.0
N154 N 0.27972 0.71659 0.3648 0.0
C155 C 0.26868 0.71841 0.34533 0.0
C156 C 0.27936 0.73564 0.333 0.0
C157 C 0.3159 0.76048 0.33994 0.0
H158 H 0.33189 0.75714 0.34965 0.0
H159 H 0.31009 0.77867 0.34267 0.0
H160 H 0.31988 0.75851 0.32216 0.0
O161 O 0.33657 0.70615 0.39198 0.0
O162 O 0.31119 0.6777 0.38605 0.0
H163 H 0.25452 0.68735 0.33125 0.0
H164 H 0.23762 0.7131 0.32598 0.0
C165 C 0.24825 0.7039 0.33852 0.0
H166 H 0.23716 0.69998 0.35297 0.0
H167 H 0.28208 0.65481 0.35156 0.0
O168 O 0.33422 0.76174 0.39276 0.0
C169 C 0.332 0.68472 0.38874 0.0
Co170 Co 0.51671 0.06207 0.63569 0.0
Co171 Co 0.56131 0.03107 0.63161 0.0
C172 C 0.53207 0.03104 0.67278 0.0
O173 O 0.51761 0.04566 0.6648 0.0
O174 O 0.54962 0.02417 0.66168 0.0
C175 C 0.47985 0.09361 0.64714 0.0
O176 O 0.49165 0.09605 0.66552 0.0
C177 C 0.59346 0.99048 0.62961 0.0
C178 C 0.62158 0.00576 0.6094 0.0
C179 C 0.61504 0.98555 0.62021 0.0
N180 N 0.58768 0.01251 0.62438 0.0
N181 N 0.60458 0.02146 0.61231 0.0
C182 C 0.57896 0.97503 0.64393 0.0
H183 H 0.56599 0.98525 0.65326 0.0
H184 H 0.56935 0.96246 0.63345 0.0
H185 H 0.59016 0.96515 0.65552 0.0
C186 C 0.50548 0.03666 0.59407 0.0
N187 N 0.51908 0.04049 0.61181 0.0
N188 N 0.53771 0.02726 0.61034 0.0
C189 C 0.53664 0.01463 0.59168 0.0
C190 C 0.51614 0.02011 0.58071 0.0
C191 C 0.48291 0.04892 0.58994 0.0
H192 H 0.47186 0.04792 0.60487 0.0
H193 H 0.47335 0.04118 0.57585 0.0
H194 H 0.48641 0.06758 0.58654 0.0
O195 O 0.54208 0.08583 0.63422 0.0
O196 O 0.57303 0.06315 0.63023 0.0
H197 H 0.55253 0.99227 0.56691 0.0
H198 H 0.55947 0.98545 0.59516 0.0
C199 C 0.55618 -0.00023 0.58334 0.0
H200 H 0.57218 0.01046 0.58208 0.0
H201 H 0.60451 0.03839 0.60605 0.0
O202 O 0.4872 0.07953 0.63259 0.0
C203 C 0.56391 0.08324 0.63157 0.0
Co204 Co 0.18621 0.26314 0.88763 0.0
Co205 Co 0.21608 0.30826 0.88332 0.0
C206 C 0.21848 0.27923 0.92406 0.0
O207 O 0.20362 0.26474 0.91645 0.0
O208 O 0.22491 0.29683 0.91283 0.0
C209 C 0.15648 0.22486 0.89973 0.0
O210 O 0.15381 0.23644 0.9182 0.0
C211 C 0.2552 0.34141 0.88196 0.0
C212 C 0.24155 0.36746 0.85846 0.0
C213 C 0.26073 0.36207 0.8713 0.0
N214 N 0.23374 0.33494 0.87561 0.0
N215 N 0.22565 0.35063 0.86166 0.0
C216 C 0.27051 0.32705 0.89653 0.0
H217 H 0.266 0.30833 0.89497 0.0
H218 H 0.28914 0.32967 0.89234 0.0
H219 H 0.26772 0.33237 0.91387 0.0
C220 C 0.20857 0.25399 0.84418 0.0
N221 N 0.20642 0.2664 0.86293 0.0
N222 N 0.21983 0.2849 0.86172 0.0
C223 C 0.23144 0.28458 0.84247 0.0
C224 C 0.22449 0.26517 0.83051 0.0
C225 C 0.19344 0.23361 0.83855 0.0
H226 H 0.17501 0.23793 0.8422 0.0
H227 H 0.19842 0.21857 0.849 0.0
H228 H 0.19494 0.22863 0.82098 0.0
O229 O 0.1617 0.28752 0.88631 0.0
O230 O 0.18346 0.3192 0.88321 0.0
H231 H 0.23947 0.31849 0.8301 0.0
H232 H 0.25991 0.29624 0.8219 0.0
C233 C 0.2488 0.3026 0.83557 0.0
H234 H 0.26013 0.30717 0.84966 0.0
H235 H 0.20934 0.34969 0.85415 0.0
O236 O 0.17001 0.23287 0.88505 0.0
C237 C 0.16358 0.30952 0.88429 0.0
Co238 Co 0.98479 0.93473 0.13895 0.0
Co239 Co 0.93852 0.96305 0.13426 0.0
C240 C 0.96784 0.96581 0.17536 0.0
O241 O 0.98295 0.95156 0.16786 0.0
O242 O 0.95006 0.97151 0.16401 0.0
C243 C 0.02153 0.90322 0.15015 0.0
O244 O 0.00846 0.89914 0.16746 0.0
C245 C 0.90605 0.00307 0.13071 0.0
C246 C 0.87631 0.986 0.11418 0.0
C247 C 0.88375 0.00717 0.12256 0.0
N248 N 0.91139 0.98057 0.12711 0.0
N249 N 0.89354 0.97054 0.1172 0.0
C250 C 0.92169 0.01979 0.14249 0.0
H251 H 0.93538 0.01044 0.15175 0.0
H252 H 0.93043 0.03116 0.13026 0.0
H253 H 0.91146 0.03093 0.15386 0.0
C254 C 0.99481 0.95961 0.09695 0.0
N255 N 0.9814 0.95567 0.11478 0.0
N256 N 0.9618 0.96732 0.11265 0.0
C257 C 0.96193 0.97878 0.0933 0.0
C258 C 0.98291 0.97438 0.08269 0.0
C259 C 0.01835 0.94903 0.09357 0.0
H260 H 0.0287 0.95059 0.1089 0.0
H261 H 0.02788 0.95762 0.07992 0.0
H262 H 0.0163 0.93022 0.0898 0.0
O263 O 0.96069 0.90977 0.1371 0.0
O264 O 0.9283 0.93039 0.13382 0.0
H265 H 0.94349 0.99578 0.06645 0.0
H266 H 0.9379 0.00721 0.09362 0.0
C267 C 0.94116 0.99113 0.08399 0.0
H268 H 0.92565 0.97977 0.08536 0.0
H269 H 0.89309 0.95305 0.11253 0.0
O270 O 0.01504 0.91844 0.13627 0.0
C271 C 0.93866 0.91087 0.13486 0.0
Co272 Co 0.68561 0.73393 0.8883 0.0
Co273 Co 0.7159 0.68909 0.88451 0.0
C274 C 0.7172 0.7183 0.92526 0.0
O275 O 0.70251 0.73279 0.91738 0.0
O276 O 0.7238 0.70066 0.91418 0.0
C277 C 0.65726 0.77379 0.90002 0.0
O278 O 0.65652 0.76452 0.91977 0.0
C279 C 0.75585 0.65701 0.88395 0.0
C280 C 0.74385 0.63106 0.85957 0.0
C281 C 0.76244 0.63691 0.87298 0.0
N282 N 0.73435 0.66285 0.87719 0.0
N283 N 0.72722 0.64718 0.86276 0.0
C284 C 0.77031 0.67152 0.89916 0.0
H285 H 0.7654 0.69015 0.8977 0.0
H286 H 0.78913 0.6694 0.89553 0.0
H287 H 0.76707 0.66584 0.91633 0.0
C288 C 0.70835 0.74306 0.84511 0.0
N289 N 0.70621 0.7308 0.86394 0.0
N290 N 0.71992 0.7125 0.86301 0.0
C291 C 0.73178 0.71288 0.8439 0.0
C292 C 0.72461 0.73203 0.8317 0.0
C293 C 0.69278 0.76298 0.83907 0.0
H294 H 0.67441 0.75814 0.84239 0.0
H295 H 0.69711 0.77822 0.84952 0.0
H296 H 0.69449 0.76789 0.82151 0.0
O297 O 0.66149 0.70926 0.8867 0.0
O298 O 0.6834 0.67767 0.88361 0.0
H299 H 0.74061 0.67911 0.83166 0.0
H300 H 0.7608 0.7017 0.8238 0.0
C301 C 0.74956 0.69515 0.8373 0.0
H302 H 0.76073 0.69079 0.85156 0.0
H303 H 0.71113 0.64774 0.85479 0.0
O304 O 0.66904 0.76386 0.88505 0.0
C305 C 0.66347 0.6873 0.88451 0.0
Co306 Co 0.01326 0.93766 0.63773 0.0
Co307 Co 0.05781 0.96864 0.63356 0.0
C308 C 0.02871 0.96986 0.67441 0.0
O309 O 0.01445 0.95489 0.6666 0.0
O310 O 0.04623 0.9767 0.66328 0.0
C311 C 0.977 0.90541 0.64914 0.0
O312 O 0.98981 0.90185 0.66673 0.0
C313 C 0.09069 0.00828 0.63306 0.0
C314 C 0.11523 0.99661 0.6073 0.0
C315 C 0.11051 0.01479 0.62156 0.0
N316 N 0.08395 0.98721 0.62579 0.0
N317 N 0.0988 0.98029 0.61052 0.0
C318 C 0.07742 0.02238 0.64952 0.0
H319 H 0.05853 0.01851 0.64829 0.0
H320 H 0.08042 0.04129 0.64698 0.0
H321 H 0.08339 0.01764 0.66629 0.0
C322 C 0.00338 0.96029 0.59459 0.0
N323 N 0.01598 0.95817 0.61323 0.0
N324 N 0.03415 0.97205 0.61209 0.0
C325 C 0.03336 0.98395 0.593 0.0
C326 C 0.01406 0.97668 0.58106 0.0
C327 C 0.9833 0.94479 0.58891 0.0
H328 H 0.98808 0.9264 0.59225 0.0
H329 H 0.96827 0.94924 0.59958 0.0
H330 H 0.9781 0.94648 0.57142 0.0
O331 O 0.0383 0.9139 0.63631 0.0
O332 O 0.06959 0.93622 0.63307 0.0
H333 H 0.06658 0.99319 0.57977 0.0
H334 H 0.04366 0.01347 0.57318 0.0
C335 C 0.05078 0.00195 0.5862 0.0
H336 H 0.05571 0.01278 0.60055 0.0
H337 H 0.0975 0.96452 0.60208 0.0
O338 O 0.98346 0.92051 0.63514 0.0
C339 C 0.06024 0.91616 0.63418 0.0
Co340 Co 0.81346 0.26723 0.39034 0.0
Co341 Co 0.78268 0.31179 0.38494 0.0
C342 C 0.77986 0.28252 0.42566 0.0
O343 O 0.79515 0.26833 0.4184 0.0
O344 O 0.77346 0.30005 0.41431 0.0
C345 C 0.82485 0.21763 0.39145 0.0
O346 O 0.80243 0.21384 0.39379 0.0
C347 C 0.74189 0.34295 0.38227 0.0
C348 C 0.75602 0.37127 0.36156 0.0
C349 C 0.73615 0.36404 0.37249 0.0
N350 N 0.76412 0.33796 0.3772 0.0
N351 N 0.77249 0.35504 0.36496 0.0
C352 C 0.72634 0.32708 0.39509 0.0
H353 H 0.73201 0.30872 0.39306 0.0
H354 H 0.70795 0.32899 0.38973 0.0
H355 H 0.72751 0.33162 0.4128 0.0
C356 C 0.79161 0.25677 0.34642 0.0
N357 N 0.79376 0.26961 0.36495 0.0
N358 N 0.78048 0.28822 0.36315 0.0
C359 C 0.76928 0.28769 0.34367 0.0
C360 C 0.77591 0.26775 0.3324 0.0
C361 C 0.80462 0.23463 0.34213 0.0
H362 H 0.79692 0.22056 0.35223 0.0
H363 H 0.8035 0.22911 0.32471 0.0
H364 H 0.82315 0.23675 0.34686 0.0
O365 O 0.83682 0.29268 0.38955 0.0
O366 O 0.8147 0.32396 0.3856 0.0
H367 H 0.74764 0.3037 0.3184 0.0
H368 H 0.74012 0.3107 0.34647 0.0
C369 C 0.75473 0.30731 0.335 0.0
H370 H 0.76557 0.32322 0.33394 0.0
H371 H 0.78942 0.35549 0.35874 0.0
O372 O 0.83239 0.23834 0.38979 0.0
C373 C 0.83467 0.31461 0.38732 0.0
Co374 Co 0.48675 0.06174 0.13725 0.0
Co375 Co 0.44183 0.03141 0.13315 0.0
C376 C 0.47109 0.02911 0.17367 0.0
O377 O 0.48527 0.04422 0.166 0.0
O378 O 0.45347 0.02245 0.16257 0.0
C379 C 0.52644 0.08927 0.1503 0.0
O380 O 0.51609 0.09004 0.16956 0.0
C381 C 0.40587 0.99442 0.13312 0.0
C382 C 0.38441 0.00586 0.10488 0.0
C383 C 0.38642 0.98859 0.12066 0.0
N384 N 0.41512 0.01399 0.12471 0.0
N385 N 0.40211 0.0208 0.10797 0.0
C386 C 0.4144 0.98311 0.15378 0.0
H387 H 0.41695 0.99663 0.16656 0.0
H388 H 0.4315 0.97476 0.15058 0.0
H389 H 0.40195 0.97002 0.16019 0.0
C390 C 0.49604 0.03904 0.09396 0.0
N391 N 0.48354 0.04147 0.11262 0.0
N392 N 0.46538 0.02757 0.11175 0.0
C393 C 0.4662 0.01516 0.09296 0.0
C394 C 0.48539 0.02228 0.08079 0.0
C395 C 0.51607 0.05446 0.08796 0.0
H396 H 0.51194 0.07275 0.09237 0.0
H397 H 0.53163 0.04911 0.09754 0.0
H398 H 0.52016 0.05359 0.07015 0.0
O399 O 0.46235 0.08621 0.13594 0.0
O400 O 0.4309 0.06411 0.133 0.0
H401 H 0.43378 0.00431 0.079 0.0
H402 H 0.45717 0.98384 0.07524 0.0
C403 C 0.44925 0.99639 0.08694 0.0
H404 H 0.44362 0.98688 0.10188 0.0
H405 H 0.4054 0.03566 0.09859 0.0
O406 O 0.5171 0.0778 0.13477 0.0
C407 C 0.44038 0.08411 0.13397 0.0
Co408 Co 0.68713 0.26694 0.61789 0.0
Co409 Co 0.71954 0.31033 0.62283 0.0
C410 C 0.72079 0.28202 0.58195 0.0
O411 O 0.70514 0.26837 0.58946 0.0
O412 O 0.72818 0.29917 0.59327 0.0
C413 C 0.67625 0.2174 0.62009 0.0
O414 O 0.69869 0.21409 0.62293 0.0
C415 C 0.75838 0.34424 0.62356 0.0
C416 C 0.74712 0.36701 0.65093 0.0
C417 C 0.76466 0.36383 0.63561 0.0
N418 N 0.7382 0.33608 0.6317 0.0
N419 N 0.73156 0.34981 0.64798 0.0
C420 C 0.76979 0.33468 0.60337 0.0
H421 H 0.77491 0.31631 0.60633 0.0
H422 H 0.78518 0.34498 0.59828 0.0
H423 H 0.75701 0.33483 0.58969 0.0
C424 C 0.70819 0.25699 0.66239 0.0
N425 N 0.70692 0.26885 0.64322 0.0
N426 N 0.72206 0.28606 0.64382 0.0
C427 C 0.7343 0.28489 0.66268 0.0
C428 C 0.72569 0.26672 0.67531 0.0
C429 C 0.69076 0.2392 0.66969 0.0
H430 H 0.67408 0.24151 0.66079 0.0
H431 H 0.69769 0.22152 0.66636 0.0
H432 H 0.68755 0.24061 0.68765 0.0
O433 O 0.6642 0.29243 0.61928 0.0
O434 O 0.68739 0.32298 0.62294 0.0
H435 H 0.74748 0.31677 0.67596 0.0
H436 H 0.76624 0.29206 0.68016 0.0
C437 C 0.75424 0.3006 0.66833 0.0
H438 H 0.76407 0.3052 0.65325 0.0
H439 H 0.7163 0.34746 0.65702 0.0
O440 O 0.66842 0.23793 0.61774 0.0
C441 C 0.66708 0.31424 0.62161 0.0
Co442 Co 0.48327 0.9354 0.36564 0.0
Co443 Co 0.44081 0.9692 0.37098 0.0
C444 C 0.46937 0.9702 0.33011 0.0
O445 O 0.48271 0.95422 0.33756 0.0
O446 O 0.45225 0.9777 0.34141 0.0
C447 C 0.53248 0.92412 0.36913 0.0
O448 O 0.53551 0.9465 0.37255 0.0
C449 C 0.40687 0.00865 0.37427 0.0
C450 C 0.38373 0.99431 0.4 0.0
C451 C 0.38697 0.01344 0.3865 0.0
N452 N 0.41509 0.9877 0.38052 0.0
N453 N 0.40114 0.97933 0.3959 0.0
C454 C 0.41708 0.023 0.35615 0.0
H455 H 0.42603 0.01175 0.34411 0.0
H456 H 0.43004 0.03523 0.36322 0.0
H457 H 0.4034 0.03319 0.34758 0.0
C458 C 0.49278 0.95494 0.41102 0.0
N459 N 0.48145 0.9547 0.39149 0.0
N460 N 0.46493 0.97058 0.39206 0.0
C461 C 0.466 0.98219 0.41126 0.0
C462 C 0.48337 0.97246 0.42414 0.0
C463 C 0.50959 0.93662 0.4184 0.0
H464 H 0.50701 0.92032 0.40894 0.0
H465 H 0.52763 0.94298 0.41589 0.0
H466 H 0.50737 0.93292 0.4362 0.0
O467 O 0.45709 0.91291 0.36586 0.0
O468 O 0.42769 0.93736 0.37082 0.0
H469 H 0.43412 0.99583 0.42412 0.0
H470 H 0.45923 0.01366 0.42963 0.0
C471 C 0.45072 0.00237 0.41717 0.0
H472 H 0.44688 0.01288 0.40231 0.0
H473 H 0.40346 0.96321 0.40353 0.0
O474 O 0.5121 0.91626 0.36577 0.0
C475 C 0.43549 0.91678 0.36868 0.0
Co476 Co 0.80951 0.73084 0.11755 0.0
Co477 Co 0.77903 0.68618 0.12188 0.0
C478 C 0.77681 0.71668 0.08152 0.0
O479 O 0.79205 0.73079 0.08902 0.0
O480 O 0.77036 0.699 0.09264 0.0
C481 C 0.84186 0.76717 0.10654 0.0
O482 O 0.8445 0.7553 0.08823 0.0
C483 C 0.73681 0.65757 0.12624 0.0
C484 C 0.75194 0.62465 0.1385 0.0
C485 C 0.73098 0.6351 0.13289 0.0
N486 N 0.76001 0.66003 0.12799 0.0
N487 N 0.76894 0.6403 0.13526 0.0
C488 C 0.72095 0.67699 0.11957 0.0
H489 H 0.72967 0.69406 0.12203 0.0
H490 H 0.70454 0.6764 0.12919 0.0
H491 H 0.71673 0.67524 0.10183 0.0
C492 C 0.78564 0.74141 0.16005 0.0
N493 N 0.78886 0.72799 0.1421 0.0
N494 N 0.77645 0.70886 0.14421 0.0
C495 C 0.76541 0.70919 0.16377 0.0
C496 C 0.77068 0.72994 0.17444 0.0
C497 C 0.79676 0.76474 0.16326 0.0
H498 H 0.79568 0.77491 0.14778 0.0
H499 H 0.7882 0.7747 0.17665 0.0
H500 H 0.81544 0.76229 0.16734 0.0
O501 O 0.83329 0.70534 0.11797 0.0
O502 O 0.81095 0.67411 0.12181 0.0
H503 H 0.76195 0.67245 0.1693 0.0
H504 H 0.75087 0.69008 0.19134 0.0
C505 C 0.75258 0.68878 0.17322 0.0
H506 H 0.73493 0.68792 0.16586 0.0
H507 H 0.78663 0.63755 0.13815 0.0
O508 O 0.82732 0.76011 0.1208 0.0
C509 C 0.83093 0.68341 0.1202 0.0
Co510 Co 0.01351 0.05817 0.86877 0.0
Co511 Co 0.05877 0.02844 0.87212 0.0
C512 C 0.029 0.0263 0.83181 0.0
O513 O 0.01473 0.04112 0.83981 0.0
O514 O 0.04681 0.01968 0.84267 0.0
C515 C 0.97567 0.08845 0.85759 0.0
O516 O 0.98756 0.09179 0.83939 0.0
C517 C 0.09363 0.99063 0.87229 0.0
C518 C 0.11791 0.00371 0.89773 0.0
C519 C 0.114 0.98528 0.88352 0.0
N520 N 0.08572 0.01115 0.87985 0.0
N521 N 0.10036 0.01889 0.89495 0.0
C522 C 0.08279 0.97784 0.85345 0.0
H523 H 0.06484 0.97251 0.85797 0.0
H524 H 0.09307 0.96241 0.84841 0.0
H525 H 0.08155 0.9898 0.83919 0.0
C526 C 0.00505 0.03527 0.91203 0.0
N527 N 0.0172 0.03774 0.89318 0.0
N528 N 0.0357 0.02429 0.89395 0.0
C529 C 0.03556 0.01226 0.91297 0.0
C530 C 0.01635 0.01904 0.92529 0.0
C531 C 0.98481 0.05037 0.91816 0.0
H532 H 0.98899 0.06881 0.91443 0.0
H533 H 0.9695 0.04535 0.90807 0.0
H534 H 0.98032 0.04884 0.93584 0.0
O535 O 0.03767 0.0828 0.87002 0.0
O536 O 0.06949 0.06118 0.87237 0.0
H537 H 0.06912 0.0035 0.92575 0.0
H538 H 0.04671 0.98258 0.93216 0.0
C539 C 0.05345 0.99451 0.91929 0.0
H540 H 0.05848 0.9841 0.90469 0.0
H541 H 0.09829 0.03457 0.90342 0.0
O542 O 0.9833 0.07419 0.87183 0.0
C543 C 0.05968 0.08103 0.87169 0.0
Co544 Co 0.80898 0.76243 0.61837 0.0
Co545 Co 0.78066 0.80843 0.62236 0.0
C546 C 0.77824 0.77888 0.58154 0.0
O547 O 0.79252 0.76399 0.58936 0.0
O548 O 0.77225 0.79674 0.59264 0.0
C549 C 0.83818 0.72379 0.60675 0.0
O550 O 0.84104 0.73525 0.58824 0.0
C551 C 0.74046 0.83986 0.62372 0.0
C552 C 0.75417 0.86858 0.64423 0.0
C553 C 0.73449 0.86096 0.63322 0.0
N554 N 0.76265 0.83513 0.62905 0.0
N555 N 0.77081 0.85244 0.64114 0.0
C556 C 0.72505 0.82372 0.61103 0.0
H557 H 0.73077 0.80542 0.61334 0.0
H558 H 0.70662 0.82567 0.61624 0.0
H559 H 0.7263 0.82803 0.59328 0.0
C560 C 0.78361 0.75245 0.66006 0.0
N561 N 0.78779 0.7658 0.64224 0.0
N562 N 0.77603 0.78534 0.64409 0.0
C563 C 0.76417 0.78523 0.66323 0.0
C564 C 0.76853 0.76433 0.67402 0.0
C565 C 0.79425 0.72899 0.66373 0.0
H566 H 0.81306 0.73112 0.66742 0.0
H567 H 0.79266 0.71841 0.64853 0.0
H568 H 0.78572 0.71961 0.6775 0.0
O569 O 0.83396 0.78657 0.62035 0.0
O570 O 0.81323 0.81896 0.62318 0.0
H571 H 0.76334 0.82117 0.67227 0.0
H572 H 0.74527 0.80321 0.68926 0.0
C573 C 0.75149 0.80595 0.67222 0.0
H574 H 0.73642 0.80999 0.66148 0.0
H575 H 0.78765 0.85304 0.64759 0.0
O576 O 0.82481 0.73211 0.6214 0.0
C577 C 0.83278 0.80862 0.62244 0.0
Co578 Co 0.48143 0.56058 0.8689 0.0
Co579 Co 0.43725 0.52919 0.8734 0.0
C580 C 0.46628 0.5276 0.83262 0.0
O581 O 0.48029 0.5429 0.84026 0.0
O582 O 0.44884 0.52062 0.8438 0.0
C583 C 0.51983 0.5902 0.85637 0.0
O584 O 0.50877 0.59201 0.83752 0.0
C585 C 0.40216 0.49142 0.87359 0.0
C586 C 0.38003 0.50293 0.90134 0.0
C587 C 0.38255 0.48553 0.88576 0.0
N588 N 0.41097 0.51124 0.88192 0.0
N589 N 0.3976 0.51805 0.8984 0.0
C590 C 0.41125 0.47995 0.85323 0.0
H591 H 0.41283 0.49318 0.84003 0.0
H592 H 0.4289 0.47289 0.85652 0.0
H593 H 0.39965 0.46585 0.84732 0.0
C594 C 0.49137 0.53818 0.91233 0.0
N595 N 0.47874 0.54034 0.89371 0.0
N596 N 0.46097 0.52594 0.89462 0.0
C597 C 0.46216 0.51354 0.91338 0.0
C598 C 0.48121 0.52112 0.92551 0.0
C599 C 0.51114 0.55398 0.91826 0.0
H600 H 0.5066 0.57219 0.9139 0.0
H601 H 0.52673 0.54896 0.90858 0.0
H602 H 0.51535 0.55314 0.93604 0.0
O603 O 0.45641 0.58449 0.86965 0.0
O604 O 0.42562 0.56159 0.8738 0.0
H605 H 0.42997 0.50192 0.92726 0.0
H606 H 0.45386 0.48203 0.93114 0.0
C607 C 0.44567 0.49437 0.9194 0.0
H608 H 0.44032 0.48468 0.90446 0.0
H609 H 0.4005 0.5331 0.90764 0.0
O610 O 0.51141 0.57735 0.87139 0.0
C611 C 0.43458 0.58176 0.87217 0.0
Co612 Co 0.69123 0.23379 0.1195 0.0
Co613 Co 0.72233 0.18937 0.12271 0.0
C614 C 0.72269 0.21857 0.08214 0.0
O615 O 0.70786 0.23272 0.09034 0.0
O616 O 0.72982 0.20096 0.09298 0.0
C617 C 0.65976 0.27084 0.10849 0.0
O618 O 0.65624 0.25868 0.09048 0.0
C619 C 0.76169 0.15623 0.12249 0.0
C620 C 0.75065 0.13216 0.14891 0.0
C621 C 0.76842 0.13655 0.13411 0.0
N622 N 0.7409 0.1632 0.13023 0.0
N623 N 0.73435 0.14865 0.14589 0.0
C624 C 0.77538 0.16919 0.10553 0.0
H625 H 0.77185 0.18814 0.10679 0.0
H626 H 0.79433 0.16595 0.10747 0.0
H627 H 0.76993 0.16322 0.08895 0.0
C628 C 0.71441 0.24304 0.16244 0.0
N629 N 0.71209 0.23082 0.14362 0.0
N630 N 0.72641 0.21298 0.14405 0.0
C631 C 0.73906 0.2138 0.16269 0.0
C632 C 0.73163 0.23262 0.17525 0.0
C633 C 0.6983 0.26231 0.16906 0.0
H634 H 0.6802 0.2578 0.16431 0.0
H635 H 0.70326 0.27844 0.16017 0.0
H636 H 0.69882 0.26562 0.18702 0.0
O637 O 0.66745 0.20897 0.12123 0.0
O638 O 0.68984 0.17767 0.1238 0.0
H639 H 0.75061 0.18096 0.1752 0.0
H640 H 0.77039 0.20471 0.18044 0.0
C641 C 0.75821 0.1971 0.16823 0.0
H642 H 0.7681 0.19259 0.15317 0.0
H643 H 0.71887 0.1502 0.15475 0.0
O644 O 0.67449 0.26367 0.1225 0.0
C645 C 0.66976 0.18702 0.12318 0.0
Co646 Co 0.01629 0.44087 0.36904 0.0
Co647 Co 0.06296 0.46829 0.37214 0.0
C648 C 0.03279 0.47056 0.33157 0.0
O649 O 0.01756 0.45691 0.33978 0.0
O650 O 0.05099 0.47612 0.34237 0.0
C651 C 0.97782 0.41151 0.35835 0.0
O652 O 0.98946 0.40816 0.34001 0.0
C653 C 0.0954 0.50815 0.37431 0.0
C654 C 0.12573 0.49143 0.39021 0.0
C655 C 0.11785 0.51246 0.38188 0.0
N656 N 0.09034 0.48566 0.37822 0.0
N657 N 0.10854 0.47582 0.38773 0.0
C658 C 0.07932 0.52467 0.36282 0.0
H659 H 0.06565 0.51516 0.35368 0.0
H660 H 0.07057 0.53585 0.3752 0.0
H661 H 0.08919 0.53603 0.35136 0.0
C662 C 0.00763 0.46674 0.41073 0.0
N663 N 0.02054 0.46223 0.3927 0.0
N664 N 0.04031 0.47368 0.39414 0.0
C665 C 0.04076 0.48567 0.41322 0.0
C666 C 0.02001 0.48175 0.42437 0.0
C667 C 0.98415 0.45637 0.41497 0.0
H668 H 0.97319 0.45807 0.40003 0.0
H669 H 0.97527 0.46501 0.42897 0.0
H670 H 0.98617 0.43753 0.41861 0.0
O671 O 0.03992 0.41544 0.37083 0.0
O672 O 0.07275 0.43548 0.37322 0.0
H673 H 0.07723 0.48665 0.42041 0.0
H674 H 0.05981 0.50326 0.4393 0.0
C675 C 0.0618 0.49812 0.42183 0.0
H676 H 0.06491 0.51394 0.41181 0.0
H677 H 0.10922 0.45838 0.39254 0.0
O678 O 0.98589 0.42543 0.37267 0.0
C679 C 0.062 0.41615 0.3727 0.0
Co680 Co 0.81206 0.23417 0.88912 0.0
Co681 Co 0.78149 0.18951 0.88488 0.0
C682 C 0.77895 0.21966 0.92503 0.0
O683 O 0.79425 0.23367 0.91751 0.0
O684 O 0.77242 0.20201 0.91394 0.0
C685 C 0.82375 0.28377 0.88981 0.0
O686 O 0.80141 0.28787 0.89238 0.0
C687 C 0.73965 0.16018 0.88101 0.0
C688 C 0.75494 0.12805 0.86715 0.0
C689 C 0.73401 0.13782 0.87383 0.0
N690 N 0.7627 0.16323 0.87849 0.0
N691 N 0.77173 0.14396 0.87029 0.0
C692 C 0.72366 0.179 0.88886 0.0
H693 H 0.73193 0.19633 0.8867 0.0
H694 H 0.70691 0.17842 0.87975 0.0
H695 H 0.72014 0.17649 0.90665 0.0
C696 C 0.7894 0.24383 0.84534 0.0
N697 N 0.79201 0.23124 0.86397 0.0
N698 N 0.77908 0.21234 0.86247 0.0
C699 C 0.76785 0.21231 0.843 0.0
C700 C 0.77384 0.23231 0.83155 0.0
C701 C 0.80181 0.26623 0.84075 0.0
H702 H 0.82049 0.2645 0.84507 0.0
H703 H 0.79411 0.28014 0.85106 0.0
H704 H 0.80014 0.27166 0.82334 0.0
O705 O 0.83556 0.20876 0.88845 0.0
O706 O 0.81349 0.17734 0.88552 0.0
H707 H 0.76371 0.1758 0.8369 0.0
H708 H 0.75008 0.19398 0.81659 0.0
C709 C 0.75393 0.19221 0.83439 0.0
H710 H 0.73727 0.19109 0.84352 0.0
H711 H 0.78935 0.14171 0.86668 0.0
O712 O 0.831 0.26298 0.88803 0.0
C713 C 0.83345 0.18678 0.88674 0.0
Co714 Co 0.01689 0.56412 0.13946 0.0
Co715 Co 0.05973 0.53116 0.1343 0.0
C716 C 0.03131 0.52985 0.17515 0.0
O717 O 0.01774 0.54567 0.16777 0.0
O718 O 0.04843 0.52255 0.16378 0.0
C719 C 0.96765 0.57473 0.1363 0.0
O720 O 0.96496 0.55224 0.13329 0.0
C721 C 0.09078 0.49027 0.13263 0.0
C722 C 0.11577 0.50146 0.10707 0.0
C723 C 0.11029 0.48318 0.12098 0.0
N724 N 0.08494 0.51175 0.1258 0.0
N725 N 0.10003 0.51838 0.11063 0.0
C726 C 0.07693 0.47637 0.14882 0.0
H727 H 0.05821 0.48095 0.14759 0.0
H728 H 0.0792 0.45741 0.14598 0.0
H729 H 0.08301 0.48059 0.16568 0.0
C730 C 0.00731 0.54433 0.09429 0.0
N731 N 0.01877 0.54477 0.11375 0.0
N732 N 0.03569 0.52932 0.11304 0.0
C733 C 0.03473 0.51774 0.09379 0.0
C734 C 0.01701 0.52708 0.08107 0.0
C735 C 0.99011 0.56235 0.08704 0.0
H736 H 0.99262 0.57876 0.09634 0.0
H737 H 0.97221 0.55576 0.08986 0.0
H738 H 0.99197 0.56595 0.06918 0.0
O739 O 0.04285 0.58673 0.1387 0.0
O740 O 0.073 0.56308 0.13448 0.0
H741 H 0.06708 0.50495 0.08124 0.0
H742 H 0.04237 0.48688 0.07478 0.0
C743 C 0.05043 0.49796 0.08767 0.0
H744 H 0.05404 0.48706 0.10231 0.0
H745 H 0.0994 0.53438 0.10252 0.0
O746 O 0.98793 0.58298 0.13933 0.0
C747 C 0.06462 0.58352 0.13625 0.0
Co748 Co 0.68722 0.7647 0.3882 0.0
Co749 Co 0.7189 0.80862 0.38475 0.0
C750 C 0.71957 0.77856 0.42502 0.0
O751 O 0.70434 0.76465 0.41714 0.0
O752 O 0.72656 0.79611 0.41407 0.0
C753 C 0.6586 0.72515 0.39997 0.0
O754 O 0.65816 0.73459 0.41966 0.0
C755 C 0.76062 0.8382 0.38401 0.0
C756 C 0.74644 0.8703 0.36903 0.0
C757 C 0.76638 0.86065 0.37793 0.0
N758 N 0.73815 0.83464 0.37886 0.0
N759 N 0.72983 0.85384 0.3698 0.0
C760 C 0.77574 0.82096 0.39566 0.0
H761 H 0.76825 0.80319 0.39443 0.0
H762 H 0.79357 0.82116 0.38863 0.0
H763 H 0.77705 0.82593 0.41326 0.0
C764 C 0.70986 0.75547 0.3448 0.0
N765 N 0.7079 0.76771 0.36367 0.0
N766 N 0.72189 0.78581 0.36272 0.0
C767 C 0.73345 0.78555 0.34345 0.0
C768 C 0.7261 0.76641 0.33129 0.0
C769 C 0.69433 0.73547 0.33891 0.0
H770 H 0.67594 0.74034 0.34205 0.0
H771 H 0.69859 0.72038 0.34959 0.0
H772 H 0.69619 0.7303 0.32142 0.0
O773 O 0.66364 0.79028 0.38761 0.0
O774 O 0.6869 0.82091 0.38406 0.0
H775 H 0.74185 0.82038 0.33382 0.0
H776 H 0.76048 0.79842 0.32165 0.0
C777 C 0.75088 0.80357 0.33671 0.0
H778 H 0.76366 0.80609 0.35015 0.0
H779 H 0.71265 0.85586 0.36452 0.0
O780 O 0.6701 0.73501 0.38477 0.0
C781 C 0.66663 0.81214 0.38537 0.0
Co782 Co 0.48434 0.439 0.63877 0.0
Co783 Co 0.43858 0.46759 0.63431 0.0
C784 C 0.46729 0.46947 0.67567 0.0
O785 O 0.48235 0.45531 0.66792 0.0
O786 O 0.44963 0.47557 0.66433 0.0
C787 C 0.52484 0.41233 0.6514 0.0
O788 O 0.51522 0.41183 0.67101 0.0
C789 C 0.40721 0.50776 0.63297 0.0
C790 C 0.37909 0.49453 0.61146 0.0
C791 C 0.38639 0.51395 0.62307 0.0
N792 N 0.41209 0.4857 0.62731 0.0
N793 N 0.39514 0.47782 0.61461 0.0
C794 C 0.42305 0.5229 0.64628 0.0
H795 H 0.4414 0.51723 0.64423 0.0
H796 H 0.42122 0.54144 0.64138 0.0
H797 H 0.41834 0.52127 0.66391 0.0
C798 C 0.49492 0.46443 0.59718 0.0
N799 N 0.4814 0.46033 0.6149 0.0
N800 N 0.4621 0.47248 0.61305 0.0
C801 C 0.46265 0.48468 0.5941 0.0
C802 C 0.4835 0.48001 0.58338 0.0
C803 C 0.51803 0.45311 0.59333 0.0
H804 H 0.51536 0.43425 0.59021 0.0
H805 H 0.52897 0.4549 0.60827 0.0
H806 H 0.52729 0.461 0.57915 0.0
O807 O 0.46016 0.41409 0.63642 0.0
O808 O 0.42797 0.43503 0.633 0.0
H809 H 0.42707 0.48651 0.58402 0.0
H810 H 0.44585 0.50542 0.56864 0.0
C811 C 0.4424 0.49815 0.5852 0.0
H812 H 0.43814 0.51259 0.59661 0.0
H813 H 0.39473 0.46114 0.6078 0.0
O814 O 0.5147 0.42319 0.63594 0.0
C815 C 0.43817 0.41541 0.63391 0.0
Co816 Co 0.18694 0.23285 0.38765 0.0
Co817 Co 0.2171 0.18781 0.38396 0.0
C818 C 0.21911 0.21744 0.42437 0.0
O819 O 0.20423 0.23179 0.41656 0.0
O820 O 0.22561 0.19972 0.41336 0.0
C821 C 0.15599 0.27013 0.39919 0.0
O822 O 0.15289 0.25791 0.41723 0.0
C823 C 0.25683 0.15539 0.38331 0.0
C824 C 0.24388 0.12864 0.36015 0.0
C825 C 0.26287 0.13469 0.37299 0.0
N826 N 0.23526 0.16128 0.37677 0.0
N827 N 0.22759 0.14516 0.36304 0.0
C828 C 0.27179 0.17034 0.39767 0.0
H829 H 0.26684 0.18892 0.39586 0.0
H830 H 0.29048 0.1681 0.39352 0.0
H831 H 0.26914 0.1652 0.41508 0.0
C832 C 0.20926 0.24146 0.34409 0.0
N833 N 0.20721 0.22938 0.36304 0.0
N834 N 0.22079 0.21097 0.36212 0.0
C835 C 0.23247 0.2111 0.34291 0.0
C836 C 0.22533 0.23021 0.33061 0.0
C837 C 0.19386 0.26153 0.33811 0.0
H838 H 0.17555 0.25724 0.34226 0.0
H839 H 0.19899 0.27697 0.34797 0.0
H840 H 0.19494 0.26586 0.32037 0.0
O841 O 0.16271 0.20825 0.38651 0.0
O842 O 0.18451 0.17655 0.38378 0.0
H843 H 0.24108 0.17708 0.33112 0.0
H844 H 0.26127 0.19949 0.32271 0.0
C845 C 0.25013 0.19321 0.33639 0.0
H846 H 0.26143 0.18906 0.35063 0.0
H847 H 0.2113 0.14561 0.35543 0.0
O848 O 0.17034 0.26292 0.38483 0.0
C849 C 0.16461 0.18624 0.38471 0.0
Co850 Co 0.51424 0.435 0.1395 0.0
Co851 Co 0.55905 0.46528 0.1354 0.0
C852 C 0.52857 0.46802 0.17547 0.0
O853 O 0.51443 0.45284 0.16792 0.0
O854 O 0.54632 0.47432 0.16442 0.0
C855 C 0.4647 0.42294 0.14002 0.0
O856 O 0.46042 0.44516 0.14322 0.0
C857 C 0.58769 0.50748 0.13147 0.0
C858 C 0.62056 0.49257 0.11889 0.0
C859 C 0.61014 0.51344 0.12483 0.0
N860 N 0.58521 0.48431 0.12935 0.0
N861 N 0.60493 0.47551 0.12191 0.0
C862 C 0.56828 0.52323 0.13842 0.0
H863 H 0.55121 0.51454 0.13589 0.0
H864 H 0.56882 0.53979 0.12902 0.0
H865 H 0.5701 0.52718 0.1562 0.0
C866 C 0.50487 0.45761 0.09561 0.0
N867 N 0.51736 0.455 0.1143 0.0
N868 N 0.53646 0.46761 0.11275 0.0
C869 C 0.53681 0.47849 0.0931 0.0
C870 C 0.51674 0.47272 0.08163 0.0
C871 C 0.48213 0.44573 0.09124 0.0
H872 H 0.48373 0.42686 0.0948 0.0
H873 H 0.46872 0.45315 0.10229 0.0
H874 H 0.47608 0.44823 0.0741 0.0
O875 O 0.53972 0.41147 0.13904 0.0
O876 O 0.57129 0.43332 0.13606 0.0
H877 H 0.57353 0.48198 0.08777 0.0
H878 H 0.55605 0.49455 0.06634 0.0
C879 C 0.55729 0.49173 0.08434 0.0
H880 H 0.55829 0.50889 0.09263 0.0
H881 H 0.60767 0.45786 0.11876 0.0
O882 O 0.48554 0.41592 0.13801 0.0
C883 C 0.56172 0.41343 0.13733 0.0
Co884 Co 0.31576 0.76814 0.89085 0.0
Co885 Co 0.28109 0.80948 0.88497 0.0
C886 C 0.2808 0.78195 0.92627 0.0
O887 O 0.29708 0.76885 0.91902 0.0
O888 O 0.27284 0.79862 0.91469 0.0
C889 C 0.32658 0.71917 0.88801 0.0
O890 O 0.3041 0.71674 0.88474 0.0
C891 C 0.23999 0.84021 0.88257 0.0
C892 C 0.25136 0.86471 0.85663 0.0
C893 C 0.23304 0.85961 0.87063 0.0
N894 N 0.26142 0.83415 0.87583 0.0
N895 N 0.26814 0.84891 0.86041 0.0
C896 C 0.22612 0.82673 0.89906 0.0
H897 H 0.23079 0.808 0.89828 0.0
H898 H 0.20716 0.82885 0.89612 0.0
H899 H 0.23029 0.83323 0.91579 0.0
C900 C 0.29658 0.75759 0.84548 0.0
N901 N 0.2964 0.76904 0.86496 0.0
N902 N 0.28007 0.7851 0.86422 0.0
C903 C 0.26862 0.78361 0.84495 0.0
C904 C 0.27891 0.76646 0.83222 0.0
C905 C 0.31538 0.74123 0.83828 0.0
H906 H 0.33155 0.74426 0.84784 0.0
H907 H 0.30946 0.72304 0.84084 0.0
H908 H 0.31913 0.74345 0.82049 0.0
O909 O 0.33772 0.79487 0.89019 0.0
O910 O 0.31249 0.82353 0.88461 0.0
H911 H 0.25448 0.81522 0.83198 0.0
H912 H 0.23739 0.78971 0.82602 0.0
C913 C 0.2482 0.79842 0.83873 0.0
H914 H 0.23727 0.80188 0.85339 0.0
H915 H 0.28416 0.84808 0.85236 0.0
O916 O 0.335 0.73938 0.89111 0.0
C917 C 0.33326 0.8163 0.88693 0.0
Co918 Co 0.98495 0.56271 0.64027 0.0
Co919 Co 0.94205 0.52995 0.63393 0.0
C920 C 0.96955 0.52831 0.67541 0.0
O921 O 0.98334 0.54412 0.66841 0.0
O922 O 0.95269 0.52109 0.66363 0.0
C923 C 0.03431 0.57467 0.63876 0.0
O924 O 0.03812 0.55232 0.63589 0.0
C925 C 0.91036 0.48951 0.63143 0.0
C926 C 0.88526 0.50195 0.60647 0.0
C927 C 0.89035 0.48324 0.62002 0.0
N928 N 0.91672 0.51094 0.62486 0.0
N929 N 0.9016 0.51827 0.61 0.0
C930 C 0.92411 0.47502 0.64723 0.0
H931 H 0.94286 0.47956 0.6462 0.0
H932 H 0.92175 0.45618 0.64378 0.0
H933 H 0.91802 0.47867 0.6642 0.0
C934 C 0.99577 0.54308 0.59534 0.0
N935 N 0.98371 0.54346 0.61446 0.0
N936 N 0.96655 0.52832 0.61309 0.0
C937 C 0.9678 0.51711 0.59367 0.0
C938 C 0.98611 0.52627 0.58161 0.0
C939 C 0.01357 0.56083 0.58883 0.0
H940 H 0.01081 0.5773 0.59797 0.0
H941 H 0.03121 0.554 0.59252 0.0
H942 H 0.01269 0.56442 0.57091 0.0
O943 O 0.95907 0.5853 0.63899 0.0
O944 O 0.92891 0.56184 0.63409 0.0
H945 H 0.93524 0.50588 0.5803 0.0
H946 H 0.95946 0.4873 0.57343 0.0
C947 C 0.95159 0.49809 0.58663 0.0
H948 H 0.94742 0.48674 0.60082 0.0
H949 H 0.90251 0.53445 0.60222 0.0
O950 O 0.01359 0.58203 0.64098 0.0
C951 C 0.93735 0.58221 0.6361 0.0
Co952 Co 0.19306 0.76419 0.12053 0.0
Co953 Co 0.22015 0.81108 0.12405 0.0
C954 C 0.22296 0.78168 0.08327 0.0
O955 O 0.20925 0.76636 0.0913 0.0
O956 O 0.2286 0.79973 0.09428 0.0
C957 C 0.16462 0.72512 0.109 0.0
O958 O 0.16133 0.73696 0.09077 0.0
C959 C 0.2588 0.84454 0.12516 0.0
C960 C 0.24357 0.87262 0.1455 0.0
C961 C 0.26361 0.86609 0.13444 0.0
N962 N 0.23693 0.83861 0.13063 0.0
N963 N 0.22788 0.85553 0.14263 0.0
C964 C 0.27502 0.82901 0.1127 0.0
H965 H 0.27002 0.81049 0.115 0.0
H966 H 0.29328 0.83171 0.11813 0.0
H967 H 0.2738 0.83317 0.09491 0.0
C968 C 0.21903 0.75542 0.16224 0.0
N969 N 0.21433 0.76842 0.14431 0.0
N970 N 0.2259 0.78814 0.14569 0.0
C971 C 0.23835 0.78833 0.16451 0.0
C972 C 0.23444 0.76759 0.17565 0.0
C973 C 0.20842 0.73207 0.16663 0.0
H974 H 0.21051 0.72083 0.15192 0.0
H975 H 0.2166 0.72342 0.181 0.0
H976 H 0.18949 0.73423 0.16969 0.0
O977 O 0.16731 0.78745 0.12255 0.0
O978 O 0.1872 0.82037 0.12512 0.0
H979 H 0.23955 0.82424 0.17366 0.0
H980 H 0.2589 0.80621 0.18942 0.0
C981 C 0.25146 0.8091 0.17283 0.0
H982 H 0.26574 0.81331 0.16122 0.0
H983 H 0.21107 0.85523 0.14915 0.0
O984 O 0.17813 0.73332 0.12362 0.0
C985 C 0.16792 0.80952 0.12455 0.0
Co986 Co 0.9832 0.4388 0.86912 0.0
Co987 Co 0.93816 0.46907 0.87364 0.0
C988 C 0.96704 0.46974 0.83223 0.0
O989 O 0.98179 0.45532 0.84008 0.0
O990 O 0.94945 0.47628 0.84346 0.0
C991 C 0.0209 0.40832 0.85722 0.0
O992 O 0.00953 0.4063 0.83856 0.0
C993 C 0.90515 0.50894 0.87604 0.0
C994 C 0.87731 0.49277 0.89599 0.0
C995 C 0.88342 0.5132 0.88536 0.0
N996 N 0.91146 0.48701 0.88112 0.0
N997 N 0.89474 0.47754 0.89306 0.0
C998 C 0.91925 0.5249 0.86186 0.0
H999 H 0.93234 0.51507 0.8523 0.0
H1000 H 0.92866 0.53749 0.87247 0.0
H1001 H 0.90777 0.53477 0.8505 0.0
C1002 C 0.99432 0.46417 0.91078 0.0
N1003 N 0.98068 0.46027 0.89308 0.0
N1004 N 0.96187 0.47323 0.89473 0.0
C1005 C 0.96285 0.48571 0.91348 0.0
C1006 C 0.98348 0.48044 0.92432 0.0
C1007 C 0.01708 0.4522 0.91473 0.0
H1008 H 0.01385 0.43348 0.91809 0.0
H1009 H 0.02801 0.45341 0.89973 0.0
H1010 H 0.02663 0.46002 0.92878 0.0
O1011 O 0.95826 0.41457 0.87076 0.0
O1012 O 0.92706 0.43682 0.8752 0.0
H1013 H 0.92728 0.48916 0.92327 0.0
H1014 H 0.94671 0.50755 0.93851 0.0
C1015 C 0.94309 0.50014 0.92204 0.0
H1016 H 0.93948 0.51451 0.91035 0.0
H1017 H 0.89519 0.46056 0.89916 0.0
O1018 O 0.01299 0.42177 0.87203 0.0
C1019 C 0.93644 0.41688 0.87373 0.0
Co1020 Co 0.30996 0.23432 0.6174 0.0
Co1021 Co 0.28208 0.18762 0.62135 0.0
C1022 C 0.27938 0.21748 0.58056 0.0
O1023 O 0.29339 0.23265 0.58839 0.0
O1024 O 0.27375 0.19948 0.59164 0.0
C1025 C 0.34171 0.27096 0.60696 0.0
O1026 O 0.34624 0.25767 0.5899 0.0
C1027 C 0.2424 0.15451 0.62422 0.0
C1028 C 0.25968 0.12497 0.64087 0.0
C1029 C 0.23851 0.13211 0.63226 0.0
N1030 N 0.26478 0.16018 0.6281 0.0
N1031 N 0.27494 0.14243 0.63807 0.0
C1032 C 0.22562 0.16996 0.61231 0.0
H1033 H 0.23491 0.18377 0.60315 0.0
H1034 H 0.21404 0.17856 0.62445 0.0
H1035 H 0.21474 0.15961 0.60081 0.0
C1036 C 0.28462 0.24357 0.65929 0.0
N1037 N 0.28888 0.23039 0.64138 0.0
N1038 N 0.27745 0.21062 0.64322 0.0
C1039 C 0.26581 0.21042 0.66248 0.0
C1040 C 0.26988 0.23135 0.67333 0.0
C1041 C 0.29483 0.26723 0.66293 0.0
H1042 H 0.29339 0.27764 0.64762 0.0
H1043 H 0.28587 0.27659 0.67647 0.0
H1044 H 0.31359 0.26543 0.66698 0.0
O1045 O 0.33511 0.21041 0.61907 0.0
O1046 O 0.31488 0.17772 0.62186 0.0
H1047 H 0.24871 0.19152 0.68897 0.0
H1048 H 0.23768 0.18606 0.66163 0.0
C1049 C 0.25359 0.18942 0.67146 0.0
H1050 H 0.26515 0.17405 0.67007 0.0
H1051 H 0.29236 0.14222 0.64294 0.0
O1052 O 0.32606 0.26468 0.62049 0.0
C1053 C 0.33427 0.18835 0.62102 0.0
Co1054 Co 0.51392 0.56138 0.36758 0.0
Co1055 Co 0.558 0.52973 0.37216 0.0
C1056 C 0.52888 0.52742 0.33175 0.0
O1057 O 0.51513 0.54298 0.33932 0.0
O1058 O 0.54634 0.52045 0.34287 0.0
C1059 C 0.46421 0.57079 0.37093 0.0
O1060 O 0.46178 0.54827 0.37401 0.0
C1061 C 0.59323 0.49184 0.37275 0.0
C1062 C 0.615 0.50339 0.40072 0.0
C1063 C 0.61267 0.4859 0.3852 0.0
N1064 N 0.58431 0.51171 0.38092 0.0
N1065 N 0.59752 0.51855 0.39751 0.0
C1066 C 0.58449 0.48042 0.35222 0.0
H1067 H 0.58236 0.49379 0.33924 0.0
H1068 H 0.56716 0.47259 0.35545 0.0
H1069 H 0.59661 0.4669 0.34605 0.0
C1070 C 0.50544 0.54113 0.41263 0.0
N1071 N 0.51679 0.54205 0.39315 0.0
N1072 N 0.53423 0.52717 0.3937 0.0
C1073 C 0.53369 0.51542 0.41286 0.0
C1074 C 0.51573 0.52411 0.4257 0.0
C1075 C 0.48769 0.55856 0.42001 0.0
H1076 H 0.4896 0.57507 0.41074 0.0
H1077 H 0.47 0.55138 0.41725 0.0
H1078 H 0.48954 0.56218 0.43786 0.0
O1079 O 0.53901 0.58487 0.36823 0.0
O1080 O 0.56999 0.5622 0.37165 0.0
H1081 H 0.5658 0.50308 0.42638 0.0
H1082 H 0.54151 0.48389 0.43069 0.0
C1083 C 0.54982 0.4959 0.41872 0.0
H1084 H 0.55468 0.48597 0.40377 0.0
H1085 H 0.59454 0.53364 0.40667 0.0
O1086 O 0.48437 0.5793 0.36791 0.0
C1087 C 0.56091 0.58236 0.37024 0.0
C1088 C 0.23905 0.25799 0.20198 0.0
C1089 C 0.26248 0.25698 0.19563 0.0
C1090 C 0.23242 0.25375 0.22384 0.0
C1091 C 0.2496 0.24784 0.2396 0.0
C1092 C 0.27322 0.24605 0.23307 0.0
C1093 C 0.2794 0.25084 0.21118 0.0
C1094 C 0.2071 0.25604 0.23017 0.0
C1095 C 0.292 0.23939 0.24928 0.0
C1096 C 0.2374 0.25747 0.30048 0.0
C1097 C 0.23094 0.23508 0.30724 0.0
C1098 C 0.24322 0.26198 0.27842 0.0
C1099 C 0.24289 0.24354 0.26291 0.0
C1100 C 0.23627 0.22091 0.26969 0.0
C1101 C 0.23011 0.21704 0.29171 0.0
C1102 C 0.24983 0.28641 0.27174 0.0
C1103 C 0.23592 0.20074 0.25375 0.0
H1104 H 0.22596 0.26257 0.18988 0.0
H1105 H 0.29755 0.2503 0.20634 0.0
H1106 H 0.20066 0.2394 0.23714 0.0
H1107 H 0.20516 0.26952 0.24313 0.0
H1108 H 0.19592 0.26087 0.21596 0.0
H1109 H 0.30936 0.23777 0.24137 0.0
H1110 H 0.29312 0.25269 0.26248 0.0
H1111 H 0.2876 0.22256 0.25724 0.0
H1112 H 0.23814 0.2714 0.31251 0.0
H1113 H 0.22466 0.1998 0.29682 0.0
H1114 H 0.23846 0.29241 0.2581 0.0
H1115 H 0.268 0.28665 0.26556 0.0
H1116 H 0.24838 0.29895 0.28559 0.0
H1117 H 0.22363 0.20441 0.24011 0.0
H1118 H 0.23071 0.18415 0.26176 0.0
H1119 H 0.25343 0.19843 0.24635 0.0
C1120 C 0.98623 0.98923 0.55158 0.0
C1121 C 0.00866 0.98235 0.55783 0.0
C1122 C 0.98127 0.99517 0.52963 0.0
C1123 C -0.00073 0.99438 0.51368 0.0
C1124 C 0.02191 0.98727 0.51995 0.0
C1125 C 0.02627 0.98119 0.54191 0.0
C1126 C 0.95686 0.00247 0.52354 0.0
C1127 C 0.04159 0.98625 0.5035 0.0
C1128 C 0.98336 0.99073 0.45306 0.0
C1129 C 0.98561 0.01399 0.44643 0.0
C1130 C 0.98761 0.98411 0.47492 0.0
C1131 C 0.99452 0.00115 0.49046 0.0
C1132 C 0.99716 0.02463 0.48374 0.0
C1133 C 0.99254 0.03079 0.46181 0.0
C1134 C 0.98452 0.95892 0.48145 0.0
C1135 C 0.0047 0.04327 0.49975 0.0
H1136 H 0.97264 0.99021 0.56393 0.0
H1137 H 0.04355 0.97548 0.54666 0.0
H1138 H 0.957 0.02059 0.51719 0.0
H1139 H 0.9501 0.99117 0.51017 0.0
H1140 H 0.94471 0.00154 0.53773 0.0
H1141 H 0.05822 0.98046 0.51108 0.0
H1142 H 0.0371 0.97412 0.48995 0.0
H1143 H 0.04429 0.00369 0.49606 0.0
H1144 H 0.97807 0.97774 0.44111 0.0
H1145 H 0.9939 0.04885 0.45679 0.0
H1146 H 0.97142 0.95755 0.4948 0.0
H1147 H 0.00114 0.95189 0.48796 0.0
H1148 H 0.9788 0.94788 0.46744 0.0
H1149 H 0.99188 0.04461 0.51335 0.0
H1150 H 0.00638 0.06061 0.49181 0.0
H1151 H 0.0217 0.03854 0.5072 0.0
C1152 C 0.27249 0.78047 0.79386 0.0
C1153 C 0.27439 0.76182 0.80862 0.0
C1154 C 0.26626 0.77682 0.77183 0.0
C1155 C 0.26212 0.75387 0.76429 0.0
C1156 C 0.26491 0.73485 0.77894 0.0
C1157 C 0.27103 0.73906 0.80099 0.0
C1158 C 0.26359 0.79756 0.75676 0.0
C1159 C 0.26085 0.71012 0.77145 0.0
C1160 C 0.22289 0.74559 0.71449 0.0
C1161 C 0.23917 0.74175 0.69774 0.0
C1162 C 0.23014 0.74973 0.73621 0.0
C1163 C 0.25424 0.74991 0.74124 0.0
C1164 C 0.27074 0.74649 0.72424 0.0
C1165 C 0.26298 0.74255 0.70265 0.0
C1166 C 0.21201 0.75352 0.75383 0.0
C1167 C 0.29656 0.74659 0.72892 0.0
H1168 H 0.27567 0.79805 0.79962 0.0
H1169 H 0.27256 0.72465 0.81242 0.0
H1170 H 0.27491 0.79552 0.74211 0.0
H1171 H 0.24536 0.79864 0.75079 0.0
H1172 H 0.26806 0.81422 0.76505 0.0
H1173 H 0.26487 0.69723 0.78454 0.0
H1174 H 0.24239 0.70793 0.76644 0.0
H1175 H 0.27175 0.70621 0.75684 0.0
H1176 H 0.20446 0.74473 0.71068 0.0
H1177 H 0.27553 0.73964 0.68961 0.0
H1178 H 0.21503 0.77045 0.76216 0.0
H1179 H 0.21346 0.73971 0.76652 0.0
H1180 H 0.19401 0.75337 0.74711 0.0
H1181 H 0.30171 0.76339 0.73652 0.0
H1182 H 0.30711 0.74389 0.71382 0.0
H1183 H 0.30086 0.73264 0.74088 0.0
C1184 C 0.47295 0.01553 0.04199 0.0
C1185 C 0.49081 0.01594 0.05771 0.0
C1186 C 0.47735 0.00894 0.02018 0.0
C1187 C 0.50032 0.00312 0.01379 0.0
C1188 C 0.51855 0.00394 0.0295 0.0
C1189 C 0.51352 0.01017 0.05136 0.0
C1190 C 0.45739 0.0081 0.00401 0.0
C1191 C 0.54332 0.9982 0.02322 0.0
C1192 C 0.5084 0.9664 0.9623 0.0
C1193 C 0.51309 0.98346 0.94646 0.0
C1194 C 0.50413 0.97255 0.9843 0.0
C1195 C 0.50515 0.99628 0.99062 0.0
C1196 C 0.51022 0.01353 0.97468 0.0
C1197 C 0.51396 0.00691 0.95275 0.0
C1198 C 0.49849 0.95368 1.00075 0.0
C1199 C 0.51177 0.03897 0.98081 0.0
H1200 H 0.45545 0.02048 0.04673 0.0
H1201 H 0.52732 0.01038 0.06354 0.0
H1202 H 0.46063 0.02045 0.99031 0.0
H1203 H 0.45605 0.99043 0.99673 0.0
H1204 H 0.44046 0.01255 0.01177 0.0
H1205 H 0.55558 0.0003 0.03722 0.0
H1206 H 0.54437 0.97999 0.01722 0.0
H1207 H 0.54907 0.00965 0.00955 0.0
H1208 H 0.50834 0.9482 0.95754 0.0
H1209 H 0.51777 0.02006 0.94046 0.0
H1210 H 0.48132 0.95717 0.00844 0.0
H1211 H 0.51165 0.95363 0.01412 0.0
H1212 H 0.49804 0.93611 0.99311 0.0
H1213 H 0.49478 0.04505 0.98733 0.0
H1214 H 0.51666 0.05011 0.9666 0.0
H1215 H 0.52485 0.04142 0.99405 0.0
C1216 C 0.26584 0.76191 0.20356 0.0
C1217 C 0.24212 0.76169 0.1982 0.0
C1218 C 0.27329 0.75798 0.22525 0.0
C1219 C 0.25658 0.75372 0.2419 0.0
C1220 C 0.23259 0.75318 0.23644 0.0
C1221 C 0.22565 0.75718 0.21462 0.0
C1222 C 0.29901 0.75856 0.23039 0.0
C1223 C 0.21423 0.74863 0.25369 0.0
C1224 C 0.27408 0.72233 0.29428 0.0
C1225 C 0.27533 0.7407 0.30942 0.0
C1226 C 0.26846 0.72638 0.27217 0.0
C1227 C 0.26411 0.74942 0.26499 0.0
C1228 C 0.26615 0.76816 0.28008 0.0
C1229 C 0.27182 0.76356 0.30216 0.0
C1230 C 0.26667 0.70595 0.25661 0.0
C1231 C 0.26171 0.79296 0.27302 0.0
H1232 H 0.27852 0.76539 0.19077 0.0
H1233 H 0.20729 0.75728 0.21045 0.0
H1234 H 0.30265 0.77225 0.24281 0.0
H1235 H 0.30452 0.74169 0.2376 0.0
H1236 H 0.30975 0.76205 0.21555 0.0
H1237 H 0.19635 0.74872 0.24673 0.0
H1238 H 0.21737 0.7315 0.26161 0.0
H1239 H 0.21528 0.76207 0.26677 0.0
H1240 H 0.27733 0.70468 0.29981 0.0
H1241 H 0.27283 0.77774 0.3139 0.0
H1242 H 0.27817 0.70868 0.24218 0.0
H1243 H 0.24858 0.70447 0.25035 0.0
H1244 H 0.27149 0.68923 0.26461 0.0
H1245 H 0.27282 0.79745 0.25871 0.0
H1246 H 0.26516 0.80563 0.28644 0.0
H1247 H 0.24332 0.79485 0.2677 0.0
C1248 C 0.51087 0.98087 0.45514 0.0
C1249 C 0.48808 0.97745 0.44764 0.0
C1250 C 0.51523 0.98706 0.47715 0.0
C1251 C 0.4963 0.98988 0.49189 0.0
C1252 C 0.4733 0.9858 0.48447 0.0
C1253 C 0.46951 0.97948 0.46248 0.0
C1254 C 0.54001 0.99104 0.48451 0.0
C1255 C 0.45266 0.98854 0.49964 0.0
C1256 C 0.50819 0.98861 0.55341 0.0
C1257 C 0.50924 0.0124 0.55841 0.0
C1258 C 0.50395 0.98099 0.53183 0.0
C1259 C 0.50045 0.99762 0.51494 0.0
C1260 C 0.50086 0.02169 0.52008 0.0
C1261 C 0.50533 0.0288 0.54178 0.0
C1262 C 0.50364 0.95519 0.52703 0.0
C1263 C 0.49698 0.03994 0.50258 0.0
H1264 H 0.52523 0.97928 0.44366 0.0
H1265 H 0.4519 0.97623 0.45684 0.0
H1266 H 0.54226 0.00945 0.48965 0.0
H1267 H 0.544 0.98 0.49901 0.0
H1268 H 0.55281 0.98712 0.47132 0.0
H1269 H 0.43593 0.98431 0.49138 0.0
H1270 H 0.45467 0.97706 0.51419 0.0
H1271 H 0.45179 0.00673 0.50577 0.0
H1272 H 0.51114 0.97597 0.56637 0.0
H1273 H 0.50637 0.0472 0.54565 0.0
H1274 H 0.51747 0.95087 0.51496 0.0
H1275 H 0.48676 0.9502 0.51953 0.0
H1276 H 0.50639 0.94454 0.54207 0.0
H1277 H 0.5107 0.03854 0.4898 0.0
H1278 H 0.49723 0.05789 0.50939 0.0
H1279 H 0.47999 0.03701 0.49433 0.0
C1280 C 0.27915 0.24475 0.71148 0.0
C1281 C 0.2626 0.23761 0.69596 0.0
C1282 C 0.2727 0.24938 0.73333 0.0
C1283 C 0.24919 0.2465 0.73982 0.0
C1284 C 0.23237 0.23948 0.72412 0.0
C1285 C 0.23927 0.2353 0.70231 0.0
C1286 C 0.29109 0.25714 0.74951 0.0
C1287 C 0.20717 0.23608 0.73041 0.0
C1288 C 0.23728 0.23767 0.80086 0.0
C1289 C 0.23007 0.25997 0.80721 0.0
C1290 C 0.24324 0.23292 0.77888 0.0
C1291 C 0.24218 0.25099 0.76302 0.0
C1292 C 0.23469 0.27348 0.76939 0.0
C1293 C 0.22853 0.27763 0.79136 0.0
C1294 C 0.25087 0.20864 0.77266 0.0
C1295 C 0.23346 0.29326 0.75305 0.0
H1296 H 0.29726 0.24625 0.70664 0.0
H1297 H 0.22647 0.22991 0.69023 0.0
H1298 H 0.286 0.27399 0.75705 0.0
H1299 H 0.29259 0.24423 0.76302 0.0
H1300 H 0.30845 0.25921 0.74168 0.0
H1301 H 0.19631 0.23038 0.71626 0.0
H1302 H 0.20581 0.22283 0.74363 0.0
H1303 H 0.1999 0.25256 0.737 0.0
H1304 H 0.23854 0.22405 0.81315 0.0
H1305 H 0.22254 0.29478 0.79619 0.0
H1306 H 0.26905 0.20903 0.76652 0.0
H1307 H 0.2398 0.20188 0.75913 0.0
H1308 H 0.2499 0.19635 0.78675 0.0
H1309 H 0.2509 0.29629 0.74573 0.0
H1310 H 0.22735 0.30974 0.76069 0.0
H1311 H 0.22149 0.28867 0.73939 0.0
C1312 C 0.02936 0.01414 0.96419 0.0
C1313 C 0.01145 0.01306 0.94855 0.0
C1314 C 0.02539 0.00795 0.98619 0.0
C1315 C 0.00285 0.00088 0.99278 0.0
C1316 C 0.98458 0.00013 0.97711 0.0
C1317 C 0.98914 0.00612 0.95511 0.0
C1318 C 0.04537 0.00887 1.00234 0.0
C1319 C 0.96025 0.9929 0.98357 0.0
C1320 C 0.99624 0.9645 0.04466 0.0
C1321 C 0.98943 0.98133 0.06005 0.0
C1322 C 0.00093 0.97066 0.02275 0.0
C1323 C 0.99845 0.99417 0.01607 0.0
C1324 C 0.99181 0.01127 0.03165 0.0
C1325 C 0.98755 0.00464 0.05351 0.0
C1326 C 0.00824 0.95198 0.0067 0.0
C1327 C 0.98888 0.03648 0.02516 0.0
H1328 H 0.04654 0.01992 0.95922 0.0
H1329 H 0.97534 0.00519 0.94298 0.0
H1330 H 0.04122 0.02112 0.01589 0.0
H1331 H 0.04804 0.99145 0.00983 0.0
H1332 H 0.06191 0.01447 0.99449 0.0
H1333 H 0.94787 0.99382 0.96955 0.0
H1334 H 0.96044 0.9748 0.98996 0.0
H1335 H 0.95374 0.00427 0.99699 0.0
H1336 H 0.99741 0.94642 0.04966 0.0
H1337 H 0.98238 0.01765 0.06549 0.0
H1338 H 0.0251 0.95671 0.99898 0.0
H1339 H 0.99519 0.95055 0.9933 0.0
H1340 H 0.01009 0.93468 0.01468 0.0
H1341 H 0.00542 0.04333 0.01833 0.0
H1342 H 0.98358 0.0476 0.03926 0.0
H1343 H 0.9755 0.03797 0.01206 0.0
C1344 C 0.7289 0.71886 0.7928 0.0
C1345 C 0.73008 0.73687 0.80833 0.0
C1346 C 0.73491 0.72269 0.77075 0.0
C1347 C 0.74179 0.74523 0.76396 0.0
C1348 C 0.74246 0.76365 0.77948 0.0
C1349 C 0.73675 0.7592 0.80156 0.0
C1350 C 0.73417 0.70254 0.75479 0.0
C1351 C 0.74939 0.788 0.77278 0.0
C1352 C 0.77833 0.75165 0.71223 0.0
C1353 C 0.7615 0.758 0.69667 0.0
C1354 C 0.77211 0.74715 0.73414 0.0
C1355 C 0.74854 0.74942 0.74067 0.0
C1356 C 0.73144 0.75559 0.72492 0.0
C1357 C 0.73812 0.75958 0.70304 0.0
C1358 C 0.79078 0.74024 0.75037 0.0
C1359 C 0.70617 0.75835 0.73127 0.0
H1360 H 0.72331 0.70167 0.79794 0.0
H1361 H 0.73773 0.7731 0.8136 0.0
H1362 H 0.72195 0.70646 0.74114 0.0
H1363 H 0.75163 0.69989 0.74739 0.0
H1364 H 0.72863 0.68604 0.76277 0.0
H1365 H 0.74814 0.80056 0.78663 0.0
H1366 H 0.76755 0.78799 0.76657 0.0
H1367 H 0.73807 0.79415 0.75917 0.0
H1368 H 0.79646 0.75069 0.70735 0.0
H1369 H 0.72511 0.76434 0.69092 0.0
H1370 H 0.78617 0.72345 0.75829 0.0
H1371 H 0.79205 0.75349 0.76359 0.0
H1372 H 0.80813 0.73842 0.74247 0.0
H1373 H 0.69944 0.74182 0.73824 0.0
H1374 H 0.69508 0.76339 0.71707 0.0
H1375 H 0.70449 0.77186 0.74423 0.0
C1376 C 0.74608 0.25974 0.30357 0.0
C1377 C 0.76955 0.26143 0.30958 0.0
C1378 C 0.73963 0.25556 0.28166 0.0
C1379 C 0.75714 0.25237 0.26554 0.0
C1380 C 0.78091 0.25357 0.27166 0.0
C1381 C 0.78682 0.25847 0.29358 0.0
C1382 C 0.7141 0.25489 0.27571 0.0
C1383 C 0.80008 0.24973 0.25505 0.0
C1384 C 0.73986 0.21983 0.21374 0.0
C1385 C 0.73809 0.23791 0.19834 0.0
C1386 C 0.74644 0.22425 0.23555 0.0
C1387 C 0.75057 0.24745 0.24233 0.0
C1388 C 0.74833 0.26589 0.22697 0.0
C1389 C 0.74241 0.26085 0.20505 0.0
C1390 C 0.74905 0.20407 0.2513 0.0
C1391 C 0.75207 0.29091 0.23373 0.0
H1392 H 0.73275 0.26211 0.31601 0.0
H1393 H 0.80498 0.26027 0.29817 0.0
H1394 H 0.71037 0.26796 0.26273 0.0
H1395 H 0.70952 0.23756 0.26892 0.0
H1396 H 0.7027 0.25847 0.29008 0.0
H1397 H 0.81766 0.25034 0.26266 0.0
H1398 H 0.7978 0.23257 0.24693 0.0
H1399 H 0.79915 0.26322 0.24202 0.0
H1400 H 0.73597 0.20213 0.20878 0.0
H1401 H 0.74118 0.27484 0.19313 0.0
H1402 H 0.7364 0.20581 0.26498 0.0
H1403 H 0.76674 0.20419 0.25865 0.0
H1404 H 0.74621 0.18699 0.24314 0.0
H1405 H 0.74034 0.29539 0.24761 0.0
H1406 H 0.74879 0.30326 0.22001 0.0
H1407 H 0.7702 0.29335 0.23959 0.0
C1408 C 0.73522 0.23837 0.70534 0.0
C1409 C 0.7316 0.26138 0.69851 0.0
C1410 C 0.74164 0.23337 0.72716 0.0
C1411 C 0.74466 0.25186 0.74235 0.0
C1412 C 0.74065 0.27508 0.73556 0.0
C1413 C 0.73395 0.27952 0.71379 0.0
C1414 C 0.74546 0.20835 0.73389 0.0
C1415 C 0.74371 0.29528 0.75122 0.0
C1416 C 0.7428 0.23946 0.80372 0.0
C1417 C 0.76653 0.23847 0.80895 0.0
C1418 C 0.73541 0.24359 0.78206 0.0
C1419 C 0.7522 0.24703 0.76533 0.0
C1420 C 0.77622 0.24625 0.77061 0.0
C1421 C 0.7831 0.24176 0.79237 0.0
C1422 C 0.70965 0.24408 0.77707 0.0
C1423 C 0.79465 0.25004 0.75326 0.0
H1424 H 0.73343 0.22434 0.69353 0.0
H1425 H 0.7305 0.29727 0.70872 0.0
H1426 H 0.76381 0.20583 0.73905 0.0
H1427 H 0.73432 0.20402 0.74822 0.0
H1428 H 0.74151 0.19596 0.72035 0.0
H1429 H 0.74004 0.31232 0.74328 0.0
H1430 H 0.73192 0.29323 0.76554 0.0
H1431 H 0.7618 0.29553 0.75763 0.0
H1432 H 0.73002 0.23672 0.8166 0.0
H1433 H 0.80145 0.24043 0.79636 0.0
H1434 H 0.70543 0.23079 0.76442 0.0
H1435 H 0.70474 0.26129 0.7702 0.0
H1436 H 0.69887 0.24069 0.79189 0.0
H1437 H 0.79301 0.23663 0.74021 0.0
H1438 H 0.81255 0.24927 0.76015 0.0
H1439 H 0.79213 0.26727 0.74533 0.0
C1440 C 0.73899 0.7387 0.30193 0.0
C1441 C 0.7318 0.76107 0.30806 0.0
C1442 C 0.74495 0.7337 0.28001 0.0
C1443 C 0.74391 0.7516 0.26397 0.0
C1444 C 0.73649 0.77418 0.27013 0.0
C1445 C 0.73032 0.77857 0.29206 0.0
C1446 C 0.75249 0.70932 0.27402 0.0
C1447 C 0.73528 0.79377 0.25359 0.0
C1448 C 0.78042 0.74417 0.21227 0.0
C1449 C 0.7637 0.7368 0.197 0.0
C1450 C 0.77417 0.74935 0.23406 0.0
C1451 C 0.75069 0.74675 0.24078 0.0
C1452 C 0.73371 0.73949 0.22534 0.0
C1453 C 0.74041 0.73478 0.20359 0.0
C1454 C 0.79274 0.7573 0.24997 0.0
C1455 C 0.70854 0.73638 0.23188 0.0
H1456 H 0.74017 0.7252 0.31434 0.0
H1457 H 0.72438 0.79579 0.29676 0.0
H1458 H 0.74125 0.70238 0.26069 0.0
H1459 H 0.7706 0.7096 0.26768 0.0
H1460 H 0.75169 0.69723 0.28827 0.0
H1461 H 0.72934 0.81038 0.26109 0.0
H1462 H 0.75268 0.79659 0.24612 0.0
H1463 H 0.72317 0.7891 0.24007 0.0
H1464 H 0.7985 0.7454 0.20729 0.0
H1465 H 0.72745 0.72921 0.19172 0.0
H1466 H 0.79437 0.74458 0.26361 0.0
H1467 H 0.78775 0.77426 0.25736 0.0
H1468 H 0.81001 0.75925 0.24195 0.0
H1469 H 0.70721 0.72333 0.24528 0.0
H1470 H 0.69751 0.73055 0.2179 0.0
H1471 H 0.70144 0.753 0.23832 0.0
C1472 C 0.50984 0.50933 0.95466 0.0
C1473 C 0.48696 0.51471 0.94852 0.0
C1474 C 0.51513 0.50273 0.97638 0.0
C1475 C 0.49702 0.50116 0.99215 0.0
C1476 C 0.4739 0.50667 0.98598 0.0
C1477 C 0.46923 0.51363 0.96433 0.0
C1478 C 0.54005 0.49736 0.98243 0.0
C1479 C 0.45406 0.50505 1.00222 0.0
C1480 C 0.50621 0.46318 0.04267 0.0
C1481 C 0.51076 0.47988 0.05891 0.0
C1482 C 0.50161 0.46986 0.02087 0.0
C1483 C 0.50212 0.49378 0.01513 0.0
C1484 C 0.50696 0.51067 0.03148 0.0
C1485 C 0.51105 0.50351 0.05321 0.0
C1486 C 0.49622 0.45135 0.00398 0.0
C1487 C 0.50795 0.5363 0.02599 0.0
H1488 H 0.52354 0.51004 0.94242 0.0
H1489 H 0.45159 0.51828 0.95975 0.0
H1490 H 0.54562 0.50849 0.9964 0.0
H1491 H 0.54152 0.47898 0.9879 0.0
H1492 H 0.55219 0.50017 0.96845 0.0
H1493 H 0.43701 0.50945 0.99465 0.0
H1494 H 0.45305 0.48715 0.00903 0.0
H1495 H 0.45718 0.51704 0.01623 0.0
H1496 H 0.50658 0.44486 0.04697 0.0
H1497 H 0.51471 0.51639 0.06579 0.0
H1498 H 0.50932 0.45189 0.99058 0.0
H1499 H 0.47896 0.45475 0.99643 0.0
H1500 H 0.49611 0.43357 0.0112 0.0
H1501 H 0.52094 0.53939 0.01279 0.0
H1502 H 0.51266 0.54714 0.04046 0.0
H1503 H 0.49082 0.5422 0.01966 0.0
C1504 C 0.97356 0.52156 0.54255 0.0
C1505 C 0.99151 0.52168 0.55817 0.0
C1506 C 0.97797 0.5159 0.5205 0.0
C1507 C 0.00094 0.51038 0.51389 0.0
C1508 C 0.01928 0.51117 0.5295 0.0
C1509 C 0.01433 0.51687 0.5515 0.0
C1510 C 0.95796 0.5154 0.50438 0.0
C1511 C 0.04402 0.50549 0.52305 0.0
C1512 C 0.0084 0.47263 0.46301 0.0
C1513 C 0.01416 0.4892 0.44702 0.0
C1514 C 0.00406 0.4793 0.48484 0.0
C1515 C 0.00559 0.50311 0.49079 0.0
C1516 C 0.01124 0.51994 0.4746 0.0
C1517 C 0.01543 0.51275 0.45288 0.0
C1518 C 0.99803 0.46084 0.50159 0.0
C1519 C 0.01297 0.54548 0.48027 0.0
H1520 H 0.95598 0.52582 0.54762 0.0
H1521 H 0.02819 0.51701 0.56361 0.0
H1522 H 0.96166 0.52713 0.4903 0.0
H1523 H 0.95587 0.49756 0.49765 0.0
H1524 H 0.94124 0.52079 0.51204 0.0
H1525 H 0.05641 0.50788 0.53691 0.0
H1526 H 0.04506 0.48716 0.51734 0.0
H1527 H 0.04959 0.5167 0.50915 0.0
H1528 H 0.00772 0.45437 0.4585 0.0
H1529 H 0.01987 0.52553 0.44043 0.0
H1530 H 0.98084 0.4647 0.50909 0.0
H1531 H 0.01108 0.46092 0.51506 0.0
H1532 H 0.99742 0.44312 0.49428 0.0
H1533 H 0.99614 0.55172 0.48701 0.0
H1534 H 0.01759 0.55633 0.46578 0.0
H1535 H 0.02633 0.54814 0.49321 0.0
C1536 C 0.98936 0.51826 0.05029 0.0
C1537 C 0.01217 0.52206 0.05759 0.0
C1538 C 0.98487 0.51221 0.02828 0.0
C1539 C 0.00367 0.50989 0.01332 0.0
C1540 C 0.02668 0.51428 0.02056 0.0
C1541 C 0.03061 0.52048 0.04256 0.0
C1542 C 0.96008 0.50787 0.02113 0.0
C1543 C 0.04719 0.51205 0.00515 0.0
C1544 C 0.99471 0.47146 0.96309 0.0
C1545 C 0.99037 0.48799 0.94667 0.0
C1546 C -0.0007 0.47836 0.98482 0.0
C1547 C -0.00062 0.50237 0.99023 0.0
C1548 C 0.99541 0.51914 0.97357 0.0
C1549 C 0.99106 0.51173 0.95194 0.0
C1550 C 0.00368 0.45996 1.00207 0.0
C1551 C 0.99534 0.54488 0.97866 0.0
H1552 H 0.97511 0.5195 0.06192 0.0
H1553 H 0.04822 0.52401 0.04805 0.0
H1554 H 0.95571 0.51903 0.00681 0.0
H1555 H 0.9581 0.48949 0.01578 0.0
H1556 H 0.94737 0.51138 0.0345 0.0
H1557 H 0.06395 0.51642 0.0133 0.0
H1558 H 0.04826 0.49397 0.99879 0.0
H1559 H 0.04485 0.52371 0.99077 0.0
H1560 H 0.99394 0.45309 0.95902 0.0
H1561 H 0.98779 0.52448 0.93915 0.0
H1562 H 0.9901 0.46097 0.01501 0.0
H1563 H 0.02072 0.46306 0.01017 0.0
H1564 H 0.00365 0.44209 0.99506 0.0
H1565 H 0.98162 0.54881 0.99095 0.0
H1566 H 0.9922 0.55567 0.96378 0.0
H1567 H 0.01225 0.55007 0.98601 0.0
C1568 C 0.48837 0.51466 0.45651 0.0
C1569 C 0.51109 0.51883 0.44916 0.0
C1570 C 0.484 0.50889 0.47861 0.0
C1571 C 0.50285 0.50724 0.4936 0.0
C1572 C 0.52577 0.51186 0.48628 0.0
C1573 C 0.52958 0.51774 0.46418 0.0
C1574 C 0.4593 0.50423 0.48584 0.0
C1575 C 0.54632 0.51037 0.50173 0.0
C1576 C 0.49014 0.51064 0.5549 0.0
C1577 C 0.48999 0.48706 0.56079 0.0
C1578 C 0.49434 0.51749 0.53309 0.0
C1579 C 0.49867 0.50032 0.51687 0.0
C1580 C 0.49906 0.47648 0.52289 0.0
C1581 C 0.49465 0.47014 0.5448 0.0
C1582 C 0.4938 0.54307 0.52734 0.0
C1583 C 0.50378 0.45767 0.50612 0.0
H1584 H 0.47408 0.51551 0.44489 0.0
H1585 H 0.5471 0.52157 0.45866 0.0
H1586 H 0.45772 0.48602 0.49175 0.0
H1587 H 0.45465 0.51579 0.49978 0.0
H1588 H 0.44654 0.50698 0.47234 0.0
H1589 H 0.56302 0.51465 0.49346 0.0
H1590 H 0.54385 0.52248 0.51576 0.0
H1591 H 0.5476 0.49252 0.50864 0.0
H1592 H 0.4866 0.52368 0.56736 0.0
H1593 H 0.49429 0.45189 0.54935 0.0
H1594 H 0.48004 0.54638 0.51491 0.0
H1595 H 0.51063 0.54836 0.51991 0.0
H1596 H 0.49041 0.55423 0.54193 0.0
H1597 H 0.49022 0.4581 0.49312 0.0
H1598 H 0.50401 0.44 0.51358 0.0
H1599 H 0.52079 0.46081 0.498 0.0
C1600 C 0.36874 0.19504 0.0934 0.0
C1601 C 0.35515 0.20514 0.11003 0.0
C1602 C 0.38263 0.17542 0.09766 0.0
C1603 C 0.38315 0.16582 0.11913 0.0
C1604 C 0.36951 0.17596 0.13599 0.0
C1605 C 0.35558 0.1954 0.13121 0.0
C1606 C 0.39671 0.1649 0.07918 0.0
C1607 C 0.36973 0.16635 0.15911 0.0
C1608 C 0.40207 0.10279 0.12534 0.0
C1609 C 0.42556 0.10513 0.13139 0.0
C1610 C 0.38807 0.12238 0.12144 0.0
C1611 C 0.39768 0.14493 0.12383 0.0
C1612 C 0.42122 0.14747 0.13038 0.0
C1613 C 0.43492 0.12754 0.13399 0.0
C1614 C 0.36309 0.11893 0.11435 0.0
C1615 C 0.43201 0.17125 0.13333 0.0
H1616 H 0.36847 0.20242 0.07699 0.0
H1617 H 0.34523 0.20316 0.1442 0.0
H1618 H 0.41548 0.1651 0.08348 0.0
H1619 H 0.39163 0.14643 0.07676 0.0
H1620 H 0.39429 0.17435 0.0634 0.0
H1621 H 0.35839 0.17646 0.17042 0.0
H1622 H 0.36377 0.14797 0.15903 0.0
H1623 H 0.38775 0.1665 0.16569 0.0
H1624 H 0.39465 0.08558 0.12319 0.0
H1625 H 0.45302 0.12954 0.1387 0.0
H1626 H 0.36033 0.12683 0.0979 0.0
H1627 H 0.35118 0.12787 0.12597 0.0
H1628 H 0.35817 0.10023 0.11353 0.0
H1629 H 0.43173 0.18082 0.11748 0.0
H1630 H 0.4503 0.17026 0.13923 0.0
H1631 H 0.4217 0.18158 0.14529 0.0
C1632 C 0.05071 0.1049 0.3821 0.0
C1633 C 0.04251 0.10281 0.36042 0.0
C1634 C 0.07042 0.11838 0.387 0.0
C1635 C 0.08236 0.12992 0.3698 0.0
C1636 C 0.07433 0.12772 0.34787 0.0
C1637 C 0.05445 0.11426 0.34345 0.0
C1638 C 0.07839 0.1204 0.4106 0.0
C1639 C 0.08674 0.1396 0.32906 0.0
C1640 C 0.12116 0.18177 0.38289 0.0
C1641 C 0.14341 0.17166 0.3823 0.0
C1642 C 0.10111 0.16832 0.37918 0.0
C1643 C 0.10335 0.14421 0.37471 0.0
C1644 C 0.12569 0.13383 0.3745 0.0
C1645 C 0.14542 0.14765 0.37834 0.0
C1646 C 0.07754 0.17997 0.37968 0.0
C1647 C 0.12879 0.10818 0.36979 0.0
H1648 H 0.04157 0.09617 0.39534 0.0
H1649 H 0.04828 0.1127 0.32666 0.0
H1650 H 0.09654 0.11399 0.41219 0.0
H1651 H 0.07835 0.13894 0.41574 0.0
H1652 H 0.06716 0.11036 0.42207 0.0
H1653 H 0.07839 0.13598 0.31293 0.0
H1654 H 0.08695 0.15871 0.33174 0.0
H1655 H 0.10512 0.13371 0.32836 0.0
H1656 H 0.1194 0.20028 0.38596 0.0
H1657 H 0.1625 0.13963 0.37782 0.0
H1658 H 0.06604 0.17108 0.39169 0.0
H1659 H 0.06913 0.17851 0.3633 0.0
H1660 H 0.07871 0.1987 0.38414 0.0
H1661 H 0.11852 0.09768 0.38164 0.0
H1662 H 0.1473 0.10267 0.37077 0.0
H1663 H 0.12213 0.1041 0.35309 0.0
C1664 C 0.06576 0.87278 0.63457 0.0
C1665 C 0.07513 0.89517 0.63184 0.0
C1666 C 0.07949 0.85283 0.63134 0.0
C1667 C 0.10311 0.8553 0.62506 0.0
C1668 C 0.11275 0.87783 0.62253 0.0
C1669 C 0.09869 0.89747 0.62602 0.0
C1670 C 0.06866 0.82908 0.63439 0.0
C1671 C 0.13783 0.88119 0.61575 0.0
C1672 C 0.1446 0.80454 0.63366 0.0
C1673 C 0.14521 0.79448 0.61262 0.0
C1674 C 0.13091 0.82428 0.63797 0.0
C1675 C 0.11767 0.83434 0.62078 0.0
C1676 C 0.11842 0.82444 0.59945 0.0
C1677 C 0.1321 0.80457 0.59565 0.0
C1678 C 0.13046 0.83424 0.66096 0.0
C1679 C 0.10473 0.83483 0.58064 0.0
H1680 H 0.04761 0.87081 0.63911 0.0
H1681 H 0.10611 0.91466 0.62378 0.0
H1682 H 0.06922 0.81929 0.61866 0.0
H1683 H 0.07877 0.81892 0.64664 0.0
H1684 H 0.05028 0.83013 0.63998 0.0
H1685 H 0.14277 0.89987 0.61482 0.0
H1686 H 0.14956 0.87237 0.6276 0.0
H1687 H 0.14082 0.87311 0.59941 0.0
H1688 H 0.15461 0.79682 0.64691 0.0
H1689 H 0.13251 0.79695 0.57934 0.0
H1690 H 0.11238 0.83417 0.66737 0.0
H1691 H 0.13639 0.85263 0.6607 0.0
H1692 H 0.1417 0.82431 0.67251 0.0
H1693 H 0.08587 0.83471 0.58462 0.0
H1694 H 0.10741 0.82523 0.56498 0.0
H1695 H 0.10989 0.85327 0.57816 0.0
C1696 C 0.44571 0.89163 0.85833 0.0
C1697 C 0.44492 0.91394 0.86762 0.0
C1698 C 0.42739 0.87582 0.86143 0.0
C1699 C 0.40829 0.88219 0.87487 0.0
C1700 C 0.40759 0.90463 0.88455 0.0
C1701 C 0.42576 0.92044 0.88046 0.0
C1702 C 0.4284 0.85239 0.85017 0.0
C1703 C 0.38788 0.91178 0.89954 0.0
C1704 C 0.35087 0.85031 0.86798 0.0
C1705 C 0.35245 0.83312 0.88427 0.0
C1706 C 0.36903 0.86622 0.8646 0.0
C1707 C 0.38885 0.86547 0.87842 0.0
C1708 C 0.39029 0.84844 0.89526 0.0
C1709 C 0.37222 0.83212 0.8977 0.0
C1710 C 0.36719 0.88352 0.84596 0.0
C1711 C 0.41081 0.84758 0.91077 0.0
H1712 H 0.46058 0.88669 0.84837 0.0
H1713 H 0.42539 0.9376 0.8879 0.0
H1714 H 0.42863 0.83827 0.86261 0.0
H1715 H 0.41261 0.84984 0.8399 0.0
H1716 H 0.44402 0.85054 0.83953 0.0
H1717 H 0.39045 0.92949 0.9065 0.0
H1718 H 0.37117 0.9115 0.89041 0.0
H1719 H 0.38629 0.89918 0.9133 0.0
H1720 H 0.33563 0.8509 0.85745 0.0
H1721 H 0.37331 0.8189 0.91039 0.0
H1722 H 0.38222 0.88141 0.83465 0.0
H1723 H 0.36784 0.90155 0.85247 0.0
H1724 H 0.35086 0.88139 0.83637 0.0
H1725 H 0.42696 0.84368 0.90148 0.0
H1726 H 0.40861 0.83418 0.92379 0.0
H1727 H 0.41325 0.86481 0.91872 0.0
C1728 C 0.42269 0.87621 0.3596 0.0
C1729 C 0.41917 0.89708 0.37106 0.0
C1730 C 0.40718 0.85746 0.36205 0.0
C1731 C 0.38825 0.85942 0.3769 0.0
C1732 C 0.38485 0.88038 0.38872 0.0
C1733 C 0.40014 0.89908 0.38538 0.0
C1734 C 0.41095 0.83562 0.34868 0.0
C1735 C 0.36533 0.88292 0.40519 0.0
C1736 C 0.33566 0.81961 0.37197 0.0
C1737 C 0.34114 0.80207 0.38712 0.0
C1738 C 0.35109 0.83813 0.36811 0.0
C1739 C 0.37208 0.83951 0.38028 0.0
C1740 C 0.37741 0.82208 0.39598 0.0
C1741 C 0.36205 0.80332 0.39893 0.0
C1742 C 0.34511 0.856 0.35078 0.0
C1743 C 0.39924 0.82334 0.4098 0.0
H1744 H 0.43735 0.87471 0.34845 0.0
H1745 H 0.39755 0.91513 0.39446 0.0
H1746 H 0.4143 0.82065 0.35977 0.0
H1747 H 0.39501 0.8315 0.33911 0.0
H1748 H 0.42583 0.83729 0.33711 0.0
H1749 H 0.36548 0.90018 0.41346 0.0
H1750 H 0.34827 0.88063 0.39691 0.0
H1751 H 0.36674 0.86915 0.41793 0.0
H1752 H 0.31961 0.81848 0.36263 0.0
H1753 H 0.36624 0.78976 0.41069 0.0
H1754 H 0.35934 0.85705 0.33847 0.0
H1755 H 0.34345 0.87346 0.35841 0.0
H1756 H 0.32859 0.85186 0.34211 0.0
H1757 H 0.41484 0.82285 0.39906 0.0
H1758 H 0.40042 0.8088 0.4218 0.0
H1759 H 0.39972 0.84007 0.41893 0.0
C1760 C 0.35496 0.15104 0.6293 0.0
C1761 C 0.35605 0.1747 0.62352 0.0
C1762 C 0.37524 0.13801 0.63288 0.0
C1763 C 0.39724 0.14877 0.63043 0.0
C1764 C 0.39855 0.17252 0.62423 0.0
C1765 C 0.37793 0.18525 0.62095 0.0
C1766 C 0.3731 0.11277 0.63962 0.0
C1767 C 0.42173 0.18451 0.62123 0.0
C1768 C 0.44858 0.12089 0.65984 0.0
C1769 C 0.45875 0.10777 0.64292 0.0
C1770 C 0.42865 0.13446 0.65596 0.0
C1771 C 0.41883 0.13513 0.6346 0.0
C1772 C 0.42916 0.12213 0.6174 0.0
C1773 C 0.44891 0.1085 0.62179 0.0
C1774 C 0.41794 0.14786 0.67479 0.0
C1775 C 0.41931 0.12255 0.59436 0.0
H1776 H 0.33817 0.1427 0.63142 0.0
H1777 H 0.37896 0.20348 0.61644 0.0
H1778 H 0.38228 0.10149 0.62761 0.0
H1779 H 0.38152 0.11007 0.65586 0.0
H1780 H 0.35468 0.10698 0.64073 0.0
H1781 H 0.41978 0.20287 0.61577 0.0
H1782 H 0.43157 0.18429 0.63694 0.0
H1783 H 0.43234 0.175 0.6089 0.0
H1784 H 0.45606 0.12039 0.67621 0.0
H1785 H 0.45674 0.09854 0.60857 0.0
H1786 H 0.3998 0.14186 0.67754 0.0
H1787 H 0.41713 0.16667 0.67069 0.0
H1788 H 0.42786 0.14573 0.69035 0.0
H1789 H 0.40129 0.11559 0.59443 0.0
H1790 H 0.42988 0.1121 0.58266 0.0
H1791 H 0.4184 0.14074 0.58827 0.0
C1792 C 0.14206 0.19396 0.8741 0.0
C1793 C 0.14282 0.20346 0.89537 0.0
C1794 C 0.12852 0.17423 0.86944 0.0
C1795 C 0.11562 0.16355 0.88651 0.0
C1796 C 0.11651 0.17287 0.90807 0.0
C1797 C 0.13 0.1928 0.91222 0.0
C1798 C 0.12787 0.16491 0.84621 0.0
C1799 C 0.10323 0.16176 0.92677 0.0
C1800 C 0.0643 0.12451 0.87224 0.0
C1801 C 0.07417 0.10225 0.87426 0.0
C1802 C 0.07767 0.14464 0.87589 0.0
C1803 C 0.1014 0.14245 0.88188 0.0
C1804 C 0.11153 0.12007 0.88369 0.0
C1805 C 0.09784 0.10027 0.87977 0.0
C1806 C 0.06633 0.16824 0.87358 0.0
C1807 C 0.13675 0.11702 0.89014 0.0
H1808 H 0.15181 0.20215 0.86094 0.0
H1809 H 0.13055 0.19999 0.9287 0.0
H1810 H 0.13417 0.14665 0.84592 0.0
H1811 H 0.10968 0.1648 0.84005 0.0
H1812 H 0.13872 0.17538 0.83476 0.0
H1813 H 0.10594 0.17101 0.94262 0.0
H1814 H 0.08433 0.16165 0.92298 0.0
H1815 H 0.10874 0.14337 0.92878 0.0
H1816 H 0.04605 0.12623 0.86795 0.0
H1817 H 0.10565 0.08318 0.88147 0.0
H1818 H 0.07608 0.17897 0.86151 0.0
H1819 H 0.06689 0.17756 0.88956 0.0
H1820 H 0.0479 0.16698 0.86815 0.0
H1821 H 0.14818 0.12637 0.87838 0.0
H1822 H 0.14205 0.09841 0.89059 0.0
H1823 H 0.13979 0.12473 0.90664 0.0
C1824 C 0.12426 0.81261 0.12363 0.0
C1825 C 0.14605 0.82296 0.1273 0.0
C1826 C 0.10355 0.82525 0.12684 0.0
C1827 C 0.10469 0.84865 0.13414 0.0
C1828 C 0.12662 0.85918 0.13784 0.0
C1829 C 0.14699 0.84627 0.13425 0.0
C1830 C 0.08047 0.81355 0.12246 0.0
C1831 C 0.12859 0.88401 0.14585 0.0
C1832 C 0.05365 0.88973 0.12543 0.0
C1833 C 0.04287 0.88937 0.14614 0.0
C1834 C 0.0735 0.8762 0.12116 0.0
C1835 C 0.08301 0.86222 0.13811 0.0
C1836 C 0.07227 0.86184 0.15908 0.0
C1837 C 0.05224 0.87531 0.1628 0.0
C1838 C 0.08431 0.87689 0.09853 0.0
C1839 C 0.08211 0.84743 0.17766 0.0
H1840 H 0.12336 0.79465 0.11822 0.0
H1841 H 0.16371 0.85443 0.13727 0.0
H1842 H 0.06996 0.81311 0.13777 0.0
H1843 H 0.07044 0.82368 0.11014 0.0
H1844 H 0.08257 0.79544 0.11633 0.0
H1845 H 0.14697 0.88959 0.14801 0.0
H1846 H 0.12005 0.89598 0.13401 0.0
H1847 H 0.11943 0.88592 0.16182 0.0
H1848 H 0.04643 0.90042 0.1124 0.0
H1849 H 0.04403 0.87497 0.17885 0.0
H1850 H 0.08538 0.85902 0.09164 0.0
H1851 H 0.10235 0.8837 0.09959 0.0
H1852 H 0.07429 0.88799 0.08693 0.0
H1853 H 0.08295 0.82884 0.17276 0.0
H1854 H 0.07158 0.84887 0.19293 0.0
H1855 H 0.10017 0.85311 0.18134 0.0
C1856 C 0.64079 0.80186 0.87272 0.0
C1857 C 0.64353 0.79488 0.8947 0.0
C1858 C 0.6273 0.82137 0.86723 0.0
C1859 C 0.61648 0.83438 0.88414 0.0
C1860 C 0.61932 0.82756 0.90637 0.0
C1861 C 0.63272 0.8078 0.91139 0.0
C1862 C 0.62456 0.82801 0.84332 0.0
C1863 C 0.60825 0.84119 0.92486 0.0
C1864 C 0.59989 0.89722 0.87297 0.0
C1865 C 0.5757 0.89558 0.86991 0.0
C1866 C 0.61339 0.87741 0.87735 0.0
C1867 C 0.60249 0.85536 0.87859 0.0
C1868 C 0.57821 0.85343 0.87491 0.0
C1869 C 0.56509 0.87357 0.87064 0.0
C1870 C 0.63924 0.88016 0.88115 0.0
C1871 C 0.56604 0.83015 0.87592 0.0
H1872 H 0.64897 0.79191 0.85969 0.0
H1873 H 0.6348 0.80254 0.9284 0.0
H1874 H 0.60584 0.8281 0.83879 0.0
H1875 H 0.6313 0.84588 0.84058 0.0
H1876 H 0.63391 0.81589 0.83214 0.0
H1877 H 0.61219 0.83363 0.94127 0.0
H1878 H 0.61452 0.85947 0.92454 0.0
H1879 H 0.58907 0.84167 0.92267 0.0
H1880 H 0.60831 0.91411 0.87243 0.0
H1881 H 0.54644 0.8721 0.8683 0.0
H1882 H 0.64911 0.86898 0.86955 0.0
H1883 H 0.64373 0.87438 0.89805 0.0
H1884 H 0.64513 0.89846 0.87906 0.0
H1885 H 0.57436 0.81772 0.86436 0.0
H1886 H 0.54723 0.83148 0.87181 0.0
H1887 H 0.56773 0.82271 0.89269 0.0
C1888 C 0.94651 0.87716 0.66164 0.0
C1889 C 0.95596 0.89112 0.64497 0.0
C1890 C 0.92676 0.86332 0.65776 0.0
C1891 C 0.91642 0.86321 0.6366 0.0
C1892 C 0.92602 0.8771 0.61964 0.0
C1893 C 0.94557 0.89101 0.62406 0.0
C1894 C 0.9168 0.84901 0.67635 0.0
C1895 C 0.91563 0.87729 0.59681 0.0
C1896 C 0.87639 0.81264 0.62201 0.0
C1897 C 0.85433 0.8226 0.62522 0.0
C1898 C 0.89678 0.82572 0.6254 0.0
C1899 C 0.89506 0.84919 0.63242 0.0
C1900 C 0.87287 0.85934 0.6356 0.0
C1901 C 0.85282 0.84599 0.63185 0.0
C1902 C 0.92016 0.81441 0.62159 0.0
C1903 C 0.87029 0.88424 0.64325 0.0
H1904 H 0.95442 0.87719 0.67784 0.0
H1905 H 0.95286 0.90161 0.61103 0.0
H1906 H 0.89858 0.85442 0.67962 0.0
H1907 H 0.91639 0.83033 0.67168 0.0
H1908 H 0.92701 0.85086 0.69178 0.0
H1909 H 0.92566 0.88843 0.58526 0.0
H1910 H 0.91502 0.85931 0.59013 0.0
H1911 H 0.89745 0.88377 0.59749 0.0
H1912 H 0.87773 0.79462 0.61685 0.0
H1913 H 0.83589 0.85385 0.63451 0.0
H1914 H 0.93035 0.81434 0.63709 0.0
H1915 H 0.93026 0.82458 0.60935 0.0
H1916 H 0.91852 0.7962 0.61561 0.0
H1917 H 0.87906 0.88654 0.65937 0.0
H1918 H 0.85176 0.88951 0.64497 0.0
H1919 H 0.87887 0.8962 0.63143 0.0
C1920 C 0.92235 0.1232 0.36029 0.0
C1921 C 0.9201 0.10363 0.37384 0.0
C1922 C 0.90709 0.14224 0.36256 0.0
C1923 C 0.88989 0.1419 0.37931 0.0
C1924 C 0.8882 0.12244 0.39349 0.0
C1925 C 0.90303 0.10337 0.3903 0.0
C1926 C 0.90894 0.16238 0.34671 0.0
C1927 C 0.87069 0.1217 0.41203 0.0
C1928 C 0.86346 0.19923 0.39807 0.0
C1929 C 0.84121 0.19809 0.38871 0.0
C1930 C 0.87949 0.18102 0.39522 0.0
C1931 C 0.87338 0.16169 0.38196 0.0
C1932 C 0.85106 0.16076 0.37203 0.0
C1933 C 0.83506 0.1788 0.37588 0.0
C1934 C 0.90276 0.18226 0.40675 0.0
C1935 C 0.84414 0.14078 0.35725 0.0
H1936 H 0.93546 0.12326 0.34746 0.0
H1937 H 0.90147 0.08826 0.40091 0.0
H1938 H 0.89222 0.16454 0.33778 0.0
H1939 H 0.91222 0.17879 0.35581 0.0
H1940 H 0.9231 0.15987 0.33449 0.0
H1941 H 0.87268 0.10593 0.42244 0.0
H1942 H 0.87262 0.13735 0.4226 0.0
H1943 H 0.85276 0.12193 0.40525 0.0
H1944 H 0.86816 0.2142 0.40801 0.0
H1945 H 0.81795 0.17815 0.36835 0.0
H1946 H 0.91709 0.18153 0.39456 0.0
H1947 H 0.90481 0.16701 0.41781 0.0
H1948 H 0.90471 0.19841 0.41666 0.0
H1949 H 0.85729 0.13848 0.34404 0.0
H1950 H 0.82681 0.14351 0.34954 0.0
H1951 H 0.84362 0.12435 0.36683 0.0
C1952 C 0.55707 0.10445 0.1248 0.0
C1953 C 0.54807 0.10265 0.14621 0.0
C1954 C 0.57696 0.11785 0.12042 0.0
C1955 C 0.58826 0.1296 0.13789 0.0
C1956 C 0.5795 0.12756 0.15958 0.0
C1957 C 0.55945 0.11418 0.16347 0.0
C1958 C 0.58572 0.11968 0.09706 0.0
C1959 C 0.59122 0.13968 0.17866 0.0
C1960 C 0.6512 0.14827 0.13037 0.0
C1961 C 0.64882 0.17215 0.1259 0.0
C1962 C 0.63164 0.1342 0.13418 0.0
C1963 C 0.60913 0.14419 0.13343 0.0
C1964 C 0.60655 0.16818 0.12859 0.0
C1965 C 0.62642 0.18188 0.12492 0.0
C1966 C 0.63508 0.10869 0.13932 0.0
C1967 C 0.5828 0.17941 0.12751 0.0
H1968 H 0.54838 0.09565 0.11133 0.0
H1969 H 0.55266 0.11282 0.18006 0.0
H1970 H 0.58545 0.13814 0.09167 0.0
H1971 H 0.60404 0.11365 0.09612 0.0
H1972 H 0.57509 0.10924 0.08538 0.0
H1973 H 0.58254 0.13592 0.1946 0.0
H1974 H 0.6097 0.13415 0.17979 0.0
H1975 H 0.59113 0.15879 0.17596 0.0
H1976 H 0.66841 0.14057 0.13122 0.0
H1977 H 0.62438 0.20028 0.12146 0.0
H1978 H 0.62544 0.09784 0.12727 0.0
H1979 H 0.6279 0.1047 0.15584 0.0
H1980 H 0.65372 0.10354 0.13899 0.0
H1981 H 0.57181 0.17033 0.11519 0.0
H1982 H 0.58375 0.19816 0.12308 0.0
H1983 H 0.57395 0.17779 0.14366 0.0
C1984 C 0.63925 0.19812 0.60889 0.0
C1985 C 0.65979 0.19774 0.62134 0.0
C1986 C 0.62308 0.17987 0.61024 0.0
C1987 C 0.6272 0.16121 0.62495 0.0
C1988 C 0.64777 0.16096 0.63784 0.0
C1989 C 0.66403 0.17908 0.6356 0.0
C1990 C 0.60175 0.18039 0.5957 0.0
C1991 C 0.65249 0.14167 0.65413 0.0
C1992 C 0.5754 0.12388 0.64182 0.0
C1993 C 0.57926 0.10371 0.6294 0.0
C1994 C 0.591 0.14273 0.64072 0.0
C1995 C 0.61039 0.14155 0.62632 0.0
C1996 C 0.61388 0.12145 0.61326 0.0
C1997 C 0.59849 0.10264 0.61523 0.0
C1998 C 0.58707 0.16363 0.65532 0.0
C1999 C 0.63388 0.11979 0.5972 0.0
H2000 H 0.63603 0.21257 0.59781 0.0
H2001 H 0.67977 0.17897 0.64546 0.0
H2002 H 0.60129 0.16456 0.58522 0.0
H2003 H 0.58576 0.18026 0.60592 0.0
H2004 H 0.60133 0.19598 0.58488 0.0
H2005 H 0.66866 0.14472 0.66374 0.0
H2006 H 0.63766 0.14004 0.66573 0.0
H2007 H 0.65415 0.12481 0.64537 0.0
H2008 H 0.56062 0.12461 0.65289 0.0
H2009 H 0.60135 0.08709 0.60547 0.0
H2010 H 0.58514 0.17956 0.64518 0.0
H2011 H 0.60243 0.16627 0.66613 0.0
H2012 H 0.57134 0.1617 0.66579 0.0
H2013 H 0.63349 0.13481 0.58572 0.0
H2014 H 0.63341 0.10344 0.58743 0.0
H2015 H 0.65068 0.12054 0.60618 0.0
C2016 C 0.64803 0.84733 0.36929 0.0
C2017 C 0.64639 0.82783 0.38308 0.0
C2018 C 0.62923 0.86266 0.36672 0.0
C2019 C 0.60852 0.85882 0.37878 0.0
C2020 C 0.60681 0.83924 0.39291 0.0
C2021 C 0.62568 0.82371 0.39461 0.0
C2022 C 0.63152 0.88289 0.35097 0.0
C2023 C 0.58524 0.83494 0.40649 0.0
C2024 C 0.56993 0.91201 0.38651 0.0
C2025 C 0.55213 0.90772 0.37128 0.0
C2026 C 0.58804 0.89589 0.38958 0.0
C2027 C 0.58873 0.87542 0.37658 0.0
C2028 C 0.57095 0.87122 0.36092 0.0
C2029 C 0.55263 0.88725 0.35874 0.0
C2030 C 0.60633 0.90067 0.40686 0.0
C2031 C 0.57146 0.85001 0.34624 0.0
H2032 H 0.66397 0.8504 0.36017 0.0
H2033 H 0.62447 0.80871 0.40537 0.0
H2034 H 0.61723 0.88236 0.33869 0.0
H2035 H 0.62994 0.89957 0.36004 0.0
H2036 H 0.64843 0.8828 0.3421 0.0
H2037 H 0.58689 0.81925 0.41706 0.0
H2038 H 0.58173 0.85025 0.41714 0.0
H2039 H 0.56992 0.83271 0.39559 0.0
H2040 H 0.56936 0.92768 0.39644 0.0
H2041 H 0.53886 0.88398 0.34692 0.0
H2042 H 0.62363 0.90266 0.39897 0.0
H2043 H 0.60753 0.88573 0.41838 0.0
H2044 H 0.60254 0.9167 0.41646 0.0
H2045 H 0.58783 0.84982 0.33654 0.0
H2046 H 0.55647 0.84949 0.33469 0.0
H2047 H 0.57123 0.83394 0.35635 0.0
C2048 C 0.93502 0.86724 0.13453 0.0
C2049 C 0.92476 0.88927 0.13217 0.0
C2050 C 0.92205 0.84682 0.13093 0.0
C2051 C 0.89836 0.84851 0.12464 0.0
C2052 C 0.88787 0.87067 0.12243 0.0
C2053 C 0.90114 0.89074 0.12632 0.0
C2054 C 0.93373 0.82344 0.13369 0.0
C2055 C 0.86269 0.87322 0.11562 0.0
C2056 C 0.86981 0.79808 0.0944 0.0
C2057 C 0.85639 0.78792 0.11111 0.0
C2058 C 0.88373 0.81769 0.09863 0.0
C2059 C 0.88446 0.82717 0.12013 0.0
C2060 C 0.87119 0.8168 0.13712 0.0
C2061 C 0.8572 0.79741 0.13238 0.0
C2062 C 0.89739 0.82848 0.08001 0.0
C2063 C 0.87168 0.82627 0.1603 0.0
H2064 H 0.95323 0.86592 0.13907 0.0
H2065 H 0.89301 0.90765 0.12437 0.0
H2066 H 0.92401 0.81275 0.1458 0.0
H2067 H 0.93351 0.81386 0.11784 0.0
H2068 H 0.95208 0.82509 0.13929 0.0
H2069 H 0.85714 0.89173 0.11472 0.0
H2070 H 0.85997 0.86508 0.09926 0.0
H2071 H 0.85125 0.86401 0.12746 0.0
H2072 H 0.86925 0.79087 0.07793 0.0
H2073 H 0.84703 0.78955 0.14543 0.0
H2074 H 0.91618 0.82899 0.08423 0.0
H2075 H 0.89165 0.84673 0.07744 0.0
H2076 H 0.89523 0.81879 0.06432 0.0
H2077 H 0.88986 0.82686 0.16645 0.0
H2078 H 0.86107 0.81564 0.17182 0.0
H2079 H 0.86494 0.84438 0.16047 0.0
C2080 C 0.94509 0.10265 0.88359 0.0
C2081 C 0.9545 0.10227 0.86228 0.0
C2082 C 0.92562 0.1164 0.88859 0.0
C2083 C 0.91511 0.12986 0.87182 0.0
C2084 C 0.92433 0.12935 0.85022 0.0
C2085 C 0.94402 0.11566 0.84573 0.0
C2086 C 0.91641 0.11666 0.91186 0.0
C2087 C 0.91336 0.14324 0.83183 0.0
C2088 C 0.85214 0.14837 0.87875 0.0
C2089 C 0.85445 0.17195 0.88448 0.0
C2090 C 0.87174 0.13444 0.87477 0.0
C2091 C 0.89424 0.14424 0.87678 0.0
C2092 C 0.89676 0.16784 0.88314 0.0
C2093 C 0.87683 0.18146 0.88682 0.0
C2094 C 0.86834 0.10938 0.86792 0.0
C2095 C 0.92052 0.17878 0.88571 0.0
H2096 H 0.95317 0.09246 0.89651 0.0
H2097 H 0.95116 0.1154 0.82923 0.0
H2098 H 0.91657 0.13471 0.91838 0.0
H2099 H 0.89806 0.1106 0.91209 0.0
H2100 H 0.92677 0.10542 0.92306 0.0
H2101 H 0.92251 0.14077 0.8159 0.0
H2102 H 0.89488 0.13803 0.82976 0.0
H2103 H 0.91354 0.16204 0.83601 0.0
H2104 H 0.83496 0.14084 0.87684 0.0
H2105 H 0.87879 0.19963 0.89129 0.0
H2106 H 0.87764 0.09761 0.87942 0.0
H2107 H 0.87589 0.10658 0.85132 0.0
H2108 H 0.84968 0.1043 0.8675 0.0
H2109 H 0.93116 0.16853 0.89747 0.0
H2110 H 0.91952 0.19706 0.89164 0.0
H2111 H 0.92978 0.1786 0.86969 0.0
C2112 C 0.93038 0.62529 0.63684 0.0
C2113 C 0.92182 0.60266 0.63357 0.0
C2114 C 0.91629 0.64484 0.633 0.0
C2115 C 0.89313 0.64169 0.62558 0.0
C2116 C 0.88423 0.61892 0.62263 0.0
C2117 C 0.89865 0.59968 0.62673 0.0
C2118 C 0.9263 0.66887 0.63653 0.0
C2119 C 0.85964 0.61489 0.61468 0.0
C2120 C 0.85084 0.692 0.63219 0.0
C2121 C 0.85144 0.70219 0.61121 0.0
C2122 C 0.8642 0.67221 0.63706 0.0
C2123 C 0.87836 0.66226 0.62051 0.0
C2124 C 0.87873 0.67218 0.59918 0.0
C2125 C 0.86532 0.69209 0.59481 0.0
C2126 C 0.86344 0.66219 0.66003 0.0
C2127 C 0.89348 0.6619 0.58106 0.0
H2128 H 0.94822 0.62778 0.64218 0.0
H2129 H 0.89187 0.58229 0.62408 0.0
H2130 H 0.92643 0.67857 0.62075 0.0
H2131 H 0.91524 0.67882 0.64818 0.0
H2132 H 0.94435 0.66832 0.6431 0.0
H2133 H 0.85518 0.59609 0.61377 0.0
H2134 H 0.84707 0.62362 0.62582 0.0
H2135 H 0.85737 0.62267 0.59811 0.0
H2136 H 0.8402 0.6997 0.64499 0.0
H2137 H 0.86582 0.69981 0.57854 0.0
H2138 H 0.88106 0.66283 0.66749 0.0
H2139 H 0.85813 0.64362 0.65942 0.0
H2140 H 0.85117 0.67173 0.6709 0.0
H2141 H 0.91213 0.66253 0.5858 0.0
H2142 H 0.89129 0.67128 0.56521 0.0
H2143 H 0.88888 0.64332 0.57855 0.0
C2144 C 0.62003 0.68248 0.88367 0.0
C2145 C 0.64234 0.67271 0.88172 0.0
C2146 C 0.59998 0.66905 0.87991 0.0
C2147 C 0.60229 0.64532 0.87392 0.0
C2148 C 0.62471 0.63529 0.87216 0.0
C2149 C 0.64444 0.64907 0.87614 0.0
C2150 C 0.57633 0.68029 0.88215 0.0
C2151 C 0.62789 0.61008 0.86573 0.0
C2152 C 0.55076 0.60474 0.88191 0.0
C2153 C 0.54125 0.60388 0.86064 0.0
C2154 C 0.57056 0.61822 0.88647 0.0
C2155 C 0.58125 0.631 0.86933 0.0
C2156 C 0.5719 0.63002 0.84778 0.0
C2157 C 0.55195 0.61654 0.84371 0.0
C2158 C 0.57992 0.61893 0.90969 0.0
C2159 C 0.58299 0.64323 0.82903 0.0
H2160 H 0.61821 0.70071 0.888 0.0
H2161 H 0.66158 0.64134 0.8745 0.0
H2162 H 0.567 0.67957 0.86617 0.0
H2163 H 0.56565 0.67058 0.89428 0.0
H2164 H 0.5775 0.69877 0.88746 0.0
H2165 H 0.64651 0.60486 0.86529 0.0
H2166 H 0.6186 0.59862 0.87751 0.0
H2167 H 0.62018 0.60697 0.84924 0.0
H2168 H 0.54258 0.59508 0.89513 0.0
H2169 H 0.54475 0.61593 0.82724 0.0
H2170 H 0.57996 0.63713 0.91583 0.0
H2171 H 0.59821 0.61272 0.90995 0.0
H2172 H 0.56953 0.60805 0.92117 0.0
H2173 H 0.58306 0.66215 0.83272 0.0
H2174 H 0.57375 0.64042 0.81319 0.0
H2175 H 0.6014 0.63775 0.82705 0.0
C2176 C 0.56688 0.37001 0.13794 0.0
C2177 C 0.57641 0.39232 0.13511 0.0
C2178 C 0.58037 0.34996 0.13433 0.0
C2179 C 0.60384 0.35229 0.12753 0.0
C2180 C 0.61365 0.37472 0.125 0.0
C2181 C 0.59988 0.39444 0.12893 0.0
C2182 C 0.56941 0.32629 0.13748 0.0
C2183 C 0.63857 0.37792 0.11763 0.0
C2184 C 0.6457 0.30163 0.13436 0.0
C2185 C 0.64574 0.2919 0.11318 0.0
C2186 C 0.63192 0.3211 0.13934 0.0
C2187 C 0.61808 0.33129 0.12266 0.0
C2188 C 0.61818 0.32168 0.10119 0.0
C2189 C 0.63191 0.302 0.09674 0.0
C2190 C 0.6321 0.33072 0.16247 0.0
C2191 C 0.60388 0.33228 0.0829 0.0
H2192 H 0.5488 0.3682 0.14276 0.0
H2193 H 0.60742 0.41157 0.12662 0.0
H2194 H 0.56925 0.31672 0.12163 0.0
H2195 H 0.57988 0.31584 0.14924 0.0
H2196 H 0.55127 0.32746 0.14372 0.0
H2197 H 0.64368 0.39656 0.11679 0.0
H2198 H 0.65055 0.36883 0.12908 0.0
H2199 H 0.64102 0.37002 0.10113 0.0
H2200 H 0.65623 0.29385 0.14721 0.0
H2201 H 0.63189 0.29461 0.08033 0.0
H2202 H 0.61417 0.33078 0.16925 0.0
H2203 H 0.63827 0.34902 0.16233 0.0
H2204 H 0.64347 0.32048 0.17365 0.0
H2205 H 0.58518 0.33225 0.08746 0.0
H2206 H 0.60596 0.32278 0.0671 0.0
H2207 H 0.60908 0.3507 0.08037 0.0
C2208 C 0.94587 0.38464 0.34657 0.0
C2209 C 0.95637 0.39812 0.36303 0.0
C2210 C 0.92596 0.37127 0.35105 0.0
C2211 C 0.91652 0.37123 0.37257 0.0
C2212 C 0.927 0.38485 0.38925 0.0
C2213 C 0.94673 0.39824 0.38425 0.0
C2214 C 0.91506 0.35717 0.33278 0.0
C2215 C 0.91752 0.38511 0.41242 0.0
C2216 C 0.85344 0.35291 0.37904 0.0
C2217 C 0.85567 0.32942 0.38513 0.0
C2218 C 0.87311 0.36678 0.37515 0.0
C2219 C 0.89557 0.357 0.37757 0.0
C2220 C 0.89799 0.33351 0.38429 0.0
C2221 C 0.87801 0.31997 0.38791 0.0
C2222 C 0.86983 0.39174 0.36792 0.0
C2223 C 0.9217 0.32258 0.38727 0.0
H2224 H 0.95318 0.38451 0.33013 0.0
H2225 H 0.95481 0.40853 0.39711 0.0
H2226 H 0.91513 0.33842 0.3372 0.0
H2227 H 0.89661 0.36241 0.33052 0.0
H2228 H 0.92433 0.35936 0.31688 0.0
H2229 H 0.92776 0.39659 0.42351 0.0
H2230 H 0.89917 0.39115 0.41235 0.0
H2231 H 0.91762 0.3672 0.41928 0.0
H2232 H 0.83628 0.3604 0.37679 0.0
H2233 H 0.87991 0.30187 0.39266 0.0
H2234 H 0.87747 0.39423 0.35132 0.0
H2235 H 0.87911 0.40366 0.37929 0.0
H2236 H 0.85119 0.39686 0.36734 0.0
H2237 H 0.93114 0.32247 0.37135 0.0
H2238 H 0.92061 0.30442 0.39348 0.0
H2239 H 0.93223 0.33303 0.39898 0.0
C2240 C 0.90455 0.39629 0.89309 0.0
C2241 C 0.92147 0.39628 0.8765 0.0
C2242 C 0.88923 0.37749 0.89565 0.0
C2243 C 0.8903 0.35863 0.88069 0.0
C2244 C 0.90739 0.35855 0.86385 0.0
C2245 C 0.92311 0.37725 0.8622 0.0
C2246 C 0.87186 0.37788 0.9143 0.0
C2247 C 0.90859 0.33907 0.8472 0.0
C2248 C 0.8627 0.30108 0.89707 0.0
C2249 C 0.84047 0.30309 0.88776 0.0
C2250 C 0.87907 0.31909 0.89502 0.0
C2251 C 0.87332 0.33918 0.88265 0.0
C2252 C 0.851 0.34104 0.87282 0.0
C2253 C 0.83466 0.32312 0.87585 0.0
C2254 C 0.90232 0.31682 0.90643 0.0
C2255 C 0.84447 0.36187 0.85897 0.0
H2256 H 0.90343 0.41101 0.90423 0.0
H2257 H 0.93609 0.37743 0.84926 0.0
H2258 H 0.85389 0.37844 0.90764 0.0
H2259 H 0.87342 0.36174 0.92423 0.0
H2260 H 0.87435 0.39313 0.92532 0.0
H2261 H 0.92275 0.34172 0.83501 0.0
H2262 H 0.91146 0.32219 0.85563 0.0
H2263 H 0.89177 0.33777 0.83829 0.0
H2264 H 0.86712 0.28556 0.90634 0.0
H2265 H 0.81756 0.32447 0.86839 0.0
H2266 H 0.90478 0.33153 0.91804 0.0
H2267 H 0.91664 0.31772 0.89422 0.0
H2268 H 0.90392 0.30022 0.9157 0.0
H2269 H 0.84447 0.37783 0.86923 0.0
H2270 H 0.82701 0.35994 0.85131 0.0
H2271 H 0.85755 0.36445 0.84575 0.0
C2272 C 0.87203 0.67283 0.11049 0.0
C2273 C 0.8516 0.66828 0.12231 0.0
C2274 C 0.89132 0.65782 0.11209 0.0
C2275 C 0.89031 0.63835 0.12642 0.0
C2276 C 0.86988 0.63409 0.13877 0.0
C2277 C 0.85066 0.64889 0.13629 0.0
C2278 C 0.91258 0.66253 0.0982 0.0
C2279 C 0.86833 0.61399 0.15473 0.0
C2280 C 0.92992 0.58593 0.11896 0.0
C2281 C 0.94773 0.59076 0.13402 0.0
C2282 C 0.9115 0.60166 0.11579 0.0
C2283 C 0.91053 0.6223 0.12854 0.0
C2284 C 0.92836 0.62707 0.144 0.0
C2285 C 0.94698 0.61142 0.14627 0.0
C2286 C 0.89316 0.59627 0.09872 0.0
C2287 C 0.92755 0.64847 0.15842 0.0
H2288 H 0.87269 0.68776 0.09959 0.0
H2289 H 0.83494 0.6455 0.14564 0.0
H2290 H 0.928 0.66525 0.10889 0.0
H2291 H 0.91632 0.64722 0.08764 0.0
H2292 H 0.91039 0.67808 0.08753 0.0
H2293 H 0.85156 0.61374 0.16383 0.0
H2294 H 0.8702 0.59725 0.1458 0.0
H2295 H 0.88279 0.615 0.16682 0.0
H2296 H 0.9307 0.57011 0.10924 0.0
H2297 H 0.96077 0.61511 0.15795 0.0
H2298 H 0.89143 0.61109 0.08712 0.0
H2299 H 0.87602 0.59388 0.1068 0.0
H2300 H 0.89728 0.58028 0.08919 0.0
H2301 H 0.92719 0.66441 0.14812 0.0
H2302 H 0.94271 0.64954 0.16974 0.0
H2303 H 0.91135 0.64838 0.16837 0.0
C2304 C 0.64391 0.69509 0.37356 0.0
C2305 C 0.64513 0.70372 0.39515 0.0
C2306 C 0.63066 0.67525 0.36854 0.0
C2307 C 0.61843 0.66367 0.38552 0.0
C2308 C 0.6198 0.6721 0.40738 0.0
C2309 C 0.6331 0.69206 0.41193 0.0
C2310 C 0.62957 0.66683 0.34502 0.0
C2311 C 0.6071 0.66011 0.42595 0.0
C2312 C 0.5664 0.62569 0.3712 0.0
C2313 C 0.57597 0.60323 0.37253 0.0
C2314 C 0.58012 0.64552 0.37504 0.0
C2315 C 0.60396 0.64286 0.3804 0.0
C2316 C 0.61386 0.62031 0.3813 0.0
C2317 C 0.59977 0.60078 0.37732 0.0
C2318 C 0.56898 0.66931 0.37378 0.0
C2319 C 0.63923 0.61678 0.38694 0.0
H2320 H 0.65312 0.70397 0.36046 0.0
H2321 H 0.63399 0.69856 0.42864 0.0
H2322 H 0.63563 0.64851 0.34401 0.0
H2323 H 0.61129 0.66718 0.33912 0.0
H2324 H 0.64036 0.67761 0.33379 0.0
H2325 H 0.61031 0.6686 0.44209 0.0
H2326 H 0.58809 0.6602 0.42268 0.0
H2327 H 0.61263 0.64163 0.42703 0.0
H2328 H 0.54806 0.6278 0.36749 0.0
H2329 H 0.60736 0.58354 0.37842 0.0
H2330 H 0.57858 0.68044 0.36193 0.0
H2331 H 0.56995 0.67796 0.39007 0.0
H2332 H 0.55043 0.66845 0.36865 0.0
H2333 H 0.65039 0.62675 0.3754 0.0
H2334 H 0.64443 0.59815 0.3863 0.0
H2335 H 0.64276 0.62352 0.40372 0.0
C2336 C 0.64933 0.35334 0.62901 0.0
C2337 C 0.64648 0.32957 0.62426 0.0
C2338 C 0.63005 0.36769 0.63315 0.0
C2339 C 0.60737 0.35808 0.63247 0.0
C2340 C 0.60432 0.33425 0.62724 0.0
C2341 C 0.6239 0.32028 0.62321 0.0
C2342 C 0.63396 0.39304 0.63864 0.0
C2343 C 0.58037 0.32341 0.62624 0.0
C2344 C 0.55832 0.3876 0.66377 0.0
C2345 C 0.54658 0.39933 0.64685 0.0
C2346 C 0.57837 0.37441 0.65938 0.0
C2347 C 0.58679 0.37284 0.63753 0.0
C2348 C 0.57524 0.38491 0.62044 0.0
C2349 C 0.55532 0.39806 0.62531 0.0
C2350 C 0.59036 0.36188 0.67806 0.0
C2351 C 0.58366 0.38361 0.59693 0.0
H2352 H 0.66669 0.3607 0.62989 0.0
H2353 H 0.62149 0.30196 0.61954 0.0
H2354 H 0.62414 0.40426 0.62704 0.0
H2355 H 0.62731 0.39679 0.65541 0.0
H2356 H 0.65266 0.39796 0.63794 0.0
H2357 H 0.58094 0.30477 0.62137 0.0
H2358 H 0.57182 0.32476 0.64256 0.0
H2359 H 0.56932 0.33298 0.6143 0.0
H2360 H 0.55174 0.38855 0.68046 0.0
H2361 H 0.54638 0.40706 0.61211 0.0
H2362 H 0.60893 0.36715 0.6789 0.0
H2363 H 0.58995 0.34282 0.6751 0.0
H2364 H 0.58207 0.36551 0.69421 0.0
H2365 H 0.6021 0.3893 0.59592 0.0
H2366 H 0.5731 0.39459 0.58566 0.0
H2367 H 0.58294 0.36533 0.59107 0.0
C2368 C 0.0649 0.37246 0.37296 0.0
C2369 C 0.07552 0.39431 0.37541 0.0
C2370 C 0.07755 0.35181 0.37634 0.0
C2371 C 0.10131 0.35307 0.38252 0.0
C2372 C 0.11215 0.37505 0.38489 0.0
C2373 C 0.09918 0.39536 0.3812 0.0
C2374 C 0.0655 0.32865 0.37341 0.0
C2375 C 0.13739 0.37714 0.39162 0.0
C2376 C 0.12902 0.30163 0.41194 0.0
C2377 C 0.14208 0.2914 0.39502 0.0
C2378 C 0.11556 0.32164 0.40807 0.0
C2379 C 0.1149 0.33145 0.3867 0.0
C2380 C 0.12786 0.32105 0.3695 0.0
C2381 C 0.14141 0.30125 0.3739 0.0
C2382 C 0.10224 0.33244 0.42691 0.0
C2383 C 0.12744 0.33087 0.34646 0.0
H2384 H 0.04666 0.37147 0.36844 0.0
H2385 H 0.10758 0.41213 0.38324 0.0
H2386 H 0.07493 0.31798 0.36108 0.0
H2387 H 0.06574 0.31885 0.38914 0.0
H2388 H 0.04712 0.33063 0.368 0.0
H2389 H 0.14322 0.39555 0.39274 0.0
H2390 H 0.14009 0.36872 0.40785 0.0
H2391 H 0.14864 0.36793 0.3796 0.0
H2392 H 0.12948 0.29414 0.4283 0.0
H2393 H 0.15131 0.29335 0.36068 0.0
H2394 H 0.08342 0.33326 0.42285 0.0
H2395 H 0.10826 0.35058 0.42959 0.0
H2396 H 0.1044 0.32256 0.44249 0.0
H2397 H 0.10924 0.33179 0.34037 0.0
H2398 H 0.13785 0.32025 0.33477 0.0
H2399 H 0.13441 0.34888 0.3465 0.0
C2400 C 0.42549 0.41212 0.12564 0.0
C2401 C 0.44551 0.40613 0.13749 0.0
C2402 C 0.40769 0.39575 0.12217 0.0
C2403 C 0.40965 0.37321 0.1315 0.0
C2404 C 0.42975 0.36725 0.14376 0.0
C2405 C 0.44765 0.38367 0.14625 0.0
C2406 C 0.38684 0.40253 0.10845 0.0
C2407 C 0.43213 0.34372 0.15464 0.0
C2408 C 0.35259 0.34177 0.14148 0.0
C2409 C 0.35251 0.32522 0.12456 0.0
C2410 C 0.37141 0.357 0.14429 0.0
C2411 C 0.39021 0.35624 0.12926 0.0
C2412 C 0.39021 0.33952 0.11208 0.0
C2413 C 0.37148 0.32385 0.11017 0.0
C2414 C 0.3711 0.37397 0.16329 0.0
C2415 C 0.40962 0.33866 0.09536 0.0
H2416 H 0.42405 0.42941 0.1186 0.0
H2417 H 0.46318 0.37911 0.15545 0.0
H2418 H 0.38424 0.38969 0.09502 0.0
H2419 H 0.3709 0.40235 0.11873 0.0
H2420 H 0.38875 0.42013 0.10108 0.0
H2421 H 0.44879 0.34192 0.16378 0.0
H2422 H 0.41751 0.34099 0.1663 0.0
H2423 H 0.43114 0.3297 0.14214 0.0
H2424 H 0.33792 0.34266 0.15269 0.0
H2425 H 0.37123 0.31115 0.09697 0.0
H2426 H 0.37048 0.39208 0.15698 0.0
H2427 H 0.3873 0.37222 0.17311 0.0
H2428 H 0.35592 0.37123 0.17432 0.0
H2429 H 0.41084 0.35564 0.08672 0.0
H2430 H 0.40696 0.32471 0.08295 0.0
H2431 H 0.42655 0.33569 0.10369 0.0
C2432 C 0.36286 0.69795 0.89838 0.0
C2433 C 0.34234 0.699 0.88594 0.0
C2434 C 0.37821 0.67904 0.89631 0.0
C2435 C 0.37329 0.66122 0.88087 0.0
C2436 C 0.35277 0.66247 0.86798 0.0
C2437 C 0.33733 0.68117 0.87095 0.0
C2438 C 0.3995 0.67796 0.91087 0.0
C2439 C 0.34724 0.64418 0.85091 0.0
C2440 C 0.42374 0.62279 0.86262 0.0
C2441 C 0.41921 0.60226 0.8743 0.0
C2442 C 0.40873 0.64205 0.86432 0.0
C2443 C 0.38927 0.64095 0.87863 0.0
C2444 C 0.38498 0.62039 0.89082 0.0
C2445 C 0.39978 0.60117 0.88822 0.0
C2446 C 0.41348 0.66343 0.85058 0.0
C2447 C 0.36486 0.61875 0.90675 0.0
H2448 H 0.36669 0.71174 0.91002 0.0
H2449 H 0.3216 0.68215 0.86111 0.0
H2450 H 0.3993 0.66162 0.92062 0.0
H2451 H 0.41549 0.6777 0.90065 0.0
H2452 H 0.40053 0.69296 0.92237 0.0
H2453 H 0.33123 0.64836 0.84144 0.0
H2454 H 0.362 0.64244 0.83924 0.0
H2455 H 0.34485 0.62701 0.85895 0.0
H2456 H 0.43869 0.62357 0.85176 0.0
H2457 H 0.3964 0.58537 0.89746 0.0
H2458 H 0.41637 0.67872 0.86139 0.0
H2459 H 0.39812 0.66738 0.84014 0.0
H2460 H 0.42894 0.66125 0.8398 0.0
H2461 H 0.36594 0.63306 0.91898 0.0
H2462 H 0.36454 0.60187 0.91567 0.0
H2463 H 0.34814 0.62081 0.89783 0.0
C2464 C 0.12627 0.67682 0.61532 0.0
C2465 C 0.14641 0.67338 0.6279 0.0
C2466 C 0.10747 0.66117 0.61677 0.0
C2467 C 0.10867 0.64218 0.63165 0.0
C2468 C 0.12868 0.63923 0.64495 0.0
C2469 C 0.14743 0.65464 0.64265 0.0
C2470 C 0.08667 0.66452 0.60193 0.0
C2471 C 0.13038 0.61969 0.66151 0.0
C2472 C 0.05257 0.61247 0.64925 0.0
C2473 C 0.05356 0.59162 0.63729 0.0
C2474 C 0.07041 0.62908 0.64762 0.0
C2475 C 0.08928 0.62506 0.63313 0.0
C2476 C 0.09012 0.60418 0.62071 0.0
C2477 C 0.07241 0.58752 0.62321 0.0
C2478 C 0.06926 0.65075 0.66167 0.0
C2479 C 0.10966 0.59951 0.60468 0.0
H2480 H 0.12558 0.69121 0.6038 0.0
H2481 H 0.16295 0.65211 0.65254 0.0
H2482 H 0.0845 0.64901 0.59122 0.0
H2483 H 0.07057 0.66618 0.61187 0.0
H2484 H 0.08838 0.6802 0.59134 0.0
H2485 H 0.14652 0.62073 0.67154 0.0
H2486 H 0.11514 0.62008 0.67272 0.0
H2487 H 0.13014 0.60265 0.6529 0.0
H2488 H 0.03798 0.61561 0.66017 0.0
H2489 H 0.07299 0.57155 0.61371 0.0
H2490 H 0.06934 0.66649 0.65111 0.0
H2491 H 0.08487 0.65172 0.6724 0.0
H2492 H 0.05347 0.65118 0.67221 0.0
H2493 H 0.11118 0.61416 0.59286 0.0
H2494 H 0.10699 0.58312 0.5953 0.0
H2495 H 0.12644 0.59828 0.61363 0.0
C2496 C 0.1036 0.60082 0.12752 0.0
C2497 C 0.08035 0.60389 0.13407 0.0
C2498 C 0.11824 0.62 0.12382 0.0
C2499 C 0.1095 0.64281 0.12689 0.0
C2500 C 0.08626 0.64604 0.13405 0.0
C2501 C 0.07194 0.62656 0.13748 0.0
C2502 C 0.14289 0.61586 0.11611 0.0
C2503 C 0.07638 0.67011 0.13771 0.0
C2504 C 0.15197 0.69298 0.13413 0.0
C2505 C 0.15149 0.70336 0.11323 0.0
C2506 C 0.13854 0.67315 0.13877 0.0
C2507 C 0.12445 0.66335 0.12207 0.0
C2508 C 0.12427 0.67343 0.10081 0.0
C2509 C 0.13772 0.69338 0.09667 0.0
C2510 C 0.1391 0.66296 0.16167 0.0
C2511 C 0.10963 0.66333 0.0825 0.0
H2512 H 0.11027 0.5834 0.12477 0.0
H2513 H 0.05405 0.62913 0.14261 0.0
H2514 H 0.14537 0.6237 0.09959 0.0
H2515 H 0.15539 0.62447 0.1274 0.0
H2516 H 0.14725 0.59704 0.11516 0.0
H2517 H 0.05829 0.66962 0.14416 0.0
H2518 H 0.08744 0.67989 0.1495 0.0
H2519 H 0.07642 0.67995 0.12201 0.0
H2520 H 0.16252 0.70059 0.14705 0.0
H2521 H 0.13731 0.70123 0.08046 0.0
H2522 H 0.14424 0.64435 0.16098 0.0
H2523 H 0.12144 0.66371 0.16904 0.0
H2524 H 0.15139 0.67233 0.17267 0.0
H2525 H 0.11413 0.64473 0.07996 0.0
H2526 H 0.11204 0.67275 0.0667 0.0
H2527 H 0.09094 0.66407 0.08707 0.0
C2528 C 0.05136 0.39296 0.88284 0.0
C2529 C 0.04198 0.39417 0.86154 0.0
C2530 C 0.07085 0.37904 0.8874 0.0
C2531 C 0.08141 0.36621 0.87021 0.0
C2532 C 0.07216 0.3675 0.84864 0.0
C2533 C 0.05248 0.38137 0.84458 0.0
C2534 C 0.08011 0.37799 0.91064 0.0
C2535 C 0.08313 0.35429 0.82982 0.0
C2536 C 0.14454 0.34787 0.87663 0.0
C2537 C 0.14242 0.32414 0.88188 0.0
C2538 C 0.12484 0.36176 0.87294 0.0
C2539 C 0.1024 0.35177 0.87468 0.0
C2540 C 0.10006 0.32797 0.88039 0.0
C2541 C 0.1201 0.31441 0.88385 0.0
C2542 C 0.12807 0.38705 0.86679 0.0
C2543 C 0.07638 0.31677 0.8826 0.0
H2544 H 0.04329 0.4027 0.89608 0.0
H2545 H 0.04538 0.38225 0.82808 0.0
H2546 H 0.0801 0.35971 0.91656 0.0
H2547 H 0.0984 0.38418 0.91106 0.0
H2548 H 0.06967 0.38874 0.92221 0.0
H2549 H 0.07387 0.35719 0.81401 0.0
H2550 H 0.10155 0.35971 0.82782 0.0
H2551 H 0.08313 0.33536 0.83345 0.0
H2552 H 0.16168 0.3556 0.87499 0.0
H2553 H 0.11826 0.29612 0.88792 0.0
H2554 H 0.11881 0.39838 0.8787 0.0
H2555 H 0.12036 0.39036 0.85035 0.0
H2556 H 0.1467 0.39223 0.86641 0.0
H2557 H 0.06574 0.32645 0.89478 0.0
H2558 H 0.07752 0.29827 0.88784 0.0
H2559 H 0.06705 0.31758 0.86664 0.0
C2560 C 0.40108 0.39553 0.62333 0.0
C2561 C 0.42411 0.39394 0.63099 0.0
C2562 C 0.38764 0.37552 0.61959 0.0
C2563 C 0.39731 0.35332 0.62386 0.0
C2564 C 0.4204 0.35154 0.6319 0.0
C2565 C 0.4336 0.37187 0.63523 0.0
C2566 C 0.36318 0.37816 0.61078 0.0
C2567 C 0.43119 0.32815 0.63689 0.0
C2568 C 0.35469 0.30334 0.6317 0.0
C2569 C 0.35564 0.29224 0.61115 0.0
C2570 C 0.36844 0.323 0.63618 0.0
C2571 C 0.38325 0.33199 0.61962 0.0
C2572 C 0.38415 0.32098 0.59879 0.0
C2573 C 0.37045 0.30115 0.59485 0.0
C2574 C 0.36715 0.33413 0.65866 0.0
C2575 C 0.39947 0.33025 0.5806 0.0
H2576 H 0.3936 0.41246 0.61986 0.0
H2577 H 0.45133 0.37048 0.64121 0.0
H2578 H 0.36157 0.36893 0.59481 0.0
H2579 H 0.35055 0.37008 0.62227 0.0
H2580 H 0.35824 0.39669 0.60833 0.0
H2581 H 0.4491 0.32977 0.64364 0.0
H2582 H 0.42028 0.31859 0.64894 0.0
H2583 H 0.4319 0.31746 0.62171 0.0
H2584 H 0.34341 0.29648 0.64444 0.0
H2585 H 0.37125 0.2927 0.57892 0.0
H2586 H 0.36099 0.35237 0.65717 0.0
H2587 H 0.38474 0.3347 0.6662 0.0
H2588 H 0.35525 0.32462 0.66993 0.0
H2589 H 0.39448 0.34845 0.57667 0.0
H2590 H 0.39821 0.31966 0.56535 0.0
H2591 H 0.4179 0.33054 0.58606 0.0
C2592 C 0.37194 0.67059 0.39858 0.0
C2593 C 0.35114 0.66764 0.38686 0.0
C2594 C 0.39013 0.65433 0.39668 0.0
C2595 C 0.38769 0.63515 0.38217 0.0
C2596 C 0.36677 0.63226 0.37016 0.0
C2597 C 0.34863 0.64834 0.37291 0.0
C2598 C 0.41193 0.65763 0.41022 0.0
C2599 C 0.36374 0.61247 0.35403 0.0
C2600 C 0.4433 0.6073 0.36095 0.0
C2601 C 0.44412 0.58662 0.37315 0.0
C2602 C 0.42483 0.62306 0.36347 0.0
C2603 C 0.40718 0.61838 0.37913 0.0
C2604 C 0.40805 0.59758 0.39165 0.0
C2605 C 0.42635 0.58174 0.38824 0.0
C2606 C 0.42415 0.64467 0.34932 0.0
C2607 C 0.38991 0.59228 0.40891 0.0
H2608 H 0.37385 0.68542 0.40948 0.0
H2609 H 0.33264 0.64615 0.36364 0.0
H2610 H 0.41551 0.64169 0.41998 0.0
H2611 H 0.42709 0.66043 0.39924 0.0
H2612 H 0.41056 0.67269 0.42163 0.0
H2613 H 0.34649 0.61288 0.34576 0.0
H2614 H 0.37753 0.6133 0.34127 0.0
H2615 H 0.36562 0.59553 0.3626 0.0
H2616 H 0.45704 0.61102 0.34923 0.0
H2617 H 0.42716 0.56589 0.39791 0.0
H2618 H 0.42504 0.66044 0.35982 0.0
H2619 H 0.40746 0.64543 0.34014 0.0
H2620 H 0.43873 0.64526 0.33732 0.0
H2621 H 0.38926 0.60662 0.42114 0.0
H2622 H 0.39347 0.57569 0.41769 0.0
H2623 H 0.37244 0.59114 0.40121 0.0
C2624 C 0.27827 0.2604 0.04327 0.0
C2625 C 0.26899 0.277 0.05781 0.0
C2626 C 0.27017 0.2586 0.02146 0.0
C2627 C 0.25225 0.27363 0.01402 0.0
C2628 C 0.24238 0.28995 0.0288 0.0
C2629 C 0.2509 0.29149 0.05041 0.0
C2630 C 0.28124 0.24106 0.00621 0.0
C2631 C 0.22314 0.30621 0.02163 0.0
C2632 C 0.24711 0.28975 0.95355 0.0
C2633 C 0.22807 0.27624 0.94665 0.0
C2634 C 0.25558 0.28847 0.97519 0.0
C2635 C 0.24469 0.27341 0.99049 0.0
C2636 C 0.22586 0.25924 0.98353 0.0
C2637 C 0.21783 0.26075 0.96167 0.0
C2638 C 0.27582 0.30374 0.98181 0.0
C2639 C 0.21373 0.24303 0.99935 0.0
H2640 H 0.29223 0.24912 0.04877 0.0
H2641 H 0.24346 0.30428 0.06147 0.0
H2642 H 0.26768 0.22992 0.99858 0.0
H2643 H 0.29035 0.25028 0.99268 0.0
H2644 H 0.29398 0.22972 0.01483 0.0
H2645 H 0.21637 0.31692 0.03545 0.0
H2646 H 0.22969 0.31807 0.00863 0.0
H2647 H 0.2085 0.29613 0.01447 0.0
H2648 H 0.25533 0.30162 0.94208 0.0
H2649 H 0.20312 0.25024 0.95654 0.0
H2650 H 0.2898 0.29304 0.98932 0.0
H2651 H 0.27006 0.3165 0.99439 0.0
H2652 H 0.28324 0.31346 0.96764 0.0
H2653 H 0.22657 0.23144 0.00747 0.0
H2654 H 0.20037 0.2321 0.99109 0.0
H2655 H 0.20512 0.25333 0.01248 0.0
C2656 C 0.95601 0.99403 0.20478 0.0
C2657 C 0.97054 0.97578 0.19784 0.0
C2658 C 0.95743 0.00305 0.22621 0.0
C2659 C 0.97364 0.99351 0.24127 0.0
C2660 C 0.98873 0.97544 0.23428 0.0
C2661 C 0.98708 0.96685 0.21263 0.0
C2662 C 0.94112 0.02244 0.23289 0.0
C2663 C 0.00616 0.96471 0.24986 0.0
C2664 C 0.98587 0.02903 0.29309 0.0
C2665 C 0.97018 0.0191 0.30811 0.0
C2666 C 0.98767 0.02053 0.27142 0.0
C2667 C 0.97362 0.00152 0.26466 0.0
C2668 C 0.95836 0.99095 0.27999 0.0
C2669 C 0.95677 -0.00011 0.30142 0.0
C2670 C 0.00406 0.03235 0.25555 0.0
C2671 C 0.94322 0.97053 0.27358 0.0
H2672 H 0.94329 0.00123 0.1935 0.0
H2673 H 0.99839 0.95277 0.20747 0.0
H2674 H 0.92911 0.01616 0.24589 0.0
H2675 H 0.95113 0.03722 0.23988 0.0
H2676 H 0.93056 0.02895 0.21886 0.0
H2677 H 0.01763 0.95185 0.24155 0.0
H2678 H 0.01718 0.97845 0.25738 0.0
H2679 H 0.99684 0.9558 0.26345 0.0
H2680 H 0.9963 0.04385 0.29807 0.0
H2681 H 0.94476 0.99191 0.31293 0.0
H2682 H 0.99391 0.04072 0.24218 0.0
H2683 H 0.01573 0.01935 0.24777 0.0
H2684 H 0.0149 0.04586 0.2637 0.0
H2685 H 0.93055 0.97602 0.26081 0.0
H2686 H 0.9334 0.96335 0.28779 0.0
H2687 H 0.95402 0.95644 0.26639 0.0
C2688 C 0.24604 0.70663 0.55257 0.0
C2689 C 0.22888 0.72185 0.56062 0.0
C2690 C 0.25429 0.70835 0.53089 0.0
C2691 C 0.24513 0.72563 0.51671 0.0
C2692 C 0.22815 0.74137 0.52479 0.0
C2693 C 0.22026 0.73933 0.54664 0.0
C2694 C 0.27248 0.69126 0.52303 0.0
C2695 C 0.21791 0.75999 0.51018 0.0
C2696 C 0.28031 0.73776 0.46473 0.0
C2697 C 0.26923 0.72323 0.44936 0.0
C2698 C 0.27221 0.73937 0.48655 0.0
C2699 C 0.25251 0.72624 0.49315 0.0
C2700 C 0.24074 0.71229 0.47749 0.0
C2701 C 0.24924 0.71093 0.45588 0.0
C2702 C 0.28526 0.75444 0.50274 0.0
C2703 C 0.2196 0.69811 0.48374 0.0
H2704 H 0.25295 0.69312 0.56316 0.0
H2705 H 0.20703 0.75119 0.55265 0.0
H2706 H 0.26516 0.68032 0.50966 0.0
H2707 H 0.28765 0.70073 0.51613 0.0
H2708 H 0.27869 0.67963 0.5364 0.0
H2709 H 0.20587 0.7717 0.51926 0.0
H2710 H 0.23199 0.77064 0.50278 0.0
H2711 H 0.2082 0.75175 0.49645 0.0
H2712 H 0.29573 0.74736 0.45991 0.0
H2713 H 0.24036 0.69984 0.44415 0.0
H2714 H 0.29352 0.74329 0.51544 0.0
H2715 H 0.27307 0.76633 0.51135 0.0
H2716 H 0.29903 0.76501 0.49467 0.0
H2717 H 0.22462 0.68455 0.49585 0.0
H2718 H 0.2115 0.68941 0.46931 0.0
H2719 H 0.20637 0.70938 0.49171 0.0
C2720 C 0.5405 0.00153 0.8002 0.0
C2721 C 0.52684 0.98257 0.80703 0.0
C2722 C 0.53932 0.01001 0.77856 0.0
C2723 C 0.52423 0.9992 0.76322 0.0
C2724 C 0.5098 0.98058 0.77016 0.0
C2725 C 0.51121 0.97254 0.792 0.0
C2726 C 0.55484 0.03006 0.77195 0.0
C2727 C 0.49355 0.96854 0.7543 0.0
C2728 C 0.5123 0.03193 0.70977 0.0
C2729 C 0.52892 0.02211 0.69559 0.0
C2730 C 0.51017 0.02434 0.73171 0.0
C2731 C 0.52489 0.00639 0.73962 0.0
C2732 C 0.54123 0.99599 0.72521 0.0
C2733 C 0.5431 0.00402 0.70347 0.0
C2734 C 0.49261 0.03594 0.74658 0.0
C2735 C 0.55716 0.97669 0.73289 0.0
H2736 H 0.55248 0.00958 0.8117 0.0
H2737 H 0.50058 0.9579 0.79709 0.0
H2738 H 0.56783 0.02399 0.75971 0.0
H2739 H 0.5444 0.04398 0.76401 0.0
H2740 H 0.56429 0.03765 0.78619 0.0
H2741 H 0.48219 0.95559 0.76262 0.0
H2742 H 0.48239 0.98149 0.7458 0.0
H2743 H 0.50385 0.95943 0.74147 0.0
H2744 H 0.50125 0.04592 0.7039 0.0
H2745 H 0.55592 0.99618 0.69269 0.0
H2746 H 0.50179 0.04516 0.76008 0.0
H2747 H 0.48117 0.02268 0.75428 0.0
H2748 H 0.48157 0.04869 0.73763 0.0
H2749 H 0.56888 0.98331 0.74598 0.0
H2750 H 0.56802 0.96958 0.71933 0.0
H2751 H 0.5468 0.96228 0.74008 0.0
C2752 C 0.7481 0.70652 0.05195 0.0
C2753 C 0.76685 0.72025 0.05916 0.0
C2754 C 0.73944 0.70839 0.03042 0.0
C2755 C 0.74981 0.7243 0.01556 0.0
C2756 C 0.76824 0.73877 0.0229 0.0
C2757 C 0.7765 0.73662 0.04461 0.0
C2758 C 0.71966 0.69274 0.02336 0.0
C2759 C 0.77981 0.75591 0.00757 0.0
C2760 C 0.74503 0.70747 0.95529 0.0
C2761 C 0.72645 0.72136 0.94797 0.0
C2762 C 0.7532 0.70882 0.977 0.0
C2763 C 0.74251 0.72438 0.99197 0.0
C2764 C 0.72415 0.73893 0.98461 0.0
C2765 C 0.71638 0.7373 0.96267 0.0
C2766 C 0.77293 0.6931 0.98406 0.0
C2767 C 0.71227 0.75571 1.00007 0.0
H2768 H 0.74033 0.69397 0.06307 0.0
H2769 H 0.79096 0.74734 0.04998 0.0
H2770 H 0.70546 0.70321 0.0159 0.0
H2771 H 0.72588 0.68039 0.01061 0.0
H2772 H 0.71238 0.68255 0.03729 0.0
H2773 H 0.79257 0.7672 0.01623 0.0
H2774 H 0.78903 0.74633 0.99433 0.0
H2775 H 0.76656 0.76712 0.99956 0.0
H2776 H 0.75312 0.69524 0.94408 0.0
H2777 H 0.70202 0.74812 0.95722 0.0
H2778 H 0.76668 0.68076 0.99681 0.0
H2779 H 0.78715 0.70354 0.99152 0.0
H2780 H 0.7802 0.6829 0.97013 0.0
H2781 H 0.70317 0.74586 0.01321 0.0
H2782 H 0.69935 0.7669 0.99149 0.0
H2783 H 0.72533 0.76704 0.00821 0.0
C2784 C 0.01003 0.02794 0.79445 0.0
C2785 C 0.0255 0.01711 0.80913 0.0
C2786 C 0.00812 0.0204 0.77246 0.0
C2787 C 0.02191 0.00152 0.765 0.0
C2788 C 0.03688 0.99 0.77997 0.0
C2789 C 0.03849 0.99792 0.80176 0.0
C2790 C 0.99194 0.03315 0.75704 0.0
C2791 C 0.0518 0.9697 0.77279 0.0
C2792 C 0.0088 0.96947 0.71139 0.0
C2793 C 0.02552 0.97902 0.69715 0.0
C2794 C 0.0069 0.97707 0.73335 0.0
C2795 C 0.02202 0.9947 0.74127 0.0
C2796 C 0.0384 0.0049 0.72678 0.0
C2797 C 0.03996 0.99695 0.70499 0.0
C2798 C 0.9892 0.96575 0.74827 0.0
C2799 C 0.0548 0.0238 0.73446 0.0
H2800 H -0.00013 0.04275 0.79993 0.0
H2801 H 0.05021 0.98916 0.81299 0.0
H2802 H 0.00226 0.04221 0.74421 0.0
H2803 H 0.98031 0.02064 0.7485 0.0
H2804 H 0.98106 0.04623 0.76574 0.0
H2805 H 0.06149 0.96177 0.78673 0.0
H2806 H 0.04085 0.95608 0.76501 0.0
H2807 H 0.06457 0.97561 0.76029 0.0
H2808 H 0.99752 0.95565 0.70555 0.0
H2809 H 0.05283 0.00462 0.69416 0.0
H2810 H 0.97834 0.97921 0.7564 0.0
H2811 H 0.99829 0.95594 0.76144 0.0
H2812 H 0.9776 0.95356 0.73924 0.0
H2813 H 0.04484 0.03832 0.74197 0.0
H2814 H 0.06559 0.03088 0.72084 0.0
H2815 H 0.0666 0.01678 0.74731 0.0
C2816 C 0.74976 0.2911 0.55237 0.0
C2817 C 0.73006 0.27863 0.55932 0.0
C2818 C 0.75782 0.28966 0.53063 0.0
C2819 C 0.74592 0.27539 0.51531 0.0
C2820 C 0.7265 0.26212 0.52235 0.0
C2821 C 0.71882 0.26386 0.54428 0.0
C2822 C 0.7787 0.30399 0.5239 0.0
C2823 C 0.71337 0.24667 0.50653 0.0
C2824 C 0.75231 0.29417 0.4557 0.0
C2825 C 0.76993 0.27926 0.44806 0.0
C2826 C 0.7438 0.29252 0.47728 0.0
C2827 C 0.75311 0.27556 0.49172 0.0
C2828 C 0.77035 0.25995 0.48396 0.0
C2829 C 0.77854 0.26196 0.46222 0.0
C2830 C 0.72533 0.30946 0.48484 0.0
C2831 C 0.78071 0.24162 0.49883 0.0
H2832 H 0.75881 0.30229 0.56388 0.0
H2833 H 0.70361 0.25412 0.54946 0.0
H2834 H 0.79207 0.29269 0.5162 0.0
H2835 H 0.77341 0.31709 0.51144 0.0
H2836 H 0.78672 0.31326 0.53804 0.0
H2837 H 0.69976 0.23617 0.5149 0.0
H2838 H 0.70491 0.25753 0.49372 0.0
H2839 H 0.72556 0.23471 0.498 0.0
H2840 H 0.74538 0.30751 0.44491 0.0
H2841 H 0.79209 0.2503 0.45652 0.0
H2842 H 0.73255 0.32089 0.49789 0.0
H2843 H 0.71038 0.29992 0.49207 0.0
H2844 H 0.71883 0.3206 0.47122 0.0
H2845 H 0.79066 0.25014 0.51225 0.0
H2846 H 0.79257 0.22965 0.48985 0.0
H2847 H 0.7667 0.23119 0.50664 0.0
C2848 C 0.48997 0.97022 0.29344 0.0
C2849 C 0.47308 0.9797 0.30756 0.0
C2850 C 0.49232 0.97814 0.27161 0.0
C2851 C 0.47746 0.99598 0.2637 0.0
C2852 C 0.46093 0.00611 0.27807 0.0
C2853 C 0.45894 0.99786 0.29972 0.0
C2854 C 0.51019 0.96691 0.25682 0.0
C2855 C 0.44476 0.0252 0.27038 0.0
C2856 C 0.48996 0.03003 0.21111 0.0
C2857 C 0.47452 0.01951 0.1962 0.0
C2858 C 0.49178 0.02206 0.23296 0.0
C2859 C 0.47791 0.00307 0.24005 0.0
C2860 C 0.46301 0.99183 0.22483 0.0
C2861 C 0.46151 0.00016 0.20317 0.0
C2862 C 0.5079 0.0345 0.24867 0.0
C2863 C 0.44799 0.97145 0.2316 0.0
H2864 H 0.50104 0.95623 0.29927 0.0
H2865 H 0.44591 0.00547 0.31038 0.0
H2866 H 0.50126 0.95721 0.24348 0.0
H2867 H 0.52118 0.98042 0.24891 0.0
H2868 H 0.52166 0.95464 0.2659 0.0
H2869 H 0.43384 0.03221 0.28393 0.0
H2870 H 0.45491 0.03973 0.26313 0.0
H2871 H 0.43309 0.01839 0.25732 0.0
H2872 H 0.50015 0.04494 0.20592 0.0
H2873 H 0.44983 0.99162 0.19175 0.0
H2874 H 0.51931 0.0218 0.25722 0.0
H2875 H 0.49751 0.04354 0.26146 0.0
H2876 H 0.519 0.04756 0.2402 0.0
H2877 H 0.45883 0.95772 0.23933 0.0
H2878 H 0.43846 0.96371 0.21746 0.0
H2879 H 0.43508 0.97722 0.24403 0.0
C2880 C 0.75088 0.79045 0.55132 0.0
C2881 C 0.76871 0.77581 0.55895 0.0
C2882 C 0.74242 0.78872 0.52971 0.0
C2883 C 0.75209 0.77202 0.5152 0.0
C2884 C 0.76966 0.75676 0.52292 0.0
C2885 C 0.77772 0.75877 0.54472 0.0
C2886 C 0.72356 0.80526 0.52222 0.0
C2887 C 0.78049 0.73879 0.50796 0.0
C2888 C 0.7181 0.75982 0.46249 0.0
C2889 C 0.7289 0.77508 0.44761 0.0
C2890 C 0.72584 0.7581 0.48443 0.0
C2891 C 0.74491 0.77182 0.49159 0.0
C2892 C 0.75639 0.78656 0.47641 0.0
C2893 C 0.74823 0.78806 0.45471 0.0
C2894 C 0.7131 0.7422 0.50012 0.0
C2895 C 0.77691 0.80136 0.48326 0.0
H2896 H 0.74363 0.80355 0.56217 0.0
H2897 H 0.79147 0.74734 0.55042 0.0
H2898 H 0.73049 0.81694 0.50925 0.0
H2899 H 0.70884 0.79539 0.51493 0.0
H2900 H 0.71678 0.81616 0.5359 0.0
H2901 H 0.79272 0.72713 0.51686 0.0
H2902 H 0.76676 0.72801 0.50014 0.0
H2903 H 0.79015 0.74765 0.49455 0.0
H2904 H 0.70316 0.74973 0.4572 0.0
H2905 H 0.75688 0.79974 0.44333 0.0
H2906 H 0.70437 0.75275 0.51299 0.0
H2907 H 0.72558 0.73048 0.50857 0.0
H2908 H 0.69976 0.73143 0.49166 0.0
H2909 H 0.77125 0.81435 0.49568 0.0
H2910 H 0.78481 0.81079 0.46916 0.0
H2911 H 0.79049 0.79037 0.49105 0.0
C2912 C 0.45716 0.49852 0.80308 0.0
C2913 C 0.46965 0.51823 0.81001 0.0
C2914 C 0.45867 0.49033 0.78137 0.0
C2915 C 0.47298 0.50214 0.76603 0.0
C2916 C 0.48623 0.52161 0.77304 0.0
C2917 C 0.48447 0.52938 0.79495 0.0
C2918 C 0.44438 0.4694 0.77469 0.0
C2919 C 0.50167 0.53469 0.7572 0.0
C2920 C 0.487 0.46996 0.71272 0.0
C2921 C 0.46987 0.4787 0.69844 0.0
C2922 C 0.48864 0.47781 0.73462 0.0
C2923 C 0.47285 0.49488 0.74242 0.0
C2924 C 0.45595 0.5042 0.72792 0.0
C2925 C 0.45463 0.49598 0.7062 0.0
C2926 C 0.50686 0.46739 0.74957 0.0
C2927 C 0.43885 0.52251 0.73549 0.0
H2928 H 0.44594 0.48954 0.81461 0.0
H2929 H 0.49421 0.54461 0.8001 0.0
H2930 H 0.43124 0.47464 0.76225 0.0
H2931 H 0.4557 0.45605 0.76697 0.0
H2932 H 0.43518 0.46137 0.78886 0.0
H2933 H 0.51208 0.54842 0.76553 0.0
H2934 H 0.51372 0.52251 0.74879 0.0
H2935 H 0.49082 0.54302 0.74431 0.0
H2936 H 0.49888 0.45663 0.70694 0.0
H2937 H 0.44141 0.50299 0.69535 0.0
H2938 H 0.49825 0.45765 0.76307 0.0
H2939 H 0.51742 0.48137 0.75726 0.0
H2940 H 0.51871 0.45533 0.74068 0.0
H2941 H 0.42751 0.51522 0.74856 0.0
H2942 H 0.42762 0.5289 0.72188 0.0
H2943 H 0.44828 0.53756 0.74268 0.0
C2944 C 0.72092 0.23821 0.04512 0.0
C2945 C 0.73141 0.22203 0.05933 0.0
C2946 C 0.72818 0.24032 0.02308 0.0
C2947 C 0.74644 0.22601 0.01511 0.0
C2948 C 0.75756 0.21021 0.02958 0.0
C2949 C 0.7499 0.20839 0.05143 0.0
C2950 C 0.71587 0.25734 0.00816 0.0
C2951 C 0.77718 0.19473 0.02184 0.0
C2952 C 0.75066 0.20925 0.95481 0.0
C2953 C 0.76925 0.22311 0.94748 0.0
C2954 C 0.74246 0.21074 0.97651 0.0
C2955 C 0.75315 0.22642 0.9914 0.0
C2956 C 0.77134 0.24109 0.98394 0.0
C2957 C 0.77914 0.23931 0.96205 0.0
C2958 C 0.72291 0.19489 0.98372 0.0
C2959 C 0.78319 0.25802 0.9993 0.0
H2960 H 0.70664 0.24884 0.05103 0.0
H2961 H 0.75829 0.19599 0.06226 0.0
H2962 H 0.72869 0.26886 0.99993 0.0
H2963 H 0.70648 0.2477 0.99506 0.0
H2964 H 0.70314 0.26832 0.0172 0.0
H2965 H 0.78483 0.18429 0.03544 0.0
H2966 H 0.77069 0.18262 0.00901 0.0
H2967 H 0.79118 0.20539 0.01429 0.0
H2968 H 0.74271 0.19682 0.94367 0.0
H2969 H 0.79348 0.25014 0.95658 0.0
H2970 H 0.70888 0.20516 0.99168 0.0
H2971 H 0.7295 0.1823 0.99609 0.0
H2972 H 0.7153 0.18497 0.96977 0.0
H2973 H 0.77008 0.26895 0.00784 0.0
H2974 H 0.79561 0.2696 0.99054 0.0
H2975 H 0.79287 0.24825 0.01212 0.0
C2976 C 0.04482 0.49723 0.30095 0.0
C2977 C 0.0297 0.47995 0.30892 0.0
C2978 C 0.04297 0.50566 0.27934 0.0
C2979 C 0.02568 0.49652 0.26515 0.0
C2980 C 0.01001 0.47946 0.27318 0.0
C2981 C 0.01215 0.47142 0.29498 0.0
C2982 C 0.05996 0.52396 0.27153 0.0
C2983 C 0.99139 0.46921 0.25855 0.0
C2984 C 0.01337 0.53137 0.21297 0.0
C2985 C 0.02796 0.52027 0.19768 0.0
C2986 C 0.01185 0.52344 0.23485 0.0
C2987 C 0.0251 0.50386 0.24157 0.0
C2988 C 0.03912 0.49207 0.22599 0.0
C2989 C 0.04041 0.50043 0.20433 0.0
C2990 C 0.99673 0.53651 0.25097 0.0
C2991 C 0.05338 0.47102 0.23235 0.0
H2992 H 0.05834 0.50411 0.31157 0.0
H2993 H 0.00037 0.45809 0.30093 0.0
H2994 H 0.07102 0.5167 0.25823 0.0
H2995 H 0.05042 0.53906 0.26456 0.0
H2996 H 0.07147 0.53028 0.28496 0.0
H2997 H 0.97964 0.45722 0.26764 0.0
H2998 H 0.98079 0.48328 0.25107 0.0
H2999 H -0.00035 0.45942 0.24488 0.0
H3000 H 0.00367 0.5467 0.20804 0.0
H3001 H 0.05153 0.49154 0.19265 0.0
H3002 H 0.00785 0.54484 0.26367 0.0
H3003 H 0.98486 0.52432 0.25961 0.0
H3004 H 0.98615 0.55023 0.24284 0.0
H3005 H 0.06687 0.47614 0.2445 0.0
H3006 H 0.06218 0.46292 0.21798 0.0
H3007 H 0.04215 0.45774 0.2403 0.0
C3008 C 0.27859 0.23729 0.54357 0.0
C3009 C 0.2697 0.22037 0.55799 0.0
C3010 C 0.27037 0.23913 0.52181 0.0
C3011 C 0.25271 0.22382 0.51431 0.0
C3012 C 0.24318 0.20722 0.52899 0.0
C3013 C 0.25183 0.20564 0.55055 0.0
C3014 C 0.28108 0.25698 0.50665 0.0
C3015 C 0.22422 0.19066 0.52177 0.0
C3016 C 0.21811 0.23606 0.46193 0.0
C3017 C 0.22865 0.22074 0.44693 0.0
C3018 C 0.2261 0.23775 0.48379 0.0
C3019 C 0.2452 0.22396 0.49077 0.0
C3020 C 0.2564 0.20912 0.47547 0.0
C3021 C 0.24797 0.20765 0.45385 0.0
C3022 C 0.21362 0.25371 0.49961 0.0
C3023 C 0.27695 0.19426 0.4821 0.0
H3024 H 0.29239 0.24877 0.54911 0.0
H3025 H 0.24466 0.19262 0.56154 0.0
H3026 H 0.29048 0.24801 0.49314 0.0
H3027 H 0.2673 0.26781 0.49899 0.0
H3028 H 0.29351 0.2686 0.51535 0.0
H3029 H 0.2176 0.17982 0.53555 0.0
H3030 H 0.20942 0.20051 0.5146 0.0
H3031 H 0.23098 0.17893 0.50875 0.0
H3032 H 0.20318 0.24624 0.45679 0.0
H3033 H 0.25642 0.19594 0.44238 0.0
H3034 H 0.22624 0.26548 0.50783 0.0
H3035 H 0.20512 0.24322 0.51266 0.0
H3036 H 0.20013 0.26444 0.49131 0.0
H3037 H 0.29069 0.20524 0.48967 0.0
H3038 H 0.2846 0.18474 0.46793 0.0
H3039 H 0.27142 0.18136 0.49464 0.0
C3040 C 0.50983 0.52859 0.29441 0.0
C3041 C 0.52524 0.51787 0.30923 0.0
C3042 C 0.50785 0.52074 0.27253 0.0
C3043 C 0.52153 0.50168 0.2653 0.0
C3044 C 0.53644 0.49028 0.28041 0.0
C3045 C 0.53811 0.49849 0.30211 0.0
C3046 C 0.49172 0.53335 0.25696 0.0
C3047 C 0.55125 0.46981 0.27348 0.0
C3048 C 0.5083 0.46875 0.21224 0.0
C3049 C 0.52514 0.4779 0.19789 0.0
C3050 C 0.50636 0.47682 0.23404 0.0
C3051 C 0.52156 0.49451 0.24168 0.0
C3052 C 0.53799 0.50438 0.22703 0.0
C3053 C 0.53959 0.49597 0.2054 0.0
C3054 C 0.48859 0.46587 0.24912 0.0
C3055 C 0.55447 0.52335 0.23441 0.0
H3056 H 0.49977 0.54354 0.29971 0.0
H3057 H 0.54981 0.48983 0.31343 0.0
H3058 H 0.50209 0.54221 0.24403 0.0
H3059 H 0.48004 0.52078 0.24856 0.0
H3060 H 0.4809 0.54659 0.26551 0.0
H3061 H 0.56093 0.46203 0.2875 0.0
H3062 H 0.54021 0.45613 0.26589 0.0
H3063 H 0.56402 0.47547 0.26087 0.0
H3064 H 0.49701 0.45483 0.20664 0.0
H3065 H 0.55255 0.50334 0.19446 0.0
H3066 H 0.4779 0.47953 0.25715 0.0
H3067 H 0.49762 0.4561 0.26236 0.0
H3068 H 0.47683 0.4537 0.24025 0.0
H3069 H 0.54458 0.53799 0.24179 0.0
H3070 H 0.56521 0.53022 0.22067 0.0
H3071 H 0.5663 0.51647 0.2473 0.0
C3072 C 0.28273 0.76388 0.96402 0.0
C3073 C 0.27149 0.77857 0.94891 0.0
C3074 C 0.27501 0.7622 0.98596 0.0
C3075 C 0.25551 0.77541 0.99294 0.0
C3076 C 0.24362 0.7896 0.97756 0.0
C3077 C 0.25176 0.79104 0.95582 0.0
C3078 C 0.28819 0.74689 1.00185 0.0
C3079 C 0.22267 0.80386 0.98421 0.0
C3080 C 0.22354 0.76162 0.04639 0.0
C3081 C 0.23221 0.77892 0.06054 0.0
C3082 C 0.23135 0.75986 0.0245 0.0
C3083 C 0.24833 0.77567 0.01656 0.0
C3084 C 0.25762 0.79271 0.03094 0.0
C3085 C 0.24943 0.79416 0.05266 0.0
C3086 C 0.22095 0.7415 0.00968 0.0
C3087 C 0.27586 0.80982 0.02324 0.0
H3088 H 0.29797 0.75416 0.95889 0.0
H3089 H 0.24278 0.80229 0.9443 0.0
H3090 H 0.29652 0.75785 0.01466 0.0
H3091 H 0.27606 0.73485 0.01036 0.0
H3092 H 0.30191 0.73647 0.99354 0.0
H3093 H 0.21451 0.81288 0.96999 0.0
H3094 H 0.20941 0.79256 0.9921 0.0
H3095 H 0.22792 0.81716 0.99649 0.0
H3096 H 0.21025 0.74975 0.05227 0.0
H3097 H 0.25641 0.80749 0.06343 0.0
H3098 H 0.23494 0.73096 1.00199 0.0
H3099 H 0.21111 0.74999 0.99617 0.0
H3100 H 0.20898 0.72964 0.01867 0.0
H3101 H 0.29091 0.8004 0.01606 0.0
H3102 H 0.28224 0.82116 0.03677 0.0
H3103 H 0.2685 0.82106 0.01011 0.0
C3104 C 0.9872 0.52939 0.71336 0.0
C3105 C 0.97235 0.51872 0.69802 0.0
C3106 C 0.98839 0.52146 0.73525 0.0
C3107 C 0.97451 0.50233 0.74195 0.0
C3108 C 0.96013 0.49099 0.72635 0.0
C3109 C 0.95919 0.49934 0.70466 0.0
C3110 C 0.0039 0.53406 0.75139 0.0
C3111 C 0.94517 0.47042 0.73271 0.0
C3112 C 0.98703 0.46968 0.79533 0.0
C3113 C 0.96996 0.47883 0.80945 0.0
C3114 C 0.98909 0.47749 0.77346 0.0
C3115 C 0.97382 0.49496 0.76551 0.0
C3116 C 0.95696 0.50465 0.77984 0.0
C3117 C 0.95519 0.49644 0.80153 0.0
C3118 C 0.00722 0.46664 0.75869 0.0
C3119 C 0.94041 0.52339 0.77211 0.0
H3120 H 0.99745 0.54436 0.70844 0.0
H3121 H 0.94781 0.4908 0.69295 0.0
H3122 H 0.99306 0.54256 0.76419 0.0
H3123 H 0.01552 0.52152 0.75989 0.0
H3124 H 0.01478 0.54758 0.74331 0.0
H3125 H 0.93606 0.46266 0.71834 0.0
H3126 H 0.95598 0.45677 0.7406 0.0
H3127 H 0.93192 0.47597 0.74491 0.0
H3128 H 0.99854 0.45608 0.80122 0.0
H3129 H 0.94201 0.50376 0.81225 0.0
H3130 H 0.0183 0.48037 0.75126 0.0
H3131 H 0.99854 0.45727 0.74499 0.0
H3132 H 0.01857 0.45417 0.76765 0.0
H3133 H 0.95031 0.53824 0.76513 0.0
H3134 H 0.92913 0.52998 0.78559 0.0
H3135 H 0.92911 0.51644 0.75884 0.0
C3136 C 0.19187 0.36926 0.1313 0.0
C3137 C 0.21449 0.3785 0.13146 0.0
C3138 C 0.17236 0.38393 0.12966 0.0
C3139 C 0.17563 0.40833 0.12862 0.0
C3140 C 0.19839 0.41773 0.12919 0.0
C3141 C 0.21749 0.40271 0.13054 0.0
C3142 C 0.14829 0.37337 0.12908 0.0
C3143 C 0.20262 0.4437 0.12829 0.0
C3144 C 0.13286 0.45095 0.1041 0.0
C3145 C 0.12382 0.4615 0.12302 0.0
C3146 C 0.14846 0.43227 0.10567 0.0
C3147 C 0.15548 0.42436 0.12669 0.0
C3148 C 0.14548 0.43419 0.14585 0.0
C3149 C 0.12968 0.45269 0.14377 0.0
C3150 C 0.15852 0.42202 0.08487 0.0
C3151 C 0.15274 0.42641 0.16856 0.0
H3152 H 0.18929 0.3507 0.1329 0.0
H3153 H 0.23491 0.40999 0.13072 0.0
H3154 H 0.13796 0.37969 0.14329 0.0
H3155 H 0.13905 0.37895 0.11394 0.0
H3156 H 0.14875 0.35403 0.12953 0.0
H3157 H 0.2214 0.44817 0.12948 0.0
H3158 H 0.1957 0.45088 0.11266 0.0
H3159 H 0.19325 0.45247 0.14194 0.0
H3160 H 0.12822 0.45776 0.08805 0.0
H3161 H 0.12305 0.46114 0.15843 0.0
H3162 H 0.15814 0.40271 0.08554 0.0
H3163 H 0.177 0.42739 0.08322 0.0
H3164 H 0.14896 0.42786 0.06997 0.0
H3165 H 0.15286 0.40713 0.16969 0.0
H3166 H 0.14106 0.43342 0.18154 0.0
H3167 H 0.17072 0.43254 0.17192 0.0
C3168 C 0.87899 0.94245 0.38984 0.0
C3169 C 0.87324 0.96055 0.37542 0.0
C3170 C 0.86513 0.92233 0.39091 0.0
C3171 C 0.84538 0.92045 0.37706 0.0
C3172 C 0.84071 0.93802 0.36131 0.0
C3173 C 0.85456 0.95803 0.3609 0.0
C3174 C 0.87056 0.90404 0.40797 0.0
C3175 C 0.82008 0.9365 0.34594 0.0
C3176 C 0.80817 0.86673 0.36901 0.0
C3177 C 0.78842 0.87303 0.38109 0.0
C3178 C 0.82785 0.88123 0.36871 0.0
C3179 C 0.82757 0.90223 0.38094 0.0
C3180 C 0.80825 0.90756 0.39453 0.0
C3181 C 0.78874 0.89301 0.39418 0.0
C3182 C 0.84805 0.87504 0.35396 0.0
C3183 C 0.80743 0.92956 0.40814 0.0
H3184 H 0.89337 0.94467 0.40121 0.0
H3185 H 0.85031 0.97213 0.34973 0.0
H3186 H 0.85819 0.90579 0.4219 0.0
H3187 H 0.86841 0.88628 0.40108 0.0
H3188 H 0.88854 0.90586 0.41449 0.0
H3189 H 0.82064 0.95007 0.33293 0.0
H3190 H 0.81938 0.91914 0.33796 0.0
H3191 H 0.80374 0.93874 0.35546 0.0
H3192 H 0.80765 0.85128 0.35876 0.0
H3193 H 0.77333 0.89768 0.40352 0.0
H3194 H 0.86489 0.87854 0.36227 0.0
H3195 H 0.8474 0.88602 0.33895 0.0
H3196 H 0.84753 0.85647 0.34885 0.0
H3197 H 0.82389 0.93182 0.41746 0.0
H3198 H 0.79267 0.92951 0.41995 0.0
H3199 H 0.80548 0.94484 0.39712 0.0
C3200 C 0.2811 0.59588 0.63503 0.0
C3201 C 0.28419 0.62008 0.63423 0.0
C3202 C 0.30005 0.58069 0.63352 0.0
C3203 C 0.32272 0.58992 0.63092 0.0
C3204 C 0.32611 0.61431 0.6303 0.0
C3205 C 0.30678 0.62915 0.63227 0.0
C3206 C 0.29574 0.55474 0.63454 0.0
C3207 C 0.35008 0.62467 0.62748 0.0
C3208 C 0.36961 0.54632 0.64524 0.0
C3209 C 0.37345 0.53596 0.62472 0.0
C3210 C 0.35418 0.5651 0.64738 0.0
C3211 C 0.3426 0.57369 0.62847 0.0
C3212 C 0.34773 0.56429 0.60751 0.0
C3213 C 0.36291 0.54528 0.60593 0.0
C3214 C 0.34889 0.57444 0.67005 0.0
C3215 C 0.33604 0.57327 0.58694 0.0
H3216 H 0.26372 0.5887 0.63666 0.0
H3217 H 0.30954 0.64776 0.63264 0.0
H3218 H 0.30118 0.54649 0.61886 0.0
H3219 H 0.30631 0.54684 0.64787 0.0
H3220 H 0.27713 0.55048 0.6375 0.0
H3221 H 0.34971 0.644 0.62697 0.0
H3222 H 0.36154 0.6191 0.64119 0.0
H3223 H 0.35804 0.61817 0.61202 0.0
H3224 H 0.37749 0.53883 0.65981 0.0
H3225 H 0.36605 0.53727 0.59004 0.0
H3226 H 0.33129 0.56856 0.67515 0.0
H3227 H 0.34877 0.59375 0.67002 0.0
H3228 H 0.36169 0.56831 0.68248 0.0
H3229 H 0.31747 0.56791 0.58691 0.0
H3230 H 0.34438 0.56644 0.57176 0.0
H3231 H 0.33651 0.59258 0.5865 0.0
C3232 C 0.6197 0.0569 0.86722 0.0
C3233 C 0.6252 0.0383 0.88127 0.0
C3234 C 0.6337 0.07696 0.86653 0.0
C3235 C 0.65412 0.07796 0.87952 0.0
C3236 C 0.65919 0.05972 0.8944 0.0
C3237 C 0.64453 0.04029 0.89526 0.0
C3238 C 0.62736 0.09643 0.85096 0.0
C3239 C 0.68101 0.05987 0.90832 0.0
C3240 C 0.70867 0.10684 0.85842 0.0
C3241 C 0.71139 0.12537 0.87325 0.0
C3242 C 0.68937 0.09204 0.85951 0.0
C3243 C 0.67199 0.09615 0.87552 0.0
C3244 C 0.67364 0.11583 0.88944 0.0
C3245 C 0.69358 0.12999 0.88845 0.0
C3246 C 0.68851 0.07103 0.84454 0.0
C3247 C 0.65506 0.12117 0.90625 0.0
H3248 H 0.60528 0.05552 0.85589 0.0
H3249 H 0.64883 0.02614 0.90634 0.0
H3250 H 0.63052 0.11365 0.85869 0.0
H3251 H 0.63839 0.09535 0.83603 0.0
H3252 H 0.60883 0.09541 0.84578 0.0
H3253 H 0.68168 0.04497 0.91995 0.0
H3254 H 0.69655 0.05904 0.8975 0.0
H3255 H 0.68218 0.07626 0.9179 0.0
H3256 H 0.7222 0.10325 0.84646 0.0
H3257 H 0.69556 0.14378 0.90038 0.0
H3258 H 0.67161 0.07028 0.83576 0.0
H3259 H 0.69002 0.0549 0.85451 0.0
H3260 H 0.70273 0.07111 0.83216 0.0
H3261 H 0.63744 0.11836 0.89924 0.0
H3262 H 0.65632 0.13939 0.91232 0.0
H3263 H 0.65701 0.1093 0.92053 0.0
C3264 C 0.12182 0.55611 0.38249 0.0
C3265 C 0.13194 0.53397 0.38059 0.0
C3266 C 0.13551 0.57632 0.3812 0.0
C3267 C 0.15988 0.57421 0.37849 0.0
C3268 C 0.17022 0.5519 0.37708 0.0
C3269 C 0.15612 0.53208 0.37809 0.0
C3270 C 0.12396 0.59988 0.38274 0.0
C3271 C 0.19623 0.54892 0.3744 0.0
C3272 C 0.19889 0.62038 0.35426 0.0
C3273 C 0.21029 0.6286 0.37307 0.0
C3274 C 0.18101 0.6039 0.35593 0.0
C3275 C 0.17485 0.59514 0.37689 0.0
C3276 C 0.18548 0.60432 0.39604 0.0
C3277 C 0.20312 0.62104 0.39389 0.0
C3278 C 0.1698 0.59477 0.33518 0.0
C3279 C 0.17958 0.5952 0.41866 0.0
H3280 H 0.10333 0.55776 0.38541 0.0
H3281 H 0.16407 0.51501 0.37672 0.0
H3282 H 0.13082 0.60954 0.39716 0.0
H3283 H 0.12809 0.61035 0.36791 0.0
H3284 H 0.10473 0.59853 0.38431 0.0
H3285 H 0.20153 0.53031 0.37418 0.0
H3286 H 0.20202 0.55714 0.35883 0.0
H3287 H 0.20552 0.55778 0.38805 0.0
H3288 H 0.20448 0.62632 0.33817 0.0
H3289 H 0.21227 0.62705 0.40841 0.0
H3290 H 0.15059 0.59416 0.337 0.0
H3291 H 0.17586 0.57672 0.33205 0.0
H3292 H 0.17417 0.6056 0.32061 0.0
H3293 H 0.16045 0.59403 0.42087 0.0
H3294 H 0.18691 0.60634 0.43191 0.0
H3295 H 0.18674 0.57736 0.42054 0.0
C3296 C 0.62032 0.94211 0.62424 0.0
C3297 C 0.62983 0.9645 0.62202 0.0
C3298 C 0.63477 0.92248 0.62621 0.0
C3299 C 0.65922 0.92534 0.62529 0.0
C3300 C 0.66887 0.94779 0.62238 0.0
C3301 C 0.65408 0.96705 0.62091 0.0
C3302 C 0.62395 0.89876 0.62939 0.0
C3303 C 0.69489 0.95154 0.62102 0.0
C3304 C 0.7035 0.88485 0.65039 0.0
C3305 C 0.71248 0.87392 0.63165 0.0
C3306 C 0.68465 0.90021 0.64879 0.0
C3307 C 0.67507 0.90516 0.62786 0.0
C3308 C 0.68327 0.89315 0.60904 0.0
C3309 C 0.70189 0.87752 0.61119 0.0
C3310 C 0.67606 0.91233 0.66929 0.0
C3311 C 0.67375 0.89823 0.58639 0.0
H3312 H 0.60166 0.93973 0.62409 0.0
H3313 H 0.66162 0.98426 0.61907 0.0
H3314 H 0.62917 0.887 0.61579 0.0
H3315 H 0.6304 0.89088 0.64491 0.0
H3316 H 0.60463 0.89954 0.63002 0.0
H3317 H 0.6995 0.97001 0.61773 0.0
H3318 H 0.70322 0.9462 0.63669 0.0
H3319 H 0.70241 0.94058 0.60777 0.0
H3320 H 0.7117 0.88189 0.66622 0.0
H3321 H 0.70911 0.86931 0.59666 0.0
H3322 H 0.65675 0.91224 0.66989 0.0
H3323 H 0.68179 0.93078 0.66907 0.0
H3324 H 0.68286 0.90404 0.68451 0.0
H3325 H 0.65445 0.8988 0.58662 0.0
H3326 H 0.67943 0.88506 0.57412 0.0
H3327 H 0.67998 0.91559 0.58092 0.0
C3328 C 0.34257 0.46926 0.88543 0.0
C3329 C 0.36654 0.46568 0.88302 0.0
C3330 C 0.32687 0.45074 0.88349 0.0
C3331 C 0.33541 0.42807 0.87917 0.0
C3332 C 0.35965 0.42427 0.877 0.0
C3333 C 0.375 0.44317 0.8791 0.0
C3334 C 0.30112 0.45548 0.88597 0.0
C3335 C 0.36932 0.40029 0.87253 0.0
C3336 C 0.29268 0.38018 0.89339 0.0
C3337 C 0.28193 0.37643 0.87301 0.0
C3338 C 0.31109 0.39609 0.89545 0.0
C3339 C 0.31871 0.40856 0.8767 0.0
C3340 C 0.30856 0.40407 0.85592 0.0
C3341 C 0.29018 0.38813 0.85436 0.0
C3342 C 0.32142 0.40053 0.91791 0.0
C3343 C 0.31632 0.41695 0.83553 0.0
H3344 H 0.33607 0.48666 0.88865 0.0
H3345 H 0.39361 0.44027 0.87804 0.0
H3346 H 0.29184 0.45058 0.87064 0.0
H3347 H 0.29384 0.44468 0.89945 0.0
H3348 H 0.2974 0.47408 0.88959 0.0
H3349 H 0.38861 0.40032 0.87111 0.0
H3350 H 0.36423 0.38822 0.88595 0.0
H3351 H 0.36184 0.39328 0.85705 0.0
H3352 H 0.28598 0.37163 0.90794 0.0
H3353 H 0.28188 0.38519 0.83857 0.0
H3354 H 0.31619 0.4181 0.92368 0.0
H3355 H 0.34071 0.40021 0.91713 0.0
H3356 H 0.31554 0.3875 0.93023 0.0
H3357 H 0.31141 0.43558 0.83693 0.0
H3358 H 0.30831 0.40975 0.82034 0.0
H3359 H 0.33554 0.41618 0.83387 0.0
C3360 C 0.84501 0.02616 0.1252 0.0
C3361 C 0.86925 0.02848 0.12355 0.0
C3362 C 0.83052 0.04572 0.12607 0.0
C3363 C 0.8405 0.06823 0.12539 0.0
C3364 C 0.86492 0.07079 0.12344 0.0
C3365 C 0.87902 0.05083 0.12229 0.0
C3366 C 0.80451 0.04224 0.12794 0.0
C3367 C 0.8761 0.09457 0.12267 0.0
C3368 C 0.79702 0.11526 0.11064 0.0
C3369 C 0.78944 0.12212 0.13155 0.0
C3370 C 0.81477 0.09865 0.10829 0.0
C3371 C 0.82513 0.08889 0.12732 0.0
C3372 C 0.81848 0.09689 0.14842 0.0
C3373 C 0.80051 0.11325 0.15028 0.0
C3374 C 0.82121 0.09037 0.08552 0.0
C3375 C 0.82934 0.08714 0.16909 0.0
H3376 H 0.8373 0.00895 0.12607 0.0
H3377 H 0.89758 0.05286 0.12004 0.0
H3378 H 0.79814 0.0498 0.14363 0.0
H3379 H 0.79546 0.05145 0.11436 0.0
H3380 H 0.7995 0.02356 0.12742 0.0
H3381 H 0.89536 0.09358 0.12122 0.0
H3382 H 0.86919 0.10461 0.10852 0.0
H3383 H 0.87169 0.10445 0.1378 0.0
H3384 H 0.78817 0.12181 0.09616 0.0
H3385 H 0.79465 0.11868 0.16645 0.0
H3386 H 0.81433 0.07251 0.08298 0.0
H3387 H 0.8404 0.08953 0.0836 0.0
H3388 H 0.81398 0.10185 0.07248 0.0
H3389 H 0.82357 0.06886 0.17142 0.0
H3390 H 0.82441 0.09729 0.18394 0.0
H3391 H 0.8486 0.08697 0.16767 0.0
C3392 C 0.84396 0.53063 0.88354 0.0
C3393 C 0.86815 0.53386 0.88355 0.0
C3394 C 0.82874 0.54957 0.88218 0.0
C3395 C 0.83792 0.57237 0.88066 0.0
C3396 C 0.86231 0.57587 0.88084 0.0
C3397 C 0.87718 0.55653 0.88252 0.0
C3398 C 0.80279 0.54512 0.88222 0.0
C3399 C 0.87263 0.59999 0.87924 0.0
C3400 C 0.7942 0.61384 0.85597 0.0
C3401 C 0.78419 0.6235 0.87487 0.0
C3402 C 0.81305 0.59846 0.85753 0.0
C3403 C 0.82168 0.5923 0.87854 0.0
C3404 C 0.81238 0.60294 0.89763 0.0
C3405 C 0.7937 0.61851 0.89555 0.0
C3406 C 0.82273 0.58771 0.83679 0.0
C3407 C 0.82095 0.5966 0.92033 0.0
H3408 H 0.83684 0.51317 0.88442 0.0
H3409 H 0.89578 0.5593 0.88343 0.0
H3410 H 0.79442 0.55494 0.89581 0.0
H3411 H 0.79502 0.55137 0.86659 0.0
H3412 H 0.79853 0.52636 0.88417 0.0
H3413 H 0.89198 0.59971 0.87925 0.0
H3414 H 0.86657 0.60862 0.86394 0.0
H3415 H 0.86659 0.6108 0.89325 0.0
H3416 H 0.78687 0.61785 0.83997 0.0
H3417 H 0.78568 0.62566 0.9102 0.0
H3418 H 0.81751 0.56912 0.83591 0.0
H3419 H 0.84204 0.5883 0.8369 0.0
H3420 H 0.81632 0.59665 0.82175 0.0
H3421 H 0.81506 0.57872 0.92447 0.0
H3422 H 0.81427 0.60872 0.93311 0.0
H3423 H 0.84025 0.59663 0.92091 0.0
C3424 C 0.13135 0.04419 0.64457 0.0
C3425 C 0.1248 0.03599 0.62378 0.0
C3426 C 0.14779 0.06214 0.64669 0.0
C3427 C 0.15767 0.07211 0.62753 0.0
C3428 C 0.15 0.0648 0.60651 0.0
C3429 C 0.13382 0.04662 0.60489 0.0
C3430 C 0.15575 0.06926 0.66939 0.0
C3431 C 0.15986 0.07524 0.5857 0.0
C3432 C 0.19488 0.12672 0.63192 0.0
C3433 C 0.2174 0.11728 0.63113 0.0
C3434 C 0.17515 0.11228 0.63077 0.0
C3435 C 0.17809 0.08786 0.62932 0.0
C3436 C 0.20076 0.07822 0.62909 0.0
C3437 C 0.22008 0.09304 0.62992 0.0
C3438 C 0.1512 0.12312 0.63101 0.0
C3439 C 0.20464 0.05222 0.62779 0.0
H3440 H 0.12469 0.03568 0.65918 0.0
H3441 H 0.12865 0.04028 0.58881 0.0
H3442 H 0.1737 0.06275 0.67221 0.0
H3443 H 0.15624 0.0885 0.67091 0.0
H3444 H 0.14427 0.06214 0.68248 0.0
H3445 H 0.14997 0.06978 0.57086 0.0
H3446 H 0.15974 0.09454 0.58666 0.0
H3447 H 0.17824 0.06967 0.5837 0.0
H3448 H 0.19253 0.14527 0.63384 0.0
H3449 H 0.23741 0.08556 0.62941 0.0
H3450 H 0.14113 0.11649 0.64527 0.0
H3451 H 0.14154 0.11809 0.61593 0.0
H3452 H 0.15189 0.14243 0.63196 0.0
H3453 H 0.19541 0.04336 0.64146 0.0
H3454 H 0.22339 0.04752 0.62862 0.0
H3455 H 0.19737 0.04536 0.61217 0.0
C3456 C 0.65256 0.46932 0.38638 0.0
C3457 C 0.62872 0.46596 0.38278 0.0
C3458 C 0.66829 0.45078 0.38473 0.0
C3459 C 0.65993 0.42828 0.37939 0.0
C3460 C 0.63581 0.42466 0.37605 0.0
C3461 C 0.62041 0.44356 0.37798 0.0
C3462 C 0.69389 0.45533 0.38855 0.0
C3463 C 0.62632 0.40089 0.3704 0.0
C3464 C 0.70674 0.38983 0.3551 0.0
C3465 C 0.71427 0.37746 0.37364 0.0
C3466 C 0.68798 0.40535 0.35642 0.0
C3467 C 0.67676 0.40883 0.37687 0.0
C3468 C 0.68359 0.39556 0.39543 0.0
C3469 C 0.70232 0.37998 0.39358 0.0
C3470 C 0.68106 0.419 0.33621 0.0
C3471 C 0.67216 0.39893 0.41756 0.0
H3472 H 0.65898 0.48659 0.3903 0.0
H3473 H 0.60187 0.44074 0.37606 0.0
H3474 H 0.70052 0.44387 0.40184 0.0
H3475 H 0.7039 0.45118 0.37344 0.0
H3476 H 0.69743 0.47373 0.39314 0.0
H3477 H 0.6071 0.40101 0.36826 0.0
H3478 H 0.63442 0.39448 0.35498 0.0
H3479 H 0.63084 0.38829 0.38356 0.0
H3480 H 0.71596 0.38781 0.33965 0.0
H3481 H 0.70843 0.37085 0.40807 0.0
H3482 H 0.68596 0.43755 0.3384 0.0
H3483 H 0.66191 0.41835 0.33383 0.0
H3484 H 0.68966 0.41235 0.3211 0.0
H3485 H 0.67719 0.41615 0.42435 0.0
H3486 H 0.67737 0.38525 0.42952 0.0
H3487 H 0.65292 0.39879 0.41592 0.0
C3488 C 0.34646 0.97224 0.11941 0.0
C3489 C 0.37026 0.9688 0.12316 0.0
C3490 C 0.33065 0.95379 0.12119 0.0
C3491 C 0.3389 0.93134 0.12681 0.0
C3492 C 0.36299 0.92764 0.13029 0.0
C3493 C 0.37846 0.94644 0.1282 0.0
C3494 C 0.30508 0.95839 0.11721 0.0
C3495 C 0.37235 0.9039 0.13624 0.0
C3496 C 0.29225 0.89299 0.15142 0.0
C3497 C 0.28498 0.88021 0.13304 0.0
C3498 C 0.31079 0.90874 0.14994 0.0
C3499 C 0.32204 0.912 0.12946 0.0
C3500 C 0.31538 0.89844 0.11105 0.0
C3501 C 0.29687 0.88265 0.11307 0.0
C3502 C 0.31756 0.92273 0.16999 0.0
C3503 C 0.32685 0.90161 0.0889 0.0
H3504 H 0.34014 0.9895 0.11528 0.0
H3505 H 0.39698 0.94355 0.13022 0.0
H3506 H 0.29847 0.94677 0.10403 0.0
H3507 H 0.295 0.95448 0.13233 0.0
H3508 H 0.30164 0.97674 0.11239 0.0
H3509 H 0.39156 0.90397 0.13844 0.0
H3510 H 0.36416 0.89774 0.15171 0.0
H3511 H 0.36782 0.89115 0.12321 0.0
H3512 H 0.28306 0.89102 0.1669 0.0
H3513 H 0.29094 0.87318 0.09871 0.0
H3514 H 0.31277 0.94126 0.16747 0.0
H3515 H 0.33668 0.92204 0.17255 0.0
H3516 H 0.30879 0.91638 0.18514 0.0
H3517 H 0.32194 0.91882 0.08202 0.0
H3518 H 0.32158 0.88789 0.077 0.0
H3519 H 0.34608 0.90137 0.09057 0.0
C3520 C 0.78169 0.40349 0.63428 0.0
C3521 C 0.78488 0.37938 0.63281 0.0
C3522 C 0.80054 0.41879 0.63221 0.0
C3523 C 0.82316 0.40968 0.62875 0.0
C3524 C 0.82655 0.3853 0.62754 0.0
C3525 C 0.80732 0.37038 0.62972 0.0
C3526 C 0.79622 0.4447 0.63363 0.0
C3527 C 0.85046 0.37502 0.62403 0.0
C3528 C 0.86463 0.45321 0.60341 0.0
C3529 C 0.87588 0.4621 0.62206 0.0
C3530 C 0.84836 0.43514 0.60519 0.0
C3531 C 0.84306 0.42593 0.62619 0.0
C3532 C 0.85511 0.43414 0.64498 0.0
C3533 C 0.87134 0.45224 0.6427 0.0
C3534 C 0.83594 0.42677 0.58476 0.0
C3535 C 0.84985 0.42481 0.66766 0.0
H3536 H 0.76434 0.41042 0.63687 0.0
H3537 H 0.80988 0.35168 0.62936 0.0
H3538 H 0.80673 0.45234 0.64714 0.0
H3539 H 0.80176 0.45325 0.61812 0.0
H3540 H 0.7776 0.44889 0.63659 0.0
H3541 H 0.8501 0.35569 0.6233 0.0
H3542 H 0.85802 0.38173 0.60847 0.0
H3543 H 0.86224 0.38044 0.63755 0.0
H3544 H 0.86815 0.46084 0.58743 0.0
H3545 H 0.87948 0.45946 0.65725 0.0
H3546 H 0.81738 0.4321 0.58546 0.0
H3547 H 0.83636 0.40748 0.58383 0.0
H3548 H 0.84374 0.43399 0.5695 0.0
H3549 H 0.83225 0.43062 0.67281 0.0
H3550 H 0.86266 0.43092 0.68009 0.0
H3551 H 0.84978 0.40549 0.66757 0.0
C3552 C 0.29519 0.11765 0.39538 0.0
C3553 C 0.28446 0.12093 0.37492 0.0
C3554 C 0.31401 0.10226 0.39766 0.0
C3555 C 0.32211 0.08987 0.37904 0.0
C3556 C 0.31201 0.09397 0.35816 0.0
C3557 C 0.29318 0.10936 0.35639 0.0
C3558 C 0.32426 0.09823 0.42022 0.0
C3559 C 0.32026 0.08118 0.3379 0.0
C3560 C 0.37894 0.05609 0.38132 0.0
C3561 C 0.37081 0.03339 0.3849 0.0
C3562 C 0.36333 0.07483 0.37957 0.0
C3563 C 0.33914 0.07067 0.38173 0.0
C3564 C 0.33094 0.04786 0.3859 0.0
C3565 C 0.34689 0.02952 0.38747 0.0
C3566 C 0.37264 0.09898 0.37526 0.0
C3567 C 0.30526 0.04273 0.38839 0.0
H3568 H 0.28815 0.12613 0.40984 0.0
H3569 H 0.28491 0.11196 0.34054 0.0
H3570 H 0.3192 0.08066 0.42614 0.0
H3571 H 0.34355 0.09877 0.41956 0.0
H3572 H 0.31812 0.11132 0.43237 0.0
H3573 H 0.31226 0.08815 0.32261 0.0
H3574 H 0.33948 0.08236 0.33641 0.0
H3575 H 0.31573 0.06245 0.33931 0.0
H3576 H 0.39748 0.0593 0.38014 0.0
H3577 H 0.34056 0.01199 0.39036 0.0
H3578 H 0.36695 0.11102 0.38848 0.0
H3579 H 0.36546 0.10574 0.35956 0.0
H3580 H 0.39196 0.09933 0.3743 0.0
H3581 H 0.29774 0.0536 0.4017 0.0
H3582 H 0.30184 0.02412 0.39224 0.0
H3583 H 0.29597 0.04722 0.37296 0.0
C3584 C 0.68999 0.62846 0.11915 0.0
C3585 C 0.70815 0.62305 0.13374 0.0
C3586 C 0.66991 0.61453 0.1181 0.0
C3587 C 0.66844 0.59429 0.1313 0.0
C3588 C 0.68613 0.58946 0.14684 0.0
C3589 C 0.70559 0.60405 0.14803 0.0
C3590 C 0.65099 0.62067 0.10187 0.0
C3591 C 0.68546 0.56787 0.16106 0.0
C3592 C 0.61665 0.55431 0.13896 0.0
C3593 C 0.62212 0.53631 0.12421 0.0
C3594 C 0.63041 0.57451 0.1401 0.0
C3595 C 0.65056 0.57625 0.12682 0.0
C3596 C 0.6555 0.55869 0.11117 0.0
C3597 C 0.64107 0.53912 0.1099 0.0
C3598 C 0.62417 0.59327 0.15646 0.0
C3599 C 0.67701 0.55965 0.09687 0.0
H3600 H 0.69182 0.64269 0.10766 0.0
H3601 H 0.71939 0.59987 0.15954 0.0
H3602 H 0.65277 0.60965 0.08698 0.0
H3603 H 0.6335 0.61735 0.10899 0.0
H3604 H 0.65204 0.63921 0.09672 0.0
H3605 H 0.6999 0.56744 0.17323 0.0
H3606 H 0.66872 0.5668 0.17006 0.0
H3607 H 0.68678 0.55215 0.1505 0.0
H3608 H 0.60249 0.55228 0.1505 0.0
H3609 H 0.6453 0.52545 0.09827 0.0
H3610 H 0.6273 0.61083 0.14943 0.0
H3611 H 0.63527 0.59149 0.17129 0.0
H3612 H 0.60567 0.59201 0.16167 0.0
H3613 H 0.67785 0.57645 0.08792 0.0
H3614 H 0.67756 0.54527 0.08466 0.0
H3615 H 0.69279 0.55848 0.10737 0.0
C3616 C 0.12008 0.94231 0.87985 0.0
C3617 C 0.12931 0.96485 0.88123 0.0
C3618 C 0.1348 0.92288 0.87817 0.0
C3619 C 0.15921 0.92621 0.87822 0.0
C3620 C 0.16856 0.94895 0.88 0.0
C3621 C 0.15346 0.96799 0.88155 0.0
C3622 C 0.12429 0.89885 0.87642 0.0
C3623 C 0.19454 0.95319 0.88019 0.0
C3624 C 0.20246 0.87915 0.89325 0.0
C3625 C 0.21163 0.87359 0.87256 0.0
C3626 C 0.18427 0.8953 0.89528 0.0
C3627 C 0.17525 0.90612 0.87617 0.0
C3628 C 0.18363 0.8996 0.85517 0.0
C3629 C 0.20186 0.88349 0.85364 0.0
C3630 C 0.17583 0.90191 0.91796 0.0
C3631 C 0.17432 0.91065 0.83441 0.0
H3632 H 0.10138 0.93983 0.88043 0.0
H3633 H 0.16056 0.98544 0.88284 0.0
H3634 H 0.13031 0.89025 0.8611 0.0
H3635 H 0.13021 0.88793 0.89039 0.0
H3636 H 0.10495 0.89928 0.87638 0.0
H3637 H 0.19893 0.97194 0.88198 0.0
H3638 H 0.20271 0.94347 0.89394 0.0
H3639 H 0.20238 0.94667 0.86469 0.0
H3640 H 0.21035 0.87198 0.90794 0.0
H3641 H 0.20896 0.87913 0.83763 0.0
H3642 H 0.15653 0.90212 0.91853 0.0
H3643 H 0.18194 0.91974 0.922 0.0
H3644 H 0.18236 0.88979 0.93081 0.0
H3645 H 0.15501 0.9103 0.83433 0.0
H3646 H 0.18077 0.90176 0.81936 0.0
H3647 H 0.17977 0.92918 0.83374 0.0
loop_
_geom_bond_atom_site_label_1
_geom_bond_atom_site_label_2
_geom_bond_distance
_geom_bond_site_symmetry_2
_ccdc_geom_bond_type
Co0 O3 1.970 . S
Co0 N17 1.989 . S
Co0 O25 1.967 . S
Co0 O32 1.920 . S
Co1 O4 1.966 . S
Co1 N10 2.022 . S
Co1 N18 1.993 . S
Co1 O26 1.941 . S
C2 O3 1.258 . S
C2 O4 1.263 . S
O3 Co0 1.970 . S
O3 C2 1.258 . S
O4 Co1 1.966 . S
O4 C2 1.263 . S
C5 O6 1.235 . S
C5 O32 1.289 . S
O6 C5 1.235 . S
C7 C9 1.400 . S
C7 N10 1.351 . S
C7 C12 1.501 . S
C8 C9 1.387 . S
C8 N11 1.341 . S
C9 C7 1.400 . S
C9 C8 1.387 . S
N10 Co1 2.022 . S
N10 C7 1.351 . S
N10 N11 1.365 . S
N11 C8 1.341 . S
N11 N10 1.365 . S
N11 H31 0.862 . S
C12 C7 1.501 . S
C12 H13 0.961 . S
C12 H14 0.961 . S
C12 H15 0.960 . S
H13 C12 0.961 . S
H14 C12 0.961 . S
H15 C12 0.960 . S
C16 N17 1.342 . S
C16 C20 1.401 . S
C16 C21 1.499 . S
N17 Co0 1.989 . S
N17 C16 1.342 . S
N17 N18 1.388 . S
N18 Co1 1.993 . S
N18 N17 1.388 . S
N18 C19 1.346 . S
C19 N18 1.346 . S
C19 C20 1.396 . S
C19 C29 1.510 . S
C20 C16 1.401 . S
C20 C19 1.396 . S
C21 C16 1.499 . S
C21 H22 0.959 . S
C21 H23 0.960 . S
C21 H24 0.961 . S
H22 C21 0.959 . S
H23 C21 0.960 . S
H24 C21 0.961 . S
O25 Co0 1.967 . S
O25 C33 1.258 . S
O26 Co1 1.941 . S
O26 C33 1.266 . S
H27 C29 0.959 . S
H28 C29 0.961 . S
C29 C19 1.510 . S
C29 H27 0.959 . S
C29 H28 0.961 . S
C29 H30 0.960 . S
H30 C29 0.960 . S
H31 N11 0.862 . S
O32 Co0 1.920 . S
O32 C5 1.289 . S
C33 O25 1.258 . S
C33 O26 1.266 . S
Co34 O37 1.970 . S
Co34 N51 1.989 . S
Co34 O59 1.967 . S
Co34 O66 1.920 1_655 S
Co35 O38 1.966 . S
Co35 N44 2.022 . S
Co35 N52 1.993 . S
Co35 O60 1.941 . S
C36 O37 1.258 . S
C36 O38 1.263 . S
O37 Co34 1.970 . S
O37 C36 1.258 . S
O38 Co35 1.966 . S
O38 C36 1.263 . S
C39 O40 1.235 . S
C39 O66 1.289 . S
O40 C39 1.235 . S
C41 C43 1.400 . S
C41 N44 1.351 1_565 S
C41 C46 1.501 . S
C42 C43 1.387 . S
C42 N45 1.341 1_565 S
C43 C41 1.400 . S
C43 C42 1.387 . S
N44 Co35 2.022 . S
N44 C41 1.351 1_545 S
N44 N45 1.365 . S
N45 C42 1.341 1_545 S
N45 N44 1.365 . S
N45 H65 0.862 . S
C46 C41 1.501 . S
C46 H47 0.961 . S
C46 H48 0.961 . S
C46 H49 0.960 . S
H47 C46 0.961 . S
H48 C46 0.961 . S
H49 C46 0.960 . S
C50 N51 1.342 . S
C50 C54 1.401 . S
C50 C55 1.499 1_655 S
N51 Co34 1.989 . S
N51 C50 1.342 . S
N51 N52 1.388 . S
N52 Co35 1.993 . S
N52 N51 1.388 . S
N52 C53 1.346 . S
C53 N52 1.346 . S
C53 C54 1.396 . S
C53 C63 1.510 1_545 S
C54 C50 1.401 . S
C54 C53 1.396 . S
C55 C50 1.499 1_455 S
C55 H56 0.959 . S
C55 H57 0.960 . S
C55 H58 0.961 . S
H56 C55 0.959 . S
H57 C55 0.960 . S
H58 C55 0.961 . S
O59 Co34 1.967 . S
O59 C67 1.258 . S
O60 Co35 1.941 . S
O60 C67 1.266 . S
H61 C63 0.959 . S
H62 C63 0.961 . S
C63 C53 1.510 1_565 S
C63 H61 0.959 . S
C63 H62 0.961 . S
C63 H64 0.960 . S
H64 C63 0.960 . S
H65 N45 0.862 . S
O66 Co34 1.920 1_455 S
O66 C39 1.289 . S
C67 O59 1.258 . S
C67 O60 1.266 . S
Co68 O71 1.970 . S
Co68 N85 1.989 . S
Co68 O93 1.967 . S
Co68 O100 1.920 . S
Co69 O72 1.966 . S
Co69 N78 2.022 . S
Co69 N86 1.993 . S
Co69 O94 1.941 . S
C70 O71 1.258 . S
C70 O72 1.263 . S
O71 Co68 1.970 . S
O71 C70 1.258 . S
O72 Co69 1.966 . S
O72 C70 1.263 . S
C73 O74 1.235 . S
C73 O100 1.289 . S
O74 C73 1.235 . S
C75 C77 1.400 . S
C75 N78 1.351 . S
C75 C80 1.501 . S
C76 C77 1.387 . S
C76 N79 1.341 . S
C77 C75 1.400 . S
C77 C76 1.387 . S
N78 Co69 2.022 . S
N78 C75 1.351 . S
N78 N79 1.365 . S
N79 C76 1.341 . S
N79 N78 1.365 . S
N79 H99 0.862 . S
C80 C75 1.501 . S
C80 H81 0.961 . S
C80 H82 0.961 . S
C80 H83 0.960 . S
H81 C80 0.961 . S
H82 C80 0.961 . S
H83 C80 0.960 . S
C84 N85 1.342 . S
C84 C88 1.401 . S
C84 C89 1.499 . S
N85 Co68 1.989 . S
N85 C84 1.342 . S
N85 N86 1.388 . S
N86 Co69 1.993 . S
N86 N85 1.388 . S
N86 C87 1.346 . S
C87 N86 1.346 . S
C87 C88 1.396 . S
C87 C97 1.510 . S
C88 C84 1.401 . S
C88 C87 1.396 . S
C89 C84 1.499 . S
C89 H90 0.959 . S
C89 H91 0.960 . S
C89 H92 0.961 . S
H90 C89 0.959 . S
H91 C89 0.960 . S
H92 C89 0.961 . S
O93 Co68 1.967 . S
O93 C101 1.258 . S
O94 Co69 1.941 . S
O94 C101 1.266 . S
H95 C97 0.959 . S
H96 C97 0.961 . S
C97 C87 1.510 . S
C97 H95 0.959 . S
C97 H96 0.961 . S
C97 H98 0.960 . S
H98 C97 0.960 . S
H99 N79 0.862 . S
O100 Co68 1.920 . S
O100 C73 1.289 . S
C101 O93 1.258 . S
C101 O94 1.266 . S
Co102 O105 1.970 . S
Co102 N119 1.989 . S
Co102 O127 1.967 . S
Co102 O134 1.920 . S
Co103 O106 1.966 . S
Co103 N112 2.022 . S
Co103 N120 1.993 . S
Co103 O128 1.941 . S
C104 O105 1.258 . S
C104 O106 1.263 . S
O105 Co102 1.970 . S
O105 C104 1.258 . S
O106 Co103 1.966 . S
O106 C104 1.263 . S
C107 O108 1.235 . S
C107 O134 1.289 . S
O108 C107 1.235 . S
C109 C111 1.400 . S
C109 N112 1.351 1_545 S
C109 C114 1.501 . S
C110 C111 1.387 . S
C110 N113 1.341 1_545 S
C111 C109 1.400 . S
C111 C110 1.387 . S
N112 Co103 2.022 . S
N112 C109 1.351 1_565 S
N112 N113 1.365 . S
N113 C110 1.341 1_565 S
N113 N112 1.365 . S
N113 H133 0.862 . S
C114 C109 1.501 . S
C114 H115 0.961 . S
C114 H116 0.961 . S
C114 H117 0.960 . S
H115 C114 0.961 . S
H116 C114 0.961 . S
H117 C114 0.960 . S
C118 N119 1.342 . S
C118 C122 1.401 . S
C118 C123 1.499 . S
N119 Co102 1.989 . S
N119 C118 1.342 . S
N119 N120 1.388 . S
N120 Co103 1.993 . S
N120 N119 1.388 . S
N120 C121 1.346 . S
C121 N120 1.346 . S
C121 C122 1.396 . S
C121 C131 1.510 1_565 S
C122 C118 1.401 . S
C122 C121 1.396 . S
C123 C118 1.499 . S
C123 H124 0.959 . S
C123 H125 0.960 . S
C123 H126 0.961 . S
H124 C123 0.959 . S
H125 C123 0.960 . S
H126 C123 0.961 . S
O127 Co102 1.967 . S
O127 C135 1.258 . S
O128 Co103 1.941 . S
O128 C135 1.266 . S
H129 C131 0.959 . S
H130 C131 0.961 . S
C131 C121 1.510 1_545 S
C131 H129 0.959 . S
C131 H130 0.961 . S
C131 H132 0.960 . S
H132 C131 0.960 . S
H133 N113 0.862 . S
O134 Co102 1.920 . S
O134 C107 1.289 . S
C135 O127 1.258 . S
C135 O128 1.266 . S
Co136 O139 1.970 . S
Co136 N153 1.989 . S
Co136 O161 1.967 . S
Co136 O168 1.920 . S
Co137 O140 1.966 . S
Co137 N146 2.022 . S
Co137 N154 1.993 . S
Co137 O162 1.941 . S
C138 O139 1.258 . S
C138 O140 1.263 . S
O139 Co136 1.970 . S
O139 C138 1.258 . S
O140 Co137 1.966 . S
O140 C138 1.263 . S
C141 O142 1.235 . S
C141 O168 1.289 . S
O142 C141 1.235 . S
C143 C145 1.400 . S
C143 N146 1.351 . S
C143 C148 1.501 . S
C144 C145 1.387 . S
C144 N147 1.341 . S
C145 C143 1.400 . S
C145 C144 1.387 . S
N146 Co137 2.022 . S
N146 C143 1.351 . S
N146 N147 1.365 . S
N147 C144 1.341 . S
N147 N146 1.365 . S
N147 H167 0.862 . S
C148 C143 1.501 . S
C148 H149 0.961 . S
C148 H150 0.961 . S
C148 H151 0.960 . S
H149 C148 0.961 . S
H150 C148 0.961 . S
H151 C148 0.960 . S
C152 N153 1.342 . S
C152 C156 1.401 . S
C152 C157 1.499 . S
N153 Co136 1.989 . S
N153 C152 1.342 . S
N153 N154 1.388 . S
N154 Co137 1.993 . S
N154 N153 1.388 . S
N154 C155 1.346 . S
C155 N154 1.346 . S
C155 C156 1.396 . S
C155 C165 1.510 . S
C156 C152 1.401 . S
C156 C155 1.396 . S
C157 C152 1.499 . S
C157 H158 0.959 . S
C157 H159 0.960 . S
C157 H160 0.961 . S
H158 C157 0.959 . S
H159 C157 0.960 . S
H160 C157 0.961 . S
O161 Co136 1.967 . S
O161 C169 1.258 . S
O162 Co137 1.941 . S
O162 C169 1.266 . S
H163 C165 0.959 . S
H164 C165 0.961 . S
C165 C155 1.510 . S
C165 H163 0.959 . S
C165 H164 0.961 . S
C165 H166 0.960 . S
H166 C165 0.960 . S
H167 N147 0.862 . S
O168 Co136 1.920 . S
O168 C141 1.289 . S
C169 O161 1.258 . S
C169 O162 1.266 . S
Co170 O173 1.970 . S
Co170 N187 1.989 . S
Co170 O195 1.967 . S
Co170 O202 1.920 . S
Co171 O174 1.966 . S
Co171 N180 2.022 . S
Co171 N188 1.993 . S
Co171 O196 1.941 . S
C172 O173 1.258 . S
C172 O174 1.263 . S
O173 Co170 1.970 . S
O173 C172 1.258 . S
O174 Co171 1.966 . S
O174 C172 1.263 . S
C175 O176 1.235 . S
C175 O202 1.289 . S
O176 C175 1.235 . S
C177 C179 1.400 . S
C177 N180 1.351 1_565 S
C177 C182 1.501 . S
C178 C179 1.387 . S
C178 N181 1.341 1_565 S
C179 C177 1.400 . S
C179 C178 1.387 . S
N180 Co171 2.022 . S
N180 C177 1.351 1_545 S
N180 N181 1.365 . S
N181 C178 1.341 1_545 S
N181 N180 1.365 . S
N181 H201 0.862 . S
C182 C177 1.501 . S
C182 H183 0.961 . S
C182 H184 0.961 . S
C182 H185 0.960 . S
H183 C182 0.961 . S
H184 C182 0.961 . S
H185 C182 0.960 . S
C186 N187 1.342 . S
C186 C190 1.401 . S
C186 C191 1.499 . S
N187 Co170 1.989 . S
N187 C186 1.342 . S
N187 N188 1.388 . S
N188 Co171 1.993 . S
N188 N187 1.388 . S
N188 C189 1.346 . S
C189 N188 1.346 . S
C189 C190 1.396 . S
C189 C199 1.510 1_545 S
C190 C186 1.401 . S
C190 C189 1.396 . S
C191 C186 1.499 . S
C191 H192 0.959 . S
C191 H193 0.960 . S
C191 H194 0.961 . S
H192 C191 0.959 . S
H193 C191 0.960 . S
H194 C191 0.961 . S
O195 Co170 1.967 . S
O195 C203 1.258 . S
O196 Co171 1.941 . S
O196 C203 1.266 . S
H197 C199 0.959 . S
H198 C199 0.961 . S
C199 C189 1.510 1_565 S
C199 H197 0.959 . S
C199 H198 0.961 . S
C199 H200 0.960 . S
H200 C199 0.960 . S
H201 N181 0.862 . S
O202 Co170 1.920 . S
O202 C175 1.289 . S
C203 O195 1.258 . S
C203 O196 1.266 . S
Co204 O207 1.970 . S
Co204 N221 1.989 . S
Co204 O229 1.967 . S
Co204 O236 1.920 . S
Co205 O208 1.966 . S
Co205 N214 2.022 . S
Co205 N222 1.993 . S
Co205 O230 1.941 . S
C206 O207 1.258 . S
C206 O208 1.263 . S
O207 Co204 1.970 . S
O207 C206 1.258 . S
O208 Co205 1.966 . S
O208 C206 1.263 . S
C209 O210 1.235 . S
C209 O236 1.289 . S
O210 C209 1.235 . S
C211 C213 1.400 . S
C211 N214 1.351 . S
C211 C216 1.501 . S
C212 C213 1.387 . S
C212 N215 1.341 . S
C213 C211 1.400 . S
C213 C212 1.387 . S
N214 Co205 2.022 . S
N214 C211 1.351 . S
N214 N215 1.365 . S
N215 C212 1.341 . S
N215 N214 1.365 . S
N215 H235 0.862 . S
C216 C211 1.501 . S
C216 H217 0.961 . S
C216 H218 0.961 . S
C216 H219 0.960 . S
H217 C216 0.961 . S
H218 C216 0.961 . S
H219 C216 0.960 . S
C220 N221 1.342 . S
C220 C224 1.401 . S
C220 C225 1.499 . S
N221 Co204 1.989 . S
N221 C220 1.342 . S
N221 N222 1.388 . S
N222 Co205 1.993 . S
N222 N221 1.388 . S
N222 C223 1.346 . S
C223 N222 1.346 . S
C223 C224 1.396 . S
C223 C233 1.510 . S
C224 C220 1.401 . S
C224 C223 1.396 . S
C225 C220 1.499 . S
C225 H226 0.959 . S
C225 H227 0.960 . S
C225 H228 0.961 . S
H226 C225 0.959 . S
H227 C225 0.960 . S
H228 C225 0.961 . S
O229 Co204 1.967 . S
O229 C237 1.258 . S
O230 Co205 1.941 . S
O230 C237 1.266 . S
H231 C233 0.959 . S
H232 C233 0.961 . S
C233 C223 1.510 . S
C233 H231 0.959 . S
C233 H232 0.961 . S
C233 H234 0.960 . S
H234 C233 0.960 . S
H235 N215 0.862 . S
O236 Co204 1.920 . S
O236 C209 1.289 . S
C237 O229 1.258 . S
C237 O230 1.266 . S
Co238 O241 1.970 . S
Co238 N255 1.989 . S
Co238 O263 1.967 . S
Co238 O270 1.920 1_655 S
Co239 O242 1.966 . S
Co239 N248 2.022 . S
Co239 N256 1.993 . S
Co239 O264 1.941 . S
C240 O241 1.258 . S
C240 O242 1.263 . S
O241 Co238 1.970 . S
O241 C240 1.258 . S
O242 Co239 1.966 . S
O242 C240 1.263 . S
C243 O244 1.235 . S
C243 O270 1.289 . S
O244 C243 1.235 . S
C245 C247 1.400 . S
C245 N248 1.351 1_545 S
C245 C250 1.501 . S
C246 C247 1.387 . S
C246 N249 1.341 1_545 S
C247 C245 1.400 . S
C247 C246 1.387 . S
N248 Co239 2.022 . S
N248 C245 1.351 1_565 S
N248 N249 1.365 . S
N249 C246 1.341 1_565 S
N249 N248 1.365 . S
N249 H269 0.862 . S
C250 C245 1.501 . S
C250 H251 0.961 . S
C250 H252 0.961 . S
C250 H253 0.960 . S
H251 C250 0.961 . S
H252 C250 0.961 . S
H253 C250 0.960 . S
C254 N255 1.342 . S
C254 C258 1.401 . S
C254 C259 1.499 1_655 S
N255 Co238 1.989 . S
N255 C254 1.342 . S
N255 N256 1.388 . S
N256 Co239 1.993 . S
N256 N255 1.388 . S
N256 C257 1.346 . S
C257 N256 1.346 . S
C257 C258 1.396 . S
C257 C267 1.510 1_565 S
C258 C254 1.401 . S
C258 C257 1.396 . S
C259 C254 1.499 1_455 S
C259 H260 0.959 . S
C259 H261 0.960 . S
C259 H262 0.961 . S
H260 C259 0.959 . S
H261 C259 0.960 . S
H262 C259 0.961 . S
O263 Co238 1.967 . S
O263 C271 1.258 . S
O264 Co239 1.941 . S
O264 C271 1.266 . S
H265 C267 0.959 . S
H266 C267 0.961 . S
C267 C257 1.510 1_545 S
C267 H265 0.959 . S
C267 H266 0.961 . S
C267 H268 0.960 . S
H268 C267 0.960 . S
H269 N249 0.862 . S
O270 Co238 1.920 1_455 S
O270 C243 1.289 . S
C271 O263 1.258 . S
C271 O264 1.266 . S
Co272 O275 1.970 . S
Co272 N289 1.989 . S
Co272 O297 1.967 . S
Co272 O304 1.920 . S
Co273 O276 1.966 . S
Co273 N282 2.022 . S
Co273 N290 1.993 . S
Co273 O298 1.941 . S
C274 O275 1.258 . S
C274 O276 1.263 . S
O275 Co272 1.970 . S
O275 C274 1.258 . S
O276 Co273 1.966 . S
O276 C274 1.263 . S
C277 O278 1.235 . S
C277 O304 1.289 . S
O278 C277 1.235 . S
C279 C281 1.400 . S
C279 N282 1.351 . S
C279 C284 1.501 . S
C280 C281 1.387 . S
C280 N283 1.341 . S
C281 C279 1.400 . S
C281 C280 1.387 . S
N282 Co273 2.022 . S
N282 C279 1.351 . S
N282 N283 1.365 . S
N283 C280 1.341 . S
N283 N282 1.365 . S
N283 H303 0.862 . S
C284 C279 1.501 . S
C284 H285 0.961 . S
C284 H286 0.961 . S
C284 H287 0.960 . S
H285 C284 0.961 . S
H286 C284 0.961 . S
H287 C284 0.960 . S
C288 N289 1.342 . S
C288 C292 1.401 . S
C288 C293 1.499 . S
N289 Co272 1.989 . S
N289 C288 1.342 . S
N289 N290 1.388 . S
N290 Co273 1.993 . S
N290 N289 1.388 . S
N290 C291 1.346 . S
C291 N290 1.346 . S
C291 C292 1.396 . S
C291 C301 1.510 . S
C292 C288 1.401 . S
C292 C291 1.396 . S
C293 C288 1.499 . S
C293 H294 0.959 . S
C293 H295 0.960 . S
C293 H296 0.961 . S
H294 C293 0.959 . S
H295 C293 0.960 . S
H296 C293 0.961 . S
O297 Co272 1.967 . S
O297 C305 1.258 . S
O298 Co273 1.941 . S
O298 C305 1.266 . S
H299 C301 0.959 . S
H300 C301 0.961 . S
C301 C291 1.510 . S
C301 H299 0.959 . S
C301 H300 0.961 . S
C301 H302 0.960 . S
H302 C301 0.960 . S
H303 N283 0.862 . S
O304 Co272 1.920 . S
O304 C277 1.289 . S
C305 O297 1.258 . S
C305 O298 1.266 . S
Co306 O309 1.970 . S
Co306 N323 1.989 . S
Co306 O331 1.967 . S
Co306 O338 1.920 1_455 S
Co307 O310 1.966 . S
Co307 N316 2.022 . S
Co307 N324 1.993 . S
Co307 O332 1.941 . S
C308 O309 1.258 . S
C308 O310 1.263 . S
O309 Co306 1.970 . S
O309 C308 1.258 . S
O310 Co307 1.966 . S
O310 C308 1.263 . S
C311 O312 1.235 . S
C311 O338 1.289 . S
O312 C311 1.235 . S
C313 C315 1.400 . S
C313 N316 1.351 1_545 S
C313 C318 1.501 . S
C314 C315 1.387 . S
C314 N317 1.341 1_545 S
C315 C313 1.400 . S
C315 C314 1.387 . S
N316 Co307 2.022 . S
N316 C313 1.351 1_565 S
N316 N317 1.365 . S
N317 C314 1.341 1_565 S
N317 N316 1.365 . S
N317 H337 0.862 . S
C318 C313 1.501 . S
C318 H319 0.961 . S
C318 H320 0.961 . S
C318 H321 0.960 . S
H319 C318 0.961 . S
H320 C318 0.961 . S
H321 C318 0.960 . S
C322 N323 1.342 . S
C322 C326 1.401 . S
C322 C327 1.499 1_455 S
N323 Co306 1.989 . S
N323 C322 1.342 . S
N323 N324 1.388 . S
N324 Co307 1.993 . S
N324 N323 1.388 . S
N324 C325 1.346 . S
C325 N324 1.346 . S
C325 C326 1.396 . S
C325 C335 1.510 1_565 S
C326 C322 1.401 . S
C326 C325 1.396 . S
C327 C322 1.499 1_655 S
C327 H328 0.959 . S
C327 H329 0.960 . S
C327 H330 0.961 . S
H328 C327 0.959 . S
H329 C327 0.960 . S
H330 C327 0.961 . S
O331 Co306 1.967 . S
O331 C339 1.258 . S
O332 Co307 1.941 . S
O332 C339 1.266 . S
H333 C335 0.959 . S
H334 C335 0.961 . S
C335 C325 1.510 1_545 S
C335 H333 0.959 . S
C335 H334 0.961 . S
C335 H336 0.960 . S
H336 C335 0.960 . S
H337 N317 0.862 . S
O338 Co306 1.920 1_655 S
O338 C311 1.289 . S
C339 O331 1.258 . S
C339 O332 1.266 . S
Co340 O343 1.970 . S
Co340 N357 1.989 . S
Co340 O365 1.967 . S
Co340 O372 1.920 . S
Co341 O344 1.966 . S
Co341 N350 2.022 . S
Co341 N358 1.993 . S
Co341 O366 1.941 . S
C342 O343 1.258 . S
C342 O344 1.263 . S
O343 Co340 1.970 . S
O343 C342 1.258 . S
O344 Co341 1.966 . S
O344 C342 1.263 . S
C345 O346 1.235 . S
C345 O372 1.289 . S
O346 C345 1.235 . S
C347 C349 1.400 . S
C347 N350 1.351 . S
C347 C352 1.501 . S
C348 C349 1.387 . S
C348 N351 1.341 . S
C349 C347 1.400 . S
C349 C348 1.387 . S
N350 Co341 2.022 . S
N350 C347 1.351 . S
N350 N351 1.365 . S
N351 C348 1.341 . S
N351 N350 1.365 . S
N351 H371 0.862 . S
C352 C347 1.501 . S
C352 H353 0.961 . S
C352 H354 0.961 . S
C352 H355 0.960 . S
H353 C352 0.961 . S
H354 C352 0.961 . S
H355 C352 0.960 . S
C356 N357 1.342 . S
C356 C360 1.401 . S
C356 C361 1.499 . S
N357 Co340 1.989 . S
N357 C356 1.342 . S
N357 N358 1.388 . S
N358 Co341 1.993 . S
N358 N357 1.388 . S
N358 C359 1.346 . S
C359 N358 1.346 . S
C359 C360 1.396 . S
C359 C369 1.510 . S
C360 C356 1.401 . S
C360 C359 1.396 . S
C361 C356 1.499 . S
C361 H362 0.959 . S
C361 H363 0.960 . S
C361 H364 0.961 . S
H362 C361 0.959 . S
H363 C361 0.960 . S
H364 C361 0.961 . S
O365 Co340 1.967 . S
O365 C373 1.258 . S
O366 Co341 1.941 . S
O366 C373 1.266 . S
H367 C369 0.959 . S
H368 C369 0.961 . S
C369 C359 1.510 . S
C369 H367 0.959 . S
C369 H368 0.961 . S
C369 H370 0.960 . S
H370 C369 0.960 . S
H371 N351 0.862 . S
O372 Co340 1.920 . S
O372 C345 1.289 . S
C373 O365 1.258 . S
C373 O366 1.266 . S
Co374 O377 1.970 . S
Co374 N391 1.989 . S
Co374 O399 1.967 . S
Co374 O406 1.920 . S
Co375 O378 1.966 . S
Co375 N384 2.022 . S
Co375 N392 1.993 . S
Co375 O400 1.941 . S
C376 O377 1.258 . S
C376 O378 1.263 . S
O377 Co374 1.970 . S
O377 C376 1.258 . S
O378 Co375 1.966 . S
O378 C376 1.263 . S
C379 O380 1.235 . S
C379 O406 1.289 . S
O380 C379 1.235 . S
C381 C383 1.400 . S
C381 N384 1.351 1_565 S
C381 C386 1.501 . S
C382 C383 1.387 . S
C382 N385 1.341 1_565 S
C383 C381 1.400 . S
C383 C382 1.387 . S
N384 Co375 2.022 . S
N384 C381 1.351 1_545 S
N384 N385 1.365 . S
N385 C382 1.341 1_545 S
N385 N384 1.365 . S
N385 H405 0.862 . S
C386 C381 1.501 . S
C386 H387 0.961 . S
C386 H388 0.961 . S
C386 H389 0.960 . S
H387 C386 0.961 . S
H388 C386 0.961 . S
H389 C386 0.960 . S
C390 N391 1.342 . S
C390 C394 1.401 . S
C390 C395 1.499 . S
N391 Co374 1.989 . S
N391 C390 1.342 . S
N391 N392 1.388 . S
N392 Co375 1.993 . S
N392 N391 1.388 . S
N392 C393 1.346 . S
C393 N392 1.346 . S
C393 C394 1.396 . S
C393 C403 1.510 1_545 S
C394 C390 1.401 . S
C394 C393 1.396 . S
C395 C390 1.499 . S
C395 H396 0.959 . S
C395 H397 0.960 . S
C395 H398 0.961 . S
H396 C395 0.959 . S
H397 C395 0.960 . S
H398 C395 0.961 . S
O399 Co374 1.967 . S
O399 C407 1.258 . S
O400 Co375 1.941 . S
O400 C407 1.266 . S
H401 C403 0.959 . S
H402 C403 0.961 . S
C403 C393 1.510 1_565 S
C403 H401 0.959 . S
C403 H402 0.961 . S
C403 H404 0.960 . S
H404 C403 0.960 . S
H405 N385 0.862 . S
O406 Co374 1.920 . S
O406 C379 1.289 . S
C407 O399 1.258 . S
C407 O400 1.266 . S
Co408 O411 1.970 . S
Co408 N425 1.989 . S
Co408 O433 1.967 . S
Co408 O440 1.920 . S
Co409 O412 1.966 . S
Co409 N418 2.022 . S
Co409 N426 1.993 . S
Co409 O434 1.941 . S
C410 O411 1.258 . S
C410 O412 1.263 . S
O411 Co408 1.970 . S
O411 C410 1.258 . S
O412 Co409 1.966 . S
O412 C410 1.263 . S
C413 O414 1.235 . S
C413 O440 1.289 . S
O414 C413 1.235 . S
C415 C417 1.400 . S
C415 N418 1.351 . S
C415 C420 1.501 . S
C416 C417 1.387 . S
C416 N419 1.341 . S
C417 C415 1.400 . S
C417 C416 1.387 . S
N418 Co409 2.022 . S
N418 C415 1.351 . S
N418 N419 1.365 . S
N419 C416 1.341 . S
N419 N418 1.365 . S
N419 H439 0.862 . S
C420 C415 1.501 . S
C420 H421 0.961 . S
C420 H422 0.961 . S
C420 H423 0.960 . S
H421 C420 0.961 . S
H422 C420 0.961 . S
H423 C420 0.960 . S
C424 N425 1.342 . S
C424 C428 1.401 . S
C424 C429 1.499 . S
N425 Co408 1.989 . S
N425 C424 1.342 . S
N425 N426 1.388 . S
N426 Co409 1.993 . S
N426 N425 1.388 . S
N426 C427 1.346 . S
C427 N426 1.346 . S
C427 C428 1.396 . S
C427 C437 1.510 . S
C428 C424 1.401 . S
C428 C427 1.396 . S
C429 C424 1.499 . S
C429 H430 0.959 . S
C429 H431 0.960 . S
C429 H432 0.961 . S
H430 C429 0.959 . S
H431 C429 0.960 . S
H432 C429 0.961 . S
O433 Co408 1.967 . S
O433 C441 1.258 . S
O434 Co409 1.941 . S
O434 C441 1.266 . S
H435 C437 0.959 . S
H436 C437 0.961 . S
C437 C427 1.510 . S
C437 H435 0.959 . S
C437 H436 0.961 . S
C437 H438 0.960 . S
H438 C437 0.960 . S
H439 N419 0.862 . S
O440 Co408 1.920 . S
O440 C413 1.289 . S
C441 O433 1.258 . S
C441 O434 1.266 . S
Co442 O445 1.970 . S
Co442 N459 1.989 . S
Co442 O467 1.967 . S
Co442 O474 1.920 . S
Co443 O446 1.966 . S
Co443 N452 2.022 . S
Co443 N460 1.993 . S
Co443 O468 1.941 . S
C444 O445 1.258 . S
C444 O446 1.263 . S
O445 Co442 1.970 . S
O445 C444 1.258 . S
O446 Co443 1.966 . S
O446 C444 1.263 . S
C447 O448 1.235 . S
C447 O474 1.289 . S
O448 C447 1.235 . S
C449 C451 1.400 . S
C449 N452 1.351 1_545 S
C449 C454 1.501 . S
C450 C451 1.387 . S
C450 N453 1.341 1_545 S
C451 C449 1.400 . S
C451 C450 1.387 . S
N452 Co443 2.022 . S
N452 C449 1.351 1_565 S
N452 N453 1.365 . S
N453 C450 1.341 1_565 S
N453 N452 1.365 . S
N453 H473 0.862 . S
C454 C449 1.501 . S
C454 H455 0.961 . S
C454 H456 0.961 . S
C454 H457 0.960 . S
H455 C454 0.961 . S
H456 C454 0.961 . S
H457 C454 0.960 . S
C458 N459 1.342 . S
C458 C462 1.401 . S
C458 C463 1.499 . S
N459 Co442 1.989 . S
N459 C458 1.342 . S
N459 N460 1.388 . S
N460 Co443 1.993 . S
N460 N459 1.388 . S
N460 C461 1.346 . S
C461 N460 1.346 . S
C461 C462 1.396 . S
C461 C471 1.510 1_565 S
C462 C458 1.401 . S
C462 C461 1.396 . S
C463 C458 1.499 . S
C463 H464 0.959 . S
C463 H465 0.960 . S
C463 H466 0.961 . S
H464 C463 0.959 . S
H465 C463 0.960 . S
H466 C463 0.961 . S
O467 Co442 1.967 . S
O467 C475 1.258 . S
O468 Co443 1.941 . S
O468 C475 1.266 . S
H469 C471 0.959 . S
H470 C471 0.961 . S
C471 C461 1.510 1_545 S
C471 H469 0.959 . S
C471 H470 0.961 . S
C471 H472 0.960 . S
H472 C471 0.960 . S
H473 N453 0.862 . S
O474 Co442 1.920 . S
O474 C447 1.289 . S
C475 O467 1.258 . S
C475 O468 1.266 . S
Co476 O479 1.970 . S
Co476 N493 1.989 . S
Co476 O501 1.967 . S
Co476 O508 1.920 . S
Co477 O480 1.966 . S
Co477 N486 2.022 . S
Co477 N494 1.993 . S
Co477 O502 1.941 . S
C478 O479 1.258 . S
C478 O480 1.263 . S
O479 Co476 1.970 . S
O479 C478 1.258 . S
O480 Co477 1.966 . S
O480 C478 1.263 . S
C481 O482 1.235 . S
C481 O508 1.289 . S
O482 C481 1.235 . S
C483 C485 1.400 . S
C483 N486 1.351 . S
C483 C488 1.501 . S
C484 C485 1.387 . S
C484 N487 1.341 . S
C485 C483 1.400 . S
C485 C484 1.387 . S
N486 Co477 2.022 . S
N486 C483 1.351 . S
N486 N487 1.365 . S
N487 C484 1.341 . S
N487 N486 1.365 . S
N487 H507 0.862 . S
C488 C483 1.501 . S
C488 H489 0.961 . S
C488 H490 0.961 . S
C488 H491 0.960 . S
H489 C488 0.961 . S
H490 C488 0.961 . S
H491 C488 0.960 . S
C492 N493 1.342 . S
C492 C496 1.401 . S
C492 C497 1.499 . S
N493 Co476 1.989 . S
N493 C492 1.342 . S
N493 N494 1.388 . S
N494 Co477 1.993 . S
N494 N493 1.388 . S
N494 C495 1.346 . S
C495 N494 1.346 . S
C495 C496 1.396 . S
C495 C505 1.510 . S
C496 C492 1.401 . S
C496 C495 1.396 . S
C497 C492 1.499 . S
C497 H498 0.959 . S
C497 H499 0.960 . S
C497 H500 0.961 . S
H498 C497 0.959 . S
H499 C497 0.960 . S
H500 C497 0.961 . S
O501 Co476 1.967 . S
O501 C509 1.258 . S
O502 Co477 1.941 . S
O502 C509 1.266 . S
H503 C505 0.959 . S
H504 C505 0.961 . S
C505 C495 1.510 . S
C505 H503 0.959 . S
C505 H504 0.961 . S
C505 H506 0.960 . S
H506 C505 0.960 . S
H507 N487 0.862 . S
O508 Co476 1.920 . S
O508 C481 1.289 . S
C509 O501 1.258 . S
C509 O502 1.266 . S
Co510 O513 1.970 . S
Co510 N527 1.989 . S
Co510 O535 1.967 . S
Co510 O542 1.920 1_455 S
Co511 O514 1.966 . S
Co511 N520 2.022 . S
Co511 N528 1.993 . S
Co511 O536 1.941 . S
C512 O513 1.258 . S
C512 O514 1.263 . S
O513 Co510 1.970 . S
O513 C512 1.258 . S
O514 Co511 1.966 . S
O514 C512 1.263 . S
C515 O516 1.235 . S
C515 O542 1.289 . S
O516 C515 1.235 . S
C517 C519 1.400 . S
C517 N520 1.351 1_565 S
C517 C522 1.501 . S
C518 C519 1.387 . S
C518 N521 1.341 1_565 S
C519 C517 1.400 . S
C519 C518 1.387 . S
N520 Co511 2.022 . S
N520 C517 1.351 1_545 S
N520 N521 1.365 . S
N521 C518 1.341 1_545 S
N521 N520 1.365 . S
N521 H541 0.862 . S
C522 C517 1.501 . S
C522 H523 0.961 . S
C522 H524 0.961 . S
C522 H525 0.960 . S
H523 C522 0.961 . S
H524 C522 0.961 . S
H525 C522 0.960 . S
C526 N527 1.342 . S
C526 C530 1.401 . S
C526 C531 1.499 1_455 S
N527 Co510 1.989 . S
N527 C526 1.342 . S
N527 N528 1.388 . S
N528 Co511 1.993 . S
N528 N527 1.388 . S
N528 C529 1.346 . S
C529 N528 1.346 . S
C529 C530 1.396 . S
C529 C539 1.510 1_545 S
C530 C526 1.401 . S
C530 C529 1.396 . S
C531 C526 1.499 1_655 S
C531 H532 0.959 . S
C531 H533 0.960 . S
C531 H534 0.961 . S
H532 C531 0.959 . S
H533 C531 0.960 . S
H534 C531 0.961 . S
O535 Co510 1.967 . S
O535 C543 1.258 . S
O536 Co511 1.941 . S
O536 C543 1.266 . S
H537 C539 0.959 . S
H538 C539 0.961 . S
C539 C529 1.510 1_565 S
C539 H537 0.959 . S
C539 H538 0.961 . S
C539 H540 0.960 . S
H540 C539 0.960 . S
H541 N521 0.862 . S
O542 Co510 1.920 1_655 S
O542 C515 1.289 . S
C543 O535 1.258 . S
C543 O536 1.266 . S
Co544 O547 1.970 . S
Co544 N561 1.989 . S
Co544 O569 1.967 . S
Co544 O576 1.920 . S
Co545 O548 1.966 . S
Co545 N554 2.022 . S
Co545 N562 1.993 . S
Co545 O570 1.941 . S
C546 O547 1.258 . S
C546 O548 1.263 . S
O547 Co544 1.970 . S
O547 C546 1.258 . S
O548 Co545 1.966 . S
O548 C546 1.263 . S
C549 O550 1.235 . S
C549 O576 1.289 . S
O550 C549 1.235 . S
C551 C553 1.400 . S
C551 N554 1.351 . S
C551 C556 1.501 . S
C552 C553 1.387 . S
C552 N555 1.341 . S
C553 C551 1.400 . S
C553 C552 1.387 . S
N554 Co545 2.022 . S
N554 C551 1.351 . S
N554 N555 1.365 . S
N555 C552 1.341 . S
N555 N554 1.365 . S
N555 H575 0.862 . S
C556 C551 1.501 . S
C556 H557 0.961 . S
C556 H558 0.961 . S
C556 H559 0.960 . S
H557 C556 0.961 . S
H558 C556 0.961 . S
H559 C556 0.960 . S
C560 N561 1.342 . S
C560 C564 1.401 . S
C560 C565 1.499 . S
N561 Co544 1.989 . S
N561 C560 1.342 . S
N561 N562 1.388 . S
N562 Co545 1.993 . S
N562 N561 1.388 . S
N562 C563 1.346 . S
C563 N562 1.346 . S
C563 C564 1.396 . S
C563 C573 1.510 . S
C564 C560 1.401 . S
C564 C563 1.396 . S
C565 C560 1.499 . S
C565 H566 0.959 . S
C565 H567 0.960 . S
C565 H568 0.961 . S
H566 C565 0.959 . S
H567 C565 0.960 . S
H568 C565 0.961 . S
O569 Co544 1.967 . S
O569 C577 1.258 . S
O570 Co545 1.941 . S
O570 C577 1.266 . S
H571 C573 0.959 . S
H572 C573 0.961 . S
C573 C563 1.510 . S
C573 H571 0.959 . S
C573 H572 0.961 . S
C573 H574 0.960 . S
H574 C573 0.960 . S
H575 N555 0.862 . S
O576 Co544 1.920 . S
O576 C549 1.289 . S
C577 O569 1.258 . S
C577 O570 1.266 . S
Co578 O581 1.970 . S
Co578 N595 1.989 . S
Co578 O603 1.967 . S
Co578 O610 1.920 . S
Co579 O582 1.966 . S
Co579 N588 2.022 . S
Co579 N596 1.993 . S
Co579 O604 1.941 . S
C580 O581 1.258 . S
C580 O582 1.263 . S
O581 Co578 1.970 . S
O581 C580 1.258 . S
O582 Co579 1.966 . S
O582 C580 1.263 . S
C583 O584 1.235 . S
C583 O610 1.289 . S
O584 C583 1.235 . S
C585 C587 1.400 . S
C585 N588 1.351 . S
C585 C590 1.501 . S
C586 C587 1.387 . S
C586 N589 1.341 . S
C587 C585 1.400 . S
C587 C586 1.387 . S
N588 Co579 2.022 . S
N588 C585 1.351 . S
N588 N589 1.365 . S
N589 C586 1.341 . S
N589 N588 1.365 . S
N589 H609 0.862 . S
C590 C585 1.501 . S
C590 H591 0.961 . S
C590 H592 0.961 . S
C590 H593 0.960 . S
H591 C590 0.961 . S
H592 C590 0.961 . S
H593 C590 0.960 . S
C594 N595 1.342 . S
C594 C598 1.401 . S
C594 C599 1.499 . S
N595 Co578 1.989 . S
N595 C594 1.342 . S
N595 N596 1.388 . S
N596 Co579 1.993 . S
N596 N595 1.388 . S
N596 C597 1.346 . S
C597 N596 1.346 . S
C597 C598 1.396 . S
C597 C607 1.510 . S
C598 C594 1.401 . S
C598 C597 1.396 . S
C599 C594 1.499 . S
C599 H600 0.959 . S
C599 H601 0.960 . S
C599 H602 0.961 . S
H600 C599 0.959 . S
H601 C599 0.960 . S
H602 C599 0.961 . S
O603 Co578 1.967 . S
O603 C611 1.258 . S
O604 Co579 1.941 . S
O604 C611 1.266 . S
H605 C607 0.959 . S
H606 C607 0.961 . S
C607 C597 1.510 . S
C607 H605 0.959 . S
C607 H606 0.961 . S
C607 H608 0.960 . S
H608 C607 0.960 . S
H609 N589 0.862 . S
O610 Co578 1.920 . S
O610 C583 1.289 . S
C611 O603 1.258 . S
C611 O604 1.266 . S
Co612 O615 1.970 . S
Co612 N629 1.989 . S
Co612 O637 1.967 . S
Co612 O644 1.920 . S
Co613 O616 1.966 . S
Co613 N622 2.022 . S
Co613 N630 1.993 . S
Co613 O638 1.941 . S
C614 O615 1.258 . S
C614 O616 1.263 . S
O615 Co612 1.970 . S
O615 C614 1.258 . S
O616 Co613 1.966 . S
O616 C614 1.263 . S
C617 O618 1.235 . S
C617 O644 1.289 . S
O618 C617 1.235 . S
C619 C621 1.400 . S
C619 N622 1.351 . S
C619 C624 1.501 . S
C620 C621 1.387 . S
C620 N623 1.341 . S
C621 C619 1.400 . S
C621 C620 1.387 . S
N622 Co613 2.022 . S
N622 C619 1.351 . S
N622 N623 1.365 . S
N623 C620 1.341 . S
N623 N622 1.365 . S
N623 H643 0.862 . S
C624 C619 1.501 . S
C624 H625 0.961 . S
C624 H626 0.961 . S
C624 H627 0.960 . S
H625 C624 0.961 . S
H626 C624 0.961 . S
H627 C624 0.960 . S
C628 N629 1.342 . S
C628 C632 1.401 . S
C628 C633 1.499 . S
N629 Co612 1.989 . S
N629 C628 1.342 . S
N629 N630 1.388 . S
N630 Co613 1.993 . S
N630 N629 1.388 . S
N630 C631 1.346 . S
C631 N630 1.346 . S
C631 C632 1.396 . S
C631 C641 1.510 . S
C632 C628 1.401 . S
C632 C631 1.396 . S
C633 C628 1.499 . S
C633 H634 0.959 . S
C633 H635 0.960 . S
C633 H636 0.961 . S
H634 C633 0.959 . S
H635 C633 0.960 . S
H636 C633 0.961 . S
O637 Co612 1.967 . S
O637 C645 1.258 . S
O638 Co613 1.941 . S
O638 C645 1.266 . S
H639 C641 0.959 . S
H640 C641 0.961 . S
C641 C631 1.510 . S
C641 H639 0.959 . S
C641 H640 0.961 . S
C641 H642 0.960 . S
H642 C641 0.960 . S
H643 N623 0.862 . S
O644 Co612 1.920 . S
O644 C617 1.289 . S
C645 O637 1.258 . S
C645 O638 1.266 . S
Co646 O649 1.970 . S
Co646 N663 1.989 . S
Co646 O671 1.967 . S
Co646 O678 1.920 1_455 S
Co647 O650 1.966 . S
Co647 N656 2.022 . S
Co647 N664 1.993 . S
Co647 O672 1.941 . S
C648 O649 1.258 . S
C648 O650 1.263 . S
O649 Co646 1.970 . S
O649 C648 1.258 . S
O650 Co647 1.966 . S
O650 C648 1.263 . S
C651 O652 1.235 . S
C651 O678 1.289 . S
O652 C651 1.235 . S
C653 C655 1.400 . S
C653 N656 1.351 . S
C653 C658 1.501 . S
C654 C655 1.387 . S
C654 N657 1.341 . S
C655 C653 1.400 . S
C655 C654 1.387 . S
N656 Co647 2.022 . S
N656 C653 1.351 . S
N656 N657 1.365 . S
N657 C654 1.341 . S
N657 N656 1.365 . S
N657 H677 0.862 . S
C658 C653 1.501 . S
C658 H659 0.961 . S
C658 H660 0.961 . S
C658 H661 0.960 . S
H659 C658 0.961 . S
H660 C658 0.961 . S
H661 C658 0.960 . S
C662 N663 1.342 . S
C662 C666 1.401 . S
C662 C667 1.499 1_455 S
N663 Co646 1.989 . S
N663 C662 1.342 . S
N663 N664 1.388 . S
N664 Co647 1.993 . S
N664 N663 1.388 . S
N664 C665 1.346 . S
C665 N664 1.346 . S
C665 C666 1.396 . S
C665 C675 1.510 . S
C666 C662 1.401 . S
C666 C665 1.396 . S
C667 C662 1.499 1_655 S
C667 H668 0.959 . S
C667 H669 0.960 . S
C667 H670 0.961 . S
H668 C667 0.959 . S
H669 C667 0.960 . S
H670 C667 0.961 . S
O671 Co646 1.967 . S
O671 C679 1.258 . S
O672 Co647 1.941 . S
O672 C679 1.266 . S
H673 C675 0.959 . S
H674 C675 0.961 . S
C675 C665 1.510 . S
C675 H673 0.959 . S
C675 H674 0.961 . S
C675 H676 0.960 . S
H676 C675 0.960 . S
H677 N657 0.862 . S
O678 Co646 1.920 1_655 S
O678 C651 1.289 . S
C679 O671 1.258 . S
C679 O672 1.266 . S
Co680 O683 1.970 . S
Co680 N697 1.989 . S
Co680 O705 1.967 . S
Co680 O712 1.920 . S
Co681 O684 1.966 . S
Co681 N690 2.022 . S
Co681 N698 1.993 . S
Co681 O706 1.941 . S
C682 O683 1.258 . S
C682 O684 1.263 . S
O683 Co680 1.970 . S
O683 C682 1.258 . S
O684 Co681 1.966 . S
O684 C682 1.263 . S
C685 O686 1.235 . S
C685 O712 1.289 . S
O686 C685 1.235 . S
C687 C689 1.400 . S
C687 N690 1.351 . S
C687 C692 1.501 . S
C688 C689 1.387 . S
C688 N691 1.341 . S
C689 C687 1.400 . S
C689 C688 1.387 . S
N690 Co681 2.022 . S
N690 C687 1.351 . S
N690 N691 1.365 . S
N691 C688 1.341 . S
N691 N690 1.365 . S
N691 H711 0.862 . S
C692 C687 1.501 . S
C692 H693 0.961 . S
C692 H694 0.961 . S
C692 H695 0.960 . S
H693 C692 0.961 . S
H694 C692 0.961 . S
H695 C692 0.960 . S
C696 N697 1.342 . S
C696 C700 1.401 . S
C696 C701 1.499 . S
N697 Co680 1.989 . S
N697 C696 1.342 . S
N697 N698 1.388 . S
N698 Co681 1.993 . S
N698 N697 1.388 . S
N698 C699 1.346 . S
C699 N698 1.346 . S
C699 C700 1.396 . S
C699 C709 1.510 . S
C700 C696 1.401 . S
C700 C699 1.396 . S
C701 C696 1.499 . S
C701 H702 0.959 . S
C701 H703 0.960 . S
C701 H704 0.961 . S
H702 C701 0.959 . S
H703 C701 0.960 . S
H704 C701 0.961 . S
O705 Co680 1.967 . S
O705 C713 1.258 . S
O706 Co681 1.941 . S
O706 C713 1.266 . S
H707 C709 0.959 . S
H708 C709 0.961 . S
C709 C699 1.510 . S
C709 H707 0.959 . S
C709 H708 0.961 . S
C709 H710 0.960 . S
H710 C709 0.960 . S
H711 N691 0.862 . S
O712 Co680 1.920 . S
O712 C685 1.289 . S
C713 O705 1.258 . S
C713 O706 1.266 . S
Co714 O717 1.970 . S
Co714 N731 1.989 . S
Co714 O739 1.967 . S
Co714 O746 1.920 1_455 S
Co715 O718 1.966 . S
Co715 N724 2.022 . S
Co715 N732 1.993 . S
Co715 O740 1.941 . S
C716 O717 1.258 . S
C716 O718 1.263 . S
O717 Co714 1.970 . S
O717 C716 1.258 . S
O718 Co715 1.966 . S
O718 C716 1.263 . S
C719 O720 1.235 . S
C719 O746 1.289 . S
O720 C719 1.235 . S
C721 C723 1.400 . S
C721 N724 1.351 . S
C721 C726 1.501 . S
C722 C723 1.387 . S
C722 N725 1.341 . S
C723 C721 1.400 . S
C723 C722 1.387 . S
N724 Co715 2.022 . S
N724 C721 1.351 . S
N724 N725 1.365 . S
N725 C722 1.341 . S
N725 N724 1.365 . S
N725 H745 0.862 . S
C726 C721 1.501 . S
C726 H727 0.961 . S
C726 H728 0.961 . S
C726 H729 0.960 . S
H727 C726 0.961 . S
H728 C726 0.961 . S
H729 C726 0.960 . S
C730 N731 1.342 . S
C730 C734 1.401 . S
C730 C735 1.499 1_455 S
N731 Co714 1.989 . S
N731 C730 1.342 . S
N731 N732 1.388 . S
N732 Co715 1.993 . S
N732 N731 1.388 . S
N732 C733 1.346 . S
C733 N732 1.346 . S
C733 C734 1.396 . S
C733 C743 1.510 . S
C734 C730 1.401 . S
C734 C733 1.396 . S
C735 C730 1.499 1_655 S
C735 H736 0.959 . S
C735 H737 0.960 . S
C735 H738 0.961 . S
H736 C735 0.959 . S
H737 C735 0.960 . S
H738 C735 0.961 . S
O739 Co714 1.967 . S
O739 C747 1.258 . S
O740 Co715 1.941 . S
O740 C747 1.266 . S
H741 C743 0.959 . S
H742 C743 0.961 . S
C743 C733 1.510 . S
C743 H741 0.959 . S
C743 H742 0.961 . S
C743 H744 0.960 . S
H744 C743 0.960 . S
H745 N725 0.862 . S
O746 Co714 1.920 1_655 S
O746 C719 1.289 . S
C747 O739 1.258 . S
C747 O740 1.266 . S
Co748 O751 1.970 . S
Co748 N765 1.989 . S
Co748 O773 1.967 . S
Co748 O780 1.920 . S
Co749 O752 1.966 . S
Co749 N758 2.022 . S
Co749 N766 1.993 . S
Co749 O774 1.941 . S
C750 O751 1.258 . S
C750 O752 1.263 . S
O751 Co748 1.970 . S
O751 C750 1.258 . S
O752 Co749 1.966 . S
O752 C750 1.263 . S
C753 O754 1.235 . S
C753 O780 1.289 . S
O754 C753 1.235 . S
C755 C757 1.400 . S
C755 N758 1.351 . S
C755 C760 1.501 . S
C756 C757 1.387 . S
C756 N759 1.341 . S
C757 C755 1.400 . S
C757 C756 1.387 . S
N758 Co749 2.022 . S
N758 C755 1.351 . S
N758 N759 1.365 . S
N759 C756 1.341 . S
N759 N758 1.365 . S
N759 H779 0.862 . S
C760 C755 1.501 . S
C760 H761 0.961 . S
C760 H762 0.961 . S
C760 H763 0.960 . S
H761 C760 0.961 . S
H762 C760 0.961 . S
H763 C760 0.960 . S
C764 N765 1.342 . S
C764 C768 1.401 . S
C764 C769 1.499 . S
N765 Co748 1.989 . S
N765 C764 1.342 . S
N765 N766 1.388 . S
N766 Co749 1.993 . S
N766 N765 1.388 . S
N766 C767 1.346 . S
C767 N766 1.346 . S
C767 C768 1.396 . S
C767 C777 1.510 . S
C768 C764 1.401 . S
C768 C767 1.396 . S
C769 C764 1.499 . S
C769 H770 0.959 . S
C769 H771 0.960 . S
C769 H772 0.961 . S
H770 C769 0.959 . S
H771 C769 0.960 . S
H772 C769 0.961 . S
O773 Co748 1.967 . S
O773 C781 1.258 . S
O774 Co749 1.941 . S
O774 C781 1.266 . S
H775 C777 0.959 . S
H776 C777 0.961 . S
C777 C767 1.510 . S
C777 H775 0.959 . S
C777 H776 0.961 . S
C777 H778 0.960 . S
H778 C777 0.960 . S
H779 N759 0.862 . S
O780 Co748 1.920 . S
O780 C753 1.289 . S
C781 O773 1.258 . S
C781 O774 1.266 . S
Co782 O785 1.970 . S
Co782 N799 1.989 . S
Co782 O807 1.967 . S
Co782 O814 1.920 . S
Co783 O786 1.966 . S
Co783 N792 2.022 . S
Co783 N800 1.993 . S
Co783 O808 1.941 . S
C784 O785 1.258 . S
C784 O786 1.263 . S
O785 Co782 1.970 . S
O785 C784 1.258 . S
O786 Co783 1.966 . S
O786 C784 1.263 . S
C787 O788 1.235 . S
C787 O814 1.289 . S
O788 C787 1.235 . S
C789 C791 1.400 . S
C789 N792 1.351 . S
C789 C794 1.501 . S
C790 C791 1.387 . S
C790 N793 1.341 . S
C791 C789 1.400 . S
C791 C790 1.387 . S
N792 Co783 2.022 . S
N792 C789 1.351 . S
N792 N793 1.365 . S
N793 C790 1.341 . S
N793 N792 1.365 . S
N793 H813 0.862 . S
C794 C789 1.501 . S
C794 H795 0.961 . S
C794 H796 0.961 . S
C794 H797 0.960 . S
H795 C794 0.961 . S
H796 C794 0.961 . S
H797 C794 0.960 . S
C798 N799 1.342 . S
C798 C802 1.401 . S
C798 C803 1.499 . S
N799 Co782 1.989 . S
N799 C798 1.342 . S
N799 N800 1.388 . S
N800 Co783 1.993 . S
N800 N799 1.388 . S
N800 C801 1.346 . S
C801 N800 1.346 . S
C801 C802 1.396 . S
C801 C811 1.510 . S
C802 C798 1.401 . S
C802 C801 1.396 . S
C803 C798 1.499 . S
C803 H804 0.959 . S
C803 H805 0.960 . S
C803 H806 0.961 . S
H804 C803 0.959 . S
H805 C803 0.960 . S
H806 C803 0.961 . S
O807 Co782 1.967 . S
O807 C815 1.258 . S
O808 Co783 1.941 . S
O808 C815 1.266 . S
H809 C811 0.959 . S
H810 C811 0.961 . S
C811 C801 1.510 . S
C811 H809 0.959 . S
C811 H810 0.961 . S
C811 H812 0.960 . S
H812 C811 0.960 . S
H813 N793 0.862 . S
O814 Co782 1.920 . S
O814 C787 1.289 . S
C815 O807 1.258 . S
C815 O808 1.266 . S
Co816 O819 1.970 . S
Co816 N833 1.989 . S
Co816 O841 1.967 . S
Co816 O848 1.920 . S
Co817 O820 1.966 . S
Co817 N826 2.022 . S
Co817 N834 1.993 . S
Co817 O842 1.941 . S
C818 O819 1.258 . S
C818 O820 1.263 . S
O819 Co816 1.970 . S
O819 C818 1.258 . S
O820 Co817 1.966 . S
O820 C818 1.263 . S
C821 O822 1.235 . S
C821 O848 1.289 . S
O822 C821 1.235 . S
C823 C825 1.400 . S
C823 N826 1.351 . S
C823 C828 1.501 . S
C824 C825 1.387 . S
C824 N827 1.341 . S
C825 C823 1.400 . S
C825 C824 1.387 . S
N826 Co817 2.022 . S
N826 C823 1.351 . S
N826 N827 1.365 . S
N827 C824 1.341 . S
N827 N826 1.365 . S
N827 H847 0.862 . S
C828 C823 1.501 . S
C828 H829 0.961 . S
C828 H830 0.961 . S
C828 H831 0.960 . S
H829 C828 0.961 . S
H830 C828 0.961 . S
H831 C828 0.960 . S
C832 N833 1.342 . S
C832 C836 1.401 . S
C832 C837 1.499 . S
N833 Co816 1.989 . S
N833 C832 1.342 . S
N833 N834 1.388 . S
N834 Co817 1.993 . S
N834 N833 1.388 . S
N834 C835 1.346 . S
C835 N834 1.346 . S
C835 C836 1.396 . S
C835 C845 1.510 . S
C836 C832 1.401 . S
C836 C835 1.396 . S
C837 C832 1.499 . S
C837 H838 0.959 . S
C837 H839 0.960 . S
C837 H840 0.961 . S
H838 C837 0.959 . S
H839 C837 0.960 . S
H840 C837 0.961 . S
O841 Co816 1.967 . S
O841 C849 1.258 . S
O842 Co817 1.941 . S
O842 C849 1.266 . S
H843 C845 0.959 . S
H844 C845 0.961 . S
C845 C835 1.510 . S
C845 H843 0.959 . S
C845 H844 0.961 . S
C845 H846 0.960 . S
H846 C845 0.960 . S
H847 N827 0.862 . S
O848 Co816 1.920 . S
O848 C821 1.289 . S
C849 O841 1.258 . S
C849 O842 1.266 . S
Co850 O853 1.970 . S
Co850 N867 1.989 . S
Co850 O875 1.967 . S
Co850 O882 1.920 . S
Co851 O854 1.966 . S
Co851 N860 2.022 . S
Co851 N868 1.993 . S
Co851 O876 1.941 . S
C852 O853 1.258 . S
C852 O854 1.263 . S
O853 Co850 1.970 . S
O853 C852 1.258 . S
O854 Co851 1.966 . S
O854 C852 1.263 . S
C855 O856 1.235 . S
C855 O882 1.289 . S
O856 C855 1.235 . S
C857 C859 1.400 . S
C857 N860 1.351 . S
C857 C862 1.501 . S
C858 C859 1.387 . S
C858 N861 1.341 . S
C859 C857 1.400 . S
C859 C858 1.387 . S
N860 Co851 2.022 . S
N860 C857 1.351 . S
N860 N861 1.365 . S
N861 C858 1.341 . S
N861 N860 1.365 . S
N861 H881 0.862 . S
C862 C857 1.501 . S
C862 H863 0.961 . S
C862 H864 0.961 . S
C862 H865 0.960 . S
H863 C862 0.961 . S
H864 C862 0.961 . S
H865 C862 0.960 . S
C866 N867 1.342 . S
C866 C870 1.401 . S
C866 C871 1.499 . S
N867 Co850 1.989 . S
N867 C866 1.342 . S
N867 N868 1.388 . S
N868 Co851 1.993 . S
N868 N867 1.388 . S
N868 C869 1.346 . S
C869 N868 1.346 . S
C869 C870 1.396 . S
C869 C879 1.510 . S
C870 C866 1.401 . S
C870 C869 1.396 . S
C871 C866 1.499 . S
C871 H872 0.959 . S
C871 H873 0.960 . S
C871 H874 0.961 . S
H872 C871 0.959 . S
H873 C871 0.960 . S
H874 C871 0.961 . S
O875 Co850 1.967 . S
O875 C883 1.258 . S
O876 Co851 1.941 . S
O876 C883 1.266 . S
H877 C879 0.959 . S
H878 C879 0.961 . S
C879 C869 1.510 . S
C879 H877 0.959 . S
C879 H878 0.961 . S
C879 H880 0.960 . S
H880 C879 0.960 . S
H881 N861 0.862 . S
O882 Co850 1.920 . S
O882 C855 1.289 . S
C883 O875 1.258 . S
C883 O876 1.266 . S
Co884 O887 1.970 . S
Co884 N901 1.989 . S
Co884 O909 1.967 . S
Co884 O916 1.920 . S
Co885 O888 1.966 . S
Co885 N894 2.022 . S
Co885 N902 1.993 . S
Co885 O910 1.941 . S
C886 O887 1.258 . S
C886 O888 1.263 . S
O887 Co884 1.970 . S
O887 C886 1.258 . S
O888 Co885 1.966 . S
O888 C886 1.263 . S
C889 O890 1.235 . S
C889 O916 1.289 . S
O890 C889 1.235 . S
C891 C893 1.400 . S
C891 N894 1.351 . S
C891 C896 1.501 . S
C892 C893 1.387 . S
C892 N895 1.341 . S
C893 C891 1.400 . S
C893 C892 1.387 . S
N894 Co885 2.022 . S
N894 C891 1.351 . S
N894 N895 1.365 . S
N895 C892 1.341 . S
N895 N894 1.365 . S
N895 H915 0.862 . S
C896 C891 1.501 . S
C896 H897 0.961 . S
C896 H898 0.961 . S
C896 H899 0.960 . S
H897 C896 0.961 . S
H898 C896 0.961 . S
H899 C896 0.960 . S
C900 N901 1.342 . S
C900 C904 1.401 . S
C900 C905 1.499 . S
N901 Co884 1.989 . S
N901 C900 1.342 . S
N901 N902 1.388 . S
N902 Co885 1.993 . S
N902 N901 1.388 . S
N902 C903 1.346 . S
C903 N902 1.346 . S
C903 C904 1.396 . S
C903 C913 1.510 . S
C904 C900 1.401 . S
C904 C903 1.396 . S
C905 C900 1.499 . S
C905 H906 0.959 . S
C905 H907 0.960 . S
C905 H908 0.961 . S
H906 C905 0.959 . S
H907 C905 0.960 . S
H908 C905 0.961 . S
O909 Co884 1.967 . S
O909 C917 1.258 . S
O910 Co885 1.941 . S
O910 C917 1.266 . S
H911 C913 0.959 . S
H912 C913 0.961 . S
C913 C903 1.510 . S
C913 H911 0.959 . S
C913 H912 0.961 . S
C913 H914 0.960 . S
H914 C913 0.960 . S
H915 N895 0.862 . S
O916 Co884 1.920 . S
O916 C889 1.289 . S
C917 O909 1.258 . S
C917 O910 1.266 . S
Co918 O921 1.970 . S
Co918 N935 1.989 . S
Co918 O943 1.967 . S
Co918 O950 1.920 1_655 S
Co919 O922 1.966 . S
Co919 N928 2.022 . S
Co919 N936 1.993 . S
Co919 O944 1.941 . S
C920 O921 1.258 . S
C920 O922 1.263 . S
O921 Co918 1.970 . S
O921 C920 1.258 . S
O922 Co919 1.966 . S
O922 C920 1.263 . S
C923 O924 1.235 . S
C923 O950 1.289 . S
O924 C923 1.235 . S
C925 C927 1.400 . S
C925 N928 1.351 . S
C925 C930 1.501 . S
C926 C927 1.387 . S
C926 N929 1.341 . S
C927 C925 1.400 . S
C927 C926 1.387 . S
N928 Co919 2.022 . S
N928 C925 1.351 . S
N928 N929 1.365 . S
N929 C926 1.341 . S
N929 N928 1.365 . S
N929 H949 0.862 . S
C930 C925 1.501 . S
C930 H931 0.961 . S
C930 H932 0.961 . S
C930 H933 0.960 . S
H931 C930 0.961 . S
H932 C930 0.961 . S
H933 C930 0.960 . S
C934 N935 1.342 . S
C934 C938 1.401 . S
C934 C939 1.499 1_655 S
N935 Co918 1.989 . S
N935 C934 1.342 . S
N935 N936 1.388 . S
N936 Co919 1.993 . S
N936 N935 1.388 . S
N936 C937 1.346 . S
C937 N936 1.346 . S
C937 C938 1.396 . S
C937 C947 1.510 . S
C938 C934 1.401 . S
C938 C937 1.396 . S
C939 C934 1.499 1_455 S
C939 H940 0.959 . S
C939 H941 0.960 . S
C939 H942 0.961 . S
H940 C939 0.959 . S
H941 C939 0.960 . S
H942 C939 0.961 . S
O943 Co918 1.967 . S
O943 C951 1.258 . S
O944 Co919 1.941 . S
O944 C951 1.266 . S
H945 C947 0.959 . S
H946 C947 0.961 . S
C947 C937 1.510 . S
C947 H945 0.959 . S
C947 H946 0.961 . S
C947 H948 0.960 . S
H948 C947 0.960 . S
H949 N929 0.862 . S
O950 Co918 1.920 1_455 S
O950 C923 1.289 . S
C951 O943 1.258 . S
C951 O944 1.266 . S
Co952 O955 1.970 . S
Co952 N969 1.989 . S
Co952 O977 1.967 . S
Co952 O984 1.920 . S
Co953 O956 1.966 . S
Co953 N962 2.022 . S
Co953 N970 1.993 . S
Co953 O978 1.941 . S
C954 O955 1.258 . S
C954 O956 1.263 . S
O955 Co952 1.970 . S
O955 C954 1.258 . S
O956 Co953 1.966 . S
O956 C954 1.263 . S
C957 O958 1.235 . S
C957 O984 1.289 . S
O958 C957 1.235 . S
C959 C961 1.400 . S
C959 N962 1.351 . S
C959 C964 1.501 . S
C960 C961 1.387 . S
C960 N963 1.341 . S
C961 C959 1.400 . S
C961 C960 1.387 . S
N962 Co953 2.022 . S
N962 C959 1.351 . S
N962 N963 1.365 . S
N963 C960 1.341 . S
N963 N962 1.365 . S
N963 H983 0.862 . S
C964 C959 1.501 . S
C964 H965 0.961 . S
C964 H966 0.961 . S
C964 H967 0.960 . S
H965 C964 0.961 . S
H966 C964 0.961 . S
H967 C964 0.960 . S
C968 N969 1.342 . S
C968 C972 1.401 . S
C968 C973 1.499 . S
N969 Co952 1.989 . S
N969 C968 1.342 . S
N969 N970 1.388 . S
N970 Co953 1.993 . S
N970 N969 1.388 . S
N970 C971 1.346 . S
C971 N970 1.346 . S
C971 C972 1.396 . S
C971 C981 1.510 . S
C972 C968 1.401 . S
C972 C971 1.396 . S
C973 C968 1.499 . S
C973 H974 0.959 . S
C973 H975 0.960 . S
C973 H976 0.961 . S
H974 C973 0.959 . S
H975 C973 0.960 . S
H976 C973 0.961 . S
O977 Co952 1.967 . S
O977 C985 1.258 . S
O978 Co953 1.941 . S
O978 C985 1.266 . S
H979 C981 0.959 . S
H980 C981 0.961 . S
C981 C971 1.510 . S
C981 H979 0.959 . S
C981 H980 0.961 . S
C981 H982 0.960 . S
H982 C981 0.960 . S
H983 N963 0.862 . S
O984 Co952 1.920 . S
O984 C957 1.289 . S
C985 O977 1.258 . S
C985 O978 1.266 . S
Co986 O989 1.970 . S
Co986 N1003 1.989 . S
Co986 O1011 1.967 . S
Co986 O1018 1.920 1_655 S
Co987 O990 1.966 . S
Co987 N996 2.022 . S
Co987 N1004 1.993 . S
Co987 O1012 1.941 . S
C988 O989 1.258 . S
C988 O990 1.263 . S
O989 Co986 1.970 . S
O989 C988 1.258 . S
O990 Co987 1.966 . S
O990 C988 1.263 . S
C991 O992 1.235 . S
C991 O1018 1.289 . S
O992 C991 1.235 . S
C993 C995 1.400 . S
C993 N996 1.351 . S
C993 C998 1.501 . S
C994 C995 1.387 . S
C994 N997 1.341 . S
C995 C993 1.400 . S
C995 C994 1.387 . S
N996 Co987 2.022 . S
N996 C993 1.351 . S
N996 N997 1.365 . S
N997 C994 1.341 . S
N997 N996 1.365 . S
N997 H1017 0.862 . S
C998 C993 1.501 . S
C998 H999 0.961 . S
C998 H1000 0.961 . S
C998 H1001 0.960 . S
H999 C998 0.961 . S
H1000 C998 0.961 . S
H1001 C998 0.960 . S
C1002 N1003 1.342 . S
C1002 C1006 1.401 . S
C1002 C1007 1.499 1_655 S
N1003 Co986 1.989 . S
N1003 C1002 1.342 . S
N1003 N1004 1.388 . S
N1004 Co987 1.993 . S
N1004 N1003 1.388 . S
N1004 C1005 1.346 . S
C1005 N1004 1.346 . S
C1005 C1006 1.396 . S
C1005 C1015 1.510 . S
C1006 C1002 1.401 . S
C1006 C1005 1.396 . S
C1007 C1002 1.499 1_455 S
C1007 H1008 0.959 . S
C1007 H1009 0.960 . S
C1007 H1010 0.961 . S
H1008 C1007 0.959 . S
H1009 C1007 0.960 . S
H1010 C1007 0.961 . S
O1011 Co986 1.967 . S
O1011 C1019 1.258 . S
O1012 Co987 1.941 . S
O1012 C1019 1.266 . S
H1013 C1015 0.959 . S
H1014 C1015 0.961 . S
C1015 C1005 1.510 . S
C1015 H1013 0.959 . S
C1015 H1014 0.961 . S
C1015 H1016 0.960 . S
H1016 C1015 0.960 . S
H1017 N997 0.862 . S
O1018 Co986 1.920 1_455 S
O1018 C991 1.289 . S
C1019 O1011 1.258 . S
C1019 O1012 1.266 . S
Co1020 O1023 1.970 . S
Co1020 N1037 1.989 . S
Co1020 O1045 1.967 . S
Co1020 O1052 1.920 . S
Co1021 O1024 1.966 . S
Co1021 N1030 2.022 . S
Co1021 N1038 1.993 . S
Co1021 O1046 1.941 . S
C1022 O1023 1.258 . S
C1022 O1024 1.263 . S
O1023 Co1020 1.970 . S
O1023 C1022 1.258 . S
O1024 Co1021 1.966 . S
O1024 C1022 1.263 . S
C1025 O1026 1.235 . S
C1025 O1052 1.289 . S
O1026 C1025 1.235 . S
C1027 C1029 1.400 . S
C1027 N1030 1.351 . S
C1027 C1032 1.501 . S
C1028 C1029 1.387 . S
C1028 N1031 1.341 . S
C1029 C1027 1.400 . S
C1029 C1028 1.387 . S
N1030 Co1021 2.022 . S
N1030 C1027 1.351 . S
N1030 N1031 1.365 . S
N1031 C1028 1.341 . S
N1031 N1030 1.365 . S
N1031 H1051 0.862 . S
C1032 C1027 1.501 . S
C1032 H1033 0.961 . S
C1032 H1034 0.961 . S
C1032 H1035 0.960 . S
H1033 C1032 0.961 . S
H1034 C1032 0.961 . S
H1035 C1032 0.960 . S
C1036 N1037 1.342 . S
C1036 C1040 1.401 . S
C1036 C1041 1.499 . S
N1037 Co1020 1.989 . S
N1037 C1036 1.342 . S
N1037 N1038 1.388 . S
N1038 Co1021 1.993 . S
N1038 N1037 1.388 . S
N1038 C1039 1.346 . S
C1039 N1038 1.346 . S
C1039 C1040 1.396 . S
C1039 C1049 1.510 . S
C1040 C1036 1.401 . S
C1040 C1039 1.396 . S
C1041 C1036 1.499 . S
C1041 H1042 0.959 . S
C1041 H1043 0.960 . S
C1041 H1044 0.961 . S
H1042 C1041 0.959 . S
H1043 C1041 0.960 . S
H1044 C1041 0.961 . S
O1045 Co1020 1.967 . S
O1045 C1053 1.258 . S
O1046 Co1021 1.941 . S
O1046 C1053 1.266 . S
H1047 C1049 0.959 . S
H1048 C1049 0.961 . S
C1049 C1039 1.510 . S
C1049 H1047 0.959 . S
C1049 H1048 0.961 . S
C1049 H1050 0.960 . S
H1050 C1049 0.960 . S
H1051 N1031 0.862 . S
O1052 Co1020 1.920 . S
O1052 C1025 1.289 . S
C1053 O1045 1.258 . S
C1053 O1046 1.266 . S
Co1054 O1057 1.970 . S
Co1054 N1071 1.989 . S
Co1054 O1079 1.967 . S
Co1054 O1086 1.920 . S
Co1055 O1058 1.966 . S
Co1055 N1064 2.022 . S
Co1055 N1072 1.993 . S
Co1055 O1080 1.941 . S
C1056 O1057 1.258 . S
C1056 O1058 1.263 . S
O1057 Co1054 1.970 . S
O1057 C1056 1.258 . S
O1058 Co1055 1.966 . S
O1058 C1056 1.263 . S
C1059 O1060 1.235 . S
C1059 O1086 1.289 . S
O1060 C1059 1.235 . S
C1061 C1063 1.400 . S
C1061 N1064 1.351 . S
C1061 C1066 1.501 . S
C1062 C1063 1.387 . S
C1062 N1065 1.341 . S
C1063 C1061 1.400 . S
C1063 C1062 1.387 . S
N1064 Co1055 2.022 . S
N1064 C1061 1.351 . S
N1064 N1065 1.365 . S
N1065 C1062 1.341 . S
N1065 N1064 1.365 . S
N1065 H1085 0.862 . S
C1066 C1061 1.501 . S
C1066 H1067 0.961 . S
C1066 H1068 0.961 . S
C1066 H1069 0.960 . S
H1067 C1066 0.961 . S
H1068 C1066 0.961 . S
H1069 C1066 0.960 . S
C1070 N1071 1.342 . S
C1070 C1074 1.401 . S
C1070 C1075 1.499 . S
N1071 Co1054 1.989 . S
N1071 C1070 1.342 . S
N1071 N1072 1.388 . S
N1072 Co1055 1.993 . S
N1072 N1071 1.388 . S
N1072 C1073 1.346 . S
C1073 N1072 1.346 . S
C1073 C1074 1.396 . S
C1073 C1083 1.510 . S
C1074 C1070 1.401 . S
C1074 C1073 1.396 . S
C1075 C1070 1.499 . S
C1075 H1076 0.959 . S
C1075 H1077 0.960 . S
C1075 H1078 0.961 . S
H1076 C1075 0.959 . S
H1077 C1075 0.960 . S
H1078 C1075 0.961 . S
O1079 Co1054 1.967 . S
O1079 C1087 1.258 . S
O1080 Co1055 1.941 . S
O1080 C1087 1.266 . S
H1081 C1083 0.959 . S
H1082 C1083 0.961 . S
C1083 C1073 1.510 . S
C1083 H1081 0.959 . S
C1083 H1082 0.961 . S
C1083 H1084 0.960 . S
H1084 C1083 0.960 . S
H1085 N1065 0.862 . S
O1086 Co1054 1.920 . S
O1086 C1059 1.289 . S
C1087 O1079 1.258 . S
C1087 O1080 1.266 . S
C1088 C1089 1.391 . S
C1088 C1090 1.394 . S
C1088 H1104 0.931 . S
C1089 C1088 1.391 . S
C1089 C1093 1.376 . S
C1090 C1088 1.394 . S
C1090 C1091 1.369 . S
C1090 C1094 1.531 . S
C1091 C1090 1.369 . S
C1091 C1092 1.410 . S
C1091 C1099 1.503 . S
C1092 C1091 1.410 . S
C1092 C1093 1.392 . S
C1092 C1095 1.511 . S
C1093 C1089 1.376 . S
C1093 C1092 1.392 . S
C1093 H1105 0.929 . S
C1094 C1090 1.531 . S
C1094 H1106 0.960 . S
C1094 H1107 0.962 . S
C1094 H1108 0.960 . S
C1095 C1092 1.511 . S
C1095 H1109 0.961 . S
C1095 H1110 0.961 . S
C1095 H1111 0.961 . S
C1096 C1097 1.370 . S
C1096 C1098 1.363 . S
C1096 H1112 0.931 . S
C1097 C1096 1.370 . S
C1097 C1101 1.408 . S
C1098 C1096 1.363 . S
C1098 C1099 1.370 . S
C1098 C1102 1.524 . S
C1099 C1091 1.503 . S
C1099 C1098 1.370 . S
C1099 C1100 1.403 . S
C1100 C1099 1.403 . S
C1100 C1101 1.404 . S
C1100 C1103 1.539 . S
C1101 C1097 1.408 . S
C1101 C1100 1.404 . S
C1101 H1113 0.930 . S
C1102 C1098 1.524 . S
C1102 H1114 0.956 . S
C1102 H1115 0.961 . S
C1102 H1116 0.961 . S
C1103 C1100 1.539 . S
C1103 H1117 0.958 . S
C1103 H1118 0.961 . S
C1103 H1119 0.960 . S
H1104 C1088 0.931 . S
H1105 C1093 0.929 . S
H1106 C1094 0.960 . S
H1107 C1094 0.962 . S
H1108 C1094 0.960 . S
H1109 C1095 0.961 . S
H1110 C1095 0.961 . S
H1111 C1095 0.961 . S
H1112 C1096 0.931 . S
H1113 C1101 0.930 . S
H1114 C1102 0.956 . S
H1115 C1102 0.961 . S
H1116 C1102 0.961 . S
H1117 C1103 0.958 . S
H1118 C1103 0.961 . S
H1119 C1103 0.960 . S
C1120 C1121 1.391 1_655 S
C1120 C1122 1.394 1_565 S
C1120 H1136 0.931 . S
C1121 C1120 1.391 1_455 S
C1121 C1125 1.376 . S
C1122 C1120 1.394 1_545 S
C1122 C1123 1.369 1_655 S
C1122 C1126 1.531 . S
C1123 C1122 1.369 1_455 S
C1123 C1124 1.410 1_545 S
C1123 C1131 1.503 1_455 S
C1124 C1123 1.410 1_565 S
C1124 C1125 1.392 . S
C1124 C1127 1.511 . S
C1125 C1121 1.376 . S
C1125 C1124 1.392 . S
C1125 H1137 0.929 . S
C1126 C1122 1.531 . S
C1126 H1138 0.960 . S
C1126 H1139 0.958 . S
C1126 H1140 0.960 . S
C1127 C1124 1.511 . S
C1127 H1141 0.961 . S
C1127 H1142 0.961 . S
C1127 H1143 0.961 1_565 S
C1128 C1129 1.370 1_565 S
C1128 C1130 1.363 . S
C1128 H1144 0.931 . S
C1129 C1128 1.370 1_545 S
C1129 C1133 1.408 . S
C1130 C1128 1.363 . S
C1130 C1131 1.370 1_565 S
C1130 C1134 1.524 . S
C1131 C1123 1.503 1_655 S
C1131 C1130 1.370 1_545 S
C1131 C1132 1.401 1_655 S
C1132 C1131 1.401 1_455 S
C1132 C1133 1.400 1_455 S
C1132 C1135 1.546 . S
C1133 C1129 1.408 . S
C1133 C1132 1.400 1_655 S
C1133 H1145 0.930 . S
C1134 C1130 1.524 . S
C1134 H1146 0.956 . S
C1134 H1147 0.961 1_655 S
C1134 H1148 0.961 . S
C1135 C1132 1.546 . S
C1135 H1149 0.958 1_455 S
C1135 H1150 0.961 . S
C1135 H1151 0.960 . S
H1136 C1120 0.931 . S
H1137 C1125 0.929 . S
H1138 C1126 0.960 . S
H1139 C1126 0.958 . S
H1140 C1126 0.960 . S
H1141 C1127 0.961 . S
H1142 C1127 0.961 . S
H1143 C1127 0.961 1_545 S
H1144 C1128 0.931 . S
H1145 C1133 0.930 . S
H1146 C1134 0.956 . S
H1147 C1134 0.961 1_455 S
H1148 C1134 0.961 . S
H1149 C1135 0.958 1_655 S
H1150 C1135 0.961 . S
H1151 C1135 0.960 . S
C1152 C1153 1.391 . S
C1152 C1154 1.394 . S
C1152 H1168 0.931 . S
C1153 C1152 1.391 . S
C1153 C1157 1.376 . S
C1154 C1152 1.394 . S
C1154 C1155 1.369 . S
C1154 C1158 1.531 . S
C1155 C1154 1.369 . S
C1155 C1156 1.410 . S
C1155 C1163 1.503 . S
C1156 C1155 1.410 . S
C1156 C1157 1.392 . S
C1156 C1159 1.511 . S
C1157 C1153 1.376 . S
C1157 C1156 1.392 . S
C1157 H1169 0.929 . S
C1158 C1154 1.531 . S
C1158 H1170 0.960 . S
C1158 H1171 0.962 . S
C1158 H1172 0.960 . S
C1159 C1156 1.511 . S
C1159 H1173 0.961 . S
C1159 H1174 0.961 . S
C1159 H1175 0.961 . S
C1160 C1161 1.370 . S
C1160 C1162 1.363 . S
C1160 H1176 0.931 . S
C1161 C1160 1.370 . S
C1161 C1165 1.408 . S
C1162 C1160 1.363 . S
C1162 C1163 1.370 . S
C1162 C1166 1.524 . S
C1163 C1155 1.503 . S
C1163 C1162 1.370 . S
C1163 C1164 1.403 . S
C1164 C1163 1.403 . S
C1164 C1165 1.404 . S
C1164 C1167 1.539 . S
C1165 C1161 1.408 . S
C1165 C1164 1.404 . S
C1165 H1177 0.930 . S
C1166 C1162 1.524 . S
C1166 H1178 0.956 . S
C1166 H1179 0.961 . S
C1166 H1180 0.961 . S
C1167 C1164 1.539 . S
C1167 H1181 0.958 . S
C1167 H1182 0.961 . S
C1167 H1183 0.960 . S
H1168 C1152 0.931 . S
H1169 C1157 0.929 . S
H1170 C1158 0.960 . S
H1171 C1158 0.962 . S
H1172 C1158 0.960 . S
H1173 C1159 0.961 . S
H1174 C1159 0.961 . S
H1175 C1159 0.961 . S
H1176 C1160 0.931 . S
H1177 C1165 0.930 . S
H1178 C1166 0.956 . S
H1179 C1166 0.961 . S
H1180 C1166 0.961 . S
H1181 C1167 0.958 . S
H1182 C1167 0.961 . S
H1183 C1167 0.960 . S
C1184 C1185 1.391 . S
C1184 C1186 1.394 . S
C1184 H1200 0.931 . S
C1185 C1184 1.391 . S
C1185 C1189 1.376 . S
C1186 C1184 1.394 . S
C1186 C1187 1.369 . S
C1186 C1190 1.499 1_554 S
C1187 C1186 1.369 . S
C1187 C1188 1.410 . S
C1187 C1195 1.503 1_554 S
C1188 C1187 1.410 . S
C1188 C1189 1.392 . S
C1188 C1191 1.511 . S
C1189 C1185 1.376 . S
C1189 C1188 1.392 . S
C1189 H1201 0.929 . S
C1190 C1186 1.499 1_556 S
C1190 H1202 0.999 . S
C1190 H1203 0.969 . S
C1190 H1204 0.948 1_556 S
C1191 C1188 1.511 . S
C1191 H1205 0.960 1_545 S
C1191 H1206 0.961 1_545 S
C1191 H1207 0.961 . S
C1192 C1193 1.370 . S
C1192 C1194 1.363 . S
C1192 H1208 0.931 . S
C1193 C1192 1.370 . S
C1193 C1197 1.408 1_565 S
C1194 C1192 1.363 . S
C1194 C1195 1.370 1_565 S
C1194 C1198 1.524 . S
C1195 C1187 1.503 1_556 S
C1195 C1194 1.370 1_545 S
C1195 C1196 1.403 . S
C1196 C1195 1.403 . S
C1196 C1197 1.404 . S
C1196 C1199 1.539 . S
C1197 C1193 1.408 1_545 S
C1197 C1196 1.404 . S
C1197 H1209 0.930 . S
C1198 C1194 1.524 . S
C1198 H1210 0.956 1_556 S
C1198 H1211 0.961 1_556 S
C1198 H1212 0.961 . S
C1199 C1196 1.539 . S
C1199 H1213 0.958 . S
C1199 H1214 0.961 . S
C1199 H1215 0.960 . S
H1200 C1184 0.931 . S
H1201 C1189 0.929 . S
H1202 C1190 0.999 . S
H1203 C1190 0.969 . S
H1204 C1190 0.948 1_554 S
H1205 C1191 0.960 1_565 S
H1206 C1191 0.961 1_565 S
H1207 C1191 0.961 . S
H1208 C1192 0.931 . S
H1209 C1197 0.930 . S
H1210 C1198 0.956 1_554 S
H1211 C1198 0.961 1_554 S
H1212 C1198 0.961 . S
H1213 C1199 0.958 . S
H1214 C1199 0.961 . S
H1215 C1199 0.960 . S
C1216 C1217 1.391 . S
C1216 C1218 1.394 . S
C1216 H1232 0.931 . S
C1217 C1216 1.391 . S
C1217 C1221 1.376 . S
C1218 C1216 1.394 . S
C1218 C1219 1.369 . S
C1218 C1222 1.531 . S
C1219 C1218 1.369 . S
C1219 C1220 1.410 . S
C1219 C1227 1.503 . S
C1220 C1219 1.410 . S
C1220 C1221 1.392 . S
C1220 C1223 1.511 . S
C1221 C1217 1.376 . S
C1221 C1220 1.392 . S
C1221 H1233 0.929 . S
C1222 C1218 1.531 . S
C1222 H1234 0.960 . S
C1222 H1235 0.962 . S
C1222 H1236 0.960 . S
C1223 C1220 1.511 . S
C1223 H1237 0.961 . S
C1223 H1238 0.961 . S
C1223 H1239 0.961 . S
C1224 C1225 1.370 . S
C1224 C1226 1.363 . S
C1224 H1240 0.931 . S
C1225 C1224 1.370 . S
C1225 C1229 1.408 . S
C1226 C1224 1.363 . S
C1226 C1227 1.370 . S
C1226 C1230 1.524 . S
C1227 C1219 1.503 . S
C1227 C1226 1.370 . S
C1227 C1228 1.403 . S
C1228 C1227 1.403 . S
C1228 C1229 1.404 . S
C1228 C1231 1.539 . S
C1229 C1225 1.408 . S
C1229 C1228 1.404 . S
C1229 H1241 0.930 . S
C1230 C1226 1.524 . S
C1230 H1242 0.956 . S
C1230 H1243 0.961 . S
C1230 H1244 0.961 . S
C1231 C1228 1.539 . S
C1231 H1245 0.958 . S
C1231 H1246 0.961 . S
C1231 H1247 0.960 . S
H1232 C1216 0.931 . S
H1233 C1221 0.929 . S
H1234 C1222 0.960 . S
H1235 C1222 0.962 . S
H1236 C1222 0.960 . S
H1237 C1223 0.961 . S
H1238 C1223 0.961 . S
H1239 C1223 0.961 . S
H1240 C1224 0.931 . S
H1241 C1229 0.930 . S
H1242 C1230 0.956 . S
H1243 C1230 0.961 . S
H1244 C1230 0.961 . S
H1245 C1231 0.958 . S
H1246 C1231 0.961 . S
H1247 C1231 0.960 . S
C1248 C1249 1.391 1_545 S
C1248 C1250 1.394 . S
C1248 H1264 0.931 . S
C1249 C1248 1.391 1_565 S
C1249 C1253 1.376 . S
C1250 C1248 1.394 . S
C1250 C1251 1.369 . S
C1250 C1254 1.531 . S
C1251 C1250 1.369 . S
C1251 C1252 1.410 1_545 S
C1251 C1259 1.503 . S
C1252 C1251 1.410 1_565 S
C1252 C1253 1.392 . S
C1252 C1255 1.511 . S
C1253 C1249 1.376 . S
C1253 C1252 1.392 . S
C1253 H1265 0.929 . S
C1254 C1250 1.531 . S
C1254 H1266 0.960 . S
C1254 H1267 0.962 . S
C1254 H1268 0.960 . S
C1255 C1252 1.511 . S
C1255 H1269 0.961 . S
C1255 H1270 0.961 . S
C1255 H1271 0.961 . S
C1256 C1257 1.370 1_565 S
C1256 C1258 1.363 . S
C1256 H1272 0.931 . S
C1257 C1256 1.370 1_545 S
C1257 C1261 1.408 . S
C1258 C1256 1.363 . S
C1258 C1259 1.370 1_565 S
C1258 C1262 1.524 . S
C1259 C1251 1.503 . S
C1259 C1258 1.370 1_545 S
C1259 C1260 1.403 . S
C1260 C1259 1.403 . S
C1260 C1261 1.404 . S
C1260 C1263 1.539 . S
C1261 C1257 1.408 . S
C1261 C1260 1.404 . S
C1261 H1273 0.930 . S
C1262 C1258 1.524 . S
C1262 H1274 0.956 . S
C1262 H1275 0.961 . S
C1262 H1276 0.961 . S
C1263 C1260 1.539 . S
C1263 H1277 0.958 . S
C1263 H1278 0.961 . S
C1263 H1279 0.960 . S
H1264 C1248 0.931 . S
H1265 C1253 0.929 . S
H1266 C1254 0.960 . S
H1267 C1254 0.962 . S
H1268 C1254 0.960 . S
H1269 C1255 0.961 . S
H1270 C1255 0.961 . S
H1271 C1255 0.961 . S
H1272 C1256 0.931 . S
H1273 C1261 0.930 . S
H1274 C1262 0.956 . S
H1275 C1262 0.961 . S
H1276 C1262 0.961 . S
H1277 C1263 0.958 . S
H1278 C1263 0.961 . S
H1279 C1263 0.960 . S
C1280 C1281 1.391 . S
C1280 C1282 1.394 . S
C1280 H1296 0.931 . S
C1281 C1280 1.391 . S
C1281 C1285 1.376 . S
C1282 C1280 1.394 . S
C1282 C1283 1.369 . S
C1282 C1286 1.531 . S
C1283 C1282 1.369 . S
C1283 C1284 1.410 . S
C1283 C1291 1.503 . S
C1284 C1283 1.410 . S
C1284 C1285 1.392 . S
C1284 C1287 1.511 . S
C1285 C1281 1.376 . S
C1285 C1284 1.392 . S
C1285 H1297 0.929 . S
C1286 C1282 1.531 . S
C1286 H1298 0.960 . S
C1286 H1299 0.962 . S
C1286 H1300 0.960 . S
C1287 C1284 1.511 . S
C1287 H1301 0.961 . S
C1287 H1302 0.961 . S
C1287 H1303 0.961 . S
C1288 C1289 1.370 . S
C1288 C1290 1.363 . S
C1288 H1304 0.931 . S
C1289 C1288 1.370 . S
C1289 C1293 1.408 . S
C1290 C1288 1.363 . S
C1290 C1291 1.370 . S
C1290 C1294 1.524 . S
C1291 C1283 1.503 . S
C1291 C1290 1.370 . S
C1291 C1292 1.403 . S
C1292 C1291 1.403 . S
C1292 C1293 1.404 . S
C1292 C1295 1.539 . S
C1293 C1289 1.408 . S
C1293 C1292 1.404 . S
C1293 H1305 0.930 . S
C1294 C1290 1.524 . S
C1294 H1306 0.956 . S
C1294 H1307 0.961 . S
C1294 H1308 0.961 . S
C1295 C1292 1.539 . S
C1295 H1309 0.958 . S
C1295 H1310 0.961 . S
C1295 H1311 0.960 . S
H1296 C1280 0.931 . S
H1297 C1285 0.929 . S
H1298 C1286 0.960 . S
H1299 C1286 0.962 . S
H1300 C1286 0.960 . S
H1301 C1287 0.961 . S
H1302 C1287 0.961 . S
H1303 C1287 0.961 . S
H1304 C1288 0.931 . S
H1305 C1293 0.930 . S
H1306 C1294 0.956 . S
H1307 C1294 0.961 . S
H1308 C1294 0.961 . S
H1309 C1295 0.958 . S
H1310 C1295 0.961 . S
H1311 C1295 0.960 . S
C1312 C1313 1.391 . S
C1312 C1314 1.394 . S
C1312 H1328 0.931 . S
C1313 C1312 1.391 . S
C1313 C1317 1.376 1_455 S
C1314 C1312 1.394 . S
C1314 C1315 1.388 . S
C1314 C1318 1.531 1_556 S
C1315 C1314 1.388 . S
C1315 C1316 1.401 1_455 S
C1315 C1323 1.510 1_456 S
C1316 C1315 1.401 1_655 S
C1316 C1317 1.395 . S
C1316 C1319 1.504 1_545 S
C1317 C1313 1.376 1_655 S
C1317 C1316 1.395 . S
C1317 H1329 0.917 1_545 S
C1318 C1314 1.531 1_554 S
C1318 H1330 0.960 . S
C1318 H1331 0.962 . S
C1318 H1332 0.960 1_554 S
C1319 C1316 1.504 1_565 S
C1319 H1333 0.961 . S
C1319 H1334 0.961 . S
C1319 H1335 0.958 1_565 S
C1320 C1321 1.397 . S
C1320 C1322 1.355 1_655 S
C1320 H1336 0.914 1_655 S
C1321 C1320 1.397 . S
C1321 C1325 1.408 1_565 S
C1322 C1320 1.355 1_455 S
C1322 C1323 1.337 1_465 S
C1322 C1326 1.524 . S
C1323 C1315 1.510 1_654 S
C1323 C1322 1.337 1_645 S
C1323 C1324 1.427 . S
C1324 C1323 1.427 . S
C1324 C1325 1.404 . S
C1324 C1327 1.539 . S
C1325 C1321 1.408 1_545 S
C1325 C1324 1.404 . S
C1325 H1337 0.930 . S
C1326 C1322 1.524 . S
C1326 H1338 0.956 . S
C1326 H1339 0.961 1_554 S
C1326 H1340 0.961 . S
C1327 C1324 1.539 . S
C1327 H1341 0.958 . S
C1327 H1342 0.961 . S
C1327 H1343 0.960 . S
H1328 C1312 0.931 . S
H1329 C1317 0.917 1_565 S
H1330 C1318 0.960 . S
H1331 C1318 0.962 . S
H1332 C1318 0.960 1_556 S
H1333 C1319 0.961 . S
H1334 C1319 0.961 . S
H1335 C1319 0.958 1_545 S
H1336 C1320 0.914 1_455 S
H1337 C1325 0.930 . S
H1338 C1326 0.956 . S
H1339 C1326 0.961 1_556 S
H1340 C1326 0.961 . S
H1341 C1327 0.958 . S
H1342 C1327 0.961 . S
H1343 C1327 0.960 . S
C1344 C1345 1.391 . S
C1344 C1346 1.394 . S
C1344 H1360 0.931 . S
C1345 C1344 1.391 . S
C1345 C1349 1.376 . S
C1346 C1344 1.394 . S
C1346 C1347 1.369 . S
C1346 C1350 1.531 . S
C1347 C1346 1.369 . S
C1347 C1348 1.410 . S
C1347 C1355 1.503 . S
C1348 C1347 1.410 . S
C1348 C1349 1.392 . S
C1348 C1351 1.511 . S
C1349 C1345 1.376 . S
C1349 C1348 1.392 . S
C1349 H1361 0.929 . S
C1350 C1346 1.531 . S
C1350 H1362 0.960 . S
C1350 H1363 0.962 . S
C1350 H1364 0.960 . S
C1351 C1348 1.511 . S
C1351 H1365 0.961 . S
C1351 H1366 0.961 . S
C1351 H1367 0.961 . S
C1352 C1353 1.370 . S
C1352 C1354 1.363 . S
C1352 H1368 0.931 . S
C1353 C1352 1.370 . S
C1353 C1357 1.408 . S
C1354 C1352 1.363 . S
C1354 C1355 1.370 . S
C1354 C1358 1.524 . S
C1355 C1347 1.503 . S
C1355 C1354 1.370 . S
C1355 C1356 1.403 . S
C1356 C1355 1.403 . S
C1356 C1357 1.404 . S
C1356 C1359 1.539 . S
C1357 C1353 1.408 . S
C1357 C1356 1.404 . S
C1357 H1369 0.930 . S
C1358 C1354 1.524 . S
C1358 H1370 0.956 . S
C1358 H1371 0.961 . S
C1358 H1372 0.961 . S
C1359 C1356 1.539 . S
C1359 H1373 0.958 . S
C1359 H1374 0.961 . S
C1359 H1375 0.960 . S
H1360 C1344 0.931 . S
H1361 C1349 0.929 . S
H1362 C1350 0.960 . S
H1363 C1350 0.962 . S
H1364 C1350 0.960 . S
H1365 C1351 0.961 . S
H1366 C1351 0.961 . S
H1367 C1351 0.961 . S
H1368 C1352 0.931 . S
H1369 C1357 0.930 . S
H1370 C1358 0.956 . S
H1371 C1358 0.961 . S
H1372 C1358 0.961 . S
H1373 C1359 0.958 . S
H1374 C1359 0.961 . S
H1375 C1359 0.960 . S
C1376 C1377 1.391 . S
C1376 C1378 1.394 . S
C1376 H1392 0.931 . S
C1377 C1376 1.391 . S
C1377 C1381 1.376 . S
C1378 C1376 1.394 . S
C1378 C1379 1.369 . S
C1378 C1382 1.531 . S
C1379 C1378 1.369 . S
C1379 C1380 1.410 . S
C1379 C1387 1.503 . S
C1380 C1379 1.410 . S
C1380 C1381 1.392 . S
C1380 C1383 1.511 . S
C1381 C1377 1.376 . S
C1381 C1380 1.392 . S
C1381 H1393 0.929 . S
C1382 C1378 1.531 . S
C1382 H1394 0.960 . S
C1382 H1395 0.962 . S
C1382 H1396 0.960 . S
C1383 C1380 1.511 . S
C1383 H1397 0.961 . S
C1383 H1398 0.961 . S
C1383 H1399 0.961 . S
C1384 C1385 1.370 . S
C1384 C1386 1.363 . S
C1384 H1400 0.931 . S
C1385 C1384 1.370 . S
C1385 C1389 1.408 . S
C1386 C1384 1.363 . S
C1386 C1387 1.370 . S
C1386 C1390 1.524 . S
C1387 C1379 1.503 . S
C1387 C1386 1.370 . S
C1387 C1388 1.403 . S
C1388 C1387 1.403 . S
C1388 C1389 1.404 . S
C1388 C1391 1.539 . S
C1389 C1385 1.408 . S
C1389 C1388 1.404 . S
C1389 H1401 0.930 . S
C1390 C1386 1.524 . S
C1390 H1402 0.956 . S
C1390 H1403 0.961 . S
C1390 H1404 0.961 . S
C1391 C1388 1.539 . S
C1391 H1405 0.958 . S
C1391 H1406 0.961 . S
C1391 H1407 0.960 . S
H1392 C1376 0.931 . S
H1393 C1381 0.929 . S
H1394 C1382 0.960 . S
H1395 C1382 0.962 . S
H1396 C1382 0.960 . S
H1397 C1383 0.961 . S
H1398 C1383 0.961 . S
H1399 C1383 0.961 . S
H1400 C1384 0.931 . S
H1401 C1389 0.930 . S
H1402 C1390 0.956 . S
H1403 C1390 0.961 . S
H1404 C1390 0.961 . S
H1405 C1391 0.958 . S
H1406 C1391 0.961 . S
H1407 C1391 0.960 . S
C1408 C1409 1.391 . S
C1408 C1410 1.394 . S
C1408 H1424 0.931 . S
C1409 C1408 1.391 . S
C1409 C1413 1.376 . S
C1410 C1408 1.394 . S
C1410 C1411 1.369 . S
C1410 C1414 1.531 . S
C1411 C1410 1.369 . S
C1411 C1412 1.410 . S
C1411 C1419 1.503 . S
C1412 C1411 1.410 . S
C1412 C1413 1.392 . S
C1412 C1415 1.511 . S
C1413 C1409 1.376 . S
C1413 C1412 1.392 . S
C1413 H1425 0.929 . S
C1414 C1410 1.531 . S
C1414 H1426 0.960 . S
C1414 H1427 0.962 . S
C1414 H1428 0.960 . S
C1415 C1412 1.511 . S
C1415 H1429 0.961 . S
C1415 H1430 0.961 . S
C1415 H1431 0.961 . S
C1416 C1417 1.370 . S
C1416 C1418 1.363 . S
C1416 H1432 0.931 . S
C1417 C1416 1.370 . S
C1417 C1421 1.408 . S
C1418 C1416 1.363 . S
C1418 C1419 1.370 . S
C1418 C1422 1.524 . S
C1419 C1411 1.503 . S
C1419 C1418 1.370 . S
C1419 C1420 1.403 . S
C1420 C1419 1.403 . S
C1420 C1421 1.404 . S
C1420 C1423 1.539 . S
C1421 C1417 1.408 . S
C1421 C1420 1.404 . S
C1421 H1433 0.930 . S
C1422 C1418 1.524 . S
C1422 H1434 0.956 . S
C1422 H1435 0.961 . S
C1422 H1436 0.961 . S
C1423 C1420 1.539 . S
C1423 H1437 0.958 . S
C1423 H1438 0.961 . S
C1423 H1439 0.960 . S
H1424 C1408 0.931 . S
H1425 C1413 0.929 . S
H1426 C1414 0.960 . S
H1427 C1414 0.962 . S
H1428 C1414 0.960 . S
H1429 C1415 0.961 . S
H1430 C1415 0.961 . S
H1431 C1415 0.961 . S
H1432 C1416 0.931 . S
H1433 C1421 0.930 . S
H1434 C1422 0.956 . S
H1435 C1422 0.961 . S
H1436 C1422 0.961 . S
H1437 C1423 0.958 . S
H1438 C1423 0.961 . S
H1439 C1423 0.960 . S
C1440 C1441 1.391 . S
C1440 C1442 1.394 . S
C1440 H1456 0.931 . S
C1441 C1440 1.391 . S
C1441 C1445 1.376 . S
C1442 C1440 1.394 . S
C1442 C1443 1.369 . S
C1442 C1446 1.531 . S
C1443 C1442 1.369 . S
C1443 C1444 1.410 . S
C1443 C1451 1.503 . S
C1444 C1443 1.410 . S
C1444 C1445 1.392 . S
C1444 C1447 1.511 . S
C1445 C1441 1.376 . S
C1445 C1444 1.392 . S
C1445 H1457 0.929 . S
C1446 C1442 1.531 . S
C1446 H1458 0.960 . S
C1446 H1459 0.962 . S
C1446 H1460 0.960 . S
C1447 C1444 1.511 . S
C1447 H1461 0.961 . S
C1447 H1462 0.961 . S
C1447 H1463 0.961 . S
C1448 C1449 1.370 . S
C1448 C1450 1.363 . S
C1448 H1464 0.931 . S
C1449 C1448 1.370 . S
C1449 C1453 1.408 . S
C1450 C1448 1.363 . S
C1450 C1451 1.370 . S
C1450 C1454 1.524 . S
C1451 C1443 1.503 . S
C1451 C1450 1.370 . S
C1451 C1452 1.403 . S
C1452 C1451 1.403 . S
C1452 C1453 1.404 . S
C1452 C1455 1.539 . S
C1453 C1449 1.408 . S
C1453 C1452 1.404 . S
C1453 H1465 0.930 . S
C1454 C1450 1.524 . S
C1454 H1466 0.956 . S
C1454 H1467 0.961 . S
C1454 H1468 0.961 . S
C1455 C1452 1.539 . S
C1455 H1469 0.958 . S
C1455 H1470 0.961 . S
C1455 H1471 0.960 . S
H1456 C1440 0.931 . S
H1457 C1445 0.929 . S
H1458 C1446 0.960 . S
H1459 C1446 0.962 . S
H1460 C1446 0.960 . S
H1461 C1447 0.961 . S
H1462 C1447 0.961 . S
H1463 C1447 0.961 . S
H1464 C1448 0.931 . S
H1465 C1453 0.930 . S
H1466 C1454 0.956 . S
H1467 C1454 0.961 . S
H1468 C1454 0.961 . S
H1469 C1455 0.958 . S
H1470 C1455 0.961 . S
H1471 C1455 0.960 . S
C1472 C1473 1.391 . S
C1472 C1474 1.394 . S
C1472 H1488 0.931 . S
C1473 C1472 1.391 . S
C1473 C1477 1.376 . S
C1474 C1472 1.394 . S
C1474 C1475 1.369 . S
C1474 C1478 1.531 . S
C1475 C1474 1.369 . S
C1475 C1476 1.410 . S
C1475 C1483 1.503 1_556 S
C1476 C1475 1.410 . S
C1476 C1477 1.392 . S
C1476 C1479 1.511 . S
C1477 C1473 1.376 . S
C1477 C1476 1.392 . S
C1477 H1489 0.929 . S
C1478 C1474 1.531 . S
C1478 H1490 0.960 . S
C1478 H1491 0.962 . S
C1478 H1492 0.960 . S
C1479 C1476 1.511 . S
C1479 H1493 0.961 . S
C1479 H1494 0.961 1_556 S
C1479 H1495 0.961 1_556 S
C1480 C1481 1.370 . S
C1480 C1482 1.363 . S
C1480 H1496 0.931 . S
C1481 C1480 1.370 . S
C1481 C1485 1.408 . S
C1482 C1480 1.363 . S
C1482 C1483 1.370 . S
C1482 C1486 1.494 1_554 S
C1483 C1475 1.503 1_554 S
C1483 C1482 1.370 . S
C1483 C1484 1.403 . S
C1484 C1483 1.403 . S
C1484 C1485 1.404 . S
C1484 C1487 1.539 . S
C1485 C1481 1.408 . S
C1485 C1484 1.404 . S
C1485 H1497 0.930 . S
C1486 C1482 1.494 1_556 S
C1486 H1498 0.984 . S
C1486 H1499 0.982 . S
C1486 H1500 0.944 1_556 S
C1487 C1484 1.539 . S
C1487 H1501 0.958 . S
C1487 H1502 0.961 . S
C1487 H1503 0.960 . S
H1488 C1472 0.931 . S
H1489 C1477 0.929 . S
H1490 C1478 0.960 . S
H1491 C1478 0.962 . S
H1492 C1478 0.960 . S
H1493 C1479 0.961 . S
H1494 C1479 0.961 1_554 S
H1495 C1479 0.961 1_554 S
H1496 C1480 0.931 . S
H1497 C1485 0.930 . S
H1498 C1486 0.984 . S
H1499 C1486 0.982 . S
H1500 C1486 0.944 1_554 S
H1501 C1487 0.958 . S
H1502 C1487 0.961 . S
H1503 C1487 0.960 . S
C1504 C1505 1.391 . S
C1504 C1506 1.394 . S
C1504 H1520 0.931 . S
C1505 C1504 1.391 . S
C1505 C1509 1.376 1_655 S
C1506 C1504 1.394 . S
C1506 C1507 1.369 . S
C1506 C1510 1.531 . S
C1507 C1506 1.369 . S
C1507 C1508 1.410 1_655 S
C1507 C1515 1.503 1_655 S
C1508 C1507 1.410 1_455 S
C1508 C1509 1.392 . S
C1508 C1511 1.511 . S
C1509 C1505 1.376 1_455 S
C1509 C1508 1.392 . S
C1509 H1521 0.929 . S
C1510 C1506 1.531 . S
C1510 H1522 0.960 . S
C1510 H1523 0.962 . S
C1510 H1524 0.960 . S
C1511 C1508 1.511 . S
C1511 H1525 0.961 . S
C1511 H1526 0.961 . S
C1511 H1527 0.961 . S
C1512 C1513 1.370 . S
C1512 C1514 1.363 . S
C1512 H1528 0.931 . S
C1513 C1512 1.370 . S
C1513 C1517 1.408 . S
C1514 C1512 1.363 . S
C1514 C1515 1.370 . S
C1514 C1518 1.524 . S
C1515 C1507 1.503 1_455 S
C1515 C1514 1.370 . S
C1515 C1516 1.403 . S
C1516 C1515 1.403 . S
C1516 C1517 1.404 . S
C1516 C1519 1.539 . S
C1517 C1513 1.408 . S
C1517 C1516 1.404 . S
C1517 H1529 0.930 . S
C1518 C1514 1.524 . S
C1518 H1530 0.956 1_455 S
C1518 H1531 0.961 . S
C1518 H1532 0.961 . S
C1519 C1516 1.539 . S
C1519 H1533 0.958 1_455 S
C1519 H1534 0.961 . S
C1519 H1535 0.960 . S
H1520 C1504 0.931 . S
H1521 C1509 0.929 . S
H1522 C1510 0.960 . S
H1523 C1510 0.962 . S
H1524 C1510 0.960 . S
H1525 C1511 0.961 . S
H1526 C1511 0.961 . S
H1527 C1511 0.961 . S
H1528 C1512 0.931 . S
H1529 C1517 0.930 . S
H1530 C1518 0.956 1_655 S
H1531 C1518 0.961 . S
H1532 C1518 0.961 . S
H1533 C1519 0.958 1_655 S
H1534 C1519 0.961 . S
H1535 C1519 0.960 . S
C1536 C1537 1.391 1_655 S
C1536 C1538 1.394 . S
C1536 H1552 0.931 . S
C1537 C1536 1.391 1_455 S
C1537 C1541 1.376 . S
C1538 C1536 1.394 . S
C1538 C1539 1.369 1_655 S
C1538 C1542 1.531 . S
C1539 C1538 1.369 1_455 S
C1539 C1540 1.410 . S
C1539 C1547 1.497 1_454 S
C1540 C1539 1.410 . S
C1540 C1541 1.392 . S
C1540 C1543 1.511 . S
C1541 C1537 1.376 . S
C1541 C1540 1.392 . S
C1541 H1553 0.929 . S
C1542 C1538 1.531 . S
C1542 H1554 0.960 1_554 S
C1542 H1555 0.962 . S
C1542 H1556 0.960 . S
C1543 C1540 1.511 . S
C1543 H1557 0.961 . S
C1543 H1558 0.961 1_554 S
C1543 H1559 0.961 . S
C1544 C1545 1.370 . S
C1544 C1546 1.363 . S
C1544 H1560 0.931 . S
C1545 C1544 1.370 . S
C1545 C1549 1.408 1_655 S
C1546 C1544 1.363 . S
C1546 C1547 1.387 . S
C1546 C1550 1.524 1_556 S
C1547 C1539 1.497 1_656 S
C1547 C1546 1.387 . S
C1547 C1548 1.393 1_655 S
C1548 C1547 1.393 1_455 S
C1548 C1549 1.404 . S
C1548 C1551 1.539 . S
C1549 C1545 1.408 1_455 S
C1549 C1548 1.404 . S
C1549 H1561 0.930 . S
C1550 C1546 1.524 1_554 S
C1550 H1562 0.956 . S
C1550 H1563 0.961 . S
C1550 H1564 0.961 1_554 S
C1551 C1548 1.539 . S
C1551 H1565 0.958 . S
C1551 H1566 0.961 . S
C1551 H1567 0.960 . S
H1552 C1536 0.931 . S
H1553 C1541 0.929 . S
H1554 C1542 0.960 1_556 S
H1555 C1542 0.962 . S
H1556 C1542 0.960 . S
H1557 C1543 0.961 . S
H1558 C1543 0.961 1_556 S
H1559 C1543 0.961 . S
H1560 C1544 0.931 . S
H1561 C1549 0.930 . S
H1562 C1550 0.956 . S
H1563 C1550 0.961 . S
H1564 C1550 0.961 1_556 S
H1565 C1551 0.958 . S
H1566 C1551 0.961 . S
H1567 C1551 0.960 . S
C1568 C1569 1.391 . S
C1568 C1570 1.394 . S
C1568 H1584 0.931 . S
C1569 C1568 1.391 . S
C1569 C1573 1.376 . S
C1570 C1568 1.394 . S
C1570 C1571 1.369 . S
C1570 C1574 1.531 . S
C1571 C1570 1.369 . S
C1571 C1572 1.410 . S
C1571 C1579 1.503 . S
C1572 C1571 1.410 . S
C1572 C1573 1.392 . S
C1572 C1575 1.511 . S
C1573 C1569 1.376 . S
C1573 C1572 1.392 . S
C1573 H1585 0.929 . S
C1574 C1570 1.531 . S
C1574 H1586 0.960 . S
C1574 H1587 0.962 . S
C1574 H1588 0.960 . S
C1575 C1572 1.511 . S
C1575 H1589 0.961 . S
C1575 H1590 0.961 . S
C1575 H1591 0.961 . S
C1576 C1577 1.370 . S
C1576 C1578 1.363 . S
C1576 H1592 0.931 . S
C1577 C1576 1.370 . S
C1577 C1581 1.408 . S
C1578 C1576 1.363 . S
C1578 C1579 1.370 . S
C1578 C1582 1.524 . S
C1579 C1571 1.503 . S
C1579 C1578 1.370 . S
C1579 C1580 1.403 . S
C1580 C1579 1.403 . S
C1580 C1581 1.404 . S
C1580 C1583 1.539 . S
C1581 C1577 1.408 . S
C1581 C1580 1.404 . S
C1581 H1593 0.930 . S
C1582 C1578 1.524 . S
C1582 H1594 0.956 . S
C1582 H1595 0.961 . S
C1582 H1596 0.961 . S
C1583 C1580 1.539 . S
C1583 H1597 0.958 . S
C1583 H1598 0.961 . S
C1583 H1599 0.960 . S
H1584 C1568 0.931 . S
H1585 C1573 0.929 . S
H1586 C1574 0.960 . S
H1587 C1574 0.962 . S
H1588 C1574 0.960 . S
H1589 C1575 0.961 . S
H1590 C1575 0.961 . S
H1591 C1575 0.961 . S
H1592 C1576 0.931 . S
H1593 C1581 0.930 . S
H1594 C1582 0.956 . S
H1595 C1582 0.961 . S
H1596 C1582 0.961 . S
H1597 C1583 0.958 . S
H1598 C1583 0.961 . S
H1599 C1583 0.960 . S
C1600 C1601 1.391 . S
C1600 C1602 1.394 . S
C1600 H1616 0.931 . S
C1601 C1600 1.391 . S
C1601 C1605 1.376 . S
C1602 C1600 1.394 . S
C1602 C1603 1.369 . S
C1602 C1606 1.531 . S
C1603 C1602 1.369 . S
C1603 C1604 1.410 . S
C1603 C1611 1.503 . S
C1604 C1603 1.410 . S
C1604 C1605 1.392 . S
C1604 C1607 1.511 . S
C1605 C1601 1.376 . S
C1605 C1604 1.392 . S
C1605 H1617 0.929 . S
C1606 C1602 1.531 . S
C1606 H1618 0.960 . S
C1606 H1619 0.962 . S
C1606 H1620 0.960 . S
C1607 C1604 1.511 . S
C1607 H1621 0.961 . S
C1607 H1622 0.961 . S
C1607 H1623 0.961 . S
C1608 C1609 1.370 . S
C1608 C1610 1.363 . S
C1608 H1624 0.931 . S
C1609 C1608 1.370 . S
C1609 C1613 1.408 . S
C1610 C1608 1.363 . S
C1610 C1611 1.370 . S
C1610 C1614 1.524 . S
C1611 C1603 1.503 . S
C1611 C1610 1.370 . S
C1611 C1612 1.403 . S
C1612 C1611 1.403 . S
C1612 C1613 1.404 . S
C1612 C1615 1.539 . S
C1613 C1609 1.408 . S
C1613 C1612 1.404 . S
C1613 H1625 0.930 . S
C1614 C1610 1.524 . S
C1614 H1626 0.956 . S
C1614 H1627 0.961 . S
C1614 H1628 0.961 . S
C1615 C1612 1.539 . S
C1615 H1629 0.958 . S
C1615 H1630 0.961 . S
C1615 H1631 0.960 . S
H1616 C1600 0.931 . S
H1617 C1605 0.929 . S
H1618 C1606 0.960 . S
H1619 C1606 0.962 . S
H1620 C1606 0.960 . S
H1621 C1607 0.961 . S
H1622 C1607 0.961 . S
H1623 C1607 0.961 . S
H1624 C1608 0.931 . S
H1625 C1613 0.930 . S
H1626 C1614 0.956 . S
H1627 C1614 0.961 . S
H1628 C1614 0.961 . S
H1629 C1615 0.958 . S
H1630 C1615 0.961 . S
H1631 C1615 0.960 . S
C1632 C1633 1.391 . S
C1632 C1634 1.394 . S
C1632 H1648 0.931 . S
C1633 C1632 1.391 . S
C1633 C1637 1.376 . S
C1634 C1632 1.394 . S
C1634 C1635 1.369 . S
C1634 C1638 1.531 . S
C1635 C1634 1.369 . S
C1635 C1636 1.410 . S
C1635 C1643 1.503 . S
C1636 C1635 1.410 . S
C1636 C1637 1.392 . S
C1636 C1639 1.511 . S
C1637 C1633 1.376 . S
C1637 C1636 1.392 . S
C1637 H1649 0.929 . S
C1638 C1634 1.531 . S
C1638 H1650 0.960 . S
C1638 H1651 0.962 . S
C1638 H1652 0.960 . S
C1639 C1636 1.511 . S
C1639 H1653 0.961 . S
C1639 H1654 0.961 . S
C1639 H1655 0.961 . S
C1640 C1641 1.370 . S
C1640 C1642 1.363 . S
C1640 H1656 0.931 . S
C1641 C1640 1.370 . S
C1641 C1645 1.408 . S
C1642 C1640 1.363 . S
C1642 C1643 1.370 . S
C1642 C1646 1.524 . S
C1643 C1635 1.503 . S
C1643 C1642 1.370 . S
C1643 C1644 1.403 . S
C1644 C1643 1.403 . S
C1644 C1645 1.404 . S
C1644 C1647 1.539 . S
C1645 C1641 1.408 . S
C1645 C1644 1.404 . S
C1645 H1657 0.930 . S
C1646 C1642 1.524 . S
C1646 H1658 0.956 . S
C1646 H1659 0.961 . S
C1646 H1660 0.961 . S
C1647 C1644 1.539 . S
C1647 H1661 0.958 . S
C1647 H1662 0.961 . S
C1647 H1663 0.960 . S
H1648 C1632 0.931 . S
H1649 C1637 0.929 . S
H1650 C1638 0.960 . S
H1651 C1638 0.962 . S
H1652 C1638 0.960 . S
H1653 C1639 0.961 . S
H1654 C1639 0.961 . S
H1655 C1639 0.961 . S
H1656 C1640 0.931 . S
H1657 C1645 0.930 . S
H1658 C1646 0.956 . S
H1659 C1646 0.961 . S
H1660 C1646 0.961 . S
H1661 C1647 0.958 . S
H1662 C1647 0.961 . S
H1663 C1647 0.960 . S
C1664 C1665 1.391 . S
C1664 C1666 1.394 . S
C1664 H1680 0.931 . S
C1665 C1664 1.391 . S
C1665 C1669 1.376 . S
C1666 C1664 1.394 . S
C1666 C1667 1.369 . S
C1666 C1670 1.531 . S
C1667 C1666 1.369 . S
C1667 C1668 1.410 . S
C1667 C1675 1.503 . S
C1668 C1667 1.410 . S
C1668 C1669 1.392 . S
C1668 C1671 1.511 . S
C1669 C1665 1.376 . S
C1669 C1668 1.392 . S
C1669 H1681 0.929 . S
C1670 C1666 1.531 . S
C1670 H1682 0.960 . S
C1670 H1683 0.962 . S
C1670 H1684 0.960 . S
C1671 C1668 1.511 . S
C1671 H1685 0.961 . S
C1671 H1686 0.961 . S
C1671 H1687 0.961 . S
C1672 C1673 1.370 . S
C1672 C1674 1.363 . S
C1672 H1688 0.931 . S
C1673 C1672 1.370 . S
C1673 C1677 1.408 . S
C1674 C1672 1.363 . S
C1674 C1675 1.370 . S
C1674 C1678 1.524 . S
C1675 C1667 1.503 . S
C1675 C1674 1.370 . S
C1675 C1676 1.403 . S
C1676 C1675 1.403 . S
C1676 C1677 1.404 . S
C1676 C1679 1.539 . S
C1677 C1673 1.408 . S
C1677 C1676 1.404 . S
C1677 H1689 0.930 . S
C1678 C1674 1.524 . S
C1678 H1690 0.956 . S
C1678 H1691 0.961 . S
C1678 H1692 0.961 . S
C1679 C1676 1.539 . S
C1679 H1693 0.958 . S
C1679 H1694 0.961 . S
C1679 H1695 0.960 . S
H1680 C1664 0.931 . S
H1681 C1669 0.929 . S
H1682 C1670 0.960 . S
H1683 C1670 0.962 . S
H1684 C1670 0.960 . S
H1685 C1671 0.961 . S
H1686 C1671 0.961 . S
H1687 C1671 0.961 . S
H1688 C1672 0.931 . S
H1689 C1677 0.930 . S
H1690 C1678 0.956 . S
H1691 C1678 0.961 . S
H1692 C1678 0.961 . S
H1693 C1679 0.958 . S
H1694 C1679 0.961 . S
H1695 C1679 0.960 . S
C1696 C1697 1.391 . S
C1696 C1698 1.394 . S
C1696 H1712 0.931 . S
C1697 C1696 1.391 . S
C1697 C1701 1.376 . S
C1698 C1696 1.394 . S
C1698 C1699 1.369 . S
C1698 C1702 1.531 . S
C1699 C1698 1.369 . S
C1699 C1700 1.410 . S
C1699 C1707 1.503 . S
C1700 C1699 1.410 . S
C1700 C1701 1.392 . S
C1700 C1703 1.511 . S
C1701 C1697 1.376 . S
C1701 C1700 1.392 . S
C1701 H1713 0.929 . S
C1702 C1698 1.531 . S
C1702 H1714 0.960 . S
C1702 H1715 0.962 . S
C1702 H1716 0.960 . S
C1703 C1700 1.511 . S
C1703 H1717 0.961 . S
C1703 H1718 0.961 . S
C1703 H1719 0.961 . S
C1704 C1705 1.370 . S
C1704 C1706 1.363 . S
C1704 H1720 0.931 . S
C1705 C1704 1.370 . S
C1705 C1709 1.408 . S
C1706 C1704 1.363 . S
C1706 C1707 1.370 . S
C1706 C1710 1.524 . S
C1707 C1699 1.503 . S
C1707 C1706 1.370 . S
C1707 C1708 1.403 . S
C1708 C1707 1.403 . S
C1708 C1709 1.404 . S
C1708 C1711 1.539 . S
C1709 C1705 1.408 . S
C1709 C1708 1.404 . S
C1709 H1721 0.930 . S
C1710 C1706 1.524 . S
C1710 H1722 0.956 . S
C1710 H1723 0.961 . S
C1710 H1724 0.961 . S
C1711 C1708 1.539 . S
C1711 H1725 0.958 . S
C1711 H1726 0.961 . S
C1711 H1727 0.960 . S
H1712 C1696 0.931 . S
H1713 C1701 0.929 . S
H1714 C1702 0.960 . S
H1715 C1702 0.962 . S
H1716 C1702 0.960 . S
H1717 C1703 0.961 . S
H1718 C1703 0.961 . S
H1719 C1703 0.961 . S
H1720 C1704 0.931 . S
H1721 C1709 0.930 . S
H1722 C1710 0.956 . S
H1723 C1710 0.961 . S
H1724 C1710 0.961 . S
H1725 C1711 0.958 . S
H1726 C1711 0.961 . S
H1727 C1711 0.960 . S
C1728 C1729 1.391 . S
C1728 C1730 1.394 . S
C1728 H1744 0.931 . S
C1729 C1728 1.391 . S
C1729 C1733 1.376 . S
C1730 C1728 1.394 . S
C1730 C1731 1.369 . S
C1730 C1734 1.531 . S
C1731 C1730 1.369 . S
C1731 C1732 1.410 . S
C1731 C1739 1.503 . S
C1732 C1731 1.410 . S
C1732 C1733 1.392 . S
C1732 C1735 1.511 . S
C1733 C1729 1.376 . S
C1733 C1732 1.392 . S
C1733 H1745 0.929 . S
C1734 C1730 1.531 . S
C1734 H1746 0.960 . S
C1734 H1747 0.962 . S
C1734 H1748 0.960 . S
C1735 C1732 1.511 . S
C1735 H1749 0.961 . S
C1735 H1750 0.961 . S
C1735 H1751 0.961 . S
C1736 C1737 1.370 . S
C1736 C1738 1.363 . S
C1736 H1752 0.931 . S
C1737 C1736 1.370 . S
C1737 C1741 1.408 . S
C1738 C1736 1.363 . S
C1738 C1739 1.370 . S
C1738 C1742 1.524 . S
C1739 C1731 1.503 . S
C1739 C1738 1.370 . S
C1739 C1740 1.403 . S
C1740 C1739 1.403 . S
C1740 C1741 1.404 . S
C1740 C1743 1.539 . S
C1741 C1737 1.408 . S
C1741 C1740 1.404 . S
C1741 H1753 0.930 . S
C1742 C1738 1.524 . S
C1742 H1754 0.956 . S
C1742 H1755 0.961 . S
C1742 H1756 0.961 . S
C1743 C1740 1.539 . S
C1743 H1757 0.958 . S
C1743 H1758 0.961 . S
C1743 H1759 0.960 . S
H1744 C1728 0.931 . S
H1745 C1733 0.929 . S
H1746 C1734 0.960 . S
H1747 C1734 0.962 . S
H1748 C1734 0.960 . S
H1749 C1735 0.961 . S
H1750 C1735 0.961 . S
H1751 C1735 0.961 . S
H1752 C1736 0.931 . S
H1753 C1741 0.930 . S
H1754 C1742 0.956 . S
H1755 C1742 0.961 . S
H1756 C1742 0.961 . S
H1757 C1743 0.958 . S
H1758 C1743 0.961 . S
H1759 C1743 0.960 . S
C1760 C1761 1.391 . S
C1760 C1762 1.394 . S
C1760 H1776 0.931 . S
C1761 C1760 1.391 . S
C1761 C1765 1.376 . S
C1762 C1760 1.394 . S
C1762 C1763 1.369 . S
C1762 C1766 1.531 . S
C1763 C1762 1.369 . S
C1763 C1764 1.410 . S
C1763 C1771 1.503 . S
C1764 C1763 1.410 . S
C1764 C1765 1.392 . S
C1764 C1767 1.511 . S
C1765 C1761 1.376 . S
C1765 C1764 1.392 . S
C1765 H1777 0.929 . S
C1766 C1762 1.531 . S
C1766 H1778 0.960 . S
C1766 H1779 0.962 . S
C1766 H1780 0.960 . S
C1767 C1764 1.511 . S
C1767 H1781 0.961 . S
C1767 H1782 0.961 . S
C1767 H1783 0.961 . S
C1768 C1769 1.370 . S
C1768 C1770 1.363 . S
C1768 H1784 0.931 . S
C1769 C1768 1.370 . S
C1769 C1773 1.408 . S
C1770 C1768 1.363 . S
C1770 C1771 1.370 . S
C1770 C1774 1.524 . S
C1771 C1763 1.503 . S
C1771 C1770 1.370 . S
C1771 C1772 1.403 . S
C1772 C1771 1.403 . S
C1772 C1773 1.404 . S
C1772 C1775 1.539 . S
C1773 C1769 1.408 . S
C1773 C1772 1.404 . S
C1773 H1785 0.930 . S
C1774 C1770 1.524 . S
C1774 H1786 0.956 . S
C1774 H1787 0.961 . S
C1774 H1788 0.961 . S
C1775 C1772 1.539 . S
C1775 H1789 0.958 . S
C1775 H1790 0.961 . S
C1775 H1791 0.960 . S
H1776 C1760 0.931 . S
H1777 C1765 0.929 . S
H1778 C1766 0.960 . S
H1779 C1766 0.962 . S
H1780 C1766 0.960 . S
H1781 C1767 0.961 . S
H1782 C1767 0.961 . S
H1783 C1767 0.961 . S
H1784 C1768 0.931 . S
H1785 C1773 0.930 . S
H1786 C1774 0.956 . S
H1787 C1774 0.961 . S
H1788 C1774 0.961 . S
H1789 C1775 0.958 . S
H1790 C1775 0.961 . S
H1791 C1775 0.960 . S
C1792 C1793 1.391 . S
C1792 C1794 1.394 . S
C1792 H1808 0.931 . S
C1793 C1792 1.391 . S
C1793 C1797 1.376 . S
C1794 C1792 1.394 . S
C1794 C1795 1.369 . S
C1794 C1798 1.531 . S
C1795 C1794 1.369 . S
C1795 C1796 1.410 . S
C1795 C1803 1.503 . S
C1796 C1795 1.410 . S
C1796 C1797 1.392 . S
C1796 C1799 1.511 . S
C1797 C1793 1.376 . S
C1797 C1796 1.392 . S
C1797 H1809 0.929 . S
C1798 C1794 1.531 . S
C1798 H1810 0.960 . S
C1798 H1811 0.962 . S
C1798 H1812 0.960 . S
C1799 C1796 1.511 . S
C1799 H1813 0.961 . S
C1799 H1814 0.961 . S
C1799 H1815 0.961 . S
C1800 C1801 1.370 . S
C1800 C1802 1.363 . S
C1800 H1816 0.931 . S
C1801 C1800 1.370 . S
C1801 C1805 1.408 . S
C1802 C1800 1.363 . S
C1802 C1803 1.370 . S
C1802 C1806 1.524 . S
C1803 C1795 1.503 . S
C1803 C1802 1.370 . S
C1803 C1804 1.403 . S
C1804 C1803 1.403 . S
C1804 C1805 1.404 . S
C1804 C1807 1.539 . S
C1805 C1801 1.408 . S
C1805 C1804 1.404 . S
C1805 H1817 0.930 . S
C1806 C1802 1.524 . S
C1806 H1818 0.956 . S
C1806 H1819 0.961 . S
C1806 H1820 0.961 . S
C1807 C1804 1.539 . S
C1807 H1821 0.958 . S
C1807 H1822 0.961 . S
C1807 H1823 0.960 . S
H1808 C1792 0.931 . S
H1809 C1797 0.929 . S
H1810 C1798 0.960 . S
H1811 C1798 0.962 . S
H1812 C1798 0.960 . S
H1813 C1799 0.961 . S
H1814 C1799 0.961 . S
H1815 C1799 0.961 . S
H1816 C1800 0.931 . S
H1817 C1805 0.930 . S
H1818 C1806 0.956 . S
H1819 C1806 0.961 . S
H1820 C1806 0.961 . S
H1821 C1807 0.958 . S
H1822 C1807 0.961 . S
H1823 C1807 0.960 . S
C1824 C1825 1.391 . S
C1824 C1826 1.394 . S
C1824 H1840 0.931 . S
C1825 C1824 1.391 . S
C1825 C1829 1.376 . S
C1826 C1824 1.394 . S
C1826 C1827 1.369 . S
C1826 C1830 1.531 . S
C1827 C1826 1.369 . S
C1827 C1828 1.410 . S
C1827 C1835 1.503 . S
C1828 C1827 1.410 . S
C1828 C1829 1.392 . S
C1828 C1831 1.511 . S
C1829 C1825 1.376 . S
C1829 C1828 1.392 . S
C1829 H1841 0.929 . S
C1830 C1826 1.531 . S
C1830 H1842 0.960 . S
C1830 H1843 0.962 . S
C1830 H1844 0.960 . S
C1831 C1828 1.511 . S
C1831 H1845 0.961 . S
C1831 H1846 0.961 . S
C1831 H1847 0.961 . S
C1832 C1833 1.370 . S
C1832 C1834 1.363 . S
C1832 H1848 0.931 . S
C1833 C1832 1.370 . S
C1833 C1837 1.408 . S
C1834 C1832 1.363 . S
C1834 C1835 1.370 . S
C1834 C1838 1.524 . S
C1835 C1827 1.503 . S
C1835 C1834 1.370 . S
C1835 C1836 1.403 . S
C1836 C1835 1.403 . S
C1836 C1837 1.404 . S
C1836 C1839 1.539 . S
C1837 C1833 1.408 . S
C1837 C1836 1.404 . S
C1837 H1849 0.930 . S
C1838 C1834 1.524 . S
C1838 H1850 0.956 . S
C1838 H1851 0.961 . S
C1838 H1852 0.961 . S
C1839 C1836 1.539 . S
C1839 H1853 0.958 . S
C1839 H1854 0.961 . S
C1839 H1855 0.960 . S
H1840 C1824 0.931 . S
H1841 C1829 0.929 . S
H1842 C1830 0.960 . S
H1843 C1830 0.962 . S
H1844 C1830 0.960 . S
H1845 C1831 0.961 . S
H1846 C1831 0.961 . S
H1847 C1831 0.961 . S
H1848 C1832 0.931 . S
H1849 C1837 0.930 . S
H1850 C1838 0.956 . S
H1851 C1838 0.961 . S
H1852 C1838 0.961 . S
H1853 C1839 0.958 . S
H1854 C1839 0.961 . S
H1855 C1839 0.960 . S
C1856 C1857 1.391 . S
C1856 C1858 1.394 . S
C1856 H1872 0.931 . S
C1857 C1856 1.391 . S
C1857 C1861 1.376 . S
C1858 C1856 1.394 . S
C1858 C1859 1.369 . S
C1858 C1862 1.531 . S
C1859 C1858 1.369 . S
C1859 C1860 1.410 . S
C1859 C1867 1.503 . S
C1860 C1859 1.410 . S
C1860 C1861 1.392 . S
C1860 C1863 1.511 . S
C1861 C1857 1.376 . S
C1861 C1860 1.392 . S
C1861 H1873 0.929 . S
C1862 C1858 1.531 . S
C1862 H1874 0.960 . S
C1862 H1875 0.962 . S
C1862 H1876 0.960 . S
C1863 C1860 1.511 . S
C1863 H1877 0.961 . S
C1863 H1878 0.961 . S
C1863 H1879 0.961 . S
C1864 C1865 1.370 . S
C1864 C1866 1.363 . S
C1864 H1880 0.931 . S
C1865 C1864 1.370 . S
C1865 C1869 1.408 . S
C1866 C1864 1.363 . S
C1866 C1867 1.370 . S
C1866 C1870 1.524 . S
C1867 C1859 1.503 . S
C1867 C1866 1.370 . S
C1867 C1868 1.403 . S
C1868 C1867 1.403 . S
C1868 C1869 1.404 . S
C1868 C1871 1.539 . S
C1869 C1865 1.408 . S
C1869 C1868 1.404 . S
C1869 H1881 0.930 . S
C1870 C1866 1.524 . S
C1870 H1882 0.956 . S
C1870 H1883 0.961 . S
C1870 H1884 0.961 . S
C1871 C1868 1.539 . S
C1871 H1885 0.958 . S
C1871 H1886 0.961 . S
C1871 H1887 0.960 . S
H1872 C1856 0.931 . S
H1873 C1861 0.929 . S
H1874 C1862 0.960 . S
H1875 C1862 0.962 . S
H1876 C1862 0.960 . S
H1877 C1863 0.961 . S
H1878 C1863 0.961 . S
H1879 C1863 0.961 . S
H1880 C1864 0.931 . S
H1881 C1869 0.930 . S
H1882 C1870 0.956 . S
H1883 C1870 0.961 . S
H1884 C1870 0.961 . S
H1885 C1871 0.958 . S
H1886 C1871 0.961 . S
H1887 C1871 0.960 . S
C1888 C1889 1.391 . S
C1888 C1890 1.394 . S
C1888 H1904 0.931 . S
C1889 C1888 1.391 . S
C1889 C1893 1.376 . S
C1890 C1888 1.394 . S
C1890 C1891 1.369 . S
C1890 C1894 1.531 . S
C1891 C1890 1.369 . S
C1891 C1892 1.410 . S
C1891 C1899 1.503 . S
C1892 C1891 1.410 . S
C1892 C1893 1.392 . S
C1892 C1895 1.511 . S
C1893 C1889 1.376 . S
C1893 C1892 1.392 . S
C1893 H1905 0.929 . S
C1894 C1890 1.531 . S
C1894 H1906 0.960 . S
C1894 H1907 0.962 . S
C1894 H1908 0.960 . S
C1895 C1892 1.511 . S
C1895 H1909 0.961 . S
C1895 H1910 0.961 . S
C1895 H1911 0.961 . S
C1896 C1897 1.370 . S
C1896 C1898 1.363 . S
C1896 H1912 0.931 . S
C1897 C1896 1.370 . S
C1897 C1901 1.408 . S
C1898 C1896 1.363 . S
C1898 C1899 1.370 . S
C1898 C1902 1.524 . S
C1899 C1891 1.503 . S
C1899 C1898 1.370 . S
C1899 C1900 1.403 . S
C1900 C1899 1.403 . S
C1900 C1901 1.404 . S
C1900 C1903 1.539 . S
C1901 C1897 1.408 . S
C1901 C1900 1.404 . S
C1901 H1913 0.930 . S
C1902 C1898 1.524 . S
C1902 H1914 0.956 . S
C1902 H1915 0.961 . S
C1902 H1916 0.961 . S
C1903 C1900 1.539 . S
C1903 H1917 0.958 . S
C1903 H1918 0.961 . S
C1903 H1919 0.960 . S
H1904 C1888 0.931 . S
H1905 C1893 0.929 . S
H1906 C1894 0.960 . S
H1907 C1894 0.962 . S
H1908 C1894 0.960 . S
H1909 C1895 0.961 . S
H1910 C1895 0.961 . S
H1911 C1895 0.961 . S
H1912 C1896 0.931 . S
H1913 C1901 0.930 . S
H1914 C1902 0.956 . S
H1915 C1902 0.961 . S
H1916 C1902 0.961 . S
H1917 C1903 0.958 . S
H1918 C1903 0.961 . S
H1919 C1903 0.960 . S
C1920 C1921 1.391 . S
C1920 C1922 1.394 . S
C1920 H1936 0.931 . S
C1921 C1920 1.391 . S
C1921 C1925 1.376 . S
C1922 C1920 1.394 . S
C1922 C1923 1.369 . S
C1922 C1926 1.531 . S
C1923 C1922 1.369 . S
C1923 C1924 1.410 . S
C1923 C1931 1.503 . S
C1924 C1923 1.410 . S
C1924 C1925 1.392 . S
C1924 C1927 1.511 . S
C1925 C1921 1.376 . S
C1925 C1924 1.392 . S
C1925 H1937 0.929 . S
C1926 C1922 1.531 . S
C1926 H1938 0.960 . S
C1926 H1939 0.962 . S
C1926 H1940 0.960 . S
C1927 C1924 1.511 . S
C1927 H1941 0.961 . S
C1927 H1942 0.961 . S
C1927 H1943 0.961 . S
C1928 C1929 1.370 . S
C1928 C1930 1.363 . S
C1928 H1944 0.931 . S
C1929 C1928 1.370 . S
C1929 C1933 1.408 . S
C1930 C1928 1.363 . S
C1930 C1931 1.370 . S
C1930 C1934 1.524 . S
C1931 C1923 1.503 . S
C1931 C1930 1.370 . S
C1931 C1932 1.403 . S
C1932 C1931 1.403 . S
C1932 C1933 1.404 . S
C1932 C1935 1.539 . S
C1933 C1929 1.408 . S
C1933 C1932 1.404 . S
C1933 H1945 0.930 . S
C1934 C1930 1.524 . S
C1934 H1946 0.956 . S
C1934 H1947 0.961 . S
C1934 H1948 0.961 . S
C1935 C1932 1.539 . S
C1935 H1949 0.958 . S
C1935 H1950 0.961 . S
C1935 H1951 0.960 . S
H1936 C1920 0.931 . S
H1937 C1925 0.929 . S
H1938 C1926 0.960 . S
H1939 C1926 0.962 . S
H1940 C1926 0.960 . S
H1941 C1927 0.961 . S
H1942 C1927 0.961 . S
H1943 C1927 0.961 . S
H1944 C1928 0.931 . S
H1945 C1933 0.930 . S
H1946 C1934 0.956 . S
H1947 C1934 0.961 . S
H1948 C1934 0.961 . S
H1949 C1935 0.958 . S
H1950 C1935 0.961 . S
H1951 C1935 0.960 . S
C1952 C1953 1.391 . S
C1952 C1954 1.394 . S
C1952 H1968 0.931 . S
C1953 C1952 1.391 . S
C1953 C1957 1.376 . S
C1954 C1952 1.394 . S
C1954 C1955 1.369 . S
C1954 C1958 1.531 . S
C1955 C1954 1.369 . S
C1955 C1956 1.410 . S
C1955 C1963 1.503 . S
C1956 C1955 1.410 . S
C1956 C1957 1.392 . S
C1956 C1959 1.511 . S
C1957 C1953 1.376 . S
C1957 C1956 1.392 . S
C1957 H1969 0.929 . S
C1958 C1954 1.531 . S
C1958 H1970 0.960 . S
C1958 H1971 0.962 . S
C1958 H1972 0.960 . S
C1959 C1956 1.511 . S
C1959 H1973 0.961 . S
C1959 H1974 0.961 . S
C1959 H1975 0.961 . S
C1960 C1961 1.370 . S
C1960 C1962 1.363 . S
C1960 H1976 0.931 . S
C1961 C1960 1.370 . S
C1961 C1965 1.408 . S
C1962 C1960 1.363 . S
C1962 C1963 1.370 . S
C1962 C1966 1.524 . S
C1963 C1955 1.503 . S
C1963 C1962 1.370 . S
C1963 C1964 1.403 . S
C1964 C1963 1.403 . S
C1964 C1965 1.404 . S
C1964 C1967 1.539 . S
C1965 C1961 1.408 . S
C1965 C1964 1.404 . S
C1965 H1977 0.930 . S
C1966 C1962 1.524 . S
C1966 H1978 0.956 . S
C1966 H1979 0.961 . S
C1966 H1980 0.961 . S
C1967 C1964 1.539 . S
C1967 H1981 0.958 . S
C1967 H1982 0.961 . S
C1967 H1983 0.960 . S
H1968 C1952 0.931 . S
H1969 C1957 0.929 . S
H1970 C1958 0.960 . S
H1971 C1958 0.962 . S
H1972 C1958 0.960 . S
H1973 C1959 0.961 . S
H1974 C1959 0.961 . S
H1975 C1959 0.961 . S
H1976 C1960 0.931 . S
H1977 C1965 0.930 . S
H1978 C1966 0.956 . S
H1979 C1966 0.961 . S
H1980 C1966 0.961 . S
H1981 C1967 0.958 . S
H1982 C1967 0.961 . S
H1983 C1967 0.960 . S
C1984 C1985 1.391 . S
C1984 C1986 1.394 . S
C1984 H2000 0.931 . S
C1985 C1984 1.391 . S
C1985 C1989 1.376 . S
C1986 C1984 1.394 . S
C1986 C1987 1.369 . S
C1986 C1990 1.531 . S
C1987 C1986 1.369 . S
C1987 C1988 1.410 . S
C1987 C1995 1.503 . S
C1988 C1987 1.410 . S
C1988 C1989 1.392 . S
C1988 C1991 1.511 . S
C1989 C1985 1.376 . S
C1989 C1988 1.392 . S
C1989 H2001 0.929 . S
C1990 C1986 1.531 . S
C1990 H2002 0.960 . S
C1990 H2003 0.962 . S
C1990 H2004 0.960 . S
C1991 C1988 1.511 . S
C1991 H2005 0.961 . S
C1991 H2006 0.961 . S
C1991 H2007 0.961 . S
C1992 C1993 1.370 . S
C1992 C1994 1.363 . S
C1992 H2008 0.931 . S
C1993 C1992 1.370 . S
C1993 C1997 1.408 . S
C1994 C1992 1.363 . S
C1994 C1995 1.370 . S
C1994 C1998 1.524 . S
C1995 C1987 1.503 . S
C1995 C1994 1.370 . S
C1995 C1996 1.403 . S
C1996 C1995 1.403 . S
C1996 C1997 1.404 . S
C1996 C1999 1.539 . S
C1997 C1993 1.408 . S
C1997 C1996 1.404 . S
C1997 H2009 0.930 . S
C1998 C1994 1.524 . S
C1998 H2010 0.956 . S
C1998 H2011 0.961 . S
C1998 H2012 0.961 . S
C1999 C1996 1.539 . S
C1999 H2013 0.958 . S
C1999 H2014 0.961 . S
C1999 H2015 0.960 . S
H2000 C1984 0.931 . S
H2001 C1989 0.929 . S
H2002 C1990 0.960 . S
H2003 C1990 0.962 . S
H2004 C1990 0.960 . S
H2005 C1991 0.961 . S
H2006 C1991 0.961 . S
H2007 C1991 0.961 . S
H2008 C1992 0.931 . S
H2009 C1997 0.930 . S
H2010 C1998 0.956 . S
H2011 C1998 0.961 . S
H2012 C1998 0.961 . S
H2013 C1999 0.958 . S
H2014 C1999 0.961 . S
H2015 C1999 0.960 . S
C2016 C2017 1.391 . S
C2016 C2018 1.394 . S
C2016 H2032 0.931 . S
C2017 C2016 1.391 . S
C2017 C2021 1.376 . S
C2018 C2016 1.394 . S
C2018 C2019 1.369 . S
C2018 C2022 1.531 . S
C2019 C2018 1.369 . S
C2019 C2020 1.410 . S
C2019 C2027 1.503 . S
C2020 C2019 1.410 . S
C2020 C2021 1.392 . S
C2020 C2023 1.511 . S
C2021 C2017 1.376 . S
C2021 C2020 1.392 . S
C2021 H2033 0.929 . S
C2022 C2018 1.531 . S
C2022 H2034 0.960 . S
C2022 H2035 0.962 . S
C2022 H2036 0.960 . S
C2023 C2020 1.511 . S
C2023 H2037 0.961 . S
C2023 H2038 0.961 . S
C2023 H2039 0.961 . S
C2024 C2025 1.370 . S
C2024 C2026 1.363 . S
C2024 H2040 0.931 . S
C2025 C2024 1.370 . S
C2025 C2029 1.408 . S
C2026 C2024 1.363 . S
C2026 C2027 1.370 . S
C2026 C2030 1.524 . S
C2027 C2019 1.503 . S
C2027 C2026 1.370 . S
C2027 C2028 1.403 . S
C2028 C2027 1.403 . S
C2028 C2029 1.404 . S
C2028 C2031 1.539 . S
C2029 C2025 1.408 . S
C2029 C2028 1.404 . S
C2029 H2041 0.930 . S
C2030 C2026 1.524 . S
C2030 H2042 0.956 . S
C2030 H2043 0.961 . S
C2030 H2044 0.961 . S
C2031 C2028 1.539 . S
C2031 H2045 0.958 . S
C2031 H2046 0.961 . S
C2031 H2047 0.960 . S
H2032 C2016 0.931 . S
H2033 C2021 0.929 . S
H2034 C2022 0.960 . S
H2035 C2022 0.962 . S
H2036 C2022 0.960 . S
H2037 C2023 0.961 . S
H2038 C2023 0.961 . S
H2039 C2023 0.961 . S
H2040 C2024 0.931 . S
H2041 C2029 0.930 . S
H2042 C2030 0.956 . S
H2043 C2030 0.961 . S
H2044 C2030 0.961 . S
H2045 C2031 0.958 . S
H2046 C2031 0.961 . S
H2047 C2031 0.960 . S
C2048 C2049 1.391 . S
C2048 C2050 1.394 . S
C2048 H2064 0.931 . S
C2049 C2048 1.391 . S
C2049 C2053 1.376 . S
C2050 C2048 1.394 . S
C2050 C2051 1.369 . S
C2050 C2054 1.531 . S
C2051 C2050 1.369 . S
C2051 C2052 1.410 . S
C2051 C2059 1.503 . S
C2052 C2051 1.410 . S
C2052 C2053 1.392 . S
C2052 C2055 1.511 . S
C2053 C2049 1.376 . S
C2053 C2052 1.392 . S
C2053 H2065 0.929 . S
C2054 C2050 1.531 . S
C2054 H2066 0.960 . S
C2054 H2067 0.962 . S
C2054 H2068 0.960 . S
C2055 C2052 1.511 . S
C2055 H2069 0.961 . S
C2055 H2070 0.961 . S
C2055 H2071 0.961 . S
C2056 C2057 1.370 . S
C2056 C2058 1.363 . S
C2056 H2072 0.931 . S
C2057 C2056 1.370 . S
C2057 C2061 1.408 . S
C2058 C2056 1.363 . S
C2058 C2059 1.370 . S
C2058 C2062 1.524 . S
C2059 C2051 1.503 . S
C2059 C2058 1.370 . S
C2059 C2060 1.403 . S
C2060 C2059 1.403 . S
C2060 C2061 1.404 . S
C2060 C2063 1.539 . S
C2061 C2057 1.408 . S
C2061 C2060 1.404 . S
C2061 H2073 0.930 . S
C2062 C2058 1.524 . S
C2062 H2074 0.956 . S
C2062 H2075 0.961 . S
C2062 H2076 0.961 . S
C2063 C2060 1.539 . S
C2063 H2077 0.958 . S
C2063 H2078 0.961 . S
C2063 H2079 0.960 . S
H2064 C2048 0.931 . S
H2065 C2053 0.929 . S
H2066 C2054 0.960 . S
H2067 C2054 0.962 . S
H2068 C2054 0.960 . S
H2069 C2055 0.961 . S
H2070 C2055 0.961 . S
H2071 C2055 0.961 . S
H2072 C2056 0.931 . S
H2073 C2061 0.930 . S
H2074 C2062 0.956 . S
H2075 C2062 0.961 . S
H2076 C2062 0.961 . S
H2077 C2063 0.958 . S
H2078 C2063 0.961 . S
H2079 C2063 0.960 . S
C2080 C2081 1.391 . S
C2080 C2082 1.394 . S
C2080 H2096 0.931 . S
C2081 C2080 1.391 . S
C2081 C2085 1.376 . S
C2082 C2080 1.394 . S
C2082 C2083 1.369 . S
C2082 C2086 1.531 . S
C2083 C2082 1.369 . S
C2083 C2084 1.410 . S
C2083 C2091 1.503 . S
C2084 C2083 1.410 . S
C2084 C2085 1.392 . S
C2084 C2087 1.511 . S
C2085 C2081 1.376 . S
C2085 C2084 1.392 . S
C2085 H2097 0.929 . S
C2086 C2082 1.531 . S
C2086 H2098 0.960 . S
C2086 H2099 0.962 . S
C2086 H2100 0.960 . S
C2087 C2084 1.511 . S
C2087 H2101 0.961 . S
C2087 H2102 0.961 . S
C2087 H2103 0.961 . S
C2088 C2089 1.370 . S
C2088 C2090 1.363 . S
C2088 H2104 0.931 . S
C2089 C2088 1.370 . S
C2089 C2093 1.408 . S
C2090 C2088 1.363 . S
C2090 C2091 1.370 . S
C2090 C2094 1.524 . S
C2091 C2083 1.503 . S
C2091 C2090 1.370 . S
C2091 C2092 1.403 . S
C2092 C2091 1.403 . S
C2092 C2093 1.404 . S
C2092 C2095 1.539 . S
C2093 C2089 1.408 . S
C2093 C2092 1.404 . S
C2093 H2105 0.930 . S
C2094 C2090 1.524 . S
C2094 H2106 0.956 . S
C2094 H2107 0.961 . S
C2094 H2108 0.961 . S
C2095 C2092 1.539 . S
C2095 H2109 0.958 . S
C2095 H2110 0.961 . S
C2095 H2111 0.960 . S
H2096 C2080 0.931 . S
H2097 C2085 0.929 . S
H2098 C2086 0.960 . S
H2099 C2086 0.962 . S
H2100 C2086 0.960 . S
H2101 C2087 0.961 . S
H2102 C2087 0.961 . S
H2103 C2087 0.961 . S
H2104 C2088 0.931 . S
H2105 C2093 0.930 . S
H2106 C2094 0.956 . S
H2107 C2094 0.961 . S
H2108 C2094 0.961 . S
H2109 C2095 0.958 . S
H2110 C2095 0.961 . S
H2111 C2095 0.960 . S
C2112 C2113 1.391 . S
C2112 C2114 1.394 . S
C2112 H2128 0.931 . S
C2113 C2112 1.391 . S
C2113 C2117 1.376 . S
C2114 C2112 1.394 . S
C2114 C2115 1.369 . S
C2114 C2118 1.531 . S
C2115 C2114 1.369 . S
C2115 C2116 1.410 . S
C2115 C2123 1.503 . S
C2116 C2115 1.410 . S
C2116 C2117 1.392 . S
C2116 C2119 1.511 . S
C2117 C2113 1.376 . S
C2117 C2116 1.392 . S
C2117 H2129 0.929 . S
C2118 C2114 1.531 . S
C2118 H2130 0.960 . S
C2118 H2131 0.962 . S
C2118 H2132 0.960 . S
C2119 C2116 1.511 . S
C2119 H2133 0.961 . S
C2119 H2134 0.961 . S
C2119 H2135 0.961 . S
C2120 C2121 1.370 . S
C2120 C2122 1.363 . S
C2120 H2136 0.931 . S
C2121 C2120 1.370 . S
C2121 C2125 1.408 . S
C2122 C2120 1.363 . S
C2122 C2123 1.370 . S
C2122 C2126 1.524 . S
C2123 C2115 1.503 . S
C2123 C2122 1.370 . S
C2123 C2124 1.403 . S
C2124 C2123 1.403 . S
C2124 C2125 1.404 . S
C2124 C2127 1.539 . S
C2125 C2121 1.408 . S
C2125 C2124 1.404 . S
C2125 H2137 0.930 . S
C2126 C2122 1.524 . S
C2126 H2138 0.956 . S
C2126 H2139 0.961 . S
C2126 H2140 0.961 . S
C2127 C2124 1.539 . S
C2127 H2141 0.958 . S
C2127 H2142 0.961 . S
C2127 H2143 0.960 . S
H2128 C2112 0.931 . S
H2129 C2117 0.929 . S
H2130 C2118 0.960 . S
H2131 C2118 0.962 . S
H2132 C2118 0.960 . S
H2133 C2119 0.961 . S
H2134 C2119 0.961 . S
H2135 C2119 0.961 . S
H2136 C2120 0.931 . S
H2137 C2125 0.930 . S
H2138 C2126 0.956 . S
H2139 C2126 0.961 . S
H2140 C2126 0.961 . S
H2141 C2127 0.958 . S
H2142 C2127 0.961 . S
H2143 C2127 0.960 . S
C2144 C2145 1.391 . S
C2144 C2146 1.394 . S
C2144 H2160 0.931 . S
C2145 C2144 1.391 . S
C2145 C2149 1.376 . S
C2146 C2144 1.394 . S
C2146 C2147 1.369 . S
C2146 C2150 1.531 . S
C2147 C2146 1.369 . S
C2147 C2148 1.410 . S
C2147 C2155 1.503 . S
C2148 C2147 1.410 . S
C2148 C2149 1.392 . S
C2148 C2151 1.511 . S
C2149 C2145 1.376 . S
C2149 C2148 1.392 . S
C2149 H2161 0.929 . S
C2150 C2146 1.531 . S
C2150 H2162 0.960 . S
C2150 H2163 0.962 . S
C2150 H2164 0.960 . S
C2151 C2148 1.511 . S
C2151 H2165 0.961 . S
C2151 H2166 0.961 . S
C2151 H2167 0.961 . S
C2152 C2153 1.370 . S
C2152 C2154 1.363 . S
C2152 H2168 0.931 . S
C2153 C2152 1.370 . S
C2153 C2157 1.408 . S
C2154 C2152 1.363 . S
C2154 C2155 1.370 . S
C2154 C2158 1.524 . S
C2155 C2147 1.503 . S
C2155 C2154 1.370 . S
C2155 C2156 1.403 . S
C2156 C2155 1.403 . S
C2156 C2157 1.404 . S
C2156 C2159 1.539 . S
C2157 C2153 1.408 . S
C2157 C2156 1.404 . S
C2157 H2169 0.930 . S
C2158 C2154 1.524 . S
C2158 H2170 0.956 . S
C2158 H2171 0.961 . S
C2158 H2172 0.961 . S
C2159 C2156 1.539 . S
C2159 H2173 0.958 . S
C2159 H2174 0.961 . S
C2159 H2175 0.960 . S
H2160 C2144 0.931 . S
H2161 C2149 0.929 . S
H2162 C2150 0.960 . S
H2163 C2150 0.962 . S
H2164 C2150 0.960 . S
H2165 C2151 0.961 . S
H2166 C2151 0.961 . S
H2167 C2151 0.961 . S
H2168 C2152 0.931 . S
H2169 C2157 0.930 . S
H2170 C2158 0.956 . S
H2171 C2158 0.961 . S
H2172 C2158 0.961 . S
H2173 C2159 0.958 . S
H2174 C2159 0.961 . S
H2175 C2159 0.960 . S
C2176 C2177 1.391 . S
C2176 C2178 1.394 . S
C2176 H2192 0.931 . S
C2177 C2176 1.391 . S
C2177 C2181 1.376 . S
C2178 C2176 1.394 . S
C2178 C2179 1.369 . S
C2178 C2182 1.531 . S
C2179 C2178 1.369 . S
C2179 C2180 1.410 . S
C2179 C2187 1.503 . S
C2180 C2179 1.410 . S
C2180 C2181 1.392 . S
C2180 C2183 1.511 . S
C2181 C2177 1.376 . S
C2181 C2180 1.392 . S
C2181 H2193 0.929 . S
C2182 C2178 1.531 . S
C2182 H2194 0.960 . S
C2182 H2195 0.962 . S
C2182 H2196 0.960 . S
C2183 C2180 1.511 . S
C2183 H2197 0.961 . S
C2183 H2198 0.961 . S
C2183 H2199 0.961 . S
C2184 C2185 1.370 . S
C2184 C2186 1.363 . S
C2184 H2200 0.931 . S
C2185 C2184 1.370 . S
C2185 C2189 1.408 . S
C2186 C2184 1.363 . S
C2186 C2187 1.370 . S
C2186 C2190 1.524 . S
C2187 C2179 1.503 . S
C2187 C2186 1.370 . S
C2187 C2188 1.403 . S
C2188 C2187 1.403 . S
C2188 C2189 1.404 . S
C2188 C2191 1.539 . S
C2189 C2185 1.408 . S
C2189 C2188 1.404 . S
C2189 H2201 0.930 . S
C2190 C2186 1.524 . S
C2190 H2202 0.956 . S
C2190 H2203 0.961 . S
C2190 H2204 0.961 . S
C2191 C2188 1.539 . S
C2191 H2205 0.958 . S
C2191 H2206 0.961 . S
C2191 H2207 0.960 . S
H2192 C2176 0.931 . S
H2193 C2181 0.929 . S
H2194 C2182 0.960 . S
H2195 C2182 0.962 . S
H2196 C2182 0.960 . S
H2197 C2183 0.961 . S
H2198 C2183 0.961 . S
H2199 C2183 0.961 . S
H2200 C2184 0.931 . S
H2201 C2189 0.930 . S
H2202 C2190 0.956 . S
H2203 C2190 0.961 . S
H2204 C2190 0.961 . S
H2205 C2191 0.958 . S
H2206 C2191 0.961 . S
H2207 C2191 0.960 . S
C2208 C2209 1.391 . S
C2208 C2210 1.394 . S
C2208 H2224 0.931 . S
C2209 C2208 1.391 . S
C2209 C2213 1.376 . S
C2210 C2208 1.394 . S
C2210 C2211 1.369 . S
C2210 C2214 1.531 . S
C2211 C2210 1.369 . S
C2211 C2212 1.410 . S
C2211 C2219 1.503 . S
C2212 C2211 1.410 . S
C2212 C2213 1.392 . S
C2212 C2215 1.511 . S
C2213 C2209 1.376 . S
C2213 C2212 1.392 . S
C2213 H2225 0.929 . S
C2214 C2210 1.531 . S
C2214 H2226 0.960 . S
C2214 H2227 0.962 . S
C2214 H2228 0.960 . S
C2215 C2212 1.511 . S
C2215 H2229 0.961 . S
C2215 H2230 0.961 . S
C2215 H2231 0.961 . S
C2216 C2217 1.370 . S
C2216 C2218 1.363 . S
C2216 H2232 0.931 . S
C2217 C2216 1.370 . S
C2217 C2221 1.408 . S
C2218 C2216 1.363 . S
C2218 C2219 1.370 . S
C2218 C2222 1.524 . S
C2219 C2211 1.503 . S
C2219 C2218 1.370 . S
C2219 C2220 1.403 . S
C2220 C2219 1.403 . S
C2220 C2221 1.404 . S
C2220 C2223 1.539 . S
C2221 C2217 1.408 . S
C2221 C2220 1.404 . S
C2221 H2233 0.930 . S
C2222 C2218 1.524 . S
C2222 H2234 0.956 . S
C2222 H2235 0.961 . S
C2222 H2236 0.961 . S
C2223 C2220 1.539 . S
C2223 H2237 0.958 . S
C2223 H2238 0.961 . S
C2223 H2239 0.960 . S
H2224 C2208 0.931 . S
H2225 C2213 0.929 . S
H2226 C2214 0.960 . S
H2227 C2214 0.962 . S
H2228 C2214 0.960 . S
H2229 C2215 0.961 . S
H2230 C2215 0.961 . S
H2231 C2215 0.961 . S
H2232 C2216 0.931 . S
H2233 C2221 0.930 . S
H2234 C2222 0.956 . S
H2235 C2222 0.961 . S
H2236 C2222 0.961 . S
H2237 C2223 0.958 . S
H2238 C2223 0.961 . S
H2239 C2223 0.960 . S
C2240 C2241 1.391 . S
C2240 C2242 1.394 . S
C2240 H2256 0.931 . S
C2241 C2240 1.391 . S
C2241 C2245 1.376 . S
C2242 C2240 1.394 . S
C2242 C2243 1.369 . S
C2242 C2246 1.531 . S
C2243 C2242 1.369 . S
C2243 C2244 1.410 . S
C2243 C2251 1.503 . S
C2244 C2243 1.410 . S
C2244 C2245 1.392 . S
C2244 C2247 1.511 . S
C2245 C2241 1.376 . S
C2245 C2244 1.392 . S
C2245 H2257 0.929 . S
C2246 C2242 1.531 . S
C2246 H2258 0.960 . S
C2246 H2259 0.962 . S
C2246 H2260 0.960 . S
C2247 C2244 1.511 . S
C2247 H2261 0.961 . S
C2247 H2262 0.961 . S
C2247 H2263 0.961 . S
C2248 C2249 1.370 . S
C2248 C2250 1.363 . S
C2248 H2264 0.931 . S
C2249 C2248 1.370 . S
C2249 C2253 1.408 . S
C2250 C2248 1.363 . S
C2250 C2251 1.370 . S
C2250 C2254 1.524 . S
C2251 C2243 1.503 . S
C2251 C2250 1.370 . S
C2251 C2252 1.403 . S
C2252 C2251 1.403 . S
C2252 C2253 1.404 . S
C2252 C2255 1.539 . S
C2253 C2249 1.408 . S
C2253 C2252 1.404 . S
C2253 H2265 0.930 . S
C2254 C2250 1.524 . S
C2254 H2266 0.956 . S
C2254 H2267 0.961 . S
C2254 H2268 0.961 . S
C2255 C2252 1.539 . S
C2255 H2269 0.958 . S
C2255 H2270 0.961 . S
C2255 H2271 0.960 . S
H2256 C2240 0.931 . S
H2257 C2245 0.929 . S
H2258 C2246 0.960 . S
H2259 C2246 0.962 . S
H2260 C2246 0.960 . S
H2261 C2247 0.961 . S
H2262 C2247 0.961 . S
H2263 C2247 0.961 . S
H2264 C2248 0.931 . S
H2265 C2253 0.930 . S
H2266 C2254 0.956 . S
H2267 C2254 0.961 . S
H2268 C2254 0.961 . S
H2269 C2255 0.958 . S
H2270 C2255 0.961 . S
H2271 C2255 0.960 . S
C2272 C2273 1.391 . S
C2272 C2274 1.394 . S
C2272 H2288 0.931 . S
C2273 C2272 1.391 . S
C2273 C2277 1.376 . S
C2274 C2272 1.394 . S
C2274 C2275 1.369 . S
C2274 C2278 1.531 . S
C2275 C2274 1.369 . S
C2275 C2276 1.410 . S
C2275 C2283 1.503 . S
C2276 C2275 1.410 . S
C2276 C2277 1.392 . S
C2276 C2279 1.511 . S
C2277 C2273 1.376 . S
C2277 C2276 1.392 . S
C2277 H2289 0.929 . S
C2278 C2274 1.531 . S
C2278 H2290 0.960 . S
C2278 H2291 0.962 . S
C2278 H2292 0.960 . S
C2279 C2276 1.511 . S
C2279 H2293 0.961 . S
C2279 H2294 0.961 . S
C2279 H2295 0.961 . S
C2280 C2281 1.370 . S
C2280 C2282 1.363 . S
C2280 H2296 0.931 . S
C2281 C2280 1.370 . S
C2281 C2285 1.408 . S
C2282 C2280 1.363 . S
C2282 C2283 1.370 . S
C2282 C2286 1.524 . S
C2283 C2275 1.503 . S
C2283 C2282 1.370 . S
C2283 C2284 1.403 . S
C2284 C2283 1.403 . S
C2284 C2285 1.404 . S
C2284 C2287 1.539 . S
C2285 C2281 1.408 . S
C2285 C2284 1.404 . S
C2285 H2297 0.930 . S
C2286 C2282 1.524 . S
C2286 H2298 0.956 . S
C2286 H2299 0.961 . S
C2286 H2300 0.961 . S
C2287 C2284 1.539 . S
C2287 H2301 0.958 . S
C2287 H2302 0.961 . S
C2287 H2303 0.960 . S
H2288 C2272 0.931 . S
H2289 C2277 0.929 . S
H2290 C2278 0.960 . S
H2291 C2278 0.962 . S
H2292 C2278 0.960 . S
H2293 C2279 0.961 . S
H2294 C2279 0.961 . S
H2295 C2279 0.961 . S
H2296 C2280 0.931 . S
H2297 C2285 0.930 . S
H2298 C2286 0.956 . S
H2299 C2286 0.961 . S
H2300 C2286 0.961 . S
H2301 C2287 0.958 . S
H2302 C2287 0.961 . S
H2303 C2287 0.960 . S
C2304 C2305 1.391 . S
C2304 C2306 1.394 . S
C2304 H2320 0.931 . S
C2305 C2304 1.391 . S
C2305 C2309 1.376 . S
C2306 C2304 1.394 . S
C2306 C2307 1.369 . S
C2306 C2310 1.531 . S
C2307 C2306 1.369 . S
C2307 C2308 1.410 . S
C2307 C2315 1.503 . S
C2308 C2307 1.410 . S
C2308 C2309 1.392 . S
C2308 C2311 1.511 . S
C2309 C2305 1.376 . S
C2309 C2308 1.392 . S
C2309 H2321 0.929 . S
C2310 C2306 1.531 . S
C2310 H2322 0.960 . S
C2310 H2323 0.962 . S
C2310 H2324 0.960 . S
C2311 C2308 1.511 . S
C2311 H2325 0.961 . S
C2311 H2326 0.961 . S
C2311 H2327 0.961 . S
C2312 C2313 1.370 . S
C2312 C2314 1.363 . S
C2312 H2328 0.931 . S
C2313 C2312 1.370 . S
C2313 C2317 1.408 . S
C2314 C2312 1.363 . S
C2314 C2315 1.370 . S
C2314 C2318 1.524 . S
C2315 C2307 1.503 . S
C2315 C2314 1.370 . S
C2315 C2316 1.403 . S
C2316 C2315 1.403 . S
C2316 C2317 1.404 . S
C2316 C2319 1.539 . S
C2317 C2313 1.408 . S
C2317 C2316 1.404 . S
C2317 H2329 0.930 . S
C2318 C2314 1.524 . S
C2318 H2330 0.956 . S
C2318 H2331 0.961 . S
C2318 H2332 0.961 . S
C2319 C2316 1.539 . S
C2319 H2333 0.958 . S
C2319 H2334 0.961 . S
C2319 H2335 0.960 . S
H2320 C2304 0.931 . S
H2321 C2309 0.929 . S
H2322 C2310 0.960 . S
H2323 C2310 0.962 . S
H2324 C2310 0.960 . S
H2325 C2311 0.961 . S
H2326 C2311 0.961 . S
H2327 C2311 0.961 . S
H2328 C2312 0.931 . S
H2329 C2317 0.930 . S
H2330 C2318 0.956 . S
H2331 C2318 0.961 . S
H2332 C2318 0.961 . S
H2333 C2319 0.958 . S
H2334 C2319 0.961 . S
H2335 C2319 0.960 . S
C2336 C2337 1.391 . S
C2336 C2338 1.394 . S
C2336 H2352 0.931 . S
C2337 C2336 1.391 . S
C2337 C2341 1.376 . S
C2338 C2336 1.394 . S
C2338 C2339 1.369 . S
C2338 C2342 1.531 . S
C2339 C2338 1.369 . S
C2339 C2340 1.410 . S
C2339 C2347 1.503 . S
C2340 C2339 1.410 . S
C2340 C2341 1.392 . S
C2340 C2343 1.511 . S
C2341 C2337 1.376 . S
C2341 C2340 1.392 . S
C2341 H2353 0.929 . S
C2342 C2338 1.531 . S
C2342 H2354 0.960 . S
C2342 H2355 0.962 . S
C2342 H2356 0.960 . S
C2343 C2340 1.511 . S
C2343 H2357 0.961 . S
C2343 H2358 0.961 . S
C2343 H2359 0.961 . S
C2344 C2345 1.370 . S
C2344 C2346 1.363 . S
C2344 H2360 0.931 . S
C2345 C2344 1.370 . S
C2345 C2349 1.408 . S
C2346 C2344 1.363 . S
C2346 C2347 1.370 . S
C2346 C2350 1.524 . S
C2347 C2339 1.503 . S
C2347 C2346 1.370 . S
C2347 C2348 1.403 . S
C2348 C2347 1.403 . S
C2348 C2349 1.404 . S
C2348 C2351 1.539 . S
C2349 C2345 1.408 . S
C2349 C2348 1.404 . S
C2349 H2361 0.930 . S
C2350 C2346 1.524 . S
C2350 H2362 0.956 . S
C2350 H2363 0.961 . S
C2350 H2364 0.961 . S
C2351 C2348 1.539 . S
C2351 H2365 0.958 . S
C2351 H2366 0.961 . S
C2351 H2367 0.960 . S
H2352 C2336 0.931 . S
H2353 C2341 0.929 . S
H2354 C2342 0.960 . S
H2355 C2342 0.962 . S
H2356 C2342 0.960 . S
H2357 C2343 0.961 . S
H2358 C2343 0.961 . S
H2359 C2343 0.961 . S
H2360 C2344 0.931 . S
H2361 C2349 0.930 . S
H2362 C2350 0.956 . S
H2363 C2350 0.961 . S
H2364 C2350 0.961 . S
H2365 C2351 0.958 . S
H2366 C2351 0.961 . S
H2367 C2351 0.960 . S
C2368 C2369 1.391 . S
C2368 C2370 1.394 . S
C2368 H2384 0.931 . S
C2369 C2368 1.391 . S
C2369 C2373 1.376 . S
C2370 C2368 1.394 . S
C2370 C2371 1.369 . S
C2370 C2374 1.531 . S
C2371 C2370 1.369 . S
C2371 C2372 1.410 . S
C2371 C2379 1.503 . S
C2372 C2371 1.410 . S
C2372 C2373 1.392 . S
C2372 C2375 1.511 . S
C2373 C2369 1.376 . S
C2373 C2372 1.392 . S
C2373 H2385 0.929 . S
C2374 C2370 1.531 . S
C2374 H2386 0.960 . S
C2374 H2387 0.962 . S
C2374 H2388 0.960 . S
C2375 C2372 1.511 . S
C2375 H2389 0.961 . S
C2375 H2390 0.961 . S
C2375 H2391 0.961 . S
C2376 C2377 1.370 . S
C2376 C2378 1.363 . S
C2376 H2392 0.931 . S
C2377 C2376 1.370 . S
C2377 C2381 1.408 . S
C2378 C2376 1.363 . S
C2378 C2379 1.370 . S
C2378 C2382 1.524 . S
C2379 C2371 1.503 . S
C2379 C2378 1.370 . S
C2379 C2380 1.403 . S
C2380 C2379 1.403 . S
C2380 C2381 1.404 . S
C2380 C2383 1.539 . S
C2381 C2377 1.408 . S
C2381 C2380 1.404 . S
C2381 H2393 0.930 . S
C2382 C2378 1.524 . S
C2382 H2394 0.956 . S
C2382 H2395 0.961 . S
C2382 H2396 0.961 . S
C2383 C2380 1.539 . S
C2383 H2397 0.958 . S
C2383 H2398 0.961 . S
C2383 H2399 0.960 . S
H2384 C2368 0.931 . S
H2385 C2373 0.929 . S
H2386 C2374 0.960 . S
H2387 C2374 0.962 . S
H2388 C2374 0.960 . S
H2389 C2375 0.961 . S
H2390 C2375 0.961 . S
H2391 C2375 0.961 . S
H2392 C2376 0.931 . S
H2393 C2381 0.930 . S
H2394 C2382 0.956 . S
H2395 C2382 0.961 . S
H2396 C2382 0.961 . S
H2397 C2383 0.958 . S
H2398 C2383 0.961 . S
H2399 C2383 0.960 . S
C2400 C2401 1.391 . S
C2400 C2402 1.394 . S
C2400 H2416 0.931 . S
C2401 C2400 1.391 . S
C2401 C2405 1.376 . S
C2402 C2400 1.394 . S
C2402 C2403 1.369 . S
C2402 C2406 1.531 . S
C2403 C2402 1.369 . S
C2403 C2404 1.410 . S
C2403 C2411 1.503 . S
C2404 C2403 1.410 . S
C2404 C2405 1.392 . S
C2404 C2407 1.511 . S
C2405 C2401 1.376 . S
C2405 C2404 1.392 . S
C2405 H2417 0.929 . S
C2406 C2402 1.531 . S
C2406 H2418 0.960 . S
C2406 H2419 0.962 . S
C2406 H2420 0.960 . S
C2407 C2404 1.511 . S
C2407 H2421 0.961 . S
C2407 H2422 0.961 . S
C2407 H2423 0.961 . S
C2408 C2409 1.370 . S
C2408 C2410 1.363 . S
C2408 H2424 0.931 . S
C2409 C2408 1.370 . S
C2409 C2413 1.408 . S
C2410 C2408 1.363 . S
C2410 C2411 1.370 . S
C2410 C2414 1.524 . S
C2411 C2403 1.503 . S
C2411 C2410 1.370 . S
C2411 C2412 1.403 . S
C2412 C2411 1.403 . S
C2412 C2413 1.404 . S
C2412 C2415 1.539 . S
C2413 C2409 1.408 . S
C2413 C2412 1.404 . S
C2413 H2425 0.930 . S
C2414 C2410 1.524 . S
C2414 H2426 0.956 . S
C2414 H2427 0.961 . S
C2414 H2428 0.961 . S
C2415 C2412 1.539 . S
C2415 H2429 0.958 . S
C2415 H2430 0.961 . S
C2415 H2431 0.960 . S
H2416 C2400 0.931 . S
H2417 C2405 0.929 . S
H2418 C2406 0.960 . S
H2419 C2406 0.962 . S
H2420 C2406 0.960 . S
H2421 C2407 0.961 . S
H2422 C2407 0.961 . S
H2423 C2407 0.961 . S
H2424 C2408 0.931 . S
H2425 C2413 0.930 . S
H2426 C2414 0.956 . S
H2427 C2414 0.961 . S
H2428 C2414 0.961 . S
H2429 C2415 0.958 . S
H2430 C2415 0.961 . S
H2431 C2415 0.960 . S
C2432 C2433 1.391 . S
C2432 C2434 1.394 . S
C2432 H2448 0.931 . S
C2433 C2432 1.391 . S
C2433 C2437 1.376 . S
C2434 C2432 1.394 . S
C2434 C2435 1.369 . S
C2434 C2438 1.531 . S
C2435 C2434 1.369 . S
C2435 C2436 1.410 . S
C2435 C2443 1.503 . S
C2436 C2435 1.410 . S
C2436 C2437 1.392 . S
C2436 C2439 1.511 . S
C2437 C2433 1.376 . S
C2437 C2436 1.392 . S
C2437 H2449 0.929 . S
C2438 C2434 1.531 . S
C2438 H2450 0.960 . S
C2438 H2451 0.962 . S
C2438 H2452 0.960 . S
C2439 C2436 1.511 . S
C2439 H2453 0.961 . S
C2439 H2454 0.961 . S
C2439 H2455 0.961 . S
C2440 C2441 1.370 . S
C2440 C2442 1.363 . S
C2440 H2456 0.931 . S
C2441 C2440 1.370 . S
C2441 C2445 1.408 . S
C2442 C2440 1.363 . S
C2442 C2443 1.370 . S
C2442 C2446 1.524 . S
C2443 C2435 1.503 . S
C2443 C2442 1.370 . S
C2443 C2444 1.403 . S
C2444 C2443 1.403 . S
C2444 C2445 1.404 . S
C2444 C2447 1.539 . S
C2445 C2441 1.408 . S
C2445 C2444 1.404 . S
C2445 H2457 0.930 . S
C2446 C2442 1.524 . S
C2446 H2458 0.956 . S
C2446 H2459 0.961 . S
C2446 H2460 0.961 . S
C2447 C2444 1.539 . S
C2447 H2461 0.958 . S
C2447 H2462 0.961 . S
C2447 H2463 0.960 . S
H2448 C2432 0.931 . S
H2449 C2437 0.929 . S
H2450 C2438 0.960 . S
H2451 C2438 0.962 . S
H2452 C2438 0.960 . S
H2453 C2439 0.961 . S
H2454 C2439 0.961 . S
H2455 C2439 0.961 . S
H2456 C2440 0.931 . S
H2457 C2445 0.930 . S
H2458 C2446 0.956 . S
H2459 C2446 0.961 . S
H2460 C2446 0.961 . S
H2461 C2447 0.958 . S
H2462 C2447 0.961 . S
H2463 C2447 0.960 . S
C2464 C2465 1.391 . S
C2464 C2466 1.394 . S
C2464 H2480 0.931 . S
C2465 C2464 1.391 . S
C2465 C2469 1.376 . S
C2466 C2464 1.394 . S
C2466 C2467 1.369 . S
C2466 C2470 1.531 . S
C2467 C2466 1.369 . S
C2467 C2468 1.410 . S
C2467 C2475 1.503 . S
C2468 C2467 1.410 . S
C2468 C2469 1.392 . S
C2468 C2471 1.511 . S
C2469 C2465 1.376 . S
C2469 C2468 1.392 . S
C2469 H2481 0.929 . S
C2470 C2466 1.531 . S
C2470 H2482 0.960 . S
C2470 H2483 0.962 . S
C2470 H2484 0.960 . S
C2471 C2468 1.511 . S
C2471 H2485 0.961 . S
C2471 H2486 0.961 . S
C2471 H2487 0.961 . S
C2472 C2473 1.370 . S
C2472 C2474 1.363 . S
C2472 H2488 0.931 . S
C2473 C2472 1.370 . S
C2473 C2477 1.408 . S
C2474 C2472 1.363 . S
C2474 C2475 1.370 . S
C2474 C2478 1.524 . S
C2475 C2467 1.503 . S
C2475 C2474 1.370 . S
C2475 C2476 1.403 . S
C2476 C2475 1.403 . S
C2476 C2477 1.404 . S
C2476 C2479 1.539 . S
C2477 C2473 1.408 . S
C2477 C2476 1.404 . S
C2477 H2489 0.930 . S
C2478 C2474 1.524 . S
C2478 H2490 0.956 . S
C2478 H2491 0.961 . S
C2478 H2492 0.961 . S
C2479 C2476 1.539 . S
C2479 H2493 0.958 . S
C2479 H2494 0.961 . S
C2479 H2495 0.960 . S
H2480 C2464 0.931 . S
H2481 C2469 0.929 . S
H2482 C2470 0.960 . S
H2483 C2470 0.962 . S
H2484 C2470 0.960 . S
H2485 C2471 0.961 . S
H2486 C2471 0.961 . S
H2487 C2471 0.961 . S
H2488 C2472 0.931 . S
H2489 C2477 0.930 . S
H2490 C2478 0.956 . S
H2491 C2478 0.961 . S
H2492 C2478 0.961 . S
H2493 C2479 0.958 . S
H2494 C2479 0.961 . S
H2495 C2479 0.960 . S
C2496 C2497 1.391 . S
C2496 C2498 1.394 . S
C2496 H2512 0.931 . S
C2497 C2496 1.391 . S
C2497 C2501 1.376 . S
C2498 C2496 1.394 . S
C2498 C2499 1.369 . S
C2498 C2502 1.531 . S
C2499 C2498 1.369 . S
C2499 C2500 1.410 . S
C2499 C2507 1.503 . S
C2500 C2499 1.410 . S
C2500 C2501 1.392 . S
C2500 C2503 1.511 . S
C2501 C2497 1.376 . S
C2501 C2500 1.392 . S
C2501 H2513 0.929 . S
C2502 C2498 1.531 . S
C2502 H2514 0.960 . S
C2502 H2515 0.962 . S
C2502 H2516 0.960 . S
C2503 C2500 1.511 . S
C2503 H2517 0.961 . S
C2503 H2518 0.961 . S
C2503 H2519 0.961 . S
C2504 C2505 1.370 . S
C2504 C2506 1.363 . S
C2504 H2520 0.931 . S
C2505 C2504 1.370 . S
C2505 C2509 1.408 . S
C2506 C2504 1.363 . S
C2506 C2507 1.370 . S
C2506 C2510 1.524 . S
C2507 C2499 1.503 . S
C2507 C2506 1.370 . S
C2507 C2508 1.403 . S
C2508 C2507 1.403 . S
C2508 C2509 1.404 . S
C2508 C2511 1.539 . S
C2509 C2505 1.408 . S
C2509 C2508 1.404 . S
C2509 H2521 0.930 . S
C2510 C2506 1.524 . S
C2510 H2522 0.956 . S
C2510 H2523 0.961 . S
C2510 H2524 0.961 . S
C2511 C2508 1.539 . S
C2511 H2525 0.958 . S
C2511 H2526 0.961 . S
C2511 H2527 0.960 . S
H2512 C2496 0.931 . S
H2513 C2501 0.929 . S
H2514 C2502 0.960 . S
H2515 C2502 0.962 . S
H2516 C2502 0.960 . S
H2517 C2503 0.961 . S
H2518 C2503 0.961 . S
H2519 C2503 0.961 . S
H2520 C2504 0.931 . S
H2521 C2509 0.930 . S
H2522 C2510 0.956 . S
H2523 C2510 0.961 . S
H2524 C2510 0.961 . S
H2525 C2511 0.958 . S
H2526 C2511 0.961 . S
H2527 C2511 0.960 . S
C2528 C2529 1.391 . S
C2528 C2530 1.394 . S
C2528 H2544 0.931 . S
C2529 C2528 1.391 . S
C2529 C2533 1.376 . S
C2530 C2528 1.394 . S
C2530 C2531 1.369 . S
C2530 C2534 1.531 . S
C2531 C2530 1.369 . S
C2531 C2532 1.410 . S
C2531 C2539 1.503 . S
C2532 C2531 1.410 . S
C2532 C2533 1.392 . S
C2532 C2535 1.511 . S
C2533 C2529 1.376 . S
C2533 C2532 1.392 . S
C2533 H2545 0.929 . S
C2534 C2530 1.531 . S
C2534 H2546 0.960 . S
C2534 H2547 0.962 . S
C2534 H2548 0.960 . S
C2535 C2532 1.511 . S
C2535 H2549 0.961 . S
C2535 H2550 0.961 . S
C2535 H2551 0.961 . S
C2536 C2537 1.370 . S
C2536 C2538 1.363 . S
C2536 H2552 0.931 . S
C2537 C2536 1.370 . S
C2537 C2541 1.408 . S
C2538 C2536 1.363 . S
C2538 C2539 1.370 . S
C2538 C2542 1.524 . S
C2539 C2531 1.503 . S
C2539 C2538 1.370 . S
C2539 C2540 1.403 . S
C2540 C2539 1.403 . S
C2540 C2541 1.404 . S
C2540 C2543 1.539 . S
C2541 C2537 1.408 . S
C2541 C2540 1.404 . S
C2541 H2553 0.930 . S
C2542 C2538 1.524 . S
C2542 H2554 0.956 . S
C2542 H2555 0.961 . S
C2542 H2556 0.961 . S
C2543 C2540 1.539 . S
C2543 H2557 0.958 . S
C2543 H2558 0.961 . S
C2543 H2559 0.960 . S
H2544 C2528 0.931 . S
H2545 C2533 0.929 . S
H2546 C2534 0.960 . S
H2547 C2534 0.962 . S
H2548 C2534 0.960 . S
H2549 C2535 0.961 . S
H2550 C2535 0.961 . S
H2551 C2535 0.961 . S
H2552 C2536 0.931 . S
H2553 C2541 0.930 . S
H2554 C2542 0.956 . S
H2555 C2542 0.961 . S
H2556 C2542 0.961 . S
H2557 C2543 0.958 . S
H2558 C2543 0.961 . S
H2559 C2543 0.960 . S
C2560 C2561 1.391 . S
C2560 C2562 1.394 . S
C2560 H2576 0.931 . S
C2561 C2560 1.391 . S
C2561 C2565 1.376 . S
C2562 C2560 1.394 . S
C2562 C2563 1.369 . S
C2562 C2566 1.531 . S
C2563 C2562 1.369 . S
C2563 C2564 1.410 . S
C2563 C2571 1.503 . S
C2564 C2563 1.410 . S
C2564 C2565 1.392 . S
C2564 C2567 1.511 . S
C2565 C2561 1.376 . S
C2565 C2564 1.392 . S
C2565 H2577 0.929 . S
C2566 C2562 1.531 . S
C2566 H2578 0.960 . S
C2566 H2579 0.962 . S
C2566 H2580 0.960 . S
C2567 C2564 1.511 . S
C2567 H2581 0.961 . S
C2567 H2582 0.961 . S
C2567 H2583 0.961 . S
C2568 C2569 1.370 . S
C2568 C2570 1.363 . S
C2568 H2584 0.931 . S
C2569 C2568 1.370 . S
C2569 C2573 1.408 . S
C2570 C2568 1.363 . S
C2570 C2571 1.370 . S
C2570 C2574 1.524 . S
C2571 C2563 1.503 . S
C2571 C2570 1.370 . S
C2571 C2572 1.403 . S
C2572 C2571 1.403 . S
C2572 C2573 1.404 . S
C2572 C2575 1.539 . S
C2573 C2569 1.408 . S
C2573 C2572 1.404 . S
C2573 H2585 0.930 . S
C2574 C2570 1.524 . S
C2574 H2586 0.956 . S
C2574 H2587 0.961 . S
C2574 H2588 0.961 . S
C2575 C2572 1.539 . S
C2575 H2589 0.958 . S
C2575 H2590 0.961 . S
C2575 H2591 0.960 . S
H2576 C2560 0.931 . S
H2577 C2565 0.929 . S
H2578 C2566 0.960 . S
H2579 C2566 0.962 . S
H2580 C2566 0.960 . S
H2581 C2567 0.961 . S
H2582 C2567 0.961 . S
H2583 C2567 0.961 . S
H2584 C2568 0.931 . S
H2585 C2573 0.930 . S
H2586 C2574 0.956 . S
H2587 C2574 0.961 . S
H2588 C2574 0.961 . S
H2589 C2575 0.958 . S
H2590 C2575 0.961 . S
H2591 C2575 0.960 . S
C2592 C2593 1.391 . S
C2592 C2594 1.394 . S
C2592 H2608 0.931 . S
C2593 C2592 1.391 . S
C2593 C2597 1.376 . S
C2594 C2592 1.394 . S
C2594 C2595 1.369 . S
C2594 C2598 1.531 . S
C2595 C2594 1.369 . S
C2595 C2596 1.410 . S
C2595 C2603 1.503 . S
C2596 C2595 1.410 . S
C2596 C2597 1.392 . S
C2596 C2599 1.511 . S
C2597 C2593 1.376 . S
C2597 C2596 1.392 . S
C2597 H2609 0.929 . S
C2598 C2594 1.531 . S
C2598 H2610 0.960 . S
C2598 H2611 0.962 . S
C2598 H2612 0.960 . S
C2599 C2596 1.511 . S
C2599 H2613 0.961 . S
C2599 H2614 0.961 . S
C2599 H2615 0.961 . S
C2600 C2601 1.370 . S
C2600 C2602 1.363 . S
C2600 H2616 0.931 . S
C2601 C2600 1.370 . S
C2601 C2605 1.408 . S
C2602 C2600 1.363 . S
C2602 C2603 1.370 . S
C2602 C2606 1.524 . S
C2603 C2595 1.503 . S
C2603 C2602 1.370 . S
C2603 C2604 1.403 . S
C2604 C2603 1.403 . S
C2604 C2605 1.404 . S
C2604 C2607 1.539 . S
C2605 C2601 1.408 . S
C2605 C2604 1.404 . S
C2605 H2617 0.930 . S
C2606 C2602 1.524 . S
C2606 H2618 0.956 . S
C2606 H2619 0.961 . S
C2606 H2620 0.961 . S
C2607 C2604 1.539 . S
C2607 H2621 0.958 . S
C2607 H2622 0.961 . S
C2607 H2623 0.960 . S
H2608 C2592 0.931 . S
H2609 C2597 0.929 . S
H2610 C2598 0.960 . S
H2611 C2598 0.962 . S
H2612 C2598 0.960 . S
H2613 C2599 0.961 . S
H2614 C2599 0.961 . S
H2615 C2599 0.961 . S
H2616 C2600 0.931 . S
H2617 C2605 0.930 . S
H2618 C2606 0.956 . S
H2619 C2606 0.961 . S
H2620 C2606 0.961 . S
H2621 C2607 0.958 . S
H2622 C2607 0.961 . S
H2623 C2607 0.960 . S
C2624 C2625 1.391 . S
C2624 C2626 1.394 . S
C2624 H2640 0.931 . S
C2625 C2624 1.391 . S
C2625 C2629 1.376 . S
C2626 C2624 1.394 . S
C2626 C2627 1.369 . S
C2626 C2630 1.531 1_554 S
C2627 C2626 1.369 . S
C2627 C2628 1.410 . S
C2627 C2635 1.503 1_554 S
C2628 C2627 1.410 . S
C2628 C2629 1.392 . S
C2628 C2631 1.511 . S
C2629 C2625 1.376 . S
C2629 C2628 1.392 . S
C2629 H2641 0.929 . S
C2630 C2626 1.531 1_556 S
C2630 H2642 0.960 . S
C2630 H2643 0.962 . S
C2630 H2644 0.960 1_556 S
C2631 C2628 1.511 . S
C2631 H2645 0.961 . S
C2631 H2646 0.961 . S
C2631 H2647 0.961 . S
C2632 C2633 1.370 . S
C2632 C2634 1.363 . S
C2632 H2648 0.931 . S
C2633 C2632 1.370 . S
C2633 C2637 1.408 . S
C2634 C2632 1.363 . S
C2634 C2635 1.370 . S
C2634 C2638 1.524 . S
C2635 C2627 1.503 1_556 S
C2635 C2634 1.370 . S
C2635 C2636 1.403 . S
C2636 C2635 1.403 . S
C2636 C2637 1.404 . S
C2636 C2639 1.539 . S
C2637 C2633 1.408 . S
C2637 C2636 1.404 . S
C2637 H2649 0.930 . S
C2638 C2634 1.524 . S
C2638 H2650 0.956 . S
C2638 H2651 0.985 . S
C2638 H2652 0.961 . S
C2639 C2636 1.539 . S
C2639 H2653 0.958 . S
C2639 H2654 0.961 . S
C2639 H2655 0.960 1_556 S
H2640 C2624 0.931 . S
H2641 C2629 0.929 . S
H2642 C2630 0.960 . S
H2643 C2630 0.962 . S
H2644 C2630 0.960 1_554 S
H2645 C2631 0.961 . S
H2646 C2631 0.961 . S
H2647 C2631 0.961 . S
H2648 C2632 0.931 . S
H2649 C2637 0.930 . S
H2650 C2638 0.956 . S
H2651 C2638 0.985 . S
H2652 C2638 0.961 . S
H2653 C2639 0.958 . S
H2654 C2639 0.961 . S
H2655 C2639 0.960 1_554 S
C2656 C2657 1.391 . S
C2656 C2658 1.394 . S
C2656 H2672 0.931 . S
C2657 C2656 1.391 . S
C2657 C2661 1.376 . S
C2658 C2656 1.394 . S
C2658 C2659 1.369 . S
C2658 C2662 1.531 . S
C2659 C2658 1.369 . S
C2659 C2660 1.410 . S
C2659 C2667 1.503 1_565 S
C2660 C2659 1.410 . S
C2660 C2661 1.392 . S
C2660 C2663 1.511 1_665 S
C2661 C2657 1.376 . S
C2661 C2660 1.392 . S
C2661 H2673 0.929 . S
C2662 C2658 1.531 . S
C2662 H2674 0.960 . S
C2662 H2675 0.962 . S
C2662 H2676 0.960 . S
C2663 C2660 1.511 1_445 S
C2663 H2677 0.961 . S
C2663 H2678 0.961 . S
C2663 H2679 0.961 . S
C2664 C2665 1.370 . S
C2664 C2666 1.363 . S
C2664 H2680 0.931 . S
C2665 C2664 1.370 . S
C2665 C2669 1.373 1_545 S
C2666 C2664 1.363 . S
C2666 C2667 1.370 . S
C2666 C2670 1.524 . S
C2667 C2659 1.503 1_545 S
C2667 C2666 1.370 . S
C2667 C2668 1.403 1_545 S
C2668 C2667 1.403 1_565 S
C2668 C2669 1.421 . S
C2668 C2671 1.539 . S
C2669 C2665 1.373 1_565 S
C2669 C2668 1.421 . S
C2669 H2681 0.949 . S
C2670 C2666 1.524 . S
C2670 H2682 0.956 . S
C2670 H2683 0.961 . S
C2670 H2684 0.961 . S
C2671 C2668 1.539 . S
C2671 H2685 0.958 . S
C2671 H2686 0.961 1_655 S
C2671 H2687 0.960 1_655 S
H2672 C2656 0.931 . S
H2673 C2661 0.929 . S
H2674 C2662 0.960 . S
H2675 C2662 0.962 . S
H2676 C2662 0.960 . S
H2677 C2663 0.961 . S
H2678 C2663 0.961 . S
H2679 C2663 0.961 . S
H2680 C2664 0.931 . S
H2681 C2669 0.949 . S
H2682 C2670 0.956 . S
H2683 C2670 0.961 . S
H2684 C2670 0.961 . S
H2685 C2671 0.958 . S
H2686 C2671 0.961 1_455 S
H2687 C2671 0.960 1_455 S
C2688 C2689 1.391 . S
C2688 C2690 1.394 . S
C2688 H2704 0.931 . S
C2689 C2688 1.391 . S
C2689 C2693 1.376 . S
C2690 C2688 1.394 . S
C2690 C2691 1.369 . S
C2690 C2694 1.531 . S
C2691 C2690 1.369 . S
C2691 C2692 1.410 . S
C2691 C2699 1.503 . S
C2692 C2691 1.410 . S
C2692 C2693 1.392 . S
C2692 C2695 1.511 . S
C2693 C2689 1.376 . S
C2693 C2692 1.392 . S
C2693 H2705 0.929 . S
C2694 C2690 1.531 . S
C2694 H2706 0.960 . S
C2694 H2707 0.962 . S
C2694 H2708 0.960 . S
C2695 C2692 1.511 . S
C2695 H2709 0.961 . S
C2695 H2710 0.961 . S
C2695 H2711 0.961 . S
C2696 C2697 1.370 . S
C2696 C2698 1.363 . S
C2696 H2712 0.931 . S
C2697 C2696 1.370 . S
C2697 C2701 1.408 . S
C2698 C2696 1.363 . S
C2698 C2699 1.370 . S
C2698 C2702 1.524 . S
C2699 C2691 1.503 . S
C2699 C2698 1.370 . S
C2699 C2700 1.403 . S
C2700 C2699 1.403 . S
C2700 C2701 1.404 . S
C2700 C2703 1.539 . S
C2701 C2697 1.408 . S
C2701 C2700 1.404 . S
C2701 H2713 0.930 . S
C2702 C2698 1.524 . S
C2702 H2714 0.956 . S
C2702 H2715 0.961 . S
C2702 H2716 0.961 . S
C2703 C2700 1.539 . S
C2703 H2717 0.958 . S
C2703 H2718 0.961 . S
C2703 H2719 0.960 . S
H2704 C2688 0.931 . S
H2705 C2693 0.929 . S
H2706 C2694 0.960 . S
H2707 C2694 0.962 . S
H2708 C2694 0.960 . S
H2709 C2695 0.961 . S
H2710 C2695 0.961 . S
H2711 C2695 0.961 . S
H2712 C2696 0.931 . S
H2713 C2701 0.930 . S
H2714 C2702 0.956 . S
H2715 C2702 0.961 . S
H2716 C2702 0.961 . S
H2717 C2703 0.958 . S
H2718 C2703 0.961 . S
H2719 C2703 0.960 . S
C2720 C2721 1.391 . S
C2720 C2722 1.394 . S
C2720 H2736 0.931 . S
C2721 C2720 1.391 . S
C2721 C2725 1.376 . S
C2722 C2720 1.394 . S
C2722 C2723 1.369 . S
C2722 C2726 1.531 . S
C2723 C2722 1.369 . S
C2723 C2724 1.410 . S
C2723 C2731 1.491 1_565 S
C2724 C2723 1.410 . S
C2724 C2725 1.392 . S
C2724 C2727 1.511 . S
C2725 C2721 1.376 . S
C2725 C2724 1.392 . S
C2725 H2737 0.929 . S
C2726 C2722 1.531 . S
C2726 H2738 0.960 . S
C2726 H2739 0.962 1_565 S
C2726 H2740 0.960 . S
C2727 C2724 1.511 . S
C2727 H2741 0.961 . S
C2727 H2742 0.941 1_565 S
C2727 H2743 0.961 . S
C2728 C2729 1.370 . S
C2728 C2730 1.363 . S
C2728 H2744 0.931 . S
C2729 C2728 1.370 . S
C2729 C2733 1.408 1_545 S
C2730 C2728 1.363 . S
C2730 C2731 1.403 . S
C2730 C2734 1.524 . S
C2731 C2723 1.491 1_545 S
C2731 C2730 1.403 . S
C2731 C2732 1.383 1_545 S
C2732 C2731 1.383 1_565 S
C2732 C2733 1.404 . S
C2732 C2735 1.539 . S
C2733 C2729 1.408 1_565 S
C2733 C2732 1.404 . S
C2733 H2745 0.930 . S
C2734 C2730 1.524 . S
C2734 H2746 0.956 . S
C2734 H2747 0.961 . S
C2734 H2748 0.961 . S
C2735 C2732 1.539 . S
C2735 H2749 0.958 . S
C2735 H2750 0.961 . S
C2735 H2751 0.960 . S
H2736 C2720 0.931 . S
H2737 C2725 0.929 . S
H2738 C2726 0.960 . S
H2739 C2726 0.962 1_545 S
H2740 C2726 0.960 . S
H2741 C2727 0.961 . S
H2742 C2727 0.941 1_545 S
H2743 C2727 0.961 . S
H2744 C2728 0.931 . S
H2745 C2733 0.930 . S
H2746 C2734 0.956 . S
H2747 C2734 0.961 . S
H2748 C2734 0.961 . S
H2749 C2735 0.958 . S
H2750 C2735 0.961 . S
H2751 C2735 0.960 . S
C2752 C2753 1.391 . S
C2752 C2754 1.394 . S
C2752 H2768 0.931 . S
C2753 C2752 1.391 . S
C2753 C2757 1.376 . S
C2754 C2752 1.394 . S
C2754 C2755 1.369 . S
C2754 C2758 1.531 . S
C2755 C2754 1.369 . S
C2755 C2756 1.410 . S
C2755 C2763 1.503 1_554 S
C2756 C2755 1.410 . S
C2756 C2757 1.392 . S
C2756 C2759 1.511 1_554 S
C2757 C2753 1.376 . S
C2757 C2756 1.392 . S
C2757 H2769 0.929 . S
C2758 C2754 1.531 . S
C2758 H2770 0.960 . S
C2758 H2771 0.962 . S
C2758 H2772 0.960 . S
C2759 C2756 1.511 1_556 S
C2759 H2773 0.961 1_556 S
C2759 H2774 0.961 . S
C2759 H2775 0.961 . S
C2760 C2761 1.370 . S
C2760 C2762 1.363 . S
C2760 H2776 0.931 . S
C2761 C2760 1.370 . S
C2761 C2765 1.408 . S
C2762 C2760 1.363 . S
C2762 C2763 1.370 . S
C2762 C2766 1.524 . S
C2763 C2755 1.503 1_556 S
C2763 C2762 1.370 . S
C2763 C2764 1.403 . S
C2764 C2763 1.403 . S
C2764 C2765 1.404 . S
C2764 C2767 1.539 . S
C2765 C2761 1.408 . S
C2765 C2764 1.404 . S
C2765 H2777 0.930 . S
C2766 C2762 1.524 . S
C2766 H2778 0.956 1_556 S
C2766 H2779 0.961 1_556 S
C2766 H2780 0.961 . S
C2767 C2764 1.539 . S
C2767 H2781 0.958 . S
C2767 H2782 0.961 . S
C2767 H2783 0.960 . S
H2768 C2752 0.931 . S
H2769 C2757 0.929 . S
H2770 C2758 0.960 . S
H2771 C2758 0.962 . S
H2772 C2758 0.960 . S
H2773 C2759 0.961 1_554 S
H2774 C2759 0.961 . S
H2775 C2759 0.961 . S
H2776 C2760 0.931 . S
H2777 C2765 0.930 . S
H2778 C2766 0.956 1_554 S
H2779 C2766 0.961 1_554 S
H2780 C2766 0.961 . S
H2781 C2767 0.958 . S
H2782 C2767 0.961 . S
H2783 C2767 0.960 . S
C2784 C2785 1.391 . S
C2784 C2786 1.394 . S
C2784 H2800 0.931 . S
C2785 C2784 1.391 . S
C2785 C2789 1.376 1_545 S
C2786 C2784 1.394 . S
C2786 C2787 1.369 . S
C2786 C2790 1.531 . S
C2787 C2786 1.369 . S
C2787 C2788 1.410 1_545 S
C2787 C2795 1.503 1_545 S
C2788 C2787 1.410 1_565 S
C2788 C2789 1.392 . S
C2788 C2791 1.511 . S
C2789 C2785 1.376 1_565 S
C2789 C2788 1.392 . S
C2789 H2801 0.929 . S
C2790 C2786 1.531 . S
C2790 H2802 0.960 . S
C2790 H2803 0.962 . S
C2790 H2804 0.960 . S
C2791 C2788 1.511 . S
C2791 H2805 0.961 . S
C2791 H2806 0.961 . S
C2791 H2807 0.961 . S
C2792 C2793 1.370 . S
C2792 C2794 1.363 . S
C2792 H2808 0.931 1_455 S
C2793 C2792 1.370 . S
C2793 C2797 1.408 . S
C2794 C2792 1.363 . S
C2794 C2795 1.370 . S
C2794 C2798 1.524 1_455 S
C2795 C2787 1.503 1_565 S
C2795 C2794 1.370 . S
C2795 C2796 1.403 . S
C2796 C2795 1.403 . S
C2796 C2797 1.404 . S
C2796 C2799 1.539 . S
C2797 C2793 1.408 . S
C2797 C2796 1.404 . S
C2797 H2809 0.930 . S
C2798 C2794 1.524 1_655 S
C2798 H2810 0.956 1_565 S
C2798 H2811 0.961 . S
C2798 H2812 0.961 . S
C2799 C2796 1.539 . S
C2799 H2813 0.958 1_565 S
C2799 H2814 0.961 . S
C2799 H2815 0.960 . S
H2800 C2784 0.931 . S
H2801 C2789 0.929 . S
H2802 C2790 0.960 . S
H2803 C2790 0.962 . S
H2804 C2790 0.960 . S
H2805 C2791 0.961 . S
H2806 C2791 0.961 . S
H2807 C2791 0.961 . S
H2808 C2792 0.931 1_655 S
H2809 C2797 0.930 . S
H2810 C2798 0.956 1_545 S
H2811 C2798 0.961 . S
H2812 C2798 0.961 . S
H2813 C2799 0.958 1_545 S
H2814 C2799 0.961 . S
H2815 C2799 0.960 . S
C2816 C2817 1.391 . S
C2816 C2818 1.394 . S
C2816 H2832 0.931 . S
C2817 C2816 1.391 . S
C2817 C2821 1.376 . S
C2818 C2816 1.394 . S
C2818 C2819 1.369 . S
C2818 C2822 1.531 . S
C2819 C2818 1.369 . S
C2819 C2820 1.410 . S
C2819 C2827 1.503 . S
C2820 C2819 1.410 . S
C2820 C2821 1.392 . S
C2820 C2823 1.511 . S
C2821 C2817 1.376 . S
C2821 C2820 1.392 . S
C2821 H2833 0.929 . S
C2822 C2818 1.531 . S
C2822 H2834 0.960 . S
C2822 H2835 0.962 . S
C2822 H2836 0.960 . S
C2823 C2820 1.511 . S
C2823 H2837 0.961 . S
C2823 H2838 0.961 . S
C2823 H2839 0.961 . S
C2824 C2825 1.370 . S
C2824 C2826 1.363 . S
C2824 H2840 0.931 . S
C2825 C2824 1.370 . S
C2825 C2829 1.408 . S
C2826 C2824 1.363 . S
C2826 C2827 1.370 . S
C2826 C2830 1.524 . S
C2827 C2819 1.503 . S
C2827 C2826 1.370 . S
C2827 C2828 1.403 . S
C2828 C2827 1.403 . S
C2828 C2829 1.404 . S
C2828 C2831 1.539 . S
C2829 C2825 1.408 . S
C2829 C2828 1.404 . S
C2829 H2841 0.930 . S
C2830 C2826 1.524 . S
C2830 H2842 0.956 . S
C2830 H2843 0.961 . S
C2830 H2844 0.961 . S
C2831 C2828 1.539 . S
C2831 H2845 0.958 . S
C2831 H2846 0.961 . S
C2831 H2847 0.960 . S
H2832 C2816 0.931 . S
H2833 C2821 0.929 . S
H2834 C2822 0.960 . S
H2835 C2822 0.962 . S
H2836 C2822 0.960 . S
H2837 C2823 0.961 . S
H2838 C2823 0.961 . S
H2839 C2823 0.961 . S
H2840 C2824 0.931 . S
H2841 C2829 0.930 . S
H2842 C2830 0.956 . S
H2843 C2830 0.961 . S
H2844 C2830 0.961 . S
H2845 C2831 0.958 . S
H2846 C2831 0.961 . S
H2847 C2831 0.960 . S
C2848 C2849 1.391 . S
C2848 C2850 1.394 . S
C2848 H2864 0.931 . S
C2849 C2848 1.391 . S
C2849 C2853 1.376 . S
C2850 C2848 1.394 . S
C2850 C2851 1.369 . S
C2850 C2854 1.531 . S
C2851 C2850 1.369 . S
C2851 C2852 1.410 . S
C2851 C2859 1.490 1_565 S
C2852 C2851 1.410 . S
C2852 C2853 1.392 . S
C2852 C2855 1.523 . S
C2853 C2849 1.376 . S
C2853 C2852 1.392 . S
C2853 H2865 0.929 . S
C2854 C2850 1.531 . S
C2854 H2866 0.960 . S
C2854 H2867 0.962 . S
C2854 H2868 0.960 . S
C2855 C2852 1.523 . S
C2855 H2869 0.947 1_565 S
C2855 H2870 0.935 1_565 S
C2855 H2871 0.990 . S
C2856 C2857 1.370 . S
C2856 C2858 1.363 . S
C2856 H2872 0.931 . S
C2857 C2856 1.370 . S
C2857 C2861 1.408 1_545 S
C2858 C2856 1.363 . S
C2858 C2859 1.405 . S
C2858 C2862 1.524 . S
C2859 C2851 1.490 1_545 S
C2859 C2858 1.405 . S
C2859 C2860 1.382 1_545 S
C2860 C2859 1.382 1_565 S
C2860 C2861 1.404 . S
C2860 C2863 1.539 . S
C2861 C2857 1.408 1_565 S
C2861 C2860 1.404 . S
C2861 H2873 0.930 . S
C2862 C2858 1.524 . S
C2862 H2874 0.956 . S
C2862 H2875 0.961 . S
C2862 H2876 0.961 . S
C2863 C2860 1.539 . S
C2863 H2877 0.958 . S
C2863 H2878 0.961 . S
C2863 H2879 0.960 . S
H2864 C2848 0.931 . S
H2865 C2853 0.929 . S
H2866 C2854 0.960 . S
H2867 C2854 0.962 . S
H2868 C2854 0.960 . S
H2869 C2855 0.947 1_545 S
H2870 C2855 0.935 1_545 S
H2871 C2855 0.990 . S
H2872 C2856 0.931 . S
H2873 C2861 0.930 . S
H2874 C2862 0.956 . S
H2875 C2862 0.961 . S
H2876 C2862 0.961 . S
H2877 C2863 0.958 . S
H2878 C2863 0.961 . S
H2879 C2863 0.960 . S
C2880 C2881 1.391 . S
C2880 C2882 1.394 . S
C2880 H2896 0.931 . S
C2881 C2880 1.391 . S
C2881 C2885 1.376 . S
C2882 C2880 1.394 . S
C2882 C2883 1.369 . S
C2882 C2886 1.531 . S
C2883 C2882 1.369 . S
C2883 C2884 1.410 . S
C2883 C2891 1.503 . S
C2884 C2883 1.410 . S
C2884 C2885 1.392 . S
C2884 C2887 1.511 . S
C2885 C2881 1.376 . S
C2885 C2884 1.392 . S
C2885 H2897 0.929 . S
C2886 C2882 1.531 . S
C2886 H2898 0.960 . S
C2886 H2899 0.962 . S
C2886 H2900 0.960 . S
C2887 C2884 1.511 . S
C2887 H2901 0.961 . S
C2887 H2902 0.961 . S
C2887 H2903 0.961 . S
C2888 C2889 1.370 . S
C2888 C2890 1.363 . S
C2888 H2904 0.931 . S
C2889 C2888 1.370 . S
C2889 C2893 1.408 . S
C2890 C2888 1.363 . S
C2890 C2891 1.370 . S
C2890 C2894 1.524 . S
C2891 C2883 1.503 . S
C2891 C2890 1.370 . S
C2891 C2892 1.403 . S
C2892 C2891 1.403 . S
C2892 C2893 1.404 . S
C2892 C2895 1.539 . S
C2893 C2889 1.408 . S
C2893 C2892 1.404 . S
C2893 H2905 0.930 . S
C2894 C2890 1.524 . S
C2894 H2906 0.956 . S
C2894 H2907 0.961 . S
C2894 H2908 0.961 . S
C2895 C2892 1.539 . S
C2895 H2909 0.958 . S
C2895 H2910 0.961 . S
C2895 H2911 0.960 . S
H2896 C2880 0.931 . S
H2897 C2885 0.929 . S
H2898 C2886 0.960 . S
H2899 C2886 0.962 . S
H2900 C2886 0.960 . S
H2901 C2887 0.961 . S
H2902 C2887 0.961 . S
H2903 C2887 0.961 . S
H2904 C2888 0.931 . S
H2905 C2893 0.930 . S
H2906 C2894 0.956 . S
H2907 C2894 0.961 . S
H2908 C2894 0.961 . S
H2909 C2895 0.958 . S
H2910 C2895 0.961 . S
H2911 C2895 0.960 . S
C2912 C2913 1.391 . S
C2912 C2914 1.394 . S
C2912 H2928 0.931 . S
C2913 C2912 1.391 . S
C2913 C2917 1.376 . S
C2914 C2912 1.394 . S
C2914 C2915 1.369 . S
C2914 C2918 1.531 . S
C2915 C2914 1.369 . S
C2915 C2916 1.410 . S
C2915 C2923 1.503 . S
C2916 C2915 1.410 . S
C2916 C2917 1.392 . S
C2916 C2919 1.511 . S
C2917 C2913 1.376 . S
C2917 C2916 1.392 . S
C2917 H2929 0.929 . S
C2918 C2914 1.531 . S
C2918 H2930 0.960 . S
C2918 H2931 0.962 . S
C2918 H2932 0.960 . S
C2919 C2916 1.511 . S
C2919 H2933 0.961 . S
C2919 H2934 0.961 . S
C2919 H2935 0.961 . S
C2920 C2921 1.370 . S
C2920 C2922 1.363 . S
C2920 H2936 0.931 . S
C2921 C2920 1.370 . S
C2921 C2925 1.408 . S
C2922 C2920 1.363 . S
C2922 C2923 1.370 . S
C2922 C2926 1.524 . S
C2923 C2915 1.503 . S
C2923 C2922 1.370 . S
C2923 C2924 1.403 . S
C2924 C2923 1.403 . S
C2924 C2925 1.404 . S
C2924 C2927 1.539 . S
C2925 C2921 1.408 . S
C2925 C2924 1.404 . S
C2925 H2937 0.930 . S
C2926 C2922 1.524 . S
C2926 H2938 0.956 . S
C2926 H2939 0.961 . S
C2926 H2940 0.961 . S
C2927 C2924 1.539 . S
C2927 H2941 0.958 . S
C2927 H2942 0.961 . S
C2927 H2943 0.960 . S
H2928 C2912 0.931 . S
H2929 C2917 0.929 . S
H2930 C2918 0.960 . S
H2931 C2918 0.962 . S
H2932 C2918 0.960 . S
H2933 C2919 0.961 . S
H2934 C2919 0.961 . S
H2935 C2919 0.961 . S
H2936 C2920 0.931 . S
H2937 C2925 0.930 . S
H2938 C2926 0.956 . S
H2939 C2926 0.961 . S
H2940 C2926 0.961 . S
H2941 C2927 0.958 . S
H2942 C2927 0.961 . S
H2943 C2927 0.960 . S
C2944 C2945 1.391 . S
C2944 C2946 1.394 . S
C2944 H2960 0.931 . S
C2945 C2944 1.391 . S
C2945 C2949 1.376 . S
C2946 C2944 1.394 . S
C2946 C2947 1.369 . S
C2946 C2950 1.531 1_554 S
C2947 C2946 1.369 . S
C2947 C2948 1.410 . S
C2947 C2955 1.503 1_554 S
C2948 C2947 1.410 . S
C2948 C2949 1.392 . S
C2948 C2951 1.511 . S
C2949 C2945 1.376 . S
C2949 C2948 1.392 . S
C2949 H2961 0.929 . S
C2950 C2946 1.531 1_556 S
C2950 H2962 0.960 . S
C2950 H2963 0.962 . S
C2950 H2964 0.960 1_556 S
C2951 C2948 1.511 . S
C2951 H2965 0.961 . S
C2951 H2966 0.961 . S
C2951 H2967 0.961 . S
C2952 C2953 1.370 . S
C2952 C2954 1.363 . S
C2952 H2968 0.931 . S
C2953 C2952 1.370 . S
C2953 C2957 1.408 . S
C2954 C2952 1.363 . S
C2954 C2955 1.370 . S
C2954 C2958 1.524 . S
C2955 C2947 1.503 1_556 S
C2955 C2954 1.370 . S
C2955 C2956 1.403 . S
C2956 C2955 1.403 . S
C2956 C2957 1.404 . S
C2956 C2959 1.539 . S
C2957 C2953 1.408 . S
C2957 C2956 1.404 . S
C2957 H2969 0.930 . S
C2958 C2954 1.524 . S
C2958 H2970 0.956 . S
C2958 H2971 0.978 . S
C2958 H2972 0.961 . S
C2959 C2956 1.539 . S
C2959 H2973 0.958 . S
C2959 H2974 0.961 . S
C2959 H2975 0.960 1_556 S
H2960 C2944 0.931 . S
H2961 C2949 0.929 . S
H2962 C2950 0.960 . S
H2963 C2950 0.962 . S
H2964 C2950 0.960 1_554 S
H2965 C2951 0.961 . S
H2966 C2951 0.961 . S
H2967 C2951 0.961 . S
H2968 C2952 0.931 . S
H2969 C2957 0.930 . S
H2970 C2958 0.956 . S
H2971 C2958 0.978 . S
H2972 C2958 0.961 . S
H2973 C2959 0.958 . S
H2974 C2959 0.961 . S
H2975 C2959 0.960 1_554 S
C2976 C2977 1.391 . S
C2976 C2978 1.394 . S
C2976 H2992 0.931 . S
C2977 C2976 1.391 . S
C2977 C2981 1.376 . S
C2978 C2976 1.394 . S
C2978 C2979 1.369 . S
C2978 C2982 1.531 . S
C2979 C2978 1.369 . S
C2979 C2980 1.410 . S
C2979 C2987 1.503 . S
C2980 C2979 1.410 . S
C2980 C2981 1.392 . S
C2980 C2983 1.511 1_455 S
C2981 C2977 1.376 . S
C2981 C2980 1.392 . S
C2981 H2993 0.929 1_455 S
C2982 C2978 1.531 . S
C2982 H2994 0.960 . S
C2982 H2995 0.962 . S
C2982 H2996 0.960 . S
C2983 C2980 1.511 1_655 S
C2983 H2997 0.961 . S
C2983 H2998 0.961 . S
C2983 H2999 0.961 . S
C2984 C2985 1.370 . S
C2984 C2986 1.363 . S
C2984 H3000 0.931 . S
C2985 C2984 1.370 . S
C2985 C2989 1.408 . S
C2986 C2984 1.363 . S
C2986 C2987 1.370 . S
C2986 C2990 1.524 . S
C2987 C2979 1.503 . S
C2987 C2986 1.370 . S
C2987 C2988 1.403 . S
C2988 C2987 1.403 . S
C2988 C2989 1.404 . S
C2988 C2991 1.539 . S
C2989 C2985 1.408 . S
C2989 C2988 1.404 . S
C2989 H3001 0.930 . S
C2990 C2986 1.524 . S
C2990 H3002 0.956 . S
C2990 H3003 0.961 . S
C2990 H3004 0.961 . S
C2991 C2988 1.539 . S
C2991 H3005 0.958 . S
C2991 H3006 0.961 . S
C2991 H3007 0.960 . S
H2992 C2976 0.931 . S
H2993 C2981 0.929 1_655 S
H2994 C2982 0.960 . S
H2995 C2982 0.962 . S
H2996 C2982 0.960 . S
H2997 C2983 0.961 . S
H2998 C2983 0.961 . S
H2999 C2983 0.961 . S
H3000 C2984 0.931 . S
H3001 C2989 0.930 . S
H3002 C2990 0.956 . S
H3003 C2990 0.961 . S
H3004 C2990 0.961 . S
H3005 C2991 0.958 . S
H3006 C2991 0.961 . S
H3007 C2991 0.960 . S
C3008 C3009 1.391 . S
C3008 C3010 1.394 . S
C3008 H3024 0.931 . S
C3009 C3008 1.391 . S
C3009 C3013 1.376 . S
C3010 C3008 1.394 . S
C3010 C3011 1.369 . S
C3010 C3014 1.531 . S
C3011 C3010 1.369 . S
C3011 C3012 1.410 . S
C3011 C3019 1.503 . S
C3012 C3011 1.410 . S
C3012 C3013 1.392 . S
C3012 C3015 1.511 . S
C3013 C3009 1.376 . S
C3013 C3012 1.392 . S
C3013 H3025 0.929 . S
C3014 C3010 1.531 . S
C3014 H3026 0.960 . S
C3014 H3027 0.962 . S
C3014 H3028 0.960 . S
C3015 C3012 1.511 . S
C3015 H3029 0.961 . S
C3015 H3030 0.961 . S
C3015 H3031 0.961 . S
C3016 C3017 1.370 . S
C3016 C3018 1.363 . S
C3016 H3032 0.931 . S
C3017 C3016 1.370 . S
C3017 C3021 1.408 . S
C3018 C3016 1.363 . S
C3018 C3019 1.370 . S
C3018 C3022 1.524 . S
C3019 C3011 1.503 . S
C3019 C3018 1.370 . S
C3019 C3020 1.403 . S
C3020 C3019 1.403 . S
C3020 C3021 1.404 . S
C3020 C3023 1.539 . S
C3021 C3017 1.408 . S
C3021 C3020 1.404 . S
C3021 H3033 0.930 . S
C3022 C3018 1.524 . S
C3022 H3034 0.956 . S
C3022 H3035 0.961 . S
C3022 H3036 0.961 . S
C3023 C3020 1.539 . S
C3023 H3037 0.958 . S
C3023 H3038 0.961 . S
C3023 H3039 0.960 . S
H3024 C3008 0.931 . S
H3025 C3013 0.929 . S
H3026 C3014 0.960 . S
H3027 C3014 0.962 . S
H3028 C3014 0.960 . S
H3029 C3015 0.961 . S
H3030 C3015 0.961 . S
H3031 C3015 0.961 . S
H3032 C3016 0.931 . S
H3033 C3021 0.930 . S
H3034 C3022 0.956 . S
H3035 C3022 0.961 . S
H3036 C3022 0.961 . S
H3037 C3023 0.958 . S
H3038 C3023 0.961 . S
H3039 C3023 0.960 . S
C3040 C3041 1.391 . S
C3040 C3042 1.394 . S
C3040 H3056 0.931 . S
C3041 C3040 1.391 . S
C3041 C3045 1.376 . S
C3042 C3040 1.394 . S
C3042 C3043 1.369 . S
C3042 C3046 1.531 . S
C3043 C3042 1.369 . S
C3043 C3044 1.410 . S
C3043 C3051 1.503 . S
C3044 C3043 1.410 . S
C3044 C3045 1.392 . S
C3044 C3047 1.511 . S
C3045 C3041 1.376 . S
C3045 C3044 1.392 . S
C3045 H3057 0.929 . S
C3046 C3042 1.531 . S
C3046 H3058 0.960 . S
C3046 H3059 0.962 . S
C3046 H3060 0.960 . S
C3047 C3044 1.511 . S
C3047 H3061 0.961 . S
C3047 H3062 0.961 . S
C3047 H3063 0.961 . S
C3048 C3049 1.370 . S
C3048 C3050 1.363 . S
C3048 H3064 0.931 . S
C3049 C3048 1.370 . S
C3049 C3053 1.408 . S
C3050 C3048 1.363 . S
C3050 C3051 1.370 . S
C3050 C3054 1.524 . S
C3051 C3043 1.503 . S
C3051 C3050 1.370 . S
C3051 C3052 1.403 . S
C3052 C3051 1.403 . S
C3052 C3053 1.404 . S
C3052 C3055 1.539 . S
C3053 C3049 1.408 . S
C3053 C3052 1.404 . S
C3053 H3065 0.930 . S
C3054 C3050 1.524 . S
C3054 H3066 0.956 . S
C3054 H3067 0.961 . S
C3054 H3068 0.961 . S
C3055 C3052 1.539 . S
C3055 H3069 0.958 . S
C3055 H3070 0.961 . S
C3055 H3071 0.960 . S
H3056 C3040 0.931 . S
H3057 C3045 0.929 . S
H3058 C3046 0.960 . S
H3059 C3046 0.962 . S
H3060 C3046 0.960 . S
H3061 C3047 0.961 . S
H3062 C3047 0.961 . S
H3063 C3047 0.961 . S
H3064 C3048 0.931 . S
H3065 C3053 0.930 . S
H3066 C3054 0.956 . S
H3067 C3054 0.961 . S
H3068 C3054 0.961 . S
H3069 C3055 0.958 . S
H3070 C3055 0.961 . S
H3071 C3055 0.960 . S
C3072 C3073 1.391 . S
C3072 C3074 1.394 . S
C3072 H3088 0.931 . S
C3073 C3072 1.391 . S
C3073 C3077 1.376 . S
C3074 C3072 1.394 . S
C3074 C3075 1.369 . S
C3074 C3078 1.531 1_556 S
C3075 C3074 1.369 . S
C3075 C3076 1.410 . S
C3075 C3083 1.503 1_556 S
C3076 C3075 1.410 . S
C3076 C3077 1.392 . S
C3076 C3079 1.511 . S
C3077 C3073 1.376 . S
C3077 C3076 1.392 . S
C3077 H3089 0.929 . S
C3078 C3074 1.531 1_554 S
C3078 H3090 0.960 . S
C3078 H3091 0.962 . S
C3078 H3092 0.960 1_554 S
C3079 C3076 1.511 . S
C3079 H3093 0.961 . S
C3079 H3094 0.961 . S
C3079 H3095 0.961 . S
C3080 C3081 1.370 . S
C3080 C3082 1.363 . S
C3080 H3096 0.931 . S
C3081 C3080 1.370 . S
C3081 C3085 1.408 . S
C3082 C3080 1.363 . S
C3082 C3083 1.370 . S
C3082 C3086 1.524 . S
C3083 C3075 1.503 1_554 S
C3083 C3082 1.370 . S
C3083 C3084 1.403 . S
C3084 C3083 1.403 . S
C3084 C3085 1.404 . S
C3084 C3087 1.539 . S
C3085 C3081 1.408 . S
C3085 C3084 1.404 . S
C3085 H3097 0.930 . S
C3086 C3082 1.524 . S
C3086 H3098 0.961 . S
C3086 H3099 0.961 1_554 S
C3086 H3100 0.961 . S
C3087 C3084 1.539 . S
C3087 H3101 0.958 . S
C3087 H3102 0.961 . S
C3087 H3103 0.960 . S
H3088 C3072 0.931 . S
H3089 C3077 0.929 . S
H3090 C3078 0.960 . S
H3091 C3078 0.962 . S
H3092 C3078 0.960 1_556 S
H3093 C3079 0.961 . S
H3094 C3079 0.961 . S
H3095 C3079 0.961 . S
H3096 C3080 0.931 . S
H3097 C3085 0.930 . S
H3098 C3086 0.961 . S
H3099 C3086 0.961 1_556 S
H3100 C3086 0.961 . S
H3101 C3087 0.958 . S
H3102 C3087 0.961 . S
H3103 C3087 0.960 . S
C3104 C3105 1.391 . S
C3104 C3106 1.394 . S
C3104 H3120 0.908 1_655 S
C3105 C3104 1.391 . S
C3105 C3109 1.376 . S
C3106 C3104 1.394 . S
C3106 C3107 1.369 . S
C3106 C3110 1.531 1_655 S
C3107 C3106 1.369 . S
C3107 C3108 1.410 . S
C3107 C3115 1.503 . S
C3108 C3107 1.410 . S
C3108 C3109 1.392 . S
C3108 C3111 1.511 . S
C3109 C3105 1.376 . S
C3109 C3108 1.392 . S
C3109 H3121 0.929 . S
C3110 C3106 1.531 1_455 S
C3110 H3122 0.960 . S
C3110 H3123 0.962 . S
C3110 H3124 0.960 . S
C3111 C3108 1.511 . S
C3111 H3125 0.961 . S
C3111 H3126 0.961 . S
C3111 H3127 0.961 . S
C3112 C3113 1.370 . S
C3112 C3114 1.363 . S
C3112 H3128 0.931 . S
C3113 C3112 1.370 . S
C3113 C3117 1.408 . S
C3114 C3112 1.363 . S
C3114 C3115 1.370 . S
C3114 C3118 1.524 . S
C3115 C3107 1.503 . S
C3115 C3114 1.370 . S
C3115 C3116 1.403 . S
C3116 C3115 1.403 . S
C3116 C3117 1.404 . S
C3116 C3119 1.539 . S
C3117 C3113 1.408 . S
C3117 C3116 1.404 . S
C3117 H3129 0.930 . S
C3118 C3114 1.524 . S
C3118 H3130 0.956 . S
C3118 H3131 0.961 . S
C3118 H3132 0.961 . S
C3119 C3116 1.539 . S
C3119 H3133 0.958 . S
C3119 H3134 0.961 . S
C3119 H3135 0.960 . S
H3120 C3104 0.908 1_455 S
H3121 C3109 0.929 . S
H3122 C3110 0.960 . S
H3123 C3110 0.962 . S
H3124 C3110 0.960 . S
H3125 C3111 0.961 . S
H3126 C3111 0.961 . S
H3127 C3111 0.961 . S
H3128 C3112 0.931 . S
H3129 C3117 0.930 . S
H3130 C3118 0.956 . S
H3131 C3118 0.961 . S
H3132 C3118 0.961 . S
H3133 C3119 0.958 . S
H3134 C3119 0.961 . S
H3135 C3119 0.960 . S
C3136 C3137 1.391 . S
C3136 C3138 1.394 . S
C3136 H3152 0.931 . S
C3137 C3136 1.391 . S
C3137 C3141 1.376 . S
C3138 C3136 1.394 . S
C3138 C3139 1.369 . S
C3138 C3142 1.531 . S
C3139 C3138 1.369 . S
C3139 C3140 1.410 . S
C3139 C3147 1.503 . S
C3140 C3139 1.410 . S
C3140 C3141 1.392 . S
C3140 C3143 1.511 . S
C3141 C3137 1.376 . S
C3141 C3140 1.392 . S
C3141 H3153 0.929 . S
C3142 C3138 1.531 . S
C3142 H3154 0.960 . S
C3142 H3155 0.962 . S
C3142 H3156 0.960 . S
C3143 C3140 1.511 . S
C3143 H3157 0.961 . S
C3143 H3158 0.961 . S
C3143 H3159 0.961 . S
C3144 C3145 1.370 . S
C3144 C3146 1.363 . S
C3144 H3160 0.931 . S
C3145 C3144 1.370 . S
C3145 C3149 1.408 . S
C3146 C3144 1.363 . S
C3146 C3147 1.370 . S
C3146 C3150 1.524 . S
C3147 C3139 1.503 . S
C3147 C3146 1.370 . S
C3147 C3148 1.403 . S
C3148 C3147 1.403 . S
C3148 C3149 1.404 . S
C3148 C3151 1.539 . S
C3149 C3145 1.408 . S
C3149 C3148 1.404 . S
C3149 H3161 0.930 . S
C3150 C3146 1.524 . S
C3150 H3162 0.956 . S
C3150 H3163 0.961 . S
C3150 H3164 0.961 . S
C3151 C3148 1.539 . S
C3151 H3165 0.958 . S
C3151 H3166 0.961 . S
C3151 H3167 0.960 . S
H3152 C3136 0.931 . S
H3153 C3141 0.929 . S
H3154 C3142 0.960 . S
H3155 C3142 0.962 . S
H3156 C3142 0.960 . S
H3157 C3143 0.961 . S
H3158 C3143 0.961 . S
H3159 C3143 0.961 . S
H3160 C3144 0.931 . S
H3161 C3149 0.930 . S
H3162 C3150 0.956 . S
H3163 C3150 0.961 . S
H3164 C3150 0.961 . S
H3165 C3151 0.958 . S
H3166 C3151 0.961 . S
H3167 C3151 0.960 . S
C3168 C3169 1.391 . S
C3168 C3170 1.394 . S
C3168 H3184 0.931 . S
C3169 C3168 1.391 . S
C3169 C3173 1.376 . S
C3170 C3168 1.394 . S
C3170 C3171 1.369 . S
C3170 C3174 1.531 . S
C3171 C3170 1.369 . S
C3171 C3172 1.410 . S
C3171 C3179 1.503 . S
C3172 C3171 1.410 . S
C3172 C3173 1.392 . S
C3172 C3175 1.511 . S
C3173 C3169 1.376 . S
C3173 C3172 1.392 . S
C3173 H3185 0.929 . S
C3174 C3170 1.531 . S
C3174 H3186 0.960 . S
C3174 H3187 0.962 . S
C3174 H3188 0.960 . S
C3175 C3172 1.511 . S
C3175 H3189 0.961 . S
C3175 H3190 0.961 . S
C3175 H3191 0.961 . S
C3176 C3177 1.370 . S
C3176 C3178 1.363 . S
C3176 H3192 0.931 . S
C3177 C3176 1.370 . S
C3177 C3181 1.408 . S
C3178 C3176 1.363 . S
C3178 C3179 1.370 . S
C3178 C3182 1.524 . S
C3179 C3171 1.503 . S
C3179 C3178 1.370 . S
C3179 C3180 1.403 . S
C3180 C3179 1.403 . S
C3180 C3181 1.404 . S
C3180 C3183 1.539 . S
C3181 C3177 1.408 . S
C3181 C3180 1.404 . S
C3181 H3193 0.930 . S
C3182 C3178 1.524 . S
C3182 H3194 0.956 . S
C3182 H3195 0.961 . S
C3182 H3196 0.961 . S
C3183 C3180 1.539 . S
C3183 H3197 0.958 . S
C3183 H3198 0.961 . S
C3183 H3199 0.960 . S
H3184 C3168 0.931 . S
H3185 C3173 0.929 . S
H3186 C3174 0.960 . S
H3187 C3174 0.962 . S
H3188 C3174 0.960 . S
H3189 C3175 0.961 . S
H3190 C3175 0.961 . S
H3191 C3175 0.961 . S
H3192 C3176 0.931 . S
H3193 C3181 0.930 . S
H3194 C3182 0.956 . S
H3195 C3182 0.961 . S
H3196 C3182 0.961 . S
H3197 C3183 0.958 . S
H3198 C3183 0.961 . S
H3199 C3183 0.960 . S
C3200 C3201 1.391 . S
C3200 C3202 1.394 . S
C3200 H3216 0.931 . S
C3201 C3200 1.391 . S
C3201 C3205 1.376 . S
C3202 C3200 1.394 . S
C3202 C3203 1.369 . S
C3202 C3206 1.531 . S
C3203 C3202 1.369 . S
C3203 C3204 1.410 . S
C3203 C3211 1.503 . S
C3204 C3203 1.410 . S
C3204 C3205 1.392 . S
C3204 C3207 1.511 . S
C3205 C3201 1.376 . S
C3205 C3204 1.392 . S
C3205 H3217 0.929 . S
C3206 C3202 1.531 . S
C3206 H3218 0.960 . S
C3206 H3219 0.962 . S
C3206 H3220 0.960 . S
C3207 C3204 1.511 . S
C3207 H3221 0.961 . S
C3207 H3222 0.961 . S
C3207 H3223 0.961 . S
C3208 C3209 1.370 . S
C3208 C3210 1.363 . S
C3208 H3224 0.931 . S
C3209 C3208 1.370 . S
C3209 C3213 1.408 . S
C3210 C3208 1.363 . S
C3210 C3211 1.370 . S
C3210 C3214 1.524 . S
C3211 C3203 1.503 . S
C3211 C3210 1.370 . S
C3211 C3212 1.403 . S
C3212 C3211 1.403 . S
C3212 C3213 1.404 . S
C3212 C3215 1.539 . S
C3213 C3209 1.408 . S
C3213 C3212 1.404 . S
C3213 H3225 0.930 . S
C3214 C3210 1.524 . S
C3214 H3226 0.956 . S
C3214 H3227 0.961 . S
C3214 H3228 0.961 . S
C3215 C3212 1.539 . S
C3215 H3229 0.958 . S
C3215 H3230 0.961 . S
C3215 H3231 0.960 . S
H3216 C3200 0.931 . S
H3217 C3205 0.929 . S
H3218 C3206 0.960 . S
H3219 C3206 0.962 . S
H3220 C3206 0.960 . S
H3221 C3207 0.961 . S
H3222 C3207 0.961 . S
H3223 C3207 0.961 . S
H3224 C3208 0.931 . S
H3225 C3213 0.930 . S
H3226 C3214 0.956 . S
H3227 C3214 0.961 . S
H3228 C3214 0.961 . S
H3229 C3215 0.958 . S
H3230 C3215 0.961 . S
H3231 C3215 0.960 . S
C3232 C3233 1.391 . S
C3232 C3234 1.394 . S
C3232 H3248 0.931 . S
C3233 C3232 1.391 . S
C3233 C3237 1.376 . S
C3234 C3232 1.394 . S
C3234 C3235 1.369 . S
C3234 C3238 1.531 . S
C3235 C3234 1.369 . S
C3235 C3236 1.410 . S
C3235 C3243 1.503 . S
C3236 C3235 1.410 . S
C3236 C3237 1.392 . S
C3236 C3239 1.511 . S
C3237 C3233 1.376 . S
C3237 C3236 1.392 . S
C3237 H3249 0.929 . S
C3238 C3234 1.531 . S
C3238 H3250 0.960 . S
C3238 H3251 0.962 . S
C3238 H3252 0.960 . S
C3239 C3236 1.511 . S
C3239 H3253 0.961 . S
C3239 H3254 0.961 . S
C3239 H3255 0.961 . S
C3240 C3241 1.370 . S
C3240 C3242 1.363 . S
C3240 H3256 0.931 . S
C3241 C3240 1.370 . S
C3241 C3245 1.408 . S
C3242 C3240 1.363 . S
C3242 C3243 1.370 . S
C3242 C3246 1.524 . S
C3243 C3235 1.503 . S
C3243 C3242 1.370 . S
C3243 C3244 1.403 . S
C3244 C3243 1.403 . S
C3244 C3245 1.404 . S
C3244 C3247 1.539 . S
C3245 C3241 1.408 . S
C3245 C3244 1.404 . S
C3245 H3257 0.930 . S
C3246 C3242 1.524 . S
C3246 H3258 0.956 . S
C3246 H3259 0.961 . S
C3246 H3260 0.961 . S
C3247 C3244 1.539 . S
C3247 H3261 0.958 . S
C3247 H3262 0.961 . S
C3247 H3263 0.960 . S
H3248 C3232 0.931 . S
H3249 C3237 0.929 . S
H3250 C3238 0.960 . S
H3251 C3238 0.962 . S
H3252 C3238 0.960 . S
H3253 C3239 0.961 . S
H3254 C3239 0.961 . S
H3255 C3239 0.961 . S
H3256 C3240 0.931 . S
H3257 C3245 0.930 . S
H3258 C3246 0.956 . S
H3259 C3246 0.961 . S
H3260 C3246 0.961 . S
H3261 C3247 0.958 . S
H3262 C3247 0.961 . S
H3263 C3247 0.960 . S
C3264 C3265 1.391 . S
C3264 C3266 1.394 . S
C3264 H3280 0.931 . S
C3265 C3264 1.391 . S
C3265 C3269 1.376 . S
C3266 C3264 1.394 . S
C3266 C3267 1.369 . S
C3266 C3270 1.531 . S
C3267 C3266 1.369 . S
C3267 C3268 1.410 . S
C3267 C3275 1.503 . S
C3268 C3267 1.410 . S
C3268 C3269 1.392 . S
C3268 C3271 1.511 . S
C3269 C3265 1.376 . S
C3269 C3268 1.392 . S
C3269 H3281 0.929 . S
C3270 C3266 1.531 . S
C3270 H3282 0.960 . S
C3270 H3283 0.962 . S
C3270 H3284 0.960 . S
C3271 C3268 1.511 . S
C3271 H3285 0.961 . S
C3271 H3286 0.961 . S
C3271 H3287 0.961 . S
C3272 C3273 1.370 . S
C3272 C3274 1.363 . S
C3272 H3288 0.931 . S
C3273 C3272 1.370 . S
C3273 C3277 1.408 . S
C3274 C3272 1.363 . S
C3274 C3275 1.370 . S
C3274 C3278 1.524 . S
C3275 C3267 1.503 . S
C3275 C3274 1.370 . S
C3275 C3276 1.403 . S
C3276 C3275 1.403 . S
C3276 C3277 1.404 . S
C3276 C3279 1.539 . S
C3277 C3273 1.408 . S
C3277 C3276 1.404 . S
C3277 H3289 0.930 . S
C3278 C3274 1.524 . S
C3278 H3290 0.956 . S
C3278 H3291 0.961 . S
C3278 H3292 0.961 . S
C3279 C3276 1.539 . S
C3279 H3293 0.958 . S
C3279 H3294 0.961 . S
C3279 H3295 0.960 . S
H3280 C3264 0.931 . S
H3281 C3269 0.929 . S
H3282 C3270 0.960 . S
H3283 C3270 0.962 . S
H3284 C3270 0.960 . S
H3285 C3271 0.961 . S
H3286 C3271 0.961 . S
H3287 C3271 0.961 . S
H3288 C3272 0.931 . S
H3289 C3277 0.930 . S
H3290 C3278 0.956 . S
H3291 C3278 0.961 . S
H3292 C3278 0.961 . S
H3293 C3279 0.958 . S
H3294 C3279 0.961 . S
H3295 C3279 0.960 . S
C3296 C3297 1.391 . S
C3296 C3298 1.394 . S
C3296 H3312 0.931 . S
C3297 C3296 1.391 . S
C3297 C3301 1.376 . S
C3298 C3296 1.394 . S
C3298 C3299 1.369 . S
C3298 C3302 1.531 . S
C3299 C3298 1.369 . S
C3299 C3300 1.410 . S
C3299 C3307 1.503 . S
C3300 C3299 1.410 . S
C3300 C3301 1.392 . S
C3300 C3303 1.511 . S
C3301 C3297 1.376 . S
C3301 C3300 1.392 . S
C3301 H3313 0.929 . S
C3302 C3298 1.531 . S
C3302 H3314 0.960 . S
C3302 H3315 0.962 . S
C3302 H3316 0.960 . S
C3303 C3300 1.511 . S
C3303 H3317 0.961 . S
C3303 H3318 0.961 . S
C3303 H3319 0.961 . S
C3304 C3305 1.370 . S
C3304 C3306 1.363 . S
C3304 H3320 0.931 . S
C3305 C3304 1.370 . S
C3305 C3309 1.408 . S
C3306 C3304 1.363 . S
C3306 C3307 1.370 . S
C3306 C3310 1.524 . S
C3307 C3299 1.503 . S
C3307 C3306 1.370 . S
C3307 C3308 1.403 . S
C3308 C3307 1.403 . S
C3308 C3309 1.404 . S
C3308 C3311 1.539 . S
C3309 C3305 1.408 . S
C3309 C3308 1.404 . S
C3309 H3321 0.930 . S
C3310 C3306 1.524 . S
C3310 H3322 0.956 . S
C3310 H3323 0.961 . S
C3310 H3324 0.961 . S
C3311 C3308 1.539 . S
C3311 H3325 0.958 . S
C3311 H3326 0.961 . S
C3311 H3327 0.960 . S
H3312 C3296 0.931 . S
H3313 C3301 0.929 . S
H3314 C3302 0.960 . S
H3315 C3302 0.962 . S
H3316 C3302 0.960 . S
H3317 C3303 0.961 . S
H3318 C3303 0.961 . S
H3319 C3303 0.961 . S
H3320 C3304 0.931 . S
H3321 C3309 0.930 . S
H3322 C3310 0.956 . S
H3323 C3310 0.961 . S
H3324 C3310 0.961 . S
H3325 C3311 0.958 . S
H3326 C3311 0.961 . S
H3327 C3311 0.960 . S
C3328 C3329 1.391 . S
C3328 C3330 1.394 . S
C3328 H3344 0.931 . S
C3329 C3328 1.391 . S
C3329 C3333 1.376 . S
C3330 C3328 1.394 . S
C3330 C3331 1.369 . S
C3330 C3334 1.531 . S
C3331 C3330 1.369 . S
C3331 C3332 1.410 . S
C3331 C3339 1.503 . S
C3332 C3331 1.410 . S
C3332 C3333 1.392 . S
C3332 C3335 1.511 . S
C3333 C3329 1.376 . S
C3333 C3332 1.392 . S
C3333 H3345 0.929 . S
C3334 C3330 1.531 . S
C3334 H3346 0.960 . S
C3334 H3347 0.962 . S
C3334 H3348 0.960 . S
C3335 C3332 1.511 . S
C3335 H3349 0.961 . S
C3335 H3350 0.961 . S
C3335 H3351 0.961 . S
C3336 C3337 1.370 . S
C3336 C3338 1.363 . S
C3336 H3352 0.931 . S
C3337 C3336 1.370 . S
C3337 C3341 1.408 . S
C3338 C3336 1.363 . S
C3338 C3339 1.370 . S
C3338 C3342 1.524 . S
C3339 C3331 1.503 . S
C3339 C3338 1.370 . S
C3339 C3340 1.403 . S
C3340 C3339 1.403 . S
C3340 C3341 1.404 . S
C3340 C3343 1.539 . S
C3341 C3337 1.408 . S
C3341 C3340 1.404 . S
C3341 H3353 0.930 . S
C3342 C3338 1.524 . S
C3342 H3354 0.956 . S
C3342 H3355 0.961 . S
C3342 H3356 0.961 . S
C3343 C3340 1.539 . S
C3343 H3357 0.958 . S
C3343 H3358 0.961 . S
C3343 H3359 0.960 . S
H3344 C3328 0.931 . S
H3345 C3333 0.929 . S
H3346 C3334 0.960 . S
H3347 C3334 0.962 . S
H3348 C3334 0.960 . S
H3349 C3335 0.961 . S
H3350 C3335 0.961 . S
H3351 C3335 0.961 . S
H3352 C3336 0.931 . S
H3353 C3341 0.930 . S
H3354 C3342 0.956 . S
H3355 C3342 0.961 . S
H3356 C3342 0.961 . S
H3357 C3343 0.958 . S
H3358 C3343 0.961 . S
H3359 C3343 0.960 . S
C3360 C3361 1.391 . S
C3360 C3362 1.394 . S
C3360 H3376 0.931 . S
C3361 C3360 1.391 . S
C3361 C3365 1.376 . S
C3362 C3360 1.394 . S
C3362 C3363 1.369 . S
C3362 C3366 1.531 . S
C3363 C3362 1.369 . S
C3363 C3364 1.410 . S
C3363 C3371 1.503 . S
C3364 C3363 1.410 . S
C3364 C3365 1.392 . S
C3364 C3367 1.511 . S
C3365 C3361 1.376 . S
C3365 C3364 1.392 . S
C3365 H3377 0.929 . S
C3366 C3362 1.531 . S
C3366 H3378 0.960 . S
C3366 H3379 0.962 . S
C3366 H3380 0.960 . S
C3367 C3364 1.511 . S
C3367 H3381 0.961 . S
C3367 H3382 0.961 . S
C3367 H3383 0.961 . S
C3368 C3369 1.370 . S
C3368 C3370 1.363 . S
C3368 H3384 0.931 . S
C3369 C3368 1.370 . S
C3369 C3373 1.408 . S
C3370 C3368 1.363 . S
C3370 C3371 1.370 . S
C3370 C3374 1.524 . S
C3371 C3363 1.503 . S
C3371 C3370 1.370 . S
C3371 C3372 1.403 . S
C3372 C3371 1.403 . S
C3372 C3373 1.404 . S
C3372 C3375 1.539 . S
C3373 C3369 1.408 . S
C3373 C3372 1.404 . S
C3373 H3385 0.930 . S
C3374 C3370 1.524 . S
C3374 H3386 0.956 . S
C3374 H3387 0.961 . S
C3374 H3388 0.961 . S
C3375 C3372 1.539 . S
C3375 H3389 0.958 . S
C3375 H3390 0.961 . S
C3375 H3391 0.960 . S
H3376 C3360 0.931 . S
H3377 C3365 0.929 . S
H3378 C3366 0.960 . S
H3379 C3366 0.962 . S
H3380 C3366 0.960 . S
H3381 C3367 0.961 . S
H3382 C3367 0.961 . S
H3383 C3367 0.961 . S
H3384 C3368 0.931 . S
H3385 C3373 0.930 . S
H3386 C3374 0.956 . S
H3387 C3374 0.961 . S
H3388 C3374 0.961 . S
H3389 C3375 0.958 . S
H3390 C3375 0.961 . S
H3391 C3375 0.960 . S
C3392 C3393 1.391 . S
C3392 C3394 1.394 . S
C3392 H3408 0.931 . S
C3393 C3392 1.391 . S
C3393 C3397 1.376 . S
C3394 C3392 1.394 . S
C3394 C3395 1.369 . S
C3394 C3398 1.531 . S
C3395 C3394 1.369 . S
C3395 C3396 1.410 . S
C3395 C3403 1.503 . S
C3396 C3395 1.410 . S
C3396 C3397 1.392 . S
C3396 C3399 1.511 . S
C3397 C3393 1.376 . S
C3397 C3396 1.392 . S
C3397 H3409 0.929 . S
C3398 C3394 1.531 . S
C3398 H3410 0.960 . S
C3398 H3411 0.962 . S
C3398 H3412 0.960 . S
C3399 C3396 1.511 . S
C3399 H3413 0.961 . S
C3399 H3414 0.961 . S
C3399 H3415 0.961 . S
C3400 C3401 1.370 . S
C3400 C3402 1.363 . S
C3400 H3416 0.931 . S
C3401 C3400 1.370 . S
C3401 C3405 1.408 . S
C3402 C3400 1.363 . S
C3402 C3403 1.370 . S
C3402 C3406 1.524 . S
C3403 C3395 1.503 . S
C3403 C3402 1.370 . S
C3403 C3404 1.403 . S
C3404 C3403 1.403 . S
C3404 C3405 1.404 . S
C3404 C3407 1.539 . S
C3405 C3401 1.408 . S
C3405 C3404 1.404 . S
C3405 H3417 0.930 . S
C3406 C3402 1.524 . S
C3406 H3418 0.956 . S
C3406 H3419 0.961 . S
C3406 H3420 0.961 . S
C3407 C3404 1.539 . S
C3407 H3421 0.958 . S
C3407 H3422 0.961 . S
C3407 H3423 0.960 . S
H3408 C3392 0.931 . S
H3409 C3397 0.929 . S
H3410 C3398 0.960 . S
H3411 C3398 0.962 . S
H3412 C3398 0.960 . S
H3413 C3399 0.961 . S
H3414 C3399 0.961 . S
H3415 C3399 0.961 . S
H3416 C3400 0.931 . S
H3417 C3405 0.930 . S
H3418 C3406 0.956 . S
H3419 C3406 0.961 . S
H3420 C3406 0.961 . S
H3421 C3407 0.958 . S
H3422 C3407 0.961 . S
H3423 C3407 0.960 . S
C3424 C3425 1.391 . S
C3424 C3426 1.394 . S
C3424 H3440 0.931 . S
C3425 C3424 1.391 . S
C3425 C3429 1.376 . S
C3426 C3424 1.394 . S
C3426 C3427 1.369 . S
C3426 C3430 1.531 . S
C3427 C3426 1.369 . S
C3427 C3428 1.410 . S
C3427 C3435 1.503 . S
C3428 C3427 1.410 . S
C3428 C3429 1.392 . S
C3428 C3431 1.511 . S
C3429 C3425 1.376 . S
C3429 C3428 1.392 . S
C3429 H3441 0.929 . S
C3430 C3426 1.531 . S
C3430 H3442 0.960 . S
C3430 H3443 0.962 . S
C3430 H3444 0.960 . S
C3431 C3428 1.511 . S
C3431 H3445 0.961 . S
C3431 H3446 0.961 . S
C3431 H3447 0.961 . S
C3432 C3433 1.370 . S
C3432 C3434 1.363 . S
C3432 H3448 0.931 . S
C3433 C3432 1.370 . S
C3433 C3437 1.408 . S
C3434 C3432 1.363 . S
C3434 C3435 1.370 . S
C3434 C3438 1.524 . S
C3435 C3427 1.503 . S
C3435 C3434 1.370 . S
C3435 C3436 1.403 . S
C3436 C3435 1.403 . S
C3436 C3437 1.404 . S
C3436 C3439 1.539 . S
C3437 C3433 1.408 . S
C3437 C3436 1.404 . S
C3437 H3449 0.930 . S
C3438 C3434 1.524 . S
C3438 H3450 0.956 . S
C3438 H3451 0.961 . S
C3438 H3452 0.961 . S
C3439 C3436 1.539 . S
C3439 H3453 0.958 . S
C3439 H3454 0.961 . S
C3439 H3455 0.960 . S
H3440 C3424 0.931 . S
H3441 C3429 0.929 . S
H3442 C3430 0.960 . S
H3443 C3430 0.962 . S
H3444 C3430 0.960 . S
H3445 C3431 0.961 . S
H3446 C3431 0.961 . S
H3447 C3431 0.961 . S
H3448 C3432 0.931 . S
H3449 C3437 0.930 . S
H3450 C3438 0.956 . S
H3451 C3438 0.961 . S
H3452 C3438 0.961 . S
H3453 C3439 0.958 . S
H3454 C3439 0.961 . S
H3455 C3439 0.960 . S
C3456 C3457 1.391 . S
C3456 C3458 1.394 . S
C3456 H3472 0.931 . S
C3457 C3456 1.391 . S
C3457 C3461 1.376 . S
C3458 C3456 1.394 . S
C3458 C3459 1.369 . S
C3458 C3462 1.531 . S
C3459 C3458 1.369 . S
C3459 C3460 1.410 . S
C3459 C3467 1.503 . S
C3460 C3459 1.410 . S
C3460 C3461 1.392 . S
C3460 C3463 1.511 . S
C3461 C3457 1.376 . S
C3461 C3460 1.392 . S
C3461 H3473 0.929 . S
C3462 C3458 1.531 . S
C3462 H3474 0.960 . S
C3462 H3475 0.962 . S
C3462 H3476 0.960 . S
C3463 C3460 1.511 . S
C3463 H3477 0.961 . S
C3463 H3478 0.961 . S
C3463 H3479 0.961 . S
C3464 C3465 1.370 . S
C3464 C3466 1.363 . S
C3464 H3480 0.931 . S
C3465 C3464 1.370 . S
C3465 C3469 1.408 . S
C3466 C3464 1.363 . S
C3466 C3467 1.370 . S
C3466 C3470 1.524 . S
C3467 C3459 1.503 . S
C3467 C3466 1.370 . S
C3467 C3468 1.403 . S
C3468 C3467 1.403 . S
C3468 C3469 1.404 . S
C3468 C3471 1.539 . S
C3469 C3465 1.408 . S
C3469 C3468 1.404 . S
C3469 H3481 0.930 . S
C3470 C3466 1.524 . S
C3470 H3482 0.956 . S
C3470 H3483 0.961 . S
C3470 H3484 0.961 . S
C3471 C3468 1.539 . S
C3471 H3485 0.958 . S
C3471 H3486 0.961 . S
C3471 H3487 0.960 . S
H3472 C3456 0.931 . S
H3473 C3461 0.929 . S
H3474 C3462 0.960 . S
H3475 C3462 0.962 . S
H3476 C3462 0.960 . S
H3477 C3463 0.961 . S
H3478 C3463 0.961 . S
H3479 C3463 0.961 . S
H3480 C3464 0.931 . S
H3481 C3469 0.930 . S
H3482 C3470 0.956 . S
H3483 C3470 0.961 . S
H3484 C3470 0.961 . S
H3485 C3471 0.958 . S
H3486 C3471 0.961 . S
H3487 C3471 0.960 . S
C3488 C3489 1.391 . S
C3488 C3490 1.394 . S
C3488 H3504 0.931 . S
C3489 C3488 1.391 . S
C3489 C3493 1.376 . S
C3490 C3488 1.394 . S
C3490 C3491 1.369 . S
C3490 C3494 1.531 . S
C3491 C3490 1.369 . S
C3491 C3492 1.410 . S
C3491 C3499 1.503 . S
C3492 C3491 1.410 . S
C3492 C3493 1.392 . S
C3492 C3495 1.511 . S
C3493 C3489 1.376 . S
C3493 C3492 1.392 . S
C3493 H3505 0.929 . S
C3494 C3490 1.531 . S
C3494 H3506 0.960 . S
C3494 H3507 0.962 . S
C3494 H3508 0.960 . S
C3495 C3492 1.511 . S
C3495 H3509 0.961 . S
C3495 H3510 0.961 . S
C3495 H3511 0.961 . S
C3496 C3497 1.370 . S
C3496 C3498 1.363 . S
C3496 H3512 0.931 . S
C3497 C3496 1.370 . S
C3497 C3501 1.408 . S
C3498 C3496 1.363 . S
C3498 C3499 1.370 . S
C3498 C3502 1.524 . S
C3499 C3491 1.503 . S
C3499 C3498 1.370 . S
C3499 C3500 1.403 . S
C3500 C3499 1.403 . S
C3500 C3501 1.404 . S
C3500 C3503 1.539 . S
C3501 C3497 1.408 . S
C3501 C3500 1.404 . S
C3501 H3513 0.930 . S
C3502 C3498 1.524 . S
C3502 H3514 0.956 . S
C3502 H3515 0.961 . S
C3502 H3516 0.961 . S
C3503 C3500 1.539 . S
C3503 H3517 0.958 . S
C3503 H3518 0.961 . S
C3503 H3519 0.960 . S
H3504 C3488 0.931 . S
H3505 C3493 0.929 . S
H3506 C3494 0.960 . S
H3507 C3494 0.962 . S
H3508 C3494 0.960 . S
H3509 C3495 0.961 . S
H3510 C3495 0.961 . S
H3511 C3495 0.961 . S
H3512 C3496 0.931 . S
H3513 C3501 0.930 . S
H3514 C3502 0.956 . S
H3515 C3502 0.961 . S
H3516 C3502 0.961 . S
H3517 C3503 0.958 . S
H3518 C3503 0.961 . S
H3519 C3503 0.960 . S
C3520 C3521 1.391 . S
C3520 C3522 1.394 . S
C3520 H3536 0.931 . S
C3521 C3520 1.391 . S
C3521 C3525 1.376 . S
C3522 C3520 1.394 . S
C3522 C3523 1.369 . S
C3522 C3526 1.531 . S
C3523 C3522 1.369 . S
C3523 C3524 1.410 . S
C3523 C3531 1.503 . S
C3524 C3523 1.410 . S
C3524 C3525 1.392 . S
C3524 C3527 1.511 . S
C3525 C3521 1.376 . S
C3525 C3524 1.392 . S
C3525 H3537 0.929 . S
C3526 C3522 1.531 . S
C3526 H3538 0.960 . S
C3526 H3539 0.962 . S
C3526 H3540 0.960 . S
C3527 C3524 1.511 . S
C3527 H3541 0.961 . S
C3527 H3542 0.961 . S
C3527 H3543 0.961 . S
C3528 C3529 1.370 . S
C3528 C3530 1.363 . S
C3528 H3544 0.931 . S
C3529 C3528 1.370 . S
C3529 C3533 1.408 . S
C3530 C3528 1.363 . S
C3530 C3531 1.370 . S
C3530 C3534 1.524 . S
C3531 C3523 1.503 . S
C3531 C3530 1.370 . S
C3531 C3532 1.403 . S
C3532 C3531 1.403 . S
C3532 C3533 1.404 . S
C3532 C3535 1.539 . S
C3533 C3529 1.408 . S
C3533 C3532 1.404 . S
C3533 H3545 0.930 . S
C3534 C3530 1.524 . S
C3534 H3546 0.956 . S
C3534 H3547 0.961 . S
C3534 H3548 0.961 . S
C3535 C3532 1.539 . S
C3535 H3549 0.958 . S
C3535 H3550 0.961 . S
C3535 H3551 0.960 . S
H3536 C3520 0.931 . S
H3537 C3525 0.929 . S
H3538 C3526 0.960 . S
H3539 C3526 0.962 . S
H3540 C3526 0.960 . S
H3541 C3527 0.961 . S
H3542 C3527 0.961 . S
H3543 C3527 0.961 . S
H3544 C3528 0.931 . S
H3545 C3533 0.930 . S
H3546 C3534 0.956 . S
H3547 C3534 0.961 . S
H3548 C3534 0.961 . S
H3549 C3535 0.958 . S
H3550 C3535 0.961 . S
H3551 C3535 0.960 . S
C3552 C3553 1.391 . S
C3552 C3554 1.394 . S
C3552 H3568 0.931 . S
C3553 C3552 1.391 . S
C3553 C3557 1.376 . S
C3554 C3552 1.394 . S
C3554 C3555 1.369 . S
C3554 C3558 1.531 . S
C3555 C3554 1.369 . S
C3555 C3556 1.410 . S
C3555 C3563 1.503 . S
C3556 C3555 1.410 . S
C3556 C3557 1.392 . S
C3556 C3559 1.511 . S
C3557 C3553 1.376 . S
C3557 C3556 1.392 . S
C3557 H3569 0.929 . S
C3558 C3554 1.531 . S
C3558 H3570 0.960 . S
C3558 H3571 0.962 . S
C3558 H3572 0.960 . S
C3559 C3556 1.511 . S
C3559 H3573 0.961 . S
C3559 H3574 0.961 . S
C3559 H3575 0.961 . S
C3560 C3561 1.370 . S
C3560 C3562 1.363 . S
C3560 H3576 0.931 . S
C3561 C3560 1.370 . S
C3561 C3565 1.408 . S
C3562 C3560 1.363 . S
C3562 C3563 1.370 . S
C3562 C3566 1.524 . S
C3563 C3555 1.503 . S
C3563 C3562 1.370 . S
C3563 C3564 1.403 . S
C3564 C3563 1.403 . S
C3564 C3565 1.404 . S
C3564 C3567 1.539 . S
C3565 C3561 1.408 . S
C3565 C3564 1.404 . S
C3565 H3577 0.930 . S
C3566 C3562 1.524 . S
C3566 H3578 0.956 . S
C3566 H3579 0.961 . S
C3566 H3580 0.961 . S
C3567 C3564 1.539 . S
C3567 H3581 0.958 . S
C3567 H3582 0.961 . S
C3567 H3583 0.960 . S
H3568 C3552 0.931 . S
H3569 C3557 0.929 . S
H3570 C3558 0.960 . S
H3571 C3558 0.962 . S
H3572 C3558 0.960 . S
H3573 C3559 0.961 . S
H3574 C3559 0.961 . S
H3575 C3559 0.961 . S
H3576 C3560 0.931 . S
H3577 C3565 0.930 . S
H3578 C3566 0.956 . S
H3579 C3566 0.961 . S
H3580 C3566 0.961 . S
H3581 C3567 0.958 . S
H3582 C3567 0.961 . S
H3583 C3567 0.960 . S
C3584 C3585 1.391 . S
C3584 C3586 1.394 . S
C3584 H3600 0.931 . S
C3585 C3584 1.391 . S
C3585 C3589 1.376 . S
C3586 C3584 1.394 . S
C3586 C3587 1.369 . S
C3586 C3590 1.531 . S
C3587 C3586 1.369 . S
C3587 C3588 1.410 . S
C3587 C3595 1.503 . S
C3588 C3587 1.410 . S
C3588 C3589 1.392 . S
C3588 C3591 1.511 . S
C3589 C3585 1.376 . S
C3589 C3588 1.392 . S
C3589 H3601 0.929 . S
C3590 C3586 1.531 . S
C3590 H3602 0.960 . S
C3590 H3603 0.962 . S
C3590 H3604 0.960 . S
C3591 C3588 1.511 . S
C3591 H3605 0.961 . S
C3591 H3606 0.961 . S
C3591 H3607 0.961 . S
C3592 C3593 1.370 . S
C3592 C3594 1.363 . S
C3592 H3608 0.931 . S
C3593 C3592 1.370 . S
C3593 C3597 1.408 . S
C3594 C3592 1.363 . S
C3594 C3595 1.370 . S
C3594 C3598 1.524 . S
C3595 C3587 1.503 . S
C3595 C3594 1.370 . S
C3595 C3596 1.403 . S
C3596 C3595 1.403 . S
C3596 C3597 1.404 . S
C3596 C3599 1.539 . S
C3597 C3593 1.408 . S
C3597 C3596 1.404 . S
C3597 H3609 0.930 . S
C3598 C3594 1.524 . S
C3598 H3610 0.956 . S
C3598 H3611 0.961 . S
C3598 H3612 0.961 . S
C3599 C3596 1.539 . S
C3599 H3613 0.958 . S
C3599 H3614 0.961 . S
C3599 H3615 0.960 . S
H3600 C3584 0.931 . S
H3601 C3589 0.929 . S
H3602 C3590 0.960 . S
H3603 C3590 0.962 . S
H3604 C3590 0.960 . S
H3605 C3591 0.961 . S
H3606 C3591 0.961 . S
H3607 C3591 0.961 . S
H3608 C3592 0.931 . S
H3609 C3597 0.930 . S
H3610 C3598 0.956 . S
H3611 C3598 0.961 . S
H3612 C3598 0.961 . S
H3613 C3599 0.958 . S
H3614 C3599 0.961 . S
H3615 C3599 0.960 . S
C3616 C3617 1.391 . S
C3616 C3618 1.394 . S
C3616 H3632 0.931 . S
C3617 C3616 1.391 . S
C3617 C3621 1.376 . S
C3618 C3616 1.394 . S
C3618 C3619 1.369 . S
C3618 C3622 1.531 . S
C3619 C3618 1.369 . S
C3619 C3620 1.410 . S
C3619 C3627 1.503 . S
C3620 C3619 1.410 . S
C3620 C3621 1.392 . S
C3620 C3623 1.511 . S
C3621 C3617 1.376 . S
C3621 C3620 1.392 . S
C3621 H3633 0.929 . S
C3622 C3618 1.531 . S
C3622 H3634 0.960 . S
C3622 H3635 0.962 . S
C3622 H3636 0.960 . S
C3623 C3620 1.511 . S
C3623 H3637 0.961 . S
C3623 H3638 0.961 . S
C3623 H3639 0.961 . S
C3624 C3625 1.370 . S
C3624 C3626 1.363 . S
C3624 H3640 0.931 . S
C3625 C3624 1.370 . S
C3625 C3629 1.408 . S
C3626 C3624 1.363 . S
C3626 C3627 1.370 . S
C3626 C3630 1.524 . S
C3627 C3619 1.503 . S
C3627 C3626 1.370 . S
C3627 C3628 1.403 . S
C3628 C3627 1.403 . S
C3628 C3629 1.404 . S
C3628 C3631 1.539 . S
C3629 C3625 1.408 . S
C3629 C3628 1.404 . S
C3629 H3641 0.930 . S
C3630 C3626 1.524 . S
C3630 H3642 0.956 . S
C3630 H3643 0.961 . S
C3630 H3644 0.961 . S
C3631 C3628 1.539 . S
C3631 H3645 0.958 . S
C3631 H3646 0.961 . S
C3631 H3647 0.960 . S
H3632 C3616 0.931 . S
H3633 C3621 0.929 . S
H3634 C3622 0.960 . S
H3635 C3622 0.962 . S
H3636 C3622 0.960 . S
H3637 C3623 0.961 . S
H3638 C3623 0.961 . S
H3639 C3623 0.961 . S
H3640 C3624 0.931 . S
H3641 C3629 0.930 . S
H3642 C3630 0.956 . S
H3643 C3630 0.961 . S
H3644 C3630 0.961 . S
H3645 C3631 0.958 . S
H3646 C3631 0.961 . S
H3647 C3631 0.960 . S
C1089 C20 1.180 . S
C1097 C836 1.186 . S
C1121 C326 1.187 . S
C1129 C54 1.183 . S
C1153 C904 1.177 . S
C1161 C88 1.187 . S
C1185 C394 1.177 . S
C1193 C122 1.187 . S
C1217 C972 1.182 . S
C1225 C156 1.185 . S
C1249 C462 1.186 . S
C1257 C190 1.183 . S
C1281 C1040 1.184 . S
C1289 C224 1.184 . S
C1313 C530 1.178 . S
C1321 C258 1.186 . S
C1345 C292 1.177 . S
C1353 C564 1.187 . S
C1377 C360 1.179 . S
C1385 C632 1.186 . S
C1409 C428 1.185 . S
C1417 C700 1.183 . S
C1441 C768 1.177 . S
C1449 C496 1.187 . S
C1473 C598 1.177 . S
C1481 C870 1.187 . S
C1505 C938 1.177 . S
C1513 C666 1.187 . S
C1537 C734 1.178 . S
C1545 C1006 1.186 . S
C1569 C1074 1.186 . S
C1577 C802 1.183 . S
C1601 C5 1.700 . S
C1609 C407 1.697 . S
C1633 C39 1.685 . S
C1641 C849 1.697 . S
C1665 C339 1.682 . S
C1673 C73 1.693 . S
C1697 C107 1.687 . S
C1705 C917 1.698 . S
C1729 C475 1.691 . S
C1737 C141 1.698 . S
C1761 C1053 1.700 . S
C1769 C175 1.696 . S
C1793 C209 1.682 . S
C1801 C543 1.695 . S
C1825 C985 1.683 . S
C1833 C243 1.695 . S
C1857 C277 1.696 . S
C1865 C135 1.693 . S
C1889 C311 1.681 . S
C1897 C577 1.694 . S
C1921 C67 1.693 . S
C1929 C345 1.691 . S
C1953 C379 1.697 . S
C1961 C645 1.693 . S
C1985 C413 1.690 . S
C1993 C203 1.691 . S
C2017 C781 1.688 . S
C2025 C447 1.698 . S
C2049 C271 1.700 . S
C2057 C481 1.696 . S
C2081 C515 1.699 . S
C2089 C713 1.694 . S
C2113 C951 1.683 . S
C2121 C549 1.695 . S
C2145 C305 1.682 . S
C2153 C583 1.693 . S
C2177 C883 1.683 . S
C2185 C617 1.695 . S
C2209 C651 1.699 . S
C2217 C373 1.695 . S
C2241 C1019 1.686 . S
C2249 C685 1.691 . S
C2273 C509 1.694 . S
C2281 C719 1.699 . S
C2305 C753 1.681 . S
C2313 C1087 1.694 . S
C2337 C441 1.700 . S
C2345 C787 1.698 . S
C2369 C679 1.700 . S
C2377 C821 1.696 . S
C2401 C855 1.695 . S
C2409 C33 1.699 . S
C2433 C889 1.690 . S
C2441 C611 1.691 . S
C2465 C101 1.695 . S
C2473 C923 1.691 . S
C2497 C747 1.683 . S
C2505 C957 1.696 . S
C2529 C991 1.698 . S
C2537 C237 1.693 . S
C2561 C815 1.688 . S
C2569 C1025 1.698 . S
C2593 C169 1.685 . S
C2601 C1059 1.691 . S
C2625 C2 1.884 . S
C2633 C206 1.891 . S
C2657 C240 1.890 . S
C2665 C36 1.888 . S
C2689 C70 1.886 . S
C2697 C138 1.887 . S
C2721 C104 1.890 . S
C2729 C172 1.887 . S
C2753 C478 1.889 . S
C2761 C274 1.888 . S
C2785 C512 1.883 . S
C2793 C308 1.889 . S
C2817 C410 1.889 . S
C2825 C342 1.888 . S
C2849 C444 1.889 . S
C2857 C376 1.887 . S
C2881 C546 1.880 . S
C2889 C750 1.890 . S
C2913 C580 1.885 . S
C2921 C784 1.887 . S
C2945 C614 1.884 . S
C2953 C682 1.891 . S
C2977 C648 1.890 . S
C2985 C716 1.888 . S
C3009 C1022 1.881 . S
C3017 C818 1.890 . S
C3041 C1056 1.885 . S
C3049 C852 1.888 . S
C3073 C886 1.885 . S
C3081 C954 1.888 . S
C3105 C920 1.889 . S
C3113 C988 1.887 . S
C3137 C9 1.140 . S
C3145 C723 1.162 . S
C3169 C43 1.131 . S
C3177 C757 1.157 . S
C3201 C77 1.196 . S
C3209 C791 1.177 . S
C3233 C111 1.185 . S
C3241 C689 1.180 . S
C3265 C655 1.146 . S
C3273 C145 1.165 . S
C3297 C179 1.134 . S
C3305 C553 1.159 . S
C3329 C587 1.151 . S
C3337 C213 1.158 . S
C3361 C247 1.183 . S
C3369 C621 1.171 . S
C3393 C995 1.167 . S
C3401 C281 1.179 . S
C3425 C315 1.126 . S
C3433 C1029 1.154 . S
C3457 C1063 1.169 . S
C3465 C349 1.179 . S
C3489 C383 1.153 . S
C3497 C961 1.173 . S
C3521 C417 1.143 . S
C3529 C927 1.169 . S
C3553 C825 1.127 . S
C3561 C451 1.153 . S
C3585 C485 1.146 . S
C3593 C859 1.153 . S
C3617 C519 1.190 . S
C3625 C893 1.169 . S
