# Generated by pormake.
# Topology smd, (6)-cn, num edge types: 1
# Building blocks:
#     Node 0, Type 0, BuildingBlock: CUKXOW_clean_sbu_0, # of connection points: 6
#     Node 1, Type 0, BuildingBlock: CUKXOW_clean_sbu_0, # of connection points: 6
#     Node 2, Type 0, BuildingBlock: CUKXOW_clean_sbu_0, # of connection points: 6
#     Node 3, Type 0, BuildingBlock: CUKXOW_clean_sbu_0, # of connection points: 6
#     Node 4, Type 0, BuildingBlock: CUKXOW_clean_sbu_0, # of connection points: 6
#     Node 5, Type 0, BuildingBlock: CUKXOW_clean_sbu_0, # of connection points: 6
#     Node 6, Type 0, BuildingBlock: CUKXOW_clean_sbu_0, # of connection points: 6
#     Node 7, Type 0, BuildingBlock: CUKXOW_clean_sbu_0, # of connection points: 6
#     Node 8, Type 0, BuildingBlock: CUKXOW_clean_sbu_0, # of connection points: 6
#     Node 9, Type 0, BuildingBlock: CUKXOW_clean_sbu_0, # of connection points: 6
#     Node 10, Type 0, BuildingBlock: CUKXOW_clean_sbu_0, # of connection points: 6
#     Node 11, Type 0, BuildingBlock: CUKXOW_clean_sbu_0, # of connection points: 6
#     Node 12, Type 0, BuildingBlock: CUKXOW_clean_sbu_0, # of connection points: 6
#     Node 13, Type 0, BuildingBlock: CUKXOW_clean_sbu_0, # of connection points: 6
#     Node 14, Type 0, BuildingBlock: CUKXOW_clean_sbu_0, # of connection points: 6
#     Node 15, Type 0, BuildingBlock: CUKXOW_clean_sbu_0, # of connection points: 6
#     Node 16, Type 0, BuildingBlock: CUKXOW_clean_sbu_0, # of connection points: 6
#     Node 17, Type 0, BuildingBlock: CUKXOW_clean_sbu_0, # of connection points: 6
#     Edge 18, Type (0, 0), BuildingBlock: CIFDUS_clean_linker_0, # of connection points: 2
#     Edge 19, Type (0, 0), BuildingBlock: CIFDUS_clean_linker_0, # of connection points: 2
#     Edge 20, Type (0, 0), BuildingBlock: CIFDUS_clean_linker_0, # of connection points: 2
#     Edge 21, Type (0, 0), BuildingBlock: CIFDUS_clean_linker_0, # of connection points: 2
#     Edge 22, Type (0, 0), BuildingBlock: CIFDUS_clean_linker_0, # of connection points: 2
#     Edge 23, Type (0, 0), BuildingBlock: CIFDUS_clean_linker_0, # of connection points: 2
#     Edge 24, Type (0, 0), BuildingBlock: CIFDUS_clean_linker_0, # of connection points: 2
#     Edge 25, Type (0, 0), BuildingBlock: CIFDUS_clean_linker_0, # of connection points: 2
#     Edge 26, Type (0, 0), BuildingBlock: CIFDUS_clean_linker_0, # of connection points: 2
#     Edge 27, Type (0, 0), BuildingBlock: CIFDUS_clean_linker_0, # of connection points: 2
#     Edge 28, Type (0, 0), BuildingBlock: CIFDUS_clean_linker_0, # of connection points: 2
#     Edge 29, Type (0, 0), BuildingBlock: CIFDUS_clean_linker_0, # of connection points: 2
#     Edge 30, Type (0, 0), BuildingBlock: CIFDUS_clean_linker_0, # of connection points: 2
#     Edge 31, Type (0, 0), BuildingBlock: CIFDUS_clean_linker_0, # of connection points: 2
#     Edge 32, Type (0, 0), BuildingBlock: CIFDUS_clean_linker_0, # of connection points: 2
#     Edge 33, Type (0, 0), BuildingBlock: CIFDUS_clean_linker_0, # of connection points: 2
#     Edge 34, Type (0, 0), BuildingBlock: CIFDUS_clean_linker_0, # of connection points: 2
#     Edge 35, Type (0, 0), BuildingBlock: CIFDUS_clean_linker_0, # of connection points: 2
#     Edge 36, Type (0, 0), BuildingBlock: CIFDUS_clean_linker_0, # of connection points: 2
#     Edge 37, Type (0, 0), BuildingBlock: CIFDUS_clean_linker_0, # of connection points: 2
#     Edge 38, Type (0, 0), BuildingBlock: CIFDUS_clean_linker_0, # of connection points: 2
#     Edge 39, Type (0, 0), BuildingBlock: CIFDUS_clean_linker_0, # of connection points: 2
#     Edge 40, Type (0, 0), BuildingBlock: CIFDUS_clean_linker_0, # of connection points: 2
#     Edge 41, Type (0, 0), BuildingBlock: CIFDUS_clean_linker_0, # of connection points: 2
#     Edge 42, Type (0, 0), BuildingBlock: CIFDUS_clean_linker_0, # of connection points: 2
#     Edge 43, Type (0, 0), BuildingBlock: CIFDUS_clean_linker_0, # of connection points: 2
#     Edge 44, Type (0, 0), BuildingBlock: CIFDUS_clean_linker_0, # of connection points: 2
#     Edge 45, Type (0, 0), BuildingBlock: CIFDUS_clean_linker_0, # of connection points: 2
#     Edge 46, Type (0, 0), BuildingBlock: CIFDUS_clean_linker_0, # of connection points: 2
#     Edge 47, Type (0, 0), BuildingBlock: CIFDUS_clean_linker_0, # of connection points: 2
#     Edge 48, Type (0, 0), BuildingBlock: CIFDUS_clean_linker_0, # of connection points: 2
#     Edge 49, Type (0, 0), BuildingBlock: CIFDUS_clean_linker_0, # of connection points: 2
#     Edge 50, Type (0, 0), BuildingBlock: CIFDUS_clean_linker_0, # of connection points: 2
#     Edge 51, Type (0, 0), BuildingBlock: CIFDUS_clean_linker_0, # of connection points: 2
#     Edge 52, Type (0, 0), BuildingBlock: CIFDUS_clean_linker_0, # of connection points: 2
#     Edge 53, Type (0, 0), BuildingBlock: CIFDUS_clean_linker_0, # of connection points: 2
#     Edge 54, Type (0, 0), BuildingBlock: CIFDUS_clean_linker_0, # of connection points: 2
#     Edge 55, Type (0, 0), BuildingBlock: CIFDUS_clean_linker_0, # of connection points: 2
#     Edge 56, Type (0, 0), BuildingBlock: CIFDUS_clean_linker_0, # of connection points: 2
#     Edge 57, Type (0, 0), BuildingBlock: CIFDUS_clean_linker_0, # of connection points: 2
#     Edge 58, Type (0, 0), BuildingBlock: CIFDUS_clean_linker_0, # of connection points: 2
#     Edge 59, Type (0, 0), BuildingBlock: CIFDUS_clean_linker_0, # of connection points: 2
#     Edge 60, Type (0, 0), BuildingBlock: CIFDUS_clean_linker_0, # of connection points: 2
#     Edge 61, Type (0, 0), BuildingBlock: CIFDUS_clean_linker_0, # of connection points: 2
#     Edge 62, Type (0, 0), BuildingBlock: CIFDUS_clean_linker_0, # of connection points: 2
#     Edge 63, Type (0, 0), BuildingBlock: CIFDUS_clean_linker_0, # of connection points: 2
#     Edge 64, Type (0, 0), BuildingBlock: CIFDUS_clean_linker_0, # of connection points: 2
#     Edge 65, Type (0, 0), BuildingBlock: CIFDUS_clean_linker_0, # of connection points: 2
#     Edge 66, Type (0, 0), BuildingBlock: CIFDUS_clean_linker_0, # of connection points: 2
#     Edge 67, Type (0, 0), BuildingBlock: CIFDUS_clean_linker_0, # of connection points: 2
#     Edge 68, Type (0, 0), BuildingBlock: CIFDUS_clean_linker_0, # of connection points: 2
#     Edge 69, Type (0, 0), BuildingBlock: CIFDUS_clean_linker_0, # of connection points: 2
#     Edge 70, Type (0, 0), BuildingBlock: CIFDUS_clean_linker_0, # of connection points: 2
#     Edge 71, Type (0, 0), BuildingBlock: CIFDUS_clean_linker_0, # of connection points: 2
# Relax obj value: 0.279
# Max RMSD: 0.299
# Mean RMSD: 0.277
data_MOF--net-smd--node1-CUKXOW_clean_sbu_0--edge1-CIFDUS_clean_linker_0
_symmetry_space_group_name_H-M    P1
_symmetry_Int_Tables_number       1
_symmetry_cell_setting            triclinic
loop_
_symmetry_equiv_pos_as_xyz
'x, y, z'
_cell_length_a     65.65772
_cell_length_b     69.598478
_cell_length_c     12.596888
_cell_angle_alpha  92.669139
_cell_angle_beta   92.806671
_cell_angle_gamma 120.05317
loop_
_atom_site_label
_atom_site_type_symbol
_atom_site_fract_x
_atom_site_fract_y
_atom_site_fract_z
_atom_type_partial_charge
Tb0 Tb 0.00801 0.22206 0.61037 0.0
C1 C 0.06047 0.23209 0.59209 0.0
Tb2 Tb 0.04652 0.26954 0.60295 0.0
O3 O 0.00891 0.21514 0.43937 0.0
O4 O 0.01698 0.24664 0.49839 0.0
O5 O 0.03956 0.21791 0.62656 0.0
C6 C 0.07987 0.30607 0.5243 0.0
O7 O 0.06588 0.25242 0.56995 0.0
C8 C 0.03731 0.25661 0.7973 0.0
C9 C 0.99677 0.26251 0.63332 0.0
O10 O 0.06622 0.28709 0.47095 0.0
O11 O 0.07491 0.30456 0.62325 0.0
O12 O 0.04577 0.27706 0.77332 0.0
O13 O 0.03708 0.24504 0.71624 0.0
O14 O 0.01749 0.27587 0.59774 0.0
O15 O 0.98989 0.2413 0.65039 0.0
C16 C 0.97196 0.18218 0.65461 0.0
O17 O 0.98396 0.18606 0.57183 0.0
O18 O 0.98036 0.20082 0.71332 0.0
C19 C 0.01671 0.23542 0.41605 0.0
Tb20 Tb 0.81871 0.82134 0.61074 0.0
C21 C 0.85429 0.80417 0.64893 0.0
Tb22 Tb 0.79868 0.77072 0.61055 0.0
O23 O 0.83022 0.82593 0.78044 0.0
O24 O 0.80065 0.7963 0.71733 0.0
O25 O 0.85199 0.82088 0.61393 0.0
C26 C 0.78449 0.72788 0.64528 0.0
O27 O 0.83581 0.78456 0.66558 0.0
C28 C 0.8029 0.78624 0.42063 0.0
C29 C 0.76346 0.78722 0.57178 0.0
O30 O 0.79476 0.73805 0.56321 0.0
O31 O 0.78253 0.742 0.70896 0.0
O32 O 0.78697 0.76635 0.44081 0.0
O33 O 0.81664 0.79581 0.5036 0.0
O34 O 0.76629 0.77162 0.61455 0.0
O35 O 0.78154 0.80631 0.54712 0.0
C36 C 0.82568 0.86252 0.58124 0.0
O37 O 0.81357 0.84951 0.65232 0.0
O38 O 0.83448 0.85245 0.52633 0.0
C39 C 0.81435 0.80599 0.80044 0.0
Tb40 Tb 0.23096 0.0429 0.5497 0.0
C41 C 0.19421 0.99038 0.55191 0.0
Tb42 Tb 0.24763 0.00772 0.52044 0.0
O43 O 0.24128 0.05293 0.38906 0.0
O44 O 0.23035 0.02062 0.42493 0.0
O45 O 0.19938 0.01115 0.5827 0.0
C46 C 0.26451 0.98535 0.41418 0.0
O47 O 0.20958 0.98566 0.51004 0.0
C48 C 0.24793 0.01917 0.725 0.0
C49 C 0.28573 0.05957 0.56244 0.0
O50 O 0.25045 0.97776 0.49036 0.0
O51 O 0.2689 0.00532 0.39882 0.0
O52 O 0.25327 1.00429 0.69256 0.0
O53 O 0.24346 0.02627 0.64235 0.0
O54 O 0.2807 0.0395 0.52281 0.0
O55 O 0.26919 0.06415 0.59 0.0
C56 C 0.21505 0.07086 0.59636 0.0
O57 O 0.23195 0.07008 0.65061 0.0
O58 O 0.20657 0.05527 0.5186 0.0
C59 C 0.23868 0.034 0.35359 0.0
Tb60 Tb 1.00261 0.78328 0.62368 0.0
C61 C 0.0554 0.80274 0.56802 0.0
Tb62 Tb 0.03671 0.83619 0.6213 0.0
O63 O 0.99543 0.77619 0.44737 0.0
O64 O 0.01542 0.80789 0.5164 0.0
O65 O 0.03647 0.78588 0.60313 0.0
C66 C 0.07111 0.87794 0.59401 0.0
O67 O 0.058 0.82277 0.55829 0.0
C68 C 0.02465 0.8208 0.81069 0.0
C69 C 0.98198 0.81606 0.63315 0.0
O70 O 0.07244 0.86466 0.65947 0.0
O71 O 0.05008 0.86771 0.54348 0.0
O72 O 0.03162 0.84113 0.78935 0.0
O73 O 0.02739 0.81095 0.73054 0.0
O74 O 1.00163 0.8324 0.59778 0.0
O75 O 0.98019 0.7972 0.66498 0.0
C76 C 0.98359 0.74145 0.68635 0.0
O77 O 0.97239 0.74888 0.62866 0.0
O78 O 1.00497 0.75776 0.71052 0.0
C79 C 0.00777 0.79697 0.42712 0.0
Tb80 Tb 0.23361 0.27403 0.58406 0.0
C81 C 0.27977 0.26926 0.59019 0.0
Tb82 Tb 0.22819 0.2283 0.59825 0.0
O83 O 0.22451 0.27485 0.74912 0.0
O84 O 0.24128 0.25737 0.70327 0.0
O85 O 0.26958 0.281 0.56571 0.0
C86 C 0.2204 0.18788 0.64451 0.0
O87 O 0.26721 0.24833 0.6161 0.0
C88 C 0.2304 0.24162 0.40374 0.0
C89 C 0.18293 0.23504 0.60393 0.0
O90 O 0.23302 0.20634 0.70423 0.0
O91 O 0.21182 0.19217 0.55988 0.0
O92 O 0.23836 0.22886 0.4339 0.0
O93 O 0.22036 0.24487 0.47962 0.0
O94 O 0.19271 0.22303 0.63415 0.0
O95 O 0.19547 0.25484 0.56687 0.0
C96 C 0.24424 0.31251 0.50233 0.0
O97 O 0.2457 0.30988 0.60339 0.0
O98 O 0.23642 0.29349 0.44884 0.0
C99 C 0.2316 0.26132 0.77894 0.0
Tb100 Tb 0.80032 0.04785 0.60859 0.0
C101 C 0.76142 0.99963 0.52966 0.0
Tb102 Tb 0.81453 0.01211 0.59077 0.0
O103 O 0.78998 0.04378 0.43839 0.0
O104 O 0.81602 0.03695 0.49343 0.0
O105 O 0.76579 0.01841 0.58186 0.0
C106 C 0.8158 0.9737 0.57841 0.0
O107 O 0.77826 0.9948 0.51277 0.0
C108 C 0.81222 0.02598 0.78512 0.0
C109 C 0.85477 0.06259 0.62991 0.0
O110 O 0.80277 0.97845 0.6352 0.0
O111 O 0.82852 0.99091 0.52496 0.0
O112 O 0.82731 0.02018 0.75891 0.0
O113 O 0.79851 0.02285 0.7042 0.0
O114 O 0.8495 0.04233 0.58934 0.0
O115 O 0.83823 0.06723 0.65686 0.0
C116 C 0.78716 0.07691 0.67834 0.0
O117 O 0.78484 0.0599 0.72606 0.0
O118 O 0.79769 0.07805 0.59218 0.0
C119 C 0.80326 0.03572 0.41204 0.0
Tb120 Tb 0.69427 0.54776 0.74944 0.0
C121 C 0.63941 0.51106 0.76025 0.0
Tb122 Tb 0.65446 0.56237 0.76926 0.0
O123 O 0.69839 0.54491 0.92384 0.0
O124 O 0.67554 0.5538 0.86201 0.0
O125 O 0.66047 0.51526 0.72871 0.0
C126 C 0.63092 0.57889 0.86596 0.0
O127 O 0.63462 0.52692 0.79035 0.0
C128 C 0.6646 0.55871 0.56966 0.0
C129 C 0.70813 0.59943 0.75863 0.0
O130 O 0.62278 0.56523 0.78008 0.0
O131 O 0.65202 0.5831 0.89593 0.0
O132 O 0.64838 0.56332 0.59464 0.0
O133 O 0.67356 0.55688 0.65619 0.0
O134 O 0.68687 0.59435 0.7864 0.0
O135 O 0.71396 0.58417 0.72897 0.0
C136 C 0.72847 0.53946 0.70085 0.0
O137 O 0.72936 0.55234 0.7808 0.0
O138 O 0.70796 0.53089 0.64629 0.0
C139 C 0.68292 0.55039 0.94853 0.0
Tb140 Tb 0.48042 0.16524 0.69867 0.0
C141 C 0.52177 0.15483 0.73323 0.0
Tb142 Tb 0.46747 0.11754 0.7122 0.0
O143 O 0.48901 0.17209 0.87202 0.0
O144 O 0.46308 0.14073 0.80873 0.0
O145 O 0.51593 0.16895 0.69227 0.0
C146 C 0.46032 0.08059 0.79888 0.0
O147 O 0.50543 0.1346 0.7549 0.0
C148 C 0.47171 0.13033 0.51647 0.0
C149 C 0.42605 0.12603 0.66142 0.0
O150 O 0.46917 0.10011 0.84887 0.0
O151 O 0.45588 0.08188 0.69863 0.0
O152 O 0.45841 0.10987 0.53937 0.0
O153 O 0.48402 0.14185 0.60017 0.0
O154 O 0.43206 0.11229 0.70284 0.0
O155 O 0.442 0.14701 0.6462 0.0
C156 C 0.48574 0.20453 0.6477 0.0
O157 O 0.47292 0.1856 0.59195 0.0
O158 O 0.49583 0.20132 0.73044 0.0
C159 C 0.47498 0.15183 0.89376 0.0
Tb160 Tb 0.90394 0.35955 0.68757 0.0
C161 C 0.92523 0.41214 0.69636 0.0
Tb162 Tb 0.95661 0.39051 0.72574 0.0
O163 O 0.90358 0.34862 0.84811 0.0
O164 O 0.9275 0.38104 0.8175 0.0
O165 O 0.90774 0.3924 0.65306 0.0
C166 C 1.00001 0.41462 0.82294 0.0
O167 O 0.94419 0.41383 0.74828 0.0
C168 C 0.94037 0.38297 0.52405 0.0
C169 C 0.93738 0.33833 0.69599 0.0
O170 O 0.99373 0.41672 0.72688 0.0
O171 O 0.98206 0.39858 0.86277 0.0
O172 O 0.95949 0.4009 0.56309 0.0
O173 O 0.93308 0.36941 0.59494 0.0
O174 O 0.95533 0.3584 0.73 0.0
O175 O 0.91605 0.33516 0.66558 0.0
C176 C 0.85711 0.33403 0.63815 0.0
O177 O 0.87337 0.33354 0.58529 0.0
O178 O 0.86735 0.34944 0.71592 0.0
C179 C 0.92133 0.3674 0.88787 0.0
Tb180 Tb 0.66312 0.12954 0.7279 0.0
C181 C 0.71677 0.14288 0.71377 0.0
Tb182 Tb 0.70338 0.18173 0.72127 0.0
O183 O 0.65662 0.12209 0.55105 0.0
O184 O 0.68043 0.15324 0.61999 0.0
O185 O 0.69494 0.12725 0.72962 0.0
C186 C 0.7378 0.21937 0.6527 0.0
O187 O 0.72335 0.16416 0.70276 0.0
C188 C 0.69355 0.16879 0.91819 0.0
C189 C 0.64893 0.16675 0.72157 0.0
O190 O 0.73538 0.19975 0.63866 0.0
O191 O 0.72058 0.21794 0.70562 0.0
O192 O 0.70944 0.18886 0.89868 0.0
O193 O 0.6856 0.15821 0.82859 0.0
O194 O 0.66967 0.18113 0.68526 0.0
O195 O 0.64451 0.14753 0.75911 0.0
C196 C 0.63874 0.09229 0.82407 0.0
O197 O 0.62977 0.09891 0.74937 0.0
O198 O 0.66117 0.10633 0.84194 0.0
C199 C 0.67187 0.14244 0.53083 0.0
Tb200 Tb 0.94733 0.57445 0.73154 0.0
C201 C 0.92918 0.60945 0.71885 0.0
Tb202 Tb 0.89457 0.55687 0.69575 0.0
O203 O 0.95008 0.56674 0.56422 0.0
O204 O 0.92421 0.57397 0.6064 0.0
O205 O 0.94684 0.60591 0.74547 0.0
C206 C 0.84843 0.54073 0.63863 0.0
O207 O 0.90751 0.59268 0.68809 0.0
C208 C 0.91222 0.56531 0.89618 0.0
C209 C 0.9138 0.52257 0.68994 0.0
O210 O 0.85732 0.53884 0.729 0.0
O211 O 0.86558 0.55108 0.57816 0.0
O212 O 0.8949 0.56795 0.86209 0.0
O213 O 0.91779 0.55706 0.81981 0.0
O214 O 0.89635 0.52618 0.65757 0.0
O215 O 0.9343 0.53893 0.73595 0.0
C216 C 0.9904 0.59381 0.83524 0.0
O217 O 0.98513 0.58507 0.73726 0.0
O218 O 0.9715 0.59168 0.87378 0.0
C219 C 0.93126 0.5671 0.52998 0.0
Tb220 Tb 0.45841 0.38271 0.79717 0.0
C221 C 0.4201 0.33313 0.72729 0.0
Tb222 Tb 0.47595 0.3504 0.76674 0.0
O223 O 0.44791 0.37991 0.62657 0.0
O224 O 0.47596 0.37541 0.67747 0.0
O225 O 0.42416 0.35312 0.76169 0.0
C226 C 0.48808 0.31981 0.71374 0.0
O227 O 0.43739 0.32834 0.72069 0.0
C228 C 0.47014 0.35892 0.96644 0.0
C229 C 0.51367 0.40148 0.80765 0.0
O230 O 0.47236 0.32248 0.66013 0.0
O231 O 0.49697 0.33451 0.79466 0.0
O232 O 0.48584 0.3541 0.93893 0.0
O233 O 0.45745 0.35692 0.88364 0.0
O234 O 0.50912 0.38237 0.75634 0.0
O235 O 0.49631 0.4039 0.84352 0.0
C236 C 0.44606 0.40822 0.90996 0.0
O237 O 0.45434 0.41238 0.81658 0.0
O238 O 0.44477 0.39002 0.93718 0.0
C239 C 0.46266 0.3737 0.59713 0.0
Tb240 Tb 0.35499 0.89195 0.26248 0.0
C241 C 0.41045 0.91244 0.30364 0.0
Tb242 Tb 0.38818 0.94169 0.2579 0.0
O243 O 0.34403 0.89014 0.09287 0.0
O244 O 0.37823 0.91315 0.1536 0.0
O245 O 0.3892 0.89563 0.32066 0.0
C246 C 0.41092 0.98043 0.1707 0.0
O247 O 0.41355 0.93071 0.26154 0.0
C248 C 0.3798 0.92812 0.45091 0.0
C249 C 0.33292 0.92326 0.25128 0.0
O250 O 0.41268 0.97793 0.27183 0.0
O251 O 0.39626 0.96135 0.12047 0.0
O252 O 0.3989 0.94604 0.42949 0.0
O253 O 0.36568 0.92055 0.36791 0.0
O254 O 0.35411 0.94002 0.23503 0.0
O255 O 0.3294 0.90329 0.27165 0.0
C256 C 0.32661 0.84931 0.2999 0.0
O257 O 0.33016 0.86655 0.3597 0.0
O258 O 0.33976 0.85613 0.22074 0.0
C259 C 0.36409 0.90665 0.07101 0.0
Tb260 Tb 0.17271 0.51303 0.23964 0.0
C261 C 0.21257 0.50208 0.28591 0.0
Tb262 Tb 0.15847 0.46537 0.25741 0.0
O263 O 0.18032 0.52051 0.41374 0.0
O264 O 0.15443 0.48912 0.35128 0.0
O265 O 0.20748 0.51594 0.23792 0.0
C266 C 0.15061 0.42795 0.34089 0.0
O267 O 0.19589 0.48219 0.30901 0.0
C268 C 0.16391 0.47783 0.06015 0.0
C269 C 0.11864 0.47495 0.19954 0.0
O270 O 0.14648 0.42966 0.24095 0.0
O271 O 0.15936 0.44727 0.3927 0.0
O272 O 0.1496 0.45766 0.08392 0.0
O273 O 0.17619 0.48918 0.14427 0.0
O274 O 0.12378 0.46165 0.25134 0.0
O275 O 0.13522 0.49516 0.17826 0.0
C276 C 0.17873 0.55134 0.17243 0.0
O277 O 0.16498 0.53174 0.12473 0.0
O278 O 0.18917 0.54939 0.25777 0.0
C279 C 0.16608 0.50036 0.43656 0.0
Tb280 Tb 0.57986 0.72651 0.3015 0.0
C281 C 0.54005 0.67691 0.257 0.0
Tb282 Tb 0.59436 0.6924 0.27165 0.0
O283 O 0.57025 0.72401 0.13009 0.0
O284 O 0.59708 0.71844 0.18242 0.0
O285 O 0.54566 0.69627 0.30806 0.0
C286 C 0.60185 0.66022 0.19635 0.0
O287 O 0.55649 0.67266 0.22612 0.0
C288 C 0.59041 0.70212 0.47183 0.0
C289 C 0.63418 0.74123 0.32131 0.0
O290 O 0.59019 0.6678 0.14448 0.0
O291 O 0.60937 0.67081 0.29001 0.0
O292 O 0.60466 0.69545 0.44265 0.0
O293 O 0.57742 0.70065 0.39133 0.0
O294 O 0.62855 0.72219 0.26773 0.0
O295 O 0.6179 0.74573 0.35271 0.0
C296 C 0.572 0.75908 0.36832 0.0
O297 O 0.56214 0.74574 0.283 0.0
O298 O 0.58634 0.75405 0.41713 0.0
C299 C 0.58441 0.71726 0.10137 0.0
Tb300 Tb 0.35035 0.47253 0.23701 0.0
C301 C 0.40053 0.4831 0.18725 0.0
Tb302 Tb 0.38674 0.52046 0.22706 0.0
O303 O 0.35065 0.46469 0.06637 0.0
O304 O 0.35801 0.49644 0.12195 0.0
O305 O 0.38121 0.4689 0.23125 0.0
C306 C 0.42134 0.56056 0.18353 0.0
O307 O 0.40567 0.50379 0.173 0.0
C308 C 0.37962 0.50697 0.42261 0.0
C309 C 0.33515 0.50931 0.24297 0.0
O310 O 0.40817 0.55661 0.26206 0.0
O311 O 0.41495 0.54191 0.12875 0.0
O312 O 0.38593 0.52695 0.39883 0.0
O313 O 0.37982 0.49618 0.33964 0.0
O314 O 0.35518 0.52308 0.20246 0.0
O315 O 0.33058 0.48948 0.27107 0.0
C316 C 0.31912 0.43517 0.32005 0.0
O317 O 0.33325 0.4541 0.37266 0.0
O318 O 0.32236 0.43719 0.2193 0.0
C319 C 0.35803 0.48492 0.04109 0.0
Tb320 Tb 0.58429 0.95652 0.28987 0.0
C321 C 0.62825 0.94867 0.29699 0.0
Tb322 Tb 0.57624 0.90977 0.29718 0.0
O323 O 0.5756 0.95784 0.45489 0.0
O324 O 0.58993 0.93833 0.40652 0.0
O325 O 0.61929 0.96113 0.26612 0.0
C326 C 0.5644 0.86809 0.33338 0.0
O327 O 0.61465 0.92806 0.32391 0.0
C328 C 0.58038 0.9245 0.10585 0.0
C329 C 0.53313 0.91841 0.31618 0.0
O330 O 0.5564 0.87399 0.25288 0.0
O331 O 0.57917 0.88572 0.39441 0.0
O332 O 0.58721 0.91083 0.13463 0.0
O333 O 0.57035 0.92795 0.18107 0.0
O334 O 0.54163 0.90496 0.3341 0.0
O335 O 0.54625 0.93892 0.28752 0.0
C336 C 0.59488 0.99546 0.21432 0.0
O337 O 0.5801 0.97595 0.16825 0.0
O338 O 0.60348 0.99311 0.30469 0.0
C339 C 0.58077 0.94287 0.48241 0.0
Tb340 Tb 0.14331 0.72166 0.28213 0.0
C341 C 0.10913 0.67213 0.20034 0.0
Tb342 Tb 0.16449 0.69276 0.25072 0.0
O343 O 0.13308 0.71855 0.11103 0.0
O344 O 0.16317 0.71739 0.16286 0.0
O345 O 0.11087 0.68989 0.25291 0.0
C346 C 0.18035 0.66531 0.19393 0.0
O347 O 0.12793 0.67032 0.18258 0.0
C348 C 0.1561 0.69824 0.45051 0.0
C349 C 0.19876 0.74338 0.30501 0.0
O350 O 0.1619 0.66489 0.14897 0.0
O351 O 0.18981 0.68127 0.26909 0.0
O352 O 0.1727 0.69469 0.4236 0.0
O353 O 0.14364 0.69618 0.36675 0.0
O354 O 0.19587 0.72557 0.24772 0.0
O355 O 0.1804 0.74434 0.33803 0.0
C356 C 0.1278 0.7461 0.38079 0.0
O357 O 0.13357 0.74774 0.28298 0.0
O358 O 0.1309 0.73097 0.42144 0.0
C359 C 0.14961 0.71483 0.0818 0.0
H360 H 0.13083 0.38642 0.24263 0.0
H361 H 0.1525 0.42279 0.55254 0.0
H362 H 0.13418 0.38788 0.6385 0.0
H363 H 0.1085 0.34712 0.62472 0.0
H364 H 0.08647 0.31086 0.31448 0.0
H365 H 0.10858 0.34552 0.22945 0.0
C366 C 0.13184 0.38663 0.32893 0.0
C367 C 0.14277 0.40701 0.3913 0.0
C368 C 0.12105 0.36653 0.37769 0.0
C369 C 0.1441 0.40721 0.50301 0.0
C370 C 0.13355 0.38728 0.5522 0.0
C371 C 0.10887 0.34685 0.53868 0.0
C372 C 0.09579 0.32662 0.47577 0.0
C373 C 0.12144 0.36686 0.49028 0.0
C374 C 0.09641 0.32633 0.36442 0.0
C375 C 0.10896 0.34613 0.31571 0.0
H376 H 0.74462 0.79207 0.38607 0.0
H377 H 0.72805 0.77089 0.70206 0.0
H378 H 0.68636 0.75826 0.65624 0.0
H379 H 0.65411 0.74916 0.52013 0.0
H380 H 0.66975 0.76528 0.19742 0.0
H381 H 0.71226 0.7843 0.25108 0.0
C382 C 0.73186 0.78512 0.44511 0.0
C383 C 0.73919 0.78247 0.54724 0.0
C384 C 0.70778 0.77694 0.41649 0.0
C385 C 0.72263 0.77304 0.62296 0.0
C386 C 0.69885 0.76581 0.59677 0.0
C387 C 0.66695 0.75745 0.46267 0.0
C388 C 0.65914 0.75639 0.35588 0.0
C389 C 0.69114 0.76714 0.49303 0.0
C390 C 0.67563 0.76637 0.28052 0.0
C391 C 0.69984 0.77704 0.31106 0.0
H392 H 0.25833 0.94399 0.43918 0.0
H393 H 0.29602 1.0022 0.26586 0.0
H394 H 0.31854 0.98669 0.18863 0.0
H395 H 0.33044 0.95857 0.18482 0.0
H396 H 0.29333 0.90025 0.35811 0.0
H397 H 0.26732 0.91348 0.41833 0.0
C398 C 0.27127 0.95309 0.38346 0.0
C399 C 0.27578 0.97433 0.35945 0.0
C400 C 0.28427 0.94405 0.33922 0.0
C401 C 0.29241 0.9859 0.28642 0.0
C402 C 0.3053 0.97705 0.24214 0.0
C403 C 0.3164 0.94854 0.23427 0.0
C404 C 0.31404 0.92858 0.26778 0.0
C405 C 0.30181 0.95642 0.27007 0.0
C406 C 0.29556 0.91567 0.33086 0.0
C407 C 0.2808 0.92334 0.36625 0.0
H408 H 0.32247 0.06078 0.46729 0.0
H409 H 0.30649 0.09742 0.70146 0.0
H410 H 0.34884 0.12313 0.74674 0.0
H411 H 0.39082 0.13302 0.73088 0.0
H412 H 0.40544 0.09528 0.49714 0.0
H413 H 0.36347 0.07244 0.44009 0.0
C414 C 0.32818 0.07449 0.52768 0.0
C415 C 0.31122 0.07696 0.58154 0.0
C416 C 0.35248 0.08909 0.5535 0.0
C417 C 0.31908 0.09507 0.65855 0.0
C418 C 0.34335 0.10974 0.68485 0.0
C419 C 0.38475 0.12016 0.66574 0.0
C420 C 0.40118 0.11592 0.61745 0.0
C421 C 0.36029 0.10668 0.63434 0.0
C422 C 0.39311 0.09892 0.53469 0.0
C423 C 0.36909 0.08577 0.50247 0.0
H424 H 0.9709 0.33319 0.80659 0.0
H425 H 0.91538 0.30128 0.5524 0.0
H426 H 0.92693 0.27328 0.51523 0.0
H427 H 0.95562 0.25977 0.54494 0.0
H428 H 0.01014 0.29179 0.80328 0.0
H429 H 0.99611 0.31737 0.84933 0.0
C430 C 0.9611 0.31996 0.7438 0.0
C431 C 0.94236 0.31956 0.68203 0.0
C432 C 0.96773 0.30377 0.72351 0.0
C433 C 0.92981 0.30208 0.60166 0.0
C434 C 0.93652 0.28606 0.57998 0.0
C435 C 0.9639 0.2719 0.61323 0.0
C436 C 0.98376 0.27362 0.67162 0.0
C437 C 0.95576 0.28691 0.63913 0.0
C438 C 0.99465 0.28987 0.75811 0.0
C439 C 0.98675 0.30468 0.78399 0.0
H440 H 0.76094 0.70445 0.80967 0.0
H441 H 0.78544 0.69676 0.5083 0.0
H442 H 0.76632 0.65645 0.52062 0.0
H443 H 0.73969 0.62265 0.61129 0.0
H444 H 0.71456 0.63103 0.90999 0.0
H445 H 0.73695 0.67138 0.90537 0.0
C446 C 0.76231 0.69398 0.74725 0.0
C447 C 0.77454 0.70366 0.65801 0.0
C448 C 0.75107 0.67073 0.75445 0.0
C449 C 0.77611 0.68978 0.57786 0.0
C450 C 0.76513 0.66667 0.58481 0.0
C451 C 0.73962 0.63336 0.67639 0.0
C452 C 0.72549 0.62375 0.76111 0.0
C453 C 0.7522 0.65683 0.67201 0.0
C454 C 0.72526 0.63794 0.84386 0.0
C455 C 0.738 0.66107 0.84113 0.0
H456 H 0.94059 0.70353 0.62552 0.0
H457 H 0.00791 0.72635 0.80042 0.0
H458 H 0.99692 0.68807 0.82918 0.0
H459 H 0.96916 0.64785 0.79796 0.0
H460 H 0.90143 0.62434 0.62546 0.0
H461 H 0.91148 0.66277 0.60352 0.0
C462 C 0.95271 0.7001 0.67085 0.0
C463 C 0.97512 0.71792 0.71039 0.0
C464 C 0.94625 0.67778 0.68729 0.0
C465 C 0.99059 0.71308 0.76884 0.0
C466 C 0.98434 0.69111 0.78524 0.0
C467 C 0.95648 0.65106 0.75604 0.0
C468 C 0.93457 0.633 0.71309 0.0
C469 C 0.96237 0.67328 0.7437 0.0
C470 C 0.91842 0.63773 0.65972 0.0
C471 C 0.9242 0.6598 0.64673 0.0
H472 H 0.31163 0.25729 0.67612 0.0
H473 H 0.30813 0.30893 0.51232 0.0
H474 H 0.35063 0.33201 0.53461 0.0
H475 H 0.38886 0.33948 0.61188 0.0
H476 H 0.39473 0.28884 0.77066 0.0
H477 H 0.35173 0.26356 0.73801 0.0
C478 C 0.32019 0.27344 0.64404 0.0
C479 C 0.30626 0.2813 0.59406 0.0
C480 C 0.34524 0.287 0.65665 0.0
C481 C 0.31797 0.30233 0.5527 0.0
C482 C 0.34248 0.3157 0.5652 0.0
C483 C 0.38079 0.32279 0.63826 0.0
C484 C 0.39497 0.31613 0.69423 0.0
C485 C 0.35624 0.30848 0.61895 0.0
C486 C 0.38425 0.29436 0.72687 0.0
C487 C 0.3596 0.27997 0.70881 0.0
H488 H 0.72031 0.11209 0.8243 0.0
H489 H 0.75256 0.15703 0.5809 0.0
H490 H 0.77826 0.14144 0.55064 0.0
H491 H 0.78952 0.11289 0.58544 0.0
H492 H 0.75814 0.06952 0.83598 0.0
H493 H 0.73444 0.08672 0.87206 0.0
C494 C 0.73314 0.11863 0.76533 0.0
C495 C 0.7344 0.13557 0.70432 0.0
C496 C 0.74801 0.10978 0.74947 0.0
C497 C 0.75131 0.14406 0.62918 0.0
C498 C 0.76591 0.13505 0.6115 0.0
C499 C 0.77773 0.10746 0.64884 0.0
C500 C 0.77548 0.08979 0.70733 0.0
C501 C 0.76416 0.11761 0.66998 0.0
C502 C 0.7602 0.08301 0.78954 0.0
C503 C 0.74654 0.09279 0.81006 0.0
H504 H 0.65468 0.93116 0.37761 0.0
H505 H 0.66086 0.99098 0.25853 0.0
H506 H 0.70273 0.01134 0.31512 0.0
H507 H 0.73683 0.01341 0.41331 0.0
H508 H 0.73243 0.95426 0.52834 0.0
H509 H 0.69071 0.93233 0.45788 0.0
C510 C 0.66525 0.94854 0.36241 0.0
C511 C 0.65438 0.95951 0.3151 0.0
C512 C 0.68961 0.96036 0.39548 0.0
C513 C 0.66851 0.98204 0.2955 0.0
C514 C 0.69255 0.9938 0.32818 0.0
C515 C 0.72675 0.99565 0.42212 0.0
C516 C 0.73739 0.98544 0.47722 0.0
C517 C 0.7031 0.98331 0.38079 0.0
C518 C 0.72445 0.96241 0.48646 0.0
C519 C 0.70063 0.94996 0.44654 0.0
H520 H 0.06836 0.77507 0.64936 0.0
H521 H 0.08232 0.81949 0.40046 0.0
H522 H 0.10732 0.80672 0.32128 0.0
H523 H 0.12221 0.78021 0.31499 0.0
H524 H 0.10863 0.73686 0.56916 0.0
H525 H 0.08654 0.75193 0.65424 0.0
C526 C 0.07715 0.78216 0.57854 0.0
C527 C 0.07343 0.79801 0.53016 0.0
C528 C 0.09137 0.77476 0.53393 0.0
C529 C 0.08507 0.80731 0.43927 0.0
C530 C 0.09919 0.79988 0.39359 0.0
C531 C 0.1146 0.77431 0.38953 0.0
C532 C 0.11675 0.75729 0.43511 0.0
C533 C 0.10201 0.78321 0.43889 0.0
C534 C 0.10707 0.74987 0.53222 0.0
C535 C 0.09441 0.75845 0.58097 0.0
H536 H 0.28928 0.39408 0.22057 0.0
H537 H 0.3149 0.42985 0.53125 0.0
H538 H 0.29238 0.39523 0.61634 0.0
H539 H 0.26759 0.35431 0.60255 0.0
H540 H 0.24243 0.31851 0.29179 0.0
H541 H 0.26224 0.35346 0.20689 0.0
C542 C 0.2897 0.39426 0.30681 0.0
C543 C 0.30378 0.4144 0.36954 0.0
C544 C 0.2768 0.37425 0.35531 0.0
C545 C 0.30418 0.4145 0.48124 0.0
C546 C 0.29135 0.39471 0.53002 0.0
C547 C 0.26618 0.35425 0.51637 0.0
C548 C 0.25366 0.33391 0.45352 0.0
C549 C 0.27789 0.37442 0.46793 0.0
C550 C 0.25201 0.33399 0.34188 0.0
C551 C 0.2634 0.35397 0.2932 0.0
H552 H 0.0127 0.4135 1.02836 0.0
H553 H 0.03908 0.4486 0.74809 0.0
H554 H 0.07771 0.47272 0.84568 0.0
H555 H 0.10459 0.48212 1.00763 0.0
H556 H 0.07845 0.44557 0.28422 0.0
H557 H 0.0389 0.42406 0.19225 0.0
C558 C 0.02693 0.42646 0.9888 0.0
C559 C 0.02325 0.42918 0.88118 0.0
C560 C 0.04899 0.44015 0.0452 0.0
C561 C 0.04166 0.44612 0.83084 0.0
C562 C 0.06368 0.45995 0.88667 0.0
C563 C 0.09005 0.46986 0.04849 0.0
C564 C 0.09425 0.46551 0.15264 0.0
C565 C 0.06761 0.45698 0.99362 0.0
C566 C 0.07549 0.44923 0.20414 0.0
C567 C 0.05297 0.43683 0.15137 0.0
H568 H 0.64182 0.59835 0.0645 0.0
H569 H 0.59484 0.58414 0.7834 0.0
H570 H 0.58054 0.60752 0.86396 0.0
H571 H 0.5842 0.63457 1.00897 0.0
H572 H 0.63118 0.64805 0.28963 0.0
H573 H 0.64274 0.62229 0.2147 0.0
C574 C 0.62825 0.60019 1.02143 0.0
C575 C 0.61951 0.58987 0.91813 0.0
C576 C 0.62033 0.61364 0.0678 0.0
C577 C 0.60175 0.59203 0.86325 0.0
C578 C 0.59372 0.60547 0.90897 0.0
C579 C 0.59681 0.63167 0.05376 0.0
C580 C 0.60708 0.6433 0.15386 0.0
C581 C 0.60332 0.61678 1.01024 0.0
C582 C 0.62319 0.63934 0.21205 0.0
C583 C 0.62981 0.62465 0.16932 0.0
H584 H 0.46408 0.07669 1.01032 0.0
H585 H 0.43914 0.03825 0.70558 0.0
H586 H 0.42237 1.00369 0.79511 0.0
H587 H 0.41272 0.98462 0.95975 0.0
H588 H 0.43725 0.02283 0.26499 0.0
H589 H 0.45633 0.05746 0.17552 0.0
C590 C 0.45524 0.06073 0.96359 0.0
C591 C 0.45277 0.05991 0.85166 0.0
C592 C 0.44541 0.04101 1.01566 0.0
C593 C 0.44124 0.03921 0.79184 0.0
C594 C 0.43158 0.0195 0.84297 0.0
C595 C 0.42232 1.00054 1.00665 0.0
C596 C 0.42346 1.00131 0.11857 0.0
C597 C 0.43319 0.02023 0.95476 0.0
C598 C 0.43613 0.02194 0.17865 0.0
C599 C 0.447 0.04168 0.12755 0.0
H600 H 0.65208 0.0876 1.02114 0.0
H601 H 0.59636 0.05425 0.7684 0.0
H602 H 0.57676 0.02147 0.87124 0.0
H603 H 0.57717 1.00166 1.02852 0.0
H604 H 0.63237 0.03603 0.28322 0.0
H605 H 0.65035 0.06939 0.18499 0.0
C606 C 0.63557 0.07317 0.98887 0.0
C607 C 0.62577 0.07306 0.88699 0.0
C608 C 0.62435 0.05473 0.04899 0.0
C609 C 0.60421 0.05454 0.84654 0.0
C610 C 0.59307 0.03586 0.90525 0.0
C611 C 0.59295 0.01658 0.06301 0.0
C612 C 0.60358 0.01642 0.16248 0.0
C613 C 0.60318 0.03567 1.00592 0.0
C614 C 0.62392 0.03581 0.20676 0.0
C615 C 0.63426 0.05482 0.15038 0.0
H616 H 0.09786 0.64644 1.01287 0.0
H617 H 0.06722 0.65976 0.28159 0.0
H618 H 0.02765 0.63546 0.19456 0.0
H619 H 1.00191 0.61286 0.03688 0.0
H620 H 0.03205 0.60079 0.7631 0.0
H621 H 0.07161 0.62209 0.85686 0.0
C622 C 0.08247 0.64361 0.05309 0.0
C623 C 0.08542 0.65479 0.15371 0.0
C624 C 0.05971 0.6301 1.00098 0.0
C625 C 0.06537 0.65133 0.20414 0.0
C626 C 0.04275 0.63751 0.15428 0.0
C627 C 0.01713 0.61476 0.99801 0.0
C628 C 0.01414 0.60541 0.89314 0.0
C629 C 0.03973 0.62723 0.0518 0.0
C630 C 0.03396 0.60793 0.84377 0.0
C631 C 0.05656 0.6201 0.89737 0.0
H632 H 0.40112 0.44554 0.22917 0.0
H633 H 0.43125 0.50092 0.03291 0.0
H634 H 0.4486 0.48299 0.92925 0.0
H635 H 0.45246 0.44985 0.88506 0.0
H636 H 0.42245 0.39513 0.08548 0.0
H637 H 0.40775 0.41439 0.19563 0.0
C638 C 0.41178 0.45387 0.16478 0.0
C639 C 0.41477 0.47447 0.13872 0.0
C640 C 0.42146 0.44338 0.10482 0.0
C641 C 0.42878 0.48509 0.05533 0.0
C642 C 0.43853 0.47475 0.99517 0.0
C643 C 0.44277 0.44227 0.95306 0.0
C644 C 0.43828 0.42101 0.97623 0.0
C645 C 0.4345 0.45361 1.0175 0.0
C646 C 0.42599 0.41143 0.0654 0.0
C647 C 0.41758 0.42244 0.12875 0.0
H648 H 0.08277 0.21698 0.73109 0.0
H649 H 0.08078 0.2354 0.41028 0.0
H650 H 0.11735 0.23572 0.38195 0.0
H651 H 0.15263 0.23581 0.45448 0.0
H652 H 0.15603 0.21726 0.77315 0.0
H653 H 0.11644 0.21172 0.79604 0.0
C654 C 0.08996 0.22029 0.65404 0.0
C655 C 0.07888 0.22604 0.57252 0.0
C656 C 0.11157 0.22081 0.63846 0.0
C657 C 0.0888 0.23079 0.47397 0.0
C658 C 0.10987 0.23115 0.45787 0.0
C659 C 0.14448 0.23005 0.5282 0.0
C660 C 0.1573 0.22698 0.61196 0.0
C661 C 0.12183 0.22696 0.54048 0.0
C662 C 0.14648 0.21953 0.70696 0.0
C663 C 0.12388 0.21656 0.72027 0.0
H664 H 0.84206 0.9581 0.47155 0.0
H665 H 0.7892 0.94045 0.69724 0.0
H666 H 0.78797 0.9055 0.71793 0.0
H667 H 0.80161 0.87958 0.67591 0.0
H668 H 0.85338 0.89476 0.44828 0.0
H669 H 0.85535 0.9306 0.42481 0.0
C670 C 0.83027 0.94655 0.52486 0.0
C671 C 0.81579 0.95218 0.58293 0.0
C672 C 0.82947 0.9259 0.53664 0.0
C673 C 0.80061 0.93684 0.65147 0.0
C674 C 0.79986 0.91669 0.66372 0.0
C675 C 0.8134 0.89071 0.62111 0.0
C676 C 0.82742 0.88445 0.56452 0.0
C677 C 0.81421 0.91105 0.60736 0.0
C678 C 0.84241 0.89911 0.49324 0.0
C679 C 0.84352 0.91964 0.47981 0.0
H680 H 0.11444 0.89982 0.70168 0.0
H681 H 0.07263 0.90692 0.44899 0.0
H682 H 0.10636 0.94332 0.41764 0.0
H683 H 0.14893 0.97254 0.45681 0.0
H684 H 0.19011 0.96412 0.70764 0.0
H685 H 0.15564 0.92917 0.74566 0.0
C686 C 0.11262 0.90938 0.64011 0.0
C687 C 0.09101 0.90058 0.57759 0.0
C688 C 0.13211 0.93021 0.62243 0.0
C689 C 0.08904 0.91325 0.49826 0.0
C690 C 0.10836 0.93409 0.48029 0.0
C691 C 0.15011 0.96319 0.52094 0.0
C692 C 0.17196 0.97102 0.58042 0.0
C693 C 0.13013 0.94271 0.54123 0.0
C694 C 0.17343 0.95854 0.66175 0.0
C695 C 0.15375 0.93848 0.68313 0.0
H696 H 0.1934 0.14824 0.52755 0.0
H697 H 0.24456 0.17925 0.79922 0.0
H698 H 0.24602 0.14501 0.81479 0.0
H699 H 0.23525 0.10722 0.74118 0.0
H700 H 0.18393 0.07635 0.46976 0.0
H701 H 0.1798 0.10929 0.46493 0.0
C702 C 0.20463 0.14738 0.59098 0.0
C703 C 0.21898 0.16631 0.66164 0.0
C704 C 0.20541 0.12763 0.59926 0.0
C705 C 0.23337 0.16493 0.74371 0.0
C706 C 0.23426 0.14536 0.75244 0.0
C707 C 0.22286 0.10758 0.68222 0.0
C708 C 0.21 0.08938 0.6056 0.0
C709 C 0.22072 0.12674 0.67932 0.0
C710 C 0.19405 0.09011 0.52961 0.0
C711 C 0.19175 0.10901 0.52645 0.0
H712 H 0.87429 0.10111 0.75844 0.0
H713 H 0.89062 0.06739 0.51022 0.0
H714 H 0.92882 0.10119 0.49854 0.0
H715 H 0.95626 0.14141 0.54921 0.0
H716 H 0.94007 0.17452 0.80085 0.0
H717 H 0.90324 0.13997 0.82089 0.0
C718 C 0.88632 0.10103 0.70264 0.0
C719 C 0.87946 0.0817 0.63485 0.0
C720 C 0.90823 0.12055 0.69629 0.0
C721 C 0.89542 0.08191 0.56382 0.0
C722 C 0.91722 0.10134 0.55651 0.0
C723 C 0.94475 0.14098 0.60909 0.0
C724 C 0.9508 0.1606 0.67285 0.0
C725 C 0.92361 0.12092 0.62076 0.0
C726 C 0.93582 0.15972 0.75063 0.0
C727 C 0.91471 0.13995 0.76196 0.0
H728 H 0.94222 0.79163 0.73446 0.0
H729 H 0.97393 0.84639 0.53521 0.0
H730 H 0.93804 0.84889 0.52808 0.0
H731 H 0.89633 0.83384 0.56967 0.0
H732 H 0.86555 0.77908 0.76987 0.0
H733 H 0.90223 0.77849 0.78558 0.0
C734 C 0.94139 0.8042 0.68968 0.0
C735 C 0.96078 0.81864 0.63475 0.0
C736 C 0.92069 0.80556 0.68582 0.0
C737 C 0.95933 0.83498 0.57833 0.0
C738 C 0.93873 0.83641 0.57395 0.0
C739 C 0.89779 0.82202 0.61793 0.0
C740 C 0.87799 0.80639 0.66745 0.0
C741 C 0.91912 0.82158 0.62629 0.0
C742 C 0.88029 0.79115 0.72953 0.0
C743 C 0.90132 0.79076 0.73876 0.0
H744 H 0.81392 0.52386 0.77311 0.0
H745 H 0.82851 0.5492 0.46342 0.0
H746 H 0.79058 0.54823 0.44743 0.0
H747 H 0.75523 0.5443 0.53229 0.0
H748 H 0.74321 0.52166 0.84795 0.0
H749 H 0.77778 0.51717 0.8506 0.0
C750 C 0.80861 0.52879 0.70118 0.0
C751 C 0.82403 0.53665 0.61975 0.0
C752 C 0.78716 0.52876 0.69405 0.0
C753 C 0.81693 0.54305 0.52723 0.0
C754 C 0.79528 0.5426 0.51836 0.0
C755 C 0.75993 0.53783 0.60009 0.0
C756 C 0.74662 0.53306 0.68947 0.0
C757 C 0.7805 0.53606 0.6026 0.0
C758 C 0.75313 0.52524 0.7781 0.0
C759 C 0.77296 0.52278 0.77987 0.0
H760 H 0.46523 0.28266 0.5719 0.0
H761 H 0.52185 0.31544 0.82166 0.0
H762 H 0.52742 0.28337 0.8169 0.0
H763 H 0.51401 0.24476 0.75407 0.0
H764 H 0.45741 0.21117 0.50543 0.0
H765 H 0.45416 0.24468 0.49648 0.0
C766 C 0.47901 0.28285 0.62386 0.0
C767 C 0.49299 0.30134 0.69757 0.0
C768 C 0.48201 0.26411 0.62151 0.0
C769 C 0.51076 0.30138 0.7646 0.0
C770 C 0.51395 0.28301 0.76217 0.0
C771 C 0.50119 0.24488 0.69687 0.0
C772 C 0.48588 0.22552 0.63104 0.0
C773 C 0.49933 0.2641 0.69286 0.0
C774 C 0.4694 0.22591 0.55697 0.0
C775 C 0.46747 0.24504 0.55222 0.0
H776 H 0.75321 0.2626 0.72396 0.0
H777 H 0.76895 0.22197 0.51348 0.0
H778 H 0.80607 0.25463 0.47829 0.0
H779 H 0.83615 0.29395 0.52257 0.0
H780 H 0.82181 0.33437 0.74121 0.0
H781 H 0.78215 0.30292 0.75662 0.0
C782 C 0.76461 0.26103 0.66901 0.0
C783 C 0.75843 0.2399 0.62191 0.0
C784 C 0.78632 0.27989 0.65099 0.0
C785 C 0.7734 0.23805 0.5513 0.0
C786 C 0.79467 0.25672 0.53115 0.0
C787 C 0.82414 0.29599 0.57165 0.0
C788 C 0.83189 0.31642 0.63072 0.0
C789 C 0.80162 0.27763 0.58269 0.0
C790 C 0.81623 0.31878 0.69487 0.0
C791 C 0.79358 0.30076 0.70419 0.0
H792 H 0.9482 0.51194 0.70612 0.0
H793 H 0.87273 0.48133 0.64659 0.0
H794 H 0.86896 0.44424 0.63826 0.0
H795 H 0.88759 0.42019 0.65584 0.0
H796 H 0.96354 0.45324 0.71402 0.0
H797 H 0.96636 0.48915 0.71455 0.0
C798 C 0.93081 0.49724 0.69124 0.0
C799 C 0.91079 0.49965 0.67807 0.0
C800 C 0.9288 0.47609 0.68655 0.0
C801 C 0.88853 0.48016 0.65729 0.0
C802 C 0.88637 0.45887 0.65277 0.0
C803 C 0.90472 0.43525 0.66776 0.0
C804 C 0.92526 0.43363 0.68648 0.0
C805 C 0.90643 0.45653 0.6683 0.0
C806 C 0.94728 0.45356 0.70135 0.0
C807 C 0.94903 0.47435 0.70141 0.0
H808 H 0.55264 0.41126 0.69325 0.0
H809 H 0.52964 0.43738 0.94924 0.0
H810 H 0.56679 0.47234 0.96122 0.0
H811 H 0.60452 0.49679 0.89284 0.0
H812 H 0.62916 0.4726 0.63709 0.0
H813 H 0.59313 0.43576 0.63258 0.0
C814 C 0.55593 0.4245 0.75256 0.0
C815 C 0.53801 0.42155 0.8195 0.0
C816 C 0.57767 0.44507 0.7589 0.0
C817 C 0.54274 0.43905 0.89564 0.0
C818 C 0.5641 0.45917 0.90283 0.0
C819 C 0.60218 0.48347 0.83619 0.0
C820 C 0.61953 0.48765 0.76455 0.0
C821 C 0.58145 0.46255 0.83363 0.0
C822 C 0.61621 0.46995 0.69334 0.0
C823 C 0.59548 0.44889 0.69037 0.0
H824 H 0.61489 0.15369 0.85797 0.0
H825 H 0.63784 0.18973 0.57808 0.0
H826 H 0.60133 0.19152 0.56103 0.0
H827 H 0.56053 0.17907 0.61676 0.0
H828 H 0.5391 0.14264 0.89714 0.0
H829 H 0.5772 0.14498 0.92316 0.0
C830 C 0.61209 0.16219 0.79369 0.0
C831 C 0.62901 0.17135 0.7188 0.0
C832 C 0.59109 0.16297 0.78417 0.0
C833 C 0.62516 0.18256 0.63707 0.0
C834 C 0.60417 0.18345 0.62696 0.0
C835 C 0.56447 0.17211 0.68466 0.0
C836 C 0.54679 0.1605 0.75441 0.0
C837 C 0.58666 0.17321 0.69871 0.0
C838 C 0.55219 0.15144 0.84158 0.0
C839 C 0.57402 0.15274 0.85662 0.0
H840 H 0.51585 0.94157 0.4127 0.0
H841 H 0.49444 0.87814 0.24559 0.0
H842 H 0.4529 0.86868 0.23863 0.0
H843 H 0.42349 0.88115 0.25964 0.0
H844 H 0.44648 0.94504 0.4272 0.0
H845 H 0.48639 0.95146 0.45672 0.0
C846 C 0.50201 0.92552 0.37638 0.0
C847 C 0.50804 0.91069 0.32844 0.0
C848 C 0.47843 0.92033 0.37268 0.0
C849 C 0.49007 0.8898 0.28292 0.0
C850 C 0.46638 0.88448 0.27845 0.0
C851 C 0.43715 0.8961 0.30518 0.0
C852 C 0.43223 0.91271 0.34051 0.0
C853 C 0.4604 0.89993 0.32022 0.0
C854 C 0.45002 0.93214 0.39869 0.0
C855 C 0.47285 0.93588 0.41523 0.0
H856 H 0.1576 0.62705 0.06296 0.0
H857 H 0.21702 0.6644 0.29604 0.0
H858 H 0.22341 0.63282 0.30164 0.0
H859 H 0.209 0.59316 0.25772 0.0
H860 H 0.14953 0.55541 1.02576 0.0
H861 H 0.14638 0.58854 1.00121 0.0
C862 C 0.17222 0.62837 0.11312 0.0
C863 C 0.18664 0.64785 0.17997 0.0
C864 C 0.17561 0.60999 0.11706 0.0
C865 C 0.20559 0.64947 0.24444 0.0
C866 C 0.2092 0.6314 0.24806 0.0
C867 C 0.19562 0.59233 0.20055 0.0
C868 C 0.17933 0.57193 0.14472 0.0
C869 C 0.19384 0.61135 0.18752 0.0
C870 C 0.16219 0.57099 0.07004 0.0
C871 C 0.16033 0.58989 0.05629 0.0
H872 H 0.52139 0.64068 0.11599 0.0
H873 H 0.50319 0.67194 0.36863 0.0
H874 H 0.46364 0.63906 0.36132 0.0
H875 H 0.43577 0.60008 0.29476 0.0
H876 H 0.45431 0.56904 0.04267 0.0
H877 H 0.49224 0.60333 0.0374 0.0
C878 C 0.5087 0.64038 0.1689 0.0
C879 C 0.51528 0.65854 0.24383 0.0
C880 C 0.48615 0.62145 0.16457 0.0
C881 C 0.49855 0.65812 0.31048 0.0
C882 C 0.47599 0.6393 0.30665 0.0
C883 C 0.44801 0.60098 0.2377 0.0
C884 C 0.44247 0.58209 0.1699 0.0
C885 C 0.46982 0.62067 0.23578 0.0
C886 C 0.4583 0.5834 0.09581 0.0
C887 C 0.47999 0.60295 0.09308 0.0
H888 H 0.54206 0.76954 0.26997 0.0
H889 H 0.59798 0.79317 0.5219 0.0
H890 H 0.59887 0.8288 0.54224 0.0
H891 H 0.58668 0.85456 0.47317 0.0
H892 H 0.53176 0.83071 0.21595 0.0
H893 H 0.52734 0.79374 0.2134 0.0
C894 C 0.55419 0.78238 0.33047 0.0
C895 C 0.57009 0.77894 0.39363 0.0
C896 C 0.55487 0.80282 0.34003 0.0
C897 C 0.58562 0.79556 0.47221 0.0
C898 C 0.5862 0.81593 0.48343 0.0
C899 C 0.5735 0.84112 0.41799 0.0
C900 C 0.55971 0.8453 0.34415 0.0
C901 C 0.57137 0.81997 0.41557 0.0
C902 C 0.54268 0.82786 0.27295 0.0
C903 C 0.54016 0.80675 0.2713 0.0
H904 H 0.2906 0.83646 0.42563 0.0
H905 H 0.31697 0.81156 0.18038 0.0
H906 H 0.28012 0.77558 0.16579 0.0
H907 H 0.23897 0.7526 0.21088 0.0
H908 H 0.21216 0.77888 0.44864 0.0
H909 H 0.25051 0.81289 0.47772 0.0
C910 C 0.28845 0.82301 0.37048 0.0
C911 C 0.30642 0.82658 0.30425 0.0
C912 C 0.26695 0.80272 0.35999 0.0
C913 C 0.30335 0.80912 0.23239 0.0
C914 C 0.28224 0.78862 0.22357 0.0
C915 C 0.24159 0.76567 0.2698 0.0
C916 C 0.22262 0.76325 0.32672 0.0
C917 C 0.26366 0.78544 0.28498 0.0
C918 C 0.22634 0.78038 0.40273 0.0
C919 C 0.24831 0.79984 0.41975 0.0
H920 H 0.30323 0.49667 0.38758 0.0
H921 H 0.32513 0.53443 0.11214 0.0
H922 H 0.29002 0.53842 0.10878 0.0
H923 H 0.25045 0.52674 0.17173 0.0
H924 H 0.2294 0.48842 0.44642 0.0
H925 H 0.26696 0.48941 0.46375 0.0
C926 C 0.30043 0.506 0.32756 0.0
C927 C 0.31637 0.5149 0.24918 0.0
C928 C 0.28032 0.50807 0.32594 0.0
C929 C 0.31293 0.52735 0.17307 0.0
C930 C 0.29283 0.52954 0.17089 0.0
C931 C 0.25442 0.51914 0.23674 0.0
C932 C 0.23712 0.50723 0.30669 0.0
C933 C 0.27602 0.51937 0.24513 0.0
C934 C 0.24236 0.49739 0.39063 0.0
C935 C 0.2638 0.49789 0.40058 0.0
H936 H 0.01597 0.21166 0.23656 0.0
H937 H 0.02681 0.27592 0.34727 0.0
H938 H 0.03445 0.28818 0.16692 0.0
H939 H 0.03786 0.28057 0.97641 0.0
H940 H 0.02577 0.21587 0.86514 0.0
H941 H 0.01854 0.2038 0.04588 0.0
C942 C 0.01998 0.22836 0.22125 0.0
C943 C 0.02109 0.24294 0.30606 0.0
C944 C 0.02401 0.23517 0.11669 0.0
C945 C 0.02618 0.26445 0.28427 0.0
C946 C 0.03044 0.27144 0.1808 0.0
C947 C 0.03366 0.26382 0.99178 0.0
C948 C 0.03248 0.24917 0.90709 0.0
C949 C 0.02942 0.25695 0.09626 0.0
C950 C 0.02685 0.2275 0.92851 0.0
C951 C 0.02273 0.22059 0.03206 0.0
H952 H 0.77742 0.76403 0.23475 0.0
H953 H 0.83966 0.82487 0.36211 0.0
H954 H 0.84894 0.8361 0.18127 0.0
H955 H 0.83963 0.82835 0.98657 0.0
H956 H 0.77713 0.76771 0.85949 0.0
H957 H 0.76787 0.75648 0.04018 0.0
C958 C 0.79297 0.77979 0.22285 0.0
C959 C 0.80784 0.79362 0.31168 0.0
C960 C 0.79827 0.78603 0.11859 0.0
C961 C 0.82791 0.81398 0.2951 0.0
C962 C 0.83327 0.82035 0.19167 0.0
C963 C 0.82402 0.81264 0.99848 0.0
C964 C 0.8092 0.79877 0.90961 0.0
C965 C 0.81865 0.80645 0.10279 0.0
C966 C 0.78899 0.77853 0.92634 0.0
C967 C 0.78361 0.77218 1.02976 0.0
H968 H 0.24669 0.05938 0.18515 0.0
H969 H 0.23221 0.99443 0.26572 0.0
H970 H 0.23473 0.9845 0.07993 0.0
H971 H 0.24075 0.99417 0.8932 0.0
H972 H 0.25139 0.05767 0.80925 0.0
H973 H 0.25027 0.06818 0.99651 0.0
C974 C 0.24415 0.04307 0.16207 0.0
C975 C 0.23992 0.02788 0.24015 0.0
C976 C 0.24468 0.03715 0.05393 0.0
C977 C 0.23617 0.00666 0.20823 0.0
C978 C 0.2374 1.0009 0.1016 0.0
C979 C 0.24277 0.0103 0.91606 0.0
C980 C 0.24618 0.02517 0.83752 0.0
C981 C 0.24166 0.01601 1.02369 0.0
C982 C 0.24855 0.0459 0.868 0.0
C983 C 0.24804 0.05193 0.97522 0.0
H984 H 0.03726 0.84569 1.00053 0.0
H985 H 0.99965 0.77779 0.86416 0.0
H986 H 0.99143 0.76448 0.04205 0.0
H987 H 0.99477 0.77223 0.23734 0.0
H988 H 0.03256 0.84011 0.37462 0.0
H989 H 0.04086 0.85346 0.19635 0.0
C990 C 0.02727 0.82797 1.0098 0.0
C991 C 0.0194 0.81267 0.91881 0.0
C992 C 0.02263 0.82051 0.11291 0.0
C993 C 1.00645 0.78982 0.93245 0.0
C994 C 1.00157 0.78225 0.03442 0.0
C995 C 1.00483 0.78996 0.22821 0.0
C996 C 0.01303 0.80521 0.31935 0.0
C997 C 0.00961 0.79743 0.1253 0.0
C998 C 0.02608 0.82809 0.30607 0.0
C999 C 0.0308 0.83568 0.20398 0.0
H1000 H 0.25046 0.23448 0.23287 0.0
H1001 H 0.20492 0.25955 0.32077 0.0
H1002 H 0.20151 0.26814 0.13697 0.0
H1003 H 0.21127 0.26835 0.94945 0.0
H1004 H 0.2556 0.24196 0.86042 0.0
H1005 H 0.25935 0.23377 0.04468 0.0
C1006 C 0.23982 0.24186 0.21178 0.0
C1007 C 0.22837 0.24678 0.29139 0.0
C1008 C 0.23754 0.24634 0.10494 0.0
C1009 C 0.21443 0.2561 0.26211 0.0
C1010 C 0.2123 0.26085 0.15654 0.0
C1011 C 0.22172 0.26077 0.97045 0.0
C1012 C 0.23311 0.25576 0.89088 0.0
C1013 C 0.22378 0.25606 0.07711 0.0
C1014 C 0.24651 0.24587 0.91958 0.0
C1015 C 0.24875 0.24126 1.02528 0.0
H1016 H 0.77769 0.0344 0.2347 0.0
H1017 H 0.83855 0.02988 0.34015 0.0
H1018 H 0.84708 0.02724 0.15458 0.0
H1019 H 0.83758 0.02694 0.96293 0.0
H1020 H 0.77568 0.02972 0.85762 0.0
H1021 H 0.76745 0.03283 0.04288 0.0
C1022 C 0.79278 0.03276 0.21691 0.0
C1023 C 0.80756 0.03244 0.30063 0.0
C1024 C 0.79754 0.03128 0.11037 0.0
C1025 C 0.82694 0.03015 0.27683 0.0
C1026 C 0.83186 0.02874 0.1709 0.0
C1027 C 0.82234 0.02833 0.9806 0.0
C1028 C 0.80751 0.02858 0.89679 0.0
C1029 C 0.81739 0.02947 0.08714 0.0
C1030 C 0.78768 0.03009 0.92071 0.0
C1031 C 0.78284 0.03161 1.02661 0.0
H1032 H 0.70598 0.55183 0.13512 0.0
H1033 H 0.64345 0.55089 1.00663 0.0
H1034 H 0.63259 0.55391 0.18736 0.0
H1035 H 0.64085 0.55655 0.38286 0.0
H1036 H 0.70279 0.55629 0.51082 0.0
H1037 H 0.71374 0.55356 0.32998 0.0
C1038 C 0.68998 0.55232 0.14678 0.0
C1039 C 0.67589 0.55184 0.05751 0.0
C1040 C 0.68364 0.55355 0.25106 0.0
C1041 C 0.65507 0.55217 0.07381 0.0
C1042 C 0.64871 0.55357 0.17729 0.0
C1043 C 0.65671 0.55581 0.371 0.0
C1044 C 0.6709 0.55638 0.46017 0.0
C1045 C 0.6629 0.55433 0.26658 0.0
C1046 C 0.6914 0.55549 0.44365 0.0
C1047 C 0.69773 0.55409 0.34018 0.0
H1048 H 0.44708 0.10633 0.3304 0.0
H1049 H 0.5036 0.17116 0.45511 0.0
H1050 H 0.50963 0.18336 0.27438 0.0
H1051 H 0.49914 0.17558 0.08006 0.0
H1052 H 0.44177 0.11123 0.95523 0.0
H1053 H 0.43597 0.09881 0.13573 0.0
C1054 C 0.46073 0.12313 0.31794 0.0
C1055 C 0.47496 0.13778 0.40641 0.0
C1056 C 0.46403 0.13008 0.21338 0.0
C1057 C 0.49244 0.15953 0.38875 0.0
C1058 C 0.49591 0.16651 0.28522 0.0
C1059 C 0.48534 0.15883 0.09233 0.0
C1060 C 0.47111 0.14427 1.00369 0.0
C1061 C 0.48186 0.15194 0.19684 0.0
C1062 C 0.45322 0.12269 1.02144 0.0
C1063 C 0.44982 0.11561 0.12494 0.0
H1064 H 0.90298 0.34113 0.05028 0.0
H1065 H 0.9546 0.40784 0.98443 0.0
H1066 H 0.96494 0.4186 0.17548 0.0
H1067 H 0.95892 0.40916 0.36174 0.0
H1068 H 0.90666 0.34271 0.42777 0.0
H1069 H 0.89665 0.33182 0.23656 0.0
C1070 C 0.91656 0.35799 0.07786 0.0
C1071 C 0.92818 0.37361 1.00336 0.0
C1072 C 0.92209 0.36416 0.18794 0.0
C1073 C 0.9456 0.39544 0.04015 0.0
C1074 C 0.95141 0.40164 0.14943 0.0
C1075 C 0.94529 0.39232 0.33413 0.0
C1076 C 0.93352 0.37676 0.40862 0.0
C1077 C 0.9397 0.38617 0.22407 0.0
C1078 C 0.91589 0.35501 0.37192 0.0
C1079 C 0.91023 0.34875 0.26261 0.0
H1080 H 0.71464 0.19003 0.11312 0.0
H1081 H 0.65412 0.13066 0.96411 0.0
H1082 H 0.64285 0.11637 0.13843 0.0
H1083 H 0.65029 0.12096 0.33561 0.0
H1084 H 0.70725 0.1829 0.48409 0.0
H1085 H 0.71975 0.19618 0.3098 0.0
C1086 C 0.69903 0.17392 0.11884 0.0
C1087 C 0.68597 0.16079 1.02493 0.0
C1088 C 0.692 0.16639 0.22018 0.0
C1089 C 0.66537 0.14034 0.03424 0.0
C1090 C 0.65866 0.1324 0.1344 0.0
C1091 C 0.66544 0.13736 0.32967 0.0
C1092 C 0.67832 0.15074 0.4235 0.0
C1093 C 0.67195 0.1452 0.22817 0.0
C1094 C 0.69753 0.17209 0.41394 0.0
C1095 C 0.70456 0.17974 0.31381 0.0
H1096 H 0.8951 0.57544 0.06899 0.0
H1097 H 0.94407 0.55459 0.97921 0.0
H1098 H 0.95413 0.5531 0.16698 0.0
H1099 H 0.94864 0.55726 0.3573 0.0
H1100 H 0.89923 0.57757 0.44676 0.0
H1101 H 0.88941 0.57935 0.2591 0.0
C1102 C 0.90805 0.57067 0.09064 0.0
C1103 C 0.91897 0.56533 1.01025 0.0
C1104 C 0.91346 0.56949 0.19885 0.0
C1105 C 0.93559 0.55901 0.03952 0.0
C1106 C 0.94125 0.55803 0.14693 0.0
C1107 C 0.93566 0.562 0.33557 0.0
C1108 C 0.92458 0.56715 0.41588 0.0
C1109 C 0.93022 0.56313 0.22732 0.0
C1110 C 0.90784 0.57331 0.38654 0.0
C1111 C 0.90232 0.57446 0.27918 0.0
H1112 H 0.49789 0.36541 0.1469 0.0
H1113 H 0.4298 0.35563 0.03896 0.0
H1114 H 0.42181 0.36015 0.22335 0.0
H1115 H 0.43418 0.36676 0.41698 0.0
H1116 H 0.50094 0.37341 0.52454 0.0
H1117 H 0.50924 0.36983 0.33987 0.0
C1118 C 0.4813 0.36428 0.16375 0.0
C1119 C 0.46483 0.36099 0.07868 0.0
C1120 C 0.4765 0.36614 0.27049 0.0
C1121 C 0.44323 0.35912 0.10225 0.0
C1122 C 0.43852 0.36141 0.20803 0.0
C1123 C 0.45052 0.36741 0.39981 0.0
C1124 C 0.467 0.37054 0.48458 0.0
C1125 C 0.45506 0.36502 0.29296 0.0
C1126 C 0.48798 0.37107 0.46104 0.0
C1127 C 0.49276 0.36906 0.35527 0.0
H1128 H 0.40848 0.94279 0.63596 0.0
H1129 H 0.33627 0.89875 0.51202 0.0
H1130 H 0.325 0.88842 0.69186 0.0
H1131 H 0.33554 0.89212 0.88573 0.0
H1132 H 0.40795 0.93529 1.00927 0.0
H1133 H 0.41916 0.94596 0.82972 0.0
C1134 C 0.39029 0.9309 0.64843 0.0
C1135 C 0.37327 0.92148 0.56035 0.0
C1136 C 0.38391 0.92503 0.75257 0.0
C1137 C 0.34978 0.90608 0.57796 0.0
C1138 C 0.34329 0.90025 0.68107 0.0
C1139 C 0.35376 0.90388 0.87333 0.0
C1140 C 0.3708 0.91315 0.96142 0.0
C1141 C 0.36018 0.90963 0.76914 0.0
C1142 C 0.39438 0.92821 0.94352 0.0
C1143 C 0.40084 0.93421 0.84053 0.0
H1144 H 0.13849 0.4544 0.87348 0.0
H1145 H 0.19634 0.51848 0.99831 0.0
H1146 H 0.20203 0.53103 0.81807 0.0
H1147 H 0.19089 0.52376 0.62358 0.0
H1148 H 0.13253 0.45999 0.49875 0.0
H1149 H 0.12687 0.44736 0.67889 0.0
C1150 C 0.15236 0.47111 0.86122 0.0
C1151 C 0.16706 0.48543 0.94983 0.0
C1152 C 0.1555 0.47826 0.75674 0.0
C1153 C 0.18483 0.50707 0.93207 0.0
C1154 C 0.18809 0.51426 0.82872 0.0
C1155 C 0.17689 0.5071 0.63576 0.0
C1156 C 0.1623 0.49279 0.54696 0.0
C1157 C 0.17359 0.50001 0.74026 0.0
C1158 C 0.14421 0.47129 0.56487 0.0
C1159 C 0.14091 0.46408 0.66825 0.0
H1160 H 0.56114 0.71929 0.92208 0.0
H1161 H 0.61679 0.70717 1.02926 0.0
H1162 H 0.62373 0.70165 0.84399 0.0
H1163 H 0.614 0.70037 0.65106 0.0
H1164 H 0.55836 0.71255 0.5442 0.0
H1165 H 0.55151 0.71813 0.72944 0.0
C1166 C 0.57478 0.71543 0.9048 0.0
C1167 C 0.58843 0.71363 0.98927 0.0
C1168 C 0.57872 0.71238 0.79806 0.0
C1169 C 0.60603 0.70862 0.9657 0.0
C1170 C 0.61002 0.7055 0.85975 0.0
C1171 C 0.60039 0.70426 0.66844 0.0
C1172 C 0.58665 0.70598 0.58405 0.0
C1173 C 0.5965 0.70737 0.77525 0.0
C1174 C 0.56913 0.71109 0.6077 0.0
C1175 C 0.56519 0.71426 0.71363 0.0
H1176 H 0.36025 0.46199 0.86371 0.0
H1177 H 0.36688 0.52476 0.97089 0.0
H1178 H 0.37401 0.53692 0.79034 0.0
H1179 H 0.37791 0.52964 0.60075 0.0
H1180 H 0.37297 0.46759 0.494 0.0
H1181 H 0.36545 0.45517 0.67427 0.0
C1182 C 0.36324 0.47833 0.84748 0.0
C1183 C 0.36284 0.49238 0.93107 0.0
C1184 C 0.36752 0.48529 0.743 0.0
C1185 C 0.36698 0.51357 0.90849 0.0
C1186 C 0.37106 0.52053 0.80499 0.0
C1187 C 0.37523 0.51339 0.61685 0.0
C1188 C 0.37563 0.49942 0.53293 0.0
C1189 C 0.3713 0.50653 0.72145 0.0
C1190 C 0.37232 0.47852 0.55603 0.0
C1191 C 0.36814 0.47147 0.65954 0.0
H1192 H 0.59891 0.91559 0.93471 0.0
H1193 H 0.55662 0.94417 1.02466 0.0
H1194 H 0.5534 0.95278 0.84101 0.0
H1195 H 0.56221 0.95181 0.65323 0.0
H1196 H 0.60261 0.92133 0.56114 0.0
H1197 H 0.60654 0.91343 0.74581 0.0
C1198 C 0.58906 0.92376 0.91407 0.0
C1199 C 0.57856 0.92977 0.99408 0.0
C1200 C 0.58669 0.92807 0.80728 0.0
C1201 C 0.56555 0.94005 0.96565 0.0
C1202 C 0.56345 0.94473 0.86016 0.0
C1203 C 0.57182 0.94339 0.67371 0.0
C1204 C 0.58213 0.9372 0.5936 0.0
C1205 C 0.57394 0.93882 0.78021 0.0
C1206 C 0.59443 0.9262 0.62116 0.0
C1207 C 0.59677 0.92175 0.72692 0.0
H1208 H 0.18396 0.70505 0.63093 0.0
H1209 H 0.11596 0.69553 0.52323 0.0
H1210 H 0.10816 0.70027 0.70802 0.0
H1211 H 0.12078 0.7072 0.90167 0.0
H1212 H 0.18799 0.71474 1.00854 0.0
H1213 H 0.19583 0.71039 0.82369 0.0
C1214 C 0.16741 0.70399 0.64786 0.0
C1215 C 0.15081 0.70047 0.56278 0.0
C1216 C 0.16286 0.70627 0.75469 0.0
C1217 C 0.12935 0.69888 0.58654 0.0
C1218 C 0.1248 0.7014 0.69252 0.0
C1219 C 0.13714 0.70789 0.88438 0.0
C1220 C 0.15387 0.71148 0.96908 0.0
C1221 C 0.14146 0.70519 0.77739 0.0
C1222 C 0.17486 0.7121 0.94521 0.0
C1223 C 0.17936 0.70962 0.83932 0.0
loop_
_geom_bond_atom_site_label_1
_geom_bond_atom_site_label_2
_geom_bond_distance
_geom_bond_site_symmetry_2
_ccdc_geom_bond_type
Tb0 O3 2.453 1_655 S
Tb0 O4 2.596 1_655 S
Tb0 O5 2.374 1_655 S
Tb0 O13 2.343 1_655 S
Tb0 O15 2.353 . S
Tb0 O17 2.427 . S
Tb0 O18 2.513 . S
C1 O5 1.251 . S
C1 O7 1.263 . S
Tb2 O4 2.343 . S
Tb2 O7 2.353 . S
Tb2 O10 2.427 . S
Tb2 O11 2.513 . S
Tb2 O12 2.453 . S
Tb2 O13 2.596 . S
Tb2 O14 2.374 . S
O3 Tb0 2.453 1_455 S
O3 C19 1.245 . S
O4 Tb0 2.596 1_455 S
O4 Tb2 2.343 . S
O4 C19 1.259 . S
O5 Tb0 2.374 1_455 S
O5 C1 1.251 . S
C6 O10 1.275 . S
C6 O11 1.246 . S
O7 C1 1.263 . S
O7 Tb2 2.353 . S
C8 O12 1.245 . S
C8 O13 1.259 . S
C9 O14 1.250 1_655 S
C9 O15 1.263 . S
O10 Tb2 2.427 . S
O10 C6 1.275 . S
O11 Tb2 2.513 . S
O11 C6 1.246 . S
O12 Tb2 2.453 . S
O12 C8 1.245 . S
O13 Tb0 2.343 1_455 S
O13 Tb2 2.596 . S
O13 C8 1.259 . S
O14 Tb2 2.374 . S
O14 C9 1.250 1_455 S
O15 Tb0 2.353 . S
O15 C9 1.263 . S
C16 O17 1.275 . S
C16 O18 1.246 . S
O17 Tb0 2.427 . S
O17 C16 1.275 . S
O18 Tb0 2.513 . S
O18 C16 1.246 . S
C19 O3 1.245 . S
C19 O4 1.259 . S
Tb20 O23 2.453 . S
Tb20 O24 2.596 . S
Tb20 O25 2.374 . S
Tb20 O33 2.343 . S
Tb20 O35 2.353 . S
Tb20 O37 2.427 . S
Tb20 O38 2.513 . S
C21 O25 1.251 . S
C21 O27 1.263 . S
Tb22 O24 2.343 . S
Tb22 O27 2.353 . S
Tb22 O30 2.427 . S
Tb22 O31 2.513 . S
Tb22 O32 2.453 . S
Tb22 O33 2.596 . S
Tb22 O34 2.374 . S
O23 Tb20 2.453 . S
O23 C39 1.245 . S
O24 Tb20 2.596 . S
O24 Tb22 2.343 . S
O24 C39 1.259 . S
O25 Tb20 2.374 . S
O25 C21 1.251 . S
C26 O30 1.275 . S
C26 O31 1.246 . S
O27 C21 1.263 . S
O27 Tb22 2.353 . S
C28 O32 1.245 . S
C28 O33 1.259 . S
C29 O34 1.250 . S
C29 O35 1.263 . S
O30 Tb22 2.427 . S
O30 C26 1.275 . S
O31 Tb22 2.513 . S
O31 C26 1.246 . S
O32 Tb22 2.453 . S
O32 C28 1.245 . S
O33 Tb20 2.343 . S
O33 Tb22 2.596 . S
O33 C28 1.259 . S
O34 Tb22 2.374 . S
O34 C29 1.250 . S
O35 Tb20 2.353 . S
O35 C29 1.263 . S
C36 O37 1.275 . S
C36 O38 1.246 . S
O37 Tb20 2.427 . S
O37 C36 1.275 . S
O38 Tb20 2.513 . S
O38 C36 1.246 . S
C39 O23 1.245 . S
C39 O24 1.259 . S
Tb40 O43 2.453 . S
Tb40 O44 2.596 . S
Tb40 O45 2.374 . S
Tb40 O53 2.343 . S
Tb40 O55 2.353 . S
Tb40 O57 2.427 . S
Tb40 O58 2.513 . S
C41 O45 1.251 1_565 S
C41 O47 1.263 . S
Tb42 O44 2.343 1_565 S
Tb42 O47 2.353 . S
Tb42 O50 2.427 . S
Tb42 O51 2.513 . S
Tb42 O52 2.453 1_565 S
Tb42 O53 2.596 1_565 S
Tb42 O54 2.374 1_565 S
O43 Tb40 2.453 . S
O43 C59 1.245 . S
O44 Tb40 2.596 . S
O44 Tb42 2.343 1_545 S
O44 C59 1.259 . S
O45 Tb40 2.374 . S
O45 C41 1.251 1_545 S
C46 O50 1.275 . S
C46 O51 1.246 . S
O47 C41 1.263 . S
O47 Tb42 2.353 . S
C48 O52 1.245 . S
C48 O53 1.259 . S
C49 O54 1.250 . S
C49 O55 1.263 . S
O50 Tb42 2.427 . S
O50 C46 1.275 . S
O51 Tb42 2.513 . S
O51 C46 1.246 . S
O52 Tb42 2.453 1_545 S
O52 C48 1.245 . S
O53 Tb40 2.343 . S
O53 Tb42 2.596 1_545 S
O53 C48 1.259 . S
O54 Tb42 2.374 1_545 S
O54 C49 1.250 . S
O55 Tb40 2.353 . S
O55 C49 1.263 . S
C56 O57 1.275 . S
C56 O58 1.246 . S
O57 Tb40 2.427 . S
O57 C56 1.275 . S
O58 Tb40 2.513 . S
O58 C56 1.246 . S
C59 O43 1.245 . S
C59 O44 1.259 . S
Tb60 O63 2.453 . S
Tb60 O64 2.596 1_655 S
Tb60 O65 2.374 1_655 S
Tb60 O73 2.343 1_655 S
Tb60 O75 2.353 . S
Tb60 O77 2.427 . S
Tb60 O78 2.513 . S
C61 O65 1.251 . S
C61 O67 1.263 . S
Tb62 O64 2.343 . S
Tb62 O67 2.353 . S
Tb62 O70 2.427 . S
Tb62 O71 2.513 . S
Tb62 O72 2.453 . S
Tb62 O73 2.596 . S
Tb62 O74 2.374 . S
O63 Tb60 2.453 . S
O63 C79 1.245 1_655 S
O64 Tb60 2.596 1_455 S
O64 Tb62 2.343 . S
O64 C79 1.259 . S
O65 Tb60 2.374 1_455 S
O65 C61 1.251 . S
C66 O70 1.275 . S
C66 O71 1.246 . S
O67 C61 1.263 . S
O67 Tb62 2.353 . S
C68 O72 1.245 . S
C68 O73 1.259 . S
C69 O74 1.250 1_655 S
C69 O75 1.263 . S
O70 Tb62 2.427 . S
O70 C66 1.275 . S
O71 Tb62 2.513 . S
O71 C66 1.246 . S
O72 Tb62 2.453 . S
O72 C68 1.245 . S
O73 Tb60 2.343 1_455 S
O73 Tb62 2.596 . S
O73 C68 1.259 . S
O74 Tb62 2.374 . S
O74 C69 1.250 1_455 S
O75 Tb60 2.353 . S
O75 C69 1.263 . S
C76 O77 1.275 . S
C76 O78 1.246 . S
O77 Tb60 2.427 . S
O77 C76 1.275 . S
O78 Tb60 2.513 . S
O78 C76 1.246 . S
C79 O63 1.245 1_455 S
C79 O64 1.259 . S
Tb80 O83 2.453 . S
Tb80 O84 2.596 . S
Tb80 O85 2.374 . S
Tb80 O93 2.343 . S
Tb80 O95 2.353 . S
Tb80 O97 2.427 . S
Tb80 O98 2.513 . S
C81 O85 1.251 . S
C81 O87 1.263 . S
Tb82 O84 2.343 . S
Tb82 O87 2.353 . S
Tb82 O90 2.427 . S
Tb82 O91 2.513 . S
Tb82 O92 2.453 . S
Tb82 O93 2.596 . S
Tb82 O94 2.374 . S
O83 Tb80 2.453 . S
O83 C99 1.245 . S
O84 Tb80 2.596 . S
O84 Tb82 2.343 . S
O84 C99 1.259 . S
O85 Tb80 2.374 . S
O85 C81 1.251 . S
C86 O90 1.275 . S
C86 O91 1.246 . S
O87 C81 1.263 . S
O87 Tb82 2.353 . S
C88 O92 1.245 . S
C88 O93 1.259 . S
C89 O94 1.250 . S
C89 O95 1.263 . S
O90 Tb82 2.427 . S
O90 C86 1.275 . S
O91 Tb82 2.513 . S
O91 C86 1.246 . S
O92 Tb82 2.453 . S
O92 C88 1.245 . S
O93 Tb80 2.343 . S
O93 Tb82 2.596 . S
O93 C88 1.259 . S
O94 Tb82 2.374 . S
O94 C89 1.250 . S
O95 Tb80 2.353 . S
O95 C89 1.263 . S
C96 O97 1.275 . S
C96 O98 1.246 . S
O97 Tb80 2.427 . S
O97 C96 1.275 . S
O98 Tb80 2.513 . S
O98 C96 1.246 . S
C99 O83 1.245 . S
C99 O84 1.259 . S
Tb100 O103 2.453 . S
Tb100 O104 2.596 . S
Tb100 O105 2.374 . S
Tb100 O113 2.343 . S
Tb100 O115 2.353 . S
Tb100 O117 2.427 . S
Tb100 O118 2.513 . S
C101 O105 1.251 1_565 S
C101 O107 1.263 . S
Tb102 O104 2.343 . S
Tb102 O107 2.353 1_545 S
Tb102 O110 2.427 1_545 S
Tb102 O111 2.513 . S
Tb102 O112 2.453 . S
Tb102 O113 2.596 . S
Tb102 O114 2.374 . S
O103 Tb100 2.453 . S
O103 C119 1.245 . S
O104 Tb100 2.596 . S
O104 Tb102 2.343 . S
O104 C119 1.259 . S
O105 Tb100 2.374 . S
O105 C101 1.251 1_545 S
C106 O110 1.275 . S
C106 O111 1.246 1_565 S
O107 C101 1.263 . S
O107 Tb102 2.353 1_565 S
C108 O112 1.245 . S
C108 O113 1.259 . S
C109 O114 1.250 . S
C109 O115 1.263 . S
O110 Tb102 2.427 1_565 S
O110 C106 1.275 . S
O111 Tb102 2.513 . S
O111 C106 1.246 1_545 S
O112 Tb102 2.453 . S
O112 C108 1.245 . S
O113 Tb100 2.343 . S
O113 Tb102 2.596 . S
O113 C108 1.259 . S
O114 Tb102 2.374 . S
O114 C109 1.250 . S
O115 Tb100 2.353 . S
O115 C109 1.263 . S
C116 O117 1.275 . S
C116 O118 1.246 . S
O117 Tb100 2.427 . S
O117 C116 1.275 . S
O118 Tb100 2.513 . S
O118 C116 1.246 . S
C119 O103 1.245 . S
C119 O104 1.259 . S
Tb120 O123 2.453 . S
Tb120 O124 2.596 . S
Tb120 O125 2.374 . S
Tb120 O133 2.343 . S
Tb120 O135 2.353 . S
Tb120 O137 2.427 . S
Tb120 O138 2.513 . S
C121 O125 1.251 . S
C121 O127 1.263 . S
Tb122 O124 2.343 . S
Tb122 O127 2.353 . S
Tb122 O130 2.427 . S
Tb122 O131 2.513 . S
Tb122 O132 2.453 . S
Tb122 O133 2.596 . S
Tb122 O134 2.374 . S
O123 Tb120 2.453 . S
O123 C139 1.245 . S
O124 Tb120 2.596 . S
O124 Tb122 2.343 . S
O124 C139 1.259 . S
O125 Tb120 2.374 . S
O125 C121 1.251 . S
C126 O130 1.275 . S
C126 O131 1.246 . S
O127 C121 1.263 . S
O127 Tb122 2.353 . S
C128 O132 1.245 . S
C128 O133 1.259 . S
C129 O134 1.250 . S
C129 O135 1.263 . S
O130 Tb122 2.427 . S
O130 C126 1.275 . S
O131 Tb122 2.513 . S
O131 C126 1.246 . S
O132 Tb122 2.453 . S
O132 C128 1.245 . S
O133 Tb120 2.343 . S
O133 Tb122 2.596 . S
O133 C128 1.259 . S
O134 Tb122 2.374 . S
O134 C129 1.250 . S
O135 Tb120 2.353 . S
O135 C129 1.263 . S
C136 O137 1.275 . S
C136 O138 1.246 . S
O137 Tb120 2.427 . S
O137 C136 1.275 . S
O138 Tb120 2.513 . S
O138 C136 1.246 . S
C139 O123 1.245 . S
C139 O124 1.259 . S
Tb140 O143 2.453 . S
Tb140 O144 2.596 . S
Tb140 O145 2.374 . S
Tb140 O153 2.343 . S
Tb140 O155 2.353 . S
Tb140 O157 2.427 . S
Tb140 O158 2.513 . S
C141 O145 1.251 . S
C141 O147 1.263 . S
Tb142 O144 2.343 . S
Tb142 O147 2.353 . S
Tb142 O150 2.427 . S
Tb142 O151 2.513 . S
Tb142 O152 2.453 . S
Tb142 O153 2.596 . S
Tb142 O154 2.374 . S
O143 Tb140 2.453 . S
O143 C159 1.245 . S
O144 Tb140 2.596 . S
O144 Tb142 2.343 . S
O144 C159 1.259 . S
O145 Tb140 2.374 . S
O145 C141 1.251 . S
C146 O150 1.275 . S
C146 O151 1.246 . S
O147 C141 1.263 . S
O147 Tb142 2.353 . S
C148 O152 1.245 . S
C148 O153 1.259 . S
C149 O154 1.250 . S
C149 O155 1.263 . S
O150 Tb142 2.427 . S
O150 C146 1.275 . S
O151 Tb142 2.513 . S
O151 C146 1.246 . S
O152 Tb142 2.453 . S
O152 C148 1.245 . S
O153 Tb140 2.343 . S
O153 Tb142 2.596 . S
O153 C148 1.259 . S
O154 Tb142 2.374 . S
O154 C149 1.250 . S
O155 Tb140 2.353 . S
O155 C149 1.263 . S
C156 O157 1.275 . S
C156 O158 1.246 . S
O157 Tb140 2.427 . S
O157 C156 1.275 . S
O158 Tb140 2.513 . S
O158 C156 1.246 . S
C159 O143 1.245 . S
C159 O144 1.259 . S
Tb160 O163 2.453 . S
Tb160 O164 2.596 . S
Tb160 O165 2.374 . S
Tb160 O173 2.343 . S
Tb160 O175 2.353 . S
Tb160 O177 2.427 . S
Tb160 O178 2.513 . S
C161 O165 1.251 . S
C161 O167 1.263 . S
Tb162 O164 2.343 . S
Tb162 O167 2.353 . S
Tb162 O170 2.427 . S
Tb162 O171 2.513 . S
Tb162 O172 2.453 . S
Tb162 O173 2.596 . S
Tb162 O174 2.374 . S
O163 Tb160 2.453 . S
O163 C179 1.245 . S
O164 Tb160 2.596 . S
O164 Tb162 2.343 . S
O164 C179 1.259 . S
O165 Tb160 2.374 . S
O165 C161 1.251 . S
C166 O170 1.275 . S
C166 O171 1.246 . S
O167 C161 1.263 . S
O167 Tb162 2.353 . S
C168 O172 1.245 . S
C168 O173 1.259 . S
C169 O174 1.250 . S
C169 O175 1.263 . S
O170 Tb162 2.427 . S
O170 C166 1.275 . S
O171 Tb162 2.513 . S
O171 C166 1.246 . S
O172 Tb162 2.453 . S
O172 C168 1.245 . S
O173 Tb160 2.343 . S
O173 Tb162 2.596 . S
O173 C168 1.259 . S
O174 Tb162 2.374 . S
O174 C169 1.250 . S
O175 Tb160 2.353 . S
O175 C169 1.263 . S
C176 O177 1.275 . S
C176 O178 1.246 . S
O177 Tb160 2.427 . S
O177 C176 1.275 . S
O178 Tb160 2.513 . S
O178 C176 1.246 . S
C179 O163 1.245 . S
C179 O164 1.259 . S
Tb180 O183 2.453 . S
Tb180 O184 2.596 . S
Tb180 O185 2.374 . S
Tb180 O193 2.343 . S
Tb180 O195 2.353 . S
Tb180 O197 2.427 . S
Tb180 O198 2.513 . S
C181 O185 1.251 . S
C181 O187 1.263 . S
Tb182 O184 2.343 . S
Tb182 O187 2.353 . S
Tb182 O190 2.427 . S
Tb182 O191 2.513 . S
Tb182 O192 2.453 . S
Tb182 O193 2.596 . S
Tb182 O194 2.374 . S
O183 Tb180 2.453 . S
O183 C199 1.245 . S
O184 Tb180 2.596 . S
O184 Tb182 2.343 . S
O184 C199 1.259 . S
O185 Tb180 2.374 . S
O185 C181 1.251 . S
C186 O190 1.275 . S
C186 O191 1.246 . S
O187 C181 1.263 . S
O187 Tb182 2.353 . S
C188 O192 1.245 . S
C188 O193 1.259 . S
C189 O194 1.250 . S
C189 O195 1.263 . S
O190 Tb182 2.427 . S
O190 C186 1.275 . S
O191 Tb182 2.513 . S
O191 C186 1.246 . S
O192 Tb182 2.453 . S
O192 C188 1.245 . S
O193 Tb180 2.343 . S
O193 Tb182 2.596 . S
O193 C188 1.259 . S
O194 Tb182 2.374 . S
O194 C189 1.250 . S
O195 Tb180 2.353 . S
O195 C189 1.263 . S
C196 O197 1.275 . S
C196 O198 1.246 . S
O197 Tb180 2.427 . S
O197 C196 1.275 . S
O198 Tb180 2.513 . S
O198 C196 1.246 . S
C199 O183 1.245 . S
C199 O184 1.259 . S
Tb200 O203 2.453 . S
Tb200 O204 2.596 . S
Tb200 O205 2.374 . S
Tb200 O213 2.343 . S
Tb200 O215 2.353 . S
Tb200 O217 2.427 . S
Tb200 O218 2.513 . S
C201 O205 1.251 . S
C201 O207 1.263 . S
Tb202 O204 2.343 . S
Tb202 O207 2.353 . S
Tb202 O210 2.427 . S
Tb202 O211 2.513 . S
Tb202 O212 2.453 1_556 S
Tb202 O213 2.596 . S
Tb202 O214 2.374 . S
O203 Tb200 2.453 . S
O203 C219 1.245 . S
O204 Tb200 2.596 . S
O204 Tb202 2.343 . S
O204 C219 1.259 . S
O205 Tb200 2.374 . S
O205 C201 1.251 . S
C206 O210 1.275 . S
C206 O211 1.246 . S
O207 C201 1.263 . S
O207 Tb202 2.353 . S
C208 O212 1.245 1_556 S
C208 O213 1.259 . S
C209 O214 1.250 . S
C209 O215 1.263 . S
O210 Tb202 2.427 . S
O210 C206 1.275 . S
O211 Tb202 2.513 . S
O211 C206 1.246 . S
O212 Tb202 2.453 1_554 S
O212 C208 1.245 1_554 S
O213 Tb200 2.343 . S
O213 Tb202 2.596 . S
O213 C208 1.259 . S
O214 Tb202 2.374 . S
O214 C209 1.250 . S
O215 Tb200 2.353 . S
O215 C209 1.263 . S
C216 O217 1.275 . S
C216 O218 1.246 . S
O217 Tb200 2.427 . S
O217 C216 1.275 . S
O218 Tb200 2.513 . S
O218 C216 1.246 . S
C219 O203 1.245 . S
C219 O204 1.259 . S
Tb220 O223 2.453 . S
Tb220 O224 2.596 . S
Tb220 O225 2.374 . S
Tb220 O233 2.343 . S
Tb220 O235 2.353 . S
Tb220 O237 2.427 . S
Tb220 O238 2.513 . S
C221 O225 1.251 . S
C221 O227 1.263 . S
Tb222 O224 2.343 . S
Tb222 O227 2.353 . S
Tb222 O230 2.427 . S
Tb222 O231 2.513 . S
Tb222 O232 2.453 . S
Tb222 O233 2.596 . S
Tb222 O234 2.374 . S
O223 Tb220 2.453 . S
O223 C239 1.245 . S
O224 Tb220 2.596 . S
O224 Tb222 2.343 . S
O224 C239 1.259 . S
O225 Tb220 2.374 . S
O225 C221 1.251 . S
C226 O230 1.275 . S
C226 O231 1.246 . S
O227 C221 1.263 . S
O227 Tb222 2.353 . S
C228 O232 1.245 . S
C228 O233 1.259 . S
C229 O234 1.250 . S
C229 O235 1.263 . S
O230 Tb222 2.427 . S
O230 C226 1.275 . S
O231 Tb222 2.513 . S
O231 C226 1.246 . S
O232 Tb222 2.453 . S
O232 C228 1.245 . S
O233 Tb220 2.343 . S
O233 Tb222 2.596 . S
O233 C228 1.259 . S
O234 Tb222 2.374 . S
O234 C229 1.250 . S
O235 Tb220 2.353 . S
O235 C229 1.263 . S
C236 O237 1.275 . S
C236 O238 1.246 . S
O237 Tb220 2.427 . S
O237 C236 1.275 . S
O238 Tb220 2.513 . S
O238 C236 1.246 . S
C239 O223 1.245 . S
C239 O224 1.259 . S
Tb240 O243 2.453 1_554 S
Tb240 O244 2.596 . S
Tb240 O245 2.374 . S
Tb240 O253 2.343 . S
Tb240 O255 2.353 . S
Tb240 O257 2.427 . S
Tb240 O258 2.513 . S
C241 O245 1.251 . S
C241 O247 1.263 . S
Tb242 O244 2.343 . S
Tb242 O247 2.353 . S
Tb242 O250 2.427 . S
Tb242 O251 2.513 . S
Tb242 O252 2.453 . S
Tb242 O253 2.596 . S
Tb242 O254 2.374 . S
O243 Tb240 2.453 1_556 S
O243 C259 1.245 . S
O244 Tb240 2.596 . S
O244 Tb242 2.343 . S
O244 C259 1.259 1_554 S
O245 Tb240 2.374 . S
O245 C241 1.251 . S
C246 O250 1.275 . S
C246 O251 1.246 . S
O247 C241 1.263 . S
O247 Tb242 2.353 . S
C248 O252 1.245 . S
C248 O253 1.259 . S
C249 O254 1.250 . S
C249 O255 1.263 . S
O250 Tb242 2.427 . S
O250 C246 1.275 . S
O251 Tb242 2.513 . S
O251 C246 1.246 . S
O252 Tb242 2.453 . S
O252 C248 1.245 . S
O253 Tb240 2.343 . S
O253 Tb242 2.596 . S
O253 C248 1.259 . S
O254 Tb242 2.374 . S
O254 C249 1.250 . S
O255 Tb240 2.353 . S
O255 C249 1.263 . S
C256 O257 1.275 . S
C256 O258 1.246 . S
O257 Tb240 2.427 . S
O257 C256 1.275 . S
O258 Tb240 2.513 . S
O258 C256 1.246 . S
C259 O243 1.245 . S
C259 O244 1.259 1_556 S
Tb260 O263 2.453 . S
Tb260 O264 2.596 . S
Tb260 O265 2.374 . S
Tb260 O273 2.343 . S
Tb260 O275 2.353 . S
Tb260 O277 2.427 . S
Tb260 O278 2.513 . S
C261 O265 1.251 . S
C261 O267 1.263 . S
Tb262 O264 2.343 . S
Tb262 O267 2.353 . S
Tb262 O270 2.427 . S
Tb262 O271 2.513 . S
Tb262 O272 2.453 1_554 S
Tb262 O273 2.596 . S
Tb262 O274 2.374 . S
O263 Tb260 2.453 . S
O263 C279 1.245 . S
O264 Tb260 2.596 . S
O264 Tb262 2.343 . S
O264 C279 1.259 . S
O265 Tb260 2.374 . S
O265 C261 1.251 . S
C266 O270 1.275 . S
C266 O271 1.246 . S
O267 C261 1.263 . S
O267 Tb262 2.353 . S
C268 O272 1.245 . S
C268 O273 1.259 1_556 S
C269 O274 1.250 . S
C269 O275 1.263 . S
O270 Tb262 2.427 . S
O270 C266 1.275 . S
O271 Tb262 2.513 . S
O271 C266 1.246 . S
O272 Tb262 2.453 1_556 S
O272 C268 1.245 . S
O273 Tb260 2.343 . S
O273 Tb262 2.596 . S
O273 C268 1.259 1_554 S
O274 Tb262 2.374 . S
O274 C269 1.250 . S
O275 Tb260 2.353 . S
O275 C269 1.263 . S
C276 O277 1.275 . S
C276 O278 1.246 . S
O277 Tb260 2.427 . S
O277 C276 1.275 . S
O278 Tb260 2.513 . S
O278 C276 1.246 . S
C279 O263 1.245 . S
C279 O264 1.259 . S
Tb280 O283 2.453 . S
Tb280 O284 2.596 . S
Tb280 O285 2.374 . S
Tb280 O293 2.343 . S
Tb280 O295 2.353 . S
Tb280 O297 2.427 . S
Tb280 O298 2.513 . S
C281 O285 1.251 . S
C281 O287 1.263 . S
Tb282 O284 2.343 . S
Tb282 O287 2.353 . S
Tb282 O290 2.427 . S
Tb282 O291 2.513 . S
Tb282 O292 2.453 . S
Tb282 O293 2.596 . S
Tb282 O294 2.374 . S
O283 Tb280 2.453 . S
O283 C299 1.245 . S
O284 Tb280 2.596 . S
O284 Tb282 2.343 . S
O284 C299 1.259 . S
O285 Tb280 2.374 . S
O285 C281 1.251 . S
C286 O290 1.275 . S
C286 O291 1.246 . S
O287 C281 1.263 . S
O287 Tb282 2.353 . S
C288 O292 1.245 . S
C288 O293 1.259 . S
C289 O294 1.250 . S
C289 O295 1.263 . S
O290 Tb282 2.427 . S
O290 C286 1.275 . S
O291 Tb282 2.513 . S
O291 C286 1.246 . S
O292 Tb282 2.453 . S
O292 C288 1.245 . S
O293 Tb280 2.343 . S
O293 Tb282 2.596 . S
O293 C288 1.259 . S
O294 Tb282 2.374 . S
O294 C289 1.250 . S
O295 Tb280 2.353 . S
O295 C289 1.263 . S
C296 O297 1.275 . S
C296 O298 1.246 . S
O297 Tb280 2.427 . S
O297 C296 1.275 . S
O298 Tb280 2.513 . S
O298 C296 1.246 . S
C299 O283 1.245 . S
C299 O284 1.259 . S
Tb300 O303 2.453 1_554 S
Tb300 O304 2.596 . S
Tb300 O305 2.374 . S
Tb300 O313 2.343 . S
Tb300 O315 2.353 . S
Tb300 O317 2.427 . S
Tb300 O318 2.513 . S
C301 O305 1.251 . S
C301 O307 1.263 . S
Tb302 O304 2.343 . S
Tb302 O307 2.353 . S
Tb302 O310 2.427 . S
Tb302 O311 2.513 . S
Tb302 O312 2.453 . S
Tb302 O313 2.596 . S
Tb302 O314 2.374 . S
O303 Tb300 2.453 1_556 S
O303 C319 1.245 . S
O304 Tb300 2.596 . S
O304 Tb302 2.343 . S
O304 C319 1.259 1_554 S
O305 Tb300 2.374 . S
O305 C301 1.251 . S
C306 O310 1.275 . S
C306 O311 1.246 . S
O307 C301 1.263 . S
O307 Tb302 2.353 . S
C308 O312 1.245 . S
C308 O313 1.259 . S
C309 O314 1.250 . S
C309 O315 1.263 . S
O310 Tb302 2.427 . S
O310 C306 1.275 . S
O311 Tb302 2.513 . S
O311 C306 1.246 . S
O312 Tb302 2.453 . S
O312 C308 1.245 . S
O313 Tb300 2.343 . S
O313 Tb302 2.596 . S
O313 C308 1.259 . S
O314 Tb302 2.374 . S
O314 C309 1.250 . S
O315 Tb300 2.353 . S
O315 C309 1.263 . S
C316 O317 1.275 . S
C316 O318 1.246 . S
O317 Tb300 2.427 . S
O317 C316 1.275 . S
O318 Tb300 2.513 . S
O318 C316 1.246 . S
C319 O303 1.245 . S
C319 O304 1.259 1_556 S
Tb320 O323 2.453 . S
Tb320 O324 2.596 . S
Tb320 O325 2.374 . S
Tb320 O333 2.343 . S
Tb320 O335 2.353 . S
Tb320 O337 2.427 . S
Tb320 O338 2.513 . S
C321 O325 1.251 . S
C321 O327 1.263 . S
Tb322 O324 2.343 . S
Tb322 O327 2.353 . S
Tb322 O330 2.427 . S
Tb322 O331 2.513 . S
Tb322 O332 2.453 . S
Tb322 O333 2.596 . S
Tb322 O334 2.374 . S
O323 Tb320 2.453 . S
O323 C339 1.245 . S
O324 Tb320 2.596 . S
O324 Tb322 2.343 . S
O324 C339 1.259 . S
O325 Tb320 2.374 . S
O325 C321 1.251 . S
C326 O330 1.275 . S
C326 O331 1.246 . S
O327 C321 1.263 . S
O327 Tb322 2.353 . S
C328 O332 1.245 . S
C328 O333 1.259 . S
C329 O334 1.250 . S
C329 O335 1.263 . S
O330 Tb322 2.427 . S
O330 C326 1.275 . S
O331 Tb322 2.513 . S
O331 C326 1.246 . S
O332 Tb322 2.453 . S
O332 C328 1.245 . S
O333 Tb320 2.343 . S
O333 Tb322 2.596 . S
O333 C328 1.259 . S
O334 Tb322 2.374 . S
O334 C329 1.250 . S
O335 Tb320 2.353 . S
O335 C329 1.263 . S
C336 O337 1.275 . S
C336 O338 1.246 . S
O337 Tb320 2.427 . S
O337 C336 1.275 . S
O338 Tb320 2.513 . S
O338 C336 1.246 . S
C339 O323 1.245 . S
C339 O324 1.259 . S
Tb340 O343 2.453 . S
Tb340 O344 2.596 . S
Tb340 O345 2.374 . S
Tb340 O353 2.343 . S
Tb340 O355 2.353 . S
Tb340 O357 2.427 . S
Tb340 O358 2.513 . S
C341 O345 1.251 . S
C341 O347 1.263 . S
Tb342 O344 2.343 . S
Tb342 O347 2.353 . S
Tb342 O350 2.427 . S
Tb342 O351 2.513 . S
Tb342 O352 2.453 . S
Tb342 O353 2.596 . S
Tb342 O354 2.374 . S
O343 Tb340 2.453 . S
O343 C359 1.245 . S
O344 Tb340 2.596 . S
O344 Tb342 2.343 . S
O344 C359 1.259 . S
O345 Tb340 2.374 . S
O345 C341 1.251 . S
C346 O350 1.275 . S
C346 O351 1.246 . S
O347 C341 1.263 . S
O347 Tb342 2.353 . S
C348 O352 1.245 . S
C348 O353 1.259 . S
C349 O354 1.250 . S
C349 O355 1.263 . S
O350 Tb342 2.427 . S
O350 C346 1.275 . S
O351 Tb342 2.513 . S
O351 C346 1.246 . S
O352 Tb342 2.453 . S
O352 C348 1.245 . S
O353 Tb340 2.343 . S
O353 Tb342 2.596 . S
O353 C348 1.259 . S
O354 Tb342 2.374 . S
O354 C349 1.250 . S
O355 Tb340 2.353 . S
O355 C349 1.263 . S
C356 O357 1.275 . S
C356 O358 1.246 . S
O357 Tb340 2.427 . S
O357 C356 1.275 . S
O358 Tb340 2.513 . S
O358 C356 1.246 . S
C359 O343 1.245 . S
C359 O344 1.259 . S
H360 C366 0.930 . S
H361 C369 0.930 . S
H362 C370 0.930 . S
H363 C371 0.930 . S
H364 C374 0.930 . S
H365 C375 0.930 . S
C366 H360 0.930 . S
C366 C367 1.355 . S
C366 C368 1.415 . S
C367 C366 1.355 . S
C367 C369 1.419 . S
C368 C366 1.415 . S
C368 C373 1.425 . S
C368 C375 1.409 . S
C369 H361 0.930 . S
C369 C367 1.419 . S
C369 C370 1.362 . S
C370 H362 0.930 . S
C370 C369 1.362 . S
C370 C373 1.409 . S
C371 H363 0.930 . S
C371 C372 1.355 . S
C371 C373 1.415 . S
C372 C371 1.355 . S
C372 C374 1.419 . S
C373 C368 1.425 . S
C373 C370 1.409 . S
C373 C371 1.415 . S
C374 H364 0.930 . S
C374 C372 1.419 . S
C374 C375 1.362 . S
C375 H365 0.930 . S
C375 C368 1.409 . S
C375 C374 1.362 . S
H376 C382 0.930 . S
H377 C385 0.930 . S
H378 C386 0.930 . S
H379 C387 0.930 . S
H380 C390 0.930 . S
H381 C391 0.930 . S
C382 H376 0.930 . S
C382 C383 1.355 . S
C382 C384 1.415 . S
C383 C382 1.355 . S
C383 C385 1.419 . S
C384 C382 1.415 . S
C384 C389 1.425 . S
C384 C391 1.409 . S
C385 H377 0.930 . S
C385 C383 1.419 . S
C385 C386 1.362 . S
C386 H378 0.930 . S
C386 C385 1.362 . S
C386 C389 1.409 . S
C387 H379 0.930 . S
C387 C388 1.355 . S
C387 C389 1.415 . S
C388 C387 1.355 . S
C388 C390 1.419 . S
C389 C384 1.425 . S
C389 C386 1.409 . S
C389 C387 1.415 . S
C390 H380 0.930 . S
C390 C388 1.419 . S
C390 C391 1.362 . S
C391 H381 0.930 . S
C391 C384 1.409 . S
C391 C390 1.362 . S
H392 C398 0.930 . S
H393 C401 0.930 . S
H394 C402 0.930 . S
H395 C403 0.930 . S
H396 C406 0.930 . S
H397 C407 0.930 . S
C398 H392 0.930 . S
C398 C399 1.355 . S
C398 C400 1.415 . S
C399 C398 1.355 . S
C399 C401 1.419 . S
C400 C398 1.415 . S
C400 C405 1.425 . S
C400 C407 1.409 . S
C401 H393 0.930 . S
C401 C399 1.419 . S
C401 C402 1.362 . S
C402 H394 0.930 . S
C402 C401 1.362 . S
C402 C405 1.409 . S
C403 H395 0.930 . S
C403 C404 1.355 . S
C403 C405 1.415 . S
C404 C403 1.355 . S
C404 C406 1.419 . S
C405 C400 1.425 . S
C405 C402 1.409 . S
C405 C403 1.415 . S
C406 H396 0.930 . S
C406 C404 1.419 . S
C406 C407 1.362 . S
C407 H397 0.930 . S
C407 C400 1.409 . S
C407 C406 1.362 . S
H408 C414 0.930 . S
H409 C417 0.930 . S
H410 C418 0.930 . S
H411 C419 0.930 . S
H412 C422 0.930 . S
H413 C423 0.930 . S
C414 H408 0.930 . S
C414 C415 1.355 . S
C414 C416 1.415 . S
C415 C414 1.355 . S
C415 C417 1.419 . S
C416 C414 1.415 . S
C416 C421 1.425 . S
C416 C423 1.409 . S
C417 H409 0.930 . S
C417 C415 1.419 . S
C417 C418 1.362 . S
C418 H410 0.930 . S
C418 C417 1.362 . S
C418 C421 1.409 . S
C419 H411 0.930 . S
C419 C420 1.355 . S
C419 C421 1.415 . S
C420 C419 1.355 . S
C420 C422 1.419 . S
C421 C416 1.425 . S
C421 C418 1.409 . S
C421 C419 1.415 . S
C422 H412 0.930 . S
C422 C420 1.419 . S
C422 C423 1.362 . S
C423 H413 0.930 . S
C423 C416 1.409 . S
C423 C422 1.362 . S
H424 C430 0.930 . S
H425 C433 0.930 . S
H426 C434 0.930 . S
H427 C435 0.930 . S
H428 C438 0.930 1_455 S
H429 C439 0.930 1_455 S
C430 H424 0.930 . S
C430 C431 1.355 . S
C430 C432 1.415 . S
C431 C430 1.355 . S
C431 C433 1.419 . S
C432 C430 1.415 . S
C432 C437 1.425 . S
C432 C439 1.409 . S
C433 H425 0.930 . S
C433 C431 1.419 . S
C433 C434 1.362 . S
C434 H426 0.930 . S
C434 C433 1.362 . S
C434 C437 1.409 . S
C435 H427 0.930 . S
C435 C436 1.355 . S
C435 C437 1.415 . S
C436 C435 1.355 . S
C436 C438 1.419 . S
C437 C432 1.425 . S
C437 C434 1.409 . S
C437 C435 1.415 . S
C438 H428 0.930 1_655 S
C438 C436 1.419 . S
C438 C439 1.362 . S
C439 H429 0.930 1_655 S
C439 C432 1.409 . S
C439 C438 1.362 . S
H440 C446 0.930 . S
H441 C449 0.930 . S
H442 C450 0.930 . S
H443 C451 0.930 . S
H444 C454 0.930 . S
H445 C455 0.930 . S
C446 H440 0.930 . S
C446 C447 1.355 . S
C446 C448 1.415 . S
C447 C446 1.355 . S
C447 C449 1.419 . S
C448 C446 1.415 . S
C448 C453 1.425 . S
C448 C455 1.409 . S
C449 H441 0.930 . S
C449 C447 1.419 . S
C449 C450 1.362 . S
C450 H442 0.930 . S
C450 C449 1.362 . S
C450 C453 1.409 . S
C451 H443 0.930 . S
C451 C452 1.355 . S
C451 C453 1.415 . S
C452 C451 1.355 . S
C452 C454 1.419 . S
C453 C448 1.425 . S
C453 C450 1.409 . S
C453 C451 1.415 . S
C454 H444 0.930 . S
C454 C452 1.419 . S
C454 C455 1.362 . S
C455 H445 0.930 . S
C455 C448 1.409 . S
C455 C454 1.362 . S
H456 C462 0.930 . S
H457 C465 0.930 . S
H458 C466 0.930 . S
H459 C467 0.930 . S
H460 C470 0.930 . S
H461 C471 0.930 . S
C462 H456 0.930 . S
C462 C463 1.355 . S
C462 C464 1.415 . S
C463 C462 1.355 . S
C463 C465 1.419 . S
C464 C462 1.415 . S
C464 C469 1.425 . S
C464 C471 1.409 . S
C465 H457 0.930 . S
C465 C463 1.419 . S
C465 C466 1.362 . S
C466 H458 0.930 . S
C466 C465 1.362 . S
C466 C469 1.409 . S
C467 H459 0.930 . S
C467 C468 1.355 . S
C467 C469 1.415 . S
C468 C467 1.355 . S
C468 C470 1.419 . S
C469 C464 1.425 . S
C469 C466 1.409 . S
C469 C467 1.415 . S
C470 H460 0.930 . S
C470 C468 1.419 . S
C470 C471 1.362 . S
C471 H461 0.930 . S
C471 C464 1.409 . S
C471 C470 1.362 . S
H472 C478 0.930 . S
H473 C481 0.930 . S
H474 C482 0.930 . S
H475 C483 0.930 . S
H476 C486 0.930 . S
H477 C487 0.930 . S
C478 H472 0.930 . S
C478 C479 1.355 . S
C478 C480 1.415 . S
C479 C478 1.355 . S
C479 C481 1.419 . S
C480 C478 1.415 . S
C480 C485 1.425 . S
C480 C487 1.409 . S
C481 H473 0.930 . S
C481 C479 1.419 . S
C481 C482 1.362 . S
C482 H474 0.930 . S
C482 C481 1.362 . S
C482 C485 1.409 . S
C483 H475 0.930 . S
C483 C484 1.355 . S
C483 C485 1.415 . S
C484 C483 1.355 . S
C484 C486 1.419 . S
C485 C480 1.425 . S
C485 C482 1.409 . S
C485 C483 1.415 . S
C486 H476 0.930 . S
C486 C484 1.419 . S
C486 C487 1.362 . S
C487 H477 0.930 . S
C487 C480 1.409 . S
C487 C486 1.362 . S
H488 C494 0.930 . S
H489 C497 0.930 . S
H490 C498 0.930 . S
H491 C499 0.930 . S
H492 C502 0.930 . S
H493 C503 0.930 . S
C494 H488 0.930 . S
C494 C495 1.355 . S
C494 C496 1.415 . S
C495 C494 1.355 . S
C495 C497 1.419 . S
C496 C494 1.415 . S
C496 C501 1.425 . S
C496 C503 1.409 . S
C497 H489 0.930 . S
C497 C495 1.419 . S
C497 C498 1.362 . S
C498 H490 0.930 . S
C498 C497 1.362 . S
C498 C501 1.409 . S
C499 H491 0.930 . S
C499 C500 1.355 . S
C499 C501 1.415 . S
C500 C499 1.355 . S
C500 C502 1.419 . S
C501 C496 1.425 . S
C501 C498 1.409 . S
C501 C499 1.415 . S
C502 H492 0.930 . S
C502 C500 1.419 . S
C502 C503 1.362 . S
C503 H493 0.930 . S
C503 C496 1.409 . S
C503 C502 1.362 . S
H504 C510 0.930 . S
H505 C513 0.930 . S
H506 C514 0.930 . S
H507 C515 0.878 1_545 S
H508 C518 0.930 . S
H509 C519 0.930 . S
C510 H504 0.930 . S
C510 C511 1.355 . S
C510 C512 1.415 . S
C511 C510 1.355 . S
C511 C513 1.419 . S
C512 C510 1.415 . S
C512 C517 1.425 . S
C512 C519 1.409 . S
C513 H505 0.930 . S
C513 C511 1.419 . S
C513 C514 1.362 . S
C514 H506 0.930 . S
C514 C513 1.362 . S
C514 C517 1.409 . S
C515 H507 0.878 1_565 S
C515 C516 1.355 . S
C515 C517 1.415 . S
C516 C515 1.355 . S
C516 C518 1.419 . S
C517 C512 1.425 . S
C517 C514 1.409 . S
C517 C515 1.415 . S
C518 H508 0.930 . S
C518 C516 1.419 . S
C518 C519 1.362 . S
C519 H509 0.930 . S
C519 C512 1.409 . S
C519 C518 1.362 . S
H520 C526 0.930 . S
H521 C529 0.930 . S
H522 C530 0.930 . S
H523 C531 0.930 . S
H524 C534 0.930 . S
H525 C535 0.930 . S
C526 H520 0.930 . S
C526 C527 1.355 . S
C526 C528 1.415 . S
C527 C526 1.355 . S
C527 C529 1.419 . S
C528 C526 1.415 . S
C528 C533 1.425 . S
C528 C535 1.409 . S
C529 H521 0.930 . S
C529 C527 1.419 . S
C529 C530 1.362 . S
C530 H522 0.930 . S
C530 C529 1.362 . S
C530 C533 1.409 . S
C531 H523 0.930 . S
C531 C532 1.355 . S
C531 C533 1.415 . S
C532 C531 1.355 . S
C532 C534 1.419 . S
C533 C528 1.425 . S
C533 C530 1.409 . S
C533 C531 1.415 . S
C534 H524 0.930 . S
C534 C532 1.419 . S
C534 C535 1.362 . S
C535 H525 0.930 . S
C535 C528 1.409 . S
C535 C534 1.362 . S
H536 C542 0.930 . S
H537 C545 0.930 . S
H538 C546 0.930 . S
H539 C547 0.930 . S
H540 C550 0.930 . S
H541 C551 0.930 . S
C542 H536 0.930 . S
C542 C543 1.355 . S
C542 C544 1.415 . S
C543 C542 1.355 . S
C543 C545 1.419 . S
C544 C542 1.415 . S
C544 C549 1.425 . S
C544 C551 1.409 . S
C545 H537 0.930 . S
C545 C543 1.419 . S
C545 C546 1.362 . S
C546 H538 0.930 . S
C546 C545 1.362 . S
C546 C549 1.409 . S
C547 H539 0.930 . S
C547 C548 1.355 . S
C547 C549 1.415 . S
C548 C547 1.355 . S
C548 C550 1.419 . S
C549 C544 1.425 . S
C549 C546 1.409 . S
C549 C547 1.415 . S
C550 H540 0.930 . S
C550 C548 1.419 . S
C550 C551 1.362 . S
C551 H541 0.930 . S
C551 C544 1.409 . S
C551 C550 1.362 . S
H552 C558 0.930 . S
H553 C561 0.930 . S
H554 C562 0.930 . S
H555 C563 0.930 . S
H556 C566 0.930 . S
H557 C567 0.930 . S
C558 H552 0.930 . S
C558 C559 1.355 . S
C558 C560 1.415 . S
C559 C558 1.355 . S
C559 C561 1.419 . S
C560 C558 1.415 . S
C560 C565 1.425 1_556 S
C560 C567 1.409 . S
C561 H553 0.930 . S
C561 C559 1.419 . S
C561 C562 1.362 1_556 S
C562 H554 0.930 . S
C562 C561 1.362 1_554 S
C562 C565 1.409 . S
C563 H555 0.930 . S
C563 C564 1.355 . S
C563 C565 1.415 . S
C564 C563 1.355 . S
C564 C566 1.419 1_554 S
C565 C560 1.425 1_554 S
C565 C562 1.409 . S
C565 C563 1.415 . S
C566 H556 0.930 . S
C566 C564 1.419 1_556 S
C566 C567 1.362 . S
C567 H557 0.930 . S
C567 C560 1.409 . S
C567 C566 1.362 . S
H568 C574 0.930 . S
H569 C577 0.930 . S
H570 C578 0.930 . S
H571 C579 0.930 . S
H572 C582 0.930 . S
H573 C583 0.930 . S
C574 H568 0.930 . S
C574 C575 1.355 . S
C574 C576 1.415 . S
C575 C574 1.355 . S
C575 C577 1.419 . S
C576 C574 1.415 . S
C576 C581 1.425 . S
C576 C583 1.409 1_556 S
C577 H569 0.930 . S
C577 C575 1.419 . S
C577 C578 1.362 . S
C578 H570 0.930 . S
C578 C577 1.362 . S
C578 C581 1.409 . S
C579 H571 0.930 . S
C579 C580 1.355 1_556 S
C579 C581 1.415 . S
C580 C579 1.355 1_554 S
C580 C582 1.419 . S
C581 C576 1.425 . S
C581 C578 1.409 . S
C581 C579 1.415 . S
C582 H572 0.930 . S
C582 C580 1.419 . S
C582 C583 1.362 . S
C583 H573 0.930 . S
C583 C576 1.409 1_554 S
C583 C582 1.362 . S
H584 C590 0.930 . S
H585 C593 0.930 . S
H586 C594 0.930 . S
H587 C595 0.930 . S
H588 C598 0.901 1_565 S
H589 C599 0.930 . S
C590 H584 0.930 . S
C590 C591 1.355 . S
C590 C592 1.415 . S
C591 C590 1.355 . S
C591 C593 1.419 . S
C592 C590 1.415 . S
C592 C597 1.425 . S
C592 C599 1.409 1_556 S
C593 H585 0.930 . S
C593 C591 1.419 . S
C593 C594 1.362 . S
C594 H586 0.930 . S
C594 C593 1.362 . S
C594 C597 1.409 . S
C595 H587 0.930 . S
C595 C596 1.355 1_556 S
C595 C597 1.415 1_565 S
C596 C595 1.355 1_554 S
C596 C598 1.419 1_565 S
C597 C592 1.425 . S
C597 C594 1.409 . S
C597 C595 1.415 1_545 S
C598 H588 0.901 1_545 S
C598 C596 1.419 1_545 S
C598 C599 1.393 . S
C599 H589 0.930 . S
C599 C592 1.409 1_554 S
C599 C598 1.393 . S
H600 C606 0.930 . S
H601 C609 0.930 . S
H602 C610 0.930 . S
H603 C611 0.930 1_565 S
H604 C614 0.930 . S
H605 C615 0.930 . S
C606 H600 0.930 . S
C606 C607 1.355 1_554 S
C606 C608 1.415 . S
C607 C606 1.355 1_556 S
C607 C609 1.419 . S
C608 C606 1.415 . S
C608 C613 1.425 1_554 S
C608 C615 1.409 . S
C609 H601 0.930 . S
C609 C607 1.419 . S
C609 C610 1.362 . S
C610 H602 0.930 . S
C610 C609 1.362 . S
C610 C613 1.409 . S
C611 H603 0.930 1_545 S
C611 C612 1.324 1_545 S
C611 C613 1.415 1_554 S
C612 C611 1.324 1_565 S
C612 C614 1.407 1_565 S
C613 C608 1.425 1_556 S
C613 C610 1.409 . S
C613 C611 1.415 1_556 S
C614 H604 0.930 . S
C614 C612 1.407 1_545 S
C614 C615 1.362 . S
C615 H605 0.930 . S
C615 C608 1.409 . S
C615 C614 1.362 . S
H616 C622 0.930 . S
H617 C625 0.930 . S
H618 C626 0.930 . S
H619 C627 0.930 . S
H620 C630 0.930 . S
H621 C631 0.930 . S
C622 H616 0.930 . S
C622 C623 1.355 . S
C622 C624 1.415 . S
C623 C622 1.355 . S
C623 C625 1.419 . S
C624 C622 1.415 . S
C624 C629 1.425 . S
C624 C631 1.409 1_554 S
C625 H617 0.930 . S
C625 C623 1.419 . S
C625 C626 1.362 . S
C626 H618 0.930 . S
C626 C625 1.362 . S
C626 C629 1.409 . S
C627 H619 0.930 . S
C627 C628 1.355 1_554 S
C627 C629 1.415 . S
C628 C627 1.355 1_556 S
C628 C630 1.419 . S
C629 C624 1.425 . S
C629 C626 1.409 . S
C629 C627 1.415 . S
C630 H620 0.930 . S
C630 C628 1.419 . S
C630 C631 1.362 . S
C631 H621 0.930 . S
C631 C624 1.409 1_556 S
C631 C630 1.362 . S
H632 C638 0.930 . S
H633 C641 0.930 1_556 S
H634 C642 0.930 . S
H635 C643 0.930 . S
H636 C646 0.930 . S
H637 C647 0.930 . S
C638 H632 0.930 . S
C638 C639 1.355 . S
C638 C640 1.415 . S
C639 C638 1.355 . S
C639 C641 1.419 . S
C640 C638 1.415 . S
C640 C645 1.425 1_554 S
C640 C647 1.409 . S
C641 H633 0.930 1_554 S
C641 C639 1.419 . S
C641 C642 1.362 1_554 S
C642 H634 0.930 . S
C642 C641 1.362 1_556 S
C642 C645 1.409 . S
C643 H635 0.930 . S
C643 C644 1.355 . S
C643 C645 1.415 . S
C644 C643 1.355 . S
C644 C646 1.419 1_556 S
C645 C640 1.425 1_556 S
C645 C642 1.409 . S
C645 C643 1.415 . S
C646 H636 0.930 . S
C646 C644 1.419 1_554 S
C646 C647 1.362 . S
C647 H637 0.930 . S
C647 C640 1.409 . S
C647 C646 1.362 . S
H648 C654 0.930 . S
H649 C657 0.930 . S
H650 C658 0.930 . S
H651 C659 0.930 . S
H652 C662 0.930 . S
H653 C663 0.930 . S
C654 H648 0.930 . S
C654 C655 1.355 . S
C654 C656 1.415 . S
C655 C654 1.355 . S
C655 C657 1.419 . S
C656 C654 1.415 . S
C656 C661 1.425 . S
C656 C663 1.409 . S
C657 H649 0.930 . S
C657 C655 1.419 . S
C657 C658 1.362 . S
C658 H650 0.930 . S
C658 C657 1.362 . S
C658 C661 1.409 . S
C659 H651 0.930 . S
C659 C660 1.355 . S
C659 C661 1.415 . S
C660 C659 1.355 . S
C660 C662 1.419 . S
C661 C656 1.425 . S
C661 C658 1.409 . S
C661 C659 1.415 . S
C662 H652 0.930 . S
C662 C660 1.419 . S
C662 C663 1.362 . S
C663 H653 0.930 . S
C663 C656 1.409 . S
C663 C662 1.362 . S
H664 C670 0.930 . S
H665 C673 0.930 . S
H666 C674 0.930 . S
H667 C675 0.930 . S
H668 C678 0.930 . S
H669 C679 0.930 . S
C670 H664 0.930 . S
C670 C671 1.355 . S
C670 C672 1.415 . S
C671 C670 1.355 . S
C671 C673 1.419 . S
C672 C670 1.415 . S
C672 C677 1.425 . S
C672 C679 1.409 . S
C673 H665 0.930 . S
C673 C671 1.419 . S
C673 C674 1.362 . S
C674 H666 0.930 . S
C674 C673 1.362 . S
C674 C677 1.409 . S
C675 H667 0.930 . S
C675 C676 1.355 . S
C675 C677 1.415 . S
C676 C675 1.355 . S
C676 C678 1.419 . S
C677 C672 1.425 . S
C677 C674 1.409 . S
C677 C675 1.415 . S
C678 H668 0.930 . S
C678 C676 1.419 . S
C678 C679 1.362 . S
C679 H669 0.930 . S
C679 C672 1.409 . S
C679 C678 1.362 . S
H680 C686 0.930 . S
H681 C689 0.930 . S
H682 C690 0.930 . S
H683 C691 0.930 . S
H684 C694 0.930 . S
H685 C695 0.930 . S
C686 H680 0.930 . S
C686 C687 1.355 . S
C686 C688 1.415 . S
C687 C686 1.355 . S
C687 C689 1.419 . S
C688 C686 1.415 . S
C688 C693 1.425 . S
C688 C695 1.409 . S
C689 H681 0.930 . S
C689 C687 1.419 . S
C689 C690 1.362 . S
C690 H682 0.930 . S
C690 C689 1.362 . S
C690 C693 1.409 . S
C691 H683 0.930 . S
C691 C692 1.355 . S
C691 C693 1.415 . S
C692 C691 1.355 . S
C692 C694 1.419 . S
C693 C688 1.425 . S
C693 C690 1.409 . S
C693 C691 1.415 . S
C694 H684 0.930 . S
C694 C692 1.419 . S
C694 C695 1.362 . S
C695 H685 0.930 . S
C695 C688 1.409 . S
C695 C694 1.362 . S
H696 C702 0.930 . S
H697 C705 0.930 . S
H698 C706 0.930 . S
H699 C707 0.930 . S
H700 C710 0.930 . S
H701 C711 0.930 . S
C702 H696 0.930 . S
C702 C703 1.355 . S
C702 C704 1.415 . S
C703 C702 1.355 . S
C703 C705 1.419 . S
C704 C702 1.415 . S
C704 C709 1.425 . S
C704 C711 1.409 . S
C705 H697 0.930 . S
C705 C703 1.419 . S
C705 C706 1.362 . S
C706 H698 0.930 . S
C706 C705 1.362 . S
C706 C709 1.409 . S
C707 H699 0.930 . S
C707 C708 1.355 . S
C707 C709 1.415 . S
C708 C707 1.355 . S
C708 C710 1.419 . S
C709 C704 1.425 . S
C709 C706 1.409 . S
C709 C707 1.415 . S
C710 H700 0.930 . S
C710 C708 1.419 . S
C710 C711 1.362 . S
C711 H701 0.930 . S
C711 C704 1.409 . S
C711 C710 1.362 . S
H712 C718 0.930 . S
H713 C721 0.930 . S
H714 C722 0.930 . S
H715 C723 0.930 . S
H716 C726 0.930 . S
H717 C727 0.930 . S
C718 H712 0.930 . S
C718 C719 1.355 . S
C718 C720 1.415 . S
C719 C718 1.355 . S
C719 C721 1.419 . S
C720 C718 1.415 . S
C720 C725 1.425 . S
C720 C727 1.409 . S
C721 H713 0.930 . S
C721 C719 1.419 . S
C721 C722 1.362 . S
C722 H714 0.930 . S
C722 C721 1.362 . S
C722 C725 1.409 . S
C723 H715 0.930 . S
C723 C724 1.355 . S
C723 C725 1.415 . S
C724 C723 1.355 . S
C724 C726 1.419 . S
C725 C720 1.425 . S
C725 C722 1.409 . S
C725 C723 1.415 . S
C726 H716 0.930 . S
C726 C724 1.419 . S
C726 C727 1.362 . S
C727 H717 0.930 . S
C727 C720 1.409 . S
C727 C726 1.362 . S
H728 C734 0.930 . S
H729 C737 0.930 . S
H730 C738 0.930 . S
H731 C739 0.930 . S
H732 C742 0.930 . S
H733 C743 0.930 . S
C734 H728 0.930 . S
C734 C735 1.355 . S
C734 C736 1.415 . S
C735 C734 1.355 . S
C735 C737 1.419 . S
C736 C734 1.415 . S
C736 C741 1.425 . S
C736 C743 1.409 . S
C737 H729 0.930 . S
C737 C735 1.419 . S
C737 C738 1.362 . S
C738 H730 0.930 . S
C738 C737 1.362 . S
C738 C741 1.409 . S
C739 H731 0.930 . S
C739 C740 1.355 . S
C739 C741 1.415 . S
C740 C739 1.355 . S
C740 C742 1.419 . S
C741 C736 1.425 . S
C741 C738 1.409 . S
C741 C739 1.415 . S
C742 H732 0.930 . S
C742 C740 1.419 . S
C742 C743 1.362 . S
C743 H733 0.930 . S
C743 C736 1.409 . S
C743 C742 1.362 . S
H744 C750 0.930 . S
H745 C753 0.930 . S
H746 C754 0.930 . S
H747 C755 0.930 . S
H748 C758 0.930 . S
H749 C759 0.930 . S
C750 H744 0.930 . S
C750 C751 1.355 . S
C750 C752 1.415 . S
C751 C750 1.355 . S
C751 C753 1.419 . S
C752 C750 1.415 . S
C752 C757 1.425 . S
C752 C759 1.409 . S
C753 H745 0.930 . S
C753 C751 1.419 . S
C753 C754 1.362 . S
C754 H746 0.930 . S
C754 C753 1.362 . S
C754 C757 1.409 . S
C755 H747 0.930 . S
C755 C756 1.355 . S
C755 C757 1.415 . S
C756 C755 1.355 . S
C756 C758 1.419 . S
C757 C752 1.425 . S
C757 C754 1.409 . S
C757 C755 1.415 . S
C758 H748 0.930 . S
C758 C756 1.419 . S
C758 C759 1.362 . S
C759 H749 0.930 . S
C759 C752 1.409 . S
C759 C758 1.362 . S
H760 C766 0.930 . S
H761 C769 0.930 . S
H762 C770 0.930 . S
H763 C771 0.930 . S
H764 C774 0.930 . S
H765 C775 0.930 . S
C766 H760 0.930 . S
C766 C767 1.355 . S
C766 C768 1.415 . S
C767 C766 1.355 . S
C767 C769 1.419 . S
C768 C766 1.415 . S
C768 C773 1.425 . S
C768 C775 1.409 . S
C769 H761 0.930 . S
C769 C767 1.419 . S
C769 C770 1.362 . S
C770 H762 0.930 . S
C770 C769 1.362 . S
C770 C773 1.409 . S
C771 H763 0.930 . S
C771 C772 1.355 . S
C771 C773 1.415 . S
C772 C771 1.355 . S
C772 C774 1.419 . S
C773 C768 1.425 . S
C773 C770 1.409 . S
C773 C771 1.415 . S
C774 H764 0.930 . S
C774 C772 1.419 . S
C774 C775 1.362 . S
C775 H765 0.930 . S
C775 C768 1.409 . S
C775 C774 1.362 . S
H776 C782 0.930 . S
H777 C785 0.930 . S
H778 C786 0.930 . S
H779 C787 0.930 . S
H780 C790 0.930 . S
H781 C791 0.930 . S
C782 H776 0.930 . S
C782 C783 1.355 . S
C782 C784 1.415 . S
C783 C782 1.355 . S
C783 C785 1.419 . S
C784 C782 1.415 . S
C784 C789 1.425 . S
C784 C791 1.409 . S
C785 H777 0.930 . S
C785 C783 1.419 . S
C785 C786 1.362 . S
C786 H778 0.930 . S
C786 C785 1.362 . S
C786 C789 1.409 . S
C787 H779 0.930 . S
C787 C788 1.355 . S
C787 C789 1.415 . S
C788 C787 1.355 . S
C788 C790 1.419 . S
C789 C784 1.425 . S
C789 C786 1.409 . S
C789 C787 1.415 . S
C790 H780 0.930 . S
C790 C788 1.419 . S
C790 C791 1.362 . S
C791 H781 0.930 . S
C791 C784 1.409 . S
C791 C790 1.362 . S
H792 C798 0.930 . S
H793 C801 0.930 . S
H794 C802 0.930 . S
H795 C803 0.930 . S
H796 C806 0.930 . S
H797 C807 0.930 . S
C798 H792 0.930 . S
C798 C799 1.355 . S
C798 C800 1.415 . S
C799 C798 1.355 . S
C799 C801 1.419 . S
C800 C798 1.415 . S
C800 C805 1.425 . S
C800 C807 1.409 . S
C801 H793 0.930 . S
C801 C799 1.419 . S
C801 C802 1.362 . S
C802 H794 0.930 . S
C802 C801 1.362 . S
C802 C805 1.409 . S
C803 H795 0.930 . S
C803 C804 1.355 . S
C803 C805 1.415 . S
C804 C803 1.355 . S
C804 C806 1.419 . S
C805 C800 1.425 . S
C805 C802 1.409 . S
C805 C803 1.415 . S
C806 H796 0.930 . S
C806 C804 1.419 . S
C806 C807 1.362 . S
C807 H797 0.930 . S
C807 C800 1.409 . S
C807 C806 1.362 . S
H808 C814 0.930 . S
H809 C817 0.930 . S
H810 C818 0.930 . S
H811 C819 0.930 . S
H812 C822 0.930 . S
H813 C823 0.930 . S
C814 H808 0.930 . S
C814 C815 1.355 . S
C814 C816 1.415 . S
C815 C814 1.355 . S
C815 C817 1.419 . S
C816 C814 1.415 . S
C816 C821 1.425 . S
C816 C823 1.409 . S
C817 H809 0.930 . S
C817 C815 1.419 . S
C817 C818 1.362 . S
C818 H810 0.930 . S
C818 C817 1.362 . S
C818 C821 1.409 . S
C819 H811 0.930 . S
C819 C820 1.355 . S
C819 C821 1.415 . S
C820 C819 1.355 . S
C820 C822 1.419 . S
C821 C816 1.425 . S
C821 C818 1.409 . S
C821 C819 1.415 . S
C822 H812 0.930 . S
C822 C820 1.419 . S
C822 C823 1.362 . S
C823 H813 0.930 . S
C823 C816 1.409 . S
C823 C822 1.362 . S
H824 C830 0.930 . S
H825 C833 0.930 . S
H826 C834 0.930 . S
H827 C835 0.930 . S
H828 C838 0.930 . S
H829 C839 0.930 . S
C830 H824 0.930 . S
C830 C831 1.355 . S
C830 C832 1.415 . S
C831 C830 1.355 . S
C831 C833 1.419 . S
C832 C830 1.415 . S
C832 C837 1.425 . S
C832 C839 1.409 . S
C833 H825 0.930 . S
C833 C831 1.419 . S
C833 C834 1.362 . S
C834 H826 0.930 . S
C834 C833 1.362 . S
C834 C837 1.409 . S
C835 H827 0.930 . S
C835 C836 1.355 . S
C835 C837 1.415 . S
C836 C835 1.355 . S
C836 C838 1.419 . S
C837 C832 1.425 . S
C837 C834 1.409 . S
C837 C835 1.415 . S
C838 H828 0.930 . S
C838 C836 1.419 . S
C838 C839 1.362 . S
C839 H829 0.930 . S
C839 C832 1.409 . S
C839 C838 1.362 . S
H840 C846 0.930 . S
H841 C849 0.930 . S
H842 C850 0.930 . S
H843 C851 0.930 . S
H844 C854 0.930 . S
H845 C855 0.930 . S
C846 H840 0.930 . S
C846 C847 1.355 . S
C846 C848 1.415 . S
C847 C846 1.355 . S
C847 C849 1.419 . S
C848 C846 1.415 . S
C848 C853 1.425 . S
C848 C855 1.409 . S
C849 H841 0.930 . S
C849 C847 1.419 . S
C849 C850 1.362 . S
C850 H842 0.930 . S
C850 C849 1.362 . S
C850 C853 1.409 . S
C851 H843 0.930 . S
C851 C852 1.355 . S
C851 C853 1.415 . S
C852 C851 1.355 . S
C852 C854 1.419 . S
C853 C848 1.425 . S
C853 C850 1.409 . S
C853 C851 1.415 . S
C854 H844 0.930 . S
C854 C852 1.419 . S
C854 C855 1.362 . S
C855 H845 0.930 . S
C855 C848 1.409 . S
C855 C854 1.362 . S
H856 C862 0.930 . S
H857 C865 0.930 . S
H858 C866 0.930 . S
H859 C867 0.930 . S
H860 C870 0.930 . S
H861 C871 0.930 . S
C862 H856 0.930 . S
C862 C863 1.355 1_556 S
C862 C864 1.415 1_556 S
C863 C862 1.355 1_554 S
C863 C865 1.419 . S
C864 C862 1.415 1_554 S
C864 C869 1.425 . S
C864 C871 1.409 1_554 S
C865 H857 0.930 . S
C865 C863 1.419 . S
C865 C866 1.362 . S
C866 H858 0.930 . S
C866 C865 1.362 . S
C866 C869 1.409 . S
C867 H859 0.930 . S
C867 C868 1.355 . S
C867 C869 1.415 . S
C868 C867 1.355 . S
C868 C870 1.419 1_554 S
C869 C864 1.425 . S
C869 C866 1.409 . S
C869 C867 1.415 . S
C870 H860 0.930 . S
C870 C868 1.419 1_556 S
C870 C871 1.362 . S
C871 H861 0.930 . S
C871 C864 1.409 1_556 S
C871 C870 1.362 . S
H872 C878 0.930 . S
H873 C881 0.930 . S
H874 C882 0.930 . S
H875 C883 0.930 . S
H876 C886 0.930 . S
H877 C887 0.930 . S
C878 H872 0.930 . S
C878 C879 1.355 . S
C878 C880 1.415 . S
C879 C878 1.355 . S
C879 C881 1.419 . S
C880 C878 1.415 . S
C880 C885 1.425 . S
C880 C887 1.409 1_554 S
C881 H873 0.930 . S
C881 C879 1.419 . S
C881 C882 1.362 . S
C882 H874 0.930 . S
C882 C881 1.362 . S
C882 C885 1.409 . S
C883 H875 0.930 . S
C883 C884 1.355 . S
C883 C885 1.415 . S
C884 C883 1.355 . S
C884 C886 1.419 1_554 S
C885 C880 1.425 . S
C885 C882 1.409 . S
C885 C883 1.415 . S
C886 H876 0.930 . S
C886 C884 1.419 1_556 S
C886 C887 1.362 . S
C887 H877 0.930 . S
C887 C880 1.409 1_556 S
C887 C886 1.362 . S
H888 C894 0.930 . S
H889 C897 0.930 . S
H890 C898 0.930 . S
H891 C899 0.930 . S
H892 C902 0.930 . S
H893 C903 0.930 . S
C894 H888 0.930 . S
C894 C895 1.355 . S
C894 C896 1.415 . S
C895 C894 1.355 . S
C895 C897 1.419 . S
C896 C894 1.415 . S
C896 C901 1.425 . S
C896 C903 1.409 . S
C897 H889 0.930 . S
C897 C895 1.419 . S
C897 C898 1.362 . S
C898 H890 0.930 . S
C898 C897 1.362 . S
C898 C901 1.409 . S
C899 H891 0.930 . S
C899 C900 1.355 . S
C899 C901 1.415 . S
C900 C899 1.355 . S
C900 C902 1.419 . S
C901 C896 1.425 . S
C901 C898 1.409 . S
C901 C899 1.415 . S
C902 H892 0.930 . S
C902 C900 1.419 . S
C902 C903 1.362 . S
C903 H893 0.930 . S
C903 C896 1.409 . S
C903 C902 1.362 . S
H904 C910 0.930 . S
H905 C913 0.930 . S
H906 C914 0.930 . S
H907 C915 0.930 . S
H908 C918 0.930 . S
H909 C919 0.930 . S
C910 H904 0.930 . S
C910 C911 1.355 . S
C910 C912 1.415 . S
C911 C910 1.355 . S
C911 C913 1.419 . S
C912 C910 1.415 . S
C912 C917 1.425 . S
C912 C919 1.409 . S
C913 H905 0.930 . S
C913 C911 1.419 . S
C913 C914 1.362 . S
C914 H906 0.930 . S
C914 C913 1.362 . S
C914 C917 1.409 . S
C915 H907 0.930 . S
C915 C916 1.355 . S
C915 C917 1.415 . S
C916 C915 1.355 . S
C916 C918 1.419 . S
C917 C912 1.425 . S
C917 C914 1.409 . S
C917 C915 1.415 . S
C918 H908 0.930 . S
C918 C916 1.419 . S
C918 C919 1.362 . S
C919 H909 0.930 . S
C919 C912 1.409 . S
C919 C918 1.362 . S
H920 C926 0.930 . S
H921 C929 0.930 . S
H922 C930 0.930 . S
H923 C931 0.930 . S
H924 C934 0.930 . S
H925 C935 0.930 . S
C926 H920 0.930 . S
C926 C927 1.355 . S
C926 C928 1.415 . S
C927 C926 1.355 . S
C927 C929 1.419 . S
C928 C926 1.415 . S
C928 C933 1.425 . S
C928 C935 1.409 . S
C929 H921 0.930 . S
C929 C927 1.419 . S
C929 C930 1.362 . S
C930 H922 0.930 . S
C930 C929 1.362 . S
C930 C933 1.409 . S
C931 H923 0.930 . S
C931 C932 1.355 . S
C931 C933 1.415 . S
C932 C931 1.355 . S
C932 C934 1.419 . S
C933 C928 1.425 . S
C933 C930 1.409 . S
C933 C931 1.415 . S
C934 H924 0.930 . S
C934 C932 1.419 . S
C934 C935 1.362 . S
C935 H925 0.930 . S
C935 C928 1.409 . S
C935 C934 1.362 . S
H936 C942 0.930 . S
H937 C945 0.930 . S
H938 C946 0.930 . S
H939 C947 0.930 . S
H940 C950 0.930 . S
H941 C951 0.930 1_554 S
C942 H936 0.930 . S
C942 C943 1.355 . S
C942 C944 1.415 . S
C943 C942 1.355 . S
C943 C945 1.419 . S
C944 C942 1.415 . S
C944 C949 1.425 . S
C944 C951 1.409 1_554 S
C945 H937 0.930 . S
C945 C943 1.419 . S
C945 C946 1.362 . S
C946 H938 0.930 . S
C946 C945 1.362 . S
C946 C949 1.409 . S
C947 H939 0.930 . S
C947 C948 1.355 . S
C947 C949 1.415 1_556 S
C948 C947 1.355 . S
C948 C950 1.419 . S
C949 C944 1.425 . S
C949 C946 1.409 . S
C949 C947 1.415 1_554 S
C950 H940 0.930 . S
C950 C948 1.419 . S
C950 C951 1.362 . S
C951 H941 0.930 1_556 S
C951 C944 1.409 1_556 S
C951 C950 1.362 . S
H952 C958 0.930 . S
H953 C961 0.930 . S
H954 C962 0.930 1_556 S
H955 C963 0.930 . S
H956 C966 0.930 . S
H957 C967 0.930 . S
C958 H952 0.930 . S
C958 C959 1.355 . S
C958 C960 1.422 . S
C959 C958 1.355 . S
C959 C961 1.419 . S
C960 C958 1.422 . S
C960 C965 1.421 1_554 S
C960 C967 1.405 1_554 S
C961 H953 0.930 . S
C961 C959 1.419 . S
C961 C962 1.362 . S
C962 H954 0.930 1_554 S
C962 C961 1.362 . S
C962 C965 1.409 1_554 S
C963 H955 0.930 . S
C963 C964 1.355 . S
C963 C965 1.415 . S
C964 C963 1.355 . S
C964 C966 1.419 . S
C965 C960 1.421 1_556 S
C965 C962 1.409 1_556 S
C965 C963 1.415 . S
C966 H956 0.930 . S
C966 C964 1.419 . S
C966 C967 1.362 . S
C967 H957 0.930 . S
C967 C960 1.405 1_556 S
C967 C966 1.362 . S
H968 C974 0.930 1_565 S
H969 C977 0.930 . S
H970 C978 0.930 . S
H971 C979 0.930 . S
H972 C982 0.931 . S
H973 C983 0.938 . S
C974 H968 0.930 1_545 S
C974 C975 1.355 . S
C974 C976 1.415 . S
C975 C974 1.355 . S
C975 C977 1.419 . S
C976 C974 1.415 . S
C976 C981 1.425 . S
C976 C983 1.407 1_544 S
C977 H969 0.930 . S
C977 C975 1.419 . S
C977 C978 1.362 . S
C978 H970 0.930 . S
C978 C977 1.362 . S
C978 C981 1.409 . S
C979 H971 0.930 . S
C979 C980 1.355 . S
C979 C981 1.415 1_556 S
C980 C979 1.355 . S
C980 C982 1.419 . S
C981 C976 1.425 . S
C981 C978 1.409 . S
C981 C979 1.415 1_554 S
C982 H972 0.931 . S
C982 C980 1.419 . S
C982 C983 1.357 1_545 S
C983 H973 0.938 . S
C983 C976 1.407 1_566 S
C983 C982 1.357 1_565 S
H984 C990 0.930 . S
H985 C993 0.930 . S
H986 C994 0.931 . S
H987 C995 0.930 . S
H988 C998 0.930 . S
H989 C999 0.930 . S
C990 H984 0.930 . S
C990 C991 1.355 . S
C990 C992 1.415 1_556 S
C991 C990 1.355 . S
C991 C993 1.419 1_455 S
C992 C990 1.415 1_554 S
C992 C997 1.425 . S
C992 C999 1.409 . S
C993 H985 0.930 . S
C993 C991 1.419 1_655 S
C993 C994 1.364 1_556 S
C994 H986 0.931 . S
C994 C993 1.364 1_554 S
C994 C997 1.410 1_655 S
C995 H987 0.930 . S
C995 C996 1.355 . S
C995 C997 1.415 . S
C996 C995 1.355 . S
C996 C998 1.419 . S
C997 C992 1.425 . S
C997 C994 1.410 1_455 S
C997 C995 1.415 . S
C998 H988 0.930 . S
C998 C996 1.419 . S
C998 C999 1.362 . S
C999 H989 0.930 . S
C999 C992 1.409 . S
C999 C998 1.362 . S
H1000 C1006 0.930 . S
H1001 C1009 0.930 . S
H1002 C1010 0.930 . S
H1003 C1011 0.930 . S
H1004 C1014 0.930 . S
H1005 C1015 0.930 . S
C1006 H1000 0.930 . S
C1006 C1007 1.355 . S
C1006 C1008 1.415 . S
C1007 C1006 1.355 . S
C1007 C1009 1.419 . S
C1008 C1006 1.415 . S
C1008 C1013 1.425 . S
C1008 C1015 1.409 . S
C1009 H1001 0.930 . S
C1009 C1007 1.419 . S
C1009 C1010 1.362 . S
C1010 H1002 0.930 . S
C1010 C1009 1.362 . S
C1010 C1013 1.409 . S
C1011 H1003 0.930 . S
C1011 C1012 1.355 . S
C1011 C1013 1.415 1_556 S
C1012 C1011 1.355 . S
C1012 C1014 1.419 . S
C1013 C1008 1.425 . S
C1013 C1010 1.409 . S
C1013 C1011 1.415 1_554 S
C1014 H1004 0.930 . S
C1014 C1012 1.419 . S
C1014 C1015 1.362 1_556 S
C1015 H1005 0.930 . S
C1015 C1008 1.409 . S
C1015 C1014 1.362 1_554 S
H1016 C1022 0.930 . S
H1017 C1025 0.930 1_565 S
H1018 C1026 0.930 1_566 S
H1019 C1027 0.930 . S
H1020 C1030 0.930 . S
H1021 C1031 0.930 . S
C1022 H1016 0.930 . S
C1022 C1023 1.355 . S
C1022 C1024 1.415 . S
C1023 C1022 1.355 . S
C1023 C1025 1.419 . S
C1024 C1022 1.415 . S
C1024 C1029 1.425 1_554 S
C1024 C1031 1.409 . S
C1025 H1017 0.930 1_545 S
C1025 C1023 1.419 . S
C1025 C1026 1.362 . S
C1026 H1018 0.930 1_544 S
C1026 C1025 1.362 . S
C1026 C1029 1.409 1_554 S
C1027 H1019 0.930 . S
C1027 C1028 1.355 . S
C1027 C1029 1.415 . S
C1028 C1027 1.355 . S
C1028 C1030 1.419 . S
C1029 C1024 1.425 1_556 S
C1029 C1026 1.409 1_556 S
C1029 C1027 1.415 . S
C1030 H1020 0.930 . S
C1030 C1028 1.419 . S
C1030 C1031 1.362 1_556 S
C1031 H1021 0.930 . S
C1031 C1024 1.409 . S
C1031 C1030 1.362 1_554 S
H1032 C1038 0.930 . S
H1033 C1041 0.930 . S
H1034 C1042 0.930 . S
H1035 C1043 0.930 . S
H1036 C1046 0.930 . S
H1037 C1047 0.930 . S
C1038 H1032 0.930 . S
C1038 C1039 1.355 . S
C1038 C1040 1.415 . S
C1039 C1038 1.355 . S
C1039 C1041 1.419 . S
C1040 C1038 1.415 . S
C1040 C1045 1.425 . S
C1040 C1047 1.409 . S
C1041 H1033 0.930 . S
C1041 C1039 1.419 . S
C1041 C1042 1.362 . S
C1042 H1034 0.930 . S
C1042 C1041 1.362 . S
C1042 C1045 1.409 . S
C1043 H1035 0.930 . S
C1043 C1044 1.355 . S
C1043 C1045 1.415 . S
C1044 C1043 1.355 . S
C1044 C1046 1.419 . S
C1045 C1040 1.425 . S
C1045 C1042 1.409 . S
C1045 C1043 1.415 . S
C1046 H1036 0.930 . S
C1046 C1044 1.419 . S
C1046 C1047 1.362 . S
C1047 H1037 0.930 . S
C1047 C1040 1.409 . S
C1047 C1046 1.362 . S
H1048 C1054 0.930 . S
H1049 C1057 0.930 . S
H1050 C1058 0.930 . S
H1051 C1059 0.930 . S
H1052 C1062 0.930 . S
H1053 C1063 0.930 . S
C1054 H1048 0.930 . S
C1054 C1055 1.355 . S
C1054 C1056 1.415 . S
C1055 C1054 1.355 . S
C1055 C1057 1.419 . S
C1056 C1054 1.415 . S
C1056 C1061 1.425 . S
C1056 C1063 1.409 . S
C1057 H1049 0.930 . S
C1057 C1055 1.419 . S
C1057 C1058 1.362 . S
C1058 H1050 0.930 . S
C1058 C1057 1.362 . S
C1058 C1061 1.409 . S
C1059 H1051 0.930 . S
C1059 C1060 1.355 . S
C1059 C1061 1.415 . S
C1060 C1059 1.355 . S
C1060 C1062 1.419 . S
C1061 C1056 1.425 . S
C1061 C1058 1.409 . S
C1061 C1059 1.415 . S
C1062 H1052 0.930 . S
C1062 C1060 1.419 . S
C1062 C1063 1.362 . S
C1063 H1053 0.930 . S
C1063 C1056 1.409 . S
C1063 C1062 1.362 . S
H1064 C1070 0.930 . S
H1065 C1073 0.930 . S
H1066 C1074 0.930 . S
H1067 C1075 0.930 . S
H1068 C1078 0.930 . S
H1069 C1079 0.930 . S
C1070 H1064 0.930 . S
C1070 C1071 1.355 . S
C1070 C1072 1.415 . S
C1071 C1070 1.355 . S
C1071 C1073 1.419 . S
C1072 C1070 1.415 . S
C1072 C1077 1.425 . S
C1072 C1079 1.409 . S
C1073 H1065 0.930 . S
C1073 C1071 1.419 . S
C1073 C1074 1.362 . S
C1074 H1066 0.930 . S
C1074 C1073 1.362 . S
C1074 C1077 1.409 . S
C1075 H1067 0.930 . S
C1075 C1076 1.355 . S
C1075 C1077 1.415 . S
C1076 C1075 1.355 . S
C1076 C1078 1.419 . S
C1077 C1072 1.425 . S
C1077 C1074 1.409 . S
C1077 C1075 1.415 . S
C1078 H1068 0.930 . S
C1078 C1076 1.419 . S
C1078 C1079 1.362 . S
C1079 H1069 0.930 . S
C1079 C1072 1.409 . S
C1079 C1078 1.362 . S
H1080 C1086 0.930 . S
H1081 C1089 0.930 . S
H1082 C1090 0.930 . S
H1083 C1091 0.930 . S
H1084 C1094 0.930 . S
H1085 C1095 0.930 . S
C1086 H1080 0.930 . S
C1086 C1087 1.355 . S
C1086 C1088 1.415 . S
C1087 C1086 1.355 . S
C1087 C1089 1.419 . S
C1088 C1086 1.415 . S
C1088 C1093 1.425 . S
C1088 C1095 1.409 . S
C1089 H1081 0.930 . S
C1089 C1087 1.419 . S
C1089 C1090 1.362 . S
C1090 H1082 0.930 . S
C1090 C1089 1.362 . S
C1090 C1093 1.409 . S
C1091 H1083 0.930 . S
C1091 C1092 1.355 . S
C1091 C1093 1.415 . S
C1092 C1091 1.355 . S
C1092 C1094 1.419 . S
C1093 C1088 1.425 . S
C1093 C1090 1.409 . S
C1093 C1091 1.415 . S
C1094 H1084 0.930 . S
C1094 C1092 1.419 . S
C1094 C1095 1.362 . S
C1095 H1085 0.930 . S
C1095 C1088 1.409 . S
C1095 C1094 1.362 . S
H1096 C1102 0.930 . S
H1097 C1105 0.930 . S
H1098 C1106 0.930 . S
H1099 C1107 0.930 . S
H1100 C1110 0.930 . S
H1101 C1111 0.930 . S
C1102 H1096 0.930 . S
C1102 C1103 1.355 . S
C1102 C1104 1.415 . S
C1103 C1102 1.355 . S
C1103 C1105 1.419 . S
C1104 C1102 1.415 . S
C1104 C1109 1.425 . S
C1104 C1111 1.409 . S
C1105 H1097 0.930 . S
C1105 C1103 1.419 . S
C1105 C1106 1.362 . S
C1106 H1098 0.930 . S
C1106 C1105 1.362 . S
C1106 C1109 1.409 . S
C1107 H1099 0.930 . S
C1107 C1108 1.355 . S
C1107 C1109 1.415 . S
C1108 C1107 1.355 . S
C1108 C1110 1.419 . S
C1109 C1104 1.425 . S
C1109 C1106 1.409 . S
C1109 C1107 1.415 . S
C1110 H1100 0.930 . S
C1110 C1108 1.419 . S
C1110 C1111 1.362 . S
C1111 H1101 0.930 . S
C1111 C1104 1.409 . S
C1111 C1110 1.362 . S
H1112 C1118 0.930 . S
H1113 C1121 0.930 . S
H1114 C1122 0.930 . S
H1115 C1123 0.930 . S
H1116 C1126 0.930 . S
H1117 C1127 0.930 . S
C1118 H1112 0.930 . S
C1118 C1119 1.355 . S
C1118 C1120 1.415 . S
C1119 C1118 1.355 . S
C1119 C1121 1.419 . S
C1120 C1118 1.415 . S
C1120 C1125 1.425 . S
C1120 C1127 1.409 . S
C1121 H1113 0.930 . S
C1121 C1119 1.419 . S
C1121 C1122 1.362 . S
C1122 H1114 0.930 . S
C1122 C1121 1.362 . S
C1122 C1125 1.409 . S
C1123 H1115 0.930 . S
C1123 C1124 1.355 . S
C1123 C1125 1.415 . S
C1124 C1123 1.355 . S
C1124 C1126 1.419 . S
C1125 C1120 1.425 . S
C1125 C1122 1.409 . S
C1125 C1123 1.415 . S
C1126 H1116 0.930 . S
C1126 C1124 1.419 . S
C1126 C1127 1.362 . S
C1127 H1117 0.930 . S
C1127 C1120 1.409 . S
C1127 C1126 1.362 . S
H1128 C1134 0.930 . S
H1129 C1137 0.930 . S
H1130 C1138 0.930 . S
H1131 C1139 0.930 . S
H1132 C1142 0.930 . S
H1133 C1143 0.930 . S
C1134 H1128 0.930 . S
C1134 C1135 1.355 . S
C1134 C1136 1.415 . S
C1135 C1134 1.355 . S
C1135 C1137 1.419 . S
C1136 C1134 1.415 . S
C1136 C1141 1.425 . S
C1136 C1143 1.409 . S
C1137 H1129 0.930 . S
C1137 C1135 1.419 . S
C1137 C1138 1.362 . S
C1138 H1130 0.930 . S
C1138 C1137 1.362 . S
C1138 C1141 1.409 . S
C1139 H1131 0.930 . S
C1139 C1140 1.355 . S
C1139 C1141 1.415 . S
C1140 C1139 1.355 . S
C1140 C1142 1.419 . S
C1141 C1136 1.425 . S
C1141 C1138 1.409 . S
C1141 C1139 1.415 . S
C1142 H1132 0.930 . S
C1142 C1140 1.419 . S
C1142 C1143 1.362 . S
C1143 H1133 0.930 . S
C1143 C1136 1.409 . S
C1143 C1142 1.362 . S
H1144 C1150 0.930 . S
H1145 C1153 0.930 . S
H1146 C1154 0.930 . S
H1147 C1155 0.930 . S
H1148 C1158 0.930 . S
H1149 C1159 0.930 . S
C1150 H1144 0.930 . S
C1150 C1151 1.355 . S
C1150 C1152 1.415 . S
C1151 C1150 1.355 . S
C1151 C1153 1.419 . S
C1152 C1150 1.415 . S
C1152 C1157 1.425 . S
C1152 C1159 1.409 . S
C1153 H1145 0.930 . S
C1153 C1151 1.419 . S
C1153 C1154 1.362 . S
C1154 H1146 0.930 . S
C1154 C1153 1.362 . S
C1154 C1157 1.409 . S
C1155 H1147 0.930 . S
C1155 C1156 1.355 . S
C1155 C1157 1.415 . S
C1156 C1155 1.355 . S
C1156 C1158 1.419 . S
C1157 C1152 1.425 . S
C1157 C1154 1.409 . S
C1157 C1155 1.415 . S
C1158 H1148 0.930 . S
C1158 C1156 1.419 . S
C1158 C1159 1.362 . S
C1159 H1149 0.930 . S
C1159 C1152 1.409 . S
C1159 C1158 1.362 . S
H1160 C1166 0.930 . S
H1161 C1169 0.930 . S
H1162 C1170 0.930 . S
H1163 C1171 0.930 . S
H1164 C1174 0.930 . S
H1165 C1175 0.930 . S
C1166 H1160 0.930 . S
C1166 C1167 1.355 . S
C1166 C1168 1.415 . S
C1167 C1166 1.355 . S
C1167 C1169 1.419 . S
C1168 C1166 1.415 . S
C1168 C1173 1.425 . S
C1168 C1175 1.409 . S
C1169 H1161 0.930 . S
C1169 C1167 1.419 . S
C1169 C1170 1.362 . S
C1170 H1162 0.930 . S
C1170 C1169 1.362 . S
C1170 C1173 1.409 . S
C1171 H1163 0.930 . S
C1171 C1172 1.355 . S
C1171 C1173 1.415 . S
C1172 C1171 1.355 . S
C1172 C1174 1.419 . S
C1173 C1168 1.425 . S
C1173 C1170 1.409 . S
C1173 C1171 1.415 . S
C1174 H1164 0.930 . S
C1174 C1172 1.419 . S
C1174 C1175 1.362 . S
C1175 H1165 0.930 . S
C1175 C1168 1.409 . S
C1175 C1174 1.362 . S
H1176 C1182 0.930 . S
H1177 C1185 0.930 . S
H1178 C1186 0.930 . S
H1179 C1187 0.930 . S
H1180 C1190 0.930 . S
H1181 C1191 0.930 . S
C1182 H1176 0.930 . S
C1182 C1183 1.355 . S
C1182 C1184 1.415 . S
C1183 C1182 1.355 . S
C1183 C1185 1.419 . S
C1184 C1182 1.415 . S
C1184 C1189 1.425 . S
C1184 C1191 1.409 . S
C1185 H1177 0.930 . S
C1185 C1183 1.419 . S
C1185 C1186 1.362 . S
C1186 H1178 0.930 . S
C1186 C1185 1.362 . S
C1186 C1189 1.409 . S
C1187 H1179 0.930 . S
C1187 C1188 1.355 . S
C1187 C1189 1.415 . S
C1188 C1187 1.355 . S
C1188 C1190 1.419 . S
C1189 C1184 1.425 . S
C1189 C1186 1.409 . S
C1189 C1187 1.415 . S
C1190 H1180 0.930 . S
C1190 C1188 1.419 . S
C1190 C1191 1.362 . S
C1191 H1181 0.930 . S
C1191 C1184 1.409 . S
C1191 C1190 1.362 . S
H1192 C1198 0.930 . S
H1193 C1201 0.930 . S
H1194 C1202 0.930 . S
H1195 C1203 0.930 . S
H1196 C1206 0.930 . S
H1197 C1207 0.930 . S
C1198 H1192 0.930 . S
C1198 C1199 1.355 . S
C1198 C1200 1.415 . S
C1199 C1198 1.355 . S
C1199 C1201 1.419 . S
C1200 C1198 1.415 . S
C1200 C1205 1.425 . S
C1200 C1207 1.409 . S
C1201 H1193 0.930 . S
C1201 C1199 1.419 . S
C1201 C1202 1.362 . S
C1202 H1194 0.930 . S
C1202 C1201 1.362 . S
C1202 C1205 1.409 . S
C1203 H1195 0.930 . S
C1203 C1204 1.355 . S
C1203 C1205 1.415 . S
C1204 C1203 1.355 . S
C1204 C1206 1.419 . S
C1205 C1200 1.425 . S
C1205 C1202 1.409 . S
C1205 C1203 1.415 . S
C1206 H1196 0.930 . S
C1206 C1204 1.419 . S
C1206 C1207 1.362 . S
C1207 H1197 0.930 . S
C1207 C1200 1.409 . S
C1207 C1206 1.362 . S
H1208 C1214 0.930 . S
H1209 C1217 0.930 . S
H1210 C1218 0.930 . S
H1211 C1219 0.930 . S
H1212 C1222 0.930 . S
H1213 C1223 0.930 . S
C1214 H1208 0.930 . S
C1214 C1215 1.355 . S
C1214 C1216 1.415 . S
C1215 C1214 1.355 . S
C1215 C1217 1.419 . S
C1216 C1214 1.415 . S
C1216 C1221 1.425 . S
C1216 C1223 1.409 . S
C1217 H1209 0.930 . S
C1217 C1215 1.419 . S
C1217 C1218 1.362 . S
C1218 H1210 0.930 . S
C1218 C1217 1.362 . S
C1218 C1221 1.409 . S
C1219 H1211 0.930 . S
C1219 C1220 1.355 . S
C1219 C1221 1.415 . S
C1220 C1219 1.355 . S
C1220 C1222 1.419 . S
C1221 C1216 1.425 . S
C1221 C1218 1.409 . S
C1221 C1219 1.415 . S
C1222 H1212 0.930 . S
C1222 C1220 1.419 . S
C1222 C1223 1.362 . S
C1223 H1213 0.930 . S
C1223 C1216 1.409 . S
C1223 C1222 1.362 . S
C367 C266 1.461 . S
C372 C6 1.494 . S
C383 C29 1.539 . S
C388 C289 1.548 . S
C399 C46 1.459 . S
C404 C249 1.541 . S
C415 C49 1.628 . S
C420 C149 1.596 . S
C431 C169 1.920 . S
C436 C9 1.864 . S
C447 C26 1.715 . S
C452 C129 1.737 . S
C463 C76 1.737 . S
C468 C201 1.830 . S
C479 C81 1.593 . S
C484 C221 1.650 . S
C495 C181 1.535 . S
C500 C116 1.512 . S
C511 C321 1.542 . S
C516 C101 1.574 . S
C527 C61 1.544 . S
C532 C356 1.469 . S
C543 C316 1.475 . S
C548 C96 1.441 . S
C559 C166 1.346 1_455 S
C564 C269 1.340 . S
C575 C126 1.261 . S
C580 C286 1.242 . S
C591 C146 1.427 . S
C596 C246 1.442 . S
C607 C196 1.457 . S
C612 C336 1.504 . S
C623 C341 1.390 . S
C628 C216 1.313 1_455 S
C639 C301 1.605 . S
C644 C236 1.562 . S
C655 C1 1.695 . S
C660 C89 1.651 . S
C671 C106 2.009 . S
C676 C36 2.045 . S
C687 C66 1.817 . S
C692 C41 1.876 . S
C703 C86 1.868 . S
C708 C56 1.931 . S
C719 C109 1.912 . S
C724 C16 1.798 . S
C735 C69 1.819 . S
C740 C21 1.896 . S
C751 C206 1.759 . S
C756 C136 1.648 . S
C767 C226 1.873 . S
C772 C156 1.872 . S
C783 C186 1.833 . S
C788 C176 1.739 . S
C799 C209 1.811 . S
C804 C161 1.805 . S
C815 C229 1.633 . S
C820 C121 1.722 . S
C831 C189 1.511 . S
C836 C141 1.534 . S
C847 C329 1.498 . S
C852 C241 1.412 . S
C863 C346 1.630 . S
C868 C276 1.660 . S
C879 C281 1.583 . S
C884 C306 1.518 . S
C895 C296 1.803 . S
C900 C326 1.744 . S
C911 C256 1.498 . S
C916 C349 1.537 . S
C927 C309 1.259 . S
C932 C261 1.237 . S
C943 C19 1.673 . S
C948 C8 1.673 . S
C959 C28 1.749 . S
C964 C39 1.749 . S
C975 C59 1.703 . S
C980 C48 1.703 . S
C991 C68 1.720 . S
C996 C79 1.720 . S
C1007 C88 1.744 . S
C1012 C99 1.744 . S
C1023 C119 1.772 . S
C1028 C108 1.772 . S
C1039 C139 1.723 1_554 S
C1044 C128 1.723 . S
C1055 C148 1.737 . S
C1060 C159 1.737 1_554 S
C1071 C179 1.700 1_554 S
C1076 C168 1.700 . S
C1087 C188 1.722 1_554 S
C1092 C199 1.722 . S
C1103 C208 1.712 1_554 S
C1108 C219 1.712 . S
C1119 C228 1.668 1_554 S
C1124 C239 1.668 . S
C1135 C248 1.683 . S
C1140 C259 1.683 . S
C1151 C268 1.734 . S
C1156 C279 1.734 . S
C1167 C299 1.664 1_556 S
C1172 C288 1.664 . S
C1183 C319 1.710 . S
C1188 C308 1.710 . S
C1199 C328 1.674 1_556 S
C1204 C339 1.674 . S
C1215 C348 1.703 . S
C1220 C359 1.703 1_556 S
