# Generated by pormake.
# Topology ukc, (4)-cn, num edge types: 1
# Building blocks:
#     Node 0, Type 0, BuildingBlock: CEKHIL_clean_sbu_0, # of connection points: 4
#     Node 1, Type 0, BuildingBlock: CEKHIL_clean_sbu_0, # of connection points: 4
#     Node 2, Type 0, BuildingBlock: CEKHIL_clean_sbu_0, # of connection points: 4
#     Node 3, Type 0, BuildingBlock: CEKHIL_clean_sbu_0, # of connection points: 4
#     Node 4, Type 0, BuildingBlock: CEKHIL_clean_sbu_0, # of connection points: 4
#     Node 5, Type 0, BuildingBlock: CEKHIL_clean_sbu_0, # of connection points: 4
#     Node 6, Type 0, BuildingBlock: CEKHIL_clean_sbu_0, # of connection points: 4
#     Node 7, Type 0, BuildingBlock: CEKHIL_clean_sbu_0, # of connection points: 4
#     Node 8, Type 0, BuildingBlock: CEKHIL_clean_sbu_0, # of connection points: 4
#     Node 9, Type 0, BuildingBlock: CEKHIL_clean_sbu_0, # of connection points: 4
#     Node 10, Type 0, BuildingBlock: CEKHIL_clean_sbu_0, # of connection points: 4
#     Node 11, Type 0, BuildingBlock: CEKHIL_clean_sbu_0, # of connection points: 4
#     Node 12, Type 0, BuildingBlock: CEKHIL_clean_sbu_0, # of connection points: 4
#     Node 13, Type 0, BuildingBlock: CEKHIL_clean_sbu_0, # of connection points: 4
#     Node 14, Type 0, BuildingBlock: CEKHIL_clean_sbu_0, # of connection points: 4
#     Node 15, Type 0, BuildingBlock: CEKHIL_clean_sbu_0, # of connection points: 4
#     Node 16, Type 0, BuildingBlock: CEKHIL_clean_sbu_0, # of connection points: 4
#     Node 17, Type 0, BuildingBlock: CEKHIL_clean_sbu_0, # of connection points: 4
#     Node 18, Type 0, BuildingBlock: CEKHIL_clean_sbu_0, # of connection points: 4
#     Node 19, Type 0, BuildingBlock: CEKHIL_clean_sbu_0, # of connection points: 4
#     Node 20, Type 0, BuildingBlock: CEKHIL_clean_sbu_0, # of connection points: 4
#     Node 21, Type 0, BuildingBlock: CEKHIL_clean_sbu_0, # of connection points: 4
#     Node 22, Type 0, BuildingBlock: CEKHIL_clean_sbu_0, # of connection points: 4
#     Node 23, Type 0, BuildingBlock: CEKHIL_clean_sbu_0, # of connection points: 4
#     Node 24, Type 0, BuildingBlock: CEKHIL_clean_sbu_0, # of connection points: 4
#     Node 25, Type 0, BuildingBlock: CEKHIL_clean_sbu_0, # of connection points: 4
#     Node 26, Type 0, BuildingBlock: CEKHIL_clean_sbu_0, # of connection points: 4
#     Node 27, Type 0, BuildingBlock: CEKHIL_clean_sbu_0, # of connection points: 4
#     Node 28, Type 0, BuildingBlock: CEKHIL_clean_sbu_0, # of connection points: 4
#     Node 29, Type 0, BuildingBlock: CEKHIL_clean_sbu_0, # of connection points: 4
#     Node 30, Type 0, BuildingBlock: CEKHIL_clean_sbu_0, # of connection points: 4
#     Node 31, Type 0, BuildingBlock: CEKHIL_clean_sbu_0, # of connection points: 4
#     Edge 32, Type (0, 0), BuildingBlock: ZUJKAS_clean_linker_0, # of connection points: 2
#     Edge 33, Type (0, 0), BuildingBlock: ZUJKAS_clean_linker_0, # of connection points: 2
#     Edge 34, Type (0, 0), BuildingBlock: ZUJKAS_clean_linker_0, # of connection points: 2
#     Edge 35, Type (0, 0), BuildingBlock: ZUJKAS_clean_linker_0, # of connection points: 2
#     Edge 36, Type (0, 0), BuildingBlock: ZUJKAS_clean_linker_0, # of connection points: 2
#     Edge 37, Type (0, 0), BuildingBlock: ZUJKAS_clean_linker_0, # of connection points: 2
#     Edge 38, Type (0, 0), BuildingBlock: ZUJKAS_clean_linker_0, # of connection points: 2
#     Edge 39, Type (0, 0), BuildingBlock: ZUJKAS_clean_linker_0, # of connection points: 2
#     Edge 40, Type (0, 0), BuildingBlock: ZUJKAS_clean_linker_0, # of connection points: 2
#     Edge 41, Type (0, 0), BuildingBlock: ZUJKAS_clean_linker_0, # of connection points: 2
#     Edge 42, Type (0, 0), BuildingBlock: ZUJKAS_clean_linker_0, # of connection points: 2
#     Edge 43, Type (0, 0), BuildingBlock: ZUJKAS_clean_linker_0, # of connection points: 2
#     Edge 44, Type (0, 0), BuildingBlock: ZUJKAS_clean_linker_0, # of connection points: 2
#     Edge 45, Type (0, 0), BuildingBlock: ZUJKAS_clean_linker_0, # of connection points: 2
#     Edge 46, Type (0, 0), BuildingBlock: ZUJKAS_clean_linker_0, # of connection points: 2
#     Edge 47, Type (0, 0), BuildingBlock: ZUJKAS_clean_linker_0, # of connection points: 2
#     Edge 48, Type (0, 0), BuildingBlock: ZUJKAS_clean_linker_0, # of connection points: 2
#     Edge 49, Type (0, 0), BuildingBlock: ZUJKAS_clean_linker_0, # of connection points: 2
#     Edge 50, Type (0, 0), BuildingBlock: ZUJKAS_clean_linker_0, # of connection points: 2
#     Edge 51, Type (0, 0), BuildingBlock: ZUJKAS_clean_linker_0, # of connection points: 2
#     Edge 52, Type (0, 0), BuildingBlock: ZUJKAS_clean_linker_0, # of connection points: 2
#     Edge 53, Type (0, 0), BuildingBlock: ZUJKAS_clean_linker_0, # of connection points: 2
#     Edge 54, Type (0, 0), BuildingBlock: ZUJKAS_clean_linker_0, # of connection points: 2
#     Edge 55, Type (0, 0), BuildingBlock: ZUJKAS_clean_linker_0, # of connection points: 2
#     Edge 56, Type (0, 0), BuildingBlock: ZUJKAS_clean_linker_0, # of connection points: 2
#     Edge 57, Type (0, 0), BuildingBlock: ZUJKAS_clean_linker_0, # of connection points: 2
#     Edge 58, Type (0, 0), BuildingBlock: ZUJKAS_clean_linker_0, # of connection points: 2
#     Edge 59, Type (0, 0), BuildingBlock: ZUJKAS_clean_linker_0, # of connection points: 2
#     Edge 60, Type (0, 0), BuildingBlock: ZUJKAS_clean_linker_0, # of connection points: 2
#     Edge 61, Type (0, 0), BuildingBlock: ZUJKAS_clean_linker_0, # of connection points: 2
#     Edge 62, Type (0, 0), BuildingBlock: ZUJKAS_clean_linker_0, # of connection points: 2
#     Edge 63, Type (0, 0), BuildingBlock: ZUJKAS_clean_linker_0, # of connection points: 2
#     Edge 64, Type (0, 0), BuildingBlock: ZUJKAS_clean_linker_0, # of connection points: 2
#     Edge 65, Type (0, 0), BuildingBlock: ZUJKAS_clean_linker_0, # of connection points: 2
#     Edge 66, Type (0, 0), BuildingBlock: ZUJKAS_clean_linker_0, # of connection points: 2
#     Edge 67, Type (0, 0), BuildingBlock: ZUJKAS_clean_linker_0, # of connection points: 2
#     Edge 68, Type (0, 0), BuildingBlock: ZUJKAS_clean_linker_0, # of connection points: 2
#     Edge 69, Type (0, 0), BuildingBlock: ZUJKAS_clean_linker_0, # of connection points: 2
#     Edge 70, Type (0, 0), BuildingBlock: ZUJKAS_clean_linker_0, # of connection points: 2
#     Edge 71, Type (0, 0), BuildingBlock: ZUJKAS_clean_linker_0, # of connection points: 2
#     Edge 72, Type (0, 0), BuildingBlock: ZUJKAS_clean_linker_0, # of connection points: 2
#     Edge 73, Type (0, 0), BuildingBlock: ZUJKAS_clean_linker_0, # of connection points: 2
#     Edge 74, Type (0, 0), BuildingBlock: ZUJKAS_clean_linker_0, # of connection points: 2
#     Edge 75, Type (0, 0), BuildingBlock: ZUJKAS_clean_linker_0, # of connection points: 2
#     Edge 76, Type (0, 0), BuildingBlock: ZUJKAS_clean_linker_0, # of connection points: 2
#     Edge 77, Type (0, 0), BuildingBlock: ZUJKAS_clean_linker_0, # of connection points: 2
#     Edge 78, Type (0, 0), BuildingBlock: ZUJKAS_clean_linker_0, # of connection points: 2
#     Edge 79, Type (0, 0), BuildingBlock: ZUJKAS_clean_linker_0, # of connection points: 2
#     Edge 80, Type (0, 0), BuildingBlock: ZUJKAS_clean_linker_0, # of connection points: 2
#     Edge 81, Type (0, 0), BuildingBlock: ZUJKAS_clean_linker_0, # of connection points: 2
#     Edge 82, Type (0, 0), BuildingBlock: ZUJKAS_clean_linker_0, # of connection points: 2
#     Edge 83, Type (0, 0), BuildingBlock: ZUJKAS_clean_linker_0, # of connection points: 2
#     Edge 84, Type (0, 0), BuildingBlock: ZUJKAS_clean_linker_0, # of connection points: 2
#     Edge 85, Type (0, 0), BuildingBlock: ZUJKAS_clean_linker_0, # of connection points: 2
#     Edge 86, Type (0, 0), BuildingBlock: ZUJKAS_clean_linker_0, # of connection points: 2
#     Edge 87, Type (0, 0), BuildingBlock: ZUJKAS_clean_linker_0, # of connection points: 2
#     Edge 88, Type (0, 0), BuildingBlock: ZUJKAS_clean_linker_0, # of connection points: 2
#     Edge 89, Type (0, 0), BuildingBlock: ZUJKAS_clean_linker_0, # of connection points: 2
#     Edge 90, Type (0, 0), BuildingBlock: ZUJKAS_clean_linker_0, # of connection points: 2
#     Edge 91, Type (0, 0), BuildingBlock: ZUJKAS_clean_linker_0, # of connection points: 2
#     Edge 92, Type (0, 0), BuildingBlock: ZUJKAS_clean_linker_0, # of connection points: 2
#     Edge 93, Type (0, 0), BuildingBlock: ZUJKAS_clean_linker_0, # of connection points: 2
#     Edge 94, Type (0, 0), BuildingBlock: ZUJKAS_clean_linker_0, # of connection points: 2
#     Edge 95, Type (0, 0), BuildingBlock: ZUJKAS_clean_linker_0, # of connection points: 2
# Relax obj value: 0.049
# Max RMSD: 0.067
# Mean RMSD: 0.067
data_MOF--net-ukc--node1-CEKHIL_clean_sbu_0--edge1-ZUJKAS_clean_linker_0
_symmetry_space_group_name_H-M    P1
_symmetry_Int_Tables_number       1
_symmetry_cell_setting            triclinic
loop_
_symmetry_equiv_pos_as_xyz
'x, y, z'
_cell_length_a     57.661484
_cell_length_b     57.664459
_cell_length_c     111.42897
_cell_angle_alpha  90.001633
_cell_angle_beta   89.998474
_cell_angle_gamma 90.000716
loop_
_atom_site_label
_atom_site_type_symbol
_atom_site_fract_x
_atom_site_fract_y
_atom_site_fract_z
_atom_type_partial_charge
Co0 Co 0.10812 0.39066 0.04329 0.0
O1 O 0.13434 0.4104 0.03958 0.0
O2 O 0.12415 0.37965 0.02904 0.0
C3 C 0.11609 0.38748 0.06314 0.0
O4 O 0.0833 0.3652 0.04452 0.0
Co5 Co 0.06971 0.40518 0.06163 0.0
O6 O 0.05886 0.37286 0.05977 0.0
C7 C 0.06918 0.42418 0.03686 0.0
C8 C 0.13887 0.39643 0.03075 0.0
C9 C 0.0661 0.35971 0.05138 0.0
O10 O 0.08637 0.41124 0.03355 0.0
O11 O 0.0617 0.42522 0.04766 0.0
O12 O 0.1268 0.37441 0.05543 0.0
O13 O 0.10248 0.40282 0.0586 0.0
Co14 Co 0.86812 0.85875 0.29354 0.0
O15 O 0.84988 0.88653 0.29115 0.0
O16 O 0.87868 0.87552 0.27941 0.0
C17 C 0.87366 0.86408 0.31347 0.0
O18 O 0.89192 0.83226 0.29349 0.0
Co19 Co 0.85174 0.81934 0.31078 0.0
O20 O 0.88297 0.80625 0.30783 0.0
C21 C 0.82875 0.82595 0.28738 0.0
C22 C 0.86304 0.89101 0.28199 0.0
C23 C 0.89643 0.81383 0.29964 0.0
O24 O 0.8451 0.83965 0.2838 0.0
O25 O 0.82713 0.8185 0.29816 0.0
O26 O 0.88669 0.87491 0.30578 0.0
O27 O 0.85701 0.85214 0.30891 0.0
Co28 Co 0.39762 0.61699 0.54315 0.0
O29 O 0.37021 0.59853 0.54009 0.0
O30 O 0.38153 0.62806 0.52893 0.0
C31 C 0.39104 0.62166 0.56304 0.0
O32 O 0.42383 0.64106 0.54372 0.0
Co33 Co 0.43624 0.60095 0.56093 0.0
O34 O 0.44783 0.63312 0.55909 0.0
C35 C 0.4315 0.57851 0.5372 0.0
C36 C 0.36609 0.61213 0.53106 0.0
C37 C 0.44104 0.64633 0.55062 0.0
O38 O 0.41755 0.59457 0.53351 0.0
O39 O 0.43853 0.57691 0.54806 0.0
O40 O 0.38054 0.6349 0.55532 0.0
O41 O 0.40348 0.60536 0.5585 0.0
Co42 Co 0.64097 0.14855 0.79335 0.0
O43 O 0.65951 0.12124 0.79019 0.0
O44 O 0.62981 0.13252 0.77914 0.0
C45 C 0.6365 0.14185 0.81323 0.0
O46 O 0.61678 0.17464 0.79405 0.0
Co47 Co 0.65706 0.18714 0.81113 0.0
O48 O 0.62461 0.19813 0.80964 0.0
C49 C 0.67921 0.18268 0.7873 0.0
C50 C 0.64582 0.11713 0.78118 0.0
C51 C 0.61136 0.19148 0.80115 0.0
O52 O 0.66323 0.1686 0.78367 0.0
O53 O 0.68084 0.18978 0.79815 0.0
O54 O 0.62324 0.13134 0.80552 0.0
O55 O 0.65274 0.15436 0.80867 0.0
Co56 Co 0.10979 0.61738 0.46122 0.0
O57 O 0.13711 0.59881 0.46433 0.0
O58 O 0.12556 0.62809 0.4756 0.0
C59 C 0.11687 0.62259 0.44141 0.0
O60 O 0.08365 0.6415 0.46063 0.0
Co61 Co 0.07158 0.60182 0.4431 0.0
O62 O 0.06011 0.63401 0.44501 0.0
C63 C 0.0755 0.57897 0.46678 0.0
C64 C 0.14105 0.61221 0.47347 0.0
C65 C 0.06668 0.64701 0.45362 0.0
O66 O 0.0896 0.59478 0.4706 0.0
O67 O 0.06861 0.57766 0.45587 0.0
O68 O 0.12718 0.63558 0.4493 0.0
O69 O 0.10431 0.60615 0.44574 0.0
Co70 Co 0.64132 0.86113 0.71109 0.0
O71 O 0.65984 0.88841 0.71432 0.0
O72 O 0.63022 0.87695 0.72538 0.0
C73 C 0.63673 0.86812 0.69124 0.0
O74 O 0.61717 0.83502 0.71034 0.0
Co75 Co 0.65735 0.82282 0.69313 0.0
O76 O 0.62495 0.81171 0.69466 0.0
C77 C 0.67954 0.82688 0.71697 0.0
C78 C 0.6462 0.89239 0.72335 0.0
C79 C 0.61175 0.81823 0.7032 0.0
O80 O 0.6636 0.84095 0.72066 0.0
O81 O 0.68116 0.81993 0.70609 0.0
O82 O 0.6235 0.87849 0.69902 0.0
O83 O 0.65301 0.85556 0.69572 0.0
Co84 Co 0.39568 0.39214 0.96144 0.0
O85 O 0.36855 0.41096 0.96459 0.0
O86 O 0.37966 0.38136 0.97575 0.0
C87 C 0.3887 0.38739 0.94159 0.0
O88 O 0.42156 0.36771 0.96079 0.0
Co89 Co 0.43421 0.40753 0.94346 0.0
O90 O 0.44494 0.37503 0.94509 0.0
C91 C 0.43049 0.42998 0.96726 0.0
C92 C 0.36436 0.39745 0.97365 0.0
C93 C 0.43829 0.36202 0.95368 0.0
O94 O 0.41608 0.41435 0.97097 0.0
O95 O 0.43753 0.43134 0.95639 0.0
O96 O 0.37817 0.37436 0.94939 0.0
O97 O 0.40142 0.40358 0.94604 0.0
Co98 Co 0.86599 0.14697 0.21147 0.0
O99 O 0.84788 0.11928 0.2143 0.0
O100 O 0.8765 0.1312 0.22592 0.0
C101 C 0.87186 0.14036 0.19167 0.0
O102 O 0.8896 0.1736 0.21112 0.0
Co103 Co 0.84977 0.18507 0.19341 0.0
O104 O 0.88156 0.19739 0.19566 0.0
C105 C 0.82696 0.18069 0.21706 0.0
C106 C 0.86098 0.11546 0.22356 0.0
C107 C 0.89465 0.19093 0.20425 0.0
O108 O 0.84286 0.16663 0.22081 0.0
O109 O 0.82558 0.18772 0.20618 0.0
O110 O 0.88483 0.13012 0.19961 0.0
O111 O 0.85504 0.15246 0.19596 0.0
Co112 Co 0.89869 0.6187 0.96057 0.0
O113 O 0.87277 0.59843 0.96398 0.0
O114 O 0.88291 0.62834 0.97517 0.0
C115 C 0.89012 0.62319 0.94086 0.0
O116 O 0.92313 0.64457 0.95968 0.0
Co117 Co 0.93684 0.60651 0.94169 0.0
O118 O 0.94496 0.63972 0.94316 0.0
C119 C 0.93848 0.58556 0.96606 0.0
C120 C 0.86828 0.61162 0.97313 0.0
C121 C 0.93861 0.65174 0.95217 0.0
O122 O 0.92096 0.59768 0.96971 0.0
O123 O 0.9459 0.58578 0.95523 0.0
O124 O 0.87948 0.63559 0.94889 0.0
O125 O 0.90412 0.60778 0.94501 0.0
Co126 Co 0.14224 0.1471 0.71194 0.0
O127 O 0.16047 0.11946 0.7147 0.0
O128 O 0.13161 0.13101 0.72626 0.0
C129 C 0.13673 0.14079 0.69208 0.0
O130 O 0.11844 0.17356 0.71163 0.0
Co131 Co 0.15836 0.18568 0.69416 0.0
O132 O 0.1262 0.19726 0.6961 0.0
C133 C 0.18114 0.18073 0.71778 0.0
C134 C 0.14725 0.1154 0.72389 0.0
C135 C 0.11311 0.19067 0.70467 0.0
O136 O 0.16515 0.1667 0.72145 0.0
O137 O 0.18259 0.18799 0.70695 0.0
O138 O 0.12369 0.13036 0.69992 0.0
O139 O 0.15339 0.15296 0.69649 0.0
Co140 Co 0.60975 0.39044 0.46137 0.0
O141 O 0.63733 0.40868 0.46438 0.0
O142 O 0.6259 0.37916 0.47552 0.0
C143 C 0.616 0.38576 0.44145 0.0
O144 O 0.58336 0.36658 0.46079 0.0
Co145 Co 0.5711 0.40733 0.4438 0.0
O146 O 0.55829 0.37575 0.44605 0.0
C147 C 0.57658 0.42944 0.46752 0.0
C148 C 0.64143 0.39501 0.47339 0.0
C149 C 0.56543 0.36207 0.45425 0.0
O150 O 0.59012 0.41297 0.47113 0.0
O151 O 0.56963 0.43142 0.45667 0.0
O152 O 0.62653 0.37245 0.44913 0.0
O153 O 0.60383 0.40221 0.44605 0.0
Co154 Co 0.36763 0.86135 0.21132 0.0
O155 O 0.34884 0.88857 0.21434 0.0
O156 O 0.37813 0.87735 0.22569 0.0
C157 C 0.37297 0.86826 0.1915 0.0
O158 O 0.39193 0.83535 0.2108 0.0
Co159 Co 0.3523 0.82295 0.19323 0.0
O160 O 0.38469 0.812 0.19506 0.0
C161 C 0.32957 0.8266 0.21696 0.0
C162 C 0.36215 0.89271 0.22348 0.0
C163 C 0.39761 0.81856 0.2037 0.0
O164 O 0.34512 0.84105 0.22072 0.0
O165 O 0.32836 0.81956 0.20609 0.0
O166 O 0.3858 0.87877 0.1994 0.0
O167 O 0.35654 0.85569 0.19583 0.0
Co168 Co 0.89791 0.39082 0.5432 0.0
O169 O 0.87041 0.40909 0.54006 0.0
O170 O 0.88207 0.37966 0.52893 0.0
C171 C 0.89116 0.38594 0.56306 0.0
O172 O 0.92425 0.36692 0.54389 0.0
Co173 Co 0.93614 0.40743 0.56107 0.0
O174 O 0.94871 0.37572 0.55895 0.0
C175 C 0.9315 0.42966 0.5373 0.0
C176 C 0.86649 0.39548 0.53101 0.0
C177 C 0.94185 0.36219 0.55063 0.0
O178 O 0.91779 0.41341 0.53362 0.0
O179 O 0.93832 0.43146 0.5482 0.0
O180 O 0.88084 0.37271 0.55527 0.0
O181 O 0.90345 0.40244 0.5586 0.0
Co182 Co 0.36813 0.14878 0.29324 0.0
O183 O 0.3482 0.1227 0.28948 0.0
O184 O 0.37893 0.13287 0.27892 0.0
C185 C 0.37136 0.14054 0.31305 0.0
O186 O 0.39381 0.17336 0.29447 0.0
Co187 Co 0.35471 0.18716 0.31175 0.0
O188 O 0.38788 0.19567 0.31073 0.0
C189 C 0.33514 0.18828 0.28706 0.0
C190 C 0.36211 0.1182 0.28062 0.0
C191 C 0.40045 0.18914 0.30195 0.0
O192 O 0.3476 0.17081 0.28365 0.0
O193 O 0.33469 0.19583 0.29786 0.0
O194 O 0.38432 0.12982 0.30529 0.0
O195 O 0.35616 0.15439 0.30858 0.0
Co196 Co 0.6117 0.61484 0.04316 0.0
O197 O 0.6392 0.5963 0.04049 0.0
O198 O 0.62821 0.62538 0.02894 0.0
C199 C 0.61767 0.62008 0.06307 0.0
O200 O 0.58554 0.639 0.0434 0.0
Co201 Co 0.57258 0.59891 0.06067 0.0
O202 O 0.56077 0.63088 0.05843 0.0
C203 C 0.57788 0.57621 0.03707 0.0
C204 C 0.64359 0.60955 0.03135 0.0
C205 C 0.56794 0.64414 0.05006 0.0
O206 O 0.59201 0.59219 0.03349 0.0
O207 O 0.57052 0.57471 0.04788 0.0
O208 O 0.62845 0.63306 0.05533 0.0
O209 O 0.6054 0.60362 0.05854 0.0
Co210 Co 0.14044 0.85881 0.79387 0.0
O211 O 0.15891 0.88636 0.79129 0.0
O212 O 0.13003 0.87529 0.77962 0.0
C213 C 0.13492 0.86472 0.81375 0.0
O214 O 0.11636 0.83257 0.79402 0.0
Co215 Co 0.15628 0.81971 0.81143 0.0
O216 O 0.12451 0.80758 0.80895 0.0
C217 C 0.17939 0.82532 0.78796 0.0
C218 C 0.14577 0.89073 0.78211 0.0
C219 C 0.11129 0.81481 0.80058 0.0
O220 O 0.16331 0.83924 0.78428 0.0
O221 O 0.18077 0.81801 0.79878 0.0
O222 O 0.122 0.87548 0.80597 0.0
O223 O 0.15146 0.8525 0.80928 0.0
Co224 Co 0.61055 0.89071 0.54315 0.0
O225 O 0.63758 0.90969 0.54004 0.0
O226 O 0.62661 0.88011 0.52883 0.0
C227 C 0.61756 0.88591 0.563 0.0
O228 O 0.58476 0.86619 0.54376 0.0
Co229 Co 0.57198 0.90582 0.56119 0.0
O230 O 0.5614 0.87329 0.55951 0.0
C231 C 0.5756 0.92844 0.53741 0.0
C232 C 0.64181 0.89628 0.53094 0.0
C233 C 0.56806 0.86038 0.55088 0.0
O234 O 0.59008 0.91291 0.53367 0.0
O235 O 0.56854 0.92966 0.54829 0.0
O236 O 0.62815 0.87295 0.55518 0.0
O237 O 0.60477 0.90205 0.55856 0.0
Co238 Co 0.36684 0.36129 0.79337 0.0
O239 O 0.34822 0.38852 0.79014 0.0
O240 O 0.37807 0.37733 0.77918 0.0
C241 C 0.37112 0.36811 0.81327 0.0
O242 O 0.3911 0.3353 0.79415 0.0
Co243 Co 0.35068 0.32272 0.81113 0.0
O244 O 0.38311 0.31166 0.80966 0.0
C245 C 0.32887 0.32691 0.78721 0.0
C246 C 0.36198 0.39267 0.78117 0.0
C247 C 0.39644 0.31838 0.80122 0.0
O248 O 0.3448 0.3411 0.78364 0.0
O249 O 0.32708 0.31984 0.79806 0.0
O250 O 0.38438 0.37862 0.80556 0.0
O251 O 0.35495 0.35552 0.8087 0.0
Co252 Co 0.89674 0.11549 0.04372 0.0
O253 O 0.86894 0.09755 0.04088 0.0
O254 O 0.8806 0.12665 0.02951 0.0
C255 C 0.89072 0.12047 0.06363 0.0
O256 O 0.92342 0.13902 0.04419 0.0
Co257 Co 0.93525 0.09812 0.06127 0.0
O258 O 0.94803 0.12975 0.05912 0.0
C259 C 0.92973 0.07629 0.03749 0.0
C260 C 0.86491 0.11104 0.03179 0.0
C261 C 0.94122 0.14344 0.05085 0.0
O262 O 0.91609 0.09273 0.03397 0.0
O263 O 0.93679 0.0742 0.04832 0.0
O264 O 0.88025 0.13381 0.05594 0.0
O265 O 0.90263 0.10383 0.05905 0.0
Co266 Co 0.14297 0.64713 0.29338 0.0
O267 O 0.16147 0.61958 0.2908 0.0
O268 O 0.13257 0.6306 0.27913 0.0
C269 C 0.13743 0.64118 0.31327 0.0
O270 O 0.11887 0.67335 0.29354 0.0
Co271 Co 0.15876 0.68619 0.31098 0.0
O272 O 0.1268 0.69798 0.30866 0.0
C273 C 0.18166 0.681 0.28741 0.0
C274 C 0.14831 0.61516 0.28163 0.0
C275 C 0.11365 0.6909 0.30023 0.0
O276 O 0.16579 0.66678 0.28378 0.0
O277 O 0.18301 0.68839 0.29822 0.0
O278 O 0.12454 0.63044 0.30548 0.0
O279 O 0.15399 0.6534 0.30881 0.0
Co280 Co 0.609 0.11822 0.96114 0.0
O281 O 0.63654 0.09981 0.96384 0.0
O282 O 0.62514 0.12855 0.97552 0.0
C283 C 0.61543 0.12396 0.94131 0.0
O284 O 0.58264 0.14216 0.96089 0.0
Co285 Co 0.57043 0.10252 0.94324 0.0
O286 O 0.55917 0.13477 0.94522 0.0
C287 C 0.57517 0.07937 0.96679 0.0
C288 C 0.64068 0.11289 0.97307 0.0
C289 C 0.5657 0.1477 0.95386 0.0
O290 O 0.58928 0.09523 0.97054 0.0
O291 O 0.56792 0.07816 0.95595 0.0
O292 O 0.6259 0.13685 0.94921 0.0
O293 O 0.60315 0.10732 0.94565 0.0
Co294 Co 0.14014 0.35974 0.2111 0.0
O295 O 0.16037 0.38567 0.21459 0.0
O296 O 0.13026 0.37557 0.22564 0.0
C297 C 0.1361 0.36826 0.19135 0.0
O298 O 0.11427 0.33529 0.21013 0.0
Co299 Co 0.1524 0.3215 0.19229 0.0
O300 O 0.11903 0.31386 0.19345 0.0
C301 C 0.17314 0.31992 0.21673 0.0
C302 C 0.14703 0.39018 0.22368 0.0
C303 C 0.107 0.32009 0.20248 0.0
O304 O 0.16103 0.3375 0.22034 0.0
O305 O 0.17295 0.31244 0.20591 0.0
O306 O 0.12349 0.37892 0.1993 0.0
O307 O 0.15135 0.35422 0.19561 0.0
Co308 Co 0.89805 0.89175 0.46133 0.0
O309 O 0.87093 0.91057 0.46448 0.0
O310 O 0.8823 0.88123 0.47576 0.0
C311 C 0.8908 0.8865 0.44154 0.0
O312 O 0.92398 0.86739 0.46069 0.0
Co313 Co 0.93623 0.90689 0.44308 0.0
O314 O 0.94703 0.87443 0.44482 0.0
C315 C 0.93299 0.92968 0.46682 0.0
C316 C 0.86694 0.89725 0.47364 0.0
C317 C 0.94058 0.86158 0.45352 0.0
O318 O 0.91855 0.91419 0.47065 0.0
O319 O 0.93989 0.93082 0.45592 0.0
O320 O 0.88041 0.87364 0.44947 0.0
O321 O 0.90351 0.90286 0.44583 0.0
Co322 Co 0.36715 0.64852 0.71099 0.0
O323 O 0.34843 0.62136 0.71422 0.0
O324 O 0.37794 0.6328 0.72537 0.0
C325 C 0.37204 0.64127 0.69118 0.0
O326 O 0.39146 0.67448 0.71025 0.0
Co327 Co 0.35164 0.68668 0.69282 0.0
O328 O 0.38406 0.69765 0.69447 0.0
C329 C 0.32909 0.68319 0.71661 0.0
C330 C 0.36194 0.6174 0.72332 0.0
C331 C 0.39708 0.69116 0.70308 0.0
O332 O 0.34479 0.66894 0.7204 0.0
O333 O 0.32776 0.69005 0.7057 0.0
O334 O 0.38507 0.63091 0.69904 0.0
O335 O 0.35575 0.65396 0.69555 0.0
Co336 Co 0.39752 0.11625 0.4611 0.0
O337 O 0.36998 0.0979 0.46393 0.0
O338 O 0.38153 0.12676 0.47549 0.0
C339 C 0.39093 0.12176 0.44127 0.0
O340 O 0.42389 0.14018 0.46072 0.0
Co341 Co 0.43591 0.10019 0.44318 0.0
O342 O 0.44846 0.13181 0.44563 0.0
C343 C 0.43127 0.07733 0.46678 0.0
C344 C 0.36594 0.11108 0.47313 0.0
C345 C 0.44156 0.14507 0.45406 0.0
O346 O 0.41731 0.09333 0.47053 0.0
O347 O 0.43827 0.07592 0.4559 0.0
O348 O 0.38056 0.13476 0.44915 0.0
O349 O 0.40322 0.10516 0.44563 0.0
Co350 Co 0.64118 0.64826 0.211 0.0
O351 O 0.65982 0.62099 0.2141 0.0
O352 O 0.63048 0.63242 0.22537 0.0
C353 C 0.63605 0.64123 0.19117 0.0
O354 O 0.61701 0.67436 0.21041 0.0
Co355 Co 0.65675 0.68654 0.19291 0.0
O356 O 0.6245 0.69787 0.19477 0.0
C357 C 0.67948 0.68263 0.21662 0.0
C358 C 0.64643 0.617 0.22324 0.0
C359 C 0.6115 0.6913 0.20338 0.0
O360 O 0.66369 0.66848 0.22041 0.0
O361 O 0.68083 0.68955 0.20573 0.0
O362 O 0.62306 0.63085 0.19905 0.0
O363 O 0.65245 0.65381 0.19554 0.0
Co364 Co 0.11174 0.89279 0.96158 0.0
O365 O 0.13955 0.91068 0.96443 0.0
O366 O 0.12753 0.882 0.97598 0.0
C367 C 0.11823 0.8871 0.94176 0.0
O368 O 0.08496 0.86937 0.96117 0.0
Co369 Co 0.07372 0.90948 0.94358 0.0
O370 O 0.06171 0.87748 0.9455 0.0
C371 C 0.07835 0.93199 0.96729 0.0
C372 C 0.14337 0.89742 0.97362 0.0
C373 C 0.06791 0.86432 0.95412 0.0
O374 O 0.09224 0.91591 0.971 0.0
O375 O 0.07136 0.93358 0.95641 0.0
O376 O 0.12842 0.87397 0.94965 0.0
O377 O 0.10627 0.90395 0.94611 0.0
Co378 Co 0.86834 0.35936 0.71114 0.0
O379 O 0.84959 0.3866 0.71413 0.0
O380 O 0.87898 0.37545 0.72544 0.0
C381 C 0.87337 0.36603 0.69128 0.0
O382 O 0.89264 0.33337 0.71068 0.0
Co383 Co 0.85303 0.32062 0.69327 0.0
O384 O 0.88541 0.30965 0.6951 0.0
C385 C 0.83008 0.32507 0.7169 0.0
C386 C 0.86296 0.39076 0.72325 0.0
C387 C 0.89834 0.31643 0.70369 0.0
O388 O 0.84588 0.33924 0.72065 0.0
O389 O 0.82882 0.31791 0.70605 0.0
O390 O 0.88635 0.37663 0.69909 0.0
O391 O 0.85708 0.35344 0.69573 0.0
Co392 Co 0.40033 0.88977 0.04343 0.0
O393 O 0.3725 0.90791 0.04103 0.0
O394 O 0.38353 0.87905 0.02934 0.0
C395 C 0.39512 0.8844 0.06339 0.0
O396 O 0.42688 0.86604 0.0434 0.0
Co397 Co 0.43979 0.90643 0.06055 0.0
O398 O 0.45288 0.87514 0.05773 0.0
C399 C 0.43302 0.92913 0.03709 0.0
C400 C 0.36804 0.8947 0.03189 0.0
C401 C 0.44531 0.8616 0.04957 0.0
O402 O 0.41929 0.91274 0.0336 0.0
O403 O 0.44061 0.93087 0.04785 0.0
O404 O 0.38429 0.87127 0.05574 0.0
O405 O 0.40699 0.90104 0.05876 0.0
Co406 Co 0.86571 0.64743 0.79277 0.0
O407 O 0.84757 0.6198 0.78975 0.0
O408 O 0.8772 0.6312 0.77868 0.0
C409 C 0.87013 0.64139 0.81271 0.0
O410 O 0.88948 0.67389 0.79335 0.0
Co411 Co 0.84847 0.6862 0.81017 0.0
O412 O 0.87999 0.69918 0.80793 0.0
C413 C 0.82673 0.68043 0.78637 0.0
C414 C 0.86132 0.61568 0.78078 0.0
C415 C 0.8938 0.69196 0.79982 0.0
O416 O 0.84327 0.66689 0.78288 0.0
O417 O 0.82456 0.68751 0.7972 0.0
O418 O 0.88358 0.63082 0.80511 0.0
O419 O 0.85371 0.65347 0.80802 0.0
Co420 Co 0.11029 0.11678 0.54409 0.0
O421 O 0.13794 0.09847 0.54145 0.0
O422 O 0.12651 0.12716 0.52975 0.0
C423 C 0.11639 0.12257 0.56394 0.0
O424 O 0.08386 0.14063 0.54426 0.0
Co425 Co 0.07157 0.10068 0.56181 0.0
O426 O 0.05874 0.1321 0.55909 0.0
C427 C 0.07686 0.07762 0.53832 0.0
C428 C 0.14207 0.11152 0.53221 0.0
C429 C 0.06588 0.14539 0.55072 0.0
O430 O 0.09074 0.09371 0.53461 0.0
O431 O 0.06972 0.07619 0.54917 0.0
O432 O 0.12696 0.13547 0.55609 0.0
O433 O 0.10428 0.10587 0.55956 0.0
Co434 Co 0.64221 0.36132 0.29353 0.0
O435 O 0.66061 0.3887 0.29035 0.0
O436 O 0.63141 0.37687 0.27909 0.0
C437 C 0.63691 0.36854 0.31332 0.0
O438 O 0.61835 0.33496 0.29421 0.0
Co439 Co 0.65829 0.32352 0.31178 0.0
O440 O 0.6262 0.31175 0.30993 0.0
C441 C 0.68066 0.32698 0.28795 0.0
C442 C 0.64722 0.39246 0.28119 0.0
C443 C 0.6131 0.31802 0.3013 0.0
O444 O 0.66489 0.34117 0.28419 0.0
O445 O 0.68211 0.32016 0.29886 0.0
O446 O 0.62387 0.3787 0.30539 0.0
O447 O 0.65349 0.35613 0.30902 0.0
H448 H 0.92365 0.56394 0.98689 0.0
H449 H 0.94613 0.53654 0.99931 0.0
H450 H 0.00559 0.54656 0.97642 0.0
H451 H 0.98369 0.57366 0.96421 0.0
H452 H 0.96777 0.4946 0.9903 0.0
H453 H 0.03256 0.55429 0.01029 0.0
H454 H 0.00558 0.56436 0.00391 0.0
H455 H 0.02959 0.55717 0.99432 0.0
C456 C 0.94161 0.56055 0.98467 0.0
C457 C 0.95181 0.57087 0.97453 0.0
C458 C 0.9544 0.54486 0.99171 0.0
C459 C 0.97761 0.53971 0.98883 0.0
C460 C 0.98787 0.55052 0.97893 0.0
H461 H 0.08493 0.44516 0.01602 0.0
H462 H 0.06286 0.47211 0.00313 0.0
C463 C 0.97518 0.5659 0.97189 0.0
C464 C 0.99099 0.52201 0.99556 0.0
H465 H 0.04097 0.5139 0.0115 0.0
C466 C 0.98365 0.49883 0.99504 0.0
C467 C 0.01193 0.52752 1.00154 0.0
C468 C 0.02032 0.55221 0.00266 0.0
C469 C 0.99684 0.48098 1.00023 0.0
C470 C 0.01774 0.4865 0.00626 0.0
C471 C 0.02511 0.50967 0.00674 0.0
C472 C 0.03087 0.46887 0.01317 0.0
C473 C 0.98845 0.45629 0.99908 0.0
C474 C 0.02018 0.45815 0.02298 0.0
C475 C 0.03261 0.44303 0.03027 0.0
C476 C 0.05616 0.43826 0.028 0.0
C477 C 0.0668 0.44841 0.01794 0.0
C478 C 0.05426 0.46384 0.01064 0.0
H479 H 0.97661 0.45417 0.99129 0.0
H480 H 1.00321 0.44407 0.99807 0.0
H481 H 0.97871 0.45148 0.0073 0.0
H482 H 1.00232 0.46204 0.02524 0.0
H483 H 0.0238 0.43538 0.0379 0.0
H484 H 0.67331 0.69382 0.24045 0.0
H485 H 0.69872 0.71884 0.25262 0.0
H486 H 0.74863 0.72055 0.22382 0.0
H487 H 0.72346 0.69601 0.21167 0.0
H488 H 0.74631 0.71582 0.26008 0.0
H489 H 0.73212 0.78928 0.22875 0.0
H490 H 0.7143 0.76354 0.22862 0.0
H491 H 0.74242 0.7633 0.22165 0.0
C492 C 0.68994 0.69912 0.23685 0.0
C493 C 0.69627 0.6932 0.22506 0.0
C494 C 0.70435 0.71353 0.24376 0.0
C495 C 0.72523 0.7221 0.23896 0.0
C496 C 0.73231 0.7147 0.22756 0.0
H497 H 0.83508 0.81487 0.26356 0.0
H498 H 0.80928 0.79051 0.25126 0.0
C499 C 0.71795 0.70053 0.22067 0.0
C500 C 0.73937 0.73941 0.24558 0.0
H501 H 0.76116 0.79448 0.24364 0.0
C502 C 0.74944 0.73306 0.25654 0.0
C503 C 0.74351 0.76189 0.24089 0.0
C504 C 0.73236 0.77005 0.22939 0.0
C505 C 0.76392 0.74842 0.26284 0.0
C506 C 0.76809 0.77088 0.25814 0.0
C507 C 0.75801 0.77725 0.24719 0.0
C508 C 0.78234 0.78812 0.26474 0.0
C509 C 0.775 0.74032 0.27437 0.0
C510 C 0.77516 0.79583 0.27606 0.0
C511 C 0.78972 0.80965 0.28302 0.0
C512 C 0.81173 0.81628 0.27878 0.0
C513 C 0.81819 0.81013 0.26704 0.0
C514 C 0.80355 0.79609 0.26006 0.0
H515 H 0.77496 0.72111 0.27512 0.0
H516 H 0.79317 0.74657 0.27506 0.0
H517 H 0.76513 0.74741 0.28209 0.0
H518 H 0.75862 0.79039 0.27971 0.0
H519 H 0.78415 0.81433 0.29199 0.0
H520 H 0.56381 0.4223 0.49104 0.0
H521 H 0.5389 0.44791 0.50316 0.0
H522 H 0.54139 0.49969 0.47528 0.0
H523 H 0.56589 0.47434 0.46319 0.0
H524 H 0.54288 0.4957 0.51136 0.0
H525 H 0.47164 0.484 0.47838 0.0
H526 H 0.49687 0.46547 0.47873 0.0
H527 H 0.49853 0.49375 0.472 0.0
C528 C 0.55953 0.43939 0.48767 0.0
C529 C 0.56658 0.44623 0.47613 0.0
C530 C 0.54517 0.45392 0.49454 0.0
C531 C 0.53778 0.4754 0.48994 0.0
C532 C 0.54638 0.48294 0.47885 0.0
H533 H 0.44407 0.5853 0.51362 0.0
H534 H 0.46917 0.55971 0.50159 0.0
C535 C 0.56052 0.46848 0.472 0.0
C536 C 0.52025 0.48961 0.49635 0.0
H537 H 0.46567 0.51224 0.49356 0.0
C538 C 0.52595 0.4992 0.50752 0.0
C539 C 0.4982 0.49425 0.49127 0.0
C540 C 0.49079 0.48369 0.47948 0.0
C541 C 0.51035 0.5137 0.51365 0.0
C542 C 0.48829 0.51832 0.50857 0.0
C543 C 0.48259 0.50873 0.4974 0.0
C544 C 0.47074 0.53253 0.51498 0.0
C545 C 0.51781 0.52432 0.52541 0.0
C546 C 0.46234 0.52516 0.52613 0.0
C547 C 0.44812 0.53961 0.53294 0.0
C548 C 0.44174 0.56168 0.52869 0.0
C549 C 0.44861 0.56835 0.51709 0.0
C550 C 0.46307 0.55383 0.51027 0.0
H551 H 0.53697 0.52415 0.52646 0.0
H552 H 0.51159 0.54248 0.5262 0.0
H553 H 0.51025 0.51417 0.53292 0.0
H554 H 0.46752 0.50853 0.52979 0.0
H555 H 0.44289 0.53389 0.5418 0.0
H556 H 0.78608 0.31202 0.71183 0.0
H557 H 0.76024 0.28842 0.72408 0.0
H558 H 0.80985 0.29007 0.75304 0.0
H559 H 0.83582 0.31421 0.74078 0.0
H560 H 0.77146 0.24497 0.73209 0.0
H561 H 0.74868 0.30222 0.77038 0.0
H562 H 0.76131 0.31319 0.75668 0.0
H563 H 0.77926 0.29926 0.76773 0.0
C564 C 0.79131 0.3078 0.72091 0.0
C565 C 0.81303 0.31493 0.72534 0.0
C566 C 0.77653 0.29423 0.72789 0.0
C567 C 0.78307 0.28741 0.73947 0.0
C568 C 0.80428 0.29539 0.74418 0.0
H569 H 0.72342 0.19547 0.79204 0.0
H570 H 0.74894 0.21915 0.77965 0.0
C571 C 0.8191 0.30922 0.73719 0.0
C572 C 0.7684 0.27054 0.7461 0.0
H573 H 0.73709 0.26287 0.77179 0.0
C574 C 0.76387 0.24891 0.74076 0.0
C575 C 0.7585 0.27569 0.75739 0.0
C576 C 0.76197 0.29892 0.76336 0.0
C577 C 0.75001 0.23217 0.74647 0.0
C578 C 0.74016 0.23731 0.75777 0.0
C579 C 0.74466 0.25894 0.76311 0.0
C580 C 0.72566 0.22037 0.76445 0.0
C581 C 0.74649 0.20895 0.7405 0.0
C582 C 0.70431 0.21247 0.75988 0.0
C583 C 0.68965 0.19862 0.76695 0.0
C584 C 0.69605 0.19279 0.77873 0.0
C585 C 0.71792 0.19979 0.78301 0.0
C586 C 0.73253 0.2134 0.77596 0.0
H587 H 0.75956 0.20574 0.73337 0.0
H588 H 0.74745 0.19467 0.74717 0.0
H589 H 0.72905 0.20851 0.7363 0.0
H590 H 0.69851 0.21789 0.75107 0.0
H591 H 0.67281 0.19371 0.76348 0.0
H592 H 0.94288 0.42317 0.51352 0.0
H593 H 0.9676 0.44871 0.50125 0.0
H594 H 0.96835 0.49923 0.52977 0.0
H595 H 0.94404 0.47399 0.542 0.0
H596 H 0.96385 0.49693 0.49374 0.0
H597 H 0.0375 0.48252 0.52496 0.0
H598 H 0.01194 0.46442 0.52493 0.0
H599 H 0.01132 0.49239 0.53205 0.0
C600 C 0.94788 0.43996 0.51702 0.0
C601 C 0.94176 0.44646 0.52876 0.0
C602 C 0.96212 0.45445 0.51006 0.0
C603 C 0.97033 0.47555 0.51476 0.0
C604 C 0.96273 0.48276 0.5261 0.0
H605 H 0.0644 0.58484 0.49064 0.0
H606 H 0.0395 0.55924 0.50277 0.0
C607 C 0.9487 0.46836 0.53304 0.0
C608 C 0.98758 0.48975 0.50815 0.0
H609 H 0.04268 0.51144 0.51004 0.0
C610 C 0.98113 0.49999 0.49724 0.0
C611 C 0.01009 0.49382 0.5128 0.0
C612 C 0.01827 0.48257 0.52428 0.0
C613 C 0.99644 0.51457 0.49097 0.0
C614 C 0.01897 0.51863 0.49562 0.0
C615 C 0.02541 0.50838 0.50653 0.0
C616 C 0.03622 0.53288 0.48903 0.0
C617 C 0.9882 0.5259 0.47953 0.0
C618 C 0.04356 0.52597 0.4776 0.0
C619 C 0.05767 0.54043 0.47073 0.0
C620 C 0.06498 0.56207 0.47518 0.0
C621 C 0.0591 0.56825 0.487 0.0
C622 C 0.04476 0.55373 0.49388 0.0
H623 H 0.96897 0.52612 0.47893 0.0
H624 H 0.99467 0.54399 0.47884 0.0
H625 H 0.99493 0.516 0.47173 0.0
H626 H 0.03772 0.50968 0.47381 0.0
H627 H 0.06215 0.53503 0.46171 0.0
H628 H 0.67263 0.81483 0.74059 0.0
H629 H 0.69818 0.79021 0.75289 0.0
H630 H 0.74898 0.78992 0.72449 0.0
H631 H 0.72386 0.81439 0.71232 0.0
H632 H 0.71251 0.74534 0.74531 0.0
H633 H 0.78864 0.80144 0.75429 0.0
H634 H 0.76089 0.81296 0.7497 0.0
H635 H 0.78029 0.80069 0.73877 0.0
C636 C 0.68956 0.81009 0.73717 0.0
C637 C 0.69625 0.81651 0.72551 0.0
C638 C 0.70405 0.7959 0.74414 0.0
C639 C 0.72555 0.78834 0.73962 0.0
C640 C 0.73268 0.7958 0.72824 0.0
H641 H 0.83414 0.69249 0.7628 0.0
H642 H 0.80854 0.71666 0.7503 0.0
C643 C 0.71822 0.80973 0.72128 0.0
C644 C 0.73968 0.77092 0.74616 0.0
H645 H 0.79373 0.76092 0.75758 0.0
C646 C 0.7302 0.7488 0.7481 0.0
C647 C 0.76286 0.77534 0.74962 0.0
C648 C 0.77374 0.79896 0.7481 0.0
C649 C 0.74339 0.73089 0.75325 0.0
C650 C 0.76658 0.73533 0.75673 0.0
C651 C 0.77605 0.75744 0.75478 0.0
C652 C 0.78069 0.71795 0.76331 0.0
C653 C 0.73252 0.70727 0.75473 0.0
C654 C 0.7733 0.71023 0.77461 0.0
C655 C 0.78777 0.69651 0.78168 0.0
C656 C 0.81003 0.69023 0.77765 0.0
C657 C 0.81699 0.69683 0.76606 0.0
C658 C 0.80247 0.71079 0.75898 0.0
H659 H 0.71787 0.7047 0.74838 0.0
H660 H 0.74543 0.69326 0.7533 0.0
H661 H 0.72557 0.70563 0.76398 0.0
H662 H 0.7568 0.71582 0.77824 0.0
H663 H 0.78193 0.69171 0.79058 0.0
H664 H 0.44143 0.42358 0.9911 0.0
H665 H 0.46619 0.44889 0.00346 0.0
H666 H 0.46933 0.49853 0.97456 0.0
H667 H 0.44468 0.4737 0.96235 0.0
H668 H 0.51169 0.46176 0.99666 0.0
H669 H 0.45726 0.53984 0.00354 0.0
H670 H 0.44528 0.51228 0.99897 0.0
H671 H 0.45895 0.53093 0.98814 0.0
C672 C 0.44683 0.44022 0.98756 0.0
C673 C 0.44112 0.44665 0.97576 0.0
C674 C 0.46112 0.45457 0.99458 0.0
C675 C 0.4695 0.47569 0.98996 0.0
C676 C 0.4628 0.48255 0.97841 0.0
H677 H 0.56724 0.58266 0.01322 0.0
H678 H 0.54291 0.55717 1.00074 0.0
C679 C 0.44877 0.46825 0.97141 0.0
C680 C 0.48689 0.48968 0.99662 0.0
H681 H 0.49772 0.54407 0.00742 0.0
C682 C 0.50856 0.47969 0.99913 0.0
C683 C 0.48293 0.51318 0.99965 0.0
C684 C 0.45977 0.52466 0.99754 0.0
C685 C 0.52649 0.49266 0.00442 0.0
C686 C 0.52253 0.51616 0.00746 0.0
C687 C 0.50086 0.52614 0.00495 0.0
C688 C 0.53989 0.53016 0.01415 0.0
C689 C 0.54966 0.48119 0.00652 0.0
C690 C 0.54666 0.52322 0.02568 0.0
C691 C 0.56047 0.53763 0.03274 0.0
C692 C 0.5678 0.55941 0.02848 0.0
C693 C 0.56209 0.56589 0.01668 0.0
C694 C 0.54804 0.55143 0.0096 0.0
H695 H 0.55222 0.4661 1.00046 0.0
H696 H 0.56415 0.49359 0.00515 0.0
H697 H 0.55044 0.47477 0.01589 0.0
H698 H 0.5403 0.50714 0.02947 0.0
H699 H 0.56456 0.53214 0.0418 0.0
H700 H 0.78372 0.19634 0.21198 0.0
H701 H 0.75914 0.22088 0.22442 0.0
H702 H 0.80741 0.21402 0.25376 0.0
H703 H 0.83252 0.1895 0.2412 0.0
H704 H 0.73733 0.21553 0.24646 0.0
H705 H 0.80466 0.28448 0.24796 0.0
H706 H 0.80649 0.26003 0.2379 0.0
H707 H 0.81362 0.25661 0.25349 0.0
C708 C 0.78901 0.19973 0.22115 0.0
C709 C 0.81023 0.19119 0.22557 0.0
C710 C 0.7749 0.21378 0.22825 0.0
C711 C 0.78169 0.21973 0.23991 0.0
C712 C 0.8021 0.21001 0.24468 0.0
H713 H 0.72374 0.31087 0.293 0.0
H714 H 0.74812 0.28619 0.28054 0.0
C715 C 0.81628 0.19578 0.23755 0.0
C716 C 0.76783 0.23703 0.2467 0.0
H717 H 0.76986 0.29172 0.25847 0.0
C718 C 0.74442 0.23219 0.2491 0.0
C719 C 0.77706 0.25887 0.25 0.0
C720 C 0.80177 0.2655 0.24713 0.0
C721 C 0.73012 0.24839 0.25494 0.0
C722 C 0.73937 0.27021 0.25824 0.0
C723 C 0.76277 0.27506 0.25583 0.0
C724 C 0.72553 0.28748 0.26507 0.0
C725 C 0.70541 0.24177 0.25779 0.0
C726 C 0.70516 0.2973 0.26033 0.0
C727 C 0.69108 0.31162 0.26746 0.0
C728 C 0.69721 0.31619 0.27944 0.0
C729 C 0.71838 0.30749 0.28384 0.0
C730 C 0.73239 0.29337 0.27673 0.0
H731 H 0.70248 0.2228 0.25692 0.0
H732 H 0.70072 0.24717 0.26704 0.0
H733 H 0.69356 0.25074 0.25146 0.0
H734 H 0.6998 0.29335 0.25124 0.0
H735 H 0.67488 0.31803 0.26383 0.0
H736 H 0.33644 0.31447 0.7637 0.0
H737 H 0.31103 0.28999 0.75124 0.0
H738 H 0.25927 0.29063 0.77917 0.0
H739 H 0.28428 0.31492 0.79151 0.0
H740 H 0.29573 0.24531 0.75882 0.0
H741 H 0.22091 0.30254 0.74889 0.0
H742 H 0.24871 0.31365 0.75365 0.0
H743 H 0.22876 0.30197 0.76447 0.0
C744 C 0.31934 0.30997 0.76699 0.0
C745 C 0.31233 0.31661 0.77856 0.0
C746 C 0.30493 0.29585 0.75992 0.0
C747 C 0.28319 0.28859 0.76426 0.0
C748 C 0.27577 0.29627 0.77555 0.0
H749 H 0.17433 0.19293 0.74137 0.0
H750 H 0.20013 0.21729 0.75366 0.0
C751 C 0.29015 0.3101 0.78262 0.0
C752 C 0.26904 0.27132 0.75762 0.0
H753 H 0.2152 0.26202 0.74576 0.0
C754 C 0.27821 0.24902 0.75585 0.0
C755 C 0.24606 0.27608 0.75392 0.0
C756 C 0.23556 0.29992 0.75522 0.0
C757 C 0.26488 0.23126 0.75064 0.0
C758 C 0.24188 0.23601 0.74697 0.0
C759 C 0.23273 0.25832 0.74872 0.0
C760 C 0.22761 0.21868 0.74044 0.0
C761 C 0.27537 0.20743 0.74931 0.0
C762 C 0.23473 0.211 0.72909 0.0
C763 C 0.22011 0.19723 0.72212 0.0
C764 C 0.19802 0.19079 0.72633 0.0
C765 C 0.19136 0.19738 0.73797 0.0
C766 C 0.20599 0.21144 0.74493 0.0
H767 H 0.29022 0.20487 0.75552 0.0
H768 H 0.26227 0.19371 0.75103 0.0
H769 H 0.28187 0.20529 0.74 0.0
H770 H 0.25114 0.21662 0.72536 0.0
H771 H 0.22571 0.19245 0.71317 0.0
H772 H 0.22519 0.69584 0.29238 0.0
H773 H 0.24999 0.72018 0.27998 0.0
H774 H 0.20137 0.71437 0.25073 0.0
H775 H 0.17602 0.69006 0.26329 0.0
H776 H 0.27168 0.71507 0.25801 0.0
H777 H 0.20498 0.78464 0.25662 0.0
H778 H 0.20284 0.76006 0.26659 0.0
H779 H 0.19578 0.75694 0.25096 0.0
C780 C 0.21987 0.69941 0.28324 0.0
C781 C 0.19848 0.69123 0.27886 0.0
C782 C 0.23412 0.71335 0.27616 0.0
C783 C 0.2273 0.71957 0.26454 0.0
C784 C 0.20671 0.71018 0.25979 0.0
H785 H 0.28642 0.81088 0.2118 0.0
H786 H 0.26177 0.78623 0.22413 0.0
C787 C 0.19239 0.69605 0.2669 0.0
C788 C 0.24135 0.73681 0.25779 0.0
H789 H 0.23989 0.79166 0.24617 0.0
C790 C 0.26474 0.73181 0.25541 0.0
C791 C 0.23234 0.75877 0.25454 0.0
C792 C 0.20768 0.76561 0.25738 0.0
C793 C 0.27923 0.74796 0.24966 0.0
C794 C 0.27021 0.76991 0.2464 0.0
C795 C 0.24682 0.77492 0.24878 0.0
C796 C 0.28425 0.78715 0.23965 0.0
C797 C 0.30391 0.74118 0.24685 0.0
C798 C 0.30468 0.79677 0.24446 0.0
C799 C 0.3189 0.81108 0.2374 0.0
C800 C 0.31289 0.81586 0.22543 0.0
C801 C 0.29169 0.80735 0.22096 0.0
C802 C 0.27753 0.79324 0.228 0.0
H803 H 0.30668 0.72217 0.24767 0.0
H804 H 0.30873 0.74663 0.23762 0.0
H805 H 0.31577 0.74999 0.25323 0.0
H806 H 0.30995 0.79265 0.25354 0.0
H807 H 0.33513 0.81732 0.24108 0.0
H808 H 0.32345 0.23357 0.28839 0.0
H809 H 0.29619 0.25496 0.27602 0.0
H810 H 0.28663 0.1948 0.25356 0.0
H811 H 0.3141 0.17284 0.26618 0.0
H812 H 0.29584 0.26554 0.2517 0.0
H813 H 0.22026 0.2112 0.26484 0.0
H814 H 0.24763 0.21 0.27268 0.0
H815 H 0.24445 0.19598 0.25838 0.0
C816 C 0.31567 0.22478 0.2808 0.0
C817 C 0.3207 0.20134 0.27837 0.0
C818 C 0.30012 0.23713 0.2737 0.0
C819 C 0.28906 0.22641 0.26401 0.0
C820 C 0.29471 0.20328 0.26116 0.0
H821 H 0.18515 0.27473 0.21498 0.0
H822 H 0.21265 0.25311 0.2271 0.0
C823 C 0.31052 0.19082 0.26828 0.0
C824 C 0.27121 0.23963 0.25726 0.0
H825 H 0.21309 0.24209 0.25147 0.0
C826 C 0.27775 0.26041 0.25162 0.0
C827 C 0.24758 0.23304 0.25732 0.0
C828 C 0.23941 0.21145 0.2637 0.0
C829 C 0.26135 0.27459 0.24586 0.0
C830 C 0.23772 0.26802 0.24593 0.0
C831 C 0.23119 0.24722 0.25155 0.0
C832 C 0.21984 0.28137 0.23928 0.0
C833 C 0.26951 0.2962 0.23949 0.0
C834 C 0.21418 0.30441 0.2423 0.0
C835 C 0.19823 0.317 0.23533 0.0
C836 C 0.18792 0.30671 0.22521 0.0
C837 C 0.19303 0.28336 0.22259 0.0
C838 C 0.20871 0.27087 0.22955 0.0
H839 H 0.28865 0.29643 0.23832 0.0
H840 H 0.26123 0.2977 0.23053 0.0
H841 H 0.2645 0.31165 0.24483 0.0
H842 H 0.22232 0.31271 0.24993 0.0
H843 H 0.1946 0.33491 0.23759 0.0
H844 H 0.17402 0.81572 0.76388 0.0
H845 H 0.19988 0.79154 0.75151 0.0
H846 H 0.24879 0.78793 0.78071 0.0
H847 H 0.22327 0.81175 0.79303 0.0
H848 H 0.24907 0.79527 0.74493 0.0
H849 H 0.23076 0.71937 0.77413 0.0
H850 H 0.21306 0.7452 0.77423 0.0
H851 H 0.24041 0.74484 0.78196 0.0
C852 C 0.19054 0.81022 0.76753 0.0
C853 C 0.19648 0.81539 0.77947 0.0
C854 C 0.20521 0.79629 0.7605 0.0
C855 C 0.22594 0.78745 0.76534 0.0
C856 C 0.23262 0.79409 0.77691 0.0
H857 H 0.3346 0.69286 0.74069 0.0
H858 H 0.30923 0.71761 0.75304 0.0
C859 C 0.21804 0.80782 0.78391 0.0
C860 C 0.24024 0.77048 0.7586 0.0
H861 H 0.26048 0.71474 0.7596 0.0
C862 C 0.25147 0.77763 0.74809 0.0
C863 C 0.24345 0.7475 0.7628 0.0
C864 C 0.23115 0.73863 0.77384 0.0
C865 C 0.26614 0.76252 0.74174 0.0
C866 C 0.26931 0.73952 0.74593 0.0
C867 C 0.25811 0.73238 0.75646 0.0
C868 C 0.28344 0.72246 0.73914 0.0
C869 C 0.27848 0.77142 0.73072 0.0
C870 C 0.27673 0.7161 0.72753 0.0
C871 C 0.29103 0.70205 0.72054 0.0
C872 C 0.31233 0.69387 0.72504 0.0
C873 C 0.31829 0.69885 0.737 0.0
C874 C 0.30391 0.7131 0.74401 0.0
H875 H 0.27913 0.79068 0.73054 0.0
H876 H 0.29647 0.76461 0.73025 0.0
H877 H 0.26905 0.76552 0.7226 0.0
H878 H 0.26072 0.72262 0.72371 0.0
H879 H 0.28576 0.69827 0.71142 0.0
H880 H 0.55941 0.97136 0.54267 0.0
H881 H 0.53508 0.99614 0.53026 0.0
H882 H 0.54271 0.94862 0.50064 0.0
H883 H 0.56704 0.92326 0.51319 0.0
H884 H 0.54121 0.01854 0.50851 0.0
H885 H 0.47208 0.95152 0.50575 0.0
H886 H 0.49617 0.94924 0.51602 0.0
H887 H 0.50012 0.94272 0.50039 0.0
C888 C 0.5562 0.96624 0.53346 0.0
C889 C 0.56493 0.94517 0.52895 0.0
C890 C 0.54227 0.98049 0.52637 0.0
C891 C 0.53663 0.974 0.51463 0.0
C892 C 0.54647 0.9537 0.50979 0.0
H893 H 0.44672 0.03409 0.46158 0.0
H894 H 0.47091 0.00914 0.47397 0.0
C895 C 0.56058 0.93937 0.51691 0.0
C896 C 0.5196 0.98815 0.5078 0.0
H897 H 0.4652 0.98682 0.49565 0.0
C898 C 0.5246 0.01162 0.50568 0.0
C899 C 0.49782 0.97914 0.50425 0.0
C900 C 0.49104 0.95434 0.50679 0.0
C901 C 0.5086 0.02623 0.49989 0.0
C902 C 0.48681 0.01723 0.49635 0.0
C903 C 0.48182 0.99374 0.49847 0.0
C904 C 0.46975 0.03141 0.48957 0.0
C905 C 0.51543 0.05101 0.49734 0.0
C906 C 0.46012 0.05181 0.4944 0.0
C907 C 0.4461 0.06624 0.48729 0.0
C908 C 0.44161 0.06043 0.47526 0.0
C909 C 0.45005 0.03922 0.47078 0.0
C910 C 0.4639 0.02488 0.47785 0.0
H911 H 0.53442 0.05375 0.49829 0.0
H912 H 0.51016 0.05615 0.48814 0.0
H913 H 0.50651 0.06264 0.50379 0.0
H914 H 0.46401 0.05692 0.50353 0.0
H915 H 0.43988 0.08246 0.49099 0.0
H916 H 0.06604 0.92483 0.99084 0.0
H917 H 0.04034 0.94971 0.0029 0.0
H918 H 0.04087 1.00116 0.97483 0.0
H919 H 0.0661 0.97647 0.96277 0.0
H920 H 0.04252 0.99691 0.01112 0.0
H921 H 0.97186 0.98391 0.97796 0.0
H922 H 0.99771 0.96626 0.97817 0.0
H923 H 0.99836 0.99476 0.97163 0.0
C924 C 0.06114 0.9417 0.98741 0.0
C925 C 0.06786 0.94861 0.97582 0.0
C926 C 0.04633 0.95581 0.99425 0.0
C927 C 0.03816 0.97696 0.98958 0.0
C928 C 0.04643 0.98464 0.97845 0.0
H929 H 0.94224 0.08418 0.01402 0.0
H930 H 0.96774 0.05941 1.00177 0.0
C931 C 0.061 0.97057 0.97162 0.0
C932 C 0.02022 0.99062 0.996 0.0
H933 H 0.96503 0.01177 0.99324 0.0
C934 C 0.02554 1.00006 0.00726 0.0
C935 C 0.99807 0.99476 0.9909 0.0
C936 C 0.99101 0.98423 0.97905 0.0
C937 C 0.00947 0.01391 0.01346 0.0
C938 C 0.98735 0.01806 0.00835 0.0
C939 C 0.98202 0.00863 0.9971 0.0
C940 C 0.96939 0.03164 0.01481 0.0
C941 C 0.01648 0.02435 0.02534 0.0
C942 C 0.9609 0.02363 0.02583 0.0
C943 C 0.94643 0.03761 0.03276 0.0
C944 C 0.93993 0.05983 0.02877 0.0
C945 C 0.94686 0.06709 0.01728 0.0
C946 C 0.96155 0.05305 0.01034 0.0
H947 H 0.03561 0.02452 0.0265 0.0
H948 H 0.0099 0.04238 0.0262 0.0
H949 H 0.00892 0.01389 0.03273 0.0
H950 H 0.96625 0.00691 0.0293 0.0
H951 H 0.94117 0.03144 0.04154 0.0
H952 H 0.56453 0.08509 0.99069 0.0
H953 H 0.54061 0.05899 0.00304 0.0
H954 H 0.53818 0.00974 0.97395 0.0
H955 H 0.56196 0.0354 0.96171 0.0
H956 H 0.49514 0.04504 0.99612 0.0
H957 H 0.55188 0.96855 0.00296 0.0
H958 H 0.56306 0.99654 0.99856 0.0
H959 H 0.54999 0.97774 0.9876 0.0
C960 C 0.55946 0.06838 0.9871 0.0
C961 C 0.5651 0.06229 0.97524 0.0
C962 C 0.54566 0.05358 0.99411 0.0
C963 C 0.53772 0.03236 0.98943 0.0
C964 C 0.54437 0.02582 0.97782 0.0
H965 H 0.44343 0.92276 0.01321 0.0
H966 H 0.46678 0.94883 1.00056 0.0
C967 C 0.55791 0.04059 0.97082 0.0
C968 C 0.52077 0.01789 0.99611 0.0
H969 H 0.51167 0.96332 0.00708 0.0
C970 C 0.49882 0.02724 0.99862 0.0
C971 C 0.52546 0.99455 0.99919 0.0
C972 C 0.54894 0.98377 0.99704 0.0
C973 C 0.48133 0.0138 0.00398 0.0
C974 C 0.48603 0.99047 0.00709 0.0
C975 C 0.50798 0.98111 0.00456 0.0
C976 C 0.46918 0.97606 0.01388 0.0
C977 C 0.45783 0.02457 0.00608 0.0
C978 C 0.46238 0.98293 0.02541 0.0
C979 C 0.44914 0.96819 0.03258 0.0
C980 C 0.44242 0.94616 0.02841 0.0
C981 C 0.44812 0.93972 0.01661 0.0
C982 C 0.46161 0.95451 0.00943 0.0
H983 H 0.45478 0.03951 0.99998 0.0
H984 H 0.44372 0.01171 0.00477 0.0
H985 H 0.45689 0.03106 0.01544 0.0
H986 H 0.46831 0.99925 0.02913 0.0
H987 H 0.44503 0.97364 0.04164 0.0
H988 H 0.06746 0.08309 0.51423 0.0
H989 H 0.04297 0.05758 0.50182 0.0
H990 H 0.03842 0.00877 0.53103 0.0
H991 H 0.06256 0.03394 0.54338 0.0
H992 H 0.04603 0.00833 0.49527 0.0
H993 H 0.97016 0.02778 0.52429 0.0
H994 H 0.99624 0.04511 0.52444 0.0
H995 H 0.99543 0.01778 0.53217 0.0
C996 C 0.06168 0.06666 0.51787 0.0
C997 C 0.0667 0.06066 0.52982 0.0
C998 C 0.04758 0.05219 0.51082 0.0
C999 C 0.03839 0.03161 0.51565 0.0
C1000 C 0.04484 0.02484 0.52724 0.0
H1001 H 0.94229 0.92433 0.49095 0.0
H1002 H 0.96732 0.94944 0.50329 0.0
C1003 C 0.05876 0.03922 0.53426 0.0
C1004 C 0.02126 0.01754 0.50888 0.0
H1005 H 0.96522 0.99812 0.50976 0.0
C1006 C 0.02834 0.0062 0.49838 0.0
C1007 C 0.9982 0.01468 0.51303 0.0
C1008 C 0.98942 0.02712 0.52404 0.0
C1009 C 0.01307 0.99173 0.49201 0.0
C1010 C 0.98998 0.98891 0.49614 0.0
C1011 C 0.98292 1.00023 0.50665 0.0
C1012 C 0.97278 0.97497 0.48933 0.0
C1013 C 0.0219 0.97923 0.48102 0.0
C1014 C 0.96668 0.98163 0.47767 0.0
C1015 C 0.95248 0.96748 0.47069 0.0
C1016 C 0.94387 0.94638 0.47523 0.0
C1017 C 0.9486 0.94049 0.48722 0.0
C1018 C 0.96301 0.95472 0.49424 0.0
H1019 H 0.04114 0.97828 0.4809 0.0
H1020 H 0.01481 0.96135 0.48054 0.0
H1021 H 0.01625 0.98875 0.47288 0.0
H1022 H 0.97351 0.99748 0.47383 0.0
H1023 H 0.9489 0.9727 0.46153 0.0
H1024 H 0.983 0.15509 0.0607 0.0
H1025 H 0.00409 0.19146 0.05888 0.0
H1026 H 0.95123 0.21813 0.03527 0.0
H1027 H 0.92993 0.18135 0.03688 0.0
H1028 H 0.99712 0.22938 0.02794 0.0
H1029 H 0.98268 0.25049 0.07588 0.0
H1030 H 0.99596 0.22268 0.07365 0.0
H1031 H 0.96698 0.22777 0.06827 0.0
C1032 C 0.97576 0.16858 0.05507 0.0
C1033 C 0.95453 0.1653 0.04905 0.0
C1034 C 0.98789 0.18944 0.05407 0.0
C1035 C 0.97904 0.2077 0.04714 0.0
C1036 C 0.95831 0.2043 0.04074 0.0
H1037 H 0.02172 0.34983 0.05782 0.0
H1038 H 1.00072 0.31352 0.0555 0.0
C1039 C 0.94614 0.18328 0.04168 0.0
C1040 C 0.99115 0.23048 0.047 0.0
H1041 H 0.01007 0.27372 0.06549 0.0
C1042 C 0.99986 0.2392 0.03612 0.0
C1043 C 0.99447 0.2434 0.05765 0.0
C1044 C 0.98434 0.23576 0.06951 0.0
C1045 C 0.01215 0.26031 0.03566 0.0
C1046 C 0.01621 0.27279 0.04642 0.0
C1047 C 0.0072 0.26412 0.05724 0.0
C1048 C 0.02887 0.29534 0.04675 0.0
C1049 C 0.02023 0.26923 0.02365 0.0
C1050 C 0.05176 0.29748 0.0425 0.0
C1051 C 0.06384 0.31852 0.04368 0.0
C1052 C 0.05339 0.33762 0.04938 0.0
C1053 C 0.03043 0.33542 0.0535 0.0
C1054 C 0.01833 0.31463 0.05216 0.0
H1055 H 0.01026 0.26134 0.01615 0.0
H1056 H 0.01854 0.28838 0.0231 0.0
H1057 H 0.03876 0.26464 0.02239 0.0
H1058 H 0.06053 0.28274 0.03855 0.0
H1059 H 0.08153 0.31962 0.04047 0.0
H1060 H 0.10002 0.73176 0.31044 0.0
H1061 H 0.06311 0.75178 0.30831 0.0
H1062 H 0.03957 0.69934 0.28359 0.0
H1063 H 0.0769 0.67911 0.28553 0.0
H1064 H 0.02758 0.74537 0.27663 0.0
H1065 H 1.00349 0.72796 0.32392 0.0
H1066 H 0.03113 0.74197 0.32241 0.0
H1067 H 0.0271 0.71319 0.31654 0.0
C1068 C 0.08711 0.72438 0.30451 0.0
C1069 C 0.09145 0.70358 0.29826 0.0
C1070 C 0.06593 0.73589 0.30333 0.0
C1071 C 0.04839 0.72685 0.29598 0.0
C1072 C 0.05283 0.70656 0.28938 0.0
H1073 H 0.90503 0.76854 0.30496 0.0
H1074 H 0.94115 0.74713 0.30266 0.0
C1075 C 0.07416 0.69499 0.29051 0.0
C1076 C 0.0253 0.73837 0.29557 0.0
H1077 H 0.98051 0.7556 0.31351 0.0
C1078 C 0.01716 0.74749 0.28466 0.0
C1079 C 0.01157 0.74087 0.30602 0.0
C1080 C 0.01862 0.73029 0.31786 0.0
C1081 C 0.99591 0.7595 0.284 0.0
C1082 C 0.98266 0.76284 0.29457 0.0
C1083 C 0.99068 0.75329 0.3054 0.0
C1084 C 0.96015 0.77561 0.29471 0.0
C1085 C 0.98771 0.76815 0.27195 0.0
C1086 C 0.95852 0.7988 0.29086 0.0
C1087 C 0.93762 0.81112 0.29203 0.0
C1088 C 0.91811 0.8006 0.29731 0.0
C1089 C 0.91974 0.77729 0.30095 0.0
C1090 C 0.94043 0.76497 0.29963 0.0
H1091 H 0.99605 0.75852 0.26446 0.0
H1092 H 0.9686 0.76652 0.27106 0.0
H1093 H 0.99239 0.78673 0.271 0.0
H1094 H 0.97359 0.80764 0.2873 0.0
H1095 H 0.93701 0.82909 0.28922 0.0
H1096 H 0.43471 0.67911 0.53285 0.0
H1097 H 0.45672 0.71507 0.52981 0.0
H1098 H 0.49818 0.69964 0.56099 0.0
H1099 H 0.47676 0.6638 0.564 0.0
H1100 H 0.46162 0.75269 0.54439 0.0
H1101 H 0.54782 0.7138 0.53643 0.0
H1102 H 0.52143 0.69695 0.53606 0.0
H1103 H 0.53524 0.70353 0.55016 0.0
C1104 C 0.4486 0.68331 0.53902 0.0
C1105 C 0.45399 0.66837 0.54863 0.0
C1106 C 0.46119 0.70387 0.53726 0.0
C1107 C 0.47949 0.70984 0.54501 0.0
C1108 C 0.48463 0.69514 0.55468 0.0
H1109 H 0.53559 0.84052 0.56549 0.0
H1110 H 0.51421 0.80466 0.56244 0.0
C1111 C 0.47216 0.67465 0.55644 0.0
C1112 C 0.49259 0.7319 0.54346 0.0
H1113 H 0.54758 0.75401 0.54236 0.0
C1114 C 0.4804 0.75296 0.54377 0.0
C1115 C 0.51708 0.73236 0.5424 0.0
C1116 C 0.53113 0.71043 0.54111 0.0
C1117 C 0.49206 0.77437 0.54373 0.0
C1118 C 0.51664 0.77477 0.54364 0.0
C1119 C 0.52878 0.75376 0.54263 0.0
C1120 C 0.52999 0.79665 0.54532 0.0
C1121 C 0.47789 0.79637 0.54389 0.0
C1122 C 0.54677 0.80377 0.53694 0.0
C1123 C 0.55936 0.82434 0.53872 0.0
C1124 C 0.55546 0.83812 0.54895 0.0
C1125 C 0.53894 0.8306 0.55742 0.0
C1126 C 0.5265 0.81011 0.55565 0.0
H1127 H 0.46044 0.79356 0.53992 0.0
H1128 H 0.47541 0.80205 0.55332 0.0
H1129 H 0.48668 0.81052 0.53889 0.0
H1130 H 0.54996 0.79353 0.52896 0.0
H1131 H 0.57196 0.82952 0.53203 0.0
H1132 H 0.59241 0.22451 0.81576 0.0
H1133 H 0.55612 0.24545 0.81322 0.0
H1134 H 0.54333 0.2089 0.78011 0.0
H1135 H 0.57967 0.18733 0.7827 0.0
H1136 H 0.54209 0.27468 0.79548 0.0
H1137 H 0.48301 0.19871 0.79823 0.0
H1138 H 0.51328 0.19697 0.80223 0.0
H1139 H 0.50477 0.19703 0.78672 0.0
C1140 C 0.58195 0.22078 0.80792 0.0
C1141 C 0.58904 0.20408 0.79945 0.0
C1142 C 0.56115 0.23287 0.80648 0.0
C1143 C 0.54682 0.22865 0.79654 0.0
C1144 C 0.55386 0.21217 0.78798 0.0
H1145 H 0.42847 0.32304 0.78296 0.0
H1146 H 0.4648 0.30149 0.78035 0.0
C1147 C 0.57471 0.19991 0.78945 0.0
C1148 C 0.52463 0.24169 0.79532 0.0
H1149 H 0.46572 0.2352 0.79509 0.0
C1150 C 0.52538 0.26606 0.79529 0.0
C1151 C 0.50282 0.23043 0.79518 0.0
C1152 C 0.50077 0.20436 0.79569 0.0
C1153 C 0.50499 0.27945 0.79544 0.0
C1154 C 0.48318 0.26819 0.79535 0.0
C1155 C 0.48243 0.24383 0.79508 0.0
C1156 C 0.46098 0.2812 0.79658 0.0
C1157 C 0.50703 0.3055 0.79623 0.0
C1158 C 0.44646 0.27668 0.80641 0.0
C1159 C 0.42567 0.28877 0.80787 0.0
C1160 C 0.41876 0.30577 0.79952 0.0
C1161 C 0.43327 0.31023 0.78962 0.0
C1162 C 0.45412 0.29797 0.78814 0.0
H1163 H 0.52474 0.31105 0.79891 0.0
H1164 H 0.50321 0.31318 0.78732 0.0
H1165 H 0.4944 0.31263 0.80279 0.0
H1166 H 0.45134 0.26386 0.81306 0.0
H1167 H 0.41505 0.2848 0.81562 0.0
H1168 H 0.93664 0.83065 0.47232 0.0
H1169 H 0.95854 0.79461 0.47534 0.0
H1170 H 0.99452 0.80595 0.44194 0.0
H1171 H 0.97322 0.84189 0.43894 0.0
H1172 H 0.96072 0.75528 0.4618 0.0
H1173 H 0.04811 0.79423 0.46449 0.0
H1174 H 0.02197 0.81135 0.46553 0.0
H1175 H 0.03324 0.80294 0.4511 0.0
C1176 C 0.94929 0.82552 0.46564 0.0
C1177 C 0.95326 0.83938 0.45544 0.0
C1178 C 0.96182 0.80492 0.46739 0.0
C1179 C 0.97861 0.79782 0.45901 0.0
C1180 C 0.9822 0.81137 0.44872 0.0
H1181 H 0.03125 0.66479 0.44015 0.0
H1182 H 0.01002 0.70075 0.44315 0.0
C1183 C 0.96982 0.83191 0.44699 0.0
C1184 C 0.99181 0.77584 0.46064 0.0
H1185 H 0.04668 0.7534 0.45996 0.0
C1186 C 0.97952 0.7549 0.46158 0.0
C1187 C 0.01638 0.77529 0.46059 0.0
C1188 C 0.03069 0.79719 0.46051 0.0
C1189 C 0.99107 0.73343 0.46178 0.0
C1190 C 0.01557 0.73282 0.46079 0.0
C1191 C 0.02791 0.7538 0.46054 0.0
C1192 C 0.02854 0.71068 0.45924 0.0
C1193 C 0.97687 0.71158 0.46298 0.0
C1194 C 0.04666 0.70452 0.46705 0.0
C1195 C 0.05913 0.68388 0.4653 0.0
C1196 C 0.0538 0.66908 0.45563 0.0
C1197 C 0.0358 0.67555 0.44776 0.0
C1198 C 0.02344 0.6961 0.44951 0.0
H1199 H 0.96014 0.71502 0.4676 0.0
H1200 H 0.97285 0.70475 0.45391 0.0
H1201 H 0.98641 0.69801 0.46804 0.0
H1202 H 0.05108 0.71563 0.47455 0.0
H1203 H 0.0729 0.67955 0.47151 0.0
H1204 H 0.59258 0.78551 0.68849 0.0
H1205 H 0.55637 0.76443 0.69111 0.0
H1206 H 0.54419 0.8002 0.7245 0.0
H1207 H 0.58043 0.8219 0.72184 0.0
H1208 H 0.5427 0.73478 0.70876 0.0
H1209 H 0.48355 0.8108 0.70676 0.0
H1210 H 0.51374 0.81264 0.70261 0.0
H1211 H 0.50552 0.81221 0.71817 0.0
C1212 C 0.58226 0.78903 0.69641 0.0
C1213 C 0.58949 0.80555 0.70494 0.0
C1214 C 0.56152 0.77687 0.69789 0.0
C1215 C 0.54738 0.78084 0.70793 0.0
C1216 C 0.55457 0.79713 0.71656 0.0
H1217 H 0.42902 0.6863 0.72138 0.0
H1218 H 0.46538 0.7078 0.72408 0.0
C1219 C 0.57536 0.80946 0.71505 0.0
C1220 C 0.52523 0.76776 0.70919 0.0
H1221 H 0.46632 0.77422 0.70973 0.0
C1222 C 0.52599 0.74339 0.70907 0.0
C1223 C 0.50342 0.77901 0.70951 0.0
C1224 C 0.50136 0.80509 0.70917 0.0
C1225 C 0.5056 0.73 0.70895 0.0
C1226 C 0.48379 0.74125 0.70919 0.0
C1227 C 0.48304 0.7656 0.70962 0.0
C1228 C 0.46159 0.72828 0.70791 0.0
C1229 C 0.5076 0.70397 0.708 0.0
C1230 C 0.44711 0.73293 0.69809 0.0
C1231 C 0.42632 0.72086 0.69658 0.0
C1232 C 0.41937 0.70377 0.70487 0.0
C1233 C 0.43384 0.6992 0.71478 0.0
C1234 C 0.4547 0.71142 0.71631 0.0
H1235 H 0.52531 0.69845 0.7053 0.0
H1236 H 0.50371 0.69609 0.71686 0.0
H1237 H 0.49499 0.69702 0.70138 0.0
H1238 H 0.45202 0.74583 0.69149 0.0
H1239 H 0.41574 0.72493 0.68883 0.0
H1240 H 0.53142 0.16611 0.93987 0.0
H1241 H 0.51037 0.20224 0.94265 0.0
H1242 H 0.54898 0.21581 0.97503 0.0
H1243 H 0.57065 0.17958 0.97221 0.0
H1244 H 0.48225 0.2166 0.96093 0.0
H1245 H 0.5579 0.27568 0.95619 0.0
H1246 H 0.55935 0.24534 0.95232 0.0
H1247 H 0.56037 0.25416 0.96778 0.0
C1248 C 0.53558 0.17669 0.9476 0.0
C1249 C 0.5529 0.16985 0.95579 0.0
C1250 C 0.52341 0.1974 0.94919 0.0
C1251 C 0.52819 0.21192 0.95898 0.0
C1252 C 0.54525 0.20511 0.96728 0.0
H1253 H 0.43452 0.33105 0.97248 0.0
H1254 H 0.45615 0.29482 0.97533 0.0
C1255 C 0.55757 0.18432 0.96568 0.0
C1256 C 0.51519 0.23411 0.96027 0.0
H1257 H 0.52155 0.29302 0.95959 0.0
C1258 C 0.49084 0.23333 0.96075 0.0
C1259 C 0.5264 0.25594 0.95993 0.0
C1260 C 0.55242 0.25798 0.95893 0.0
C1261 C 0.47739 0.25368 0.96057 0.0
C1262 C 0.4886 0.27551 0.96013 0.0
C1263 C 0.51297 0.2763 0.95999 0.0
C1264 C 0.47548 0.29761 0.95873 0.0
C1265 C 0.45131 0.25157 0.96027 0.0
C1266 C 0.47943 0.3115 0.94861 0.0
C1267 C 0.46729 0.33223 0.94701 0.0
C1268 C 0.45083 0.3397 0.95551 0.0
C1269 C 0.44691 0.32579 0.9657 0.0
C1270 C 0.45921 0.30501 0.96732 0.0
H1271 H 0.44562 0.2337 0.95799 0.0
H1272 H 0.44421 0.25597 0.96924 0.0
H1273 H 0.44373 0.26377 0.95363 0.0
H1274 H 0.49184 0.30619 0.94184 0.0
H1275 H 0.47083 0.34236 0.93903 0.0
H1276 H 0.07955 0.31979 0.22278 0.0
H1277 H 0.04381 0.29746 0.22607 0.0
H1278 H 0.0475 0.27158 0.18982 0.0
H1279 H 0.08309 0.29334 0.18652 0.0
H1280 H 1.00134 0.2981 0.21468 0.0
H1281 H 0.04202 0.21199 0.20894 0.0
H1282 H 0.05883 0.23811 0.21098 0.0
H1283 H 0.0476 0.23066 0.19639 0.0
C1284 C 0.0727 0.30939 0.2155 0.0
C1285 C 0.08441 0.30819 0.20443 0.0
C1286 C 0.05231 0.29659 0.21741 0.0
C1287 C 0.0433 0.28233 0.20829 0.0
C1288 C 0.05448 0.28184 0.19712 0.0
H1289 H 0.909 0.23016 0.19265 0.0
H1290 H 0.94466 0.25194 0.19556 0.0
C1291 C 0.07481 0.29447 0.19523 0.0
C1292 C 0.02201 0.26822 0.21023 0.0
H1293 H 1.00048 0.21332 0.20705 0.0
C1294 C 1.00121 0.27952 0.21318 0.0
C1295 C 0.02186 0.24387 0.20852 0.0
C1296 C 0.04383 0.23041 0.20616 0.0
C1297 C 0.98011 0.26734 0.21378 0.0
C1298 C 0.97971 0.2433 0.21117 0.0
C1299 C 1.0007 0.23179 0.2089 0.0
C1300 C 0.95762 0.23019 0.20987 0.0
C1301 C 0.95837 0.28041 0.2171 0.0
C1302 C 0.95319 0.21023 0.21675 0.0
C1303 C 0.93269 0.19749 0.21506 0.0
C1304 C 0.91636 0.20435 0.20636 0.0
C1305 C 0.92103 0.22431 0.19947 0.0
C1306 C 0.94139 0.23698 0.20119 0.0
H1307 H 0.96243 0.29606 0.22252 0.0
H1308 H 0.94953 0.28624 0.20878 0.0
H1309 H 0.94618 0.26929 0.22224 0.0
H1310 H 0.9656 0.20451 0.22342 0.0
H1311 H 0.92976 0.1822 0.22049 0.0
H1312 H 0.9352 0.68132 0.9716 0.0
H1313 H 0.95667 0.71754 0.97492 0.0
H1314 H 0.99031 0.70942 0.94063 0.0
H1315 H 0.96937 0.6734 0.93729 0.0
H1316 H 0.02109 0.72004 0.95893 0.0
H1317 H 0.94595 0.78057 0.9587 0.0
H1318 H 0.94443 0.75694 0.9692 0.0
H1319 H 0.94377 0.75109 0.95338 0.0
C1320 C 0.94705 0.68733 0.96473 0.0
C1321 C 0.95049 0.67435 0.95418 0.0
C1322 C 0.95927 0.70808 0.96664 0.0
C1323 C 0.97502 0.71628 0.95798 0.0
C1324 C 0.97832 0.70343 0.94744 0.0
H1325 H 0.03319 0.84684 0.94009 0.0
H1326 H 0.01135 0.81115 0.9428 0.0
C1327 C 0.96622 0.68279 0.94555 0.0
C1328 C 0.98844 0.73805 0.95977 0.0
H1329 H 0.98297 0.79698 0.96124 0.0
C1330 C 0.01278 0.73687 0.95957 0.0
C1331 C 0.97755 0.75999 0.96052 0.0
C1332 C 0.9515 0.7624 0.96038 0.0
C1333 C 0.02651 0.75702 0.95972 0.0
C1334 C 0.01563 0.77899 0.96029 0.0
C1335 C 0.9913 0.78013 0.96087 0.0
C1336 C 0.02896 0.80098 0.9591 0.0
C1337 C 0.0525 0.75463 0.95865 0.0
C1338 C 0.04615 0.80733 0.96743 0.0
C1339 C 0.05892 0.82785 0.96587 0.0
C1340 C 0.05459 0.84248 0.956 0.0
C1341 C 0.03711 0.83611 0.9478 0.0
C1342 C 0.02449 0.81567 0.94935 0.0
H1343 H 0.05772 0.73689 0.95584 0.0
H1344 H 0.05954 0.76727 0.95208 0.0
H1345 H 0.06057 0.75822 0.9675 0.0
H1346 H 0.04966 0.79647 0.97514 0.0
H1347 H 0.07211 0.83225 0.9724 0.0
H1348 H 0.91788 0.28311 0.68947 0.0
H1349 H 0.95384 0.26195 0.69263 0.0
H1350 H 0.96546 0.29935 0.72558 0.0
H1351 H 0.92941 0.32113 0.72238 0.0
H1352 H 0.00463 0.29667 0.71209 0.0
H1353 H 0.96593 0.2093 0.71566 0.0
H1354 H 0.95715 0.22359 0.70211 0.0
H1355 H 0.94873 0.23542 0.71642 0.0
C1356 C 0.92792 0.28686 0.69745 0.0
C1357 C 0.92054 0.3038 0.70572 0.0
C1358 C 0.94848 0.27454 0.69928 0.0
C1359 C 0.96212 0.27859 0.70949 0.0
C1360 C 0.95509 0.29573 0.7177 0.0
H1361 H 0.0806 0.18482 0.72262 0.0
H1362 H 0.04449 0.20666 0.72554 0.0
C1363 C 0.93448 0.30819 0.71585 0.0
C1364 C 0.98414 0.26549 0.71123 0.0
H1365 H 0.00674 0.21067 0.71104 0.0
C1366 C 0.00505 0.27786 0.71203 0.0
C1367 C 0.98477 0.24092 0.71141 0.0
C1368 C 0.96291 0.22655 0.71149 0.0
C1369 C 0.02657 0.26638 0.71234 0.0
C1370 C 0.02725 0.24186 0.71156 0.0
C1371 C 0.0063 0.22946 0.71145 0.0
C1372 C 0.04942 0.2289 0.7101 0.0
C1373 C 0.04837 0.2807 0.71341 0.0
C1374 C 0.06401 0.23382 0.70036 0.0
C1375 C 0.08459 0.22146 0.69868 0.0
C1376 C 0.09106 0.20362 0.70664 0.0
C1377 C 0.07625 0.19847 0.71634 0.0
C1378 C 0.0556 0.21095 0.71802 0.0
H1379 H 0.04489 0.29752 0.71793 0.0
H1380 H 0.06201 0.27134 0.71851 0.0
H1381 H 0.05512 0.28453 0.7043 0.0
H1382 H 0.05934 0.24709 0.69392 0.0
H1383 H 0.09533 0.22586 0.69104 0.0
H1384 H 0.57894 0.32292 0.46665 0.0
H1385 H 0.55799 0.28595 0.4682 0.0
H1386 H 0.50121 0.31487 0.44797 0.0
H1387 H 0.52204 0.35144 0.44614 0.0
H1388 H 0.51467 0.27327 0.47737 0.0
H1389 H 0.51813 0.25815 0.42829 0.0
H1390 H 0.53512 0.28033 0.43557 0.0
H1391 H 0.50502 0.28536 0.43216 0.0
C1392 C 0.56195 0.32143 0.46258 0.0
C1393 C 0.55237 0.34009 0.45611 0.0
C1394 C 0.54998 0.30029 0.46348 0.0
C1395 C 0.52822 0.29746 0.45798 0.0
C1396 C 0.51821 0.3164 0.45202 0.0
H1397 H 0.42824 0.18393 0.46678 0.0
H1398 H 0.44935 0.22072 0.46862 0.0
C1399 C 0.53018 0.33737 0.45102 0.0
C1400 C 0.51618 0.27461 0.45808 0.0
H1401 H 0.49348 0.23332 0.43951 0.0
C1402 C 0.51012 0.26444 0.4691 0.0
C1403 C 0.5105 0.26293 0.44729 0.0
C1404 C 0.51772 0.27211 0.43516 0.0
C1405 C 0.4982 0.24313 0.46961 0.0
C1406 C 0.4918 0.23189 0.4588 0.0
C1407 C 0.49815 0.24198 0.4478 0.0
C1408 C 0.47934 0.20923 0.45853 0.0
C1409 C 0.49301 0.23263 0.48171 0.0
C1410 C 0.48894 0.19059 0.45215 0.0
C1411 C 0.4768 0.16977 0.45093 0.0
C1412 C 0.4547 0.16694 0.4561 0.0
C1413 C 0.44526 0.18544 0.46275 0.0
C1414 C 0.4574 0.20645 0.46387 0.0
H1415 H 0.50437 0.23992 0.48883 0.0
H1416 H 0.47476 0.23648 0.48417 0.0
H1417 H 0.49523 0.2135 0.48154 0.0
H1418 H 0.50581 0.19224 0.44795 0.0
H1419 H 0.48475 0.15591 0.44582 0.0
H1420 H 0.41637 0.78462 0.1896 0.0
H1421 H 0.45224 0.76325 0.19259 0.0
H1422 H 0.46539 0.80157 0.2251 0.0
H1423 H 0.42937 0.82354 0.22209 0.0
H1424 H 0.50408 0.79812 0.211 0.0
H1425 H 0.46475 0.71131 0.21611 0.0
H1426 H 0.45533 0.72522 0.20257 0.0
H1427 H 0.44788 0.73764 0.21689 0.0
C1428 C 0.42673 0.78854 0.19745 0.0
C1429 C 0.41977 0.80579 0.20565 0.0
C1430 C 0.44723 0.7761 0.19918 0.0
C1431 C 0.46128 0.78035 0.20922 0.0
C1432 C 0.45469 0.79779 0.21735 0.0
H1433 H 0.57975 0.68626 0.22175 0.0
H1434 H 0.54388 0.70839 0.22488 0.0
C1435 C 0.4341 0.81036 0.21561 0.0
C1436 C 0.48326 0.76712 0.21082 0.0
H1437 H 0.5053 0.71208 0.21089 0.0
C1438 C 0.50432 0.77931 0.21116 0.0
C1439 C 0.48366 0.74257 0.21126 0.0
C1440 C 0.46167 0.72843 0.21182 0.0
C1441 C 0.52573 0.76763 0.21125 0.0
C1442 C 0.52613 0.74308 0.21074 0.0
C1443 C 0.50507 0.73088 0.2111 0.0
C1444 C 0.54808 0.72983 0.20909 0.0
C1445 C 0.54773 0.78176 0.2118 0.0
C1446 C 0.56215 0.73417 0.19907 0.0
C1447 C 0.58259 0.72164 0.19727 0.0
C1448 C 0.58944 0.70421 0.20538 0.0
C1449 C 0.5751 0.69957 0.21533 0.0
C1450 C 0.5546 0.71223 0.21714 0.0
H1451 H 0.54468 0.79883 0.21615 0.0
H1452 H 0.56156 0.77249 0.21681 0.0
H1453 H 0.55398 0.78508 0.20254 0.0
H1454 H 0.5572 0.74715 0.19252 0.0
H1455 H 0.59296 0.72562 0.18943 0.0
H1456 H 0.92951 0.32406 0.53709 0.0
H1457 H 0.95032 0.28702 0.53546 0.0
H1458 H 0.00464 0.31373 0.55816 0.0
H1459 H 0.98398 0.35037 0.56002 0.0
H1460 H 0.99494 0.27492 0.52748 0.0
H1461 H 0.98462 0.25542 0.57587 0.0
H1462 H 0.96867 0.27826 0.56851 0.0
H1463 H 0.9982 0.28291 0.57316 0.0
C1464 C 0.94593 0.32207 0.54169 0.0
C1465 C 0.95486 0.34015 0.54882 0.0
C1466 C 0.95782 0.30089 0.54074 0.0
C1467 C 0.97882 0.29742 0.54689 0.0
C1468 C 0.9882 0.31577 0.55357 0.0
H1469 H 0.0802 0.18509 0.53908 0.0
H1470 H 0.05891 0.22178 0.53721 0.0
C1471 C 0.97633 0.33679 0.5546 0.0
C1472 C 0.99073 0.27452 0.54667 0.0
H1473 H 0.01085 0.23159 0.56503 0.0
C1474 C 0.99832 0.26534 0.53567 0.0
C1475 C 0.99489 0.26186 0.55734 0.0
C1476 C 0.98597 0.26997 0.56937 0.0
C1477 C 0.01032 0.24408 0.53509 0.0
C1478 C 0.01524 0.23188 0.54583 0.0
C1479 C 0.00732 0.24097 0.55679 0.0
C1480 C 0.02785 0.2093 0.54604 0.0
C1481 C 0.01721 0.23469 0.52297 0.0
C1482 C 0.0177 0.19011 0.55173 0.0
C1483 C 0.02993 0.16936 0.55299 0.0
C1484 C 0.05267 0.16714 0.54854 0.0
C1485 C 0.06267 0.18615 0.54254 0.0
C1486 C 0.05045 0.2071 0.5414 0.0
H1487 H 0.00668 0.24247 0.51565 0.0
H1488 H 0.03567 0.23899 0.52124 0.0
H1489 H 0.01526 0.21555 0.52263 0.0
H1490 H 1.00032 0.19129 0.55538 0.0
H1491 H 0.02156 0.15507 0.55758 0.0
H1492 H 0.42088 0.22106 0.31666 0.0
H1493 H 0.45671 0.24242 0.31347 0.0
H1494 H 0.46734 0.20665 0.27995 0.0
H1495 H 0.43131 0.18477 0.28312 0.0
H1496 H 0.50736 0.20949 0.29377 0.0
H1497 H 0.46642 0.2959 0.29013 0.0
H1498 H 0.45783 0.281 0.30354 0.0
H1499 H 0.45001 0.2693 0.28912 0.0
C1500 C 0.43071 0.21765 0.30857 0.0
C1501 C 0.42299 0.20124 0.3001 0.0
C1502 C 0.45119 0.23007 0.30673 0.0
C1503 C 0.46445 0.22659 0.29633 0.0
C1504 C 0.45723 0.20981 0.28798 0.0
H1505 H 0.58086 0.32286 0.28314 0.0
H1506 H 0.54533 0.30014 0.28012 0.0
C1507 C 0.43665 0.19729 0.28982 0.0
C1508 C 0.48612 0.24015 0.29451 0.0
H1509 H 0.50726 0.29553 0.29458 0.0
C1510 C 0.50732 0.2283 0.29376 0.0
C1511 C 0.4861 0.26471 0.29426 0.0
C1512 C 0.46384 0.27848 0.29417 0.0
C1513 C 0.52853 0.24033 0.29349 0.0
C1514 C 0.52856 0.26487 0.29419 0.0
C1515 C 0.50731 0.27673 0.29422 0.0
C1516 C 0.55035 0.2784 0.29574 0.0
C1517 C 0.55072 0.22659 0.29256 0.0
C1518 C 0.56474 0.27407 0.30563 0.0
C1519 C 0.58497 0.28696 0.30738 0.0
C1520 C 0.59127 0.30472 0.29934 0.0
C1521 C 0.57663 0.3093 0.2895 0.0
C1522 C 0.55632 0.29631 0.28775 0.0
H1523 H 0.54775 0.20958 0.28813 0.0
H1524 H 0.56416 0.23622 0.28745 0.0
H1525 H 0.55747 0.22314 0.30172 0.0
H1526 H 0.5602 0.26084 0.31212 0.0
H1527 H 0.5956 0.28299 0.31512 0.0
H1528 H 0.4904 0.85277 0.05528 0.0
H1529 H 0.51179 0.81662 0.05303 0.0
H1530 H 0.45171 0.78459 0.03699 0.0
H1531 H 0.43029 0.82118 0.03889 0.0
H1532 H 0.5028 0.77702 0.06361 0.0
H1533 H 0.50163 0.76258 0.01445 0.0
H1534 H 0.49351 0.78991 0.02114 0.0
H1535 H 0.47321 0.76622 0.02074 0.0
C1536 C 0.48174 0.83814 0.05114 0.0
C1537 C 0.45855 0.8399 0.0473 0.0
C1538 C 0.49405 0.81744 0.04984 0.0
C1539 C 0.48352 0.79783 0.04474 0.0
C1540 C 0.46046 0.79958 0.0407 0.0
H1541 H 0.52682 0.65756 0.06007 0.0
H1542 H 0.50686 0.69452 0.05801 0.0
C1543 C 0.44816 0.82048 0.04186 0.0
C1544 C 0.49625 0.7753 0.04459 0.0
H1545 H 0.51431 0.73078 0.02655 0.0
C1546 C 0.50539 0.76703 0.05547 0.0
C1547 C 0.49996 0.76229 0.03397 0.0
C1548 C 0.49177 0.77079 0.02189 0.0
C1549 C 0.51776 0.74609 0.05607 0.0
C1550 C 0.52062 0.7326 0.04557 0.0
C1551 C 0.51192 0.74101 0.03463 0.0
C1552 C 0.53212 0.7095 0.04594 0.0
C1553 C 0.52791 0.73878 0.06798 0.0
C1554 C 0.55258 0.70519 0.03946 0.0
C1555 C 0.5641 0.68383 0.04055 0.0
C1556 C 0.55531 0.66639 0.04814 0.0
C1557 C 0.53436 0.6706 0.05427 0.0
C1558 C 0.52288 0.69181 0.05313 0.0
H1559 H 0.53006 0.75378 0.07414 0.0
H1560 H 0.51604 0.72621 0.07235 0.0
H1561 H 0.54503 0.73028 0.06677 0.0
H1562 H 0.55996 0.71856 0.0338 0.0
H1563 H 0.58012 0.68119 0.03566 0.0
H1564 H 0.90362 0.73591 0.80733 0.0
H1565 H 0.93981 0.75728 0.8053 0.0
H1566 H 0.97019 0.69954 0.78637 0.0
H1567 H 0.93357 0.67814 0.78808 0.0
H1568 H 0.98039 0.74654 0.81462 0.0
H1569 H 0.9902 0.75271 0.76524 0.0
H1570 H 0.96345 0.7438 0.77228 0.0
H1571 H 0.98687 0.72348 0.7705 0.0
C1572 C 0.91788 0.72775 0.80262 0.0
C1573 C 0.91564 0.70522 0.79789 0.0
C1574 C 0.93862 0.74006 0.80145 0.0
C1575 C 0.95775 0.7302 0.79557 0.0
C1576 C 0.95555 0.7078 0.7907 0.0
H1577 H 0.0992 0.77224 0.80928 0.0
H1578 H 0.06228 0.75213 0.80728 0.0
C1579 C 0.93463 0.69549 0.79176 0.0
C1580 C 0.98029 0.74288 0.79538 0.0
H1581 H 0.02304 0.76373 0.777 0.0
C1582 C 0.98961 0.75036 0.80636 0.0
C1583 C 0.99227 0.7482 0.78462 0.0
C1584 C 0.9826 0.74185 0.77248 0.0
C1585 C 0.01058 0.76266 0.80693 0.0
C1586 C 0.02305 0.76715 0.79623 0.0
C1587 C 0.0136 0.76008 0.7852 0.0
C1588 C 0.04612 0.77875 0.79647 0.0
C1589 C 0.019 0.77104 0.81901 0.0
C1590 C 0.04975 0.80002 0.7906 0.0
C1591 C 0.07109 0.8116 0.79162 0.0
C1592 C 0.08915 0.80208 0.79856 0.0
C1593 C 0.08563 0.78033 0.80402 0.0
C1594 C 0.06446 0.76878 0.80292 0.0
H1595 H 0.00458 0.77227 0.82559 0.0
H1596 H 0.03191 0.75857 0.82259 0.0
H1597 H 0.02743 0.7883 0.81827 0.0
H1598 H 0.03587 0.80797 0.78549 0.0
H1599 H 0.0732 0.82825 0.78727 0.0
H1600 H 0.3478 0.36799 0.99103 0.0
H1601 H 0.30944 0.36852 1.00053 0.0
H1602 H 0.29234 0.43099 0.98121 0.0
H1603 H 0.33039 0.43032 0.97152 0.0
H1604 H 0.28695 0.39963 0.01481 0.0
H1605 H 0.23861 0.38932 0.97217 0.0
H1606 H 0.26959 0.38535 0.97316 0.0
H1607 H 0.25749 0.41406 0.97223 0.0
C1608 C 0.33594 0.38194 0.98887 0.0
C1609 C 0.34216 0.39903 0.98044 0.0
C1610 C 0.31396 0.3822 0.99429 0.0
C1611 C 0.29769 0.39949 0.9914 0.0
C1612 C 0.30426 0.41709 0.98336 0.0
H1613 H 0.17194 0.43037 0.03225 0.0
H1614 H 0.20997 0.43137 0.02255 0.0
C1615 C 0.32616 0.4168 0.9779 0.0
C1616 C 0.27389 0.39907 0.99672 0.0
H1617 H 0.21618 0.398 0.98951 0.0
C1618 C 0.27149 0.39923 0.00927 0.0
C1619 C 0.25362 0.39814 0.98953 0.0
C1620 C 0.25488 0.39647 0.97603 0.0
C1621 C 0.24951 0.39893 0.01479 0.0
C1622 C 0.22923 0.39892 0.00759 0.0
C1623 C 0.23164 0.39831 0.99505 0.0
C1624 C 0.20541 0.39911 0.01291 0.0
C1625 C 0.24827 0.39812 0.02831 0.0
C1626 C 0.18958 0.38125 0.01031 0.0
C1627 C 0.16761 0.38079 0.01574 0.0
C1628 C 0.16095 0.39824 0.02387 0.0
C1629 C 0.1765 0.41657 0.0261 0.0
C1630 C 0.1984 0.41706 0.02063 0.0
H1631 H 0.26471 0.39162 0.0323 0.0
H1632 H 0.24523 0.41588 0.0318 0.0
H1633 H 0.23383 0.38684 0.03138 0.0
H1634 H 0.19445 0.36729 0.00431 0.0
H1635 H 0.15612 0.3664 0.01382 0.0
H1636 H 0.83644 0.07668 0.21761 0.0
H1637 H 0.83617 0.03917 0.2277 0.0
H1638 H 0.88158 0.06619 0.2551 0.0
H1639 H 0.88266 0.10369 0.2447 0.0
H1640 H 0.89593 0.02501 0.24856 0.0
H1641 H 0.80163 0.01827 0.25653 0.0
H1642 H 0.80783 0.02214 0.24091 0.0
H1643 H 0.81503 0.04475 0.25144 0.0
C1644 C 0.84616 0.07479 0.22586 0.0
C1645 C 0.85943 0.09331 0.23039 0.0
C1646 C 0.84588 0.05327 0.23169 0.0
C1647 C 0.85844 0.0498 0.24235 0.0
C1648 C 0.87161 0.06836 0.24694 0.0
H1649 H 0.83848 0.92939 0.28861 0.0
H1650 H 0.83807 0.9675 0.27908 0.0
C1651 C 0.87215 0.08985 0.24101 0.0
C1652 C 0.85862 0.02659 0.24837 0.0
H1653 H 0.82339 0.98323 0.25871 0.0
C1654 C 0.88004 0.01597 0.25086 0.0
C1655 C 0.83796 0.01476 0.25157 0.0
C1656 C 0.81434 0.02569 0.25009 0.0
C1657 C 0.88139 0.99389 0.25623 0.0
C1658 C 0.86071 0.98157 0.25886 0.0
C1659 C 0.83929 0.99236 0.25655 0.0
C1660 C 0.8608 0.95792 0.26443 0.0
C1661 C 0.90502 0.98435 0.25932 0.0
C1662 C 0.87333 0.93944 0.25931 0.0
C1663 C 0.87385 0.91758 0.26487 0.0
C1664 C 0.86142 0.91356 0.27553 0.0
C1665 C 0.84823 0.93181 0.28039 0.0
C1666 C 0.84799 0.9537 0.27494 0.0
H1667 H 0.91809 0.99841 0.26021 0.0
H1668 H 0.9046 0.97436 0.26783 0.0
H1669 H 0.91087 0.97265 0.25202 0.0
H1670 H 0.88277 0.94189 0.25101 0.0
H1671 H 0.88405 0.90386 0.26084 0.0
H1672 H 0.15737 0.64186 0.49081 0.0
H1673 H 0.19562 0.64148 0.50043 0.0
H1674 H 0.21299 0.57881 0.48133 0.0
H1675 H 0.17508 0.57936 0.47152 0.0
H1676 H 0.21789 0.61088 0.51487 0.0
H1677 H 0.26691 0.62004 0.47239 0.0
H1678 H 0.23592 0.62399 0.4732 0.0
H1679 H 0.24808 0.59528 0.47247 0.0
C1680 C 0.16927 0.6279 0.48872 0.0
C1681 C 0.16317 0.61073 0.48032 0.0
C1682 C 0.19119 0.62773 0.49421 0.0
C1683 C 0.2075 0.61042 0.49141 0.0
C1684 C 0.20105 0.59273 0.4834 0.0
H1685 H 0.33211 0.57922 0.53298 0.0
H1686 H 0.29412 0.5787 0.52324 0.0
C1687 C 0.17922 0.59296 0.47787 0.0
C1688 C 0.23123 0.61089 0.49683 0.0
H1689 H 0.28904 0.61129 0.48984 0.0
C1690 C 0.23343 0.61103 0.50938 0.0
C1691 C 0.25161 0.61151 0.48971 0.0
C1692 C 0.25058 0.61294 0.4762 0.0
C1693 C 0.25532 0.61131 0.51499 0.0
C1694 C 0.27571 0.61092 0.50788 0.0
C1695 C 0.2735 0.61127 0.49532 0.0
C1696 C 0.29944 0.61049 0.51329 0.0
C1697 C 0.25634 0.61251 0.52851 0.0
C1698 C 0.31568 0.6279 0.51053 0.0
C1699 C 0.33764 0.62805 0.51598 0.0
C1700 C 0.34386 0.61076 0.52428 0.0
C1701 C 0.32788 0.59291 0.5267 0.0
C1702 C 0.306 0.5927 0.52121 0.0
H1703 H 0.23998 0.61947 0.53236 0.0
H1704 H 0.25892 0.5948 0.53216 0.0
H1705 H 0.27096 0.62357 0.53157 0.0
H1706 H 0.31116 0.64172 0.50438 0.0
H1707 H 0.34949 0.64206 0.51391 0.0
H1708 H 0.61578 0.10053 0.76409 0.0
H1709 H 0.61617 0.06226 0.7545 0.0
H1710 H 0.67945 0.04535 0.77317 0.0
H1711 H 0.6789 0.08329 0.78296 0.0
H1712 H 0.64665 0.04031 0.73985 0.0
H1713 H 0.63883 0.99108 0.78234 0.0
H1714 H 0.63461 0.02204 0.78158 0.0
H1715 H 0.66344 0.01012 0.78212 0.0
C1716 C 0.62986 0.08872 0.7661 0.0
C1717 C 0.64722 0.09496 0.77437 0.0
C1718 C 0.63004 0.0668 0.76062 0.0
C1719 C 0.64754 0.05061 0.76331 0.0
C1720 C 0.66539 0.0572 0.77119 0.0
H1721 H 0.67901 0.92647 0.7215 0.0
H1722 H 0.67943 0.96436 0.73134 0.0
C1723 C 0.66516 0.07903 0.77671 0.0
C1724 C 0.64713 0.02691 0.75788 0.0
H1725 H 0.64733 0.96907 0.76481 0.0
C1726 C 0.64674 0.02475 0.74532 0.0
C1727 C 0.64683 0.0065 0.76498 0.0
C1728 C 0.64571 0.00748 0.7785 0.0
C1729 C 0.64652 1.00288 0.73969 0.0
C1730 C 0.64722 0.98248 0.74679 0.0
C1731 C 0.64712 0.98464 0.75934 0.0
C1732 C 0.64774 0.95879 0.74135 0.0
C1733 C 0.64507 1.00189 0.72618 0.0
C1734 C 0.63042 0.94246 0.74409 0.0
C1735 C 0.63031 0.92056 0.73858 0.0
C1736 C 0.64757 0.91451 0.73022 0.0
C1737 C 0.66535 0.93058 0.72783 0.0
C1738 C 0.6655 0.95239 0.73337 0.0
H1739 H 0.63796 0.01822 0.72238 0.0
H1740 H 0.66272 0.99938 0.72244 0.0
H1741 H 0.63401 0.98723 0.72318 0.0
H1742 H 0.61662 0.94685 0.75029 0.0
H1743 H 0.61636 0.90864 0.74063 0.0
H1744 H 0.656 0.63045 0.01011 0.0
H1745 H 0.69378 0.62899 1.00001 0.0
H1746 H 0.72007 0.58477 0.02811 0.0
H1747 H 0.68224 0.58534 0.03789 0.0
H1748 H 0.73454 0.64368 0.00648 0.0
H1749 H 0.74219 0.54902 1.00005 0.0
H1750 H 0.71552 0.56247 0.00481 0.0
H1751 H 0.73802 0.55608 0.01555 0.0
C1752 C 0.66974 0.62011 0.01402 0.0
C1753 C 0.66597 0.6078 0.02474 0.0
C1754 C 0.6914 0.61935 0.00826 0.0
C1755 C 0.70985 0.6064 0.01313 0.0
C1756 C 0.70608 0.59428 0.0239 0.0
H1757 H 0.85561 0.63302 0.99421 0.0
H1758 H 0.81786 0.63135 0.0043 0.0
C1759 C 0.68438 0.59474 0.02955 0.0
C1760 C 0.73325 0.60639 0.00727 0.0
H1761 H 0.77709 0.57093 0.99768 0.0
C1762 C 0.74374 0.62773 0.00448 0.0
C1763 C 0.74531 0.58565 0.00446 0.0
C1764 C 0.73456 0.56203 0.00625 0.0
C1765 C 0.76587 0.62894 0.99916 0.0
C1766 C 0.77842 0.60823 0.99691 0.0
C1767 C 0.76779 0.58688 0.99955 0.0
C1768 C 0.80209 0.6082 0.99134 0.0
C1769 C 0.7752 0.65246 0.99568 0.0
C1770 C 0.80645 0.59476 0.98105 0.0
C1771 C 0.82822 0.5952 0.97547 0.0
C1772 C 0.8462 0.60924 0.97996 0.0
C1773 C 0.84211 0.62215 0.99046 0.0
C1774 C 0.82039 0.62142 0.99616 0.0
H1775 H 0.76102 0.66533 0.99455 0.0
H1776 H 0.7868 0.65889 0.0029 0.0
H1777 H 0.78523 0.65161 0.98719 0.0
H1778 H 0.79281 0.58429 0.97714 0.0
H1779 H 0.83069 0.58507 0.96739 0.0
H1780 H 0.17008 0.92926 0.7887 0.0
H1781 H 0.1704 0.9673 0.7791 0.0
H1782 H 0.12628 0.94118 0.75091 0.0
H1783 H 0.12507 0.90323 0.76082 0.0
H1784 H 0.18522 0.98308 0.75883 0.0
H1785 H 0.09036 0.9974 0.75982 0.0
H1786 H 0.10391 0.97349 0.76752 0.0
H1787 H 0.098 0.97172 0.75167 0.0
C1788 C 0.16046 0.93155 0.78044 0.0
C1789 C 0.14743 0.91319 0.77557 0.0
C1790 C 0.16064 0.9534 0.77495 0.0
C1791 C 0.14794 0.95746 0.76438 0.0
C1792 C 0.13562 0.93886 0.75925 0.0
H1793 H 0.17217 0.07688 0.71789 0.0
H1794 H 0.17252 0.03921 0.72784 0.0
C1795 C 0.13514 0.91704 0.76485 0.0
C1796 C 0.14792 0.98109 0.75879 0.0
H1797 H 0.11252 0.02425 0.74835 0.0
C1798 C 0.16928 0.99208 0.75659 0.0
C1799 C 0.12719 0.99323 0.75606 0.0
C1800 C 0.10358 0.98347 0.759 0.0
C1801 C 0.17052 0.01452 0.75165 0.0
C1802 C 0.14981 0.02617 0.74836 0.0
C1803 C 0.12844 0.01535 0.75071 0.0
C1804 C 0.1499 0.04946 0.74241 0.0
C1805 C 0.19406 0.02566 0.75031 0.0
C1806 C 0.13651 0.06785 0.74701 0.0
C1807 C 0.13593 0.08943 0.74117 0.0
C1808 C 0.14882 0.09315 0.73062 0.0
C1809 C 0.1623 0.07478 0.72609 0.0
C1810 C 0.16263 0.05318 0.73183 0.0
H1811 H 0.20673 0.01829 0.75678 0.0
H1812 H 0.20075 0.02229 0.74114 0.0
H1813 H 0.19318 0.0447 0.75172 0.0
H1814 H 0.12641 0.06549 0.75511 0.0
H1815 H 0.12526 0.10314 0.74486 0.0
H1816 H 0.83236 0.42825 0.5328 0.0
H1817 H 0.79443 0.42851 0.52299 0.0
H1818 H 0.81189 0.36544 0.50428 0.0
H1819 H 0.85016 0.36535 0.51387 0.0
H1820 H 0.78963 0.39567 0.48965 0.0
H1821 H 0.7405 0.3875 0.53214 0.0
H1822 H 0.75932 0.41227 0.53193 0.0
H1823 H 0.7715 0.38355 0.53138 0.0
C1824 C 0.82823 0.4145 0.52653 0.0
C1825 C 0.84432 0.39671 0.52418 0.0
C1826 C 0.8064 0.41456 0.521 0.0
C1827 C 0.79996 0.39668 0.51311 0.0
C1828 C 0.81631 0.37933 0.51041 0.0
H1829 H 0.65786 0.36512 0.49061 0.0
H1830 H 0.69618 0.36535 0.50016 0.0
C1831 C 0.83823 0.37933 0.51589 0.0
C1832 C 0.77625 0.39609 0.50768 0.0
H1833 H 0.71842 0.39598 0.51463 0.0
C1834 C 0.77408 0.39567 0.49512 0.0
C1835 C 0.75585 0.39566 0.51478 0.0
C1836 C 0.75684 0.39452 0.5283 0.0
C1837 C 0.7522 0.39534 0.4895 0.0
C1838 C 0.7318 0.39594 0.4966 0.0
C1839 C 0.73397 0.39584 0.50916 0.0
C1840 C 0.70809 0.39641 0.49117 0.0
C1841 C 0.75121 0.39387 0.47599 0.0
C1842 C 0.70164 0.41414 0.48318 0.0
C1843 C 0.67978 0.414 0.47769 0.0
C1844 C 0.66369 0.39628 0.48015 0.0
C1845 C 0.6698 0.37903 0.48851 0.0
C1846 C 0.69175 0.37912 0.49396 0.0
H1847 H 0.76755 0.38677 0.47219 0.0
H1848 H 0.73655 0.3828 0.47298 0.0
H1849 H 0.7487 0.41152 0.47224 0.0
H1850 H 0.71361 0.42805 0.48111 0.0
H1851 H 0.67563 0.42765 0.47136 0.0
H1852 H 0.32825 0.08503 0.28213 0.0
H1853 H 0.32734 0.047 0.27241 0.0
H1854 H 0.39128 0.06281 0.2541 0.0
H1855 H 0.39206 0.10111 0.26362 0.0
H1856 H 0.36078 0.04093 0.23932 0.0
H1857 H 0.36729 0.99243 0.28211 0.0
H1858 H 0.34293 0.01176 0.28161 0.0
H1859 H 0.3719 0.02333 0.28121 0.0
C1860 C 0.34203 0.08053 0.27595 0.0
C1861 C 0.36029 0.09615 0.27371 0.0
C1862 C 0.3416 0.05864 0.27048 0.0
C1863 C 0.35955 0.0517 0.26273 0.0
C1864 C 0.37733 0.06761 0.26011 0.0
H1865 H 0.3914 0.90938 0.24094 0.0
H1866 H 0.39066 0.94775 0.25043 0.0
C1867 C 0.37772 0.08957 0.26555 0.0
C1868 C 0.35985 0.02788 0.25741 0.0
H1869 H 0.35946 0.97016 0.26462 0.0
C1870 C 0.36053 0.02547 0.24487 0.0
C1871 C 0.35994 0.00759 0.26461 0.0
C1872 C 0.36071 0.00883 0.27813 0.0
C1873 C 0.36087 1.00349 0.23935 0.0
C1874 C 0.36003 0.98321 0.24654 0.0
C1875 C 0.35979 0.98562 0.25908 0.0
C1876 C 0.35975 0.95941 0.24121 0.0
C1877 C 0.36264 1.00225 0.22585 0.0
C1878 C 0.34226 0.95278 0.23312 0.0
C1879 C 0.34268 0.93088 0.22767 0.0
C1880 C 0.36046 0.91492 0.23027 0.0
C1881 C 0.37744 0.9212 0.23874 0.0
C1882 C 0.37706 0.94319 0.24415 0.0
H1883 H 0.36977 0.01855 0.22201 0.0
H1884 H 0.37383 0.98759 0.22299 0.0
H1885 H 0.34509 0.9996 0.22201 0.0
H1886 H 0.32834 0.96465 0.23093 0.0
H1887 H 0.32923 0.9266 0.22125 0.0
H1888 H 0.83311 0.93027 0.47162 0.0
H1889 H 0.79535 0.93136 0.4816 0.0
H1890 H 0.81237 0.86868 0.50077 0.0
H1891 H 0.85042 0.86778 0.49101 0.0
H1892 H 0.76044 0.90061 0.48032 0.0
H1893 H 0.78825 0.90861 0.52772 0.0
H1894 H 0.80795 0.91289 0.51533 0.0
H1895 H 0.80076 0.88405 0.52025 0.0
C1896 C 0.82899 0.91689 0.4781 0.0
C1897 C 0.84491 0.89901 0.48056 0.0
C1898 C 0.80731 0.91749 0.48377 0.0
C1899 C 0.80097 0.90026 0.49206 0.0
C1900 C 0.81694 0.88249 0.49464 0.0
H1901 H 0.65857 0.86708 0.5135 0.0
H1902 H 0.69665 0.86831 0.50377 0.0
C1903 C 0.83872 0.88195 0.489 0.0
C1904 C 0.7773 0.90038 0.49756 0.0
H1905 H 0.74839 0.90006 0.52437 0.0
C1906 C 0.75783 0.90058 0.48996 0.0
C1907 C 0.77376 0.90062 0.51014 0.0
C1908 C 0.79377 0.90177 0.51885 0.0
C1909 C 0.73507 0.90071 0.49455 0.0
C1910 C 0.73153 0.90015 0.50712 0.0
C1911 C 0.751 0.90026 0.51473 0.0
C1912 C 0.70786 0.89981 0.51262 0.0
C1913 C 0.71504 0.90197 0.48586 0.0
C1914 C 0.70142 0.91689 0.52097 0.0
C1915 C 0.67971 0.91612 0.52661 0.0
C1916 C 0.66389 0.89819 0.52407 0.0
C1917 C 0.6702 0.88127 0.51558 0.0
C1918 C 0.69199 0.882 0.50997 0.0
H1919 H 0.72054 0.90899 0.47701 0.0
H1920 H 0.70809 0.88426 0.48436 0.0
H1921 H 0.70085 0.913 0.48943 0.0
H1922 H 0.7133 0.93079 0.5232 0.0
H1923 H 0.67551 0.92939 0.53313 0.0
H1924 H 0.39153 0.60119 0.74072 0.0
H1925 H 0.39115 0.56298 0.75038 0.0
H1926 H 0.32856 0.54546 0.73124 0.0
H1927 H 0.32911 0.58334 0.72139 0.0
H1928 H 0.36032 0.54073 0.76481 0.0
H1929 H 0.37013 0.49162 0.72239 0.0
H1930 H 0.37406 0.52262 0.7232 0.0
H1931 H 0.34536 0.51044 0.72239 0.0
C1932 C 0.37759 0.58926 0.73863 0.0
C1933 C 0.36044 0.59531 0.73021 0.0
C1934 C 0.37742 0.56738 0.74414 0.0
C1935 C 0.36013 0.55104 0.74135 0.0
C1936 C 0.34246 0.55744 0.73332 0.0
H1937 H 0.32881 0.42643 0.78287 0.0
H1938 H 0.32826 0.46437 0.77308 0.0
C1939 C 0.34268 0.57924 0.72776 0.0
C1940 C 0.36061 0.52734 0.74678 0.0
H1941 H 0.36134 0.46951 0.73984 0.0
C1942 C 0.3606 0.52517 0.75934 0.0
C1943 C 0.3614 0.50694 0.73969 0.0
C1944 C 0.36298 0.50795 0.72618 0.0
C1945 C 0.36087 0.5033 0.76497 0.0
C1946 C 0.36067 0.48289 0.75786 0.0
C1947 C 0.36118 0.48507 0.74531 0.0
C1948 C 0.36027 0.45918 0.76329 0.0
C1949 C 0.36188 0.50232 0.77849 0.0
C1950 C 0.37782 0.44304 0.76065 0.0
C1951 C 0.378 0.42111 0.76612 0.0
C1952 C 0.36059 0.41483 0.77435 0.0
C1953 C 0.34259 0.43072 0.77665 0.0
C1954 C 0.34236 0.45256 0.77113 0.0
H1955 H 0.36868 0.51873 0.78235 0.0
H1956 H 0.34412 0.49963 0.78207 0.0
H1957 H 0.37298 0.48778 0.7816 0.0
H1958 H 0.39174 0.44761 0.75456 0.0
H1959 H 0.39213 0.40934 0.76415 0.0
H1960 H 0.82613 0.08661 0.03784 0.0
H1961 H 0.78851 0.08645 0.02786 0.0
H1962 H 0.81525 0.13209 1.00049 0.0
H1963 H 0.85286 0.13308 0.01079 0.0
H1964 H 0.77401 0.14623 0.00705 0.0
H1965 H 0.76768 0.05191 0.99904 0.0
H1966 H 0.77154 0.05811 0.01467 0.0
H1967 H 0.79411 0.06541 0.00413 0.0
C1968 C 0.82414 0.09642 0.02962 0.0
C1969 C 0.84263 0.10971 0.02507 0.0
C1970 C 0.80256 0.0962 0.02386 0.0
C1971 C 0.79899 0.10883 0.01323 0.0
C1972 C 0.81749 0.12206 0.00863 0.0
H1973 H 0.67922 0.08835 0.96672 0.0
H1974 H 0.71713 0.08808 0.97644 0.0
C1975 C 0.83905 0.12255 0.0145 0.0
C1976 C 0.77576 0.10893 0.00723 0.0
H1977 H 0.73258 0.07353 0.99684 0.0
C1978 C 0.76505 0.13031 0.00475 0.0
C1979 C 0.76402 0.08822 0.00402 0.0
C1980 C 0.77505 0.06465 0.00548 0.0
C1981 C 0.74298 0.13157 0.99935 0.0
C1982 C 0.73076 0.11084 0.99669 0.0
C1983 C 0.74163 0.08947 0.99902 0.0
C1984 C 0.7072 0.11082 0.99102 0.0
C1985 C 0.73335 0.15516 0.99626 0.0
C1986 C 0.68857 0.12329 0.99605 0.0
C1987 C 0.66682 0.12372 0.99037 0.0
C1988 C 0.66305 0.11126 0.9797 0.0
C1989 C 0.68144 0.09811 0.97495 0.0
C1990 C 0.70322 0.09796 0.98051 0.0
H1991 H 0.74734 0.16831 0.99543 0.0
H1992 H 0.72347 0.15472 0.98771 0.0
H1993 H 0.72153 0.16091 0.00353 0.0
H1994 H 0.69083 0.13276 0.00435 0.0
H1995 H 0.65299 0.1339 0.99432 0.0
H1996 H 0.12761 0.60252 0.26035 0.0
H1997 H 0.12864 0.56446 0.25055 0.0
H1998 H 0.17258 0.53843 0.27884 0.0
H1999 H 0.17247 0.57658 0.28832 0.0
H2000 H 0.18727 0.52207 0.25873 0.0
H2001 H 0.09228 0.50869 0.25957 0.0
H2002 H 0.10016 0.53416 0.25131 0.0
H2003 H 0.10598 0.53263 0.26718 0.0
C2004 C 0.13761 0.58871 0.26443 0.0
C2005 C 0.14991 0.59263 0.27514 0.0
C2006 C 0.13798 0.56682 0.25889 0.0
C2007 C 0.15019 0.5482 0.26408 0.0
C2008 C 0.16291 0.55233 0.27463 0.0
H2009 H 0.12516 0.40284 0.24462 0.0
H2010 H 0.12711 0.44038 0.25492 0.0
C2011 C 0.16284 0.57425 0.28006 0.0
C2012 C 0.14999 0.52447 0.25858 0.0
H2013 H 0.11424 0.48155 0.24817 0.0
C2014 C 0.17125 0.51321 0.25648 0.0
C2015 C 0.12916 0.51249 0.25583 0.0
C2016 C 0.10562 0.5225 0.25871 0.0
C2017 C 0.1723 0.49068 0.25162 0.0
C2018 C 0.15151 0.4792 0.24831 0.0
C2019 C 0.13024 0.4903 0.25056 0.0
C2020 C 0.15138 0.45582 0.24242 0.0
C2021 C 0.19574 0.47927 0.25043 0.0
C2022 C 0.16437 0.45173 0.23195 0.0
C2023 C 0.16362 0.43014 0.2262 0.0
C2024 C 0.14944 0.41217 0.23059 0.0
C2025 C 0.13638 0.41622 0.24104 0.0
C2026 C 0.13741 0.43776 0.24691 0.0
H2027 H 0.20834 0.4865 0.25698 0.0
H2028 H 0.19463 0.46024 0.25183 0.0
H2029 H 0.20269 0.48258 0.2413 0.0
H2030 H 0.17471 0.46543 0.22803 0.0
H2031 H 0.17363 0.4278 0.21806 0.0
H2032 H 0.15415 0.13254 0.51095 0.0
H2033 H 0.19172 0.13096 0.50064 0.0
H2034 H 0.21834 0.08636 0.52849 0.0
H2035 H 0.18073 0.08709 0.5385 0.0
H2036 H 0.23291 0.14531 0.50706 0.0
H2037 H 0.23924 0.05068 0.50005 0.0
H2038 H 0.21281 0.06439 0.505 0.0
H2039 H 0.2354 0.05754 0.51561 0.0
C2040 C 0.16792 0.12211 0.51476 0.0
C2041 C 0.16431 0.10974 0.52548 0.0
C2042 C 0.18946 0.12128 0.50889 0.0
C2043 C 0.20792 0.10818 0.51362 0.0
C2044 C 0.20432 0.09599 0.52439 0.0
H2045 H 0.35382 0.13259 0.49427 0.0
H2046 H 0.31608 0.13166 0.50441 0.0
C2047 C 0.18275 0.09655 0.53016 0.0
C2048 C 0.23116 0.10803 0.50762 0.0
H2049 H 0.2743 0.07224 0.49753 0.0
C2050 C 0.24186 0.1293 0.50491 0.0
C2051 C 0.24289 0.0872 0.50461 0.0
C2052 C 0.23188 0.06369 0.50635 0.0
C2053 C 0.2639 0.13035 0.49947 0.0
C2054 C 0.2761 0.10953 0.497 0.0
C2055 C 0.26525 0.08825 0.49957 0.0
C2056 C 0.29963 0.10931 0.4913 0.0
C2057 C 0.27352 0.15382 0.49613 0.0
C2058 C 0.30353 0.09616 0.48087 0.0
C2059 C 0.32525 0.09621 0.47524 0.0
C2060 C 0.34366 0.10954 0.47984 0.0
C2061 C 0.33998 0.12227 0.49044 0.0
C2062 C 0.31828 0.12195 0.49618 0.0
H2063 H 0.25952 0.16695 0.4952 0.0
H2064 H 0.28541 0.15983 0.50331 0.0
H2065 H 0.28332 0.15306 0.48756 0.0
H2066 H 0.28959 0.08615 0.47691 0.0
H2067 H 0.32741 0.08623 0.46709 0.0
H2068 H 0.61763 0.40854 0.26374 0.0
H2069 H 0.61827 0.44649 0.25386 0.0
H2070 H 0.68071 0.46425 0.27307 0.0
H2071 H 0.67988 0.42661 0.28316 0.0
H2072 H 0.64958 0.49892 0.27419 0.0
H2073 H 0.65833 0.47055 0.2269 0.0
H2074 H 0.63381 0.45797 0.23438 0.0
H2075 H 0.66268 0.45106 0.23937 0.0
C2076 C 0.63169 0.42039 0.26573 0.0
C2077 C 0.64876 0.41444 0.27421 0.0
C2078 C 0.63208 0.44211 0.26003 0.0
C2079 C 0.6497 0.45826 0.26258 0.0
C2080 C 0.66694 0.45216 0.27091 0.0
H2081 H 0.6794 0.58313 0.22124 0.0
H2082 H 0.68049 0.54543 0.23128 0.0
C2083 C 0.6665 0.43054 0.27665 0.0
C2084 C 0.6497 0.48185 0.257 0.0
H2085 H 0.64978 0.51042 0.2301 0.0
C2086 C 0.6497 0.50141 0.26455 0.0
C2087 C 0.65013 0.48523 0.24441 0.0
C2088 C 0.65147 0.46511 0.23579 0.0
C2089 C 0.64987 0.52411 0.25988 0.0
C2090 C 0.64955 0.52749 0.24729 0.0
C2091 C 0.64981 0.50793 0.23975 0.0
C2092 C 0.64936 0.55109 0.24172 0.0
C2093 C 0.65094 0.54424 0.26852 0.0
C2094 C 0.63157 0.56706 0.24426 0.0
C2095 C 0.63103 0.58881 0.23859 0.0
C2096 C 0.64811 0.59497 0.23016 0.0
C2097 C 0.666 0.57904 0.22772 0.0
C2098 C 0.6666 0.55738 0.23342 0.0
H2099 H 0.6578 0.53886 0.27741 0.0
H2100 H 0.66201 0.55841 0.26496 0.0
H2101 H 0.63319 0.55118 0.2699 0.0
H2102 H 0.61776 0.56252 0.2504 0.0
H2103 H 0.61686 0.60052 0.24058 0.0
H2104 H 0.18223 0.92171 0.96756 0.0
H2105 H 0.22008 0.92119 0.97732 0.0
H2106 H 0.1931 0.87593 0.0048 0.0
H2107 H 0.15529 0.87559 0.99472 0.0
H2108 H 0.23557 0.93487 0.99792 0.0
H2109 H 0.2492 0.83997 0.99555 0.0
H2110 H 0.22554 0.85415 0.98794 0.0
H2111 H 0.22346 0.84743 0.00369 0.0
C2112 C 0.18428 0.91165 0.9757 0.0
C2113 C 0.1657 0.89858 0.98031 0.0
C2114 C 0.20602 0.91136 0.98129 0.0
C2115 C 0.20979 0.89811 0.99169 0.0
C2116 C 0.19099 0.88571 0.99658 0.0
H2117 H 0.32957 0.91913 0.03847 0.0
H2118 H 0.29173 0.92004 0.0287 0.0
C2119 C 0.16925 0.88573 0.99088 0.0
C2120 C 0.23333 0.8976 0.99738 0.0
H2121 H 0.27622 0.86131 0.0073 0.0
C2122 C 0.24445 0.91874 0.99992 0.0
C2123 C 0.24531 0.87663 0.99981 0.0
C2124 C 0.23539 0.85328 0.99649 0.0
C2125 C 0.26688 0.91954 0.0049 0.0
C2126 C 0.2784 0.89858 0.00786 0.0
C2127 C 0.26742 0.87742 0.00518 0.0
C2128 C 0.30172 0.89817 0.01377 0.0
C2129 C 0.27817 0.94292 0.0066 0.0
C2130 C 0.32 0.88496 0.00893 0.0
C2131 C 0.34167 0.88404 0.01467 0.0
C2132 C 0.34559 0.89642 0.02535 0.0
C2133 C 0.32731 0.90967 0.03016 0.0
C2134 C 0.30562 0.91032 0.02452 0.0
H2135 H 0.27085 0.95603 1.00035 0.0
H2136 H 0.27487 0.94908 0.01588 0.0
H2137 H 0.2972 0.94202 0.00517 0.0
H2138 H 0.31751 0.8753 1.00069 0.0
H2139 H 0.35531 0.87356 0.01076 0.0
H2140 H 0.89215 0.40731 0.74074 0.0
H2141 H 0.89102 0.44531 0.75054 0.0
H2142 H 0.82873 0.46237 0.73103 0.0
H2143 H 0.83004 0.42464 0.72102 0.0
H2144 H 0.85959 0.49735 0.73002 0.0
H2145 H 0.85025 0.46904 0.77728 0.0
H2146 H 0.875 0.45661 0.76994 0.0
H2147 H 0.84628 0.44948 0.76481 0.0
C2148 C 0.87803 0.41901 0.73866 0.0
C2149 C 0.86113 0.41284 0.73013 0.0
C2150 C 0.87735 0.44076 0.74431 0.0
C2151 C 0.85962 0.45672 0.74166 0.0
C2152 C 0.84257 0.45041 0.73327 0.0
H2153 H 0.82858 0.5816 0.78273 0.0
H2154 H 0.82785 0.54383 0.77276 0.0
C2155 C 0.8433 0.42875 0.72758 0.0
C2156 C 0.85932 0.48032 0.74722 0.0
H2157 H 0.85871 0.50895 0.7741 0.0
C2158 C 0.85932 0.49986 0.73966 0.0
C2159 C 0.85868 0.48373 0.75981 0.0
C2160 C 0.85731 0.46362 0.76844 0.0
C2161 C 0.85897 0.52257 0.74431 0.0
C2162 C 0.85911 0.52597 0.7569 0.0
C2163 C 0.85883 0.50644 0.76446 0.0
C2164 C 0.85913 0.54958 0.76246 0.0
C2165 C 0.85793 0.54268 0.73566 0.0
C2166 C 0.87691 0.5656 0.76 0.0
C2167 C 0.87725 0.58738 0.76563 0.0
C2168 C 0.85997 0.59352 0.77396 0.0
C2169 C 0.84212 0.57752 0.77634 0.0
C2170 C 0.84173 0.55583 0.77067 0.0
H2171 H 0.85124 0.53725 0.72675 0.0
H2172 H 0.84673 0.55679 0.73917 0.0
H2173 H 0.87566 0.54971 0.73436 0.0
H2174 H 0.89084 0.56109 0.75392 0.0
H2175 H 0.89139 0.59916 0.76368 0.0
H2176 H 0.09264 0.41128 0.08033 0.0
H2177 H 0.09558 0.40721 0.10205 0.0
H2178 H 0.14618 0.35283 0.0976 0.0
H2179 H 0.14339 0.35683 0.07568 0.0
H2180 H 0.08759 0.36718 0.11649 0.0
H2181 H 0.17784 0.4004 0.12028 0.0
H2182 H 0.16038 0.40464 0.10701 0.0
H2183 H 0.17365 0.377 0.10984 0.0
C2184 C 0.1044 0.3984 0.08393 0.0
C2185 C 0.11786 0.3844 0.07628 0.0
C2186 C 0.10601 0.3961 0.09636 0.0
C2187 C 0.12124 0.37991 0.10142 0.0
C2188 C 0.13455 0.36567 0.09384 0.0
H2189 H 0.15936 0.34528 0.17387 0.0
H2190 H 0.15438 0.34827 0.15224 0.0
C2191 C 0.13288 0.3679 0.08135 0.0
C2192 C 0.1231 0.37815 0.11465 0.0
H2193 H 0.16023 0.38676 0.13806 0.0
C2194 C 0.10345 0.37146 0.12123 0.0
C2195 C 0.14377 0.38391 0.12077 0.0
C2196 C 0.1651 0.39208 0.11416 0.0
C2197 C 0.10407 0.36989 0.13381 0.0
C2198 C 0.12476 0.37563 0.13994 0.0
C2199 C 0.14437 0.38242 0.13334 0.0
C2200 C 0.12689 0.37372 0.15317 0.0
C2201 C 0.08279 0.36153 0.14039 0.0
C2202 C 0.11308 0.38713 0.16092 0.0
C2203 C 0.11581 0.38537 0.1734 0.0
C2204 C 0.1325 0.37031 0.17826 0.0
C2205 C 0.14628 0.35702 0.17044 0.0
C2206 C 0.14351 0.35872 0.15805 0.0
H2207 H 0.07037 0.35271 0.13428 0.0
H2208 H 0.08757 0.34937 0.14771 0.0
H2209 H 0.0738 0.37661 0.14447 0.0
H2210 H 0.10044 0.39914 0.15733 0.0
H2211 H 0.10504 0.39591 0.1792 0.0
H2212 H 0.86516 0.85375 0.42948 0.0
H2213 H 0.86358 0.84753 0.40766 0.0
H2214 H 0.91245 0.90322 0.40243 0.0
H2215 H 0.91414 0.90951 0.42403 0.0
H2216 H 0.85077 0.88161 0.38995 0.0
H2217 H 0.94035 0.84914 0.38286 0.0
H2218 H 0.92657 0.84934 0.39742 0.0
H2219 H 0.93852 0.8756 0.39132 0.0
C2220 C 0.87566 0.86453 0.42366 0.0
C2221 C 0.88982 0.88204 0.42847 0.0
C2222 C 0.87476 0.86097 0.41123 0.0
C2223 C 0.8882 0.87468 0.40346 0.0
C2224 C 0.90232 0.89213 0.40827 0.0
H2225 H 0.9042 0.89112 0.32624 0.0
H2226 H 0.90796 0.89345 0.34819 0.0
C2227 C 0.90314 0.89577 0.42063 0.0
C2228 C 0.88673 0.87171 0.39028 0.0
H2229 H 0.91911 0.85964 0.36537 0.0
C2230 C 0.86562 0.87659 0.38457 0.0
C2231 C 0.90625 0.86543 0.3833 0.0
C2232 C 0.92918 0.85937 0.38902 0.0
C2233 C 0.8636 0.87584 0.37203 0.0
C2234 C 0.88311 0.86952 0.36503 0.0
C2235 C 0.90421 0.86454 0.37075 0.0
C2236 C 0.88172 0.86751 0.35178 0.0
C2237 C 0.84075 0.88246 0.36637 0.0
C2238 C 0.86621 0.85176 0.34655 0.0
C2239 C 0.86395 0.85052 0.33411 0.0
C2240 C 0.8774 0.86478 0.3266 0.0
C2241 C 0.89357 0.87998 0.33181 0.0
C2242 C 0.89573 0.88131 0.34432 0.0
H2243 H 0.82995 0.89306 0.37255 0.0
H2244 H 0.84345 0.89237 0.35794 0.0
H2245 H 0.8309 0.86648 0.36418 0.0
H2246 H 0.85566 0.84053 0.35212 0.0
H2247 H 0.85146 0.83847 0.3304 0.0
H2248 H 0.40379 0.61474 0.67892 0.0
H2249 H 0.40911 0.61265 0.65704 0.0
H2250 H 0.35459 0.66294 0.65216 0.0
H2251 H 0.34915 0.66511 0.67381 0.0
H2252 H 0.37343 0.60052 0.63982 0.0
H2253 H 0.40892 0.6887 0.63182 0.0
H2254 H 0.40911 0.67512 0.64643 0.0
H2255 H 0.38293 0.68788 0.6407 0.0
C2256 C 0.39309 0.62545 0.67317 0.0
C2257 C 0.37612 0.64013 0.67809 0.0
C2258 C 0.39614 0.62425 0.6607 0.0
C2259 C 0.38247 0.63792 0.65302 0.0
C2260 C 0.36562 0.6526 0.65794 0.0
H2261 H 0.36471 0.653 0.57572 0.0
H2262 H 0.36253 0.65711 0.59767 0.0
C2263 C 0.36247 0.65371 0.67033 0.0
C2264 C 0.38479 0.63606 0.63982 0.0
H2265 H 0.39714 0.66739 0.6146 0.0
C2266 C 0.37882 0.61505 0.6343 0.0
C2267 C 0.39153 0.65517 0.63266 0.0
C2268 C 0.39868 0.67796 0.63818 0.0
C2269 C 0.37898 0.61273 0.62176 0.0
C2270 C 0.38581 0.63181 0.61458 0.0
C2271 C 0.39183 0.65283 0.62012 0.0
C2272 C 0.38749 0.62998 0.60134 0.0
C2273 C 0.37125 0.59004 0.61632 0.0
C2274 C 0.40259 0.61378 0.59616 0.0
C2275 C 0.40375 0.61133 0.58373 0.0
C2276 C 0.39005 0.62525 0.57617 0.0
C2277 C 0.3754 0.64199 0.58133 0.0
C2278 C 0.37416 0.64435 0.59384 0.0
H2279 H 0.36036 0.57988 0.62265 0.0
H2280 H 0.36124 0.59293 0.60794 0.0
H2281 H 0.38673 0.57945 0.6141 0.0
H2282 H 0.41345 0.60291 0.60176 0.0
H2283 H 0.41536 0.59838 0.58007 0.0
H2284 H 0.65998 0.16598 0.83027 0.0
H2285 H 0.65516 0.16437 0.85195 0.0
H2286 H 0.60044 0.11402 0.84783 0.0
H2287 H 0.60485 0.1159 0.8259 0.0
H2288 H 0.59025 0.14899 0.86455 0.0
H2289 H 0.67721 0.11141 0.87319 0.0
H2290 H 0.67807 0.13764 0.86454 0.0
H2291 H 0.66444 0.1122 0.85841 0.0
C2292 C 0.64687 0.15455 0.83393 0.0
C2293 C 0.63287 0.14093 0.82636 0.0
C2294 C 0.64425 0.15356 0.84635 0.0
C2295 C 0.6278 0.13873 0.85152 0.0
C2296 C 0.61339 0.12545 0.84401 0.0
H2297 H 0.59109 0.10162 0.92394 0.0
H2298 H 0.59344 0.10701 0.90229 0.0
C2299 C 0.61592 0.12651 0.83151 0.0
C2300 C 0.62571 0.13729 0.86476 0.0
H2301 H 0.65637 0.12495 0.89021 0.0
C2302 C 0.60465 0.14362 0.87016 0.0
C2303 C 0.64457 0.13036 0.87207 0.0
C2304 C 0.66728 0.1223 0.86677 0.0
C2305 C 0.60206 0.14352 0.8827 0.0
C2306 C 0.62095 0.13669 0.88998 0.0
C2307 C 0.64201 0.13041 0.88459 0.0
C2308 C 0.61883 0.13455 0.90318 0.0
C2309 C 0.57924 0.151 0.88807 0.0
C2310 C 0.63259 0.14809 0.91088 0.0
C2311 C 0.63128 0.14507 0.92334 0.0
C2312 C 0.61641 0.12825 0.92824 0.0
C2313 C 0.60265 0.11481 0.92047 0.0
C2314 C 0.60386 0.11793 0.90808 0.0
H2315 H 0.56876 0.1613 0.88162 0.0
H2316 H 0.56908 0.13539 0.89058 0.0
H2317 H 0.58203 0.16148 0.89631 0.0
H2318 H 0.6444 0.16089 0.90723 0.0
H2319 H 0.64214 0.1556 0.9291 0.0
H2320 H 0.10574 0.61503 0.32578 0.0
H2321 H 0.10071 0.61336 0.34766 0.0
H2322 H 0.15455 0.6646 0.35205 0.0
H2323 H 0.16 0.66595 0.33039 0.0
H2324 H 0.16074 0.62748 0.3667 0.0
H2325 H 0.07028 0.6597 0.37029 0.0
H2326 H 0.07373 0.6353 0.36044 0.0
H2327 H 0.08717 0.6625 0.35672 0.0
C2328 C 0.11634 0.62604 0.33143 0.0
C2329 C 0.13323 0.64062 0.32636 0.0
C2330 C 0.11337 0.62519 0.34391 0.0
C2331 C 0.12707 0.63909 0.35148 0.0
C2332 C 0.14375 0.65377 0.34639 0.0
H2333 H 0.14271 0.65506 0.42928 0.0
H2334 H 0.1452 0.66037 0.40743 0.0
C2335 C 0.14681 0.65454 0.33399 0.0
C2336 C 0.125 0.63767 0.36474 0.0
H2337 H 0.08741 0.64496 0.38813 0.0
C2338 C 0.14474 0.63144 0.37139 0.0
C2339 C 0.10412 0.64288 0.37084 0.0
C2340 C 0.08266 0.65068 0.36423 0.0
C2341 C 0.14407 0.62986 0.38395 0.0
C2342 C 0.12318 0.63493 0.39004 0.0
C2343 C 0.10343 0.6412 0.38342 0.0
C2344 C 0.12118 0.63266 0.40325 0.0
C2345 C 0.16555 0.6222 0.3906 0.0
C2346 C 0.10652 0.61572 0.40809 0.0
C2347 C 0.10509 0.61268 0.42049 0.0
C2348 C 0.11817 0.62666 0.42832 0.0
C2349 C 0.13251 0.64399 0.42347 0.0
C2350 C 0.134 0.64697 0.41101 0.0
H2351 H 0.17868 0.61451 0.38448 0.0
H2352 H 0.17351 0.63741 0.39509 0.0
H2353 H 0.16112 0.60927 0.39762 0.0
H2354 H 0.09646 0.60454 0.40226 0.0
H2355 H 0.09382 0.59919 0.42392 0.0
H2356 H 0.66087 0.84519 0.674 0.0
H2357 H 0.65593 0.84736 0.6523 0.0
H2358 H 0.59936 0.89544 0.65693 0.0
H2359 H 0.60425 0.89343 0.67882 0.0
H2360 H 0.61594 0.83738 0.63809 0.0
H2361 H 0.64502 0.929 0.63393 0.0
H2362 H 0.6503 0.91187 0.64722 0.0
H2363 H 0.62202 0.92381 0.64449 0.0
C2364 C 0.64731 0.85621 0.67044 0.0
C2365 C 0.63299 0.86924 0.67813 0.0
C2366 C 0.64451 0.85738 0.65802 0.0
C2367 C 0.62747 0.87172 0.65301 0.0
C2368 C 0.61284 0.8845 0.66064 0.0
H2369 H 0.59298 0.90844 0.58018 0.0
H2370 H 0.59498 0.90344 0.60184 0.0
C2371 C 0.61559 0.88328 0.67312 0.0
C2372 C 0.62536 0.87336 0.63979 0.0
H2373 H 0.63227 0.91052 0.61624 0.0
C2374 C 0.61947 0.85336 0.63328 0.0
C2375 C 0.63014 0.89419 0.63359 0.0
C2376 C 0.63741 0.91594 0.64011 0.0
C2377 C 0.61782 0.85375 0.6207 0.0
C2378 C 0.62266 0.87458 0.61449 0.0
C2379 C 0.62859 0.89456 0.62102 0.0
C2380 C 0.62097 0.87642 0.60123 0.0
C2381 C 0.61038 0.83202 0.61421 0.0
C2382 C 0.63494 0.86283 0.59364 0.0
C2383 C 0.6337 0.86553 0.58115 0.0
C2384 C 0.61867 0.88204 0.5761 0.0
C2385 C 0.60473 0.89553 0.58375 0.0
C2386 C 0.60587 0.89273 0.59616 0.0
H2387 H 0.6017 0.81955 0.62035 0.0
H2388 H 0.59837 0.83616 0.60672 0.0
H2389 H 0.6259 0.82336 0.61039 0.0
H2390 H 0.64708 0.85045 0.59737 0.0
H2391 H 0.64474 0.85501 0.57548 0.0
H2392 H 0.34725 0.34459 0.83043 0.0
H2393 H 0.35171 0.34703 0.85216 0.0
H2394 H 0.40715 0.39647 0.84773 0.0
H2395 H 0.40276 0.39418 0.82583 0.0
H2396 H 0.39179 0.33825 0.86664 0.0
H2397 H 0.36005 0.42904 0.87039 0.0
H2398 H 0.35545 0.4116 0.85715 0.0
H2399 H 0.38332 0.4244 0.85992 0.0
C2400 C 0.36046 0.35597 0.83404 0.0
C2401 C 0.37461 0.3693 0.82641 0.0
C2402 C 0.36299 0.35729 0.84647 0.0
C2403 C 0.37957 0.37209 0.85155 0.0
C2404 C 0.39403 0.38517 0.84398 0.0
H2405 H 0.41265 0.41049 0.92435 0.0
H2406 H 0.41074 0.4053 0.90269 0.0
C2407 C 0.39157 0.38379 0.83148 0.0
C2408 C 0.38138 0.37392 0.86478 0.0
H2409 H 0.37325 0.41121 0.88818 0.0
C2410 C 0.38776 0.35419 0.87138 0.0
C2411 C 0.37595 0.39469 0.8709 0.0
C2412 C 0.36812 0.41613 0.86428 0.0
C2413 C 0.38932 0.3548 0.88396 0.0
C2414 C 0.38386 0.37558 0.89009 0.0
C2415 C 0.37741 0.39528 0.88347 0.0
C2416 C 0.38543 0.37765 0.90335 0.0
C2417 C 0.39732 0.33339 0.89055 0.0
C2418 C 0.37179 0.36379 0.91097 0.0
C2419 C 0.37296 0.36662 0.92345 0.0
C2420 C 0.38761 0.38351 0.92847 0.0
C2421 C 0.4012 0.39729 0.92079 0.0
C2422 C 0.40012 0.39438 0.90839 0.0
H2423 H 0.40635 0.32105 0.88447 0.0
H2424 H 0.4092 0.33798 0.89802 0.0
H2425 H 0.38204 0.32438 0.8944 0.0
H2426 H 0.35997 0.35109 0.90726 0.0
H2427 H 0.36219 0.35586 0.92914 0.0
H2428 H 0.90436 0.1145 0.17957 0.0
H2429 H 0.91015 0.11256 0.15773 0.0
H2430 H 0.855 0.16207 0.1526 0.0
H2431 H 0.84911 0.1641 0.17422 0.0
H2432 H 0.87494 0.09979 0.14048 0.0
H2433 H 0.90899 0.18845 0.1323 0.0
H2434 H 0.90922 0.17507 0.14696 0.0
H2435 H 0.88291 0.18735 0.1411 0.0
C2436 C 0.89364 0.1251 0.17378 0.0
C2437 C 0.87634 0.13948 0.17862 0.0
C2438 C 0.89695 0.12398 0.16133 0.0
C2439 C 0.88322 0.13745 0.15359 0.0
C2440 C 0.86609 0.1519 0.15843 0.0
H2441 H 0.86462 0.15183 0.0764 0.0
H2442 H 0.86295 0.15614 0.09834 0.0
C2443 C 0.86268 0.15292 0.1708 0.0
C2444 C 0.88569 0.13552 0.1404 0.0
H2445 H 0.89744 0.16686 0.1151 0.0
C2446 C 0.88009 0.11436 0.13492 0.0
C2447 C 0.8921 0.15468 0.1332 0.0
C2448 C 0.89884 0.17764 0.13867 0.0
C2449 C 0.88025 0.11195 0.12239 0.0
C2450 C 0.88673 0.13109 0.11517 0.0
C2451 C 0.89242 0.15225 0.12065 0.0
C2452 C 0.88823 0.12924 0.10191 0.0
C2453 C 0.87284 0.0891 0.117 0.0
C2454 C 0.90335 0.11313 0.09668 0.0
C2455 C 0.90419 0.11055 0.08425 0.0
C2456 C 0.89017 0.12427 0.07675 0.0
C2457 C 0.87556 0.14097 0.08196 0.0
C2458 C 0.87461 0.14345 0.09447 0.0
H2459 H 0.86215 0.07881 0.12337 0.0
H2460 H 0.86274 0.09177 0.10863 0.0
H2461 H 0.88848 0.07874 0.11479 0.0
H2462 H 0.91444 0.10242 0.10223 0.0
H2463 H 0.91579 0.09765 0.08054 0.0
H2464 H 0.84573 0.66513 0.82955 0.0
H2465 H 0.85035 0.66405 0.85127 0.0
H2466 H 0.90635 0.61498 0.84752 0.0
H2467 H 0.90213 0.61635 0.8256 0.0
H2468 H 0.84537 0.62676 0.86608 0.0
H2469 H 0.93412 0.66324 0.87006 0.0
H2470 H 0.91739 0.6651 0.8564 0.0
H2471 H 0.93207 0.63862 0.86025 0.0
C2472 C 0.8592 0.65423 0.83331 0.0
C2473 C 0.87365 0.64086 0.82585 0.0
C2474 C 0.86178 0.65363 0.84574 0.0
C2475 C 0.87885 0.63967 0.85102 0.0
C2476 C 0.89336 0.62626 0.84362 0.0
H2477 H 0.91345 0.60084 0.92315 0.0
H2478 H 0.91013 0.60634 0.90155 0.0
C2479 C 0.89085 0.62693 0.83112 0.0
C2480 C 0.88064 0.63855 0.86429 0.0
H2481 H 0.91747 0.64759 0.88783 0.0
C2482 C 0.86108 0.63146 0.87085 0.0
C2483 C 0.90113 0.64478 0.87048 0.0
C2484 C 0.92232 0.65358 0.86397 0.0
C2485 C 0.86162 0.62991 0.88342 0.0
C2486 C 0.88218 0.63588 0.88959 0.0
C2487 C 0.9017 0.64312 0.88305 0.0
C2488 C 0.88424 0.63335 0.90277 0.0
C2489 C 0.84043 0.62125 0.88998 0.0
C2490 C 0.8709 0.64693 0.91065 0.0
C2491 C 0.87278 0.64386 0.9231 0.0
C2492 C 0.88804 0.62717 0.92779 0.0
C2493 C 0.90151 0.61384 0.91984 0.0
C2494 C 0.89968 0.61697 0.90747 0.0
H2495 H 0.82761 0.61325 0.88379 0.0
H2496 H 0.84534 0.60829 0.8969 0.0
H2497 H 0.8319 0.63601 0.8946 0.0
H2498 H 0.85907 0.65988 0.90718 0.0
H2499 H 0.86225 0.65442 0.92901 0.0
H2500 H 0.09147 0.10044 0.58115 0.0
H2501 H 0.09332 0.10575 0.6028 0.0
H2502 H 0.14536 0.15876 0.59823 0.0
H2503 H 0.14317 0.1539 0.57635 0.0
H2504 H 0.13063 0.09872 0.61716 0.0
H2505 H 0.10023 0.18974 0.62128 0.0
H2506 H 0.09683 0.17312 0.60766 0.0
H2507 H 0.12438 0.18592 0.61129 0.0
C2508 C 0.10316 0.11344 0.5847 0.0
C2509 C 0.11716 0.12681 0.57703 0.0
C2510 C 0.1042 0.11641 0.5971 0.0
C2511 C 0.11927 0.1328 0.60214 0.0
C2512 C 0.13323 0.14634 0.59452 0.0
H2513 H 0.16037 0.164 0.67474 0.0
H2514 H 0.15493 0.16199 0.65307 0.0
C2515 C 0.13208 0.14346 0.58204 0.0
C2516 C 0.12105 0.13467 0.6154 0.0
H2517 H 0.11477 0.17198 0.63899 0.0
C2518 C 0.12703 0.11471 0.62193 0.0
C2519 C 0.11634 0.15554 0.62161 0.0
C2520 C 0.10888 0.17726 0.61513 0.0
C2521 C 0.12878 0.11513 0.63449 0.0
C2522 C 0.12414 0.13599 0.6407 0.0
C2523 C 0.11819 0.15597 0.63419 0.0
C2524 C 0.12646 0.13766 0.65391 0.0
C2525 C 0.13614 0.09339 0.641 0.0
C2526 C 0.11198 0.12486 0.6616 0.0
C2527 C 0.11502 0.12598 0.67407 0.0
C2528 C 0.13258 0.13994 0.679 0.0
C2529 C 0.14671 0.15303 0.67125 0.0
C2530 C 0.14362 0.15196 0.65884 0.0
H2531 H 0.14366 0.08031 0.6348 0.0
H2532 H 0.14913 0.09747 0.64806 0.0
H2533 H 0.12081 0.08553 0.64544 0.0
H2534 H 0.09841 0.11395 0.65795 0.0
H2535 H 0.10381 0.11579 0.67981 0.0
H2536 H 0.59185 0.40938 0.42447 0.0
H2537 H 0.59339 0.40467 0.40277 0.0
H2538 H 0.64372 0.34988 0.40682 0.0
H2539 H 0.64186 0.35417 0.42872 0.0
H2540 H 0.63069 0.41074 0.38826 0.0
H2541 H 0.59716 0.32093 0.38382 0.0
H2542 H 0.59448 0.33742 0.39752 0.0
H2543 H 0.62149 0.32362 0.39378 0.0
C2544 C 0.6031 0.39614 0.42079 0.0
C2545 C 0.6167 0.38208 0.42832 0.0
C2546 C 0.60397 0.39351 0.40836 0.0
C2547 C 0.61845 0.37676 0.40316 0.0
C2548 C 0.63205 0.3626 0.41064 0.0
H2549 H 0.66006 0.34541 0.33085 0.0
H2550 H 0.65412 0.34762 0.35249 0.0
C2551 C 0.63109 0.36515 0.42315 0.0
C2552 C 0.61999 0.37509 0.3899 0.0
H2553 H 0.61269 0.33825 0.36619 0.0
C2554 C 0.62661 0.39493 0.38343 0.0
C2555 C 0.61459 0.35447 0.38361 0.0
C2556 C 0.60632 0.33294 0.39001 0.0
C2557 C 0.62844 0.39459 0.37087 0.0
C2558 C 0.62326 0.37392 0.36461 0.0
C2559 C 0.61656 0.35409 0.37104 0.0
C2560 C 0.62592 0.37223 0.35142 0.0
C2561 C 0.63649 0.41614 0.36442 0.0
C2562 C 0.61178 0.38515 0.34362 0.0
C2563 C 0.61508 0.38389 0.33118 0.0
C2564 C 0.63259 0.3697 0.32638 0.0
C2565 C 0.64644 0.35655 0.33424 0.0
C2566 C 0.64306 0.35774 0.34662 0.0
H2567 H 0.64395 0.42914 0.37068 0.0
H2568 H 0.64973 0.41175 0.35755 0.0
H2569 H 0.62153 0.42422 0.35976 0.0
H2570 H 0.59825 0.39624 0.34717 0.0
H2571 H 0.6041 0.39414 0.32534 0.0
H2572 H 0.36873 0.8534 0.07623 0.0
H2573 H 0.36648 0.84976 0.09818 0.0
H2574 H 0.41817 0.90331 0.102 0.0
H2575 H 0.42018 0.90735 0.08027 0.0
H2576 H 0.40077 0.8396 0.11541 0.0
H2577 H 0.36479 0.92783 0.12235 0.0
H2578 H 0.36577 0.91416 0.10779 0.0
H2579 H 0.39133 0.92751 0.11394 0.0
C2580 C 0.37962 0.86433 0.08177 0.0
C2581 C 0.39446 0.88079 0.07653 0.0
C2582 C 0.37834 0.86224 0.09429 0.0
C2583 C 0.39182 0.87661 0.10172 0.0
C2584 C 0.4072 0.89245 0.09646 0.0
H2585 H 0.40529 0.89427 0.17935 0.0
H2586 H 0.4115 0.89566 0.15752 0.0
C2587 C 0.40841 0.89462 0.08401 0.0
C2588 C 0.38983 0.87529 0.11497 0.0
H2589 H 0.37679 0.90751 0.1398 0.0
C2590 C 0.39543 0.8544 0.12075 0.0
C2591 C 0.38293 0.89467 0.12191 0.0
C2592 C 0.37565 0.91725 0.11619 0.0
C2593 C 0.3946 0.85247 0.13331 0.0
C2594 C 0.38775 0.87186 0.14023 0.0
C2595 C 0.38224 0.89276 0.13446 0.0
C2596 C 0.38485 0.87045 0.15342 0.0
C2597 C 0.40132 0.82979 0.1391 0.0
C2598 C 0.3677 0.85604 0.15828 0.0
C2599 C 0.36404 0.85533 0.17064 0.0
C2600 C 0.37748 0.86904 0.17843 0.0
C2601 C 0.39473 0.88347 0.17357 0.0
C2602 C 0.39829 0.88427 0.16113 0.0
H2603 H 0.41175 0.81878 0.13294 0.0
H2604 H 0.4114 0.8328 0.14745 0.0
H2605 H 0.38537 0.82008 0.1415 0.0
H2606 H 0.35683 0.84559 0.15247 0.0
H2607 H 0.35052 0.84412 0.17407 0.0
H2608 H 0.85101 0.34122 0.67412 0.0
H2609 H 0.85605 0.34317 0.65245 0.0
H2610 H 0.90884 0.39547 0.6569 0.0
H2611 H 0.90426 0.39318 0.67879 0.0
H2612 H 0.84878 0.38028 0.63803 0.0
H2613 H 0.93995 0.3504 0.6339 0.0
H2614 H 0.9234 0.347 0.64753 0.0
H2615 H 0.93607 0.37458 0.64385 0.0
C2616 C 0.86389 0.353 0.67053 0.0
C2617 C 0.87731 0.36702 0.67818 0.0
C2618 C 0.86671 0.3541 0.65812 0.0
C2619 C 0.88298 0.36925 0.65304 0.0
C2620 C 0.89651 0.38328 0.66063 0.0
H2621 H 0.91394 0.41008 0.58037 0.0
H2622 H 0.91181 0.40488 0.60206 0.0
C2623 C 0.89379 0.38208 0.67312 0.0
C2624 C 0.8848 0.37097 0.63979 0.0
H2625 H 0.9221 0.36481 0.61619 0.0
C2626 C 0.86478 0.37678 0.63325 0.0
C2627 C 0.90568 0.36635 0.63357 0.0
C2628 C 0.92746 0.35902 0.64004 0.0
C2629 C 0.86516 0.37846 0.62069 0.0
C2630 C 0.88605 0.37395 0.61448 0.0
C2631 C 0.90609 0.36815 0.62099 0.0
C2632 C 0.8877 0.37621 0.60127 0.0
C2633 C 0.84336 0.3856 0.61418 0.0
C2634 C 0.87505 0.36156 0.5936 0.0
C2635 C 0.87624 0.36446 0.58113 0.0
C2636 C 0.89013 0.38204 0.57617 0.0
C2637 C 0.90303 0.39639 0.58389 0.0
C2638 C 0.90189 0.39344 0.59631 0.0
H2639 H 0.83021 0.39302 0.62037 0.0
H2640 H 0.84732 0.39859 0.60711 0.0
H2641 H 0.83563 0.37018 0.60975 0.0
H2642 H 0.86423 0.34794 0.59727 0.0
H2643 H 0.86619 0.35309 0.5754 0.0
H2644 H 0.34795 0.16426 0.33025 0.0
H2645 H 0.3529 0.16227 0.35192 0.0
H2646 H 0.40669 0.11101 0.34747 0.0
H2647 H 0.40217 0.1133 0.32558 0.0
H2648 H 0.3468 0.12508 0.36661 0.0
H2649 H 0.43717 0.15772 0.36996 0.0
H2650 H 0.42013 0.16045 0.35644 0.0
H2651 H 0.43365 0.13328 0.36013 0.0
C2652 C 0.36099 0.15265 0.33384 0.0
C2653 C 0.37477 0.13899 0.32619 0.0
C2654 C 0.36375 0.15153 0.34625 0.0
C2655 C 0.38035 0.13674 0.35132 0.0
C2656 C 0.3941 0.12291 0.34374 0.0
H2657 H 0.41417 0.09834 0.42388 0.0
H2658 H 0.41138 0.10327 0.40221 0.0
C2659 C 0.39141 0.12411 0.33124 0.0
C2660 C 0.38249 0.13539 0.36457 0.0
H2661 H 0.42011 0.14341 0.38788 0.0
C2662 C 0.3628 0.12919 0.37127 0.0
C2663 C 0.40336 0.14085 0.37062 0.0
C2664 C 0.42474 0.14866 0.36395 0.0
C2665 C 0.36352 0.1279 0.38384 0.0
C2666 C 0.38441 0.13323 0.38988 0.0
C2667 C 0.4041 0.13945 0.3832 0.0
C2668 C 0.38648 0.13124 0.40309 0.0
C2669 C 0.3421 0.12029 0.39055 0.0
C2670 C 0.37363 0.14563 0.4108 0.0
C2671 C 0.37521 0.1429 0.42327 0.0
C2672 C 0.38967 0.12573 0.42818 0.0
C2673 C 0.40281 0.1117 0.4204 0.0
C2674 C 0.40129 0.1145 0.408 0.0
H2675 H 0.32898 0.11241 0.38449 0.0
H2676 H 0.34661 0.10754 0.39765 0.0
H2677 H 0.33409 0.13557 0.39497 0.0
H2678 H 0.36233 0.15889 0.40717 0.0
H2679 H 0.36496 0.154 0.42904 0.0
H2680 H 0.65903 0.66492 0.17378 0.0
H2681 H 0.65366 0.66259 0.15212 0.0
H2682 H 0.5989 0.61258 0.15707 0.0
H2683 H 0.60419 0.61481 0.17895 0.0
H2684 H 0.63427 0.60002 0.13995 0.0
H2685 H 0.59985 0.68848 0.13159 0.0
H2686 H 0.62589 0.68755 0.14043 0.0
H2687 H 0.59961 0.67518 0.14627 0.0
C2688 C 0.64567 0.65356 0.17031 0.0
C2689 C 0.63196 0.64008 0.17808 0.0
C2690 C 0.64256 0.65236 0.15791 0.0
C2691 C 0.62566 0.6377 0.15301 0.0
C2692 C 0.61191 0.62416 0.16071 0.0
H2693 H 0.59273 0.59748 0.08011 0.0
H2694 H 0.59442 0.60236 0.10179 0.0
C2695 C 0.61494 0.62544 0.17318 0.0
C2696 C 0.62338 0.6357 0.13981 0.0
H2697 H 0.61149 0.66681 0.11445 0.0
C2698 C 0.62908 0.61453 0.13437 0.0
C2699 C 0.6169 0.65478 0.13257 0.0
C2700 C 0.61001 0.67775 0.13799 0.0
C2701 C 0.62891 0.61203 0.12184 0.0
C2702 C 0.62233 0.63109 0.11458 0.0
C2703 C 0.61658 0.65226 0.12003 0.0
C2704 C 0.62072 0.6291 0.10133 0.0
C2705 C 0.63637 0.58917 0.11649 0.0
C2706 C 0.6343 0.64319 0.09381 0.0
C2707 C 0.63318 0.64062 0.08131 0.0
C2708 C 0.61842 0.62396 0.07618 0.0
C2709 C 0.60444 0.61035 0.08376 0.0
C2710 C 0.60547 0.613 0.09618 0.0
H2711 H 0.64708 0.57894 0.12287 0.0
H2712 H 0.62075 0.57876 0.11429 0.0
H2713 H 0.64645 0.59181 0.10811 0.0
H2714 H 0.64605 0.65587 0.09762 0.0
H2715 H 0.64409 0.6514 0.07569 0.0
H2716 H 0.1048 0.8925 0.82637 0.0
H2717 H 0.10078 0.89497 0.84831 0.0
H2718 H 0.15177 0.84085 0.85246 0.0
H2719 H 0.15626 0.83867 0.83077 0.0
H2720 H 0.08865 0.86163 0.86552 0.0
H2721 H 0.17855 0.89275 0.87288 0.0
H2722 H 0.16519 0.8923 0.85823 0.0
H2723 H 0.17711 0.86617 0.86454 0.0
C2724 C 0.11508 0.88113 0.83199 0.0
C2725 C 0.131 0.86557 0.82685 0.0
C2726 C 0.11278 0.88254 0.84449 0.0
C2727 C 0.12637 0.86843 0.85201 0.0
C2728 C 0.14158 0.85232 0.84685 0.0
H2729 H 0.14262 0.85359 0.92958 0.0
H2730 H 0.14373 0.84747 0.90775 0.0
C2731 C 0.144 0.85101 0.83442 0.0
C2732 C 0.12491 0.87052 0.86525 0.0
H2733 H 0.15745 0.8815 0.89024 0.0
C2734 C 0.10364 0.86608 0.87093 0.0
C2735 C 0.14453 0.87628 0.87228 0.0
C2736 C 0.16758 0.88237 0.86668 0.0
C2737 C 0.10157 0.8669 0.88348 0.0
C2738 C 0.12123 0.87254 0.8905 0.0
C2739 C 0.14248 0.87694 0.88483 0.0
C2740 C 0.11983 0.87533 0.90369 0.0
C2741 C 0.07845 0.86145 0.88916 0.0
C2742 C 0.10625 0.89312 0.90857 0.0
C2743 C 0.1057 0.8967 0.92094 0.0
C2744 C 0.11876 0.88258 0.92871 0.0
C2745 C 0.13233 0.86468 0.92382 0.0
C2746 C 0.13297 0.86117 0.91138 0.0
H2747 H 0.06699 0.85165 0.88295 0.0
H2748 H 0.08073 0.85122 0.89752 0.0
H2749 H 0.06959 0.87791 0.89152 0.0
H2750 H 0.09638 0.90454 0.90278 0.0
H2751 H 0.09516 0.91074 0.92439 0.0
loop_
_geom_bond_atom_site_label_1
_geom_bond_atom_site_label_2
_geom_bond_distance
_geom_bond_site_symmetry_2
_ccdc_geom_bond_type
Co0 O1 2.216 . S
Co0 O2 2.091 . S
Co0 O4 2.004 . S
Co0 O10 2.021 . S
Co0 O12 2.137 . S
Co0 O13 2.244 . S
O1 Co0 2.216 . S
O1 C8 1.247 . S
O2 Co0 2.091 . S
O2 C8 1.261 . S
C3 O12 1.247 . S
C3 O13 1.272 . S
O4 Co0 2.004 . S
O4 C9 1.259 . S
Co5 O6 2.061 . S
Co5 O11 2.052 . S
Co5 O13 2.135 . S
O6 Co5 2.061 . S
O6 C9 1.235 . S
C7 O10 1.238 . S
C7 O11 1.241 . S
C8 O1 1.247 . S
C8 O2 1.261 . S
C9 O4 1.259 . S
C9 O6 1.235 . S
O10 Co0 2.021 . S
O10 C7 1.238 . S
O11 Co5 2.052 . S
O11 C7 1.241 . S
O12 Co0 2.137 . S
O12 C3 1.247 . S
O13 Co0 2.244 . S
O13 C3 1.272 . S
O13 Co5 2.135 . S
Co14 O15 2.216 . S
Co14 O16 2.091 . S
Co14 O18 2.004 . S
Co14 O24 2.021 . S
Co14 O26 2.137 . S
Co14 O27 2.244 . S
O15 Co14 2.216 . S
O15 C22 1.247 . S
O16 Co14 2.091 . S
O16 C22 1.261 . S
C17 O26 1.247 . S
C17 O27 1.272 . S
O18 Co14 2.004 . S
O18 C23 1.259 . S
Co19 O20 2.061 . S
Co19 O25 2.052 . S
Co19 O27 2.135 . S
O20 Co19 2.061 . S
O20 C23 1.235 . S
C21 O24 1.238 . S
C21 O25 1.241 . S
C22 O15 1.247 . S
C22 O16 1.261 . S
C23 O18 1.259 . S
C23 O20 1.235 . S
O24 Co14 2.021 . S
O24 C21 1.238 . S
O25 Co19 2.052 . S
O25 C21 1.241 . S
O26 Co14 2.137 . S
O26 C17 1.247 . S
O27 Co14 2.244 . S
O27 C17 1.272 . S
O27 Co19 2.135 . S
Co28 O29 2.216 . S
Co28 O30 2.091 . S
Co28 O32 2.004 . S
Co28 O38 2.021 . S
Co28 O40 2.137 . S
Co28 O41 2.244 . S
O29 Co28 2.216 . S
O29 C36 1.247 . S
O30 Co28 2.091 . S
O30 C36 1.261 . S
C31 O40 1.247 . S
C31 O41 1.272 . S
O32 Co28 2.004 . S
O32 C37 1.259 . S
Co33 O34 2.061 . S
Co33 O39 2.052 . S
Co33 O41 2.135 . S
O34 Co33 2.061 . S
O34 C37 1.235 . S
C35 O38 1.238 . S
C35 O39 1.241 . S
C36 O29 1.247 . S
C36 O30 1.261 . S
C37 O32 1.259 . S
C37 O34 1.235 . S
O38 Co28 2.021 . S
O38 C35 1.238 . S
O39 Co33 2.052 . S
O39 C35 1.241 . S
O40 Co28 2.137 . S
O40 C31 1.247 . S
O41 Co28 2.244 . S
O41 C31 1.272 . S
O41 Co33 2.135 . S
Co42 O43 2.216 . S
Co42 O44 2.091 . S
Co42 O46 2.004 . S
Co42 O52 2.021 . S
Co42 O54 2.137 . S
Co42 O55 2.244 . S
O43 Co42 2.216 . S
O43 C50 1.247 . S
O44 Co42 2.091 . S
O44 C50 1.261 . S
C45 O54 1.247 . S
C45 O55 1.272 . S
O46 Co42 2.004 . S
O46 C51 1.259 . S
Co47 O48 2.061 . S
Co47 O53 2.052 . S
Co47 O55 2.135 . S
O48 Co47 2.061 . S
O48 C51 1.235 . S
C49 O52 1.238 . S
C49 O53 1.241 . S
C50 O43 1.247 . S
C50 O44 1.261 . S
C51 O46 1.259 . S
C51 O48 1.235 . S
O52 Co42 2.021 . S
O52 C49 1.238 . S
O53 Co47 2.052 . S
O53 C49 1.241 . S
O54 Co42 2.137 . S
O54 C45 1.247 . S
O55 Co42 2.244 . S
O55 C45 1.272 . S
O55 Co47 2.135 . S
Co56 O57 2.216 . S
Co56 O58 2.091 . S
Co56 O60 2.004 . S
Co56 O66 2.021 . S
Co56 O68 2.137 . S
Co56 O69 2.244 . S
O57 Co56 2.216 . S
O57 C64 1.247 . S
O58 Co56 2.091 . S
O58 C64 1.261 . S
C59 O68 1.247 . S
C59 O69 1.272 . S
O60 Co56 2.004 . S
O60 C65 1.259 . S
Co61 O62 2.061 . S
Co61 O67 2.052 . S
Co61 O69 2.135 . S
O62 Co61 2.061 . S
O62 C65 1.235 . S
C63 O66 1.238 . S
C63 O67 1.241 . S
C64 O57 1.247 . S
C64 O58 1.261 . S
C65 O60 1.259 . S
C65 O62 1.235 . S
O66 Co56 2.021 . S
O66 C63 1.238 . S
O67 Co61 2.052 . S
O67 C63 1.241 . S
O68 Co56 2.137 . S
O68 C59 1.247 . S
O69 Co56 2.244 . S
O69 C59 1.272 . S
O69 Co61 2.135 . S
Co70 O71 2.216 . S
Co70 O72 2.091 . S
Co70 O74 2.004 . S
Co70 O80 2.021 . S
Co70 O82 2.137 . S
Co70 O83 2.244 . S
O71 Co70 2.216 . S
O71 C78 1.247 . S
O72 Co70 2.091 . S
O72 C78 1.261 . S
C73 O82 1.247 . S
C73 O83 1.272 . S
O74 Co70 2.004 . S
O74 C79 1.259 . S
Co75 O76 2.061 . S
Co75 O81 2.052 . S
Co75 O83 2.135 . S
O76 Co75 2.061 . S
O76 C79 1.235 . S
C77 O80 1.238 . S
C77 O81 1.241 . S
C78 O71 1.247 . S
C78 O72 1.261 . S
C79 O74 1.259 . S
C79 O76 1.235 . S
O80 Co70 2.021 . S
O80 C77 1.238 . S
O81 Co75 2.052 . S
O81 C77 1.241 . S
O82 Co70 2.137 . S
O82 C73 1.247 . S
O83 Co70 2.244 . S
O83 C73 1.272 . S
O83 Co75 2.135 . S
Co84 O85 2.216 . S
Co84 O86 2.091 . S
Co84 O88 2.004 . S
Co84 O94 2.021 . S
Co84 O96 2.137 . S
Co84 O97 2.244 . S
O85 Co84 2.216 . S
O85 C92 1.247 . S
O86 Co84 2.091 . S
O86 C92 1.261 . S
C87 O96 1.247 . S
C87 O97 1.272 . S
O88 Co84 2.004 . S
O88 C93 1.259 . S
Co89 O90 2.061 . S
Co89 O95 2.052 . S
Co89 O97 2.135 . S
O90 Co89 2.061 . S
O90 C93 1.235 . S
C91 O94 1.238 . S
C91 O95 1.241 . S
C92 O85 1.247 . S
C92 O86 1.261 . S
C93 O88 1.259 . S
C93 O90 1.235 . S
O94 Co84 2.021 . S
O94 C91 1.238 . S
O95 Co89 2.052 . S
O95 C91 1.241 . S
O96 Co84 2.137 . S
O96 C87 1.247 . S
O97 Co84 2.244 . S
O97 C87 1.272 . S
O97 Co89 2.135 . S
Co98 O99 2.216 . S
Co98 O100 2.091 . S
Co98 O102 2.004 . S
Co98 O108 2.021 . S
Co98 O110 2.137 . S
Co98 O111 2.244 . S
O99 Co98 2.216 . S
O99 C106 1.247 . S
O100 Co98 2.091 . S
O100 C106 1.261 . S
C101 O110 1.247 . S
C101 O111 1.272 . S
O102 Co98 2.004 . S
O102 C107 1.259 . S
Co103 O104 2.061 . S
Co103 O109 2.052 . S
Co103 O111 2.135 . S
O104 Co103 2.061 . S
O104 C107 1.235 . S
C105 O108 1.238 . S
C105 O109 1.241 . S
C106 O99 1.247 . S
C106 O100 1.261 . S
C107 O102 1.259 . S
C107 O104 1.235 . S
O108 Co98 2.021 . S
O108 C105 1.238 . S
O109 Co103 2.052 . S
O109 C105 1.241 . S
O110 Co98 2.137 . S
O110 C101 1.247 . S
O111 Co98 2.244 . S
O111 C101 1.272 . S
O111 Co103 2.135 . S
Co112 O113 2.216 . S
Co112 O114 2.091 . S
Co112 O116 2.004 . S
Co112 O122 2.021 . S
Co112 O124 2.137 . S
Co112 O125 2.244 . S
O113 Co112 2.216 . S
O113 C120 1.247 . S
O114 Co112 2.091 . S
O114 C120 1.261 . S
C115 O124 1.247 . S
C115 O125 1.272 . S
O116 Co112 2.004 . S
O116 C121 1.259 . S
Co117 O118 2.061 . S
Co117 O123 2.052 . S
Co117 O125 2.135 . S
O118 Co117 2.061 . S
O118 C121 1.235 . S
C119 O122 1.238 . S
C119 O123 1.241 . S
C120 O113 1.247 . S
C120 O114 1.261 . S
C121 O116 1.259 . S
C121 O118 1.235 . S
O122 Co112 2.021 . S
O122 C119 1.238 . S
O123 Co117 2.052 . S
O123 C119 1.241 . S
O124 Co112 2.137 . S
O124 C115 1.247 . S
O125 Co112 2.244 . S
O125 C115 1.272 . S
O125 Co117 2.135 . S
Co126 O127 2.216 . S
Co126 O128 2.091 . S
Co126 O130 2.004 . S
Co126 O136 2.021 . S
Co126 O138 2.137 . S
Co126 O139 2.244 . S
O127 Co126 2.216 . S
O127 C134 1.247 . S
O128 Co126 2.091 . S
O128 C134 1.261 . S
C129 O138 1.247 . S
C129 O139 1.272 . S
O130 Co126 2.004 . S
O130 C135 1.259 . S
Co131 O132 2.061 . S
Co131 O137 2.052 . S
Co131 O139 2.135 . S
O132 Co131 2.061 . S
O132 C135 1.235 . S
C133 O136 1.238 . S
C133 O137 1.241 . S
C134 O127 1.247 . S
C134 O128 1.261 . S
C135 O130 1.259 . S
C135 O132 1.235 . S
O136 Co126 2.021 . S
O136 C133 1.238 . S
O137 Co131 2.052 . S
O137 C133 1.241 . S
O138 Co126 2.137 . S
O138 C129 1.247 . S
O139 Co126 2.244 . S
O139 C129 1.272 . S
O139 Co131 2.135 . S
Co140 O141 2.216 . S
Co140 O142 2.091 . S
Co140 O144 2.004 . S
Co140 O150 2.021 . S
Co140 O152 2.137 . S
Co140 O153 2.244 . S
O141 Co140 2.216 . S
O141 C148 1.247 . S
O142 Co140 2.091 . S
O142 C148 1.261 . S
C143 O152 1.247 . S
C143 O153 1.272 . S
O144 Co140 2.004 . S
O144 C149 1.259 . S
Co145 O146 2.061 . S
Co145 O151 2.052 . S
Co145 O153 2.135 . S
O146 Co145 2.061 . S
O146 C149 1.235 . S
C147 O150 1.238 . S
C147 O151 1.241 . S
C148 O141 1.247 . S
C148 O142 1.261 . S
C149 O144 1.259 . S
C149 O146 1.235 . S
O150 Co140 2.021 . S
O150 C147 1.238 . S
O151 Co145 2.052 . S
O151 C147 1.241 . S
O152 Co140 2.137 . S
O152 C143 1.247 . S
O153 Co140 2.244 . S
O153 C143 1.272 . S
O153 Co145 2.135 . S
Co154 O155 2.216 . S
Co154 O156 2.091 . S
Co154 O158 2.004 . S
Co154 O164 2.021 . S
Co154 O166 2.137 . S
Co154 O167 2.244 . S
O155 Co154 2.216 . S
O155 C162 1.247 . S
O156 Co154 2.091 . S
O156 C162 1.261 . S
C157 O166 1.247 . S
C157 O167 1.272 . S
O158 Co154 2.004 . S
O158 C163 1.259 . S
Co159 O160 2.061 . S
Co159 O165 2.052 . S
Co159 O167 2.135 . S
O160 Co159 2.061 . S
O160 C163 1.235 . S
C161 O164 1.238 . S
C161 O165 1.241 . S
C162 O155 1.247 . S
C162 O156 1.261 . S
C163 O158 1.259 . S
C163 O160 1.235 . S
O164 Co154 2.021 . S
O164 C161 1.238 . S
O165 Co159 2.052 . S
O165 C161 1.241 . S
O166 Co154 2.137 . S
O166 C157 1.247 . S
O167 Co154 2.244 . S
O167 C157 1.272 . S
O167 Co159 2.135 . S
Co168 O169 2.216 . S
Co168 O170 2.091 . S
Co168 O172 2.004 . S
Co168 O178 2.021 . S
Co168 O180 2.137 . S
Co168 O181 2.244 . S
O169 Co168 2.216 . S
O169 C176 1.247 . S
O170 Co168 2.091 . S
O170 C176 1.261 . S
C171 O180 1.247 . S
C171 O181 1.272 . S
O172 Co168 2.004 . S
O172 C177 1.259 . S
Co173 O174 2.061 . S
Co173 O179 2.052 . S
Co173 O181 2.135 . S
O174 Co173 2.061 . S
O174 C177 1.235 . S
C175 O178 1.238 . S
C175 O179 1.241 . S
C176 O169 1.247 . S
C176 O170 1.261 . S
C177 O172 1.259 . S
C177 O174 1.235 . S
O178 Co168 2.021 . S
O178 C175 1.238 . S
O179 Co173 2.052 . S
O179 C175 1.241 . S
O180 Co168 2.137 . S
O180 C171 1.247 . S
O181 Co168 2.244 . S
O181 C171 1.272 . S
O181 Co173 2.135 . S
Co182 O183 2.216 . S
Co182 O184 2.091 . S
Co182 O186 2.004 . S
Co182 O192 2.021 . S
Co182 O194 2.137 . S
Co182 O195 2.244 . S
O183 Co182 2.216 . S
O183 C190 1.247 . S
O184 Co182 2.091 . S
O184 C190 1.261 . S
C185 O194 1.247 . S
C185 O195 1.272 . S
O186 Co182 2.004 . S
O186 C191 1.259 . S
Co187 O188 2.061 . S
Co187 O193 2.052 . S
Co187 O195 2.135 . S
O188 Co187 2.061 . S
O188 C191 1.235 . S
C189 O192 1.238 . S
C189 O193 1.241 . S
C190 O183 1.247 . S
C190 O184 1.261 . S
C191 O186 1.259 . S
C191 O188 1.235 . S
O192 Co182 2.021 . S
O192 C189 1.238 . S
O193 Co187 2.052 . S
O193 C189 1.241 . S
O194 Co182 2.137 . S
O194 C185 1.247 . S
O195 Co182 2.244 . S
O195 C185 1.272 . S
O195 Co187 2.135 . S
Co196 O197 2.216 . S
Co196 O198 2.091 . S
Co196 O200 2.004 . S
Co196 O206 2.021 . S
Co196 O208 2.137 . S
Co196 O209 2.244 . S
O197 Co196 2.216 . S
O197 C204 1.247 . S
O198 Co196 2.091 . S
O198 C204 1.261 . S
C199 O208 1.247 . S
C199 O209 1.272 . S
O200 Co196 2.004 . S
O200 C205 1.259 . S
Co201 O202 2.061 . S
Co201 O207 2.052 . S
Co201 O209 2.135 . S
O202 Co201 2.061 . S
O202 C205 1.235 . S
C203 O206 1.238 . S
C203 O207 1.241 . S
C204 O197 1.247 . S
C204 O198 1.261 . S
C205 O200 1.259 . S
C205 O202 1.235 . S
O206 Co196 2.021 . S
O206 C203 1.238 . S
O207 Co201 2.052 . S
O207 C203 1.241 . S
O208 Co196 2.137 . S
O208 C199 1.247 . S
O209 Co196 2.244 . S
O209 C199 1.272 . S
O209 Co201 2.135 . S
Co210 O211 2.216 . S
Co210 O212 2.091 . S
Co210 O214 2.004 . S
Co210 O220 2.021 . S
Co210 O222 2.137 . S
Co210 O223 2.244 . S
O211 Co210 2.216 . S
O211 C218 1.247 . S
O212 Co210 2.091 . S
O212 C218 1.261 . S
C213 O222 1.247 . S
C213 O223 1.272 . S
O214 Co210 2.004 . S
O214 C219 1.259 . S
Co215 O216 2.061 . S
Co215 O221 2.052 . S
Co215 O223 2.135 . S
O216 Co215 2.061 . S
O216 C219 1.235 . S
C217 O220 1.238 . S
C217 O221 1.241 . S
C218 O211 1.247 . S
C218 O212 1.261 . S
C219 O214 1.259 . S
C219 O216 1.235 . S
O220 Co210 2.021 . S
O220 C217 1.238 . S
O221 Co215 2.052 . S
O221 C217 1.241 . S
O222 Co210 2.137 . S
O222 C213 1.247 . S
O223 Co210 2.244 . S
O223 C213 1.272 . S
O223 Co215 2.135 . S
Co224 O225 2.216 . S
Co224 O226 2.091 . S
Co224 O228 2.004 . S
Co224 O234 2.021 . S
Co224 O236 2.137 . S
Co224 O237 2.244 . S
O225 Co224 2.216 . S
O225 C232 1.247 . S
O226 Co224 2.091 . S
O226 C232 1.261 . S
C227 O236 1.247 . S
C227 O237 1.272 . S
O228 Co224 2.004 . S
O228 C233 1.259 . S
Co229 O230 2.061 . S
Co229 O235 2.052 . S
Co229 O237 2.135 . S
O230 Co229 2.061 . S
O230 C233 1.235 . S
C231 O234 1.238 . S
C231 O235 1.241 . S
C232 O225 1.247 . S
C232 O226 1.261 . S
C233 O228 1.259 . S
C233 O230 1.235 . S
O234 Co224 2.021 . S
O234 C231 1.238 . S
O235 Co229 2.052 . S
O235 C231 1.241 . S
O236 Co224 2.137 . S
O236 C227 1.247 . S
O237 Co224 2.244 . S
O237 C227 1.272 . S
O237 Co229 2.135 . S
Co238 O239 2.216 . S
Co238 O240 2.091 . S
Co238 O242 2.004 . S
Co238 O248 2.021 . S
Co238 O250 2.137 . S
Co238 O251 2.244 . S
O239 Co238 2.216 . S
O239 C246 1.247 . S
O240 Co238 2.091 . S
O240 C246 1.261 . S
C241 O250 1.247 . S
C241 O251 1.272 . S
O242 Co238 2.004 . S
O242 C247 1.259 . S
Co243 O244 2.061 . S
Co243 O249 2.052 . S
Co243 O251 2.135 . S
O244 Co243 2.061 . S
O244 C247 1.235 . S
C245 O248 1.238 . S
C245 O249 1.241 . S
C246 O239 1.247 . S
C246 O240 1.261 . S
C247 O242 1.259 . S
C247 O244 1.235 . S
O248 Co238 2.021 . S
O248 C245 1.238 . S
O249 Co243 2.052 . S
O249 C245 1.241 . S
O250 Co238 2.137 . S
O250 C241 1.247 . S
O251 Co238 2.244 . S
O251 C241 1.272 . S
O251 Co243 2.135 . S
Co252 O253 2.216 . S
Co252 O254 2.091 . S
Co252 O256 2.004 . S
Co252 O262 2.021 . S
Co252 O264 2.137 . S
Co252 O265 2.244 . S
O253 Co252 2.216 . S
O253 C260 1.247 . S
O254 Co252 2.091 . S
O254 C260 1.261 . S
C255 O264 1.247 . S
C255 O265 1.272 . S
O256 Co252 2.004 . S
O256 C261 1.259 . S
Co257 O258 2.061 . S
Co257 O263 2.052 . S
Co257 O265 2.135 . S
O258 Co257 2.061 . S
O258 C261 1.235 . S
C259 O262 1.238 . S
C259 O263 1.241 . S
C260 O253 1.247 . S
C260 O254 1.261 . S
C261 O256 1.259 . S
C261 O258 1.235 . S
O262 Co252 2.021 . S
O262 C259 1.238 . S
O263 Co257 2.052 . S
O263 C259 1.241 . S
O264 Co252 2.137 . S
O264 C255 1.247 . S
O265 Co252 2.244 . S
O265 C255 1.272 . S
O265 Co257 2.135 . S
Co266 O267 2.216 . S
Co266 O268 2.091 . S
Co266 O270 2.004 . S
Co266 O276 2.021 . S
Co266 O278 2.137 . S
Co266 O279 2.244 . S
O267 Co266 2.216 . S
O267 C274 1.247 . S
O268 Co266 2.091 . S
O268 C274 1.261 . S
C269 O278 1.247 . S
C269 O279 1.272 . S
O270 Co266 2.004 . S
O270 C275 1.259 . S
Co271 O272 2.061 . S
Co271 O277 2.052 . S
Co271 O279 2.135 . S
O272 Co271 2.061 . S
O272 C275 1.235 . S
C273 O276 1.238 . S
C273 O277 1.241 . S
C274 O267 1.247 . S
C274 O268 1.261 . S
C275 O270 1.259 . S
C275 O272 1.235 . S
O276 Co266 2.021 . S
O276 C273 1.238 . S
O277 Co271 2.052 . S
O277 C273 1.241 . S
O278 Co266 2.137 . S
O278 C269 1.247 . S
O279 Co266 2.244 . S
O279 C269 1.272 . S
O279 Co271 2.135 . S
Co280 O281 2.216 . S
Co280 O282 2.091 . S
Co280 O284 2.004 . S
Co280 O290 2.021 . S
Co280 O292 2.137 . S
Co280 O293 2.244 . S
O281 Co280 2.216 . S
O281 C288 1.247 . S
O282 Co280 2.091 . S
O282 C288 1.261 . S
C283 O292 1.247 . S
C283 O293 1.272 . S
O284 Co280 2.004 . S
O284 C289 1.259 . S
Co285 O286 2.061 . S
Co285 O291 2.052 . S
Co285 O293 2.135 . S
O286 Co285 2.061 . S
O286 C289 1.235 . S
C287 O290 1.238 . S
C287 O291 1.241 . S
C288 O281 1.247 . S
C288 O282 1.261 . S
C289 O284 1.259 . S
C289 O286 1.235 . S
O290 Co280 2.021 . S
O290 C287 1.238 . S
O291 Co285 2.052 . S
O291 C287 1.241 . S
O292 Co280 2.137 . S
O292 C283 1.247 . S
O293 Co280 2.244 . S
O293 C283 1.272 . S
O293 Co285 2.135 . S
Co294 O295 2.216 . S
Co294 O296 2.091 . S
Co294 O298 2.004 . S
Co294 O304 2.021 . S
Co294 O306 2.137 . S
Co294 O307 2.244 . S
O295 Co294 2.216 . S
O295 C302 1.247 . S
O296 Co294 2.091 . S
O296 C302 1.261 . S
C297 O306 1.247 . S
C297 O307 1.272 . S
O298 Co294 2.004 . S
O298 C303 1.259 . S
Co299 O300 2.061 . S
Co299 O305 2.052 . S
Co299 O307 2.135 . S
O300 Co299 2.061 . S
O300 C303 1.235 . S
C301 O304 1.238 . S
C301 O305 1.241 . S
C302 O295 1.247 . S
C302 O296 1.261 . S
C303 O298 1.259 . S
C303 O300 1.235 . S
O304 Co294 2.021 . S
O304 C301 1.238 . S
O305 Co299 2.052 . S
O305 C301 1.241 . S
O306 Co294 2.137 . S
O306 C297 1.247 . S
O307 Co294 2.244 . S
O307 C297 1.272 . S
O307 Co299 2.135 . S
Co308 O309 2.216 . S
Co308 O310 2.091 . S
Co308 O312 2.004 . S
Co308 O318 2.021 . S
Co308 O320 2.137 . S
Co308 O321 2.244 . S
O309 Co308 2.216 . S
O309 C316 1.247 . S
O310 Co308 2.091 . S
O310 C316 1.261 . S
C311 O320 1.247 . S
C311 O321 1.272 . S
O312 Co308 2.004 . S
O312 C317 1.259 . S
Co313 O314 2.061 . S
Co313 O319 2.052 . S
Co313 O321 2.135 . S
O314 Co313 2.061 . S
O314 C317 1.235 . S
C315 O318 1.238 . S
C315 O319 1.241 . S
C316 O309 1.247 . S
C316 O310 1.261 . S
C317 O312 1.259 . S
C317 O314 1.235 . S
O318 Co308 2.021 . S
O318 C315 1.238 . S
O319 Co313 2.052 . S
O319 C315 1.241 . S
O320 Co308 2.137 . S
O320 C311 1.247 . S
O321 Co308 2.244 . S
O321 C311 1.272 . S
O321 Co313 2.135 . S
Co322 O323 2.216 . S
Co322 O324 2.091 . S
Co322 O326 2.004 . S
Co322 O332 2.021 . S
Co322 O334 2.137 . S
Co322 O335 2.244 . S
O323 Co322 2.216 . S
O323 C330 1.247 . S
O324 Co322 2.091 . S
O324 C330 1.261 . S
C325 O334 1.247 . S
C325 O335 1.272 . S
O326 Co322 2.004 . S
O326 C331 1.259 . S
Co327 O328 2.061 . S
Co327 O333 2.052 . S
Co327 O335 2.135 . S
O328 Co327 2.061 . S
O328 C331 1.235 . S
C329 O332 1.238 . S
C329 O333 1.241 . S
C330 O323 1.247 . S
C330 O324 1.261 . S
C331 O326 1.259 . S
C331 O328 1.235 . S
O332 Co322 2.021 . S
O332 C329 1.238 . S
O333 Co327 2.052 . S
O333 C329 1.241 . S
O334 Co322 2.137 . S
O334 C325 1.247 . S
O335 Co322 2.244 . S
O335 C325 1.272 . S
O335 Co327 2.135 . S
Co336 O337 2.216 . S
Co336 O338 2.091 . S
Co336 O340 2.004 . S
Co336 O346 2.021 . S
Co336 O348 2.137 . S
Co336 O349 2.244 . S
O337 Co336 2.216 . S
O337 C344 1.247 . S
O338 Co336 2.091 . S
O338 C344 1.261 . S
C339 O348 1.247 . S
C339 O349 1.272 . S
O340 Co336 2.004 . S
O340 C345 1.259 . S
Co341 O342 2.061 . S
Co341 O347 2.052 . S
Co341 O349 2.135 . S
O342 Co341 2.061 . S
O342 C345 1.235 . S
C343 O346 1.238 . S
C343 O347 1.241 . S
C344 O337 1.247 . S
C344 O338 1.261 . S
C345 O340 1.259 . S
C345 O342 1.235 . S
O346 Co336 2.021 . S
O346 C343 1.238 . S
O347 Co341 2.052 . S
O347 C343 1.241 . S
O348 Co336 2.137 . S
O348 C339 1.247 . S
O349 Co336 2.244 . S
O349 C339 1.272 . S
O349 Co341 2.135 . S
Co350 O351 2.216 . S
Co350 O352 2.091 . S
Co350 O354 2.004 . S
Co350 O360 2.021 . S
Co350 O362 2.137 . S
Co350 O363 2.244 . S
O351 Co350 2.216 . S
O351 C358 1.247 . S
O352 Co350 2.091 . S
O352 C358 1.261 . S
C353 O362 1.247 . S
C353 O363 1.272 . S
O354 Co350 2.004 . S
O354 C359 1.259 . S
Co355 O356 2.061 . S
Co355 O361 2.052 . S
Co355 O363 2.135 . S
O356 Co355 2.061 . S
O356 C359 1.235 . S
C357 O360 1.238 . S
C357 O361 1.241 . S
C358 O351 1.247 . S
C358 O352 1.261 . S
C359 O354 1.259 . S
C359 O356 1.235 . S
O360 Co350 2.021 . S
O360 C357 1.238 . S
O361 Co355 2.052 . S
O361 C357 1.241 . S
O362 Co350 2.137 . S
O362 C353 1.247 . S
O363 Co350 2.244 . S
O363 C353 1.272 . S
O363 Co355 2.135 . S
Co364 O365 2.216 . S
Co364 O366 2.091 . S
Co364 O368 2.004 . S
Co364 O374 2.021 . S
Co364 O376 2.137 . S
Co364 O377 2.244 . S
O365 Co364 2.216 . S
O365 C372 1.247 . S
O366 Co364 2.091 . S
O366 C372 1.261 . S
C367 O376 1.247 . S
C367 O377 1.272 . S
O368 Co364 2.004 . S
O368 C373 1.259 . S
Co369 O370 2.061 . S
Co369 O375 2.052 . S
Co369 O377 2.135 . S
O370 Co369 2.061 . S
O370 C373 1.235 . S
C371 O374 1.238 . S
C371 O375 1.241 . S
C372 O365 1.247 . S
C372 O366 1.261 . S
C373 O368 1.259 . S
C373 O370 1.235 . S
O374 Co364 2.021 . S
O374 C371 1.238 . S
O375 Co369 2.052 . S
O375 C371 1.241 . S
O376 Co364 2.137 . S
O376 C367 1.247 . S
O377 Co364 2.244 . S
O377 C367 1.272 . S
O377 Co369 2.135 . S
Co378 O379 2.216 . S
Co378 O380 2.091 . S
Co378 O382 2.004 . S
Co378 O388 2.021 . S
Co378 O390 2.137 . S
Co378 O391 2.244 . S
O379 Co378 2.216 . S
O379 C386 1.247 . S
O380 Co378 2.091 . S
O380 C386 1.261 . S
C381 O390 1.247 . S
C381 O391 1.272 . S
O382 Co378 2.004 . S
O382 C387 1.259 . S
Co383 O384 2.061 . S
Co383 O389 2.052 . S
Co383 O391 2.135 . S
O384 Co383 2.061 . S
O384 C387 1.235 . S
C385 O388 1.238 . S
C385 O389 1.241 . S
C386 O379 1.247 . S
C386 O380 1.261 . S
C387 O382 1.259 . S
C387 O384 1.235 . S
O388 Co378 2.021 . S
O388 C385 1.238 . S
O389 Co383 2.052 . S
O389 C385 1.241 . S
O390 Co378 2.137 . S
O390 C381 1.247 . S
O391 Co378 2.244 . S
O391 C381 1.272 . S
O391 Co383 2.135 . S
Co392 O393 2.216 . S
Co392 O394 2.091 . S
Co392 O396 2.004 . S
Co392 O402 2.021 . S
Co392 O404 2.137 . S
Co392 O405 2.244 . S
O393 Co392 2.216 . S
O393 C400 1.247 . S
O394 Co392 2.091 . S
O394 C400 1.261 . S
C395 O404 1.247 . S
C395 O405 1.272 . S
O396 Co392 2.004 . S
O396 C401 1.259 . S
Co397 O398 2.061 . S
Co397 O403 2.052 . S
Co397 O405 2.135 . S
O398 Co397 2.061 . S
O398 C401 1.235 . S
C399 O402 1.238 . S
C399 O403 1.241 . S
C400 O393 1.247 . S
C400 O394 1.261 . S
C401 O396 1.259 . S
C401 O398 1.235 . S
O402 Co392 2.021 . S
O402 C399 1.238 . S
O403 Co397 2.052 . S
O403 C399 1.241 . S
O404 Co392 2.137 . S
O404 C395 1.247 . S
O405 Co392 2.244 . S
O405 C395 1.272 . S
O405 Co397 2.135 . S
Co406 O407 2.216 . S
Co406 O408 2.091 . S
Co406 O410 2.004 . S
Co406 O416 2.021 . S
Co406 O418 2.137 . S
Co406 O419 2.244 . S
O407 Co406 2.216 . S
O407 C414 1.247 . S
O408 Co406 2.091 . S
O408 C414 1.261 . S
C409 O418 1.247 . S
C409 O419 1.272 . S
O410 Co406 2.004 . S
O410 C415 1.259 . S
Co411 O412 2.061 . S
Co411 O417 2.052 . S
Co411 O419 2.135 . S
O412 Co411 2.061 . S
O412 C415 1.235 . S
C413 O416 1.238 . S
C413 O417 1.241 . S
C414 O407 1.247 . S
C414 O408 1.261 . S
C415 O410 1.259 . S
C415 O412 1.235 . S
O416 Co406 2.021 . S
O416 C413 1.238 . S
O417 Co411 2.052 . S
O417 C413 1.241 . S
O418 Co406 2.137 . S
O418 C409 1.247 . S
O419 Co406 2.244 . S
O419 C409 1.272 . S
O419 Co411 2.135 . S
Co420 O421 2.216 . S
Co420 O422 2.091 . S
Co420 O424 2.004 . S
Co420 O430 2.021 . S
Co420 O432 2.137 . S
Co420 O433 2.244 . S
O421 Co420 2.216 . S
O421 C428 1.247 . S
O422 Co420 2.091 . S
O422 C428 1.261 . S
C423 O432 1.247 . S
C423 O433 1.272 . S
O424 Co420 2.004 . S
O424 C429 1.259 . S
Co425 O426 2.061 . S
Co425 O431 2.052 . S
Co425 O433 2.135 . S
O426 Co425 2.061 . S
O426 C429 1.235 . S
C427 O430 1.238 . S
C427 O431 1.241 . S
C428 O421 1.247 . S
C428 O422 1.261 . S
C429 O424 1.259 . S
C429 O426 1.235 . S
O430 Co420 2.021 . S
O430 C427 1.238 . S
O431 Co425 2.052 . S
O431 C427 1.241 . S
O432 Co420 2.137 . S
O432 C423 1.247 . S
O433 Co420 2.244 . S
O433 C423 1.272 . S
O433 Co425 2.135 . S
Co434 O435 2.216 . S
Co434 O436 2.091 . S
Co434 O438 2.004 . S
Co434 O444 2.021 . S
Co434 O446 2.137 . S
Co434 O447 2.244 . S
O435 Co434 2.216 . S
O435 C442 1.247 . S
O436 Co434 2.091 . S
O436 C442 1.261 . S
C437 O446 1.247 . S
C437 O447 1.272 . S
O438 Co434 2.004 . S
O438 C443 1.259 . S
Co439 O440 2.061 . S
Co439 O445 2.052 . S
Co439 O447 2.135 . S
O440 Co439 2.061 . S
O440 C443 1.235 . S
C441 O444 1.238 . S
C441 O445 1.241 . S
C442 O435 1.247 . S
C442 O436 1.261 . S
C443 O438 1.259 . S
C443 O440 1.235 . S
O444 Co434 2.021 . S
O444 C441 1.238 . S
O445 Co439 2.052 . S
O445 C441 1.241 . S
O446 Co434 2.137 . S
O446 C437 1.247 . S
O447 Co434 2.244 . S
O447 C437 1.272 . S
O447 Co439 2.135 . S
H448 C456 0.929 . S
H449 C458 0.953 . S
H450 C460 0.930 . S
H451 C463 0.929 . S
H452 C466 0.930 . S
H453 C468 0.960 1_554 S
H454 C468 0.960 1_554 S
H455 C468 0.960 . S
C456 H448 0.929 . S
C456 C457 1.377 . S
C456 C458 1.384 . S
C457 C456 1.377 . S
C457 C463 1.390 . S
C458 H449 0.953 . S
C458 C456 1.384 . S
C458 C459 1.372 . S
C459 C458 1.372 . S
C459 C460 1.400 . S
C459 C464 1.490 . S
C460 H450 0.930 . S
C460 C459 1.400 . S
C460 C463 1.386 . S
H461 C477 0.930 . S
H462 C478 0.860 1_556 S
C463 H451 0.929 . S
C463 C457 1.390 . S
C463 C460 1.386 . S
C464 C459 1.490 . S
C464 C466 1.395 . S
C464 C467 1.436 1_655 S
H465 C471 0.930 . S
C466 H452 0.930 . S
C466 C464 1.395 . S
C466 C469 1.403 1_556 S
C467 C464 1.436 1_455 S
C467 C468 1.530 . S
C467 C471 1.364 1_556 S
C468 H453 0.960 1_556 S
C468 H454 0.960 1_556 S
C468 H455 0.960 . S
C468 C467 1.530 . S
C469 C466 1.403 1_554 S
C469 C470 1.392 1_655 S
C469 C473 1.495 . S
C470 C469 1.392 1_455 S
C470 C471 1.385 . S
C470 C472 1.478 . S
C471 H465 0.930 . S
C471 C467 1.364 1_554 S
C471 C470 1.385 . S
C472 C470 1.478 . S
C472 C474 1.381 . S
C472 C478 1.383 . S
C473 C469 1.495 . S
C473 H479 0.938 1_554 S
C473 H480 0.961 1_554 S
C473 H481 0.960 . S
C474 C472 1.381 . S
C474 C475 1.394 . S
C474 H482 0.930 . S
C475 C474 1.394 . S
C475 C476 1.383 . S
C475 H483 0.929 . S
C476 C475 1.383 . S
C476 C477 1.377 . S
C477 H461 0.930 . S
C477 C476 1.377 . S
C477 C478 1.379 . S
C478 H462 0.860 1_554 S
C478 C472 1.383 . S
C478 C477 1.379 . S
H479 C473 0.938 1_556 S
H480 C473 0.961 1_556 S
H481 C473 0.960 . S
H482 C474 0.930 . S
H483 C475 0.929 . S
H484 C492 0.929 . S
H485 C494 0.930 . S
H486 C496 0.930 . S
H487 C499 0.929 . S
H488 C502 0.930 . S
H489 C504 0.960 . S
H490 C504 0.960 . S
H491 C504 0.960 . S
C492 H484 0.929 . S
C492 C493 1.377 . S
C492 C494 1.384 . S
C493 C492 1.377 . S
C493 C499 1.390 . S
C494 H485 0.930 . S
C494 C492 1.384 . S
C494 C495 1.372 . S
C495 C494 1.372 . S
C495 C496 1.400 . S
C495 C500 1.490 . S
C496 H486 0.930 . S
C496 C495 1.400 . S
C496 C499 1.386 . S
H497 C513 0.930 . S
H498 C514 0.931 . S
C499 H487 0.929 . S
C499 C493 1.390 . S
C499 C496 1.386 . S
C500 C495 1.490 . S
C500 C502 1.395 . S
C500 C503 1.403 . S
H501 C507 0.930 . S
C502 H488 0.930 . S
C502 C500 1.395 . S
C502 C505 1.403 . S
C503 C500 1.403 . S
C503 C504 1.524 . S
C503 C507 1.400 . S
C504 H489 0.960 . S
C504 H490 0.960 . S
C504 H491 0.960 . S
C504 C503 1.524 . S
C505 C502 1.403 . S
C505 C506 1.392 . S
C505 C509 1.495 . S
C506 C505 1.392 . S
C506 C507 1.385 . S
C506 C508 1.478 . S
C507 H501 0.930 . S
C507 C503 1.400 . S
C507 C506 1.385 . S
C508 C506 1.478 . S
C508 C510 1.381 . S
C508 C514 1.383 . S
C509 C505 1.495 . S
C509 H515 0.959 . S
C509 H516 0.961 . S
C509 H517 0.960 . S
C510 C508 1.381 . S
C510 C511 1.394 . S
C510 H518 0.930 . S
C511 C510 1.394 . S
C511 C512 1.383 . S
C511 H519 0.929 . S
C512 C511 1.383 . S
C512 C513 1.377 . S
C513 H497 0.930 . S
C513 C512 1.377 . S
C513 C514 1.379 . S
C514 H498 0.931 . S
C514 C508 1.383 . S
C514 C513 1.379 . S
H515 C509 0.959 . S
H516 C509 0.961 . S
H517 C509 0.960 . S
H518 C510 0.930 . S
H519 C511 0.929 . S
H520 C528 0.929 . S
H521 C530 0.930 . S
H522 C532 0.930 . S
H523 C535 0.929 . S
H524 C538 0.930 . S
H525 C540 0.960 . S
H526 C540 0.960 . S
H527 C540 0.960 . S
C528 H520 0.929 . S
C528 C529 1.377 . S
C528 C530 1.384 . S
C529 C528 1.377 . S
C529 C535 1.390 . S
C530 H521 0.930 . S
C530 C528 1.384 . S
C530 C531 1.372 . S
C531 C530 1.372 . S
C531 C532 1.400 . S
C531 C536 1.490 . S
C532 H522 0.930 . S
C532 C531 1.400 . S
C532 C535 1.386 . S
H533 C549 0.930 . S
H534 C550 0.931 . S
C535 H523 0.929 . S
C535 C529 1.390 . S
C535 C532 1.386 . S
C536 C531 1.490 . S
C536 C538 1.395 . S
C536 C539 1.403 . S
H537 C543 0.930 . S
C538 H524 0.930 . S
C538 C536 1.395 . S
C538 C541 1.403 . S
C539 C536 1.403 . S
C539 C540 1.524 . S
C539 C543 1.400 . S
C540 H525 0.960 . S
C540 H526 0.960 . S
C540 H527 0.960 . S
C540 C539 1.524 . S
C541 C538 1.403 . S
C541 C542 1.392 . S
C541 C545 1.495 . S
C542 C541 1.392 . S
C542 C543 1.385 . S
C542 C544 1.478 . S
C543 H537 0.930 . S
C543 C539 1.400 . S
C543 C542 1.385 . S
C544 C542 1.478 . S
C544 C546 1.381 . S
C544 C550 1.383 . S
C545 C541 1.495 . S
C545 H551 0.959 . S
C545 H552 0.961 . S
C545 H553 0.960 . S
C546 C544 1.381 . S
C546 C547 1.394 . S
C546 H554 0.930 . S
C547 C546 1.394 . S
C547 C548 1.383 . S
C547 H555 0.929 . S
C548 C547 1.383 . S
C548 C549 1.377 . S
C549 H533 0.930 . S
C549 C548 1.377 . S
C549 C550 1.379 . S
C550 H534 0.931 . S
C550 C544 1.383 . S
C550 C549 1.379 . S
H551 C545 0.959 . S
H552 C545 0.961 . S
H553 C545 0.960 . S
H554 C546 0.930 . S
H555 C547 0.929 . S
H556 C564 0.929 . S
H557 C566 0.930 . S
H558 C568 0.930 . S
H559 C571 0.929 . S
H560 C574 0.930 . S
H561 C576 0.960 . S
H562 C576 0.960 . S
H563 C576 0.960 . S
C564 H556 0.929 . S
C564 C565 1.377 . S
C564 C566 1.384 . S
C565 C564 1.377 . S
C565 C571 1.390 . S
C566 H557 0.930 . S
C566 C564 1.384 . S
C566 C567 1.372 . S
C567 C566 1.372 . S
C567 C568 1.400 . S
C567 C572 1.490 . S
C568 H558 0.930 . S
C568 C567 1.400 . S
C568 C571 1.386 . S
H569 C585 0.930 . S
H570 C586 0.931 . S
C571 H559 0.929 . S
C571 C565 1.390 . S
C571 C568 1.386 . S
C572 C567 1.490 . S
C572 C574 1.395 . S
C572 C575 1.403 . S
H573 C579 0.930 . S
C574 H560 0.930 . S
C574 C572 1.395 . S
C574 C577 1.403 . S
C575 C572 1.403 . S
C575 C576 1.524 . S
C575 C579 1.400 . S
C576 H561 0.960 . S
C576 H562 0.960 . S
C576 H563 0.960 . S
C576 C575 1.524 . S
C577 C574 1.403 . S
C577 C578 1.392 . S
C577 C581 1.495 . S
C578 C577 1.392 . S
C578 C579 1.385 . S
C578 C580 1.478 . S
C579 H573 0.930 . S
C579 C575 1.400 . S
C579 C578 1.385 . S
C580 C578 1.478 . S
C580 C582 1.381 . S
C580 C586 1.383 . S
C581 C577 1.495 . S
C581 H587 0.959 . S
C581 H588 0.961 . S
C581 H589 0.960 . S
C582 C580 1.381 . S
C582 C583 1.394 . S
C582 H590 0.930 . S
C583 C582 1.394 . S
C583 C584 1.383 . S
C583 H591 0.929 . S
C584 C583 1.383 . S
C584 C585 1.377 . S
C585 H569 0.930 . S
C585 C584 1.377 . S
C585 C586 1.379 . S
C586 H570 0.931 . S
C586 C580 1.383 . S
C586 C585 1.379 . S
H587 C581 0.959 . S
H588 C581 0.961 . S
H589 C581 0.960 . S
H590 C582 0.930 . S
H591 C583 0.929 . S
H592 C600 0.929 . S
H593 C602 0.930 . S
H594 C604 0.930 . S
H595 C607 0.929 . S
H596 C610 0.930 . S
H597 C612 0.960 . S
H598 C612 0.960 . S
H599 C612 0.960 1_655 S
C600 H592 0.929 . S
C600 C601 1.377 . S
C600 C602 1.384 . S
C601 C600 1.377 . S
C601 C607 1.390 . S
C602 H593 0.930 . S
C602 C600 1.384 . S
C602 C603 1.372 . S
C603 C602 1.372 . S
C603 C604 1.400 . S
C603 C608 1.490 . S
C604 H594 0.930 . S
C604 C603 1.400 . S
C604 C607 1.386 . S
H605 C621 0.930 . S
H606 C622 0.931 . S
C607 H595 0.929 . S
C607 C601 1.390 . S
C607 C604 1.386 . S
C608 C603 1.490 . S
C608 C610 1.395 . S
C608 C611 1.403 1_655 S
H609 C615 0.930 . S
C610 H596 0.930 . S
C610 C608 1.395 . S
C610 C613 1.403 . S
C611 C608 1.403 1_455 S
C611 C612 1.524 . S
C611 C615 1.400 . S
C612 H597 0.960 . S
C612 H598 0.960 . S
C612 H599 0.960 1_455 S
C612 C611 1.524 . S
C613 C610 1.403 . S
C613 C614 1.392 1_655 S
C613 C617 1.495 . S
C614 C613 1.392 1_455 S
C614 C615 1.385 . S
C614 C616 1.478 . S
C615 H609 0.930 . S
C615 C611 1.400 . S
C615 C614 1.385 . S
C616 C614 1.478 . S
C616 C618 1.381 . S
C616 C622 1.383 . S
C617 C613 1.495 . S
C617 H623 0.959 . S
C617 H624 0.961 . S
C617 H625 0.960 1_655 S
C618 C616 1.381 . S
C618 C619 1.394 . S
C618 H626 0.930 . S
C619 C618 1.394 . S
C619 C620 1.383 . S
C619 H627 0.929 . S
C620 C619 1.383 . S
C620 C621 1.377 . S
C621 H605 0.930 . S
C621 C620 1.377 . S
C621 C622 1.379 . S
C622 H606 0.931 . S
C622 C616 1.383 . S
C622 C621 1.379 . S
H623 C617 0.959 . S
H624 C617 0.961 . S
H625 C617 0.960 1_455 S
H626 C618 0.930 . S
H627 C619 0.929 . S
H628 C636 0.929 . S
H629 C638 0.930 . S
H630 C640 0.930 . S
H631 C643 0.929 . S
H632 C646 0.930 . S
H633 C648 0.960 . S
H634 C648 0.960 . S
H635 C648 0.960 . S
C636 H628 0.929 . S
C636 C637 1.377 . S
C636 C638 1.384 . S
C637 C636 1.377 . S
C637 C643 1.390 . S
C638 H629 0.930 . S
C638 C636 1.384 . S
C638 C639 1.372 . S
C639 C638 1.372 . S
C639 C640 1.400 . S
C639 C644 1.490 . S
C640 H630 0.930 . S
C640 C639 1.400 . S
C640 C643 1.386 . S
H641 C657 0.930 . S
H642 C658 0.931 . S
C643 H631 0.929 . S
C643 C637 1.390 . S
C643 C640 1.386 . S
C644 C639 1.490 . S
C644 C646 1.395 . S
C644 C647 1.403 . S
H645 C651 0.930 . S
C646 H632 0.930 . S
C646 C644 1.395 . S
C646 C649 1.403 . S
C647 C644 1.403 . S
C647 C648 1.524 . S
C647 C651 1.400 . S
C648 H633 0.960 . S
C648 H634 0.960 . S
C648 H635 0.960 . S
C648 C647 1.524 . S
C649 C646 1.403 . S
C649 C650 1.392 . S
C649 C653 1.495 . S
C650 C649 1.392 . S
C650 C651 1.385 . S
C650 C652 1.478 . S
C651 H645 0.930 . S
C651 C647 1.400 . S
C651 C650 1.385 . S
C652 C650 1.478 . S
C652 C654 1.381 . S
C652 C658 1.383 . S
C653 C649 1.495 . S
C653 H659 0.959 . S
C653 H660 0.961 . S
C653 H661 0.960 . S
C654 C652 1.381 . S
C654 C655 1.394 . S
C654 H662 0.930 . S
C655 C654 1.394 . S
C655 C656 1.383 . S
C655 H663 0.929 . S
C656 C655 1.383 . S
C656 C657 1.377 . S
C657 H641 0.930 . S
C657 C656 1.377 . S
C657 C658 1.379 . S
C658 H642 0.931 . S
C658 C652 1.383 . S
C658 C657 1.379 . S
H659 C653 0.959 . S
H660 C653 0.961 . S
H661 C653 0.960 . S
H662 C654 0.930 . S
H663 C655 0.929 . S
H664 C672 0.929 . S
H665 C674 0.883 1_554 S
H666 C676 0.930 . S
H667 C679 0.929 . S
H668 C682 0.930 . S
H669 C684 0.979 . S
H670 C684 0.924 1_554 S
H671 C684 0.960 . S
C672 H664 0.929 . S
C672 C673 1.377 . S
C672 C674 1.384 . S
C673 C672 1.377 . S
C673 C679 1.390 . S
C674 H665 0.883 1_556 S
C674 C672 1.384 . S
C674 C675 1.372 . S
C675 C674 1.372 . S
C675 C676 1.400 . S
C675 C680 1.490 . S
C676 H666 0.930 . S
C676 C675 1.400 . S
C676 C679 1.386 . S
H677 C693 0.930 . S
H678 C694 0.931 1_556 S
C679 H667 0.929 . S
C679 C673 1.390 . S
C679 C676 1.386 . S
C680 C675 1.490 . S
C680 C682 1.395 . S
C680 C683 1.403 . S
H681 C687 0.930 . S
C682 H668 0.930 . S
C682 C680 1.395 . S
C682 C685 1.403 1_556 S
C683 C680 1.403 . S
C683 C684 1.524 . S
C683 C687 1.400 1_556 S
C684 H669 0.979 . S
C684 H670 0.924 1_556 S
C684 H671 0.960 . S
C684 C683 1.524 . S
C685 C682 1.403 1_554 S
C685 C686 1.392 . S
C685 C689 1.495 . S
C686 C685 1.392 . S
C686 C687 1.385 . S
C686 C688 1.478 . S
C687 H681 0.930 . S
C687 C683 1.400 1_554 S
C687 C686 1.385 . S
C688 C686 1.478 . S
C688 C690 1.381 . S
C688 C694 1.383 . S
C689 C685 1.495 . S
C689 H695 0.959 . S
C689 H696 1.013 . S
C689 H697 0.960 . S
C690 C688 1.381 . S
C690 C691 1.394 . S
C690 H698 0.930 . S
C691 C690 1.394 . S
C691 C692 1.383 . S
C691 H699 0.929 . S
C692 C691 1.383 . S
C692 C693 1.377 . S
C693 H677 0.930 . S
C693 C692 1.377 . S
C693 C694 1.379 . S
C694 H678 0.931 1_554 S
C694 C688 1.383 . S
C694 C693 1.379 . S
H695 C689 0.959 . S
H696 C689 1.013 . S
H697 C689 0.960 . S
H698 C690 0.930 . S
H699 C691 0.929 . S
H700 C708 0.929 . S
H701 C710 0.930 . S
H702 C712 0.930 . S
H703 C715 0.929 . S
H704 C718 0.930 . S
H705 C720 0.960 . S
H706 C720 0.960 . S
H707 C720 0.960 . S
C708 H700 0.929 . S
C708 C709 1.377 . S
C708 C710 1.384 . S
C709 C708 1.377 . S
C709 C715 1.390 . S
C710 H701 0.930 . S
C710 C708 1.384 . S
C710 C711 1.372 . S
C711 C710 1.372 . S
C711 C712 1.400 . S
C711 C716 1.490 . S
C712 H702 0.930 . S
C712 C711 1.400 . S
C712 C715 1.386 . S
H713 C729 0.930 . S
H714 C730 0.931 . S
C715 H703 0.929 . S
C715 C709 1.390 . S
C715 C712 1.386 . S
C716 C711 1.490 . S
C716 C718 1.395 . S
C716 C719 1.403 . S
H717 C723 0.930 . S
C718 H704 0.930 . S
C718 C716 1.395 . S
C718 C721 1.403 . S
C719 C716 1.403 . S
C719 C720 1.524 . S
C719 C723 1.400 . S
C720 H705 0.960 . S
C720 H706 0.960 . S
C720 H707 0.960 . S
C720 C719 1.524 . S
C721 C718 1.403 . S
C721 C722 1.392 . S
C721 C725 1.495 . S
C722 C721 1.392 . S
C722 C723 1.385 . S
C722 C724 1.478 . S
C723 H717 0.930 . S
C723 C719 1.400 . S
C723 C722 1.385 . S
C724 C722 1.478 . S
C724 C726 1.381 . S
C724 C730 1.383 . S
C725 C721 1.495 . S
C725 H731 0.959 . S
C725 H732 0.961 . S
C725 H733 0.960 . S
C726 C724 1.381 . S
C726 C727 1.394 . S
C726 H734 0.930 . S
C727 C726 1.394 . S
C727 C728 1.383 . S
C727 H735 0.929 . S
C728 C727 1.383 . S
C728 C729 1.377 . S
C729 H713 0.930 . S
C729 C728 1.377 . S
C729 C730 1.379 . S
C730 H714 0.931 . S
C730 C724 1.383 . S
C730 C729 1.379 . S
H731 C725 0.959 . S
H732 C725 0.961 . S
H733 C725 0.960 . S
H734 C726 0.930 . S
H735 C727 0.929 . S
H736 C744 0.929 . S
H737 C746 0.930 . S
H738 C748 0.930 . S
H739 C751 0.929 . S
H740 C754 0.930 . S
H741 C756 0.960 . S
H742 C756 0.960 . S
H743 C756 0.960 . S
C744 H736 0.929 . S
C744 C745 1.377 . S
C744 C746 1.384 . S
C745 C744 1.377 . S
C745 C751 1.390 . S
C746 H737 0.930 . S
C746 C744 1.384 . S
C746 C747 1.372 . S
C747 C746 1.372 . S
C747 C748 1.400 . S
C747 C752 1.490 . S
C748 H738 0.930 . S
C748 C747 1.400 . S
C748 C751 1.386 . S
H749 C765 0.930 . S
H750 C766 0.931 . S
C751 H739 0.929 . S
C751 C745 1.390 . S
C751 C748 1.386 . S
C752 C747 1.490 . S
C752 C754 1.395 . S
C752 C755 1.403 . S
H753 C759 0.930 . S
C754 H740 0.930 . S
C754 C752 1.395 . S
C754 C757 1.403 . S
C755 C752 1.403 . S
C755 C756 1.524 . S
C755 C759 1.400 . S
C756 H741 0.960 . S
C756 H742 0.960 . S
C756 H743 0.960 . S
C756 C755 1.524 . S
C757 C754 1.403 . S
C757 C758 1.392 . S
C757 C761 1.495 . S
C758 C757 1.392 . S
C758 C759 1.385 . S
C758 C760 1.478 . S
C759 H753 0.930 . S
C759 C755 1.400 . S
C759 C758 1.385 . S
C760 C758 1.478 . S
C760 C762 1.381 . S
C760 C766 1.383 . S
C761 C757 1.495 . S
C761 H767 0.959 . S
C761 H768 0.961 . S
C761 H769 0.960 . S
C762 C760 1.381 . S
C762 C763 1.394 . S
C762 H770 0.930 . S
C763 C762 1.394 . S
C763 C764 1.383 . S
C763 H771 0.929 . S
C764 C763 1.383 . S
C764 C765 1.377 . S
C765 H749 0.930 . S
C765 C764 1.377 . S
C765 C766 1.379 . S
C766 H750 0.931 . S
C766 C760 1.383 . S
C766 C765 1.379 . S
H767 C761 0.959 . S
H768 C761 0.961 . S
H769 C761 0.960 . S
H770 C762 0.930 . S
H771 C763 0.929 . S
H772 C780 0.929 . S
H773 C782 0.930 . S
H774 C784 0.930 . S
H775 C787 0.929 . S
H776 C790 0.930 . S
H777 C792 0.960 . S
H778 C792 0.960 . S
H779 C792 0.960 . S
C780 H772 0.929 . S
C780 C781 1.377 . S
C780 C782 1.384 . S
C781 C780 1.377 . S
C781 C787 1.390 . S
C782 H773 0.930 . S
C782 C780 1.384 . S
C782 C783 1.372 . S
C783 C782 1.372 . S
C783 C784 1.400 . S
C783 C788 1.490 . S
C784 H774 0.930 . S
C784 C783 1.400 . S
C784 C787 1.386 . S
H785 C801 0.930 . S
H786 C802 0.931 . S
C787 H775 0.929 . S
C787 C781 1.390 . S
C787 C784 1.386 . S
C788 C783 1.490 . S
C788 C790 1.395 . S
C788 C791 1.403 . S
H789 C795 0.930 . S
C790 H776 0.930 . S
C790 C788 1.395 . S
C790 C793 1.403 . S
C791 C788 1.403 . S
C791 C792 1.524 . S
C791 C795 1.400 . S
C792 H777 0.960 . S
C792 H778 0.960 . S
C792 H779 0.960 . S
C792 C791 1.524 . S
C793 C790 1.403 . S
C793 C794 1.392 . S
C793 C797 1.495 . S
C794 C793 1.392 . S
C794 C795 1.385 . S
C794 C796 1.478 . S
C795 H789 0.930 . S
C795 C791 1.400 . S
C795 C794 1.385 . S
C796 C794 1.478 . S
C796 C798 1.381 . S
C796 C802 1.383 . S
C797 C793 1.495 . S
C797 H803 0.959 . S
C797 H804 0.961 . S
C797 H805 0.960 . S
C798 C796 1.381 . S
C798 C799 1.394 . S
C798 H806 0.930 . S
C799 C798 1.394 . S
C799 C800 1.383 . S
C799 H807 0.929 . S
C800 C799 1.383 . S
C800 C801 1.377 . S
C801 H785 0.930 . S
C801 C800 1.377 . S
C801 C802 1.379 . S
C802 H786 0.931 . S
C802 C796 1.383 . S
C802 C801 1.379 . S
H803 C797 0.959 . S
H804 C797 0.961 . S
H805 C797 0.960 . S
H806 C798 0.930 . S
H807 C799 0.929 . S
H808 C816 0.929 . S
H809 C818 0.930 . S
H810 C820 0.930 . S
H811 C823 0.929 . S
H812 C826 0.930 . S
H813 C828 0.960 . S
H814 C828 0.960 . S
H815 C828 0.960 . S
C816 H808 0.929 . S
C816 C817 1.377 . S
C816 C818 1.384 . S
C817 C816 1.377 . S
C817 C823 1.390 . S
C818 H809 0.930 . S
C818 C816 1.384 . S
C818 C819 1.372 . S
C819 C818 1.372 . S
C819 C820 1.400 . S
C819 C824 1.490 . S
C820 H810 0.930 . S
C820 C819 1.400 . S
C820 C823 1.386 . S
H821 C837 0.930 . S
H822 C838 0.931 . S
C823 H811 0.929 . S
C823 C817 1.390 . S
C823 C820 1.386 . S
C824 C819 1.490 . S
C824 C826 1.395 . S
C824 C827 1.403 . S
H825 C831 0.930 . S
C826 H812 0.930 . S
C826 C824 1.395 . S
C826 C829 1.403 . S
C827 C824 1.403 . S
C827 C828 1.524 . S
C827 C831 1.400 . S
C828 H813 0.960 . S
C828 H814 0.960 . S
C828 H815 0.960 . S
C828 C827 1.524 . S
C829 C826 1.403 . S
C829 C830 1.392 . S
C829 C833 1.495 . S
C830 C829 1.392 . S
C830 C831 1.385 . S
C830 C832 1.478 . S
C831 H825 0.930 . S
C831 C827 1.400 . S
C831 C830 1.385 . S
C832 C830 1.478 . S
C832 C834 1.381 . S
C832 C838 1.383 . S
C833 C829 1.495 . S
C833 H839 0.959 . S
C833 H840 0.961 . S
C833 H841 0.960 . S
C834 C832 1.381 . S
C834 C835 1.394 . S
C834 H842 0.930 . S
C835 C834 1.394 . S
C835 C836 1.383 . S
C835 H843 0.929 . S
C836 C835 1.383 . S
C836 C837 1.377 . S
C837 H821 0.930 . S
C837 C836 1.377 . S
C837 C838 1.379 . S
C838 H822 0.931 . S
C838 C832 1.383 . S
C838 C837 1.379 . S
H839 C833 0.959 . S
H840 C833 0.961 . S
H841 C833 0.960 . S
H842 C834 0.930 . S
H843 C835 0.929 . S
H844 C852 0.929 . S
H845 C854 0.930 . S
H846 C856 0.930 . S
H847 C859 0.929 . S
H848 C862 0.930 . S
H849 C864 0.960 . S
H850 C864 0.960 . S
H851 C864 0.960 . S
C852 H844 0.929 . S
C852 C853 1.377 . S
C852 C854 1.384 . S
C853 C852 1.377 . S
C853 C859 1.390 . S
C854 H845 0.930 . S
C854 C852 1.384 . S
C854 C855 1.372 . S
C855 C854 1.372 . S
C855 C856 1.400 . S
C855 C860 1.490 . S
C856 H846 0.930 . S
C856 C855 1.400 . S
C856 C859 1.386 . S
H857 C873 0.930 . S
H858 C874 0.931 . S
C859 H847 0.929 . S
C859 C853 1.390 . S
C859 C856 1.386 . S
C860 C855 1.490 . S
C860 C862 1.395 . S
C860 C863 1.403 . S
H861 C867 0.930 . S
C862 H848 0.930 . S
C862 C860 1.395 . S
C862 C865 1.403 . S
C863 C860 1.403 . S
C863 C864 1.524 . S
C863 C867 1.400 . S
C864 H849 0.960 . S
C864 H850 0.960 . S
C864 H851 0.960 . S
C864 C863 1.524 . S
C865 C862 1.403 . S
C865 C866 1.392 . S
C865 C869 1.495 . S
C866 C865 1.392 . S
C866 C867 1.385 . S
C866 C868 1.478 . S
C867 H861 0.930 . S
C867 C863 1.400 . S
C867 C866 1.385 . S
C868 C866 1.478 . S
C868 C870 1.381 . S
C868 C874 1.383 . S
C869 C865 1.495 . S
C869 H875 0.959 . S
C869 H876 0.961 . S
C869 H877 0.960 . S
C870 C868 1.381 . S
C870 C871 1.394 . S
C870 H878 0.930 . S
C871 C870 1.394 . S
C871 C872 1.383 . S
C871 H879 0.929 . S
C872 C871 1.383 . S
C872 C873 1.377 . S
C873 H857 0.930 . S
C873 C872 1.377 . S
C873 C874 1.379 . S
C874 H858 0.931 . S
C874 C868 1.383 . S
C874 C873 1.379 . S
H875 C869 0.959 . S
H876 C869 0.961 . S
H877 C869 0.960 . S
H878 C870 0.930 . S
H879 C871 0.929 . S
H880 C888 0.929 . S
H881 C890 0.930 . S
H882 C892 0.930 . S
H883 C895 0.929 . S
H884 C898 0.930 . S
H885 C900 0.960 . S
H886 C900 0.960 . S
H887 C900 0.960 . S
C888 H880 0.929 . S
C888 C889 1.377 . S
C888 C890 1.384 . S
C889 C888 1.377 . S
C889 C895 1.390 . S
C890 H881 0.930 . S
C890 C888 1.384 . S
C890 C891 1.372 . S
C891 C890 1.372 . S
C891 C892 1.400 . S
C891 C896 1.490 . S
C892 H882 0.930 . S
C892 C891 1.400 . S
C892 C895 1.386 . S
H893 C909 0.930 . S
H894 C910 0.931 . S
C895 H883 0.929 . S
C895 C889 1.390 . S
C895 C892 1.386 . S
C896 C891 1.490 . S
C896 C898 1.395 1_565 S
C896 C899 1.403 . S
H897 C903 0.930 . S
C898 H884 0.930 . S
C898 C896 1.395 1_545 S
C898 C901 1.403 . S
C899 C896 1.403 . S
C899 C900 1.524 . S
C899 C903 1.400 . S
C900 H885 0.960 . S
C900 H886 0.960 . S
C900 H887 0.960 . S
C900 C899 1.524 . S
C901 C898 1.403 . S
C901 C902 1.392 . S
C901 C905 1.495 . S
C902 C901 1.392 . S
C902 C903 1.385 1_545 S
C902 C904 1.478 . S
C903 H897 0.930 . S
C903 C899 1.400 . S
C903 C902 1.385 1_565 S
C904 C902 1.478 . S
C904 C906 1.381 . S
C904 C910 1.383 . S
C905 C901 1.495 . S
C905 H911 0.959 . S
C905 H912 0.961 . S
C905 H913 0.960 . S
C906 C904 1.381 . S
C906 C907 1.394 . S
C906 H914 0.930 . S
C907 C906 1.394 . S
C907 C908 1.383 . S
C907 H915 0.929 . S
C908 C907 1.383 . S
C908 C909 1.377 . S
C909 H893 0.930 . S
C909 C908 1.377 . S
C909 C910 1.379 . S
C910 H894 0.931 . S
C910 C904 1.383 . S
C910 C909 1.379 . S
H911 C905 0.959 . S
H912 C905 0.961 . S
H913 C905 0.960 . S
H914 C906 0.930 . S
H915 C907 0.929 . S
H916 C924 0.929 . S
H917 C926 0.930 . S
H918 C928 0.930 . S
H919 C931 0.929 . S
H920 C934 0.930 . S
H921 C936 0.960 1_655 S
H922 C936 0.960 1_665 S
H923 C936 0.960 . S
C924 H916 0.929 . S
C924 C925 1.377 . S
C924 C926 1.384 . S
C925 C924 1.377 . S
C925 C931 1.390 . S
C926 H917 0.930 . S
C926 C924 1.384 . S
C926 C927 1.372 . S
C927 C926 1.372 . S
C927 C928 1.400 . S
C927 C932 1.490 . S
C928 H918 0.930 . S
C928 C927 1.400 . S
C928 C931 1.386 . S
H929 C945 0.930 . S
H930 C946 0.931 . S
C931 H919 0.929 . S
C931 C925 1.390 . S
C931 C928 1.386 . S
C932 C927 1.490 . S
C932 C934 1.395 1_556 S
C932 C935 1.403 1_565 S
H933 C939 0.930 . S
C934 H920 0.930 . S
C934 C932 1.395 1_554 S
C934 C937 1.403 1_455 S
C935 C932 1.403 1_545 S
C935 C936 1.524 . S
C935 C939 1.400 1_455 S
C936 H921 0.960 1_455 S
C936 H922 0.960 1_445 S
C936 H923 0.960 . S
C936 C935 1.524 . S
C937 C934 1.403 1_655 S
C937 C938 1.392 1_565 S
C937 C941 1.495 . S
C938 C937 1.392 1_545 S
C938 C939 1.385 1_554 S
C938 C940 1.478 . S
C939 H933 0.930 . S
C939 C935 1.400 1_655 S
C939 C938 1.385 1_556 S
C940 C938 1.478 . S
C940 C942 1.381 . S
C940 C946 1.383 . S
C941 C937 1.495 . S
C941 H947 0.959 1_655 S
C941 H948 0.971 1_565 S
C941 H949 0.960 . S
C942 C940 1.381 . S
C942 C943 1.394 . S
C942 H950 0.930 . S
C943 C942 1.394 . S
C943 C944 1.383 . S
C943 H951 0.929 . S
C944 C943 1.383 . S
C944 C945 1.377 . S
C945 H929 0.930 . S
C945 C944 1.377 . S
C945 C946 1.379 . S
C946 H930 0.931 . S
C946 C940 1.383 . S
C946 C945 1.379 . S
H947 C941 0.959 1_455 S
H948 C941 0.971 1_545 S
H949 C941 0.960 . S
H950 C942 0.930 . S
H951 C943 0.929 . S
H952 C960 0.929 . S
H953 C962 0.930 . S
H954 C964 0.930 . S
H955 C967 0.929 . S
H956 C970 0.930 . S
H957 C972 0.960 . S
H958 C972 0.960 1_545 S
H959 C972 0.953 . S
C960 H952 0.929 . S
C960 C961 1.377 . S
C960 C962 1.384 . S
C961 C960 1.377 . S
C961 C967 1.390 . S
C962 H953 0.930 . S
C962 C960 1.384 . S
C962 C963 1.372 . S
C963 C962 1.372 . S
C963 C964 1.400 . S
C963 C968 1.490 . S
C964 H954 0.930 . S
C964 C963 1.400 . S
C964 C967 1.386 . S
H965 C981 0.930 . S
H966 C982 0.931 . S
C967 H955 0.929 . S
C967 C961 1.390 . S
C967 C964 1.386 . S
C968 C963 1.490 . S
C968 C970 1.395 . S
C968 C971 1.409 1_556 S
H969 C975 0.930 . S
C970 H956 0.930 . S
C970 C968 1.395 . S
C970 C973 1.403 . S
C971 C968 1.409 1_554 S
C971 C972 1.523 1_545 S
C971 C975 1.394 1_545 S
C972 H957 0.960 . S
C972 H958 0.960 1_565 S
C972 H959 0.953 . S
C972 C971 1.523 1_565 S
C973 C970 1.403 . S
C973 C974 1.392 1_546 S
C973 C977 1.495 . S
C974 C973 1.392 1_564 S
C974 C975 1.385 . S
C974 C976 1.478 . S
C975 H969 0.930 . S
C975 C971 1.394 1_565 S
C975 C974 1.385 . S
C976 C974 1.478 . S
C976 C978 1.381 . S
C976 C982 1.383 . S
C977 C973 1.495 . S
C977 H983 0.959 . S
C977 H984 0.961 1_545 S
C977 H985 0.948 1_556 S
C978 C976 1.381 . S
C978 C979 1.394 . S
C978 H986 0.930 . S
C979 C978 1.394 . S
C979 C980 1.383 . S
C979 H987 0.929 . S
C980 C979 1.383 . S
C980 C981 1.377 . S
C981 H965 0.930 . S
C981 C980 1.377 . S
C981 C982 1.379 . S
C982 H966 0.931 . S
C982 C976 1.383 . S
C982 C981 1.379 . S
H983 C977 0.959 . S
H984 C977 0.961 1_565 S
H985 C977 0.948 1_554 S
H986 C978 0.930 . S
H987 C979 0.929 . S
H988 C996 0.929 . S
H989 C998 0.930 . S
H990 C1000 0.930 . S
H991 C1003 0.929 . S
H992 C1006 0.930 . S
H993 C1008 0.960 . S
H994 C1008 0.960 . S
H995 C1008 0.960 . S
C996 H988 0.929 . S
C996 C997 1.377 . S
C996 C998 1.384 . S
C997 C996 1.377 . S
C997 C1003 1.390 . S
C998 H989 0.930 . S
C998 C996 1.384 . S
C998 C999 1.372 . S
C999 C998 1.372 . S
C999 C1000 1.400 . S
C999 C1004 1.490 . S
C1000 H990 0.930 . S
C1000 C999 1.400 . S
C1000 C1003 1.386 . S
H1001 C1017 0.930 . S
H1002 C1018 0.931 . S
C1003 H991 0.929 . S
C1003 C997 1.390 . S
C1003 C1000 1.386 . S
C1004 C999 1.490 . S
C1004 C1006 1.395 1_545 S
C1004 C1007 1.403 1_455 S
H1005 C1011 0.930 1_545 S
C1006 H992 0.930 . S
C1006 C1004 1.395 1_565 S
C1006 C1009 1.403 . S
C1007 C1004 1.403 1_655 S
C1007 C1008 1.524 . S
C1007 C1011 1.402 1_545 S
C1008 H993 0.960 . S
C1008 H994 0.960 . S
C1008 H995 0.960 . S
C1008 C1007 1.524 . S
C1009 C1006 1.403 . S
C1009 C1010 1.392 1_455 S
C1009 C1013 1.495 . S
C1010 C1009 1.392 1_655 S
C1010 C1011 1.383 . S
C1010 C1012 1.478 . S
C1011 H1005 0.930 1_565 S
C1011 C1007 1.402 1_565 S
C1011 C1010 1.383 . S
C1012 C1010 1.478 . S
C1012 C1014 1.381 . S
C1012 C1018 1.383 . S
C1013 C1009 1.495 . S
C1013 H1019 0.959 . S
C1013 H1020 0.961 . S
C1013 H1021 0.960 . S
C1014 C1012 1.381 . S
C1014 C1015 1.394 . S
C1014 H1022 0.930 . S
C1015 C1014 1.394 . S
C1015 C1016 1.383 . S
C1015 H1023 0.929 . S
C1016 C1015 1.383 . S
C1016 C1017 1.377 . S
C1017 H1001 0.930 . S
C1017 C1016 1.377 . S
C1017 C1018 1.379 . S
C1018 H1002 0.931 . S
C1018 C1012 1.383 . S
C1018 C1017 1.379 . S
H1019 C1013 0.959 . S
H1020 C1013 0.961 . S
H1021 C1013 0.960 . S
H1022 C1014 0.930 . S
H1023 C1015 0.929 . S
H1024 C1032 0.929 . S
H1025 C1034 0.930 . S
H1026 C1036 0.930 . S
H1027 C1039 0.929 . S
H1028 C1042 0.930 . S
H1029 C1044 0.960 . S
H1030 C1044 0.960 . S
H1031 C1044 0.960 . S
C1032 H1024 0.929 . S
C1032 C1033 1.377 . S
C1032 C1034 1.384 . S
C1033 C1032 1.377 . S
C1033 C1039 1.390 . S
C1034 H1025 0.930 . S
C1034 C1032 1.384 . S
C1034 C1035 1.372 . S
C1035 C1034 1.372 . S
C1035 C1036 1.400 . S
C1035 C1040 1.490 . S
C1036 H1026 0.930 . S
C1036 C1035 1.400 . S
C1036 C1039 1.386 . S
H1037 C1053 0.930 . S
H1038 C1054 0.931 . S
C1039 H1027 0.929 . S
C1039 C1033 1.390 . S
C1039 C1036 1.386 . S
C1040 C1035 1.490 . S
C1040 C1042 1.395 1_655 S
C1040 C1043 1.403 . S
H1041 C1047 0.930 . S
C1042 H1028 0.930 . S
C1042 C1040 1.395 1_455 S
C1042 C1045 1.403 . S
C1043 C1040 1.403 . S
C1043 C1044 1.524 . S
C1043 C1047 1.400 . S
C1044 H1029 0.960 . S
C1044 H1030 0.960 . S
C1044 H1031 0.960 . S
C1044 C1043 1.524 . S
C1045 C1042 1.403 . S
C1045 C1046 1.392 . S
C1045 C1049 1.495 . S
C1046 C1045 1.392 . S
C1046 C1047 1.385 1_455 S
C1046 C1048 1.478 . S
C1047 H1041 0.930 . S
C1047 C1043 1.400 . S
C1047 C1046 1.385 1_655 S
C1048 C1046 1.478 . S
C1048 C1050 1.381 . S
C1048 C1054 1.383 . S
C1049 C1045 1.495 . S
C1049 H1055 0.959 . S
C1049 H1056 0.961 . S
C1049 H1057 0.960 . S
C1050 C1048 1.381 . S
C1050 C1051 1.394 . S
C1050 H1058 0.930 . S
C1051 C1050 1.394 . S
C1051 C1052 1.383 . S
C1051 H1059 0.929 . S
C1052 C1051 1.383 . S
C1052 C1053 1.377 . S
C1053 H1037 0.930 . S
C1053 C1052 1.377 . S
C1053 C1054 1.379 . S
C1054 H1038 0.931 . S
C1054 C1048 1.383 . S
C1054 C1053 1.379 . S
H1055 C1049 0.959 . S
H1056 C1049 0.961 . S
H1057 C1049 0.960 . S
H1058 C1050 0.930 . S
H1059 C1051 0.929 . S
H1060 C1068 0.929 . S
H1061 C1070 0.930 . S
H1062 C1072 0.930 . S
H1063 C1075 0.929 . S
H1064 C1078 0.930 . S
H1065 C1080 0.960 . S
H1066 C1080 0.960 1_455 S
H1067 C1080 0.960 1_455 S
C1068 H1060 0.929 . S
C1068 C1069 1.377 . S
C1068 C1070 1.384 . S
C1069 C1068 1.377 . S
C1069 C1075 1.390 . S
C1070 H1061 0.930 . S
C1070 C1068 1.384 . S
C1070 C1071 1.372 . S
C1071 C1070 1.372 . S
C1071 C1072 1.400 . S
C1071 C1076 1.490 . S
C1072 H1062 0.930 . S
C1072 C1071 1.400 . S
C1072 C1075 1.386 . S
H1073 C1089 0.930 . S
H1074 C1090 0.931 . S
C1075 H1063 0.929 . S
C1075 C1069 1.390 . S
C1075 C1072 1.386 . S
C1076 C1071 1.490 . S
C1076 C1078 1.395 . S
C1076 C1079 1.427 . S
H1077 C1083 0.930 . S
C1078 H1064 0.930 . S
C1078 C1076 1.395 . S
C1078 C1081 1.403 . S
C1079 C1076 1.427 . S
C1079 C1080 1.522 1_455 S
C1079 C1083 1.377 1_455 S
C1080 H1065 0.960 . S
C1080 H1066 0.960 1_655 S
C1080 H1067 0.960 1_655 S
C1080 C1079 1.522 1_655 S
C1081 C1078 1.403 . S
C1081 C1082 1.392 1_455 S
C1081 C1085 1.495 . S
C1082 C1081 1.392 1_655 S
C1082 C1083 1.385 . S
C1082 C1084 1.478 . S
C1083 H1077 0.930 . S
C1083 C1079 1.377 1_655 S
C1083 C1082 1.385 . S
C1084 C1082 1.478 . S
C1084 C1086 1.381 . S
C1084 C1090 1.383 . S
C1085 C1081 1.495 . S
C1085 H1091 0.959 . S
C1085 H1092 0.961 1_455 S
C1085 H1093 0.954 1_455 S
C1086 C1084 1.381 . S
C1086 C1087 1.394 . S
C1086 H1094 0.930 . S
C1087 C1086 1.394 . S
C1087 C1088 1.383 . S
C1087 H1095 0.929 . S
C1088 C1087 1.383 . S
C1088 C1089 1.377 . S
C1089 H1073 0.930 . S
C1089 C1088 1.377 . S
C1089 C1090 1.379 . S
C1090 H1074 0.931 . S
C1090 C1084 1.383 . S
C1090 C1089 1.379 . S
H1091 C1085 0.959 . S
H1092 C1085 0.961 1_655 S
H1093 C1085 0.954 1_655 S
H1094 C1086 0.930 . S
H1095 C1087 0.929 . S
H1096 C1104 0.929 . S
H1097 C1106 0.930 . S
H1098 C1108 0.930 . S
H1099 C1111 0.929 . S
H1100 C1114 0.930 . S
H1101 C1116 0.960 . S
H1102 C1116 0.960 . S
H1103 C1116 0.960 . S
C1104 H1096 0.929 . S
C1104 C1105 1.377 . S
C1104 C1106 1.384 . S
C1105 C1104 1.377 . S
C1105 C1111 1.390 . S
C1106 H1097 0.930 . S
C1106 C1104 1.384 . S
C1106 C1107 1.372 . S
C1107 C1106 1.372 . S
C1107 C1108 1.400 . S
C1107 C1112 1.490 . S
C1108 H1098 0.930 . S
C1108 C1107 1.400 . S
C1108 C1111 1.386 . S
H1109 C1125 0.930 . S
H1110 C1126 0.931 . S
C1111 H1099 0.929 . S
C1111 C1105 1.390 . S
C1111 C1108 1.386 . S
C1112 C1107 1.490 . S
C1112 C1114 1.395 . S
C1112 C1115 1.403 . S
H1113 C1119 0.930 . S
C1114 H1100 0.930 . S
C1114 C1112 1.395 . S
C1114 C1117 1.403 . S
C1115 C1112 1.403 . S
C1115 C1116 1.524 . S
C1115 C1119 1.400 . S
C1116 H1101 0.960 . S
C1116 H1102 0.960 . S
C1116 H1103 0.960 . S
C1116 C1115 1.524 . S
C1117 C1114 1.403 . S
C1117 C1118 1.392 . S
C1117 C1121 1.495 . S
C1118 C1117 1.392 . S
C1118 C1119 1.385 . S
C1118 C1120 1.478 . S
C1119 H1113 0.930 . S
C1119 C1115 1.400 . S
C1119 C1118 1.385 . S
C1120 C1118 1.478 . S
C1120 C1122 1.381 . S
C1120 C1126 1.383 . S
C1121 C1117 1.495 . S
C1121 H1127 0.959 . S
C1121 H1128 0.961 . S
C1121 H1129 0.960 . S
C1122 C1120 1.381 . S
C1122 C1123 1.394 . S
C1122 H1130 0.930 . S
C1123 C1122 1.394 . S
C1123 C1124 1.383 . S
C1123 H1131 0.929 . S
C1124 C1123 1.383 . S
C1124 C1125 1.377 . S
C1125 H1109 0.930 . S
C1125 C1124 1.377 . S
C1125 C1126 1.379 . S
C1126 H1110 0.931 . S
C1126 C1120 1.383 . S
C1126 C1125 1.379 . S
H1127 C1121 0.959 . S
H1128 C1121 0.961 . S
H1129 C1121 0.960 . S
H1130 C1122 0.930 . S
H1131 C1123 0.929 . S
H1132 C1140 0.929 . S
H1133 C1142 0.930 . S
H1134 C1144 0.930 . S
H1135 C1147 0.929 . S
H1136 C1150 0.930 . S
H1137 C1152 0.960 . S
H1138 C1152 0.960 . S
H1139 C1152 0.960 . S
C1140 H1132 0.929 . S
C1140 C1141 1.377 . S
C1140 C1142 1.384 . S
C1141 C1140 1.377 . S
C1141 C1147 1.390 . S
C1142 H1133 0.930 . S
C1142 C1140 1.384 . S
C1142 C1143 1.372 . S
C1143 C1142 1.372 . S
C1143 C1144 1.400 . S
C1143 C1148 1.490 . S
C1144 H1134 0.930 . S
C1144 C1143 1.400 . S
C1144 C1147 1.386 . S
H1145 C1161 0.930 . S
H1146 C1162 0.931 . S
C1147 H1135 0.929 . S
C1147 C1141 1.390 . S
C1147 C1144 1.386 . S
C1148 C1143 1.490 . S
C1148 C1150 1.395 . S
C1148 C1151 1.403 . S
H1149 C1155 0.930 . S
C1150 H1136 0.930 . S
C1150 C1148 1.395 . S
C1150 C1153 1.403 . S
C1151 C1148 1.403 . S
C1151 C1152 1.524 . S
C1151 C1155 1.400 . S
C1152 H1137 0.960 . S
C1152 H1138 0.960 . S
C1152 H1139 0.960 . S
C1152 C1151 1.524 . S
C1153 C1150 1.403 . S
C1153 C1154 1.392 . S
C1153 C1157 1.495 . S
C1154 C1153 1.392 . S
C1154 C1155 1.385 . S
C1154 C1156 1.478 . S
C1155 H1149 0.930 . S
C1155 C1151 1.400 . S
C1155 C1154 1.385 . S
C1156 C1154 1.478 . S
C1156 C1158 1.381 . S
C1156 C1162 1.383 . S
C1157 C1153 1.495 . S
C1157 H1163 0.959 . S
C1157 H1164 0.961 . S
C1157 H1165 0.960 . S
C1158 C1156 1.381 . S
C1158 C1159 1.394 . S
C1158 H1166 0.930 . S
C1159 C1158 1.394 . S
C1159 C1160 1.383 . S
C1159 H1167 0.929 . S
C1160 C1159 1.383 . S
C1160 C1161 1.377 . S
C1161 H1145 0.930 . S
C1161 C1160 1.377 . S
C1161 C1162 1.379 . S
C1162 H1146 0.931 . S
C1162 C1156 1.383 . S
C1162 C1161 1.379 . S
H1163 C1157 0.959 . S
H1164 C1157 0.961 . S
H1165 C1157 0.960 . S
H1166 C1158 0.930 . S
H1167 C1159 0.929 . S
H1168 C1176 0.929 . S
H1169 C1178 0.930 . S
H1170 C1180 0.930 . S
H1171 C1183 0.929 . S
H1172 C1186 0.930 . S
H1173 C1188 0.960 . S
H1174 C1188 0.960 . S
H1175 C1188 0.960 . S
C1176 H1168 0.929 . S
C1176 C1177 1.377 . S
C1176 C1178 1.384 . S
C1177 C1176 1.377 . S
C1177 C1183 1.390 . S
C1178 H1169 0.930 . S
C1178 C1176 1.384 . S
C1178 C1179 1.372 . S
C1179 C1178 1.372 . S
C1179 C1180 1.400 . S
C1179 C1184 1.490 . S
C1180 H1170 0.930 . S
C1180 C1179 1.400 . S
C1180 C1183 1.386 . S
H1181 C1197 0.930 . S
H1182 C1198 0.931 . S
C1183 H1171 0.929 . S
C1183 C1177 1.390 . S
C1183 C1180 1.386 . S
C1184 C1179 1.490 . S
C1184 C1186 1.395 . S
C1184 C1187 1.403 1_655 S
H1185 C1191 0.930 . S
C1186 H1172 0.930 . S
C1186 C1184 1.395 . S
C1186 C1189 1.403 . S
C1187 C1184 1.403 1_455 S
C1187 C1188 1.524 . S
C1187 C1191 1.400 . S
C1188 H1173 0.960 . S
C1188 H1174 0.960 . S
C1188 H1175 0.960 . S
C1188 C1187 1.524 . S
C1189 C1186 1.403 . S
C1189 C1190 1.392 1_655 S
C1189 C1193 1.495 . S
C1190 C1189 1.392 1_455 S
C1190 C1191 1.385 . S
C1190 C1192 1.478 . S
C1191 H1185 0.930 . S
C1191 C1187 1.400 . S
C1191 C1190 1.385 . S
C1192 C1190 1.478 . S
C1192 C1194 1.381 . S
C1192 C1198 1.383 . S
C1193 C1189 1.495 . S
C1193 H1199 0.959 . S
C1193 H1200 0.961 . S
C1193 H1201 0.960 . S
C1194 C1192 1.381 . S
C1194 C1195 1.394 . S
C1194 H1202 0.930 . S
C1195 C1194 1.394 . S
C1195 C1196 1.383 . S
C1195 H1203 0.929 . S
C1196 C1195 1.383 . S
C1196 C1197 1.377 . S
C1197 H1181 0.930 . S
C1197 C1196 1.377 . S
C1197 C1198 1.379 . S
C1198 H1182 0.931 . S
C1198 C1192 1.383 . S
C1198 C1197 1.379 . S
H1199 C1193 0.959 . S
H1200 C1193 0.961 . S
H1201 C1193 0.960 . S
H1202 C1194 0.930 . S
H1203 C1195 0.929 . S
H1204 C1212 0.929 . S
H1205 C1214 0.930 . S
H1206 C1216 0.930 . S
H1207 C1219 0.929 . S
H1208 C1222 0.930 . S
H1209 C1224 0.960 . S
H1210 C1224 0.960 . S
H1211 C1224 0.960 . S
C1212 H1204 0.929 . S
C1212 C1213 1.377 . S
C1212 C1214 1.384 . S
C1213 C1212 1.377 . S
C1213 C1219 1.390 . S
C1214 H1205 0.930 . S
C1214 C1212 1.384 . S
C1214 C1215 1.372 . S
C1215 C1214 1.372 . S
C1215 C1216 1.400 . S
C1215 C1220 1.490 . S
C1216 H1206 0.930 . S
C1216 C1215 1.400 . S
C1216 C1219 1.386 . S
H1217 C1233 0.930 . S
H1218 C1234 0.931 . S
C1219 H1207 0.929 . S
C1219 C1213 1.390 . S
C1219 C1216 1.386 . S
C1220 C1215 1.490 . S
C1220 C1222 1.395 . S
C1220 C1223 1.403 . S
H1221 C1227 0.930 . S
C1222 H1208 0.930 . S
C1222 C1220 1.395 . S
C1222 C1225 1.403 . S
C1223 C1220 1.403 . S
C1223 C1224 1.524 . S
C1223 C1227 1.400 . S
C1224 H1209 0.960 . S
C1224 H1210 0.960 . S
C1224 H1211 0.960 . S
C1224 C1223 1.524 . S
C1225 C1222 1.403 . S
C1225 C1226 1.392 . S
C1225 C1229 1.495 . S
C1226 C1225 1.392 . S
C1226 C1227 1.385 . S
C1226 C1228 1.478 . S
C1227 H1221 0.930 . S
C1227 C1223 1.400 . S
C1227 C1226 1.385 . S
C1228 C1226 1.478 . S
C1228 C1230 1.381 . S
C1228 C1234 1.383 . S
C1229 C1225 1.495 . S
C1229 H1235 0.959 . S
C1229 H1236 0.961 . S
C1229 H1237 0.960 . S
C1230 C1228 1.381 . S
C1230 C1231 1.394 . S
C1230 H1238 0.930 . S
C1231 C1230 1.394 . S
C1231 C1232 1.383 . S
C1231 H1239 0.929 . S
C1232 C1231 1.383 . S
C1232 C1233 1.377 . S
C1233 H1217 0.930 . S
C1233 C1232 1.377 . S
C1233 C1234 1.379 . S
C1234 H1218 0.931 . S
C1234 C1228 1.383 . S
C1234 C1233 1.379 . S
H1235 C1229 0.959 . S
H1236 C1229 0.961 . S
H1237 C1229 0.960 . S
H1238 C1230 0.930 . S
H1239 C1231 0.929 . S
H1240 C1248 0.929 . S
H1241 C1250 0.930 . S
H1242 C1252 0.930 . S
H1243 C1255 0.929 . S
H1244 C1258 0.930 . S
H1245 C1260 0.960 . S
H1246 C1260 0.960 . S
H1247 C1260 0.960 . S
C1248 H1240 0.929 . S
C1248 C1249 1.377 . S
C1248 C1250 1.384 . S
C1249 C1248 1.377 . S
C1249 C1255 1.390 . S
C1250 H1241 0.930 . S
C1250 C1248 1.384 . S
C1250 C1251 1.372 . S
C1251 C1250 1.372 . S
C1251 C1252 1.400 . S
C1251 C1256 1.490 . S
C1252 H1242 0.930 . S
C1252 C1251 1.400 . S
C1252 C1255 1.386 . S
H1253 C1269 0.930 . S
H1254 C1270 0.931 . S
C1255 H1243 0.929 . S
C1255 C1249 1.390 . S
C1255 C1252 1.386 . S
C1256 C1251 1.490 . S
C1256 C1258 1.395 . S
C1256 C1259 1.403 . S
H1257 C1263 0.930 . S
C1258 H1244 0.930 . S
C1258 C1256 1.395 . S
C1258 C1261 1.403 . S
C1259 C1256 1.403 . S
C1259 C1260 1.524 . S
C1259 C1263 1.400 . S
C1260 H1245 0.960 . S
C1260 H1246 0.960 . S
C1260 H1247 0.960 . S
C1260 C1259 1.524 . S
C1261 C1258 1.403 . S
C1261 C1262 1.392 . S
C1261 C1265 1.495 . S
C1262 C1261 1.392 . S
C1262 C1263 1.385 . S
C1262 C1264 1.478 . S
C1263 H1257 0.930 . S
C1263 C1259 1.400 . S
C1263 C1262 1.385 . S
C1264 C1262 1.478 . S
C1264 C1266 1.381 . S
C1264 C1270 1.383 . S
C1265 C1261 1.495 . S
C1265 H1271 0.959 . S
C1265 H1272 0.961 . S
C1265 H1273 0.960 . S
C1266 C1264 1.381 . S
C1266 C1267 1.394 . S
C1266 H1274 0.930 . S
C1267 C1266 1.394 . S
C1267 C1268 1.383 . S
C1267 H1275 0.929 . S
C1268 C1267 1.383 . S
C1268 C1269 1.377 . S
C1269 H1253 0.930 . S
C1269 C1268 1.377 . S
C1269 C1270 1.379 . S
C1270 H1254 0.931 . S
C1270 C1264 1.383 . S
C1270 C1269 1.379 . S
H1271 C1265 0.959 . S
H1272 C1265 0.961 . S
H1273 C1265 0.960 . S
H1274 C1266 0.930 . S
H1275 C1267 0.929 . S
H1276 C1284 0.929 . S
H1277 C1286 0.930 . S
H1278 C1288 0.930 . S
H1279 C1291 0.929 . S
H1280 C1294 0.930 . S
H1281 C1296 0.960 . S
H1282 C1296 0.960 . S
H1283 C1296 0.960 . S
C1284 H1276 0.929 . S
C1284 C1285 1.377 . S
C1284 C1286 1.384 . S
C1285 C1284 1.377 . S
C1285 C1291 1.390 . S
C1286 H1277 0.930 . S
C1286 C1284 1.384 . S
C1286 C1287 1.372 . S
C1287 C1286 1.372 . S
C1287 C1288 1.400 . S
C1287 C1292 1.490 . S
C1288 H1278 0.930 . S
C1288 C1287 1.400 . S
C1288 C1291 1.386 . S
H1289 C1305 0.930 . S
H1290 C1306 0.931 . S
C1291 H1279 0.929 . S
C1291 C1285 1.390 . S
C1291 C1288 1.386 . S
C1292 C1287 1.490 . S
C1292 C1294 1.395 . S
C1292 C1295 1.403 . S
H1293 C1299 0.930 . S
C1294 H1280 0.930 . S
C1294 C1292 1.395 . S
C1294 C1297 1.403 1_455 S
C1295 C1292 1.403 . S
C1295 C1296 1.524 . S
C1295 C1299 1.400 1_455 S
C1296 H1281 0.960 . S
C1296 H1282 0.960 . S
C1296 H1283 0.960 . S
C1296 C1295 1.524 . S
C1297 C1294 1.403 1_655 S
C1297 C1298 1.392 . S
C1297 C1301 1.495 . S
C1298 C1297 1.392 . S
C1298 C1299 1.385 . S
C1298 C1300 1.478 . S
C1299 H1293 0.930 . S
C1299 C1295 1.400 1_655 S
C1299 C1298 1.385 . S
C1300 C1298 1.478 . S
C1300 C1302 1.381 . S
C1300 C1306 1.383 . S
C1301 C1297 1.495 . S
C1301 H1307 0.959 . S
C1301 H1308 0.961 . S
C1301 H1309 0.960 . S
C1302 C1300 1.381 . S
C1302 C1303 1.394 . S
C1302 H1310 0.930 . S
C1303 C1302 1.394 . S
C1303 C1304 1.383 . S
C1303 H1311 0.929 . S
C1304 C1303 1.383 . S
C1304 C1305 1.377 . S
C1305 H1289 0.930 . S
C1305 C1304 1.377 . S
C1305 C1306 1.379 . S
C1306 H1290 0.931 . S
C1306 C1300 1.383 . S
C1306 C1305 1.379 . S
H1307 C1301 0.959 . S
H1308 C1301 0.961 . S
H1309 C1301 0.960 . S
H1310 C1302 0.930 . S
H1311 C1303 0.929 . S
H1312 C1320 0.929 . S
H1313 C1322 0.930 . S
H1314 C1324 0.930 . S
H1315 C1327 0.929 . S
H1316 C1330 0.930 . S
H1317 C1332 0.960 . S
H1318 C1332 0.960 . S
H1319 C1332 0.960 . S
C1320 H1312 0.929 . S
C1320 C1321 1.377 . S
C1320 C1322 1.384 . S
C1321 C1320 1.377 . S
C1321 C1327 1.390 . S
C1322 H1313 0.930 . S
C1322 C1320 1.384 . S
C1322 C1323 1.372 . S
C1323 C1322 1.372 . S
C1323 C1324 1.400 . S
C1323 C1328 1.490 . S
C1324 H1314 0.930 . S
C1324 C1323 1.400 . S
C1324 C1327 1.386 . S
H1325 C1341 0.930 . S
H1326 C1342 0.931 . S
C1327 H1315 0.929 . S
C1327 C1321 1.390 . S
C1327 C1324 1.386 . S
C1328 C1323 1.490 . S
C1328 C1330 1.395 1_655 S
C1328 C1331 1.403 . S
H1329 C1335 0.930 . S
C1330 H1316 0.930 . S
C1330 C1328 1.395 1_455 S
C1330 C1333 1.403 . S
C1331 C1328 1.403 . S
C1331 C1332 1.524 . S
C1331 C1335 1.400 . S
C1332 H1317 0.960 . S
C1332 H1318 0.960 . S
C1332 H1319 0.960 . S
C1332 C1331 1.524 . S
C1333 C1330 1.403 . S
C1333 C1334 1.392 . S
C1333 C1337 1.495 . S
C1334 C1333 1.392 . S
C1334 C1335 1.385 1_455 S
C1334 C1336 1.478 . S
C1335 H1329 0.930 . S
C1335 C1331 1.400 . S
C1335 C1334 1.385 1_655 S
C1336 C1334 1.478 . S
C1336 C1338 1.381 . S
C1336 C1342 1.383 . S
C1337 C1333 1.495 . S
C1337 H1343 0.959 . S
C1337 H1344 0.961 . S
C1337 H1345 0.960 . S
C1338 C1336 1.381 . S
C1338 C1339 1.394 . S
C1338 H1346 0.930 . S
C1339 C1338 1.394 . S
C1339 C1340 1.383 . S
C1339 H1347 0.929 . S
C1340 C1339 1.383 . S
C1340 C1341 1.377 . S
C1341 H1325 0.930 . S
C1341 C1340 1.377 . S
C1341 C1342 1.379 . S
C1342 H1326 0.931 . S
C1342 C1336 1.383 . S
C1342 C1341 1.379 . S
H1343 C1337 0.959 . S
H1344 C1337 0.961 . S
H1345 C1337 0.960 . S
H1346 C1338 0.930 . S
H1347 C1339 0.929 . S
H1348 C1356 0.929 . S
H1349 C1358 0.930 . S
H1350 C1360 0.930 . S
H1351 C1363 0.929 . S
H1352 C1366 0.929 1_655 S
H1353 C1368 0.960 . S
H1354 C1368 0.960 . S
H1355 C1368 0.960 . S
C1356 H1348 0.929 . S
C1356 C1357 1.377 . S
C1356 C1358 1.384 . S
C1357 C1356 1.377 . S
C1357 C1363 1.390 . S
C1358 H1349 0.930 . S
C1358 C1356 1.384 . S
C1358 C1359 1.372 . S
C1359 C1358 1.372 . S
C1359 C1360 1.400 . S
C1359 C1364 1.490 . S
C1360 H1350 0.930 . S
C1360 C1359 1.400 . S
C1360 C1363 1.386 . S
H1361 C1377 0.930 . S
H1362 C1378 0.931 . S
C1363 H1351 0.929 . S
C1363 C1357 1.390 . S
C1363 C1360 1.386 . S
C1364 C1359 1.490 . S
C1364 C1366 1.361 1_655 S
C1364 C1367 1.403 . S
H1365 C1371 0.930 . S
C1366 H1352 0.929 1_455 S
C1366 C1364 1.361 1_455 S
C1366 C1369 1.439 . S
C1367 C1364 1.403 . S
C1367 C1368 1.524 . S
C1367 C1371 1.400 1_655 S
C1368 H1353 0.960 . S
C1368 H1354 0.960 . S
C1368 H1355 0.960 . S
C1368 C1367 1.524 . S
C1369 C1366 1.439 . S
C1369 C1370 1.392 . S
C1369 C1373 1.495 . S
C1370 C1369 1.392 . S
C1370 C1371 1.385 . S
C1370 C1372 1.478 . S
C1371 H1365 0.930 . S
C1371 C1367 1.400 1_455 S
C1371 C1370 1.385 . S
C1372 C1370 1.478 . S
C1372 C1374 1.381 . S
C1372 C1378 1.383 . S
C1373 C1369 1.495 . S
C1373 H1379 0.959 . S
C1373 H1380 0.961 . S
C1373 H1381 0.960 . S
C1374 C1372 1.381 . S
C1374 C1375 1.394 . S
C1374 H1382 0.930 . S
C1375 C1374 1.394 . S
C1375 C1376 1.383 . S
C1375 H1383 0.929 . S
C1376 C1375 1.383 . S
C1376 C1377 1.377 . S
C1377 H1361 0.930 . S
C1377 C1376 1.377 . S
C1377 C1378 1.379 . S
C1378 H1362 0.931 . S
C1378 C1372 1.383 . S
C1378 C1377 1.379 . S
H1379 C1373 0.959 . S
H1380 C1373 0.961 . S
H1381 C1373 0.960 . S
H1382 C1374 0.930 . S
H1383 C1375 0.929 . S
H1384 C1392 0.929 . S
H1385 C1394 0.930 . S
H1386 C1396 0.930 . S
H1387 C1399 0.929 . S
H1388 C1402 0.930 . S
H1389 C1404 0.960 . S
H1390 C1404 0.960 . S
H1391 C1404 0.960 . S
C1392 H1384 0.929 . S
C1392 C1393 1.377 . S
C1392 C1394 1.384 . S
C1393 C1392 1.377 . S
C1393 C1399 1.390 . S
C1394 H1385 0.930 . S
C1394 C1392 1.384 . S
C1394 C1395 1.372 . S
C1395 C1394 1.372 . S
C1395 C1396 1.400 . S
C1395 C1400 1.490 . S
C1396 H1386 0.930 . S
C1396 C1395 1.400 . S
C1396 C1399 1.386 . S
H1397 C1413 0.930 . S
H1398 C1414 0.931 . S
C1399 H1387 0.929 . S
C1399 C1393 1.390 . S
C1399 C1396 1.386 . S
C1400 C1395 1.490 . S
C1400 C1402 1.395 . S
C1400 C1403 1.403 . S
H1401 C1407 0.930 . S
C1402 H1388 0.930 . S
C1402 C1400 1.395 . S
C1402 C1405 1.403 . S
C1403 C1400 1.403 . S
C1403 C1404 1.524 . S
C1403 C1407 1.400 . S
C1404 H1389 0.960 . S
C1404 H1390 0.960 . S
C1404 H1391 0.960 . S
C1404 C1403 1.524 . S
C1405 C1402 1.403 . S
C1405 C1406 1.392 . S
C1405 C1409 1.495 . S
C1406 C1405 1.392 . S
C1406 C1407 1.385 . S
C1406 C1408 1.478 . S
C1407 H1401 0.930 . S
C1407 C1403 1.400 . S
C1407 C1406 1.385 . S
C1408 C1406 1.478 . S
C1408 C1410 1.381 . S
C1408 C1414 1.383 . S
C1409 C1405 1.495 . S
C1409 H1415 0.959 . S
C1409 H1416 0.961 . S
C1409 H1417 0.960 . S
C1410 C1408 1.381 . S
C1410 C1411 1.394 . S
C1410 H1418 0.930 . S
C1411 C1410 1.394 . S
C1411 C1412 1.383 . S
C1411 H1419 0.929 . S
C1412 C1411 1.383 . S
C1412 C1413 1.377 . S
C1413 H1397 0.930 . S
C1413 C1412 1.377 . S
C1413 C1414 1.379 . S
C1414 H1398 0.931 . S
C1414 C1408 1.383 . S
C1414 C1413 1.379 . S
H1415 C1409 0.959 . S
H1416 C1409 0.961 . S
H1417 C1409 0.960 . S
H1418 C1410 0.930 . S
H1419 C1411 0.929 . S
H1420 C1428 0.929 . S
H1421 C1430 0.930 . S
H1422 C1432 0.930 . S
H1423 C1435 0.929 . S
H1424 C1438 0.930 . S
H1425 C1440 0.960 . S
H1426 C1440 0.960 . S
H1427 C1440 0.960 . S
C1428 H1420 0.929 . S
C1428 C1429 1.377 . S
C1428 C1430 1.384 . S
C1429 C1428 1.377 . S
C1429 C1435 1.390 . S
C1430 H1421 0.930 . S
C1430 C1428 1.384 . S
C1430 C1431 1.372 . S
C1431 C1430 1.372 . S
C1431 C1432 1.400 . S
C1431 C1436 1.490 . S
C1432 H1422 0.930 . S
C1432 C1431 1.400 . S
C1432 C1435 1.386 . S
H1433 C1449 0.930 . S
H1434 C1450 0.931 . S
C1435 H1423 0.929 . S
C1435 C1429 1.390 . S
C1435 C1432 1.386 . S
C1436 C1431 1.490 . S
C1436 C1438 1.395 . S
C1436 C1439 1.403 . S
H1437 C1443 0.930 . S
C1438 H1424 0.930 . S
C1438 C1436 1.395 . S
C1438 C1441 1.403 . S
C1439 C1436 1.403 . S
C1439 C1440 1.524 . S
C1439 C1443 1.400 . S
C1440 H1425 0.960 . S
C1440 H1426 0.960 . S
C1440 H1427 0.960 . S
C1440 C1439 1.524 . S
C1441 C1438 1.403 . S
C1441 C1442 1.392 . S
C1441 C1445 1.495 . S
C1442 C1441 1.392 . S
C1442 C1443 1.385 . S
C1442 C1444 1.478 . S
C1443 H1437 0.930 . S
C1443 C1439 1.400 . S
C1443 C1442 1.385 . S
C1444 C1442 1.478 . S
C1444 C1446 1.381 . S
C1444 C1450 1.383 . S
C1445 C1441 1.495 . S
C1445 H1451 0.959 . S
C1445 H1452 0.961 . S
C1445 H1453 0.960 . S
C1446 C1444 1.381 . S
C1446 C1447 1.394 . S
C1446 H1454 0.930 . S
C1447 C1446 1.394 . S
C1447 C1448 1.383 . S
C1447 H1455 0.929 . S
C1448 C1447 1.383 . S
C1448 C1449 1.377 . S
C1449 H1433 0.930 . S
C1449 C1448 1.377 . S
C1449 C1450 1.379 . S
C1450 H1434 0.931 . S
C1450 C1444 1.383 . S
C1450 C1449 1.379 . S
H1451 C1445 0.959 . S
H1452 C1445 0.961 . S
H1453 C1445 0.960 . S
H1454 C1446 0.930 . S
H1455 C1447 0.929 . S
H1456 C1464 0.929 . S
H1457 C1466 0.930 . S
H1458 C1468 0.930 . S
H1459 C1471 0.929 . S
H1460 C1474 0.930 . S
H1461 C1476 0.960 . S
H1462 C1476 0.960 . S
H1463 C1476 0.960 . S
C1464 H1456 0.929 . S
C1464 C1465 1.377 . S
C1464 C1466 1.384 . S
C1465 C1464 1.377 . S
C1465 C1471 1.390 . S
C1466 H1457 0.930 . S
C1466 C1464 1.384 . S
C1466 C1467 1.372 . S
C1467 C1466 1.372 . S
C1467 C1468 1.400 . S
C1467 C1472 1.490 . S
C1468 H1458 0.930 . S
C1468 C1467 1.400 . S
C1468 C1471 1.386 . S
H1469 C1485 0.930 . S
H1470 C1486 0.931 . S
C1471 H1459 0.929 . S
C1471 C1465 1.390 . S
C1471 C1468 1.386 . S
C1472 C1467 1.490 . S
C1472 C1474 1.395 . S
C1472 C1475 1.403 . S
H1473 C1479 0.930 . S
C1474 H1460 0.930 . S
C1474 C1472 1.395 . S
C1474 C1477 1.403 1_655 S
C1475 C1472 1.403 . S
C1475 C1476 1.524 . S
C1475 C1479 1.400 1_655 S
C1476 H1461 0.960 . S
C1476 H1462 0.960 . S
C1476 H1463 0.960 . S
C1476 C1475 1.524 . S
C1477 C1474 1.403 1_455 S
C1477 C1478 1.392 . S
C1477 C1481 1.495 . S
C1478 C1477 1.392 . S
C1478 C1479 1.385 . S
C1478 C1480 1.478 . S
C1479 H1473 0.930 . S
C1479 C1475 1.400 1_455 S
C1479 C1478 1.385 . S
C1480 C1478 1.478 . S
C1480 C1482 1.381 . S
C1480 C1486 1.383 . S
C1481 C1477 1.495 . S
C1481 H1487 0.959 . S
C1481 H1488 0.961 . S
C1481 H1489 0.960 . S
C1482 C1480 1.381 . S
C1482 C1483 1.394 . S
C1482 H1490 0.930 . S
C1483 C1482 1.394 . S
C1483 C1484 1.383 . S
C1483 H1491 0.929 . S
C1484 C1483 1.383 . S
C1484 C1485 1.377 . S
C1485 H1469 0.930 . S
C1485 C1484 1.377 . S
C1485 C1486 1.379 . S
C1486 H1470 0.931 . S
C1486 C1480 1.383 . S
C1486 C1485 1.379 . S
H1487 C1481 0.959 . S
H1488 C1481 0.961 . S
H1489 C1481 0.960 . S
H1490 C1482 0.930 . S
H1491 C1483 0.929 . S
H1492 C1500 0.929 . S
H1493 C1502 0.930 . S
H1494 C1504 0.930 . S
H1495 C1507 0.929 . S
H1496 C1510 0.930 . S
H1497 C1512 0.960 . S
H1498 C1512 0.960 . S
H1499 C1512 0.960 . S
C1500 H1492 0.929 . S
C1500 C1501 1.377 . S
C1500 C1502 1.384 . S
C1501 C1500 1.377 . S
C1501 C1507 1.390 . S
C1502 H1493 0.930 . S
C1502 C1500 1.384 . S
C1502 C1503 1.372 . S
C1503 C1502 1.372 . S
C1503 C1504 1.400 . S
C1503 C1508 1.490 . S
C1504 H1494 0.930 . S
C1504 C1503 1.400 . S
C1504 C1507 1.386 . S
H1505 C1521 0.930 . S
H1506 C1522 0.931 . S
C1507 H1495 0.929 . S
C1507 C1501 1.390 . S
C1507 C1504 1.386 . S
C1508 C1503 1.490 . S
C1508 C1510 1.395 . S
C1508 C1511 1.403 . S
H1509 C1515 0.930 . S
C1510 H1496 0.930 . S
C1510 C1508 1.395 . S
C1510 C1513 1.403 . S
C1511 C1508 1.403 . S
C1511 C1512 1.524 . S
C1511 C1515 1.400 . S
C1512 H1497 0.960 . S
C1512 H1498 0.960 . S
C1512 H1499 0.960 . S
C1512 C1511 1.524 . S
C1513 C1510 1.403 . S
C1513 C1514 1.392 . S
C1513 C1517 1.495 . S
C1514 C1513 1.392 . S
C1514 C1515 1.385 . S
C1514 C1516 1.478 . S
C1515 H1509 0.930 . S
C1515 C1511 1.400 . S
C1515 C1514 1.385 . S
C1516 C1514 1.478 . S
C1516 C1518 1.381 . S
C1516 C1522 1.383 . S
C1517 C1513 1.495 . S
C1517 H1523 0.959 . S
C1517 H1524 0.961 . S
C1517 H1525 0.960 . S
C1518 C1516 1.381 . S
C1518 C1519 1.394 . S
C1518 H1526 0.930 . S
C1519 C1518 1.394 . S
C1519 C1520 1.383 . S
C1519 H1527 0.929 . S
C1520 C1519 1.383 . S
C1520 C1521 1.377 . S
C1521 H1505 0.930 . S
C1521 C1520 1.377 . S
C1521 C1522 1.379 . S
C1522 H1506 0.931 . S
C1522 C1516 1.383 . S
C1522 C1521 1.379 . S
H1523 C1517 0.959 . S
H1524 C1517 0.961 . S
H1525 C1517 0.960 . S
H1526 C1518 0.930 . S
H1527 C1519 0.929 . S
H1528 C1536 0.929 . S
H1529 C1538 0.930 . S
H1530 C1540 0.930 . S
H1531 C1543 0.929 . S
H1532 C1546 0.930 . S
H1533 C1548 0.960 . S
H1534 C1548 0.960 . S
H1535 C1548 0.960 . S
C1536 H1528 0.929 . S
C1536 C1537 1.377 . S
C1536 C1538 1.384 . S
C1537 C1536 1.377 . S
C1537 C1543 1.390 . S
C1538 H1529 0.930 . S
C1538 C1536 1.384 . S
C1538 C1539 1.372 . S
C1539 C1538 1.372 . S
C1539 C1540 1.400 . S
C1539 C1544 1.490 . S
C1540 H1530 0.930 . S
C1540 C1539 1.400 . S
C1540 C1543 1.386 . S
H1541 C1557 0.930 . S
H1542 C1558 0.931 . S
C1543 H1531 0.929 . S
C1543 C1537 1.390 . S
C1543 C1540 1.386 . S
C1544 C1539 1.490 . S
C1544 C1546 1.395 . S
C1544 C1547 1.403 . S
H1545 C1551 0.930 . S
C1546 H1532 0.930 . S
C1546 C1544 1.395 . S
C1546 C1549 1.403 . S
C1547 C1544 1.403 . S
C1547 C1548 1.524 . S
C1547 C1551 1.400 . S
C1548 H1533 0.960 . S
C1548 H1534 0.960 . S
C1548 H1535 0.960 . S
C1548 C1547 1.524 . S
C1549 C1546 1.403 . S
C1549 C1550 1.392 . S
C1549 C1553 1.495 . S
C1550 C1549 1.392 . S
C1550 C1551 1.385 . S
C1550 C1552 1.478 . S
C1551 H1545 0.930 . S
C1551 C1547 1.400 . S
C1551 C1550 1.385 . S
C1552 C1550 1.478 . S
C1552 C1554 1.381 . S
C1552 C1558 1.383 . S
C1553 C1549 1.495 . S
C1553 H1559 0.959 . S
C1553 H1560 0.961 . S
C1553 H1561 0.960 . S
C1554 C1552 1.381 . S
C1554 C1555 1.394 . S
C1554 H1562 0.930 . S
C1555 C1554 1.394 . S
C1555 C1556 1.383 . S
C1555 H1563 0.929 . S
C1556 C1555 1.383 . S
C1556 C1557 1.377 . S
C1557 H1541 0.930 . S
C1557 C1556 1.377 . S
C1557 C1558 1.379 . S
C1558 H1542 0.931 . S
C1558 C1552 1.383 . S
C1558 C1557 1.379 . S
H1559 C1553 0.959 . S
H1560 C1553 0.961 . S
H1561 C1553 0.960 . S
H1562 C1554 0.930 . S
H1563 C1555 0.929 . S
H1564 C1572 0.929 . S
H1565 C1574 0.930 . S
H1566 C1576 0.930 . S
H1567 C1579 0.929 . S
H1568 C1582 0.930 . S
H1569 C1584 0.960 1_455 S
H1570 C1584 0.960 . S
H1571 C1584 0.960 . S
C1572 H1564 0.929 . S
C1572 C1573 1.377 . S
C1572 C1574 1.384 . S
C1573 C1572 1.377 . S
C1573 C1579 1.390 . S
C1574 H1565 0.930 . S
C1574 C1572 1.384 . S
C1574 C1575 1.372 . S
C1575 C1574 1.372 . S
C1575 C1576 1.400 . S
C1575 C1580 1.490 . S
C1576 H1566 0.930 . S
C1576 C1575 1.400 . S
C1576 C1579 1.386 . S
H1577 C1593 0.930 . S
H1578 C1594 0.931 . S
C1579 H1567 0.929 . S
C1579 C1573 1.390 . S
C1579 C1576 1.386 . S
C1580 C1575 1.490 . S
C1580 C1582 1.395 . S
C1580 C1583 1.403 . S
H1581 C1587 0.930 . S
C1582 H1568 0.930 . S
C1582 C1580 1.395 . S
C1582 C1585 1.403 1_655 S
C1583 C1580 1.403 . S
C1583 C1584 1.524 . S
C1583 C1587 1.400 1_655 S
C1584 H1569 0.960 1_655 S
C1584 H1570 0.960 . S
C1584 H1571 0.960 . S
C1584 C1583 1.524 . S
C1585 C1582 1.403 1_455 S
C1585 C1586 1.392 . S
C1585 C1589 1.495 . S
C1586 C1585 1.392 . S
C1586 C1587 1.385 . S
C1586 C1588 1.478 . S
C1587 H1581 0.930 . S
C1587 C1583 1.400 1_455 S
C1587 C1586 1.385 . S
C1588 C1586 1.478 . S
C1588 C1590 1.381 . S
C1588 C1594 1.383 . S
C1589 C1585 1.495 . S
C1589 H1595 0.959 1_455 S
C1589 H1596 0.961 . S
C1589 H1597 0.960 . S
C1590 C1588 1.381 . S
C1590 C1591 1.394 . S
C1590 H1598 0.930 . S
C1591 C1590 1.394 . S
C1591 C1592 1.383 . S
C1591 H1599 0.929 . S
C1592 C1591 1.383 . S
C1592 C1593 1.377 . S
C1593 H1577 0.930 . S
C1593 C1592 1.377 . S
C1593 C1594 1.379 . S
C1594 H1578 0.931 . S
C1594 C1588 1.383 . S
C1594 C1593 1.379 . S
H1595 C1589 0.959 1_655 S
H1596 C1589 0.961 . S
H1597 C1589 0.960 . S
H1598 C1590 0.930 . S
H1599 C1591 0.929 . S
H1600 C1608 0.929 . S
H1601 C1610 0.930 . S
H1602 C1612 0.930 . S
H1603 C1615 0.929 . S
H1604 C1618 0.930 . S
H1605 C1620 0.960 . S
H1606 C1620 0.960 . S
H1607 C1620 0.960 . S
C1608 H1600 0.929 . S
C1608 C1609 1.377 . S
C1608 C1610 1.384 . S
C1609 C1608 1.377 . S
C1609 C1615 1.390 . S
C1610 H1601 0.930 . S
C1610 C1608 1.384 . S
C1610 C1611 1.372 . S
C1611 C1610 1.372 . S
C1611 C1612 1.400 . S
C1611 C1616 1.490 . S
C1612 H1602 0.930 . S
C1612 C1611 1.400 . S
C1612 C1615 1.386 . S
H1613 C1629 0.930 . S
H1614 C1630 0.931 . S
C1615 H1603 0.929 . S
C1615 C1609 1.390 . S
C1615 C1612 1.386 . S
C1616 C1611 1.490 . S
C1616 C1618 1.395 1_556 S
C1616 C1619 1.403 . S
H1617 C1623 0.930 . S
C1618 H1604 0.930 . S
C1618 C1616 1.395 1_554 S
C1618 C1621 1.403 . S
C1619 C1616 1.403 . S
C1619 C1620 1.524 . S
C1619 C1623 1.400 . S
C1620 H1605 0.960 . S
C1620 H1606 0.960 . S
C1620 H1607 0.960 . S
C1620 C1619 1.524 . S
C1621 C1618 1.403 . S
C1621 C1622 1.392 . S
C1621 C1625 1.495 . S
C1622 C1621 1.392 . S
C1622 C1623 1.385 1_554 S
C1622 C1624 1.478 . S
C1623 H1617 0.930 . S
C1623 C1619 1.400 . S
C1623 C1622 1.385 1_556 S
C1624 C1622 1.478 . S
C1624 C1626 1.381 . S
C1624 C1630 1.383 . S
C1625 C1621 1.495 . S
C1625 H1631 0.959 . S
C1625 H1632 0.961 . S
C1625 H1633 0.960 . S
C1626 C1624 1.381 . S
C1626 C1627 1.394 . S
C1626 H1634 0.930 . S
C1627 C1626 1.394 . S
C1627 C1628 1.383 . S
C1627 H1635 0.929 . S
C1628 C1627 1.383 . S
C1628 C1629 1.377 . S
C1629 H1613 0.930 . S
C1629 C1628 1.377 . S
C1629 C1630 1.379 . S
C1630 H1614 0.931 . S
C1630 C1624 1.383 . S
C1630 C1629 1.379 . S
H1631 C1625 0.959 . S
H1632 C1625 0.961 . S
H1633 C1625 0.960 . S
H1634 C1626 0.930 . S
H1635 C1627 0.929 . S
H1636 C1644 0.929 . S
H1637 C1646 0.930 . S
H1638 C1648 0.930 . S
H1639 C1651 0.929 . S
H1640 C1654 0.930 . S
H1641 C1656 0.960 . S
H1642 C1656 0.960 . S
H1643 C1656 0.960 . S
C1644 H1636 0.929 . S
C1644 C1645 1.377 . S
C1644 C1646 1.384 . S
C1645 C1644 1.377 . S
C1645 C1651 1.390 . S
C1646 H1637 0.930 . S
C1646 C1644 1.384 . S
C1646 C1647 1.372 . S
C1647 C1646 1.372 . S
C1647 C1648 1.400 . S
C1647 C1652 1.490 . S
C1648 H1638 0.930 . S
C1648 C1647 1.400 . S
C1648 C1651 1.386 . S
H1649 C1665 0.930 . S
H1650 C1666 0.931 . S
C1651 H1639 0.929 . S
C1651 C1645 1.390 . S
C1651 C1648 1.386 . S
C1652 C1647 1.490 . S
C1652 C1654 1.395 . S
C1652 C1655 1.403 . S
H1653 C1659 0.930 . S
C1654 H1640 0.930 . S
C1654 C1652 1.395 . S
C1654 C1657 1.403 1_545 S
C1655 C1652 1.403 . S
C1655 C1656 1.524 . S
C1655 C1659 1.400 1_545 S
C1656 H1641 0.960 . S
C1656 H1642 0.960 . S
C1656 H1643 0.960 . S
C1656 C1655 1.524 . S
C1657 C1654 1.403 1_565 S
C1657 C1658 1.392 . S
C1657 C1661 1.495 . S
C1658 C1657 1.392 . S
C1658 C1659 1.385 . S
C1658 C1660 1.478 . S
C1659 H1653 0.930 . S
C1659 C1655 1.400 1_565 S
C1659 C1658 1.385 . S
C1660 C1658 1.478 . S
C1660 C1662 1.381 . S
C1660 C1666 1.383 . S
C1661 C1657 1.495 . S
C1661 H1667 0.959 . S
C1661 H1668 0.961 . S
C1661 H1669 0.960 . S
C1662 C1660 1.381 . S
C1662 C1663 1.394 . S
C1662 H1670 0.930 . S
C1663 C1662 1.394 . S
C1663 C1664 1.383 . S
C1663 H1671 0.929 . S
C1664 C1663 1.383 . S
C1664 C1665 1.377 . S
C1665 H1649 0.930 . S
C1665 C1664 1.377 . S
C1665 C1666 1.379 . S
C1666 H1650 0.931 . S
C1666 C1660 1.383 . S
C1666 C1665 1.379 . S
H1667 C1661 0.959 . S
H1668 C1661 0.961 . S
H1669 C1661 0.960 . S
H1670 C1662 0.930 . S
H1671 C1663 0.929 . S
H1672 C1680 0.929 . S
H1673 C1682 0.930 . S
H1674 C1684 0.930 . S
H1675 C1687 0.929 . S
H1676 C1690 0.930 . S
H1677 C1692 0.960 . S
H1678 C1692 0.960 . S
H1679 C1692 0.960 . S
C1680 H1672 0.929 . S
C1680 C1681 1.377 . S
C1680 C1682 1.384 . S
C1681 C1680 1.377 . S
C1681 C1687 1.390 . S
C1682 H1673 0.930 . S
C1682 C1680 1.384 . S
C1682 C1683 1.372 . S
C1683 C1682 1.372 . S
C1683 C1684 1.400 . S
C1683 C1688 1.490 . S
C1684 H1674 0.930 . S
C1684 C1683 1.400 . S
C1684 C1687 1.386 . S
H1685 C1701 0.930 . S
H1686 C1702 0.931 . S
C1687 H1675 0.929 . S
C1687 C1681 1.390 . S
C1687 C1684 1.386 . S
C1688 C1683 1.490 . S
C1688 C1690 1.395 . S
C1688 C1691 1.403 . S
H1689 C1695 0.930 . S
C1690 H1676 0.930 . S
C1690 C1688 1.395 . S
C1690 C1693 1.403 . S
C1691 C1688 1.403 . S
C1691 C1692 1.524 . S
C1691 C1695 1.400 . S
C1692 H1677 0.960 . S
C1692 H1678 0.960 . S
C1692 H1679 0.960 . S
C1692 C1691 1.524 . S
C1693 C1690 1.403 . S
C1693 C1694 1.392 . S
C1693 C1697 1.495 . S
C1694 C1693 1.392 . S
C1694 C1695 1.385 . S
C1694 C1696 1.478 . S
C1695 H1689 0.930 . S
C1695 C1691 1.400 . S
C1695 C1694 1.385 . S
C1696 C1694 1.478 . S
C1696 C1698 1.381 . S
C1696 C1702 1.383 . S
C1697 C1693 1.495 . S
C1697 H1703 0.959 . S
C1697 H1704 0.961 . S
C1697 H1705 0.960 . S
C1698 C1696 1.381 . S
C1698 C1699 1.394 . S
C1698 H1706 0.930 . S
C1699 C1698 1.394 . S
C1699 C1700 1.383 . S
C1699 H1707 0.929 . S
C1700 C1699 1.383 . S
C1700 C1701 1.377 . S
C1701 H1685 0.930 . S
C1701 C1700 1.377 . S
C1701 C1702 1.379 . S
C1702 H1686 0.931 . S
C1702 C1696 1.383 . S
C1702 C1701 1.379 . S
H1703 C1697 0.959 . S
H1704 C1697 0.961 . S
H1705 C1697 0.960 . S
H1706 C1698 0.930 . S
H1707 C1699 0.929 . S
H1708 C1716 0.929 . S
H1709 C1718 0.930 . S
H1710 C1720 0.930 . S
H1711 C1723 0.929 . S
H1712 C1726 0.930 . S
H1713 C1728 0.960 1_565 S
H1714 C1728 0.960 . S
H1715 C1728 0.960 . S
C1716 H1708 0.929 . S
C1716 C1717 1.377 . S
C1716 C1718 1.384 . S
C1717 C1716 1.377 . S
C1717 C1723 1.390 . S
C1718 H1709 0.930 . S
C1718 C1716 1.384 . S
C1718 C1719 1.372 . S
C1719 C1718 1.372 . S
C1719 C1720 1.400 . S
C1719 C1724 1.490 . S
C1720 H1710 0.930 . S
C1720 C1719 1.400 . S
C1720 C1723 1.386 . S
H1721 C1737 0.930 . S
H1722 C1738 0.931 . S
C1723 H1711 0.929 . S
C1723 C1717 1.390 . S
C1723 C1720 1.386 . S
C1724 C1719 1.490 . S
C1724 C1726 1.395 . S
C1724 C1727 1.403 . S
H1725 C1731 0.930 . S
C1726 H1712 0.930 . S
C1726 C1724 1.395 . S
C1726 C1729 1.403 1_545 S
C1727 C1724 1.403 . S
C1727 C1728 1.524 . S
C1727 C1731 1.400 1_545 S
C1728 H1713 0.960 1_545 S
C1728 H1714 0.960 . S
C1728 H1715 0.960 . S
C1728 C1727 1.524 . S
C1729 C1726 1.403 1_565 S
C1729 C1730 1.392 . S
C1729 C1733 1.495 . S
C1730 C1729 1.392 . S
C1730 C1731 1.385 . S
C1730 C1732 1.478 . S
C1731 H1725 0.930 . S
C1731 C1727 1.400 1_565 S
C1731 C1730 1.385 . S
C1732 C1730 1.478 . S
C1732 C1734 1.381 . S
C1732 C1738 1.383 . S
C1733 C1729 1.495 . S
C1733 H1739 0.959 1_565 S
C1733 H1740 0.961 . S
C1733 H1741 0.960 . S
C1734 C1732 1.381 . S
C1734 C1735 1.394 . S
C1734 H1742 0.930 . S
C1735 C1734 1.394 . S
C1735 C1736 1.383 . S
C1735 H1743 0.929 . S
C1736 C1735 1.383 . S
C1736 C1737 1.377 . S
C1737 H1721 0.930 . S
C1737 C1736 1.377 . S
C1737 C1738 1.379 . S
C1738 H1722 0.931 . S
C1738 C1732 1.383 . S
C1738 C1737 1.379 . S
H1739 C1733 0.959 1_545 S
H1740 C1733 0.961 . S
H1741 C1733 0.960 . S
H1742 C1734 0.930 . S
H1743 C1735 0.929 . S
H1744 C1752 0.929 . S
H1745 C1754 0.930 1_556 S
H1746 C1756 0.930 . S
H1747 C1759 0.929 . S
H1748 C1762 0.930 . S
H1749 C1764 0.960 . S
H1750 C1764 0.960 . S
H1751 C1764 0.960 . S
C1752 H1744 0.929 . S
C1752 C1753 1.377 . S
C1752 C1754 1.384 . S
C1753 C1752 1.377 . S
C1753 C1759 1.390 . S
C1754 H1745 0.930 1_554 S
C1754 C1752 1.384 . S
C1754 C1755 1.372 . S
C1755 C1754 1.372 . S
C1755 C1756 1.400 . S
C1755 C1760 1.490 . S
C1756 H1746 0.930 . S
C1756 C1755 1.400 . S
C1756 C1759 1.386 . S
H1757 C1773 0.930 . S
H1758 C1774 0.931 1_554 S
C1759 H1747 0.929 . S
C1759 C1753 1.390 . S
C1759 C1756 1.386 . S
C1760 C1755 1.490 . S
C1760 C1762 1.395 1_554 S
C1760 C1763 1.403 . S
H1761 C1767 0.930 . S
C1762 H1748 0.930 . S
C1762 C1760 1.395 1_556 S
C1762 C1765 1.403 . S
C1763 C1760 1.403 . S
C1763 C1764 1.524 . S
C1763 C1767 1.361 1_554 S
C1764 H1749 0.960 . S
C1764 H1750 0.960 . S
C1764 H1751 0.960 . S
C1764 C1763 1.524 . S
C1765 C1762 1.403 . S
C1765 C1766 1.392 . S
C1765 C1769 1.495 . S
C1766 C1765 1.392 . S
C1766 C1767 1.429 . S
C1766 C1768 1.478 . S
C1767 H1761 0.930 . S
C1767 C1763 1.361 1_556 S
C1767 C1766 1.429 . S
C1768 C1766 1.478 . S
C1768 C1770 1.381 . S
C1768 C1774 1.383 . S
C1769 C1765 1.495 . S
C1769 H1775 0.959 . S
C1769 H1776 0.961 . S
C1769 H1777 0.960 . S
C1770 C1768 1.381 . S
C1770 C1771 1.394 . S
C1770 H1778 0.930 . S
C1771 C1770 1.394 . S
C1771 C1772 1.383 . S
C1771 H1779 0.929 . S
C1772 C1771 1.383 . S
C1772 C1773 1.377 . S
C1773 H1757 0.930 . S
C1773 C1772 1.377 . S
C1773 C1774 1.379 . S
C1774 H1758 0.931 1_556 S
C1774 C1768 1.383 . S
C1774 C1773 1.379 . S
H1775 C1769 0.959 . S
H1776 C1769 0.961 . S
H1777 C1769 0.960 . S
H1778 C1770 0.930 . S
H1779 C1771 0.929 . S
H1780 C1788 0.929 . S
H1781 C1790 0.930 . S
H1782 C1792 0.930 . S
H1783 C1795 0.929 . S
H1784 C1798 0.930 . S
H1785 C1800 0.960 . S
H1786 C1800 0.960 . S
H1787 C1800 0.960 . S
C1788 H1780 0.929 . S
C1788 C1789 1.377 . S
C1788 C1790 1.384 . S
C1789 C1788 1.377 . S
C1789 C1795 1.390 . S
C1790 H1781 0.930 . S
C1790 C1788 1.384 . S
C1790 C1791 1.372 . S
C1791 C1790 1.372 . S
C1791 C1792 1.400 . S
C1791 C1796 1.490 . S
C1792 H1782 0.930 . S
C1792 C1791 1.400 . S
C1792 C1795 1.386 . S
H1793 C1809 0.930 . S
H1794 C1810 0.931 . S
C1795 H1783 0.929 . S
C1795 C1789 1.390 . S
C1795 C1792 1.386 . S
C1796 C1791 1.490 . S
C1796 C1798 1.395 . S
C1796 C1799 1.403 . S
H1797 C1803 0.930 . S
C1798 H1784 0.930 . S
C1798 C1796 1.395 . S
C1798 C1801 1.403 1_565 S
C1799 C1796 1.403 . S
C1799 C1800 1.524 . S
C1799 C1803 1.400 1_565 S
C1800 H1785 0.960 . S
C1800 H1786 0.960 . S
C1800 H1787 0.960 . S
C1800 C1799 1.524 . S
C1801 C1798 1.403 1_545 S
C1801 C1802 1.392 . S
C1801 C1805 1.495 . S
C1802 C1801 1.392 . S
C1802 C1803 1.385 . S
C1802 C1804 1.478 . S
C1803 H1797 0.930 . S
C1803 C1799 1.400 1_545 S
C1803 C1802 1.385 . S
C1804 C1802 1.478 . S
C1804 C1806 1.381 . S
C1804 C1810 1.383 . S
C1805 C1801 1.495 . S
C1805 H1811 0.959 . S
C1805 H1812 0.961 . S
C1805 H1813 0.960 . S
C1806 C1804 1.381 . S
C1806 C1807 1.394 . S
C1806 H1814 0.930 . S
C1807 C1806 1.394 . S
C1807 C1808 1.383 . S
C1807 H1815 0.929 . S
C1808 C1807 1.383 . S
C1808 C1809 1.377 . S
C1809 H1793 0.930 . S
C1809 C1808 1.377 . S
C1809 C1810 1.379 . S
C1810 H1794 0.931 . S
C1810 C1804 1.383 . S
C1810 C1809 1.379 . S
H1811 C1805 0.959 . S
H1812 C1805 0.961 . S
H1813 C1805 0.960 . S
H1814 C1806 0.930 . S
H1815 C1807 0.929 . S
H1816 C1824 0.929 . S
H1817 C1826 0.930 . S
H1818 C1828 0.930 . S
H1819 C1831 0.929 . S
H1820 C1834 0.930 . S
H1821 C1836 0.960 . S
H1822 C1836 0.960 . S
H1823 C1836 0.960 . S
C1824 H1816 0.929 . S
C1824 C1825 1.377 . S
C1824 C1826 1.384 . S
C1825 C1824 1.377 . S
C1825 C1831 1.390 . S
C1826 H1817 0.930 . S
C1826 C1824 1.384 . S
C1826 C1827 1.372 . S
C1827 C1826 1.372 . S
C1827 C1828 1.400 . S
C1827 C1832 1.490 . S
C1828 H1818 0.930 . S
C1828 C1827 1.400 . S
C1828 C1831 1.386 . S
H1829 C1845 0.930 . S
H1830 C1846 0.931 . S
C1831 H1819 0.929 . S
C1831 C1825 1.390 . S
C1831 C1828 1.386 . S
C1832 C1827 1.490 . S
C1832 C1834 1.395 . S
C1832 C1835 1.403 . S
H1833 C1839 0.930 . S
C1834 H1820 0.930 . S
C1834 C1832 1.395 . S
C1834 C1837 1.403 . S
C1835 C1832 1.403 . S
C1835 C1836 1.524 . S
C1835 C1839 1.400 . S
C1836 H1821 0.960 . S
C1836 H1822 0.960 . S
C1836 H1823 0.960 . S
C1836 C1835 1.524 . S
C1837 C1834 1.403 . S
C1837 C1838 1.392 . S
C1837 C1841 1.495 . S
C1838 C1837 1.392 . S
C1838 C1839 1.385 . S
C1838 C1840 1.478 . S
C1839 H1833 0.930 . S
C1839 C1835 1.400 . S
C1839 C1838 1.385 . S
C1840 C1838 1.478 . S
C1840 C1842 1.381 . S
C1840 C1846 1.383 . S
C1841 C1837 1.495 . S
C1841 H1847 0.959 . S
C1841 H1848 0.961 . S
C1841 H1849 0.960 . S
C1842 C1840 1.381 . S
C1842 C1843 1.394 . S
C1842 H1850 0.930 . S
C1843 C1842 1.394 . S
C1843 C1844 1.383 . S
C1843 H1851 0.929 . S
C1844 C1843 1.383 . S
C1844 C1845 1.377 . S
C1845 H1829 0.930 . S
C1845 C1844 1.377 . S
C1845 C1846 1.379 . S
C1846 H1830 0.931 . S
C1846 C1840 1.383 . S
C1846 C1845 1.379 . S
H1847 C1841 0.959 . S
H1848 C1841 0.961 . S
H1849 C1841 0.960 . S
H1850 C1842 0.930 . S
H1851 C1843 0.929 . S
H1852 C1860 0.929 . S
H1853 C1862 0.930 . S
H1854 C1864 0.930 . S
H1855 C1867 0.929 . S
H1856 C1870 0.930 . S
H1857 C1872 0.933 1_565 S
H1858 C1872 0.966 . S
H1859 C1872 0.982 . S
C1860 H1852 0.929 . S
C1860 C1861 1.377 . S
C1860 C1862 1.384 . S
C1861 C1860 1.377 . S
C1861 C1867 1.390 . S
C1862 H1853 0.930 . S
C1862 C1860 1.384 . S
C1862 C1863 1.372 . S
C1863 C1862 1.372 . S
C1863 C1864 1.400 . S
C1863 C1868 1.490 . S
C1864 H1854 0.930 . S
C1864 C1863 1.400 . S
C1864 C1867 1.386 . S
H1865 C1881 0.930 . S
H1866 C1882 0.931 . S
C1867 H1855 0.929 . S
C1867 C1861 1.390 . S
C1867 C1864 1.386 . S
C1868 C1863 1.490 . S
C1868 C1870 1.395 . S
C1868 C1871 1.403 . S
H1869 C1875 0.930 . S
C1870 H1856 0.930 . S
C1870 C1868 1.395 . S
C1870 C1873 1.396 1_545 S
C1871 C1868 1.403 . S
C1871 C1872 1.525 . S
C1871 C1875 1.400 1_545 S
C1872 H1857 0.933 1_545 S
C1872 H1858 0.966 . S
C1872 H1859 0.982 . S
C1872 C1871 1.525 . S
C1873 C1870 1.396 1_565 S
C1873 C1874 1.400 . S
C1873 C1877 1.495 . S
C1874 C1873 1.400 . S
C1874 C1875 1.385 . S
C1874 C1876 1.478 . S
C1875 H1869 0.930 . S
C1875 C1871 1.400 1_565 S
C1875 C1874 1.385 . S
C1876 C1874 1.478 . S
C1876 C1878 1.381 . S
C1876 C1882 1.383 . S
C1877 C1873 1.495 . S
C1877 H1883 0.954 1_565 S
C1877 H1884 0.962 . S
C1877 H1885 0.964 . S
C1878 C1876 1.381 . S
C1878 C1879 1.394 . S
C1878 H1886 0.930 . S
C1879 C1878 1.394 . S
C1879 C1880 1.383 . S
C1879 H1887 0.929 . S
C1880 C1879 1.383 . S
C1880 C1881 1.377 . S
C1881 H1865 0.930 . S
C1881 C1880 1.377 . S
C1881 C1882 1.379 . S
C1882 H1866 0.931 . S
C1882 C1876 1.383 . S
C1882 C1881 1.379 . S
H1883 C1877 0.954 1_545 S
H1884 C1877 0.962 . S
H1885 C1877 0.964 . S
H1886 C1878 0.930 . S
H1887 C1879 0.929 . S
H1888 C1896 0.929 . S
H1889 C1898 0.930 . S
H1890 C1900 0.930 . S
H1891 C1903 0.929 . S
H1892 C1906 0.930 . S
H1893 C1908 0.960 . S
H1894 C1908 0.960 . S
H1895 C1908 0.960 . S
C1896 H1888 0.929 . S
C1896 C1897 1.377 . S
C1896 C1898 1.384 . S
C1897 C1896 1.377 . S
C1897 C1903 1.390 . S
C1898 H1889 0.930 . S
C1898 C1896 1.384 . S
C1898 C1899 1.372 . S
C1899 C1898 1.372 . S
C1899 C1900 1.400 . S
C1899 C1904 1.490 . S
C1900 H1890 0.930 . S
C1900 C1899 1.400 . S
C1900 C1903 1.386 . S
H1901 C1917 0.930 . S
H1902 C1918 0.931 . S
C1903 H1891 0.929 . S
C1903 C1897 1.390 . S
C1903 C1900 1.386 . S
C1904 C1899 1.490 . S
C1904 C1906 1.395 . S
C1904 C1907 1.403 . S
H1905 C1911 0.930 . S
C1906 H1892 0.930 . S
C1906 C1904 1.395 . S
C1906 C1909 1.403 . S
C1907 C1904 1.403 . S
C1907 C1908 1.524 . S
C1907 C1911 1.400 . S
C1908 H1893 0.960 . S
C1908 H1894 0.960 . S
C1908 H1895 0.960 . S
C1908 C1907 1.524 . S
C1909 C1906 1.403 . S
C1909 C1910 1.392 . S
C1909 C1913 1.495 . S
C1910 C1909 1.392 . S
C1910 C1911 1.385 . S
C1910 C1912 1.478 . S
C1911 H1905 0.930 . S
C1911 C1907 1.400 . S
C1911 C1910 1.385 . S
C1912 C1910 1.478 . S
C1912 C1914 1.381 . S
C1912 C1918 1.383 . S
C1913 C1909 1.495 . S
C1913 H1919 0.959 . S
C1913 H1920 0.961 . S
C1913 H1921 0.960 . S
C1914 C1912 1.381 . S
C1914 C1915 1.394 . S
C1914 H1922 0.930 . S
C1915 C1914 1.394 . S
C1915 C1916 1.383 . S
C1915 H1923 0.929 . S
C1916 C1915 1.383 . S
C1916 C1917 1.377 . S
C1917 H1901 0.930 . S
C1917 C1916 1.377 . S
C1917 C1918 1.379 . S
C1918 H1902 0.931 . S
C1918 C1912 1.383 . S
C1918 C1917 1.379 . S
H1919 C1913 0.959 . S
H1920 C1913 0.961 . S
H1921 C1913 0.960 . S
H1922 C1914 0.930 . S
H1923 C1915 0.929 . S
H1924 C1932 0.929 . S
H1925 C1934 0.930 . S
H1926 C1936 0.930 . S
H1927 C1939 0.929 . S
H1928 C1942 0.930 . S
H1929 C1944 0.960 . S
H1930 C1944 0.960 . S
H1931 C1944 0.960 . S
C1932 H1924 0.929 . S
C1932 C1933 1.377 . S
C1932 C1934 1.384 . S
C1933 C1932 1.377 . S
C1933 C1939 1.390 . S
C1934 H1925 0.930 . S
C1934 C1932 1.384 . S
C1934 C1935 1.372 . S
C1935 C1934 1.372 . S
C1935 C1936 1.400 . S
C1935 C1940 1.490 . S
C1936 H1926 0.930 . S
C1936 C1935 1.400 . S
C1936 C1939 1.386 . S
H1937 C1953 0.930 . S
H1938 C1954 0.931 . S
C1939 H1927 0.929 . S
C1939 C1933 1.390 . S
C1939 C1936 1.386 . S
C1940 C1935 1.490 . S
C1940 C1942 1.395 . S
C1940 C1943 1.403 . S
H1941 C1947 0.930 . S
C1942 H1928 0.930 . S
C1942 C1940 1.395 . S
C1942 C1945 1.403 . S
C1943 C1940 1.403 . S
C1943 C1944 1.524 . S
C1943 C1947 1.400 . S
C1944 H1929 0.960 . S
C1944 H1930 0.960 . S
C1944 H1931 0.960 . S
C1944 C1943 1.524 . S
C1945 C1942 1.403 . S
C1945 C1946 1.392 . S
C1945 C1949 1.495 . S
C1946 C1945 1.392 . S
C1946 C1947 1.385 . S
C1946 C1948 1.478 . S
C1947 H1941 0.930 . S
C1947 C1943 1.400 . S
C1947 C1946 1.385 . S
C1948 C1946 1.478 . S
C1948 C1950 1.381 . S
C1948 C1954 1.383 . S
C1949 C1945 1.495 . S
C1949 H1955 0.959 . S
C1949 H1956 0.961 . S
C1949 H1957 0.960 . S
C1950 C1948 1.381 . S
C1950 C1951 1.394 . S
C1950 H1958 0.930 . S
C1951 C1950 1.394 . S
C1951 C1952 1.383 . S
C1951 H1959 0.929 . S
C1952 C1951 1.383 . S
C1952 C1953 1.377 . S
C1953 H1937 0.930 . S
C1953 C1952 1.377 . S
C1953 C1954 1.379 . S
C1954 H1938 0.931 . S
C1954 C1948 1.383 . S
C1954 C1953 1.379 . S
H1955 C1949 0.959 . S
H1956 C1949 0.961 . S
H1957 C1949 0.960 . S
H1958 C1950 0.930 . S
H1959 C1951 0.929 . S
H1960 C1968 0.929 . S
H1961 C1970 0.930 . S
H1962 C1972 0.930 1_556 S
H1963 C1975 0.929 . S
H1964 C1978 0.930 . S
H1965 C1980 0.960 1_556 S
H1966 C1980 0.960 . S
H1967 C1980 0.960 1_556 S
C1968 H1960 0.929 . S
C1968 C1969 1.377 . S
C1968 C1970 1.384 . S
C1969 C1968 1.377 . S
C1969 C1975 1.390 . S
C1970 H1961 0.930 . S
C1970 C1968 1.384 . S
C1970 C1971 1.372 . S
C1971 C1970 1.372 . S
C1971 C1972 1.400 . S
C1971 C1976 1.490 . S
C1972 H1962 0.930 1_554 S
C1972 C1971 1.400 . S
C1972 C1975 1.386 . S
H1973 C1989 0.930 . S
H1974 C1990 0.931 . S
C1975 H1963 0.929 . S
C1975 C1969 1.390 . S
C1975 C1972 1.386 . S
C1976 C1971 1.490 . S
C1976 C1978 1.395 . S
C1976 C1979 1.444 . S
H1977 C1983 0.930 . S
C1978 H1964 0.930 . S
C1978 C1976 1.395 . S
C1978 C1981 1.437 . S
C1979 C1976 1.444 . S
C1979 C1980 1.527 . S
C1979 C1983 1.361 1_554 S
C1980 H1965 0.960 1_554 S
C1980 H1966 0.960 . S
C1980 H1967 0.960 1_554 S
C1980 C1979 1.527 . S
C1981 C1978 1.437 . S
C1981 C1982 1.361 1_554 S
C1981 C1985 1.495 . S
C1982 C1981 1.361 1_556 S
C1982 C1983 1.385 . S
C1982 C1984 1.478 . S
C1983 H1977 0.930 . S
C1983 C1979 1.361 1_556 S
C1983 C1982 1.385 . S
C1984 C1982 1.478 . S
C1984 C1986 1.381 . S
C1984 C1990 1.383 . S
C1985 C1981 1.495 . S
C1985 H1991 1.003 . S
C1985 H1992 0.889 1_554 S
C1985 H1993 0.994 . S
C1986 C1984 1.381 . S
C1986 C1987 1.394 . S
C1986 H1994 0.930 1_556 S
C1987 C1986 1.394 . S
C1987 C1988 1.383 . S
C1987 H1995 0.929 . S
C1988 C1987 1.383 . S
C1988 C1989 1.377 . S
C1989 H1973 0.930 . S
C1989 C1988 1.377 . S
C1989 C1990 1.379 . S
C1990 H1974 0.931 . S
C1990 C1984 1.383 . S
C1990 C1989 1.379 . S
H1991 C1985 1.003 . S
H1992 C1985 0.889 1_556 S
H1993 C1985 0.994 . S
H1994 C1986 0.930 1_554 S
H1995 C1987 0.929 . S
H1996 C2004 0.929 . S
H1997 C2006 0.930 . S
H1998 C2008 0.930 . S
H1999 C2011 0.929 . S
H2000 C2014 0.930 . S
H2001 C2016 0.960 . S
H2002 C2016 0.960 . S
H2003 C2016 0.960 . S
C2004 H1996 0.929 . S
C2004 C2005 1.377 . S
C2004 C2006 1.384 . S
C2005 C2004 1.377 . S
C2005 C2011 1.390 . S
C2006 H1997 0.930 . S
C2006 C2004 1.384 . S
C2006 C2007 1.372 . S
C2007 C2006 1.372 . S
C2007 C2008 1.400 . S
C2007 C2012 1.490 . S
C2008 H1998 0.930 . S
C2008 C2007 1.400 . S
C2008 C2011 1.386 . S
H2009 C2025 0.930 . S
H2010 C2026 0.931 . S
C2011 H1999 0.929 . S
C2011 C2005 1.390 . S
C2011 C2008 1.386 . S
C2012 C2007 1.490 . S
C2012 C2014 1.395 . S
C2012 C2015 1.403 . S
H2013 C2019 0.930 . S
C2014 H2000 0.930 . S
C2014 C2012 1.395 . S
C2014 C2017 1.403 . S
C2015 C2012 1.403 . S
C2015 C2016 1.524 . S
C2015 C2019 1.400 . S
C2016 H2001 0.960 . S
C2016 H2002 0.960 . S
C2016 H2003 0.960 . S
C2016 C2015 1.524 . S
C2017 C2014 1.403 . S
C2017 C2018 1.392 . S
C2017 C2021 1.495 . S
C2018 C2017 1.392 . S
C2018 C2019 1.385 . S
C2018 C2020 1.478 . S
C2019 H2013 0.930 . S
C2019 C2015 1.400 . S
C2019 C2018 1.385 . S
C2020 C2018 1.478 . S
C2020 C2022 1.381 . S
C2020 C2026 1.383 . S
C2021 C2017 1.495 . S
C2021 H2027 0.959 . S
C2021 H2028 0.961 . S
C2021 H2029 0.960 . S
C2022 C2020 1.381 . S
C2022 C2023 1.394 . S
C2022 H2030 0.930 . S
C2023 C2022 1.394 . S
C2023 C2024 1.383 . S
C2023 H2031 0.929 . S
C2024 C2023 1.383 . S
C2024 C2025 1.377 . S
C2025 H2009 0.930 . S
C2025 C2024 1.377 . S
C2025 C2026 1.379 . S
C2026 H2010 0.931 . S
C2026 C2020 1.383 . S
C2026 C2025 1.379 . S
H2027 C2021 0.959 . S
H2028 C2021 0.961 . S
H2029 C2021 0.960 . S
H2030 C2022 0.930 . S
H2031 C2023 0.929 . S
H2032 C2040 0.929 . S
H2033 C2042 0.930 . S
H2034 C2044 0.930 . S
H2035 C2047 0.929 . S
H2036 C2050 0.930 . S
H2037 C2052 0.960 . S
H2038 C2052 0.960 . S
H2039 C2052 0.960 . S
C2040 H2032 0.929 . S
C2040 C2041 1.377 . S
C2040 C2042 1.384 . S
C2041 C2040 1.377 . S
C2041 C2047 1.390 . S
C2042 H2033 0.930 . S
C2042 C2040 1.384 . S
C2042 C2043 1.372 . S
C2043 C2042 1.372 . S
C2043 C2044 1.400 . S
C2043 C2048 1.490 . S
C2044 H2034 0.930 . S
C2044 C2043 1.400 . S
C2044 C2047 1.386 . S
H2045 C2061 0.930 . S
H2046 C2062 0.931 . S
C2047 H2035 0.929 . S
C2047 C2041 1.390 . S
C2047 C2044 1.386 . S
C2048 C2043 1.490 . S
C2048 C2050 1.395 . S
C2048 C2051 1.403 . S
H2049 C2055 0.930 . S
C2050 H2036 0.930 . S
C2050 C2048 1.395 . S
C2050 C2053 1.403 . S
C2051 C2048 1.403 . S
C2051 C2052 1.524 . S
C2051 C2055 1.400 . S
C2052 H2037 0.960 . S
C2052 H2038 0.960 . S
C2052 H2039 0.960 . S
C2052 C2051 1.524 . S
C2053 C2050 1.403 . S
C2053 C2054 1.392 . S
C2053 C2057 1.495 . S
C2054 C2053 1.392 . S
C2054 C2055 1.385 . S
C2054 C2056 1.478 . S
C2055 H2049 0.930 . S
C2055 C2051 1.400 . S
C2055 C2054 1.385 . S
C2056 C2054 1.478 . S
C2056 C2058 1.381 . S
C2056 C2062 1.383 . S
C2057 C2053 1.495 . S
C2057 H2063 0.959 . S
C2057 H2064 0.961 . S
C2057 H2065 0.960 . S
C2058 C2056 1.381 . S
C2058 C2059 1.394 . S
C2058 H2066 0.930 . S
C2059 C2058 1.394 . S
C2059 C2060 1.383 . S
C2059 H2067 0.929 . S
C2060 C2059 1.383 . S
C2060 C2061 1.377 . S
C2061 H2045 0.930 . S
C2061 C2060 1.377 . S
C2061 C2062 1.379 . S
C2062 H2046 0.931 . S
C2062 C2056 1.383 . S
C2062 C2061 1.379 . S
H2063 C2057 0.959 . S
H2064 C2057 0.961 . S
H2065 C2057 0.960 . S
H2066 C2058 0.930 . S
H2067 C2059 0.929 . S
H2068 C2076 0.929 . S
H2069 C2078 0.930 . S
H2070 C2080 0.930 . S
H2071 C2083 0.929 . S
H2072 C2086 0.930 . S
H2073 C2088 0.960 . S
H2074 C2088 0.960 . S
H2075 C2088 0.960 . S
C2076 H2068 0.929 . S
C2076 C2077 1.377 . S
C2076 C2078 1.384 . S
C2077 C2076 1.377 . S
C2077 C2083 1.390 . S
C2078 H2069 0.930 . S
C2078 C2076 1.384 . S
C2078 C2079 1.372 . S
C2079 C2078 1.372 . S
C2079 C2080 1.400 . S
C2079 C2084 1.490 . S
C2080 H2070 0.930 . S
C2080 C2079 1.400 . S
C2080 C2083 1.386 . S
H2081 C2097 0.930 . S
H2082 C2098 0.931 . S
C2083 H2071 0.929 . S
C2083 C2077 1.390 . S
C2083 C2080 1.386 . S
C2084 C2079 1.490 . S
C2084 C2086 1.395 . S
C2084 C2087 1.403 . S
H2085 C2091 0.930 . S
C2086 H2072 0.930 . S
C2086 C2084 1.395 . S
C2086 C2089 1.403 . S
C2087 C2084 1.403 . S
C2087 C2088 1.524 . S
C2087 C2091 1.400 . S
C2088 H2073 0.960 . S
C2088 H2074 0.960 . S
C2088 H2075 0.960 . S
C2088 C2087 1.524 . S
C2089 C2086 1.403 . S
C2089 C2090 1.392 . S
C2089 C2093 1.495 . S
C2090 C2089 1.392 . S
C2090 C2091 1.385 . S
C2090 C2092 1.478 . S
C2091 H2085 0.930 . S
C2091 C2087 1.400 . S
C2091 C2090 1.385 . S
C2092 C2090 1.478 . S
C2092 C2094 1.381 . S
C2092 C2098 1.383 . S
C2093 C2089 1.495 . S
C2093 H2099 0.959 . S
C2093 H2100 0.961 . S
C2093 H2101 0.960 . S
C2094 C2092 1.381 . S
C2094 C2095 1.394 . S
C2094 H2102 0.930 . S
C2095 C2094 1.394 . S
C2095 C2096 1.383 . S
C2095 H2103 0.929 . S
C2096 C2095 1.383 . S
C2096 C2097 1.377 . S
C2097 H2081 0.930 . S
C2097 C2096 1.377 . S
C2097 C2098 1.379 . S
C2098 H2082 0.931 . S
C2098 C2092 1.383 . S
C2098 C2097 1.379 . S
H2099 C2093 0.959 . S
H2100 C2093 0.961 . S
H2101 C2093 0.960 . S
H2102 C2094 0.930 . S
H2103 C2095 0.929 . S
H2104 C2112 0.929 . S
H2105 C2114 0.930 . S
H2106 C2116 0.959 . S
H2107 C2119 0.929 . S
H2108 C2122 0.930 . S
H2109 C2124 0.960 . S
H2110 C2124 0.960 . S
H2111 C2124 0.960 . S
C2112 H2104 0.929 . S
C2112 C2113 1.377 . S
C2112 C2114 1.384 . S
C2113 C2112 1.377 . S
C2113 C2119 1.390 . S
C2114 H2105 0.930 . S
C2114 C2112 1.384 . S
C2114 C2115 1.372 . S
C2115 C2114 1.372 . S
C2115 C2116 1.400 . S
C2115 C2120 1.490 . S
C2116 H2106 0.959 . S
C2116 C2115 1.400 . S
C2116 C2119 1.386 . S
H2117 C2133 0.930 . S
H2118 C2134 0.931 . S
C2119 H2107 0.929 . S
C2119 C2113 1.390 . S
C2119 C2116 1.386 . S
C2120 C2115 1.490 . S
C2120 C2122 1.395 . S
C2120 C2123 1.403 . S
H2121 C2127 0.930 . S
C2122 H2108 0.930 . S
C2122 C2120 1.395 . S
C2122 C2125 1.403 1_556 S
C2123 C2120 1.403 . S
C2123 C2124 1.524 . S
C2123 C2127 1.400 1_556 S
C2124 H2109 0.960 . S
C2124 H2110 0.960 . S
C2124 H2111 0.960 . S
C2124 C2123 1.524 . S
C2125 C2122 1.403 1_554 S
C2125 C2126 1.392 . S
C2125 C2129 1.495 . S
C2126 C2125 1.392 . S
C2126 C2127 1.385 . S
C2126 C2128 1.478 . S
C2127 H2121 0.930 . S
C2127 C2123 1.400 1_554 S
C2127 C2126 1.385 . S
C2128 C2126 1.478 . S
C2128 C2130 1.381 . S
C2128 C2134 1.383 . S
C2129 C2125 1.495 . S
C2129 H2135 0.959 . S
C2129 H2136 0.961 . S
C2129 H2137 0.960 . S
C2130 C2128 1.381 . S
C2130 C2131 1.394 . S
C2130 H2138 0.893 1_554 S
C2131 C2130 1.394 . S
C2131 C2132 1.383 . S
C2131 H2139 0.929 . S
C2132 C2131 1.383 . S
C2132 C2133 1.377 . S
C2133 H2117 0.930 . S
C2133 C2132 1.377 . S
C2133 C2134 1.379 . S
C2134 H2118 0.931 . S
C2134 C2128 1.383 . S
C2134 C2133 1.379 . S
H2135 C2129 0.959 . S
H2136 C2129 0.961 . S
H2137 C2129 0.960 . S
H2138 C2130 0.893 1_556 S
H2139 C2131 0.929 . S
H2140 C2148 0.929 . S
H2141 C2150 0.930 . S
H2142 C2152 0.930 . S
H2143 C2155 0.929 . S
H2144 C2158 0.930 . S
H2145 C2160 0.960 . S
H2146 C2160 0.960 . S
H2147 C2160 0.960 . S
C2148 H2140 0.929 . S
C2148 C2149 1.377 . S
C2148 C2150 1.384 . S
C2149 C2148 1.377 . S
C2149 C2155 1.390 . S
C2150 H2141 0.930 . S
C2150 C2148 1.384 . S
C2150 C2151 1.372 . S
C2151 C2150 1.372 . S
C2151 C2152 1.400 . S
C2151 C2156 1.490 . S
C2152 H2142 0.930 . S
C2152 C2151 1.400 . S
C2152 C2155 1.386 . S
H2153 C2169 0.930 . S
H2154 C2170 0.931 . S
C2155 H2143 0.929 . S
C2155 C2149 1.390 . S
C2155 C2152 1.386 . S
C2156 C2151 1.490 . S
C2156 C2158 1.395 . S
C2156 C2159 1.403 . S
H2157 C2163 0.930 . S
C2158 H2144 0.930 . S
C2158 C2156 1.395 . S
C2158 C2161 1.403 . S
C2159 C2156 1.403 . S
C2159 C2160 1.524 . S
C2159 C2163 1.400 . S
C2160 H2145 0.960 . S
C2160 H2146 0.960 . S
C2160 H2147 0.960 . S
C2160 C2159 1.524 . S
C2161 C2158 1.403 . S
C2161 C2162 1.392 . S
C2161 C2165 1.495 . S
C2162 C2161 1.392 . S
C2162 C2163 1.385 . S
C2162 C2164 1.478 . S
C2163 H2157 0.930 . S
C2163 C2159 1.400 . S
C2163 C2162 1.385 . S
C2164 C2162 1.478 . S
C2164 C2166 1.381 . S
C2164 C2170 1.383 . S
C2165 C2161 1.495 . S
C2165 H2171 0.959 . S
C2165 H2172 0.961 . S
C2165 H2173 0.960 . S
C2166 C2164 1.381 . S
C2166 C2167 1.394 . S
C2166 H2174 0.930 . S
C2167 C2166 1.394 . S
C2167 C2168 1.383 . S
C2167 H2175 0.929 . S
C2168 C2167 1.383 . S
C2168 C2169 1.377 . S
C2169 H2153 0.930 . S
C2169 C2168 1.377 . S
C2169 C2170 1.379 . S
C2170 H2154 0.931 . S
C2170 C2164 1.383 . S
C2170 C2169 1.379 . S
H2171 C2165 0.959 . S
H2172 C2165 0.961 . S
H2173 C2165 0.960 . S
H2174 C2166 0.930 . S
H2175 C2167 0.929 . S
H2176 C2184 0.929 . S
H2177 C2186 0.930 . S
H2178 C2188 0.930 . S
H2179 C2191 0.929 . S
H2180 C2194 0.930 . S
H2181 C2196 0.960 . S
H2182 C2196 0.960 . S
H2183 C2196 0.960 . S
C2184 H2176 0.929 . S
C2184 C2185 1.377 . S
C2184 C2186 1.384 . S
C2185 C2184 1.377 . S
C2185 C2191 1.390 . S
C2186 H2177 0.930 . S
C2186 C2184 1.384 . S
C2186 C2187 1.372 . S
C2187 C2186 1.372 . S
C2187 C2188 1.400 . S
C2187 C2192 1.490 . S
C2188 H2178 0.930 . S
C2188 C2187 1.400 . S
C2188 C2191 1.386 . S
H2189 C2205 0.930 . S
H2190 C2206 0.931 . S
C2191 H2179 0.929 . S
C2191 C2185 1.390 . S
C2191 C2188 1.386 . S
C2192 C2187 1.490 . S
C2192 C2194 1.395 . S
C2192 C2195 1.403 . S
H2193 C2199 0.930 . S
C2194 H2180 0.930 . S
C2194 C2192 1.395 . S
C2194 C2197 1.403 . S
C2195 C2192 1.403 . S
C2195 C2196 1.524 . S
C2195 C2199 1.400 . S
C2196 H2181 0.960 . S
C2196 H2182 0.960 . S
C2196 H2183 0.960 . S
C2196 C2195 1.524 . S
C2197 C2194 1.403 . S
C2197 C2198 1.392 . S
C2197 C2201 1.495 . S
C2198 C2197 1.392 . S
C2198 C2199 1.385 . S
C2198 C2200 1.478 . S
C2199 H2193 0.930 . S
C2199 C2195 1.400 . S
C2199 C2198 1.385 . S
C2200 C2198 1.478 . S
C2200 C2202 1.381 . S
C2200 C2206 1.383 . S
C2201 C2197 1.495 . S
C2201 H2207 0.959 . S
C2201 H2208 0.961 . S
C2201 H2209 0.960 . S
C2202 C2200 1.381 . S
C2202 C2203 1.394 . S
C2202 H2210 0.930 . S
C2203 C2202 1.394 . S
C2203 C2204 1.383 . S
C2203 H2211 0.929 . S
C2204 C2203 1.383 . S
C2204 C2205 1.377 . S
C2205 H2189 0.930 . S
C2205 C2204 1.377 . S
C2205 C2206 1.379 . S
C2206 H2190 0.931 . S
C2206 C2200 1.383 . S
C2206 C2205 1.379 . S
H2207 C2201 0.959 . S
H2208 C2201 0.961 . S
H2209 C2201 0.960 . S
H2210 C2202 0.930 . S
H2211 C2203 0.929 . S
H2212 C2220 0.929 . S
H2213 C2222 0.930 . S
H2214 C2224 0.930 . S
H2215 C2227 0.929 . S
H2216 C2230 0.930 . S
H2217 C2232 0.960 . S
H2218 C2232 0.960 . S
H2219 C2232 0.960 . S
C2220 H2212 0.929 . S
C2220 C2221 1.377 . S
C2220 C2222 1.384 . S
C2221 C2220 1.377 . S
C2221 C2227 1.390 . S
C2222 H2213 0.930 . S
C2222 C2220 1.384 . S
C2222 C2223 1.372 . S
C2223 C2222 1.372 . S
C2223 C2224 1.400 . S
C2223 C2228 1.490 . S
C2224 H2214 0.930 . S
C2224 C2223 1.400 . S
C2224 C2227 1.386 . S
H2225 C2241 0.930 . S
H2226 C2242 0.931 . S
C2227 H2215 0.929 . S
C2227 C2221 1.390 . S
C2227 C2224 1.386 . S
C2228 C2223 1.490 . S
C2228 C2230 1.395 . S
C2228 C2231 1.403 . S
H2229 C2235 0.930 . S
C2230 H2216 0.930 . S
C2230 C2228 1.395 . S
C2230 C2233 1.403 . S
C2231 C2228 1.403 . S
C2231 C2232 1.524 . S
C2231 C2235 1.400 . S
C2232 H2217 0.960 . S
C2232 H2218 0.960 . S
C2232 H2219 0.960 . S
C2232 C2231 1.524 . S
C2233 C2230 1.403 . S
C2233 C2234 1.392 . S
C2233 C2237 1.495 . S
C2234 C2233 1.392 . S
C2234 C2235 1.385 . S
C2234 C2236 1.478 . S
C2235 H2229 0.930 . S
C2235 C2231 1.400 . S
C2235 C2234 1.385 . S
C2236 C2234 1.478 . S
C2236 C2238 1.381 . S
C2236 C2242 1.383 . S
C2237 C2233 1.495 . S
C2237 H2243 0.959 . S
C2237 H2244 0.961 . S
C2237 H2245 0.960 . S
C2238 C2236 1.381 . S
C2238 C2239 1.394 . S
C2238 H2246 0.930 . S
C2239 C2238 1.394 . S
C2239 C2240 1.383 . S
C2239 H2247 0.929 . S
C2240 C2239 1.383 . S
C2240 C2241 1.377 . S
C2241 H2225 0.930 . S
C2241 C2240 1.377 . S
C2241 C2242 1.379 . S
C2242 H2226 0.931 . S
C2242 C2236 1.383 . S
C2242 C2241 1.379 . S
H2243 C2237 0.959 . S
H2244 C2237 0.961 . S
H2245 C2237 0.960 . S
H2246 C2238 0.930 . S
H2247 C2239 0.929 . S
H2248 C2256 0.929 . S
H2249 C2258 0.930 . S
H2250 C2260 0.930 . S
H2251 C2263 0.929 . S
H2252 C2266 0.930 . S
H2253 C2268 0.960 . S
H2254 C2268 0.960 . S
H2255 C2268 0.960 . S
C2256 H2248 0.929 . S
C2256 C2257 1.377 . S
C2256 C2258 1.384 . S
C2257 C2256 1.377 . S
C2257 C2263 1.390 . S
C2258 H2249 0.930 . S
C2258 C2256 1.384 . S
C2258 C2259 1.372 . S
C2259 C2258 1.372 . S
C2259 C2260 1.400 . S
C2259 C2264 1.490 . S
C2260 H2250 0.930 . S
C2260 C2259 1.400 . S
C2260 C2263 1.386 . S
H2261 C2277 0.930 . S
H2262 C2278 0.931 . S
C2263 H2251 0.929 . S
C2263 C2257 1.390 . S
C2263 C2260 1.386 . S
C2264 C2259 1.490 . S
C2264 C2266 1.395 . S
C2264 C2267 1.403 . S
H2265 C2271 0.930 . S
C2266 H2252 0.930 . S
C2266 C2264 1.395 . S
C2266 C2269 1.403 . S
C2267 C2264 1.403 . S
C2267 C2268 1.524 . S
C2267 C2271 1.400 . S
C2268 H2253 0.960 . S
C2268 H2254 0.960 . S
C2268 H2255 0.960 . S
C2268 C2267 1.524 . S
C2269 C2266 1.403 . S
C2269 C2270 1.392 . S
C2269 C2273 1.495 . S
C2270 C2269 1.392 . S
C2270 C2271 1.385 . S
C2270 C2272 1.478 . S
C2271 H2265 0.930 . S
C2271 C2267 1.400 . S
C2271 C2270 1.385 . S
C2272 C2270 1.478 . S
C2272 C2274 1.381 . S
C2272 C2278 1.383 . S
C2273 C2269 1.495 . S
C2273 H2279 0.959 . S
C2273 H2280 0.961 . S
C2273 H2281 0.960 . S
C2274 C2272 1.381 . S
C2274 C2275 1.394 . S
C2274 H2282 0.930 . S
C2275 C2274 1.394 . S
C2275 C2276 1.383 . S
C2275 H2283 0.929 . S
C2276 C2275 1.383 . S
C2276 C2277 1.377 . S
C2277 H2261 0.930 . S
C2277 C2276 1.377 . S
C2277 C2278 1.379 . S
C2278 H2262 0.931 . S
C2278 C2272 1.383 . S
C2278 C2277 1.379 . S
H2279 C2273 0.959 . S
H2280 C2273 0.961 . S
H2281 C2273 0.960 . S
H2282 C2274 0.930 . S
H2283 C2275 0.929 . S
H2284 C2292 0.929 . S
H2285 C2294 0.930 . S
H2286 C2296 0.930 . S
H2287 C2299 0.929 . S
H2288 C2302 0.930 . S
H2289 C2304 0.960 . S
H2290 C2304 0.960 . S
H2291 C2304 0.960 . S
C2292 H2284 0.929 . S
C2292 C2293 1.377 . S
C2292 C2294 1.384 . S
C2293 C2292 1.377 . S
C2293 C2299 1.390 . S
C2294 H2285 0.930 . S
C2294 C2292 1.384 . S
C2294 C2295 1.372 . S
C2295 C2294 1.372 . S
C2295 C2296 1.400 . S
C2295 C2300 1.490 . S
C2296 H2286 0.930 . S
C2296 C2295 1.400 . S
C2296 C2299 1.386 . S
H2297 C2313 0.930 . S
H2298 C2314 0.931 . S
C2299 H2287 0.929 . S
C2299 C2293 1.390 . S
C2299 C2296 1.386 . S
C2300 C2295 1.490 . S
C2300 C2302 1.395 . S
C2300 C2303 1.403 . S
H2301 C2307 0.930 . S
C2302 H2288 0.930 . S
C2302 C2300 1.395 . S
C2302 C2305 1.403 . S
C2303 C2300 1.403 . S
C2303 C2304 1.524 . S
C2303 C2307 1.400 . S
C2304 H2289 0.960 . S
C2304 H2290 0.960 . S
C2304 H2291 0.960 . S
C2304 C2303 1.524 . S
C2305 C2302 1.403 . S
C2305 C2306 1.392 . S
C2305 C2309 1.495 . S
C2306 C2305 1.392 . S
C2306 C2307 1.385 . S
C2306 C2308 1.478 . S
C2307 H2301 0.930 . S
C2307 C2303 1.400 . S
C2307 C2306 1.385 . S
C2308 C2306 1.478 . S
C2308 C2310 1.381 . S
C2308 C2314 1.383 . S
C2309 C2305 1.495 . S
C2309 H2315 0.959 . S
C2309 H2316 0.961 . S
C2309 H2317 0.960 . S
C2310 C2308 1.381 . S
C2310 C2311 1.394 . S
C2310 H2318 0.930 . S
C2311 C2310 1.394 . S
C2311 C2312 1.383 . S
C2311 H2319 0.929 . S
C2312 C2311 1.383 . S
C2312 C2313 1.377 . S
C2313 H2297 0.930 . S
C2313 C2312 1.377 . S
C2313 C2314 1.379 . S
C2314 H2298 0.931 . S
C2314 C2308 1.383 . S
C2314 C2313 1.379 . S
H2315 C2309 0.959 . S
H2316 C2309 0.961 . S
H2317 C2309 0.960 . S
H2318 C2310 0.930 . S
H2319 C2311 0.929 . S
H2320 C2328 0.929 . S
H2321 C2330 0.930 . S
H2322 C2332 0.930 . S
H2323 C2335 0.929 . S
H2324 C2338 0.930 . S
H2325 C2340 0.960 . S
H2326 C2340 0.960 . S
H2327 C2340 0.960 . S
C2328 H2320 0.929 . S
C2328 C2329 1.377 . S
C2328 C2330 1.384 . S
C2329 C2328 1.377 . S
C2329 C2335 1.390 . S
C2330 H2321 0.930 . S
C2330 C2328 1.384 . S
C2330 C2331 1.372 . S
C2331 C2330 1.372 . S
C2331 C2332 1.400 . S
C2331 C2336 1.490 . S
C2332 H2322 0.930 . S
C2332 C2331 1.400 . S
C2332 C2335 1.386 . S
H2333 C2349 0.930 . S
H2334 C2350 0.931 . S
C2335 H2323 0.929 . S
C2335 C2329 1.390 . S
C2335 C2332 1.386 . S
C2336 C2331 1.490 . S
C2336 C2338 1.395 . S
C2336 C2339 1.403 . S
H2337 C2343 0.930 . S
C2338 H2324 0.930 . S
C2338 C2336 1.395 . S
C2338 C2341 1.403 . S
C2339 C2336 1.403 . S
C2339 C2340 1.524 . S
C2339 C2343 1.400 . S
C2340 H2325 0.960 . S
C2340 H2326 0.960 . S
C2340 H2327 0.960 . S
C2340 C2339 1.524 . S
C2341 C2338 1.403 . S
C2341 C2342 1.392 . S
C2341 C2345 1.495 . S
C2342 C2341 1.392 . S
C2342 C2343 1.385 . S
C2342 C2344 1.478 . S
C2343 H2337 0.930 . S
C2343 C2339 1.400 . S
C2343 C2342 1.385 . S
C2344 C2342 1.478 . S
C2344 C2346 1.381 . S
C2344 C2350 1.383 . S
C2345 C2341 1.495 . S
C2345 H2351 0.959 . S
C2345 H2352 0.961 . S
C2345 H2353 0.960 . S
C2346 C2344 1.381 . S
C2346 C2347 1.394 . S
C2346 H2354 0.930 . S
C2347 C2346 1.394 . S
C2347 C2348 1.383 . S
C2347 H2355 0.929 . S
C2348 C2347 1.383 . S
C2348 C2349 1.377 . S
C2349 H2333 0.930 . S
C2349 C2348 1.377 . S
C2349 C2350 1.379 . S
C2350 H2334 0.931 . S
C2350 C2344 1.383 . S
C2350 C2349 1.379 . S
H2351 C2345 0.959 . S
H2352 C2345 0.961 . S
H2353 C2345 0.960 . S
H2354 C2346 0.930 . S
H2355 C2347 0.929 . S
H2356 C2364 0.929 . S
H2357 C2366 0.930 . S
H2358 C2368 0.930 . S
H2359 C2371 0.929 . S
H2360 C2374 0.930 . S
H2361 C2376 0.960 . S
H2362 C2376 0.960 . S
H2363 C2376 0.960 . S
C2364 H2356 0.929 . S
C2364 C2365 1.377 . S
C2364 C2366 1.384 . S
C2365 C2364 1.377 . S
C2365 C2371 1.390 . S
C2366 H2357 0.930 . S
C2366 C2364 1.384 . S
C2366 C2367 1.372 . S
C2367 C2366 1.372 . S
C2367 C2368 1.400 . S
C2367 C2372 1.490 . S
C2368 H2358 0.930 . S
C2368 C2367 1.400 . S
C2368 C2371 1.386 . S
H2369 C2385 0.930 . S
H2370 C2386 0.931 . S
C2371 H2359 0.929 . S
C2371 C2365 1.390 . S
C2371 C2368 1.386 . S
C2372 C2367 1.490 . S
C2372 C2374 1.395 . S
C2372 C2375 1.403 . S
H2373 C2379 0.930 . S
C2374 H2360 0.930 . S
C2374 C2372 1.395 . S
C2374 C2377 1.403 . S
C2375 C2372 1.403 . S
C2375 C2376 1.524 . S
C2375 C2379 1.400 . S
C2376 H2361 0.960 . S
C2376 H2362 0.960 . S
C2376 H2363 0.960 . S
C2376 C2375 1.524 . S
C2377 C2374 1.403 . S
C2377 C2378 1.392 . S
C2377 C2381 1.495 . S
C2378 C2377 1.392 . S
C2378 C2379 1.385 . S
C2378 C2380 1.478 . S
C2379 H2373 0.930 . S
C2379 C2375 1.400 . S
C2379 C2378 1.385 . S
C2380 C2378 1.478 . S
C2380 C2382 1.381 . S
C2380 C2386 1.383 . S
C2381 C2377 1.495 . S
C2381 H2387 0.959 . S
C2381 H2388 0.961 . S
C2381 H2389 0.960 . S
C2382 C2380 1.381 . S
C2382 C2383 1.394 . S
C2382 H2390 0.930 . S
C2383 C2382 1.394 . S
C2383 C2384 1.383 . S
C2383 H2391 0.929 . S
C2384 C2383 1.383 . S
C2384 C2385 1.377 . S
C2385 H2369 0.930 . S
C2385 C2384 1.377 . S
C2385 C2386 1.379 . S
C2386 H2370 0.931 . S
C2386 C2380 1.383 . S
C2386 C2385 1.379 . S
H2387 C2381 0.959 . S
H2388 C2381 0.961 . S
H2389 C2381 0.960 . S
H2390 C2382 0.930 . S
H2391 C2383 0.929 . S
H2392 C2400 0.929 . S
H2393 C2402 0.930 . S
H2394 C2404 0.930 . S
H2395 C2407 0.929 . S
H2396 C2410 0.930 . S
H2397 C2412 0.960 . S
H2398 C2412 0.960 . S
H2399 C2412 0.960 . S
C2400 H2392 0.929 . S
C2400 C2401 1.377 . S
C2400 C2402 1.384 . S
C2401 C2400 1.377 . S
C2401 C2407 1.390 . S
C2402 H2393 0.930 . S
C2402 C2400 1.384 . S
C2402 C2403 1.372 . S
C2403 C2402 1.372 . S
C2403 C2404 1.400 . S
C2403 C2408 1.490 . S
C2404 H2394 0.930 . S
C2404 C2403 1.400 . S
C2404 C2407 1.386 . S
H2405 C2421 0.930 . S
H2406 C2422 0.931 . S
C2407 H2395 0.929 . S
C2407 C2401 1.390 . S
C2407 C2404 1.386 . S
C2408 C2403 1.490 . S
C2408 C2410 1.395 . S
C2408 C2411 1.403 . S
H2409 C2415 0.930 . S
C2410 H2396 0.930 . S
C2410 C2408 1.395 . S
C2410 C2413 1.403 . S
C2411 C2408 1.403 . S
C2411 C2412 1.524 . S
C2411 C2415 1.400 . S
C2412 H2397 0.960 . S
C2412 H2398 0.960 . S
C2412 H2399 0.960 . S
C2412 C2411 1.524 . S
C2413 C2410 1.403 . S
C2413 C2414 1.392 . S
C2413 C2417 1.495 . S
C2414 C2413 1.392 . S
C2414 C2415 1.385 . S
C2414 C2416 1.478 . S
C2415 H2409 0.930 . S
C2415 C2411 1.400 . S
C2415 C2414 1.385 . S
C2416 C2414 1.478 . S
C2416 C2418 1.381 . S
C2416 C2422 1.383 . S
C2417 C2413 1.495 . S
C2417 H2423 0.959 . S
C2417 H2424 0.961 . S
C2417 H2425 0.960 . S
C2418 C2416 1.381 . S
C2418 C2419 1.394 . S
C2418 H2426 0.930 . S
C2419 C2418 1.394 . S
C2419 C2420 1.383 . S
C2419 H2427 0.929 . S
C2420 C2419 1.383 . S
C2420 C2421 1.377 . S
C2421 H2405 0.930 . S
C2421 C2420 1.377 . S
C2421 C2422 1.379 . S
C2422 H2406 0.931 . S
C2422 C2416 1.383 . S
C2422 C2421 1.379 . S
H2423 C2417 0.959 . S
H2424 C2417 0.961 . S
H2425 C2417 0.960 . S
H2426 C2418 0.930 . S
H2427 C2419 0.929 . S
H2428 C2436 0.929 . S
H2429 C2438 0.930 . S
H2430 C2440 0.930 . S
H2431 C2443 0.929 . S
H2432 C2446 0.930 . S
H2433 C2448 0.960 . S
H2434 C2448 0.960 . S
H2435 C2448 0.960 . S
C2436 H2428 0.929 . S
C2436 C2437 1.377 . S
C2436 C2438 1.384 . S
C2437 C2436 1.377 . S
C2437 C2443 1.390 . S
C2438 H2429 0.930 . S
C2438 C2436 1.384 . S
C2438 C2439 1.372 . S
C2439 C2438 1.372 . S
C2439 C2440 1.400 . S
C2439 C2444 1.490 . S
C2440 H2430 0.930 . S
C2440 C2439 1.400 . S
C2440 C2443 1.386 . S
H2441 C2457 0.930 . S
H2442 C2458 0.931 . S
C2443 H2431 0.929 . S
C2443 C2437 1.390 . S
C2443 C2440 1.386 . S
C2444 C2439 1.490 . S
C2444 C2446 1.395 . S
C2444 C2447 1.403 . S
H2445 C2451 0.930 . S
C2446 H2432 0.930 . S
C2446 C2444 1.395 . S
C2446 C2449 1.403 . S
C2447 C2444 1.403 . S
C2447 C2448 1.524 . S
C2447 C2451 1.400 . S
C2448 H2433 0.960 . S
C2448 H2434 0.960 . S
C2448 H2435 0.960 . S
C2448 C2447 1.524 . S
C2449 C2446 1.403 . S
C2449 C2450 1.392 . S
C2449 C2453 1.495 . S
C2450 C2449 1.392 . S
C2450 C2451 1.385 . S
C2450 C2452 1.478 . S
C2451 H2445 0.930 . S
C2451 C2447 1.400 . S
C2451 C2450 1.385 . S
C2452 C2450 1.478 . S
C2452 C2454 1.381 . S
C2452 C2458 1.383 . S
C2453 C2449 1.495 . S
C2453 H2459 0.959 . S
C2453 H2460 0.961 . S
C2453 H2461 0.960 . S
C2454 C2452 1.381 . S
C2454 C2455 1.394 . S
C2454 H2462 0.930 . S
C2455 C2454 1.394 . S
C2455 C2456 1.383 . S
C2455 H2463 0.929 . S
C2456 C2455 1.383 . S
C2456 C2457 1.377 . S
C2457 H2441 0.930 . S
C2457 C2456 1.377 . S
C2457 C2458 1.379 . S
C2458 H2442 0.931 . S
C2458 C2452 1.383 . S
C2458 C2457 1.379 . S
H2459 C2453 0.959 . S
H2460 C2453 0.961 . S
H2461 C2453 0.960 . S
H2462 C2454 0.930 . S
H2463 C2455 0.929 . S
H2464 C2472 0.929 . S
H2465 C2474 0.930 . S
H2466 C2476 0.930 . S
H2467 C2479 0.929 . S
H2468 C2482 0.930 . S
H2469 C2484 0.960 . S
H2470 C2484 0.960 . S
H2471 C2484 0.960 . S
C2472 H2464 0.929 . S
C2472 C2473 1.377 . S
C2472 C2474 1.384 . S
C2473 C2472 1.377 . S
C2473 C2479 1.390 . S
C2474 H2465 0.930 . S
C2474 C2472 1.384 . S
C2474 C2475 1.372 . S
C2475 C2474 1.372 . S
C2475 C2476 1.400 . S
C2475 C2480 1.490 . S
C2476 H2466 0.930 . S
C2476 C2475 1.400 . S
C2476 C2479 1.386 . S
H2477 C2493 0.930 . S
H2478 C2494 0.931 . S
C2479 H2467 0.929 . S
C2479 C2473 1.390 . S
C2479 C2476 1.386 . S
C2480 C2475 1.490 . S
C2480 C2482 1.395 . S
C2480 C2483 1.403 . S
H2481 C2487 0.930 . S
C2482 H2468 0.930 . S
C2482 C2480 1.395 . S
C2482 C2485 1.403 . S
C2483 C2480 1.403 . S
C2483 C2484 1.524 . S
C2483 C2487 1.400 . S
C2484 H2469 0.960 . S
C2484 H2470 0.960 . S
C2484 H2471 0.960 . S
C2484 C2483 1.524 . S
C2485 C2482 1.403 . S
C2485 C2486 1.392 . S
C2485 C2489 1.495 . S
C2486 C2485 1.392 . S
C2486 C2487 1.385 . S
C2486 C2488 1.478 . S
C2487 H2481 0.930 . S
C2487 C2483 1.400 . S
C2487 C2486 1.385 . S
C2488 C2486 1.478 . S
C2488 C2490 1.381 . S
C2488 C2494 1.383 . S
C2489 C2485 1.495 . S
C2489 H2495 0.959 . S
C2489 H2496 0.961 . S
C2489 H2497 0.960 . S
C2490 C2488 1.381 . S
C2490 C2491 1.394 . S
C2490 H2498 0.930 . S
C2491 C2490 1.394 . S
C2491 C2492 1.383 . S
C2491 H2499 0.929 . S
C2492 C2491 1.383 . S
C2492 C2493 1.377 . S
C2493 H2477 0.930 . S
C2493 C2492 1.377 . S
C2493 C2494 1.379 . S
C2494 H2478 0.931 . S
C2494 C2488 1.383 . S
C2494 C2493 1.379 . S
H2495 C2489 0.959 . S
H2496 C2489 0.961 . S
H2497 C2489 0.960 . S
H2498 C2490 0.930 . S
H2499 C2491 0.929 . S
H2500 C2508 0.929 . S
H2501 C2510 0.930 . S
H2502 C2512 0.930 . S
H2503 C2515 0.929 . S
H2504 C2518 0.930 . S
H2505 C2520 0.960 . S
H2506 C2520 0.960 . S
H2507 C2520 0.960 . S
C2508 H2500 0.929 . S
C2508 C2509 1.377 . S
C2508 C2510 1.384 . S
C2509 C2508 1.377 . S
C2509 C2515 1.390 . S
C2510 H2501 0.930 . S
C2510 C2508 1.384 . S
C2510 C2511 1.372 . S
C2511 C2510 1.372 . S
C2511 C2512 1.400 . S
C2511 C2516 1.490 . S
C2512 H2502 0.930 . S
C2512 C2511 1.400 . S
C2512 C2515 1.386 . S
H2513 C2529 0.930 . S
H2514 C2530 0.931 . S
C2515 H2503 0.929 . S
C2515 C2509 1.390 . S
C2515 C2512 1.386 . S
C2516 C2511 1.490 . S
C2516 C2518 1.395 . S
C2516 C2519 1.403 . S
H2517 C2523 0.930 . S
C2518 H2504 0.930 . S
C2518 C2516 1.395 . S
C2518 C2521 1.403 . S
C2519 C2516 1.403 . S
C2519 C2520 1.524 . S
C2519 C2523 1.400 . S
C2520 H2505 0.960 . S
C2520 H2506 0.960 . S
C2520 H2507 0.960 . S
C2520 C2519 1.524 . S
C2521 C2518 1.403 . S
C2521 C2522 1.392 . S
C2521 C2525 1.495 . S
C2522 C2521 1.392 . S
C2522 C2523 1.385 . S
C2522 C2524 1.478 . S
C2523 H2517 0.930 . S
C2523 C2519 1.400 . S
C2523 C2522 1.385 . S
C2524 C2522 1.478 . S
C2524 C2526 1.381 . S
C2524 C2530 1.383 . S
C2525 C2521 1.495 . S
C2525 H2531 0.959 . S
C2525 H2532 0.961 . S
C2525 H2533 0.960 . S
C2526 C2524 1.381 . S
C2526 C2527 1.394 . S
C2526 H2534 0.930 . S
C2527 C2526 1.394 . S
C2527 C2528 1.383 . S
C2527 H2535 0.929 . S
C2528 C2527 1.383 . S
C2528 C2529 1.377 . S
C2529 H2513 0.930 . S
C2529 C2528 1.377 . S
C2529 C2530 1.379 . S
C2530 H2514 0.931 . S
C2530 C2524 1.383 . S
C2530 C2529 1.379 . S
H2531 C2525 0.959 . S
H2532 C2525 0.961 . S
H2533 C2525 0.960 . S
H2534 C2526 0.930 . S
H2535 C2527 0.929 . S
H2536 C2544 0.929 . S
H2537 C2546 0.930 . S
H2538 C2548 0.930 . S
H2539 C2551 0.929 . S
H2540 C2554 0.930 . S
H2541 C2556 0.960 . S
H2542 C2556 0.960 . S
H2543 C2556 0.960 . S
C2544 H2536 0.929 . S
C2544 C2545 1.377 . S
C2544 C2546 1.384 . S
C2545 C2544 1.377 . S
C2545 C2551 1.390 . S
C2546 H2537 0.930 . S
C2546 C2544 1.384 . S
C2546 C2547 1.372 . S
C2547 C2546 1.372 . S
C2547 C2548 1.400 . S
C2547 C2552 1.490 . S
C2548 H2538 0.930 . S
C2548 C2547 1.400 . S
C2548 C2551 1.386 . S
H2549 C2565 0.930 . S
H2550 C2566 0.931 . S
C2551 H2539 0.929 . S
C2551 C2545 1.390 . S
C2551 C2548 1.386 . S
C2552 C2547 1.490 . S
C2552 C2554 1.395 . S
C2552 C2555 1.403 . S
H2553 C2559 0.930 . S
C2554 H2540 0.930 . S
C2554 C2552 1.395 . S
C2554 C2557 1.403 . S
C2555 C2552 1.403 . S
C2555 C2556 1.524 . S
C2555 C2559 1.400 . S
C2556 H2541 0.960 . S
C2556 H2542 0.960 . S
C2556 H2543 0.960 . S
C2556 C2555 1.524 . S
C2557 C2554 1.403 . S
C2557 C2558 1.392 . S
C2557 C2561 1.495 . S
C2558 C2557 1.392 . S
C2558 C2559 1.385 . S
C2558 C2560 1.478 . S
C2559 H2553 0.930 . S
C2559 C2555 1.400 . S
C2559 C2558 1.385 . S
C2560 C2558 1.478 . S
C2560 C2562 1.381 . S
C2560 C2566 1.383 . S
C2561 C2557 1.495 . S
C2561 H2567 0.959 . S
C2561 H2568 0.961 . S
C2561 H2569 0.960 . S
C2562 C2560 1.381 . S
C2562 C2563 1.394 . S
C2562 H2570 0.930 . S
C2563 C2562 1.394 . S
C2563 C2564 1.383 . S
C2563 H2571 0.929 . S
C2564 C2563 1.383 . S
C2564 C2565 1.377 . S
C2565 H2549 0.930 . S
C2565 C2564 1.377 . S
C2565 C2566 1.379 . S
C2566 H2550 0.931 . S
C2566 C2560 1.383 . S
C2566 C2565 1.379 . S
H2567 C2561 0.959 . S
H2568 C2561 0.961 . S
H2569 C2561 0.960 . S
H2570 C2562 0.930 . S
H2571 C2563 0.929 . S
H2572 C2580 0.929 . S
H2573 C2582 0.930 . S
H2574 C2584 0.930 . S
H2575 C2587 0.929 . S
H2576 C2590 0.930 . S
H2577 C2592 0.960 . S
H2578 C2592 0.960 . S
H2579 C2592 0.960 . S
C2580 H2572 0.929 . S
C2580 C2581 1.377 . S
C2580 C2582 1.384 . S
C2581 C2580 1.377 . S
C2581 C2587 1.390 . S
C2582 H2573 0.930 . S
C2582 C2580 1.384 . S
C2582 C2583 1.372 . S
C2583 C2582 1.372 . S
C2583 C2584 1.400 . S
C2583 C2588 1.490 . S
C2584 H2574 0.930 . S
C2584 C2583 1.400 . S
C2584 C2587 1.386 . S
H2585 C2601 0.930 . S
H2586 C2602 0.931 . S
C2587 H2575 0.929 . S
C2587 C2581 1.390 . S
C2587 C2584 1.386 . S
C2588 C2583 1.490 . S
C2588 C2590 1.395 . S
C2588 C2591 1.403 . S
H2589 C2595 0.930 . S
C2590 H2576 0.930 . S
C2590 C2588 1.395 . S
C2590 C2593 1.403 . S
C2591 C2588 1.403 . S
C2591 C2592 1.524 . S
C2591 C2595 1.400 . S
C2592 H2577 0.960 . S
C2592 H2578 0.960 . S
C2592 H2579 0.960 . S
C2592 C2591 1.524 . S
C2593 C2590 1.403 . S
C2593 C2594 1.392 . S
C2593 C2597 1.495 . S
C2594 C2593 1.392 . S
C2594 C2595 1.385 . S
C2594 C2596 1.478 . S
C2595 H2589 0.930 . S
C2595 C2591 1.400 . S
C2595 C2594 1.385 . S
C2596 C2594 1.478 . S
C2596 C2598 1.381 . S
C2596 C2602 1.383 . S
C2597 C2593 1.495 . S
C2597 H2603 0.959 . S
C2597 H2604 0.961 . S
C2597 H2605 0.960 . S
C2598 C2596 1.381 . S
C2598 C2599 1.394 . S
C2598 H2606 0.930 . S
C2599 C2598 1.394 . S
C2599 C2600 1.383 . S
C2599 H2607 0.929 . S
C2600 C2599 1.383 . S
C2600 C2601 1.377 . S
C2601 H2585 0.930 . S
C2601 C2600 1.377 . S
C2601 C2602 1.379 . S
C2602 H2586 0.931 . S
C2602 C2596 1.383 . S
C2602 C2601 1.379 . S
H2603 C2597 0.959 . S
H2604 C2597 0.961 . S
H2605 C2597 0.960 . S
H2606 C2598 0.930 . S
H2607 C2599 0.929 . S
H2608 C2616 0.929 . S
H2609 C2618 0.930 . S
H2610 C2620 0.930 . S
H2611 C2623 0.929 . S
H2612 C2626 0.930 . S
H2613 C2628 0.960 . S
H2614 C2628 0.960 . S
H2615 C2628 0.960 . S
C2616 H2608 0.929 . S
C2616 C2617 1.377 . S
C2616 C2618 1.384 . S
C2617 C2616 1.377 . S
C2617 C2623 1.390 . S
C2618 H2609 0.930 . S
C2618 C2616 1.384 . S
C2618 C2619 1.372 . S
C2619 C2618 1.372 . S
C2619 C2620 1.400 . S
C2619 C2624 1.490 . S
C2620 H2610 0.930 . S
C2620 C2619 1.400 . S
C2620 C2623 1.386 . S
H2621 C2637 0.930 . S
H2622 C2638 0.931 . S
C2623 H2611 0.929 . S
C2623 C2617 1.390 . S
C2623 C2620 1.386 . S
C2624 C2619 1.490 . S
C2624 C2626 1.395 . S
C2624 C2627 1.403 . S
H2625 C2631 0.930 . S
C2626 H2612 0.930 . S
C2626 C2624 1.395 . S
C2626 C2629 1.403 . S
C2627 C2624 1.403 . S
C2627 C2628 1.524 . S
C2627 C2631 1.400 . S
C2628 H2613 0.960 . S
C2628 H2614 0.960 . S
C2628 H2615 0.960 . S
C2628 C2627 1.524 . S
C2629 C2626 1.403 . S
C2629 C2630 1.392 . S
C2629 C2633 1.495 . S
C2630 C2629 1.392 . S
C2630 C2631 1.385 . S
C2630 C2632 1.478 . S
C2631 H2625 0.930 . S
C2631 C2627 1.400 . S
C2631 C2630 1.385 . S
C2632 C2630 1.478 . S
C2632 C2634 1.381 . S
C2632 C2638 1.383 . S
C2633 C2629 1.495 . S
C2633 H2639 0.959 . S
C2633 H2640 0.961 . S
C2633 H2641 0.960 . S
C2634 C2632 1.381 . S
C2634 C2635 1.394 . S
C2634 H2642 0.930 . S
C2635 C2634 1.394 . S
C2635 C2636 1.383 . S
C2635 H2643 0.929 . S
C2636 C2635 1.383 . S
C2636 C2637 1.377 . S
C2637 H2621 0.930 . S
C2637 C2636 1.377 . S
C2637 C2638 1.379 . S
C2638 H2622 0.931 . S
C2638 C2632 1.383 . S
C2638 C2637 1.379 . S
H2639 C2633 0.959 . S
H2640 C2633 0.961 . S
H2641 C2633 0.960 . S
H2642 C2634 0.930 . S
H2643 C2635 0.929 . S
H2644 C2652 0.929 . S
H2645 C2654 0.930 . S
H2646 C2656 0.930 . S
H2647 C2659 0.929 . S
H2648 C2662 0.930 . S
H2649 C2664 0.960 . S
H2650 C2664 0.960 . S
H2651 C2664 0.960 . S
C2652 H2644 0.929 . S
C2652 C2653 1.377 . S
C2652 C2654 1.384 . S
C2653 C2652 1.377 . S
C2653 C2659 1.390 . S
C2654 H2645 0.930 . S
C2654 C2652 1.384 . S
C2654 C2655 1.372 . S
C2655 C2654 1.372 . S
C2655 C2656 1.400 . S
C2655 C2660 1.490 . S
C2656 H2646 0.930 . S
C2656 C2655 1.400 . S
C2656 C2659 1.386 . S
H2657 C2673 0.930 . S
H2658 C2674 0.931 . S
C2659 H2647 0.929 . S
C2659 C2653 1.390 . S
C2659 C2656 1.386 . S
C2660 C2655 1.490 . S
C2660 C2662 1.395 . S
C2660 C2663 1.403 . S
H2661 C2667 0.930 . S
C2662 H2648 0.930 . S
C2662 C2660 1.395 . S
C2662 C2665 1.403 . S
C2663 C2660 1.403 . S
C2663 C2664 1.524 . S
C2663 C2667 1.400 . S
C2664 H2649 0.960 . S
C2664 H2650 0.960 . S
C2664 H2651 0.960 . S
C2664 C2663 1.524 . S
C2665 C2662 1.403 . S
C2665 C2666 1.392 . S
C2665 C2669 1.495 . S
C2666 C2665 1.392 . S
C2666 C2667 1.385 . S
C2666 C2668 1.478 . S
C2667 H2661 0.930 . S
C2667 C2663 1.400 . S
C2667 C2666 1.385 . S
C2668 C2666 1.478 . S
C2668 C2670 1.381 . S
C2668 C2674 1.383 . S
C2669 C2665 1.495 . S
C2669 H2675 0.959 . S
C2669 H2676 0.961 . S
C2669 H2677 0.960 . S
C2670 C2668 1.381 . S
C2670 C2671 1.394 . S
C2670 H2678 0.930 . S
C2671 C2670 1.394 . S
C2671 C2672 1.383 . S
C2671 H2679 0.929 . S
C2672 C2671 1.383 . S
C2672 C2673 1.377 . S
C2673 H2657 0.930 . S
C2673 C2672 1.377 . S
C2673 C2674 1.379 . S
C2674 H2658 0.931 . S
C2674 C2668 1.383 . S
C2674 C2673 1.379 . S
H2675 C2669 0.959 . S
H2676 C2669 0.961 . S
H2677 C2669 0.960 . S
H2678 C2670 0.930 . S
H2679 C2671 0.929 . S
H2680 C2688 0.929 . S
H2681 C2690 0.930 . S
H2682 C2692 0.930 . S
H2683 C2695 0.929 . S
H2684 C2698 0.930 . S
H2685 C2700 0.960 . S
H2686 C2700 0.960 . S
H2687 C2700 0.960 . S
C2688 H2680 0.929 . S
C2688 C2689 1.377 . S
C2688 C2690 1.384 . S
C2689 C2688 1.377 . S
C2689 C2695 1.390 . S
C2690 H2681 0.930 . S
C2690 C2688 1.384 . S
C2690 C2691 1.372 . S
C2691 C2690 1.372 . S
C2691 C2692 1.400 . S
C2691 C2696 1.490 . S
C2692 H2682 0.930 . S
C2692 C2691 1.400 . S
C2692 C2695 1.386 . S
H2693 C2709 0.930 . S
H2694 C2710 0.931 . S
C2695 H2683 0.929 . S
C2695 C2689 1.390 . S
C2695 C2692 1.386 . S
C2696 C2691 1.490 . S
C2696 C2698 1.395 . S
C2696 C2699 1.403 . S
H2697 C2703 0.930 . S
C2698 H2684 0.930 . S
C2698 C2696 1.395 . S
C2698 C2701 1.403 . S
C2699 C2696 1.403 . S
C2699 C2700 1.524 . S
C2699 C2703 1.400 . S
C2700 H2685 0.960 . S
C2700 H2686 0.960 . S
C2700 H2687 0.960 . S
C2700 C2699 1.524 . S
C2701 C2698 1.403 . S
C2701 C2702 1.392 . S
C2701 C2705 1.495 . S
C2702 C2701 1.392 . S
C2702 C2703 1.385 . S
C2702 C2704 1.478 . S
C2703 H2697 0.930 . S
C2703 C2699 1.400 . S
C2703 C2702 1.385 . S
C2704 C2702 1.478 . S
C2704 C2706 1.381 . S
C2704 C2710 1.383 . S
C2705 C2701 1.495 . S
C2705 H2711 0.959 . S
C2705 H2712 0.961 . S
C2705 H2713 0.960 . S
C2706 C2704 1.381 . S
C2706 C2707 1.394 . S
C2706 H2714 0.930 . S
C2707 C2706 1.394 . S
C2707 C2708 1.383 . S
C2707 H2715 0.929 . S
C2708 C2707 1.383 . S
C2708 C2709 1.377 . S
C2709 H2693 0.930 . S
C2709 C2708 1.377 . S
C2709 C2710 1.379 . S
C2710 H2694 0.931 . S
C2710 C2704 1.383 . S
C2710 C2709 1.379 . S
H2711 C2705 0.959 . S
H2712 C2705 0.961 . S
H2713 C2705 0.960 . S
H2714 C2706 0.930 . S
H2715 C2707 0.929 . S
H2716 C2724 0.929 . S
H2717 C2726 0.930 . S
H2718 C2728 0.930 . S
H2719 C2731 0.929 . S
H2720 C2734 0.930 . S
H2721 C2736 0.960 . S
H2722 C2736 0.960 . S
H2723 C2736 0.960 . S
C2724 H2716 0.929 . S
C2724 C2725 1.377 . S
C2724 C2726 1.384 . S
C2725 C2724 1.377 . S
C2725 C2731 1.390 . S
C2726 H2717 0.930 . S
C2726 C2724 1.384 . S
C2726 C2727 1.372 . S
C2727 C2726 1.372 . S
C2727 C2728 1.400 . S
C2727 C2732 1.490 . S
C2728 H2718 0.930 . S
C2728 C2727 1.400 . S
C2728 C2731 1.386 . S
H2729 C2745 0.930 . S
H2730 C2746 0.931 . S
C2731 H2719 0.929 . S
C2731 C2725 1.390 . S
C2731 C2728 1.386 . S
C2732 C2727 1.490 . S
C2732 C2734 1.395 . S
C2732 C2735 1.403 . S
H2733 C2739 0.930 . S
C2734 H2720 0.930 . S
C2734 C2732 1.395 . S
C2734 C2737 1.403 . S
C2735 C2732 1.403 . S
C2735 C2736 1.524 . S
C2735 C2739 1.400 . S
C2736 H2721 0.960 . S
C2736 H2722 0.960 . S
C2736 H2723 0.960 . S
C2736 C2735 1.524 . S
C2737 C2734 1.403 . S
C2737 C2738 1.392 . S
C2737 C2741 1.495 . S
C2738 C2737 1.392 . S
C2738 C2739 1.385 . S
C2738 C2740 1.478 . S
C2739 H2733 0.930 . S
C2739 C2735 1.400 . S
C2739 C2738 1.385 . S
C2740 C2738 1.478 . S
C2740 C2742 1.381 . S
C2740 C2746 1.383 . S
C2741 C2737 1.495 . S
C2741 H2747 0.959 . S
C2741 H2748 0.961 . S
C2741 H2749 0.960 . S
C2742 C2740 1.381 . S
C2742 C2743 1.394 . S
C2742 H2750 0.930 . S
C2743 C2742 1.394 . S
C2743 C2744 1.383 . S
C2743 H2751 0.929 . S
C2744 C2743 1.383 . S
C2744 C2745 1.377 . S
C2745 H2729 0.930 . S
C2745 C2744 1.377 . S
C2745 C2746 1.379 . S
C2746 H2730 0.931 . S
C2746 C2740 1.383 . S
C2746 C2745 1.379 . S
H2747 C2741 0.959 . S
H2748 C2741 0.961 . S
H2749 C2741 0.960 . S
H2750 C2742 0.930 . S
H2751 C2743 0.929 . S
C457 C119 1.497 . S
C476 C7 1.480 . S
C493 C357 1.490 . S
C512 C21 1.473 . S
C529 C147 1.491 . S
C548 C35 1.472 . S
C565 C385 1.499 . S
C584 C49 1.507 . S
C601 C175 1.491 . S
C620 C63 1.471 . S
C637 C77 1.499 . S
C656 C413 1.507 . S
C673 C91 1.499 . S
C692 C203 1.509 . S
C709 C105 1.490 . S
C728 C441 1.481 . S
C745 C245 1.496 . S
C764 C133 1.514 . S
C781 C273 1.490 . S
C800 C161 1.481 . S
C817 C189 1.491 . S
C836 C301 1.496 . S
C853 C217 1.494 . S
C872 C329 1.471 . S
C889 C231 1.490 . S
C908 C343 1.491 . S
C925 C371 1.490 . S
C944 C259 1.477 . S
C961 C287 1.497 . S
C980 C399 1.514 . S
C997 C427 1.494 . S
C1016 C315 1.471 . S
C1033 C261 1.601 . S
C1052 C9 1.607 . S
C1069 C275 1.601 . S
C1088 C23 1.607 . S
C1105 C37 1.605 . S
C1124 C233 1.594 . S
C1141 C51 1.601 . S
C1160 C247 1.601 . S
C1177 C317 1.604 . S
C1196 C65 1.601 . S
C1213 C79 1.602 . S
C1232 C331 1.597 . S
C1249 C289 1.601 . S
C1268 C93 1.604 . S
C1285 C303 1.602 . S
C1304 C107 1.608 . S
C1321 C121 1.605 . S
C1340 C373 1.605 . S
C1357 C387 1.601 . S
C1376 C135 1.600 . S
C1393 C149 1.602 . S
C1412 C345 1.609 . S
C1429 C163 1.601 . S
C1448 C359 1.596 . S
C1465 C177 1.603 . S
C1484 C429 1.610 . S
C1501 C191 1.601 . S
C1520 C443 1.596 . S
C1537 C401 1.605 . S
C1556 C205 1.595 . S
C1573 C415 1.604 . S
C1592 C219 1.590 . S
C1609 C92 1.561 . S
C1628 C8 1.563 . S
C1645 C106 1.564 . S
C1664 C22 1.549 . S
C1681 C64 1.560 . S
C1700 C36 1.564 . S
C1717 C50 1.562 . S
C1736 C78 1.554 . S
C1753 C204 1.564 . S
C1772 C120 1.549 . S
C1789 C218 1.560 . S
C1808 C134 1.565 . S
C1825 C176 1.565 . S
C1844 C148 1.556 . S
C1861 C190 1.564 . S
C1880 C162 1.566 . S
C1897 C316 1.563 . S
C1916 C232 1.565 . S
C1933 C330 1.561 . S
C1952 C246 1.565 . S
C1969 C260 1.564 . S
C1988 C288 1.548 . S
C2005 C274 1.561 . S
C2024 C302 1.570 . S
C2041 C428 1.564 . S
C2060 C344 1.549 . S
C2077 C442 1.561 . S
C2096 C358 1.554 . S
C2113 C372 1.562 . S
C2132 C400 1.570 . S
C2149 C386 1.561 . S
C2168 C414 1.553 . S
C2185 C3 1.369 . S
C2204 C297 1.359 . S
C2221 C311 1.367 . S
C2240 C17 1.370 . S
C2257 C325 1.366 . S
C2276 C31 1.374 . S
C2293 C45 1.368 . S
C2312 C283 1.364 . S
C2329 C269 1.366 . S
C2348 C59 1.365 . S
C2365 C73 1.368 . S
C2384 C227 1.357 . S
C2401 C241 1.369 . S
C2420 C87 1.355 . S
C2437 C101 1.367 . S
C2456 C255 1.370 . S
C2473 C409 1.368 . S
C2492 C115 1.373 . S
C2509 C423 1.365 . S
C2528 C129 1.358 . S
C2545 C143 1.368 . S
C2564 C437 1.373 . S
C2581 C395 1.367 . S
C2600 C157 1.357 . S
C2617 C381 1.365 . S
C2636 C171 1.356 . S
C2653 C185 1.366 . S
C2672 C339 1.363 . S
C2689 C353 1.369 . S
C2708 C199 1.374 . S
C2725 C213 1.369 . S
C2744 C367 1.373 . S
