# Generated by pormake.
# Topology whk, (6)-cn, num edge types: 1
# Building blocks:
#     Node 0, Type 0, BuildingBlock: VOLQOD_clean_sbu_1, # of connection points: 6
#     Node 1, Type 0, BuildingBlock: VOLQOD_clean_sbu_1, # of connection points: 6
#     Node 2, Type 0, BuildingBlock: VOLQOD_clean_sbu_1, # of connection points: 6
#     Node 3, Type 0, BuildingBlock: VOLQOD_clean_sbu_1, # of connection points: 6
#     Node 4, Type 0, BuildingBlock: VOLQOD_clean_sbu_1, # of connection points: 6
#     Node 5, Type 0, BuildingBlock: VOLQOD_clean_sbu_1, # of connection points: 6
#     Node 6, Type 0, BuildingBlock: VOLQOD_clean_sbu_1, # of connection points: 6
#     Node 7, Type 0, BuildingBlock: VOLQOD_clean_sbu_1, # of connection points: 6
#     Node 8, Type 0, BuildingBlock: VOLQOD_clean_sbu_1, # of connection points: 6
#     Node 9, Type 0, BuildingBlock: VOLQOD_clean_sbu_1, # of connection points: 6
#     Node 10, Type 0, BuildingBlock: VOLQOD_clean_sbu_1, # of connection points: 6
#     Node 11, Type 0, BuildingBlock: VOLQOD_clean_sbu_1, # of connection points: 6
#     Node 12, Type 0, BuildingBlock: VOLQOD_clean_sbu_1, # of connection points: 6
#     Node 13, Type 0, BuildingBlock: VOLQOD_clean_sbu_1, # of connection points: 6
#     Node 14, Type 0, BuildingBlock: VOLQOD_clean_sbu_1, # of connection points: 6
#     Node 15, Type 0, BuildingBlock: VOLQOD_clean_sbu_1, # of connection points: 6
#     Edge 16, Type (0, 0), BuildingBlock: TEMPAE_clean_linker_10, # of connection points: 2
#     Edge 17, Type (0, 0), BuildingBlock: TEMPAE_clean_linker_10, # of connection points: 2
#     Edge 18, Type (0, 0), BuildingBlock: TEMPAE_clean_linker_10, # of connection points: 2
#     Edge 19, Type (0, 0), BuildingBlock: TEMPAE_clean_linker_10, # of connection points: 2
#     Edge 20, Type (0, 0), BuildingBlock: TEMPAE_clean_linker_10, # of connection points: 2
#     Edge 21, Type (0, 0), BuildingBlock: TEMPAE_clean_linker_10, # of connection points: 2
#     Edge 22, Type (0, 0), BuildingBlock: TEMPAE_clean_linker_10, # of connection points: 2
#     Edge 23, Type (0, 0), BuildingBlock: TEMPAE_clean_linker_10, # of connection points: 2
#     Edge 24, Type (0, 0), BuildingBlock: TEMPAE_clean_linker_10, # of connection points: 2
#     Edge 25, Type (0, 0), BuildingBlock: TEMPAE_clean_linker_10, # of connection points: 2
#     Edge 26, Type (0, 0), BuildingBlock: TEMPAE_clean_linker_10, # of connection points: 2
#     Edge 27, Type (0, 0), BuildingBlock: TEMPAE_clean_linker_10, # of connection points: 2
#     Edge 28, Type (0, 0), BuildingBlock: TEMPAE_clean_linker_10, # of connection points: 2
#     Edge 29, Type (0, 0), BuildingBlock: TEMPAE_clean_linker_10, # of connection points: 2
#     Edge 30, Type (0, 0), BuildingBlock: TEMPAE_clean_linker_10, # of connection points: 2
#     Edge 31, Type (0, 0), BuildingBlock: TEMPAE_clean_linker_10, # of connection points: 2
#     Edge 32, Type (0, 0), BuildingBlock: TEMPAE_clean_linker_10, # of connection points: 2
#     Edge 33, Type (0, 0), BuildingBlock: TEMPAE_clean_linker_10, # of connection points: 2
#     Edge 34, Type (0, 0), BuildingBlock: TEMPAE_clean_linker_10, # of connection points: 2
#     Edge 35, Type (0, 0), BuildingBlock: TEMPAE_clean_linker_10, # of connection points: 2
#     Edge 36, Type (0, 0), BuildingBlock: TEMPAE_clean_linker_10, # of connection points: 2
#     Edge 37, Type (0, 0), BuildingBlock: TEMPAE_clean_linker_10, # of connection points: 2
#     Edge 38, Type (0, 0), BuildingBlock: TEMPAE_clean_linker_10, # of connection points: 2
#     Edge 39, Type (0, 0), BuildingBlock: TEMPAE_clean_linker_10, # of connection points: 2
#     Edge 40, Type (0, 0), BuildingBlock: TEMPAE_clean_linker_10, # of connection points: 2
#     Edge 41, Type (0, 0), BuildingBlock: TEMPAE_clean_linker_10, # of connection points: 2
#     Edge 42, Type (0, 0), BuildingBlock: TEMPAE_clean_linker_10, # of connection points: 2
#     Edge 43, Type (0, 0), BuildingBlock: TEMPAE_clean_linker_10, # of connection points: 2
#     Edge 44, Type (0, 0), BuildingBlock: TEMPAE_clean_linker_10, # of connection points: 2
#     Edge 45, Type (0, 0), BuildingBlock: TEMPAE_clean_linker_10, # of connection points: 2
#     Edge 46, Type (0, 0), BuildingBlock: TEMPAE_clean_linker_10, # of connection points: 2
#     Edge 47, Type (0, 0), BuildingBlock: TEMPAE_clean_linker_10, # of connection points: 2
#     Edge 48, Type (0, 0), BuildingBlock: TEMPAE_clean_linker_10, # of connection points: 2
#     Edge 49, Type (0, 0), BuildingBlock: TEMPAE_clean_linker_10, # of connection points: 2
#     Edge 50, Type (0, 0), BuildingBlock: TEMPAE_clean_linker_10, # of connection points: 2
#     Edge 51, Type (0, 0), BuildingBlock: TEMPAE_clean_linker_10, # of connection points: 2
#     Edge 52, Type (0, 0), BuildingBlock: TEMPAE_clean_linker_10, # of connection points: 2
#     Edge 53, Type (0, 0), BuildingBlock: TEMPAE_clean_linker_10, # of connection points: 2
#     Edge 54, Type (0, 0), BuildingBlock: TEMPAE_clean_linker_10, # of connection points: 2
#     Edge 55, Type (0, 0), BuildingBlock: TEMPAE_clean_linker_10, # of connection points: 2
#     Edge 56, Type (0, 0), BuildingBlock: TEMPAE_clean_linker_10, # of connection points: 2
#     Edge 57, Type (0, 0), BuildingBlock: TEMPAE_clean_linker_10, # of connection points: 2
#     Edge 58, Type (0, 0), BuildingBlock: TEMPAE_clean_linker_10, # of connection points: 2
#     Edge 59, Type (0, 0), BuildingBlock: TEMPAE_clean_linker_10, # of connection points: 2
#     Edge 60, Type (0, 0), BuildingBlock: TEMPAE_clean_linker_10, # of connection points: 2
#     Edge 61, Type (0, 0), BuildingBlock: TEMPAE_clean_linker_10, # of connection points: 2
#     Edge 62, Type (0, 0), BuildingBlock: TEMPAE_clean_linker_10, # of connection points: 2
#     Edge 63, Type (0, 0), BuildingBlock: TEMPAE_clean_linker_10, # of connection points: 2
# Relax obj value: 0.405
# Max RMSD: 0.246
# Mean RMSD: 0.242
data_MOF--net-whk--node1-VOLQOD_clean_sbu_1--edge1-TEMPAE_clean_linker_10
_symmetry_space_group_name_H-M    P1
_symmetry_Int_Tables_number       1
_symmetry_cell_setting            triclinic
loop_
_symmetry_equiv_pos_as_xyz
'x, y, z'
_cell_length_a     37.45229
_cell_length_b     37.477534
_cell_length_c     55.61224
_cell_angle_alpha  89.956453
_cell_angle_beta   90.019917
_cell_angle_gamma 89.946429
loop_
_atom_site_label
_atom_site_type_symbol
_atom_site_fract_x
_atom_site_fract_y
_atom_site_fract_z
_atom_type_partial_charge
O0 O 0.59145 0.18455 0.44765 0.0
Zn1 Zn 0.5854 0.18984 0.4123 0.0
O2 O 0.56245 0.14984 0.39839 0.0
Zn3 Zn 0.59668 0.12213 0.38123 0.0
Zn4 Zn 0.54301 0.12513 0.42568 0.0
Zn5 Zn 0.52747 0.16466 0.37576 0.0
O6 O 0.57548 0.10269 0.35055 0.0
O7 O 0.54167 0.14987 0.34183 0.0
O8 O 0.63136 0.19899 0.39647 0.0
O9 O 0.63687 0.15417 0.37057 0.0
O10 O 0.61728 0.08598 0.40433 0.0
O11 O 0.58013 0.08806 0.43564 0.0
O12 O 0.49403 0.10552 0.41658 0.0
O13 O 0.5551 0.23286 0.4078 0.0
O14 O 0.48374 0.1376 0.38352 0.0
O15 O 0.51563 0.21713 0.37994 0.0
C16 C 0.56425 0.1798 0.46093 0.0
C17 C 0.55756 0.12116 0.33545 0.0
C18 C 0.60855 0.0763 0.42558 0.0
C19 C 0.64767 0.18358 0.37937 0.0
C20 C 0.47367 0.11505 0.39923 0.0
C21 C 0.52865 0.24021 0.39435 0.0
O22 O 0.53827 0.16069 0.45354 0.0
O23 O 0.29115 0.57864 0.43941 0.0
Zn24 Zn 0.30191 0.57275 0.40439 0.0
O25 O 0.34874 0.55353 0.39982 0.0
Zn26 Zn 0.37902 0.58923 0.38576 0.0
Zn27 Zn 0.36656 0.53953 0.43113 0.0
Zn28 Zn 0.34658 0.51391 0.37799 0.0
O29 O 0.40364 0.57147 0.35624 0.0
O30 O 0.3659 0.52855 0.34518 0.0
O31 O 0.29497 0.61847 0.38661 0.0
O32 O 0.34962 0.62957 0.37338 0.0
O33 O 0.41117 0.61096 0.41063 0.0
O34 O 0.3985 0.57962 0.44349 0.0
O35 O 0.39408 0.49267 0.42799 0.0
O36 O 0.26558 0.53809 0.39316 0.0
O37 O 0.38014 0.47726 0.39037 0.0
O38 O 0.29601 0.49316 0.37703 0.0
C39 C 0.29881 0.55715 0.45641 0.0
C40 C 0.39137 0.55013 0.34044 0.0
C41 C 0.41426 0.60573 0.43319 0.0
C42 C 0.31678 0.63772 0.37483 0.0
C43 C 0.39686 0.47173 0.40995 0.0
C44 C 0.26655 0.5073 0.38364 0.0
O45 O 0.32495 0.53537 0.45468 0.0
O46 O 0.9099 0.30122 0.44215 0.0
Zn47 Zn 0.91877 0.30232 0.40673 0.0
O48 O 0.94293 0.3437 0.39666 0.0
Zn49 Zn 0.90959 0.37424 0.3808 0.0
Zn50 Zn 0.96098 0.36333 0.42599 0.0
Zn51 Zn 0.97856 0.33173 0.37366 0.0
O52 O 0.93273 0.39827 0.35237 0.0
O53 O 0.96294 0.35002 0.34077 0.0
O54 O 0.87661 0.29401 0.38645 0.0
O55 O 0.87061 0.34444 0.36583 0.0
O56 O 0.88738 0.40599 0.4059 0.0
O57 O 0.92265 0.39846 0.43786 0.0
O58 O 0.01056 0.38479 0.41864 0.0
O59 O 0.94956 0.26111 0.40097 0.0
O60 O 0.02141 0.35978 0.38293 0.0
O61 O 0.99069 0.27836 0.3748 0.0
C62 C 0.93675 0.30281 0.45617 0.0
C63 C 0.94839 0.38013 0.33603 0.0
C64 C 0.89469 0.4118 0.42801 0.0
C65 C 0.86156 0.31237 0.37012 0.0
C66 C 0.03082 0.37979 0.40033 0.0
C67 C 0.97634 0.25423 0.38784 0.0
O68 O 0.96345 0.32259 0.45086 0.0
O69 O 0.1536 0.94903 0.34078 0.0
Zn70 Zn 0.186 0.94571 0.36922 0.0
O71 O 0.15913 0.94465 0.39927 0.0
Zn72 Zn 0.16879 0.98753 0.41778 0.0
Zn73 Zn 0.10813 0.94027 0.39197 0.0
Zn74 Zn 0.17549 0.90524 0.41841 0.0
O75 O 0.18743 0.97842 0.45135 0.0
O76 O 0.19955 0.92072 0.44886 0.0
O77 O 0.22264 0.98472 0.36951 0.0
O78 O 0.20921 0.01388 0.40298 0.0
O79 O 0.12629 0.01937 0.4176 0.0
O80 O 0.08397 0.98721 0.39972 0.0
O81 O 0.08579 0.89826 0.41056 0.0
O82 O 0.21378 0.9006 0.36434 0.0
O83 O 0.13473 0.87367 0.4263 0.0
O84 O 0.21033 0.87581 0.40046 0.0
C85 C 0.12093 0.94067 0.33789 0.0
C86 C 0.20137 0.95024 0.46006 0.0
C87 C 0.09468 0.0161 0.40947 0.0
C88 C 0.22867 0.00964 0.3845 0.0
C89 C 0.10123 0.8736 0.42261 0.0
C90 C 0.22232 0.87621 0.37911 0.0
O91 O 0.10077 0.93372 0.35582 0.0
O92 O 0.04426 0.84751 0.16432 0.0
Zn93 Zn 0.04891 0.81697 0.13498 0.0
O94 O 0.05118 0.84634 0.10597 0.0
Zn95 Zn 0.01064 0.83578 0.08586 0.0
Zn96 Zn 0.05173 0.8971 0.11454 0.0
Zn97 Zn 0.09226 0.83346 0.08747 0.0
O98 O 0.02202 0.82413 0.05141 0.0
O99 O 0.07918 0.81076 0.05603 0.0
O100 O 0.01107 0.77878 0.13258 0.0
O101 O 0.9877 0.79127 0.09696 0.0
O102 O 0.97478 0.87378 0.08944 0.0
O103 O 0.00235 0.91842 0.10819 0.0
O104 O 0.09244 0.92317 0.0965 0.0
O105 O 0.09418 0.78949 0.13971 0.0
O106 O 0.12165 0.87643 0.0813 0.0
O107 O 0.122 0.79837 0.10501 0.0
C108 C 0.05203 0.88012 0.16819 0.0
C109 C 0.05078 0.8104 0.04349 0.0
C110 C 0.9744 0.90466 0.09887 0.0
C111 C 0.9898 0.77146 0.11541 0.0
C112 C 0.11892 0.90977 0.08508 0.0
C113 C 0.12008 0.7836 0.12554 0.0
O114 O 0.05857 0.90164 0.15089 0.0
O115 O 0.64319 0.05166 0.1601 0.0
Zn116 Zn 0.67396 0.05452 0.1309 0.0
O117 O 0.6462 0.0514 0.1014 0.0
Zn118 Zn 0.65925 0.00822 0.08448 0.0
Zn119 Zn 0.59556 0.05271 0.10962 0.0
Zn120 Zn 0.6588 0.08965 0.08018 0.0
O121 O 0.67468 0.01536 0.04992 0.0
O122 O 0.68885 0.07257 0.05273 0.0
O123 O 0.7156 0.0206 0.13134 0.0
O124 O 0.70479 0.99007 0.09801 0.0
O125 O 0.62087 0.97177 0.08861 0.0
O126 O 0.57627 0.00219 0.10558 0.0
O127 O 0.56934 0.09 0.08834 0.0
O128 O 0.6966 0.10214 0.13329 0.0
O129 O 0.61488 0.11233 0.06728 0.0
O130 O 0.68684 0.12665 0.0976 0.0
C131 C 0.61054 0.06003 0.16324 0.0
C132 C 0.69086 0.04277 0.04187 0.0
C133 C 0.58956 0.97307 0.09758 0.0
C134 C 0.72469 -0.00257 0.11581 0.0
C135 C 0.58174 0.1109 0.07213 0.0
C136 C 0.70007 0.12787 0.11865 0.0
O137 O 0.58935 0.06441 0.14543 0.0
O138 O 0.4085 0.69401 0.0636 0.0
Zn139 Zn 0.41375 0.68857 0.09922 0.0
O140 O 0.43727 0.64555 0.10769 0.0
Zn141 Zn 0.40292 0.61374 0.12136 0.0
Zn142 Zn 0.4558 0.62753 0.07776 0.0
Zn143 Zn 0.47394 0.65439 0.13103 0.0
O144 O 0.42188 0.59038 0.15106 0.0
O145 O 0.45913 0.63317 0.1633 0.0
O146 O 0.36789 0.69416 0.11663 0.0
O147 O 0.36064 0.64099 0.13339 0.0
O148 O 0.38401 0.58124 0.09572 0.0
O149 O 0.41824 0.59355 0.06406 0.0
O150 O 0.50405 0.60382 0.08434 0.0
O151 O 0.4443 0.72876 0.10846 0.0
O152 O 0.51584 0.62556 0.12086 0.0
O153 O 0.48752 0.70769 0.13177 0.0
C154 C 0.43503 0.69096 0.04942 0.0
C155 C 0.44072 0.60507 0.16741 0.0
C156 C 0.39133 0.57779 0.07344 0.0
C157 C 0.35048 0.67294 0.13006 0.0
C158 C 0.5243 0.60645 0.1028 0.0
C159 C 0.4723 0.73364 0.12087 0.0
O160 O 0.46035 0.66917 0.05413 0.0
O161 O 0.79631 0.409 0.06283 0.0
Zn162 Zn 0.802 0.41631 0.09824 0.0
O163 O 0.8459 0.43929 0.10553 0.0
Zn164 Zn 0.87913 0.40644 0.1198 0.0
Zn165 Zn 0.8638 0.45772 0.07552 0.0
Zn166 Zn 0.83675 0.47514 0.12897 0.0
O167 O 0.90239 0.42712 0.14947 0.0
O168 O 0.85601 0.45971 0.1615 0.0
O169 O 0.79799 0.37163 0.11685 0.0
O170 O 0.85242 0.3637 0.13197 0.0
O171 O 0.91277 0.38818 0.09448 0.0
O172 O 0.89999 0.42157 0.06249 0.0
O173 O 0.88453 0.50757 0.08167 0.0
O174 O 0.76089 0.44712 0.10701 0.0
O175 O 0.8635 0.51762 0.11859 0.0
O176 O 0.78465 0.48977 0.12946 0.0
C177 C 0.80012 0.43417 0.04764 0.0
C178 C 0.88538 0.44362 0.16596 0.0
C179 C 0.91666 0.39545 0.07221 0.0
C180 C 0.82003 0.35414 0.12965 0.0
C181 C 0.88083 0.52767 0.10012 0.0
C182 C 0.75777 0.47558 0.11919 0.0
O183 O 0.8223 0.45947 0.05145 0.0
O184 O 0.41166 0.80654 0.55813 0.0
Zn185 Zn 0.41744 0.80295 0.59368 0.0
O186 O 0.43975 0.84342 0.60708 0.0
Zn187 Zn 0.40527 0.87225 0.62298 0.0
Zn188 Zn 0.45986 0.86576 0.57926 0.0
Zn189 Zn 0.47383 0.83036 0.63095 0.0
O190 O 0.42507 0.89273 0.65368 0.0
O191 O 0.45587 0.84438 0.66428 0.0
O192 O 0.37141 0.79381 0.60955 0.0
O193 O 0.3641 0.84117 0.63313 0.0
O194 O 0.38657 0.90816 0.59927 0.0
O195 O 0.42323 0.90236 0.56793 0.0
O196 O 0.5074 0.88715 0.58904 0.0
O197 O 0.44921 0.76152 0.59873 0.0
O198 O 0.51659 0.86075 0.62457 0.0
O199 O 0.4873 0.77783 0.62745 0.0
C200 C 0.4395 0.80948 0.54523 0.0
C201 C 0.44049 0.87378 0.66968 0.0
C202 C 0.39553 0.91607 0.57777 0.0
C203 C 0.35404 0.8108 0.62548 0.0
C204 C 0.52632 0.882 0.60789 0.0
C205 C 0.47527 0.75474 0.61263 0.0
O206 O 0.46575 0.82829 0.55256 0.0
O207 O 0.69991 0.41124 0.55984 0.0
Zn208 Zn 0.69696 0.4265 0.59408 0.0
O209 O 0.65067 0.44059 0.60335 0.0
Zn210 Zn 0.62889 0.40124 0.61917 0.0
Zn211 Zn 0.62918 0.45233 0.57294 0.0
Zn212 Zn 0.65413 0.47942 0.62571 0.0
O213 O 0.60233 0.41699 0.64836 0.0
O214 O 0.63498 0.46422 0.65879 0.0
O215 O 0.7162 0.39004 0.6161 0.0
O216 O 0.66681 0.36924 0.6329 0.0
O217 O 0.59886 0.37439 0.59531 0.0
O218 O 0.5981 0.40999 0.56315 0.0
O219 O 0.60134 0.49871 0.5773 0.0
O220 O 0.72806 0.46818 0.5963 0.0
O221 O 0.62221 0.51728 0.61289 0.0
O222 O 0.70447 0.50083 0.62569 0.0
C223 C 0.69317 0.43441 0.54377 0.0
C224 C 0.61205 0.44004 0.66389 0.0
C225 C 0.58925 0.38094 0.57371 0.0
C226 C 0.70063 0.36925 0.63075 0.0
C227 C 0.6029 0.52167 0.59427 0.0
C228 C 0.7292 0.49466 0.61043 0.0
O229 O 0.6689 0.45784 0.54731 0.0
O230 O 0.07758 0.70767 0.5668 0.0
Zn231 Zn 0.0694 0.69904 0.60161 0.0
O232 O 0.05174 0.65249 0.60817 0.0
Zn233 Zn 0.08962 0.62598 0.62336 0.0
Zn234 Zn 0.03888 0.63176 0.5773 0.0
Zn235 Zn 0.01212 0.65594 0.63036 0.0
O236 O 0.0715 0.59833 0.65138 0.0
O237 O 0.02424 0.63084 0.66205 0.0
O238 O 0.11174 0.71032 0.62107 0.0
O239 O 0.12616 0.65883 0.63801 0.0
O240 O 0.11434 0.59551 0.59885 0.0
O241 O 0.07797 0.597 0.56721 0.0
O242 O 0.98973 0.60878 0.58004 0.0
O243 O 0.0342 0.73489 0.61109 0.0
O244 O 0.97161 0.63029 0.61548 0.0
O245 O 0.99495 0.70737 0.63449 0.0
C246 C 0.05863 0.69737 0.54913 0.0
C247 C 0.04741 0.60663 0.66656 0.0
C248 C 0.10677 0.5865 0.57734 0.0
C249 C 0.13089 0.69219 0.63539 0.0
C250 C 0.96599 0.61265 0.59633 0.0
C251 C 0.00681 0.73557 0.62443 0.0
O252 O 0.03802 0.67038 0.55108 0.0
O253 O 0.78855 0.07782 0.56379 0.0
Zn254 Zn 0.79539 0.07641 0.59938 0.0
O255 O 0.84072 0.0572 0.60795 0.0
Zn256 Zn 0.87085 0.09327 0.62172 0.0
Zn257 Zn 0.86102 0.03755 0.57886 0.0
Zn258 Zn 0.83453 0.02324 0.63305 0.0
O259 O 0.89587 0.07685 0.65205 0.0
O260 O 0.85116 0.04307 0.66504 0.0
O261 O 0.78877 0.12392 0.61391 0.0
O262 O 0.8402 0.13393 0.63267 0.0
O263 O 0.90286 0.11283 0.59591 0.0
O264 O 0.89503 0.07549 0.56522 0.0
O265 O 0.8852 0.98994 0.58752 0.0
O266 O 0.75644 0.0451 0.61144 0.0
O267 O 0.86567 0.98261 0.62511 0.0
O268 O 0.78394 0.00506 0.63433 0.0
C269 C 0.79666 0.05338 0.54886 0.0
C270 C 0.87942 0.06109 0.66912 0.0
C271 C 0.90853 0.10398 0.57408 0.0
C272 C 0.80833 0.14283 0.62755 0.0
C273 C 0.88393 0.97211 0.60718 0.0
C274 C 0.75571 0.01744 0.62464 0.0
O275 O 0.82144 0.0309 0.55351 0.0
O276 O 0.91168 0.18929 0.95197 0.0
Zn277 Zn 0.91421 0.18912 0.9161 0.0
O278 O 0.93836 0.14851 0.90399 0.0
Zn279 Zn 0.90591 0.11697 0.8883 0.0
Zn280 Zn 0.95924 0.12785 0.93215 0.0
Zn281 Zn 0.97265 0.16153 0.88048 0.0
O282 O 0.9258 0.09882 0.85684 0.0
O283 O 0.95465 0.14863 0.84706 0.0
O284 O 0.86632 0.19297 0.90181 0.0
O285 O 0.86166 0.14423 0.87926 0.0
O286 O 0.8902 0.07971 0.91201 0.0
O287 O 0.9229 0.09161 0.94454 0.0
O288 O 0.0065 0.10543 0.92235 0.0
O289 O 0.94214 0.23248 0.90814 0.0
O290 O 0.01503 0.13083 0.88647 0.0
O291 O 0.98598 0.21367 0.88438 0.0
C292 C 0.94036 0.1876 0.96415 0.0
C293 C 0.94005 0.11911 0.84109 0.0
C294 C 0.89743 0.07476 0.93421 0.0
C295 C 0.84932 0.17376 0.88688 0.0
C296 C 0.02492 0.10979 0.90321 0.0
C297 C 0.97044 0.23842 0.89619 0.0
O298 O 0.966 0.16761 0.9572 0.0
O299 O 0.28756 0.91808 0.94495 0.0
Zn300 Zn 0.29558 0.91833 0.90964 0.0
O301 O 0.34083 0.9382 0.90117 0.0
Zn302 Zn 0.37024 0.90219 0.88637 0.0
Zn303 Zn 0.36233 0.95577 0.93065 0.0
Zn304 Zn 0.33425 0.97424 0.87711 0.0
O305 O 0.39549 0.91981 0.85664 0.0
O306 O 0.35358 0.95795 0.84476 0.0
O307 O 0.28974 0.87007 0.89619 0.0
O308 O 0.33921 0.86201 0.87476 0.0
O309 O 0.40299 0.88137 0.91129 0.0
O310 O 0.39754 0.91803 0.94254 0.0
O311 O 0.38514 0.00415 0.92368 0.0
O312 O 0.25606 0.94825 0.89683 0.0
O313 O 0.36141 0.01664 0.88774 0.0
O314 O 0.28286 0.98966 0.87478 0.0
C315 C 0.29775 0.94006 0.96096 0.0
C316 C 0.38083 0.93858 0.84025 0.0
C317 C 0.41034 0.88976 0.93296 0.0
C318 C 0.30831 0.85209 0.88144 0.0
C319 C 0.3804 0.02516 0.90582 0.0
C320 C 0.25476 0.97602 0.88376 0.0
O321 O 0.32435 0.96067 0.95724 0.0
O322 O 0.57331 0.2977 0.944 0.0
Zn323 Zn 0.56274 0.29764 0.90889 0.0
O324 O 0.54949 0.34282 0.89712 0.0
Zn325 Zn 0.5906 0.36404 0.88308 0.0
Zn326 Zn 0.53229 0.3662 0.92585 0.0
Zn327 Zn 0.51503 0.33648 0.87214 0.0
O328 O 0.57857 0.38958 0.85249 0.0
O329 O 0.53326 0.35585 0.84002 0.0
O330 O 0.60231 0.27749 0.88989 0.0
O331 O 0.62465 0.32569 0.87242 0.0
O332 O 0.61346 0.39495 0.90805 0.0
O333 O 0.57284 0.3991 0.9373 0.0
O334 O 0.48473 0.39088 0.91747 0.0
O335 O 0.52202 0.26555 0.90492 0.0
O336 O 0.47476 0.36746 0.88119 0.0
O337 O 0.49551 0.28544 0.87169 0.0
C338 C 0.54846 0.30568 0.9586 0.0
C339 C 0.55709 0.37957 0.83603 0.0
C340 C 0.60371 0.40646 0.92863 0.0
C341 C 0.6247 0.29212 0.87589 0.0
C342 C 0.46541 0.38743 0.89858 0.0
C343 C 0.49889 0.26232 0.88842 0.0
O344 O 0.52484 0.32875 0.95276 0.0
O345 O 0.20158 0.58006 0.93782 0.0
Zn346 Zn 0.19214 0.57112 0.90297 0.0
O347 O 0.14544 0.554 0.89677 0.0
Zn348 Zn 0.11899 0.59196 0.88187 0.0
Zn349 Zn 0.12708 0.54118 0.9281 0.0
Zn350 Zn 0.14676 0.51431 0.87488 0.0
O351 O 0.09082 0.57413 0.85393 0.0
O352 O 0.12533 0.52872 0.8425 0.0
O353 O 0.20389 0.61261 0.88291 0.0
O354 O 0.15198 0.62832 0.86704 0.0
O355 O 0.08957 0.61664 0.90689 0.0
O356 O 0.09621 0.58273 0.93953 0.0
O357 O 0.09877 0.49488 0.92521 0.0
O358 O 0.2265 0.53456 0.89361 0.0
O359 O 0.11381 0.47788 0.8881 0.0
O360 O 0.19731 0.49316 0.87286 0.0
C361 C 0.19439 0.55765 0.95431 0.0
C362 C 0.1005 0.55133 0.83823 0.0
C363 C 0.08384 0.61059 0.92913 0.0
C364 C 0.18557 0.63223 0.86899 0.0
C365 C 0.09658 0.47316 0.90757 0.0
C366 C 0.22611 0.50558 0.88189 0.0
O367 O 0.16857 0.53568 0.95197 0.0
C368 C 0.56536 0.07509 0.30326 0.0
C369 C 0.55759 0.11041 0.30978 0.0
C370 C 0.56918 0.06532 0.27901 0.0
C371 C 0.56599 0.09166 0.26086 0.0
C372 C 0.55669 0.12704 0.26728 0.0
C373 C 0.55224 0.1359 0.29165 0.0
C374 C 0.57833 0.02714 0.27292 0.0
C375 C 0.55366 0.15608 0.24855 0.0
C376 C 0.62344 0.0779 0.20548 0.0
C377 C 0.59835 0.06744 0.18811 0.0
C378 C 0.61307 0.08618 0.22902 0.0
C379 C 0.57672 0.08323 0.23567 0.0
C380 C 0.55119 0.07231 0.21834 0.0
C381 C 0.56226 0.06497 0.19463 0.0
C382 C 0.6411 0.09842 0.24674 0.0
C383 C 0.51233 0.06814 0.22491 0.0
H384 H 0.56913 0.05515 0.31716 0.0
H385 H 0.54632 0.16327 0.29654 0.0
H386 H 0.56123 0.01741 0.25801 0.0
H387 H 0.60645 0.02557 0.26676 0.0
H388 H 0.57506 0.00906 0.28861 0.0
H389 H 0.54285 0.18129 0.25614 0.0
H390 H 0.58045 0.16159 0.24088 0.0
H391 H 0.53622 0.14741 0.23354 0.0
H392 H 0.65133 0.08035 0.20054 0.0
H393 H 0.54278 0.05682 0.1813 0.0
H394 H 0.64256 0.07954 0.26208 0.0
H395 H 0.63375 0.12493 0.25413 0.0
H396 H 0.66803 0.10041 0.23848 0.0
H397 H 0.5096 0.0487 0.23985 0.0
H398 H 0.49593 0.05887 0.20948 0.0
H399 H 0.50145 0.09394 0.23136 0.0
C400 C 0.46672 0.59009 0.2077 0.0
C401 C 0.43725 0.59167 0.19223 0.0
C402 C 0.46263 0.57914 0.23174 0.0
C403 C 0.42805 0.57126 0.24065 0.0
C404 C 0.39834 0.57249 0.22492 0.0
C405 C 0.40344 0.58201 0.2008 0.0
C406 C 0.49511 0.57683 0.24773 0.0
C407 C 0.36085 0.56567 0.23383 0.0
C408 C 0.40903 0.52519 0.30032 0.0
C409 C 0.40359 0.55457 0.31542 0.0
C410 C 0.41912 0.5301 0.27616 0.0
C411 C 0.42215 0.56518 0.2668 0.0
C412 C 0.41677 0.59484 0.28212 0.0
C413 C 0.40824 0.58913 0.30633 0.0
C414 C 0.42597 0.49786 0.26059 0.0
C415 C 0.41836 0.63266 0.27273 0.0
H416 H 0.4929 0.59733 0.20097 0.0
H417 H 0.38059 0.58361 0.18887 0.0
H418 H 0.49456 0.59878 0.26108 0.0
H419 H 0.49508 0.55131 0.25788 0.0
H420 H 0.52035 0.57878 0.23732 0.0
H421 H 0.34077 0.56694 0.21914 0.0
H422 H 0.35916 0.53906 0.24247 0.0
H423 H 0.3537 0.5858 0.24765 0.0
H424 H 0.4056 0.49847 0.30743 0.0
H425 H 0.4036 0.61188 0.31798 0.0
H426 H 0.45158 0.50095 0.25077 0.0
H427 H 0.40453 0.49534 0.24695 0.0
H428 H 0.42696 0.4728 0.27127 0.0
H429 H 0.44481 0.63798 0.26455 0.0
H430 H 0.41356 0.65273 0.28707 0.0
H431 H 0.39799 0.6364 0.25845 0.0
C432 C 0.94354 0.42864 0.3052 0.0
C433 C 0.94564 0.3922 0.31076 0.0
C434 C 0.9373 0.44014 0.28149 0.0
C435 C 0.93174 0.41454 0.26314 0.0
C436 C 0.93459 0.37772 0.26862 0.0
C437 C 0.94208 0.36703 0.29229 0.0
C438 C 0.93568 0.47962 0.27622 0.0
C439 C 0.92795 0.34952 0.24976 0.0
C440 C 0.87296 0.43865 0.20987 0.0
C441 C 0.89788 0.44044 0.19112 0.0
C442 C 0.88373 0.4309 0.23348 0.0
C443 C 0.92047 0.42594 0.2386 0.0
C444 C 0.94594 0.42964 0.21995 0.0
C445 C 0.93428 0.43621 0.19632 0.0
C446 C 0.85561 0.42628 0.25269 0.0
C447 C 0.9854 0.42575 0.22483 0.0
H448 H 0.94649 0.44816 0.31944 0.0
H449 H 0.94331 0.33883 0.29657 0.0
H450 H 0.95248 0.48612 0.26038 0.0
H451 H 0.90787 0.48739 0.27178 0.0
H452 H 0.94476 0.49591 0.29174 0.0
H453 H 0.93206 0.32208 0.2568 0.0
H454 H 0.90012 0.35178 0.24304 0.0
H455 H 0.94594 0.35358 0.23417 0.0
H456 H 0.84477 0.44153 0.20588 0.0
H457 H 0.95363 0.43777 0.18186 0.0
H458 H 0.86103 0.44434 0.26804 0.0
H459 H 0.85644 0.39854 0.25969 0.0
H460 H 0.82826 0.43178 0.24588 0.0
H461 H 0.99327 0.44245 0.24042 0.0
H462 H 0.00186 0.43349 0.20905 0.0
H463 H 0.99159 0.39765 0.22949 0.0
C464 C 0.13141 0.93337 0.29384 0.0
C465 C 0.10722 0.93674 0.31299 0.0
C466 C 0.11956 0.92691 0.27035 0.0
C467 C 0.08251 0.92434 0.26568 0.0
C468 C 0.05782 0.92917 0.28471 0.0
C469 C 0.07048 0.93495 0.30822 0.0
C470 C 0.14686 0.92132 0.2507 0.0
C471 C 0.01809 0.92733 0.28033 0.0
C472 C 0.05863 0.92852 0.19923 0.0
C473 C 0.05609 0.89215 0.19347 0.0
C474 C 0.06527 0.9396 0.22298 0.0
C475 C 0.07016 0.9137 0.24126 0.0
C476 C 0.06652 0.87705 0.23567 0.0
C477 C 0.05924 0.86678 0.21195 0.0
C478 C 0.06825 0.97895 0.22836 0.0
C479 C 0.0721 0.84851 0.25451 0.0
H480 H 0.15987 0.93457 0.29731 0.0
H481 H 0.05161 0.93781 0.32287 0.0
H482 H 0.14469 0.89373 0.24361 0.0
H483 H 0.14168 0.93979 0.2355 0.0
H484 H 0.17462 0.92556 0.25711 0.0
H485 H 0.00246 0.93544 0.29639 0.0
H486 H 0.01057 0.94478 0.26501 0.0
H487 H 0.01048 0.89967 0.27545 0.0
H488 H 0.05592 0.94831 0.18513 0.0
H489 H 0.0574 0.8386 0.20774 0.0
H490 H 0.09638 0.98568 0.23262 0.0
H491 H 0.05195 0.98591 0.24434 0.0
H492 H 0.05948 0.99569 0.21295 0.0
H493 H 0.10017 0.84921 0.2609 0.0
H494 H 0.06638 0.82133 0.24755 0.0
H495 H 0.05474 0.85353 0.2703 0.0
C496 C 0.36815 0.93519 0.79631 0.0
C497 C 0.39305 0.93429 0.81512 0.0
C498 C 0.37817 0.9265 0.77271 0.0
C499 C 0.41423 0.91783 0.76765 0.0
C500 C 0.43983 0.91861 0.7864 0.0
C501 C 0.42881 0.9262 0.81001 0.0
C502 C 0.34984 0.92506 0.75339 0.0
C503 C 0.47871 0.91074 0.78159 0.0
C504 C 0.43123 0.85929 0.71301 0.0
C505 C 0.43762 0.8848 0.69511 0.0
C506 C 0.42408 0.86966 0.7368 0.0
C507 C 0.42458 0.90635 0.74295 0.0
C508 C 0.43287 0.93207 0.72514 0.0
C509 C 0.43861 0.92103 0.70131 0.0
C510 C 0.41434 0.84146 0.75506 0.0
C511 C 0.43489 0.9713 0.73113 0.0
H512 H 0.3404 0.94099 0.80024 0.0
H513 H 0.44813 0.9256 0.82453 0.0
H514 H 0.35698 0.94304 0.73831 0.0
H515 H 0.34817 0.8976 0.74601 0.0
H516 H 0.32307 0.93283 0.76024 0.0
H517 H 0.49574 0.91594 0.79757 0.0
H518 H 0.48194 0.88237 0.77636 0.0
H519 H 0.4885 0.92722 0.76638 0.0
H520 H 0.43007 0.8313 0.70816 0.0
H521 H 0.44376 0.94076 0.68747 0.0
H522 H 0.38677 0.84617 0.76165 0.0
H523 H 0.43238 0.84305 0.77083 0.0
H524 H 0.41584 0.81406 0.7475 0.0
H525 H 0.40792 0.98141 0.73578 0.0
H526 H 0.44543 0.98736 0.71591 0.0
H527 H 0.45224 0.97553 0.74706 0.0
C528 C 0.59674 0.40196 0.80341 0.0
C529 C 0.56222 0.3937 0.81141 0.0
C530 C 0.60301 0.41256 0.77959 0.0
C531 C 0.57389 0.41615 0.76352 0.0
C532 C 0.53872 0.40958 0.77184 0.0
C533 C 0.53335 0.39775 0.7956 0.0
C534 C 0.64103 0.41808 0.77132 0.0
C535 C 0.50688 0.41417 0.75549 0.0
C536 C 0.5954 0.46399 0.70468 0.0
C537 C 0.59983 0.43508 0.68899 0.0
C538 C 0.58523 0.45845 0.7288 0.0
C539 C 0.5808 0.42315 0.73753 0.0
C540 C 0.58522 0.39398 0.72166 0.0
C541 C 0.59409 0.40034 0.69757 0.0
C542 C 0.57964 0.49025 0.74498 0.0
C543 C 0.58199 0.35588 0.73031 0.0
H544 H 0.61918 0.39858 0.81553 0.0
H545 H 0.5066 0.3917 0.80181 0.0
H546 H 0.64778 0.39806 0.75733 0.0
H547 H 0.64409 0.44483 0.76305 0.0
H548 H 0.66055 0.41554 0.78627 0.0
H549 H 0.48124 0.41265 0.76548 0.0
H550 H 0.50828 0.44024 0.74605 0.0
H551 H 0.507 0.39303 0.74155 0.0
H552 H 0.59969 0.49087 0.69807 0.0
H553 H 0.59795 0.37784 0.68559 0.0
H554 H 0.60066 0.49086 0.75902 0.0
H555 H 0.55354 0.48812 0.75432 0.0
H556 H 0.58044 0.51584 0.7349 0.0
H557 H 0.60192 0.35074 0.74468 0.0
H558 H 0.58626 0.33622 0.71564 0.0
H559 H 0.55519 0.35129 0.73818 0.0
C560 C 0.08419 0.58339 0.70021 0.0
C561 C 0.05024 0.59142 0.69102 0.0
C562 C 0.08881 0.57316 0.72422 0.0
C563 C 0.05858 0.56962 0.73928 0.0
C564 C 0.02396 0.5755 0.72972 0.0
C565 C 0.02023 0.58713 0.70577 0.0
C566 C 0.12629 0.56838 0.73379 0.0
C567 C 0.99103 0.57064 0.74499 0.0
C568 C 0.08146 0.52499 0.79874 0.0
C569 C 0.08573 0.55474 0.8137 0.0
C570 C 0.06986 0.52911 0.77482 0.0
C571 C 0.06398 0.56385 0.76551 0.0
C572 C 0.06749 0.59382 0.7808 0.0
C573 C 0.0777 0.58882 0.80479 0.0
C574 C 0.06504 0.49644 0.75933 0.0
C575 C 0.06273 0.63143 0.77149 0.0
H576 H 0.10754 0.58701 0.68895 0.0
H577 H 0.99393 0.59307 0.69865 0.0
H578 H 0.13164 0.58864 0.74789 0.0
H579 H 0.12928 0.54176 0.74225 0.0
H580 H 0.14685 0.57113 0.71952 0.0
H581 H 0.96629 0.57019 0.73396 0.0
H582 H 0.99277 0.54545 0.75544 0.0
H583 H 0.98892 0.59287 0.75806 0.0
H584 H 0.08734 0.4986 0.8057 0.0
H585 H 0.08127 0.61192 0.81627 0.0
H586 H 0.08732 0.49454 0.74627 0.0
H587 H 0.03986 0.49834 0.74886 0.0
H588 H 0.06455 0.47155 0.77018 0.0
H589 H 0.0832 0.63706 0.75756 0.0
H590 H 0.06522 0.65172 0.78594 0.0
H591 H 0.03621 0.63448 0.76288 0.0
C592 C 0.86622 0.067 0.71289 0.0
C593 C 0.89138 0.06648 0.69424 0.0
C594 C 0.87635 0.075 0.73658 0.0
C595 C 0.91274 0.08155 0.74192 0.0
C596 C 0.93848 0.07985 0.72329 0.0
C597 C 0.9274 0.07293 0.69957 0.0
C598 C 0.8479 0.07747 0.75576 0.0
C599 C 0.97764 0.0856 0.72838 0.0
C600 C 0.93192 0.13625 0.79803 0.0
C601 C 0.93678 0.10953 0.81537 0.0
C602 C 0.9247 0.12753 0.77395 0.0
C603 C 0.92344 0.09122 0.76691 0.0
C604 C 0.93012 0.06419 0.78416 0.0
C605 C 0.93609 0.07365 0.80828 0.0
C606 C 0.91675 0.15714 0.7563 0.0
C607 C 0.9301 0.02524 0.77726 0.0
H608 H 0.83828 0.06244 0.70881 0.0
H609 H 0.94694 0.07238 0.6852 0.0
H610 H 0.8536 0.05823 0.77043 0.0
H611 H 0.848 0.10456 0.76381 0.0
H612 H 0.82077 0.07196 0.7486 0.0
H613 H 0.9945 0.08088 0.71226 0.0
H614 H 0.98209 0.11332 0.73466 0.0
H615 H 0.98659 0.06748 0.74298 0.0
H616 H 0.93209 0.16401 0.80351 0.0
H617 H 0.94009 0.05294 0.82164 0.0
H618 H 0.88895 0.15448 0.74962 0.0
H619 H 0.93467 0.15516 0.74049 0.0
H620 H 0.91991 0.18401 0.76444 0.0
H621 H 0.9027 0.01692 0.77219 0.0
H622 H 0.93949 0.00783 0.79216 0.0
H623 H 0.94746 0.02084 0.76136 0.0
C624 C 0.41371 0.11574 0.38 0.0
C625 C 0.43719 0.10048 0.39685 0.0
C626 C 0.37913 0.10263 0.3769 0.0
C627 C 0.36767 0.0734 0.39091 0.0
C628 C 0.391 0.05785 0.40805 0.0
C629 C 0.42558 0.07169 0.41089 0.0
C630 C 0.35484 0.1201 0.35863 0.0
C631 C 0.37945 0.02653 0.42327 0.0
C632 C 0.26864 0.05809 0.39914 0.0
C633 C 0.26235 0.02996 0.38304 0.0
C634 C 0.30273 0.07291 0.40159 0.0
C635 C 0.33113 0.05926 0.3876 0.0
C636 C 0.32465 0.03215 0.37046 0.0
C637 C 0.29023 0.0179 0.36829 0.0
C638 C 0.30861 0.10225 0.41978 0.0
C639 C 0.35438 0.01718 0.35513 0.0
H640 H 0.42225 0.13821 0.36916 0.0
H641 H 0.44356 0.0598 0.42391 0.0
H642 H 0.34644 0.10028 0.34495 0.0
H643 H 0.33028 0.12999 0.36757 0.0
H644 H 0.36787 0.14283 0.34929 0.0
H645 H 0.40084 0.0174 0.43568 0.0
H646 H 0.35564 0.03387 0.43406 0.0
H647 H 0.37166 0.00391 0.41153 0.0
H648 H 0.24719 0.06766 0.41053 0.0
H649 H 0.28565 0.99607 0.3559 0.0
H650 H 0.32142 0.12561 0.41109 0.0
H651 H 0.32697 0.09274 0.43408 0.0
H652 H 0.2833 0.11112 0.42832 0.0
H653 H 0.36783 0.03896 0.34511 0.0
H654 H 0.34462 -0.00293 0.34202 0.0
H655 H 0.37477 0.00445 0.36681 0.0
C656 C 0.42104 0.41732 0.43035 0.0
C657 C 0.42091 0.44074 0.41075 0.0
C658 C 0.4401 0.38501 0.42921 0.0
C659 C 0.45995 0.37674 0.40822 0.0
C660 C 0.46152 0.40149 0.38905 0.0
C661 C 0.4416 0.43297 0.39044 0.0
C662 C 0.43749 0.35896 0.44985 0.0
C663 C 0.48316 0.39415 0.36667 0.0
C664 C 0.52949 0.30319 0.40893 0.0
C665 C 0.51145 0.27549 0.39706 0.0
C666 C 0.5129 0.33616 0.41307 0.0
C667 C 0.47728 0.34137 0.40541 0.0
C668 C 0.45878 0.31342 0.39364 0.0
C669 C 0.47621 0.28089 0.38941 0.0
C670 C 0.53366 0.36553 0.42531 0.0
C671 C 0.42055 0.31789 0.38552 0.0
H672 H 0.4048 0.42335 0.44596 0.0
H673 H 0.44168 0.45138 0.37538 0.0
H674 H 0.42293 0.33476 0.44387 0.0
H675 H 0.46447 0.35029 0.45566 0.0
H676 H 0.42327 0.3705 0.46556 0.0
H677 H 0.48418 0.41758 0.35444 0.0
H678 H 0.51087 0.38654 0.37155 0.0
H679 H 0.47133 0.37141 0.35671 0.0
H680 H 0.55673 0.29918 0.41495 0.0
H681 H 0.46196 0.25943 0.38056 0.0
H682 H 0.51921 0.37486 0.44153 0.0
H683 H 0.53618 0.38872 0.41301 0.0
H684 H 0.56085 0.35679 0.43076 0.0
H685 H 0.40368 0.3266 0.40083 0.0
H686 H 0.40926 0.29285 0.37802 0.0
H687 H 0.41894 0.33895 0.37154 0.0
C688 C 0.08336 0.4125 0.41821 0.0
C689 C 0.06581 0.39809 0.39818 0.0
C690 C 0.11695 0.429 0.41574 0.0
C691 C 0.13294 0.43156 0.39267 0.0
C692 C 0.11518 0.41729 0.37244 0.0
C693 C 0.08206 0.40063 0.37546 0.0
C694 C 0.13531 0.44375 0.43776 0.0
C695 C 0.1309 0.4201 0.34748 0.0
C696 C 0.20021 0.50547 0.38198 0.0
C697 C 0.23276 0.48695 0.3829 0.0
C698 C 0.16761 0.48771 0.38496 0.0
C699 C 0.1675 0.45052 0.38935 0.0
C700 C 0.20022 0.43148 0.38979 0.0
C701 C 0.23253 0.44991 0.38634 0.0
C702 C 0.1333 0.50887 0.38375 0.0
C703 C 0.20113 0.39184 0.39457 0.0
H704 H 0.07108 0.41051 0.4358 0.0
H705 H 0.06863 0.38992 0.35978 0.0
H706 H 0.1624 0.43201 0.43949 0.0
H707 H 0.13865 0.47303 0.43592 0.0
H708 H 0.12013 0.43824 0.45451 0.0
H709 H 0.11384 0.4072 0.33365 0.0
H710 H 0.13442 0.44859 0.34257 0.0
H711 H 0.15768 0.40747 0.34702 0.0
H712 H 0.20028 0.53413 0.37931 0.0
H713 H 0.25765 0.4356 0.38744 0.0
H714 H 0.11899 0.50706 0.40117 0.0
H715 H 0.11545 0.49755 0.36978 0.0
H716 H 0.13799 0.53747 0.37957 0.0
H717 H 0.189 0.38613 0.41236 0.0
H718 H 0.22873 0.38095 0.39435 0.0
H719 H 0.18505 0.37754 0.38089 0.0
C720 C 0.08076 0.0783 0.42217 0.0
C721 C 0.07213 0.04837 0.40821 0.0
C722 C 0.06378 0.11111 0.41836 0.0
C723 C 0.03776 0.11409 0.40003 0.0
C724 C 0.02789 0.0837 0.3865 0.0
C725 C 0.04508 0.05107 0.39085 0.0
C726 C 0.07438 0.14282 0.43353 0.0
C727 C 5e-05 0.08596 0.3669 0.0
C728 C 0.97515 0.19272 0.4047 0.0
C729 C 0.99116 0.21766 0.38916 0.0
C730 C 0.98957 0.15868 0.40794 0.0
C731 C 0.02074 0.14908 0.39524 0.0
C732 C 0.03655 0.17355 0.37897 0.0
C733 C 0.02159 0.20771 0.37615 0.0
C734 C 0.97209 0.13347 0.42561 0.0
C735 C 0.06978 0.16394 0.36505 0.0
H736 H 0.10153 0.07632 0.43569 0.0
H737 H 0.03849 0.02812 0.37987 0.0
H738 H 0.08582 0.16398 0.4219 0.0
H739 H 0.05054 0.15428 0.44251 0.0
H740 H 0.09436 0.13573 0.44752 0.0
H741 H 0.99464 0.05961 0.35853 0.0
H742 H 0.97469 0.09668 0.37425 0.0
H743 H 0.00913 0.10467 0.3527 0.0
H744 H 0.95156 0.19997 0.41488 0.0
H745 H 0.03405 0.22675 0.36411 0.0
H746 H 0.99026 0.12875 0.44105 0.0
H747 H 0.96699 0.10725 0.41704 0.0
H748 H 0.94641 0.14407 0.43262 0.0
H749 H 0.09227 0.15947 0.37769 0.0
H750 H 0.07756 0.18512 0.35209 0.0
H751 H 0.06558 0.13868 0.35504 0.0
C752 C 0.93511 0.95853 0.10441 0.0
C753 C 0.93922 0.9215 0.10247 0.0
C754 C 0.9011 0.97355 0.10814 0.0
C755 C 0.87108 0.95081 0.11061 0.0
C756 C 0.87547 0.91342 0.10949 0.0
C757 C 0.90933 0.8993 0.10517 0.0
C758 C 0.8971 0.0136 0.1087 0.0
C759 C 0.84426 0.88821 0.11241 0.0
C760 C 0.78242 0.98199 0.13623 0.0
C761 C 0.76184 0.98449 0.11527 0.0
C762 C 0.81857 0.97202 0.13505 0.0
C763 C 0.83445 0.96553 0.11234 0.0
C764 C 0.814 0.96927 0.09112 0.0
C765 C 0.77788 0.97816 0.09287 0.0
C766 C 0.83949 0.96751 0.15805 0.0
C767 C 0.83007 0.96328 0.06652 0.0
H768 H 0.95825 0.97565 0.10251 0.0
H769 H 0.91246 0.87056 0.10426 0.0
H770 H 0.88093 0.02246 0.09307 0.0
H771 H 0.88265 0.02197 0.12517 0.0
H772 H 0.92329 0.02747 0.10812 0.0
H773 H 0.85278 0.85982 0.11312 0.0
H774 H 0.82934 0.8945 0.12911 0.0
H775 H 0.82552 0.89152 0.09712 0.0
H776 H 0.77015 0.98739 0.15351 0.0
H777 H 0.76237 0.98109 0.07651 0.0
H778 H 0.86447 0.98335 0.15731 0.0
H779 H 0.84727 0.93912 0.16022 0.0
H780 H 0.82394 0.97581 0.17412 0.0
H781 H 0.85507 0.97886 0.06453 0.0
H782 H 0.81149 0.971 0.05184 0.0
H783 H 0.837 0.93469 0.0643 0.0
C784 C 0.47391 0.79542 0.10441 0.0
C785 C 0.48821 0.76989 0.1203 0.0
C786 C 0.48957 0.82897 0.10156 0.0
C787 C 0.52015 0.83772 0.11517 0.0
C788 C 0.53425 0.81269 0.13182 0.0
C789 C 0.51823 0.77886 0.13408 0.0
C790 C 0.47402 0.85459 0.0833 0.0
C791 C 0.56668 0.82139 0.1468 0.0
C792 C 0.58065 0.90844 0.08843 0.0
C793 C 0.57004 0.93911 0.10101 0.0
C794 C 0.5649 0.87523 0.09308 0.0
C795 C 0.53814 0.8725 0.11094 0.0
C796 C 0.52711 0.90334 0.12363 0.0
C797 C 0.54303 0.93636 0.11839 0.0
C798 C 0.57682 0.84308 0.0788 0.0
C799 C 0.49865 0.90139 0.1428 0.0
H800 H 0.45083 0.78891 0.0935 0.0
H801 H 0.52943 0.75939 0.14638 0.0
H802 H 0.46798 0.8806 0.09189 0.0
H803 H 0.49379 0.85965 0.06885 0.0
H804 H 0.44917 0.84423 0.07492 0.0
H805 H 0.57292 0.80005 0.16002 0.0
H806 H 0.59017 0.82513 0.13491 0.0
H807 H 0.56248 0.84682 0.15661 0.0
H808 H 0.60149 0.91034 0.07497 0.0
H809 H 0.53498 0.95984 0.1284 0.0
H810 H 0.55388 0.83193 0.06866 0.0
H811 H 0.58653 0.82189 0.09111 0.0
H812 H 0.59842 0.84961 0.06584 0.0
H813 H 0.47313 0.89223 0.13479 0.0
H814 H 0.49406 0.92756 0.15166 0.0
H815 H 0.50636 0.88159 0.15671 0.0
C816 C 0.57786 0.57717 0.08409 0.0
C817 C 0.55766 0.5856 0.1045 0.0
C818 C 0.6106 0.55903 0.08633 0.0
C819 C 0.62272 0.54847 0.10944 0.0
C820 C 0.60179 0.55601 0.12995 0.0
C821 C 0.56975 0.57477 0.12725 0.0
C822 C 0.63254 0.55177 0.0641 0.0
C823 C 0.61328 0.54437 0.15481 0.0
C824 C 0.69168 0.47469 0.11411 0.0
C825 C 0.72292 0.49401 0.11897 0.0
C826 C 0.65885 0.49206 0.11102 0.0
C827 C 0.65738 0.52972 0.11238 0.0
C828 C 0.68876 0.54939 0.11748 0.0
C829 C 0.72115 0.53123 0.12098 0.0
C830 C 0.6258 0.47013 0.10621 0.0
C831 C 0.68824 0.58963 0.11879 0.0
H832 H 0.56857 0.58561 0.06652 0.0
H833 H 0.55393 0.58078 0.14307 0.0
H834 H 0.65913 0.56456 0.06586 0.0
H835 H 0.63712 0.52267 0.06209 0.0
H836 H 0.61948 0.5619 0.0475 0.0
H837 H 0.59316 0.5511 0.16877 0.0
H838 H 0.61788 0.51512 0.15512 0.0
H839 H 0.63889 0.55737 0.15964 0.0
H840 H 0.69297 0.44588 0.11253 0.0
H841 H 0.74533 0.5463 0.12436 0.0
H842 H 0.61431 0.47743 0.08849 0.0
H843 H 0.60519 0.47591 0.12 0.0
H844 H 0.63139 0.44101 0.10629 0.0
H845 H 0.67785 0.60081 0.10168 0.0
H846 H 0.71515 0.60099 0.12223 0.0
H847 H 0.67001 0.59848 0.13333 0.0
C848 C 0.98219 0.70852 0.12932 0.0
C849 C 0.97075 0.73701 0.1149 0.0
C850 C 0.96806 0.6742 0.12615 0.0
C851 C 0.94168 0.66846 0.10832 0.0
C852 C 0.92927 0.69731 0.09422 0.0
C853 C 0.94399 0.73123 0.09766 0.0
C854 C 0.98178 0.64395 0.14156 0.0
C855 C 0.90073 0.69228 0.07532 0.0
C856 C 0.92499 0.57385 0.08637 0.0
C857 C 0.89584 0.56407 0.10068 0.0
C858 C 0.94031 0.60795 0.08857 0.0
C859 C 0.92573 0.63261 0.10523 0.0
C860 C 0.8957 0.62311 0.11916 0.0
C861 C 0.88123 0.589 0.11676 0.0
C862 C 0.97243 0.61739 0.07346 0.0
C863 C 0.87903 0.64887 0.13682 0.0
H864 H 0.00313 0.71272 0.14248 0.0
H865 H 0.93499 0.75316 0.08646 0.0
H866 H 0.95948 0.63202 0.15193 0.0
H867 H 0.99299 0.62262 0.12997 0.0
H868 H 0.00275 0.65277 0.15437 0.0
H869 H 0.89398 0.71758 0.06592 0.0
H870 H 0.90978 0.67256 0.06176 0.0
H871 H 0.87611 0.68151 0.08369 0.0
H872 H 0.93635 0.55464 0.07398 0.0
H873 H 0.85832 0.58181 0.12764 0.0
H874 H 0.99542 0.62365 0.08531 0.0
H875 H 0.9668 0.64161 0.06262 0.0
H876 H 0.98022 0.59542 0.06113 0.0
H877 H 0.89881 0.65629 0.1508 0.0
H878 H 0.85515 0.6375 0.14585 0.0
H879 H 0.87104 0.67377 0.12745 0.0
C880 C 0.68939 0.01581 0.62434 0.0
C881 C 0.72194 -0.0024 0.62639 0.0
C882 C 0.65714 -0.00285 0.62254 0.0
C883 C 0.65768 0.95941 0.62216 0.0
C884 C 0.69039 0.94086 0.62486 0.0
C885 C 0.72219 0.96026 0.62725 0.0
C886 C 0.62264 0.0178 0.62038 0.0
C887 C 0.69197 0.90061 0.62414 0.0
C888 C 0.57226 0.90885 0.63457 0.0
C889 C 0.55987 0.90191 0.61123 0.0
C890 C 0.60393 0.9278 0.63839 0.0
C891 C 0.62405 0.93939 0.61837 0.0
C892 C 0.61187 0.93225 0.59473 0.0
C893 C 0.57959 0.91391 0.59143 0.0
C894 C 0.61562 0.93576 0.66383 0.0
C895 C 0.63305 0.94377 0.57296 0.0
H896 H 0.68923 0.04474 0.62374 0.0
H897 H 0.74743 0.94617 0.62852 0.0
H898 H 0.61068 0.01328 0.60239 0.0
H899 H 0.60311 0.00828 0.63394 0.0
H900 H 0.62661 0.04694 0.62286 0.0
H901 H 0.71943 0.89027 0.62715 0.0
H902 H 0.67407 0.88909 0.63799 0.0
H903 H 0.68242 0.89102 0.60639 0.0
H904 H 0.55683 0.89995 0.64994 0.0
H905 H 0.57012 0.9084 0.57339 0.0
H906 H 0.61825 0.96501 0.66635 0.0
H907 H 0.64224 0.92382 0.66729 0.0
H908 H 0.59655 0.92532 0.67741 0.0
H909 H 0.63557 0.97325 0.57266 0.0
H910 H 0.6205 0.93502 0.55585 0.0
H911 H 0.66047 0.9326 0.5739 0.0
C912 C 0.60199 0.58733 0.59452 0.0
C913 C 0.58314 0.55527 0.59258 0.0
C914 C 0.58399 0.61986 0.59683 0.0
C915 C 0.54627 0.62002 0.59802 0.0
C916 C 0.52704 0.58767 0.59552 0.0
C917 C 0.54582 0.55551 0.59255 0.0
C918 C 0.60537 0.65394 0.59847 0.0
C919 C 0.48681 0.58689 0.59699 0.0
C920 C 0.50574 0.70062 0.62915 0.0
C921 C 0.49353 0.72035 0.60946 0.0
C922 C 0.52198 0.66719 0.62573 0.0
C923 C 0.52717 0.65417 0.60204 0.0
C924 C 0.51553 0.67452 0.58213 0.0
C925 C 0.49819 0.70705 0.58611 0.0
C926 C 0.53349 0.64579 0.64739 0.0
C927 C 0.52169 0.66223 0.5566 0.0
H928 H 0.63096 0.58681 0.59465 0.0
H929 H 0.53148 0.53044 0.59146 0.0
H930 H 0.59586 0.67337 0.58482 0.0
H931 H 0.60152 0.66633 0.61639 0.0
H932 H 0.63439 0.64933 0.59569 0.0
H933 H 0.4759 0.55955 0.59467 0.0
H934 H 0.47804 0.59735 0.6147 0.0
H935 H 0.4751 0.60445 0.58299 0.0
H936 H 0.50184 0.71092 0.64717 0.0
H937 H 0.48893 0.72256 0.57084 0.0
H938 H 0.56292 0.64244 0.64731 0.0
H939 H 0.52156 0.61872 0.64667 0.0
H940 H 0.52557 0.65869 0.66457 0.0
H941 H 0.54977 0.65355 0.55407 0.0
H942 H 0.51575 0.68359 0.54337 0.0
H943 H 0.50432 0.63901 0.55265 0.0
C944 C 0.92554 0.56084 0.59049 0.0
C945 C 0.93026 0.59756 0.59332 0.0
C946 C 0.89137 0.54574 0.5925 0.0
C947 C 0.86158 0.56822 0.59687 0.0
C948 C 0.86619 0.60558 0.59825 0.0
C949 C 0.90064 0.61976 0.59683 0.0
C950 C 0.88739 0.50571 0.59117 0.0
C951 C 0.83492 0.63045 0.602 0.0
C952 C 0.77101 0.52787 0.58468 0.0
C953 C 0.75992 0.51849 0.60791 0.0
C954 C 0.80349 0.54529 0.58088 0.0
C955 C 0.82575 0.55259 0.60078 0.0
C956 C 0.81413 0.5442 0.62441 0.0
C957 C 0.78093 0.52752 0.62773 0.0
C958 C 0.81445 0.55459 0.55549 0.0
C959 C 0.8375 0.55125 0.64601 0.0
H960 H 0.9487 0.54382 0.58812 0.0
H961 H 0.90461 0.64824 0.59904 0.0
H962 H 0.87691 0.49546 0.60852 0.0
H963 H 0.86782 0.49843 0.57704 0.0
H964 H 0.9131 0.49211 0.58723 0.0
H965 H 0.84278 0.65896 0.60064 0.0
H966 H 0.8138 0.62501 0.58849 0.0
H967 H 0.8231 0.62582 0.62001 0.0
H968 H 0.75455 0.52069 0.56937 0.0
H969 H 0.77241 0.51968 0.6456 0.0
H970 H 0.8365 0.53679 0.5497 0.0
H971 H 0.82445 0.58242 0.55457 0.0
H972 H 0.79203 0.55161 0.54256 0.0
H973 H 0.86271 0.53585 0.64436 0.0
H974 H 0.82425 0.54374 0.66315 0.0
H975 H 0.84478 0.57989 0.64683 0.0
C976 C 0.91018 0.92507 0.63321 0.0
C977 C 0.90331 0.93801 0.60994 0.0
C978 C 0.92607 0.89177 0.63687 0.0
C979 C 0.93529 0.87071 0.61678 0.0
C980 C 0.92886 0.88362 0.59319 0.0
C981 C 0.91306 0.91735 0.59002 0.0
C982 C 0.93313 0.87923 0.66228 0.0
C983 C 0.93847 0.8617 0.57137 0.0
C984 C 0.00779 0.8015 0.62446 0.0
C985 C 0.98798 0.7699 0.62639 0.0
C986 C 0.9909 0.8345 0.62166 0.0
C987 C 0.95323 0.83589 0.62058 0.0
C988 C 0.93295 0.80425 0.62344 0.0
C989 C 0.95064 0.77146 0.62649 0.0
C990 C 0.01344 0.86773 0.61919 0.0
C991 C 0.89268 0.80489 0.62241 0.0
H992 H 0.90304 0.94105 0.64873 0.0
H993 H 0.9076 0.92714 0.57205 0.0
H994 H 0.91945 0.85344 0.66554 0.0
H995 H 0.96214 0.87461 0.66487 0.0
H996 H 0.92391 0.89875 0.67596 0.0
H997 H 0.93088 0.87514 0.5543 0.0
H998 H 0.96764 0.85652 0.57111 0.0
H999 H 0.92492 0.83542 0.57221 0.0
H1000 H 0.03673 0.80027 0.62447 0.0
H1001 H 0.93537 0.74696 0.62765 0.0
H1002 H 0.00546 0.88775 0.63285 0.0
H1003 H 0.00904 0.87995 0.60125 0.0
H1004 H 0.04241 0.86211 0.6213 0.0
H1005 H 0.88199 0.82367 0.63604 0.0
H1006 H 0.88084 0.77813 0.62556 0.0
H1007 H 0.88386 0.81467 0.60452 0.0
C1008 C 0.06912 0.08157 0.87591 0.0
C1009 C 0.05793 0.08912 0.89944 0.0
C1010 C 0.10055 0.06244 0.87158 0.0
C1011 C 0.12164 0.05126 0.89125 0.0
C1012 C 0.11052 0.05872 0.91509 0.0
C1013 C 0.07845 0.07728 0.91892 0.0
C1014 C 0.11112 0.05417 0.84596 0.0
C1015 C 0.13273 0.04755 0.93648 0.0
C1016 C 0.18838 0.9761 0.88438 0.0
C1017 C 0.22045 0.99498 0.88187 0.0
C1018 C 0.15578 0.99411 0.88661 0.0
C1019 C 0.15549 0.03185 0.88688 0.0
C1020 C 0.18764 0.05105 0.88353 0.0
C1021 C 0.21978 0.03231 0.88078 0.0
C1022 C 0.12184 0.97278 0.88945 0.0
C1023 C 0.18833 0.09134 0.884 0.0
H1024 H 0.05303 0.09029 0.86079 0.0
H1025 H 0.06986 0.08322 0.9371 0.0
H1026 H 0.13719 0.06673 0.84177 0.0
H1027 H 0.11446 0.02495 0.84365 0.0
H1028 H 0.09108 0.06381 0.83273 0.0
H1029 H 0.12058 0.05589 0.95381 0.0
H1030 H 0.13604 0.01814 0.93664 0.0
H1031 H 0.1598 0.0594 0.93513 0.0
H1032 H 0.1889 0.94719 0.88515 0.0
H1033 H 0.24463 0.04695 0.87913 0.0
H1034 H 0.1015 0.9819 0.87629 0.0
H1035 H 0.11062 0.97708 0.90767 0.0
H1036 H 0.12634 0.94372 0.88689 0.0
H1037 H 0.16957 0.1023 0.87044 0.0
H1038 H 0.21539 0.10221 0.8804 0.0
H1039 H 0.17934 0.10096 0.90187 0.0
C1040 C 0.37492 0.08966 0.89767 0.0
C1041 C 0.39585 0.0611 0.90581 0.0
C1042 C 0.38945 0.12378 0.89501 0.0
C1043 C 0.42606 0.1291 0.89998 0.0
C1044 C 0.44726 0.10043 0.90859 0.0
C1045 C 0.43168 0.06668 0.91175 0.0
C1046 C 0.36574 0.15397 0.88665 0.0
C1047 C 0.48655 0.10516 0.91374 0.0
C1048 C 0.47218 0.2078 0.87028 0.0
C1049 C 0.47565 0.231 0.88978 0.0
C1050 C 0.45583 0.17439 0.8733 0.0
C1051 C 0.44209 0.16476 0.89617 0.0
C1052 C 0.44399 0.18908 0.91554 0.0
C1053 C 0.46118 0.22176 0.91216 0.0
C1054 C 0.4547 0.14878 0.85237 0.0
C1055 C 0.42883 0.18022 0.94 0.0
H1056 H 0.34707 0.0852 0.89324 0.0
H1057 H 0.44779 0.04437 0.91782 0.0
H1058 H 0.36714 0.17649 0.89956 0.0
H1059 H 0.37518 0.16411 0.86902 0.0
H1060 H 0.33741 0.14566 0.88477 0.0
H1061 H 0.49933 0.08008 0.92005 0.0
H1062 H 0.50047 0.11434 0.89724 0.0
H1063 H 0.49046 0.12599 0.92764 0.0
H1064 H 0.484 0.21491 0.85314 0.0
H1065 H 0.46411 0.23991 0.92723 0.0
H1066 H 0.4268 0.14051 0.84872 0.0
H1067 H 0.47 0.12431 0.85691 0.0
H1068 H 0.46606 0.16057 0.83571 0.0
H1069 H 0.40059 0.17165 0.93831 0.0
H1070 H 0.43013 0.20323 0.95256 0.0
H1071 H 0.44389 0.15769 0.94805 0.0
C1072 C 0.4117 0.41819 0.91618 0.0
C1073 C 0.43072 0.40594 0.89613 0.0
C1074 C 0.37738 0.43297 0.91347 0.0
C1075 C 0.36213 0.43568 0.89018 0.0
C1076 C 0.38149 0.42386 0.86992 0.0
C1077 C 0.41544 0.40919 0.87314 0.0
C1078 C 0.35739 0.44559 0.93545 0.0
C1079 C 0.36645 0.42693 0.84477 0.0
C1080 C 0.26201 0.44928 0.88298 0.0
C1081 C 0.26027 0.48635 0.88025 0.0
C1082 C 0.29512 0.43223 0.88632 0.0
C1083 C 0.32685 0.45287 0.88665 0.0
C1084 C 0.32515 0.4901 0.88284 0.0
C1085 C 0.2919 0.50635 0.87973 0.0
C1086 C 0.29613 0.39239 0.89025 0.0
C1087 C 0.35838 0.51296 0.8826 0.0
H1088 H 0.42327 0.41554 0.93396 0.0
H1089 H 0.43007 0.40013 0.85747 0.0
H1090 H 0.35204 0.47464 0.93405 0.0
H1091 H 0.33115 0.43197 0.93659 0.0
H1092 H 0.37242 0.44048 0.95234 0.0
H1093 H 0.38469 0.41566 0.83098 0.0
H1094 H 0.34048 0.41282 0.84363 0.0
H1095 H 0.36141 0.45537 0.84036 0.0
H1096 H 0.23751 0.43393 0.88374 0.0
H1097 H 0.29052 0.53508 0.87756 0.0
H1098 H 0.30754 0.38648 0.90824 0.0
H1099 H 0.31375 0.37961 0.87673 0.0
H1100 H 0.26919 0.38013 0.88906 0.0
H1101 H 0.37216 0.51109 0.90021 0.0
H1102 H 0.35238 0.54148 0.8789 0.0
H1103 H 0.37727 0.50318 0.86872 0.0
C1104 C 0.07155 0.42029 0.92926 0.0
C1105 C 0.07297 0.44192 0.90876 0.0
C1106 C 0.05317 0.3876 0.92872 0.0
C1107 C 0.03542 0.37707 0.90735 0.0
C1108 C 0.03503 0.40003 0.88717 0.0
C1109 C 0.05416 0.43198 0.88805 0.0
C1110 C 0.05427 0.36355 0.95051 0.0
C1111 C 0.0156 0.39022 0.86429 0.0
C1112 C 0.02264 0.27949 0.89184 0.0
C1113 C 0.9868 0.27419 0.89806 0.0
C1114 C 0.0391 0.31263 0.89552 0.0
C1115 C 0.01905 0.34121 0.90531 0.0
C1116 C 0.98285 0.33608 0.91156 0.0
C1117 C 0.96719 0.30259 0.90793 0.0
C1118 C 0.07795 0.31709 0.8889 0.0
C1119 C 0.9605 0.36608 0.9217 0.0
H1120 H 0.0863 0.42802 0.9452 0.0
H1121 H 0.05499 0.44901 0.87228 0.0
H1122 H 0.02692 0.35514 0.9556 0.0
H1123 H 0.06954 0.339 0.94616 0.0
H1124 H 0.06699 0.3767 0.96622 0.0
H1125 H 0.0153 0.41246 0.85107 0.0
H1126 H 0.02871 0.36683 0.85584 0.0
H1127 H 0.98763 0.38256 0.86834 0.0
H1128 H 0.03807 0.25755 0.88454 0.0
H1129 H 0.93946 0.29869 0.91286 0.0
H1130 H 0.09318 0.32738 0.90455 0.0
H1131 H 0.08055 0.33698 0.87422 0.0
H1132 H 0.09033 0.29167 0.88289 0.0
H1133 H 0.97356 0.37756 0.93783 0.0
H1134 H 0.93322 0.35718 0.92675 0.0
H1135 H 0.95817 0.3878 0.90822 0.0
C1136 C 0.70141 0.21975 0.38581 0.0
C1137 C 0.67972 0.20084 0.3699 0.0
C1138 C 0.73101 0.23852 0.37758 0.0
C1139 C 0.73867 0.23905 0.3526 0.0
C1140 C 0.71655 0.22029 0.33629 0.0
C1141 C 0.68747 0.20074 0.34526 0.0
C1142 C 0.75419 0.2575 0.39585 0.0
C1143 C 0.72332 0.22042 0.30955 0.0
C1144 C 0.80227 0.31408 0.34975 0.0
C1145 C 0.83303 0.29525 0.3563 0.0
C1146 C 0.77111 0.29542 0.34366 0.0
C1147 C 0.77132 0.25767 0.34467 0.0
C1148 C 0.80404 0.23917 0.34665 0.0
C1149 C 0.83468 0.2583 0.35267 0.0
C1150 C 0.73692 0.31587 0.33982 0.0
C1151 C 0.80565 0.19894 0.34652 0.0
H1152 H 0.69531 0.21959 0.40488 0.0
H1153 H 0.67027 0.18632 0.33295 0.0
H1154 H 0.78211 0.24775 0.39465 0.0
H1155 H 0.75436 0.28659 0.39218 0.0
H1156 H 0.74477 0.25341 0.41459 0.0
H1157 H 0.69775 0.21931 0.29944 0.0
H1158 H 0.73845 0.2443 0.30364 0.0
H1159 H 0.7389 0.19629 0.30469 0.0
H1160 H 0.80141 0.34284 0.35178 0.0
H1161 H 0.85915 0.24396 0.35668 0.0
H1162 H 0.72243 0.31805 0.35717 0.0
H1163 H 0.71931 0.30183 0.32685 0.0
H1164 H 0.7423 0.34329 0.33313 0.0
H1165 H 0.79574 0.18862 0.36401 0.0
H1166 H 0.83334 0.18906 0.34384 0.0
H1167 H 0.78839 0.18794 0.33214 0.0
C1168 C 0.26854 0.68176 0.36658 0.0
C1169 C 0.30451 0.67193 0.36466 0.0
C1170 C 0.25781 0.71682 0.362 0.0
C1171 C 0.28376 0.74245 0.35538 0.0
C1172 C 0.31915 0.73167 0.35047 0.0
C1173 C 0.32922 0.69638 0.35524 0.0
C1174 C 0.21951 0.7272 0.36692 0.0
C1175 C 0.34725 0.75808 0.34266 0.0
C1176 C 0.24362 0.83413 0.34745 0.0
C1177 C 0.24462 0.84619 0.37129 0.0
C1178 C 0.25899 0.80126 0.34123 0.0
C1179 C 0.27558 0.78054 0.35934 0.0
C1180 C 0.27963 0.79441 0.38285 0.0
C1181 C 0.26396 0.82708 0.38854 0.0
C1182 C 0.25486 0.78763 0.31586 0.0
C1183 C 0.29782 0.77345 0.40262 0.0
H1184 H 0.2491 0.66272 0.3732 0.0
H1185 H 0.35696 0.68873 0.35309 0.0
H1186 H 0.2181 0.74215 0.38412 0.0
H1187 H 0.20919 0.7449 0.35252 0.0
H1188 H 0.20179 0.70353 0.36834 0.0
H1189 H 0.37007 0.74454 0.33373 0.0
H1190 H 0.33595 0.77828 0.3302 0.0
H1191 H 0.35761 0.77235 0.35868 0.0
H1192 H 0.22884 0.84911 0.33405 0.0
H1193 H 0.26538 0.83688 0.40686 0.0
H1194 H 0.23103 0.77013 0.31489 0.0
H1195 H 0.27837 0.77167 0.31025 0.0
H1196 H 0.25101 0.80991 0.30292 0.0
H1197 H 0.28148 0.74971 0.40722 0.0
H1198 H 0.30158 0.78952 0.41921 0.0
H1199 H 0.32432 0.7638 0.39655 0.0
C1200 C 0.29001 0.6608 0.14699 0.0
C1201 C 0.31669 0.68526 0.1406 0.0
C1202 C 0.25523 0.67258 0.15183 0.0
C1203 C 0.24747 0.70942 0.15015 0.0
C1204 C 0.27543 0.73434 0.14699 0.0
C1205 C 0.30979 0.72189 0.14211 0.0
C1206 C 0.22623 0.64539 0.15602 0.0
C1207 C 0.26837 0.77399 0.14574 0.0
C1208 C 0.16894 0.74234 0.11495 0.0
C1209 C 0.14896 0.75941 0.13279 0.0
C1210 C 0.19961 0.72315 0.1208 0.0
C1211 C 0.21065 0.72131 0.14513 0.0
C1212 C 0.18896 0.73592 0.16347 0.0
C1213 C 0.15809 0.75491 0.15705 0.0
C1214 C 0.22162 0.7073 0.10065 0.0
C1215 C 0.19951 0.73388 0.18962 0.0
H1216 H 0.2955 0.63241 0.14638 0.0
H1217 H 0.33075 0.74089 0.13798 0.0
H1218 H 0.20583 0.65563 0.16873 0.0
H1219 H 0.21267 0.63955 0.13872 0.0
H1220 H 0.23733 0.61999 0.16315 0.0
H1221 H 0.29338 0.78978 0.14706 0.0
H1222 H 0.25528 0.78046 0.12836 0.0
H1223 H 0.2501 0.7824 0.16036 0.0
H1224 H 0.16128 0.74506 0.09623 0.0
H1225 H 0.14232 0.76783 0.17088 0.0
H1226 H 0.2283 0.67907 0.10463 0.0
H1227 H 0.2471 0.72218 0.09891 0.0
H1228 H 0.20755 0.70837 0.08307 0.0
H1229 H 0.21395 0.70874 0.19371 0.0
H1230 H 0.17578 0.7359 0.20152 0.0
H1231 H 0.21754 0.75647 0.19391 0.0
C1232 C 0.77209 0.31732 0.14712 0.0
C1233 C 0.80787 0.3206 0.14027 0.0
C1234 C 0.75693 0.28372 0.15057 0.0
C1235 C 0.77813 0.25306 0.14657 0.0
C1236 C 0.81538 0.25644 0.14295 0.0
C1237 C 0.83 0.29052 0.13993 0.0
C1238 C 0.71725 0.2812 0.15504 0.0
C1239 C 0.83889 0.22429 0.1389 0.0
C1240 C 0.73185 0.16353 0.14998 0.0
C1241 C 0.72072 0.15937 0.12602 0.0
C1242 C 0.75147 0.19356 0.15705 0.0
C1243 C 0.76009 0.21967 0.13968 0.0
C1244 C 0.74952 0.21522 0.11541 0.0
C1245 C 0.72985 0.18516 0.10892 0.0
C1246 C 0.76238 0.19768 0.18304 0.0
C1247 C 0.75836 0.24255 0.09628 0.0
H1248 H 0.75528 0.34088 0.14796 0.0
H1249 H 0.85784 0.29326 0.1349 0.0
H1250 H 0.70335 0.27638 0.13771 0.0
H1251 H 0.71086 0.25868 0.16723 0.0
H1252 H 0.7065 0.30624 0.16293 0.0
H1253 H 0.8674 0.23053 0.14246 0.0
H1254 H 0.83068 0.20161 0.15044 0.0
H1255 H 0.83644 0.21567 0.11988 0.0
H1256 H 0.72493 0.14355 0.16328 0.0
H1257 H 0.72163 0.18192 0.09035 0.0
H1258 H 0.74961 0.22177 0.1908 0.0
H1259 H 0.79168 0.20154 0.18435 0.0
H1260 H 0.75478 0.17418 0.19409 0.0
H1261 H 0.74537 0.26836 0.10065 0.0
H1262 H 0.74939 0.23417 0.0781 0.0
H1263 H 0.7876 0.2472 0.09567 0.0
C1264 C 0.16099 0.74778 0.64829 0.0
C1265 C 0.16042 0.71038 0.64775 0.0
C1266 C 0.19253 0.76606 0.65339 0.0
C1267 C 0.2239 0.74624 0.658 0.0
C1268 C 0.2218 0.70896 0.66178 0.0
C1269 C 0.18988 0.6912 0.65636 0.0
C1270 C 0.19339 0.80602 0.64997 0.0
C1271 C 0.25443 0.68737 0.66818 0.0
C1272 C 0.30027 0.77471 0.61866 0.0
C1273 C 0.32096 0.79492 0.63446 0.0
C1274 C 0.26889 0.75849 0.62637 0.0
C1275 C 0.25834 0.76198 0.65074 0.0
C1276 C 0.27942 0.78199 0.66698 0.0
C1277 C 0.31055 0.79866 0.65852 0.0
C1278 C 0.24682 0.73808 0.60819 0.0
C1279 C 0.26979 0.78507 0.69324 0.0
H1280 H 0.13766 0.7628 0.64269 0.0
H1281 H 0.18915 0.66229 0.6568 0.0
H1282 H 0.21121 0.81887 0.66331 0.0
H1283 H 0.20393 0.81216 0.63177 0.0
H1284 H 0.16631 0.81794 0.65152 0.0
H1285 H 0.24703 0.66135 0.67636 0.0
H1286 H 0.27009 0.68199 0.65163 0.0
H1287 H 0.27181 0.70223 0.68084 0.0
H1288 H 0.3084 0.77205 0.60002 0.0
H1289 H 0.32712 0.81387 0.67078 0.0
H1290 H 0.21945 0.74935 0.60722 0.0
H1291 H 0.2445 0.70974 0.61372 0.0
H1292 H 0.25858 0.73889 0.58986 0.0
H1293 H 0.24062 0.78847 0.69578 0.0
H1294 H 0.28385 0.80769 0.70201 0.0
H1295 H 0.27771 0.76011 0.70258 0.0
C1296 C 0.80737 0.19217 0.65772 0.0
C1297 C 0.79386 0.1765 0.63673 0.0
C1298 C 0.79424 0.22512 0.66575 0.0
C1299 C 0.76806 0.24296 0.65189 0.0
C1300 C 0.75365 0.22653 0.63107 0.0
C1301 C 0.76646 0.19331 0.62397 0.0
C1302 C 0.80938 0.24087 0.68853 0.0
C1303 C 0.72584 0.24464 0.61549 0.0
C1304 C 0.70592 0.3184 0.65958 0.0
C1305 C 0.72209 0.34249 0.64366 0.0
C1306 C 0.72395 0.28738 0.66665 0.0
C1307 C 0.75798 0.28028 0.65681 0.0
C1308 C 0.77661 0.30741 0.64441 0.0
C1309 C 0.75836 0.33848 0.63802 0.0
C1310 C 0.70474 0.26007 0.68176 0.0
C1311 C 0.81372 0.30141 0.63463 0.0
H1312 H 0.8282 0.17878 0.66785 0.0
H1313 H 0.75595 0.18112 0.60777 0.0
H1314 H 0.83554 0.2534 0.68451 0.0
H1315 H 0.79157 0.2613 0.69657 0.0
H1316 H 0.81425 0.21956 0.70205 0.0
H1317 H 0.71822 0.22827 0.59964 0.0
H1318 H 0.70137 0.24994 0.62611 0.0
H1319 H 0.73608 0.27062 0.60888 0.0
H1320 H 0.6784 0.32226 0.66504 0.0
H1321 H 0.7716 0.35787 0.62663 0.0
H1322 H 0.72384 0.2451 0.69325 0.0
H1323 H 0.69111 0.24066 0.66983 0.0
H1324 H 0.68422 0.27282 0.69335 0.0
H1325 H 0.83104 0.28897 0.64845 0.0
H1326 H 0.8263 0.3267 0.62855 0.0
H1327 H 0.81236 0.28294 0.61905 0.0
C1328 C 0.79456 0.20851 0.89389 0.0
C1329 C 0.81431 0.1863 0.87873 0.0
C1330 C 0.76178 0.22229 0.88664 0.0
C1331 C 0.74866 0.21407 0.86339 0.0
C1332 C 0.76846 0.19162 0.84788 0.0
C1333 C 0.80105 0.17745 0.85594 0.0
C1334 C 0.74133 0.24577 0.90398 0.0
C1335 C 0.75543 0.18232 0.82298 0.0
C1336 C 0.65213 0.23271 0.86851 0.0
C1337 C 0.65276 0.26979 0.86506 0.0
C1338 C 0.68254 0.21214 0.86411 0.0
C1339 C 0.71395 0.22931 0.85621 0.0
C1340 C 0.71272 0.26536 0.84872 0.0
C1341 C 0.682 0.28546 0.85344 0.0
C1342 C 0.68251 0.17335 0.87138 0.0
C1343 C 0.74538 0.28395 0.839 0.0
H1344 H 0.80469 0.21499 0.91163 0.0
H1345 H 0.81651 0.16026 0.84422 0.0
H1346 H 0.7377 0.27277 0.89616 0.0
H1347 H 0.71443 0.23444 0.90735 0.0
H1348 H 0.75514 0.24869 0.92156 0.0
H1349 H 0.77793 0.17474 0.811 0.0
H1350 H 0.73708 0.15917 0.82416 0.0
H1351 H 0.7406 0.20478 0.81463 0.0
H1352 H 0.62894 0.22011 0.87651 0.0
H1353 H 0.68214 0.31389 0.84983 0.0
H1354 H 0.69484 0.17066 0.88945 0.0
H1355 H 0.69845 0.15714 0.85863 0.0
H1356 H 0.65499 0.16239 0.87225 0.0
H1357 H 0.76279 0.29198 0.85421 0.0
H1358 H 0.73811 0.30833 0.82872 0.0
H1359 H 0.76098 0.26586 0.8272 0.0
C1360 C 0.29553 0.80993 0.84792 0.0
C1361 C 0.2933 0.81881 0.87233 0.0
C1362 C 0.27831 0.77937 0.8391 0.0
C1363 C 0.25932 0.7573 0.85531 0.0
C1364 C 0.2579 0.76601 0.88011 0.0
C1365 C 0.27455 0.79694 0.8882 0.0
C1366 C 0.27936 0.77167 0.81248 0.0
C1367 C 0.23875 0.74275 0.89824 0.0
C1368 C 0.18537 0.69236 0.84969 0.0
C1369 C 0.20393 0.66154 0.85654 0.0
C1370 C 0.20406 0.72392 0.84482 0.0
C1371 C 0.24167 0.72419 0.84733 0.0
C1372 C 0.26047 0.69175 0.84998 0.0
C1373 C 0.24124 0.66061 0.85459 0.0
C1374 C 0.1834 0.75788 0.84055 0.0
C1375 C 0.30066 0.69073 0.85192 0.0
H1376 H 0.30964 0.82747 0.83567 0.0
H1377 H 0.2731 0.80403 0.90709 0.0
H1378 H 0.28129 0.74265 0.80881 0.0
H1379 H 0.25426 0.78145 0.80415 0.0
H1380 H 0.30208 0.78543 0.80358 0.0
H1381 H 0.24157 0.75284 0.91693 0.0
H1382 H 0.20988 0.74149 0.89388 0.0
H1383 H 0.24945 0.71515 0.89763 0.0
H1384 H 0.15644 0.69284 0.85038 0.0
H1385 H 0.25564 0.63628 0.85884 0.0
H1386 H 0.19792 0.77569 0.82797 0.0
H1387 H 0.18015 0.77226 0.85785 0.0
H1388 H 0.1564 0.75228 0.83318 0.0
H1389 H 0.31319 0.70943 0.83898 0.0
H1390 H 0.31129 0.66347 0.84867 0.0
H1391 H 0.30865 0.69904 0.87031 0.0
C1392 C 0.62868 0.04978 0.46482 0.0
C1393 C 0.63571 0.05756 0.44057 0.0
C1394 C 0.65654 0.04179 0.4809 0.0
C1395 C 0.69233 0.04185 0.47262 0.0
C1396 C 0.6992 0.04595 0.44775 0.0
C1397 C 0.67082 0.05353 0.43201 0.0
C1398 C 0.6479 0.0366 0.50719 0.0
C1399 C 0.73684 0.04595 0.43807 0.0
C1400 C 0.75777 0.08063 0.51759 0.0
C1401 C 0.77432 0.05009 0.52697 0.0
C1402 C 0.73212 0.07821 0.49932 0.0
C1403 C 0.72225 0.04427 0.49031 0.0
C1404 C 0.73988 0.01333 0.499 0.0
C1405 C 0.76593 0.01663 0.51718 0.0
C1406 C 0.7146 0.11202 0.49031 0.0
C1407 C 0.73 0.97668 0.49001 0.0
H1408 H 0.60169 0.0523 0.47164 0.0
H1409 H 0.67671 0.05906 0.4133 0.0
H1410 H 0.66353 0.01411 0.5148 0.0
H1411 H 0.6553 0.06103 0.5173 0.0
H1412 H 0.61904 0.03136 0.51012 0.0
H1413 H 0.7374 0.04296 0.4182 0.0
H1414 H 0.74994 0.07156 0.44278 0.0
H1415 H 0.75282 0.02416 0.44625 0.0
H1416 H 0.7643 0.10658 0.525 0.0
H1417 H 0.77836 0.99289 0.52456 0.0
H1418 H 0.68578 0.11177 0.49494 0.0
H1419 H 0.71667 0.11366 0.47044 0.0
H1420 H 0.72679 0.13639 0.49816 0.0
H1421 H 0.70339 0.96925 0.49719 0.0
H1422 H 0.7496 0.95611 0.49576 0.0
H1423 H 0.72807 0.97642 0.47011 0.0
C1424 C 0.41197 0.77345 0.51261 0.0
C1425 C 0.44292 0.78538 0.52427 0.0
C1426 C 0.41316 0.74517 0.49616 0.0
C1427 C 0.4461 0.72797 0.4914 0.0
C1428 C 0.47781 0.74108 0.50214 0.0
C1429 C 0.47589 0.76992 0.51833 0.0
C1430 C 0.37876 0.73253 0.48482 0.0
C1431 C 0.51351 0.72386 0.49721 0.0
C1432 C 0.43098 0.63167 0.47326 0.0
C1433 C 0.43091 0.63421 0.44809 0.0
C1434 C 0.43869 0.66149 0.48765 0.0
C1435 C 0.44631 0.69475 0.47664 0.0
C1436 C 0.44925 0.69675 0.45132 0.0
C1437 C 0.44168 0.66645 0.43736 0.0
C1438 C 0.43575 0.65795 0.51462 0.0
C1439 C 0.45736 0.73157 0.43882 0.0
H1440 H 0.38645 0.78543 0.51708 0.0
H1441 H 0.49987 0.77888 0.52741 0.0
H1442 H 0.38178 0.73063 0.46502 0.0
H1443 H 0.37218 0.70547 0.49159 0.0
H1444 H 0.35597 0.75056 0.48886 0.0
H1445 H 0.53469 0.73384 0.50946 0.0
H1446 H 0.51168 0.69444 0.49909 0.0
H1447 H 0.52165 0.72958 0.47843 0.0
H1448 H 0.42299 0.60693 0.48181 0.0
H1449 H 0.44202 0.66881 0.41793 0.0
H1450 H 0.40951 0.66856 0.52054 0.0
H1451 H 0.45679 0.67363 0.52381 0.0
H1452 H 0.43776 0.62969 0.52052 0.0
H1453 H 0.43357 0.7492 0.43976 0.0
H1454 H 0.46434 0.7276 0.41959 0.0
H1455 H 0.47967 0.74565 0.44784 0.0
C1456 C 0.87131 0.43135 0.46839 0.0
C1457 C 0.86648 0.42817 0.44343 0.0
C1458 C 0.84225 0.43839 0.48375 0.0
C1459 C 0.80744 0.44194 0.474 0.0
C1460 C 0.80291 0.44171 0.44873 0.0
C1461 C 0.83244 0.43511 0.43379 0.0
C1462 C 0.84846 0.4394 0.51056 0.0
C1463 C 0.76637 0.44541 0.43751 0.0
C1464 C 0.73321 0.40578 0.51372 0.0
C1465 C 0.7181 0.43697 0.52317 0.0
C1466 C 0.76141 0.40723 0.49714 0.0
C1467 C 0.77554 0.44075 0.49016 0.0
C1468 C 0.75976 0.47246 0.49915 0.0
C1469 C 0.73097 0.47019 0.51541 0.0
C1470 C 0.77688 0.37272 0.48771 0.0
C1471 C 0.77436 0.50866 0.49254 0.0
H1472 H 0.89742 0.42637 0.47611 0.0
H1473 H 0.82821 0.43302 0.41456 0.0
H1474 H 0.8341 0.46225 0.51877 0.0
H1475 H 0.83781 0.41464 0.51883 0.0
H1476 H 0.87728 0.44151 0.51509 0.0
H1477 H 0.76786 0.44967 0.41777 0.0
H1478 H 0.75077 0.42076 0.44094 0.0
H1479 H 0.75152 0.46795 0.44569 0.0
H1480 H 0.72344 0.38007 0.51978 0.0
H1481 H 0.71989 0.49437 0.52309 0.0
H1482 H 0.8049 0.36983 0.4939 0.0
H1483 H 0.77722 0.37298 0.46776 0.0
H1484 H 0.76155 0.34902 0.49382 0.0
H1485 H 0.80138 0.51188 0.50045 0.0
H1486 H 0.75713 0.5307 0.49917 0.0
H1487 H 0.77718 0.51113 0.47276 0.0
C1488 C 0.08476 0.74643 0.52454 0.0
C1489 C 0.05935 0.71914 0.5268 0.0
C1490 C 0.08479 0.76946 0.50474 0.0
C1491 C 0.0588 0.76523 0.48647 0.0
C1492 C 0.03331 0.73745 0.48833 0.0
C1493 C 0.03386 0.71466 0.50851 0.0
C1494 C 0.11277 0.79848 0.50347 0.0
C1495 C 0.00533 0.73209 0.46915 0.0
C1496 C 0.05423 0.85061 0.45036 0.0
C1497 C 0.08098 0.84397 0.43339 0.0
C1498 C 0.04351 0.82365 0.46645 0.0
C1499 C 0.05989 0.78953 0.46526 0.0
C1500 C 0.08373 0.78179 0.44623 0.0
C1501 C 0.09424 0.80924 0.43067 0.0
C1502 C 0.01782 0.83295 0.48637 0.0
C1503 C 0.10152 0.74577 0.444 0.0
H1504 H 0.10469 0.75012 0.53845 0.0
H1505 H 0.01399 0.69381 0.51016 0.0
H1506 H 0.12941 0.79492 0.48714 0.0
H1507 H 0.09974 0.825 0.50214 0.0
H1508 H 0.13066 0.79853 0.51941 0.0
H1509 H 0.98821 0.70851 0.47281 0.0
H1510 H 0.98809 0.75611 0.46796 0.0
H1511 H 0.01821 0.72863 0.45135 0.0
H1512 H 0.04421 0.87756 0.45256 0.0
H1513 H 0.11492 0.80417 0.41745 0.0
H1514 H 0.03304 0.83782 0.50318 0.0
H1515 H -0.00091 0.81063 0.48985 0.0
H1516 H 0.00218 0.85736 0.48211 0.0
H1517 H 0.12313 0.74361 0.45758 0.0
H1518 H 0.11347 0.74186 0.42591 0.0
H1519 H 0.08224 0.72393 0.44747 0.0
C1520 C 0.27785 0.97237 0.99857 0.0
C1521 C 0.27607 0.94259 0.98329 0.0
C1522 C 0.25438 0.97582 0.01829 0.0
C1523 C 0.22863 0.9489 0.02273 0.0
C1524 C 0.22742 0.91848 0.00766 0.0
C1525 C 0.25108 0.91572 0.98829 0.0
C1526 C 0.25657 0.00854 0.03399 0.0
C1527 C 0.20074 0.8888 0.01177 0.0
C1528 C 0.18286 0.92354 0.08032 0.0
C1529 C 0.14738 0.93218 0.07482 0.0
C1530 C 0.21083 0.93316 0.06486 0.0
C1531 C 0.20291 0.95129 0.04316 0.0
C1532 C 0.16766 0.96384 0.03905 0.0
C1533 C 0.14016 0.95408 0.05502 0.0
C1534 C 0.24797 0.91969 0.07025 0.0
C1535 C 0.15809 0.98362 0.01631 0.0
H1536 H 0.2969 0.99338 0.99477 0.0
H1537 H 0.24957 0.89245 0.97677 0.0
H1538 H 0.23222 0.025 0.03145 0.0
H1539 H 0.25765 0.00085 0.05324 0.0
H1540 H 0.28027 0.02517 0.02972 0.0
H1541 H 0.20325 0.86705 0.99831 0.0
H1542 H 0.20451 0.87716 0.02994 0.0
H1543 H 0.17316 0.89955 0.01088 0.0
H1544 H 0.18837 0.9064 0.09561 0.0
H1545 H 0.11266 0.96039 0.05061 0.0
H1546 H 0.26841 0.93965 0.06506 0.0
H1547 H 0.25304 0.8951 0.05967 0.0
H1548 H 0.2513 0.91315 0.08961 0.0
H1549 H 0.17912 0.00319 0.01153 0.0
H1550 H 0.13217 -0.00218 0.01805 0.0
H1551 H 0.1559 0.9643 1.00127 0.0
C1552 C 0.54851 0.16819 0.06989 0.0
C1553 C 0.55866 0.13608 0.05896 0.0
C1554 C 0.53892 0.19806 0.0559 0.0
C1555 C 0.53958 0.19555 0.03046 0.0
C1556 C 0.54616 0.162 0.01956 0.0
C1557 C 0.55605 0.1328 0.03395 0.0
C1558 C 0.53172 0.23312 0.06828 0.0
C1559 C 0.54645 0.15778 0.99257 0.0
C1560 C 0.5114 0.26994 0.98743 0.0
C1561 C 0.54477 0.28345 0.98048 0.0
C1562 C 0.50883 0.2424 0.00465 0.0
C1563 C 0.54033 0.2285 0.01528 0.0
C1564 C 0.57378 0.24398 0.00947 0.0
C1565 C 0.57557 0.27095 0.99202 0.0
C1566 C 0.47269 0.2266 0.01009 0.0
C1567 C 0.60808 0.23051 0.02056 0.0
H1568 H 0.55124 0.17095 0.08922 0.0
H1569 H 0.56445 0.10811 0.02549 0.0
H1570 H 0.55571 0.25034 0.06684 0.0
H1571 H 0.50924 0.24742 0.05953 0.0
H1572 H 0.52544 0.22937 0.08764 0.0
H1573 H 0.54655 0.12927 0.98709 0.0
H1574 H 0.52289 0.17106 0.98441 0.0
H1575 H 0.5707 0.1707 0.98511 0.0
H1576 H 0.48755 0.27914 0.97827 0.0
H1577 H 0.60139 0.28136 0.98667 0.0
H1578 H 0.46998 0.22043 0.02952 0.0
H1579 H 0.46963 0.20122 1.00004 0.0
H1580 H 0.45069 0.24479 0.00464 0.0
H1581 H 0.60569 0.22953 0.04043 0.0
H1582 H 0.63134 0.24751 0.01582 0.0
H1583 H 0.61349 0.20296 0.01422 0.0
C1584 C 0.23553 0.58609 0.9837 0.0
C1585 C 0.2193 0.5551 0.97487 0.0
C1586 C 0.26304 0.58426 1.00077 0.0
C1587 C 0.27538 0.55051 0.00876 0.0
C1588 C 0.25858 0.51907 1.00027 0.0
C1589 C 0.23039 0.52177 0.9836 0.0
C1590 C 0.27949 0.61852 0.0098 0.0
C1591 C 0.27144 0.48262 0.00792 0.0
C1592 C 0.36998 0.55758 0.03277 0.0
C1593 C 0.3638 0.56163 0.05751 0.0
C1594 C 0.34165 0.55079 0.01679 0.0
C1595 C 0.30625 0.54873 0.02569 0.0
C1596 C 0.30025 0.54996 0.05079 0.0
C1597 C 0.3291 0.55595 0.06638 0.0
C1598 C 0.34933 0.54842 0.99019 0.0
C1599 C 0.26298 0.54821 0.06109 0.0
H1600 H 0.227 0.61187 0.97693 0.0
H1601 H 0.21831 0.49773 0.97644 0.0
H1602 H 0.279 0.61916 0.02974 0.0
H1603 H 0.30785 0.61998 0.00412 0.0
H1604 H 0.26538 0.64254 1.00291 0.0
H1605 H 0.25353 0.46101 1.00149 0.0
H1606 H 0.29856 0.4779 1.00054 0.0
H1607 H 0.27349 0.48098 0.02778 0.0
H1608 H 0.39666 0.56156 0.02571 0.0
H1609 H 0.32384 0.55887 0.08545 0.0
H1610 H 0.34026 0.57328 0.98121 0.0
H1611 H 0.33447 0.5259 0.982 0.0
H1612 H 0.37827 0.54486 0.9865 0.0
H1613 H 0.24861 0.57334 0.05681 0.0
H1614 H 0.26317 0.54471 0.08093 0.0
H1615 H 0.24768 0.52599 0.05293 0.0
C1616 C 0.93291 0.37096 0.03154 0.0
C1617 C 0.93494 0.36861 0.05671 0.0
C1618 C 0.94117 0.34144 0.01693 0.0
C1619 C 0.95147 0.30874 0.02774 0.0
C1620 C 0.9571 0.30737 0.05288 0.0
C1621 C 0.94894 0.33731 0.06704 0.0
C1622 C 0.93585 0.34438 0.99008 0.0
C1623 C 0.96861 0.27329 0.06513 0.0
C1624 C 0.91543 0.2265 0.99624 0.0
C1625 C 0.94531 0.21418 0.98356 0.0
C1626 C 0.91758 0.25644 0.01127 0.0
C1627 C 0.95038 0.275 0.01348 0.0
C1628 C 0.98109 0.26187 1.00149 0.0
C1629 C 0.97823 0.23143 0.98674 0.0
C1630 C 0.88425 0.26908 0.02399 0.0
C1631 C 0.01644 0.28098 0.00313 0.0
H1632 H 0.92256 0.39504 0.02327 0.0
H1633 H 0.95119 0.3352 0.08642 0.0
H1634 H 0.95854 0.33203 0.98032 0.0
H1635 H 0.9113 0.32975 0.98486 0.0
H1636 H 0.93311 0.37255 0.98413 0.0
H1637 H 0.97738 0.278 0.08395 0.0
H1638 H 0.94588 0.25431 0.06543 0.0
H1639 H 0.99073 0.26039 0.05511 0.0
H1640 H 0.88994 0.2133 0.99377 0.0
H1641 H 0.00126 0.22243 0.97661 0.0
H1642 H 0.87656 0.29584 0.01717 0.0
H1643 H 0.88936 0.27168 0.04357 0.0
H1644 H 0.86137 0.25065 0.02135 0.0
H1645 H 0.01524 0.3058 0.99226 0.0
H1646 H 0.03878 0.26433 0.99627 0.0
H1647 H 0.02232 0.2888 0.02195 0.0
C1648 C 0.33643 0.94641 0.57238 0.0
C1649 C 0.36932 0.93562 0.56259 0.0
C1650 C 0.30755 0.9556 0.5575 0.0
C1651 C 0.31169 0.95415 0.53224 0.0
C1652 C 0.3458 0.94701 0.52232 0.0
C1653 C 0.37423 0.93785 0.53761 0.0
C1654 C 0.27183 0.96369 0.56882 0.0
C1655 C 0.35154 0.9459 0.49546 0.0
C1656 C 0.23562 0.92118 0.49322 0.0
C1657 C 0.22466 0.95251 0.48157 0.0
C1658 C 0.26284 0.92175 0.51053 0.0
C1659 C 0.27971 0.95447 0.5163 0.0
C1660 C 0.26739 0.98653 0.50566 0.0
C1661 C 0.2399 0.98519 0.48844 0.0
C1662 C 0.27476 0.88697 0.52172 0.0
C1663 C 0.28457 0.02194 0.51137 0.0
H1664 H 0.33236 0.94531 0.59166 0.0
H1665 H 0.39956 0.93 0.52981 0.0
H1666 H 0.25864 0.98644 0.55962 0.0
H1667 H 0.25412 0.94014 0.56691 0.0
H1668 H 0.27438 0.96999 0.58826 0.0
H1669 H 0.38033 0.94487 0.49069 0.0
H1670 H 0.33831 0.92188 0.48795 0.0
H1671 H 0.33938 0.96959 0.48672 0.0
H1672 H 0.22383 0.89587 0.48815 0.0
H1673 H 0.23178 0.00954 0.47942 0.0
H1674 H 0.27474 0.88914 0.54161 0.0
H1675 H 0.30251 0.88089 0.51604 0.0
H1676 H 0.2574 0.86425 0.51646 0.0
H1677 H 0.28887 0.02485 0.531 0.0
H1678 H 0.26822 0.04475 0.50488 0.0
H1679 H 0.31111 0.02332 0.50257 0.0
C1680 C 0.56811 0.35505 0.53461 0.0
C1681 C 0.57228 0.35183 0.55961 0.0
C1682 C 0.55994 0.3252 0.52038 0.0
C1683 C 0.55582 0.29135 0.5314 0.0
C1684 C 0.55655 0.28862 0.55677 0.0
C1685 C 0.56478 0.31887 0.57057 0.0
C1686 C 0.55871 0.3294 0.49337 0.0
C1687 C 0.55159 0.25319 0.56925 0.0
C1688 C 0.52758 0.21549 0.48998 0.0
C1689 C 0.56094 0.20245 0.48258 0.0
C1690 C 0.52515 0.24348 0.50679 0.0
C1691 C 0.55682 0.25851 0.51635 0.0
C1692 C 0.59035 0.24363 0.51016 0.0
C1693 C 0.59196 0.21585 0.49338 0.0
C1694 C 0.48889 0.25835 0.51306 0.0
C1695 C 0.62481 0.25847 0.52014 0.0
H1696 H 0.5734 0.38041 0.52594 0.0
H1697 H 0.56735 0.31609 0.5899 0.0
H1698 H 0.58281 0.31694 0.48534 0.0
H1699 H 0.53506 0.31557 0.48582 0.0
H1700 H 0.55782 0.35786 0.48781 0.0
H1701 H 0.54659 0.25648 0.58882 0.0
H1702 H 0.52905 0.23818 0.5612 0.0
H1703 H 0.57605 0.23681 0.56695 0.0
H1704 H 0.5035 0.20545 0.48155 0.0
H1705 H 0.6178 0.20569 0.48782 0.0
H1706 H 0.48466 0.28374 0.50319 0.0
H1707 H 0.48701 0.26431 0.53256 0.0
H1708 H 0.46709 0.23967 0.50809 0.0
H1709 H 0.62859 0.28623 0.51366 0.0
H1710 H 0.64842 0.24244 0.51468 0.0
H1711 H 0.62375 0.25935 0.54006 0.0
C1712 C 0.2567 0.5873 0.48432 0.0
C1713 C 0.27482 0.55621 0.47749 0.0
C1714 C 0.23046 0.58657 0.50224 0.0
C1715 C 0.22153 0.55374 0.51334 0.0
C1716 C 0.24037 0.52233 0.50699 0.0
C1717 C 0.2671 0.524 0.48924 0.0
C1718 C 0.21163 0.62088 0.50882 0.0
C1719 C 0.23125 0.48678 0.51816 0.0
C1720 C 0.17021 0.56774 0.57112 0.0
C1721 C 0.1349 0.56911 0.56259 0.0
C1722 C 0.19874 0.56001 0.55562 0.0
C1723 C 0.19179 0.55285 0.5311 0.0
C1724 C 0.15601 0.5505 0.52296 0.0
C1725 C 0.12797 0.55893 0.53876 0.0
C1726 C 0.23645 0.56287 0.56505 0.0
C1727 C 0.14743 0.54194 0.49708 0.0
H1728 H 0.26274 0.61227 0.47533 0.0
H1729 H 0.28077 0.49982 0.48377 0.0
H1730 H 0.18293 0.61897 0.50406 0.0
H1731 H 0.21329 0.62543 0.52851 0.0
H1732 H 0.22313 0.64441 0.49946 0.0
H1733 H 0.25071 0.46567 0.51316 0.0
H1734 H 0.23034 0.48894 0.53804 0.0
H1735 H 0.20431 0.47839 0.51209 0.0
H1736 H 0.17598 0.57529 0.58952 0.0
H1737 H 0.1008 0.55943 0.53205 0.0
H1738 H 0.24857 0.58805 0.55845 0.0
H1739 H 0.25315 0.54053 0.55837 0.0
H1740 H 0.23732 0.56298 0.58502 0.0
H1741 H 0.1539 0.56533 0.48563 0.0
H1742 H 0.11875 0.53536 0.49455 0.0
H1743 H 0.16381 0.51918 0.49066 0.0
C1744 C 0.92687 0.12519 0.53288 0.0
C1745 C 0.92523 0.13091 0.55782 0.0
C1746 C 0.93455 0.15338 0.51694 0.0
C1747 C 0.94035 0.18819 0.5261 0.0
C1748 C 0.94158 0.19347 0.55128 0.0
C1749 C 0.93428 0.1648 0.56679 0.0
C1750 C 0.93391 0.14638 0.49022 0.0
C1751 C 0.94776 0.23005 0.56186 0.0
C1752 C 0.97128 0.26203 0.48349 0.0
C1753 C 0.93857 0.27702 0.47639 0.0
C1754 C 0.97249 0.23328 0.49983 0.0
C1755 C 0.94029 0.21962 0.50953 0.0
C1756 C 0.90737 0.23571 0.50312 0.0
C1757 C 0.90691 0.26394 0.48653 0.0
C1758 C 0.00806 0.21659 0.50588 0.0
C1759 C 0.87241 0.22249 0.51331 0.0
H1760 H 0.92023 0.09917 0.52567 0.0
H1761 H 0.93345 0.16966 0.58599 0.0
H1762 H 0.90924 0.15794 0.48236 0.0
H1763 H 0.95695 0.15942 0.48129 0.0
H1764 H 0.93452 0.11739 0.48606 0.0
H1765 H 0.95257 0.22895 0.58156 0.0
H1766 H 0.97089 0.24321 0.55313 0.0
H1767 H 0.92397 0.24701 0.55851 0.0
H1768 H 0.9958 0.2716 0.47541 0.0
H1769 H 0.88156 0.27539 0.48109 0.0
H1770 H 0.00946 0.18947 0.49794 0.0
H1771 H 0.01108 0.2136 0.52562 0.0
H1772 H 0.03081 0.23251 0.49888 0.0
H1773 H 0.86779 0.19451 0.5076 0.0
H1774 H 0.84933 0.23893 0.50736 0.0
H1775 H 0.87339 0.22272 0.53326 0.0
C1776 C 0.87298 0.05582 0.97425 0.0
C1777 C 0.87093 0.05501 0.94906 0.0
C1778 C 0.8434 0.04653 0.98849 0.0
C1779 C 0.811 0.03633 0.97725 0.0
C1780 C 0.81 0.03183 0.95202 0.0
C1781 C 0.84002 0.04105 0.93823 0.0
C1782 C 0.84587 0.0508 0.01543 0.0
C1783 C 0.77621 0.02069 0.93929 0.0
C1784 C 0.7348 0.00667 0.01807 0.0
C1785 C 0.71709 0.03919 0.02207 0.0
C1786 C 0.76491 0.00489 0.00296 0.0
C1787 C 0.77719 0.03624 0.9914 0.0
C1788 C 0.75809 0.06861 0.99431 0.0
C1789 C 0.72844 0.0697 0.00967 0.0
C1790 C 0.78433 0.96985 1.00008 0.0
C1791 C 0.76996 0.10262 0.98209 0.0
H1792 H 0.89678 0.06613 0.98288 0.0
H1793 H 0.83817 0.03976 0.9188 0.0
H1794 H 0.83105 0.07511 0.02094 0.0
H1795 H 0.83346 0.02774 0.02473 0.0
H1796 H 0.87396 0.05339 0.02162 0.0
H1797 H 0.78156 0.01169 0.9206 0.0
H1798 H 0.76254 -0.00109 0.94915 0.0
H1799 H 0.7576 0.04372 0.9385 0.0
H1800 H 0.72639 0.98304 0.02778 0.0
H1801 H 0.71484 0.09486 0.01265 0.0
H1802 H 0.81283 0.97294 0.00512 0.0
H1803 H 0.78364 0.96146 0.98096 0.0
H1804 H 0.77245 0.94832 0.01124 0.0
H1805 H 0.79658 0.11059 0.98901 0.0
H1806 H 0.75103 0.125 0.98513 0.0
H1807 H 0.77263 0.09829 0.96244 0.0
C1808 C 0.43574 0.82857 0.93905 0.0
C1809 C 0.42807 0.86256 0.94842 0.0
C1810 C 0.44323 0.7996 0.95426 0.0
C1811 C 0.44356 0.80476 0.97945 0.0
C1812 C 0.43966 0.83967 0.98887 0.0
C1813 C 0.4318 0.86815 0.97326 0.0
C1814 C 0.44747 0.76291 0.94342 0.0
C1815 C 0.44081 0.84647 0.01562 0.0
C1816 C 0.40681 0.73137 0.01937 0.0
C1817 C 0.4379 0.7165 0.0292 0.0
C1818 C 0.40852 0.75936 1.00269 0.0
C1819 C 0.44218 0.77332 0.99587 0.0
C1820 C 0.47378 0.75774 0.00518 0.0
C1821 C 0.47127 0.72928 0.02164 0.0
C1822 C 0.37412 0.77469 0.99289 0.0
C1823 C 0.51012 0.77212 0.99862 0.0
H1824 H 0.43339 0.82387 0.91989 0.0
H1825 H 0.42638 0.8943 0.98073 0.0
H1826 H 0.46998 0.74839 0.95194 0.0
H1827 H 0.42285 0.7472 0.94674 0.0
H1828 H 0.4521 0.76409 0.9237 0.0
H1829 H 0.44308 0.87536 0.01982 0.0
H1830 H 0.416 0.83617 0.02402 0.0
H1831 H 0.46362 0.83219 0.02399 0.0
H1832 H 0.38097 0.72153 0.02513 0.0
H1833 H 0.49538 0.71821 0.02946 0.0
H1834 H 0.37457 0.77446 0.97294 0.0
H1835 H 0.37129 0.80288 0.99867 0.0
H1836 H 0.35029 0.75965 0.99909 0.0
H1837 H 0.5125 0.77556 0.97888 0.0
H1838 H 0.53201 0.75443 0.00495 0.0
H1839 H 0.5137 0.7988 0.00691 0.0
C1840 C 0.76351 0.46846 0.01768 0.0
C1841 C 0.77505 0.43564 0.02705 0.0
C1842 C 0.73553 0.47007 1.00078 0.0
C1843 C 0.71918 0.43808 0.99287 0.0
C1844 C 0.73186 0.40485 1.00155 0.0
C1845 C 0.75939 0.40408 0.01863 0.0
C1846 C 0.72252 0.506 0.99218 0.0
C1847 C 0.71572 0.37002 0.99327 0.0
C1848 C 0.62482 0.42941 0.9687 0.0
C1849 C 0.6313 0.42335 0.94418 0.0
C1850 C 0.653 0.43722 0.98459 0.0
C1851 C 0.68848 0.43871 0.97578 0.0
C1852 C 0.69474 0.4357 0.95079 0.0
C1853 C 0.6661 0.42829 0.9353 0.0
C1854 C 0.64509 0.44114 0.01107 0.0
C1855 C 0.73207 0.43721 0.94059 0.0
H1856 H 0.77518 0.49298 0.02438 0.0
H1857 H 0.76827 0.37864 0.02577 0.0
H1858 H 0.72069 0.50652 0.97227 0.0
H1859 H 0.69529 0.51096 0.99929 0.0
H1860 H 0.74022 0.52806 0.99814 0.0
H1861 H 0.72966 0.34646 1.00098 0.0
H1862 H 0.6872 0.36884 0.99862 0.0
H1863 H 0.71677 0.36819 0.97337 0.0
H1864 H 0.59808 0.42599 0.97579 0.0
H1865 H 0.67151 0.42415 0.91636 0.0
H1866 H 0.6597 0.46426 0.01869 0.0
H1867 H 0.65431 0.41692 0.02075 0.0
H1868 H 0.6161 0.44468 0.01458 0.0
H1869 H 0.74706 0.46008 0.94819 0.0
H1870 H 0.73201 0.43953 0.92067 0.0
H1871 H 0.74668 0.41252 0.94559 0.0
C1872 C 0.01755 0.77271 0.01388 0.0
C1873 C 0.04985 0.78784 0.02165 0.0
C1874 C 0.01722 0.74483 0.997 0.0
C1875 C 0.04992 0.73209 0.98756 0.0
C1876 C 0.08231 0.74907 0.99401 0.0
C1877 C 0.08188 0.77665 0.01102 0.0
C1878 C 0.98213 0.72752 0.99055 0.0
C1879 C 0.11774 0.73671 0.98404 0.0
C1880 C 0.06513 0.63611 0.96887 0.0
C1881 C 0.06741 0.63938 0.94378 0.0
C1882 C 0.05696 0.66573 0.98331 0.0
C1883 C 0.05104 0.69941 0.97241 0.0
C1884 C 0.05043 0.70224 0.94707 0.0
C1885 C 0.05851 0.67219 0.93305 0.0
C1886 C 0.05714 0.66147 0.01032 0.0
C1887 C 0.04387 0.73757 0.93475 0.0
H1888 H 0.99266 0.78101 0.02211 0.0
H1889 H 0.1069 0.78836 0.01682 0.0
H1890 H 0.98032 0.72281 0.9709 0.0
H1891 H 0.98027 0.70117 0.99957 0.0
H1892 H 0.95894 0.74396 0.99626 0.0
H1893 H 0.14007 0.75453 0.98936 0.0
H1894 H 0.12364 0.7094 0.99068 0.0
H1895 H 0.11664 0.73545 0.96412 0.0
H1896 H 0.0716 0.61088 0.97736 0.0
H1897 H 0.05979 0.67504 0.91367 0.0
H1898 H 0.03304 0.67396 0.01829 0.0
H1899 H 0.08079 0.67528 0.01792 0.0
H1900 H 0.05812 0.633 0.01587 0.0
H1901 H 0.02065 0.75146 0.94286 0.0
H1902 H 0.03901 0.73434 0.91516 0.0
H1903 H 0.06752 0.75501 0.9372 0.0
loop_
_geom_bond_atom_site_label_1
_geom_bond_atom_site_label_2
_geom_bond_distance
_geom_bond_site_symmetry_2
_ccdc_geom_bond_type
O0 Zn1 1.953 . S
O0 C16 1.225 . S
Zn1 O0 1.953 . S
Zn1 O2 1.949 . S
Zn1 O8 1.919 . S
Zn1 O13 1.924 . S
O2 Zn1 1.949 . S
O2 Zn3 1.923 . S
O2 Zn4 1.950 . S
O2 Zn5 1.945 . S
Zn3 O2 1.923 . S
Zn3 O6 1.933 . S
Zn3 O9 1.941 . S
Zn3 O10 1.965 . S
Zn4 O2 1.950 . S
Zn4 O11 1.938 . S
Zn4 O12 1.906 . S
Zn4 O22 1.953 . S
Zn5 O2 1.945 . S
Zn5 O7 1.932 . S
Zn5 O14 1.977 . S
Zn5 O15 1.910 . S
O6 Zn3 1.933 . S
O6 C17 1.226 . S
O7 Zn5 1.932 . S
O7 C17 1.307 . S
O8 Zn1 1.919 . S
O8 C19 1.253 . S
O9 Zn3 1.941 . S
O9 C19 1.283 . S
O10 Zn3 1.965 . S
O10 C18 1.303 . S
O11 Zn4 1.938 . S
O11 C18 1.247 . S
O12 Zn4 1.906 . S
O12 C20 1.304 . S
O13 Zn1 1.924 . S
O13 C21 1.311 . S
O14 Zn5 1.977 . S
O14 C20 1.272 . S
O15 Zn5 1.910 . S
O15 C21 1.231 . S
C16 O0 1.225 . S
C16 O22 1.298 . S
C17 O6 1.226 . S
C17 O7 1.307 . S
C18 O10 1.303 . S
C18 O11 1.247 . S
C19 O8 1.253 . S
C19 O9 1.283 . S
C20 O12 1.304 . S
C20 O14 1.272 . S
C21 O13 1.311 . S
C21 O15 1.231 . S
O22 Zn4 1.953 . S
O22 C16 1.298 . S
O23 Zn24 1.953 . S
O23 C39 1.225 . S
Zn24 O23 1.953 . S
Zn24 O25 1.949 . S
Zn24 O31 1.919 . S
Zn24 O36 1.924 . S
O25 Zn24 1.949 . S
O25 Zn26 1.923 . S
O25 Zn27 1.950 . S
O25 Zn28 1.945 . S
Zn26 O25 1.923 . S
Zn26 O29 1.933 . S
Zn26 O32 1.941 . S
Zn26 O33 1.965 . S
Zn27 O25 1.950 . S
Zn27 O34 1.938 . S
Zn27 O35 1.906 . S
Zn27 O45 1.953 . S
Zn28 O25 1.945 . S
Zn28 O30 1.932 . S
Zn28 O37 1.977 . S
Zn28 O38 1.910 . S
O29 Zn26 1.933 . S
O29 C40 1.226 . S
O30 Zn28 1.932 . S
O30 C40 1.307 . S
O31 Zn24 1.919 . S
O31 C42 1.253 . S
O32 Zn26 1.941 . S
O32 C42 1.283 . S
O33 Zn26 1.965 . S
O33 C41 1.303 . S
O34 Zn27 1.938 . S
O34 C41 1.247 . S
O35 Zn27 1.906 . S
O35 C43 1.304 . S
O36 Zn24 1.924 . S
O36 C44 1.311 . S
O37 Zn28 1.977 . S
O37 C43 1.272 . S
O38 Zn28 1.910 . S
O38 C44 1.231 . S
C39 O23 1.225 . S
C39 O45 1.298 . S
C40 O29 1.226 . S
C40 O30 1.307 . S
C41 O33 1.303 . S
C41 O34 1.247 . S
C42 O31 1.253 . S
C42 O32 1.283 . S
C43 O35 1.304 . S
C43 O37 1.272 . S
C44 O36 1.311 . S
C44 O38 1.231 . S
O45 Zn27 1.953 . S
O45 C39 1.298 . S
O46 Zn47 1.953 . S
O46 C62 1.225 . S
Zn47 O46 1.953 . S
Zn47 O48 1.949 . S
Zn47 O54 1.919 . S
Zn47 O59 1.924 . S
O48 Zn47 1.949 . S
O48 Zn49 1.923 . S
O48 Zn50 1.950 . S
O48 Zn51 1.945 . S
Zn49 O48 1.923 . S
Zn49 O52 1.933 . S
Zn49 O55 1.941 . S
Zn49 O56 1.965 . S
Zn50 O48 1.950 . S
Zn50 O57 1.938 . S
Zn50 O58 1.916 . S
Zn50 O68 1.953 . S
Zn51 O48 1.945 . S
Zn51 O53 1.932 . S
Zn51 O60 1.977 1_655 S
Zn51 O61 1.910 . S
O52 Zn49 1.933 . S
O52 C63 1.226 . S
O53 Zn51 1.932 . S
O53 C63 1.307 . S
O54 Zn47 1.919 . S
O54 C65 1.253 . S
O55 Zn49 1.941 . S
O55 C65 1.283 . S
O56 Zn49 1.965 . S
O56 C64 1.303 . S
O57 Zn50 1.938 . S
O57 C64 1.247 . S
O58 Zn50 1.916 . S
O58 C66 1.298 1_655 S
O59 Zn47 1.924 . S
O59 C67 1.311 . S
O60 Zn51 1.977 1_455 S
O60 C66 1.272 . S
O61 Zn51 1.910 . S
O61 C67 1.231 . S
C62 O46 1.225 . S
C62 O68 1.298 . S
C63 O52 1.226 . S
C63 O53 1.307 . S
C64 O56 1.303 . S
C64 O57 1.247 . S
C65 O54 1.253 . S
C65 O55 1.283 . S
C66 O58 1.298 1_455 S
C66 O60 1.272 . S
C67 O59 1.311 . S
C67 O61 1.231 . S
O68 Zn50 1.953 . S
O68 C62 1.298 . S
O69 Zn70 1.953 . S
O69 C85 1.225 . S
Zn70 O69 1.953 . S
Zn70 O71 1.949 . S
Zn70 O77 1.919 . S
Zn70 O82 1.924 . S
O71 Zn70 1.949 . S
O71 Zn72 1.923 . S
O71 Zn73 1.950 . S
O71 Zn74 1.945 . S
Zn72 O71 1.923 . S
Zn72 O75 1.933 . S
Zn72 O78 1.941 1_565 S
Zn72 O79 1.965 1_565 S
Zn73 O71 1.950 . S
Zn73 O80 1.938 . S
Zn73 O81 1.906 . S
Zn73 O91 1.953 . S
Zn74 O71 1.945 . S
Zn74 O76 1.932 . S
Zn74 O83 1.977 . S
Zn74 O84 1.910 . S
O75 Zn72 1.933 . S
O75 C86 1.226 . S
O76 Zn74 1.932 . S
O76 C86 1.307 . S
O77 Zn70 1.919 . S
O77 C88 1.253 . S
O78 Zn72 1.941 1_545 S
O78 C88 1.283 1_545 S
O79 Zn72 1.965 1_545 S
O79 C87 1.303 . S
O80 Zn73 1.938 . S
O80 C87 1.247 1_565 S
O81 Zn73 1.906 . S
O81 C89 1.304 . S
O82 Zn70 1.924 . S
O82 C90 1.311 . S
O83 Zn74 1.977 . S
O83 C89 1.272 . S
O84 Zn74 1.910 . S
O84 C90 1.231 . S
C85 O69 1.225 . S
C85 O91 1.298 . S
C86 O75 1.226 . S
C86 O76 1.307 . S
C87 O79 1.303 . S
C87 O80 1.247 1_545 S
C88 O77 1.253 . S
C88 O78 1.283 1_565 S
C89 O81 1.304 . S
C89 O83 1.272 . S
C90 O82 1.311 . S
C90 O84 1.231 . S
O91 Zn73 1.953 . S
O91 C85 1.298 . S
O92 Zn93 1.953 . S
O92 C108 1.225 . S
Zn93 O92 1.953 . S
Zn93 O94 1.949 . S
Zn93 O100 1.919 . S
Zn93 O105 1.924 . S
O94 Zn93 1.949 . S
O94 Zn95 1.923 . S
O94 Zn96 1.950 . S
O94 Zn97 1.945 . S
Zn95 O94 1.923 . S
Zn95 O98 1.933 . S
Zn95 O101 1.941 1_455 S
Zn95 O102 1.965 1_455 S
Zn96 O94 1.950 . S
Zn96 O103 1.938 . S
Zn96 O104 1.906 . S
Zn96 O114 1.953 . S
Zn97 O94 1.945 . S
Zn97 O99 1.932 . S
Zn97 O106 1.977 . S
Zn97 O107 1.910 . S
O98 Zn95 1.933 . S
O98 C109 1.226 . S
O99 Zn97 1.932 . S
O99 C109 1.307 . S
O100 Zn93 1.919 . S
O100 C111 1.253 . S
O101 Zn95 1.941 1_655 S
O101 C111 1.283 1_655 S
O102 Zn95 1.965 1_655 S
O102 C110 1.303 . S
O103 Zn96 1.938 . S
O103 C110 1.247 1_455 S
O104 Zn96 1.906 . S
O104 C112 1.304 . S
O105 Zn93 1.924 . S
O105 C113 1.311 . S
O106 Zn97 1.977 . S
O106 C112 1.272 . S
O107 Zn97 1.910 . S
O107 C113 1.231 . S
C108 O92 1.225 . S
C108 O114 1.298 . S
C109 O98 1.226 . S
C109 O99 1.307 . S
C110 O102 1.303 . S
C110 O103 1.247 1_655 S
C111 O100 1.253 . S
C111 O101 1.283 1_455 S
C112 O104 1.304 . S
C112 O106 1.272 . S
C113 O105 1.311 . S
C113 O107 1.231 . S
O114 Zn96 1.953 . S
O114 C108 1.298 . S
O115 Zn116 1.953 . S
O115 C131 1.225 . S
Zn116 O115 1.953 . S
Zn116 O117 1.949 . S
Zn116 O123 1.919 . S
Zn116 O128 1.924 . S
O117 Zn116 1.949 . S
O117 Zn118 1.923 . S
O117 Zn119 1.950 . S
O117 Zn120 1.945 . S
Zn118 O117 1.923 . S
Zn118 O121 1.933 . S
Zn118 O124 1.941 1_545 S
Zn118 O125 1.965 1_545 S
Zn119 O117 1.950 . S
Zn119 O126 1.938 . S
Zn119 O127 1.906 . S
Zn119 O137 1.953 . S
Zn120 O117 1.945 . S
Zn120 O122 1.932 . S
Zn120 O129 1.977 . S
Zn120 O130 1.910 . S
O121 Zn118 1.933 . S
O121 C132 1.226 . S
O122 Zn120 1.932 . S
O122 C132 1.307 . S
O123 Zn116 1.919 . S
O123 C134 1.253 . S
O124 Zn118 1.941 1_565 S
O124 C134 1.283 1_565 S
O125 Zn118 1.965 1_565 S
O125 C133 1.303 . S
O126 Zn119 1.938 . S
O126 C133 1.247 1_545 S
O127 Zn119 1.906 . S
O127 C135 1.304 . S
O128 Zn116 1.924 . S
O128 C136 1.311 . S
O129 Zn120 1.977 . S
O129 C135 1.272 . S
O130 Zn120 1.910 . S
O130 C136 1.231 . S
C131 O115 1.225 . S
C131 O137 1.298 . S
C132 O121 1.226 . S
C132 O122 1.307 . S
C133 O125 1.303 . S
C133 O126 1.247 1_565 S
C134 O123 1.253 . S
C134 O124 1.283 1_545 S
C135 O127 1.304 . S
C135 O129 1.272 . S
C136 O128 1.311 . S
C136 O130 1.231 . S
O137 Zn119 1.953 . S
O137 C131 1.298 . S
O138 Zn139 1.953 . S
O138 C154 1.225 . S
Zn139 O138 1.953 . S
Zn139 O140 1.949 . S
Zn139 O146 1.919 . S
Zn139 O151 1.924 . S
O140 Zn139 1.949 . S
O140 Zn141 1.923 . S
O140 Zn142 1.950 . S
O140 Zn143 1.945 . S
Zn141 O140 1.923 . S
Zn141 O144 1.933 . S
Zn141 O147 1.941 . S
Zn141 O148 1.965 . S
Zn142 O140 1.950 . S
Zn142 O149 1.938 . S
Zn142 O150 1.906 . S
Zn142 O160 1.953 . S
Zn143 O140 1.945 . S
Zn143 O145 1.932 . S
Zn143 O152 1.977 . S
Zn143 O153 1.910 . S
O144 Zn141 1.933 . S
O144 C155 1.226 . S
O145 Zn143 1.932 . S
O145 C155 1.307 . S
O146 Zn139 1.919 . S
O146 C157 1.253 . S
O147 Zn141 1.941 . S
O147 C157 1.283 . S
O148 Zn141 1.965 . S
O148 C156 1.303 . S
O149 Zn142 1.938 . S
O149 C156 1.247 . S
O150 Zn142 1.906 . S
O150 C158 1.304 . S
O151 Zn139 1.924 . S
O151 C159 1.311 . S
O152 Zn143 1.977 . S
O152 C158 1.272 . S
O153 Zn143 1.910 . S
O153 C159 1.231 . S
C154 O138 1.225 . S
C154 O160 1.298 . S
C155 O144 1.226 . S
C155 O145 1.307 . S
C156 O148 1.303 . S
C156 O149 1.247 . S
C157 O146 1.253 . S
C157 O147 1.283 . S
C158 O150 1.304 . S
C158 O152 1.272 . S
C159 O151 1.311 . S
C159 O153 1.231 . S
O160 Zn142 1.953 . S
O160 C154 1.298 . S
O161 Zn162 1.953 . S
O161 C177 1.225 . S
Zn162 O161 1.953 . S
Zn162 O163 1.949 . S
Zn162 O169 1.919 . S
Zn162 O174 1.924 . S
O163 Zn162 1.949 . S
O163 Zn164 1.923 . S
O163 Zn165 1.950 . S
O163 Zn166 1.945 . S
Zn164 O163 1.923 . S
Zn164 O167 1.933 . S
Zn164 O170 1.941 . S
Zn164 O171 1.965 . S
Zn165 O163 1.950 . S
Zn165 O172 1.938 . S
Zn165 O173 1.906 . S
Zn165 O183 1.953 . S
Zn166 O163 1.945 . S
Zn166 O168 1.932 . S
Zn166 O175 1.977 . S
Zn166 O176 1.910 . S
O167 Zn164 1.933 . S
O167 C178 1.226 . S
O168 Zn166 1.932 . S
O168 C178 1.307 . S
O169 Zn162 1.919 . S
O169 C180 1.253 . S
O170 Zn164 1.941 . S
O170 C180 1.283 . S
O171 Zn164 1.965 . S
O171 C179 1.303 . S
O172 Zn165 1.938 . S
O172 C179 1.247 . S
O173 Zn165 1.906 . S
O173 C181 1.304 . S
O174 Zn162 1.924 . S
O174 C182 1.311 . S
O175 Zn166 1.977 . S
O175 C181 1.272 . S
O176 Zn166 1.910 . S
O176 C182 1.231 . S
C177 O161 1.225 . S
C177 O183 1.298 . S
C178 O167 1.226 . S
C178 O168 1.307 . S
C179 O171 1.303 . S
C179 O172 1.247 . S
C180 O169 1.253 . S
C180 O170 1.283 . S
C181 O173 1.304 . S
C181 O175 1.272 . S
C182 O174 1.311 . S
C182 O176 1.231 . S
O183 Zn165 1.953 . S
O183 C177 1.298 . S
O184 Zn185 1.953 . S
O184 C200 1.225 . S
Zn185 O184 1.953 . S
Zn185 O186 1.949 . S
Zn185 O192 1.919 . S
Zn185 O197 1.924 . S
O186 Zn185 1.949 . S
O186 Zn187 1.923 . S
O186 Zn188 1.950 . S
O186 Zn189 1.945 . S
Zn187 O186 1.923 . S
Zn187 O190 1.933 . S
Zn187 O193 1.941 . S
Zn187 O194 1.965 . S
Zn188 O186 1.950 . S
Zn188 O195 1.938 . S
Zn188 O196 1.906 . S
Zn188 O206 1.953 . S
Zn189 O186 1.945 . S
Zn189 O191 1.932 . S
Zn189 O198 1.977 . S
Zn189 O199 1.910 . S
O190 Zn187 1.933 . S
O190 C201 1.226 . S
O191 Zn189 1.932 . S
O191 C201 1.307 . S
O192 Zn185 1.919 . S
O192 C203 1.253 . S
O193 Zn187 1.941 . S
O193 C203 1.283 . S
O194 Zn187 1.965 . S
O194 C202 1.303 . S
O195 Zn188 1.938 . S
O195 C202 1.247 . S
O196 Zn188 1.906 . S
O196 C204 1.304 . S
O197 Zn185 1.924 . S
O197 C205 1.311 . S
O198 Zn189 1.977 . S
O198 C204 1.272 . S
O199 Zn189 1.910 . S
O199 C205 1.231 . S
C200 O184 1.225 . S
C200 O206 1.298 . S
C201 O190 1.226 . S
C201 O191 1.307 . S
C202 O194 1.303 . S
C202 O195 1.247 . S
C203 O192 1.253 . S
C203 O193 1.283 . S
C204 O196 1.304 . S
C204 O198 1.272 . S
C205 O197 1.311 . S
C205 O199 1.231 . S
O206 Zn188 1.953 . S
O206 C200 1.298 . S
O207 Zn208 1.953 . S
O207 C223 1.225 . S
Zn208 O207 1.953 . S
Zn208 O209 1.949 . S
Zn208 O215 1.919 . S
Zn208 O220 1.924 . S
O209 Zn208 1.949 . S
O209 Zn210 1.923 . S
O209 Zn211 1.950 . S
O209 Zn212 1.945 . S
Zn210 O209 1.923 . S
Zn210 O213 1.933 . S
Zn210 O216 1.941 . S
Zn210 O217 1.965 . S
Zn211 O209 1.950 . S
Zn211 O218 1.938 . S
Zn211 O219 1.906 . S
Zn211 O229 1.953 . S
Zn212 O209 1.945 . S
Zn212 O214 1.932 . S
Zn212 O221 1.977 . S
Zn212 O222 1.910 . S
O213 Zn210 1.933 . S
O213 C224 1.226 . S
O214 Zn212 1.932 . S
O214 C224 1.307 . S
O215 Zn208 1.919 . S
O215 C226 1.253 . S
O216 Zn210 1.941 . S
O216 C226 1.283 . S
O217 Zn210 1.965 . S
O217 C225 1.303 . S
O218 Zn211 1.938 . S
O218 C225 1.247 . S
O219 Zn211 1.906 . S
O219 C227 1.304 . S
O220 Zn208 1.924 . S
O220 C228 1.311 . S
O221 Zn212 1.977 . S
O221 C227 1.272 . S
O222 Zn212 1.910 . S
O222 C228 1.231 . S
C223 O207 1.225 . S
C223 O229 1.298 . S
C224 O213 1.226 . S
C224 O214 1.307 . S
C225 O217 1.303 . S
C225 O218 1.247 . S
C226 O215 1.253 . S
C226 O216 1.283 . S
C227 O219 1.304 . S
C227 O221 1.272 . S
C228 O220 1.311 . S
C228 O222 1.231 . S
O229 Zn211 1.953 . S
O229 C223 1.298 . S
O230 Zn231 1.953 . S
O230 C246 1.225 . S
Zn231 O230 1.953 . S
Zn231 O232 1.949 . S
Zn231 O238 1.919 . S
Zn231 O243 1.924 . S
O232 Zn231 1.949 . S
O232 Zn233 1.923 . S
O232 Zn234 1.950 . S
O232 Zn235 1.945 . S
Zn233 O232 1.923 . S
Zn233 O236 1.933 . S
Zn233 O239 1.941 . S
Zn233 O240 1.965 . S
Zn234 O232 1.950 . S
Zn234 O241 1.938 . S
Zn234 O242 1.927 . S
Zn234 O252 1.953 . S
Zn235 O232 1.945 . S
Zn235 O237 1.932 . S
Zn235 O244 1.977 1_455 S
Zn235 O245 1.910 . S
O236 Zn233 1.933 . S
O236 C247 1.226 . S
O237 Zn235 1.932 . S
O237 C247 1.307 . S
O238 Zn231 1.919 . S
O238 C249 1.253 . S
O239 Zn233 1.941 . S
O239 C249 1.283 . S
O240 Zn233 1.965 . S
O240 C248 1.303 . S
O241 Zn234 1.938 . S
O241 C248 1.247 . S
O242 Zn234 1.927 . S
O242 C250 1.292 1_455 S
O243 Zn231 1.924 . S
O243 C251 1.311 . S
O244 Zn235 1.977 1_655 S
O244 C250 1.272 . S
O245 Zn235 1.910 . S
O245 C251 1.231 . S
C246 O230 1.225 . S
C246 O252 1.298 . S
C247 O236 1.226 . S
C247 O237 1.307 . S
C248 O240 1.303 . S
C248 O241 1.247 . S
C249 O238 1.253 . S
C249 O239 1.283 . S
C250 O242 1.292 1_655 S
C250 O244 1.272 . S
C251 O243 1.311 . S
C251 O245 1.231 . S
O252 Zn234 1.953 . S
O252 C246 1.298 . S
O253 Zn254 1.953 . S
O253 C269 1.225 . S
Zn254 O253 1.953 . S
Zn254 O255 1.949 . S
Zn254 O261 1.919 . S
Zn254 O266 1.924 . S
O255 Zn254 1.949 . S
O255 Zn256 1.923 . S
O255 Zn257 1.950 . S
O255 Zn258 1.945 . S
Zn256 O255 1.923 . S
Zn256 O259 1.933 . S
Zn256 O262 1.941 . S
Zn256 O263 1.965 . S
Zn257 O255 1.950 . S
Zn257 O264 1.938 . S
Zn257 O265 1.906 . S
Zn257 O275 1.953 . S
Zn258 O255 1.945 . S
Zn258 O260 1.932 . S
Zn258 O267 1.977 1_545 S
Zn258 O268 1.910 . S
O259 Zn256 1.933 . S
O259 C270 1.226 . S
O260 Zn258 1.932 . S
O260 C270 1.307 . S
O261 Zn254 1.919 . S
O261 C272 1.253 . S
O262 Zn256 1.941 . S
O262 C272 1.283 . S
O263 Zn256 1.965 . S
O263 C271 1.303 . S
O264 Zn257 1.938 . S
O264 C271 1.247 . S
O265 Zn257 1.906 . S
O265 C273 1.304 1_545 S
O266 Zn254 1.924 . S
O266 C274 1.311 . S
O267 Zn258 1.977 1_565 S
O267 C273 1.272 . S
O268 Zn258 1.910 . S
O268 C274 1.231 . S
C269 O253 1.225 . S
C269 O275 1.298 . S
C270 O259 1.226 . S
C270 O260 1.307 . S
C271 O263 1.303 . S
C271 O264 1.247 . S
C272 O261 1.253 . S
C272 O262 1.283 . S
C273 O265 1.304 1_565 S
C273 O267 1.272 . S
C274 O266 1.311 . S
C274 O268 1.231 . S
O275 Zn257 1.953 . S
O275 C269 1.298 . S
O276 Zn277 1.953 . S
O276 C292 1.225 . S
Zn277 O276 1.953 . S
Zn277 O278 1.949 . S
Zn277 O284 1.919 . S
Zn277 O289 1.924 . S
O278 Zn277 1.949 . S
O278 Zn279 1.923 . S
O278 Zn280 1.950 . S
O278 Zn281 1.945 . S
Zn279 O278 1.923 . S
Zn279 O282 1.933 . S
Zn279 O285 1.941 . S
Zn279 O286 1.965 . S
Zn280 O278 1.950 . S
Zn280 O287 1.938 . S
Zn280 O288 1.914 . S
Zn280 O298 1.953 . S
Zn281 O278 1.945 . S
Zn281 O283 1.932 . S
Zn281 O290 1.977 1_655 S
Zn281 O291 1.910 . S
O282 Zn279 1.933 . S
O282 C293 1.226 . S
O283 Zn281 1.932 . S
O283 C293 1.307 . S
O284 Zn277 1.919 . S
O284 C295 1.253 . S
O285 Zn279 1.941 . S
O285 C295 1.283 . S
O286 Zn279 1.965 . S
O286 C294 1.303 . S
O287 Zn280 1.938 . S
O287 C294 1.247 . S
O288 Zn280 1.914 . S
O288 C296 1.299 1_655 S
O289 Zn277 1.924 . S
O289 C297 1.311 . S
O290 Zn281 1.977 1_455 S
O290 C296 1.272 . S
O291 Zn281 1.910 . S
O291 C297 1.231 . S
C292 O276 1.225 . S
C292 O298 1.298 . S
C293 O282 1.226 . S
C293 O283 1.307 . S
C294 O286 1.303 . S
C294 O287 1.247 . S
C295 O284 1.253 . S
C295 O285 1.283 . S
C296 O288 1.299 1_455 S
C296 O290 1.272 . S
C297 O289 1.311 . S
C297 O291 1.231 . S
O298 Zn280 1.953 . S
O298 C292 1.298 . S
O299 Zn300 1.953 . S
O299 C315 1.225 . S
Zn300 O299 1.953 . S
Zn300 O301 1.949 . S
Zn300 O307 1.919 . S
Zn300 O312 1.924 . S
O301 Zn300 1.949 . S
O301 Zn302 1.923 . S
O301 Zn303 1.950 . S
O301 Zn304 1.945 . S
Zn302 O301 1.923 . S
Zn302 O305 1.933 . S
Zn302 O308 1.941 . S
Zn302 O309 1.965 . S
Zn303 O301 1.950 . S
Zn303 O310 1.938 . S
Zn303 O311 1.929 . S
Zn303 O321 1.953 . S
Zn304 O301 1.945 . S
Zn304 O306 1.932 . S
Zn304 O313 1.977 1_565 S
Zn304 O314 1.910 . S
O305 Zn302 1.933 . S
O305 C316 1.226 . S
O306 Zn304 1.932 . S
O306 C316 1.307 . S
O307 Zn300 1.919 . S
O307 C318 1.253 . S
O308 Zn302 1.941 . S
O308 C318 1.283 . S
O309 Zn302 1.965 . S
O309 C317 1.303 . S
O310 Zn303 1.938 . S
O310 C317 1.247 . S
O311 Zn303 1.929 . S
O311 C319 1.290 1_565 S
O312 Zn300 1.924 . S
O312 C320 1.311 . S
O313 Zn304 1.977 1_545 S
O313 C319 1.272 . S
O314 Zn304 1.910 . S
O314 C320 1.231 . S
C315 O299 1.225 . S
C315 O321 1.298 . S
C316 O305 1.226 . S
C316 O306 1.307 . S
C317 O309 1.303 . S
C317 O310 1.247 . S
C318 O307 1.253 . S
C318 O308 1.283 . S
C319 O311 1.290 1_545 S
C319 O313 1.272 . S
C320 O312 1.311 . S
C320 O314 1.231 . S
O321 Zn303 1.953 . S
O321 C315 1.298 . S
O322 Zn323 1.953 . S
O322 C338 1.225 . S
Zn323 O322 1.953 . S
Zn323 O324 1.949 . S
Zn323 O330 1.919 . S
Zn323 O335 1.924 . S
O324 Zn323 1.949 . S
O324 Zn325 1.923 . S
O324 Zn326 1.950 . S
O324 Zn327 1.945 . S
Zn325 O324 1.923 . S
Zn325 O328 1.933 . S
Zn325 O331 1.941 . S
Zn325 O332 1.965 . S
Zn326 O324 1.950 . S
Zn326 O333 1.938 . S
Zn326 O334 1.906 . S
Zn326 O344 1.953 . S
Zn327 O324 1.945 . S
Zn327 O329 1.932 . S
Zn327 O336 1.977 . S
Zn327 O337 1.910 . S
O328 Zn325 1.933 . S
O328 C339 1.226 . S
O329 Zn327 1.932 . S
O329 C339 1.307 . S
O330 Zn323 1.919 . S
O330 C341 1.253 . S
O331 Zn325 1.941 . S
O331 C341 1.283 . S
O332 Zn325 1.965 . S
O332 C340 1.303 . S
O333 Zn326 1.938 . S
O333 C340 1.247 . S
O334 Zn326 1.906 . S
O334 C342 1.304 . S
O335 Zn323 1.924 . S
O335 C343 1.311 . S
O336 Zn327 1.977 . S
O336 C342 1.272 . S
O337 Zn327 1.910 . S
O337 C343 1.231 . S
C338 O322 1.225 . S
C338 O344 1.298 . S
C339 O328 1.226 . S
C339 O329 1.307 . S
C340 O332 1.303 . S
C340 O333 1.247 . S
C341 O330 1.253 . S
C341 O331 1.283 . S
C342 O334 1.304 . S
C342 O336 1.272 . S
C343 O335 1.311 . S
C343 O337 1.231 . S
O344 Zn326 1.953 . S
O344 C338 1.298 . S
O345 Zn346 1.953 . S
O345 C361 1.225 . S
Zn346 O345 1.953 . S
Zn346 O347 1.949 . S
Zn346 O353 1.919 . S
Zn346 O358 1.924 . S
O347 Zn346 1.949 . S
O347 Zn348 1.923 . S
O347 Zn349 1.950 . S
O347 Zn350 1.945 . S
Zn348 O347 1.923 . S
Zn348 O351 1.933 . S
Zn348 O354 1.941 . S
Zn348 O355 1.965 . S
Zn349 O347 1.950 . S
Zn349 O356 1.938 . S
Zn349 O357 1.906 . S
Zn349 O367 1.953 . S
Zn350 O347 1.945 . S
Zn350 O352 1.932 . S
Zn350 O359 1.977 . S
Zn350 O360 1.910 . S
O351 Zn348 1.933 . S
O351 C362 1.226 . S
O352 Zn350 1.932 . S
O352 C362 1.307 . S
O353 Zn346 1.919 . S
O353 C364 1.253 . S
O354 Zn348 1.941 . S
O354 C364 1.283 . S
O355 Zn348 1.965 . S
O355 C363 1.303 . S
O356 Zn349 1.938 . S
O356 C363 1.247 . S
O357 Zn349 1.906 . S
O357 C365 1.304 . S
O358 Zn346 1.924 . S
O358 C366 1.311 . S
O359 Zn350 1.977 . S
O359 C365 1.272 . S
O360 Zn350 1.910 . S
O360 C366 1.231 . S
C361 O345 1.225 . S
C361 O367 1.298 . S
C362 O351 1.226 . S
C362 O352 1.307 . S
C363 O355 1.303 . S
C363 O356 1.247 . S
C364 O353 1.253 . S
C364 O354 1.283 . S
C365 O357 1.304 . S
C365 O359 1.272 . S
C366 O358 1.311 . S
C366 O360 1.231 . S
O367 Zn349 1.953 . S
O367 C361 1.298 . S
C368 C369 1.391 . S
C368 C370 1.394 . S
C368 H384 0.931 . S
C369 C368 1.391 . S
C369 C373 1.376 . S
C370 C368 1.394 . S
C370 C371 1.369 . S
C370 C374 1.531 . S
C371 C370 1.369 . S
C371 C372 1.410 . S
C371 C379 1.503 . S
C372 C371 1.410 . S
C372 C373 1.392 . S
C372 C375 1.511 . S
C373 C369 1.376 . S
C373 C372 1.392 . S
C373 H385 0.929 . S
C374 C370 1.531 . S
C374 H386 0.960 . S
C374 H387 0.962 . S
C374 H388 0.960 . S
C375 C372 1.511 . S
C375 H389 0.961 . S
C375 H390 0.961 . S
C375 H391 0.961 . S
C376 C377 1.370 . S
C376 C378 1.363 . S
C376 H392 0.931 . S
C377 C376 1.370 . S
C377 C381 1.408 . S
C378 C376 1.363 . S
C378 C379 1.370 . S
C378 C382 1.524 . S
C379 C371 1.503 . S
C379 C378 1.370 . S
C379 C380 1.403 . S
C380 C379 1.403 . S
C380 C381 1.404 . S
C380 C383 1.539 . S
C381 C377 1.408 . S
C381 C380 1.404 . S
C381 H393 0.930 . S
C382 C378 1.524 . S
C382 H394 0.956 . S
C382 H395 0.961 . S
C382 H396 0.961 . S
C383 C380 1.539 . S
C383 H397 0.958 . S
C383 H398 0.961 . S
C383 H399 0.960 . S
H384 C368 0.931 . S
H385 C373 0.929 . S
H386 C374 0.960 . S
H387 C374 0.962 . S
H388 C374 0.960 . S
H389 C375 0.961 . S
H390 C375 0.961 . S
H391 C375 0.961 . S
H392 C376 0.931 . S
H393 C381 0.930 . S
H394 C382 0.956 . S
H395 C382 0.961 . S
H396 C382 0.961 . S
H397 C383 0.958 . S
H398 C383 0.961 . S
H399 C383 0.960 . S
C400 C401 1.391 . S
C400 C402 1.394 . S
C400 H416 0.931 . S
C401 C400 1.391 . S
C401 C405 1.376 . S
C402 C400 1.394 . S
C402 C403 1.369 . S
C402 C406 1.531 . S
C403 C402 1.369 . S
C403 C404 1.410 . S
C403 C411 1.503 . S
C404 C403 1.410 . S
C404 C405 1.392 . S
C404 C407 1.511 . S
C405 C401 1.376 . S
C405 C404 1.392 . S
C405 H417 0.929 . S
C406 C402 1.531 . S
C406 H418 0.960 . S
C406 H419 0.962 . S
C406 H420 0.960 . S
C407 C404 1.511 . S
C407 H421 0.961 . S
C407 H422 0.961 . S
C407 H423 0.961 . S
C408 C409 1.370 . S
C408 C410 1.363 . S
C408 H424 0.931 . S
C409 C408 1.370 . S
C409 C413 1.408 . S
C410 C408 1.363 . S
C410 C411 1.370 . S
C410 C414 1.524 . S
C411 C403 1.503 . S
C411 C410 1.370 . S
C411 C412 1.403 . S
C412 C411 1.403 . S
C412 C413 1.404 . S
C412 C415 1.539 . S
C413 C409 1.408 . S
C413 C412 1.404 . S
C413 H425 0.930 . S
C414 C410 1.524 . S
C414 H426 0.956 . S
C414 H427 0.961 . S
C414 H428 0.961 . S
C415 C412 1.539 . S
C415 H429 0.958 . S
C415 H430 0.961 . S
C415 H431 0.960 . S
H416 C400 0.931 . S
H417 C405 0.929 . S
H418 C406 0.960 . S
H419 C406 0.962 . S
H420 C406 0.960 . S
H421 C407 0.961 . S
H422 C407 0.961 . S
H423 C407 0.961 . S
H424 C408 0.931 . S
H425 C413 0.930 . S
H426 C414 0.956 . S
H427 C414 0.961 . S
H428 C414 0.961 . S
H429 C415 0.958 . S
H430 C415 0.961 . S
H431 C415 0.960 . S
C432 C433 1.391 . S
C432 C434 1.394 . S
C432 H448 0.931 . S
C433 C432 1.391 . S
C433 C437 1.376 . S
C434 C432 1.394 . S
C434 C435 1.369 . S
C434 C438 1.531 . S
C435 C434 1.369 . S
C435 C436 1.410 . S
C435 C443 1.503 . S
C436 C435 1.410 . S
C436 C437 1.392 . S
C436 C439 1.511 . S
C437 C433 1.376 . S
C437 C436 1.392 . S
C437 H449 0.929 . S
C438 C434 1.531 . S
C438 H450 0.960 . S
C438 H451 0.962 . S
C438 H452 0.960 . S
C439 C436 1.511 . S
C439 H453 0.961 . S
C439 H454 0.961 . S
C439 H455 0.961 . S
C440 C441 1.370 . S
C440 C442 1.363 . S
C440 H456 0.931 . S
C441 C440 1.370 . S
C441 C445 1.408 . S
C442 C440 1.363 . S
C442 C443 1.370 . S
C442 C446 1.524 . S
C443 C435 1.503 . S
C443 C442 1.370 . S
C443 C444 1.403 . S
C444 C443 1.403 . S
C444 C445 1.404 . S
C444 C447 1.539 . S
C445 C441 1.408 . S
C445 C444 1.404 . S
C445 H457 0.930 . S
C446 C442 1.524 . S
C446 H458 0.956 . S
C446 H459 0.961 . S
C446 H460 0.961 . S
C447 C444 1.539 . S
C447 H461 0.958 . S
C447 H462 0.961 . S
C447 H463 0.960 . S
H448 C432 0.931 . S
H449 C437 0.929 . S
H450 C438 0.960 . S
H451 C438 0.962 . S
H452 C438 0.960 . S
H453 C439 0.961 . S
H454 C439 0.961 . S
H455 C439 0.961 . S
H456 C440 0.931 . S
H457 C445 0.930 . S
H458 C446 0.956 . S
H459 C446 0.961 . S
H460 C446 0.961 . S
H461 C447 0.958 . S
H462 C447 0.961 . S
H463 C447 0.960 . S
C464 C465 1.391 . S
C464 C466 1.394 . S
C464 H480 0.931 . S
C465 C464 1.391 . S
C465 C469 1.376 . S
C466 C464 1.394 . S
C466 C467 1.369 . S
C466 C470 1.531 . S
C467 C466 1.369 . S
C467 C468 1.410 . S
C467 C475 1.503 . S
C468 C467 1.410 . S
C468 C469 1.392 . S
C468 C471 1.511 . S
C469 C465 1.376 . S
C469 C468 1.392 . S
C469 H481 0.929 . S
C470 C466 1.531 . S
C470 H482 0.960 . S
C470 H483 0.962 . S
C470 H484 0.960 . S
C471 C468 1.511 . S
C471 H485 0.961 . S
C471 H486 0.961 . S
C471 H487 0.961 . S
C472 C473 1.370 . S
C472 C474 1.363 . S
C472 H488 0.931 . S
C473 C472 1.370 . S
C473 C477 1.408 . S
C474 C472 1.363 . S
C474 C475 1.370 . S
C474 C478 1.524 . S
C475 C467 1.503 . S
C475 C474 1.370 . S
C475 C476 1.403 . S
C476 C475 1.403 . S
C476 C477 1.404 . S
C476 C479 1.539 . S
C477 C473 1.408 . S
C477 C476 1.404 . S
C477 H489 0.930 . S
C478 C474 1.524 . S
C478 H490 0.956 . S
C478 H491 0.961 . S
C478 H492 0.961 . S
C479 C476 1.539 . S
C479 H493 0.958 . S
C479 H494 0.961 . S
C479 H495 0.960 . S
H480 C464 0.931 . S
H481 C469 0.929 . S
H482 C470 0.960 . S
H483 C470 0.962 . S
H484 C470 0.960 . S
H485 C471 0.961 . S
H486 C471 0.961 . S
H487 C471 0.961 . S
H488 C472 0.931 . S
H489 C477 0.930 . S
H490 C478 0.956 . S
H491 C478 0.961 . S
H492 C478 0.961 . S
H493 C479 0.958 . S
H494 C479 0.961 . S
H495 C479 0.960 . S
C496 C497 1.391 . S
C496 C498 1.394 . S
C496 H512 0.931 . S
C497 C496 1.391 . S
C497 C501 1.376 . S
C498 C496 1.394 . S
C498 C499 1.369 . S
C498 C502 1.531 . S
C499 C498 1.369 . S
C499 C500 1.410 . S
C499 C507 1.503 . S
C500 C499 1.410 . S
C500 C501 1.392 . S
C500 C503 1.511 . S
C501 C497 1.376 . S
C501 C500 1.392 . S
C501 H513 0.929 . S
C502 C498 1.531 . S
C502 H514 0.960 . S
C502 H515 0.962 . S
C502 H516 0.960 . S
C503 C500 1.511 . S
C503 H517 0.961 . S
C503 H518 0.961 . S
C503 H519 0.961 . S
C504 C505 1.370 . S
C504 C506 1.363 . S
C504 H520 0.931 . S
C505 C504 1.370 . S
C505 C509 1.408 . S
C506 C504 1.363 . S
C506 C507 1.370 . S
C506 C510 1.524 . S
C507 C499 1.503 . S
C507 C506 1.370 . S
C507 C508 1.403 . S
C508 C507 1.403 . S
C508 C509 1.404 . S
C508 C511 1.539 . S
C509 C505 1.408 . S
C509 C508 1.404 . S
C509 H521 0.930 . S
C510 C506 1.524 . S
C510 H522 0.956 . S
C510 H523 0.961 . S
C510 H524 0.961 . S
C511 C508 1.539 . S
C511 H525 0.958 . S
C511 H526 0.961 . S
C511 H527 0.960 . S
H512 C496 0.931 . S
H513 C501 0.929 . S
H514 C502 0.960 . S
H515 C502 0.962 . S
H516 C502 0.960 . S
H517 C503 0.961 . S
H518 C503 0.961 . S
H519 C503 0.961 . S
H520 C504 0.931 . S
H521 C509 0.930 . S
H522 C510 0.956 . S
H523 C510 0.961 . S
H524 C510 0.961 . S
H525 C511 0.958 . S
H526 C511 0.961 . S
H527 C511 0.960 . S
C528 C529 1.391 . S
C528 C530 1.394 . S
C528 H544 0.931 . S
C529 C528 1.391 . S
C529 C533 1.376 . S
C530 C528 1.394 . S
C530 C531 1.369 . S
C530 C534 1.531 . S
C531 C530 1.369 . S
C531 C532 1.410 . S
C531 C539 1.503 . S
C532 C531 1.410 . S
C532 C533 1.392 . S
C532 C535 1.511 . S
C533 C529 1.376 . S
C533 C532 1.392 . S
C533 H545 0.929 . S
C534 C530 1.531 . S
C534 H546 0.960 . S
C534 H547 0.962 . S
C534 H548 0.960 . S
C535 C532 1.511 . S
C535 H549 0.961 . S
C535 H550 0.961 . S
C535 H551 0.961 . S
C536 C537 1.370 . S
C536 C538 1.363 . S
C536 H552 0.931 . S
C537 C536 1.370 . S
C537 C541 1.408 . S
C538 C536 1.363 . S
C538 C539 1.370 . S
C538 C542 1.524 . S
C539 C531 1.503 . S
C539 C538 1.370 . S
C539 C540 1.403 . S
C540 C539 1.403 . S
C540 C541 1.404 . S
C540 C543 1.539 . S
C541 C537 1.408 . S
C541 C540 1.404 . S
C541 H553 0.930 . S
C542 C538 1.524 . S
C542 H554 0.956 . S
C542 H555 0.961 . S
C542 H556 0.961 . S
C543 C540 1.539 . S
C543 H557 0.958 . S
C543 H558 0.961 . S
C543 H559 0.960 . S
H544 C528 0.931 . S
H545 C533 0.929 . S
H546 C534 0.960 . S
H547 C534 0.962 . S
H548 C534 0.960 . S
H549 C535 0.961 . S
H550 C535 0.961 . S
H551 C535 0.961 . S
H552 C536 0.931 . S
H553 C541 0.930 . S
H554 C542 0.956 . S
H555 C542 0.961 . S
H556 C542 0.961 . S
H557 C543 0.958 . S
H558 C543 0.961 . S
H559 C543 0.960 . S
C560 C561 1.391 . S
C560 C562 1.394 . S
C560 H576 0.931 . S
C561 C560 1.391 . S
C561 C565 1.376 . S
C562 C560 1.394 . S
C562 C563 1.369 . S
C562 C566 1.531 . S
C563 C562 1.369 . S
C563 C564 1.410 . S
C563 C571 1.503 . S
C564 C563 1.410 . S
C564 C565 1.392 . S
C564 C567 1.511 . S
C565 C561 1.376 . S
C565 C564 1.392 . S
C565 H577 0.929 . S
C566 C562 1.531 . S
C566 H578 0.960 . S
C566 H579 0.962 . S
C566 H580 0.960 . S
C567 C564 1.511 . S
C567 H581 0.961 . S
C567 H582 0.961 . S
C567 H583 0.961 . S
C568 C569 1.370 . S
C568 C570 1.363 . S
C568 H584 0.931 . S
C569 C568 1.370 . S
C569 C573 1.408 . S
C570 C568 1.363 . S
C570 C571 1.370 . S
C570 C574 1.524 . S
C571 C563 1.503 . S
C571 C570 1.370 . S
C571 C572 1.403 . S
C572 C571 1.403 . S
C572 C573 1.404 . S
C572 C575 1.539 . S
C573 C569 1.408 . S
C573 C572 1.404 . S
C573 H585 0.930 . S
C574 C570 1.524 . S
C574 H586 0.956 . S
C574 H587 0.961 . S
C574 H588 0.961 . S
C575 C572 1.539 . S
C575 H589 0.958 . S
C575 H590 0.961 . S
C575 H591 0.960 . S
H576 C560 0.931 . S
H577 C565 0.929 . S
H578 C566 0.960 . S
H579 C566 0.962 . S
H580 C566 0.960 . S
H581 C567 0.961 . S
H582 C567 0.961 . S
H583 C567 0.961 . S
H584 C568 0.931 . S
H585 C573 0.930 . S
H586 C574 0.956 . S
H587 C574 0.961 . S
H588 C574 0.961 . S
H589 C575 0.958 . S
H590 C575 0.961 . S
H591 C575 0.960 . S
C592 C593 1.391 . S
C592 C594 1.394 . S
C592 H608 0.931 . S
C593 C592 1.391 . S
C593 C597 1.376 . S
C594 C592 1.394 . S
C594 C595 1.369 . S
C594 C598 1.531 . S
C595 C594 1.369 . S
C595 C596 1.410 . S
C595 C603 1.503 . S
C596 C595 1.410 . S
C596 C597 1.392 . S
C596 C599 1.511 . S
C597 C593 1.376 . S
C597 C596 1.392 . S
C597 H609 0.929 . S
C598 C594 1.531 . S
C598 H610 0.960 . S
C598 H611 0.962 . S
C598 H612 0.960 . S
C599 C596 1.511 . S
C599 H613 0.961 . S
C599 H614 0.961 . S
C599 H615 0.961 . S
C600 C601 1.370 . S
C600 C602 1.363 . S
C600 H616 0.931 . S
C601 C600 1.370 . S
C601 C605 1.408 . S
C602 C600 1.363 . S
C602 C603 1.370 . S
C602 C606 1.524 . S
C603 C595 1.503 . S
C603 C602 1.370 . S
C603 C604 1.403 . S
C604 C603 1.403 . S
C604 C605 1.404 . S
C604 C607 1.539 . S
C605 C601 1.408 . S
C605 C604 1.404 . S
C605 H617 0.930 . S
C606 C602 1.524 . S
C606 H618 0.956 . S
C606 H619 0.961 . S
C606 H620 0.961 . S
C607 C604 1.539 . S
C607 H621 0.958 . S
C607 H622 0.961 . S
C607 H623 0.960 . S
H608 C592 0.931 . S
H609 C597 0.929 . S
H610 C598 0.960 . S
H611 C598 0.962 . S
H612 C598 0.960 . S
H613 C599 0.961 . S
H614 C599 0.961 . S
H615 C599 0.961 . S
H616 C600 0.931 . S
H617 C605 0.930 . S
H618 C606 0.956 . S
H619 C606 0.961 . S
H620 C606 0.961 . S
H621 C607 0.958 . S
H622 C607 0.961 . S
H623 C607 0.960 . S
C624 C625 1.391 . S
C624 C626 1.394 . S
C624 H640 0.931 . S
C625 C624 1.391 . S
C625 C629 1.376 . S
C626 C624 1.394 . S
C626 C627 1.369 . S
C626 C630 1.531 . S
C627 C626 1.369 . S
C627 C628 1.410 . S
C627 C635 1.503 . S
C628 C627 1.410 . S
C628 C629 1.392 . S
C628 C631 1.511 . S
C629 C625 1.376 . S
C629 C628 1.392 . S
C629 H641 0.929 . S
C630 C626 1.531 . S
C630 H642 0.960 . S
C630 H643 0.962 . S
C630 H644 0.960 . S
C631 C628 1.511 . S
C631 H645 0.961 . S
C631 H646 0.961 . S
C631 H647 0.961 . S
C632 C633 1.370 . S
C632 C634 1.363 . S
C632 H648 0.931 . S
C633 C632 1.370 . S
C633 C637 1.408 . S
C634 C632 1.363 . S
C634 C635 1.370 . S
C634 C638 1.524 . S
C635 C627 1.503 . S
C635 C634 1.370 . S
C635 C636 1.403 . S
C636 C635 1.403 . S
C636 C637 1.404 . S
C636 C639 1.539 . S
C637 C633 1.408 . S
C637 C636 1.404 . S
C637 H649 0.930 . S
C638 C634 1.524 . S
C638 H650 0.956 . S
C638 H651 0.961 . S
C638 H652 0.961 . S
C639 C636 1.539 . S
C639 H653 0.958 . S
C639 H654 0.961 . S
C639 H655 0.960 . S
H640 C624 0.931 . S
H641 C629 0.929 . S
H642 C630 0.960 . S
H643 C630 0.962 . S
H644 C630 0.960 . S
H645 C631 0.961 . S
H646 C631 0.961 . S
H647 C631 0.961 . S
H648 C632 0.931 . S
H649 C637 0.930 . S
H650 C638 0.956 . S
H651 C638 0.961 . S
H652 C638 0.961 . S
H653 C639 0.958 . S
H654 C639 0.961 . S
H655 C639 0.960 . S
C656 C657 1.391 . S
C656 C658 1.394 . S
C656 H672 0.931 . S
C657 C656 1.391 . S
C657 C661 1.376 . S
C658 C656 1.394 . S
C658 C659 1.369 . S
C658 C662 1.531 . S
C659 C658 1.369 . S
C659 C660 1.410 . S
C659 C667 1.503 . S
C660 C659 1.410 . S
C660 C661 1.392 . S
C660 C663 1.511 . S
C661 C657 1.376 . S
C661 C660 1.392 . S
C661 H673 0.929 . S
C662 C658 1.531 . S
C662 H674 0.960 . S
C662 H675 0.962 . S
C662 H676 0.960 . S
C663 C660 1.511 . S
C663 H677 0.961 . S
C663 H678 0.961 . S
C663 H679 0.961 . S
C664 C665 1.370 . S
C664 C666 1.363 . S
C664 H680 0.931 . S
C665 C664 1.370 . S
C665 C669 1.408 . S
C666 C664 1.363 . S
C666 C667 1.370 . S
C666 C670 1.524 . S
C667 C659 1.503 . S
C667 C666 1.370 . S
C667 C668 1.403 . S
C668 C667 1.403 . S
C668 C669 1.404 . S
C668 C671 1.539 . S
C669 C665 1.408 . S
C669 C668 1.404 . S
C669 H681 0.930 . S
C670 C666 1.524 . S
C670 H682 0.956 . S
C670 H683 0.961 . S
C670 H684 0.961 . S
C671 C668 1.539 . S
C671 H685 0.958 . S
C671 H686 0.961 . S
C671 H687 0.960 . S
H672 C656 0.931 . S
H673 C661 0.929 . S
H674 C662 0.960 . S
H675 C662 0.962 . S
H676 C662 0.960 . S
H677 C663 0.961 . S
H678 C663 0.961 . S
H679 C663 0.961 . S
H680 C664 0.931 . S
H681 C669 0.930 . S
H682 C670 0.956 . S
H683 C670 0.961 . S
H684 C670 0.961 . S
H685 C671 0.958 . S
H686 C671 0.961 . S
H687 C671 0.960 . S
C688 C689 1.391 . S
C688 C690 1.394 . S
C688 H704 0.931 . S
C689 C688 1.391 . S
C689 C693 1.376 . S
C690 C688 1.394 . S
C690 C691 1.369 . S
C690 C694 1.531 . S
C691 C690 1.369 . S
C691 C692 1.410 . S
C691 C699 1.503 . S
C692 C691 1.410 . S
C692 C693 1.392 . S
C692 C695 1.511 . S
C693 C689 1.376 . S
C693 C692 1.392 . S
C693 H705 0.929 . S
C694 C690 1.531 . S
C694 H706 0.960 . S
C694 H707 0.962 . S
C694 H708 0.960 . S
C695 C692 1.511 . S
C695 H709 0.961 . S
C695 H710 0.961 . S
C695 H711 0.961 . S
C696 C697 1.370 . S
C696 C698 1.363 . S
C696 H712 0.931 . S
C697 C696 1.370 . S
C697 C701 1.408 . S
C698 C696 1.363 . S
C698 C699 1.370 . S
C698 C702 1.524 . S
C699 C691 1.503 . S
C699 C698 1.370 . S
C699 C700 1.403 . S
C700 C699 1.403 . S
C700 C701 1.404 . S
C700 C703 1.539 . S
C701 C697 1.408 . S
C701 C700 1.404 . S
C701 H713 0.930 . S
C702 C698 1.524 . S
C702 H714 0.956 . S
C702 H715 0.961 . S
C702 H716 0.961 . S
C703 C700 1.539 . S
C703 H717 0.958 . S
C703 H718 0.961 . S
C703 H719 0.960 . S
H704 C688 0.931 . S
H705 C693 0.929 . S
H706 C694 0.960 . S
H707 C694 0.962 . S
H708 C694 0.960 . S
H709 C695 0.961 . S
H710 C695 0.961 . S
H711 C695 0.961 . S
H712 C696 0.931 . S
H713 C701 0.930 . S
H714 C702 0.956 . S
H715 C702 0.961 . S
H716 C702 0.961 . S
H717 C703 0.958 . S
H718 C703 0.961 . S
H719 C703 0.960 . S
C720 C721 1.391 . S
C720 C722 1.394 . S
C720 H736 0.931 . S
C721 C720 1.391 . S
C721 C725 1.376 . S
C722 C720 1.394 . S
C722 C723 1.369 . S
C722 C726 1.531 . S
C723 C722 1.369 . S
C723 C724 1.410 . S
C723 C731 1.503 . S
C724 C723 1.410 . S
C724 C725 1.392 . S
C724 C727 1.511 . S
C725 C721 1.376 . S
C725 C724 1.392 . S
C725 H737 0.929 . S
C726 C722 1.531 . S
C726 H738 0.960 . S
C726 H739 0.962 . S
C726 H740 0.960 . S
C727 C724 1.511 . S
C727 H741 0.961 . S
C727 H742 0.961 . S
C727 H743 0.961 . S
C728 C729 1.370 1_655 S
C728 C730 1.363 1_655 S
C728 H744 0.931 . S
C729 C728 1.370 1_455 S
C729 C733 1.408 . S
C730 C728 1.363 1_455 S
C730 C731 1.370 . S
C730 C734 1.524 . S
C731 C723 1.503 . S
C731 C730 1.370 . S
C731 C732 1.403 . S
C732 C731 1.403 . S
C732 C733 1.404 . S
C732 C735 1.539 . S
C733 C729 1.408 . S
C733 C732 1.404 . S
C733 H745 0.930 . S
C734 C730 1.524 . S
C734 H746 0.956 . S
C734 H747 0.961 . S
C734 H748 0.961 1_455 S
C735 C732 1.539 . S
C735 H749 0.958 . S
C735 H750 0.961 . S
C735 H751 0.960 . S
H736 C720 0.931 . S
H737 C725 0.929 . S
H738 C726 0.960 . S
H739 C726 0.962 . S
H740 C726 0.960 . S
H741 C727 0.961 . S
H742 C727 0.961 . S
H743 C727 0.961 . S
H744 C728 0.931 . S
H745 C733 0.930 . S
H746 C734 0.956 . S
H747 C734 0.961 . S
H748 C734 0.961 1_655 S
H749 C735 0.958 . S
H750 C735 0.961 . S
H751 C735 0.960 . S
C752 C753 1.391 . S
C752 C754 1.394 . S
C752 H768 0.931 . S
C753 C752 1.391 . S
C753 C757 1.376 . S
C754 C752 1.394 . S
C754 C755 1.369 . S
C754 C758 1.531 . S
C755 C754 1.369 . S
C755 C756 1.410 . S
C755 C763 1.503 . S
C756 C755 1.410 . S
C756 C757 1.392 . S
C756 C759 1.511 . S
C757 C753 1.376 . S
C757 C756 1.392 . S
C757 H769 0.929 . S
C758 C754 1.531 . S
C758 H770 0.960 . S
C758 H771 0.962 . S
C758 H772 0.960 . S
C759 C756 1.511 . S
C759 H773 0.961 . S
C759 H774 0.961 . S
C759 H775 0.961 . S
C760 C761 1.370 . S
C760 C762 1.363 . S
C760 H776 0.931 . S
C761 C760 1.370 . S
C761 C765 1.408 . S
C762 C760 1.363 . S
C762 C763 1.370 . S
C762 C766 1.524 . S
C763 C755 1.503 . S
C763 C762 1.370 . S
C763 C764 1.403 . S
C764 C763 1.403 . S
C764 C765 1.404 . S
C764 C767 1.539 . S
C765 C761 1.408 . S
C765 C764 1.404 . S
C765 H777 0.930 . S
C766 C762 1.524 . S
C766 H778 0.956 . S
C766 H779 0.961 . S
C766 H780 0.961 . S
C767 C764 1.539 . S
C767 H781 0.958 . S
C767 H782 0.961 . S
C767 H783 0.960 . S
H768 C752 0.931 . S
H769 C757 0.929 . S
H770 C758 0.960 . S
H771 C758 0.962 . S
H772 C758 0.960 . S
H773 C759 0.961 . S
H774 C759 0.961 . S
H775 C759 0.961 . S
H776 C760 0.931 . S
H777 C765 0.930 . S
H778 C766 0.956 . S
H779 C766 0.961 . S
H780 C766 0.961 . S
H781 C767 0.958 . S
H782 C767 0.961 . S
H783 C767 0.960 . S
C784 C785 1.391 . S
C784 C786 1.394 . S
C784 H800 0.931 . S
C785 C784 1.391 . S
C785 C789 1.376 . S
C786 C784 1.394 . S
C786 C787 1.369 . S
C786 C790 1.531 . S
C787 C786 1.369 . S
C787 C788 1.410 . S
C787 C795 1.503 . S
C788 C787 1.410 . S
C788 C789 1.392 . S
C788 C791 1.511 . S
C789 C785 1.376 . S
C789 C788 1.392 . S
C789 H801 0.929 . S
C790 C786 1.531 . S
C790 H802 0.960 . S
C790 H803 0.962 . S
C790 H804 0.960 . S
C791 C788 1.511 . S
C791 H805 0.961 . S
C791 H806 0.961 . S
C791 H807 0.961 . S
C792 C793 1.370 . S
C792 C794 1.363 . S
C792 H808 0.931 . S
C793 C792 1.370 . S
C793 C797 1.408 . S
C794 C792 1.363 . S
C794 C795 1.370 . S
C794 C798 1.524 . S
C795 C787 1.503 . S
C795 C794 1.370 . S
C795 C796 1.403 . S
C796 C795 1.403 . S
C796 C797 1.404 . S
C796 C799 1.539 . S
C797 C793 1.408 . S
C797 C796 1.404 . S
C797 H809 0.930 . S
C798 C794 1.524 . S
C798 H810 0.956 . S
C798 H811 0.961 . S
C798 H812 0.961 . S
C799 C796 1.539 . S
C799 H813 0.958 . S
C799 H814 0.961 . S
C799 H815 0.960 . S
H800 C784 0.931 . S
H801 C789 0.929 . S
H802 C790 0.960 . S
H803 C790 0.962 . S
H804 C790 0.960 . S
H805 C791 0.961 . S
H806 C791 0.961 . S
H807 C791 0.961 . S
H808 C792 0.931 . S
H809 C797 0.930 . S
H810 C798 0.956 . S
H811 C798 0.961 . S
H812 C798 0.961 . S
H813 C799 0.958 . S
H814 C799 0.961 . S
H815 C799 0.960 . S
C816 C817 1.391 . S
C816 C818 1.394 . S
C816 H832 0.931 . S
C817 C816 1.391 . S
C817 C821 1.376 . S
C818 C816 1.394 . S
C818 C819 1.369 . S
C818 C822 1.531 . S
C819 C818 1.369 . S
C819 C820 1.410 . S
C819 C827 1.503 . S
C820 C819 1.410 . S
C820 C821 1.392 . S
C820 C823 1.511 . S
C821 C817 1.376 . S
C821 C820 1.392 . S
C821 H833 0.929 . S
C822 C818 1.531 . S
C822 H834 0.960 . S
C822 H835 0.962 . S
C822 H836 0.960 . S
C823 C820 1.511 . S
C823 H837 0.961 . S
C823 H838 0.961 . S
C823 H839 0.961 . S
C824 C825 1.370 . S
C824 C826 1.363 . S
C824 H840 0.931 . S
C825 C824 1.370 . S
C825 C829 1.408 . S
C826 C824 1.363 . S
C826 C827 1.370 . S
C826 C830 1.524 . S
C827 C819 1.503 . S
C827 C826 1.370 . S
C827 C828 1.403 . S
C828 C827 1.403 . S
C828 C829 1.404 . S
C828 C831 1.539 . S
C829 C825 1.408 . S
C829 C828 1.404 . S
C829 H841 0.930 . S
C830 C826 1.524 . S
C830 H842 0.956 . S
C830 H843 0.961 . S
C830 H844 0.961 . S
C831 C828 1.539 . S
C831 H845 0.958 . S
C831 H846 0.961 . S
C831 H847 0.960 . S
H832 C816 0.931 . S
H833 C821 0.929 . S
H834 C822 0.960 . S
H835 C822 0.962 . S
H836 C822 0.960 . S
H837 C823 0.961 . S
H838 C823 0.961 . S
H839 C823 0.961 . S
H840 C824 0.931 . S
H841 C829 0.930 . S
H842 C830 0.956 . S
H843 C830 0.961 . S
H844 C830 0.961 . S
H845 C831 0.958 . S
H846 C831 0.961 . S
H847 C831 0.960 . S
C848 C849 1.391 . S
C848 C850 1.394 . S
C848 H864 0.931 1_655 S
C849 C848 1.391 . S
C849 C853 1.376 . S
C850 C848 1.394 . S
C850 C851 1.369 . S
C850 C854 1.531 . S
C851 C850 1.369 . S
C851 C852 1.410 . S
C851 C859 1.503 . S
C852 C851 1.410 . S
C852 C853 1.392 . S
C852 C855 1.511 . S
C853 C849 1.376 . S
C853 C852 1.392 . S
C853 H865 0.929 . S
C854 C850 1.531 . S
C854 H866 0.960 . S
C854 H867 0.962 . S
C854 H868 0.960 . S
C855 C852 1.511 . S
C855 H869 0.961 . S
C855 H870 0.961 . S
C855 H871 0.961 . S
C856 C857 1.370 . S
C856 C858 1.363 . S
C856 H872 0.931 . S
C857 C856 1.370 . S
C857 C861 1.408 . S
C858 C856 1.363 . S
C858 C859 1.370 . S
C858 C862 1.524 . S
C859 C851 1.503 . S
C859 C858 1.370 . S
C859 C860 1.403 . S
C860 C859 1.403 . S
C860 C861 1.404 . S
C860 C863 1.539 . S
C861 C857 1.408 . S
C861 C860 1.404 . S
C861 H873 0.930 . S
C862 C858 1.524 . S
C862 H874 0.956 . S
C862 H875 0.961 . S
C862 H876 0.961 . S
C863 C860 1.539 . S
C863 H877 0.958 . S
C863 H878 0.961 . S
C863 H879 0.960 . S
H864 C848 0.931 1_455 S
H865 C853 0.929 . S
H866 C854 0.960 . S
H867 C854 0.962 . S
H868 C854 0.960 . S
H869 C855 0.961 . S
H870 C855 0.961 . S
H871 C855 0.961 . S
H872 C856 0.931 . S
H873 C861 0.930 . S
H874 C862 0.956 . S
H875 C862 0.961 . S
H876 C862 0.961 . S
H877 C863 0.958 . S
H878 C863 0.961 . S
H879 C863 0.960 . S
C880 C881 1.391 1_545 S
C880 C882 1.394 1_545 S
C880 H896 0.931 . S
C881 C880 1.391 1_565 S
C881 C885 1.376 . S
C882 C880 1.394 1_565 S
C882 C883 1.369 . S
C882 C886 1.531 1_565 S
C883 C882 1.369 . S
C883 C884 1.410 . S
C883 C891 1.503 . S
C884 C883 1.410 . S
C884 C885 1.392 . S
C884 C887 1.511 . S
C885 C881 1.376 . S
C885 C884 1.392 . S
C885 H897 0.929 . S
C886 C882 1.531 1_545 S
C886 H898 0.960 1_545 S
C886 H899 0.962 . S
C886 H900 0.960 . S
C887 C884 1.511 . S
C887 H901 0.961 . S
C887 H902 0.961 . S
C887 H903 0.961 . S
C888 C889 1.370 . S
C888 C890 1.363 . S
C888 H904 0.931 . S
C889 C888 1.370 . S
C889 C893 1.408 . S
C890 C888 1.363 . S
C890 C891 1.370 . S
C890 C894 1.524 . S
C891 C883 1.503 . S
C891 C890 1.370 . S
C891 C892 1.403 . S
C892 C891 1.403 . S
C892 C893 1.404 . S
C892 C895 1.539 . S
C893 C889 1.408 . S
C893 C892 1.404 . S
C893 H905 0.930 . S
C894 C890 1.524 . S
C894 H906 0.956 . S
C894 H907 0.961 . S
C894 H908 0.961 . S
C895 C892 1.539 . S
C895 H909 0.958 . S
C895 H910 0.961 . S
C895 H911 0.960 . S
H896 C880 0.931 . S
H897 C885 0.929 . S
H898 C886 0.960 1_565 S
H899 C886 0.962 . S
H900 C886 0.960 . S
H901 C887 0.961 . S
H902 C887 0.961 . S
H903 C887 0.961 . S
H904 C888 0.931 . S
H905 C893 0.930 . S
H906 C894 0.956 . S
H907 C894 0.961 . S
H908 C894 0.961 . S
H909 C895 0.958 . S
H910 C895 0.961 . S
H911 C895 0.960 . S
C912 C913 1.391 . S
C912 C914 1.394 . S
C912 H928 0.931 . S
C913 C912 1.391 . S
C913 C917 1.376 . S
C914 C912 1.394 . S
C914 C915 1.369 . S
C914 C918 1.531 . S
C915 C914 1.369 . S
C915 C916 1.410 . S
C915 C923 1.503 . S
C916 C915 1.410 . S
C916 C917 1.392 . S
C916 C919 1.511 . S
C917 C913 1.376 . S
C917 C916 1.392 . S
C917 H929 0.929 . S
C918 C914 1.531 . S
C918 H930 0.960 . S
C918 H931 0.962 . S
C918 H932 0.960 . S
C919 C916 1.511 . S
C919 H933 0.961 . S
C919 H934 0.961 . S
C919 H935 0.961 . S
C920 C921 1.370 . S
C920 C922 1.363 . S
C920 H936 0.931 . S
C921 C920 1.370 . S
C921 C925 1.408 . S
C922 C920 1.363 . S
C922 C923 1.370 . S
C922 C926 1.524 . S
C923 C915 1.503 . S
C923 C922 1.370 . S
C923 C924 1.403 . S
C924 C923 1.403 . S
C924 C925 1.404 . S
C924 C927 1.539 . S
C925 C921 1.408 . S
C925 C924 1.404 . S
C925 H937 0.930 . S
C926 C922 1.524 . S
C926 H938 0.956 . S
C926 H939 0.961 . S
C926 H940 0.961 . S
C927 C924 1.539 . S
C927 H941 0.958 . S
C927 H942 0.961 . S
C927 H943 0.960 . S
H928 C912 0.931 . S
H929 C917 0.929 . S
H930 C918 0.960 . S
H931 C918 0.962 . S
H932 C918 0.960 . S
H933 C919 0.961 . S
H934 C919 0.961 . S
H935 C919 0.961 . S
H936 C920 0.931 . S
H937 C925 0.930 . S
H938 C926 0.956 . S
H939 C926 0.961 . S
H940 C926 0.961 . S
H941 C927 0.958 . S
H942 C927 0.961 . S
H943 C927 0.960 . S
C944 C945 1.391 . S
C944 C946 1.394 . S
C944 H960 0.931 . S
C945 C944 1.391 . S
C945 C949 1.376 . S
C946 C944 1.394 . S
C946 C947 1.369 . S
C946 C950 1.531 . S
C947 C946 1.369 . S
C947 C948 1.410 . S
C947 C955 1.503 . S
C948 C947 1.410 . S
C948 C949 1.392 . S
C948 C951 1.511 . S
C949 C945 1.376 . S
C949 C948 1.392 . S
C949 H961 0.929 . S
C950 C946 1.531 . S
C950 H962 0.960 . S
C950 H963 0.962 . S
C950 H964 0.960 . S
C951 C948 1.511 . S
C951 H965 0.961 . S
C951 H966 0.961 . S
C951 H967 0.961 . S
C952 C953 1.370 . S
C952 C954 1.363 . S
C952 H968 0.931 . S
C953 C952 1.370 . S
C953 C957 1.408 . S
C954 C952 1.363 . S
C954 C955 1.370 . S
C954 C958 1.524 . S
C955 C947 1.503 . S
C955 C954 1.370 . S
C955 C956 1.403 . S
C956 C955 1.403 . S
C956 C957 1.404 . S
C956 C959 1.539 . S
C957 C953 1.408 . S
C957 C956 1.404 . S
C957 H969 0.930 . S
C958 C954 1.524 . S
C958 H970 0.956 . S
C958 H971 0.961 . S
C958 H972 0.961 . S
C959 C956 1.539 . S
C959 H973 0.958 . S
C959 H974 0.961 . S
C959 H975 0.960 . S
H960 C944 0.931 . S
H961 C949 0.929 . S
H962 C950 0.960 . S
H963 C950 0.962 . S
H964 C950 0.960 . S
H965 C951 0.961 . S
H966 C951 0.961 . S
H967 C951 0.961 . S
H968 C952 0.931 . S
H969 C957 0.930 . S
H970 C958 0.956 . S
H971 C958 0.961 . S
H972 C958 0.961 . S
H973 C959 0.958 . S
H974 C959 0.961 . S
H975 C959 0.960 . S
C976 C977 1.391 . S
C976 C978 1.394 . S
C976 H992 0.931 . S
C977 C976 1.391 . S
C977 C981 1.376 . S
C978 C976 1.394 . S
C978 C979 1.369 . S
C978 C982 1.531 . S
C979 C978 1.369 . S
C979 C980 1.410 . S
C979 C987 1.503 . S
C980 C979 1.410 . S
C980 C981 1.392 . S
C980 C983 1.511 . S
C981 C977 1.376 . S
C981 C980 1.392 . S
C981 H993 0.929 . S
C982 C978 1.531 . S
C982 H994 0.960 . S
C982 H995 0.962 . S
C982 H996 0.960 . S
C983 C980 1.511 . S
C983 H997 0.961 . S
C983 H998 0.961 . S
C983 H999 0.961 . S
C984 C985 1.370 . S
C984 C986 1.363 . S
C984 H1000 0.931 1_655 S
C985 C984 1.370 . S
C985 C989 1.408 . S
C986 C984 1.363 . S
C986 C987 1.370 . S
C986 C990 1.524 . S
C987 C979 1.503 . S
C987 C986 1.370 . S
C987 C988 1.403 . S
C988 C987 1.403 . S
C988 C989 1.404 . S
C988 C991 1.539 . S
C989 C985 1.408 . S
C989 C988 1.404 . S
C989 H1001 0.930 . S
C990 C986 1.524 . S
C990 H1002 0.956 . S
C990 H1003 0.961 . S
C990 H1004 0.961 . S
C991 C988 1.539 . S
C991 H1005 0.958 . S
C991 H1006 0.961 . S
C991 H1007 0.960 . S
H992 C976 0.931 . S
H993 C981 0.929 . S
H994 C982 0.960 . S
H995 C982 0.962 . S
H996 C982 0.960 . S
H997 C983 0.961 . S
H998 C983 0.961 . S
H999 C983 0.961 . S
H1000 C984 0.931 1_455 S
H1001 C989 0.930 . S
H1002 C990 0.956 . S
H1003 C990 0.961 . S
H1004 C990 0.961 . S
H1005 C991 0.958 . S
H1006 C991 0.961 . S
H1007 C991 0.960 . S
C1008 C1009 1.391 . S
C1008 C1010 1.394 . S
C1008 H1024 0.931 . S
C1009 C1008 1.391 . S
C1009 C1013 1.376 . S
C1010 C1008 1.394 . S
C1010 C1011 1.369 . S
C1010 C1014 1.531 . S
C1011 C1010 1.369 . S
C1011 C1012 1.410 . S
C1011 C1019 1.503 . S
C1012 C1011 1.410 . S
C1012 C1013 1.392 . S
C1012 C1015 1.511 . S
C1013 C1009 1.376 . S
C1013 C1012 1.392 . S
C1013 H1025 0.929 . S
C1014 C1010 1.531 . S
C1014 H1026 0.960 . S
C1014 H1027 0.962 . S
C1014 H1028 0.960 . S
C1015 C1012 1.511 . S
C1015 H1029 0.961 . S
C1015 H1030 0.961 . S
C1015 H1031 0.961 . S
C1016 C1017 1.370 1_565 S
C1016 C1018 1.363 1_565 S
C1016 H1032 0.931 . S
C1017 C1016 1.370 1_545 S
C1017 C1021 1.408 . S
C1018 C1016 1.363 1_545 S
C1018 C1019 1.370 . S
C1018 C1022 1.524 . S
C1019 C1011 1.503 . S
C1019 C1018 1.370 . S
C1019 C1020 1.403 . S
C1020 C1019 1.403 . S
C1020 C1021 1.404 . S
C1020 C1023 1.539 . S
C1021 C1017 1.408 . S
C1021 C1020 1.404 . S
C1021 H1033 0.930 . S
C1022 C1018 1.524 . S
C1022 H1034 0.956 . S
C1022 H1035 0.961 . S
C1022 H1036 0.961 1_545 S
C1023 C1020 1.539 . S
C1023 H1037 0.958 . S
C1023 H1038 0.961 . S
C1023 H1039 0.960 . S
H1024 C1008 0.931 . S
H1025 C1013 0.929 . S
H1026 C1014 0.960 . S
H1027 C1014 0.962 . S
H1028 C1014 0.960 . S
H1029 C1015 0.961 . S
H1030 C1015 0.961 . S
H1031 C1015 0.961 . S
H1032 C1016 0.931 . S
H1033 C1021 0.930 . S
H1034 C1022 0.956 . S
H1035 C1022 0.961 . S
H1036 C1022 0.961 1_565 S
H1037 C1023 0.958 . S
H1038 C1023 0.961 . S
H1039 C1023 0.960 . S
C1040 C1041 1.391 . S
C1040 C1042 1.394 . S
C1040 H1056 0.931 . S
C1041 C1040 1.391 . S
C1041 C1045 1.376 . S
C1042 C1040 1.394 . S
C1042 C1043 1.369 . S
C1042 C1046 1.531 . S
C1043 C1042 1.369 . S
C1043 C1044 1.410 . S
C1043 C1051 1.503 . S
C1044 C1043 1.410 . S
C1044 C1045 1.392 . S
C1044 C1047 1.511 . S
C1045 C1041 1.376 . S
C1045 C1044 1.392 . S
C1045 H1057 0.929 . S
C1046 C1042 1.531 . S
C1046 H1058 0.960 . S
C1046 H1059 0.962 . S
C1046 H1060 0.960 . S
C1047 C1044 1.511 . S
C1047 H1061 0.961 . S
C1047 H1062 0.961 . S
C1047 H1063 0.961 . S
C1048 C1049 1.370 . S
C1048 C1050 1.363 . S
C1048 H1064 0.931 . S
C1049 C1048 1.370 . S
C1049 C1053 1.408 . S
C1050 C1048 1.363 . S
C1050 C1051 1.370 . S
C1050 C1054 1.524 . S
C1051 C1043 1.503 . S
C1051 C1050 1.370 . S
C1051 C1052 1.403 . S
C1052 C1051 1.403 . S
C1052 C1053 1.404 . S
C1052 C1055 1.539 . S
C1053 C1049 1.408 . S
C1053 C1052 1.404 . S
C1053 H1065 0.930 . S
C1054 C1050 1.524 . S
C1054 H1066 0.956 . S
C1054 H1067 0.961 . S
C1054 H1068 0.961 . S
C1055 C1052 1.539 . S
C1055 H1069 0.958 . S
C1055 H1070 0.961 . S
C1055 H1071 0.960 . S
H1056 C1040 0.931 . S
H1057 C1045 0.929 . S
H1058 C1046 0.960 . S
H1059 C1046 0.962 . S
H1060 C1046 0.960 . S
H1061 C1047 0.961 . S
H1062 C1047 0.961 . S
H1063 C1047 0.961 . S
H1064 C1048 0.931 . S
H1065 C1053 0.930 . S
H1066 C1054 0.956 . S
H1067 C1054 0.961 . S
H1068 C1054 0.961 . S
H1069 C1055 0.958 . S
H1070 C1055 0.961 . S
H1071 C1055 0.960 . S
C1072 C1073 1.391 . S
C1072 C1074 1.394 . S
C1072 H1088 0.931 . S
C1073 C1072 1.391 . S
C1073 C1077 1.376 . S
C1074 C1072 1.394 . S
C1074 C1075 1.369 . S
C1074 C1078 1.531 . S
C1075 C1074 1.369 . S
C1075 C1076 1.410 . S
C1075 C1083 1.503 . S
C1076 C1075 1.410 . S
C1076 C1077 1.392 . S
C1076 C1079 1.511 . S
C1077 C1073 1.376 . S
C1077 C1076 1.392 . S
C1077 H1089 0.929 . S
C1078 C1074 1.531 . S
C1078 H1090 0.960 . S
C1078 H1091 0.962 . S
C1078 H1092 0.960 . S
C1079 C1076 1.511 . S
C1079 H1093 0.961 . S
C1079 H1094 0.961 . S
C1079 H1095 0.961 . S
C1080 C1081 1.370 . S
C1080 C1082 1.363 . S
C1080 H1096 0.931 . S
C1081 C1080 1.370 . S
C1081 C1085 1.408 . S
C1082 C1080 1.363 . S
C1082 C1083 1.370 . S
C1082 C1086 1.524 . S
C1083 C1075 1.503 . S
C1083 C1082 1.370 . S
C1083 C1084 1.403 . S
C1084 C1083 1.403 . S
C1084 C1085 1.404 . S
C1084 C1087 1.539 . S
C1085 C1081 1.408 . S
C1085 C1084 1.404 . S
C1085 H1097 0.930 . S
C1086 C1082 1.524 . S
C1086 H1098 0.956 . S
C1086 H1099 0.961 . S
C1086 H1100 0.961 . S
C1087 C1084 1.539 . S
C1087 H1101 0.958 . S
C1087 H1102 0.961 . S
C1087 H1103 0.960 . S
H1088 C1072 0.931 . S
H1089 C1077 0.929 . S
H1090 C1078 0.960 . S
H1091 C1078 0.962 . S
H1092 C1078 0.960 . S
H1093 C1079 0.961 . S
H1094 C1079 0.961 . S
H1095 C1079 0.961 . S
H1096 C1080 0.931 . S
H1097 C1085 0.930 . S
H1098 C1086 0.956 . S
H1099 C1086 0.961 . S
H1100 C1086 0.961 . S
H1101 C1087 0.958 . S
H1102 C1087 0.961 . S
H1103 C1087 0.960 . S
C1104 C1105 1.391 . S
C1104 C1106 1.394 . S
C1104 H1120 0.931 . S
C1105 C1104 1.391 . S
C1105 C1109 1.376 . S
C1106 C1104 1.394 . S
C1106 C1107 1.369 . S
C1106 C1110 1.531 . S
C1107 C1106 1.369 . S
C1107 C1108 1.410 . S
C1107 C1115 1.503 . S
C1108 C1107 1.410 . S
C1108 C1109 1.392 . S
C1108 C1111 1.511 . S
C1109 C1105 1.376 . S
C1109 C1108 1.392 . S
C1109 H1121 0.929 . S
C1110 C1106 1.531 . S
C1110 H1122 0.960 . S
C1110 H1123 0.962 . S
C1110 H1124 0.960 . S
C1111 C1108 1.511 . S
C1111 H1125 0.961 . S
C1111 H1126 0.961 . S
C1111 H1127 0.961 . S
C1112 C1113 1.370 . S
C1112 C1114 1.363 . S
C1112 H1128 0.931 . S
C1113 C1112 1.370 . S
C1113 C1117 1.411 . S
C1114 C1112 1.363 . S
C1114 C1115 1.370 . S
C1114 C1118 1.524 . S
C1115 C1107 1.503 . S
C1115 C1114 1.370 . S
C1115 C1116 1.403 . S
C1116 C1115 1.403 . S
C1116 C1117 1.413 . S
C1116 C1119 1.539 . S
C1117 C1113 1.411 . S
C1117 C1116 1.413 . S
C1117 H1129 0.918 1_455 S
C1118 C1114 1.524 . S
C1118 H1130 0.956 . S
C1118 H1131 0.961 . S
C1118 H1132 0.961 . S
C1119 C1116 1.539 . S
C1119 H1133 0.958 . S
C1119 H1134 0.961 1_455 S
C1119 H1135 0.960 . S
H1120 C1104 0.931 . S
H1121 C1109 0.929 . S
H1122 C1110 0.960 . S
H1123 C1110 0.962 . S
H1124 C1110 0.960 . S
H1125 C1111 0.961 . S
H1126 C1111 0.961 . S
H1127 C1111 0.961 . S
H1128 C1112 0.931 . S
H1129 C1117 0.918 1_655 S
H1130 C1118 0.956 . S
H1131 C1118 0.961 . S
H1132 C1118 0.961 . S
H1133 C1119 0.958 . S
H1134 C1119 0.961 1_655 S
H1135 C1119 0.960 . S
C1136 C1137 1.391 . S
C1136 C1138 1.394 . S
C1136 H1152 0.931 . S
C1137 C1136 1.391 . S
C1137 C1141 1.376 . S
C1138 C1136 1.394 . S
C1138 C1139 1.369 . S
C1138 C1142 1.531 . S
C1139 C1138 1.369 . S
C1139 C1140 1.410 . S
C1139 C1147 1.503 . S
C1140 C1139 1.410 . S
C1140 C1141 1.392 . S
C1140 C1143 1.511 . S
C1141 C1137 1.376 . S
C1141 C1140 1.392 . S
C1141 H1153 0.929 . S
C1142 C1138 1.531 . S
C1142 H1154 0.960 . S
C1142 H1155 0.962 . S
C1142 H1156 0.960 . S
C1143 C1140 1.511 . S
C1143 H1157 0.961 . S
C1143 H1158 0.961 . S
C1143 H1159 0.961 . S
C1144 C1145 1.370 . S
C1144 C1146 1.363 . S
C1144 H1160 0.931 . S
C1145 C1144 1.370 . S
C1145 C1149 1.408 . S
C1146 C1144 1.363 . S
C1146 C1147 1.370 . S
C1146 C1150 1.524 . S
C1147 C1139 1.503 . S
C1147 C1146 1.370 . S
C1147 C1148 1.403 . S
C1148 C1147 1.403 . S
C1148 C1149 1.404 . S
C1148 C1151 1.539 . S
C1149 C1145 1.408 . S
C1149 C1148 1.404 . S
C1149 H1161 0.930 . S
C1150 C1146 1.524 . S
C1150 H1162 0.956 . S
C1150 H1163 0.961 . S
C1150 H1164 0.961 . S
C1151 C1148 1.539 . S
C1151 H1165 0.958 . S
C1151 H1166 0.961 . S
C1151 H1167 0.960 . S
H1152 C1136 0.931 . S
H1153 C1141 0.929 . S
H1154 C1142 0.960 . S
H1155 C1142 0.962 . S
H1156 C1142 0.960 . S
H1157 C1143 0.961 . S
H1158 C1143 0.961 . S
H1159 C1143 0.961 . S
H1160 C1144 0.931 . S
H1161 C1149 0.930 . S
H1162 C1150 0.956 . S
H1163 C1150 0.961 . S
H1164 C1150 0.961 . S
H1165 C1151 0.958 . S
H1166 C1151 0.961 . S
H1167 C1151 0.960 . S
C1168 C1169 1.391 . S
C1168 C1170 1.394 . S
C1168 H1184 0.931 . S
C1169 C1168 1.391 . S
C1169 C1173 1.376 . S
C1170 C1168 1.394 . S
C1170 C1171 1.369 . S
C1170 C1174 1.531 . S
C1171 C1170 1.369 . S
C1171 C1172 1.410 . S
C1171 C1179 1.503 . S
C1172 C1171 1.410 . S
C1172 C1173 1.392 . S
C1172 C1175 1.511 . S
C1173 C1169 1.376 . S
C1173 C1172 1.392 . S
C1173 H1185 0.929 . S
C1174 C1170 1.531 . S
C1174 H1186 0.960 . S
C1174 H1187 0.962 . S
C1174 H1188 0.960 . S
C1175 C1172 1.511 . S
C1175 H1189 0.961 . S
C1175 H1190 0.961 . S
C1175 H1191 0.961 . S
C1176 C1177 1.370 . S
C1176 C1178 1.363 . S
C1176 H1192 0.931 . S
C1177 C1176 1.370 . S
C1177 C1181 1.408 . S
C1178 C1176 1.363 . S
C1178 C1179 1.370 . S
C1178 C1182 1.524 . S
C1179 C1171 1.503 . S
C1179 C1178 1.370 . S
C1179 C1180 1.403 . S
C1180 C1179 1.403 . S
C1180 C1181 1.404 . S
C1180 C1183 1.539 . S
C1181 C1177 1.408 . S
C1181 C1180 1.404 . S
C1181 H1193 0.930 . S
C1182 C1178 1.524 . S
C1182 H1194 0.956 . S
C1182 H1195 0.961 . S
C1182 H1196 0.961 . S
C1183 C1180 1.539 . S
C1183 H1197 0.958 . S
C1183 H1198 0.961 . S
C1183 H1199 0.960 . S
H1184 C1168 0.931 . S
H1185 C1173 0.929 . S
H1186 C1174 0.960 . S
H1187 C1174 0.962 . S
H1188 C1174 0.960 . S
H1189 C1175 0.961 . S
H1190 C1175 0.961 . S
H1191 C1175 0.961 . S
H1192 C1176 0.931 . S
H1193 C1181 0.930 . S
H1194 C1182 0.956 . S
H1195 C1182 0.961 . S
H1196 C1182 0.961 . S
H1197 C1183 0.958 . S
H1198 C1183 0.961 . S
H1199 C1183 0.960 . S
C1200 C1201 1.391 . S
C1200 C1202 1.394 . S
C1200 H1216 0.931 . S
C1201 C1200 1.391 . S
C1201 C1205 1.376 . S
C1202 C1200 1.394 . S
C1202 C1203 1.369 . S
C1202 C1206 1.531 . S
C1203 C1202 1.369 . S
C1203 C1204 1.410 . S
C1203 C1211 1.503 . S
C1204 C1203 1.410 . S
C1204 C1205 1.392 . S
C1204 C1207 1.511 . S
C1205 C1201 1.376 . S
C1205 C1204 1.392 . S
C1205 H1217 0.929 . S
C1206 C1202 1.531 . S
C1206 H1218 0.960 . S
C1206 H1219 0.962 . S
C1206 H1220 0.960 . S
C1207 C1204 1.511 . S
C1207 H1221 0.961 . S
C1207 H1222 0.961 . S
C1207 H1223 0.961 . S
C1208 C1209 1.370 . S
C1208 C1210 1.363 . S
C1208 H1224 0.931 . S
C1209 C1208 1.370 . S
C1209 C1213 1.408 . S
C1210 C1208 1.363 . S
C1210 C1211 1.370 . S
C1210 C1214 1.524 . S
C1211 C1203 1.503 . S
C1211 C1210 1.370 . S
C1211 C1212 1.403 . S
C1212 C1211 1.403 . S
C1212 C1213 1.404 . S
C1212 C1215 1.539 . S
C1213 C1209 1.408 . S
C1213 C1212 1.404 . S
C1213 H1225 0.930 . S
C1214 C1210 1.524 . S
C1214 H1226 0.956 . S
C1214 H1227 0.961 . S
C1214 H1228 0.961 . S
C1215 C1212 1.539 . S
C1215 H1229 0.958 . S
C1215 H1230 0.961 . S
C1215 H1231 0.960 . S
H1216 C1200 0.931 . S
H1217 C1205 0.929 . S
H1218 C1206 0.960 . S
H1219 C1206 0.962 . S
H1220 C1206 0.960 . S
H1221 C1207 0.961 . S
H1222 C1207 0.961 . S
H1223 C1207 0.961 . S
H1224 C1208 0.931 . S
H1225 C1213 0.930 . S
H1226 C1214 0.956 . S
H1227 C1214 0.961 . S
H1228 C1214 0.961 . S
H1229 C1215 0.958 . S
H1230 C1215 0.961 . S
H1231 C1215 0.960 . S
C1232 C1233 1.391 . S
C1232 C1234 1.394 . S
C1232 H1248 0.931 . S
C1233 C1232 1.391 . S
C1233 C1237 1.376 . S
C1234 C1232 1.394 . S
C1234 C1235 1.369 . S
C1234 C1238 1.531 . S
C1235 C1234 1.369 . S
C1235 C1236 1.410 . S
C1235 C1243 1.503 . S
C1236 C1235 1.410 . S
C1236 C1237 1.392 . S
C1236 C1239 1.511 . S
C1237 C1233 1.376 . S
C1237 C1236 1.392 . S
C1237 H1249 0.929 . S
C1238 C1234 1.531 . S
C1238 H1250 0.960 . S
C1238 H1251 0.962 . S
C1238 H1252 0.960 . S
C1239 C1236 1.511 . S
C1239 H1253 0.961 . S
C1239 H1254 0.961 . S
C1239 H1255 0.961 . S
C1240 C1241 1.370 . S
C1240 C1242 1.363 . S
C1240 H1256 0.931 . S
C1241 C1240 1.370 . S
C1241 C1245 1.408 . S
C1242 C1240 1.363 . S
C1242 C1243 1.370 . S
C1242 C1246 1.524 . S
C1243 C1235 1.503 . S
C1243 C1242 1.370 . S
C1243 C1244 1.403 . S
C1244 C1243 1.403 . S
C1244 C1245 1.404 . S
C1244 C1247 1.539 . S
C1245 C1241 1.408 . S
C1245 C1244 1.404 . S
C1245 H1257 0.930 . S
C1246 C1242 1.524 . S
C1246 H1258 0.956 . S
C1246 H1259 0.961 . S
C1246 H1260 0.961 . S
C1247 C1244 1.539 . S
C1247 H1261 0.958 . S
C1247 H1262 0.961 . S
C1247 H1263 0.960 . S
H1248 C1232 0.931 . S
H1249 C1237 0.929 . S
H1250 C1238 0.960 . S
H1251 C1238 0.962 . S
H1252 C1238 0.960 . S
H1253 C1239 0.961 . S
H1254 C1239 0.961 . S
H1255 C1239 0.961 . S
H1256 C1240 0.931 . S
H1257 C1245 0.930 . S
H1258 C1246 0.956 . S
H1259 C1246 0.961 . S
H1260 C1246 0.961 . S
H1261 C1247 0.958 . S
H1262 C1247 0.961 . S
H1263 C1247 0.960 . S
C1264 C1265 1.391 . S
C1264 C1266 1.394 . S
C1264 H1280 0.931 . S
C1265 C1264 1.391 . S
C1265 C1269 1.376 . S
C1266 C1264 1.394 . S
C1266 C1267 1.369 . S
C1266 C1270 1.531 . S
C1267 C1266 1.369 . S
C1267 C1268 1.410 . S
C1267 C1275 1.503 . S
C1268 C1267 1.410 . S
C1268 C1269 1.392 . S
C1268 C1271 1.511 . S
C1269 C1265 1.376 . S
C1269 C1268 1.392 . S
C1269 H1281 0.929 . S
C1270 C1266 1.531 . S
C1270 H1282 0.960 . S
C1270 H1283 0.962 . S
C1270 H1284 0.960 . S
C1271 C1268 1.511 . S
C1271 H1285 0.961 . S
C1271 H1286 0.961 . S
C1271 H1287 0.961 . S
C1272 C1273 1.370 . S
C1272 C1274 1.363 . S
C1272 H1288 0.931 . S
C1273 C1272 1.370 . S
C1273 C1277 1.408 . S
C1274 C1272 1.363 . S
C1274 C1275 1.370 . S
C1274 C1278 1.524 . S
C1275 C1267 1.503 . S
C1275 C1274 1.370 . S
C1275 C1276 1.403 . S
C1276 C1275 1.403 . S
C1276 C1277 1.404 . S
C1276 C1279 1.539 . S
C1277 C1273 1.408 . S
C1277 C1276 1.404 . S
C1277 H1289 0.930 . S
C1278 C1274 1.524 . S
C1278 H1290 0.956 . S
C1278 H1291 0.961 . S
C1278 H1292 0.961 . S
C1279 C1276 1.539 . S
C1279 H1293 0.958 . S
C1279 H1294 0.961 . S
C1279 H1295 0.960 . S
H1280 C1264 0.931 . S
H1281 C1269 0.929 . S
H1282 C1270 0.960 . S
H1283 C1270 0.962 . S
H1284 C1270 0.960 . S
H1285 C1271 0.961 . S
H1286 C1271 0.961 . S
H1287 C1271 0.961 . S
H1288 C1272 0.931 . S
H1289 C1277 0.930 . S
H1290 C1278 0.956 . S
H1291 C1278 0.961 . S
H1292 C1278 0.961 . S
H1293 C1279 0.958 . S
H1294 C1279 0.961 . S
H1295 C1279 0.960 . S
C1296 C1297 1.391 . S
C1296 C1298 1.394 . S
C1296 H1312 0.931 . S
C1297 C1296 1.391 . S
C1297 C1301 1.376 . S
C1298 C1296 1.394 . S
C1298 C1299 1.369 . S
C1298 C1302 1.531 . S
C1299 C1298 1.369 . S
C1299 C1300 1.410 . S
C1299 C1307 1.503 . S
C1300 C1299 1.410 . S
C1300 C1301 1.392 . S
C1300 C1303 1.511 . S
C1301 C1297 1.376 . S
C1301 C1300 1.392 . S
C1301 H1313 0.929 . S
C1302 C1298 1.531 . S
C1302 H1314 0.960 . S
C1302 H1315 0.962 . S
C1302 H1316 0.960 . S
C1303 C1300 1.511 . S
C1303 H1317 0.961 . S
C1303 H1318 0.961 . S
C1303 H1319 0.961 . S
C1304 C1305 1.370 . S
C1304 C1306 1.363 . S
C1304 H1320 0.931 . S
C1305 C1304 1.370 . S
C1305 C1309 1.408 . S
C1306 C1304 1.363 . S
C1306 C1307 1.370 . S
C1306 C1310 1.524 . S
C1307 C1299 1.503 . S
C1307 C1306 1.370 . S
C1307 C1308 1.403 . S
C1308 C1307 1.403 . S
C1308 C1309 1.404 . S
C1308 C1311 1.539 . S
C1309 C1305 1.408 . S
C1309 C1308 1.404 . S
C1309 H1321 0.930 . S
C1310 C1306 1.524 . S
C1310 H1322 0.956 . S
C1310 H1323 0.961 . S
C1310 H1324 0.961 . S
C1311 C1308 1.539 . S
C1311 H1325 0.958 . S
C1311 H1326 0.961 . S
C1311 H1327 0.960 . S
H1312 C1296 0.931 . S
H1313 C1301 0.929 . S
H1314 C1302 0.960 . S
H1315 C1302 0.962 . S
H1316 C1302 0.960 . S
H1317 C1303 0.961 . S
H1318 C1303 0.961 . S
H1319 C1303 0.961 . S
H1320 C1304 0.931 . S
H1321 C1309 0.930 . S
H1322 C1310 0.956 . S
H1323 C1310 0.961 . S
H1324 C1310 0.961 . S
H1325 C1311 0.958 . S
H1326 C1311 0.961 . S
H1327 C1311 0.960 . S
C1328 C1329 1.391 . S
C1328 C1330 1.394 . S
C1328 H1344 0.931 . S
C1329 C1328 1.391 . S
C1329 C1333 1.376 . S
C1330 C1328 1.394 . S
C1330 C1331 1.369 . S
C1330 C1334 1.531 . S
C1331 C1330 1.369 . S
C1331 C1332 1.410 . S
C1331 C1339 1.503 . S
C1332 C1331 1.410 . S
C1332 C1333 1.392 . S
C1332 C1335 1.511 . S
C1333 C1329 1.376 . S
C1333 C1332 1.392 . S
C1333 H1345 0.929 . S
C1334 C1330 1.531 . S
C1334 H1346 0.960 . S
C1334 H1347 0.962 . S
C1334 H1348 0.960 . S
C1335 C1332 1.511 . S
C1335 H1349 0.961 . S
C1335 H1350 0.961 . S
C1335 H1351 0.961 . S
C1336 C1337 1.370 . S
C1336 C1338 1.363 . S
C1336 H1352 0.931 . S
C1337 C1336 1.370 . S
C1337 C1341 1.408 . S
C1338 C1336 1.363 . S
C1338 C1339 1.370 . S
C1338 C1342 1.524 . S
C1339 C1331 1.503 . S
C1339 C1338 1.370 . S
C1339 C1340 1.403 . S
C1340 C1339 1.403 . S
C1340 C1341 1.404 . S
C1340 C1343 1.539 . S
C1341 C1337 1.408 . S
C1341 C1340 1.404 . S
C1341 H1353 0.930 . S
C1342 C1338 1.524 . S
C1342 H1354 0.956 . S
C1342 H1355 0.961 . S
C1342 H1356 0.961 . S
C1343 C1340 1.539 . S
C1343 H1357 0.958 . S
C1343 H1358 0.961 . S
C1343 H1359 0.960 . S
H1344 C1328 0.931 . S
H1345 C1333 0.929 . S
H1346 C1334 0.960 . S
H1347 C1334 0.962 . S
H1348 C1334 0.960 . S
H1349 C1335 0.961 . S
H1350 C1335 0.961 . S
H1351 C1335 0.961 . S
H1352 C1336 0.931 . S
H1353 C1341 0.930 . S
H1354 C1342 0.956 . S
H1355 C1342 0.961 . S
H1356 C1342 0.961 . S
H1357 C1343 0.958 . S
H1358 C1343 0.961 . S
H1359 C1343 0.960 . S
C1360 C1361 1.391 . S
C1360 C1362 1.394 . S
C1360 H1376 0.931 . S
C1361 C1360 1.391 . S
C1361 C1365 1.376 . S
C1362 C1360 1.394 . S
C1362 C1363 1.369 . S
C1362 C1366 1.531 . S
C1363 C1362 1.369 . S
C1363 C1364 1.410 . S
C1363 C1371 1.503 . S
C1364 C1363 1.410 . S
C1364 C1365 1.392 . S
C1364 C1367 1.511 . S
C1365 C1361 1.376 . S
C1365 C1364 1.392 . S
C1365 H1377 0.929 . S
C1366 C1362 1.531 . S
C1366 H1378 0.960 . S
C1366 H1379 0.962 . S
C1366 H1380 0.960 . S
C1367 C1364 1.511 . S
C1367 H1381 0.961 . S
C1367 H1382 0.961 . S
C1367 H1383 0.961 . S
C1368 C1369 1.370 . S
C1368 C1370 1.363 . S
C1368 H1384 0.931 . S
C1369 C1368 1.370 . S
C1369 C1373 1.408 . S
C1370 C1368 1.363 . S
C1370 C1371 1.370 . S
C1370 C1374 1.524 . S
C1371 C1363 1.503 . S
C1371 C1370 1.370 . S
C1371 C1372 1.403 . S
C1372 C1371 1.403 . S
C1372 C1373 1.404 . S
C1372 C1375 1.539 . S
C1373 C1369 1.408 . S
C1373 C1372 1.404 . S
C1373 H1385 0.930 . S
C1374 C1370 1.524 . S
C1374 H1386 0.956 . S
C1374 H1387 0.961 . S
C1374 H1388 0.961 . S
C1375 C1372 1.539 . S
C1375 H1389 0.958 . S
C1375 H1390 0.961 . S
C1375 H1391 0.960 . S
H1376 C1360 0.931 . S
H1377 C1365 0.929 . S
H1378 C1366 0.960 . S
H1379 C1366 0.962 . S
H1380 C1366 0.960 . S
H1381 C1367 0.961 . S
H1382 C1367 0.961 . S
H1383 C1367 0.961 . S
H1384 C1368 0.931 . S
H1385 C1373 0.930 . S
H1386 C1374 0.956 . S
H1387 C1374 0.961 . S
H1388 C1374 0.961 . S
H1389 C1375 0.958 . S
H1390 C1375 0.961 . S
H1391 C1375 0.960 . S
C1392 C1393 1.391 . S
C1392 C1394 1.394 . S
C1392 H1408 0.931 . S
C1393 C1392 1.391 . S
C1393 C1397 1.376 . S
C1394 C1392 1.394 . S
C1394 C1395 1.369 . S
C1394 C1398 1.531 . S
C1395 C1394 1.369 . S
C1395 C1396 1.410 . S
C1395 C1403 1.503 . S
C1396 C1395 1.410 . S
C1396 C1397 1.392 . S
C1396 C1399 1.511 . S
C1397 C1393 1.376 . S
C1397 C1396 1.392 . S
C1397 H1409 0.929 . S
C1398 C1394 1.531 . S
C1398 H1410 0.960 . S
C1398 H1411 0.962 . S
C1398 H1412 0.960 . S
C1399 C1396 1.511 . S
C1399 H1413 0.961 . S
C1399 H1414 0.961 . S
C1399 H1415 0.961 . S
C1400 C1401 1.370 . S
C1400 C1402 1.363 . S
C1400 H1416 0.931 . S
C1401 C1400 1.370 . S
C1401 C1405 1.408 . S
C1402 C1400 1.363 . S
C1402 C1403 1.370 . S
C1402 C1406 1.524 . S
C1403 C1395 1.503 . S
C1403 C1402 1.370 . S
C1403 C1404 1.403 . S
C1404 C1403 1.403 . S
C1404 C1405 1.404 . S
C1404 C1407 1.539 . S
C1405 C1401 1.408 . S
C1405 C1404 1.404 . S
C1405 H1417 0.930 . S
C1406 C1402 1.524 . S
C1406 H1418 0.956 . S
C1406 H1419 0.961 . S
C1406 H1420 0.961 . S
C1407 C1404 1.539 . S
C1407 H1421 0.958 . S
C1407 H1422 0.961 . S
C1407 H1423 0.960 . S
H1408 C1392 0.931 . S
H1409 C1397 0.929 . S
H1410 C1398 0.960 . S
H1411 C1398 0.962 . S
H1412 C1398 0.960 . S
H1413 C1399 0.961 . S
H1414 C1399 0.961 . S
H1415 C1399 0.961 . S
H1416 C1400 0.931 . S
H1417 C1405 0.930 . S
H1418 C1406 0.956 . S
H1419 C1406 0.961 . S
H1420 C1406 0.961 . S
H1421 C1407 0.958 . S
H1422 C1407 0.961 . S
H1423 C1407 0.960 . S
C1424 C1425 1.391 . S
C1424 C1426 1.394 . S
C1424 H1440 0.931 . S
C1425 C1424 1.391 . S
C1425 C1429 1.376 . S
C1426 C1424 1.394 . S
C1426 C1427 1.369 . S
C1426 C1430 1.531 . S
C1427 C1426 1.369 . S
C1427 C1428 1.410 . S
C1427 C1435 1.503 . S
C1428 C1427 1.410 . S
C1428 C1429 1.392 . S
C1428 C1431 1.511 . S
C1429 C1425 1.376 . S
C1429 C1428 1.392 . S
C1429 H1441 0.929 . S
C1430 C1426 1.531 . S
C1430 H1442 0.960 . S
C1430 H1443 0.962 . S
C1430 H1444 0.960 . S
C1431 C1428 1.511 . S
C1431 H1445 0.961 . S
C1431 H1446 0.961 . S
C1431 H1447 0.961 . S
C1432 C1433 1.370 . S
C1432 C1434 1.363 . S
C1432 H1448 0.931 . S
C1433 C1432 1.370 . S
C1433 C1437 1.408 . S
C1434 C1432 1.363 . S
C1434 C1435 1.370 . S
C1434 C1438 1.524 . S
C1435 C1427 1.503 . S
C1435 C1434 1.370 . S
C1435 C1436 1.403 . S
C1436 C1435 1.403 . S
C1436 C1437 1.404 . S
C1436 C1439 1.539 . S
C1437 C1433 1.408 . S
C1437 C1436 1.404 . S
C1437 H1449 0.930 . S
C1438 C1434 1.524 . S
C1438 H1450 0.956 . S
C1438 H1451 0.961 . S
C1438 H1452 0.961 . S
C1439 C1436 1.539 . S
C1439 H1453 0.958 . S
C1439 H1454 0.961 . S
C1439 H1455 0.960 . S
H1440 C1424 0.931 . S
H1441 C1429 0.929 . S
H1442 C1430 0.960 . S
H1443 C1430 0.962 . S
H1444 C1430 0.960 . S
H1445 C1431 0.961 . S
H1446 C1431 0.961 . S
H1447 C1431 0.961 . S
H1448 C1432 0.931 . S
H1449 C1437 0.930 . S
H1450 C1438 0.956 . S
H1451 C1438 0.961 . S
H1452 C1438 0.961 . S
H1453 C1439 0.958 . S
H1454 C1439 0.961 . S
H1455 C1439 0.960 . S
C1456 C1457 1.391 . S
C1456 C1458 1.394 . S
C1456 H1472 0.931 . S
C1457 C1456 1.391 . S
C1457 C1461 1.376 . S
C1458 C1456 1.394 . S
C1458 C1459 1.369 . S
C1458 C1462 1.531 . S
C1459 C1458 1.369 . S
C1459 C1460 1.410 . S
C1459 C1467 1.503 . S
C1460 C1459 1.410 . S
C1460 C1461 1.392 . S
C1460 C1463 1.511 . S
C1461 C1457 1.376 . S
C1461 C1460 1.392 . S
C1461 H1473 0.929 . S
C1462 C1458 1.531 . S
C1462 H1474 0.960 . S
C1462 H1475 0.962 . S
C1462 H1476 0.960 . S
C1463 C1460 1.511 . S
C1463 H1477 0.961 . S
C1463 H1478 0.961 . S
C1463 H1479 0.961 . S
C1464 C1465 1.370 . S
C1464 C1466 1.363 . S
C1464 H1480 0.931 . S
C1465 C1464 1.370 . S
C1465 C1469 1.408 . S
C1466 C1464 1.363 . S
C1466 C1467 1.370 . S
C1466 C1470 1.524 . S
C1467 C1459 1.503 . S
C1467 C1466 1.370 . S
C1467 C1468 1.403 . S
C1468 C1467 1.403 . S
C1468 C1469 1.404 . S
C1468 C1471 1.539 . S
C1469 C1465 1.408 . S
C1469 C1468 1.404 . S
C1469 H1481 0.930 . S
C1470 C1466 1.524 . S
C1470 H1482 0.956 . S
C1470 H1483 0.961 . S
C1470 H1484 0.961 . S
C1471 C1468 1.539 . S
C1471 H1485 0.958 . S
C1471 H1486 0.961 . S
C1471 H1487 0.960 . S
H1472 C1456 0.931 . S
H1473 C1461 0.929 . S
H1474 C1462 0.960 . S
H1475 C1462 0.962 . S
H1476 C1462 0.960 . S
H1477 C1463 0.961 . S
H1478 C1463 0.961 . S
H1479 C1463 0.961 . S
H1480 C1464 0.931 . S
H1481 C1469 0.930 . S
H1482 C1470 0.956 . S
H1483 C1470 0.961 . S
H1484 C1470 0.961 . S
H1485 C1471 0.958 . S
H1486 C1471 0.961 . S
H1487 C1471 0.960 . S
C1488 C1489 1.391 . S
C1488 C1490 1.394 . S
C1488 H1504 0.931 . S
C1489 C1488 1.391 . S
C1489 C1493 1.376 . S
C1490 C1488 1.394 . S
C1490 C1491 1.369 . S
C1490 C1494 1.531 . S
C1491 C1490 1.369 . S
C1491 C1492 1.410 . S
C1491 C1499 1.503 . S
C1492 C1491 1.410 . S
C1492 C1493 1.392 . S
C1492 C1495 1.511 . S
C1493 C1489 1.376 . S
C1493 C1492 1.392 . S
C1493 H1505 0.929 . S
C1494 C1490 1.531 . S
C1494 H1506 0.960 . S
C1494 H1507 0.962 . S
C1494 H1508 0.960 . S
C1495 C1492 1.511 . S
C1495 H1509 0.961 1_455 S
C1495 H1510 0.961 . S
C1495 H1511 0.961 . S
C1496 C1497 1.370 . S
C1496 C1498 1.363 . S
C1496 H1512 0.931 . S
C1497 C1496 1.370 . S
C1497 C1501 1.408 . S
C1498 C1496 1.363 . S
C1498 C1499 1.370 . S
C1498 C1502 1.524 . S
C1499 C1491 1.503 . S
C1499 C1498 1.370 . S
C1499 C1500 1.403 . S
C1500 C1499 1.403 . S
C1500 C1501 1.404 . S
C1500 C1503 1.539 . S
C1501 C1497 1.408 . S
C1501 C1500 1.404 . S
C1501 H1513 0.930 . S
C1502 C1498 1.524 . S
C1502 H1514 0.956 . S
C1502 H1515 0.961 . S
C1502 H1516 0.961 . S
C1503 C1500 1.539 . S
C1503 H1517 0.958 . S
C1503 H1518 0.961 . S
C1503 H1519 0.960 . S
H1504 C1488 0.931 . S
H1505 C1493 0.929 . S
H1506 C1494 0.960 . S
H1507 C1494 0.962 . S
H1508 C1494 0.960 . S
H1509 C1495 0.961 1_655 S
H1510 C1495 0.961 . S
H1511 C1495 0.961 . S
H1512 C1496 0.931 . S
H1513 C1501 0.930 . S
H1514 C1502 0.956 . S
H1515 C1502 0.961 . S
H1516 C1502 0.961 . S
H1517 C1503 0.958 . S
H1518 C1503 0.961 . S
H1519 C1503 0.960 . S
C1520 C1521 1.391 . S
C1520 C1522 1.394 1_556 S
C1520 H1536 0.931 . S
C1521 C1520 1.391 . S
C1521 C1525 1.376 . S
C1522 C1520 1.394 1_554 S
C1522 C1523 1.369 . S
C1522 C1526 1.531 . S
C1523 C1522 1.369 . S
C1523 C1524 1.410 1_554 S
C1523 C1531 1.503 . S
C1524 C1523 1.410 1_556 S
C1524 C1525 1.392 . S
C1524 C1527 1.511 . S
C1525 C1521 1.376 . S
C1525 C1524 1.392 . S
C1525 H1537 0.929 . S
C1526 C1522 1.531 . S
C1526 H1538 0.960 . S
C1526 H1539 0.962 . S
C1526 H1540 0.960 . S
C1527 C1524 1.511 . S
C1527 H1541 0.961 . S
C1527 H1542 0.961 . S
C1527 H1543 0.961 . S
C1528 C1529 1.370 . S
C1528 C1530 1.363 . S
C1528 H1544 0.931 . S
C1529 C1528 1.370 . S
C1529 C1533 1.408 . S
C1530 C1528 1.363 . S
C1530 C1531 1.370 . S
C1530 C1534 1.524 . S
C1531 C1523 1.503 . S
C1531 C1530 1.370 . S
C1531 C1532 1.403 . S
C1532 C1531 1.403 . S
C1532 C1533 1.404 . S
C1532 C1535 1.539 . S
C1533 C1529 1.408 . S
C1533 C1532 1.404 . S
C1533 H1545 0.930 . S
C1534 C1530 1.524 . S
C1534 H1546 0.956 . S
C1534 H1547 0.961 1_554 S
C1534 H1548 0.961 . S
C1535 C1532 1.539 . S
C1535 H1549 0.958 . S
C1535 H1550 0.961 . S
C1535 H1551 0.960 . S
H1536 C1520 0.931 . S
H1537 C1525 0.929 . S
H1538 C1526 0.960 . S
H1539 C1526 0.962 . S
H1540 C1526 0.960 . S
H1541 C1527 0.961 . S
H1542 C1527 0.961 . S
H1543 C1527 0.961 . S
H1544 C1528 0.931 . S
H1545 C1533 0.930 . S
H1546 C1534 0.956 . S
H1547 C1534 0.961 1_556 S
H1548 C1534 0.961 . S
H1549 C1535 0.958 . S
H1550 C1535 0.961 . S
H1551 C1535 0.960 . S
C1552 C1553 1.391 . S
C1552 C1554 1.394 . S
C1552 H1568 0.931 . S
C1553 C1552 1.391 . S
C1553 C1557 1.376 . S
C1554 C1552 1.394 . S
C1554 C1555 1.369 . S
C1554 C1558 1.531 . S
C1555 C1554 1.369 . S
C1555 C1556 1.410 . S
C1555 C1563 1.503 . S
C1556 C1555 1.410 . S
C1556 C1557 1.392 . S
C1556 C1559 1.511 1_554 S
C1557 C1553 1.376 . S
C1557 C1556 1.392 . S
C1557 H1569 0.929 . S
C1558 C1554 1.531 . S
C1558 H1570 0.960 . S
C1558 H1571 0.962 . S
C1558 H1572 0.960 . S
C1559 C1556 1.511 1_556 S
C1559 H1573 0.961 . S
C1559 H1574 0.961 . S
C1559 H1575 0.965 . S
C1560 C1561 1.370 . S
C1560 C1562 1.363 . S
C1560 H1576 0.931 . S
C1561 C1560 1.370 . S
C1561 C1565 1.408 . S
C1562 C1560 1.363 . S
C1562 C1563 1.370 1_556 S
C1562 C1566 1.524 . S
C1563 C1555 1.503 . S
C1563 C1562 1.370 1_554 S
C1563 C1564 1.403 . S
C1564 C1563 1.403 . S
C1564 C1565 1.404 1_554 S
C1564 C1567 1.539 . S
C1565 C1561 1.408 . S
C1565 C1564 1.404 1_556 S
C1565 H1577 0.930 . S
C1566 C1562 1.524 . S
C1566 H1578 0.956 1_556 S
C1566 H1579 0.961 . S
C1566 H1580 0.961 . S
C1567 C1564 1.539 . S
C1567 H1581 0.958 . S
C1567 H1582 0.961 . S
C1567 H1583 0.960 . S
H1568 C1552 0.931 . S
H1569 C1557 0.929 . S
H1570 C1558 0.960 . S
H1571 C1558 0.962 . S
H1572 C1558 0.960 . S
H1573 C1559 0.961 . S
H1574 C1559 0.961 . S
H1575 C1559 0.965 . S
H1576 C1560 0.931 . S
H1577 C1565 0.930 . S
H1578 C1566 0.956 1_554 S
H1579 C1566 0.961 . S
H1580 C1566 0.961 . S
H1581 C1567 0.958 . S
H1582 C1567 0.961 . S
H1583 C1567 0.960 . S
C1584 C1585 1.391 . S
C1584 C1586 1.394 . S
C1584 H1600 0.931 . S
C1585 C1584 1.391 . S
C1585 C1589 1.376 . S
C1586 C1584 1.394 . S
C1586 C1587 1.369 1_556 S
C1586 C1590 1.531 . S
C1587 C1586 1.369 1_554 S
C1587 C1588 1.410 . S
C1587 C1595 1.503 . S
C1588 C1587 1.410 . S
C1588 C1589 1.392 1_554 S
C1588 C1591 1.511 . S
C1589 C1585 1.376 . S
C1589 C1588 1.392 1_556 S
C1589 H1601 0.929 . S
C1590 C1586 1.531 . S
C1590 H1602 0.960 1_556 S
C1590 H1603 0.962 . S
C1590 H1604 0.960 . S
C1591 C1588 1.511 . S
C1591 H1605 0.961 . S
C1591 H1606 0.961 . S
C1591 H1607 0.961 . S
C1592 C1593 1.370 . S
C1592 C1594 1.363 . S
C1592 H1608 0.931 . S
C1593 C1592 1.370 . S
C1593 C1597 1.408 . S
C1594 C1592 1.363 . S
C1594 C1595 1.370 . S
C1594 C1598 1.524 1_554 S
C1595 C1587 1.503 . S
C1595 C1594 1.370 . S
C1595 C1596 1.403 . S
C1596 C1595 1.403 . S
C1596 C1597 1.404 . S
C1596 C1599 1.539 . S
C1597 C1593 1.408 . S
C1597 C1596 1.404 . S
C1597 H1609 0.930 . S
C1598 C1594 1.524 1_556 S
C1598 H1610 0.956 . S
C1598 H1611 0.961 . S
C1598 H1612 0.961 . S
C1599 C1596 1.539 . S
C1599 H1613 0.958 . S
C1599 H1614 0.961 . S
C1599 H1615 0.960 . S
H1600 C1584 0.931 . S
H1601 C1589 0.929 . S
H1602 C1590 0.960 1_554 S
H1603 C1590 0.962 . S
H1604 C1590 0.960 . S
H1605 C1591 0.961 . S
H1606 C1591 0.961 . S
H1607 C1591 0.961 . S
H1608 C1592 0.931 . S
H1609 C1597 0.930 . S
H1610 C1598 0.956 . S
H1611 C1598 0.961 . S
H1612 C1598 0.961 . S
H1613 C1599 0.958 . S
H1614 C1599 0.961 . S
H1615 C1599 0.960 . S
C1616 C1617 1.391 . S
C1616 C1618 1.394 . S
C1616 H1632 0.931 . S
C1617 C1616 1.391 . S
C1617 C1621 1.376 . S
C1618 C1616 1.394 . S
C1618 C1619 1.369 . S
C1618 C1622 1.531 1_554 S
C1619 C1618 1.369 . S
C1619 C1620 1.410 . S
C1619 C1627 1.503 . S
C1620 C1619 1.410 . S
C1620 C1621 1.392 . S
C1620 C1623 1.511 . S
C1621 C1617 1.376 . S
C1621 C1620 1.392 . S
C1621 H1633 0.929 . S
C1622 C1618 1.531 1_556 S
C1622 H1634 0.960 . S
C1622 H1635 0.962 . S
C1622 H1636 0.960 . S
C1623 C1620 1.511 . S
C1623 H1637 0.961 . S
C1623 H1638 0.961 . S
C1623 H1639 0.961 . S
C1624 C1625 1.370 . S
C1624 C1626 1.382 . S
C1624 H1640 0.931 . S
C1625 C1624 1.370 . S
C1625 C1629 1.408 . S
C1626 C1624 1.382 . S
C1626 C1627 1.369 1_556 S
C1626 C1630 1.508 1_556 S
C1627 C1619 1.503 . S
C1627 C1626 1.369 1_554 S
C1627 C1628 1.403 1_554 S
C1628 C1627 1.403 1_556 S
C1628 C1629 1.404 . S
C1628 C1631 1.539 . S
C1629 C1625 1.408 . S
C1629 C1628 1.404 . S
C1629 H1641 0.930 . S
C1630 C1626 1.508 1_554 S
C1630 H1642 0.956 . S
C1630 H1643 0.961 . S
C1630 H1644 0.961 . S
C1631 C1628 1.539 . S
C1631 H1645 0.958 . S
C1631 H1646 0.961 . S
C1631 H1647 0.960 1_556 S
H1632 C1616 0.931 . S
H1633 C1621 0.929 . S
H1634 C1622 0.960 . S
H1635 C1622 0.962 . S
H1636 C1622 0.960 . S
H1637 C1623 0.961 . S
H1638 C1623 0.961 . S
H1639 C1623 0.961 . S
H1640 C1624 0.931 . S
H1641 C1629 0.930 . S
H1642 C1630 0.956 . S
H1643 C1630 0.961 . S
H1644 C1630 0.961 . S
H1645 C1631 0.958 . S
H1646 C1631 0.961 . S
H1647 C1631 0.960 1_554 S
C1648 C1649 1.391 . S
C1648 C1650 1.394 . S
C1648 H1664 0.931 . S
C1649 C1648 1.391 . S
C1649 C1653 1.376 . S
C1650 C1648 1.394 . S
C1650 C1651 1.369 . S
C1650 C1654 1.531 . S
C1651 C1650 1.369 . S
C1651 C1652 1.410 . S
C1651 C1659 1.503 . S
C1652 C1651 1.410 . S
C1652 C1653 1.392 . S
C1652 C1655 1.511 . S
C1653 C1649 1.376 . S
C1653 C1652 1.392 . S
C1653 H1665 0.929 . S
C1654 C1650 1.531 . S
C1654 H1666 0.960 . S
C1654 H1667 0.962 . S
C1654 H1668 0.960 . S
C1655 C1652 1.511 . S
C1655 H1669 0.961 . S
C1655 H1670 0.961 . S
C1655 H1671 0.961 . S
C1656 C1657 1.370 . S
C1656 C1658 1.363 . S
C1656 H1672 0.931 . S
C1657 C1656 1.370 . S
C1657 C1661 1.408 . S
C1658 C1656 1.363 . S
C1658 C1659 1.370 . S
C1658 C1662 1.524 . S
C1659 C1651 1.503 . S
C1659 C1658 1.370 . S
C1659 C1660 1.403 . S
C1660 C1659 1.403 . S
C1660 C1661 1.404 . S
C1660 C1663 1.539 . S
C1661 C1657 1.408 . S
C1661 C1660 1.404 . S
C1661 H1673 0.930 . S
C1662 C1658 1.524 . S
C1662 H1674 0.956 . S
C1662 H1675 0.961 . S
C1662 H1676 0.961 . S
C1663 C1660 1.539 . S
C1663 H1677 0.958 . S
C1663 H1678 0.961 . S
C1663 H1679 0.960 . S
H1664 C1648 0.931 . S
H1665 C1653 0.929 . S
H1666 C1654 0.960 . S
H1667 C1654 0.962 . S
H1668 C1654 0.960 . S
H1669 C1655 0.961 . S
H1670 C1655 0.961 . S
H1671 C1655 0.961 . S
H1672 C1656 0.931 . S
H1673 C1661 0.930 . S
H1674 C1662 0.956 . S
H1675 C1662 0.961 . S
H1676 C1662 0.961 . S
H1677 C1663 0.958 . S
H1678 C1663 0.961 . S
H1679 C1663 0.960 . S
C1680 C1681 1.391 . S
C1680 C1682 1.394 . S
C1680 H1696 0.931 . S
C1681 C1680 1.391 . S
C1681 C1685 1.376 . S
C1682 C1680 1.394 . S
C1682 C1683 1.369 . S
C1682 C1686 1.531 . S
C1683 C1682 1.369 . S
C1683 C1684 1.410 . S
C1683 C1691 1.503 . S
C1684 C1683 1.410 . S
C1684 C1685 1.392 . S
C1684 C1687 1.511 . S
C1685 C1681 1.376 . S
C1685 C1684 1.392 . S
C1685 H1697 0.929 . S
C1686 C1682 1.531 . S
C1686 H1698 0.960 . S
C1686 H1699 0.962 . S
C1686 H1700 0.960 . S
C1687 C1684 1.511 . S
C1687 H1701 0.961 . S
C1687 H1702 0.961 . S
C1687 H1703 0.961 . S
C1688 C1689 1.370 . S
C1688 C1690 1.363 . S
C1688 H1704 0.931 . S
C1689 C1688 1.370 . S
C1689 C1693 1.408 . S
C1690 C1688 1.363 . S
C1690 C1691 1.370 . S
C1690 C1694 1.524 . S
C1691 C1683 1.503 . S
C1691 C1690 1.370 . S
C1691 C1692 1.403 . S
C1692 C1691 1.403 . S
C1692 C1693 1.404 . S
C1692 C1695 1.539 . S
C1693 C1689 1.408 . S
C1693 C1692 1.404 . S
C1693 H1705 0.930 . S
C1694 C1690 1.524 . S
C1694 H1706 0.956 . S
C1694 H1707 0.961 . S
C1694 H1708 0.961 . S
C1695 C1692 1.539 . S
C1695 H1709 0.958 . S
C1695 H1710 0.961 . S
C1695 H1711 0.960 . S
H1696 C1680 0.931 . S
H1697 C1685 0.929 . S
H1698 C1686 0.960 . S
H1699 C1686 0.962 . S
H1700 C1686 0.960 . S
H1701 C1687 0.961 . S
H1702 C1687 0.961 . S
H1703 C1687 0.961 . S
H1704 C1688 0.931 . S
H1705 C1693 0.930 . S
H1706 C1694 0.956 . S
H1707 C1694 0.961 . S
H1708 C1694 0.961 . S
H1709 C1695 0.958 . S
H1710 C1695 0.961 . S
H1711 C1695 0.960 . S
C1712 C1713 1.391 . S
C1712 C1714 1.394 . S
C1712 H1728 0.931 . S
C1713 C1712 1.391 . S
C1713 C1717 1.376 . S
C1714 C1712 1.394 . S
C1714 C1715 1.369 . S
C1714 C1718 1.531 . S
C1715 C1714 1.369 . S
C1715 C1716 1.410 . S
C1715 C1723 1.503 . S
C1716 C1715 1.410 . S
C1716 C1717 1.392 . S
C1716 C1719 1.511 . S
C1717 C1713 1.376 . S
C1717 C1716 1.392 . S
C1717 H1729 0.929 . S
C1718 C1714 1.531 . S
C1718 H1730 0.960 . S
C1718 H1731 0.962 . S
C1718 H1732 0.960 . S
C1719 C1716 1.511 . S
C1719 H1733 0.961 . S
C1719 H1734 0.961 . S
C1719 H1735 0.961 . S
C1720 C1721 1.370 . S
C1720 C1722 1.363 . S
C1720 H1736 0.931 . S
C1721 C1720 1.370 . S
C1721 C1725 1.408 . S
C1722 C1720 1.363 . S
C1722 C1723 1.370 . S
C1722 C1726 1.524 . S
C1723 C1715 1.503 . S
C1723 C1722 1.370 . S
C1723 C1724 1.403 . S
C1724 C1723 1.403 . S
C1724 C1725 1.404 . S
C1724 C1727 1.539 . S
C1725 C1721 1.408 . S
C1725 C1724 1.404 . S
C1725 H1737 0.930 . S
C1726 C1722 1.524 . S
C1726 H1738 0.956 . S
C1726 H1739 0.961 . S
C1726 H1740 0.961 . S
C1727 C1724 1.539 . S
C1727 H1741 0.958 . S
C1727 H1742 0.961 . S
C1727 H1743 0.960 . S
H1728 C1712 0.931 . S
H1729 C1717 0.929 . S
H1730 C1718 0.960 . S
H1731 C1718 0.962 . S
H1732 C1718 0.960 . S
H1733 C1719 0.961 . S
H1734 C1719 0.961 . S
H1735 C1719 0.961 . S
H1736 C1720 0.931 . S
H1737 C1725 0.930 . S
H1738 C1726 0.956 . S
H1739 C1726 0.961 . S
H1740 C1726 0.961 . S
H1741 C1727 0.958 . S
H1742 C1727 0.961 . S
H1743 C1727 0.960 . S
C1744 C1745 1.391 . S
C1744 C1746 1.394 . S
C1744 H1760 0.931 . S
C1745 C1744 1.391 . S
C1745 C1749 1.376 . S
C1746 C1744 1.394 . S
C1746 C1747 1.369 . S
C1746 C1750 1.531 . S
C1747 C1746 1.369 . S
C1747 C1748 1.410 . S
C1747 C1755 1.503 . S
C1748 C1747 1.410 . S
C1748 C1749 1.392 . S
C1748 C1751 1.511 . S
C1749 C1745 1.376 . S
C1749 C1748 1.392 . S
C1749 H1761 0.929 . S
C1750 C1746 1.531 . S
C1750 H1762 0.960 . S
C1750 H1763 0.962 . S
C1750 H1764 0.960 . S
C1751 C1748 1.511 . S
C1751 H1765 0.961 . S
C1751 H1766 0.961 . S
C1751 H1767 0.961 . S
C1752 C1753 1.370 . S
C1752 C1754 1.363 . S
C1752 H1768 0.931 . S
C1753 C1752 1.370 . S
C1753 C1757 1.408 . S
C1754 C1752 1.363 . S
C1754 C1755 1.370 . S
C1754 C1758 1.524 . S
C1755 C1747 1.503 . S
C1755 C1754 1.370 . S
C1755 C1756 1.403 . S
C1756 C1755 1.403 . S
C1756 C1757 1.404 . S
C1756 C1759 1.539 . S
C1757 C1753 1.408 . S
C1757 C1756 1.404 . S
C1757 H1769 0.930 . S
C1758 C1754 1.524 . S
C1758 H1770 0.956 . S
C1758 H1771 0.961 . S
C1758 H1772 0.961 . S
C1759 C1756 1.539 . S
C1759 H1773 0.958 . S
C1759 H1774 0.961 . S
C1759 H1775 0.960 . S
H1760 C1744 0.931 . S
H1761 C1749 0.929 . S
H1762 C1750 0.960 . S
H1763 C1750 0.962 . S
H1764 C1750 0.960 . S
H1765 C1751 0.961 . S
H1766 C1751 0.961 . S
H1767 C1751 0.961 . S
H1768 C1752 0.931 . S
H1769 C1757 0.930 . S
H1770 C1758 0.956 . S
H1771 C1758 0.961 . S
H1772 C1758 0.961 . S
H1773 C1759 0.958 . S
H1774 C1759 0.961 . S
H1775 C1759 0.960 . S
C1776 C1777 1.391 . S
C1776 C1778 1.394 . S
C1776 H1792 0.931 . S
C1777 C1776 1.391 . S
C1777 C1781 1.376 . S
C1778 C1776 1.394 . S
C1778 C1779 1.369 . S
C1778 C1782 1.531 1_556 S
C1779 C1778 1.369 . S
C1779 C1780 1.410 . S
C1779 C1787 1.537 . S
C1780 C1779 1.410 . S
C1780 C1781 1.392 . S
C1780 C1783 1.511 . S
C1781 C1777 1.376 . S
C1781 C1780 1.392 . S
C1781 H1793 0.929 . S
C1782 C1778 1.531 1_554 S
C1782 H1794 0.960 . S
C1782 H1795 0.962 . S
C1782 H1796 0.960 . S
C1783 C1780 1.511 . S
C1783 H1797 0.961 . S
C1783 H1798 0.961 . S
C1783 H1799 0.961 . S
C1784 C1785 1.370 . S
C1784 C1786 1.363 . S
C1784 H1800 0.931 . S
C1785 C1784 1.370 . S
C1785 C1789 1.408 . S
C1786 C1784 1.363 . S
C1786 C1787 1.367 1_554 S
C1786 C1790 1.524 1_554 S
C1787 C1779 1.537 . S
C1787 C1786 1.367 1_556 S
C1787 C1788 1.374 1_556 S
C1788 C1787 1.374 1_554 S
C1788 C1789 1.404 . S
C1788 C1791 1.539 . S
C1789 C1785 1.408 . S
C1789 C1788 1.404 . S
C1789 H1801 0.930 . S
C1790 C1786 1.524 1_556 S
C1790 H1802 0.956 . S
C1790 H1803 0.961 . S
C1790 H1804 0.961 . S
C1791 C1788 1.539 . S
C1791 H1805 0.958 . S
C1791 H1806 0.961 . S
C1791 H1807 0.960 1_554 S
H1792 C1776 0.931 . S
H1793 C1781 0.929 . S
H1794 C1782 0.960 . S
H1795 C1782 0.962 . S
H1796 C1782 0.960 . S
H1797 C1783 0.961 . S
H1798 C1783 0.961 . S
H1799 C1783 0.961 . S
H1800 C1784 0.931 . S
H1801 C1789 0.930 . S
H1802 C1790 0.956 . S
H1803 C1790 0.961 . S
H1804 C1790 0.961 . S
H1805 C1791 0.958 . S
H1806 C1791 0.961 . S
H1807 C1791 0.960 1_556 S
C1808 C1809 1.391 . S
C1808 C1810 1.394 . S
C1808 H1824 0.931 . S
C1809 C1808 1.391 . S
C1809 C1813 1.376 . S
C1810 C1808 1.394 . S
C1810 C1811 1.369 . S
C1810 C1814 1.531 . S
C1811 C1810 1.369 . S
C1811 C1812 1.410 . S
C1811 C1819 1.503 . S
C1812 C1811 1.410 . S
C1812 C1813 1.392 . S
C1812 C1815 1.511 1_556 S
C1813 C1809 1.376 . S
C1813 C1812 1.392 . S
C1813 H1825 0.929 . S
C1814 C1810 1.531 . S
C1814 H1826 0.960 . S
C1814 H1827 0.962 . S
C1814 H1828 0.960 . S
C1815 C1812 1.511 1_554 S
C1815 H1829 0.961 . S
C1815 H1830 0.961 . S
C1815 H1831 0.962 . S
C1816 C1817 1.370 . S
C1816 C1818 1.363 . S
C1816 H1832 0.931 . S
C1817 C1816 1.370 . S
C1817 C1821 1.408 . S
C1818 C1816 1.363 . S
C1818 C1819 1.370 1_554 S
C1818 C1822 1.524 . S
C1819 C1811 1.503 . S
C1819 C1818 1.370 1_556 S
C1819 C1820 1.403 . S
C1820 C1819 1.403 . S
C1820 C1821 1.404 1_556 S
C1820 C1823 1.539 . S
C1821 C1817 1.408 . S
C1821 C1820 1.404 1_554 S
C1821 H1833 0.930 . S
C1822 C1818 1.524 . S
C1822 H1834 0.956 1_554 S
C1822 H1835 0.961 . S
C1822 H1836 0.961 . S
C1823 C1820 1.539 . S
C1823 H1837 0.958 . S
C1823 H1838 0.961 . S
C1823 H1839 0.960 . S
H1824 C1808 0.931 . S
H1825 C1813 0.929 . S
H1826 C1814 0.960 . S
H1827 C1814 0.962 . S
H1828 C1814 0.960 . S
H1829 C1815 0.961 . S
H1830 C1815 0.961 . S
H1831 C1815 0.962 . S
H1832 C1816 0.931 . S
H1833 C1821 0.930 . S
H1834 C1822 0.956 1_556 S
H1835 C1822 0.961 . S
H1836 C1822 0.961 . S
H1837 C1823 0.958 . S
H1838 C1823 0.961 . S
H1839 C1823 0.960 . S
C1840 C1841 1.391 . S
C1840 C1842 1.394 . S
C1840 H1856 0.931 . S
C1841 C1840 1.391 . S
C1841 C1845 1.376 . S
C1842 C1840 1.394 . S
C1842 C1843 1.369 1_554 S
C1842 C1846 1.531 . S
C1843 C1842 1.369 1_556 S
C1843 C1844 1.410 . S
C1843 C1851 1.503 . S
C1844 C1843 1.410 . S
C1844 C1845 1.392 1_556 S
C1844 C1847 1.511 . S
C1845 C1841 1.376 . S
C1845 C1844 1.392 1_554 S
C1845 H1857 0.929 . S
C1846 C1842 1.531 . S
C1846 H1858 0.960 1_554 S
C1846 H1859 0.962 . S
C1846 H1860 0.960 . S
C1847 C1844 1.511 . S
C1847 H1861 0.961 . S
C1847 H1862 0.961 . S
C1847 H1863 0.961 . S
C1848 C1849 1.370 . S
C1848 C1850 1.363 . S
C1848 H1864 0.931 . S
C1849 C1848 1.370 . S
C1849 C1853 1.408 . S
C1850 C1848 1.363 . S
C1850 C1851 1.370 . S
C1850 C1854 1.524 1_556 S
C1851 C1843 1.503 . S
C1851 C1850 1.370 . S
C1851 C1852 1.403 . S
C1852 C1851 1.403 . S
C1852 C1853 1.404 . S
C1852 C1855 1.539 . S
C1853 C1849 1.408 . S
C1853 C1852 1.404 . S
C1853 H1865 0.930 . S
C1854 C1850 1.524 1_554 S
C1854 H1866 0.956 . S
C1854 H1867 0.961 . S
C1854 H1868 0.961 . S
C1855 C1852 1.539 . S
C1855 H1869 0.958 . S
C1855 H1870 0.961 . S
C1855 H1871 0.960 . S
H1856 C1840 0.931 . S
H1857 C1845 0.929 . S
H1858 C1846 0.960 1_556 S
H1859 C1846 0.962 . S
H1860 C1846 0.960 . S
H1861 C1847 0.961 . S
H1862 C1847 0.961 . S
H1863 C1847 0.961 . S
H1864 C1848 0.931 . S
H1865 C1853 0.930 . S
H1866 C1854 0.956 . S
H1867 C1854 0.961 . S
H1868 C1854 0.961 . S
H1869 C1855 0.958 . S
H1870 C1855 0.961 . S
H1871 C1855 0.960 . S
C1872 C1873 1.391 . S
C1872 C1874 1.394 . S
C1872 H1888 0.931 . S
C1873 C1872 1.391 . S
C1873 C1877 1.376 . S
C1874 C1872 1.394 . S
C1874 C1875 1.369 1_554 S
C1874 C1878 1.531 1_554 S
C1875 C1874 1.369 1_556 S
C1875 C1876 1.410 1_556 S
C1875 C1883 1.503 . S
C1876 C1875 1.410 1_554 S
C1876 C1877 1.392 . S
C1876 C1879 1.511 1_554 S
C1877 C1873 1.376 . S
C1877 C1876 1.392 . S
C1877 H1889 0.929 . S
C1878 C1874 1.531 1_556 S
C1878 H1890 0.960 . S
C1878 H1891 0.962 1_556 S
C1878 H1892 0.962 1_455 S
C1879 C1876 1.511 1_556 S
C1879 H1893 0.955 1_556 S
C1879 H1894 0.961 . S
C1879 H1895 0.961 . S
C1880 C1881 1.370 . S
C1880 C1882 1.363 . S
C1880 H1896 0.931 . S
C1881 C1880 1.370 . S
C1881 C1885 1.408 . S
C1882 C1880 1.363 . S
C1882 C1883 1.370 . S
C1882 C1886 1.524 1_556 S
C1883 C1875 1.503 . S
C1883 C1882 1.370 . S
C1883 C1884 1.403 . S
C1884 C1883 1.403 . S
C1884 C1885 1.404 . S
C1884 C1887 1.539 . S
C1885 C1881 1.408 . S
C1885 C1884 1.404 . S
C1885 H1897 0.930 . S
C1886 C1882 1.524 1_554 S
C1886 H1898 0.956 . S
C1886 H1899 0.961 . S
C1886 H1900 0.961 . S
C1887 C1884 1.539 . S
C1887 H1901 0.958 . S
C1887 H1902 0.961 . S
C1887 H1903 0.960 . S
H1888 C1872 0.931 . S
H1889 C1877 0.929 . S
H1890 C1878 0.960 . S
H1891 C1878 0.962 1_554 S
H1892 C1878 0.962 1_655 S
H1893 C1879 0.955 1_554 S
H1894 C1879 0.961 . S
H1895 C1879 0.961 . S
H1896 C1880 0.931 . S
H1897 C1885 0.930 . S
H1898 C1886 0.956 . S
H1899 C1886 0.961 . S
H1900 C1886 0.961 . S
H1901 C1887 0.958 . S
H1902 C1887 0.961 . S
H1903 C1887 0.960 . S
C369 C17 1.707 . S
C377 C131 1.697 . S
C401 C155 1.649 . S
C409 C40 1.659 . S
C433 C63 1.676 . S
C441 C178 1.672 . S
C465 C85 1.711 . S
C473 C108 1.715 . S
C497 C316 1.702 . S
C505 C201 1.700 . S
C529 C339 1.688 . S
C537 C224 1.693 . S
C561 C247 1.683 . S
C569 C362 1.692 . S
C593 C270 1.697 . S
C601 C293 1.695 . S
C625 C20 1.541 . S
C633 C88 1.551 1_545 S
C657 C43 1.502 . S
C665 C21 1.529 . S
C689 C66 1.519 . S
C697 C44 1.537 . S
C721 C87 1.563 . S
C729 C67 1.567 1_455 S
C753 C110 1.567 . S
C761 C134 1.576 1_565 S
C785 C159 1.564 . S
C793 C133 1.558 . S
C817 C158 1.508 . S
C825 C182 1.530 . S
C849 C111 1.534 1_655 S
C857 C181 1.535 . S
C881 C274 1.517 1_565 S
C889 C204 1.522 . S
C913 C227 1.523 . S
C921 C205 1.527 . S
C945 C250 1.519 . S
C953 C228 1.533 . S
C977 C273 1.514 . S
C985 C251 1.526 1_655 S
C1009 C296 1.500 . S
C1017 C320 1.527 1_545 S
C1041 C319 1.508 . S
C1049 C343 1.519 . S
C1073 C342 1.525 . S
C1081 C366 1.523 . S
C1105 C365 1.525 . S
C1113 C297 1.522 1_455 S
C1137 C19 0.562 . S
C1145 C65 0.618 . S
C1169 C42 0.492 . S
C1177 C90 0.530 . S
C1201 C157 0.691 . S
C1209 C113 0.597 . S
C1233 C180 0.547 . S
C1241 C136 0.540 . S
C1265 C249 0.659 . S
C1273 C203 0.638 . S
C1297 C272 0.496 . S
C1305 C226 0.557 . S
C1329 C295 0.630 . S
C1337 C341 0.595 . S
C1361 C318 0.660 . S
C1369 C364 0.637 . S
C1393 C18 1.220 . S
C1401 C269 1.198 . S
C1425 C200 1.171 . S
C1433 C41 1.201 . S
C1457 C64 1.207 . S
C1465 C223 1.179 . S
C1489 C246 1.170 . S
C1497 C89 1.145 . S
C1521 C315 1.190 . S
C1529 C112 1.170 . S
C1553 C135 1.119 . S
C1561 C338 1.152 . S
C1585 C361 1.190 . S
C1593 C156 1.217 . S
C1617 C179 1.201 . S
C1625 C292 1.180 . S
C1649 C202 1.177 . S
C1657 C86 1.165 . S
C1681 C225 1.195 . S
C1689 C16 1.160 . S
C1713 C39 1.147 . S
C1721 C248 1.211 . S
C1745 C271 1.200 . S
C1753 C62 1.160 . S
C1777 C294 1.179 . S
C1785 C132 1.153 . S
C1809 C317 1.218 . S
C1817 C154 1.196 . S
C1841 C177 1.210 . S
C1849 C340 1.213 . S
C1873 C109 1.178 . S
C1881 C363 1.181 . S
