# Generated by pormake.
# Topology fcp, (5)-cn, num edge types: 1
# Building blocks:
#     Node 0, Type 0, BuildingBlock: XOMCOT_clean_sbu_1, # of connection points: 5
#     Node 1, Type 0, BuildingBlock: XOMCOT_clean_sbu_1, # of connection points: 5
#     Node 2, Type 0, BuildingBlock: XOMCOT_clean_sbu_1, # of connection points: 5
#     Node 3, Type 0, BuildingBlock: XOMCOT_clean_sbu_1, # of connection points: 5
#     Node 4, Type 0, BuildingBlock: XOMCOT_clean_sbu_1, # of connection points: 5
#     Node 5, Type 0, BuildingBlock: XOMCOT_clean_sbu_1, # of connection points: 5
#     Node 6, Type 0, BuildingBlock: XOMCOT_clean_sbu_1, # of connection points: 5
#     Node 7, Type 0, BuildingBlock: XOMCOT_clean_sbu_1, # of connection points: 5
#     Node 8, Type 0, BuildingBlock: XOMCOT_clean_sbu_1, # of connection points: 5
#     Node 9, Type 0, BuildingBlock: XOMCOT_clean_sbu_1, # of connection points: 5
#     Node 10, Type 0, BuildingBlock: XOMCOT_clean_sbu_1, # of connection points: 5
#     Node 11, Type 0, BuildingBlock: XOMCOT_clean_sbu_1, # of connection points: 5
#     Node 12, Type 0, BuildingBlock: XOMCOT_clean_sbu_1, # of connection points: 5
#     Node 13, Type 0, BuildingBlock: XOMCOT_clean_sbu_1, # of connection points: 5
#     Node 14, Type 0, BuildingBlock: XOMCOT_clean_sbu_1, # of connection points: 5
#     Node 15, Type 0, BuildingBlock: XOMCOT_clean_sbu_1, # of connection points: 5
#     Node 16, Type 0, BuildingBlock: XOMCOT_clean_sbu_1, # of connection points: 5
#     Node 17, Type 0, BuildingBlock: XOMCOT_clean_sbu_1, # of connection points: 5
#     Node 18, Type 0, BuildingBlock: XOMCOT_clean_sbu_1, # of connection points: 5
#     Node 19, Type 0, BuildingBlock: XOMCOT_clean_sbu_1, # of connection points: 5
#     Node 20, Type 0, BuildingBlock: XOMCOT_clean_sbu_1, # of connection points: 5
#     Node 21, Type 0, BuildingBlock: XOMCOT_clean_sbu_1, # of connection points: 5
#     Node 22, Type 0, BuildingBlock: XOMCOT_clean_sbu_1, # of connection points: 5
#     Node 23, Type 0, BuildingBlock: XOMCOT_clean_sbu_1, # of connection points: 5
#     Edge 24, Type (0, 0), BuildingBlock: EZIPEK_clean_linker_0, # of connection points: 2
#     Edge 25, Type (0, 0), BuildingBlock: EZIPEK_clean_linker_0, # of connection points: 2
#     Edge 26, Type (0, 0), BuildingBlock: EZIPEK_clean_linker_0, # of connection points: 2
#     Edge 27, Type (0, 0), BuildingBlock: EZIPEK_clean_linker_0, # of connection points: 2
#     Edge 28, Type (0, 0), BuildingBlock: EZIPEK_clean_linker_0, # of connection points: 2
#     Edge 29, Type (0, 0), BuildingBlock: EZIPEK_clean_linker_0, # of connection points: 2
#     Edge 30, Type (0, 0), BuildingBlock: EZIPEK_clean_linker_0, # of connection points: 2
#     Edge 31, Type (0, 0), BuildingBlock: EZIPEK_clean_linker_0, # of connection points: 2
#     Edge 32, Type (0, 0), BuildingBlock: EZIPEK_clean_linker_0, # of connection points: 2
#     Edge 33, Type (0, 0), BuildingBlock: EZIPEK_clean_linker_0, # of connection points: 2
#     Edge 34, Type (0, 0), BuildingBlock: EZIPEK_clean_linker_0, # of connection points: 2
#     Edge 35, Type (0, 0), BuildingBlock: EZIPEK_clean_linker_0, # of connection points: 2
#     Edge 36, Type (0, 0), BuildingBlock: EZIPEK_clean_linker_0, # of connection points: 2
#     Edge 37, Type (0, 0), BuildingBlock: EZIPEK_clean_linker_0, # of connection points: 2
#     Edge 38, Type (0, 0), BuildingBlock: EZIPEK_clean_linker_0, # of connection points: 2
#     Edge 39, Type (0, 0), BuildingBlock: EZIPEK_clean_linker_0, # of connection points: 2
#     Edge 40, Type (0, 0), BuildingBlock: EZIPEK_clean_linker_0, # of connection points: 2
#     Edge 41, Type (0, 0), BuildingBlock: EZIPEK_clean_linker_0, # of connection points: 2
#     Edge 42, Type (0, 0), BuildingBlock: EZIPEK_clean_linker_0, # of connection points: 2
#     Edge 43, Type (0, 0), BuildingBlock: EZIPEK_clean_linker_0, # of connection points: 2
#     Edge 44, Type (0, 0), BuildingBlock: EZIPEK_clean_linker_0, # of connection points: 2
#     Edge 45, Type (0, 0), BuildingBlock: EZIPEK_clean_linker_0, # of connection points: 2
#     Edge 46, Type (0, 0), BuildingBlock: EZIPEK_clean_linker_0, # of connection points: 2
#     Edge 47, Type (0, 0), BuildingBlock: EZIPEK_clean_linker_0, # of connection points: 2
#     Edge 48, Type (0, 0), BuildingBlock: EZIPEK_clean_linker_0, # of connection points: 2
#     Edge 49, Type (0, 0), BuildingBlock: EZIPEK_clean_linker_0, # of connection points: 2
#     Edge 50, Type (0, 0), BuildingBlock: EZIPEK_clean_linker_0, # of connection points: 2
#     Edge 51, Type (0, 0), BuildingBlock: EZIPEK_clean_linker_0, # of connection points: 2
#     Edge 52, Type (0, 0), BuildingBlock: EZIPEK_clean_linker_0, # of connection points: 2
#     Edge 53, Type (0, 0), BuildingBlock: EZIPEK_clean_linker_0, # of connection points: 2
#     Edge 54, Type (0, 0), BuildingBlock: EZIPEK_clean_linker_0, # of connection points: 2
#     Edge 55, Type (0, 0), BuildingBlock: EZIPEK_clean_linker_0, # of connection points: 2
#     Edge 56, Type (0, 0), BuildingBlock: EZIPEK_clean_linker_0, # of connection points: 2
#     Edge 57, Type (0, 0), BuildingBlock: EZIPEK_clean_linker_0, # of connection points: 2
#     Edge 58, Type (0, 0), BuildingBlock: EZIPEK_clean_linker_0, # of connection points: 2
#     Edge 59, Type (0, 0), BuildingBlock: EZIPEK_clean_linker_0, # of connection points: 2
#     Edge 60, Type (0, 0), BuildingBlock: EZIPEK_clean_linker_0, # of connection points: 2
#     Edge 61, Type (0, 0), BuildingBlock: EZIPEK_clean_linker_0, # of connection points: 2
#     Edge 62, Type (0, 0), BuildingBlock: EZIPEK_clean_linker_0, # of connection points: 2
#     Edge 63, Type (0, 0), BuildingBlock: EZIPEK_clean_linker_0, # of connection points: 2
#     Edge 64, Type (0, 0), BuildingBlock: EZIPEK_clean_linker_0, # of connection points: 2
#     Edge 65, Type (0, 0), BuildingBlock: EZIPEK_clean_linker_0, # of connection points: 2
#     Edge 66, Type (0, 0), BuildingBlock: EZIPEK_clean_linker_0, # of connection points: 2
#     Edge 67, Type (0, 0), BuildingBlock: EZIPEK_clean_linker_0, # of connection points: 2
#     Edge 68, Type (0, 0), BuildingBlock: EZIPEK_clean_linker_0, # of connection points: 2
#     Edge 69, Type (0, 0), BuildingBlock: EZIPEK_clean_linker_0, # of connection points: 2
#     Edge 70, Type (0, 0), BuildingBlock: EZIPEK_clean_linker_0, # of connection points: 2
#     Edge 71, Type (0, 0), BuildingBlock: EZIPEK_clean_linker_0, # of connection points: 2
#     Edge 72, Type (0, 0), BuildingBlock: EZIPEK_clean_linker_0, # of connection points: 2
#     Edge 73, Type (0, 0), BuildingBlock: EZIPEK_clean_linker_0, # of connection points: 2
#     Edge 74, Type (0, 0), BuildingBlock: EZIPEK_clean_linker_0, # of connection points: 2
#     Edge 75, Type (0, 0), BuildingBlock: EZIPEK_clean_linker_0, # of connection points: 2
#     Edge 76, Type (0, 0), BuildingBlock: EZIPEK_clean_linker_0, # of connection points: 2
#     Edge 77, Type (0, 0), BuildingBlock: EZIPEK_clean_linker_0, # of connection points: 2
#     Edge 78, Type (0, 0), BuildingBlock: EZIPEK_clean_linker_0, # of connection points: 2
#     Edge 79, Type (0, 0), BuildingBlock: EZIPEK_clean_linker_0, # of connection points: 2
#     Edge 80, Type (0, 0), BuildingBlock: EZIPEK_clean_linker_0, # of connection points: 2
#     Edge 81, Type (0, 0), BuildingBlock: EZIPEK_clean_linker_0, # of connection points: 2
#     Edge 82, Type (0, 0), BuildingBlock: EZIPEK_clean_linker_0, # of connection points: 2
#     Edge 83, Type (0, 0), BuildingBlock: EZIPEK_clean_linker_0, # of connection points: 2
# Relax obj value: 0.095
# Max RMSD: 0.137
# Mean RMSD: 0.137
data_MOF--net-fcp--node1-XOMCOT_clean_sbu_1--edge1-EZIPEK_clean_linker_0
_symmetry_space_group_name_H-M    P1
_symmetry_Int_Tables_number       1
_symmetry_cell_setting            triclinic
loop_
_symmetry_equiv_pos_as_xyz
'x, y, z'
_cell_length_a     39.344875
_cell_length_b     39.401168
_cell_length_c     39.421162
_cell_angle_alpha  90.158256
_cell_angle_beta   89.932967
_cell_angle_gamma 90.066467
loop_
_atom_site_label
_atom_site_type_symbol
_atom_site_fract_x
_atom_site_fract_y
_atom_site_fract_z
_atom_type_partial_charge
C0 C 0.01905 0.31335 0.17778 0.0
C1 C 0.9902 0.32178 0.19565 0.0
N2 N 0.99921 0.34299 0.22086 0.0
N3 N 0.04606 0.32939 0.19163 0.0
C4 C 0.03312 0.34723 0.21802 0.0
H5 H 0.0203 0.29706 0.15568 0.0
Co6 Co 0.09078 0.3274 0.17521 0.0
C7 C 0.10831 0.40153 0.18663 0.0
O8 O 0.10918 0.40949 0.15434 0.0
N9 N 0.13637 0.32535 0.15942 0.0
C10 C 0.186 0.3351 0.13443 0.0
C11 C 0.15327 0.34634 0.13839 0.0
C12 C 0.15953 0.30124 0.16724 0.0
N13 N 0.19084 0.30727 0.15381 0.0
O14 O 0.10531 0.30598 0.21665 0.0
H15 H 0.14218 0.36725 0.12479 0.0
H16 H 0.15253 0.27871 0.18101 0.0
O17 O 0.10025 0.37151 0.19571 0.0
C18 C 0.09316 0.27664 0.22299 0.0
O19 O 0.06852 0.265 0.20375 0.0
N20 N 0.07555 0.34491 0.13316 0.0
C21 C 0.03935 0.34944 0.07225 0.0
C22 C 0.03129 0.3706 0.09991 0.0
C23 C 0.05039 0.36862 0.12992 0.0
C24 C 0.08394 0.32476 0.1062 0.0
C25 C 0.06731 0.32772 0.07523 0.0
H26 H 0.04278 0.38374 0.15156 0.0
H27 H 0.10215 0.30448 0.10917 0.0
H28 H 0.04803 0.36334 0.23459 0.0
H29 H 0.96452 0.31343 0.19036 0.0
H30 H 0.20391 0.34572 0.11657 0.0
H31 H 0.00962 0.38748 0.09882 0.0
H32 H 0.07439 0.31096 0.05457 0.0
C33 C 0.81559 0.49175 0.31985 0.0
C34 C 0.82377 0.51943 0.3003 0.0
N35 N 0.85474 0.51409 0.28691 0.0
N36 N 0.84113 0.46896 0.31841 0.0
C37 C 0.86491 0.48355 0.2984 0.0
H38 H 0.7927 0.48873 0.33471 0.0
Co39 Co 0.84099 0.4277 0.34113 0.0
C40 C 0.89067 0.38711 0.30499 0.0
O41 O 0.86782 0.36285 0.30394 0.0
N42 N 0.84043 0.38598 0.36492 0.0
C43 C 0.8472 0.34622 0.40461 0.0
C44 C 0.85988 0.37602 0.39142 0.0
C45 C 0.81727 0.36089 0.36172 0.0
N46 N 0.82029 0.33691 0.38581 0.0
O47 O 0.81642 0.40797 0.30372 0.0
H48 H 0.88097 0.39021 0.40179 0.0
H49 H 0.79732 0.36068 0.3432 0.0
O50 O 0.88417 0.41516 0.32002 0.0
C51 C 0.78426 0.4122 0.30267 0.0
O52 O 0.76902 0.42844 0.32751 0.0
N53 N 0.86168 0.44882 0.37798 0.0
C54 C 0.88054 0.48201 0.43742 0.0
C55 C 0.90515 0.47351 0.41295 0.0
C56 C 0.89505 0.45707 0.3829 0.0
C57 C 0.83766 0.45725 0.40137 0.0
C58 C 0.84652 0.47379 0.43127 0.0
H59 H 0.91389 0.45083 0.36392 0.0
H60 H 0.81134 0.45084 0.39665 0.0
H61 H 0.88941 0.47252 0.29269 0.0
H62 H 0.80863 0.54207 0.29675 0.0
H63 H 0.85592 0.33333 0.4272 0.0
H64 H 0.93168 0.47955 0.41707 0.0
H65 H 0.82694 0.48 0.44961 0.0
C66 C 1.00207 0.69338 0.17409 0.0
C67 C 0.03102 0.68776 0.19294 0.0
N68 N 0.022 0.67092 0.22116 0.0
N69 N 0.97501 0.67953 0.19007 0.0
C70 C 0.988 0.66681 0.21919 0.0
H71 H 1.00086 0.70606 0.14982 0.0
Co72 Co 0.92989 0.6797 0.17355 0.0
C73 C 0.93055 0.60827 0.20581 0.0
O74 O 0.96207 0.59964 0.1996 0.0
N75 N 0.88469 0.68056 0.15819 0.0
C76 C 0.83376 0.66571 0.13843 0.0
C77 C 0.86493 0.65394 0.14913 0.0
C78 C 0.86499 0.70815 0.15297 0.0
N79 N 0.83401 0.69974 0.14094 0.0
O80 O 0.91546 0.70408 0.21328 0.0
H81 H 0.87291 0.62769 0.14949 0.0
H82 H 0.87346 0.73393 0.15702 0.0
O83 O 0.91885 0.63696 0.19639 0.0
C84 C 0.92508 0.73491 0.21572 0.0
O85 O 0.94655 0.74681 0.19312 0.0
N86 N 0.94445 0.65828 0.13196 0.0
C87 C 0.97391 0.64417 0.06853 0.0
C88 C 0.98654 0.62913 0.09808 0.0
C89 C 0.97116 0.63611 0.12945 0.0
C90 C 0.93161 0.67234 0.10295 0.0
C91 C 0.94498 0.66457 0.07112 0.0
H92 H 0.98349 0.62659 0.15169 0.0
H93 H 0.91242 0.69181 0.10408 0.0
H94 H 0.97311 0.65441 0.23854 0.0
H95 H 0.05674 0.69492 0.18625 0.0
H96 H 0.8128 0.65063 0.12894 0.0
H97 H 0.00934 0.61376 0.09722 0.0
H98 H 0.93473 0.67706 0.04891 0.0
C99 C 0.20793 0.52557 0.30556 0.0
C100 C 0.19976 0.4985 0.28512 0.0
N101 N 0.16641 0.50025 0.27774 0.0
N102 N 0.18013 0.54496 0.31041 0.0
C103 C 0.15499 0.52843 0.29374 0.0
H104 H 0.23275 0.53092 0.31598 0.0
Co105 Co 0.18063 0.58534 0.33521 0.0
C106 C 0.11268 0.61819 0.32311 0.0
O107 O 0.10979 0.628 0.35482 0.0
N108 N 0.18223 0.62654 0.36133 0.0
C109 C 0.18348 0.66204 0.40572 0.0
C110 C 0.17152 0.63156 0.3937 0.0
C111 C 0.19959 0.65542 0.35416 0.0
N112 N 0.20155 0.67677 0.38096 0.0
O113 O 0.2051 0.60658 0.29817 0.0
H114 H 0.15724 0.6137 0.40878 0.0
H115 H 0.21243 0.66015 0.33053 0.0
O116 O 0.13789 0.59991 0.31374 0.0
C117 C 0.23754 0.60496 0.29862 0.0
O118 O 0.25275 0.59246 0.32545 0.0
N119 N 0.16023 0.56222 0.37137 0.0
C120 C 0.1439 0.52678 0.43029 0.0
C121 C 0.11838 0.53568 0.40702 0.0
C122 C 0.12719 0.55328 0.37725 0.0
C123 C 0.18526 0.55223 0.393 0.0
C124 C 0.17765 0.53482 0.42272 0.0
H125 H 0.10761 0.55951 0.35923 0.0
H126 H 0.2114 0.55865 0.38733 0.0
H127 H 0.12893 0.53682 0.29305 0.0
H128 H 0.2169 0.47879 0.2765 0.0
H129 H 0.18138 0.67142 0.43148 0.0
H130 H 0.09209 0.52915 0.41188 0.0
H131 H 0.19798 0.52791 0.43987 0.0
C132 C 0.02086 0.69681 0.82389 0.0
C133 C 0.99002 0.68831 0.81005 0.0
N134 N 0.99256 0.65786 0.79422 0.0
N135 N 0.04378 0.67292 0.81582 0.0
C136 C 0.02623 0.65039 0.79661 0.0
H137 H 0.02638 0.71928 0.83872 0.0
Co138 Co 0.08874 0.67444 0.83174 0.0
C139 C 0.09558 0.59895 0.8093 0.0
O140 O 0.07276 0.5838 0.82824 0.0
N141 N 0.13393 0.6769 0.84716 0.0
C142 C 0.18218 0.66585 0.87437 0.0
C143 C 0.15236 0.65219 0.86207 0.0
C144 C 0.15352 0.70499 0.84978 0.0
N145 N 0.18289 0.69909 0.86651 0.0
O146 O 0.10239 0.69512 0.78994 0.0
H147 H 0.14371 0.62639 0.86569 0.0
H148 H 0.14562 0.72986 0.84141 0.0
O149 O 0.10028 0.6309 0.81145 0.0
C150 C 0.09882 0.72713 0.78768 0.0
O151 O 0.08559 0.74391 0.81332 0.0
N152 N 0.07409 0.65611 0.87463 0.0
C153 C 0.04509 0.64444 0.93876 0.0
C154 C 0.03247 0.62798 0.90987 0.0
C155 C 0.04749 0.63389 0.87817 0.0
C156 C 0.08643 0.67223 0.90287 0.0
C157 C 0.07336 0.66568 0.9351 0.0
H158 H 0.03557 0.62256 0.85641 0.0
H159 H 0.10525 0.69198 0.90067 0.0
H160 H 0.03821 0.62916 0.78442 0.0
H161 H 0.96795 0.70455 0.81081 0.0
H162 H 0.20128 0.65272 0.88907 0.0
H163 H 0.01014 0.61196 0.91152 0.0
H164 H 0.08349 0.67938 0.95672 0.0
C165 C 0.21183 0.48839 0.68838 0.0
C166 C 0.20499 0.51645 0.70813 0.0
N167 N 0.17303 0.51347 0.71957 0.0
N168 N 0.18436 0.4677 0.68741 0.0
C169 C 0.16112 0.48404 0.7069 0.0
H170 H 0.23583 0.48303 0.67616 0.0
Co171 Co 0.18551 0.42409 0.6669 0.0
C172 C 0.1107 0.42138 0.68816 0.0
O173 O 0.10127 0.4476 0.66993 0.0
N174 N 0.18841 0.38097 0.64704 0.0
C175 C 0.17993 0.32719 0.63165 0.0
C176 C 0.16472 0.35627 0.64376 0.0
C177 C 0.21762 0.36635 0.63655 0.0
N178 N 0.21333 0.33348 0.62788 0.0
O179 O 0.20798 0.40683 0.70703 0.0
H180 H 0.1384 0.35844 0.65129 0.0
H181 H 0.24206 0.37891 0.63715 0.0
O182 O 0.14166 0.41146 0.68774 0.0
C183 C 0.24031 0.40856 0.70924 0.0
O184 O 0.25787 0.42182 0.68425 0.0
N185 N 0.16587 0.44131 0.62637 0.0
C186 C 0.14753 0.46609 0.56244 0.0
C187 C 0.17639 0.47839 0.57908 0.0
C188 C 0.18534 0.46532 0.61071 0.0
C189 C 0.13797 0.42844 0.61006 0.0
C190 C 0.12803 0.4409 0.57826 0.0
H191 H 0.2088 0.47364 0.62214 0.0
H192 H 0.12358 0.40796 0.62102 0.0
H193 H 0.13644 0.47458 0.71349 0.0
H194 H 0.22218 0.53707 0.71412 0.0
H195 H 0.16795 0.30266 0.62827 0.0
H196 H 0.19248 0.49728 0.56721 0.0
H197 H 0.10591 0.43035 0.56573 0.0
C198 C 0.98876 0.32928 0.81613 0.0
C199 C 0.01655 0.3348 0.79578 0.0
N200 N 0.01156 0.364 0.77912 0.0
N201 N 0.96634 0.35511 0.81276 0.0
C202 C 0.98106 0.37578 0.78958 0.0
H203 H 0.98538 0.30785 0.83283 0.0
Co204 Co 0.92362 0.35706 0.83539 0.0
C205 C 0.90315 0.41127 0.79992 0.0
O206 O 0.91571 0.42517 0.82751 0.0
N207 N 0.88039 0.35733 0.85699 0.0
C208 C 0.83379 0.37276 0.88561 0.0
C209 C 0.8647 0.38352 0.87273 0.0
C210 C 0.85854 0.331 0.86101 0.0
N211 N 0.83024 0.33963 0.87814 0.0
O212 O 0.91402 0.31353 0.81354 0.0
H213 H 0.87525 0.4087 0.87543 0.0
H214 H 0.86382 0.30524 0.85345 0.0
O215 O 0.90398 0.379 0.79679 0.0
C216 C 0.91627 0.28138 0.81643 0.0
O217 O 0.92849 0.26803 0.84433 0.0
N218 N 0.94385 0.34041 0.8761 0.0
C219 C 0.97064 0.33829 0.94212 0.0
C220 C 0.98515 0.35896 0.91726 0.0
C221 C 0.9704 0.36089 0.88531 0.0
C222 C 0.93026 0.31867 0.89954 0.0
C223 C 0.94285 0.31777 0.93291 0.0
H224 H 0.97946 0.38041 0.86836 0.0
H225 H 0.90837 0.3034 0.89364 0.0
H226 H 0.96972 0.39864 0.78007 0.0
H227 H 0.03881 0.31883 0.7935 0.0
H228 H 0.81585 0.38773 0.9001 0.0
H229 H 1.00635 0.37548 0.92325 0.0
H230 H 0.93045 0.30183 0.95155 0.0
C231 C 0.81734 0.52643 0.66052 0.0
C232 C 0.82416 0.49623 0.67658 0.0
N233 N 0.84186 0.50322 0.70492 0.0
N234 N 0.83121 0.5522 0.67842 0.0
C235 C 0.84564 0.53729 0.70562 0.0
H236 H 0.80437 0.52939 0.63654 0.0
Co237 Co 0.8324 0.59707 0.66384 0.0
C238 C 0.90451 0.61404 0.68865 0.0
O239 O 0.91909 0.6177 0.65895 0.0
N240 N 0.83261 0.64234 0.64881 0.0
C241 C 0.84453 0.69172 0.62392 0.0
C242 C 0.85691 0.66017 0.63229 0.0
C243 C 0.80562 0.66351 0.64972 0.0
N244 N 0.81228 0.69357 0.63493 0.0
O245 O 0.80586 0.61071 0.7027 0.0
H246 H 0.88121 0.65035 0.62448 0.0
H247 H 0.78102 0.6566 0.6597 0.0
O248 O 0.87316 0.60581 0.69107 0.0
C249 C 0.77529 0.60105 0.70758 0.0
O250 O 0.76135 0.57915 0.6866 0.0
N251 N 0.85644 0.58297 0.62488 0.0
C252 C 0.87827 0.552 0.56495 0.0
C253 C 0.8963 0.54731 0.59526 0.0
C254 C 0.88446 0.56247 0.62521 0.0
C255 C 0.83934 0.5885 0.59534 0.0
C256 C 0.84995 0.57346 0.56506 0.0
H257 H 0.89657 0.55614 0.6489 0.0
H258 H 0.81618 0.60326 0.59559 0.0
H259 H 0.85994 0.55083 0.72482 0.0
H260 H 0.8176 0.47104 0.66771 0.0
H261 H 0.85743 0.71104 0.60927 0.0
H262 H 0.91799 0.53044 0.5961 0.0
H263 H 0.83523 0.5773 0.54219 0.0
C264 C 0.18794 0.02052 0.31153 0.0
C265 C 0.20764 0.99186 0.31521 0.0
N266 N 0.22462 0.99448 0.34472 0.0
N267 N 0.19297 0.04137 0.33828 0.0
C268 C 0.21499 0.02435 0.35831 0.0
H269 H 0.172 0.02641 0.29002 0.0
Co270 Co 0.17677 0.08608 0.34068 0.0
C271 C 0.19829 0.0852 0.41544 0.0
O272 O 0.17745 0.06139 0.42579 0.0
N273 N 0.16215 0.1313 0.34174 0.0
C274 C 0.13837 0.18064 0.3556 0.0
C275 C 0.1509 0.1504 0.36797 0.0
C276 C 0.15749 0.15088 0.31415 0.0
N277 N 0.14277 0.1809 0.32169 0.0
O278 O 0.2184 0.10086 0.31886 0.0
H279 H 0.14974 0.14201 0.39403 0.0
H280 H 0.16288 0.14248 0.28858 0.0
O281 O 0.19853 0.09446 0.38446 0.0
C282 C 0.22019 0.09842 0.28661 0.0
O283 O 0.19405 0.08647 0.2697 0.0
N284 N 0.13366 0.07038 0.36011 0.0
C285 C 0.06871 0.04364 0.37518 0.0
C286 C 0.09826 0.02558 0.38312 0.0
C287 C 0.13028 0.03954 0.37596 0.0
C288 C 0.10459 0.08777 0.35199 0.0
C289 C 0.0724 0.0759 0.36098 0.0
H290 H 0.15203 0.02418 0.38189 0.0
H291 H 0.10525 0.11024 0.33664 0.0
H292 H 0.22456 0.0335 0.38217 0.0
H293 H 0.20999 0.97112 0.2973 0.0
H294 H 0.12587 0.20034 0.37017 0.0
H295 H 0.09664 1.0003 0.39374 0.0
H296 H 0.05024 0.0906 0.35398 0.0
C297 C 0.52142 0.3377 0.19717 0.0
C298 C 0.49343 0.31799 0.18998 0.0
N299 N 0.50225 0.29563 0.1657 0.0
N300 N 0.54764 0.32779 0.17745 0.0
C301 C 0.53522 0.30194 0.15852 0.0
H302 H 0.52275 0.35786 0.21579 0.0
Co303 Co 0.59057 0.34717 0.18012 0.0
C304 C 0.62273 0.33289 0.11237 0.0
O305 O 0.63361 0.36414 0.10888 0.0
N306 N 0.63484 0.3676 0.18412 0.0
C307 C 0.67934 0.40248 0.18052 0.0
C308 C 0.64669 0.39649 0.16997 0.0
C309 C 0.66102 0.35739 0.20396 0.0
N310 N 0.68917 0.37725 0.20137 0.0
O311 O 0.6056 0.30734 0.20396 0.0
H312 H 0.63255 0.41295 0.15328 0.0
H313 H 0.65845 0.33708 0.22165 0.0
O314 O 0.60431 0.32474 0.13783 0.0
C315 C 0.60172 0.30603 0.23601 0.0
O316 O 0.58912 0.3327 0.25165 0.0
N317 N 0.57329 0.38591 0.15863 0.0
C318 C 0.53913 0.44399 0.13742 0.0
C319 C 0.54318 0.41636 0.11529 0.0
C320 C 0.56003 0.38715 0.12661 0.0
C321 C 0.569 0.41244 0.18047 0.0
C322 C 0.55234 0.44189 0.17026 0.0
H323 H 0.56108 0.36519 0.1102 0.0
H324 H 0.57813 0.41036 0.20626 0.0
H325 H 0.54995 0.28773 0.14015 0.0
H326 H 0.46861 0.31969 0.20173 0.0
H327 H 0.69387 0.42502 0.17461 0.0
H328 H 0.53244 0.41697 0.09002 0.0
H329 H 0.54906 0.46258 0.18811 0.0
C330 C 0.81991 0.9873 0.32037 0.0
C331 C 0.8004 0.01516 0.32814 0.0
N332 N 0.78737 0.01106 0.3595 0.0
N333 N 0.81837 0.96495 0.34607 0.0
C334 C 0.79905 0.98052 0.36999 0.0
H335 H 0.83391 0.98334 0.29709 0.0
Co336 Co 0.83833 0.92184 0.34427 0.0
C337 C 0.82066 0.89261 0.41392 0.0
O338 O 0.8501 0.87812 0.41922 0.0
N339 N 0.85931 0.87782 0.34149 0.0
C340 C 0.89887 0.8372 0.34522 0.0
C341 C 0.88611 0.8662 0.35971 0.0
C342 C 0.85649 0.85476 0.316 0.0
N343 N 0.88033 0.83015 0.31758 0.0
O344 O 0.79868 0.90529 0.3204 0.0
H345 H 0.89811 0.87954 0.38047 0.0
H346 H 0.83971 0.85739 0.29462 0.0
O347 O 0.81577 0.91016 0.38716 0.0
C348 C 0.79945 0.90909 0.28826 0.0
O349 O 0.82704 0.92173 0.27434 0.0
N350 N 0.87753 0.93997 0.36415 0.0
C351 C 0.93802 0.97453 0.37781 0.0
C352 C 0.91053 0.97614 0.40071 0.0
C353 C 0.88043 0.95806 0.39362 0.0
C354 C 0.9038 0.93879 0.34164 0.0
C355 C 0.93459 0.95445 0.34866 0.0
H356 H 0.85897 0.96014 0.41065 0.0
H357 H 0.90056 0.92589 0.31759 0.0
H358 H 0.79322 0.96966 0.3945 0.0
H359 H 0.79613 0.03692 0.31198 0.0
H360 H 0.92159 0.82377 0.35285 0.0
H361 H 0.91197 0.99198 0.42315 0.0
H362 H 0.95496 0.95274 0.3302 0.0
C363 C 0.48811 0.69923 0.19854 0.0
C364 C 0.51533 0.72015 0.19246 0.0
N365 N 0.51365 0.73055 0.16013 0.0
N366 N 0.46851 0.6966 0.17045 0.0
C367 C 0.4853 0.71593 0.14731 0.0
H368 H 0.48331 0.68666 0.22231 0.0
Co369 Co 0.42541 0.67368 0.16978 0.0
C370 C 0.4206 0.69856 0.09643 0.0
O371 O 0.44604 0.68074 0.08419 0.0
N372 N 0.38262 0.6521 0.1702 0.0
C373 C 0.32791 0.64156 0.15969 0.0
C374 C 0.35818 0.65246 0.14603 0.0
C375 C 0.3666 0.64004 0.19804 0.0
N376 N 0.33325 0.63403 0.19245 0.0
O377 O 0.40583 0.71057 0.19489 0.0
H378 H 0.36116 0.6622 0.12063 0.0
H379 H 0.37844 0.6381 0.22265 0.0
O380 O 0.41265 0.69665 0.12778 0.0
C381 C 0.40925 0.70808 0.22694 0.0
O382 O 0.42511 0.68135 0.23886 0.0
N383 N 0.44493 0.63549 0.14822 0.0
C384 C 0.4724 0.57252 0.13049 0.0
C385 C 0.48416 0.59008 0.15892 0.0
C386 C 0.46973 0.62114 0.16761 0.0
C387 C 0.4328 0.61853 0.12041 0.0
C388 C 0.4466 0.58706 0.11078 0.0
H389 H 0.4773 0.63291 0.19113 0.0
H390 H 0.41157 0.62844 0.10632 0.0
H391 H 0.47693 0.72044 0.1218 0.0
H392 H 0.5349 0.72726 0.21041 0.0
H393 H 0.30342 0.64129 0.1472 0.0
H394 H 0.5034 0.5791 0.17519 0.0
H395 H 0.43638 0.57363 0.08905 0.0
C396 C 0.17317 0.98407 0.704 0.0
C397 C 0.19076 0.01426 0.70217 0.0
N398 N 0.20913 0.01416 0.67335 0.0
N399 N 0.18126 0.96448 0.67708 0.0
C400 C 0.20269 0.98384 0.65858 0.0
H401 H 0.15656 0.97633 0.72443 0.0
Co402 Co 0.16742 0.91913 0.6725 0.0
C403 C 0.19516 0.91975 0.59858 0.0
O404 O 0.17415 0.94144 0.58473 0.0
N405 N 0.15439 0.87347 0.66954 0.0
C406 C 0.13837 0.82214 0.65182 0.0
C407 C 0.14848 0.8541 0.64178 0.0
C408 C 0.14776 0.85283 0.69602 0.0
N409 N 0.1381 0.82163 0.68589 0.0
O410 O 0.20756 0.90562 0.69688 0.0
H411 H 0.1505 0.86279 0.61592 0.0
H412 H 0.14906 0.86066 0.72229 0.0
O413 O 0.19291 0.91234 0.63006 0.0
C414 C 0.20615 0.90674 0.72917 0.0
O415 O 0.17785 0.91645 0.74395 0.0
N416 N 0.1261 0.9334 0.65063 0.0
C417 C 0.06278 0.96288 0.63718 0.0
C418 C 0.09268 0.9782 0.62579 0.0
C419 C 0.12397 0.96298 0.63252 0.0
C420 C 0.09668 0.91765 0.6606 0.0
C421 C 0.06487 0.93129 0.65308 0.0
H422 H 0.1463 0.97697 0.62545 0.0
H423 H 0.09717 0.8958 0.67692 0.0
H424 H 0.21385 0.97597 0.63485 0.0
H425 H 0.1907 0.03437 0.72094 0.0
H426 H 0.13122 0.80115 0.63554 0.0
H427 H 0.09203 1.00287 0.61372 0.0
H428 H 0.04219 0.91894 0.66264 0.0
C429 C 0.49236 0.32802 0.81925 0.0
C430 C 0.52238 0.31144 0.82622 0.0
N431 N 0.51649 0.28978 0.85186 0.0
N432 N 0.46793 0.31692 0.84059 0.0
C433 C 0.48342 0.29321 0.85985 0.0
H434 H 0.48861 0.34737 0.80022 0.0
Co435 Co 0.42325 0.33285 0.84029 0.0
C436 C 0.41983 0.3071 0.91479 0.0
O437 O 0.44574 0.32333 0.92802 0.0
N438 N 0.37798 0.34782 0.83838 0.0
C439 C 0.32503 0.36394 0.85041 0.0
C440 C 0.35554 0.35325 0.86384 0.0
C441 C 0.3606 0.35549 0.80986 0.0
N442 N 0.32851 0.3656 0.81651 0.0
O443 O 0.41014 0.29145 0.81794 0.0
H444 H 0.36094 0.34996 0.89051 0.0
H445 H 0.37133 0.35415 0.78463 0.0
O446 O 0.41219 0.31085 0.88355 0.0
C447 C 0.41389 0.29034 0.78586 0.0
O448 O 0.4254 0.31744 0.77023 0.0
N449 N 0.43787 0.37553 0.86056 0.0
C450 C 0.4696 0.43878 0.87187 0.0
C451 C 0.4829 0.40902 0.88584 0.0
C452 C 0.46652 0.37788 0.88028 0.0
C453 C 0.42407 0.40484 0.84796 0.0
C454 C 0.43888 0.43657 0.85414 0.0
H455 H 0.4792 0.35555 0.88936 0.0
H456 H 0.40288 0.40419 0.83074 0.0
H457 H 0.47132 0.27913 0.87989 0.0
H458 H 0.54672 0.31543 0.81404 0.0
H459 H 0.30217 0.37029 0.86435 0.0
H460 H 0.50683 0.40953 0.8994 0.0
H461 H 0.42788 0.45897 0.84268 0.0
C462 C 0.82338 0.0342 0.70238 0.0
C463 C 0.80215 1.00732 0.69573 0.0
N464 N 0.78671 0.01292 0.66581 0.0
N465 N 0.82073 0.05723 0.67732 0.0
C466 C 0.7986 0.0432 0.65504 0.0
H467 H 0.83933 0.03709 0.72451 0.0
Co468 Co 0.84218 0.09956 0.67946 0.0
C469 C 0.82166 0.11498 0.60539 0.0
O470 O 0.84645 0.09928 0.58959 0.0
N471 N 0.86296 0.14221 0.68319 0.0
C472 C 0.88936 0.19135 0.67375 0.0
C473 C 0.87602 0.16253 0.65886 0.0
C474 C 0.86886 0.15901 0.71252 0.0
N475 N 0.88456 0.18888 0.70743 0.0
O476 O 0.80352 0.1168 0.70345 0.0
H477 H 0.8764 0.15654 0.63214 0.0
H478 H 0.86212 0.14957 0.73733 0.0
O479 O 0.82034 0.11501 0.63773 0.0
C480 C 0.80243 0.11208 0.73535 0.0
O481 O 0.82752 0.09603 0.75027 0.0
N482 N 0.88155 0.08108 0.65783 0.0
C483 C 0.94018 0.04414 0.64195 0.0
C484 C 0.90928 0.0365 0.62619 0.0
C485 C 0.8803 0.05539 0.63434 0.0
C486 C 0.91188 0.08882 0.67293 0.0
C487 C 0.94156 0.07152 0.66453 0.0
H488 H 0.85658 0.04768 0.62313 0.0
H489 H 0.91317 0.10691 0.69347 0.0
H490 H 0.79149 0.05455 0.63119 0.0
H491 H 0.79834 0.98524 0.71159 0.0
H492 H 0.90147 0.21244 0.66101 0.0
H493 H 0.90719 0.01505 0.60907 0.0
H494 H 0.96492 0.07763 0.67774 0.0
C495 C 0.52005 0.67896 0.8186 0.0
C496 C 0.48961 0.69374 0.82705 0.0
N497 N 0.49308 0.71108 0.85657 0.0
N498 N 0.54352 0.68775 0.84167 0.0
C499 C 0.52681 0.70831 0.86356 0.0
H500 H 0.52508 0.66347 0.79647 0.0
Co501 Co 0.5887 0.67312 0.83898 0.0
C502 C 0.59757 0.69757 0.91417 0.0
O503 O 0.57601 0.6781 0.93042 0.0
N504 N 0.63437 0.65925 0.83492 0.0
C505 C 0.68679 0.64149 0.84511 0.0
C506 C 0.65545 0.64804 0.85923 0.0
C507 C 0.65343 0.65879 0.80637 0.0
N508 N 0.68639 0.65001 0.81182 0.0
O509 O 0.59997 0.71508 0.81738 0.0
H510 H 0.6482 0.64379 0.88534 0.0
H511 H 0.64257 0.66326 0.78175 0.0
O512 O 0.60122 0.69486 0.88208 0.0
C513 C 0.5973 0.71713 0.78529 0.0
O514 O 0.58603 0.69068 0.7683 0.0
N515 N 0.57601 0.63009 0.85852 0.0
C516 C 0.5459 0.56628 0.86999 0.0
C517 C 0.53435 0.59522 0.88713 0.0
C518 C 0.54985 0.62672 0.88128 0.0
C519 C 0.58805 0.60171 0.84239 0.0
C520 C 0.57411 0.56961 0.84852 0.0
H521 H 0.53841 0.64861 0.8929 0.0
H522 H 0.607 0.60382 0.82269 0.0
H523 H 0.5396 0.72168 0.88357 0.0
H524 H 0.46728 0.69286 0.81118 0.0
H525 H 0.70739 0.62957 0.85861 0.0
H526 H 0.51228 0.59385 0.90353 0.0
H527 H 0.58357 0.54791 0.83447 0.0
C528 C 0.31417 0.18267 0.03158 0.0
C529 C 0.32004 0.20155 1.00276 0.0
N530 N 0.34919 0.2188 1.00723 0.0
N531 N 0.33945 0.18812 0.05407 0.0
C532 C 0.36052 0.21025 0.03829 0.0
H533 H 0.29297 0.16569 0.03578 0.0
Co534 Co 0.34166 0.16728 0.09672 0.0
C535 C 0.41644 0.19328 0.10557 0.0
O536 O 0.43309 0.17027 0.08819 0.0
N537 N 0.34303 0.14695 0.1397 0.0
C538 C 0.3578 0.13034 0.19162 0.0
C539 C 0.36962 0.14159 0.16068 0.0
C540 C 0.31555 0.13782 0.15804 0.0
N541 N 0.32377 0.12821 0.18975 0.0
O542 O 0.31719 0.20492 0.1164 0.0
H543 H 0.39585 0.14645 0.15446 0.0
H544 H 0.28998 0.13843 0.14839 0.0
O545 O 0.38407 0.19157 0.10824 0.0
C546 C 0.28478 0.2059 0.11482 0.0
O547 O 0.2685 0.18159 0.09875 0.0
N548 N 0.36274 0.12854 0.07662 0.0
C549 C 0.37887 0.06861 0.04135 0.0
C550 C 0.3963 0.09897 0.03463 0.0
C551 C 0.38689 0.12891 0.05159 0.0
C552 C 0.34581 0.09901 0.08336 0.0
C553 C 0.35353 0.06894 0.06626 0.0
H554 H 0.39767 0.15249 0.04296 0.0
H555 H 0.32459 0.09891 0.10073 0.0
H556 H 0.38432 0.21916 0.04852 0.0
H557 H 0.30445 0.20231 0.98017 0.0
H558 H 0.37279 0.12512 0.214 0.0
H559 H 0.4155 0.09993 0.01494 0.0
H560 H 0.33889 0.04627 0.07166 0.0
C561 C 0.32132 0.83471 0.98977 0.0
C562 C 0.32972 0.8154 0.01754 0.0
N563 N 0.35211 0.79163 1.00746 0.0
N564 N 0.33807 0.82286 0.96231 0.0
C565 C 0.35679 0.79661 0.97395 0.0
H566 H 0.30439 0.85631 0.98959 0.0
Co567 Co 0.33549 0.84179 0.91914 0.0
C568 C 0.40761 0.82107 0.89586 0.0
O569 O 0.42122 0.85107 0.89094 0.0
N570 N 0.33253 0.86094 0.87569 0.0
C571 C 0.3416 0.89061 0.82851 0.0
C572 C 0.35509 0.88083 0.85913 0.0
C573 C 0.30529 0.85954 0.85484 0.0
N574 N 0.31034 0.87713 0.82601 0.0
O575 O 0.30997 0.80305 0.90299 0.0
H576 H 0.37888 0.88969 0.86937 0.0
H577 H 0.28163 0.84705 0.86116 0.0
O578 O 0.37701 0.81804 0.90625 0.0
C579 C 0.28037 0.7976 0.91507 0.0
O580 O 0.26959 0.81673 0.94019 0.0
N581 N 0.35746 0.88077 0.93577 0.0
C582 C 0.37617 0.94122 0.96808 0.0
C583 C 0.39837 0.91325 0.96754 0.0
C584 C 0.38804 0.88276 0.95205 0.0
C585 C 0.33596 0.90785 0.93575 0.0
C586 C 0.34475 0.93818 0.9517 0.0
H587 H 0.40385 0.86053 0.95444 0.0
H588 H 0.31111 0.9054 0.92428 0.0
H589 H 0.37394 0.78167 0.9585 0.0
H590 H 0.32092 0.81906 0.04332 0.0
H591 H 0.35298 0.90779 0.81035 0.0
H592 H 0.42271 0.91454 0.9803 0.0
H593 H 0.32676 0.95898 0.95186 0.0
C594 C 0.31495 0.19043 0.53656 0.0
C595 C 0.29449 0.18179 0.50975 0.0
N596 N 0.28511 0.14926 0.51368 0.0
N597 N 0.31832 0.16347 0.55746 0.0
C598 C 0.2999 0.13854 0.54263 0.0
H599 H 0.32677 0.21489 0.54051 0.0
Co600 Co 0.34199 0.16402 0.59875 0.0
C601 C 0.30835 0.11223 0.62798 0.0
O602 O 0.33933 0.10025 0.62513 0.0
N603 N 0.36496 0.16547 0.641 0.0
C604 C 0.40419 0.15602 0.6807 0.0
C605 C 0.39095 0.14506 0.6502 0.0
C606 C 0.36295 0.18858 0.66643 0.0
N607 N 0.38673 0.18369 0.69047 0.0
O608 O 0.32112 0.20837 0.60632 0.0
H609 H 0.40094 0.12467 0.63471 0.0
H610 H 0.34615 0.21009 0.6666 0.0
O611 O 0.30325 0.1431 0.61978 0.0
C612 C 0.32488 0.24027 0.61043 0.0
O613 O 0.35535 0.25379 0.61097 0.0
N614 N 0.3821 0.18029 0.57655 0.0
C615 C 0.44826 0.18115 0.54993 0.0
C616 C 0.42247 0.16276 0.53399 0.0
C617 C 0.39023 0.16158 0.54837 0.0
C618 C 0.40653 0.20033 0.5912 0.0
C619 C 0.43995 0.20064 0.57862 0.0
H620 H 0.37272 0.1432 0.53805 0.0
H621 H 0.40161 0.21353 0.61462 0.0
H622 H 0.29709 0.11324 0.55288 0.0
H623 H 0.28721 0.19793 0.48881 0.0
H624 H 0.4263 0.14595 0.69351 0.0
H625 H 0.42796 0.14703 0.51207 0.0
H626 H 0.45942 0.21472 0.59205 0.0
C627 C 0.71404 0.1991 0.99437 0.0
C628 C 0.70867 0.21861 0.02296 0.0
N629 N 0.67878 0.23477 0.01933 0.0
N630 N 0.68789 0.20339 0.97271 0.0
C631 C 0.66666 0.22495 0.98895 0.0
H632 H 0.73616 0.18369 0.98915 0.0
Co633 Co 0.68672 0.1866 0.92838 0.0
C634 C 0.61071 0.20728 0.92649 0.0
O635 O 0.59823 0.18804 0.95058 0.0
N636 N 0.6861 0.17116 0.88359 0.0
C637 C 0.66966 0.15085 0.83347 0.0
C638 C 0.65893 0.1611 0.86508 0.0
C639 C 0.71299 0.16686 0.86277 0.0
N640 N 0.70357 0.15459 0.83228 0.0
O641 O 0.70714 0.22891 0.91312 0.0
H642 H 0.63308 0.16014 0.87426 0.0
H643 H 0.73906 0.17155 0.87012 0.0
O644 O 0.64232 0.20656 0.91934 0.0
C645 C 0.73934 0.23233 0.9155 0.0
O646 O 0.75734 0.20716 0.92778 0.0
N647 N 0.66898 0.14334 0.9444 0.0
C648 C 0.65717 0.07858 0.97277 0.0
C649 C 0.64401 0.10795 0.98804 0.0
C650 C 0.64996 0.13991 0.9734 0.0
C651 C 0.68198 0.11464 0.92955 0.0
C652 C 0.67533 0.08227 0.94246 0.0
H653 H 0.64089 0.16185 0.98697 0.0
H654 H 0.69939 0.11627 0.90852 0.0
H655 H 0.64298 0.23405 0.97887 0.0
H656 H 0.72558 0.22123 0.04445 0.0
H657 H 0.6541 0.14042 0.81334 0.0
H658 H 0.63035 0.10635 0.01185 0.0
H659 H 0.68648 0.06035 0.9301 0.0
C660 C 0.67369 0.82322 0.53122 0.0
C661 C 0.69326 0.8273 0.50248 0.0
N662 N 0.71469 0.85351 0.50764 0.0
N663 N 0.68302 0.84645 0.55458 0.0
C664 C 0.70786 0.86473 0.53932 0.0
H665 H 0.6548 0.8037 0.53537 0.0
Co666 Co 0.6683 0.84746 0.59984 0.0
C667 C 0.68546 0.92083 0.61306 0.0
O668 O 0.65354 0.93045 0.61492 0.0
N669 N 0.65487 0.84667 0.64613 0.0
C670 C 0.6418 0.85701 0.70036 0.0
C671 C 0.65231 0.87112 0.67026 0.0
C672 C 0.64601 0.81784 0.6626 0.0
N673 N 0.63794 0.82357 0.69537 0.0
O674 O 0.70892 0.82357 0.61217 0.0
H675 H 0.65783 0.89759 0.66715 0.0
H676 H 0.64509 0.7931 0.6507 0.0
O677 O 0.6924 0.88989 0.60671 0.0
C678 C 0.70853 0.79151 0.60786 0.0
O679 O 0.6811 0.77707 0.59549 0.0
N680 N 0.62658 0.86927 0.58659 0.0
C681 C 0.56331 0.88283 0.55671 0.0
C682 C 0.59342 0.89532 0.54227 0.0
C683 C 0.62467 0.88928 0.55825 0.0
C684 C 0.59711 0.85887 0.60186 0.0
C685 C 0.5654 0.86682 0.58829 0.0
H686 H 0.64747 0.89875 0.54631 0.0
H687 H 0.59741 0.84215 0.62334 0.0
H688 H 0.72171 0.88515 0.55145 0.0
H689 H 0.69239 0.81177 0.4798 0.0
H690 H 0.63745 0.87016 0.72412 0.0
H691 H 0.59301 0.90822 0.51804 0.0
H692 H 0.54273 0.85713 0.60057 0.0
C693 C 0.70216 0.83435 0.01857 0.0
C694 C 0.69454 0.81527 0.99015 0.0
N695 N 0.67019 0.79281 0.99862 0.0
N696 N 0.68251 0.82401 0.04465 0.0
C697 C 0.6635 0.79841 0.03171 0.0
H698 H 0.72054 0.85473 0.0201 0.0
Co699 Co 0.68275 0.84169 0.08878 0.0
C700 C 0.60743 0.82767 0.10213 0.0
O701 O 0.59691 0.8591 0.09878 0.0
N702 N 0.68353 0.85854 0.13388 0.0
C703 C 0.67001 0.88161 0.18389 0.0
C704 C 0.65807 0.87231 0.15249 0.0
C705 C 0.71092 0.86039 0.15459 0.0
N706 N 0.70314 0.87386 0.18512 0.0
O707 O 0.70412 0.80053 0.10418 0.0
H708 H 0.63269 0.87694 0.1438 0.0
H709 H 0.73632 0.85293 0.14724 0.0
O710 O 0.63874 0.8206 0.0976 0.0
C711 C 0.73626 0.79925 0.10024 0.0
O712 O 0.75174 0.82497 0.08571 0.0
N713 N 0.6645 0.88365 0.07251 0.0
C714 C 0.65408 0.94662 0.04073 0.0
C715 C 0.63624 0.91755 0.03007 0.0
C716 C 0.64156 0.88633 0.04654 0.0
C717 C 0.68168 0.91191 0.08314 0.0
C718 C 0.67601 0.94359 0.06849 0.0
H719 H 0.62872 0.86396 0.03707 0.0
H720 H 0.70156 0.90991 0.10187 0.0
H721 H 0.64485 0.78418 0.04601 0.0
H722 H 0.7056 0.8179 0.96514 0.0
H723 H 0.65587 0.8942 0.20384 0.0
H724 H 0.61941 0.91868 0.00839 0.0
H725 H 0.69063 0.96523 0.07724 0.0
C726 C 0.33274 0.81889 0.4937 0.0
C727 C 0.31344 0.82787 0.52144 0.0
N728 N 0.29022 0.8507 0.51127 0.0
N729 N 0.3216 0.83591 0.46622 0.0
C730 C 0.29554 0.85511 0.47776 0.0
H731 H 0.35409 0.80162 0.49363 0.0
Co732 Co 0.34171 0.83342 0.42336 0.0
C733 C 0.32652 0.90212 0.39434 0.0
O734 O 0.35808 0.90815 0.38555 0.0
N735 N 0.36242 0.83021 0.37946 0.0
C736 C 0.39966 0.83278 0.33664 0.0
C737 C 0.39008 0.84669 0.36711 0.0
C738 C 0.35545 0.8068 0.35517 0.0
N739 N 0.37795 0.80757 0.32927 0.0
O740 O 0.30297 0.80836 0.40691 0.0
H741 H 0.40417 0.86628 0.38018 0.0
H742 H 0.33575 0.78783 0.35719 0.0
O743 O 0.31888 0.87503 0.41024 0.0
C744 C 0.30009 0.77791 0.41739 0.0
O745 O 0.32258 0.76633 0.43907 0.0
N746 N 0.38026 0.85529 0.44125 0.0
C747 C 0.43833 0.8732 0.478 0.0
C748 C 0.40903 0.89362 0.47922 0.0
C749 C 0.38026 0.88447 0.4601 0.0
C750 C 0.40828 0.835 0.44051 0.0
C751 C 0.43797 0.84433 0.45716 0.0
H752 H 0.35734 0.89943 0.46228 0.0
H753 H 0.40733 0.8109 0.42733 0.0
H754 H 0.2811 0.87251 0.46224 0.0
H755 H 0.31663 0.81904 0.54722 0.0
H756 H 0.422 0.83929 0.32197 0.0
H757 H 0.40799 0.91564 0.49569 0.0
H758 H 0.45982 0.82767 0.45577 0.0
C759 C 0.68086 0.20481 0.49508 0.0
C760 C 0.69981 0.19949 0.52392 0.0
N761 N 0.72485 0.17762 0.51609 0.0
N762 N 0.69393 0.18619 0.46939 0.0
C763 C 0.72095 0.17006 0.48298 0.0
H764 H 0.65853 0.22066 0.49304 0.0
Co765 Co 0.67668 0.18389 0.42526 0.0
C766 C 0.69233 0.10893 0.41448 0.0
O767 O 0.66043 0.09921 0.41641 0.0
N768 N 0.65997 0.18275 0.38039 0.0
C769 C 0.63922 0.16977 0.3293 0.0
C770 C 0.65146 0.15692 0.35929 0.0
C771 C 0.65272 0.211 0.3624 0.0
N772 N 0.63998 0.20371 0.33153 0.0
O773 O 0.71643 0.20693 0.40898 0.0
H774 H 0.65342 0.13035 0.36474 0.0
H775 H 0.65589 0.23645 0.37208 0.0
O776 O 0.69973 0.14027 0.41842 0.0
C777 C 0.7173 0.23816 0.41753 0.0
O778 O 0.69239 0.25019 0.43624 0.0
N779 N 0.6358 0.1646 0.44226 0.0
C780 C 0.57639 0.16095 0.48103 0.0
C781 C 0.60538 0.14247 0.49043 0.0
C782 C 0.63469 0.14396 0.47014 0.0
C783 C 0.60706 0.18113 0.4321 0.0
C784 C 0.57695 0.1787 0.45041 0.0
H785 H 0.65745 0.13134 0.47881 0.0
H786 H 0.60776 0.19907 0.41157 0.0
H787 H 0.7372 0.15268 0.4692 0.0
H788 H 0.69521 0.21016 0.54884 0.0
H789 H 0.63032 0.15542 0.3076 0.0
H790 H 0.60594 0.12853 0.51406 0.0
H791 H 0.55509 0.19332 0.44236 0.0
C792 C 0.15065 0.44099 0.26473 0.0
C793 C 0.1476 0.476 0.25748 0.0
C794 C 0.11101 0.46158 0.20923 0.0
C795 C 0.12004 0.42678 0.21247 0.0
N796 N 0.15602 0.3852 0.24034 0.0
N797 N 0.12914 0.51952 0.21864 0.0
C798 C 0.1417 0.41678 0.23959 0.0
C799 C 0.12872 0.48641 0.2287 0.0
N800 N 0.16188 0.43086 0.29582 0.0
N801 N 0.08499 0.47095 0.18839 0.0
H802 H 0.14337 0.53815 0.23092 0.0
H803 H 0.11821 0.52768 0.19602 0.0
H804 H 0.07012 0.45338 0.17524 0.0
H805 H 0.07571 0.4957 0.1874 0.0
H806 H 0.162 0.4055 0.30334 0.0
H807 H 0.16714 0.4481 0.31527 0.0
H808 H 0.17408 0.37821 0.25834 0.0
H809 H 0.15351 0.36748 0.22087 0.0
C810 C 0.97297 0.34593 0.27775 0.0
C811 C 0.97637 0.35901 0.24452 0.0
C812 C 0.92659 0.39538 0.25307 0.0
C813 C 0.92289 0.38198 0.28628 0.0
N814 N 0.94604 0.3506 0.33311 0.0
N815 N 0.96234 0.40106 0.20304 0.0
C816 C 0.94738 0.35926 0.29959 0.0
C817 C 0.95507 0.38551 0.2331 0.0
N818 N 0.99315 0.31957 0.28762 0.0
N819 N 0.90187 0.41587 0.23995 0.0
H820 H 0.98308 0.39396 0.18809 0.0
H821 H 0.94981 0.4226 0.19436 0.0
H822 H 0.88067 0.42362 0.25384 0.0
H823 H 0.90116 0.42355 0.21473 0.0
H824 H 0.98979 0.30624 0.31014 0.0
H825 H 0.01227 0.30967 0.27215 0.0
H826 H 0.96467 0.3364 0.34526 0.0
H827 H 0.92755 0.36017 0.34957 0.0
C828 C 0.87924 0.53043 0.23158 0.0
C829 C 0.87385 0.53747 0.2664 0.0
C830 C 0.90088 0.59308 0.2601 0.0
C831 C 0.90902 0.58491 0.22592 0.0
N832 N 0.90833 0.54511 0.17929 0.0
N833 N 0.88451 0.57196 0.31552 0.0
C834 C 0.89897 0.55328 0.21172 0.0
C835 C 0.88596 0.56792 0.28111 0.0
N836 N 0.86434 0.50249 0.21738 0.0
N837 N 0.90713 0.6249 0.2725 0.0
H838 H 0.87445 0.55348 0.33158 0.0
H839 H 0.89607 0.59196 0.32842 0.0
H840 H 0.91849 0.64394 0.2582 0.0
H841 H 0.89847 0.63338 0.296 0.0
H842 H 0.86422 0.49739 0.19148 0.0
H843 H 0.84982 0.48545 0.23148 0.0
H844 H 0.90533 0.52104 0.16878 0.0
H845 H 0.92071 0.5621 0.16319 0.0
C846 C 0.06972 0.60926 0.27635 0.0
C847 C 0.08859 0.63176 0.29729 0.0
C848 C 0.06031 0.68019 0.27005 0.0
C849 C 0.04448 0.65777 0.24688 0.0
N850 N 0.03993 0.60178 0.22307 0.0
N851 N 0.10663 0.68923 0.30949 0.0
C852 C 0.05086 0.62248 0.24863 0.0
C853 C 0.08514 0.66747 0.29299 0.0
N854 N 0.06843 0.57549 0.28386 0.0
N855 N 0.05105 0.71356 0.27049 0.0
H856 H 0.12597 0.68108 0.32558 0.0
H857 H 0.10743 0.71521 0.30471 0.0
H858 H 0.03292 0.7234 0.25391 0.0
H859 H 0.05906 0.73065 0.28905 0.0
H860 H 0.05283 0.55833 0.27109 0.0
H861 H 0.08 0.56544 0.30535 0.0
H862 H 0.04647 0.57622 0.22129 0.0
H863 H 0.02737 0.61115 0.20179 0.0
C864 C 0.14033 0.56588 0.72944 0.0
C865 C 0.15534 0.536 0.74231 0.0
C866 C 0.13564 0.5503 0.79958 0.0
C867 C 0.11739 0.57837 0.78623 0.0
N868 N 0.10022 0.6117 0.73767 0.0
N869 N 0.16516 0.49744 0.78832 0.0
C870 C 0.11944 0.58612 0.75097 0.0
C871 C 0.15231 0.52754 0.77703 0.0
N872 N 0.14612 0.57474 0.69645 0.0
N873 N 0.1386 0.54645 0.83392 0.0
H874 H 0.179 0.48107 0.77276 0.0
H875 H 0.16024 0.48764 0.81233 0.0
H876 H 0.12801 0.56337 0.85136 0.0
H877 H 0.15434 0.52853 0.84522 0.0
H878 H 0.1395 0.59813 0.68622 0.0
H879 H 0.15967 0.55935 0.67965 0.0
H880 H 0.09725 0.61581 0.71179 0.0
H881 H 0.0853 0.62786 0.75228 0.0
C882 C 0.03115 0.37587 0.72079 0.0
C883 C 0.0353 0.37974 0.7562 0.0
C884 C 0.09076 0.40683 0.74743 0.0
C885 C 0.08564 0.40537 0.71164 0.0
N886 N 0.0499 0.39046 0.66402 0.0
N887 N 0.06534 0.40322 0.80355 0.0
C888 C 0.05538 0.39061 0.69827 0.0
C889 C 0.06411 0.39646 0.76956 0.0
N890 N 1.0046 0.35689 0.70893 0.0
N891 N 0.12111 0.4176 0.7605 0.0
H892 H 0.04612 0.39576 0.82021 0.0
H893 H 0.08363 0.41866 0.81482 0.0
H894 H 0.14132 0.42606 0.74581 0.0
H895 H 0.1275 0.4156 0.78603 0.0
H896 H 1.00174 0.3497 0.68368 0.0
H897 H 0.98634 0.34634 0.72499 0.0
H898 H 0.0268 0.38398 0.65293 0.0
H899 H 0.0681 0.39826 0.64646 0.0
C900 C 0.9076 0.45841 0.7571 0.0
C901 C 0.88752 0.43341 0.77381 0.0
C902 C 0.83646 0.45658 0.74659 0.0
C903 C 0.85715 0.47894 0.72751 0.0
N904 N 0.91284 0.49476 0.70802 0.0
N905 N 0.83289 0.40625 0.78166 0.0
C906 C 0.89287 0.47797 0.73084 0.0
C907 C 0.85198 0.43147 0.76738 0.0
N908 N 0.94043 0.46439 0.76671 0.0
N909 N 0.80199 0.46068 0.74628 0.0
H910 H 0.84261 0.38867 0.79877 0.0
H911 H 0.80778 0.40138 0.77485 0.0
H912 H 0.79006 0.47957 0.73217 0.0
H913 H 0.78552 0.44758 0.76227 0.0
H914 H 0.95465 0.48477 0.75761 0.0
H915 H 0.95252 0.45141 0.78615 0.0
H916 H 0.93921 0.49237 0.70722 0.0
H917 H 0.9028 0.50796 0.68748 0.0
C918 C 0.93274 0.65314 0.77252 0.0
C919 C 0.96605 0.63982 0.77518 0.0
C920 C 0.95362 0.60138 0.72768 0.0
C921 C 0.92439 0.62109 0.7199 0.0
N922 N 0.88631 0.66696 0.73519 0.0
N923 N 0.99382 0.58571 0.77138 0.0
C924 C 0.91367 0.64701 0.74263 0.0
C925 C 0.97293 0.60934 0.75723 0.0
N926 N 0.91762 0.66742 0.8002 0.0
N927 N 0.96292 0.57507 0.70704 0.0
H928 H 1.0024 0.58822 0.79632 0.0
H929 H 0.99808 0.56177 0.76099 0.0
H930 H 0.9481 0.56677 0.68673 0.0
H931 H 0.98611 0.56254 0.70923 0.0
H932 H 0.89228 0.67512 0.80048 0.0
H933 H 0.92887 0.66627 0.82414 0.0
H934 H 0.8799 0.68826 0.74959 0.0
H935 H 0.87188 0.66419 0.7132 0.0
C936 C 0.25705 0.10298 0.43505 0.0
C937 C 0.22119 0.10203 0.44044 0.0
C938 C 0.22888 0.12779 0.4968 0.0
C939 C 0.26413 0.13039 0.49053 0.0
N940 N 0.31222 0.12353 0.45385 0.0
N941 N 0.17253 0.11993 0.47333 0.0
C942 C 0.27831 0.1187 0.4597 0.0
C943 C 0.20697 0.11593 0.47063 0.0
N944 N 0.27103 0.0881 0.40697 0.0
N945 N 0.21645 0.13697 0.52785 0.0
H946 H 0.15564 0.11327 0.45406 0.0
H947 H 0.16075 0.13289 0.49314 0.0
H948 H 0.23184 0.14702 0.54693 0.0
H949 H 0.19159 0.13233 0.53565 0.0
H950 H 0.29691 0.08352 0.40408 0.0
H951 H 0.25685 0.07893 0.38676 0.0
H952 H 0.32384 0.1199 0.43039 0.0
H953 H 0.3287 0.1329 0.47237 0.0
C954 C 0.63557 0.31344 0.05279 0.0
C955 C 0.63479 0.30645 0.0881 0.0
C956 C 0.65757 0.2497 0.07651 0.0
C957 C 0.66344 0.25883 0.04235 0.0
N958 N 0.66484 0.30277 0.99986 0.0
N959 N 0.65417 0.27048 0.13387 0.0
C960 C 0.65425 0.29166 0.0309 0.0
C961 C 0.64809 0.27515 0.10015 0.0
N962 N 0.6178 0.34023 0.03994 0.0
N963 N 0.66035 0.21663 0.0863 0.0
H964 H 0.65115 0.28979 0.15162 0.0
H965 H 0.66644 0.24909 0.14338 0.0
H966 H 0.66581 0.19712 0.06922 0.0
H967 H 0.6535 0.20831 0.11044 0.0
H968 H 0.6153 0.34453 0.01399 0.0
H969 H 0.60245 0.35579 0.05495 0.0
H970 H 0.66117 0.32758 0.99155 0.0
H971 H 0.68065 0.28848 0.98413 0.0
C972 C 0.7748 0.86954 0.49565 0.0
C973 C 0.74069 0.86569 0.48463 0.0
C974 C 0.75888 0.87794 0.42646 0.0
C975 C 0.79219 0.88594 0.4382 0.0
N976 N 0.82795 0.89888 0.4864 0.0
N977 N 0.69917 0.87628 0.44107 0.0
C978 C 0.79895 0.88475 0.47359 0.0
C979 C 0.73237 0.87311 0.45049 0.0
N980 N 0.78481 0.8569 0.52624 0.0
N981 N 0.75268 0.87247 0.3928 0.0
H982 H 0.67922 0.87468 0.45844 0.0
H983 H 0.69192 0.88443 0.417 0.0
H984 H 0.77163 0.87227 0.37438 0.0
H985 H 0.7293 0.86382 0.38381 0.0
H986 H 0.81012 0.85676 0.53403 0.0
H987 H 0.7687 0.8429 0.54187 0.0
H988 H 0.83253 0.90092 0.51237 0.0
H989 H 0.84529 0.91213 0.47138 0.0
C990 C 0.36477 0.73264 0.0249 0.0
C991 C 0.36977 0.768 0.02896 0.0
C992 C 0.40358 0.75792 0.07994 0.0
C993 C 0.40194 0.72234 0.07391 0.0
N994 N 0.38294 0.67559 0.0389 0.0
N995 N 0.40028 0.81393 0.05515 0.0
C996 C 0.38331 0.70962 0.04566 0.0
C997 C 0.39096 0.78052 0.05506 0.0
N998 N 0.34105 0.72123 1.00229 0.0
N999 N 0.41653 0.77036 0.10959 0.0
H1000 H 0.39256 0.83086 0.03638 0.0
H1001 H 0.41852 0.8239 0.07154 0.0
H1002 H 0.42612 0.75507 0.12873 0.0
H1003 H 0.41473 0.79582 0.11658 0.0
H1004 H 0.33353 0.69595 1.00039 0.0
H1005 H 0.32668 0.73758 0.9873 0.0
H1006 H 0.37326 0.66527 0.01656 0.0
H1007 H 0.39394 0.65763 0.05482 0.0
C1008 C 0.27829 0.89182 0.55702 0.0
C1009 C 0.26628 0.8684 0.53257 0.0
C1010 C 0.20754 0.87976 0.55007 0.0
C1011 C 0.21976 0.90122 0.57656 0.0
N1012 N 0.26736 0.92261 0.60904 0.0
N1013 N 0.22067 0.83573 0.50875 0.0
C1014 C 0.25534 0.90565 0.58126 0.0
C1015 C 0.23117 0.86129 0.52978 0.0
N1016 N 0.31153 0.90183 0.55609 0.0
N1017 N 0.17339 0.87679 0.54437 0.0
H1018 H 0.23753 0.82168 0.49389 0.0
H1019 H 0.19586 0.82657 0.50799 0.0
H1020 H 0.15499 0.88763 0.56002 0.0
H1021 H 0.16317 0.865 0.52302 0.0
H1022 H 0.32127 0.9215 0.57088 0.0
H1023 H 0.32868 0.89266 0.53807 0.0
H1024 H 0.293 0.92357 0.61552 0.0
H1025 H 0.25163 0.93318 0.62742 0.0
C1026 C 0.39808 0.24883 0.93071 0.0
C1027 C 0.39897 0.28447 0.93682 0.0
C1028 C 0.36321 0.27656 0.98748 0.0
C1029 C 0.3656 0.24099 0.98325 0.0
N1030 N 0.3885 0.19264 0.95416 0.0
N1031 N 0.38264 0.33269 0.97107 0.0
C1032 C 0.38379 0.22697 0.95565 0.0
C1033 C 0.38163 0.29845 0.96532 0.0
N1034 N 0.41041 0.23578 0.901 0.0
N1035 N 0.34233 0.28921 0.01215 0.0
H1036 H 0.39312 0.34986 0.95389 0.0
H1037 H 0.3742 0.34413 0.99335 0.0
H1038 H 0.3286 0.27353 0.02845 0.0
H1039 H 0.33658 0.31483 0.01503 0.0
H1040 H 0.40723 0.21056 0.89371 0.0
H1041 H 0.42117 0.25056 0.882 0.0
H1042 H 0.40473 0.18079 0.93696 0.0
H1043 H 0.37827 0.17612 0.97213 0.0
C1044 C 0.76065 0.128 0.58892 0.0
C1045 C 0.79615 0.13442 0.58512 0.0
C1046 C 0.78338 0.17339 0.53797 0.0
C1047 C 0.74903 0.16305 0.53915 0.0
N1048 N 0.70565 0.12649 0.56131 0.0
N1049 N 0.84141 0.16462 0.55644 0.0
C1050 C 0.73787 0.13929 0.56345 0.0
C1051 C 0.80755 0.15749 0.55964 0.0
N1052 N 0.7482 0.11209 0.61706 0.0
N1053 N 0.79248 0.19932 0.51685 0.0
H1054 H 0.8595 0.1572 0.57418 0.0
H1055 H 0.85184 0.17727 0.53575 0.0
H1056 H 0.77512 0.21122 0.50082 0.0
H1057 H 0.81633 0.21074 0.51681 0.0
H1058 H 0.72231 0.11002 0.62224 0.0
H1059 H 0.76305 0.10456 0.63738 0.0
H1060 H 0.69712 0.10609 0.57579 0.0
H1061 H 0.68848 0.13405 0.54267 0.0
C1062 C 0.66019 0.73388 0.97924 0.0
C1063 C 0.65326 0.76898 0.97646 0.0
C1064 C 0.61503 0.75781 0.92857 0.0
C1065 C 0.61876 0.72225 0.9338 0.0
N1066 N 0.64471 0.67604 0.96443 0.0
N1067 N 0.6206 0.81436 0.95257 0.0
C1068 C 0.64128 0.71018 0.95933 0.0
C1069 C 0.62983 0.78095 0.95211 0.0
N1070 N 0.68575 0.72349 1.0002 0.0
N1071 N 0.59783 0.76967 0.90096 0.0
H1072 H 0.63076 0.83178 0.96976 0.0
H1073 H 0.60077 0.82416 0.93814 0.0
H1074 H 0.5868 0.75396 0.88286 0.0
H1075 H 0.59734 0.79517 0.8941 0.0
H1076 H 0.69473 0.69869 1.00127 0.0
H1077 H 0.69987 0.74046 0.01489 0.0
H1078 H 0.6573 0.6656 0.98511 0.0
H1079 H 0.63381 0.65785 0.94854 0.0
C1080 C 0.454 0.27965 0.12922 0.0
C1081 C 0.48061 0.26995 0.15113 0.0
C1082 C 0.46394 0.21024 0.14532 0.0
C1083 C 0.43617 0.22001 0.12418 0.0
N1084 N 0.39983 0.26554 0.10416 0.0
N1085 N 0.50751 0.22774 0.18549 0.0
C1086 C 0.42958 0.25516 0.11865 0.0
C1087 C 0.48469 0.23567 0.16064 0.0
N1088 N 0.45282 0.31228 0.11764 0.0
N1089 N 0.47035 0.17666 0.15113 0.0
H1090 H 0.52289 0.24595 0.19713 0.0
H1091 H 0.50944 0.20385 0.19652 0.0
H1092 H 0.45381 0.15725 0.14409 0.0
H1093 H 0.49271 0.16782 0.16208 0.0
H1094 H 0.43641 0.3203 0.09857 0.0
H1095 H 0.47054 0.33063 0.1249 0.0
H1096 H 0.3926 0.29091 0.1026 0.0
H1097 H 0.38039 0.24917 0.09719 0.0
C1098 C 0.41574 0.76553 0.86544 0.0
C1099 C 0.42781 0.78993 0.88916 0.0
C1100 C 0.47584 0.75244 0.90228 0.0
C1101 C 0.46758 0.73227 0.87361 0.0
N1102 N 0.41797 0.70658 0.84891 0.0
N1103 N 0.4687 0.80569 0.93221 0.0
C1104 C 0.43402 0.73483 0.86091 0.0
C1105 C 0.45769 0.78314 0.90825 0.0
N1106 N 0.38772 0.77205 0.84609 0.0
N1107 N 0.49684 0.73958 0.92654 0.0
H1108 H 0.45496 0.82719 0.93924 0.0
H1109 H 0.49241 0.80388 0.94381 0.0
H1110 H 0.50449 0.71422 0.92599 0.0
H1111 H 0.50201 0.75179 0.94942 0.0
H1112 H 0.38015 0.75629 0.82619 0.0
H1113 H 0.37388 0.79455 0.84777 0.0
H1114 H 0.39243 0.70629 0.84191 0.0
H1115 H 0.4288 0.68253 0.85129 0.0
C1116 C 0.22488 0.07474 0.66268 0.0
C1117 C 0.23309 0.03961 0.66194 0.0
C1118 C 0.28445 0.0533 0.63053 0.0
C1119 C 0.28035 0.08846 0.63773 0.0
N1120 N 0.24788 0.13137 0.66803 0.0
N1121 N 0.27756 0.99789 0.65475 0.0
C1122 C 0.25084 0.09905 0.65586 0.0
C1123 C 0.26495 0.02953 0.64874 0.0
N1124 N 0.19228 0.085 0.6684 0.0
N1125 N 0.30558 0.04233 0.60529 0.0
H1126 H 0.2659 0.98094 0.67138 0.0
H1127 H 0.30178 0.99058 0.6468 0.0
H1128 H 0.31707 0.05884 0.5881 0.0
H1129 H 0.30745 0.01676 0.59857 0.0
H1130 H 0.18483 0.11032 0.66658 0.0
H1131 H 0.17215 0.06795 0.67073 0.0
H1132 H 0.22779 0.13889 0.68359 0.0
H1133 H 0.26707 0.14944 0.66612 0.0
C1134 C 0.56539 0.28477 0.89055 0.0
C1135 C 0.54094 0.26916 0.86939 0.0
C1136 C 0.56151 0.21293 0.8861 0.0
C1137 C 0.5875 0.22863 0.90581 0.0
N1138 N 0.61853 0.2797 0.92071 0.0
N1139 N 0.51846 0.21947 0.84234 0.0
C1140 C 0.59088 0.26462 0.90609 0.0
C1141 C 0.53973 0.23348 0.86592 0.0
N1142 N 0.56319 0.31878 0.89704 0.0
N1143 N 0.55775 0.17843 0.88646 0.0
H1144 H 0.50251 0.23414 0.82716 0.0
H1145 H 0.51844 0.19386 0.83582 0.0
H1146 H 0.5747 0.16216 0.89855 0.0
H1147 H 0.53693 0.16585 0.87608 0.0
H1148 H 0.57782 0.33117 0.91527 0.0
H1149 H 0.54444 0.33414 0.88642 0.0
H1150 H 0.62394 0.30547 0.91845 0.0
H1151 H 0.63792 0.26627 0.93244 0.0
C1152 C 0.76986 0.95545 0.64706 0.0
C1153 C 0.76277 0.99055 0.64916 0.0
C1154 C 0.7095 0.98019 0.6189 0.0
C1155 C 0.71315 0.94461 0.62386 0.0
N1156 N 0.74495 0.90027 0.65316 0.0
N1157 N 0.72094 0.03507 0.64372 0.0
C1158 C 0.74292 0.93251 0.64064 0.0
C1159 C 0.73126 1.00276 0.63679 0.0
N1160 N 0.8023 0.94395 0.65097 0.0
N1161 N 0.68621 0.99263 0.59653 0.0
H1162 H 0.73453 0.05132 0.65958 0.0
H1163 H 0.69691 0.04402 0.63715 0.0
H1164 H 0.67183 0.97703 0.58066 0.0
H1165 H 0.68457 0.01838 0.59072 0.0
H1166 H 0.80887 0.91857 0.64725 0.0
H1167 H 0.82294 0.96039 0.65371 0.0
H1168 H 0.7657 0.89195 0.66732 0.0
H1169 H 0.72451 0.88358 0.65423 0.0
C1170 C 0.5251 0.78274 0.12643 0.0
C1171 C 0.53706 0.75351 0.14347 0.0
C1172 C 0.59516 0.77451 0.13692 0.0
C1173 C 0.58356 0.80102 0.11517 0.0
N1174 N 0.53675 0.8223 0.08135 0.0
N1175 N 0.58461 0.71709 0.15564 0.0
C1176 C 0.54828 0.80268 0.10739 0.0
C1177 C 0.57249 0.74788 0.14562 0.0
N1178 N 0.49224 0.79291 0.13022 0.0
N1179 N 0.62656 0.77565 0.15165 0.0
H1180 H 0.56863 0.69651 0.16048 0.0
H1181 H 0.61043 0.71112 0.15513 0.0
H1182 H 0.64263 0.79659 0.15038 0.0
H1183 H 0.63453 0.75774 0.16937 0.0
H1184 H 0.48305 0.81549 0.11998 0.0
H1185 H 0.47582 0.78125 0.14735 0.0
H1186 H 0.51135 0.82224 0.07378 0.0
H1187 H 0.553 0.83492 0.0647 0.0
C1188 C 0.24188 0.93649 0.36166 0.0
C1189 C 0.24971 0.97137 0.35808 0.0
C1190 C 0.30478 0.96141 0.38509 0.0
C1191 C 0.29926 0.92584 0.38335 0.0
N1192 N 0.26467 0.87973 0.36126 0.0
N1193 N 0.29256 0.01531 0.35889 0.0
C1194 C 0.26832 0.91328 0.36934 0.0
C1195 C 0.28229 0.98344 0.36774 0.0
N1196 N 0.20909 0.92558 0.35868 0.0
N1197 N 0.33071 0.97438 0.40416 0.0
H1198 H 0.27788 0.03136 0.34395 0.0
H1199 H 0.3172 0.02414 0.36301 0.0
H1200 H 0.34652 0.95926 0.419 0.0
H1201 H 0.33382 1.00034 0.40835 0.0
H1202 H 0.20172 0.90073 0.36398 0.0
H1203 H 0.18887 0.94219 0.35475 0.0
H1204 H 0.24347 0.8703 0.34847 0.0
H1205 H 0.28424 0.86209 0.36331 0.0
C1206 C 0.77342 0.07009 0.37628 0.0
C1207 C 0.76561 0.035 0.37724 0.0
C1208 C 0.71547 0.04889 0.41152 0.0
C1209 C 0.71906 0.08395 0.40348 0.0
N1210 N 0.74915 0.12542 0.36872 0.0
N1211 N 0.72362 0.99198 0.39022 0.0
C1212 C 0.74754 0.0941 0.38343 0.0
C1213 C 0.73514 0.0245 0.39348 0.0
N1214 N 0.80561 0.08059 0.36884 0.0
N1215 N 0.69425 0.03871 0.43696 0.0
H1216 H 0.73535 0.97405 0.3747 0.0
H1217 H 0.7001 0.98422 0.39965 0.0
H1218 H 0.68175 0.0558 0.45289 0.0
H1219 H 0.69281 0.01354 0.44495 0.0
H1220 H 0.81293 0.10601 0.37017 0.0
H1221 H 0.82565 0.06355 0.36565 0.0
H1222 H 0.76872 0.13229 0.35223 0.0
H1223 H 0.72909 0.14258 0.36858 0.0
C1224 C 0.99414 0.31131 0.99586 0.0
C1225 C 0.98357 0.34059 0.97785 0.0
C1226 C 0.00934 0.3765 0.0219 0.0
C1227 C 0.0174 0.34727 0.04122 0.0
N1228 N 1.00531 0.28792 0.0513 0.0
N1229 N 0.97056 0.40051 0.98102 0.0
C1230 C 1.00585 0.31497 0.02973 0.0
C1231 C 0.98773 0.37306 0.99325 0.0
N1232 N 0.995 0.28027 0.98038 0.0
N1233 N 0.02362 0.40722 0.0294 0.0
H1234 H 0.95295 0.39859 0.96133 0.0
H1235 H 0.97085 0.4241 0.99308 0.0
H1236 H 0.04127 0.41064 0.0488 0.0
H1237 H 0.02065 0.42843 0.01394 0.0
H1238 H 1.0055 0.25894 0.99191 0.0
H1239 H 0.98874 0.27655 0.95497 0.0
H1240 H 0.99466 0.26458 0.04467 0.0
H1241 H 0.01167 0.29006 0.07691 0.0
C1242 C 0.88514 0.47972 0.50052 0.0
C1243 C 0.88932 0.49861 0.47027 0.0
C1244 C 0.89745 0.55035 0.5041 0.0
C1245 C 0.88671 0.53258 0.53351 0.0
N1246 N 0.86693 0.48042 0.55912 0.0
N1247 N 0.89817 0.55242 0.44261 0.0
C1248 C 0.88018 0.49712 0.53176 0.0
C1249 C 0.8957 0.53404 0.47185 0.0
N1250 N 0.88561 0.44507 0.49919 0.0
N1251 N 0.90939 0.58279 0.50714 0.0
H1252 H 0.89756 0.54132 0.41858 0.0
H1253 H 0.8987 0.57884 0.44209 0.0
H1254 H 0.91114 0.59521 0.5305 0.0
H1255 H 0.92047 0.59611 0.4872 0.0
H1256 H 0.88584 0.4298 0.52072 0.0
H1257 H 0.88929 0.43173 0.47656 0.0
H1258 H 0.85804 0.45554 0.55796 0.0
H1259 H 0.86205 0.49211 0.58235 0.0
C1260 C 0.0206 0.61206 0.989 0.0
C1261 C 0.02643 0.64324 0.97184 0.0
C1262 C 1.0039 0.67401 0.02087 0.0
C1263 C 0.99333 0.64304 0.03589 0.0
N1264 N 0.98661 0.58231 0.03083 0.0
N1265 N 0.01367 0.7032 0.96817 0.0
C1266 C 1.00028 0.61187 0.01902 0.0
C1267 C 0.01513 0.67404 0.9868 0.0
N1268 N 0.03535 0.58287 0.97744 0.0
N1269 N 1.00448 0.70336 0.03943 0.0
H1270 H 0.01942 0.70403 0.94235 0.0
H1271 H 1.00283 0.72552 0.97744 0.0
H1272 H 0.9986 0.7042 0.06523 0.0
H1273 H 0.01474 0.72591 0.03014 0.0
H1274 H 0.03455 0.56012 0.99084 0.0
H1275 H 0.05112 0.58216 0.95618 0.0
H1276 H 0.98818 0.55943 0.0176 0.0
H1277 H 0.97099 0.58128 0.05219 0.0
C1278 C 0.12508 0.51166 0.52405 0.0
C1279 C 0.13931 0.47881 0.52778 0.0
C1280 C 0.14513 0.4742 0.46589 0.0
C1281 C 0.13639 0.50896 0.46279 0.0
N1282 N 0.11887 0.5616 0.48867 0.0
N1283 N 0.16435 0.42885 0.50265 0.0
C1284 C 0.12603 0.52781 0.49175 0.0
C1285 C 0.14925 0.45983 0.49874 0.0
N1286 N 0.11056 0.52726 0.55147 0.0
N1287 N 0.14947 0.45504 0.43726 0.0
H1288 H 0.16735 0.41722 0.52619 0.0
H1289 H 0.17589 0.41557 0.4829 0.0
H1290 H 0.14658 0.46502 0.41293 0.0
H1291 H 0.15278 0.42883 0.43752 0.0
H1292 H 0.09688 0.5498 0.54995 0.0
H1293 H 0.1096 0.51601 0.57539 0.0
H1294 H 0.11524 0.57777 0.50929 0.0
H1295 H 0.11846 0.57406 0.46537 0.0
C1296 C 0.99199 0.99331 0.40877 0.0
C1297 C 0.96913 0.99626 0.38103 0.0
C1298 C 0.01246 0.02711 0.34912 0.0
C1299 C 0.03419 0.0276 0.37789 0.0
N1300 N 0.04004 0.0183 0.43819 0.0
N1301 N 0.95423 0.02689 0.3302 0.0
C1302 C 0.02257 0.01289 0.40876 0.0
C1303 C 0.97825 0.01695 0.35309 0.0
N1304 N 0.98556 0.97084 0.43428 0.0
N1305 N 0.02478 0.03401 0.31745 0.0
H1306 H 0.9285 0.02108 0.33311 0.0
H1307 H 0.95945 0.04403 0.31075 0.0
H1308 H 0.05047 0.03821 0.31251 0.0
H1309 H 0.01012 0.03119 0.2956 0.0
H1310 H 1.00315 0.96538 0.45323 0.0
H1311 H 0.96397 0.95551 0.43487 0.0
H1312 H 0.03099 0.01058 0.4618 0.0
H1313 H 0.06166 0.03359 0.43942 0.0
C1314 C 0.5361 0.50276 0.11266 0.0
C1315 C 0.51934 0.47461 0.12763 0.0
C1316 C 0.46857 0.50927 0.13785 0.0
C1317 C 0.48571 0.53775 0.1239 0.0
N1318 N 0.53185 0.56033 0.09091 0.0
N1319 N 0.46751 0.44826 0.1466 0.0
C1320 C 0.51822 0.53395 0.10882 0.0
C1321 C 0.48475 0.47697 0.13749 0.0
N1322 N 0.56953 0.50002 0.10358 0.0
N1323 N 0.43767 0.51352 0.1532 0.0
H1324 H 0.47884 0.42433 0.14696 0.0
H1325 H 0.44142 0.44755 0.15096 0.0
H1326 H 0.42456 0.53651 0.15308 0.0
H1327 H 0.42577 0.49489 0.16764 0.0
H1328 H 0.58451 0.5205 0.09623 0.0
H1329 H 0.5829 0.47721 0.10495 0.0
H1330 H 0.55414 0.55858 0.07679 0.0
H1331 H 0.51916 0.58337 0.08784 0.0
C1332 C 0.01456 0.99011 0.66883 0.0
C1333 C 0.03027 0.98219 0.63734 0.0
C1334 C 0.98722 0.01616 0.60789 0.0
C1335 C 0.96983 0.02089 0.63913 0.0
N1336 N 0.96179 1.00296 0.69718 0.0
N1337 N 0.02761 0.98203 0.57618 0.0
C1338 C 0.98186 1.00483 0.66892 0.0
C1339 C 0.01539 0.9935 0.60656 0.0
N1340 N 0.0315 0.9855 0.69872 0.0
N1341 N 0.97781 0.03421 0.57991 0.0
H1342 H 0.04779 0.96496 0.57437 0.0
H1343 H 0.01575 0.98693 0.5531 0.0
H1344 H 0.95762 0.05134 0.58006 0.0
H1345 H 0.99179 0.03433 0.55746 0.0
H1346 H 0.02204 0.99395 0.72196 0.0
H1347 H 0.05654 0.97698 0.70003 0.0
H1348 H 0.96847 0.98884 0.71848 0.0
H1349 H 0.93695 0.01218 0.69787 0.0
C1350 C 0.52088 0.51625 0.90235 0.0
C1351 C 0.52624 0.53363 0.87121 0.0
C1352 C 0.49912 0.48642 0.84086 0.0
C1353 C 0.48959 0.47126 0.87212 0.0
N1354 N 0.48636 0.47559 0.93314 0.0
N1355 N 0.51135 0.53892 0.81194 0.0
C1356 C 0.49907 0.48725 0.90309 0.0
C1357 C 0.51269 0.51979 0.84077 0.0
N1358 N 0.53748 0.52663 0.93097 0.0
N1359 N 0.49663 0.46855 0.8112 0.0
H1360 H 0.51912 0.56421 0.81107 0.0
H1361 H 0.49884 0.53087 0.79004 0.0
H1362 H 0.48872 0.4433 0.81015 0.0
H1363 H 0.5062 0.47757 0.78825 0.0
H1364 H 0.53711 0.51293 0.95354 0.0
H1365 H 0.55426 0.54713 0.93124 0.0
H1366 H 0.48975 0.48828 0.95611 0.0
H1367 H 0.46969 0.45505 0.93464 0.0
C1368 C 0.3932 1.00632 0.03867 0.0
C1369 C 0.38496 0.03677 0.02133 0.0
C1370 C 0.3834 1.0046 0.96795 0.0
C1371 C 0.38436 0.97365 0.98627 0.0
N1372 N 0.38559 0.94547 0.04074 0.0
N1373 N 0.36669 0.06353 0.96919 0.0
C1374 C 0.38847 0.97451 0.0221 0.0
C1375 C 0.37898 0.03571 0.98576 0.0
N1376 N 0.40563 1.00779 0.07097 0.0
N1377 N 0.38659 1.00422 0.93345 0.0
H1378 H 0.36115 0.08641 0.98126 0.0
H1379 H 0.35866 0.06277 0.94402 0.0
H1380 H 0.39053 0.98186 0.91974 0.0
H1381 H 0.38901 0.02626 0.91906 0.0
H1382 H 0.41487 0.98659 0.08373 0.0
H1383 H 0.41007 0.03073 0.08352 0.0
H1384 H 0.38476 0.94546 0.06716 0.0
H1385 H 0.3808 0.92173 0.03007 0.0
C1386 C 0.5035 0.20467 0.52634 0.0
C1387 C 0.48405 0.1767 0.53798 0.0
C1388 C 0.52656 0.13745 0.5146 0.0
C1389 C 0.54668 0.16545 0.50425 0.0
N1390 N 0.55958 0.225 0.51142 0.0
N1391 N 0.48343 0.11744 0.55352 0.0
C1392 C 0.53686 0.19887 0.51383 0.0
C1393 C 0.49772 0.14336 0.5355 0.0
N1394 N 0.4897 0.23644 0.52527 0.0
N1395 N 0.53365 0.1055 0.5031 0.0
H1396 H 0.46315 0.12117 0.57021 0.0
H1397 H 0.49411 0.09328 0.55478 0.0
H1398 H 0.55388 0.10012 0.48687 0.0
H1399 H 0.51754 0.0849 0.5072 0.0
H1400 H 0.50183 0.25689 0.51368 0.0
H1401 H 0.46494 0.24176 0.53301 0.0
H1402 H 0.55457 0.24928 0.52072 0.0
H1403 H 0.58471 0.22141 0.50371 0.0
C1404 C 0.68589 0.02696 0.99762 0.0
C1405 C 0.65534 0.04456 0.98998 0.0
C1406 C 0.62297 0.99847 0.01733 0.0
C1407 C 0.65336 0.97933 0.02115 0.0
N1408 N 0.71219 0.97217 1.00503 0.0
N1409 N 0.59408 0.04323 0.98656 0.0
C1410 C 0.68433 0.99261 0.0082 0.0
C1411 C 0.6236 0.02921 0.9981 0.0
N1412 N 0.71647 0.0434 0.99644 0.0
N1413 N 0.59383 0.98817 0.0331 0.0
H1414 H 0.59355 0.06509 0.97173 0.0
H1415 H 0.57053 0.03135 0.98892 0.0
H1416 H 0.59248 0.9663 0.04785 0.0
H1417 H 0.5719 1.00296 0.03403 0.0
H1418 H 0.73901 0.03235 1.00479 0.0
H1419 H 0.71878 0.06919 0.99103 0.0
H1420 H 0.73444 0.97998 0.99295 0.0
H1421 H 0.71171 0.94635 0.01085 0.0
C1422 C 0.48764 0.90904 0.5008 0.0
C1423 C 0.4681 0.87864 0.50109 0.0
C1424 C 0.5128 0.85086 0.53364 0.0
C1425 C 0.53049 0.88211 0.53732 0.0
N1426 N 0.52949 0.94307 0.53065 0.0
N1427 N 0.45752 0.82503 0.52888 0.0
C1428 C 0.51635 0.91196 0.52279 0.0
C1429 C 0.47916 0.85104 0.52125 0.0
N1430 N 0.47998 0.93447 0.47866 0.0
N1431 N 0.52856 0.82063 0.53985 0.0
H1432 H 0.43196 0.82514 0.52181 0.0
H1433 H 0.46408 0.80559 0.54554 0.0
H1434 H 0.55435 0.81875 0.54558 0.0
H1435 H 0.517 0.7973 0.53491 0.0
H1436 H 0.49549 0.95567 0.47531 0.0
H1437 H 0.45996 0.93293 0.46144 0.0
H1438 H 0.5182 0.96571 0.523 0.0
H1439 H 0.54947 0.94629 0.54772 0.0
C1440 C 0.12132 0.26492 0.28026 0.0
C1441 C 0.10886 0.25342 0.24835 0.0
C1442 C 0.11367 0.19499 0.26792 0.0
C1443 C 0.13066 0.20583 0.29766 0.0
N1444 N 0.15869 0.25176 0.32719 0.0
N1445 N 0.10749 0.20639 0.20851 0.0
C1446 C 0.1369 0.24106 0.3025 0.0
C1447 C 0.10941 0.21811 0.24108 0.0
N1448 N 0.11723 0.29788 0.2902 0.0
N1449 N 0.10012 0.16319 0.26564 0.0
H1450 H 0.10837 0.22246 0.18753 0.0
H1451 H 0.10993 0.1807 0.2025 0.0
H1452 H 0.09934 0.14662 0.28618 0.0
H1453 H 0.08571 0.15534 0.24484 0.0
H1454 H 0.12345 0.30635 0.31449 0.0
H1455 H 0.10441 0.31585 0.27574 0.0
H1456 H 0.16612 0.27704 0.3298 0.0
H1457 H 0.1723 0.23496 0.34236 0.0
C1458 C 0.76902 0.41072 0.2406 0.0
C1459 C 0.76383 0.39847 0.27418 0.0
C1460 C 0.72168 0.35853 0.25245 0.0
C1461 C 0.7202 0.37674 0.22177 0.0
N1462 N 0.75569 0.40409 0.18067 0.0
N1463 N 0.73207 0.36182 0.3123 0.0
C1464 C 0.74796 0.39826 0.21388 0.0
C1465 C 0.73929 0.37269 0.28025 0.0
N1466 N 0.79229 0.43578 0.23466 0.0
N1467 N 0.71127 0.32564 0.25338 0.0
H1468 H 0.74316 0.37212 0.33393 0.0
H1469 H 0.71242 0.34475 0.31732 0.0
H1470 H 0.70641 0.31259 0.23086 0.0
H1471 H 0.71382 0.3103 0.27476 0.0
H1472 H 0.79458 0.44835 0.21158 0.0
H1473 H 0.80785 0.4458 0.25358 0.0
H1474 H 0.77717 0.41726 0.17263 0.0
H1475 H 0.74252 0.3919 0.16113 0.0
C1476 C 0.89248 0.77094 0.30013 0.0
C1477 C 0.88914 0.80571 0.29167 0.0
C1478 C 0.9019 0.79197 0.23256 0.0
C1479 C 0.91081 0.75828 0.24192 0.0
N1480 N 0.92082 0.71805 0.28711 0.0
N1481 N 0.90002 0.85027 0.25116 0.0
C1482 C 0.9076 0.7482 0.2764 0.0
C1483 C 0.89635 0.81656 0.25822 0.0
N1484 N 0.88081 0.75964 0.33068 0.0
N1485 N 0.89758 0.80048 0.19927 0.0
H1486 H 0.89903 0.86909 0.26974 0.0
H1487 H 0.90824 0.85908 0.22762 0.0
H1488 H 0.89938 0.78298 0.17951 0.0
H1489 H 0.8882 0.82402 0.19175 0.0
H1490 H 0.87983 0.734 0.33705 0.0
H1491 H 0.86895 0.77568 0.34815 0.0
H1492 H 0.92166 0.71102 0.31255 0.0
H1493 H 0.93439 0.70181 0.27123 0.0
C1494 C 0.30178 0.65233 0.24361 0.0
C1495 C 0.30725 0.62816 0.2176 0.0
C1496 C 0.25968 0.59447 0.23954 0.0
C1497 C 0.2586 0.61537 0.269 0.0
N1498 N 0.28289 0.66193 0.30103 0.0
N1499 N 0.29392 0.57421 0.19239 0.0
C1500 C 0.28089 0.64368 0.27163 0.0
C1501 C 0.2867 0.59872 0.21585 0.0
N1502 N 0.31536 0.68409 0.2408 0.0
N1503 N 0.23501 0.57068 0.23406 0.0
H1504 H 0.31395 0.57646 0.17519 0.0
H1505 H 0.28209 0.55055 0.192 0.0
H1506 H 0.21441 0.56746 0.25028 0.0
H1507 H 0.23304 0.55671 0.21167 0.0
H1508 H 0.30955 0.70378 0.25753 0.0
H1509 H 0.32959 0.69165 0.2198 0.0
H1510 H 0.30113 0.6807 0.30518 0.0
H1511 H 0.26833 0.65635 0.32229 0.0
C1512 C 0.14296 0.74819 0.74618 0.0
C1513 C 0.10839 0.746 0.75657 0.0
C1514 C 0.09311 0.79169 0.71735 0.0
C1515 C 0.12756 0.79426 0.7075 0.0
N1516 N 0.18418 0.772 0.70673 0.0
N1517 N 0.04952 0.75895 0.74611 0.0
C1518 C 0.15212 0.77137 0.72005 0.0
C1519 C 0.08311 0.76574 0.74025 0.0
N1520 N 0.16721 0.72947 0.76237 0.0
N1521 N 0.07027 0.81491 0.70556 0.0
H1522 H 0.04149 0.73939 0.76203 0.0
H1523 H 0.02971 0.77036 0.73292 0.0
H1524 H 0.07684 0.83351 0.68794 0.0
H1525 H 0.0455 0.81708 0.7146 0.0
H1526 H 0.19321 0.73306 0.75917 0.0
H1527 H 0.16143 0.71097 0.78026 0.0
H1528 H 0.20281 0.75413 0.71222 0.0
H1529 H 0.19141 0.7893 0.68806 0.0
C1530 C 0.29081 0.40926 0.79126 0.0
C1531 C 0.30322 0.37549 0.79199 0.0
C1532 C 0.27299 0.36281 0.73925 0.0
C1533 C 0.25878 0.39589 0.7395 0.0
N1534 N 0.24915 0.44869 0.76889 0.0
N1535 N 0.2993 0.31808 0.77198 0.0
C1536 C 0.26595 0.41845 0.7667 0.0
C1537 C 0.2922 0.35165 0.76751 0.0
N1538 N 0.30431 0.43297 0.8127 0.0
N1539 N 0.26929 0.34241 0.7115 0.0
H1540 H 0.31189 0.3093 0.79346 0.0
H1541 H 0.28956 0.29889 0.75654 0.0
H1542 H 0.25463 0.34931 0.69075 0.0
H1543 H 0.28281 0.31992 0.70815 0.0
H1544 H 0.29886 0.45878 0.81119 0.0
H1545 H 0.32333 0.42727 0.83014 0.0
H1546 H 0.25078 0.46483 0.7898 0.0
H1547 H 0.23123 0.45622 0.751 0.0
C1548 C 0.87716 0.26189 0.76868 0.0
C1549 C 0.90863 0.25914 0.78652 0.0
C1550 C 0.924 0.20981 0.75127 0.0
C1551 C 0.89333 0.21337 0.7331 0.0
N1552 N 0.84293 0.2448 0.7202 0.0
N1553 N 0.96561 0.23611 0.788 0.0
C1554 C 0.87064 0.24012 0.74052 0.0
C1555 C 0.93305 0.23456 0.77599 0.0
N1556 N 0.85282 0.28423 0.77927 0.0
N1557 N 0.94432 0.18243 0.74497 0.0
H1558 H 0.97404 0.25493 0.80457 0.0
H1559 H 0.9853 0.22106 0.77876 0.0
H1560 H 0.93901 0.1648 0.72588 0.0
H1561 H 0.96502 0.17594 0.76004 0.0
H1562 H 0.82781 0.28383 0.77071 0.0
H1563 H 0.85682 0.30236 0.79791 0.0
H1564 H 0.82728 0.26605 0.72139 0.0
H1565 H 0.83685 0.22835 0.70033 0.0
C1566 C 0.70789 0.65474 0.75192 0.0
C1567 C 0.71339 0.64594 0.78633 0.0
C1568 C 0.76444 0.61441 0.76923 0.0
C1569 C 0.75448 0.61712 0.73472 0.0
N1570 N 0.71597 0.6405 0.69292 0.0
N1571 N 0.76048 0.64017 0.82472 0.0
C1572 C 0.72599 0.63746 0.72594 0.0
C1573 C 0.74558 0.632 0.7946 0.0
N1574 N 0.68963 0.68312 0.74443 0.0
N1575 N 0.79113 0.59416 0.77809 0.0
H1576 H 0.75051 0.65915 0.84033 0.0
H1577 H 0.78508 0.63289 0.83118 0.0
H1578 H 0.80549 0.58063 0.7604 0.0
H1579 H 0.79704 0.5886 0.80324 0.0
H1580 H 0.68719 0.69284 0.71999 0.0
H1581 H 0.68177 0.69978 0.76341 0.0
H1582 H 0.69309 0.65184 0.68598 0.0
H1583 H 0.72916 0.62988 0.6726 0.0
C1584 C 0.25784 0.14131 0.25792 0.0
C1585 C 0.25158 0.10718 0.26755 0.0
C1586 C 0.29479 0.08729 0.22717 0.0
C1587 C 0.30057 0.12122 0.21713 0.0
N1588 N 0.29271 0.181 0.22584 0.0
N1589 N 0.26892 0.04867 0.26758 0.0
C1590 C 0.28359 0.14842 0.23348 0.0
C1591 C 0.27168 0.08045 0.25409 0.0
N1592 N 0.23854 0.16672 0.27154 0.0
N1593 N 0.31041 0.06162 0.20981 0.0
H1594 H 0.25263 0.04333 0.28773 0.0
H1595 H 0.28473 0.0285 0.26115 0.0
H1596 H 0.32754 0.06612 0.1901 0.0
H1597 H 0.30487 0.03603 0.21326 0.0
H1598 H 0.23844 0.19158 0.26274 0.0
H1599 H 0.22188 0.16261 0.29165 0.0
H1600 H 0.28346 0.20233 0.2384 0.0
H1601 H 0.31145 0.1867 0.20799 0.0
C1602 C 0.59621 0.24053 0.30637 0.0
C1603 C 0.62954 0.22723 0.3058 0.0
C1604 C 0.64234 0.25884 0.25394 0.0
C1605 C 0.61005 0.27508 0.25626 0.0
N1606 N 0.55264 0.27317 0.27758 0.0
N1607 N 0.68549 0.22499 0.28195 0.0
C1608 C 0.58592 0.26361 0.28061 0.0
C1609 C 0.65275 0.23642 0.28012 0.0
N1610 N 0.57489 0.23168 0.33226 0.0
N1611 N 0.66264 0.26357 0.2263 0.0
H1612 H 0.69362 0.2081 0.3006 0.0
H1613 H 0.70516 0.23414 0.26685 0.0
H1614 H 0.65697 0.28017 0.20686 0.0
H1615 H 0.68411 0.249 0.22117 0.0
H1616 H 0.55145 0.24302 0.33675 0.0
H1617 H 0.58162 0.21393 0.35067 0.0
H1618 H 0.53305 0.26388 0.29266 0.0
H1619 H 0.54387 0.28799 0.25751 0.0
C1620 C 0.75641 0.86716 0.2643 0.0
C1621 C 0.77012 0.9006 0.26584 0.0
C1622 C 0.73999 0.91551 0.21344 0.0
C1623 C 0.72608 0.88253 0.21214 0.0
N1624 N 0.71537 0.82877 0.23833 0.0
N1625 N 0.76674 0.95889 0.24766 0.0
C1626 C 0.73258 0.85889 0.23828 0.0
C1627 C 0.75947 0.92544 0.24202 0.0
N1628 N 0.76697 0.84301 0.28671 0.0
N1629 N 0.73498 0.93713 0.18688 0.0
H1630 H 0.77918 0.9672 0.26943 0.0
H1631 H 0.75715 0.97861 0.23299 0.0
H1632 H 0.72015 0.93071 0.16589 0.0
H1633 H 0.74755 0.96026 0.18438 0.0
H1634 H 0.7615 0.81728 0.2841 0.0
H1635 H 0.78238 0.84833 0.30748 0.0
H1636 H 0.71603 0.81155 0.25827 0.0
H1637 H 0.69844 0.82204 0.21907 0.0
C1638 C 0.39735 0.7697 0.24376 0.0
C1639 C 0.39653 0.7343 0.25128 0.0
C1640 C 0.38587 0.74802 0.31091 0.0
C1641 C 0.38235 0.78271 0.30272 0.0
N1642 N 0.37661 0.82546 0.25973 0.0
N1643 N 0.37782 0.69097 0.29095 0.0
C1644 C 0.38531 0.79316 0.26852 0.0
C1645 C 0.38681 0.72381 0.28446 0.0
N1646 N 0.4118 0.78148 0.21453 0.0
N1647 N 0.39076 0.73813 0.34368 0.0
H1648 H 0.37558 0.67262 0.27204 0.0
H1649 H 0.36826 0.68327 0.31439 0.0
H1650 H 0.39354 0.75533 0.36361 0.0
H1651 H 0.39624 0.71311 0.35027 0.0
H1652 H 0.41543 0.80726 0.20984 0.0
H1653 H 0.42386 0.76608 0.19678 0.0
H1654 H 0.37552 0.83359 0.23461 0.0
H1655 H 0.36709 0.84285 0.27734 0.0
C1656 C 0.27044 0.91714 0.79956 0.0
C1657 C 0.28547 0.8846 0.80041 0.0
C1658 C 0.25007 0.86634 0.75249 0.0
C1659 C 0.2363 0.89961 0.75059 0.0
N1660 N 0.23965 0.9586 0.76666 0.0
N1661 N 0.29423 0.82977 0.77534 0.0
C1662 C 0.24839 0.9256 0.77248 0.0
C1663 C 0.27665 0.85963 0.77608 0.0
N1664 N 0.27624 0.93947 0.82549 0.0
N1665 N 0.23683 0.84092 0.7329 0.0
H1666 H 0.31351 0.82432 0.79267 0.0
H1667 H 0.29153 0.81162 0.7563 0.0
H1668 H 0.21802 0.84507 0.71479 0.0
H1669 H 0.24301 0.81543 0.73588 0.0
H1670 H 0.26322 0.96231 0.82822 0.0
H1671 H 0.29183 0.93373 0.84608 0.0
H1672 H 0.2502 0.97905 0.77973 0.0
H1673 H 0.22461 0.96577 0.7462 0.0
C1674 C 0.3773 0.24036 0.76709 0.0
C1675 C 0.40858 0.25851 0.76597 0.0
C1676 C 0.42584 0.22611 0.71566 0.0
C1677 C 0.39523 0.20725 0.71726 0.0
N1678 N 0.34508 0.19116 0.74789 0.0
N1679 N 0.46667 0.2602 0.74638 0.0
C1680 C 0.37199 0.21274 0.74418 0.0
C1681 C 0.43413 0.24868 0.74248 0.0
N1682 N 0.35208 0.25033 0.78874 0.0
N1683 N 0.44611 0.22403 0.68758 0.0
H1684 H 0.47405 0.27541 0.7668 0.0
H1685 H 0.48695 0.25146 0.73177 0.0
H1686 H 0.44029 0.20882 0.66673 0.0
H1687 H 0.46688 0.23996 0.68358 0.0
H1688 H 0.32742 0.24078 0.78779 0.0
H1689 H 0.35506 0.26971 0.80647 0.0
H1690 H 0.32881 0.19153 0.76873 0.0
H1691 H 0.34087 0.17083 0.73138 0.0
C1692 C 0.75585 0.09837 0.77587 0.0
C1693 C 0.77297 0.12305 0.75599 0.0
C1694 C 0.73882 0.16788 0.78249 0.0
C1695 C 0.72572 0.14374 0.80549 0.0
N1696 N 0.72332 0.08673 0.82675 0.0
N1697 N 0.78229 0.18186 0.74127 0.0
C1698 C 0.73451 0.1091 0.80279 0.0
C1699 C 0.7646 0.15801 0.75917 0.0
N1700 N 0.75921 0.06469 0.76824 0.0
N1701 N 0.72609 0.2001 0.78283 0.0
H1702 H 0.80061 0.17572 0.7232 0.0
H1703 H 0.78023 0.20784 0.74565 0.0
H1704 H 0.70717 0.20765 0.79983 0.0
H1705 H 0.73211 0.21835 0.76475 0.0
H1706 H 0.74499 0.04564 0.77978 0.0
H1707 H 0.77366 0.0561 0.74779 0.0
H1708 H 0.73188 0.0618 0.82845 0.0
H1709 H 0.70731 0.09388 0.84663 0.0
C1710 C 0.63934 0.76311 0.7692 0.0
C1711 C 0.60624 0.74867 0.76651 0.0
C1712 C 0.5927 0.78816 0.72016 0.0
C1713 C 0.6269 0.79913 0.7201 0.0
N1714 N 0.68334 0.7974 0.7428 0.0
N1715 N 0.54982 0.74984 0.74259 0.0
C1716 C 0.65023 0.78702 0.74446 0.0
C1717 C 0.5824 0.76203 0.74289 0.0
N1718 N 0.66038 0.75429 0.79531 0.0
N1719 N 0.57008 0.80361 0.69893 0.0
H1720 H 0.5403 0.73387 0.76142 0.0
H1721 H 0.53208 0.75521 0.72384 0.0
H1722 H 0.57725 0.82287 0.68228 0.0
H1723 H 0.54405 0.79904 0.69884 0.0
H1724 H 0.68288 0.76702 0.80092 0.0
H1725 H 0.65482 0.73552 0.81294 0.0
H1726 H 0.70295 0.7865 0.75671 0.0
H1727 H 0.69169 0.81568 0.72563 0.0
C1728 C 0.23972 0.22641 0.15588 0.0
C1729 C 0.26514 0.23387 0.13111 0.0
C1730 C 0.25084 0.29427 0.13636 0.0
C1731 C 0.2209 0.28537 0.15425 0.0
N1732 N 0.20498 0.24973 0.20087 0.0
N1733 N 0.29509 0.27604 0.09787 0.0
C1734 C 0.22023 0.25325 0.16999 0.0
C1735 C 0.2713 0.26824 0.1219 0.0
N1736 N 0.23363 0.19381 0.16576 0.0
N1737 N 0.2617 0.32714 0.13668 0.0
H1738 H 0.31036 0.25792 0.08609 0.0
H1739 H 0.29771 0.30028 0.08768 0.0
H1740 H 0.24963 0.34548 0.15157 0.0
H1741 H 0.28491 0.33489 0.12657 0.0
H1742 H 0.21283 0.18697 0.18066 0.0
H1743 H 0.24807 0.17337 0.15755 0.0
H1744 H 0.20589 0.22748 0.21507 0.0
H1745 H 0.19625 0.2708 0.21442 0.0
C1746 C 0.26728 0.74007 0.88793 0.0
C1747 C 0.25645 0.7726 0.8994 0.0
C1748 C 0.19731 0.75461 0.89279 0.0
C1749 C 0.20787 0.72392 0.87728 0.0
N1750 N 0.25365 0.69203 0.85191 0.0
N1751 N 0.21072 0.81379 0.8997 0.0
C1752 C 0.24315 0.71798 0.87235 0.0
C1753 C 0.22133 0.78084 0.89782 0.0
N1754 N 0.29985 0.72937 0.8932 0.0
N1755 N 0.16489 0.7583 0.90452 0.0
H1756 H 0.22754 0.83426 0.90001 0.0
H1757 H 0.18538 0.82073 0.89627 0.0
H1758 H 0.14737 0.73847 0.9046 0.0
H1759 H 0.15705 0.7796 0.91821 0.0
H1760 H 0.30777 0.70469 0.88784 0.0
H1761 H 0.31794 0.74368 0.90617 0.0
H1762 H 0.27904 0.68841 0.84526 0.0
H1763 H 0.23666 0.67668 0.83858 0.0
C1764 C 0.27068 0.2578 0.64034 0.0
C1765 C 0.29435 0.26255 0.6134 0.0
C1766 C 0.26069 0.31118 0.5932 0.0
C1767 C 0.23995 0.30887 0.62242 0.0
N1768 N 0.22833 0.28358 0.67675 0.0
N1769 N 0.31197 0.29383 0.5637 0.0
C1770 C 0.2456 0.28298 0.64665 0.0
C1771 C 0.28942 0.28938 0.58973 0.0
N1772 N 0.27176 0.22927 0.65995 0.0
N1773 N 0.25192 0.33343 0.56819 0.0
H1774 H 0.33129 0.27661 0.55808 0.0
H1775 H 0.3124 0.31522 0.54828 0.0
H1776 H 0.23073 0.34923 0.57009 0.0
H1777 H 0.26371 0.33443 0.54458 0.0
H1778 H 0.25265 0.22272 0.67702 0.0
H1779 H 0.28986 0.21031 0.65724 0.0
H1780 H 0.23413 0.26786 0.69712 0.0
H1781 H 0.21073 0.30232 0.683 0.0
C1782 C 0.80188 0.30522 0.92242 0.0
C1783 C 0.80353 0.31664 0.88846 0.0
C1784 C 0.75909 0.27569 0.87228 0.0
C1785 C 0.75711 0.2646 0.90652 0.0
N1786 N 0.76978 0.27505 0.96538 0.0
N1787 N 0.7802 0.31786 0.83234 0.0
C1788 C 0.77639 0.28141 0.93197 0.0
C1789 C 0.78085 0.30347 0.86381 0.0
N1790 N 0.82593 0.31569 0.94512 0.0
N1791 N 0.74155 0.25867 0.84766 0.0
H1792 H 0.79604 0.33807 0.82575 0.0
H1793 H 0.76238 0.31176 0.8138 0.0
H1794 H 0.72469 0.239 0.85303 0.0
H1795 H 0.74495 0.26278 0.82181 0.0
H1796 H 0.82849 0.3054 0.96928 0.0
H1797 H 0.84518 0.33276 0.9388 0.0
H1798 H 0.78073 0.28867 0.98524 0.0
H1799 H 0.7506 0.2585 0.97311 0.0
C1800 C 0.75149 0.76619 0.64805 0.0
C1801 C 0.73889 0.77023 0.61452 0.0
C1802 C 0.7748 0.72336 0.5948 0.0
C1803 C 0.78822 0.72009 0.62788 0.0
N1804 N 0.79431 0.74105 0.68469 0.0
N1805 N 0.7448 0.7588 0.55471 0.0
C1806 C 0.77807 0.74244 0.65413 0.0
C1807 C 0.75248 0.75064 0.58749 0.0
N1808 N 0.73706 0.78384 0.67422 0.0
N1809 N 0.78227 0.69945 0.57078 0.0
H1810 H 0.7294 0.77938 0.5485 0.0
H1811 H 0.7564 0.74755 0.53377 0.0
H1812 H 0.7982 0.67886 0.57554 0.0
H1813 H 0.77043 0.69833 0.54719 0.0
H1814 H 0.7424 0.77921 0.69963 0.0
H1815 H 0.71816 0.80197 0.67065 0.0
H1816 H 0.79065 0.75863 0.70409 0.0
H1817 H 0.81354 0.72352 0.68966 0.0
C1818 C 0.80491 0.73217 0.09613 0.0
C1819 C 0.80739 0.72252 0.13055 0.0
C1820 C 0.75926 0.75946 0.14511 0.0
C1821 C 0.75678 0.76922 0.11046 0.0
N1822 N 0.77116 0.75853 0.05199 0.0
N1823 N 0.78446 0.72163 0.18686 0.0
C1824 C 0.77784 0.75361 0.08565 0.0
C1825 C 0.78368 0.73454 0.15474 0.0
N1826 N 0.82921 0.72156 0.07372 0.0
N1827 N 0.73942 0.77498 0.16899 0.0
H1828 H 0.80268 0.70402 0.19453 0.0
H1829 H 0.76599 0.72644 0.20515 0.0
H1830 H 0.7199 0.79164 0.16289 0.0
H1831 H 0.74301 0.7724 0.195 0.0
H1832 H 0.83123 0.73054 0.04899 0.0
H1833 H 0.84897 0.70539 0.08069 0.0
H1834 H 0.78348 0.74553 0.03253 0.0
H1835 H 0.75085 0.77325 0.04353 0.0
C1836 C 0.21538 0.73722 0.39114 0.0
C1837 C 0.22623 0.70333 0.38617 0.0
C1838 C 0.2853 0.72121 0.39292 0.0
C1839 C 0.27438 0.75404 0.40313 0.0
N1840 N 0.22803 0.79241 0.41554 0.0
N1841 N 0.27094 0.66175 0.39013 0.0
C1842 C 0.23911 0.76207 0.40284 0.0
C1843 C 0.26106 0.69495 0.38901 0.0
N1844 N 0.18234 0.74542 0.38466 0.0
N1845 N 0.31881 0.71516 0.38614 0.0
H1846 H 0.25386 0.64157 0.38875 0.0
H1847 H 0.29573 0.65434 0.3957 0.0
H1848 H 0.33738 0.73395 0.38774 0.0
H1849 H 0.32744 0.69257 0.37534 0.0
H1850 H 0.17328 0.77024 0.38471 0.0
H1851 H 0.16469 0.72739 0.37641 0.0
H1852 H 0.20245 0.79812 0.41922 0.0
H1853 H 0.24435 0.81098 0.42503 0.0
C1854 C 0.77967 0.25257 0.40702 0.0
C1855 C 0.74466 0.26177 0.40627 0.0
C1856 C 0.76094 0.32099 0.39783 0.0
C1857 C 0.79528 0.31135 0.39378 0.0
N1858 N 0.83661 0.26676 0.38795 0.0
N1859 N 0.70294 0.30382 0.38966 0.0
C1860 C 0.80449 0.2767 0.39637 0.0
C1861 C 0.73557 0.2957 0.39817 0.0
N1862 N 0.7896 0.22187 0.41959 0.0
N1863 N 0.75256 0.35422 0.40299 0.0
H1864 H 0.68381 0.28573 0.38707 0.0
H1865 H 0.69606 0.32786 0.38107 0.0
H1866 H 0.77076 0.37329 0.4057 0.0
H1867 H 0.72788 0.362 0.40872 0.0
H1868 H 0.81501 0.21561 0.42357 0.0
H1869 H 0.77272 0.20401 0.42932 0.0
H1870 H 0.84382 0.24135 0.38635 0.0
H1871 H 0.85502 0.28381 0.37943 0.0
loop_
_geom_bond_atom_site_label_1
_geom_bond_atom_site_label_2
_geom_bond_distance
_geom_bond_site_symmetry_2
_ccdc_geom_bond_type
C0 C1 1.351 1_455 S
C0 N3 1.368 . S
C0 H5 0.931 . S
C1 C0 1.351 1_655 S
C1 N2 1.373 . S
C1 H29 0.930 . S
N2 C1 1.373 . S
N2 C4 1.340 1_655 S
N3 C0 1.368 . S
N3 C4 1.321 . S
N3 Co6 2.135 . S
C4 N2 1.340 1_455 S
C4 N3 1.321 . S
C4 H28 0.930 . S
H5 C0 0.931 . S
Co6 N3 2.135 . S
Co6 N9 2.121 . S
Co6 O14 2.055 . S
Co6 O17 2.039 . S
Co6 N20 2.140 . S
C7 O8 1.227 . S
C7 O17 1.265 . S
O8 C7 1.227 . S
N9 Co6 2.121 . S
N9 C11 1.375 . S
N9 C12 1.313 . S
C10 C11 1.338 . S
C10 N13 1.377 . S
C10 H30 0.930 . S
C11 N9 1.375 . S
C11 C10 1.338 . S
C11 H15 0.931 . S
C12 N9 1.313 . S
C12 N13 1.344 . S
C12 H16 0.930 . S
N13 C10 1.377 . S
N13 C12 1.344 . S
O14 Co6 2.055 . S
O14 C18 1.253 . S
H15 C11 0.931 . S
H16 C12 0.930 . S
O17 Co6 2.039 . S
O17 C7 1.265 . S
C18 O14 1.253 . S
C18 O19 1.227 . S
O19 C18 1.227 . S
N20 Co6 2.140 . S
N20 C23 1.346 . S
N20 C24 1.345 . S
C21 C22 1.387 . S
C21 C25 1.391 . S
C22 C21 1.387 . S
C22 C23 1.369 . S
C22 H31 0.929 . S
C23 N20 1.346 . S
C23 C22 1.369 . S
C23 H26 0.928 . S
C24 N20 1.345 . S
C24 C25 1.371 . S
C24 H27 0.931 . S
C25 C21 1.391 . S
C25 C24 1.371 . S
C25 H32 0.930 . S
H26 C23 0.928 . S
H27 C24 0.931 . S
H28 C4 0.930 . S
H29 C1 0.930 . S
H30 C10 0.930 . S
H31 C22 0.929 . S
H32 C25 0.930 . S
C33 C34 1.351 . S
C33 N36 1.368 . S
C33 H38 0.931 . S
C34 C33 1.351 . S
C34 N35 1.373 . S
C34 H62 0.930 . S
N35 C34 1.373 . S
N35 C37 1.340 . S
N36 C33 1.368 . S
N36 C37 1.321 . S
N36 Co39 2.135 . S
C37 N35 1.340 . S
C37 N36 1.321 . S
C37 H61 0.930 . S
H38 C33 0.931 . S
Co39 N36 2.135 . S
Co39 N42 2.121 . S
Co39 O47 2.055 . S
Co39 O50 2.039 . S
Co39 N53 2.140 . S
C40 O41 1.227 . S
C40 O50 1.265 . S
O41 C40 1.227 . S
N42 Co39 2.121 . S
N42 C44 1.375 . S
N42 C45 1.313 . S
C43 C44 1.338 . S
C43 N46 1.377 . S
C43 H63 0.930 . S
C44 N42 1.375 . S
C44 C43 1.338 . S
C44 H48 0.931 . S
C45 N42 1.313 . S
C45 N46 1.344 . S
C45 H49 0.930 . S
N46 C43 1.377 . S
N46 C45 1.344 . S
O47 Co39 2.055 . S
O47 C51 1.253 . S
H48 C44 0.931 . S
H49 C45 0.930 . S
O50 Co39 2.039 . S
O50 C40 1.265 . S
C51 O47 1.253 . S
C51 O52 1.227 . S
O52 C51 1.227 . S
N53 Co39 2.140 . S
N53 C56 1.346 . S
N53 C57 1.345 . S
C54 C55 1.387 . S
C54 C58 1.391 . S
C55 C54 1.387 . S
C55 C56 1.369 . S
C55 H64 0.929 . S
C56 N53 1.346 . S
C56 C55 1.369 . S
C56 H59 0.928 . S
C57 N53 1.345 . S
C57 C58 1.371 . S
C57 H60 0.931 . S
C58 C54 1.391 . S
C58 C57 1.371 . S
C58 H65 0.930 . S
H59 C56 0.928 . S
H60 C57 0.931 . S
H61 C37 0.930 . S
H62 C34 0.930 . S
H63 C43 0.930 . S
H64 C55 0.929 . S
H65 C58 0.930 . S
C66 C67 1.351 1_655 S
C66 N69 1.368 . S
C66 H71 0.931 . S
C67 C66 1.351 1_455 S
C67 N68 1.373 . S
C67 H95 0.930 . S
N68 C67 1.373 . S
N68 C70 1.340 1_455 S
N69 C66 1.368 . S
N69 C70 1.321 . S
N69 Co72 2.135 . S
C70 N68 1.340 1_655 S
C70 N69 1.321 . S
C70 H94 0.930 . S
H71 C66 0.931 . S
Co72 N69 2.135 . S
Co72 N75 2.121 . S
Co72 O80 2.055 . S
Co72 O83 2.039 . S
Co72 N86 2.140 . S
C73 O74 1.227 . S
C73 O83 1.265 . S
O74 C73 1.227 . S
N75 Co72 2.121 . S
N75 C77 1.375 . S
N75 C78 1.313 . S
C76 C77 1.338 . S
C76 N79 1.377 . S
C76 H96 0.930 . S
C77 N75 1.375 . S
C77 C76 1.338 . S
C77 H81 0.931 . S
C78 N75 1.313 . S
C78 N79 1.344 . S
C78 H82 0.930 . S
N79 C76 1.377 . S
N79 C78 1.344 . S
O80 Co72 2.055 . S
O80 C84 1.253 . S
H81 C77 0.931 . S
H82 C78 0.930 . S
O83 Co72 2.039 . S
O83 C73 1.265 . S
C84 O80 1.253 . S
C84 O85 1.227 . S
O85 C84 1.227 . S
N86 Co72 2.140 . S
N86 C89 1.346 . S
N86 C90 1.345 . S
C87 C88 1.387 . S
C87 C91 1.391 . S
C88 C87 1.387 . S
C88 C89 1.369 . S
C88 H97 0.929 . S
C89 N86 1.346 . S
C89 C88 1.369 . S
C89 H92 0.928 . S
C90 N86 1.345 . S
C90 C91 1.371 . S
C90 H93 0.931 . S
C91 C87 1.391 . S
C91 C90 1.371 . S
C91 H98 0.930 . S
H92 C89 0.928 . S
H93 C90 0.931 . S
H94 C70 0.930 . S
H95 C67 0.930 . S
H96 C76 0.930 . S
H97 C88 0.929 . S
H98 C91 0.930 . S
C99 C100 1.351 . S
C99 N102 1.368 . S
C99 H104 0.931 . S
C100 C99 1.351 . S
C100 N101 1.373 . S
C100 H128 0.930 . S
N101 C100 1.373 . S
N101 C103 1.340 . S
N102 C99 1.368 . S
N102 C103 1.321 . S
N102 Co105 2.135 . S
C103 N101 1.340 . S
C103 N102 1.321 . S
C103 H127 0.930 . S
H104 C99 0.931 . S
Co105 N102 2.135 . S
Co105 N108 2.121 . S
Co105 O113 2.055 . S
Co105 O116 2.039 . S
Co105 N119 2.140 . S
C106 O107 1.227 . S
C106 O116 1.265 . S
O107 C106 1.227 . S
N108 Co105 2.121 . S
N108 C110 1.375 . S
N108 C111 1.313 . S
C109 C110 1.338 . S
C109 N112 1.377 . S
C109 H129 0.930 . S
C110 N108 1.375 . S
C110 C109 1.338 . S
C110 H114 0.931 . S
C111 N108 1.313 . S
C111 N112 1.344 . S
C111 H115 0.930 . S
N112 C109 1.377 . S
N112 C111 1.344 . S
O113 Co105 2.055 . S
O113 C117 1.253 . S
H114 C110 0.931 . S
H115 C111 0.930 . S
O116 Co105 2.039 . S
O116 C106 1.265 . S
C117 O113 1.253 . S
C117 O118 1.227 . S
O118 C117 1.227 . S
N119 Co105 2.140 . S
N119 C122 1.346 . S
N119 C123 1.345 . S
C120 C121 1.387 . S
C120 C124 1.391 . S
C121 C120 1.387 . S
C121 C122 1.369 . S
C121 H130 0.929 . S
C122 N119 1.346 . S
C122 C121 1.369 . S
C122 H125 0.928 . S
C123 N119 1.345 . S
C123 C124 1.371 . S
C123 H126 0.931 . S
C124 C120 1.391 . S
C124 C123 1.371 . S
C124 H131 0.930 . S
H125 C122 0.928 . S
H126 C123 0.931 . S
H127 C103 0.930 . S
H128 C100 0.930 . S
H129 C109 0.930 . S
H130 C121 0.929 . S
H131 C124 0.930 . S
C132 C133 1.351 1_455 S
C132 N135 1.368 . S
C132 H137 0.931 . S
C133 C132 1.351 1_655 S
C133 N134 1.373 . S
C133 H161 0.930 . S
N134 C133 1.373 . S
N134 C136 1.340 1_655 S
N135 C132 1.368 . S
N135 C136 1.321 . S
N135 Co138 2.135 . S
C136 N134 1.340 1_455 S
C136 N135 1.321 . S
C136 H160 0.930 . S
H137 C132 0.931 . S
Co138 N135 2.135 . S
Co138 N141 2.121 . S
Co138 O146 2.055 . S
Co138 O149 2.039 . S
Co138 N152 2.140 . S
C139 O140 1.227 . S
C139 O149 1.265 . S
O140 C139 1.227 . S
N141 Co138 2.121 . S
N141 C143 1.375 . S
N141 C144 1.313 . S
C142 C143 1.338 . S
C142 N145 1.377 . S
C142 H162 0.930 . S
C143 N141 1.375 . S
C143 C142 1.338 . S
C143 H147 0.931 . S
C144 N141 1.313 . S
C144 N145 1.344 . S
C144 H148 0.930 . S
N145 C142 1.377 . S
N145 C144 1.344 . S
O146 Co138 2.055 . S
O146 C150 1.253 . S
H147 C143 0.931 . S
H148 C144 0.930 . S
O149 Co138 2.039 . S
O149 C139 1.265 . S
C150 O146 1.253 . S
C150 O151 1.227 . S
O151 C150 1.227 . S
N152 Co138 2.140 . S
N152 C155 1.346 . S
N152 C156 1.345 . S
C153 C154 1.387 . S
C153 C157 1.391 . S
C154 C153 1.387 . S
C154 C155 1.369 . S
C154 H163 0.929 . S
C155 N152 1.346 . S
C155 C154 1.369 . S
C155 H158 0.928 . S
C156 N152 1.345 . S
C156 C157 1.371 . S
C156 H159 0.931 . S
C157 C153 1.391 . S
C157 C156 1.371 . S
C157 H164 0.930 . S
H158 C155 0.928 . S
H159 C156 0.931 . S
H160 C136 0.930 . S
H161 C133 0.930 . S
H162 C142 0.930 . S
H163 C154 0.929 . S
H164 C157 0.930 . S
C165 C166 1.351 . S
C165 N168 1.368 . S
C165 H170 0.931 . S
C166 C165 1.351 . S
C166 N167 1.373 . S
C166 H194 0.930 . S
N167 C166 1.373 . S
N167 C169 1.340 . S
N168 C165 1.368 . S
N168 C169 1.321 . S
N168 Co171 2.135 . S
C169 N167 1.340 . S
C169 N168 1.321 . S
C169 H193 0.930 . S
H170 C165 0.931 . S
Co171 N168 2.135 . S
Co171 N174 2.121 . S
Co171 O179 2.055 . S
Co171 O182 2.039 . S
Co171 N185 2.140 . S
C172 O173 1.227 . S
C172 O182 1.265 . S
O173 C172 1.227 . S
N174 Co171 2.121 . S
N174 C176 1.375 . S
N174 C177 1.313 . S
C175 C176 1.338 . S
C175 N178 1.377 . S
C175 H195 0.930 . S
C176 N174 1.375 . S
C176 C175 1.338 . S
C176 H180 0.931 . S
C177 N174 1.313 . S
C177 N178 1.344 . S
C177 H181 0.930 . S
N178 C175 1.377 . S
N178 C177 1.344 . S
O179 Co171 2.055 . S
O179 C183 1.253 . S
H180 C176 0.931 . S
H181 C177 0.930 . S
O182 Co171 2.039 . S
O182 C172 1.265 . S
C183 O179 1.253 . S
C183 O184 1.227 . S
O184 C183 1.227 . S
N185 Co171 2.140 . S
N185 C188 1.346 . S
N185 C189 1.345 . S
C186 C187 1.387 . S
C186 C190 1.391 . S
C187 C186 1.387 . S
C187 C188 1.369 . S
C187 H196 0.929 . S
C188 N185 1.346 . S
C188 C187 1.369 . S
C188 H191 0.928 . S
C189 N185 1.345 . S
C189 C190 1.371 . S
C189 H192 0.931 . S
C190 C186 1.391 . S
C190 C189 1.371 . S
C190 H197 0.930 . S
H191 C188 0.928 . S
H192 C189 0.931 . S
H193 C169 0.930 . S
H194 C166 0.930 . S
H195 C175 0.930 . S
H196 C187 0.929 . S
H197 C190 0.930 . S
C198 C199 1.351 1_655 S
C198 N201 1.368 . S
C198 H203 0.931 . S
C199 C198 1.351 1_455 S
C199 N200 1.373 . S
C199 H227 0.930 . S
N200 C199 1.373 . S
N200 C202 1.340 1_455 S
N201 C198 1.368 . S
N201 C202 1.321 . S
N201 Co204 2.135 . S
C202 N200 1.340 1_655 S
C202 N201 1.321 . S
C202 H226 0.930 . S
H203 C198 0.931 . S
Co204 N201 2.135 . S
Co204 N207 2.121 . S
Co204 O212 2.055 . S
Co204 O215 2.039 . S
Co204 N218 2.140 . S
C205 O206 1.227 . S
C205 O215 1.265 . S
O206 C205 1.227 . S
N207 Co204 2.121 . S
N207 C209 1.375 . S
N207 C210 1.313 . S
C208 C209 1.338 . S
C208 N211 1.377 . S
C208 H228 0.930 . S
C209 N207 1.375 . S
C209 C208 1.338 . S
C209 H213 0.931 . S
C210 N207 1.313 . S
C210 N211 1.344 . S
C210 H214 0.930 . S
N211 C208 1.377 . S
N211 C210 1.344 . S
O212 Co204 2.055 . S
O212 C216 1.253 . S
H213 C209 0.931 . S
H214 C210 0.930 . S
O215 Co204 2.039 . S
O215 C205 1.265 . S
C216 O212 1.253 . S
C216 O217 1.227 . S
O217 C216 1.227 . S
N218 Co204 2.140 . S
N218 C221 1.346 . S
N218 C222 1.345 . S
C219 C220 1.387 . S
C219 C223 1.391 . S
C220 C219 1.387 . S
C220 C221 1.369 . S
C220 H229 0.929 . S
C221 N218 1.346 . S
C221 C220 1.369 . S
C221 H224 0.928 . S
C222 N218 1.345 . S
C222 C223 1.371 . S
C222 H225 0.931 . S
C223 C219 1.391 . S
C223 C222 1.371 . S
C223 H230 0.930 . S
H224 C221 0.928 . S
H225 C222 0.931 . S
H226 C202 0.930 . S
H227 C199 0.930 . S
H228 C208 0.930 . S
H229 C220 0.929 . S
H230 C223 0.930 . S
C231 C232 1.351 . S
C231 N234 1.368 . S
C231 H236 0.931 . S
C232 C231 1.351 . S
C232 N233 1.373 . S
C232 H260 0.930 . S
N233 C232 1.373 . S
N233 C235 1.340 . S
N234 C231 1.368 . S
N234 C235 1.321 . S
N234 Co237 2.135 . S
C235 N233 1.340 . S
C235 N234 1.321 . S
C235 H259 0.930 . S
H236 C231 0.931 . S
Co237 N234 2.135 . S
Co237 N240 2.121 . S
Co237 O245 2.055 . S
Co237 O248 2.039 . S
Co237 N251 2.140 . S
C238 O239 1.227 . S
C238 O248 1.265 . S
O239 C238 1.227 . S
N240 Co237 2.121 . S
N240 C242 1.375 . S
N240 C243 1.313 . S
C241 C242 1.338 . S
C241 N244 1.377 . S
C241 H261 0.930 . S
C242 N240 1.375 . S
C242 C241 1.338 . S
C242 H246 0.931 . S
C243 N240 1.313 . S
C243 N244 1.344 . S
C243 H247 0.930 . S
N244 C241 1.377 . S
N244 C243 1.344 . S
O245 Co237 2.055 . S
O245 C249 1.253 . S
H246 C242 0.931 . S
H247 C243 0.930 . S
O248 Co237 2.039 . S
O248 C238 1.265 . S
C249 O245 1.253 . S
C249 O250 1.227 . S
O250 C249 1.227 . S
N251 Co237 2.140 . S
N251 C254 1.346 . S
N251 C255 1.345 . S
C252 C253 1.387 . S
C252 C256 1.391 . S
C253 C252 1.387 . S
C253 C254 1.369 . S
C253 H262 0.929 . S
C254 N251 1.346 . S
C254 C253 1.369 . S
C254 H257 0.928 . S
C255 N251 1.345 . S
C255 C256 1.371 . S
C255 H258 0.931 . S
C256 C252 1.391 . S
C256 C255 1.371 . S
C256 H263 0.930 . S
H257 C254 0.928 . S
H258 C255 0.931 . S
H259 C235 0.930 . S
H260 C232 0.930 . S
H261 C241 0.930 . S
H262 C253 0.929 . S
H263 C256 0.930 . S
C264 C265 1.351 1_545 S
C264 N267 1.368 . S
C264 H269 0.931 . S
C265 C264 1.351 1_565 S
C265 N266 1.373 . S
C265 H293 0.930 . S
N266 C265 1.373 . S
N266 C268 1.340 1_565 S
N267 C264 1.368 . S
N267 C268 1.321 . S
N267 Co270 2.135 . S
C268 N266 1.340 1_545 S
C268 N267 1.321 . S
C268 H292 0.930 . S
H269 C264 0.931 . S
Co270 N267 2.135 . S
Co270 N273 2.121 . S
Co270 O278 2.055 . S
Co270 O281 2.039 . S
Co270 N284 2.140 . S
C271 O272 1.227 . S
C271 O281 1.265 . S
O272 C271 1.227 . S
N273 Co270 2.121 . S
N273 C275 1.375 . S
N273 C276 1.313 . S
C274 C275 1.338 . S
C274 N277 1.377 . S
C274 H294 0.930 . S
C275 N273 1.375 . S
C275 C274 1.338 . S
C275 H279 0.931 . S
C276 N273 1.313 . S
C276 N277 1.344 . S
C276 H280 0.930 . S
N277 C274 1.377 . S
N277 C276 1.344 . S
O278 Co270 2.055 . S
O278 C282 1.253 . S
H279 C275 0.931 . S
H280 C276 0.930 . S
O281 Co270 2.039 . S
O281 C271 1.265 . S
C282 O278 1.253 . S
C282 O283 1.227 . S
O283 C282 1.227 . S
N284 Co270 2.140 . S
N284 C287 1.346 . S
N284 C288 1.345 . S
C285 C286 1.387 . S
C285 C289 1.391 . S
C286 C285 1.387 . S
C286 C287 1.369 . S
C286 H295 0.929 . S
C287 N284 1.346 . S
C287 C286 1.369 . S
C287 H290 0.928 . S
C288 N284 1.345 . S
C288 C289 1.371 . S
C288 H291 0.931 . S
C289 C285 1.391 . S
C289 C288 1.371 . S
C289 H296 0.930 . S
H290 C287 0.928 . S
H291 C288 0.931 . S
H292 C268 0.930 . S
H293 C265 0.930 . S
H294 C274 0.930 . S
H295 C286 0.929 . S
H296 C289 0.930 . S
C297 C298 1.351 . S
C297 N300 1.368 . S
C297 H302 0.931 . S
C298 C297 1.351 . S
C298 N299 1.373 . S
C298 H326 0.930 . S
N299 C298 1.373 . S
N299 C301 1.340 . S
N300 C297 1.368 . S
N300 C301 1.321 . S
N300 Co303 2.135 . S
C301 N299 1.340 . S
C301 N300 1.321 . S
C301 H325 0.930 . S
H302 C297 0.931 . S
Co303 N300 2.135 . S
Co303 N306 2.121 . S
Co303 O311 2.055 . S
Co303 O314 2.039 . S
Co303 N317 2.140 . S
C304 O305 1.227 . S
C304 O314 1.265 . S
O305 C304 1.227 . S
N306 Co303 2.121 . S
N306 C308 1.375 . S
N306 C309 1.313 . S
C307 C308 1.338 . S
C307 N310 1.377 . S
C307 H327 0.930 . S
C308 N306 1.375 . S
C308 C307 1.338 . S
C308 H312 0.931 . S
C309 N306 1.313 . S
C309 N310 1.344 . S
C309 H313 0.930 . S
N310 C307 1.377 . S
N310 C309 1.344 . S
O311 Co303 2.055 . S
O311 C315 1.253 . S
H312 C308 0.931 . S
H313 C309 0.930 . S
O314 Co303 2.039 . S
O314 C304 1.265 . S
C315 O311 1.253 . S
C315 O316 1.227 . S
O316 C315 1.227 . S
N317 Co303 2.140 . S
N317 C320 1.346 . S
N317 C321 1.345 . S
C318 C319 1.387 . S
C318 C322 1.391 . S
C319 C318 1.387 . S
C319 C320 1.369 . S
C319 H328 0.929 . S
C320 N317 1.346 . S
C320 C319 1.369 . S
C320 H323 0.928 . S
C321 N317 1.345 . S
C321 C322 1.371 . S
C321 H324 0.931 . S
C322 C318 1.391 . S
C322 C321 1.371 . S
C322 H329 0.930 . S
H323 C320 0.928 . S
H324 C321 0.931 . S
H325 C301 0.930 . S
H326 C298 0.930 . S
H327 C307 0.930 . S
H328 C319 0.929 . S
H329 C322 0.930 . S
C330 C331 1.351 1_565 S
C330 N333 1.368 . S
C330 H335 0.931 . S
C331 C330 1.351 1_545 S
C331 N332 1.373 . S
C331 H359 0.930 . S
N332 C331 1.373 . S
N332 C334 1.340 1_545 S
N333 C330 1.368 . S
N333 C334 1.321 . S
N333 Co336 2.135 . S
C334 N332 1.340 1_565 S
C334 N333 1.321 . S
C334 H358 0.930 . S
H335 C330 0.931 . S
Co336 N333 2.135 . S
Co336 N339 2.121 . S
Co336 O344 2.055 . S
Co336 O347 2.039 . S
Co336 N350 2.140 . S
C337 O338 1.227 . S
C337 O347 1.265 . S
O338 C337 1.227 . S
N339 Co336 2.121 . S
N339 C341 1.375 . S
N339 C342 1.313 . S
C340 C341 1.338 . S
C340 N343 1.377 . S
C340 H360 0.930 . S
C341 N339 1.375 . S
C341 C340 1.338 . S
C341 H345 0.931 . S
C342 N339 1.313 . S
C342 N343 1.344 . S
C342 H346 0.930 . S
N343 C340 1.377 . S
N343 C342 1.344 . S
O344 Co336 2.055 . S
O344 C348 1.253 . S
H345 C341 0.931 . S
H346 C342 0.930 . S
O347 Co336 2.039 . S
O347 C337 1.265 . S
C348 O344 1.253 . S
C348 O349 1.227 . S
O349 C348 1.227 . S
N350 Co336 2.140 . S
N350 C353 1.346 . S
N350 C354 1.345 . S
C351 C352 1.387 . S
C351 C355 1.391 . S
C352 C351 1.387 . S
C352 C353 1.369 . S
C352 H361 0.929 . S
C353 N350 1.346 . S
C353 C352 1.369 . S
C353 H356 0.928 . S
C354 N350 1.345 . S
C354 C355 1.371 . S
C354 H357 0.931 . S
C355 C351 1.391 . S
C355 C354 1.371 . S
C355 H362 0.930 . S
H356 C353 0.928 . S
H357 C354 0.931 . S
H358 C334 0.930 . S
H359 C331 0.930 . S
H360 C340 0.930 . S
H361 C352 0.929 . S
H362 C355 0.930 . S
C363 C364 1.351 . S
C363 N366 1.368 . S
C363 H368 0.931 . S
C364 C363 1.351 . S
C364 N365 1.373 . S
C364 H392 0.930 . S
N365 C364 1.373 . S
N365 C367 1.340 . S
N366 C363 1.368 . S
N366 C367 1.321 . S
N366 Co369 2.135 . S
C367 N365 1.340 . S
C367 N366 1.321 . S
C367 H391 0.930 . S
H368 C363 0.931 . S
Co369 N366 2.135 . S
Co369 N372 2.121 . S
Co369 O377 2.055 . S
Co369 O380 2.039 . S
Co369 N383 2.140 . S
C370 O371 1.227 . S
C370 O380 1.265 . S
O371 C370 1.227 . S
N372 Co369 2.121 . S
N372 C374 1.375 . S
N372 C375 1.313 . S
C373 C374 1.338 . S
C373 N376 1.377 . S
C373 H393 0.930 . S
C374 N372 1.375 . S
C374 C373 1.338 . S
C374 H378 0.931 . S
C375 N372 1.313 . S
C375 N376 1.344 . S
C375 H379 0.930 . S
N376 C373 1.377 . S
N376 C375 1.344 . S
O377 Co369 2.055 . S
O377 C381 1.253 . S
H378 C374 0.931 . S
H379 C375 0.930 . S
O380 Co369 2.039 . S
O380 C370 1.265 . S
C381 O377 1.253 . S
C381 O382 1.227 . S
O382 C381 1.227 . S
N383 Co369 2.140 . S
N383 C386 1.346 . S
N383 C387 1.345 . S
C384 C385 1.387 . S
C384 C388 1.391 . S
C385 C384 1.387 . S
C385 C386 1.369 . S
C385 H394 0.929 . S
C386 N383 1.346 . S
C386 C385 1.369 . S
C386 H389 0.928 . S
C387 N383 1.345 . S
C387 C388 1.371 . S
C387 H390 0.931 . S
C388 C384 1.391 . S
C388 C387 1.371 . S
C388 H395 0.930 . S
H389 C386 0.928 . S
H390 C387 0.931 . S
H391 C367 0.930 . S
H392 C364 0.930 . S
H393 C373 0.930 . S
H394 C385 0.929 . S
H395 C388 0.930 . S
C396 C397 1.351 1_565 S
C396 N399 1.368 . S
C396 H401 0.931 . S
C397 C396 1.351 1_545 S
C397 N398 1.373 . S
C397 H425 0.930 . S
N398 C397 1.373 . S
N398 C400 1.340 1_545 S
N399 C396 1.368 . S
N399 C400 1.321 . S
N399 Co402 2.135 . S
C400 N398 1.340 1_565 S
C400 N399 1.321 . S
C400 H424 0.930 . S
H401 C396 0.931 . S
Co402 N399 2.135 . S
Co402 N405 2.121 . S
Co402 O410 2.055 . S
Co402 O413 2.039 . S
Co402 N416 2.140 . S
C403 O404 1.227 . S
C403 O413 1.265 . S
O404 C403 1.227 . S
N405 Co402 2.121 . S
N405 C407 1.375 . S
N405 C408 1.313 . S
C406 C407 1.338 . S
C406 N409 1.377 . S
C406 H426 0.930 . S
C407 N405 1.375 . S
C407 C406 1.338 . S
C407 H411 0.931 . S
C408 N405 1.313 . S
C408 N409 1.344 . S
C408 H412 0.930 . S
N409 C406 1.377 . S
N409 C408 1.344 . S
O410 Co402 2.055 . S
O410 C414 1.253 . S
H411 C407 0.931 . S
H412 C408 0.930 . S
O413 Co402 2.039 . S
O413 C403 1.265 . S
C414 O410 1.253 . S
C414 O415 1.227 . S
O415 C414 1.227 . S
N416 Co402 2.140 . S
N416 C419 1.346 . S
N416 C420 1.345 . S
C417 C418 1.387 . S
C417 C421 1.391 . S
C418 C417 1.387 . S
C418 C419 1.369 . S
C418 H427 0.929 . S
C419 N416 1.346 . S
C419 C418 1.369 . S
C419 H422 0.928 . S
C420 N416 1.345 . S
C420 C421 1.371 . S
C420 H423 0.931 . S
C421 C417 1.391 . S
C421 C420 1.371 . S
C421 H428 0.930 . S
H422 C419 0.928 . S
H423 C420 0.931 . S
H424 C400 0.930 . S
H425 C397 0.930 . S
H426 C406 0.930 . S
H427 C418 0.929 . S
H428 C421 0.930 . S
C429 C430 1.351 . S
C429 N432 1.368 . S
C429 H434 0.931 . S
C430 C429 1.351 . S
C430 N431 1.373 . S
C430 H458 0.930 . S
N431 C430 1.373 . S
N431 C433 1.340 . S
N432 C429 1.368 . S
N432 C433 1.321 . S
N432 Co435 2.135 . S
C433 N431 1.340 . S
C433 N432 1.321 . S
C433 H457 0.930 . S
H434 C429 0.931 . S
Co435 N432 2.135 . S
Co435 N438 2.121 . S
Co435 O443 2.055 . S
Co435 O446 2.039 . S
Co435 N449 2.140 . S
C436 O437 1.227 . S
C436 O446 1.265 . S
O437 C436 1.227 . S
N438 Co435 2.121 . S
N438 C440 1.375 . S
N438 C441 1.313 . S
C439 C440 1.338 . S
C439 N442 1.377 . S
C439 H459 0.930 . S
C440 N438 1.375 . S
C440 C439 1.338 . S
C440 H444 0.931 . S
C441 N438 1.313 . S
C441 N442 1.344 . S
C441 H445 0.930 . S
N442 C439 1.377 . S
N442 C441 1.344 . S
O443 Co435 2.055 . S
O443 C447 1.253 . S
H444 C440 0.931 . S
H445 C441 0.930 . S
O446 Co435 2.039 . S
O446 C436 1.265 . S
C447 O443 1.253 . S
C447 O448 1.227 . S
O448 C447 1.227 . S
N449 Co435 2.140 . S
N449 C452 1.346 . S
N449 C453 1.345 . S
C450 C451 1.387 . S
C450 C454 1.391 . S
C451 C450 1.387 . S
C451 C452 1.369 . S
C451 H460 0.929 . S
C452 N449 1.346 . S
C452 C451 1.369 . S
C452 H455 0.928 . S
C453 N449 1.345 . S
C453 C454 1.371 . S
C453 H456 0.931 . S
C454 C450 1.391 . S
C454 C453 1.371 . S
C454 H461 0.930 . S
H455 C452 0.928 . S
H456 C453 0.931 . S
H457 C433 0.930 . S
H458 C430 0.930 . S
H459 C439 0.930 . S
H460 C451 0.929 . S
H461 C454 0.930 . S
C462 C463 1.351 1_545 S
C462 N465 1.368 . S
C462 H467 0.931 . S
C463 C462 1.351 1_565 S
C463 N464 1.373 . S
C463 H491 0.930 . S
N464 C463 1.373 . S
N464 C466 1.340 1_565 S
N465 C462 1.368 . S
N465 C466 1.321 . S
N465 Co468 2.135 . S
C466 N464 1.340 1_545 S
C466 N465 1.321 . S
C466 H490 0.930 . S
H467 C462 0.931 . S
Co468 N465 2.135 . S
Co468 N471 2.121 . S
Co468 O476 2.055 . S
Co468 O479 2.039 . S
Co468 N482 2.140 . S
C469 O470 1.227 . S
C469 O479 1.265 . S
O470 C469 1.227 . S
N471 Co468 2.121 . S
N471 C473 1.375 . S
N471 C474 1.313 . S
C472 C473 1.338 . S
C472 N475 1.377 . S
C472 H492 0.930 . S
C473 N471 1.375 . S
C473 C472 1.338 . S
C473 H477 0.931 . S
C474 N471 1.313 . S
C474 N475 1.344 . S
C474 H478 0.930 . S
N475 C472 1.377 . S
N475 C474 1.344 . S
O476 Co468 2.055 . S
O476 C480 1.253 . S
H477 C473 0.931 . S
H478 C474 0.930 . S
O479 Co468 2.039 . S
O479 C469 1.265 . S
C480 O476 1.253 . S
C480 O481 1.227 . S
O481 C480 1.227 . S
N482 Co468 2.140 . S
N482 C485 1.346 . S
N482 C486 1.345 . S
C483 C484 1.387 . S
C483 C487 1.391 . S
C484 C483 1.387 . S
C484 C485 1.369 . S
C484 H493 0.929 . S
C485 N482 1.346 . S
C485 C484 1.369 . S
C485 H488 0.928 . S
C486 N482 1.345 . S
C486 C487 1.371 . S
C486 H489 0.931 . S
C487 C483 1.391 . S
C487 C486 1.371 . S
C487 H494 0.930 . S
H488 C485 0.928 . S
H489 C486 0.931 . S
H490 C466 0.930 . S
H491 C463 0.930 . S
H492 C472 0.930 . S
H493 C484 0.929 . S
H494 C487 0.930 . S
C495 C496 1.351 . S
C495 N498 1.368 . S
C495 H500 0.931 . S
C496 C495 1.351 . S
C496 N497 1.373 . S
C496 H524 0.930 . S
N497 C496 1.373 . S
N497 C499 1.340 . S
N498 C495 1.368 . S
N498 C499 1.321 . S
N498 Co501 2.135 . S
C499 N497 1.340 . S
C499 N498 1.321 . S
C499 H523 0.930 . S
H500 C495 0.931 . S
Co501 N498 2.135 . S
Co501 N504 2.121 . S
Co501 O509 2.055 . S
Co501 O512 2.039 . S
Co501 N515 2.140 . S
C502 O503 1.227 . S
C502 O512 1.265 . S
O503 C502 1.227 . S
N504 Co501 2.121 . S
N504 C506 1.375 . S
N504 C507 1.313 . S
C505 C506 1.338 . S
C505 N508 1.377 . S
C505 H525 0.930 . S
C506 N504 1.375 . S
C506 C505 1.338 . S
C506 H510 0.931 . S
C507 N504 1.313 . S
C507 N508 1.344 . S
C507 H511 0.930 . S
N508 C505 1.377 . S
N508 C507 1.344 . S
O509 Co501 2.055 . S
O509 C513 1.253 . S
H510 C506 0.931 . S
H511 C507 0.930 . S
O512 Co501 2.039 . S
O512 C502 1.265 . S
C513 O509 1.253 . S
C513 O514 1.227 . S
O514 C513 1.227 . S
N515 Co501 2.140 . S
N515 C518 1.346 . S
N515 C519 1.345 . S
C516 C517 1.387 . S
C516 C520 1.391 . S
C517 C516 1.387 . S
C517 C518 1.369 . S
C517 H526 0.929 . S
C518 N515 1.346 . S
C518 C517 1.369 . S
C518 H521 0.928 . S
C519 N515 1.345 . S
C519 C520 1.371 . S
C519 H522 0.931 . S
C520 C516 1.391 . S
C520 C519 1.371 . S
C520 H527 0.930 . S
H521 C518 0.928 . S
H522 C519 0.931 . S
H523 C499 0.930 . S
H524 C496 0.930 . S
H525 C505 0.930 . S
H526 C517 0.929 . S
H527 C520 0.930 . S
C528 C529 1.351 1_554 S
C528 N531 1.368 . S
C528 H533 0.931 . S
C529 C528 1.351 1_556 S
C529 N530 1.373 . S
C529 H557 0.930 . S
N530 C529 1.373 . S
N530 C532 1.340 1_556 S
N531 C528 1.368 . S
N531 C532 1.321 . S
N531 Co534 2.135 . S
C532 N530 1.340 1_554 S
C532 N531 1.321 . S
C532 H556 0.930 . S
H533 C528 0.931 . S
Co534 N531 2.135 . S
Co534 N537 2.121 . S
Co534 O542 2.055 . S
Co534 O545 2.039 . S
Co534 N548 2.140 . S
C535 O536 1.227 . S
C535 O545 1.265 . S
O536 C535 1.227 . S
N537 Co534 2.121 . S
N537 C539 1.375 . S
N537 C540 1.313 . S
C538 C539 1.338 . S
C538 N541 1.377 . S
C538 H558 0.930 . S
C539 N537 1.375 . S
C539 C538 1.338 . S
C539 H543 0.931 . S
C540 N537 1.313 . S
C540 N541 1.344 . S
C540 H544 0.930 . S
N541 C538 1.377 . S
N541 C540 1.344 . S
O542 Co534 2.055 . S
O542 C546 1.253 . S
H543 C539 0.931 . S
H544 C540 0.930 . S
O545 Co534 2.039 . S
O545 C535 1.265 . S
C546 O542 1.253 . S
C546 O547 1.227 . S
O547 C546 1.227 . S
N548 Co534 2.140 . S
N548 C551 1.346 . S
N548 C552 1.345 . S
C549 C550 1.387 . S
C549 C553 1.391 . S
C550 C549 1.387 . S
C550 C551 1.369 . S
C550 H559 0.929 . S
C551 N548 1.346 . S
C551 C550 1.369 . S
C551 H554 0.928 . S
C552 N548 1.345 . S
C552 C553 1.371 . S
C552 H555 0.931 . S
C553 C549 1.391 . S
C553 C552 1.371 . S
C553 H560 0.930 . S
H554 C551 0.928 . S
H555 C552 0.931 . S
H556 C532 0.930 . S
H557 C529 0.930 . S
H558 C538 0.930 . S
H559 C550 0.929 . S
H560 C553 0.930 . S
C561 C562 1.351 1_556 S
C561 N564 1.368 . S
C561 H566 0.931 . S
C562 C561 1.351 1_554 S
C562 N563 1.373 . S
C562 H590 0.930 . S
N563 C562 1.373 . S
N563 C565 1.340 1_554 S
N564 C561 1.368 . S
N564 C565 1.321 . S
N564 Co567 2.135 . S
C565 N563 1.340 1_556 S
C565 N564 1.321 . S
C565 H589 0.930 . S
H566 C561 0.931 . S
Co567 N564 2.135 . S
Co567 N570 2.121 . S
Co567 O575 2.055 . S
Co567 O578 2.039 . S
Co567 N581 2.140 . S
C568 O569 1.227 . S
C568 O578 1.265 . S
O569 C568 1.227 . S
N570 Co567 2.121 . S
N570 C572 1.375 . S
N570 C573 1.313 . S
C571 C572 1.338 . S
C571 N574 1.377 . S
C571 H591 0.930 . S
C572 N570 1.375 . S
C572 C571 1.338 . S
C572 H576 0.931 . S
C573 N570 1.313 . S
C573 N574 1.344 . S
C573 H577 0.930 . S
N574 C571 1.377 . S
N574 C573 1.344 . S
O575 Co567 2.055 . S
O575 C579 1.253 . S
H576 C572 0.931 . S
H577 C573 0.930 . S
O578 Co567 2.039 . S
O578 C568 1.265 . S
C579 O575 1.253 . S
C579 O580 1.227 . S
O580 C579 1.227 . S
N581 Co567 2.140 . S
N581 C584 1.346 . S
N581 C585 1.345 . S
C582 C583 1.387 . S
C582 C586 1.391 . S
C583 C582 1.387 . S
C583 C584 1.369 . S
C583 H592 0.929 . S
C584 N581 1.346 . S
C584 C583 1.369 . S
C584 H587 0.928 . S
C585 N581 1.345 . S
C585 C586 1.371 . S
C585 H588 0.931 . S
C586 C582 1.391 . S
C586 C585 1.371 . S
C586 H593 0.930 . S
H587 C584 0.928 . S
H588 C585 0.931 . S
H589 C565 0.930 . S
H590 C562 0.930 . S
H591 C571 0.930 . S
H592 C583 0.929 . S
H593 C586 0.930 . S
C594 C595 1.351 . S
C594 N597 1.368 . S
C594 H599 0.931 . S
C595 C594 1.351 . S
C595 N596 1.373 . S
C595 H623 0.930 . S
N596 C595 1.373 . S
N596 C598 1.340 . S
N597 C594 1.368 . S
N597 C598 1.321 . S
N597 Co600 2.135 . S
C598 N596 1.340 . S
C598 N597 1.321 . S
C598 H622 0.930 . S
H599 C594 0.931 . S
Co600 N597 2.135 . S
Co600 N603 2.121 . S
Co600 O608 2.055 . S
Co600 O611 2.039 . S
Co600 N614 2.140 . S
C601 O602 1.227 . S
C601 O611 1.265 . S
O602 C601 1.227 . S
N603 Co600 2.121 . S
N603 C605 1.375 . S
N603 C606 1.313 . S
C604 C605 1.338 . S
C604 N607 1.377 . S
C604 H624 0.930 . S
C605 N603 1.375 . S
C605 C604 1.338 . S
C605 H609 0.931 . S
C606 N603 1.313 . S
C606 N607 1.344 . S
C606 H610 0.930 . S
N607 C604 1.377 . S
N607 C606 1.344 . S
O608 Co600 2.055 . S
O608 C612 1.253 . S
H609 C605 0.931 . S
H610 C606 0.930 . S
O611 Co600 2.039 . S
O611 C601 1.265 . S
C612 O608 1.253 . S
C612 O613 1.227 . S
O613 C612 1.227 . S
N614 Co600 2.140 . S
N614 C617 1.346 . S
N614 C618 1.345 . S
C615 C616 1.387 . S
C615 C619 1.391 . S
C616 C615 1.387 . S
C616 C617 1.369 . S
C616 H625 0.929 . S
C617 N614 1.346 . S
C617 C616 1.369 . S
C617 H620 0.928 . S
C618 N614 1.345 . S
C618 C619 1.371 . S
C618 H621 0.931 . S
C619 C615 1.391 . S
C619 C618 1.371 . S
C619 H626 0.930 . S
H620 C617 0.928 . S
H621 C618 0.931 . S
H622 C598 0.930 . S
H623 C595 0.930 . S
H624 C604 0.930 . S
H625 C616 0.929 . S
H626 C619 0.930 . S
C627 C628 1.351 1_556 S
C627 N630 1.368 . S
C627 H632 0.931 . S
C628 C627 1.351 1_554 S
C628 N629 1.373 . S
C628 H656 0.930 . S
N629 C628 1.373 . S
N629 C631 1.340 1_554 S
N630 C627 1.368 . S
N630 C631 1.321 . S
N630 Co633 2.135 . S
C631 N629 1.340 1_556 S
C631 N630 1.321 . S
C631 H655 0.930 . S
H632 C627 0.931 . S
Co633 N630 2.135 . S
Co633 N636 2.121 . S
Co633 O641 2.055 . S
Co633 O644 2.039 . S
Co633 N647 2.140 . S
C634 O635 1.227 . S
C634 O644 1.265 . S
O635 C634 1.227 . S
N636 Co633 2.121 . S
N636 C638 1.375 . S
N636 C639 1.313 . S
C637 C638 1.338 . S
C637 N640 1.377 . S
C637 H657 0.930 . S
C638 N636 1.375 . S
C638 C637 1.338 . S
C638 H642 0.931 . S
C639 N636 1.313 . S
C639 N640 1.344 . S
C639 H643 0.930 . S
N640 C637 1.377 . S
N640 C639 1.344 . S
O641 Co633 2.055 . S
O641 C645 1.253 . S
H642 C638 0.931 . S
H643 C639 0.930 . S
O644 Co633 2.039 . S
O644 C634 1.265 . S
C645 O641 1.253 . S
C645 O646 1.227 . S
O646 C645 1.227 . S
N647 Co633 2.140 . S
N647 C650 1.346 . S
N647 C651 1.345 . S
C648 C649 1.387 . S
C648 C652 1.391 . S
C649 C648 1.387 . S
C649 C650 1.369 . S
C649 H658 0.929 . S
C650 N647 1.346 . S
C650 C649 1.369 . S
C650 H653 0.928 . S
C651 N647 1.345 . S
C651 C652 1.371 . S
C651 H654 0.931 . S
C652 C648 1.391 . S
C652 C651 1.371 . S
C652 H659 0.930 . S
H653 C650 0.928 . S
H654 C651 0.931 . S
H655 C631 0.930 . S
H656 C628 0.930 . S
H657 C637 0.930 . S
H658 C649 0.929 . S
H659 C652 0.930 . S
C660 C661 1.351 . S
C660 N663 1.368 . S
C660 H665 0.931 . S
C661 C660 1.351 . S
C661 N662 1.373 . S
C661 H689 0.930 . S
N662 C661 1.373 . S
N662 C664 1.340 . S
N663 C660 1.368 . S
N663 C664 1.321 . S
N663 Co666 2.135 . S
C664 N662 1.340 . S
C664 N663 1.321 . S
C664 H688 0.930 . S
H665 C660 0.931 . S
Co666 N663 2.135 . S
Co666 N669 2.121 . S
Co666 O674 2.055 . S
Co666 O677 2.039 . S
Co666 N680 2.140 . S
C667 O668 1.227 . S
C667 O677 1.265 . S
O668 C667 1.227 . S
N669 Co666 2.121 . S
N669 C671 1.375 . S
N669 C672 1.313 . S
C670 C671 1.338 . S
C670 N673 1.377 . S
C670 H690 0.930 . S
C671 N669 1.375 . S
C671 C670 1.338 . S
C671 H675 0.931 . S
C672 N669 1.313 . S
C672 N673 1.344 . S
C672 H676 0.930 . S
N673 C670 1.377 . S
N673 C672 1.344 . S
O674 Co666 2.055 . S
O674 C678 1.253 . S
H675 C671 0.931 . S
H676 C672 0.930 . S
O677 Co666 2.039 . S
O677 C667 1.265 . S
C678 O674 1.253 . S
C678 O679 1.227 . S
O679 C678 1.227 . S
N680 Co666 2.140 . S
N680 C683 1.346 . S
N680 C684 1.345 . S
C681 C682 1.387 . S
C681 C685 1.391 . S
C682 C681 1.387 . S
C682 C683 1.369 . S
C682 H691 0.929 . S
C683 N680 1.346 . S
C683 C682 1.369 . S
C683 H686 0.928 . S
C684 N680 1.345 . S
C684 C685 1.371 . S
C684 H687 0.931 . S
C685 C681 1.391 . S
C685 C684 1.371 . S
C685 H692 0.930 . S
H686 C683 0.928 . S
H687 C684 0.931 . S
H688 C664 0.930 . S
H689 C661 0.930 . S
H690 C670 0.930 . S
H691 C682 0.929 . S
H692 C685 0.930 . S
C693 C694 1.351 1_554 S
C693 N696 1.368 . S
C693 H698 0.931 . S
C694 C693 1.351 1_556 S
C694 N695 1.373 . S
C694 H722 0.930 . S
N695 C694 1.373 . S
N695 C697 1.340 1_556 S
N696 C693 1.368 . S
N696 C697 1.321 . S
N696 Co699 2.135 . S
C697 N695 1.340 1_554 S
C697 N696 1.321 . S
C697 H721 0.930 . S
H698 C693 0.931 . S
Co699 N696 2.135 . S
Co699 N702 2.121 . S
Co699 O707 2.055 . S
Co699 O710 2.039 . S
Co699 N713 2.140 . S
C700 O701 1.227 . S
C700 O710 1.265 . S
O701 C700 1.227 . S
N702 Co699 2.121 . S
N702 C704 1.375 . S
N702 C705 1.313 . S
C703 C704 1.338 . S
C703 N706 1.377 . S
C703 H723 0.930 . S
C704 N702 1.375 . S
C704 C703 1.338 . S
C704 H708 0.931 . S
C705 N702 1.313 . S
C705 N706 1.344 . S
C705 H709 0.930 . S
N706 C703 1.377 . S
N706 C705 1.344 . S
O707 Co699 2.055 . S
O707 C711 1.253 . S
H708 C704 0.931 . S
H709 C705 0.930 . S
O710 Co699 2.039 . S
O710 C700 1.265 . S
C711 O707 1.253 . S
C711 O712 1.227 . S
O712 C711 1.227 . S
N713 Co699 2.140 . S
N713 C716 1.346 . S
N713 C717 1.345 . S
C714 C715 1.387 . S
C714 C718 1.391 . S
C715 C714 1.387 . S
C715 C716 1.369 . S
C715 H724 0.929 . S
C716 N713 1.346 . S
C716 C715 1.369 . S
C716 H719 0.928 . S
C717 N713 1.345 . S
C717 C718 1.371 . S
C717 H720 0.931 . S
C718 C714 1.391 . S
C718 C717 1.371 . S
C718 H725 0.930 . S
H719 C716 0.928 . S
H720 C717 0.931 . S
H721 C697 0.930 . S
H722 C694 0.930 . S
H723 C703 0.930 . S
H724 C715 0.929 . S
H725 C718 0.930 . S
C726 C727 1.351 . S
C726 N729 1.368 . S
C726 H731 0.931 . S
C727 C726 1.351 . S
C727 N728 1.373 . S
C727 H755 0.930 . S
N728 C727 1.373 . S
N728 C730 1.340 . S
N729 C726 1.368 . S
N729 C730 1.321 . S
N729 Co732 2.135 . S
C730 N728 1.340 . S
C730 N729 1.321 . S
C730 H754 0.930 . S
H731 C726 0.931 . S
Co732 N729 2.135 . S
Co732 N735 2.121 . S
Co732 O740 2.055 . S
Co732 O743 2.039 . S
Co732 N746 2.140 . S
C733 O734 1.227 . S
C733 O743 1.265 . S
O734 C733 1.227 . S
N735 Co732 2.121 . S
N735 C737 1.375 . S
N735 C738 1.313 . S
C736 C737 1.338 . S
C736 N739 1.377 . S
C736 H756 0.930 . S
C737 N735 1.375 . S
C737 C736 1.338 . S
C737 H741 0.931 . S
C738 N735 1.313 . S
C738 N739 1.344 . S
C738 H742 0.930 . S
N739 C736 1.377 . S
N739 C738 1.344 . S
O740 Co732 2.055 . S
O740 C744 1.253 . S
H741 C737 0.931 . S
H742 C738 0.930 . S
O743 Co732 2.039 . S
O743 C733 1.265 . S
C744 O740 1.253 . S
C744 O745 1.227 . S
O745 C744 1.227 . S
N746 Co732 2.140 . S
N746 C749 1.346 . S
N746 C750 1.345 . S
C747 C748 1.387 . S
C747 C751 1.391 . S
C748 C747 1.387 . S
C748 C749 1.369 . S
C748 H757 0.929 . S
C749 N746 1.346 . S
C749 C748 1.369 . S
C749 H752 0.928 . S
C750 N746 1.345 . S
C750 C751 1.371 . S
C750 H753 0.931 . S
C751 C747 1.391 . S
C751 C750 1.371 . S
C751 H758 0.930 . S
H752 C749 0.928 . S
H753 C750 0.931 . S
H754 C730 0.930 . S
H755 C727 0.930 . S
H756 C736 0.930 . S
H757 C748 0.929 . S
H758 C751 0.930 . S
C759 C760 1.351 . S
C759 N762 1.368 . S
C759 H764 0.931 . S
C760 C759 1.351 . S
C760 N761 1.373 . S
C760 H788 0.930 . S
N761 C760 1.373 . S
N761 C763 1.340 . S
N762 C759 1.368 . S
N762 C763 1.321 . S
N762 Co765 2.135 . S
C763 N761 1.340 . S
C763 N762 1.321 . S
C763 H787 0.930 . S
H764 C759 0.931 . S
Co765 N762 2.135 . S
Co765 N768 2.121 . S
Co765 O773 2.055 . S
Co765 O776 2.039 . S
Co765 N779 2.140 . S
C766 O767 1.227 . S
C766 O776 1.265 . S
O767 C766 1.227 . S
N768 Co765 2.121 . S
N768 C770 1.375 . S
N768 C771 1.313 . S
C769 C770 1.338 . S
C769 N772 1.377 . S
C769 H789 0.930 . S
C770 N768 1.375 . S
C770 C769 1.338 . S
C770 H774 0.931 . S
C771 N768 1.313 . S
C771 N772 1.344 . S
C771 H775 0.930 . S
N772 C769 1.377 . S
N772 C771 1.344 . S
O773 Co765 2.055 . S
O773 C777 1.253 . S
H774 C770 0.931 . S
H775 C771 0.930 . S
O776 Co765 2.039 . S
O776 C766 1.265 . S
C777 O773 1.253 . S
C777 O778 1.227 . S
O778 C777 1.227 . S
N779 Co765 2.140 . S
N779 C782 1.346 . S
N779 C783 1.345 . S
C780 C781 1.387 . S
C780 C784 1.391 . S
C781 C780 1.387 . S
C781 C782 1.369 . S
C781 H790 0.929 . S
C782 N779 1.346 . S
C782 C781 1.369 . S
C782 H785 0.928 . S
C783 N779 1.345 . S
C783 C784 1.371 . S
C783 H786 0.931 . S
C784 C780 1.391 . S
C784 C783 1.371 . S
C784 H791 0.930 . S
H785 C782 0.928 . S
H786 C783 0.931 . S
H787 C763 0.930 . S
H788 C760 0.930 . S
H789 C769 0.930 . S
H790 C781 0.929 . S
H791 C784 0.930 . S
C792 C793 1.363 . S
C792 C798 1.379 . S
C792 N800 1.356 . S
C793 C792 1.363 . S
C793 C799 1.363 . S
C794 C795 1.363 . S
C794 C799 1.379 . S
C794 N801 1.356 . S
C795 C794 1.363 . S
C795 C798 1.363 . S
N796 C798 1.356 . S
N796 H808 0.984 . S
N796 H809 0.985 . S
N797 C799 1.356 . S
N797 H802 0.984 . S
N797 H803 0.985 . S
C798 C792 1.379 . S
C798 C795 1.363 . S
C798 N796 1.356 . S
C799 C793 1.363 . S
C799 C794 1.379 . S
C799 N797 1.356 . S
N800 C792 1.356 . S
N800 H806 0.984 . S
N800 H807 0.984 . S
N801 C794 1.356 . S
N801 H804 0.984 . S
N801 H805 0.985 . S
H802 N797 0.984 . S
H803 N797 0.985 . S
H804 N801 0.984 . S
H805 N801 0.985 . S
H806 N800 0.984 . S
H807 N800 0.984 . S
H808 N796 0.984 . S
H809 N796 0.985 . S
C810 C811 1.363 . S
C810 C816 1.379 . S
C810 N818 1.356 1_655 S
C811 C810 1.363 . S
C811 C817 1.363 . S
C812 C813 1.363 . S
C812 C817 1.379 . S
C812 N819 1.356 . S
C813 C812 1.363 . S
C813 C816 1.363 . S
N814 C816 1.356 . S
N814 H826 0.984 . S
N814 H827 0.985 . S
N815 C817 1.356 . S
N815 H820 0.984 . S
N815 H821 0.985 . S
C816 C810 1.379 . S
C816 C813 1.363 . S
C816 N814 1.356 . S
C817 C811 1.363 . S
C817 C812 1.379 . S
C817 N815 1.356 . S
N818 C810 1.356 1_455 S
N818 H824 0.984 . S
N818 H825 0.984 . S
N819 C812 1.356 . S
N819 H822 0.984 . S
N819 H823 0.985 . S
H820 N815 0.984 . S
H821 N815 0.985 . S
H822 N819 0.984 . S
H823 N819 0.985 . S
H824 N818 0.984 . S
H825 N818 0.984 . S
H826 N814 0.984 . S
H827 N814 0.985 . S
C828 C829 1.363 . S
C828 C834 1.379 . S
C828 N836 1.356 . S
C829 C828 1.363 . S
C829 C835 1.363 . S
C830 C831 1.363 . S
C830 C835 1.379 . S
C830 N837 1.356 . S
C831 C830 1.363 . S
C831 C834 1.363 . S
N832 C834 1.356 . S
N832 H844 0.984 . S
N832 H845 0.985 . S
N833 C835 1.356 . S
N833 H838 0.984 . S
N833 H839 0.985 . S
C834 C828 1.379 . S
C834 C831 1.363 . S
C834 N832 1.356 . S
C835 C829 1.363 . S
C835 C830 1.379 . S
C835 N833 1.356 . S
N836 C828 1.356 . S
N836 H842 0.984 . S
N836 H843 0.984 . S
N837 C830 1.356 . S
N837 H840 0.984 . S
N837 H841 0.985 . S
H838 N833 0.984 . S
H839 N833 0.985 . S
H840 N837 0.984 . S
H841 N837 0.985 . S
H842 N836 0.984 . S
H843 N836 0.984 . S
H844 N832 0.984 . S
H845 N832 0.985 . S
C846 C847 1.363 . S
C846 C852 1.379 . S
C846 N854 1.356 . S
C847 C846 1.363 . S
C847 C853 1.363 . S
C848 C849 1.363 . S
C848 C853 1.379 . S
C848 N855 1.356 . S
C849 C848 1.363 . S
C849 C852 1.363 . S
N850 C852 1.356 . S
N850 H862 0.984 . S
N850 H863 0.985 . S
N851 C853 1.356 . S
N851 H856 0.984 . S
N851 H857 0.985 . S
C852 C846 1.379 . S
C852 C849 1.363 . S
C852 N850 1.356 . S
C853 C847 1.363 . S
C853 C848 1.379 . S
C853 N851 1.356 . S
N854 C846 1.356 . S
N854 H860 0.984 . S
N854 H861 0.984 . S
N855 C848 1.356 . S
N855 H858 0.984 . S
N855 H859 0.985 . S
H856 N851 0.984 . S
H857 N851 0.985 . S
H858 N855 0.984 . S
H859 N855 0.985 . S
H860 N854 0.984 . S
H861 N854 0.984 . S
H862 N850 0.984 . S
H863 N850 0.985 . S
C864 C865 1.363 . S
C864 C870 1.379 . S
C864 N872 1.356 . S
C865 C864 1.363 . S
C865 C871 1.363 . S
C866 C867 1.363 . S
C866 C871 1.379 . S
C866 N873 1.356 . S
C867 C866 1.363 . S
C867 C870 1.363 . S
N868 C870 1.356 . S
N868 H880 0.984 . S
N868 H881 0.985 . S
N869 C871 1.356 . S
N869 H874 0.984 . S
N869 H875 0.985 . S
C870 C864 1.379 . S
C870 C867 1.363 . S
C870 N868 1.356 . S
C871 C865 1.363 . S
C871 C866 1.379 . S
C871 N869 1.356 . S
N872 C864 1.356 . S
N872 H878 0.984 . S
N872 H879 0.984 . S
N873 C866 1.356 . S
N873 H876 0.984 . S
N873 H877 0.985 . S
H874 N869 0.984 . S
H875 N869 0.985 . S
H876 N873 0.984 . S
H877 N873 0.985 . S
H878 N872 0.984 . S
H879 N872 0.984 . S
H880 N868 0.984 . S
H881 N868 0.985 . S
C882 C883 1.363 . S
C882 C888 1.379 . S
C882 N890 1.356 1_455 S
C883 C882 1.363 . S
C883 C889 1.363 . S
C884 C885 1.363 . S
C884 C889 1.379 . S
C884 N891 1.356 . S
C885 C884 1.363 . S
C885 C888 1.363 . S
N886 C888 1.356 . S
N886 H898 0.984 . S
N886 H899 0.985 . S
N887 C889 1.356 . S
N887 H892 0.984 . S
N887 H893 0.985 . S
C888 C882 1.379 . S
C888 C885 1.363 . S
C888 N886 1.356 . S
C889 C883 1.363 . S
C889 C884 1.379 . S
C889 N887 1.356 . S
N890 C882 1.356 1_655 S
N890 H896 0.984 . S
N890 H897 0.984 . S
N891 C884 1.356 . S
N891 H894 0.984 . S
N891 H895 0.985 . S
H892 N887 0.984 . S
H893 N887 0.985 . S
H894 N891 0.984 . S
H895 N891 0.985 . S
H896 N890 0.984 . S
H897 N890 0.984 . S
H898 N886 0.984 . S
H899 N886 0.985 . S
C900 C901 1.363 . S
C900 C906 1.379 . S
C900 N908 1.356 . S
C901 C900 1.363 . S
C901 C907 1.363 . S
C902 C903 1.363 . S
C902 C907 1.379 . S
C902 N909 1.356 . S
C903 C902 1.363 . S
C903 C906 1.363 . S
N904 C906 1.356 . S
N904 H916 0.984 . S
N904 H917 0.985 . S
N905 C907 1.356 . S
N905 H910 0.984 . S
N905 H911 0.985 . S
C906 C900 1.379 . S
C906 C903 1.363 . S
C906 N904 1.356 . S
C907 C901 1.363 . S
C907 C902 1.379 . S
C907 N905 1.356 . S
N908 C900 1.356 . S
N908 H914 0.984 . S
N908 H915 0.984 . S
N909 C902 1.356 . S
N909 H912 0.984 . S
N909 H913 0.985 . S
H910 N905 0.984 . S
H911 N905 0.985 . S
H912 N909 0.984 . S
H913 N909 0.985 . S
H914 N908 0.984 . S
H915 N908 0.984 . S
H916 N904 0.984 . S
H917 N904 0.985 . S
C918 C919 1.363 . S
C918 C924 1.379 . S
C918 N926 1.356 . S
C919 C918 1.363 . S
C919 C925 1.363 . S
C920 C921 1.363 . S
C920 C925 1.379 . S
C920 N927 1.356 . S
C921 C920 1.363 . S
C921 C924 1.363 . S
N922 C924 1.356 . S
N922 H934 0.984 . S
N922 H935 0.985 . S
N923 C925 1.356 . S
N923 H928 0.984 1_655 S
N923 H929 0.985 1_655 S
C924 C918 1.379 . S
C924 C921 1.363 . S
C924 N922 1.356 . S
C925 C919 1.363 . S
C925 C920 1.379 . S
C925 N923 1.356 . S
N926 C918 1.356 . S
N926 H932 0.984 . S
N926 H933 0.984 . S
N927 C920 1.356 . S
N927 H930 0.984 . S
N927 H931 0.985 . S
H928 N923 0.984 1_455 S
H929 N923 0.985 1_455 S
H930 N927 0.984 . S
H931 N927 0.985 . S
H932 N926 0.984 . S
H933 N926 0.984 . S
H934 N922 0.984 . S
H935 N922 0.985 . S
C936 C937 1.363 . S
C936 C942 1.379 . S
C936 N944 1.356 . S
C937 C936 1.363 . S
C937 C943 1.363 . S
C938 C939 1.363 . S
C938 C943 1.379 . S
C938 N945 1.356 . S
C939 C938 1.363 . S
C939 C942 1.363 . S
N940 C942 1.356 . S
N940 H952 0.984 . S
N940 H953 0.985 . S
N941 C943 1.356 . S
N941 H946 0.984 . S
N941 H947 0.985 . S
C942 C936 1.379 . S
C942 C939 1.363 . S
C942 N940 1.356 . S
C943 C937 1.363 . S
C943 C938 1.379 . S
C943 N941 1.356 . S
N944 C936 1.356 . S
N944 H950 0.984 . S
N944 H951 0.984 . S
N945 C938 1.356 . S
N945 H948 0.984 . S
N945 H949 0.985 . S
H946 N941 0.984 . S
H947 N941 0.985 . S
H948 N945 0.984 . S
H949 N945 0.985 . S
H950 N944 0.984 . S
H951 N944 0.984 . S
H952 N940 0.984 . S
H953 N940 0.985 . S
C954 C955 1.363 . S
C954 C960 1.379 . S
C954 N962 1.356 . S
C955 C954 1.363 . S
C955 C961 1.363 . S
C956 C957 1.363 . S
C956 C961 1.379 . S
C956 N963 1.356 . S
C957 C956 1.363 . S
C957 C960 1.363 . S
N958 C960 1.356 1_556 S
N958 H970 0.984 . S
N958 H971 0.985 . S
N959 C961 1.356 . S
N959 H964 0.984 . S
N959 H965 0.985 . S
C960 C954 1.379 . S
C960 C957 1.363 . S
C960 N958 1.356 1_554 S
C961 C955 1.363 . S
C961 C956 1.379 . S
C961 N959 1.356 . S
N962 C954 1.356 . S
N962 H968 0.984 . S
N962 H969 0.984 . S
N963 C956 1.356 . S
N963 H966 0.984 . S
N963 H967 0.985 . S
H964 N959 0.984 . S
H965 N959 0.985 . S
H966 N963 0.984 . S
H967 N963 0.985 . S
H968 N962 0.984 . S
H969 N962 0.984 . S
H970 N958 0.984 . S
H971 N958 0.985 . S
C972 C973 1.363 . S
C972 C978 1.379 . S
C972 N980 1.356 . S
C973 C972 1.363 . S
C973 C979 1.363 . S
C974 C975 1.363 . S
C974 C979 1.379 . S
C974 N981 1.356 . S
C975 C974 1.363 . S
C975 C978 1.363 . S
N976 C978 1.356 . S
N976 H988 0.984 . S
N976 H989 0.985 . S
N977 C979 1.356 . S
N977 H982 0.984 . S
N977 H983 0.985 . S
C978 C972 1.379 . S
C978 C975 1.363 . S
C978 N976 1.356 . S
C979 C973 1.363 . S
C979 C974 1.379 . S
C979 N977 1.356 . S
N980 C972 1.356 . S
N980 H986 0.984 . S
N980 H987 0.984 . S
N981 C974 1.356 . S
N981 H984 0.984 . S
N981 H985 0.985 . S
H982 N977 0.984 . S
H983 N977 0.985 . S
H984 N981 0.984 . S
H985 N981 0.985 . S
H986 N980 0.984 . S
H987 N980 0.984 . S
H988 N976 0.984 . S
H989 N976 0.985 . S
C990 C991 1.363 . S
C990 C996 1.379 . S
C990 N998 1.356 . S
C991 C990 1.363 . S
C991 C997 1.363 . S
C992 C993 1.363 . S
C992 C997 1.379 . S
C992 N999 1.356 . S
C993 C992 1.363 . S
C993 C996 1.363 . S
N994 C996 1.356 . S
N994 H1006 0.984 . S
N994 H1007 0.985 . S
N995 C997 1.356 . S
N995 H1000 0.984 . S
N995 H1001 0.985 . S
C996 C990 1.379 . S
C996 C993 1.363 . S
C996 N994 1.356 . S
C997 C991 1.363 . S
C997 C992 1.379 . S
C997 N995 1.356 . S
N998 C990 1.356 . S
N998 H1004 0.984 1_554 S
N998 H1005 0.984 1_554 S
N999 C992 1.356 . S
N999 H1002 0.984 . S
N999 H1003 0.985 . S
H1000 N995 0.984 . S
H1001 N995 0.985 . S
H1002 N999 0.984 . S
H1003 N999 0.985 . S
H1004 N998 0.984 1_556 S
H1005 N998 0.984 1_556 S
H1006 N994 0.984 . S
H1007 N994 0.985 . S
C1008 C1009 1.363 . S
C1008 C1014 1.379 . S
C1008 N1016 1.356 . S
C1009 C1008 1.363 . S
C1009 C1015 1.363 . S
C1010 C1011 1.363 . S
C1010 C1015 1.379 . S
C1010 N1017 1.356 . S
C1011 C1010 1.363 . S
C1011 C1014 1.363 . S
N1012 C1014 1.356 . S
N1012 H1024 0.984 . S
N1012 H1025 0.985 . S
N1013 C1015 1.356 . S
N1013 H1018 0.984 . S
N1013 H1019 0.985 . S
C1014 C1008 1.379 . S
C1014 C1011 1.363 . S
C1014 N1012 1.356 . S
C1015 C1009 1.363 . S
C1015 C1010 1.379 . S
C1015 N1013 1.356 . S
N1016 C1008 1.356 . S
N1016 H1022 0.984 . S
N1016 H1023 0.984 . S
N1017 C1010 1.356 . S
N1017 H1020 0.984 . S
N1017 H1021 0.985 . S
H1018 N1013 0.984 . S
H1019 N1013 0.985 . S
H1020 N1017 0.984 . S
H1021 N1017 0.985 . S
H1022 N1016 0.984 . S
H1023 N1016 0.984 . S
H1024 N1012 0.984 . S
H1025 N1012 0.985 . S
C1026 C1027 1.363 . S
C1026 C1032 1.379 . S
C1026 N1034 1.356 . S
C1027 C1026 1.363 . S
C1027 C1033 1.363 . S
C1028 C1029 1.363 . S
C1028 C1033 1.379 . S
C1028 N1035 1.356 1_556 S
C1029 C1028 1.363 . S
C1029 C1032 1.363 . S
N1030 C1032 1.356 . S
N1030 H1042 0.984 . S
N1030 H1043 0.985 . S
N1031 C1033 1.356 . S
N1031 H1036 0.984 . S
N1031 H1037 0.985 . S
C1032 C1026 1.379 . S
C1032 C1029 1.363 . S
C1032 N1030 1.356 . S
C1033 C1027 1.363 . S
C1033 C1028 1.379 . S
C1033 N1031 1.356 . S
N1034 C1026 1.356 . S
N1034 H1040 0.984 . S
N1034 H1041 0.984 . S
N1035 C1028 1.356 1_554 S
N1035 H1038 0.984 . S
N1035 H1039 0.985 . S
H1036 N1031 0.984 . S
H1037 N1031 0.985 . S
H1038 N1035 0.984 . S
H1039 N1035 0.985 . S
H1040 N1034 0.984 . S
H1041 N1034 0.984 . S
H1042 N1030 0.984 . S
H1043 N1030 0.985 . S
C1044 C1045 1.363 . S
C1044 C1050 1.379 . S
C1044 N1052 1.356 . S
C1045 C1044 1.363 . S
C1045 C1051 1.363 . S
C1046 C1047 1.363 . S
C1046 C1051 1.379 . S
C1046 N1053 1.356 . S
C1047 C1046 1.363 . S
C1047 C1050 1.363 . S
N1048 C1050 1.356 . S
N1048 H1060 0.984 . S
N1048 H1061 0.985 . S
N1049 C1051 1.356 . S
N1049 H1054 0.984 . S
N1049 H1055 0.985 . S
C1050 C1044 1.379 . S
C1050 C1047 1.363 . S
C1050 N1048 1.356 . S
C1051 C1045 1.363 . S
C1051 C1046 1.379 . S
C1051 N1049 1.356 . S
N1052 C1044 1.356 . S
N1052 H1058 0.984 . S
N1052 H1059 0.984 . S
N1053 C1046 1.356 . S
N1053 H1056 0.984 . S
N1053 H1057 0.985 . S
H1054 N1049 0.984 . S
H1055 N1049 0.985 . S
H1056 N1053 0.984 . S
H1057 N1053 0.985 . S
H1058 N1052 0.984 . S
H1059 N1052 0.984 . S
H1060 N1048 0.984 . S
H1061 N1048 0.985 . S
C1062 C1063 1.363 . S
C1062 C1068 1.379 . S
C1062 N1070 1.356 1_556 S
C1063 C1062 1.363 . S
C1063 C1069 1.363 . S
C1064 C1065 1.363 . S
C1064 C1069 1.379 . S
C1064 N1071 1.356 . S
C1065 C1064 1.363 . S
C1065 C1068 1.363 . S
N1066 C1068 1.356 . S
N1066 H1078 0.984 . S
N1066 H1079 0.985 . S
N1067 C1069 1.356 . S
N1067 H1072 0.984 . S
N1067 H1073 0.985 . S
C1068 C1062 1.379 . S
C1068 C1065 1.363 . S
C1068 N1066 1.356 . S
C1069 C1063 1.363 . S
C1069 C1064 1.379 . S
C1069 N1067 1.356 . S
N1070 C1062 1.356 1_554 S
N1070 H1076 0.984 . S
N1070 H1077 0.984 . S
N1071 C1064 1.356 . S
N1071 H1074 0.984 . S
N1071 H1075 0.985 . S
H1072 N1067 0.984 . S
H1073 N1067 0.985 . S
H1074 N1071 0.984 . S
H1075 N1071 0.985 . S
H1076 N1070 0.984 . S
H1077 N1070 0.984 . S
H1078 N1066 0.984 . S
H1079 N1066 0.985 . S
C1080 C1081 1.363 . S
C1080 C1086 1.379 . S
C1080 N1088 1.356 . S
C1081 C1080 1.363 . S
C1081 C1087 1.363 . S
C1082 C1083 1.363 . S
C1082 C1087 1.379 . S
C1082 N1089 1.356 . S
C1083 C1082 1.363 . S
C1083 C1086 1.363 . S
N1084 C1086 1.356 . S
N1084 H1096 0.984 . S
N1084 H1097 0.985 . S
N1085 C1087 1.356 . S
N1085 H1090 0.984 . S
N1085 H1091 0.985 . S
C1086 C1080 1.379 . S
C1086 C1083 1.363 . S
C1086 N1084 1.356 . S
C1087 C1081 1.363 . S
C1087 C1082 1.379 . S
C1087 N1085 1.356 . S
N1088 C1080 1.356 . S
N1088 H1094 0.984 . S
N1088 H1095 0.984 . S
N1089 C1082 1.356 . S
N1089 H1092 0.984 . S
N1089 H1093 0.985 . S
H1090 N1085 0.984 . S
H1091 N1085 0.985 . S
H1092 N1089 0.984 . S
H1093 N1089 0.985 . S
H1094 N1088 0.984 . S
H1095 N1088 0.984 . S
H1096 N1084 0.984 . S
H1097 N1084 0.985 . S
C1098 C1099 1.363 . S
C1098 C1104 1.379 . S
C1098 N1106 1.356 . S
C1099 C1098 1.363 . S
C1099 C1105 1.363 . S
C1100 C1101 1.363 . S
C1100 C1105 1.379 . S
C1100 N1107 1.356 . S
C1101 C1100 1.363 . S
C1101 C1104 1.363 . S
N1102 C1104 1.356 . S
N1102 H1114 0.984 . S
N1102 H1115 0.985 . S
N1103 C1105 1.356 . S
N1103 H1108 0.984 . S
N1103 H1109 0.985 . S
C1104 C1098 1.379 . S
C1104 C1101 1.363 . S
C1104 N1102 1.356 . S
C1105 C1099 1.363 . S
C1105 C1100 1.379 . S
C1105 N1103 1.356 . S
N1106 C1098 1.356 . S
N1106 H1112 0.984 . S
N1106 H1113 0.984 . S
N1107 C1100 1.356 . S
N1107 H1110 0.984 . S
N1107 H1111 0.985 . S
H1108 N1103 0.984 . S
H1109 N1103 0.985 . S
H1110 N1107 0.984 . S
H1111 N1107 0.985 . S
H1112 N1106 0.984 . S
H1113 N1106 0.984 . S
H1114 N1102 0.984 . S
H1115 N1102 0.985 . S
C1116 C1117 1.363 . S
C1116 C1122 1.379 . S
C1116 N1124 1.356 . S
C1117 C1116 1.363 . S
C1117 C1123 1.363 . S
C1118 C1119 1.363 . S
C1118 C1123 1.379 . S
C1118 N1125 1.356 . S
C1119 C1118 1.363 . S
C1119 C1122 1.363 . S
N1120 C1122 1.356 . S
N1120 H1132 0.984 . S
N1120 H1133 0.985 . S
N1121 C1123 1.356 1_565 S
N1121 H1126 0.984 . S
N1121 H1127 0.985 . S
C1122 C1116 1.379 . S
C1122 C1119 1.363 . S
C1122 N1120 1.356 . S
C1123 C1117 1.363 . S
C1123 C1118 1.379 . S
C1123 N1121 1.356 1_545 S
N1124 C1116 1.356 . S
N1124 H1130 0.984 . S
N1124 H1131 0.984 . S
N1125 C1118 1.356 . S
N1125 H1128 0.984 . S
N1125 H1129 0.985 . S
H1126 N1121 0.984 . S
H1127 N1121 0.985 . S
H1128 N1125 0.984 . S
H1129 N1125 0.985 . S
H1130 N1124 0.984 . S
H1131 N1124 0.984 . S
H1132 N1120 0.984 . S
H1133 N1120 0.985 . S
C1134 C1135 1.363 . S
C1134 C1140 1.379 . S
C1134 N1142 1.356 . S
C1135 C1134 1.363 . S
C1135 C1141 1.363 . S
C1136 C1137 1.363 . S
C1136 C1141 1.379 . S
C1136 N1143 1.356 . S
C1137 C1136 1.363 . S
C1137 C1140 1.363 . S
N1138 C1140 1.356 . S
N1138 H1150 0.984 . S
N1138 H1151 0.985 . S
N1139 C1141 1.356 . S
N1139 H1144 0.984 . S
N1139 H1145 0.985 . S
C1140 C1134 1.379 . S
C1140 C1137 1.363 . S
C1140 N1138 1.356 . S
C1141 C1135 1.363 . S
C1141 C1136 1.379 . S
C1141 N1139 1.356 . S
N1142 C1134 1.356 . S
N1142 H1148 0.984 . S
N1142 H1149 0.984 . S
N1143 C1136 1.356 . S
N1143 H1146 0.984 . S
N1143 H1147 0.985 . S
H1144 N1139 0.984 . S
H1145 N1139 0.985 . S
H1146 N1143 0.984 . S
H1147 N1143 0.985 . S
H1148 N1142 0.984 . S
H1149 N1142 0.984 . S
H1150 N1138 0.984 . S
H1151 N1138 0.985 . S
C1152 C1153 1.363 . S
C1152 C1158 1.379 . S
C1152 N1160 1.356 . S
C1153 C1152 1.363 . S
C1153 C1159 1.363 . S
C1154 C1155 1.363 . S
C1154 C1159 1.379 . S
C1154 N1161 1.356 . S
C1155 C1154 1.363 . S
C1155 C1158 1.363 . S
N1156 C1158 1.356 . S
N1156 H1168 0.984 . S
N1156 H1169 0.985 . S
N1157 C1159 1.380 . S
N1157 H1162 0.971 1_565 S
N1157 H1163 0.975 1_565 S
C1158 C1152 1.379 . S
C1158 C1155 1.363 . S
C1158 N1156 1.356 . S
C1159 C1153 1.363 . S
C1159 C1154 1.379 . S
C1159 N1157 1.380 . S
N1160 C1152 1.356 . S
N1160 H1166 0.984 . S
N1160 H1167 0.984 . S
N1161 C1154 1.356 . S
N1161 H1164 0.984 . S
N1161 H1165 0.985 . S
H1162 N1157 0.971 1_545 S
H1163 N1157 0.975 1_545 S
H1164 N1161 0.984 . S
H1165 N1161 0.985 . S
H1166 N1160 0.984 . S
H1167 N1160 0.984 . S
H1168 N1156 0.984 . S
H1169 N1156 0.985 . S
C1170 C1171 1.363 . S
C1170 C1176 1.379 . S
C1170 N1178 1.356 . S
C1171 C1170 1.363 . S
C1171 C1177 1.363 . S
C1172 C1173 1.363 . S
C1172 C1177 1.379 . S
C1172 N1179 1.356 . S
C1173 C1172 1.363 . S
C1173 C1176 1.363 . S
N1174 C1176 1.356 . S
N1174 H1186 0.984 . S
N1174 H1187 0.985 . S
N1175 C1177 1.356 . S
N1175 H1180 0.984 . S
N1175 H1181 0.985 . S
C1176 C1170 1.379 . S
C1176 C1173 1.363 . S
C1176 N1174 1.356 . S
C1177 C1171 1.363 . S
C1177 C1172 1.379 . S
C1177 N1175 1.356 . S
N1178 C1170 1.356 . S
N1178 H1184 0.984 . S
N1178 H1185 0.984 . S
N1179 C1172 1.356 . S
N1179 H1182 0.984 . S
N1179 H1183 0.985 . S
H1180 N1175 0.984 . S
H1181 N1175 0.985 . S
H1182 N1179 0.984 . S
H1183 N1179 0.985 . S
H1184 N1178 0.984 . S
H1185 N1178 0.984 . S
H1186 N1174 0.984 . S
H1187 N1174 0.985 . S
C1188 C1189 1.363 . S
C1188 C1194 1.379 . S
C1188 N1196 1.356 . S
C1189 C1188 1.363 . S
C1189 C1195 1.363 . S
C1190 C1191 1.363 . S
C1190 C1195 1.379 . S
C1190 N1197 1.356 . S
C1191 C1190 1.363 . S
C1191 C1194 1.363 . S
N1192 C1194 1.356 . S
N1192 H1204 0.984 . S
N1192 H1205 0.985 . S
N1193 C1195 1.356 1_545 S
N1193 H1198 0.984 . S
N1193 H1199 0.985 . S
C1194 C1188 1.379 . S
C1194 C1191 1.363 . S
C1194 N1192 1.356 . S
C1195 C1189 1.363 . S
C1195 C1190 1.379 . S
C1195 N1193 1.356 1_565 S
N1196 C1188 1.356 . S
N1196 H1202 0.984 . S
N1196 H1203 0.984 . S
N1197 C1190 1.356 . S
N1197 H1200 0.984 . S
N1197 H1201 0.985 . S
H1198 N1193 0.984 . S
H1199 N1193 0.985 . S
H1200 N1197 0.984 . S
H1201 N1197 0.985 . S
H1202 N1196 0.984 . S
H1203 N1196 0.984 . S
H1204 N1192 0.984 . S
H1205 N1192 0.985 . S
C1206 C1207 1.363 . S
C1206 C1212 1.379 . S
C1206 N1214 1.356 . S
C1207 C1206 1.363 . S
C1207 C1213 1.363 . S
C1208 C1209 1.363 . S
C1208 C1213 1.379 . S
C1208 N1215 1.356 . S
C1209 C1208 1.363 . S
C1209 C1212 1.363 . S
N1210 C1212 1.356 . S
N1210 H1222 0.984 . S
N1210 H1223 0.985 . S
N1211 C1213 1.356 1_565 S
N1211 H1216 0.984 . S
N1211 H1217 0.985 . S
C1212 C1206 1.379 . S
C1212 C1209 1.363 . S
C1212 N1210 1.356 . S
C1213 C1207 1.363 . S
C1213 C1208 1.379 . S
C1213 N1211 1.356 1_545 S
N1214 C1206 1.356 . S
N1214 H1220 0.984 . S
N1214 H1221 0.984 . S
N1215 C1208 1.356 . S
N1215 H1218 0.984 . S
N1215 H1219 0.985 . S
H1216 N1211 0.984 . S
H1217 N1211 0.985 . S
H1218 N1215 0.984 . S
H1219 N1215 0.985 . S
H1220 N1214 0.984 . S
H1221 N1214 0.984 . S
H1222 N1210 0.984 . S
H1223 N1210 0.985 . S
C1224 C1225 1.363 . S
C1224 C1230 1.379 1_556 S
C1224 N1232 1.356 . S
C1225 C1224 1.363 . S
C1225 C1231 1.363 1_655 S
C1226 C1227 1.363 . S
C1226 C1231 1.379 1_554 S
C1226 N1233 1.356 . S
C1227 C1226 1.363 . S
C1227 C1230 1.363 1_455 S
N1228 C1230 1.356 . S
N1228 H1240 0.984 . S
N1228 H1241 0.985 . S
N1229 C1231 1.356 . S
N1229 H1234 0.984 . S
N1229 H1235 0.985 . S
C1230 C1224 1.379 1_554 S
C1230 C1227 1.363 1_655 S
C1230 N1228 1.356 . S
C1231 C1225 1.363 1_455 S
C1231 C1226 1.379 1_556 S
C1231 N1229 1.356 . S
N1232 C1224 1.356 . S
N1232 H1238 0.984 . S
N1232 H1239 0.984 . S
N1233 C1226 1.356 . S
N1233 H1236 0.984 . S
N1233 H1237 0.985 . S
H1234 N1229 0.984 . S
H1235 N1229 0.985 . S
H1236 N1233 0.984 . S
H1237 N1233 0.985 . S
H1238 N1232 0.984 . S
H1239 N1232 0.984 . S
H1240 N1228 0.984 . S
H1241 N1228 0.985 . S
C1242 C1243 1.363 . S
C1242 C1248 1.379 . S
C1242 N1250 1.356 . S
C1243 C1242 1.363 . S
C1243 C1249 1.363 . S
C1244 C1245 1.363 . S
C1244 C1249 1.379 . S
C1244 N1251 1.356 . S
C1245 C1244 1.363 . S
C1245 C1248 1.363 . S
N1246 C1248 1.356 . S
N1246 H1258 0.984 . S
N1246 H1259 0.985 . S
N1247 C1249 1.356 . S
N1247 H1252 0.984 . S
N1247 H1253 0.985 . S
C1248 C1242 1.379 . S
C1248 C1245 1.363 . S
C1248 N1246 1.356 . S
C1249 C1243 1.363 . S
C1249 C1244 1.379 . S
C1249 N1247 1.356 . S
N1250 C1242 1.356 . S
N1250 H1256 0.984 . S
N1250 H1257 0.984 . S
N1251 C1244 1.356 . S
N1251 H1254 0.984 . S
N1251 H1255 0.985 . S
H1252 N1247 0.984 . S
H1253 N1247 0.985 . S
H1254 N1251 0.984 . S
H1255 N1251 0.985 . S
H1256 N1250 0.984 . S
H1257 N1250 0.984 . S
H1258 N1246 0.984 . S
H1259 N1246 0.985 . S
C1260 C1261 1.363 1_655 S
C1260 C1266 1.379 1_556 S
C1260 N1268 1.356 . S
C1261 C1260 1.363 1_455 S
C1261 C1267 1.363 . S
C1262 C1263 1.363 1_455 S
C1262 C1267 1.379 1_554 S
C1262 N1269 1.356 . S
C1263 C1262 1.363 1_655 S
C1263 C1266 1.363 . S
N1264 C1266 1.356 . S
N1264 H1276 0.984 . S
N1264 H1277 0.985 . S
N1265 C1267 1.356 . S
N1265 H1270 0.984 . S
N1265 H1271 0.985 . S
C1266 C1260 1.379 1_554 S
C1266 C1263 1.363 . S
C1266 N1264 1.356 . S
C1267 C1261 1.363 . S
C1267 C1262 1.379 1_556 S
C1267 N1265 1.356 . S
N1268 C1260 1.356 . S
N1268 H1274 0.984 . S
N1268 H1275 0.984 . S
N1269 C1262 1.356 . S
N1269 H1272 0.984 . S
N1269 H1273 0.985 . S
H1270 N1265 0.984 . S
H1271 N1265 0.985 . S
H1272 N1269 0.984 . S
H1273 N1269 0.985 . S
H1274 N1268 0.984 . S
H1275 N1268 0.984 . S
H1276 N1264 0.984 . S
H1277 N1264 0.985 . S
C1278 C1279 1.363 . S
C1278 C1284 1.379 . S
C1278 N1286 1.356 . S
C1279 C1278 1.363 . S
C1279 C1285 1.363 . S
C1280 C1281 1.363 . S
C1280 C1285 1.379 . S
C1280 N1287 1.356 . S
C1281 C1280 1.363 . S
C1281 C1284 1.363 . S
N1282 C1284 1.356 . S
N1282 H1294 0.984 . S
N1282 H1295 0.985 . S
N1283 C1285 1.356 . S
N1283 H1288 0.984 . S
N1283 H1289 0.985 . S
C1284 C1278 1.379 . S
C1284 C1281 1.363 . S
C1284 N1282 1.356 . S
C1285 C1279 1.363 . S
C1285 C1280 1.379 . S
C1285 N1283 1.356 . S
N1286 C1278 1.356 . S
N1286 H1292 0.984 . S
N1286 H1293 0.984 . S
N1287 C1280 1.356 . S
N1287 H1290 0.984 . S
N1287 H1291 0.985 . S
H1288 N1283 0.984 . S
H1289 N1283 0.985 . S
H1290 N1287 0.984 . S
H1291 N1287 0.985 . S
H1292 N1286 0.984 . S
H1293 N1286 0.984 . S
H1294 N1282 0.984 . S
H1295 N1282 0.985 . S
C1296 C1297 1.363 1_545 S
C1296 C1302 1.379 1_655 S
C1296 N1304 1.356 . S
C1297 C1296 1.363 1_565 S
C1297 C1303 1.363 . S
C1298 C1299 1.363 1_565 S
C1298 C1303 1.379 1_455 S
C1298 N1305 1.356 . S
C1299 C1298 1.363 1_545 S
C1299 C1302 1.363 . S
N1300 C1302 1.356 . S
N1300 H1312 0.984 . S
N1300 H1313 0.985 . S
N1301 C1303 1.356 . S
N1301 H1306 0.984 . S
N1301 H1307 0.985 . S
C1302 C1296 1.379 1_455 S
C1302 C1299 1.363 . S
C1302 N1300 1.356 . S
C1303 C1297 1.363 . S
C1303 C1298 1.379 1_655 S
C1303 N1301 1.356 . S
N1304 C1296 1.356 . S
N1304 H1310 0.984 . S
N1304 H1311 0.984 . S
N1305 C1298 1.356 . S
N1305 H1308 0.984 . S
N1305 H1309 0.985 . S
H1306 N1301 0.984 . S
H1307 N1301 0.985 . S
H1308 N1305 0.984 . S
H1309 N1305 0.985 . S
H1310 N1304 0.984 . S
H1311 N1304 0.984 . S
H1312 N1300 0.984 . S
H1313 N1300 0.985 . S
C1314 C1315 1.363 . S
C1314 C1320 1.379 . S
C1314 N1322 1.356 . S
C1315 C1314 1.363 . S
C1315 C1321 1.363 . S
C1316 C1317 1.363 . S
C1316 C1321 1.379 . S
C1316 N1323 1.356 . S
C1317 C1316 1.363 . S
C1317 C1320 1.363 . S
N1318 C1320 1.356 . S
N1318 H1330 0.984 . S
N1318 H1331 0.985 . S
N1319 C1321 1.356 . S
N1319 H1324 0.984 . S
N1319 H1325 0.985 . S
C1320 C1314 1.379 . S
C1320 C1317 1.363 . S
C1320 N1318 1.356 . S
C1321 C1315 1.363 . S
C1321 C1316 1.379 . S
C1321 N1319 1.356 . S
N1322 C1314 1.356 . S
N1322 H1328 0.984 . S
N1322 H1329 0.984 . S
N1323 C1316 1.356 . S
N1323 H1326 0.984 . S
N1323 H1327 0.985 . S
H1324 N1319 0.984 . S
H1325 N1319 0.985 . S
H1326 N1323 0.984 . S
H1327 N1323 0.985 . S
H1328 N1322 0.984 . S
H1329 N1322 0.984 . S
H1330 N1318 0.984 . S
H1331 N1318 0.985 . S
C1332 C1333 1.363 . S
C1332 C1338 1.379 1_455 S
C1332 N1340 1.356 . S
C1333 C1332 1.363 . S
C1333 C1339 1.363 1_565 S
C1334 C1335 1.363 . S
C1334 C1339 1.379 1_655 S
C1334 N1341 1.356 . S
C1335 C1334 1.363 . S
C1335 C1338 1.363 1_545 S
N1336 C1338 1.356 . S
N1336 H1348 0.984 . S
N1336 H1349 0.985 . S
N1337 C1339 1.356 . S
N1337 H1342 0.984 . S
N1337 H1343 0.985 . S
C1338 C1332 1.379 1_655 S
C1338 C1335 1.363 1_565 S
C1338 N1336 1.356 . S
C1339 C1333 1.363 1_545 S
C1339 C1334 1.379 1_455 S
C1339 N1337 1.356 . S
N1340 C1332 1.356 . S
N1340 H1346 0.984 . S
N1340 H1347 0.984 . S
N1341 C1334 1.356 . S
N1341 H1344 0.984 . S
N1341 H1345 0.985 . S
H1342 N1337 0.984 . S
H1343 N1337 0.985 . S
H1344 N1341 0.984 . S
H1345 N1341 0.985 . S
H1346 N1340 0.984 . S
H1347 N1340 0.984 . S
H1348 N1336 0.984 . S
H1349 N1336 0.985 . S
C1350 C1351 1.363 . S
C1350 C1356 1.379 . S
C1350 N1358 1.356 . S
C1351 C1350 1.363 . S
C1351 C1357 1.363 . S
C1352 C1353 1.363 . S
C1352 C1357 1.379 . S
C1352 N1359 1.356 . S
C1353 C1352 1.363 . S
C1353 C1356 1.363 . S
N1354 C1356 1.356 . S
N1354 H1366 0.984 . S
N1354 H1367 0.985 . S
N1355 C1357 1.356 . S
N1355 H1360 0.984 . S
N1355 H1361 0.985 . S
C1356 C1350 1.379 . S
C1356 C1353 1.363 . S
C1356 N1354 1.356 . S
C1357 C1351 1.363 . S
C1357 C1352 1.379 . S
C1357 N1355 1.356 . S
N1358 C1350 1.356 . S
N1358 H1364 0.984 . S
N1358 H1365 0.984 . S
N1359 C1352 1.356 . S
N1359 H1362 0.984 . S
N1359 H1363 0.985 . S
H1360 N1355 0.984 . S
H1361 N1355 0.985 . S
H1362 N1359 0.984 . S
H1363 N1359 0.985 . S
H1364 N1358 0.984 . S
H1365 N1358 0.984 . S
H1366 N1354 0.984 . S
H1367 N1354 0.985 . S
C1368 C1369 1.363 . S
C1368 C1374 1.379 1_545 S
C1368 N1376 1.356 . S
C1369 C1368 1.363 . S
C1369 C1375 1.363 1_554 S
C1370 C1371 1.363 . S
C1370 C1375 1.379 1_565 S
C1370 N1377 1.356 . S
C1371 C1370 1.363 . S
C1371 C1374 1.363 1_556 S
N1372 C1374 1.356 . S
N1372 H1384 0.984 . S
N1372 H1385 0.985 . S
N1373 C1375 1.356 . S
N1373 H1378 0.984 . S
N1373 H1379 0.985 . S
C1374 C1368 1.379 1_565 S
C1374 C1371 1.363 1_554 S
C1374 N1372 1.356 . S
C1375 C1369 1.363 1_556 S
C1375 C1370 1.379 1_545 S
C1375 N1373 1.356 . S
N1376 C1368 1.356 . S
N1376 H1382 0.984 . S
N1376 H1383 0.984 . S
N1377 C1370 1.356 . S
N1377 H1380 0.984 . S
N1377 H1381 0.985 . S
H1378 N1373 0.984 . S
H1379 N1373 0.985 . S
H1380 N1377 0.984 . S
H1381 N1377 0.985 . S
H1382 N1376 0.984 . S
H1383 N1376 0.984 . S
H1384 N1372 0.984 . S
H1385 N1372 0.985 . S
C1386 C1387 1.363 . S
C1386 C1392 1.379 . S
C1386 N1394 1.356 . S
C1387 C1386 1.363 . S
C1387 C1393 1.363 . S
C1388 C1389 1.363 . S
C1388 C1393 1.379 . S
C1388 N1395 1.356 . S
C1389 C1388 1.363 . S
C1389 C1392 1.363 . S
N1390 C1392 1.356 . S
N1390 H1402 0.984 . S
N1390 H1403 0.985 . S
N1391 C1393 1.356 . S
N1391 H1396 0.984 . S
N1391 H1397 0.985 . S
C1392 C1386 1.379 . S
C1392 C1389 1.363 . S
C1392 N1390 1.356 . S
C1393 C1387 1.363 . S
C1393 C1388 1.379 . S
C1393 N1391 1.356 . S
N1394 C1386 1.356 . S
N1394 H1400 0.984 . S
N1394 H1401 0.984 . S
N1395 C1388 1.356 . S
N1395 H1398 0.984 . S
N1395 H1399 0.985 . S
H1396 N1391 0.984 . S
H1397 N1391 0.985 . S
H1398 N1395 0.984 . S
H1399 N1395 0.985 . S
H1400 N1394 0.984 . S
H1401 N1394 0.984 . S
H1402 N1390 0.984 . S
H1403 N1390 0.985 . S
C1404 C1405 1.363 . S
C1404 C1410 1.382 1_545 S
C1404 N1412 1.356 . S
C1405 C1404 1.363 . S
C1405 C1411 1.359 1_556 S
C1406 C1407 1.363 . S
C1406 C1411 1.382 1_565 S
C1406 N1413 1.356 . S
C1407 C1406 1.363 . S
C1407 C1410 1.359 1_554 S
N1408 C1410 1.355 1_554 S
N1408 H1420 0.984 1_554 S
N1408 H1421 0.985 . S
N1409 C1411 1.355 1_556 S
N1409 H1414 0.984 . S
N1409 H1415 0.985 1_556 S
C1410 C1404 1.382 1_565 S
C1410 C1407 1.359 1_556 S
C1410 N1408 1.355 1_556 S
C1411 C1405 1.359 1_554 S
C1411 C1406 1.382 1_545 S
C1411 N1409 1.355 1_554 S
N1412 C1404 1.356 . S
N1412 H1418 0.984 . S
N1412 H1419 0.984 . S
N1413 C1406 1.356 . S
N1413 H1416 0.984 . S
N1413 H1417 0.985 . S
H1414 N1409 0.984 . S
H1415 N1409 0.985 1_554 S
H1416 N1413 0.984 . S
H1417 N1413 0.985 . S
H1418 N1412 0.984 . S
H1419 N1412 0.984 . S
H1420 N1408 0.984 1_556 S
H1421 N1408 0.985 . S
C1422 C1423 1.363 . S
C1422 C1428 1.379 . S
C1422 N1430 1.356 . S
C1423 C1422 1.363 . S
C1423 C1429 1.363 . S
C1424 C1425 1.363 . S
C1424 C1429 1.379 . S
C1424 N1431 1.356 . S
C1425 C1424 1.363 . S
C1425 C1428 1.363 . S
N1426 C1428 1.356 . S
N1426 H1438 0.984 . S
N1426 H1439 0.985 . S
N1427 C1429 1.356 . S
N1427 H1432 0.984 . S
N1427 H1433 0.985 . S
C1428 C1422 1.379 . S
C1428 C1425 1.363 . S
C1428 N1426 1.356 . S
C1429 C1423 1.363 . S
C1429 C1424 1.379 . S
C1429 N1427 1.356 . S
N1430 C1422 1.356 . S
N1430 H1436 0.984 . S
N1430 H1437 0.984 . S
N1431 C1424 1.356 . S
N1431 H1434 0.984 . S
N1431 H1435 0.985 . S
H1432 N1427 0.984 . S
H1433 N1427 0.985 . S
H1434 N1431 0.984 . S
H1435 N1431 0.985 . S
H1436 N1430 0.984 . S
H1437 N1430 0.984 . S
H1438 N1426 0.984 . S
H1439 N1426 0.985 . S
C1440 C1441 1.363 . S
C1440 C1446 1.379 . S
C1440 N1448 1.356 . S
C1441 C1440 1.363 . S
C1441 C1447 1.363 . S
C1442 C1443 1.363 . S
C1442 C1447 1.379 . S
C1442 N1449 1.356 . S
C1443 C1442 1.363 . S
C1443 C1446 1.363 . S
N1444 C1446 1.356 . S
N1444 H1456 0.984 . S
N1444 H1457 0.985 . S
N1445 C1447 1.356 . S
N1445 H1450 0.984 . S
N1445 H1451 0.985 . S
C1446 C1440 1.379 . S
C1446 C1443 1.363 . S
C1446 N1444 1.356 . S
C1447 C1441 1.363 . S
C1447 C1442 1.379 . S
C1447 N1445 1.356 . S
N1448 C1440 1.356 . S
N1448 H1454 0.984 . S
N1448 H1455 0.984 . S
N1449 C1442 1.356 . S
N1449 H1452 0.984 . S
N1449 H1453 0.985 . S
H1450 N1445 0.984 . S
H1451 N1445 0.985 . S
H1452 N1449 0.984 . S
H1453 N1449 0.985 . S
H1454 N1448 0.984 . S
H1455 N1448 0.984 . S
H1456 N1444 0.984 . S
H1457 N1444 0.985 . S
C1458 C1459 1.363 . S
C1458 C1464 1.379 . S
C1458 N1466 1.356 . S
C1459 C1458 1.363 . S
C1459 C1465 1.363 . S
C1460 C1461 1.363 . S
C1460 C1465 1.379 . S
C1460 N1467 1.356 . S
C1461 C1460 1.363 . S
C1461 C1464 1.363 . S
N1462 C1464 1.356 . S
N1462 H1474 0.984 . S
N1462 H1475 0.985 . S
N1463 C1465 1.356 . S
N1463 H1468 0.984 . S
N1463 H1469 0.985 . S
C1464 C1458 1.379 . S
C1464 C1461 1.363 . S
C1464 N1462 1.356 . S
C1465 C1459 1.363 . S
C1465 C1460 1.379 . S
C1465 N1463 1.356 . S
N1466 C1458 1.356 . S
N1466 H1472 0.984 . S
N1466 H1473 0.984 . S
N1467 C1460 1.356 . S
N1467 H1470 0.984 . S
N1467 H1471 0.985 . S
H1468 N1463 0.984 . S
H1469 N1463 0.985 . S
H1470 N1467 0.984 . S
H1471 N1467 0.985 . S
H1472 N1466 0.984 . S
H1473 N1466 0.984 . S
H1474 N1462 0.984 . S
H1475 N1462 0.985 . S
C1476 C1477 1.363 . S
C1476 C1482 1.379 . S
C1476 N1484 1.356 . S
C1477 C1476 1.363 . S
C1477 C1483 1.363 . S
C1478 C1479 1.363 . S
C1478 C1483 1.379 . S
C1478 N1485 1.356 . S
C1479 C1478 1.363 . S
C1479 C1482 1.363 . S
N1480 C1482 1.356 . S
N1480 H1492 0.984 . S
N1480 H1493 0.985 . S
N1481 C1483 1.356 . S
N1481 H1486 0.984 . S
N1481 H1487 0.985 . S
C1482 C1476 1.379 . S
C1482 C1479 1.363 . S
C1482 N1480 1.356 . S
C1483 C1477 1.363 . S
C1483 C1478 1.379 . S
C1483 N1481 1.356 . S
N1484 C1476 1.356 . S
N1484 H1490 0.984 . S
N1484 H1491 0.984 . S
N1485 C1478 1.356 . S
N1485 H1488 0.984 . S
N1485 H1489 0.985 . S
H1486 N1481 0.984 . S
H1487 N1481 0.985 . S
H1488 N1485 0.984 . S
H1489 N1485 0.985 . S
H1490 N1484 0.984 . S
H1491 N1484 0.984 . S
H1492 N1480 0.984 . S
H1493 N1480 0.985 . S
C1494 C1495 1.363 . S
C1494 C1500 1.379 . S
C1494 N1502 1.356 . S
C1495 C1494 1.363 . S
C1495 C1501 1.363 . S
C1496 C1497 1.363 . S
C1496 C1501 1.379 . S
C1496 N1503 1.356 . S
C1497 C1496 1.363 . S
C1497 C1500 1.363 . S
N1498 C1500 1.356 . S
N1498 H1510 0.984 . S
N1498 H1511 0.985 . S
N1499 C1501 1.356 . S
N1499 H1504 0.984 . S
N1499 H1505 0.985 . S
C1500 C1494 1.379 . S
C1500 C1497 1.363 . S
C1500 N1498 1.356 . S
C1501 C1495 1.363 . S
C1501 C1496 1.379 . S
C1501 N1499 1.356 . S
N1502 C1494 1.356 . S
N1502 H1508 0.984 . S
N1502 H1509 0.984 . S
N1503 C1496 1.356 . S
N1503 H1506 0.984 . S
N1503 H1507 0.985 . S
H1504 N1499 0.984 . S
H1505 N1499 0.985 . S
H1506 N1503 0.984 . S
H1507 N1503 0.985 . S
H1508 N1502 0.984 . S
H1509 N1502 0.984 . S
H1510 N1498 0.984 . S
H1511 N1498 0.985 . S
C1512 C1513 1.363 . S
C1512 C1518 1.379 . S
C1512 N1520 1.356 . S
C1513 C1512 1.363 . S
C1513 C1519 1.363 . S
C1514 C1515 1.363 . S
C1514 C1519 1.379 . S
C1514 N1521 1.356 . S
C1515 C1514 1.363 . S
C1515 C1518 1.363 . S
N1516 C1518 1.356 . S
N1516 H1528 0.984 . S
N1516 H1529 0.985 . S
N1517 C1519 1.356 . S
N1517 H1522 0.984 . S
N1517 H1523 0.985 . S
C1518 C1512 1.379 . S
C1518 C1515 1.363 . S
C1518 N1516 1.356 . S
C1519 C1513 1.363 . S
C1519 C1514 1.379 . S
C1519 N1517 1.356 . S
N1520 C1512 1.356 . S
N1520 H1526 0.984 . S
N1520 H1527 0.984 . S
N1521 C1514 1.356 . S
N1521 H1524 0.984 . S
N1521 H1525 0.985 . S
H1522 N1517 0.984 . S
H1523 N1517 0.985 . S
H1524 N1521 0.984 . S
H1525 N1521 0.985 . S
H1526 N1520 0.984 . S
H1527 N1520 0.984 . S
H1528 N1516 0.984 . S
H1529 N1516 0.985 . S
C1530 C1531 1.363 . S
C1530 C1536 1.379 . S
C1530 N1538 1.356 . S
C1531 C1530 1.363 . S
C1531 C1537 1.363 . S
C1532 C1533 1.363 . S
C1532 C1537 1.379 . S
C1532 N1539 1.356 . S
C1533 C1532 1.363 . S
C1533 C1536 1.363 . S
N1534 C1536 1.356 . S
N1534 H1546 0.984 . S
N1534 H1547 0.985 . S
N1535 C1537 1.356 . S
N1535 H1540 0.984 . S
N1535 H1541 0.985 . S
C1536 C1530 1.379 . S
C1536 C1533 1.363 . S
C1536 N1534 1.356 . S
C1537 C1531 1.363 . S
C1537 C1532 1.379 . S
C1537 N1535 1.356 . S
N1538 C1530 1.356 . S
N1538 H1544 0.984 . S
N1538 H1545 0.984 . S
N1539 C1532 1.356 . S
N1539 H1542 0.984 . S
N1539 H1543 0.985 . S
H1540 N1535 0.984 . S
H1541 N1535 0.985 . S
H1542 N1539 0.984 . S
H1543 N1539 0.985 . S
H1544 N1538 0.984 . S
H1545 N1538 0.984 . S
H1546 N1534 0.984 . S
H1547 N1534 0.985 . S
C1548 C1549 1.363 . S
C1548 C1554 1.379 . S
C1548 N1556 1.356 . S
C1549 C1548 1.363 . S
C1549 C1555 1.363 . S
C1550 C1551 1.363 . S
C1550 C1555 1.379 . S
C1550 N1557 1.356 . S
C1551 C1550 1.363 . S
C1551 C1554 1.363 . S
N1552 C1554 1.356 . S
N1552 H1564 0.984 . S
N1552 H1565 0.985 . S
N1553 C1555 1.356 . S
N1553 H1558 0.984 . S
N1553 H1559 0.985 . S
C1554 C1548 1.379 . S
C1554 C1551 1.363 . S
C1554 N1552 1.356 . S
C1555 C1549 1.363 . S
C1555 C1550 1.379 . S
C1555 N1553 1.356 . S
N1556 C1548 1.356 . S
N1556 H1562 0.984 . S
N1556 H1563 0.984 . S
N1557 C1550 1.356 . S
N1557 H1560 0.984 . S
N1557 H1561 0.985 . S
H1558 N1553 0.984 . S
H1559 N1553 0.985 . S
H1560 N1557 0.984 . S
H1561 N1557 0.985 . S
H1562 N1556 0.984 . S
H1563 N1556 0.984 . S
H1564 N1552 0.984 . S
H1565 N1552 0.985 . S
C1566 C1567 1.363 . S
C1566 C1572 1.379 . S
C1566 N1574 1.356 . S
C1567 C1566 1.363 . S
C1567 C1573 1.363 . S
C1568 C1569 1.363 . S
C1568 C1573 1.379 . S
C1568 N1575 1.356 . S
C1569 C1568 1.363 . S
C1569 C1572 1.363 . S
N1570 C1572 1.356 . S
N1570 H1582 0.984 . S
N1570 H1583 0.985 . S
N1571 C1573 1.356 . S
N1571 H1576 0.984 . S
N1571 H1577 0.985 . S
C1572 C1566 1.379 . S
C1572 C1569 1.363 . S
C1572 N1570 1.356 . S
C1573 C1567 1.363 . S
C1573 C1568 1.379 . S
C1573 N1571 1.356 . S
N1574 C1566 1.356 . S
N1574 H1580 0.984 . S
N1574 H1581 0.984 . S
N1575 C1568 1.356 . S
N1575 H1578 0.984 . S
N1575 H1579 0.985 . S
H1576 N1571 0.984 . S
H1577 N1571 0.985 . S
H1578 N1575 0.984 . S
H1579 N1575 0.985 . S
H1580 N1574 0.984 . S
H1581 N1574 0.984 . S
H1582 N1570 0.984 . S
H1583 N1570 0.985 . S
C1584 C1585 1.363 . S
C1584 C1590 1.379 . S
C1584 N1592 1.356 . S
C1585 C1584 1.363 . S
C1585 C1591 1.363 . S
C1586 C1587 1.363 . S
C1586 C1591 1.379 . S
C1586 N1593 1.356 . S
C1587 C1586 1.363 . S
C1587 C1590 1.363 . S
N1588 C1590 1.356 . S
N1588 H1600 0.984 . S
N1588 H1601 0.985 . S
N1589 C1591 1.356 . S
N1589 H1594 0.984 . S
N1589 H1595 0.985 . S
C1590 C1584 1.379 . S
C1590 C1587 1.363 . S
C1590 N1588 1.356 . S
C1591 C1585 1.363 . S
C1591 C1586 1.379 . S
C1591 N1589 1.356 . S
N1592 C1584 1.356 . S
N1592 H1598 0.984 . S
N1592 H1599 0.984 . S
N1593 C1586 1.356 . S
N1593 H1596 0.984 . S
N1593 H1597 0.985 . S
H1594 N1589 0.984 . S
H1595 N1589 0.985 . S
H1596 N1593 0.984 . S
H1597 N1593 0.985 . S
H1598 N1592 0.984 . S
H1599 N1592 0.984 . S
H1600 N1588 0.984 . S
H1601 N1588 0.985 . S
C1602 C1603 1.363 . S
C1602 C1608 1.379 . S
C1602 N1610 1.356 . S
C1603 C1602 1.363 . S
C1603 C1609 1.363 . S
C1604 C1605 1.363 . S
C1604 C1609 1.379 . S
C1604 N1611 1.356 . S
C1605 C1604 1.363 . S
C1605 C1608 1.363 . S
N1606 C1608 1.356 . S
N1606 H1618 0.984 . S
N1606 H1619 0.985 . S
N1607 C1609 1.356 . S
N1607 H1612 0.984 . S
N1607 H1613 0.985 . S
C1608 C1602 1.379 . S
C1608 C1605 1.363 . S
C1608 N1606 1.356 . S
C1609 C1603 1.363 . S
C1609 C1604 1.379 . S
C1609 N1607 1.356 . S
N1610 C1602 1.356 . S
N1610 H1616 0.984 . S
N1610 H1617 0.984 . S
N1611 C1604 1.356 . S
N1611 H1614 0.984 . S
N1611 H1615 0.985 . S
H1612 N1607 0.984 . S
H1613 N1607 0.985 . S
H1614 N1611 0.984 . S
H1615 N1611 0.985 . S
H1616 N1610 0.984 . S
H1617 N1610 0.984 . S
H1618 N1606 0.984 . S
H1619 N1606 0.985 . S
C1620 C1621 1.363 . S
C1620 C1626 1.379 . S
C1620 N1628 1.356 . S
C1621 C1620 1.363 . S
C1621 C1627 1.363 . S
C1622 C1623 1.363 . S
C1622 C1627 1.379 . S
C1622 N1629 1.356 . S
C1623 C1622 1.363 . S
C1623 C1626 1.363 . S
N1624 C1626 1.356 . S
N1624 H1636 0.984 . S
N1624 H1637 0.985 . S
N1625 C1627 1.356 . S
N1625 H1630 0.984 . S
N1625 H1631 0.985 . S
C1626 C1620 1.379 . S
C1626 C1623 1.363 . S
C1626 N1624 1.356 . S
C1627 C1621 1.363 . S
C1627 C1622 1.379 . S
C1627 N1625 1.356 . S
N1628 C1620 1.356 . S
N1628 H1634 0.984 . S
N1628 H1635 0.984 . S
N1629 C1622 1.356 . S
N1629 H1632 0.984 . S
N1629 H1633 0.985 . S
H1630 N1625 0.984 . S
H1631 N1625 0.985 . S
H1632 N1629 0.984 . S
H1633 N1629 0.985 . S
H1634 N1628 0.984 . S
H1635 N1628 0.984 . S
H1636 N1624 0.984 . S
H1637 N1624 0.985 . S
C1638 C1639 1.363 . S
C1638 C1644 1.379 . S
C1638 N1646 1.356 . S
C1639 C1638 1.363 . S
C1639 C1645 1.363 . S
C1640 C1641 1.363 . S
C1640 C1645 1.379 . S
C1640 N1647 1.356 . S
C1641 C1640 1.363 . S
C1641 C1644 1.363 . S
N1642 C1644 1.356 . S
N1642 H1654 0.984 . S
N1642 H1655 0.985 . S
N1643 C1645 1.356 . S
N1643 H1648 0.984 . S
N1643 H1649 0.985 . S
C1644 C1638 1.379 . S
C1644 C1641 1.363 . S
C1644 N1642 1.356 . S
C1645 C1639 1.363 . S
C1645 C1640 1.379 . S
C1645 N1643 1.356 . S
N1646 C1638 1.356 . S
N1646 H1652 0.984 . S
N1646 H1653 0.984 . S
N1647 C1640 1.356 . S
N1647 H1650 0.984 . S
N1647 H1651 0.985 . S
H1648 N1643 0.984 . S
H1649 N1643 0.985 . S
H1650 N1647 0.984 . S
H1651 N1647 0.985 . S
H1652 N1646 0.984 . S
H1653 N1646 0.984 . S
H1654 N1642 0.984 . S
H1655 N1642 0.985 . S
C1656 C1657 1.363 . S
C1656 C1662 1.379 . S
C1656 N1664 1.356 . S
C1657 C1656 1.363 . S
C1657 C1663 1.363 . S
C1658 C1659 1.363 . S
C1658 C1663 1.379 . S
C1658 N1665 1.356 . S
C1659 C1658 1.363 . S
C1659 C1662 1.363 . S
N1660 C1662 1.356 . S
N1660 H1672 0.984 . S
N1660 H1673 0.985 . S
N1661 C1663 1.356 . S
N1661 H1666 0.984 . S
N1661 H1667 0.985 . S
C1662 C1656 1.379 . S
C1662 C1659 1.363 . S
C1662 N1660 1.356 . S
C1663 C1657 1.363 . S
C1663 C1658 1.379 . S
C1663 N1661 1.356 . S
N1664 C1656 1.356 . S
N1664 H1670 0.984 . S
N1664 H1671 0.984 . S
N1665 C1658 1.356 . S
N1665 H1668 0.984 . S
N1665 H1669 0.985 . S
H1666 N1661 0.984 . S
H1667 N1661 0.985 . S
H1668 N1665 0.984 . S
H1669 N1665 0.985 . S
H1670 N1664 0.984 . S
H1671 N1664 0.984 . S
H1672 N1660 0.984 . S
H1673 N1660 0.985 . S
C1674 C1675 1.363 . S
C1674 C1680 1.379 . S
C1674 N1682 1.356 . S
C1675 C1674 1.363 . S
C1675 C1681 1.363 . S
C1676 C1677 1.363 . S
C1676 C1681 1.379 . S
C1676 N1683 1.356 . S
C1677 C1676 1.363 . S
C1677 C1680 1.363 . S
N1678 C1680 1.356 . S
N1678 H1690 0.984 . S
N1678 H1691 0.985 . S
N1679 C1681 1.356 . S
N1679 H1684 0.984 . S
N1679 H1685 0.985 . S
C1680 C1674 1.379 . S
C1680 C1677 1.363 . S
C1680 N1678 1.356 . S
C1681 C1675 1.363 . S
C1681 C1676 1.379 . S
C1681 N1679 1.356 . S
N1682 C1674 1.356 . S
N1682 H1688 0.984 . S
N1682 H1689 0.984 . S
N1683 C1676 1.356 . S
N1683 H1686 0.984 . S
N1683 H1687 0.985 . S
H1684 N1679 0.984 . S
H1685 N1679 0.985 . S
H1686 N1683 0.984 . S
H1687 N1683 0.985 . S
H1688 N1682 0.984 . S
H1689 N1682 0.984 . S
H1690 N1678 0.984 . S
H1691 N1678 0.985 . S
C1692 C1693 1.363 . S
C1692 C1698 1.379 . S
C1692 N1700 1.356 . S
C1693 C1692 1.363 . S
C1693 C1699 1.363 . S
C1694 C1695 1.363 . S
C1694 C1699 1.379 . S
C1694 N1701 1.356 . S
C1695 C1694 1.363 . S
C1695 C1698 1.363 . S
N1696 C1698 1.356 . S
N1696 H1708 0.984 . S
N1696 H1709 0.985 . S
N1697 C1699 1.356 . S
N1697 H1702 0.984 . S
N1697 H1703 0.985 . S
C1698 C1692 1.379 . S
C1698 C1695 1.363 . S
C1698 N1696 1.356 . S
C1699 C1693 1.363 . S
C1699 C1694 1.379 . S
C1699 N1697 1.356 . S
N1700 C1692 1.356 . S
N1700 H1706 0.984 . S
N1700 H1707 0.984 . S
N1701 C1694 1.356 . S
N1701 H1704 0.984 . S
N1701 H1705 0.985 . S
H1702 N1697 0.984 . S
H1703 N1697 0.985 . S
H1704 N1701 0.984 . S
H1705 N1701 0.985 . S
H1706 N1700 0.984 . S
H1707 N1700 0.984 . S
H1708 N1696 0.984 . S
H1709 N1696 0.985 . S
C1710 C1711 1.363 . S
C1710 C1716 1.379 . S
C1710 N1718 1.356 . S
C1711 C1710 1.363 . S
C1711 C1717 1.363 . S
C1712 C1713 1.363 . S
C1712 C1717 1.379 . S
C1712 N1719 1.356 . S
C1713 C1712 1.363 . S
C1713 C1716 1.363 . S
N1714 C1716 1.356 . S
N1714 H1726 0.984 . S
N1714 H1727 0.985 . S
N1715 C1717 1.356 . S
N1715 H1720 0.984 . S
N1715 H1721 0.985 . S
C1716 C1710 1.379 . S
C1716 C1713 1.363 . S
C1716 N1714 1.356 . S
C1717 C1711 1.363 . S
C1717 C1712 1.379 . S
C1717 N1715 1.356 . S
N1718 C1710 1.356 . S
N1718 H1724 0.984 . S
N1718 H1725 0.984 . S
N1719 C1712 1.356 . S
N1719 H1722 0.984 . S
N1719 H1723 0.985 . S
H1720 N1715 0.984 . S
H1721 N1715 0.985 . S
H1722 N1719 0.984 . S
H1723 N1719 0.985 . S
H1724 N1718 0.984 . S
H1725 N1718 0.984 . S
H1726 N1714 0.984 . S
H1727 N1714 0.985 . S
C1728 C1729 1.363 . S
C1728 C1734 1.379 . S
C1728 N1736 1.356 . S
C1729 C1728 1.363 . S
C1729 C1735 1.363 . S
C1730 C1731 1.363 . S
C1730 C1735 1.379 . S
C1730 N1737 1.356 . S
C1731 C1730 1.363 . S
C1731 C1734 1.363 . S
N1732 C1734 1.356 . S
N1732 H1744 0.984 . S
N1732 H1745 0.985 . S
N1733 C1735 1.356 . S
N1733 H1738 0.984 . S
N1733 H1739 0.985 . S
C1734 C1728 1.379 . S
C1734 C1731 1.363 . S
C1734 N1732 1.356 . S
C1735 C1729 1.363 . S
C1735 C1730 1.379 . S
C1735 N1733 1.356 . S
N1736 C1728 1.356 . S
N1736 H1742 0.984 . S
N1736 H1743 0.984 . S
N1737 C1730 1.356 . S
N1737 H1740 0.984 . S
N1737 H1741 0.985 . S
H1738 N1733 0.984 . S
H1739 N1733 0.985 . S
H1740 N1737 0.984 . S
H1741 N1737 0.985 . S
H1742 N1736 0.984 . S
H1743 N1736 0.984 . S
H1744 N1732 0.984 . S
H1745 N1732 0.985 . S
C1746 C1747 1.363 . S
C1746 C1752 1.379 . S
C1746 N1754 1.356 . S
C1747 C1746 1.363 . S
C1747 C1753 1.363 . S
C1748 C1749 1.363 . S
C1748 C1753 1.379 . S
C1748 N1755 1.356 . S
C1749 C1748 1.363 . S
C1749 C1752 1.363 . S
N1750 C1752 1.356 . S
N1750 H1762 0.984 . S
N1750 H1763 0.985 . S
N1751 C1753 1.356 . S
N1751 H1756 0.984 . S
N1751 H1757 0.985 . S
C1752 C1746 1.379 . S
C1752 C1749 1.363 . S
C1752 N1750 1.356 . S
C1753 C1747 1.363 . S
C1753 C1748 1.379 . S
C1753 N1751 1.356 . S
N1754 C1746 1.356 . S
N1754 H1760 0.984 . S
N1754 H1761 0.984 . S
N1755 C1748 1.356 . S
N1755 H1758 0.984 . S
N1755 H1759 0.985 . S
H1756 N1751 0.984 . S
H1757 N1751 0.985 . S
H1758 N1755 0.984 . S
H1759 N1755 0.985 . S
H1760 N1754 0.984 . S
H1761 N1754 0.984 . S
H1762 N1750 0.984 . S
H1763 N1750 0.985 . S
C1764 C1765 1.363 . S
C1764 C1770 1.379 . S
C1764 N1772 1.356 . S
C1765 C1764 1.363 . S
C1765 C1771 1.363 . S
C1766 C1767 1.363 . S
C1766 C1771 1.379 . S
C1766 N1773 1.356 . S
C1767 C1766 1.363 . S
C1767 C1770 1.363 . S
N1768 C1770 1.356 . S
N1768 H1780 0.984 . S
N1768 H1781 0.985 . S
N1769 C1771 1.356 . S
N1769 H1774 0.984 . S
N1769 H1775 0.985 . S
C1770 C1764 1.379 . S
C1770 C1767 1.363 . S
C1770 N1768 1.356 . S
C1771 C1765 1.363 . S
C1771 C1766 1.379 . S
C1771 N1769 1.356 . S
N1772 C1764 1.356 . S
N1772 H1778 0.984 . S
N1772 H1779 0.984 . S
N1773 C1766 1.356 . S
N1773 H1776 0.984 . S
N1773 H1777 0.985 . S
H1774 N1769 0.984 . S
H1775 N1769 0.985 . S
H1776 N1773 0.984 . S
H1777 N1773 0.985 . S
H1778 N1772 0.984 . S
H1779 N1772 0.984 . S
H1780 N1768 0.984 . S
H1781 N1768 0.985 . S
C1782 C1783 1.363 . S
C1782 C1788 1.379 . S
C1782 N1790 1.356 . S
C1783 C1782 1.363 . S
C1783 C1789 1.363 . S
C1784 C1785 1.363 . S
C1784 C1789 1.379 . S
C1784 N1791 1.356 . S
C1785 C1784 1.363 . S
C1785 C1788 1.363 . S
N1786 C1788 1.356 . S
N1786 H1798 0.984 . S
N1786 H1799 0.985 . S
N1787 C1789 1.356 . S
N1787 H1792 0.984 . S
N1787 H1793 0.985 . S
C1788 C1782 1.379 . S
C1788 C1785 1.363 . S
C1788 N1786 1.356 . S
C1789 C1783 1.363 . S
C1789 C1784 1.379 . S
C1789 N1787 1.356 . S
N1790 C1782 1.356 . S
N1790 H1796 0.984 . S
N1790 H1797 0.984 . S
N1791 C1784 1.356 . S
N1791 H1794 0.984 . S
N1791 H1795 0.985 . S
H1792 N1787 0.984 . S
H1793 N1787 0.985 . S
H1794 N1791 0.984 . S
H1795 N1791 0.985 . S
H1796 N1790 0.984 . S
H1797 N1790 0.984 . S
H1798 N1786 0.984 . S
H1799 N1786 0.985 . S
C1800 C1801 1.363 . S
C1800 C1806 1.379 . S
C1800 N1808 1.356 . S
C1801 C1800 1.363 . S
C1801 C1807 1.363 . S
C1802 C1803 1.363 . S
C1802 C1807 1.379 . S
C1802 N1809 1.356 . S
C1803 C1802 1.363 . S
C1803 C1806 1.363 . S
N1804 C1806 1.356 . S
N1804 H1816 0.984 . S
N1804 H1817 0.985 . S
N1805 C1807 1.356 . S
N1805 H1810 0.984 . S
N1805 H1811 0.985 . S
C1806 C1800 1.379 . S
C1806 C1803 1.363 . S
C1806 N1804 1.356 . S
C1807 C1801 1.363 . S
C1807 C1802 1.379 . S
C1807 N1805 1.356 . S
N1808 C1800 1.356 . S
N1808 H1814 0.984 . S
N1808 H1815 0.984 . S
N1809 C1802 1.356 . S
N1809 H1812 0.984 . S
N1809 H1813 0.985 . S
H1810 N1805 0.984 . S
H1811 N1805 0.985 . S
H1812 N1809 0.984 . S
H1813 N1809 0.985 . S
H1814 N1808 0.984 . S
H1815 N1808 0.984 . S
H1816 N1804 0.984 . S
H1817 N1804 0.985 . S
C1818 C1819 1.363 . S
C1818 C1824 1.379 . S
C1818 N1826 1.356 . S
C1819 C1818 1.363 . S
C1819 C1825 1.363 . S
C1820 C1821 1.363 . S
C1820 C1825 1.379 . S
C1820 N1827 1.356 . S
C1821 C1820 1.363 . S
C1821 C1824 1.363 . S
N1822 C1824 1.356 . S
N1822 H1834 0.984 . S
N1822 H1835 0.985 . S
N1823 C1825 1.356 . S
N1823 H1828 0.984 . S
N1823 H1829 0.985 . S
C1824 C1818 1.379 . S
C1824 C1821 1.363 . S
C1824 N1822 1.356 . S
C1825 C1819 1.363 . S
C1825 C1820 1.379 . S
C1825 N1823 1.356 . S
N1826 C1818 1.356 . S
N1826 H1832 0.984 . S
N1826 H1833 0.984 . S
N1827 C1820 1.356 . S
N1827 H1830 0.984 . S
N1827 H1831 0.985 . S
H1828 N1823 0.984 . S
H1829 N1823 0.985 . S
H1830 N1827 0.984 . S
H1831 N1827 0.985 . S
H1832 N1826 0.984 . S
H1833 N1826 0.984 . S
H1834 N1822 0.984 . S
H1835 N1822 0.985 . S
C1836 C1837 1.363 . S
C1836 C1842 1.379 . S
C1836 N1844 1.356 . S
C1837 C1836 1.363 . S
C1837 C1843 1.363 . S
C1838 C1839 1.363 . S
C1838 C1843 1.379 . S
C1838 N1845 1.356 . S
C1839 C1838 1.363 . S
C1839 C1842 1.363 . S
N1840 C1842 1.356 . S
N1840 H1852 0.984 . S
N1840 H1853 0.985 . S
N1841 C1843 1.356 . S
N1841 H1846 0.984 . S
N1841 H1847 0.985 . S
C1842 C1836 1.379 . S
C1842 C1839 1.363 . S
C1842 N1840 1.356 . S
C1843 C1837 1.363 . S
C1843 C1838 1.379 . S
C1843 N1841 1.356 . S
N1844 C1836 1.356 . S
N1844 H1850 0.984 . S
N1844 H1851 0.984 . S
N1845 C1838 1.356 . S
N1845 H1848 0.984 . S
N1845 H1849 0.985 . S
H1846 N1841 0.984 . S
H1847 N1841 0.985 . S
H1848 N1845 0.984 . S
H1849 N1845 0.985 . S
H1850 N1844 0.984 . S
H1851 N1844 0.984 . S
H1852 N1840 0.984 . S
H1853 N1840 0.985 . S
C1854 C1855 1.363 . S
C1854 C1860 1.379 . S
C1854 N1862 1.356 . S
C1855 C1854 1.363 . S
C1855 C1861 1.363 . S
C1856 C1857 1.363 . S
C1856 C1861 1.379 . S
C1856 N1863 1.356 . S
C1857 C1856 1.363 . S
C1857 C1860 1.363 . S
N1858 C1860 1.356 . S
N1858 H1870 0.984 . S
N1858 H1871 0.985 . S
N1859 C1861 1.356 . S
N1859 H1864 0.984 . S
N1859 H1865 0.985 . S
C1860 C1854 1.379 . S
C1860 C1857 1.363 . S
C1860 N1858 1.356 . S
C1861 C1855 1.363 . S
C1861 C1856 1.379 . S
C1861 N1859 1.356 . S
N1862 C1854 1.356 . S
N1862 H1868 0.984 . S
N1862 H1869 0.984 . S
N1863 C1856 1.356 . S
N1863 H1866 0.984 . S
N1863 H1867 0.985 . S
H1864 N1859 0.984 . S
H1865 N1859 0.985 . S
H1866 N1863 0.984 . S
H1867 N1863 0.985 . S
H1868 N1862 0.984 . S
H1869 N1862 0.984 . S
H1870 N1858 0.984 . S
H1871 N1858 0.985 . S
C793 N101 1.338 . S
C795 C7 1.370 . S
C811 N2 1.338 . S
C813 C40 1.370 . S
C829 N35 1.338 . S
C831 C73 1.370 . S
C847 C106 1.370 . S
C849 N68 1.338 . S
C865 N167 1.338 . S
C867 C139 1.370 . S
C883 N200 1.338 . S
C885 C172 1.370 . S
C901 C205 1.370 . S
C903 N233 1.338 . S
C919 N134 1.338 . S
C921 C238 1.370 . S
C937 C271 1.370 . S
C939 N596 1.338 . S
C955 C304 1.370 . S
C957 N629 1.338 . S
C973 N662 1.338 . S
C975 C337 1.370 . S
C991 N563 1.338 . S
C993 C370 1.370 . S
C1009 N728 1.338 . S
C1011 C403 1.370 . S
C1027 C436 1.370 . S
C1029 N530 1.338 . S
C1045 C469 1.370 . S
C1047 N761 1.338 . S
C1063 N695 1.338 . S
C1065 C502 1.370 . S
C1081 N299 1.338 . S
C1083 C535 1.370 . S
C1099 C568 1.370 . S
C1101 N497 1.338 . S
C1117 N398 1.338 . S
C1119 C601 1.370 . S
C1135 N431 1.338 . S
C1137 C634 1.370 . S
C1153 N464 1.338 . S
C1155 C667 1.370 . S
C1171 N365 1.338 . S
C1173 C700 1.370 . S
C1189 N266 1.338 . S
C1191 C733 1.370 . S
C1207 N332 1.338 . S
C1209 C766 1.370 . S
C1225 C219 1.723 . S
C1227 C21 1.723 . S
C1243 C54 1.723 . S
C1245 C252 1.723 . S
C1261 C153 1.723 . S
C1263 C87 1.723 . S
C1279 C186 1.723 . S
C1281 C120 1.723 . S
C1297 C351 1.723 . S
C1299 C285 1.723 . S
C1315 C318 1.723 . S
C1317 C384 1.723 . S
C1333 C417 1.723 . S
C1335 C483 1.723 . S
C1351 C516 1.723 . S
C1353 C450 1.723 . S
C1369 C549 1.723 . S
C1371 C582 1.723 . S
C1387 C615 1.723 . S
C1389 C780 1.723 . S
C1405 C648 1.723 . S
C1407 C714 1.723 . S
C1423 C747 1.723 . S
C1425 C681 1.723 . S
C1441 C18 1.310 . S
C1443 N277 1.347 . S
C1459 C51 1.310 . S
C1461 N310 1.347 . S
C1477 N343 1.347 . S
C1479 C84 1.310 . S
C1495 N376 1.347 . S
C1497 C117 1.310 . S
C1513 C150 1.310 . S
C1515 N409 1.347 . S
C1531 N442 1.347 . S
C1533 C183 1.310 . S
C1549 C216 1.310 . S
C1551 N475 1.347 . S
C1567 N508 1.347 . S
C1569 C249 1.310 . S
C1585 C282 1.310 . S
C1587 N541 1.347 . S
C1603 N772 1.347 . S
C1605 C315 1.310 . S
C1621 C348 1.310 . S
C1623 N706 1.347 . S
C1639 C381 1.310 . S
C1641 N739 1.347 . S
C1657 N574 1.347 . S
C1659 C414 1.310 . S
C1675 C447 1.310 . S
C1677 N607 1.347 . S
C1693 C480 1.310 . S
C1695 N640 1.347 . S
C1711 C513 1.310 . S
C1713 N673 1.347 . S
C1729 C546 1.310 . S
C1731 N13 1.347 . S
C1747 C579 1.310 . S
C1749 N145 1.347 . S
C1765 C612 1.310 . S
C1767 N178 1.347 . S
C1783 N211 1.347 . S
C1785 C645 1.310 . S
C1801 C678 1.310 . S
C1803 N244 1.347 . S
C1819 N79 1.347 . S
C1821 C711 1.310 . S
C1837 N112 1.347 . S
C1839 C744 1.310 . S
C1855 C777 1.310 . S
C1857 N46 1.347 . S
