# Generated by pormake.
# Topology kag, (6)-cn, num edge types: 1
# Building blocks:
#     Node 0, Type 0, BuildingBlock: BETFAJ_clean_sbu_0, # of connection points: 6
#     Node 1, Type 0, BuildingBlock: BETFAJ_clean_sbu_0, # of connection points: 6
#     Node 2, Type 0, BuildingBlock: BETFAJ_clean_sbu_0, # of connection points: 6
#     Edge 3, Type (0, 0), BuildingBlock: UVAHIK_clean_linker_0, # of connection points: 2
#     Edge 4, Type (0, 0), BuildingBlock: UVAHIK_clean_linker_0, # of connection points: 2
#     Edge 5, Type (0, 0), BuildingBlock: UVAHIK_clean_linker_0, # of connection points: 2
#     Edge 6, Type (0, 0), BuildingBlock: UVAHIK_clean_linker_0, # of connection points: 2
#     Edge 7, Type (0, 0), BuildingBlock: UVAHIK_clean_linker_0, # of connection points: 2
#     Edge 8, Type (0, 0), BuildingBlock: UVAHIK_clean_linker_0, # of connection points: 2
#     Edge 9, Type (0, 0), BuildingBlock: UVAHIK_clean_linker_0, # of connection points: 2
#     Edge 10, Type (0, 0), BuildingBlock: UVAHIK_clean_linker_0, # of connection points: 2
#     Edge 11, Type (0, 0), BuildingBlock: UVAHIK_clean_linker_0, # of connection points: 2
# Relax obj value: 0.053
# Max RMSD: 0.170
# Mean RMSD: 0.089
data_MOF--net-kag--node1-BETFAJ_clean_sbu_0--edge1-UVAHIK_clean_linker_0
_symmetry_space_group_name_H-M    P1
_symmetry_Int_Tables_number       1
_symmetry_cell_setting            triclinic
loop_
_symmetry_equiv_pos_as_xyz
'x, y, z'
_cell_length_a     40.353181
_cell_length_b     51.018568
_cell_length_c     19.046437
_cell_angle_alpha  95.302125
_cell_angle_beta   91.415691
_cell_angle_gamma 100.46364
loop_
_atom_site_label
_atom_site_type_symbol
_atom_site_fract_x
_atom_site_fract_y
_atom_site_fract_z
_atom_type_partial_charge
Sm0 Sm 1.03967 0.47931 0.01551 0.0
Sm1 Sm 0.04916 0.53777 0.99447 0.0
C2 C 1.02098 0.43069 0.0564 0.0
C3 C 0.9923 0.40779 0.04639 0.0
C4 C 0.971 0.40186 0.10226 0.0
C5 C 0.94482 0.37957 0.09495 0.0
C6 C 0.93948 0.36251 0.0317 0.0
C7 C 0.96064 0.36863 0.97555 0.0
C8 C 0.98673 0.39098 0.98278 0.0
C9 C 0.0447 0.48972 0.87629 0.0
C10 C 0.97267 0.50719 0.99525 0.0
C11 C 0.06781 0.58646 0.954 0.0
C12 C 0.09652 0.60933 0.96389 0.0
C13 C 0.11776 0.61525 0.90791 0.0
C14 C 0.14395 0.63754 0.91511 0.0
C15 C 0.14937 0.6546 0.97835 0.0
C16 C 0.12828 0.64848 0.03462 0.0
C17 C 0.10217 0.62614 0.0275 0.0
C18 C 0.04402 0.52718 0.13365 0.0
C19 C 0.11617 0.5099 0.01451 0.0
O20 O 1.01578 0.45246 0.09303 0.0
O21 O 1.03983 0.43568 1.00256 0.0
O22 O 1.02821 0.50103 0.92133 0.0
O23 O 0.05769 0.47121 0.90296 0.0
O24 O 0.98546 0.48823 0.02311 0.0
O25 O 0.99235 0.52708 0.96867 0.0
O26 O 0.07288 0.56472 0.91702 0.0
O27 O 0.0491 0.5814 0.00801 0.0
O28 O 0.06068 0.51606 0.08861 0.0
O29 O 1.03088 0.54563 0.10699 0.0
O30 O 0.10335 0.52886 0.98672 0.0
O31 O 0.09652 0.48998 0.04107 0.0
H32 H 0.97477 0.41437 0.15202 0.0
H33 H 0.92877 0.3757 0.13897 0.0
H34 H 0.95763 0.35575 0.92645 0.0
H35 H 1.00281 0.39482 0.93877 0.0
H36 H 0.11392 0.60275 0.85815 0.0
H37 H 0.15994 0.6414 0.871 0.0
H38 H 0.13136 0.66136 0.08372 0.0
H39 H 0.08615 0.62231 0.07159 0.0
Sm40 Sm 0.58139 0.01378 0.99035 0.0
Sm41 Sm 0.50748 1.00333 0.01858 0.0
C42 C 0.64153 0.03311 0.94462 0.0
C43 C 0.66348 0.05968 0.95209 0.0
C44 C 0.68728 0.06655 0.90142 0.0
C45 C 0.70768 0.09201 0.90725 0.0
C46 C 0.70467 0.111 0.96408 0.0
C47 C 0.68064 0.10403 0.01465 0.0
C48 C 0.66012 0.07864 0.00852 0.0
C49 C 0.56788 0.00916 0.12991 0.0
C50 C 0.54141 0.06496 0.02139 0.0
C51 C 0.44725 0.98402 0.06392 0.0
C52 C 0.42532 0.95743 0.05656 0.0
C53 C 0.40157 0.95058 0.10732 0.0
C54 C 0.38118 0.92511 0.10161 0.0
C55 C 0.38417 0.9061 0.0448 0.0
C56 C 0.40815 0.91306 0.99413 0.0
C57 C 0.42866 0.93846 1.00016 0.0
C58 C 0.5212 1.00804 0.87905 0.0
C59 C 0.54747 0.95215 0.98781 0.0
O60 O 0.61353 0.03115 0.90682 0.0
O61 O 0.63723 0.02092 1.00209 0.0
O62 O 0.55284 0.02169 0.08901 0.0
O63 O 0.59194 0.99962 0.09854 0.0
O64 O 0.56688 0.05572 0.99208 0.0
O65 O 0.51609 0.04872 0.04605 0.0
O66 O 0.47518 0.98606 0.102 0.0
O67 O 0.45165 0.99612 0.00633 0.0
O68 O 0.536 0.99537 0.91996 0.0
O69 O 0.49719 0.01768 0.9104 0.0
O70 O 0.522 0.96141 0.01709 0.0
O71 O 0.57278 0.96838 0.96306 0.0
H72 H 0.69005 0.05222 0.85729 0.0
H73 H 0.72613 0.09672 0.86778 0.0
H74 H 0.6774 0.11834 0.05845 0.0
H75 H 0.64151 0.07384 0.04767 0.0
H76 H 0.39881 0.96492 0.15143 0.0
H77 H 0.36277 0.9204 0.14115 0.0
H78 H 0.41137 0.89874 0.95035 0.0
H79 H 0.44724 0.94325 0.96094 0.0
Sm80 Sm 0.55392 0.53794 0.99446 0.0
Sm81 Sm 0.53483 0.47918 0.01506 0.0
C82 C 0.56312 0.58684 0.95239 0.0
C83 C 0.55516 0.6141 0.96486 0.0
C84 C 0.53165 0.62231 0.92005 0.0
C85 C 0.52743 0.64904 0.9251 0.0
C86 C 0.54685 0.66826 0.97471 0.0
C87 C 0.56962 0.65983 0.02094 0.0
C88 C 0.57377 0.63311 0.01601 0.0
C89 C 0.55528 0.5273 0.13416 0.0
C90 C 0.47436 0.51224 0.0133 0.0
C91 C 0.52558 0.43022 0.05677 0.0
C92 C 0.53357 0.40297 0.04431 0.0
C93 C 0.55717 0.3948 0.089 0.0
C94 C 0.56142 0.36808 0.08396 0.0
C95 C 0.54195 0.34883 0.03449 0.0
C96 C 0.5191 0.35723 0.98837 0.0
C97 C 0.51492 0.38393 0.99329 0.0
C98 C 0.53347 0.48999 0.87539 0.0
C99 C 0.6144 0.50491 0.99645 0.0
O100 O 0.53943 0.56725 0.92502 0.0
O101 O 0.58287 0.57933 0.99903 0.0
O102 O 0.53324 0.51623 0.08766 0.0
O103 O 0.57625 0.54615 0.10912 0.0
O104 O 0.49545 0.53046 0.98338 0.0
O105 O 0.48532 0.49279 0.04252 0.0
O106 O 0.54919 0.4498 0.08445 0.0
O107 O 0.50593 0.43776 0.00998 0.0
O108 O 0.55556 0.50086 0.92195 0.0
O109 O 0.5124 0.47118 0.90036 0.0
O110 O 0.59332 0.48668 0.02636 0.0
O111 O 0.60342 0.52432 0.96711 0.0
H112 H 0.51717 0.60822 0.87961 0.0
H113 H 0.5093 0.65472 0.88932 0.0
H114 H 0.58535 0.67408 0.05914 0.0
H115 H 0.59247 0.62762 0.05078 0.0
H116 H 0.57168 0.4089 0.12935 0.0
H117 H 0.5796 0.36242 0.11966 0.0
H118 H 0.50334 0.34295 0.95027 0.0
H119 H 0.49616 0.3894 0.95861 0.0
C120 C 1.02826 0.51324 0.77448 0.0
C121 C 0.04514 0.49416 0.80059 0.0
C122 C 1.02824 0.51694 0.7025 0.0
C123 C 0.07391 0.50466 0.53927 0.0
H124 H 0.99147 0.51454 0.44497 0.0
C125 C 0.06055 0.50366 0.23537 0.0
C126 C 0.04358 0.5227 0.20931 0.0
C127 C 0.06057 0.49992 0.30733 0.0
C128 C 1.01482 0.51209 0.47058 0.0
H129 H 0.07552 0.46419 0.77213 0.0
H130 H 0.07528 0.47043 0.64668 0.0
H131 H 0.99224 0.50914 0.57082 0.0
H132 H 1.01307 0.55256 0.23783 0.0
H133 H 1.01333 0.54628 0.36324 0.0
H134 H 0.09649 0.50763 0.43905 0.0
C135 C 0.06232 0.48276 0.68165 0.0
C136 C 1.01527 0.50902 0.54286 0.0
C137 C 0.06229 0.47906 0.75353 0.0
C138 C 1.02636 0.53772 0.2564 0.0
C139 C 1.02635 0.534 0.32825 0.0
C140 C 0.07346 0.50774 0.46699 0.0
C141 C 0.04519 0.50168 0.65508 0.0
C142 C 0.04482 0.50526 0.57819 0.0
C143 C 0.04354 0.51512 0.35478 0.0
C144 C 0.04392 0.51151 0.43166 0.0
H145 H 1.01497 0.52527 0.80964 0.0
H146 H 1.0152 0.53194 0.68411 0.0
H147 H 0.09726 0.50221 0.56489 0.0
H148 H 0.07389 0.49168 0.20019 0.0
H149 H 0.07367 0.48495 0.32568 0.0
C150 C 0.58184 0.99544 0.24809 0.0
C151 C 0.56219 0.00857 0.20624 0.0
C152 C 0.57721 0.99525 0.32058 0.0
C153 C 0.54292 0.03157 0.47094 0.0
H154 H 0.54722 0.96743 0.56267 0.0
C155 C 0.50739 0.02181 0.76087 0.0
C156 C 0.52694 0.00862 0.80274 0.0
C157 C 0.51206 0.022 0.68839 0.0
C158 C 0.54637 0.98563 0.53809 0.0
H159 H 0.52194 0.03148 0.20716 0.0
H160 H 0.51359 0.031 0.33387 0.0
H161 H 0.55374 0.96701 0.43567 0.0
H162 H 0.56709 0.98561 0.80192 0.0
H163 H 0.57553 0.9861 0.67524 0.0
H164 H 0.53556 0.05019 0.57335 0.0
C165 C 0.53293 0.02115 0.31085 0.0
C166 C 0.55006 0.98537 0.46516 0.0
C167 C 0.53756 0.0213 0.23821 0.0
C168 C 0.55154 0.99583 0.77084 0.0
C169 C 0.55621 0.99599 0.69821 0.0
C170 C 0.53923 0.03183 0.54386 0.0
C171 C 0.5528 1.00819 0.35303 0.0
C172 C 0.54839 1.00835 0.4306 0.0
C173 C 0.53644 0.00901 0.65599 0.0
C174 C 0.54089 0.00885 0.57842 0.0
H175 H 0.60104 0.98546 0.22491 0.0
H176 H 0.59324 0.98536 0.35143 0.0
H177 H 0.54206 0.04976 0.44635 0.0
H178 H 0.48822 0.03184 0.784 0.0
H179 H 0.49608 0.03193 0.65752 0.0
C180 C 0.51138 0.47915 0.75011 0.0
C181 C 0.53518 0.49443 0.79978 0.0
C182 C 0.51348 0.4828 0.67831 0.0
C183 C 0.55083 0.53106 0.5548 0.0
H184 H 0.53365 0.46868 0.4173 0.0
C185 C 0.57741 0.53826 0.25942 0.0
C186 C 0.55363 0.52291 0.20982 0.0
C187 C 0.57536 0.53464 0.33125 0.0
C188 C 0.53816 0.48635 0.45489 0.0
H189 H 0.57957 0.52578 0.81353 0.0
H190 H 0.58348 0.53203 0.68816 0.0
H191 H 0.52937 0.46297 0.54262 0.0
H192 H 0.50931 0.49149 0.19624 0.0
H193 H 0.50549 0.48529 0.32163 0.0
H194 H 0.55961 0.55444 0.46706 0.0
C195 C 0.56298 0.51736 0.70457 0.0
C196 C 0.53569 0.48307 0.52685 0.0
C197 C 0.56088 0.51369 0.77639 0.0
C198 C 0.52799 0.50362 0.23331 0.0
C199 C 0.52594 0.49998 0.30515 0.0
C200 C 0.55329 0.53433 0.48283 0.0
C201 C 0.53941 0.50186 0.6545 0.0
C202 C 0.54198 0.50539 0.57779 0.0
C203 C 0.54951 0.51554 0.35515 0.0
C204 C 0.54699 0.51202 0.43188 0.0
H205 H 0.49117 0.46427 0.76668 0.0
H206 H 0.49458 0.47081 0.64148 0.0
H207 H 0.55535 0.54873 0.59239 0.0
H208 H 0.59756 0.55317 0.24277 0.0
H209 H 0.59425 0.54668 0.36802 0.0
C210 C 0.16768 0.49156 0.04613 0.0
C211 C 0.15324 0.51137 0.01676 0.0
C212 C 0.20261 0.49281 0.04735 0.0
C213 C 0.27968 0.52237 0.96082 0.0
H214 H 0.3254 0.50407 0.1258 0.0
C215 C 0.42526 0.53447 0.98699 0.0
C216 C 0.43803 0.51374 0.01582 0.0
C217 C 0.39079 0.53534 0.98851 0.0
C218 C 0.313 0.509 0.07902 0.0
H219 H 0.16438 0.54818 0.96599 0.0
H220 H 0.22523 0.55042 0.96865 0.0
H221 H 0.26482 0.50318 0.12568 0.0
H222 H 0.42444 0.47766 0.06886 0.0
H223 H 0.36461 0.47902 0.0707 0.0
H224 H 0.32783 0.52796 0.91393 0.0
C225 C 0.20951 0.53374 0.99 0.0
C226 C 0.27823 0.50848 0.07897 0.0
C227 C 0.17459 0.53251 0.98887 0.0
C228 C 0.41558 0.49401 0.04643 0.0
C229 C 0.3812 0.49487 0.0479 0.0
C230 C 0.31446 0.52285 0.96083 0.0
C231 C 0.22396 0.51388 0.01915 0.0
C232 C 0.2611 0.51502 0.01974 0.0
C233 C 0.36832 0.51551 0.01892 0.0
C234 C 0.33153 0.51601 0.01977 0.0
H235 H 0.15201 0.47494 0.06788 0.0
H236 H 0.21285 0.47699 0.06938 0.0
H237 H 0.26721 0.52717 0.91396 0.0
H238 H 0.44186 0.55002 0.96311 0.0
H239 H 0.38178 0.55169 0.9664 0.0
C240 C 0.73261 0.15243 0.91169 0.0
C241 C 0.72665 0.13793 0.97079 0.0
C242 C 0.75368 0.1776 0.91786 0.0
C243 C 0.79373 0.23344 0.05 0.0
H244 H 0.85445 0.25143 0.89987 0.0
C245 C 0.9063 0.32235 0.08192 0.0
C246 C 0.91265 0.33801 0.02497 0.0
C247 C 0.88196 0.29886 0.07501 0.0
C248 C 0.83737 0.24685 0.94188 0.0
H249 H 0.73832 0.13839 0.08262 0.0
H250 H 0.77553 0.18203 0.09329 0.0
H251 H 0.81533 0.20871 0.88846 0.0
H252 H 0.89754 0.34147 0.91659 0.0
H253 H 0.85536 0.3003 0.90439 0.0
H254 H 0.81639 0.27144 0.10394 0.0
C255 C 0.76336 0.1743 0.04239 0.0
C256 C 0.81487 0.22235 0.93533 0.0
C257 C 0.74209 0.14922 0.03628 0.0
C258 C 0.89375 0.32969 0.96116 0.0
C259 C 0.86953 0.30612 0.95416 0.0
C260 C 0.8164 0.25787 0.05672 0.0
C261 C 0.76952 0.1888 0.98321 0.0
C262 C 0.79284 0.21526 0.98943 0.0
C263 C 0.86347 0.29036 0.0109 0.0
C264 C 0.83858 0.2648 1.00287 0.0
H265 H 0.72066 0.14442 0.86073 0.0
H266 H 0.75731 0.18836 0.87143 0.0
H267 H 0.77675 0.22891 0.09218 0.0
H268 H 0.92073 0.32784 0.13145 0.0
H269 H 0.87823 0.28698 0.11941 0.0
C270 C 0.57589 0.91243 0.96419 0.0
C271 C 0.54712 0.92293 0.98305 0.0
C272 C 0.57561 0.88488 0.96246 0.0
C273 C 0.52909 0.82318 0.03018 0.0
H274 H 0.57587 0.78718 0.88642 0.0
C275 C 0.54706 0.71359 0.04001 0.0
C276 C 0.54477 0.69718 0.97586 0.0
C277 C 0.54696 0.74102 0.04067 0.0
C278 C 0.56239 0.79684 0.92658 0.0
H279 H 0.49517 0.91255 0.01312 0.0
H280 H 0.49447 0.86471 0.00852 0.0
H281 H 0.57607 0.83494 0.88618 0.0
H282 H 0.54052 0.69699 0.862 0.0
H283 H 0.53926 0.74453 0.86327 0.0
H284 H 0.51461 0.78497 0.06943 0.0
C285 C 0.51757 0.87773 0.99679 0.0
C286 C 0.5629 0.82435 0.92701 0.0
C287 C 0.51792 0.90522 0.99897 0.0
C288 C 0.54188 0.70888 0.91246 0.0
C289 C 0.54168 0.73629 0.91314 0.0
C290 C 0.52847 0.79567 0.02959 0.0
C291 C 0.54648 0.86718 0.97914 0.0
C292 C 0.54621 0.83789 0.97877 0.0
C293 C 0.54448 0.75277 0.97721 0.0
C294 C 0.54509 0.78211 0.97777 0.0
H295 H 0.59884 0.92552 0.95193 0.0
H296 H 0.59847 0.87754 0.94943 0.0
H297 H 0.51634 0.83295 0.07148 0.0
H298 H 0.54898 0.70525 0.08988 0.0
H299 H 0.54947 0.7531 0.09101 0.0
C300 C 0.92132 0.5257 0.96369 0.0
C301 C 0.93563 0.50588 0.9933 0.0
C302 C 0.88647 0.5248 0.96339 0.0
C303 C 0.80487 0.47926 0.98001 0.0
H304 H 0.77215 0.54566 0.02177 0.0
C305 C 0.66378 0.4832 0.02452 0.0
C306 C 0.65079 0.50359 0.99445 0.0
C307 C 0.69839 0.48272 0.0241 0.0
C308 C 0.78084 0.52696 0.00929 0.0
H309 H 0.92434 0.46939 0.0454 0.0
H310 H 0.86366 0.468 0.04545 0.0
H311 H 0.83261 0.54628 0.02108 0.0
H312 H 0.66406 0.53923 0.93944 0.0
H313 H 0.724 0.53822 0.93833 0.0
H314 H 0.75295 0.45997 0.96843 0.0
C315 C 0.87934 0.48409 0.02171 0.0
C316 C 0.81554 0.52732 0.00881 0.0
C317 C 0.91421 0.48499 0.02202 0.0
C318 C 0.67312 0.52327 0.96337 0.0
C319 C 0.70761 0.52281 0.9631 0.0
C320 C 0.7701 0.47889 0.98058 0.0
C321 C 0.86505 0.50406 0.99273 0.0
C322 C 0.82802 0.50351 0.99382 0.0
C323 C 0.72074 0.50266 0.99387 0.0
C324 C 0.75767 0.50277 0.99484 0.0
H325 H 0.93702 0.54202 0.94085 0.0
H326 H 0.87629 0.54029 0.93965 0.0
H327 H 0.8136 0.46058 0.96744 0.0
H328 H 0.64731 0.46776 0.04897 0.0
H329 H 0.70773 0.46703 0.04872 0.0
C330 C 0.19518 0.68741 0.04866 0.0
C331 C 0.1762 0.67909 0.98495 0.0
C332 C 0.21941 0.71099 0.05554 0.0
C333 C 0.27239 0.75922 0.9527 0.0
H334 H 0.27367 0.80839 0.12102 0.0
C335 C 0.34669 0.86787 0.97277 0.0
C336 C 0.3622 0.87917 0.03819 0.0
C337 C 0.32543 0.84279 0.96678 0.0
C338 C 0.27408 0.79475 0.07413 0.0
H339 H 0.16797 0.68926 0.87853 0.0
H340 H 0.21048 0.73012 0.89036 0.0
H341 H 0.23455 0.76568 0.10981 0.0
H342 H 0.36832 0.8727 0.14824 0.0
H343 H 0.33169 0.82875 0.13773 0.0
H344 H 0.31198 0.78818 0.91703 0.0
C345 C 0.20682 0.71824 0.93477 0.0
C346 C 0.25157 0.77025 0.06769 0.0
C347 C 0.18247 0.69476 0.92798 0.0
C348 C 0.35632 0.86468 0.09733 0.0
C349 C 0.33526 0.83951 0.09127 0.0
C350 C 0.29505 0.78365 0.95931 0.0
C351 C 0.22539 0.72674 0.99878 0.0
C352 C 0.25028 0.75229 0.00669 0.0
C353 C 0.31934 0.82829 0.02599 0.0
C354 C 0.29603 0.80184 0.01989 0.0
H355 H 0.19145 0.67563 0.09324 0.0
H356 H 0.23364 0.7168 0.10524 0.0
H357 H 0.27233 0.74565 0.90547 0.0
H358 H 0.3504 0.87869 0.92641 0.0
H359 H 0.3132 0.83505 0.91593 0.0
C360 C 0.54172 0.30349 0.96924 0.0
C361 C 0.54406 0.31991 0.03336 0.0
C362 C 0.54184 0.27606 0.96861 0.0
C363 C 0.52654 0.22028 0.08281 0.0
H364 H 0.57249 0.18415 0.93777 0.0
C365 C 0.51301 0.10469 0.04517 0.0
C366 C 0.54177 0.09419 0.02624 0.0
C367 C 0.51329 0.13224 0.04694 0.0
C368 C 0.55977 0.19393 0.97911 0.0
H369 H 0.54843 0.32015 0.14722 0.0
H370 H 0.54972 0.27261 0.146 0.0
H371 H 0.5742 0.23212 0.93979 0.0
H372 H 0.59371 0.10456 0.99608 0.0
H373 H 0.59441 0.1524 1.00073 0.0
H374 H 0.51289 0.18219 0.12327 0.0
C375 C 0.54724 0.28084 0.09613 0.0
C376 C 0.56038 0.22144 0.97968 0.0
C377 C 0.54703 0.30824 0.09677 0.0
C378 C 0.57097 0.1119 0.01029 0.0
C379 C 0.57132 0.13939 0.01251 0.0
C380 C 0.52603 0.19277 0.08239 0.0
C381 C 0.54439 0.26433 0.03208 0.0
C382 C 0.54379 0.235 0.03155 0.0
C383 C 0.54241 0.14994 0.03022 0.0
C384 C 0.54268 0.17922 0.03059 0.0
H385 H 0.53973 0.31182 0.91935 0.0
H386 H 0.53928 0.26397 0.91829 0.0
H387 H 0.51308 0.22995 0.12301 0.0
H388 H 0.49007 0.0916 0.05746 0.0
H389 H 0.49044 0.13958 0.06003 0.0
loop_
_geom_bond_atom_site_label_1
_geom_bond_atom_site_label_2
_geom_bond_distance
_geom_bond_site_symmetry_2
_ccdc_geom_bond_type
Sm0 C2 2.846 . S
Sm0 O20 2.543 1_556 S
Sm0 O21 2.450 . S
Sm0 O22 2.681 1_655 S
Sm0 O23 2.464 . S
Sm0 O24 2.396 . S
Sm0 O28 2.386 1_556 S
Sm0 O31 2.408 1_655 S
Sm1 C11 2.846 . S
Sm1 O22 2.386 1_554 S
Sm1 O25 2.408 1_455 S
Sm1 O26 2.543 1_554 S
Sm1 O27 2.450 . S
Sm1 O28 2.681 1_455 S
Sm1 O29 2.464 . S
Sm1 O30 2.396 . S
C2 Sm0 2.846 . S
C2 C3 1.506 . S
C2 O20 1.261 1_556 S
C2 O21 1.242 . S
C3 C2 1.506 . S
C3 C4 1.358 1_556 S
C3 C8 1.382 . S
C4 C3 1.358 1_554 S
C4 C5 1.385 . S
C4 H32 0.930 . S
C5 C4 1.385 . S
C5 C6 1.395 1_554 S
C5 H33 0.929 . S
C6 C5 1.395 1_556 S
C6 C7 1.335 . S
C7 C6 1.335 . S
C7 C8 1.398 . S
C7 H34 0.930 . S
C8 C3 1.382 . S
C8 C7 1.398 . S
C8 H35 0.929 . S
C9 O22 1.274 . S
C9 O23 1.248 1_455 S
C10 O24 1.252 . S
C10 O25 1.272 1_556 S
C11 Sm1 2.846 . S
C11 C12 1.506 . S
C11 O26 1.261 1_554 S
C11 O27 1.242 . S
C12 C11 1.506 . S
C12 C13 1.358 1_554 S
C12 C17 1.382 . S
C13 C12 1.358 1_556 S
C13 C14 1.385 . S
C13 H36 0.930 . S
C14 C13 1.385 . S
C14 C15 1.395 1_556 S
C14 H37 0.929 . S
C15 C14 1.395 1_554 S
C15 C16 1.335 . S
C16 C15 1.335 . S
C16 C17 1.398 . S
C16 H38 0.930 . S
C17 C12 1.382 . S
C17 C16 1.398 . S
C17 H39 0.929 . S
C18 O28 1.271 1_455 S
C18 O29 1.251 . S
C19 O30 1.252 . S
C19 O31 1.272 1_554 S
O20 Sm0 2.543 1_554 S
O20 C2 1.261 1_554 S
O21 Sm0 2.450 . S
O21 C2 1.242 . S
O22 Sm0 2.681 1_455 S
O22 Sm1 2.386 1_556 S
O22 C9 1.274 . S
O23 Sm0 2.464 . S
O23 C9 1.248 1_655 S
O24 Sm0 2.396 . S
O24 C10 1.252 . S
O25 Sm1 2.408 1_655 S
O25 C10 1.272 1_554 S
O26 Sm1 2.543 1_556 S
O26 C11 1.261 1_556 S
O27 Sm1 2.450 . S
O27 C11 1.242 . S
O28 Sm0 2.386 1_554 S
O28 Sm1 2.681 1_655 S
O28 C18 1.271 1_655 S
O29 Sm1 2.464 . S
O29 C18 1.251 . S
O30 Sm1 2.396 . S
O30 C19 1.252 . S
O31 Sm0 2.408 1_455 S
O31 C19 1.272 1_556 S
H32 C4 0.930 . S
H33 C5 0.929 . S
H34 C7 0.930 . S
H35 C8 0.929 . S
H36 C13 0.930 . S
H37 C14 0.929 . S
H38 C16 0.930 . S
H39 C17 0.929 . S
Sm40 C42 2.846 . S
Sm40 O60 2.543 1_554 S
Sm40 O61 2.450 . S
Sm40 O62 2.681 1_545 S
Sm40 O63 2.464 . S
Sm40 O64 2.396 . S
Sm40 O68 2.386 1_554 S
Sm40 O71 2.408 1_545 S
Sm41 C51 2.846 . S
Sm41 O62 2.386 1_556 S
Sm41 O65 2.408 1_565 S
Sm41 O66 2.543 1_556 S
Sm41 O67 2.450 . S
Sm41 O68 2.681 1_565 S
Sm41 O69 2.464 . S
Sm41 O70 2.396 . S
C42 Sm40 2.846 . S
C42 C43 1.505 1_554 S
C42 O60 1.261 1_554 S
C42 O61 1.242 . S
C43 C42 1.505 1_556 S
C43 C44 1.366 . S
C43 C48 1.375 1_556 S
C44 C43 1.366 . S
C44 C45 1.385 . S
C44 H72 0.930 . S
C45 C44 1.385 . S
C45 C46 1.395 . S
C45 H73 0.929 . S
C46 C45 1.395 . S
C46 C47 1.335 1_556 S
C47 C46 1.335 1_554 S
C47 C48 1.398 . S
C47 H74 0.930 . S
C48 C43 1.375 1_554 S
C48 C47 1.398 . S
C48 H75 0.929 . S
C49 O62 1.271 1_545 S
C49 O63 1.251 . S
C50 O64 1.252 . S
C50 O65 1.272 1_554 S
C51 Sm41 2.846 . S
C51 C52 1.504 1_556 S
C51 O66 1.261 1_556 S
C51 O67 1.242 . S
C52 C51 1.504 1_554 S
C52 C53 1.370 . S
C52 C57 1.372 1_554 S
C53 C52 1.370 . S
C53 C54 1.385 . S
C53 H76 0.930 . S
C54 C53 1.385 . S
C54 C55 1.395 . S
C54 H77 0.929 . S
C55 C54 1.395 . S
C55 C56 1.335 1_554 S
C56 C55 1.335 1_556 S
C56 C57 1.398 . S
C56 H78 0.930 . S
C57 C52 1.372 1_556 S
C57 C56 1.398 . S
C57 H79 0.929 . S
C58 O68 1.271 1_565 S
C58 O69 1.251 . S
C59 O70 1.252 . S
C59 O71 1.272 1_556 S
O60 Sm40 2.543 1_556 S
O60 C42 1.261 1_556 S
O61 Sm40 2.450 . S
O61 C42 1.242 . S
O62 Sm40 2.681 1_565 S
O62 Sm41 2.386 1_554 S
O62 C49 1.271 1_565 S
O63 Sm40 2.464 . S
O63 C49 1.251 . S
O64 Sm40 2.396 . S
O64 C50 1.252 . S
O65 Sm41 2.408 1_545 S
O65 C50 1.272 1_556 S
O66 Sm41 2.543 1_554 S
O66 C51 1.261 1_554 S
O67 Sm41 2.450 . S
O67 C51 1.242 . S
O68 Sm40 2.386 1_556 S
O68 Sm41 2.681 1_545 S
O68 C58 1.271 1_545 S
O69 Sm41 2.464 . S
O69 C58 1.251 . S
O70 Sm41 2.396 . S
O70 C59 1.252 . S
O71 Sm40 2.408 1_565 S
O71 C59 1.272 1_554 S
H72 C44 0.930 . S
H73 C45 0.929 . S
H74 C47 0.930 . S
H75 C48 0.929 . S
H76 C53 0.930 . S
H77 C54 0.929 . S
H78 C56 0.930 . S
H79 C57 0.929 . S
Sm80 C82 2.846 . S
Sm80 O100 2.543 1_554 S
Sm80 O101 2.450 . S
Sm80 O102 2.681 . S
Sm80 O103 2.464 . S
Sm80 O104 2.396 . S
Sm80 O108 2.386 1_554 S
Sm80 O111 2.408 . S
Sm81 C91 2.846 . S
Sm81 O102 2.386 1_556 S
Sm81 O105 2.408 . S
Sm81 O106 2.543 1_556 S
Sm81 O107 2.450 . S
Sm81 O108 2.681 . S
Sm81 O109 2.464 . S
Sm81 O110 2.396 . S
C82 Sm80 2.846 . S
C82 C83 1.506 . S
C82 O100 1.261 1_554 S
C82 O101 1.242 . S
C83 C82 1.506 . S
C83 C84 1.358 1_554 S
C83 C88 1.382 . S
C84 C83 1.358 1_556 S
C84 C85 1.385 . S
C84 H112 0.930 . S
C85 C84 1.385 . S
C85 C86 1.395 1_556 S
C85 H113 0.929 . S
C86 C85 1.395 1_554 S
C86 C87 1.335 . S
C87 C86 1.335 . S
C87 C88 1.398 . S
C87 H114 0.930 . S
C88 C83 1.382 . S
C88 C87 1.398 . S
C88 H115 0.929 . S
C89 O102 1.271 . S
C89 O103 1.251 . S
C90 O104 1.252 . S
C90 O105 1.272 1_554 S
C91 Sm81 2.846 . S
C91 C92 1.506 . S
C91 O106 1.261 1_556 S
C91 O107 1.242 . S
C92 C91 1.506 . S
C92 C93 1.358 1_556 S
C92 C97 1.382 . S
C93 C92 1.358 1_554 S
C93 C94 1.385 . S
C93 H116 0.930 . S
C94 C93 1.385 . S
C94 C95 1.383 1_554 S
C94 H117 0.929 . S
C95 C94 1.383 1_556 S
C95 C96 1.348 . S
C96 C95 1.348 . S
C96 C97 1.398 . S
C96 H118 0.930 . S
C97 C92 1.382 . S
C97 C96 1.398 . S
C97 H119 0.929 . S
C98 O108 1.271 . S
C98 O109 1.251 . S
C99 O110 1.252 . S
C99 O111 1.272 1_556 S
O100 Sm80 2.543 1_556 S
O100 C82 1.261 1_556 S
O101 Sm80 2.450 . S
O101 C82 1.242 . S
O102 Sm80 2.681 . S
O102 Sm81 2.386 1_554 S
O102 C89 1.271 . S
O103 Sm80 2.464 . S
O103 C89 1.251 . S
O104 Sm80 2.396 . S
O104 C90 1.252 . S
O105 Sm81 2.408 . S
O105 C90 1.272 1_556 S
O106 Sm81 2.543 1_554 S
O106 C91 1.261 1_554 S
O107 Sm81 2.450 . S
O107 C91 1.242 . S
O108 Sm80 2.386 1_556 S
O108 Sm81 2.681 . S
O108 C98 1.271 . S
O109 Sm81 2.464 . S
O109 C98 1.251 . S
O110 Sm81 2.396 . S
O110 C99 1.252 . S
O111 Sm80 2.408 . S
O111 C99 1.272 1_554 S
H112 C84 0.930 . S
H113 C85 0.929 . S
H114 C87 0.930 . S
H115 C88 0.929 . S
H116 C93 0.930 . S
H117 C94 0.929 . S
H118 C96 0.930 . S
H119 C97 0.929 . S
C120 C121 1.349 1_655 S
C120 C122 1.327 . S
C120 H145 0.950 . S
C121 C120 1.349 1_455 S
C121 C137 1.349 . S
C122 C120 1.327 . S
C122 C141 1.429 1_655 S
C122 H146 0.950 . S
C123 C140 1.574 . S
C123 C142 1.368 . S
C123 H147 0.949 . S
H124 C128 0.949 . S
C125 C126 1.344 1_455 S
C125 C127 1.327 . S
C125 H148 0.950 . S
C126 C125 1.344 1_655 S
C126 C138 1.353 . S
C127 C125 1.327 . S
C127 C143 1.434 . S
C127 H149 0.950 . S
C128 H124 0.949 . S
C128 C136 1.574 . S
C128 C144 1.354 1_655 S
H129 C137 0.950 . S
H130 C135 0.950 . S
H131 C136 0.949 . S
H132 C138 0.950 . S
H133 C139 0.950 . S
H134 C140 0.949 . S
C135 H130 0.950 . S
C135 C137 1.327 . S
C135 C141 1.429 . S
C136 C128 1.574 . S
C136 H131 0.949 . S
C136 C142 1.368 1_655 S
C137 C121 1.349 . S
C137 H129 0.950 . S
C137 C135 1.327 . S
C138 C126 1.353 . S
C138 H132 0.950 . S
C138 C139 1.327 . S
C139 H133 0.950 . S
C139 C138 1.327 . S
C139 C143 1.423 1_655 S
C140 C123 1.574 . S
C140 H134 0.949 . S
C140 C144 1.383 . S
C141 C122 1.429 1_455 S
C141 C135 1.429 . S
C141 C142 1.523 . S
C142 C123 1.368 . S
C142 C136 1.368 1_455 S
C142 C141 1.523 . S
C143 C127 1.434 . S
C143 C139 1.423 1_455 S
C143 C144 1.523 . S
C144 C128 1.354 1_455 S
C144 C140 1.383 . S
C144 C143 1.523 . S
H145 C120 0.950 . S
H146 C122 0.950 . S
H147 C123 0.949 . S
H148 C125 0.950 . S
H149 C127 0.950 . S
C150 C151 1.333 1_565 S
C150 C152 1.327 . S
C150 H175 0.950 . S
C151 C150 1.333 1_545 S
C151 C167 1.363 . S
C152 C150 1.327 . S
C152 C171 1.422 1_565 S
C152 H176 0.950 . S
C153 C170 1.574 . S
C153 C172 1.372 . S
C153 H177 0.949 . S
H154 C158 0.949 . S
C155 C156 1.342 1_545 S
C155 C157 1.327 . S
C155 H178 0.950 . S
C156 C155 1.342 1_565 S
C156 C168 1.355 . S
C157 C155 1.327 . S
C157 C173 1.430 1_545 S
C157 H179 0.950 . S
C158 H154 0.949 . S
C158 C166 1.574 . S
C158 C174 1.372 1_565 S
H159 C167 0.950 . S
H160 C165 0.950 . S
H161 C166 0.949 . S
H162 C168 0.950 . S
H163 C169 0.950 . S
H164 C170 0.949 . S
C165 H160 0.950 . S
C165 C167 1.327 . S
C165 C171 1.437 . S
C166 C158 1.574 . S
C166 H161 0.949 . S
C166 C172 1.364 1_565 S
C167 C151 1.363 . S
C167 H159 0.950 . S
C167 C165 1.327 . S
C168 C156 1.355 . S
C168 H162 0.950 . S
C168 C169 1.327 . S
C169 H163 0.950 . S
C169 C168 1.327 . S
C169 C173 1.427 . S
C170 C153 1.574 . S
C170 H164 0.949 . S
C170 C174 1.364 . S
C171 C152 1.422 1_545 S
C171 C165 1.437 . S
C171 C172 1.522 . S
C172 C153 1.372 . S
C172 C166 1.364 1_545 S
C172 C171 1.522 . S
C173 C157 1.430 1_565 S
C173 C169 1.427 . S
C173 C174 1.523 1_565 S
C174 C158 1.372 1_545 S
C174 C170 1.364 . S
C174 C173 1.523 1_545 S
H175 C150 0.950 . S
H176 C152 0.950 . S
H177 C153 0.949 . S
H178 C155 0.950 . S
H179 C157 0.950 . S
C180 C181 1.349 . S
C180 C182 1.327 . S
C180 H205 0.950 . S
C181 C180 1.349 . S
C181 C197 1.349 . S
C182 C180 1.327 . S
C182 C201 1.429 . S
C182 H206 0.950 . S
C183 C200 1.574 . S
C183 C202 1.368 . S
C183 H207 0.949 . S
H184 C188 0.949 . S
C185 C186 1.349 . S
C185 C187 1.327 . S
C185 H208 0.950 . S
C186 C185 1.349 . S
C186 C198 1.349 . S
C187 C185 1.327 . S
C187 C203 1.429 . S
C187 H209 0.950 . S
C188 H184 0.949 . S
C188 C196 1.574 . S
C188 C204 1.368 . S
H189 C197 0.950 . S
H190 C195 0.950 . S
H191 C196 0.949 . S
H192 C198 0.950 . S
H193 C199 0.950 . S
H194 C200 0.949 . S
C195 H190 0.950 . S
C195 C197 1.327 . S
C195 C201 1.429 . S
C196 C188 1.574 . S
C196 H191 0.949 . S
C196 C202 1.368 . S
C197 C181 1.349 . S
C197 H189 0.950 . S
C197 C195 1.327 . S
C198 C186 1.349 . S
C198 H192 0.950 . S
C198 C199 1.327 . S
C199 H193 0.950 . S
C199 C198 1.327 . S
C199 C203 1.429 . S
C200 C183 1.574 . S
C200 H194 0.949 . S
C200 C204 1.368 . S
C201 C182 1.429 . S
C201 C195 1.429 . S
C201 C202 1.523 . S
C202 C183 1.368 . S
C202 C196 1.368 . S
C202 C201 1.523 . S
C203 C187 1.429 . S
C203 C199 1.429 . S
C203 C204 1.523 . S
C204 C188 1.368 . S
C204 C200 1.368 . S
C204 C203 1.523 . S
H205 C180 0.950 . S
H206 C182 0.950 . S
H207 C183 0.949 . S
H208 C185 0.950 . S
H209 C187 0.950 . S
C210 C211 1.349 1_554 S
C210 C212 1.327 . S
C210 H235 0.950 . S
C211 C210 1.349 1_556 S
C211 C227 1.349 . S
C212 C210 1.327 . S
C212 C231 1.429 1_554 S
C212 H236 0.950 . S
C213 C230 1.574 . S
C213 C232 1.368 . S
C213 H237 0.949 . S
H214 C218 0.949 . S
C215 C216 1.349 . S
C215 C217 1.327 . S
C215 H238 0.950 . S
C216 C215 1.349 . S
C216 C228 1.349 1_556 S
C217 C215 1.327 . S
C217 C233 1.429 . S
C217 H239 0.950 . S
C218 H214 0.949 . S
C218 C226 1.574 . S
C218 C234 1.368 1_554 S
H219 C227 0.950 . S
H220 C225 0.950 . S
H221 C226 0.949 . S
H222 C228 0.950 . S
H223 C229 0.950 . S
H224 C230 0.949 . S
C225 H220 0.950 . S
C225 C227 1.327 . S
C225 C231 1.429 . S
C226 C218 1.574 . S
C226 H221 0.949 . S
C226 C232 1.368 1_554 S
C227 C211 1.349 . S
C227 H219 0.950 . S
C227 C225 1.327 . S
C228 C216 1.349 1_554 S
C228 H222 0.950 . S
C228 C229 1.327 . S
C229 H223 0.950 . S
C229 C228 1.327 . S
C229 C233 1.429 1_554 S
C230 C213 1.574 . S
C230 H224 0.949 . S
C230 C234 1.368 . S
C231 C212 1.429 1_556 S
C231 C225 1.429 . S
C231 C232 1.523 . S
C232 C213 1.368 . S
C232 C226 1.368 1_556 S
C232 C231 1.523 . S
C233 C217 1.429 . S
C233 C229 1.429 1_556 S
C233 C234 1.523 . S
C234 C218 1.368 1_556 S
C234 C230 1.368 . S
C234 C233 1.523 . S
H235 C210 0.950 . S
H236 C212 0.950 . S
H237 C213 0.949 . S
H238 C215 0.950 . S
H239 C217 0.950 . S
C240 C241 1.349 . S
C240 C242 1.327 . S
C240 H265 0.950 . S
C241 C240 1.349 . S
C241 C257 1.349 1_556 S
C242 C240 1.327 . S
C242 C261 1.429 . S
C242 H266 0.950 . S
C243 C260 1.574 . S
C243 C262 1.368 1_554 S
C243 H267 0.949 . S
H244 C248 0.949 . S
C245 C246 1.349 1_554 S
C245 C247 1.327 . S
C245 H268 0.950 . S
C246 C245 1.349 1_556 S
C246 C258 1.349 . S
C247 C245 1.327 . S
C247 C263 1.429 1_554 S
C247 H269 0.950 . S
C248 H244 0.949 . S
C248 C256 1.574 . S
C248 C264 1.368 . S
H249 C257 0.950 . S
H250 C255 0.950 . S
H251 C256 0.949 . S
H252 C258 0.950 . S
H253 C259 0.950 . S
H254 C260 0.949 . S
C255 H250 0.950 . S
C255 C257 1.327 . S
C255 C261 1.429 1_554 S
C256 C248 1.574 . S
C256 H251 0.949 . S
C256 C262 1.368 . S
C257 C241 1.349 1_554 S
C257 H249 0.950 . S
C257 C255 1.327 . S
C258 C246 1.349 . S
C258 H252 0.950 . S
C258 C259 1.327 . S
C259 H253 0.950 . S
C259 C258 1.327 . S
C259 C263 1.429 . S
C260 C243 1.574 . S
C260 H254 0.949 . S
C260 C264 1.368 1_554 S
C261 C242 1.429 . S
C261 C255 1.429 1_556 S
C261 C262 1.523 . S
C262 C243 1.368 1_556 S
C262 C256 1.368 . S
C262 C261 1.523 . S
C263 C247 1.429 1_556 S
C263 C259 1.429 . S
C263 C264 1.523 . S
C264 C248 1.368 . S
C264 C260 1.368 1_556 S
C264 C263 1.523 . S
H265 C240 0.950 . S
H266 C242 0.950 . S
H267 C243 0.949 . S
H268 C245 0.950 . S
H269 C247 0.950 . S
C270 C271 1.349 . S
C270 C272 1.327 . S
C270 H295 0.950 . S
C271 C270 1.349 . S
C271 C287 1.349 1_556 S
C272 C270 1.327 . S
C272 C291 1.429 . S
C272 H296 0.950 . S
C273 C290 1.574 . S
C273 C292 1.368 1_554 S
C273 H297 0.949 . S
H274 C278 0.949 . S
C275 C276 1.344 1_554 S
C275 C277 1.327 . S
C275 H298 0.950 . S
C276 C275 1.344 1_556 S
C276 C288 1.354 . S
C277 C275 1.327 . S
C277 C293 1.417 1_554 S
C277 H299 0.950 . S
C278 H274 0.949 . S
C278 C286 1.574 . S
C278 C294 1.368 . S
H279 C287 0.950 . S
H280 C285 0.950 . S
H281 C286 0.949 . S
H282 C288 0.950 . S
H283 C289 0.950 . S
H284 C290 0.949 . S
C285 H280 0.950 . S
C285 C287 1.327 . S
C285 C291 1.429 1_554 S
C286 C278 1.574 . S
C286 H281 0.949 . S
C286 C292 1.368 . S
C287 C271 1.349 1_554 S
C287 H279 0.950 . S
C287 C285 1.327 . S
C288 C276 1.354 . S
C288 H282 0.950 . S
C288 C289 1.327 . S
C289 H283 0.950 . S
C289 C288 1.327 . S
C289 C293 1.439 . S
C290 C273 1.574 . S
C290 H284 0.949 . S
C290 C294 1.368 1_554 S
C291 C272 1.429 . S
C291 C285 1.429 1_556 S
C291 C292 1.523 . S
C292 C273 1.368 1_556 S
C292 C286 1.368 . S
C292 C291 1.523 . S
C293 C277 1.417 1_556 S
C293 C289 1.439 . S
C293 C294 1.525 . S
C294 C278 1.368 . S
C294 C290 1.368 1_556 S
C294 C293 1.525 . S
H295 C270 0.950 . S
H296 C272 0.950 . S
H297 C273 0.949 . S
H298 C275 0.950 . S
H299 C277 0.950 . S
C300 C301 1.349 . S
C300 C302 1.327 . S
C300 H325 0.950 . S
C301 C300 1.349 . S
C301 C317 1.349 1_554 S
C302 C300 1.327 . S
C302 C321 1.429 . S
C302 H326 0.950 . S
C303 C320 1.574 . S
C303 C322 1.368 1_556 S
C303 H327 0.949 . S
H304 C308 0.949 . S
C305 C306 1.349 1_556 S
C305 C307 1.327 . S
C305 H328 0.950 . S
C306 C305 1.349 1_554 S
C306 C318 1.349 . S
C307 C305 1.327 . S
C307 C323 1.429 1_556 S
C307 H329 0.950 . S
C308 H304 0.949 . S
C308 C316 1.574 . S
C308 C324 1.368 . S
H309 C317 0.950 . S
H310 C315 0.950 . S
H311 C316 0.949 . S
H312 C318 0.950 . S
H313 C319 0.950 . S
H314 C320 0.949 . S
C315 H310 0.950 . S
C315 C317 1.327 . S
C315 C321 1.429 1_556 S
C316 C308 1.574 . S
C316 H311 0.949 . S
C316 C322 1.368 . S
C317 C301 1.349 1_556 S
C317 H309 0.950 . S
C317 C315 1.327 . S
C318 C306 1.349 . S
C318 H312 0.950 . S
C318 C319 1.327 . S
C319 H313 0.950 . S
C319 C318 1.327 . S
C319 C323 1.429 . S
C320 C303 1.574 . S
C320 H314 0.949 . S
C320 C324 1.368 1_556 S
C321 C302 1.429 . S
C321 C315 1.429 1_554 S
C321 C322 1.523 . S
C322 C303 1.368 1_554 S
C322 C316 1.368 . S
C322 C321 1.523 . S
C323 C307 1.429 1_554 S
C323 C319 1.429 . S
C323 C324 1.523 . S
C324 C308 1.368 . S
C324 C320 1.368 1_554 S
C324 C323 1.523 . S
H325 C300 0.950 . S
H326 C302 0.950 . S
H327 C303 0.949 . S
H328 C305 0.950 . S
H329 C307 0.950 . S
C330 C331 1.349 . S
C330 C332 1.327 . S
C330 H355 0.950 . S
C331 C330 1.349 . S
C331 C347 1.349 1_554 S
C332 C330 1.327 . S
C332 C351 1.429 . S
C332 H356 0.950 . S
C333 C350 1.574 . S
C333 C352 1.368 1_556 S
C333 H357 0.949 . S
H334 C338 0.949 . S
C335 C336 1.349 1_556 S
C335 C337 1.327 . S
C335 H358 0.950 . S
C336 C335 1.349 1_554 S
C336 C348 1.349 . S
C337 C335 1.327 . S
C337 C353 1.429 1_556 S
C337 H359 0.950 . S
C338 H334 0.949 . S
C338 C346 1.574 . S
C338 C354 1.368 . S
H339 C347 0.950 . S
H340 C345 0.950 . S
H341 C346 0.949 . S
H342 C348 0.950 . S
H343 C349 0.950 . S
H344 C350 0.949 . S
C345 H340 0.950 . S
C345 C347 1.327 . S
C345 C351 1.429 1_556 S
C346 C338 1.574 . S
C346 H341 0.949 . S
C346 C352 1.368 . S
C347 C331 1.349 1_556 S
C347 H339 0.950 . S
C347 C345 1.327 . S
C348 C336 1.349 . S
C348 H342 0.950 . S
C348 C349 1.327 . S
C349 H343 0.950 . S
C349 C348 1.327 . S
C349 C353 1.429 . S
C350 C333 1.574 . S
C350 H344 0.949 . S
C350 C354 1.368 1_556 S
C351 C332 1.429 . S
C351 C345 1.429 1_554 S
C351 C352 1.523 . S
C352 C333 1.368 1_554 S
C352 C346 1.368 . S
C352 C351 1.523 . S
C353 C337 1.429 1_554 S
C353 C349 1.429 . S
C353 C354 1.523 . S
C354 C338 1.368 . S
C354 C350 1.368 1_554 S
C354 C353 1.523 . S
H355 C330 0.950 . S
H356 C332 0.950 . S
H357 C333 0.949 . S
H358 C335 0.950 . S
H359 C337 0.950 . S
C360 C361 1.341 1_556 S
C360 C362 1.327 . S
C360 H385 0.950 . S
C361 C360 1.341 1_554 S
C361 C377 1.358 . S
C362 C360 1.327 . S
C362 C381 1.429 1_556 S
C362 H386 0.950 . S
C363 C380 1.574 . S
C363 C382 1.368 . S
C363 H387 0.949 . S
H364 C368 0.949 . S
C365 C366 1.349 . S
C365 C367 1.327 . S
C365 H388 0.950 . S
C366 C365 1.349 . S
C366 C378 1.349 1_554 S
C367 C365 1.327 . S
C367 C383 1.429 . S
C367 H389 0.950 . S
C368 H364 0.949 . S
C368 C376 1.574 . S
C368 C384 1.368 1_556 S
H369 C377 0.950 . S
H370 C375 0.950 . S
H371 C376 0.949 . S
H372 C378 0.950 . S
H373 C379 0.950 . S
H374 C380 0.949 . S
C375 H370 0.950 . S
C375 C377 1.327 . S
C375 C381 1.429 . S
C376 C368 1.574 . S
C376 H371 0.949 . S
C376 C382 1.368 1_556 S
C377 C361 1.358 . S
C377 H369 0.950 . S
C377 C375 1.327 . S
C378 C366 1.349 1_556 S
C378 H372 0.950 . S
C378 C379 1.327 . S
C379 H373 0.950 . S
C379 C378 1.327 . S
C379 C383 1.429 1_556 S
C380 C363 1.574 . S
C380 H374 0.949 . S
C380 C384 1.368 . S
C381 C362 1.429 1_554 S
C381 C375 1.429 . S
C381 C382 1.523 . S
C382 C363 1.368 . S
C382 C376 1.368 1_554 S
C382 C381 1.523 . S
C383 C367 1.429 . S
C383 C379 1.429 1_554 S
C383 C384 1.523 . S
C384 C368 1.368 1_554 S
C384 C380 1.368 . S
C384 C383 1.523 . S
H385 C360 0.950 . S
H386 C362 0.950 . S
H387 C363 0.949 . S
H388 C365 0.950 . S
H389 C367 0.950 . S
C121 C9 1.456 . S
C126 C18 1.455 1_655 S
C151 C49 1.454 . S
C156 C58 1.453 . S
C181 C98 1.456 . S
C186 C89 1.456 . S
C211 C19 2.608 1_556 S
C216 C90 2.577 1_556 S
C241 C46 0.878 . S
C246 C6 0.876 . S
C271 C59 1.933 . S
C276 C86 1.905 1_556 S
C301 C10 2.608 1_554 S
C306 C99 2.577 1_554 S
C331 C15 0.877 . S
C336 C55 0.879 . S
C361 C95 1.902 1_554 S
C366 C50 1.932 . S
