# Generated by pormake.
# Topology uof, (4)-cn, num edge types: 1
# Building blocks:
#     Node 0, Type 0, BuildingBlock: CEKHIL_clean_sbu_0, # of connection points: 4
#     Node 1, Type 0, BuildingBlock: CEKHIL_clean_sbu_0, # of connection points: 4
#     Node 2, Type 0, BuildingBlock: CEKHIL_clean_sbu_0, # of connection points: 4
#     Node 3, Type 0, BuildingBlock: CEKHIL_clean_sbu_0, # of connection points: 4
#     Node 4, Type 0, BuildingBlock: CEKHIL_clean_sbu_0, # of connection points: 4
#     Node 5, Type 0, BuildingBlock: CEKHIL_clean_sbu_0, # of connection points: 4
#     Node 6, Type 0, BuildingBlock: CEKHIL_clean_sbu_0, # of connection points: 4
#     Node 7, Type 0, BuildingBlock: CEKHIL_clean_sbu_0, # of connection points: 4
#     Node 8, Type 0, BuildingBlock: CEKHIL_clean_sbu_0, # of connection points: 4
#     Node 9, Type 0, BuildingBlock: CEKHIL_clean_sbu_0, # of connection points: 4
#     Node 10, Type 0, BuildingBlock: CEKHIL_clean_sbu_0, # of connection points: 4
#     Node 11, Type 0, BuildingBlock: CEKHIL_clean_sbu_0, # of connection points: 4
#     Edge 12, Type (0, 0), BuildingBlock: TEMPAE_clean_linker_10, # of connection points: 2
#     Edge 13, Type (0, 0), BuildingBlock: TEMPAE_clean_linker_10, # of connection points: 2
#     Edge 14, Type (0, 0), BuildingBlock: TEMPAE_clean_linker_10, # of connection points: 2
#     Edge 15, Type (0, 0), BuildingBlock: TEMPAE_clean_linker_10, # of connection points: 2
#     Edge 16, Type (0, 0), BuildingBlock: TEMPAE_clean_linker_10, # of connection points: 2
#     Edge 17, Type (0, 0), BuildingBlock: TEMPAE_clean_linker_10, # of connection points: 2
#     Edge 18, Type (0, 0), BuildingBlock: TEMPAE_clean_linker_10, # of connection points: 2
#     Edge 19, Type (0, 0), BuildingBlock: TEMPAE_clean_linker_10, # of connection points: 2
#     Edge 20, Type (0, 0), BuildingBlock: TEMPAE_clean_linker_10, # of connection points: 2
#     Edge 21, Type (0, 0), BuildingBlock: TEMPAE_clean_linker_10, # of connection points: 2
#     Edge 22, Type (0, 0), BuildingBlock: TEMPAE_clean_linker_10, # of connection points: 2
#     Edge 23, Type (0, 0), BuildingBlock: TEMPAE_clean_linker_10, # of connection points: 2
#     Edge 24, Type (0, 0), BuildingBlock: TEMPAE_clean_linker_10, # of connection points: 2
#     Edge 25, Type (0, 0), BuildingBlock: TEMPAE_clean_linker_10, # of connection points: 2
#     Edge 26, Type (0, 0), BuildingBlock: TEMPAE_clean_linker_10, # of connection points: 2
#     Edge 27, Type (0, 0), BuildingBlock: TEMPAE_clean_linker_10, # of connection points: 2
#     Edge 28, Type (0, 0), BuildingBlock: TEMPAE_clean_linker_10, # of connection points: 2
#     Edge 29, Type (0, 0), BuildingBlock: TEMPAE_clean_linker_10, # of connection points: 2
#     Edge 30, Type (0, 0), BuildingBlock: TEMPAE_clean_linker_10, # of connection points: 2
#     Edge 31, Type (0, 0), BuildingBlock: TEMPAE_clean_linker_10, # of connection points: 2
#     Edge 32, Type (0, 0), BuildingBlock: TEMPAE_clean_linker_10, # of connection points: 2
#     Edge 33, Type (0, 0), BuildingBlock: TEMPAE_clean_linker_10, # of connection points: 2
#     Edge 34, Type (0, 0), BuildingBlock: TEMPAE_clean_linker_10, # of connection points: 2
#     Edge 35, Type (0, 0), BuildingBlock: TEMPAE_clean_linker_10, # of connection points: 2
# Relax obj value: 0.198
# Max RMSD: 0.143
# Mean RMSD: 0.142
data_MOF--net-uof--node1-CEKHIL_clean_sbu_0--edge1-TEMPAE_clean_linker_10
_symmetry_space_group_name_H-M    P1
_symmetry_Int_Tables_number       1
_symmetry_cell_setting            triclinic
loop_
_symmetry_equiv_pos_as_xyz
'x, y, z'
_cell_length_a     32.306994
_cell_length_b     32.335194
_cell_length_c     63.023421
_cell_angle_alpha  90.047326
_cell_angle_beta   89.915605
_cell_angle_gamma 120.02769
loop_
_atom_site_label
_atom_site_type_symbol
_atom_site_fract_x
_atom_site_fract_y
_atom_site_fract_z
_atom_type_partial_charge
Co0 Co 0.21572 0.30801 0.2403 0.0
O1 O 0.14629 0.26925 0.23813 0.0
O2 O 0.19119 0.3235 0.21469 0.0
C3 C 0.21863 0.32408 0.27548 0.0
O4 O 0.28904 0.35579 0.23745 0.0
Co5 Co 0.27298 0.2773 0.27054 0.0
O6 O 0.32748 0.34123 0.26375 0.0
C7 C 0.22143 0.22028 0.23306 0.0
C8 C 0.14856 0.2898 0.22016 0.0
C9 C 0.32739 0.36663 0.2483 0.0
O10 O 0.22053 0.25627 0.22478 0.0
O11 O 0.2359 0.22049 0.25196 0.0
O12 O 0.21141 0.35048 0.26203 0.0
O13 O 0.22041 0.28879 0.26743 0.0
Co14 Co 0.93989 0.22768 0.55859 0.0
O15 O 0.90262 0.15866 0.56203 0.0
O16 O 0.8858 0.19899 0.53887 0.0
C17 C 0.9534 0.25035 0.59332 0.0
O18 O 0.97022 0.29968 0.55086 0.0
Co19 Co 0.04632 0.28115 0.57356 0.0
O20 O 0.04728 0.3381 0.56142 0.0
C21 C 1.00913 0.20286 0.54347 0.0
C22 C 0.87692 0.15746 0.54595 0.0
C23 C 0.01136 0.33837 0.55322 0.0
O24 O 0.97957 0.21602 0.5374 0.0
O25 O 0.03569 0.22098 0.55975 0.0
O26 O 0.91257 0.23995 0.5847 0.0
O27 O 0.98015 0.24088 0.58171 0.0
Co28 Co 0.71193 0.92734 0.8989 0.0
O29 O 0.74727 0.89305 0.89956 0.0
O30 O 0.69087 0.87858 0.87641 0.0
C31 C 0.69929 0.92896 0.93435 0.0
O32 O 0.66774 0.95616 0.89366 0.0
Co33 Co 0.75759 0.0278 0.92123 0.0
O34 O 0.70042 0.02789 0.91011 0.0
C35 C 0.80004 0.01437 0.88286 0.0
C36 C 0.7245 0.8702 0.88262 0.0
C37 C 0.66756 0.995 0.8989 0.0
O38 O 0.76193 0.97449 0.87912 0.0
O39 O 0.80734 0.03875 0.8998 0.0
O40 O 0.67085 0.89098 0.92338 0.0
O41 O 0.73578 0.96064 0.9242 0.0
Co42 Co 0.77711 0.69139 0.23666 0.0
O43 O 0.84694 0.72648 0.23717 0.0
O44 O 0.80459 0.67227 0.21328 0.0
C45 C 0.76319 0.67595 0.27199 0.0
O46 O 0.70392 0.64717 0.23142 0.0
Co47 Co 0.72146 0.7339 0.26069 0.0
O48 O 0.66407 0.67654 0.24975 0.0
C49 C 0.77897 0.78144 0.22327 0.0
C50 C 0.84679 0.70507 0.21971 0.0
C51 C 0.6645 0.64516 0.23761 0.0
O52 O 0.78006 0.74347 0.21822 0.0
O53 O 0.76189 0.78653 0.24073 0.0
O54 O 0.77246 0.6483 0.26024 0.0
O55 O 0.76785 0.71311 0.2626 0.0
Co56 Co 0.08432 0.77594 0.55468 0.0
O57 O 0.10388 0.84373 0.55479 0.0
O58 O 0.14688 0.8151 0.54104 0.0
C59 C 0.05481 0.75744 0.58846 0.0
O60 O 0.07538 0.70775 0.5517 0.0
Co61 Co 0.97585 0.69873 0.56008 0.0
O62 O 1.00068 0.65427 0.56273 0.0
C63 C 1.01052 0.75855 0.52192 0.0
C64 C 0.14133 0.852 0.54383 0.0
C65 C 0.04241 0.66464 0.5567 0.0
O66 O 0.05377 0.77079 0.52649 0.0
O67 O 0.97484 0.73323 0.53402 0.0
O68 O 0.10074 0.77727 0.58516 0.0
O69 O 0.03035 0.75461 0.57192 0.0
Co70 Co 0.31832 0.09169 0.89367 0.0
O71 O 0.27166 0.11304 0.89181 0.0
O72 O 0.34326 0.15195 0.87767 0.0
C73 C 0.30529 0.06914 0.9285 0.0
O74 O 0.37603 0.0797 0.8924 0.0
Co75 Co 0.28515 0.98478 0.90525 0.0
O76 O 0.35433 0.00909 0.90836 0.0
C77 C 0.26328 0.01067 0.86346 0.0
C78 C 0.30142 0.14831 0.87999 0.0
C79 C 0.38574 0.04801 0.89987 0.0
O80 O 0.29154 0.05538 0.8667 0.0
O81 O 0.25365 0.97802 0.87723 0.0
O82 O 0.33411 0.11382 0.9236 0.0
O83 O 0.28389 0.04195 0.91266 0.0
Co84 Co 0.71205 0.79342 0.43392 0.0
O85 O 0.73735 0.86217 0.43297 0.0
O86 O 0.69666 0.81648 0.45988 0.0
C87 C 0.68326 0.7743 0.40033 0.0
O88 O 0.6792 0.72086 0.44047 0.0
Co89 Co 0.7551 0.74668 0.40452 0.0
O90 O 0.70765 0.68604 0.4183 0.0
C91 C 0.81317 0.81678 0.43647 0.0
C92 C 0.72169 0.85953 0.45221 0.0
C93 C 0.67959 0.68351 0.43317 0.0
O94 O 0.77466 0.80678 0.44663 0.0
O95 O 0.81253 0.80159 0.41768 0.0
O96 O 0.65734 0.7792 0.41495 0.0
O97 O 0.72572 0.78597 0.40604 0.0
Co98 Co 0.92034 0.70176 0.76619 0.0
O99 O 0.88933 0.74022 0.76842 0.0
O100 O 0.88103 0.68697 0.79211 0.0
C101 C 0.90601 0.68488 0.73112 0.0
O102 O 0.94635 0.65424 0.76901 0.0
Co103 Co 1.00733 0.73156 0.73525 0.0
O104 O 0.99837 0.66799 0.74227 0.0
C105 C 0.01278 0.79071 0.77194 0.0
C106 C 0.87153 0.72017 0.78655 0.0
C107 C 0.97351 0.64311 0.75798 0.0
O108 O 0.97744 0.75454 0.78103 0.0
O109 O 0.02603 0.78951 0.75292 0.0
O110 O 0.87282 0.65866 0.74481 0.0
O111 O 0.9434 0.72025 0.73888 0.0
Co112 Co 0.22232 0.91181 0.11118 0.0
O113 O 0.15405 0.88978 0.11314 0.0
O114 O 0.18852 0.85606 0.13017 0.0
C115 C 0.22872 0.92433 0.07548 0.0
O116 O 0.29262 0.92527 0.11294 0.0
Co117 Co 0.29435 0.01472 0.09407 0.0
O118 O 0.34084 0.99202 0.0942 0.0
C119 C 0.24885 1.00044 0.13619 0.0
C120 C 0.14966 0.85799 0.12687 0.0
C121 C 0.33388 0.95554 0.10475 0.0
O122 O 0.23292 0.95528 0.13569 0.0
O123 O 0.27072 0.02898 0.12082 0.0
O124 O 0.21457 0.88162 0.08286 0.0
O125 O 0.23535 0.95578 0.08946 0.0
Co126 Co 0.32664 0.24131 0.4485 0.0
O127 O 0.2768 0.17427 0.44817 0.0
O128 O 0.34878 0.20002 0.461 0.0
C129 C 0.31404 0.26151 0.41546 0.0
O130 O 0.38754 0.30884 0.45092 0.0
Co131 Co 0.29676 0.31991 0.44585 0.0
O132 O 0.36605 0.36347 0.44226 0.0
C133 C 0.26806 0.25256 0.48131 0.0
C134 C 0.30543 0.16426 0.45846 0.0
C135 C 0.39772 0.35227 0.44654 0.0
O136 O 0.30331 0.24616 0.4773 0.0
O137 O 0.25696 0.27781 0.46961 0.0
O138 O 0.33924 0.24041 0.41769 0.0
O139 O 0.29411 0.26451 0.43259 0.0
Co140 Co 0.10588 0.32195 0.7691 0.0
O141 O 0.13981 0.28622 0.76938 0.0
O142 O 0.15173 0.34138 0.79277 0.0
C143 C 0.10866 0.33461 0.73366 0.0
O144 O 0.07754 0.36712 0.77338 0.0
Co145 Co 1.00861 0.28028 0.74454 0.0
O146 O 1.01037 0.33971 0.75367 0.0
C147 C 0.02164 0.23016 0.78026 0.0
C148 C 0.16077 0.30806 0.78678 0.0
C149 C 0.04159 0.37054 0.76618 0.0
O150 O 0.05559 0.27029 0.7872 0.0
O151 O 1.00207 0.22596 0.76216 0.0
O152 O 0.14545 0.36329 0.74526 0.0
O153 O 0.07533 0.29883 0.7434 0.0
Co154 Co 0.78511 0.08607 0.10536 0.0
O155 O 0.85489 0.12084 0.1052 0.0
O156 O 0.81152 0.13036 0.12949 0.0
C157 C 0.77264 0.09112 0.07026 0.0
O158 O 0.7119 0.05688 0.11054 0.0
Co159 Co 0.72875 0.99041 0.07983 0.0
O160 O 0.6711 0.988 0.09207 0.0
C161 C 0.79044 0.99898 0.1153 0.0
C162 C 0.85394 0.14059 0.12301 0.0
C163 C 0.67225 0.01964 0.10452 0.0
O164 O 0.7877 0.03488 0.12239 0.0
O165 O 0.77463 0.98038 0.09709 0.0
O166 O 0.78152 0.12695 0.08268 0.0
O167 O 0.77638 0.05742 0.07896 0.0
C168 C 0.89949 0.19529 0.154 0.0
C169 C 0.89838 0.16815 0.13633 0.0
C170 C 0.94028 0.21838 0.16732 0.0
C171 C 0.98102 0.21353 0.16336 0.0
C172 C 0.98008 0.18638 0.14546 0.0
C173 C 0.93934 0.16465 0.13217 0.0
C174 C 0.9395 0.2475 0.18586 0.0
C175 C 0.02167 0.17891 0.14068 0.0
C176 C 0.10455 0.29829 0.18833 0.0
C177 C 0.10521 0.27217 0.20603 0.0
C178 C 0.06421 0.28044 0.17471 0.0
C179 C 0.02353 0.23466 0.17841 0.0
C180 C 0.02418 0.20823 0.19626 0.0
C181 C 0.06441 0.22737 0.20984 0.0
C182 C 0.06526 0.31053 0.15622 0.0
C183 C 0.98264 0.15896 0.20078 0.0
H184 H 0.86828 0.19835 0.15752 0.0
H185 H 0.93907 0.14344 0.11879 0.0
H186 H 0.94076 0.23049 0.20094 0.0
H187 H 0.97155 0.28374 0.18544 0.0
H188 H 0.90701 0.251 0.18595 0.0
H189 H 0.01613 0.15786 0.12595 0.0
H190 H 0.05501 0.21384 0.13896 0.0
H191 H 0.02705 0.15988 0.15409 0.0
H192 H 0.13561 0.33285 0.18511 0.0
H193 H 0.0643 0.20641 0.22328 0.0
H194 H 0.03348 0.31516 0.15675 0.0
H195 H 0.06363 0.29219 0.14111 0.0
H196 H 0.09801 0.34635 0.15613 0.0
H197 H 0.94936 0.16055 0.20284 0.0
H198 H 0.98835 0.14286 0.21525 0.0
H199 H 0.97697 0.13504 0.18711 0.0
C200 C 0.81363 0.10829 0.51835 0.0
C201 C 0.84629 0.11176 0.53396 0.0
C202 C 0.78888 0.06696 0.50549 0.0
C203 C 0.79782 0.02835 0.50769 0.0
C204 C 0.83034 0.03156 0.52361 0.0
C205 C 0.8535 0.07261 0.53661 0.0
C206 C 0.75381 0.06506 0.4892 0.0
C207 C 0.84234 0.99236 0.52637 0.0
C208 C 0.71508 0.90243 0.48482 0.0
C209 C 0.73779 0.9036 0.46559 0.0
C210 C 0.73292 0.94308 0.4982 0.0
C211 C 0.77551 0.98588 0.49271 0.0
C212 C 0.79826 0.98724 0.47322 0.0
C213 C 0.77892 0.94662 0.45989 0.0
C214 C 0.70651 0.93994 0.51843 0.0
C215 C 0.84427 0.03118 0.46676 0.0
H216 H 0.80778 0.13817 0.51601 0.0
H217 H 0.87908 0.07485 0.54832 0.0
H218 H 0.76779 0.06592 0.47302 0.0
H219 H 0.7193 0.03111 0.49071 0.0
H220 H 0.7471 0.09542 0.49081 0.0
H221 H 0.86757 0.99959 0.53969 0.0
H222 H 0.80933 0.95775 0.52933 0.0
H223 H 0.85867 0.98838 0.51156 0.0
H224 H 0.6834 0.86957 0.48948 0.0
H225 H 0.7973 0.94808 0.44527 0.0
H226 H 0.69979 0.97035 0.51946 0.0
H227 H 0.72873 0.94241 0.5323 0.0
H228 H 0.6718 0.90603 0.51957 0.0
H229 H 0.83919 0.06263 0.46615 0.0
H230 H 0.85733 0.027 0.45103 0.0
H231 H 0.87233 0.03892 0.47876 0.0
C232 C 0.78684 0.84765 0.87325 0.0
C233 C 0.74128 0.84202 0.86962 0.0
C234 C 0.80598 0.82574 0.86012 0.0
C235 C 0.77887 0.7962 0.84294 0.0
C236 C 0.73222 0.78917 0.83956 0.0
C237 C 0.71433 0.81248 0.85268 0.0
C238 C 0.85613 0.83564 0.86427 0.0
C239 C 0.70137 0.7575 0.8218 0.0
C240 C 0.84726 0.78117 0.79612 0.0
C241 C 0.84543 0.73762 0.80061 0.0
C242 C 0.82569 0.80017 0.80955 0.0
C243 C 0.80041 0.77492 0.82799 0.0
C244 C 0.79753 0.73039 0.83241 0.0
C245 C 0.82035 0.71263 0.81889 0.0
C246 C 0.83102 0.84811 0.8042 0.0
C247 C 0.77058 0.70158 0.85159 0.0
H248 H 0.80853 0.87073 0.88603 0.0
H249 H 0.67925 0.80778 0.84956 0.0
H250 H 0.85618 0.80162 0.8664 0.0
H251 H 0.87919 0.85415 0.85039 0.0
H252 H 0.8722 0.85818 0.87857 0.0
H253 H 0.66476 0.75251 0.82217 0.0
H254 H 0.718 0.77335 0.8063 0.0
H255 H 0.69869 0.72198 0.8228 0.0
H256 H 0.86672 0.80128 0.78223 0.0
H257 H 0.8185 0.67906 0.82266 0.0
H258 H 0.84985 0.87373 0.81728 0.0
H259 H 0.79531 0.8448 0.80258 0.0
H260 H 0.85131 0.86322 0.78925 0.0
H261 H 0.78803 0.72174 0.86626 0.0
H262 H 0.76897 0.66648 0.85224 0.0
H263 H 0.73357 0.69544 0.85149 0.0
C264 C 0.89233 0.69915 0.18773 0.0
C265 C 0.89185 0.72203 0.20666 0.0
C266 C 0.93368 0.71764 0.17464 0.0
C267 C 0.97599 0.76064 0.18026 0.0
C268 C 0.97578 0.78348 0.19949 0.0
C269 C 0.93424 0.76396 0.21237 0.0
C270 C 0.93177 0.69154 0.15449 0.0
C271 C 0.01923 0.82956 0.20624 0.0
C272 C 0.09907 0.79653 0.15517 0.0
C273 C 0.10404 0.82984 0.13956 0.0
C274 C 0.0575 0.77304 0.1681 0.0
C275 C 0.01957 0.78305 0.1657 0.0
C276 C 0.02426 0.81621 0.14979 0.0
C277 C 0.06591 0.83881 0.13701 0.0
C278 C 0.05455 0.73803 0.18466 0.0
C279 C 0.9856 0.82885 0.14656 0.0
H280 H 0.86008 0.66699 0.18295 0.0
H281 H 0.93468 0.78253 0.22676 0.0
H282 H 0.93581 0.71426 0.14058 0.0
H283 H 0.96187 0.68426 0.15406 0.0
H284 H 0.89765 0.65718 0.1529 0.0
H285 H 0.01431 0.84215 0.22194 0.0
H286 H 0.05093 0.82486 0.20703 0.0
H287 H 0.02709 0.85778 0.19431 0.0
H288 H 0.12803 0.78924 0.15751 0.0
H289 H 0.06897 0.86457 0.12522 0.0
H290 H 0.02109 0.70331 0.18263 0.0
H291 H 0.05339 0.75156 0.20071 0.0
H292 H 0.08544 0.73194 0.18388 0.0
H293 H 0.95085 0.79607 0.1435 0.0
H294 H 0.99361 0.85399 0.13313 0.0
H295 H 0.98133 0.84549 0.16119 0.0
C296 C 0.24108 0.07824 0.46458 0.0
C297 C 0.28662 0.11678 0.46957 0.0
C298 C 0.21992 0.03521 0.4764 0.0
C299 C 0.24401 0.03022 0.49421 0.0
C300 C 0.29027 0.06882 0.49918 0.0
C301 C 0.31105 0.11116 0.48678 0.0
C302 C 0.17081 0.99572 0.47014 0.0
C303 C 0.31718 0.06613 0.51817 0.0
C304 C 0.16503 0.93836 0.53669 0.0
C305 C 0.17143 0.8991 0.53257 0.0
C306 C 0.18911 0.98123 0.5248 0.0
C307 C 0.2202 0.98544 0.50791 0.0
C308 C 0.22713 0.94608 0.50379 0.0
C309 C 0.20312 0.90385 0.51617 0.0
C310 C 0.18032 0.02174 0.53005 0.0
C311 C 0.25863 0.94788 0.48571 0.0
H312 H 0.22133 0.08196 0.45155 0.0
H313 H 0.34578 0.14069 0.49114 0.0
H314 H 0.1684 0.96031 0.47111 0.0
H315 H 0.14402 0.99545 0.48123 0.0
H316 H 0.16116 1.00069 0.45381 0.0
H317 H 0.35319 0.09829 0.51971 0.0
H318 H 0.29651 0.06238 0.53284 0.0
H319 H 0.32126 0.03412 0.51705 0.0
H320 H 0.14045 0.93538 0.54911 0.0
H321 H 0.20802 0.87383 0.51248 0.0
H322 H 0.16011 0.02643 0.51697 0.0
H323 H 0.21476 0.05572 0.53163 0.0
H324 H 0.15959 0.01525 0.54497 0.0
H325 H 0.24393 0.9522 0.4705 0.0
H326 H 0.26152 0.91511 0.48478 0.0
H327 H 0.29502 0.97925 0.48748 0.0
C328 C 0.23792 0.16833 0.86926 0.0
C329 C 0.28557 0.17831 0.86782 0.0
C330 C 0.22038 0.1923 0.85656 0.0
C331 C 0.25096 0.22782 0.84186 0.0
C332 C 0.29947 0.23897 0.84069 0.0
C333 C 0.31605 0.21414 0.85353 0.0
C334 C 0.16844 0.17848 0.85847 0.0
C335 C 0.33371 0.27647 0.82544 0.0
C336 C 0.19055 0.25034 0.79404 0.0
C337 C 0.18812 0.29097 0.80018 0.0
C338 C 0.21154 0.23029 0.80714 0.0
C339 C 0.23136 0.25119 0.8271 0.0
C340 C 0.23018 0.29298 0.83318 0.0
C341 C 0.20852 0.31211 0.8198 0.0
C342 C 0.21123 0.18567 0.79982 0.0
C343 C 0.25089 0.31694 0.85414 0.0
H344 H 0.21364 0.14065 0.88003 0.0
H345 H 0.35277 0.22222 0.85206 0.0
H346 H 0.16532 0.21054 0.86172 0.0
H347 H 0.14983 0.16306 0.84325 0.0
H348 H 0.14972 0.15193 0.87127 0.0
H349 H 0.37085 0.28345 0.8273 0.0
H350 H 0.32199 0.26474 0.80889 0.0
H351 H 0.33359 0.3104 0.82785 0.0
H352 H 0.17481 0.23318 0.77907 0.0
H353 H 0.20683 0.34323 0.82492 0.0
H354 H 0.18958 0.15587 0.81092 0.0
H355 H 0.24807 0.19139 0.79995 0.0
H356 H 0.19628 0.17467 0.7836 0.0
H357 H 0.23029 0.29251 0.86732 0.0
H358 H 0.25021 0.35075 0.85606 0.0
H359 H 0.28836 0.3248 0.85559 0.0
C360 C 0.57691 0.61143 0.23129 0.0
C361 C 0.61622 0.60394 0.23207 0.0
C362 C 0.52947 0.57319 0.23081 0.0
C363 C 0.52031 0.52554 0.23113 0.0
C364 C 0.55983 0.51759 0.23048 0.0
C365 C 0.60726 0.5568 0.23094 0.0
C366 C 0.48912 0.58401 0.2315 0.0
C367 C 0.55202 0.46756 0.23063 0.0
C368 C 0.40666 0.43407 0.25989 0.0
C369 C 0.37462 0.40984 0.24322 0.0
C370 C 0.4536 0.47139 0.25609 0.0
C371 C 0.47003 0.48498 0.23499 0.0
C372 C 0.43776 0.46112 0.21801 0.0
C373 C 0.39036 0.42415 0.22231 0.0
C374 C 0.48578 0.49617 0.27482 0.0
C375 C 0.45366 0.47398 0.19528 0.0
H376 H 0.5832 0.64764 0.23202 0.0
H377 H 0.63711 0.5504 0.23172 0.0
H378 H 0.46154 0.56252 0.2195 0.0
H379 H 0.47166 0.57419 0.24731 0.0
H380 H 0.50177 0.62242 0.22864 0.0
H381 H 0.5854 0.46696 0.22706 0.0
H382 H 0.53895 0.45137 0.2465 0.0
H383 H 0.52429 0.44491 0.21889 0.0
H384 H 0.39495 0.4235 0.27612 0.0
H385 H 0.36628 0.40529 0.20931 0.0
H386 H 0.49821 0.53497 0.27433 0.0
H387 H 0.51796 0.49227 0.27403 0.0
H388 H 0.46757 0.48167 0.29024 0.0
H389 H 0.46669 0.51245 0.19253 0.0
H390 H 0.42446 0.45268 0.18386 0.0
H391 H 0.48399 0.46795 0.19199 0.0
C392 C 0.03964 0.59255 0.57209 0.0
C393 C 0.05017 0.62323 0.55467 0.0
C394 C 0.03468 0.54698 0.56984 0.0
C395 C 0.03908 0.53074 0.54951 0.0
C396 C 0.05088 0.56208 0.53189 0.0
C397 C 0.05654 0.60805 0.5347 0.0
C398 C 0.02329 0.51562 0.58921 0.0
C399 C 0.05534 0.54623 0.50991 0.0
C400 C 0.06404 0.42732 0.54983 0.0
C401 C 0.01793 0.38683 0.54845 0.0
C402 C 0.07149 0.47403 0.54934 0.0
C403 C 0.03207 0.48131 0.54702 0.0
C404 C 0.98571 0.4409 0.54425 0.0
C405 C 0.97912 0.3942 0.54511 0.0
C406 C 0.12146 0.51557 0.5526 0.0
C407 C 0.94271 0.44693 0.54131 0.0
H408 H 0.03363 0.60374 0.58746 0.0
H409 H 0.06308 0.63095 0.52107 0.0
H410 H 0.98767 0.48318 0.58737 0.0
H411 H 0.04987 0.50365 0.59094 0.0
H412 H 0.02317 0.53426 0.60401 0.0
H413 H 0.06684 0.57536 0.49804 0.0
H414 H 0.08141 0.53342 0.50986 0.0
H415 H 0.02035 0.51582 0.50492 0.0
H416 H 0.09467 0.42265 0.55222 0.0
H417 H 0.94337 0.36357 0.54402 0.0
H418 H 0.12335 0.53293 0.56804 0.0
H419 H 0.13058 0.54285 0.54005 0.0
H420 H 0.14882 0.50434 0.55252 0.0
H421 H 0.93519 0.45995 0.55631 0.0
H422 H 0.91031 0.41291 0.5368 0.0
H423 H 0.94992 0.47407 0.52891 0.0
C424 C 0.45648 0.04742 0.91517 0.0
C425 C 0.43372 0.05275 0.89729 0.0
C426 C 0.49506 0.03895 0.91319 0.0
C427 C 0.51082 0.03428 0.89277 0.0
C428 C 0.48876 0.04089 0.87461 0.0
C429 C 0.45067 0.05027 0.87709 0.0
C430 C 0.51793 0.0334 0.93305 0.0
C431 C 0.50385 0.03578 0.85256 0.0
C432 C 0.63605 0.05018 0.89145 0.0
C433 C 0.62711 1.00298 0.89313 0.0
C434 C 0.59876 0.06062 0.89024 0.0
C435 C 0.55067 0.02303 0.8907 0.0
C436 C 0.54124 0.97507 0.89112 0.0
C437 C 0.57952 0.96558 0.89231 0.0
C438 C 0.61098 0.11221 0.88975 0.0
C439 C 0.49059 0.93378 0.89143 0.0
H440 H 0.44279 0.04814 0.93081 0.0
H441 H 0.43219 0.05267 0.86321 0.0
H442 H 0.51241 0.9967 0.93383 0.0
H443 H 0.55707 0.05851 0.9327 0.0
H444 H 0.50303 0.04012 0.9477 0.0
H445 H 0.48526 0.04465 0.84009 0.0
H446 H 0.54299 0.05929 0.85057 0.0
H447 H 0.4958 0.99849 0.85011 0.0
H448 H 0.67266 0.0795 0.89189 0.0
H449 H 0.57205 0.92908 0.89376 0.0
H450 H 0.59994 0.1213 0.90493 0.0
H451 H 0.59121 0.1181 0.87684 0.0
H452 H 0.64986 0.13709 0.88744 0.0
H453 H 0.47351 0.93337 0.90677 0.0
H454 H 0.48899 0.89887 0.8894 0.0
H455 H 0.46932 0.93795 0.87867 0.0
C456 C 0.6526 0.59648 0.43807 0.0
C457 C 0.64328 0.63435 0.44042 0.0
C458 C 0.61672 0.54857 0.44124 0.0
C459 C 0.56971 0.53759 0.4466 0.0
C460 C 0.56055 0.57577 0.44999 0.0
C461 C 0.59743 0.62359 0.44701 0.0
C462 C 0.62864 0.50951 0.43775 0.0
C463 C 0.51104 0.56599 0.45558 0.0
C464 C 0.46373 0.42023 0.42733 0.0
C465 C 0.44771 0.39293 0.44597 0.0
C466 C 0.50413 0.46639 0.42725 0.0
C467 C 0.5293 0.4865 0.44638 0.0
C468 C 0.51464 0.45821 0.46511 0.0
C469 C 0.47395 0.41179 0.4647 0.0
C470 C 0.51829 0.4946 0.40681 0.0
C471 C 0.54036 0.4779 0.48583 0.0
H472 H 0.68789 0.60421 0.43308 0.0
H473 H 0.58957 0.65232 0.44867 0.0
H474 H 0.61482 0.48353 0.45104 0.0
H475 H 0.61109 0.48969 0.42302 0.0
H476 H 0.66775 0.52382 0.43625 0.0
H477 H 0.51049 0.59919 0.45955 0.0
H478 H 0.48669 0.54844 0.44196 0.0
H479 H 0.49667 0.54114 0.46926 0.0
H480 H 0.44294 0.40627 0.41293 0.0
H481 H 0.46094 0.39156 0.47929 0.0
H482 H 0.55657 0.50791 0.40328 0.0
H483 H 0.51372 0.52625 0.40849 0.0
H484 H 0.49661 0.47308 0.3931 0.0
H485 H 0.5795 0.4938 0.48365 0.0
H486 H 0.52812 0.45004 0.49835 0.0
H487 H 0.53395 0.50678 0.4914 0.0
C488 C 0.98078 0.5732 0.74611 0.0
C489 C 0.97779 0.60005 0.763 0.0
C490 C 0.99194 0.53679 0.74941 0.0
C491 C 1.00142 0.52687 0.77018 0.0
C492 C 0.99769 0.55326 0.78743 0.0
C493 C 0.98559 0.58925 0.78367 0.0
C494 C 0.99421 0.50931 0.73047 0.0
C495 C 1.00781 0.54439 0.8098 0.0
C496 C 0.98744 0.40263 0.77513 0.0
C497 C 0.03431 0.41151 0.77193 0.0
C498 C 0.97683 0.43991 0.77609 0.0
C499 C 0.01381 0.48792 0.77349 0.0
C500 C 0.0617 0.49742 0.77146 0.0
C501 C 0.07142 0.4592 0.7708 0.0
C502 C 0.92536 0.42746 0.77846 0.0
C503 C 0.10241 0.54783 0.76865 0.0
H504 H 0.97496 0.58126 0.73006 0.0
H505 H 0.98433 0.61029 0.79679 0.0
H506 H 0.03061 0.51415 0.72904 0.0
H507 H 0.96895 0.47057 0.73266 0.0
H508 H 0.9853 0.52086 0.71539 0.0
H509 H 1.00184 0.56646 0.82158 0.0
H510 H 0.98476 0.50615 0.81397 0.0
H511 H 0.04546 0.55266 0.811 0.0
H512 H 0.95843 0.36595 0.77605 0.0
H513 H 0.10761 0.46657 0.76804 0.0
H514 H 0.9125 0.43411 0.76323 0.0
H515 H 0.92204 0.45038 0.79066 0.0
H516 H 0.90167 0.38944 0.78293 0.0
H517 H 0.09985 0.56124 0.75279 0.0
H518 H 0.1378 0.55014 0.76995 0.0
H519 H 0.10023 0.57177 0.78067 0.0
C520 C 0.40279 0.97003 0.12791 0.0
C521 C 0.3776 0.95235 0.10883 0.0
C522 C 0.45088 0.98109 0.12991 0.0
C523 C 0.47461 0.97425 0.11243 0.0
C524 C 0.44846 0.95435 0.09345 0.0
C525 C 0.40072 0.94433 0.0918 0.0
C526 C 0.47706 1.00246 0.1504 0.0
C527 C 0.47161 0.94567 0.07445 0.0
C528 C 0.61135 0.04663 0.10593 0.0
C529 C 0.62463 0.01261 0.11094 0.0
C530 C 0.56298 0.03525 0.10705 0.0
C531 C 0.52694 0.98893 0.11362 0.0
C532 C 0.54085 0.95555 0.11987 0.0
C533 C 0.58914 0.96752 0.11817 0.0
C534 C 0.55011 0.07198 0.10003 0.0
C535 C 0.50434 0.90615 0.12732 0.0
H536 H 0.3858 0.97805 0.14086 0.0
H537 H 0.38201 0.93211 0.07681 0.0
H538 H 0.49476 0.98272 0.15611 0.0
H539 H 0.5055 0.03998 0.14762 0.0
H540 H 0.45285 1.00208 0.16303 0.0
H541 H 0.44583 0.92748 0.06133 0.0
H542 H 0.50109 0.98022 0.06848 0.0
H543 H 0.48749 0.92348 0.07904 0.0
H544 H 0.63825 0.08108 0.09983 0.0
H545 H 0.59901 0.94082 0.12182 0.0
H546 H 0.52788 0.07635 0.11228 0.0
H547 H 0.52852 0.05961 0.08529 0.0
H548 H 0.58223 0.10732 0.09691 0.0
H549 H 0.48124 0.90829 0.13981 0.0
H550 H 0.52127 0.88617 0.13371 0.0
H551 H 0.48084 0.8856 0.11388 0.0
C552 C 0.27329 0.06361 0.16296 0.0
C553 C 0.23766 0.02058 0.15448 0.0
C554 C 0.26171 0.08918 0.17726 0.0
C555 C 0.21311 0.07165 0.18258 0.0
C556 C 0.17715 0.02688 0.17483 0.0
C557 C 0.19006 1.00144 0.16091 0.0
C558 C 0.30127 0.1361 0.1858 0.0
C559 C 0.12498 0.00744 0.17995 0.0
C560 C 0.20586 0.13713 0.22995 0.0
C561 C 0.20826 0.17737 0.22022 0.0
C562 C 0.20244 0.09942 0.21785 0.0
C563 C 0.20088 0.10193 0.19557 0.0
C564 C 0.19747 0.13954 0.18579 0.0
C565 C 0.20148 0.17721 0.19829 0.0
C566 C 0.20567 0.0596 0.22883 0.0
C567 C 0.19404 0.1422 0.162 0.0
H568 H 0.31003 0.07804 0.15779 0.0
H569 H 0.16259 0.96834 0.15392 0.0
H570 H 0.29728 0.16595 0.17951 0.0
H571 H 0.29909 0.13687 0.20336 0.0
H572 H 0.33732 0.14252 0.18137 0.0
H573 H 0.10332 0.96855 0.17657 0.0
H574 H 0.11986 0.0137 0.19681 0.0
H575 H 0.11106 0.02619 0.17007 0.0
H576 H 0.20944 0.13615 0.24702 0.0
H577 H 0.20205 0.2076 0.19073 0.0
H578 H 0.24233 0.06536 0.22684 0.0
H579 H 0.18046 0.02448 0.2217 0.0
H580 H 0.19801 0.05826 0.24609 0.0
H581 H 0.22945 0.15333 0.15478 0.0
H582 H 0.18299 0.16835 0.15726 0.0
H583 H 0.16815 0.10667 0.1554 0.0
C584 C 0.02946 0.13937 0.54129 0.0
C585 C 0.01873 0.17089 0.5306 0.0
C586 C 0.06337 0.12897 0.53296 0.0
C587 C 0.08628 0.15102 0.51379 0.0
C588 C 0.06621 0.17215 0.5007 0.0
C589 C 0.03251 0.18251 0.50946 0.0
C590 C 0.0811 0.10282 0.54662 0.0
C591 C 0.087 0.19229 0.4792 0.0
C592 C 0.21649 0.24089 0.51192 0.0
C593 C 0.23174 0.2209 0.49638 0.0
C594 C 0.17017 0.2151 0.5201 0.0
C595 C 0.13819 0.16908 0.5117 0.0
C596 C 0.15569 0.14645 0.49816 0.0
C597 C 0.20286 0.17274 0.49079 0.0
C598 C 0.15407 0.23978 0.53569 0.0
C599 C 0.12387 0.09703 0.48935 0.0
H600 H 0.01695 0.12875 0.55743 0.0
H601 H 0.0229 0.20563 0.50095 0.0
H602 H 0.09654 0.08523 0.53688 0.0
H603 H 0.10942 0.12869 0.55738 0.0
H604 H 0.05172 0.07552 0.55657 0.0
H605 H 0.06156 0.19769 0.46937 0.0
H606 H 0.12008 0.22741 0.48122 0.0
H607 H 0.09656 0.16824 0.47063 0.0
H608 H 0.2392 0.27815 0.51618 0.0
H609 H 0.21488 0.15733 0.47869 0.0
H610 H 0.13352 0.21538 0.54887 0.0
H611 H 0.13054 0.25059 0.52754 0.0
H612 H 0.18474 0.27232 0.54257 0.0
H613 H 0.09145 0.07577 0.49915 0.0
H614 H 0.14392 0.07749 0.48807 0.0
H615 H 0.11248 0.10005 0.4731 0.0
C616 C 0.96424 0.14402 0.78626 0.0
C617 C 1.0015 0.18758 0.79395 0.0
C618 C 0.93741 0.10607 0.80002 0.0
C619 C 0.94847 0.11208 0.82186 0.0
C620 C 0.99074 0.1527 0.82905 0.0
C621 C 0.01674 0.19053 0.81498 0.0
C622 C 0.89336 0.06256 0.79165 0.0
C623 C 1.00505 0.15871 0.85211 0.0
C624 C 0.84344 0.0792 0.85763 0.0
C625 C 0.83543 0.0361 0.86616 0.0
C626 C 0.87984 0.10366 0.84292 0.0
C627 C 0.9096 0.08484 0.83712 0.0
C628 C 0.90119 0.04075 0.84557 0.0
C629 C 0.86356 0.01647 0.86003 0.0
C630 C 0.8866 0.14992 0.8338 0.0
C631 C 0.93277 0.02016 0.84018 0.0
H632 H 0.95354 0.14057 0.76976 0.0
H633 H 0.04684 0.22336 0.82082 0.0
H634 H 0.88804 0.02956 0.79949 0.0
H635 H 0.8615 0.066 0.79509 0.0
H636 H 0.8954 0.0587 0.77422 0.0
H637 H 0.04353 0.18546 0.85419 0.0
H638 H 0.98371 0.17116 0.86106 0.0
H639 H 0.99781 0.1242 0.85906 0.0
H640 H 0.82123 0.09385 0.86263 0.0
H641 H 0.85719 0.98319 0.86708 0.0
H642 H 0.88546 0.14818 0.81621 0.0
H643 H 0.92205 0.18 0.83848 0.0
H644 H 0.85875 0.15802 0.83932 0.0
H645 H 0.94485 0.02708 0.82342 0.0
H646 H 0.91423 0.98104 0.84312 0.0
H647 H 0.96509 0.03736 0.85036 0.0
C648 C 0.7946 0.92705 0.12516 0.0
C649 C 0.80825 0.97484 0.1292 0.0
C650 C 0.80378 0.90049 0.13987 0.0
C651 C 0.82802 0.92268 0.15884 0.0
C652 C 0.84766 0.97245 0.16164 0.0
C653 C 0.83667 0.998 0.14691 0.0
C654 C 0.7827 0.84751 0.13617 0.0
C655 C 0.87687 0.99776 0.18097 0.0
C656 C 0.76832 0.84321 0.20562 0.0
C657 C 0.79472 0.82001 0.20777 0.0
C658 C 0.78047 0.87851 0.19032 0.0
C659 C 0.82114 0.892 0.17735 0.0
C660 C 0.84985 0.87077 0.18039 0.0
C661 C 0.83556 0.83397 0.19534 0.0
C662 C 0.74791 0.89913 0.18724 0.0
C663 C 0.89454 0.88531 0.16756 0.0
H664 H 0.77356 0.90919 0.11122 0.0
H665 H 0.84891 0.0355 0.14964 0.0
H666 H 0.81019 0.83708 0.13866 0.0
H667 H 0.75341 0.82727 0.14772 0.0
H668 H 0.76802 0.83666 0.11989 0.0
H669 H 0.89925 0.03685 0.17825 0.0
H670 H 0.85265 0.99205 0.19453 0.0
H671 H 0.90035 0.98325 0.18548 0.0
H672 H 0.73674 0.8322 0.21533 0.0
H673 H 0.85641 0.81639 0.19739 0.0
H674 H 0.73312 0.89157 0.17091 0.0
H675 H 0.76829 0.93844 0.18927 0.0
H676 H 0.71756 0.88421 0.19863 0.0
H677 H 0.88606 0.85993 0.15422 0.0
H678 H 0.92211 0.88357 0.17743 0.0
H679 H 0.90987 0.92192 0.161 0.0
C680 C 0.86091 0.84073 0.46983 0.0
C681 C 0.85941 0.83909 0.44764 0.0
C682 C 0.90081 0.84513 0.48056 0.0
C683 C 0.93913 0.84734 0.46866 0.0
C684 C 0.94144 0.85508 0.44657 0.0
C685 C 0.90132 0.85098 0.43623 0.0
C686 C 0.89831 0.8394 0.50437 0.0
C687 C 0.98257 0.85967 0.43341 0.0
C688 C 0.02672 0.83068 0.50196 0.0
C689 C 1.00186 0.78076 0.50365 0.0
C690 C 1.00886 0.85378 0.48927 0.0
C691 C 0.96593 0.82583 0.47793 0.0
C692 C 0.94413 0.77528 0.47776 0.0
C693 C 0.96209 0.75334 0.49094 0.0
C694 C 0.03337 0.90759 0.48975 0.0
C695 C 0.89917 0.74399 0.46524 0.0
H696 H 0.82929 0.83348 0.47878 0.0
H697 H 0.90121 0.85215 0.41904 0.0
H698 H 0.88619 0.80158 0.50836 0.0
H699 H 0.93395 0.86194 0.51166 0.0
H700 H 0.87267 0.8489 0.51148 0.0
H701 H 0.98649 0.87965 0.41851 0.0
H702 H 0.01673 0.87785 0.4423 0.0
H703 H 0.97555 0.82345 0.42904 0.0
H704 H 0.05745 0.85171 0.51204 0.0
H705 H 0.94328 0.71473 0.49237 0.0
H706 H 0.01524 0.91871 0.50151 0.0
H707 H 0.03151 0.92227 0.47411 0.0
H708 H 0.07142 0.92363 0.49454 0.0
H709 H 0.86874 0.74615 0.47222 0.0
H710 H 0.88987 0.70594 0.46524 0.0
H711 H 0.90344 0.75633 0.44856 0.0
C712 C 0.20471 0.01414 0.83973 0.0
C713 C 0.23492 0.99584 0.84414 0.0
C714 C 0.16578 0.98969 0.82601 0.0
C715 C 0.15814 0.94684 0.81646 0.0
C716 C 0.19194 0.93151 0.81912 0.0
C717 C 0.22972 0.95599 0.83324 0.0
C718 C 0.1307 0.00728 0.82352 0.0
C719 C 0.18597 0.88688 0.80854 0.0
C720 C 0.04118 0.83605 0.80597 0.0
C721 C 0.04212 0.83526 0.7838 0.0
C722 C 0.07623 0.87562 0.81711 0.0
C723 C 0.11278 0.91452 0.80566 0.0
C724 C 0.11028 0.91628 0.78339 0.0
C725 C 0.07476 0.87658 0.77269 0.0
C726 C 0.07698 0.87362 0.84102 0.0
C727 C 0.14806 0.95756 0.77069 0.0
H728 H 0.20879 0.04488 0.84848 0.0
H729 H 0.25342 0.94222 0.83683 0.0
H730 H 0.11443 0.99949 0.80749 0.0
H731 H 0.10143 0.9888 0.83526 0.0
H732 H 0.14806 0.04632 0.82651 0.0
H733 H 0.21813 0.88313 0.81042 0.0
H734 H 0.15495 0.85499 0.81562 0.0
H735 H 0.17874 0.88712 0.79135 0.0
H736 H 0.01528 0.80471 0.81462 0.0
H737 H 0.07455 0.87692 0.75549 0.0
H738 H 0.08568 0.90858 0.84798 0.0
H739 H 0.10514 0.86563 0.84608 0.0
H740 H 0.04219 0.84555 0.84755 0.0
H741 H 0.15892 0.99215 0.77861 0.0
H742 H 0.13551 0.95852 0.75439 0.0
H743 H 0.18027 0.95377 0.7694 0.0
C744 C 0.31497 0.2661 0.37544 0.0
C745 C 0.3082 0.28174 0.3952 0.0
C746 C 0.30337 0.28118 0.35646 0.0
C747 C 0.28534 0.31325 0.35725 0.0
C748 C 0.2813 0.33127 0.37711 0.0
C749 C 0.29227 0.315 0.39576 0.0
C750 C 0.3081 0.26091 0.33562 0.0
C751 C 0.26324 0.36614 0.37877 0.0
C752 C 0.27735 0.36655 0.30424 0.0
C753 C 0.23025 0.33414 0.29817 0.0
C754 C 0.29544 0.36186 0.32391 0.0
C755 C 0.26573 0.3236 0.33768 0.0
C756 C 0.21712 0.29316 0.33222 0.0
C757 C 0.20012 0.29881 0.31256 0.0
C758 C 0.34725 0.39559 0.32916 0.0
C759 C 0.18391 0.25204 0.34633 0.0
H760 H 0.32724 0.24046 0.37485 0.0
H761 H 0.28733 0.32779 0.41089 0.0
H762 H 0.27208 0.23778 0.32873 0.0
H763 H 0.32871 0.2901 0.32412 0.0
H764 H 0.32603 0.23943 0.33744 0.0
H765 H 0.26775 0.38128 0.39499 0.0
H766 H 0.28232 0.3959 0.36734 0.0
H767 H 0.2247 0.34781 0.37466 0.0
H768 H 0.30121 0.39294 0.29288 0.0
H769 H 0.16415 0.27281 0.30763 0.0
H770 H 0.36784 0.37684 0.3271 0.0
H771 H 0.35121 0.4074 0.34594 0.0
H772 H 0.36322 0.42757 0.31872 0.0
H773 H 0.19628 0.22565 0.34714 0.0
H774 H 0.14647 0.2336 0.34047 0.0
H775 H 0.18437 0.2648 0.36271 0.0
C776 C 0.94843 0.25787 0.63294 0.0
C777 C 0.97228 0.27624 0.61368 0.0
C778 C 0.97248 0.27547 0.65247 0.0
C779 C 0.02123 0.31239 0.65264 0.0
C780 C 0.04384 0.33346 0.63323 0.0
C781 C 0.01928 0.31488 0.61413 0.0
C782 C 0.94686 0.25212 0.67283 0.0
C783 C 0.09537 0.37315 0.63246 0.0
C784 C 0.08027 0.36863 0.70572 0.0
C785 C 0.1012 0.34117 0.71116 0.0
C786 C 0.05526 0.36087 0.68644 0.0
C787 C 0.05053 0.32429 0.67248 0.0
C788 C 0.0739 0.29833 0.67751 0.0
C789 C 0.09874 0.30703 0.69676 0.0
C790 C 0.03155 0.38984 0.68162 0.0
C791 C 0.07033 0.25927 0.66312 0.0
H792 H 0.91233 0.22763 0.63274 0.0
H793 H 0.03804 0.32938 0.59944 0.0
H794 H 0.9616 0.23029 0.67935 0.0
H795 H 0.9527 0.27957 0.68487 0.0
H796 H 0.9078 0.22858 0.67038 0.0
H797 H 0.10538 0.39046 0.61661 0.0
H798 H 0.10223 0.4008 0.64455 0.0
H799 H 0.11906 0.35841 0.6361 0.0
H800 H 0.08046 0.39372 0.71721 0.0
H801 H 0.11341 0.2846 0.7013 0.0
H802 H 0.99219 0.36666 0.68288 0.0
H803 H 0.03967 0.40374 0.66515 0.0
H804 H 0.04309 0.42036 0.69273 0.0
H805 H 0.03244 0.23048 0.66182 0.0
H806 H 0.09173 0.24341 0.66901 0.0
H807 H 0.08284 0.27351 0.64693 0.0
C808 C 0.78161 0.09393 0.03121 0.0
C809 C 0.75156 0.08296 0.04886 0.0
C810 C 0.76444 0.06875 0.012 0.0
C811 C 0.71664 0.03027 0.01076 0.0
C812 C 0.68524 0.02182 0.02801 0.0
C813 C 0.70296 0.04903 0.04665 0.0
C814 C 0.79863 0.08076 0.99364 0.0
C815 C 0.63438 0.98082 0.02778 0.0
C816 C 0.67162 0.97391 0.95636 0.0
C817 C 0.68814 0.94128 0.95536 0.0
C818 C 0.67902 1.00219 0.97449 0.0
C819 C 0.70159 0.99606 0.99249 0.0
C820 C 0.71354 0.95933 0.99233 0.0
C821 C 0.70774 0.9332 0.97358 0.0
C822 C 0.66675 0.04147 0.97355 0.0
C823 C 0.7355 0.94982 0.01148 0.0
H824 H 0.81941 0.11949 0.03293 0.0
H825 H 0.67961 0.04056 0.06024 0.0
H826 H 0.80934 0.05318 0.99228 0.0
H827 H 0.78117 0.08096 0.97852 0.0
H828 H 0.83145 0.11608 0.99574 0.0
H829 H 0.61255 0.98411 0.0406 0.0
H830 H 0.61696 0.97829 0.01232 0.0
H831 H 0.63454 0.94689 0.03014 0.0
H832 H 0.65601 0.9799 0.9424 0.0
H833 H 0.72131 0.9086 0.97278 0.0
H834 H 0.70023 0.07636 0.97192 0.0
H835 H 0.64894 0.04289 0.98836 0.0
H836 H 0.64322 0.03708 0.95987 0.0
H837 H 0.77283 0.97939 0.01348 0.0
H838 H 0.73596 0.91582 0.00996 0.0
H839 H 0.71548 0.94828 0.02608 0.0
C840 C 0.76702 0.68612 0.31101 0.0
C841 C 0.73969 0.66341 0.29301 0.0
C842 C 0.74592 0.69322 0.32919 0.0
C843 C 0.69675 0.67958 0.32893 0.0
C844 C 0.66829 0.65296 0.31146 0.0
C845 C 0.69002 0.64418 0.29398 0.0
C846 C 0.77729 0.71928 0.34792 0.0
C847 C 0.61612 0.6384 0.31003 0.0
C848 C 0.64802 0.69734 0.38125 0.0
C849 C 0.66493 0.74659 0.38053 0.0
C850 C 0.65554 0.67369 0.36416 0.0
C851 C 0.67776 0.69944 0.34538 0.0
C852 C 0.68788 0.74735 0.3435 0.0
C853 C 0.68257 0.77068 0.36127 0.0
C854 C 0.64493 0.62306 0.36735 0.0
C855 C 0.70882 0.77557 0.32339 0.0
H856 H 0.80553 0.70166 0.31028 0.0
H857 H 0.66865 0.62611 0.2802 0.0
H858 H 0.78521 0.75687 0.34793 0.0
H859 H 0.75875 0.70262 0.36303 0.0
H860 H 0.81174 0.71944 0.34739 0.0
H861 H 0.597 0.60976 0.29806 0.0
H862 H 0.59792 0.62597 0.32557 0.0
H863 H 0.61323 0.66988 0.30523 0.0
H864 H 0.63381 0.67841 0.39602 0.0
H865 H 0.6962 0.80887 0.36065 0.0
H866 H 0.67835 0.6238 0.37213 0.0
H867 H 0.63208 0.60188 0.35254 0.0
H868 H 0.61794 0.6047 0.38006 0.0
H869 H 0.74713 0.78612 0.32223 0.0
H870 H 0.70617 0.80852 0.32304 0.0
H871 H 0.69033 0.75359 0.30925 0.0
C872 C 0.9816 0.70204 0.60918 0.0
C873 C 0.03048 0.73667 0.60907 0.0
C874 C 0.95591 0.68454 0.62819 0.0
C875 C 0.97911 0.70288 0.6478 0.0
C876 C 0.02889 0.73671 0.6479 0.0
C877 C 0.05411 0.75282 0.62854 0.0
C878 C 0.90335 0.64773 0.62723 0.0
C879 C 0.055 0.75757 0.66845 0.0
C880 C 0.90813 0.7105 0.6944 0.0
C881 C 0.9061 0.67564 0.70823 0.0
C882 C 0.92996 0.71829 0.67438 0.0
C883 C 0.95041 0.69042 0.66791 0.0
C884 C 0.94499 0.65248 0.68112 0.0
C885 C 0.92313 0.64573 0.70121 0.0
C886 C 0.93457 0.75902 0.66092 0.0
C887 C 0.96536 0.62127 0.67477 0.0
H888 H 0.96284 0.68886 0.59432 0.0
H889 H 0.09176 0.77958 0.62863 0.0
H890 H 0.89494 0.61793 0.63834 0.0
H891 H 0.88192 0.66421 0.63222 0.0
H892 H 0.89195 0.63286 0.61101 0.0
H893 H 0.09408 0.7811 0.66603 0.0
H894 H 0.04064 0.77873 0.67609 0.0
H895 H 0.04907 0.7286 0.67962 0.0
H896 H 0.89643 0.73469 0.70007 0.0
H897 H 0.92308 0.61978 0.7121 0.0
H898 H 0.92154 0.74647 0.6446 0.0
H899 H 0.9728 0.78704 0.6597 0.0
H900 H 0.91427 0.77539 0.66761 0.0
H901 H 0.95624 0.60941 0.65805 0.0
H902 H 0.9521 0.58929 0.68511 0.0
H903 H 1.00491 0.64207 0.67594 0.0
C904 C 0.26706 0.92863 0.04001 0.0
C905 C 0.23794 0.93883 0.0529 0.0
C906 C 0.28208 0.95023 0.01983 0.0
C907 C 0.26686 0.98194 0.01234 0.0
C908 C 0.2364 0.99109 0.02522 0.0
C909 C 0.2229 0.96995 0.04534 0.0
C910 C 0.31508 0.94006 0.00673 0.0
C911 C 0.21811 0.02345 0.01781 0.0
C912 C 0.32779 0.0723 0.96731 0.0
C913 C 0.29777 0.04808 0.95016 0.0
C914 C 0.31959 0.05045 0.9875 0.0
C915 C 0.28009 1.00369 0.99064 0.0
C916 C 0.25016 0.97916 0.97326 0.0
C917 C 0.25948 1.00144 0.95336 0.0
C918 C 0.35273 0.07761 0.00557 0.0
C919 C 0.20712 0.92981 0.97581 0.0
H920 H 0.27976 0.9056 0.04606 0.0
H921 H 0.20074 0.97824 0.0554 0.0
H922 H 0.2982 0.92422 0.99127 0.0
H923 H 0.34857 0.97395 0.00328 0.0
H924 H 0.32431 0.91528 0.01487 0.0
H925 H 0.19431 0.0265 0.02967 0.0
H926 H 0.24856 0.0597 0.01454 0.0
H927 H 0.19798 0.00966 0.00277 0.0
H928 H 0.35768 0.10808 0.96495 0.0
H929 H 0.23589 0.98226 0.94026 0.0
H930 H 0.3656 0.05535 0.01334 0.0
H931 H 0.33309 0.08591 0.01773 0.0
H932 H 0.3841 0.11161 1.00022 0.0
H933 H 0.2179 0.90517 0.98281 0.0
H934 H 0.18878 0.91458 0.96049 0.0
H935 H 0.18115 0.93132 0.98686 0.0
loop_
_geom_bond_atom_site_label_1
_geom_bond_atom_site_label_2
_geom_bond_distance
_geom_bond_site_symmetry_2
_ccdc_geom_bond_type
Co0 O1 2.216 . S
Co0 O2 2.091 . S
Co0 O4 2.004 . S
Co0 O10 2.021 . S
Co0 O12 2.137 . S
Co0 O13 2.244 . S
O1 Co0 2.216 . S
O1 C8 1.247 . S
O2 Co0 2.091 . S
O2 C8 1.261 . S
C3 O12 1.247 . S
C3 O13 1.272 . S
O4 Co0 2.004 . S
O4 C9 1.259 . S
Co5 O6 2.061 . S
Co5 O11 2.052 . S
Co5 O13 2.135 . S
O6 Co5 2.061 . S
O6 C9 1.235 . S
C7 O10 1.238 . S
C7 O11 1.241 . S
C8 O1 1.247 . S
C8 O2 1.261 . S
C9 O4 1.259 . S
C9 O6 1.235 . S
O10 Co0 2.021 . S
O10 C7 1.238 . S
O11 Co5 2.052 . S
O11 C7 1.241 . S
O12 Co0 2.137 . S
O12 C3 1.247 . S
O13 Co0 2.244 . S
O13 C3 1.272 . S
O13 Co5 2.135 . S
Co14 O15 2.216 . S
Co14 O16 2.091 . S
Co14 O18 2.004 . S
Co14 O24 2.021 . S
Co14 O26 2.137 . S
Co14 O27 2.244 . S
O15 Co14 2.216 . S
O15 C22 1.247 . S
O16 Co14 2.091 . S
O16 C22 1.261 . S
C17 O26 1.247 . S
C17 O27 1.272 . S
O18 Co14 2.004 . S
O18 C23 1.259 . S
Co19 O20 2.061 . S
Co19 O25 2.052 . S
Co19 O27 2.135 1_455 S
O20 Co19 2.061 . S
O20 C23 1.235 1_455 S
C21 O24 1.238 1_455 S
C21 O25 1.241 . S
C22 O15 1.247 . S
C22 O16 1.261 . S
C23 O18 1.259 . S
C23 O20 1.235 1_655 S
O24 Co14 2.021 . S
O24 C21 1.238 1_655 S
O25 Co19 2.052 . S
O25 C21 1.241 . S
O26 Co14 2.137 . S
O26 C17 1.247 . S
O27 Co14 2.244 . S
O27 C17 1.272 . S
O27 Co19 2.135 1_655 S
Co28 O29 2.216 . S
Co28 O30 2.091 . S
Co28 O32 2.004 . S
Co28 O38 2.021 . S
Co28 O40 2.137 . S
Co28 O41 2.244 . S
O29 Co28 2.216 . S
O29 C36 1.247 . S
O30 Co28 2.091 . S
O30 C36 1.261 . S
C31 O40 1.247 . S
C31 O41 1.272 . S
O32 Co28 2.004 . S
O32 C37 1.259 . S
Co33 O34 2.061 . S
Co33 O39 2.052 . S
Co33 O41 2.135 1_545 S
O34 Co33 2.061 . S
O34 C37 1.235 1_545 S
C35 O38 1.238 1_545 S
C35 O39 1.241 . S
C36 O29 1.247 . S
C36 O30 1.261 . S
C37 O32 1.259 . S
C37 O34 1.235 1_565 S
O38 Co28 2.021 . S
O38 C35 1.238 1_565 S
O39 Co33 2.052 . S
O39 C35 1.241 . S
O40 Co28 2.137 . S
O40 C31 1.247 . S
O41 Co28 2.244 . S
O41 C31 1.272 . S
O41 Co33 2.135 1_565 S
Co42 O43 2.216 . S
Co42 O44 2.091 . S
Co42 O46 2.004 . S
Co42 O52 2.021 . S
Co42 O54 2.137 . S
Co42 O55 2.244 . S
O43 Co42 2.216 . S
O43 C50 1.247 . S
O44 Co42 2.091 . S
O44 C50 1.261 . S
C45 O54 1.247 . S
C45 O55 1.272 . S
O46 Co42 2.004 . S
O46 C51 1.259 . S
Co47 O48 2.061 . S
Co47 O53 2.052 . S
Co47 O55 2.135 . S
O48 Co47 2.061 . S
O48 C51 1.235 . S
C49 O52 1.238 . S
C49 O53 1.241 . S
C50 O43 1.247 . S
C50 O44 1.261 . S
C51 O46 1.259 . S
C51 O48 1.235 . S
O52 Co42 2.021 . S
O52 C49 1.238 . S
O53 Co47 2.052 . S
O53 C49 1.241 . S
O54 Co42 2.137 . S
O54 C45 1.247 . S
O55 Co42 2.244 . S
O55 C45 1.272 . S
O55 Co47 2.135 . S
Co56 O57 2.216 . S
Co56 O58 2.091 . S
Co56 O60 2.004 . S
Co56 O66 2.021 . S
Co56 O68 2.137 . S
Co56 O69 2.244 . S
O57 Co56 2.216 . S
O57 C64 1.247 . S
O58 Co56 2.091 . S
O58 C64 1.261 . S
C59 O68 1.247 . S
C59 O69 1.272 . S
O60 Co56 2.004 . S
O60 C65 1.259 . S
Co61 O62 2.061 . S
Co61 O67 2.052 . S
Co61 O69 2.135 1_655 S
O62 Co61 2.061 . S
O62 C65 1.235 1_655 S
C63 O66 1.238 1_655 S
C63 O67 1.241 . S
C64 O57 1.247 . S
C64 O58 1.261 . S
C65 O60 1.259 . S
C65 O62 1.235 1_455 S
O66 Co56 2.021 . S
O66 C63 1.238 1_455 S
O67 Co61 2.052 . S
O67 C63 1.241 . S
O68 Co56 2.137 . S
O68 C59 1.247 . S
O69 Co56 2.244 . S
O69 C59 1.272 . S
O69 Co61 2.135 1_455 S
Co70 O71 2.216 . S
Co70 O72 2.091 . S
Co70 O74 2.004 . S
Co70 O80 2.021 . S
Co70 O82 2.137 . S
Co70 O83 2.244 . S
O71 Co70 2.216 . S
O71 C78 1.247 . S
O72 Co70 2.091 . S
O72 C78 1.261 . S
C73 O82 1.247 . S
C73 O83 1.272 . S
O74 Co70 2.004 . S
O74 C79 1.259 . S
Co75 O76 2.061 . S
Co75 O81 2.052 . S
Co75 O83 2.135 1_565 S
O76 Co75 2.061 . S
O76 C79 1.235 1_565 S
C77 O80 1.238 1_565 S
C77 O81 1.241 . S
C78 O71 1.247 . S
C78 O72 1.261 . S
C79 O74 1.259 . S
C79 O76 1.235 1_545 S
O80 Co70 2.021 . S
O80 C77 1.238 1_545 S
O81 Co75 2.052 . S
O81 C77 1.241 . S
O82 Co70 2.137 . S
O82 C73 1.247 . S
O83 Co70 2.244 . S
O83 C73 1.272 . S
O83 Co75 2.135 1_545 S
Co84 O85 2.216 . S
Co84 O86 2.091 . S
Co84 O88 2.004 . S
Co84 O94 2.021 . S
Co84 O96 2.137 . S
Co84 O97 2.244 . S
O85 Co84 2.216 . S
O85 C92 1.247 . S
O86 Co84 2.091 . S
O86 C92 1.261 . S
C87 O96 1.247 . S
C87 O97 1.272 . S
O88 Co84 2.004 . S
O88 C93 1.259 . S
Co89 O90 2.061 . S
Co89 O95 2.052 . S
Co89 O97 2.135 . S
O90 Co89 2.061 . S
O90 C93 1.235 . S
C91 O94 1.238 . S
C91 O95 1.241 . S
C92 O85 1.247 . S
C92 O86 1.261 . S
C93 O88 1.259 . S
C93 O90 1.235 . S
O94 Co84 2.021 . S
O94 C91 1.238 . S
O95 Co89 2.052 . S
O95 C91 1.241 . S
O96 Co84 2.137 . S
O96 C87 1.247 . S
O97 Co84 2.244 . S
O97 C87 1.272 . S
O97 Co89 2.135 . S
Co98 O99 2.216 . S
Co98 O100 2.091 . S
Co98 O102 2.004 . S
Co98 O108 2.021 . S
Co98 O110 2.137 . S
Co98 O111 2.244 . S
O99 Co98 2.216 . S
O99 C106 1.247 . S
O100 Co98 2.091 . S
O100 C106 1.261 . S
C101 O110 1.247 . S
C101 O111 1.272 . S
O102 Co98 2.004 . S
O102 C107 1.259 . S
Co103 O104 2.061 . S
Co103 O109 2.052 . S
Co103 O111 2.135 1_455 S
O104 Co103 2.061 . S
O104 C107 1.235 1_455 S
C105 O108 1.238 1_455 S
C105 O109 1.241 . S
C106 O99 1.247 . S
C106 O100 1.261 . S
C107 O102 1.259 . S
C107 O104 1.235 1_655 S
O108 Co98 2.021 . S
O108 C105 1.238 1_655 S
O109 Co103 2.052 . S
O109 C105 1.241 . S
O110 Co98 2.137 . S
O110 C101 1.247 . S
O111 Co98 2.244 . S
O111 C101 1.272 . S
O111 Co103 2.135 1_655 S
Co112 O113 2.216 . S
Co112 O114 2.091 . S
Co112 O116 2.004 . S
Co112 O122 2.021 . S
Co112 O124 2.137 . S
Co112 O125 2.244 . S
O113 Co112 2.216 . S
O113 C120 1.247 . S
O114 Co112 2.091 . S
O114 C120 1.261 . S
C115 O124 1.247 . S
C115 O125 1.272 . S
O116 Co112 2.004 . S
O116 C121 1.259 . S
Co117 O118 2.061 . S
Co117 O123 2.052 . S
Co117 O125 2.135 1_545 S
O118 Co117 2.061 . S
O118 C121 1.235 1_545 S
C119 O122 1.238 1_545 S
C119 O123 1.241 . S
C120 O113 1.247 . S
C120 O114 1.261 . S
C121 O116 1.259 . S
C121 O118 1.235 1_565 S
O122 Co112 2.021 . S
O122 C119 1.238 1_565 S
O123 Co117 2.052 . S
O123 C119 1.241 . S
O124 Co112 2.137 . S
O124 C115 1.247 . S
O125 Co112 2.244 . S
O125 C115 1.272 . S
O125 Co117 2.135 1_565 S
Co126 O127 2.216 . S
Co126 O128 2.091 . S
Co126 O130 2.004 . S
Co126 O136 2.021 . S
Co126 O138 2.137 . S
Co126 O139 2.244 . S
O127 Co126 2.216 . S
O127 C134 1.247 . S
O128 Co126 2.091 . S
O128 C134 1.261 . S
C129 O138 1.247 . S
C129 O139 1.272 . S
O130 Co126 2.004 . S
O130 C135 1.259 . S
Co131 O132 2.061 . S
Co131 O137 2.052 . S
Co131 O139 2.135 . S
O132 Co131 2.061 . S
O132 C135 1.235 . S
C133 O136 1.238 . S
C133 O137 1.241 . S
C134 O127 1.247 . S
C134 O128 1.261 . S
C135 O130 1.259 . S
C135 O132 1.235 . S
O136 Co126 2.021 . S
O136 C133 1.238 . S
O137 Co131 2.052 . S
O137 C133 1.241 . S
O138 Co126 2.137 . S
O138 C129 1.247 . S
O139 Co126 2.244 . S
O139 C129 1.272 . S
O139 Co131 2.135 . S
Co140 O141 2.216 . S
Co140 O142 2.091 . S
Co140 O144 2.004 . S
Co140 O150 2.021 . S
Co140 O152 2.137 . S
Co140 O153 2.244 . S
O141 Co140 2.216 . S
O141 C148 1.247 . S
O142 Co140 2.091 . S
O142 C148 1.261 . S
C143 O152 1.247 . S
C143 O153 1.272 . S
O144 Co140 2.004 . S
O144 C149 1.259 . S
Co145 O146 2.061 . S
Co145 O151 2.052 . S
Co145 O153 2.135 1_655 S
O146 Co145 2.061 . S
O146 C149 1.235 1_655 S
C147 O150 1.238 1_655 S
C147 O151 1.241 . S
C148 O141 1.247 . S
C148 O142 1.261 . S
C149 O144 1.259 . S
C149 O146 1.235 1_455 S
O150 Co140 2.021 . S
O150 C147 1.238 1_455 S
O151 Co145 2.052 . S
O151 C147 1.241 . S
O152 Co140 2.137 . S
O152 C143 1.247 . S
O153 Co140 2.244 . S
O153 C143 1.272 . S
O153 Co145 2.135 1_455 S
Co154 O155 2.216 . S
Co154 O156 2.091 . S
Co154 O158 2.004 . S
Co154 O164 2.021 . S
Co154 O166 2.137 . S
Co154 O167 2.244 . S
O155 Co154 2.216 . S
O155 C162 1.247 . S
O156 Co154 2.091 . S
O156 C162 1.261 . S
C157 O166 1.247 . S
C157 O167 1.272 . S
O158 Co154 2.004 . S
O158 C163 1.259 . S
Co159 O160 2.061 . S
Co159 O165 2.052 . S
Co159 O167 2.135 1_565 S
O160 Co159 2.061 . S
O160 C163 1.235 1_565 S
C161 O164 1.238 1_565 S
C161 O165 1.241 . S
C162 O155 1.247 . S
C162 O156 1.261 . S
C163 O158 1.259 . S
C163 O160 1.235 1_545 S
O164 Co154 2.021 . S
O164 C161 1.238 1_545 S
O165 Co159 2.052 . S
O165 C161 1.241 . S
O166 Co154 2.137 . S
O166 C157 1.247 . S
O167 Co154 2.244 . S
O167 C157 1.272 . S
O167 Co159 2.135 1_545 S
C168 C169 1.391 . S
C168 C170 1.394 . S
C168 H184 0.931 . S
C169 C168 1.391 . S
C169 C173 1.376 . S
C170 C168 1.394 . S
C170 C171 1.369 . S
C170 C174 1.531 . S
C171 C170 1.369 . S
C171 C172 1.410 . S
C171 C179 1.503 1_655 S
C172 C171 1.410 . S
C172 C173 1.392 . S
C172 C175 1.511 . S
C173 C169 1.376 . S
C173 C172 1.392 . S
C173 H185 0.929 . S
C174 C170 1.531 . S
C174 H186 0.960 . S
C174 H187 0.962 1_655 S
C174 H188 0.960 . S
C175 C172 1.511 . S
C175 H189 0.961 . S
C175 H190 0.961 . S
C175 H191 0.961 . S
C176 C177 1.370 . S
C176 C178 1.363 . S
C176 H192 0.931 . S
C177 C176 1.370 . S
C177 C181 1.408 . S
C178 C176 1.363 . S
C178 C179 1.370 . S
C178 C182 1.524 . S
C179 C171 1.503 1_455 S
C179 C178 1.370 . S
C179 C180 1.403 . S
C180 C179 1.403 . S
C180 C181 1.404 . S
C180 C183 1.539 1_455 S
C181 C177 1.408 . S
C181 C180 1.404 . S
C181 H193 0.930 . S
C182 C178 1.524 . S
C182 H194 0.956 . S
C182 H195 0.961 . S
C182 H196 0.961 . S
C183 C180 1.539 1_655 S
C183 H197 0.958 . S
C183 H198 0.961 . S
C183 H199 0.960 . S
H184 C168 0.931 . S
H185 C173 0.929 . S
H186 C174 0.960 . S
H187 C174 0.962 1_455 S
H188 C174 0.960 . S
H189 C175 0.961 . S
H190 C175 0.961 . S
H191 C175 0.961 . S
H192 C176 0.931 . S
H193 C181 0.930 . S
H194 C182 0.956 . S
H195 C182 0.961 . S
H196 C182 0.961 . S
H197 C183 0.958 . S
H198 C183 0.961 . S
H199 C183 0.960 . S
C200 C201 1.391 . S
C200 C202 1.394 . S
C200 H216 0.931 . S
C201 C200 1.391 . S
C201 C205 1.376 . S
C202 C200 1.394 . S
C202 C203 1.369 . S
C202 C206 1.531 . S
C203 C202 1.369 . S
C203 C204 1.410 . S
C203 C211 1.503 1_545 S
C204 C203 1.410 . S
C204 C205 1.392 . S
C204 C207 1.511 1_545 S
C205 C201 1.376 . S
C205 C204 1.392 . S
C205 H217 0.929 . S
C206 C202 1.531 . S
C206 H218 0.960 . S
C206 H219 0.962 . S
C206 H220 0.960 . S
C207 C204 1.511 1_565 S
C207 H221 0.961 . S
C207 H222 0.961 . S
C207 H223 0.961 . S
C208 C209 1.370 . S
C208 C210 1.363 . S
C208 H224 0.931 . S
C209 C208 1.370 . S
C209 C213 1.408 . S
C210 C208 1.363 . S
C210 C211 1.370 . S
C210 C214 1.524 1_565 S
C211 C203 1.503 1_565 S
C211 C210 1.370 . S
C211 C212 1.403 . S
C212 C211 1.403 . S
C212 C213 1.404 . S
C212 C215 1.539 . S
C213 C209 1.408 . S
C213 C212 1.404 . S
C213 H225 0.930 . S
C214 C210 1.524 1_545 S
C214 H226 0.956 . S
C214 H227 0.961 . S
C214 H228 0.961 1_545 S
C215 C212 1.539 . S
C215 H229 0.958 . S
C215 H230 0.961 . S
C215 H231 0.960 . S
H216 C200 0.931 . S
H217 C205 0.929 . S
H218 C206 0.960 . S
H219 C206 0.962 . S
H220 C206 0.960 . S
H221 C207 0.961 . S
H222 C207 0.961 . S
H223 C207 0.961 . S
H224 C208 0.931 . S
H225 C213 0.930 . S
H226 C214 0.956 . S
H227 C214 0.961 . S
H228 C214 0.961 1_565 S
H229 C215 0.958 . S
H230 C215 0.961 . S
H231 C215 0.960 . S
C232 C233 1.391 . S
C232 C234 1.394 . S
C232 H248 0.931 . S
C233 C232 1.391 . S
C233 C237 1.376 . S
C234 C232 1.394 . S
C234 C235 1.369 . S
C234 C238 1.531 . S
C235 C234 1.369 . S
C235 C236 1.410 . S
C235 C243 1.503 . S
C236 C235 1.410 . S
C236 C237 1.392 . S
C236 C239 1.511 . S
C237 C233 1.376 . S
C237 C236 1.392 . S
C237 H249 0.929 . S
C238 C234 1.531 . S
C238 H250 0.960 . S
C238 H251 0.962 . S
C238 H252 0.960 . S
C239 C236 1.511 . S
C239 H253 0.961 . S
C239 H254 0.961 . S
C239 H255 0.961 . S
C240 C241 1.370 . S
C240 C242 1.363 . S
C240 H256 0.931 . S
C241 C240 1.370 . S
C241 C245 1.408 . S
C242 C240 1.363 . S
C242 C243 1.370 . S
C242 C246 1.524 . S
C243 C235 1.503 . S
C243 C242 1.370 . S
C243 C244 1.403 . S
C244 C243 1.403 . S
C244 C245 1.404 . S
C244 C247 1.539 . S
C245 C241 1.408 . S
C245 C244 1.404 . S
C245 H257 0.930 . S
C246 C242 1.524 . S
C246 H258 0.956 . S
C246 H259 0.961 . S
C246 H260 0.961 . S
C247 C244 1.539 . S
C247 H261 0.958 . S
C247 H262 0.961 . S
C247 H263 0.960 . S
H248 C232 0.931 . S
H249 C237 0.929 . S
H250 C238 0.960 . S
H251 C238 0.962 . S
H252 C238 0.960 . S
H253 C239 0.961 . S
H254 C239 0.961 . S
H255 C239 0.961 . S
H256 C240 0.931 . S
H257 C245 0.930 . S
H258 C246 0.956 . S
H259 C246 0.961 . S
H260 C246 0.961 . S
H261 C247 0.958 . S
H262 C247 0.961 . S
H263 C247 0.960 . S
C264 C265 1.391 . S
C264 C266 1.394 . S
C264 H280 0.931 . S
C265 C264 1.391 . S
C265 C269 1.376 . S
C266 C264 1.394 . S
C266 C267 1.369 . S
C266 C270 1.531 . S
C267 C266 1.369 . S
C267 C268 1.410 . S
C267 C275 1.503 1_655 S
C268 C267 1.410 . S
C268 C269 1.392 . S
C268 C271 1.511 . S
C269 C265 1.376 . S
C269 C268 1.392 . S
C269 H281 0.929 . S
C270 C266 1.531 . S
C270 H282 0.960 1_655 S
C270 H283 0.962 1_655 S
C270 H284 0.960 . S
C271 C268 1.511 . S
C271 H285 0.961 . S
C271 H286 0.961 . S
C271 H287 0.961 . S
C272 C273 1.370 . S
C272 C274 1.363 . S
C272 H288 0.931 . S
C273 C272 1.370 . S
C273 C277 1.408 . S
C274 C272 1.363 . S
C274 C275 1.370 . S
C274 C278 1.524 . S
C275 C267 1.503 1_455 S
C275 C274 1.370 . S
C275 C276 1.403 . S
C276 C275 1.403 . S
C276 C277 1.404 . S
C276 C279 1.539 1_455 S
C277 C273 1.408 . S
C277 C276 1.404 . S
C277 H289 0.930 . S
C278 C274 1.524 . S
C278 H290 0.956 . S
C278 H291 0.961 . S
C278 H292 0.961 . S
C279 C276 1.539 1_655 S
C279 H293 0.958 . S
C279 H294 0.961 . S
C279 H295 0.960 . S
H280 C264 0.931 . S
H281 C269 0.929 . S
H282 C270 0.960 1_455 S
H283 C270 0.962 1_455 S
H284 C270 0.960 . S
H285 C271 0.961 . S
H286 C271 0.961 . S
H287 C271 0.961 . S
H288 C272 0.931 . S
H289 C277 0.930 . S
H290 C278 0.956 . S
H291 C278 0.961 . S
H292 C278 0.961 . S
H293 C279 0.958 . S
H294 C279 0.961 . S
H295 C279 0.960 . S
C296 C297 1.391 . S
C296 C298 1.394 . S
C296 H312 0.931 . S
C297 C296 1.391 . S
C297 C301 1.376 . S
C298 C296 1.394 . S
C298 C299 1.369 . S
C298 C302 1.531 1_545 S
C299 C298 1.369 . S
C299 C300 1.410 . S
C299 C307 1.503 1_545 S
C300 C299 1.410 . S
C300 C301 1.392 . S
C300 C303 1.511 . S
C301 C297 1.376 . S
C301 C300 1.392 . S
C301 H313 0.929 . S
C302 C298 1.531 1_565 S
C302 H314 0.960 . S
C302 H315 0.962 . S
C302 H316 0.960 1_565 S
C303 C300 1.511 . S
C303 H317 0.961 . S
C303 H318 0.961 . S
C303 H319 0.961 . S
C304 C305 1.370 . S
C304 C306 1.363 . S
C304 H320 0.931 . S
C305 C304 1.370 . S
C305 C309 1.408 . S
C306 C304 1.363 . S
C306 C307 1.370 . S
C306 C310 1.524 . S
C307 C299 1.503 1_565 S
C307 C306 1.370 . S
C307 C308 1.403 . S
C308 C307 1.403 . S
C308 C309 1.404 . S
C308 C311 1.540 . S
C309 C305 1.408 . S
C309 C308 1.404 . S
C309 H321 0.930 . S
C310 C306 1.524 . S
C310 H322 0.956 . S
C310 H323 0.961 . S
C310 H324 0.961 . S
C311 C308 1.540 . S
C311 H325 0.959 . S
C311 H326 0.962 . S
C311 H327 0.958 1_565 S
H312 C296 0.931 . S
H313 C301 0.929 . S
H314 C302 0.960 . S
H315 C302 0.962 . S
H316 C302 0.960 1_545 S
H317 C303 0.961 . S
H318 C303 0.961 . S
H319 C303 0.961 . S
H320 C304 0.931 . S
H321 C309 0.930 . S
H322 C310 0.956 . S
H323 C310 0.961 . S
H324 C310 0.961 . S
H325 C311 0.959 . S
H326 C311 0.962 . S
H327 C311 0.958 1_545 S
C328 C329 1.391 . S
C328 C330 1.394 . S
C328 H344 0.931 . S
C329 C328 1.391 . S
C329 C333 1.376 . S
C330 C328 1.394 . S
C330 C331 1.369 . S
C330 C334 1.531 . S
C331 C330 1.369 . S
C331 C332 1.410 . S
C331 C339 1.503 . S
C332 C331 1.410 . S
C332 C333 1.392 . S
C332 C335 1.511 . S
C333 C329 1.376 . S
C333 C332 1.392 . S
C333 H345 0.929 . S
C334 C330 1.531 . S
C334 H346 0.960 . S
C334 H347 0.962 . S
C334 H348 0.960 . S
C335 C332 1.511 . S
C335 H349 0.961 . S
C335 H350 0.961 . S
C335 H351 0.961 . S
C336 C337 1.370 . S
C336 C338 1.363 . S
C336 H352 0.931 . S
C337 C336 1.370 . S
C337 C341 1.408 . S
C338 C336 1.363 . S
C338 C339 1.370 . S
C338 C342 1.524 . S
C339 C331 1.503 . S
C339 C338 1.370 . S
C339 C340 1.403 . S
C340 C339 1.403 . S
C340 C341 1.404 . S
C340 C343 1.539 . S
C341 C337 1.408 . S
C341 C340 1.404 . S
C341 H353 0.930 . S
C342 C338 1.524 . S
C342 H354 0.956 . S
C342 H355 0.961 . S
C342 H356 0.961 . S
C343 C340 1.539 . S
C343 H357 0.958 . S
C343 H358 0.961 . S
C343 H359 0.960 . S
H344 C328 0.931 . S
H345 C333 0.929 . S
H346 C334 0.960 . S
H347 C334 0.962 . S
H348 C334 0.960 . S
H349 C335 0.961 . S
H350 C335 0.961 . S
H351 C335 0.961 . S
H352 C336 0.931 . S
H353 C341 0.930 . S
H354 C342 0.956 . S
H355 C342 0.961 . S
H356 C342 0.961 . S
H357 C343 0.958 . S
H358 C343 0.961 . S
H359 C343 0.960 . S
C360 C361 1.391 . S
C360 C362 1.394 . S
C360 H376 0.931 . S
C361 C360 1.391 . S
C361 C365 1.376 . S
C362 C360 1.394 . S
C362 C363 1.369 . S
C362 C366 1.531 . S
C363 C362 1.369 . S
C363 C364 1.410 . S
C363 C371 1.503 . S
C364 C363 1.410 . S
C364 C365 1.392 . S
C364 C367 1.511 . S
C365 C361 1.376 . S
C365 C364 1.392 . S
C365 H377 0.929 . S
C366 C362 1.531 . S
C366 H378 0.960 . S
C366 H379 0.962 . S
C366 H380 0.960 . S
C367 C364 1.511 . S
C367 H381 0.961 . S
C367 H382 0.961 . S
C367 H383 0.961 . S
C368 C369 1.370 . S
C368 C370 1.363 . S
C368 H384 0.931 . S
C369 C368 1.370 . S
C369 C373 1.408 . S
C370 C368 1.363 . S
C370 C371 1.370 . S
C370 C374 1.524 . S
C371 C363 1.503 . S
C371 C370 1.370 . S
C371 C372 1.403 . S
C372 C371 1.403 . S
C372 C373 1.404 . S
C372 C375 1.539 . S
C373 C369 1.408 . S
C373 C372 1.404 . S
C373 H385 0.930 . S
C374 C370 1.524 . S
C374 H386 0.956 . S
C374 H387 0.961 . S
C374 H388 0.961 . S
C375 C372 1.539 . S
C375 H389 0.958 . S
C375 H390 0.961 . S
C375 H391 0.960 . S
H376 C360 0.931 . S
H377 C365 0.929 . S
H378 C366 0.960 . S
H379 C366 0.962 . S
H380 C366 0.960 . S
H381 C367 0.961 . S
H382 C367 0.961 . S
H383 C367 0.961 . S
H384 C368 0.931 . S
H385 C373 0.930 . S
H386 C374 0.956 . S
H387 C374 0.961 . S
H388 C374 0.961 . S
H389 C375 0.958 . S
H390 C375 0.961 . S
H391 C375 0.960 . S
C392 C393 1.394 . S
C392 C394 1.396 1_455 S
C392 H408 0.926 1_455 S
C393 C392 1.394 . S
C393 C397 1.376 . S
C394 C392 1.396 1_655 S
C394 C395 1.369 . S
C394 C398 1.531 . S
C395 C394 1.369 . S
C395 C396 1.410 1_655 S
C395 C403 1.503 . S
C396 C395 1.410 1_455 S
C396 C397 1.392 . S
C396 C399 1.511 . S
C397 C393 1.376 . S
C397 C396 1.392 . S
C397 H409 0.929 . S
C398 C394 1.531 . S
C398 H410 0.960 . S
C398 H411 0.962 . S
C398 H412 0.960 . S
C399 C396 1.511 . S
C399 H413 0.961 . S
C399 H414 0.961 . S
C399 H415 0.961 . S
C400 C401 1.370 1_455 S
C400 C402 1.363 . S
C400 H416 0.931 . S
C401 C400 1.370 1_655 S
C401 C405 1.408 . S
C402 C400 1.363 . S
C402 C403 1.370 1_455 S
C402 C406 1.524 . S
C403 C395 1.503 . S
C403 C402 1.370 1_655 S
C403 C404 1.403 . S
C404 C403 1.403 . S
C404 C405 1.404 . S
C404 C407 1.539 . S
C405 C401 1.408 . S
C405 C404 1.404 . S
C405 H417 0.930 . S
C406 C402 1.524 . S
C406 H418 0.956 . S
C406 H419 0.961 . S
C406 H420 0.961 . S
C407 C404 1.539 . S
C407 H421 0.958 . S
C407 H422 0.961 . S
C407 H423 0.960 . S
H408 C392 0.926 1_655 S
H409 C397 0.929 . S
H410 C398 0.960 . S
H411 C398 0.962 . S
H412 C398 0.960 . S
H413 C399 0.961 . S
H414 C399 0.961 . S
H415 C399 0.961 . S
H416 C400 0.931 . S
H417 C405 0.930 . S
H418 C406 0.956 . S
H419 C406 0.961 . S
H420 C406 0.961 . S
H421 C407 0.958 . S
H422 C407 0.961 . S
H423 C407 0.960 . S
C424 C425 1.391 . S
C424 C426 1.394 . S
C424 H440 0.931 . S
C425 C424 1.391 . S
C425 C429 1.376 . S
C426 C424 1.394 . S
C426 C427 1.369 1_545 S
C426 C430 1.531 . S
C427 C426 1.369 1_565 S
C427 C428 1.410 . S
C427 C435 1.503 . S
C428 C427 1.410 . S
C428 C429 1.392 1_565 S
C428 C431 1.511 . S
C429 C425 1.376 . S
C429 C428 1.392 1_545 S
C429 H441 0.929 1_545 S
C430 C426 1.531 . S
C430 H442 0.960 . S
C430 H443 0.962 . S
C430 H444 0.960 . S
C431 C428 1.511 . S
C431 H445 0.961 . S
C431 H446 0.961 . S
C431 H447 0.961 . S
C432 C433 1.370 1_545 S
C432 C434 1.363 . S
C432 H448 0.931 . S
C433 C432 1.370 1_565 S
C433 C437 1.408 . S
C434 C432 1.363 . S
C434 C435 1.370 1_545 S
C434 C438 1.524 . S
C435 C427 1.503 . S
C435 C434 1.370 1_565 S
C435 C436 1.403 . S
C436 C435 1.403 . S
C436 C437 1.404 . S
C436 C439 1.539 . S
C437 C433 1.408 . S
C437 C436 1.404 . S
C437 H449 0.930 . S
C438 C434 1.524 . S
C438 H450 0.956 . S
C438 H451 0.961 . S
C438 H452 0.961 . S
C439 C436 1.539 . S
C439 H453 0.958 . S
C439 H454 0.961 . S
C439 H455 0.960 . S
H440 C424 0.931 . S
H441 C429 0.929 1_565 S
H442 C430 0.960 . S
H443 C430 0.962 . S
H444 C430 0.960 . S
H445 C431 0.961 . S
H446 C431 0.961 . S
H447 C431 0.961 . S
H448 C432 0.931 . S
H449 C437 0.930 . S
H450 C438 0.956 . S
H451 C438 0.961 . S
H452 C438 0.961 . S
H453 C439 0.958 . S
H454 C439 0.961 . S
H455 C439 0.960 . S
C456 C457 1.391 . S
C456 C458 1.394 . S
C456 H472 0.931 . S
C457 C456 1.391 . S
C457 C461 1.376 . S
C458 C456 1.394 . S
C458 C459 1.369 . S
C458 C462 1.531 . S
C459 C458 1.369 . S
C459 C460 1.410 . S
C459 C467 1.503 . S
C460 C459 1.410 . S
C460 C461 1.392 . S
C460 C463 1.511 . S
C461 C457 1.376 . S
C461 C460 1.392 . S
C461 H473 0.929 . S
C462 C458 1.531 . S
C462 H474 0.960 . S
C462 H475 0.962 . S
C462 H476 0.960 . S
C463 C460 1.511 . S
C463 H477 0.961 . S
C463 H478 0.961 . S
C463 H479 0.961 . S
C464 C465 1.370 . S
C464 C466 1.363 . S
C464 H480 0.931 . S
C465 C464 1.370 . S
C465 C469 1.408 . S
C466 C464 1.363 . S
C466 C467 1.370 . S
C466 C470 1.524 . S
C467 C459 1.503 . S
C467 C466 1.370 . S
C467 C468 1.403 . S
C468 C467 1.403 . S
C468 C469 1.404 . S
C468 C471 1.539 . S
C469 C465 1.408 . S
C469 C468 1.404 . S
C469 H481 0.930 . S
C470 C466 1.524 . S
C470 H482 0.956 . S
C470 H483 0.961 . S
C470 H484 0.961 . S
C471 C468 1.539 . S
C471 H485 0.958 . S
C471 H486 0.961 . S
C471 H487 0.960 . S
H472 C456 0.931 . S
H473 C461 0.929 . S
H474 C462 0.960 . S
H475 C462 0.962 . S
H476 C462 0.960 . S
H477 C463 0.961 . S
H478 C463 0.961 . S
H479 C463 0.961 . S
H480 C464 0.931 . S
H481 C469 0.930 . S
H482 C470 0.956 . S
H483 C470 0.961 . S
H484 C470 0.961 . S
H485 C471 0.958 . S
H486 C471 0.961 . S
H487 C471 0.960 . S
C488 C489 1.391 . S
C488 C490 1.394 . S
C488 H504 0.931 . S
C489 C488 1.391 . S
C489 C493 1.376 1_655 S
C490 C488 1.394 . S
C490 C491 1.369 1_655 S
C490 C494 1.531 . S
C491 C490 1.369 1_455 S
C491 C492 1.410 . S
C491 C499 1.503 . S
C492 C491 1.410 . S
C492 C493 1.392 . S
C492 C495 1.511 . S
C493 C489 1.376 1_455 S
C493 C492 1.392 . S
C493 H505 0.929 . S
C494 C490 1.531 . S
C494 H506 0.960 . S
C494 H507 0.962 . S
C494 H508 0.960 . S
C495 C492 1.511 . S
C495 H509 0.961 . S
C495 H510 0.961 . S
C495 H511 0.961 . S
C496 C497 1.370 1_655 S
C496 C498 1.363 . S
C496 H512 0.931 . S
C497 C496 1.370 1_455 S
C497 C501 1.408 . S
C498 C496 1.363 . S
C498 C499 1.370 1_655 S
C498 C502 1.524 . S
C499 C491 1.503 . S
C499 C498 1.370 1_455 S
C499 C500 1.403 . S
C500 C499 1.403 . S
C500 C501 1.404 . S
C500 C503 1.539 . S
C501 C497 1.408 . S
C501 C500 1.404 . S
C501 H513 0.930 . S
C502 C498 1.524 . S
C502 H514 0.956 . S
C502 H515 0.961 . S
C502 H516 0.961 . S
C503 C500 1.539 . S
C503 H517 0.958 . S
C503 H518 0.961 . S
C503 H519 0.960 . S
H504 C488 0.931 . S
H505 C493 0.929 . S
H506 C494 0.960 . S
H507 C494 0.962 . S
H508 C494 0.960 . S
H509 C495 0.961 . S
H510 C495 0.961 . S
H511 C495 0.961 . S
H512 C496 0.931 . S
H513 C501 0.930 . S
H514 C502 0.956 . S
H515 C502 0.961 . S
H516 C502 0.961 . S
H517 C503 0.958 . S
H518 C503 0.961 . S
H519 C503 0.960 . S
C520 C521 1.391 1_545 S
C520 C522 1.394 . S
C520 H536 0.931 . S
C521 C520 1.391 1_565 S
C521 C525 1.376 . S
C522 C520 1.394 . S
C522 C523 1.369 1_545 S
C522 C526 1.531 . S
C523 C522 1.369 1_565 S
C523 C524 1.410 . S
C523 C531 1.503 1_565 S
C524 C523 1.410 . S
C524 C525 1.392 . S
C524 C527 1.511 . S
C525 C521 1.376 . S
C525 C524 1.392 . S
C525 H537 0.929 . S
C526 C522 1.531 . S
C526 H538 0.960 . S
C526 H539 0.962 . S
C526 H540 0.960 . S
C527 C524 1.511 . S
C527 H541 0.961 . S
C527 H542 0.961 . S
C527 H543 0.961 . S
C528 C529 1.370 . S
C528 C530 1.363 . S
C528 H544 0.931 . S
C529 C528 1.370 . S
C529 C533 1.408 . S
C530 C528 1.363 . S
C530 C531 1.370 . S
C530 C534 1.524 . S
C531 C523 1.503 1_545 S
C531 C530 1.370 . S
C531 C532 1.403 1_545 S
C532 C531 1.403 1_565 S
C532 C533 1.404 1_565 S
C532 C535 1.539 . S
C533 C529 1.408 . S
C533 C532 1.404 1_545 S
C533 H545 0.930 . S
C534 C530 1.524 . S
C534 H546 0.956 . S
C534 H547 0.968 . S
C534 H548 0.961 . S
C535 C532 1.539 . S
C535 H549 0.958 . S
C535 H550 0.961 . S
C535 H551 0.960 . S
H536 C520 0.931 . S
H537 C525 0.929 . S
H538 C526 0.960 . S
H539 C526 0.962 . S
H540 C526 0.960 . S
H541 C527 0.961 . S
H542 C527 0.961 . S
H543 C527 0.961 . S
H544 C528 0.931 . S
H545 C533 0.930 . S
H546 C534 0.956 . S
H547 C534 0.968 . S
H548 C534 0.961 . S
H549 C535 0.958 . S
H550 C535 0.961 . S
H551 C535 0.960 . S
C552 C553 1.391 . S
C552 C554 1.394 . S
C552 H568 0.931 . S
C553 C552 1.391 . S
C553 C557 1.376 . S
C554 C552 1.394 . S
C554 C555 1.369 . S
C554 C558 1.531 . S
C555 C554 1.369 . S
C555 C556 1.410 . S
C555 C563 1.503 . S
C556 C555 1.410 . S
C556 C557 1.392 . S
C556 C559 1.511 . S
C557 C553 1.376 . S
C557 C556 1.392 . S
C557 H569 0.929 . S
C558 C554 1.531 . S
C558 H570 0.960 . S
C558 H571 0.962 . S
C558 H572 0.960 . S
C559 C556 1.511 . S
C559 H573 0.961 . S
C559 H574 0.961 . S
C559 H575 0.961 . S
C560 C561 1.370 . S
C560 C562 1.363 . S
C560 H576 0.931 . S
C561 C560 1.370 . S
C561 C565 1.408 . S
C562 C560 1.363 . S
C562 C563 1.370 . S
C562 C566 1.524 . S
C563 C555 1.503 . S
C563 C562 1.370 . S
C563 C564 1.403 . S
C564 C563 1.403 . S
C564 C565 1.404 . S
C564 C567 1.539 . S
C565 C561 1.408 . S
C565 C564 1.404 . S
C565 H577 0.930 . S
C566 C562 1.524 . S
C566 H578 0.956 . S
C566 H579 0.961 . S
C566 H580 0.961 . S
C567 C564 1.539 . S
C567 H581 0.958 . S
C567 H582 0.961 . S
C567 H583 0.960 . S
H568 C552 0.931 . S
H569 C557 0.929 . S
H570 C558 0.960 . S
H571 C558 0.962 . S
H572 C558 0.960 . S
H573 C559 0.961 . S
H574 C559 0.961 . S
H575 C559 0.961 . S
H576 C560 0.931 . S
H577 C565 0.930 . S
H578 C566 0.956 . S
H579 C566 0.961 . S
H580 C566 0.961 . S
H581 C567 0.958 . S
H582 C567 0.961 . S
H583 C567 0.960 . S
C584 C585 1.391 . S
C584 C586 1.394 . S
C584 H600 0.931 . S
C585 C584 1.391 . S
C585 C589 1.376 . S
C586 C584 1.394 . S
C586 C587 1.369 . S
C586 C590 1.531 . S
C587 C586 1.369 . S
C587 C588 1.410 . S
C587 C595 1.503 . S
C588 C587 1.410 . S
C588 C589 1.392 . S
C588 C591 1.511 . S
C589 C585 1.376 . S
C589 C588 1.392 . S
C589 H601 0.929 . S
C590 C586 1.531 . S
C590 H602 0.960 . S
C590 H603 0.962 . S
C590 H604 0.960 . S
C591 C588 1.511 . S
C591 H605 0.961 . S
C591 H606 0.961 . S
C591 H607 0.961 . S
C592 C593 1.370 . S
C592 C594 1.363 . S
C592 H608 0.931 . S
C593 C592 1.370 . S
C593 C597 1.408 . S
C594 C592 1.363 . S
C594 C595 1.370 . S
C594 C598 1.524 . S
C595 C587 1.503 . S
C595 C594 1.370 . S
C595 C596 1.403 . S
C596 C595 1.403 . S
C596 C597 1.404 . S
C596 C599 1.539 . S
C597 C593 1.408 . S
C597 C596 1.404 . S
C597 H609 0.930 . S
C598 C594 1.524 . S
C598 H610 0.956 . S
C598 H611 0.961 . S
C598 H612 0.961 . S
C599 C596 1.539 . S
C599 H613 0.958 . S
C599 H614 0.961 . S
C599 H615 0.960 . S
H600 C584 0.931 . S
H601 C589 0.929 . S
H602 C590 0.960 . S
H603 C590 0.962 . S
H604 C590 0.960 . S
H605 C591 0.961 . S
H606 C591 0.961 . S
H607 C591 0.961 . S
H608 C592 0.931 . S
H609 C597 0.930 . S
H610 C598 0.956 . S
H611 C598 0.961 . S
H612 C598 0.961 . S
H613 C599 0.958 . S
H614 C599 0.961 . S
H615 C599 0.960 . S
C616 C617 1.391 . S
C616 C618 1.394 . S
C616 H632 0.931 . S
C617 C616 1.391 . S
C617 C621 1.376 . S
C618 C616 1.394 . S
C618 C619 1.369 . S
C618 C622 1.531 . S
C619 C618 1.369 . S
C619 C620 1.410 . S
C619 C627 1.503 . S
C620 C619 1.410 . S
C620 C621 1.392 . S
C620 C623 1.511 . S
C621 C617 1.376 . S
C621 C620 1.392 . S
C621 H633 0.929 . S
C622 C618 1.531 . S
C622 H634 0.960 . S
C622 H635 0.962 . S
C622 H636 0.960 . S
C623 C620 1.511 . S
C623 H637 0.961 . S
C623 H638 0.961 . S
C623 H639 0.961 . S
C624 C625 1.370 . S
C624 C626 1.363 . S
C624 H640 0.931 . S
C625 C624 1.370 . S
C625 C629 1.408 . S
C626 C624 1.363 . S
C626 C627 1.370 . S
C626 C630 1.524 . S
C627 C619 1.503 . S
C627 C626 1.370 . S
C627 C628 1.403 . S
C628 C627 1.403 . S
C628 C629 1.404 . S
C628 C631 1.539 . S
C629 C625 1.408 . S
C629 C628 1.404 . S
C629 H641 0.930 1_545 S
C630 C626 1.524 . S
C630 H642 0.956 . S
C630 H643 0.961 . S
C630 H644 0.961 . S
C631 C628 1.539 . S
C631 H645 0.958 . S
C631 H646 0.961 . S
C631 H647 0.960 . S
H632 C616 0.931 . S
H633 C621 0.929 . S
H634 C622 0.960 . S
H635 C622 0.962 . S
H636 C622 0.960 . S
H637 C623 0.961 . S
H638 C623 0.961 . S
H639 C623 0.961 . S
H640 C624 0.931 . S
H641 C629 0.930 1_565 S
H642 C630 0.956 . S
H643 C630 0.961 . S
H644 C630 0.961 . S
H645 C631 0.958 . S
H646 C631 0.961 . S
H647 C631 0.960 . S
C648 C649 1.391 . S
C648 C650 1.394 . S
C648 H664 0.931 . S
C649 C648 1.391 . S
C649 C653 1.376 . S
C650 C648 1.394 . S
C650 C651 1.369 . S
C650 C654 1.531 . S
C651 C650 1.369 . S
C651 C652 1.410 . S
C651 C659 1.503 . S
C652 C651 1.410 . S
C652 C653 1.392 . S
C652 C655 1.511 . S
C653 C649 1.376 . S
C653 C652 1.392 . S
C653 H665 0.932 . S
C654 C650 1.531 . S
C654 H666 0.960 . S
C654 H667 0.962 . S
C654 H668 0.960 . S
C655 C652 1.511 . S
C655 H669 0.961 . S
C655 H670 0.961 . S
C655 H671 0.961 . S
C656 C657 1.370 . S
C656 C658 1.363 . S
C656 H672 0.931 . S
C657 C656 1.370 . S
C657 C661 1.408 . S
C658 C656 1.363 . S
C658 C659 1.370 . S
C658 C662 1.524 . S
C659 C651 1.503 . S
C659 C658 1.370 . S
C659 C660 1.403 . S
C660 C659 1.403 . S
C660 C661 1.404 . S
C660 C663 1.539 . S
C661 C657 1.408 . S
C661 C660 1.404 . S
C661 H673 0.930 . S
C662 C658 1.524 . S
C662 H674 0.956 . S
C662 H675 0.961 . S
C662 H676 0.961 . S
C663 C660 1.539 . S
C663 H677 0.958 . S
C663 H678 0.961 . S
C663 H679 0.960 . S
H664 C648 0.931 . S
H665 C653 0.932 . S
H666 C654 0.960 . S
H667 C654 0.962 . S
H668 C654 0.960 . S
H669 C655 0.961 . S
H670 C655 0.961 . S
H671 C655 0.961 . S
H672 C656 0.931 . S
H673 C661 0.930 . S
H674 C662 0.956 . S
H675 C662 0.961 . S
H676 C662 0.961 . S
H677 C663 0.958 . S
H678 C663 0.961 . S
H679 C663 0.960 . S
C680 C681 1.391 . S
C680 C682 1.394 . S
C680 H696 0.931 . S
C681 C680 1.391 . S
C681 C685 1.376 . S
C682 C680 1.394 . S
C682 C683 1.369 . S
C682 C686 1.531 . S
C683 C682 1.369 . S
C683 C684 1.410 . S
C683 C691 1.503 . S
C684 C683 1.410 . S
C684 C685 1.392 . S
C684 C687 1.511 . S
C685 C681 1.376 . S
C685 C684 1.392 . S
C685 H697 0.929 . S
C686 C682 1.531 . S
C686 H698 0.960 . S
C686 H699 0.962 . S
C686 H700 0.960 . S
C687 C684 1.511 . S
C687 H701 0.961 . S
C687 H702 0.961 . S
C687 H703 0.961 . S
C688 C689 1.370 . S
C688 C690 1.363 . S
C688 H704 0.931 . S
C689 C688 1.370 . S
C689 C693 1.408 . S
C690 C688 1.363 . S
C690 C691 1.370 . S
C690 C694 1.524 . S
C691 C683 1.503 . S
C691 C690 1.370 . S
C691 C692 1.403 . S
C692 C691 1.403 . S
C692 C693 1.404 . S
C692 C695 1.539 . S
C693 C689 1.408 . S
C693 C692 1.404 . S
C693 H705 0.930 . S
C694 C690 1.524 . S
C694 H706 0.956 . S
C694 H707 0.961 . S
C694 H708 0.961 . S
C695 C692 1.539 . S
C695 H709 0.958 . S
C695 H710 0.961 . S
C695 H711 0.960 . S
H696 C680 0.931 . S
H697 C685 0.929 . S
H698 C686 0.960 . S
H699 C686 0.962 . S
H700 C686 0.960 . S
H701 C687 0.961 . S
H702 C687 0.961 . S
H703 C687 0.961 . S
H704 C688 0.931 . S
H705 C693 0.930 . S
H706 C694 0.956 . S
H707 C694 0.961 . S
H708 C694 0.961 . S
H709 C695 0.958 . S
H710 C695 0.961 . S
H711 C695 0.960 . S
C712 C713 1.391 . S
C712 C714 1.394 . S
C712 H728 0.922 1_565 S
C713 C712 1.391 . S
C713 C717 1.376 . S
C714 C712 1.394 . S
C714 C715 1.369 . S
C714 C718 1.531 . S
C715 C714 1.369 . S
C715 C716 1.410 . S
C715 C723 1.503 . S
C716 C715 1.410 . S
C716 C717 1.392 . S
C716 C719 1.511 . S
C717 C713 1.376 . S
C717 C716 1.392 . S
C717 H729 0.929 . S
C718 C714 1.531 . S
C718 H730 0.960 . S
C718 H731 0.962 . S
C718 H732 0.960 . S
C719 C716 1.511 . S
C719 H733 0.961 . S
C719 H734 0.961 . S
C719 H735 0.961 . S
C720 C721 1.370 . S
C720 C722 1.363 . S
C720 H736 0.931 . S
C721 C720 1.370 . S
C721 C725 1.408 . S
C722 C720 1.363 . S
C722 C723 1.370 . S
C722 C726 1.524 . S
C723 C715 1.503 . S
C723 C722 1.370 . S
C723 C724 1.403 . S
C724 C723 1.403 . S
C724 C725 1.404 . S
C724 C727 1.539 . S
C725 C721 1.408 . S
C725 C724 1.404 . S
C725 H737 0.930 . S
C726 C722 1.524 . S
C726 H738 0.956 . S
C726 H739 0.961 . S
C726 H740 0.961 . S
C727 C724 1.539 . S
C727 H741 0.958 . S
C727 H742 0.961 . S
C727 H743 0.960 . S
H728 C712 0.922 1_545 S
H729 C717 0.929 . S
H730 C718 0.960 . S
H731 C718 0.962 . S
H732 C718 0.960 . S
H733 C719 0.961 . S
H734 C719 0.961 . S
H735 C719 0.961 . S
H736 C720 0.931 . S
H737 C725 0.930 . S
H738 C726 0.956 . S
H739 C726 0.961 . S
H740 C726 0.961 . S
H741 C727 0.958 . S
H742 C727 0.961 . S
H743 C727 0.960 . S
C744 C745 1.391 . S
C744 C746 1.394 . S
C744 H760 0.931 . S
C745 C744 1.391 . S
C745 C749 1.376 . S
C746 C744 1.394 . S
C746 C747 1.369 . S
C746 C750 1.531 . S
C747 C746 1.369 . S
C747 C748 1.410 . S
C747 C755 1.503 . S
C748 C747 1.410 . S
C748 C749 1.392 . S
C748 C751 1.511 . S
C749 C745 1.376 . S
C749 C748 1.392 . S
C749 H761 0.929 . S
C750 C746 1.531 . S
C750 H762 0.960 . S
C750 H763 0.962 . S
C750 H764 0.960 . S
C751 C748 1.511 . S
C751 H765 0.961 . S
C751 H766 0.961 . S
C751 H767 0.961 . S
C752 C753 1.370 . S
C752 C754 1.363 . S
C752 H768 0.931 . S
C753 C752 1.370 . S
C753 C757 1.408 . S
C754 C752 1.363 . S
C754 C755 1.370 . S
C754 C758 1.524 . S
C755 C747 1.503 . S
C755 C754 1.370 . S
C755 C756 1.403 . S
C756 C755 1.403 . S
C756 C757 1.404 . S
C756 C759 1.539 . S
C757 C753 1.408 . S
C757 C756 1.404 . S
C757 H769 0.930 . S
C758 C754 1.524 . S
C758 H770 0.956 . S
C758 H771 0.961 . S
C758 H772 0.961 . S
C759 C756 1.539 . S
C759 H773 0.958 . S
C759 H774 0.961 . S
C759 H775 0.960 . S
H760 C744 0.931 . S
H761 C749 0.929 . S
H762 C750 0.960 . S
H763 C750 0.962 . S
H764 C750 0.960 . S
H765 C751 0.961 . S
H766 C751 0.961 . S
H767 C751 0.961 . S
H768 C752 0.931 . S
H769 C757 0.930 . S
H770 C758 0.956 . S
H771 C758 0.961 . S
H772 C758 0.961 . S
H773 C759 0.958 . S
H774 C759 0.961 . S
H775 C759 0.960 . S
C776 C777 1.391 . S
C776 C778 1.394 . S
C776 H792 0.931 . S
C777 C776 1.391 . S
C777 C781 1.376 1_655 S
C778 C776 1.394 . S
C778 C779 1.378 . S
C778 C782 1.531 . S
C779 C778 1.378 . S
C779 C780 1.409 1_655 S
C779 C787 1.498 1_655 S
C780 C779 1.409 1_455 S
C780 C781 1.392 . S
C780 C783 1.511 . S
C781 C777 1.376 1_455 S
C781 C780 1.392 . S
C781 H793 0.929 . S
C782 C778 1.531 . S
C782 H794 0.960 . S
C782 H795 0.962 . S
C782 H796 0.960 . S
C783 C780 1.511 . S
C783 H797 0.961 . S
C783 H798 0.961 . S
C783 H799 0.961 . S
C784 C785 1.370 . S
C784 C786 1.363 1_455 S
C784 H800 0.931 1_455 S
C785 C784 1.370 . S
C785 C789 1.408 . S
C786 C784 1.363 1_655 S
C786 C787 1.370 1_655 S
C786 C790 1.524 . S
C787 C779 1.498 1_455 S
C787 C786 1.370 1_455 S
C787 C788 1.403 . S
C788 C787 1.403 . S
C788 C789 1.404 . S
C788 C791 1.539 . S
C789 C785 1.408 . S
C789 C788 1.404 . S
C789 H801 0.930 . S
C790 C786 1.524 . S
C790 H802 0.956 . S
C790 H803 0.961 . S
C790 H804 0.961 . S
C791 C788 1.539 . S
C791 H805 0.958 . S
C791 H806 0.961 . S
C791 H807 0.960 . S
H792 C776 0.931 . S
H793 C781 0.929 . S
H794 C782 0.960 . S
H795 C782 0.962 . S
H796 C782 0.960 . S
H797 C783 0.961 . S
H798 C783 0.961 . S
H799 C783 0.961 . S
H800 C784 0.931 1_655 S
H801 C789 0.930 . S
H802 C790 0.956 . S
H803 C790 0.961 . S
H804 C790 0.961 . S
H805 C791 0.958 . S
H806 C791 0.961 . S
H807 C791 0.960 . S
C808 C809 1.391 . S
C808 C810 1.394 . S
C808 H824 0.931 . S
C809 C808 1.391 . S
C809 C813 1.376 1_545 S
C810 C808 1.394 . S
C810 C811 1.369 . S
C810 C814 1.529 . S
C811 C810 1.369 . S
C811 C812 1.410 1_545 S
C811 C819 1.503 1_544 S
C812 C811 1.410 1_565 S
C812 C813 1.392 . S
C812 C815 1.511 . S
C813 C809 1.376 1_565 S
C813 C812 1.392 . S
C813 H825 0.929 . S
C814 C810 1.529 . S
C814 H826 0.962 1_554 S
C814 H827 0.963 1_554 S
C814 H828 0.959 . S
C815 C812 1.511 . S
C815 H829 0.961 . S
C815 H830 0.961 . S
C815 H831 0.961 . S
C816 C817 1.370 . S
C816 C818 1.363 1_565 S
C816 H832 0.931 . S
C817 C816 1.370 . S
C817 C821 1.408 . S
C818 C816 1.363 1_545 S
C818 C819 1.371 1_545 S
C818 C822 1.523 . S
C819 C811 1.503 1_566 S
C819 C818 1.371 1_565 S
C819 C820 1.403 . S
C820 C819 1.403 . S
C820 C821 1.404 . S
C820 C823 1.539 . S
C821 C817 1.408 . S
C821 C820 1.404 . S
C821 H833 0.930 . S
C822 C818 1.523 . S
C822 H834 0.956 . S
C822 H835 0.980 . S
C822 H836 0.961 . S
C823 C820 1.539 . S
C823 H837 0.958 . S
C823 H838 0.961 . S
C823 H839 0.960 1_556 S
H824 C808 0.931 . S
H825 C813 0.929 . S
H826 C814 0.962 1_556 S
H827 C814 0.963 1_556 S
H828 C814 0.959 . S
H829 C815 0.961 . S
H830 C815 0.961 . S
H831 C815 0.961 . S
H832 C816 0.931 . S
H833 C821 0.930 . S
H834 C822 0.956 . S
H835 C822 0.980 . S
H836 C822 0.961 . S
H837 C823 0.958 . S
H838 C823 0.961 . S
H839 C823 0.960 1_554 S
C840 C841 1.391 . S
C840 C842 1.394 . S
C840 H856 0.931 . S
C841 C840 1.391 . S
C841 C845 1.376 . S
C842 C840 1.394 . S
C842 C843 1.369 . S
C842 C846 1.531 . S
C843 C842 1.369 . S
C843 C844 1.410 . S
C843 C851 1.503 . S
C844 C843 1.410 . S
C844 C845 1.392 . S
C844 C847 1.511 . S
C845 C841 1.376 . S
C845 C844 1.392 . S
C845 H857 0.929 . S
C846 C842 1.531 . S
C846 H858 0.960 . S
C846 H859 0.962 . S
C846 H860 0.960 . S
C847 C844 1.511 . S
C847 H861 0.961 . S
C847 H862 0.961 . S
C847 H863 0.961 . S
C848 C849 1.370 . S
C848 C850 1.363 . S
C848 H864 0.931 . S
C849 C848 1.370 . S
C849 C853 1.408 . S
C850 C848 1.363 . S
C850 C851 1.370 . S
C850 C854 1.524 . S
C851 C843 1.503 . S
C851 C850 1.370 . S
C851 C852 1.403 . S
C852 C851 1.403 . S
C852 C853 1.404 . S
C852 C855 1.539 . S
C853 C849 1.408 . S
C853 C852 1.404 . S
C853 H865 0.930 . S
C854 C850 1.524 . S
C854 H866 0.956 . S
C854 H867 0.961 . S
C854 H868 0.961 . S
C855 C852 1.539 . S
C855 H869 0.958 . S
C855 H870 0.961 . S
C855 H871 0.960 . S
H856 C840 0.931 . S
H857 C845 0.929 . S
H858 C846 0.960 . S
H859 C846 0.962 . S
H860 C846 0.960 . S
H861 C847 0.961 . S
H862 C847 0.961 . S
H863 C847 0.961 . S
H864 C848 0.931 . S
H865 C853 0.930 . S
H866 C854 0.956 . S
H867 C854 0.961 . S
H868 C854 0.961 . S
H869 C855 0.958 . S
H870 C855 0.961 . S
H871 C855 0.960 . S
C872 C873 1.391 1_655 S
C872 C874 1.394 . S
C872 H888 0.931 . S
C873 C872 1.391 1_455 S
C873 C877 1.376 . S
C874 C872 1.394 . S
C874 C875 1.369 1_655 S
C874 C878 1.531 . S
C875 C874 1.369 1_455 S
C875 C876 1.410 . S
C875 C883 1.503 1_455 S
C876 C875 1.410 . S
C876 C877 1.392 . S
C876 C879 1.511 . S
C877 C873 1.376 . S
C877 C876 1.392 . S
C877 H889 0.929 . S
C878 C874 1.531 . S
C878 H890 0.960 . S
C878 H891 0.962 . S
C878 H892 0.960 . S
C879 C876 1.511 . S
C879 H893 0.961 . S
C879 H894 0.961 . S
C879 H895 0.961 . S
C880 C881 1.370 . S
C880 C882 1.363 . S
C880 H896 0.931 . S
C881 C880 1.370 . S
C881 C885 1.408 . S
C882 C880 1.363 . S
C882 C883 1.370 . S
C882 C886 1.524 . S
C883 C875 1.503 1_655 S
C883 C882 1.370 . S
C883 C884 1.403 . S
C884 C883 1.403 . S
C884 C885 1.404 . S
C884 C887 1.539 1_655 S
C885 C881 1.408 . S
C885 C884 1.404 . S
C885 H897 0.930 . S
C886 C882 1.524 . S
C886 H898 0.956 . S
C886 H899 0.961 1_655 S
C886 H900 0.961 . S
C887 C884 1.539 1_455 S
C887 H901 0.958 1_455 S
C887 H902 0.961 . S
C887 H903 0.960 . S
H888 C872 0.931 . S
H889 C877 0.929 . S
H890 C878 0.960 . S
H891 C878 0.962 . S
H892 C878 0.960 . S
H893 C879 0.961 . S
H894 C879 0.961 . S
H895 C879 0.961 . S
H896 C880 0.931 . S
H897 C885 0.930 . S
H898 C886 0.956 . S
H899 C886 0.961 1_455 S
H900 C886 0.961 . S
H901 C887 0.958 1_655 S
H902 C887 0.961 . S
H903 C887 0.960 . S
C904 C905 1.391 . S
C904 C906 1.394 . S
C904 H920 0.931 . S
C905 C904 1.391 . S
C905 C909 1.376 . S
C906 C904 1.394 . S
C906 C907 1.369 . S
C906 C910 1.531 . S
C907 C906 1.369 . S
C907 C908 1.412 . S
C907 C915 1.503 1_564 S
C908 C907 1.412 . S
C908 C909 1.393 . S
C908 C911 1.507 1_565 S
C909 C905 1.376 . S
C909 C908 1.393 . S
C909 H921 0.929 . S
C910 C906 1.531 . S
C910 H922 0.960 1_554 S
C910 H923 0.962 . S
C910 H924 0.960 . S
C911 C908 1.507 1_545 S
C911 H925 0.961 . S
C911 H926 0.961 . S
C911 H927 0.961 . S
C912 C913 1.370 . S
C912 C914 1.363 . S
C912 H928 0.931 . S
C913 C912 1.370 . S
C913 C917 1.408 1_545 S
C914 C912 1.363 . S
C914 C915 1.370 . S
C914 C918 1.485 1_556 S
C915 C907 1.503 1_546 S
C915 C914 1.370 . S
C915 C916 1.403 1_545 S
C916 C915 1.403 1_565 S
C916 C917 1.404 . S
C916 C919 1.539 . S
C917 C913 1.408 1_565 S
C917 C916 1.404 . S
C917 H929 0.930 . S
C918 C914 1.485 1_554 S
C918 H930 0.976 . S
C918 H931 1.002 . S
C918 H932 0.942 1_554 S
C919 C916 1.539 . S
C919 H933 0.958 . S
C919 H934 0.961 . S
C919 H935 0.960 . S
H920 C904 0.931 . S
H921 C909 0.929 . S
H922 C910 0.960 1_556 S
H923 C910 0.962 . S
H924 C910 0.960 . S
H925 C911 0.961 . S
H926 C911 0.961 . S
H927 C911 0.961 . S
H928 C912 0.931 . S
H929 C917 0.930 . S
H930 C918 0.976 . S
H931 C918 1.002 . S
H932 C918 0.942 1_556 S
H933 C919 0.958 . S
H934 C919 0.961 . S
H935 C919 0.960 . S
C169 C162 1.680 . S
C177 C8 1.696 . S
C201 C22 1.685 . S
C209 C92 1.687 . S
C233 C36 1.700 . S
C241 C106 1.691 . S
C265 C50 1.684 . S
C273 C120 1.697 . S
C297 C134 1.690 . S
C305 C64 1.698 . S
C329 C78 1.696 . S
C337 C148 1.697 . S
C361 C51 1.241 . S
C369 C9 1.211 . S
C393 C65 1.192 . S
C401 C23 1.227 . S
C425 C79 1.173 . S
C433 C37 1.222 . S
C457 C93 1.239 . S
C465 C135 1.213 . S
C489 C107 1.173 . S
C497 C149 1.219 . S
C521 C121 1.238 . S
C529 C163 1.213 . S
C553 C119 0.446 . S
C561 C7 0.560 . S
C585 C21 0.532 . S
C593 C133 0.544 . S
C617 C147 0.542 . S
C625 C35 0.540 . S
C649 C161 0.488 . S
C657 C49 0.556 . S
C681 C91 0.532 . S
C689 C63 0.508 . S
C713 C77 0.593 . S
C721 C105 0.490 . S
C745 C129 1.658 . S
C753 C3 1.661 . S
C777 C17 1.647 . S
C785 C143 1.665 . S
C809 C157 1.651 . S
C817 C31 1.664 . S
C841 C45 1.644 . S
C849 C87 1.666 . S
C873 C59 1.656 . S
C881 C101 1.657 . S
C905 C115 1.668 . S
C913 C73 1.657 . S
