# Generated by pormake.
# Topology bcg, (8)-cn, num edge types: 1
# Building blocks:
#     Node 0, Type 0, BuildingBlock: AJUNOK_clean_sbu_0, # of connection points: 8
#     Node 1, Type 0, BuildingBlock: AJUNOK_clean_sbu_0, # of connection points: 8
#     Node 2, Type 0, BuildingBlock: AJUNOK_clean_sbu_0, # of connection points: 8
#     Node 3, Type 0, BuildingBlock: AJUNOK_clean_sbu_0, # of connection points: 8
#     Edge 4, Type (0, 0), BuildingBlock: TEMPAE_clean_linker_10, # of connection points: 2
#     Edge 5, Type (0, 0), BuildingBlock: TEMPAE_clean_linker_10, # of connection points: 2
#     Edge 6, Type (0, 0), BuildingBlock: TEMPAE_clean_linker_10, # of connection points: 2
#     Edge 7, Type (0, 0), BuildingBlock: TEMPAE_clean_linker_10, # of connection points: 2
#     Edge 8, Type (0, 0), BuildingBlock: TEMPAE_clean_linker_10, # of connection points: 2
#     Edge 9, Type (0, 0), BuildingBlock: TEMPAE_clean_linker_10, # of connection points: 2
#     Edge 10, Type (0, 0), BuildingBlock: TEMPAE_clean_linker_10, # of connection points: 2
#     Edge 11, Type (0, 0), BuildingBlock: TEMPAE_clean_linker_10, # of connection points: 2
#     Edge 12, Type (0, 0), BuildingBlock: TEMPAE_clean_linker_10, # of connection points: 2
#     Edge 13, Type (0, 0), BuildingBlock: TEMPAE_clean_linker_10, # of connection points: 2
#     Edge 14, Type (0, 0), BuildingBlock: TEMPAE_clean_linker_10, # of connection points: 2
#     Edge 15, Type (0, 0), BuildingBlock: TEMPAE_clean_linker_10, # of connection points: 2
#     Edge 16, Type (0, 0), BuildingBlock: TEMPAE_clean_linker_10, # of connection points: 2
#     Edge 17, Type (0, 0), BuildingBlock: TEMPAE_clean_linker_10, # of connection points: 2
#     Edge 18, Type (0, 0), BuildingBlock: TEMPAE_clean_linker_10, # of connection points: 2
#     Edge 19, Type (0, 0), BuildingBlock: TEMPAE_clean_linker_10, # of connection points: 2
# Relax obj value: 0.150
# Max RMSD: 0.197
# Mean RMSD: 0.197
data_MOF--net-bcg--node1-AJUNOK_clean_sbu_0--edge1-TEMPAE_clean_linker_10
_symmetry_space_group_name_H-M    P1
_symmetry_Int_Tables_number       1
_symmetry_cell_setting            triclinic
loop_
_symmetry_equiv_pos_as_xyz
'x, y, z'
_cell_length_a     16.1645
_cell_length_b     26.641144
_cell_length_c     38.890142
_cell_angle_alpha  89.701934
_cell_angle_beta   90.105303
_cell_angle_gamma 90.024503
loop_
_atom_site_label
_atom_site_type_symbol
_atom_site_fract_x
_atom_site_fract_y
_atom_site_fract_z
_atom_type_partial_charge
Cd0 Cd 0.10897 0.27713 0.01595 0.0
Cd1 Cd 0.34 0.19853 0.02162 0.0
C2 C 0.13353 0.29537 0.09941 0.0
N3 N 0.08596 0.27208 0.07542 0.0
C4 C -0.00175 0.23828 0.11923 0.0
C5 C 0.04625 0.26138 0.14485 0.0
C6 C 0.11517 0.29013 0.13446 0.0
C7 C 0.01979 0.24365 0.08476 0.0
H8 H 0.18569 0.31797 0.09141 0.0
H9 H -0.01692 0.22518 0.06531 0.0
C10 C 0.14769 0.1447 0.03054 0.0
C11 C 0.29682 0.17573 0.94327 0.0
C12 C 0.31154 0.17528 0.90789 0.0
C13 C 0.35664 0.21455 0.89254 0.0
C14 C 0.38079 0.25524 0.91312 0.0
C15 C 0.36514 0.25405 0.94846 0.0
N16 N 0.32453 0.2144 0.96284 0.0
H17 H 0.26796 0.14367 0.95551 0.0
H18 H 0.39123 0.28287 0.96464 0.0
C19 C 0.39288 0.15285 0.09433 0.0
N20 N 0.35675 0.19464 0.08088 0.0
C21 C 0.36459 0.23614 0.13503 0.0
C22 C 0.4056 0.19444 0.14924 0.0
C23 C 0.41766 0.15183 0.12875 0.0
C24 C 0.34066 0.23545 0.10056 0.0
H25 H 0.40587 0.12122 0.07786 0.0
H26 H 0.31243 0.26828 0.08925 0.0
C27 C 0.2981 0.33263 0.02612 0.0
C28 C 0.95788 0.31768 0.99011 0.0
N29 N 0.13825 0.24834 0.96086 0.0
C30 C 0.16893 0.28373 0.93906 0.0
C31 C 0.16297 0.27734 0.90353 0.0
C32 C 0.12539 0.23386 0.89027 0.0
C33 C 0.09997 0.1964 0.91355 0.0
C34 C 0.10446 0.20513 0.94875 0.0
C35 C 0.49574 0.15899 1.00275 0.0
O36 O 0.11231 0.18673 0.02595 0.0
O37 O 0.22591 0.14066 0.03005 0.0
O38 O 0.33403 0.29022 0.02586 0.0
O39 O 0.22031 0.33657 0.02266 0.0
O40 O 0.96067 0.28591 0.01432 0.0
O41 O 0.02626 0.33532 0.97999 0.0
O42 O 0.48835 0.19594 0.02291 0.0
O43 O 0.43 0.13631 0.99427 0.0
H44 H 0.19197 0.31876 0.94926 0.0
H45 H 0.07574 0.17868 0.96593 0.0
H46 H 0.94352 0.21672 0.12555 0.0
H47 H 0.15489 0.30813 0.15314 0.0
H48 H 0.29088 0.14343 0.89297 0.0
H49 H 0.41712 0.2858 0.90259 0.0
H50 H 0.3532 0.26946 0.15014 0.0
H51 H 0.44961 0.1191 0.1387 0.0
H52 H 0.18224 0.30786 0.88692 0.0
H53 H 0.07228 0.16173 0.90481 0.0
Cd54 Cd 0.61978 0.77401 0.02098 0.0
Cd55 Cd 0.84762 0.69443 0.02079 0.0
C56 C 0.5642 0.81798 0.09359 0.0
N57 N 0.60228 0.77693 0.08034 0.0
C58 C 0.59414 0.73436 0.13442 0.0
C59 C 0.55122 0.77526 0.1484 0.0
C60 C 0.53834 0.81806 0.12786 0.0
C61 C 0.61915 0.73596 0.10012 0.0
H62 H 0.55049 0.8497 0.07707 0.0
H63 H 0.64949 0.70378 0.08908 0.0
C64 C 0.65711 0.63981 0.02762 0.0
C65 C 0.78293 0.67639 0.94488 0.0
C66 C 0.78801 0.67745 0.90907 0.0
C67 C 0.83018 0.71692 0.89274 0.0
C68 C 0.86282 0.75582 0.91277 0.0
C69 C 0.85723 0.75295 0.94851 0.0
N70 N 0.81789 0.7136 0.96381 0.0
H71 H 0.75602 0.64416 0.95764 0.0
H72 H 0.89002 0.78005 0.96385 0.0
C73 C 0.8942 0.65355 0.09633 0.0
N74 N 0.85395 0.69254 0.08101 0.0
C75 C 0.8482 0.73664 0.13437 0.0
C76 C 0.89303 0.69801 0.15052 0.0
C77 C 0.91391 0.65533 0.13135 0.0
C78 C 0.82903 0.73306 0.09944 0.0
H79 H 0.91451 0.62217 0.08095 0.0
H80 H 0.797 0.76358 0.08683 0.0
C81 C 0.8138 0.82764 0.02851 0.0
C82 C 0.46542 0.81473 1.00039 0.0
N83 N 0.63885 0.7573 0.96271 0.0
C84 C 0.6708 0.79514 0.94325 0.0
C85 C 0.66043 0.7952 0.90758 0.0
C86 C 0.61635 0.7561 0.89187 0.0
C87 C 0.58696 0.71647 0.9124 0.0
C88 C 0.59764 0.71827 0.94806 0.0
C89 C 0.00307 0.65604 0.99979 0.0
O90 O 0.62196 0.6824 0.02607 0.0
O91 O 0.73515 0.63536 0.02608 0.0
O92 O 0.85054 0.78574 0.0258 0.0
O93 O 0.73545 0.83101 0.02836 0.0
O94 O 0.47144 0.77809 0.02113 0.0
O95 O 0.53192 0.8366 0.99192 0.0
O96 O -0.00369 0.69002 0.02223 0.0
O97 O 0.93689 0.63511 0.99006 0.0
H98 H 0.69979 0.82687 0.95564 0.0
H99 H 0.56814 0.69026 0.96406 0.0
H100 H 0.60634 0.70097 0.1496 0.0
H101 H 0.50497 0.8502 0.13763 0.0
H102 H 0.76272 0.64658 0.89438 0.0
H103 H 0.89797 0.78604 0.90111 0.0
H104 H 0.83015 0.76988 0.14841 0.0
H105 H 0.94899 0.62493 0.14285 0.0
H106 H 0.68379 0.82648 0.89257 0.0
H107 H 0.55097 0.68629 0.90131 0.0
Cd108 Cd 0.35519 0.77335 0.51751 0.0
Cd109 Cd 0.12843 0.69725 0.5248 0.0
C110 C 0.28671 0.79053 0.44195 0.0
N111 N 0.31609 0.75217 0.46169 0.0
C112 C 0.35547 0.70663 0.41154 0.0
C113 C 0.33224 0.74745 0.39068 0.0
C114 C 0.29378 0.78884 0.40616 0.0
C115 C 0.34849 0.7102 0.44717 0.0
H116 H 0.26495 0.82449 0.45406 0.0
H117 H 0.37574 0.68125 0.46294 0.0
C118 C 0.32263 0.64199 0.53019 0.0
C119 C 0.0675 0.65813 0.59746 0.0
C120 C 0.03946 0.65883 0.63134 0.0
C121 C 0.05351 0.70139 0.65169 0.0
C122 C 0.09941 0.74141 0.63779 0.0
C123 C 0.12587 0.73924 0.60364 0.0
N124 N 0.10805 0.69841 0.58411 0.0
H125 H 0.05394 0.62626 0.58128 0.0
H126 H 0.15805 0.77091 0.59252 0.0
C127 C 0.15718 0.67993 0.44452 0.0
N128 N 0.13174 0.71705 0.46589 0.0
C129 C 0.07716 0.76356 0.41813 0.0
C130 C 0.10036 0.72506 0.39546 0.0
C131 C 0.14231 0.6832 0.40916 0.0
C132 C 0.09191 0.75831 0.45339 0.0
H133 H 0.18535 0.64647 0.45521 0.0
H134 H 0.06776 0.78616 0.47075 0.0
C135 C 0.17072 0.83152 0.52806 0.0
C136 C 0.51278 0.8051 0.49395 0.0
N137 N 0.3636 0.77903 0.57751 0.0
C138 C 0.40794 0.81797 0.59044 0.0
C139 C 0.43047 0.81849 0.62515 0.0
C140 C 0.40771 0.77832 0.64677 0.0
C141 C 0.35819 0.73989 0.633 0.0
C142 C 0.33705 0.7409 0.5981 0.0
C143 C 0.97821 0.64846 0.50839 0.0
O144 O 0.36175 0.68279 0.52568 0.0
O145 O 0.24426 0.64064 0.53105 0.0
O146 O 0.13557 0.78886 0.52848 0.0
O147 O 0.24813 0.83588 0.52359 0.0
O148 O 0.50364 0.77682 0.51987 0.0
O149 O 0.44793 0.8247 0.48163 0.0
O150 O -0.01907 0.68806 0.5263 0.0
O151 O 0.04655 0.62865 0.50025 0.0
H152 H 0.42917 0.84748 0.5734 0.0
H153 H 0.30255 0.71009 0.5872 0.0
H154 H 0.3844 0.6737 0.40065 0.0
H155 H 0.27575 0.8214 0.39116 0.0
H156 H 0.00548 0.62686 0.64128 0.0
H157 H 0.11138 0.77497 0.65259 0.0
H158 H 0.04539 0.79681 0.40899 0.0
H159 H 0.15983 0.65192 0.3931 0.0
H160 H 0.46733 0.84939 0.63472 0.0
H161 H 0.33952 0.70801 0.64853 0.0
Cd162 Cd 0.82704 0.26307 0.52227 0.0
Cd163 Cd 0.6032 0.18381 0.51828 0.0
C164 C 0.80011 0.28178 0.44183 0.0
N165 N 0.82673 0.2448 0.46336 0.0
C166 C 0.88407 0.19969 0.41598 0.0
C167 C 0.85942 0.23801 0.39314 0.0
C168 C 0.81558 0.2791 0.40655 0.0
C169 C 0.86856 0.20433 0.45114 0.0
H170 H 0.7703 0.31464 0.45234 0.0
H171 H 0.89355 0.17669 0.4687 0.0
C172 C 0.78729 0.12758 0.52497 0.0
C173 C 0.55621 0.14135 0.59261 0.0
C174 C 0.53742 0.14186 0.62766 0.0
C175 C 0.56582 0.18147 0.64831 0.0
C176 C 0.61673 0.21829 0.63327 0.0
C177 C 0.63348 0.21649 0.59801 0.0
N178 N 0.6019 0.1789 0.57841 0.0
H179 H 0.53079 0.11235 0.57633 0.0
H180 H 0.66838 0.2464 0.58604 0.0
C181 C 0.67218 0.16994 0.44277 0.0
N182 N 0.64242 0.20753 0.4628 0.0
C183 C 0.60239 0.25451 0.41298 0.0
C184 C 0.62571 0.21441 0.39182 0.0
C185 C 0.66478 0.17271 0.407 0.0
C186 C 0.60954 0.24982 0.44856 0.0
H187 H 0.69428 0.13566 0.45459 0.0
H188 H 0.5818 0.27815 0.46443 0.0
C189 C 0.63148 0.31567 0.53009 0.0
C190 C 0.97758 0.31255 0.50768 0.0
N191 N 0.84797 0.25915 0.58144 0.0
C192 C 0.87893 0.3012 0.59637 0.0
C193 C 0.90671 0.29978 0.63036 0.0
C194 C 0.9029 0.25451 0.64891 0.0
C195 C 0.86693 0.21237 0.63339 0.0
C196 C 0.8398 0.21551 0.59943 0.0
C197 C 0.44483 0.15189 0.49563 0.0
O198 O 0.81758 0.17156 0.52463 0.0
O199 O 0.70983 0.12059 0.52285 0.0
O200 O 0.59344 0.2743 0.52664 0.0
O201 O 0.70979 0.31823 0.52929 0.0
O202 O 0.97395 0.27291 0.52579 0.0
O203 O 0.90963 0.33211 0.49842 0.0
O204 O 0.45482 0.17815 0.52229 0.0
O205 O 0.50947 0.13388 0.48229 0.0
H206 H 0.88546 0.33522 0.58131 0.0
H207 H 0.81424 0.18262 0.58739 0.0
H208 H 0.91741 0.16706 0.40703 0.0
H209 H 0.79688 0.31022 0.39031 0.0
H210 H 0.49883 0.11239 0.63828 0.0
H211 H 0.63951 0.24966 0.64815 0.0
H212 H 0.57318 0.28773 0.40236 0.0
H213 H 0.68294 0.14065 0.39178 0.0
H214 H 0.93444 0.33302 0.64143 0.0
H215 H 0.86155 0.17705 0.64713 0.0
C216 C 0.56099 0.17799 0.94794 0.0
C217 C 0.56911 0.15727 0.981 0.0
C218 C 0.62497 0.20698 0.93386 0.0
C219 C 0.69923 0.21216 0.95266 0.0
C220 C 0.71344 0.18139 0.982 0.0
C221 C 0.64678 0.15548 0.99661 0.0
C222 C 0.60794 0.23762 0.90191 0.0
C223 C 0.79496 0.18207 1.00103 0.0
C224 C 0.89174 0.28603 0.93858 0.0
C225 C 0.88557 0.31677 0.96762 0.0
C226 C 0.82557 0.25493 0.92923 0.0
C227 C 0.75155 0.25742 0.94836 0.0
C228 C 0.73965 0.29732 0.97188 0.0
C229 C 0.8081 0.32582 0.98207 0.0
C230 C 0.84047 0.21506 0.90261 0.0
C231 C 0.65886 0.30413 0.99071 0.0
H232 H 0.5008 0.17842 0.93565 0.0
H233 H 0.65308 0.13882 0.02199 0.0
H234 H 0.58009 0.274 0.90946 0.0
H235 H 0.66537 0.24565 0.88733 0.0
H236 H 0.56337 0.2181 0.88479 0.0
H237 H 0.8015 0.14896 0.01831 0.0
H238 H 0.84756 0.18258 0.98272 0.0
H239 H 0.79876 0.2164 0.01701 0.0
H240 H 0.95189 0.27966 0.92702 0.0
H241 H 0.8033 0.3502 1.00423 0.0
H242 H 0.8632 0.23309 0.87863 0.0
H243 H 0.78447 0.19282 0.89644 0.0
H244 H 0.88952 0.18914 0.91193 0.0
H245 H 0.65395 0.34226 1.00194 0.0
H246 H 0.65483 0.27636 0.01202 0.0
H247 H 0.60555 0.29789 0.97322 0.0
C248 C 0.15368 0.65188 0.99188 0.0
C249 C 0.07534 0.65779 0.97739 0.0
C250 C 0.22064 0.67956 0.97912 0.0
C251 C 0.20624 0.71614 0.95307 0.0
C252 C 0.1307 0.71574 0.93474 0.0
C253 C 0.06633 0.68506 0.94667 0.0
C254 C 0.30286 0.67556 0.99744 0.0
C255 C 0.1124 0.75288 0.90634 0.0
C256 C 0.31496 0.82237 0.99352 0.0
C257 C 0.39242 0.81678 0.9783 0.0
C258 C 0.24659 0.79643 0.98043 0.0
C259 C 0.25882 0.76174 0.9533 0.0
C260 C 0.33316 0.76318 0.93428 0.0
C261 C 0.39891 0.79233 0.94658 0.0
C262 C 0.16539 0.79967 0.99942 0.0
C263 C 0.34879 0.72822 0.90462 0.0
H264 H 0.16056 0.63027 0.01543 0.0
H265 H 0.00541 0.68897 0.93523 0.0
H266 H 0.35484 0.67949 0.97903 0.0
H267 H 0.30807 0.70611 0.01663 0.0
H268 H 0.30914 0.63912 0.01123 0.0
H269 H 0.07154 0.73573 0.88661 0.0
H270 H 0.07889 0.78545 0.9173 0.0
H271 H 0.16946 0.76692 0.89377 0.0
H272 H 0.30991 0.84196 0.0178 0.0
H273 H 0.45902 0.78898 0.9345 0.0
H274 H 0.16043 0.76776 0.01778 0.0
H275 H 0.11245 0.79752 0.98129 0.0
H276 H 0.16061 0.8351 0.01424 0.0
H277 H 0.37968 0.6938 0.91443 0.0
H278 H 0.39083 0.74596 0.8855 0.0
H279 H 0.29065 0.71695 0.8916 0.0
C280 C 0.66309 0.80299 0.48542 0.0
C281 C 0.58407 0.7954 0.47207 0.0
C282 C 0.72755 0.77049 0.47663 0.0
C283 C 0.70977 0.72769 0.45622 0.0
C284 C 0.63323 0.72438 0.43882 0.0
C285 C 0.57208 0.76009 0.44591 0.0
C286 C 0.81107 0.778 0.49332 0.0
C287 C 0.61202 0.68107 0.4155 0.0
C288 C 0.90328 0.65339 0.45429 0.0
C289 C 0.903 0.63837 0.4889 0.0
C290 C 0.83334 0.67658 0.44003 0.0
C291 C 0.76284 0.68288 0.46084 0.0
C292 C 0.75653 0.65614 0.49231 0.0
C293 C 0.82818 0.63528 0.50665 0.0
C294 C 0.83953 0.70124 0.40525 0.0
C295 C 0.67844 0.65711 0.51349 0.0
H296 H 0.67232 0.83069 0.50542 0.0
H297 H 0.51081 0.75519 0.43507 0.0
H298 H 0.81598 0.75359 0.51645 0.0
H299 H 0.8617 0.76778 0.47544 0.0
H300 H 0.82002 0.81752 0.50154 0.0
H301 H 0.54544 0.67114 0.41755 0.0
H302 H 0.62391 0.69264 0.38852 0.0
H303 H 0.64922 0.64698 0.42096 0.0
H304 H 0.96136 0.65491 0.44037 0.0
H305 H 0.82787 0.62265 0.53321 0.0
H306 H 0.85295 0.74176 0.40871 0.0
H307 H 0.78026 0.69802 0.39103 0.0
H308 H 0.88959 0.68421 0.38967 0.0
H309 H 0.67665 0.69223 0.52872 0.0
H310 H 0.67599 0.62481 0.53165 0.0
H311 H 0.6228 0.65622 0.49672 0.0
C312 C 0.12773 0.32505 0.50766 0.0
C313 C 0.05395 0.32264 0.48903 0.0
C314 C 0.19974 0.30358 0.49434 0.0
C315 C 0.19482 0.27708 0.46291 0.0
C316 C 0.12566 0.28394 0.44126 0.0
C317 C 0.05548 0.30777 0.45452 0.0
C318 C 0.27641 0.30186 0.5165 0.0
C319 C 0.1207 0.25925 0.40662 0.0
C320 C 0.38538 0.19955 0.44838 0.0
C321 C 0.37304 0.16348 0.47427 0.0
C322 C 0.32477 0.2358 0.4415 0.0
C323 C 0.24822 0.23239 0.45881 0.0
C324 C 0.23009 0.18929 0.47915 0.0
C325 C 0.29413 0.1562 0.48777 0.0
C326 C 0.34672 0.27962 0.41847 0.0
C327 C 0.14654 0.18179 0.49576 0.0
H328 H 0.12668 0.33755 0.53416 0.0
H329 H -0.00176 0.30672 0.43991 0.0
H330 H 0.33314 0.30186 0.50045 0.0
H331 H 0.27878 0.33433 0.5343 0.0
H332 H 0.27597 0.26692 0.53217 0.0
H333 H 0.10445 0.21909 0.41025 0.0
H334 H 0.07288 0.27732 0.39019 0.0
H335 H 0.18107 0.26105 0.39319 0.0
H336 H 0.4466 0.20438 0.43751 0.0
H337 H 0.28468 0.12801 0.5076 0.0
H338 H 0.30854 0.3134 0.42335 0.0
H339 H 0.33718 0.26833 0.39134 0.0
H340 H 0.41294 0.28994 0.42147 0.0
H341 H 0.14201 0.20571 0.51896 0.0
H342 H 0.13712 0.14212 0.50385 0.0
H343 H 0.09596 0.19266 0.47787 0.0
C344 C 0.62542 0.55262 0.00975 0.0
C345 C 0.60569 0.5945 0.02968 0.0
C346 C 0.5744 0.51009 0.00987 0.0
C347 C 0.50393 0.50896 0.03145 0.0
C348 C 0.48518 0.55077 0.05239 0.0
C349 C 0.53552 0.59358 0.0507 0.0
C350 C 0.59466 0.46699 0.98625 0.0
C351 C 0.41211 0.55028 0.07652 0.0
C352 C 0.32856 0.42059 0.00888 0.0
C353 C 0.34847 0.37834 0.02878 0.0
C354 C 0.37886 0.46343 0.00944 0.0
C355 C 0.44884 0.46445 0.03138 0.0
C356 C 0.46757 0.42236 0.05238 0.0
C357 C 0.41793 0.3793 0.05031 0.0
C358 C 0.35855 0.50693 0.98582 0.0
C359 C 0.54009 0.42272 0.07691 0.0
H360 H 0.6793 0.55383 0.99319 0.0
H361 H 0.5208 0.6261 0.06619 0.0
H362 H 0.60459 0.43221 1.00144 0.0
H363 H 0.54184 0.45996 0.96865 0.0
H364 H 0.65084 0.47428 0.97059 0.0
H365 H 0.4106 0.58394 0.09325 0.0
H366 H 0.35371 0.54892 0.06156 0.0
H367 H 0.414 0.51621 0.09305 0.0
H368 H 0.2752 0.41943 0.99196 0.0
H369 H 0.43277 0.34656 0.06582 0.0
H370 H 0.41165 0.51455 0.9685 0.0
H371 H 0.3478 0.54141 1.001 0.0
H372 H 0.30282 0.49967 0.96983 0.0
H373 H 0.5988 0.4243 0.06224 0.0
H374 H 0.54137 0.38889 0.09373 0.0
H375 H 0.53772 0.45662 0.09335 0.0
C376 C 0.61136 0.40103 0.5542 0.0
C377 C 0.58351 0.36222 0.533 0.0
C378 C 0.56789 0.44644 0.55606 0.0
C379 C 0.49716 0.45367 0.53509 0.0
C380 C 0.46888 0.41444 0.5136 0.0
C381 C 0.51153 0.36868 0.5134 0.0
C382 C 0.59778 0.48667 0.58032 0.0
C383 C 0.39521 0.42124 0.49006 0.0
C384 C 0.34104 0.55588 0.55408 0.0
C385 C 0.36921 0.59479 0.53278 0.0
C386 C 0.38371 0.51014 0.55592 0.0
C387 C 0.45401 0.50274 0.5349 0.0
C388 C 0.48243 0.54198 0.51322 0.0
C389 C 0.44055 0.58799 0.51298 0.0
C390 C 0.35373 0.46987 0.58037 0.0
C391 C 0.5557 0.53503 0.48965 0.0
H392 H 0.66674 0.39563 0.56956 0.0
H393 H 0.4904 0.33862 0.49687 0.0
H394 H 0.61976 0.51971 0.56548 0.0
H395 H 0.54612 0.49951 0.59685 0.0
H396 H 0.64911 0.47335 0.59707 0.0
H397 H 0.38516 0.38829 0.47315 0.0
H398 H 0.33846 0.42717 0.50547 0.0
H399 H 0.4039 0.45505 0.47367 0.0
H400 H 0.2862 0.56149 0.56961 0.0
H401 H 0.46199 0.6181 0.49637 0.0
H402 H 0.4053 0.45716 0.59717 0.0
H403 H 0.33212 0.43675 0.56572 0.0
H404 H 0.30217 0.4831 0.59686 0.0
H405 H 0.61262 0.5289 0.50504 0.0
H406 H 0.56577 0.568 0.47253 0.0
H407 H 0.54652 0.50128 0.47346 0.0
C408 C 0.1248 0.0583 0.05365 0.0
C409 C 0.09653 0.09926 0.03422 0.0
C410 C 0.07798 0.01406 0.05592 0.0
C411 C 0.00346 0.01009 0.03693 0.0
C412 C 0.97458 0.05152 0.01739 0.0
C413 C 0.02031 0.09614 0.01714 0.0
C414 C 0.1085 0.97151 0.0784 0.0
C415 C 0.89685 0.04832 0.99585 0.0
C416 C 0.9338 0.8799 0.01111 0.0
C417 C 0.86369 0.87341 0.03171 0.0
C418 C -0.02014 0.92437 0.0125 0.0
C419 C 0.95724 0.96205 0.03625 0.0
C420 C 0.88848 0.95462 0.05821 0.0
C421 C 0.8412 0.91072 0.05509 0.0
C422 C 0.05084 0.93165 0.98774 0.0
C423 C 0.86491 -0.00707 0.08493 0.0
H424 H 0.18316 0.06104 0.0673 0.0
H425 H -0.00226 0.12794 1.00243 0.0
H426 H 0.05815 0.9582 0.09554 0.0
H427 H 0.12725 0.93936 0.0622 0.0
H428 H 0.16226 0.98272 0.09446 0.0
H429 H 0.88845 0.08182 0.97907 0.0
H430 H 0.89855 0.01444 0.97937 0.0
H431 H 0.84204 0.04494 0.01278 0.0
H432 H 0.95099 0.8509 0.99304 0.0
H433 H 0.78747 0.90513 0.07133 0.0
H434 H 0.10954 0.93663 1.0021 0.0
H435 H 0.04076 0.96621 0.97222 0.0
H436 H 0.05814 0.89941 0.96999 0.0
H437 H 0.91991 0.00355 0.10041 0.0
H438 H 0.81605 0.97879 0.10255 0.0
H439 H 0.84184 0.02751 0.07217 0.0
C440 C 0.91692 0.08795 0.54637 0.0
C441 C 0.84353 0.08433 0.52733 0.0
C442 C 0.97174 0.04731 0.54857 0.0
C443 C 0.95397 0.00283 0.53021 0.0
C444 C 0.88028 -0.00074 0.5106 0.0
C445 C 0.82511 0.03986 0.50989 0.0
C446 C 0.04837 0.05193 0.57061 0.0
C447 C 0.86055 0.95301 0.48981 0.0
C448 C 0.13301 0.91712 0.50794 0.0
C449 C 0.11919 0.87671 0.53034 0.0
C450 C 0.07959 0.95856 0.50761 0.0
C451 C 0.01283 0.96015 0.53112 0.0
C452 C 0.00077 0.92017 0.55473 0.0
C453 C 0.05323 0.87834 0.55355 0.0
C454 C 0.09276 -0.00029 0.4813 0.0
C455 C 0.93215 0.92139 0.58101 0.0
H456 H 0.93086 0.12236 0.55998 0.0
H457 H 0.76871 0.03741 0.49486 0.0
H458 H 0.05211 0.0199 0.58892 0.0
H459 H 0.10438 0.05059 0.55423 0.0
H460 H 0.04948 0.08747 0.58542 0.0
H461 H 0.80221 0.95704 0.47491 0.0
H462 H 0.9118 0.94518 0.47166 0.0
H463 H 0.85473 0.91989 0.50702 0.0
H464 H 0.18359 0.91531 0.4897 0.0
H465 H 0.04308 0.84697 0.57093 0.0
H466 H 0.10176 0.03627 0.49428 0.0
H467 H 0.03702 0.00329 0.46476 0.0
H468 H 0.14718 -0.00753 0.46464 0.0
H469 H 0.93433 0.95711 0.59555 0.0
H470 H 0.93609 0.88957 0.59952 0.0
H471 H 0.87127 0.91973 0.56788 0.0
C472 C 0.64897 0.19206 0.32974 0.0
C473 C 0.59882 0.21319 0.35524 0.0
C474 C 0.62133 0.18868 0.29554 0.0
C475 C 0.54112 0.20598 0.28685 0.0
C476 C 0.49025 0.22727 0.31246 0.0
C477 C 0.51961 0.23052 0.34626 0.0
C478 C 0.67747 0.16598 0.26889 0.0
C479 C 0.40449 0.24641 0.30417 0.0
C480 C 0.48529 0.23931 0.19471 0.0
C481 C 0.44064 0.19682 0.18444 0.0
C482 C 0.51965 0.24247 0.22773 0.0
C483 C 0.50952 0.20195 0.25105 0.0
C484 C 0.46518 0.15866 0.24071 0.0
C485 C 0.43147 0.15654 0.20744 0.0
C486 C 0.56817 0.28887 0.23712 0.0
C487 C 0.45201 0.11502 0.26501 0.0
H488 H 0.70996 0.17826 0.33648 0.0
H489 H 0.4793 0.24551 0.36589 0.0
H490 H 0.6508 0.13005 0.25978 0.0
H491 H 0.68251 0.19128 0.24625 0.0
H492 H 0.74043 0.15858 0.27922 0.0
H493 H 0.37277 0.26207 0.32704 0.0
H494 H 0.40815 0.27614 0.28413 0.0
H495 H 0.36607 0.21555 0.29364 0.0
H496 H 0.49435 0.26999 0.17668 0.0
H497 H 0.39677 0.1237 0.19958 0.0
H498 H 0.635 0.28083 0.23398 0.0
H499 H 0.55761 0.30002 0.2642 0.0
H500 H 0.5524 0.32116 0.22014 0.0
H501 H 0.51239 0.10103 0.27468 0.0
H502 H 0.41855 0.08346 0.25263 0.0
H503 H 0.41592 0.12755 0.28764 0.0
C504 C 0.47178 0.72871 0.19343 0.0
C505 C 0.51545 0.77185 0.18342 0.0
C506 C 0.43705 0.72457 0.22632 0.0
C507 C 0.44624 0.76456 0.24984 0.0
C508 C 0.48947 0.80851 0.23976 0.0
C509 C 0.52327 0.81172 0.20657 0.0
C510 C 0.39004 0.67752 0.23576 0.0
C511 C 0.50157 0.85166 0.26428 0.0
C512 C 0.30759 0.77113 0.32872 0.0
C513 C 0.3585 0.74969 0.35407 0.0
C514 C 0.33464 0.77559 0.29451 0.0
C515 C 0.4151 0.75914 0.28564 0.0
C516 C 0.46678 0.7376 0.31112 0.0
C517 C 0.43789 0.73314 0.34492 0.0
C518 C 0.27761 0.79857 0.26804 0.0
C519 C 0.55316 0.71981 0.30275 0.0
H520 H 0.46398 0.69827 0.1753 0.0
H521 H 0.55719 0.84505 0.19892 0.0
H522 H 0.41217 0.66211 0.26069 0.0
H523 H 0.32364 0.6868 0.23875 0.0
H524 H 0.39581 0.64793 0.21589 0.0
H525 H 0.53389 0.88392 0.25205 0.0
H526 H 0.4409 0.8647 0.27406 0.0
H527 H 0.53834 0.83895 0.28682 0.0
H528 H 0.24651 0.78439 0.33562 0.0
H529 H 0.47873 0.71795 0.36447 0.0
H530 H 0.27177 0.77348 0.2455 0.0
H531 H 0.30396 0.83458 0.25869 0.0
H532 H 0.21499 0.80589 0.2786 0.0
H533 H 0.55074 0.69118 0.28215 0.0
H534 H 0.58512 0.70327 0.32543 0.0
H535 H 0.59072 0.75167 0.29296 0.0
C536 C 0.52194 0.78859 0.69007 0.0
C537 C 0.43981 0.77499 0.68271 0.0
C538 C 0.55412 0.78476 0.72355 0.0
C539 C 0.50309 0.76689 0.7505 0.0
C540 C 0.42034 0.75276 0.74329 0.0
C541 C 0.38969 0.75701 0.70953 0.0
C542 C 0.64249 0.80054 0.7301 0.0
C543 C 0.36389 0.73356 0.77133 0.0
C544 C 0.60221 0.71819 0.83319 0.0
C545 C 0.59283 0.75945 0.85504 0.0
C546 C 0.57463 0.7203 0.79889 0.0
C547 C 0.53556 0.76444 0.7864 0.0
C548 C 0.52715 0.80641 0.8083 0.0
C549 C 0.5561 0.80344 0.84228 0.0
C550 C 0.58614 0.67507 0.77619 0.0
C551 C 0.48624 0.8542 0.79601 0.0
H552 H 0.56176 0.80164 0.6695 0.0
H553 H 0.32603 0.74682 0.70422 0.0
H554 H 0.64296 0.83656 0.74429 0.0
H555 H 0.67488 0.77245 0.74636 0.0
H556 H 0.67784 0.8057 0.70586 0.0
H557 H 0.30203 0.72265 0.76134 0.0
H558 H 0.39222 0.70052 0.78423 0.0
H559 H 0.35556 0.76291 0.79116 0.0
H560 H 0.63105 0.68425 0.84299 0.0
H561 H 0.54772 0.83516 0.85927 0.0
H562 H 0.61532 0.68621 0.7515 0.0
H563 H 0.52486 0.65861 0.77002 0.0
H564 H 0.62496 0.64573 0.78863 0.0
H565 H 0.51904 0.8691 0.7731 0.0
H566 H 0.48558 0.88368 0.81611 0.0
H567 H 0.42153 0.84633 0.78814 0.0
C568 C 0.38852 0.2527 0.83462 0.0
C569 C 0.38598 0.2105 0.85635 0.0
C570 C 0.41943 0.24927 0.80094 0.0
C571 C 0.44916 0.20263 0.78873 0.0
C572 C 0.44738 0.16004 0.81061 0.0
C573 C 0.41592 0.16449 0.84407 0.0
C574 C 0.42025 0.29553 0.77836 0.0
C575 C 0.47908 0.10973 0.79873 0.0
C576 C 0.45342 0.17846 0.69252 0.0
C577 C 0.53706 0.18639 0.6845 0.0
C578 C 0.42403 0.1842 0.72621 0.0
C579 C 0.47966 0.19783 0.75272 0.0
C580 C 0.56425 0.2059 0.74486 0.0
C581 C 0.59186 0.20035 0.71079 0.0
C582 C 0.33336 0.17545 0.73342 0.0
C583 C 0.62567 0.22002 0.77248 0.0
H584 H 0.3656 0.28838 0.84387 0.0
H585 H 0.41651 0.13197 0.86093 0.0
H586 H 0.48486 0.30512 0.77137 0.0
H587 H 0.38637 0.28816 0.75406 0.0
H588 H 0.39181 0.32845 0.79116 0.0
H589 H 0.47506 0.08051 0.81915 0.0
H590 H 0.44291 0.09695 0.77614 0.0
H591 H 0.54451 0.11313 0.79047 0.0
H592 H 0.41037 0.16856 0.67226 0.0
H593 H 0.6566 0.20632 0.70479 0.0
H594 H 0.3072 0.20745 0.7479 0.0
H595 H 0.32603 0.14146 0.74973 0.0
H596 H 0.2967 0.17028 0.70951 0.0
H597 H 0.60618 0.25534 0.78507 0.0
H598 H 0.68919 0.22516 0.76215 0.0
H599 H 0.62736 0.19045 0.79267 0.0
C600 C 0.12436 0.70453 0.33295 0.0
C601 C 0.07479 0.72632 0.35847 0.0
C602 C 0.09757 0.70204 0.29858 0.0
C603 C 0.0183 0.72052 0.28956 0.0
C604 C 0.96879 0.74359 0.31492 0.0
C605 C -0.00191 0.74687 0.34882 0.0
C606 C 0.1536 0.67893 0.27205 0.0
C607 C 0.88408 0.76408 0.30635 0.0
C608 C 0.96489 0.74787 0.19592 0.0
C609 C 0.92319 0.70393 0.18636 0.0
C610 C -0.0034 0.75381 0.22928 0.0
C611 C -0.01393 0.71484 0.25382 0.0
C612 C 0.94316 0.67055 0.24437 0.0
C613 C 0.91293 0.66543 0.21065 0.0
C614 C 0.04384 0.80118 0.23744 0.0
C615 C 0.92861 0.62872 0.27 0.0
H616 H 0.18449 0.6895 0.33976 0.0
H617 H 0.95906 0.76403 0.36798 0.0
H618 H 0.12566 0.64369 0.26236 0.0
H619 H 0.16056 0.70473 0.24975 0.0
H620 H 0.21586 0.67024 0.28265 0.0
H621 H 0.85261 0.78019 0.32914 0.0
H622 H 0.88945 0.79371 0.28632 0.0
H623 H 0.84459 0.7338 0.29569 0.0
H624 H 0.97442 0.77733 0.17698 0.0
H625 H 0.88041 0.63151 0.20333 0.0
H626 H 0.11035 0.79462 0.23218 0.0
H627 H 0.03749 0.81229 0.26475 0.0
H628 H 0.02325 0.83297 0.22093 0.0
H629 H -0.01131 0.61405 0.27952 0.0
H630 H 0.89283 0.59716 0.2588 0.0
H631 H 0.89444 0.64334 0.29257 0.0
C632 C 0.9626 0.21823 0.34676 0.0
C633 C 0.88491 0.23728 0.35622 0.0
C634 C -0.00898 0.22143 0.31276 0.0
C635 C 0.93948 0.24265 0.28712 0.0
C636 C 0.85965 0.26004 0.29606 0.0
C637 C 0.83384 0.25783 0.33052 0.0
C638 C 0.07667 0.20255 0.30434 0.0
C639 C 0.80178 0.28157 0.26934 0.0
C640 C 0.03407 0.2956 0.20502 0.0
C641 C 0.02306 0.25584 0.18188 0.0
C642 C 0.00857 0.2914 0.23947 0.0
C643 C 0.96945 0.24681 0.25099 0.0
C644 C 0.95933 0.20626 0.22798 0.0
C645 C -0.01315 0.21113 0.19394 0.0
C646 C 0.02308 0.33486 0.26351 0.0
C647 C 0.91639 0.15825 0.23852 0.0
H648 H 0.00277 0.20208 0.36611 0.0
H649 H 0.77319 0.27194 0.33725 0.0
H650 H 0.0724 0.17141 0.28558 0.0
H651 H 0.11348 0.23297 0.29216 0.0
H652 H 0.11037 0.18888 0.32749 0.0
H653 H 0.73891 0.28825 0.27985 0.0
H654 H 0.82666 0.31775 0.25964 0.0
H655 H 0.79694 0.25586 0.24707 0.0
H656 H 0.06101 0.33055 0.19613 0.0
H657 H 0.97945 0.17961 0.17671 0.0
H658 H 0.05773 0.32192 0.28657 0.0
H659 H 0.96296 0.34988 0.27251 0.0
H660 H 0.05828 0.36583 0.2511 0.0
H661 H 0.92771 0.14844 0.26587 0.0
H662 H 0.93617 0.12619 0.22233 0.0
H663 H 0.84882 0.16321 0.23491 0.0
C664 C 0.15099 0.25415 0.82777 0.0
C665 C 0.1027 0.23068 0.85317 0.0
C666 C 0.12348 0.25728 0.79356 0.0
C667 C 0.0463 0.23599 0.7845 0.0
C668 C -0.00087 0.21023 0.80952 0.0
C669 C 0.02783 0.20794 0.84343 0.0
C670 C 0.17522 0.28524 0.76749 0.0
C671 C 0.91651 0.18684 0.80083 0.0
C672 C 0.92586 0.28723 0.70832 0.0
C673 C 0.94044 0.25037 0.68352 0.0
C674 C 0.96131 0.28349 0.74117 0.0
C675 C 0.01289 0.24208 0.74919 0.0
C676 C 0.02904 0.20524 0.72403 0.0
C677 C -0.00771 0.20973 0.6915 0.0
C678 C 0.94237 0.32334 0.76748 0.0
C679 C 0.08395 0.16069 0.73165 0.0
H680 H 0.20953 0.27108 0.83469 0.0
H681 H -0.0107 0.18996 0.86253 0.0
H682 H 0.14335 0.32054 0.76003 0.0
H683 H 0.23731 0.2949 0.77772 0.0
H684 H 0.1827 0.26268 0.74381 0.0
H685 H 0.88991 0.1655 0.8228 0.0
H686 H 0.87199 0.2166 0.79321 0.0
H687 H 0.92294 0.16112 0.77866 0.0
H688 H 0.88551 0.31854 0.7022 0.0
H689 H 0.00473 0.1816 0.67214 0.0
H690 H 0.00069 0.33951 0.77765 0.0
H691 H 0.9089 0.30634 0.78954 0.0
H692 H 0.90398 0.35423 0.75669 0.0
H693 H 0.14361 0.17327 0.74282 0.0
H694 H 0.09685 0.13813 0.70832 0.0
H695 H 0.05369 0.1361 0.75101 0.0
C696 C 0.93415 0.69032 0.69186 0.0
C697 C 0.01653 0.705 0.68649 0.0
C698 C 0.89773 0.69348 0.72446 0.0
C699 C 0.94506 0.7114 0.75246 0.0
C700 C 0.02798 0.72688 0.74717 0.0
C701 C 0.06268 0.72362 0.71419 0.0
C702 C 0.80916 0.67667 0.72902 0.0
C703 C 0.08049 0.746 0.77648 0.0
C704 C 0.84001 0.75592 0.83418 0.0
C705 C 0.85056 0.71414 0.85576 0.0
C706 C 0.86822 0.75512 0.80005 0.0
C707 C 0.90912 0.71184 0.78761 0.0
C708 C 0.91766 0.6691 0.80908 0.0
C709 C 0.88798 0.67073 0.84287 0.0
C710 C 0.85658 0.80109 0.77773 0.0
C711 C 0.96065 0.62222 0.79675 0.0
H712 H 0.89774 0.67669 0.6704 0.0
H713 H 0.12649 0.73476 0.71019 0.0
H714 H 0.80806 0.64007 0.74276 0.0
H715 H 0.77429 0.70382 0.7449 0.0
H716 H 0.77671 0.67217 0.70402 0.0
H717 H 0.14287 0.75817 0.76785 0.0
H718 H 0.04942 0.77815 0.78906 0.0
H719 H 0.08794 0.71609 0.79621 0.0
H720 H 0.81072 0.7894 0.84418 0.0
H721 H 0.89721 0.63866 0.85972 0.0
H722 H 0.83329 0.79052 0.75191 0.0
H723 H 0.91712 0.82 0.77409 0.0
H724 H 0.81281 0.82831 0.78933 0.0
H725 H 0.93066 0.60834 0.77295 0.0
H726 H 0.95978 0.59168 0.81631 0.0
H727 H 0.02599 0.63094 0.79035 0.0
loop_
_geom_bond_atom_site_label_1
_geom_bond_atom_site_label_2
_geom_bond_distance
_geom_bond_site_symmetry_2
_ccdc_geom_bond_type
Cd0 N3 2.334 . S
Cd0 N29 2.304 1_554 S
Cd0 O36 2.268 . S
Cd0 O39 2.273 . S
Cd0 O40 2.417 1_455 S
Cd0 O41 2.330 . S
Cd1 N16 2.304 1_554 S
Cd1 N20 2.334 . S
Cd1 O37 2.273 . S
Cd1 O38 2.268 . S
Cd1 O42 2.417 . S
Cd1 O43 2.330 . S
C2 N3 1.332 . S
C2 C6 1.381 . S
C2 H8 0.931 . S
N3 Cd0 2.334 . S
N3 C2 1.332 . S
N3 C7 1.328 . S
C4 C5 1.396 . S
C4 C7 1.378 . S
C4 H46 0.931 . S
C5 C4 1.396 . S
C5 C6 1.382 . S
C6 C2 1.381 . S
C6 C5 1.382 . S
C6 H47 0.930 . S
C7 N3 1.328 . S
C7 C4 1.378 . S
C7 H9 0.930 . S
H8 C2 0.931 . S
H9 C7 0.930 . S
C10 O36 1.238 . S
C10 O37 1.253 . S
C11 C12 1.379 . S
C11 N16 1.337 . S
C11 H17 0.929 . S
C12 C11 1.379 . S
C12 C13 1.380 . S
C12 H48 0.929 . S
C13 C12 1.380 . S
C13 C14 1.399 . S
C14 C13 1.399 . S
C14 C15 1.376 . S
C14 H49 0.931 . S
C15 C14 1.376 . S
C15 N16 1.338 . S
C15 H18 0.930 . S
N16 Cd1 2.304 1_556 S
N16 C11 1.337 . S
N16 C15 1.338 . S
H17 C11 0.929 . S
H18 C15 0.930 . S
C19 N20 1.332 . S
C19 C23 1.381 . S
C19 H25 0.931 . S
N20 Cd1 2.334 . S
N20 C19 1.332 . S
N20 C24 1.328 . S
C21 C22 1.396 . S
C21 C24 1.378 . S
C21 H50 0.931 . S
C22 C21 1.396 . S
C22 C23 1.382 . S
C23 C19 1.381 . S
C23 C22 1.382 . S
C23 H51 0.930 . S
C24 N20 1.328 . S
C24 C21 1.378 . S
C24 H26 0.930 . S
H25 C19 0.931 . S
H26 C24 0.930 . S
C27 O38 1.238 . S
C27 O39 1.253 . S
C28 O40 1.239 . S
C28 O41 1.230 1_655 S
N29 Cd0 2.304 1_556 S
N29 C30 1.337 . S
N29 C34 1.338 . S
C30 N29 1.337 . S
C30 C31 1.379 . S
C30 H44 0.929 . S
C31 C30 1.379 . S
C31 C32 1.380 . S
C31 H52 0.929 . S
C32 C31 1.380 . S
C32 C33 1.399 . S
C33 C32 1.399 . S
C33 C34 1.376 . S
C33 H53 0.931 . S
C34 N29 1.338 . S
C34 C33 1.376 . S
C34 H45 0.930 . S
C35 O42 1.239 . S
C35 O43 1.230 . S
O36 Cd0 2.268 . S
O36 C10 1.238 . S
O37 Cd1 2.273 . S
O37 C10 1.253 . S
O38 Cd1 2.268 . S
O38 C27 1.238 . S
O39 Cd0 2.273 . S
O39 C27 1.253 . S
O40 Cd0 2.417 1_655 S
O40 C28 1.239 . S
O41 Cd0 2.330 . S
O41 C28 1.230 1_455 S
O42 Cd1 2.417 . S
O42 C35 1.239 . S
O43 Cd1 2.330 . S
O43 C35 1.230 . S
H44 C30 0.929 . S
H45 C34 0.930 . S
H46 C4 0.931 . S
H47 C6 0.930 . S
H48 C12 0.929 . S
H49 C14 0.931 . S
H50 C21 0.931 . S
H51 C23 0.930 . S
H52 C31 0.929 . S
H53 C33 0.931 . S
Cd54 N57 2.334 . S
Cd54 N83 2.304 1_554 S
Cd54 O90 2.268 . S
Cd54 O93 2.273 . S
Cd54 O94 2.417 . S
Cd54 O95 2.330 . S
Cd55 N70 2.304 1_554 S
Cd55 N74 2.334 . S
Cd55 O91 2.273 . S
Cd55 O92 2.268 . S
Cd55 O96 2.417 1_655 S
Cd55 O97 2.330 . S
C56 N57 1.332 . S
C56 C60 1.381 . S
C56 H62 0.931 . S
N57 Cd54 2.334 . S
N57 C56 1.332 . S
N57 C61 1.328 . S
C58 C59 1.396 . S
C58 C61 1.378 . S
C58 H100 0.931 . S
C59 C58 1.396 . S
C59 C60 1.382 . S
C60 C56 1.381 . S
C60 C59 1.382 . S
C60 H101 0.930 . S
C61 N57 1.328 . S
C61 C58 1.378 . S
C61 H63 0.930 . S
H62 C56 0.931 . S
H63 C61 0.930 . S
C64 O90 1.238 . S
C64 O91 1.253 . S
C65 C66 1.379 . S
C65 N70 1.337 . S
C65 H71 0.929 . S
C66 C65 1.379 . S
C66 C67 1.380 . S
C66 H102 0.929 . S
C67 C66 1.380 . S
C67 C68 1.399 . S
C68 C67 1.399 . S
C68 C69 1.376 . S
C68 H103 0.931 . S
C69 C68 1.376 . S
C69 N70 1.338 . S
C69 H72 0.930 . S
N70 Cd55 2.304 1_556 S
N70 C65 1.337 . S
N70 C69 1.338 . S
H71 C65 0.929 . S
H72 C69 0.930 . S
C73 N74 1.332 . S
C73 C77 1.381 . S
C73 H79 0.931 . S
N74 Cd55 2.334 . S
N74 C73 1.332 . S
N74 C78 1.328 . S
C75 C76 1.396 . S
C75 C78 1.378 . S
C75 H104 0.931 . S
C76 C75 1.396 . S
C76 C77 1.382 . S
C77 C73 1.381 . S
C77 C76 1.382 . S
C77 H105 0.930 . S
C78 N74 1.328 . S
C78 C75 1.378 . S
C78 H80 0.930 . S
H79 C73 0.931 . S
H80 C78 0.930 . S
C81 O92 1.238 . S
C81 O93 1.253 . S
C82 O94 1.239 . S
C82 O95 1.230 . S
N83 Cd54 2.304 1_556 S
N83 C84 1.337 . S
N83 C88 1.338 . S
C84 N83 1.337 . S
C84 C85 1.379 . S
C84 H98 0.929 . S
C85 C84 1.379 . S
C85 C86 1.380 . S
C85 H106 0.929 . S
C86 C85 1.380 . S
C86 C87 1.399 . S
C87 C86 1.399 . S
C87 C88 1.376 . S
C87 H107 0.931 . S
C88 N83 1.338 . S
C88 C87 1.376 . S
C88 H99 0.930 . S
C89 O96 1.239 . S
C89 O97 1.230 1_455 S
O90 Cd54 2.268 . S
O90 C64 1.238 . S
O91 Cd55 2.273 . S
O91 C64 1.253 . S
O92 Cd55 2.268 . S
O92 C81 1.238 . S
O93 Cd54 2.273 . S
O93 C81 1.253 . S
O94 Cd54 2.417 . S
O94 C82 1.239 . S
O95 Cd54 2.330 . S
O95 C82 1.230 . S
O96 Cd55 2.417 1_455 S
O96 C89 1.239 . S
O97 Cd55 2.330 . S
O97 C89 1.230 1_655 S
H98 C84 0.929 . S
H99 C88 0.930 . S
H100 C58 0.931 . S
H101 C60 0.930 . S
H102 C66 0.929 . S
H103 C68 0.931 . S
H104 C75 0.931 . S
H105 C77 0.930 . S
H106 C85 0.929 . S
H107 C87 0.931 . S
Cd108 N111 2.334 . S
Cd108 N137 2.304 . S
Cd108 O144 2.268 . S
Cd108 O147 2.273 . S
Cd108 O148 2.417 . S
Cd108 O149 2.330 . S
Cd109 N124 2.304 . S
Cd109 N128 2.334 . S
Cd109 O145 2.273 . S
Cd109 O146 2.268 . S
Cd109 O150 2.417 1_455 S
Cd109 O151 2.330 . S
C110 N111 1.332 . S
C110 C114 1.381 . S
C110 H116 0.931 . S
N111 Cd108 2.334 . S
N111 C110 1.332 . S
N111 C115 1.328 . S
C112 C113 1.396 . S
C112 C115 1.378 . S
C112 H154 0.931 . S
C113 C112 1.396 . S
C113 C114 1.382 . S
C114 C110 1.381 . S
C114 C113 1.382 . S
C114 H155 0.930 . S
C115 N111 1.328 . S
C115 C112 1.378 . S
C115 H117 0.930 . S
H116 C110 0.931 . S
H117 C115 0.930 . S
C118 O144 1.238 . S
C118 O145 1.253 . S
C119 C120 1.379 . S
C119 N124 1.337 . S
C119 H125 0.929 . S
C120 C119 1.379 . S
C120 C121 1.380 . S
C120 H156 0.929 . S
C121 C120 1.380 . S
C121 C122 1.399 . S
C122 C121 1.399 . S
C122 C123 1.376 . S
C122 H157 0.931 . S
C123 C122 1.376 . S
C123 N124 1.338 . S
C123 H126 0.930 . S
N124 Cd109 2.304 . S
N124 C119 1.337 . S
N124 C123 1.338 . S
H125 C119 0.929 . S
H126 C123 0.930 . S
C127 N128 1.332 . S
C127 C131 1.381 . S
C127 H133 0.931 . S
N128 Cd109 2.334 . S
N128 C127 1.332 . S
N128 C132 1.328 . S
C129 C130 1.396 . S
C129 C132 1.378 . S
C129 H158 0.931 . S
C130 C129 1.396 . S
C130 C131 1.382 . S
C131 C127 1.381 . S
C131 C130 1.382 . S
C131 H159 0.930 . S
C132 N128 1.328 . S
C132 C129 1.378 . S
C132 H134 0.930 . S
H133 C127 0.931 . S
H134 C132 0.930 . S
C135 O146 1.238 . S
C135 O147 1.253 . S
C136 O148 1.239 . S
C136 O149 1.230 . S
N137 Cd108 2.304 . S
N137 C138 1.337 . S
N137 C142 1.338 . S
C138 N137 1.337 . S
C138 C139 1.379 . S
C138 H152 0.929 . S
C139 C138 1.379 . S
C139 C140 1.380 . S
C139 H160 0.929 . S
C140 C139 1.380 . S
C140 C141 1.399 . S
C141 C140 1.399 . S
C141 C142 1.376 . S
C141 H161 0.931 . S
C142 N137 1.338 . S
C142 C141 1.376 . S
C142 H153 0.930 . S
C143 O150 1.239 . S
C143 O151 1.230 1_655 S
O144 Cd108 2.268 . S
O144 C118 1.238 . S
O145 Cd109 2.273 . S
O145 C118 1.253 . S
O146 Cd109 2.268 . S
O146 C135 1.238 . S
O147 Cd108 2.273 . S
O147 C135 1.253 . S
O148 Cd108 2.417 . S
O148 C136 1.239 . S
O149 Cd108 2.330 . S
O149 C136 1.230 . S
O150 Cd109 2.417 1_655 S
O150 C143 1.239 . S
O151 Cd109 2.330 . S
O151 C143 1.230 1_455 S
H152 C138 0.929 . S
H153 C142 0.930 . S
H154 C112 0.931 . S
H155 C114 0.930 . S
H156 C120 0.929 . S
H157 C122 0.931 . S
H158 C129 0.931 . S
H159 C131 0.930 . S
H160 C139 0.929 . S
H161 C141 0.931 . S
Cd162 N165 2.334 . S
Cd162 N191 2.304 . S
Cd162 O198 2.268 . S
Cd162 O201 2.273 . S
Cd162 O202 2.417 1_655 S
Cd162 O203 2.330 . S
Cd163 N178 2.304 . S
Cd163 N182 2.334 . S
Cd163 O199 2.273 . S
Cd163 O200 2.268 . S
Cd163 O204 2.417 . S
Cd163 O205 2.330 . S
C164 N165 1.332 . S
C164 C168 1.381 . S
C164 H170 0.931 . S
N165 Cd162 2.334 . S
N165 C164 1.332 . S
N165 C169 1.328 . S
C166 C167 1.396 . S
C166 C169 1.378 . S
C166 H208 0.931 . S
C167 C166 1.396 . S
C167 C168 1.382 . S
C168 C164 1.381 . S
C168 C167 1.382 . S
C168 H209 0.930 . S
C169 N165 1.328 . S
C169 C166 1.378 . S
C169 H171 0.930 . S
H170 C164 0.931 . S
H171 C169 0.930 . S
C172 O198 1.238 . S
C172 O199 1.253 . S
C173 C174 1.379 . S
C173 N178 1.337 . S
C173 H179 0.929 . S
C174 C173 1.379 . S
C174 C175 1.380 . S
C174 H210 0.929 . S
C175 C174 1.380 . S
C175 C176 1.399 . S
C176 C175 1.399 . S
C176 C177 1.376 . S
C176 H211 0.931 . S
C177 C176 1.376 . S
C177 N178 1.338 . S
C177 H180 0.930 . S
N178 Cd163 2.304 . S
N178 C173 1.337 . S
N178 C177 1.338 . S
H179 C173 0.929 . S
H180 C177 0.930 . S
C181 N182 1.332 . S
C181 C185 1.381 . S
C181 H187 0.931 . S
N182 Cd163 2.334 . S
N182 C181 1.332 . S
N182 C186 1.328 . S
C183 C184 1.396 . S
C183 C186 1.378 . S
C183 H212 0.931 . S
C184 C183 1.396 . S
C184 C185 1.382 . S
C185 C181 1.381 . S
C185 C184 1.382 . S
C185 H213 0.930 . S
C186 N182 1.328 . S
C186 C183 1.378 . S
C186 H188 0.930 . S
H187 C181 0.931 . S
H188 C186 0.930 . S
C189 O200 1.238 . S
C189 O201 1.253 . S
C190 O202 1.239 . S
C190 O203 1.230 1_455 S
N191 Cd162 2.304 . S
N191 C192 1.337 . S
N191 C196 1.338 . S
C192 N191 1.337 . S
C192 C193 1.379 . S
C192 H206 0.929 . S
C193 C192 1.379 . S
C193 C194 1.380 . S
C193 H214 0.929 . S
C194 C193 1.380 . S
C194 C195 1.399 . S
C195 C194 1.399 . S
C195 C196 1.376 . S
C195 H215 0.931 . S
C196 N191 1.338 . S
C196 C195 1.376 . S
C196 H207 0.930 . S
C197 O204 1.239 . S
C197 O205 1.230 . S
O198 Cd162 2.268 . S
O198 C172 1.238 . S
O199 Cd163 2.273 . S
O199 C172 1.253 . S
O200 Cd163 2.268 . S
O200 C189 1.238 . S
O201 Cd162 2.273 . S
O201 C189 1.253 . S
O202 Cd162 2.417 1_455 S
O202 C190 1.239 . S
O203 Cd162 2.330 . S
O203 C190 1.230 1_655 S
O204 Cd163 2.417 . S
O204 C197 1.239 . S
O205 Cd163 2.330 . S
O205 C197 1.230 . S
H206 C192 0.929 . S
H207 C196 0.930 . S
H208 C166 0.931 . S
H209 C168 0.930 . S
H210 C174 0.929 . S
H211 C176 0.931 . S
H212 C183 0.931 . S
H213 C185 0.930 . S
H214 C193 0.929 . S
H215 C195 0.931 . S
C216 C217 1.391 1_556 S
C216 C218 1.394 . S
C216 H232 0.931 . S
C217 C216 1.391 1_554 S
C217 C221 1.376 . S
C218 C216 1.394 . S
C218 C219 1.369 1_556 S
C218 C222 1.531 . S
C219 C218 1.369 1_554 S
C219 C220 1.410 . S
C219 C227 1.503 . S
C220 C219 1.410 . S
C220 C221 1.392 . S
C220 C223 1.511 . S
C221 C217 1.376 . S
C221 C220 1.392 . S
C221 H233 0.929 . S
C222 C218 1.531 . S
C222 H234 0.960 . S
C222 H235 0.962 . S
C222 H236 0.960 . S
C223 C220 1.511 . S
C223 H237 0.961 . S
C223 H238 0.961 . S
C223 H239 0.961 . S
C224 C225 1.370 1_556 S
C224 C226 1.363 . S
C224 H240 0.931 . S
C225 C224 1.370 1_554 S
C225 C229 1.408 . S
C226 C224 1.363 . S
C226 C227 1.370 1_556 S
C226 C230 1.524 . S
C227 C219 1.503 . S
C227 C226 1.370 1_554 S
C227 C228 1.403 . S
C228 C227 1.403 . S
C228 C229 1.404 . S
C228 C231 1.539 . S
C229 C225 1.408 . S
C229 C228 1.404 . S
C229 H241 0.930 . S
C230 C226 1.524 . S
C230 H242 0.956 . S
C230 H243 0.961 . S
C230 H244 0.961 . S
C231 C228 1.539 . S
C231 H245 0.958 . S
C231 H246 0.961 . S
C231 H247 0.960 . S
H232 C216 0.931 . S
H233 C221 0.929 . S
H234 C222 0.960 . S
H235 C222 0.962 . S
H236 C222 0.960 . S
H237 C223 0.961 . S
H238 C223 0.961 . S
H239 C223 0.961 . S
H240 C224 0.931 . S
H241 C229 0.930 . S
H242 C230 0.956 . S
H243 C230 0.961 . S
H244 C230 0.961 . S
H245 C231 0.958 . S
H246 C231 0.961 . S
H247 C231 0.960 . S
C248 C249 1.391 . S
C248 C250 1.394 . S
C248 H264 0.931 . S
C249 C248 1.391 . S
C249 C253 1.376 1_554 S
C250 C248 1.394 . S
C250 C251 1.369 . S
C250 C254 1.531 . S
C251 C250 1.369 . S
C251 C252 1.410 1_554 S
C251 C259 1.503 . S
C252 C251 1.410 1_556 S
C252 C253 1.392 . S
C252 C255 1.511 . S
C253 C249 1.376 1_556 S
C253 C252 1.392 . S
C253 H265 0.929 . S
C254 C250 1.531 . S
C254 H266 0.960 . S
C254 H267 0.962 . S
C254 H268 0.960 . S
C255 C252 1.511 . S
C255 H269 0.961 . S
C255 H270 0.961 . S
C255 H271 0.961 . S
C256 C257 1.370 . S
C256 C258 1.363 . S
C256 H272 0.931 . S
C257 C256 1.370 . S
C257 C261 1.408 1_554 S
C258 C256 1.363 . S
C258 C259 1.370 . S
C258 C262 1.524 . S
C259 C251 1.503 . S
C259 C258 1.370 . S
C259 C260 1.403 1_554 S
C260 C259 1.403 1_556 S
C260 C261 1.404 . S
C260 C263 1.539 . S
C261 C257 1.408 1_556 S
C261 C260 1.404 . S
C261 H273 0.930 . S
C262 C258 1.524 . S
C262 H274 0.956 . S
C262 H275 0.961 . S
C262 H276 0.961 . S
C263 C260 1.539 . S
C263 H277 0.958 . S
C263 H278 0.961 . S
C263 H279 0.960 . S
H264 C248 0.931 . S
H265 C253 0.929 . S
H266 C254 0.960 . S
H267 C254 0.962 . S
H268 C254 0.960 . S
H269 C255 0.961 . S
H270 C255 0.961 . S
H271 C255 0.961 . S
H272 C256 0.931 . S
H273 C261 0.930 . S
H274 C262 0.956 . S
H275 C262 0.961 . S
H276 C262 0.961 . S
H277 C263 0.958 . S
H278 C263 0.961 . S
H279 C263 0.960 . S
C280 C281 1.391 . S
C280 C282 1.394 . S
C280 H296 0.931 . S
C281 C280 1.391 . S
C281 C285 1.376 . S
C282 C280 1.394 . S
C282 C283 1.369 . S
C282 C286 1.531 . S
C283 C282 1.369 . S
C283 C284 1.410 . S
C283 C291 1.503 . S
C284 C283 1.410 . S
C284 C285 1.392 . S
C284 C287 1.511 . S
C285 C281 1.376 . S
C285 C284 1.392 . S
C285 H297 0.929 . S
C286 C282 1.531 . S
C286 H298 0.960 . S
C286 H299 0.962 . S
C286 H300 0.960 . S
C287 C284 1.511 . S
C287 H301 0.961 . S
C287 H302 0.961 . S
C287 H303 0.961 . S
C288 C289 1.370 . S
C288 C290 1.363 . S
C288 H304 0.931 . S
C289 C288 1.370 . S
C289 C293 1.408 . S
C290 C288 1.363 . S
C290 C291 1.370 . S
C290 C294 1.524 . S
C291 C283 1.503 . S
C291 C290 1.370 . S
C291 C292 1.403 . S
C292 C291 1.403 . S
C292 C293 1.404 . S
C292 C295 1.539 . S
C293 C289 1.408 . S
C293 C292 1.404 . S
C293 H305 0.930 . S
C294 C290 1.524 . S
C294 H306 0.956 . S
C294 H307 0.961 . S
C294 H308 0.961 . S
C295 C292 1.539 . S
C295 H309 0.958 . S
C295 H310 0.961 . S
C295 H311 0.960 . S
H296 C280 0.931 . S
H297 C285 0.929 . S
H298 C286 0.960 . S
H299 C286 0.962 . S
H300 C286 0.960 . S
H301 C287 0.961 . S
H302 C287 0.961 . S
H303 C287 0.961 . S
H304 C288 0.931 . S
H305 C293 0.930 . S
H306 C294 0.956 . S
H307 C294 0.961 . S
H308 C294 0.961 . S
H309 C295 0.958 . S
H310 C295 0.961 . S
H311 C295 0.960 . S
C312 C313 1.391 . S
C312 C314 1.394 . S
C312 H328 0.931 . S
C313 C312 1.391 . S
C313 C317 1.376 . S
C314 C312 1.394 . S
C314 C315 1.369 . S
C314 C318 1.531 . S
C315 C314 1.369 . S
C315 C316 1.410 . S
C315 C323 1.503 . S
C316 C315 1.410 . S
C316 C317 1.392 . S
C316 C319 1.511 . S
C317 C313 1.376 . S
C317 C316 1.392 . S
C317 H329 0.929 . S
C318 C314 1.531 . S
C318 H330 0.960 . S
C318 H331 0.962 . S
C318 H332 0.960 . S
C319 C316 1.511 . S
C319 H333 0.961 . S
C319 H334 0.961 . S
C319 H335 0.961 . S
C320 C321 1.370 . S
C320 C322 1.363 . S
C320 H336 0.931 . S
C321 C320 1.370 . S
C321 C325 1.408 . S
C322 C320 1.363 . S
C322 C323 1.370 . S
C322 C326 1.524 . S
C323 C315 1.503 . S
C323 C322 1.370 . S
C323 C324 1.403 . S
C324 C323 1.403 . S
C324 C325 1.404 . S
C324 C327 1.539 . S
C325 C321 1.408 . S
C325 C324 1.404 . S
C325 H337 0.930 . S
C326 C322 1.524 . S
C326 H338 0.956 . S
C326 H339 0.961 . S
C326 H340 0.961 . S
C327 C324 1.539 . S
C327 H341 0.958 . S
C327 H342 0.961 . S
C327 H343 0.960 . S
H328 C312 0.931 . S
H329 C317 0.929 . S
H330 C318 0.960 . S
H331 C318 0.962 . S
H332 C318 0.960 . S
H333 C319 0.961 . S
H334 C319 0.961 . S
H335 C319 0.961 . S
H336 C320 0.931 . S
H337 C325 0.930 . S
H338 C326 0.956 . S
H339 C326 0.961 . S
H340 C326 0.961 . S
H341 C327 0.958 . S
H342 C327 0.961 . S
H343 C327 0.960 . S
C344 C345 1.391 1_556 S
C344 C346 1.394 . S
C344 H360 0.931 . S
C345 C344 1.391 1_554 S
C345 C349 1.376 . S
C346 C344 1.394 . S
C346 C347 1.369 1_556 S
C346 C350 1.531 . S
C347 C346 1.369 1_554 S
C347 C348 1.410 . S
C347 C355 1.503 . S
C348 C347 1.410 . S
C348 C349 1.392 . S
C348 C351 1.511 . S
C349 C345 1.376 . S
C349 C348 1.392 . S
C349 H361 0.929 . S
C350 C346 1.531 . S
C350 H362 0.960 . S
C350 H363 0.962 . S
C350 H364 0.960 . S
C351 C348 1.511 . S
C351 H365 0.961 . S
C351 H366 0.961 . S
C351 H367 0.961 . S
C352 C353 1.370 1_556 S
C352 C354 1.363 . S
C352 H368 0.931 . S
C353 C352 1.370 1_554 S
C353 C357 1.408 . S
C354 C352 1.363 . S
C354 C355 1.370 1_556 S
C354 C358 1.524 . S
C355 C347 1.503 . S
C355 C354 1.370 1_554 S
C355 C356 1.403 . S
C356 C355 1.403 . S
C356 C357 1.404 . S
C356 C359 1.539 . S
C357 C353 1.408 . S
C357 C356 1.404 . S
C357 H369 0.930 . S
C358 C354 1.524 . S
C358 H370 0.956 . S
C358 H371 0.961 . S
C358 H372 0.961 . S
C359 C356 1.539 . S
C359 H373 0.958 . S
C359 H374 0.961 . S
C359 H375 0.960 . S
H360 C344 0.931 . S
H361 C349 0.929 . S
H362 C350 0.960 . S
H363 C350 0.962 . S
H364 C350 0.960 . S
H365 C351 0.961 . S
H366 C351 0.961 . S
H367 C351 0.961 . S
H368 C352 0.931 . S
H369 C357 0.930 . S
H370 C358 0.956 . S
H371 C358 0.961 . S
H372 C358 0.961 . S
H373 C359 0.958 . S
H374 C359 0.961 . S
H375 C359 0.960 . S
C376 C377 1.391 . S
C376 C378 1.394 . S
C376 H392 0.931 . S
C377 C376 1.391 . S
C377 C381 1.376 . S
C378 C376 1.394 . S
C378 C379 1.369 . S
C378 C382 1.531 . S
C379 C378 1.369 . S
C379 C380 1.410 . S
C379 C387 1.503 . S
C380 C379 1.410 . S
C380 C381 1.392 . S
C380 C383 1.511 . S
C381 C377 1.376 . S
C381 C380 1.392 . S
C381 H393 0.929 . S
C382 C378 1.531 . S
C382 H394 0.960 . S
C382 H395 0.962 . S
C382 H396 0.960 . S
C383 C380 1.511 . S
C383 H397 0.961 . S
C383 H398 0.961 . S
C383 H399 0.961 . S
C384 C385 1.370 . S
C384 C386 1.363 . S
C384 H400 0.931 . S
C385 C384 1.370 . S
C385 C389 1.408 . S
C386 C384 1.363 . S
C386 C387 1.370 . S
C386 C390 1.524 . S
C387 C379 1.503 . S
C387 C386 1.370 . S
C387 C388 1.403 . S
C388 C387 1.403 . S
C388 C389 1.404 . S
C388 C391 1.539 . S
C389 C385 1.408 . S
C389 C388 1.404 . S
C389 H401 0.930 . S
C390 C386 1.524 . S
C390 H402 0.956 . S
C390 H403 0.961 . S
C390 H404 0.961 . S
C391 C388 1.539 . S
C391 H405 0.958 . S
C391 H406 0.961 . S
C391 H407 0.960 . S
H392 C376 0.931 . S
H393 C381 0.929 . S
H394 C382 0.960 . S
H395 C382 0.962 . S
H396 C382 0.960 . S
H397 C383 0.961 . S
H398 C383 0.961 . S
H399 C383 0.961 . S
H400 C384 0.931 . S
H401 C389 0.930 . S
H402 C390 0.956 . S
H403 C390 0.961 . S
H404 C390 0.961 . S
H405 C391 0.958 . S
H406 C391 0.961 . S
H407 C391 0.960 . S
C408 C409 1.391 . S
C408 C410 1.394 . S
C408 H424 0.931 . S
C409 C408 1.391 . S
C409 C413 1.376 1_554 S
C410 C408 1.394 . S
C410 C411 1.369 . S
C410 C414 1.531 1_545 S
C411 C410 1.369 . S
C411 C412 1.410 1_554 S
C411 C419 1.503 1_445 S
C412 C411 1.410 1_556 S
C412 C413 1.392 . S
C412 C415 1.511 1_455 S
C413 C409 1.376 1_556 S
C413 C412 1.392 . S
C413 H425 0.929 . S
C414 C410 1.531 1_565 S
C414 H426 0.960 . S
C414 H427 0.962 . S
C414 H428 0.960 . S
C415 C412 1.511 1_655 S
C415 H429 0.961 . S
C415 H430 0.961 . S
C415 H431 0.961 . S
C416 C417 1.370 1_556 S
C416 C418 1.363 . S
C416 H432 0.931 . S
C417 C416 1.370 1_554 S
C417 C421 1.408 . S
C418 C416 1.363 . S
C418 C419 1.370 1_556 S
C418 C422 1.524 1_655 S
C419 C411 1.503 1_665 S
C419 C418 1.370 1_554 S
C419 C420 1.403 . S
C420 C419 1.403 . S
C420 C421 1.404 . S
C420 C423 1.539 1_565 S
C421 C417 1.408 . S
C421 C420 1.404 . S
C421 H433 0.930 . S
C422 C418 1.524 1_455 S
C422 H434 0.956 . S
C422 H435 0.961 . S
C422 H436 0.961 . S
C423 C420 1.539 1_545 S
C423 H437 0.958 . S
C423 H438 0.961 . S
C423 H439 0.960 . S
H424 C408 0.931 . S
H425 C413 0.929 . S
H426 C414 0.960 . S
H427 C414 0.962 . S
H428 C414 0.960 . S
H429 C415 0.961 . S
H430 C415 0.961 . S
H431 C415 0.961 . S
H432 C416 0.931 . S
H433 C421 0.930 . S
H434 C422 0.956 . S
H435 C422 0.961 . S
H436 C422 0.961 . S
H437 C423 0.958 . S
H438 C423 0.961 . S
H439 C423 0.960 . S
C440 C441 1.391 . S
C440 C442 1.394 . S
C440 H456 0.931 . S
C441 C440 1.391 . S
C441 C445 1.376 . S
C442 C440 1.394 . S
C442 C443 1.369 . S
C442 C446 1.531 1_655 S
C443 C442 1.369 . S
C443 C444 1.410 . S
C443 C451 1.503 1_645 S
C444 C443 1.410 . S
C444 C445 1.392 . S
C444 C447 1.511 1_545 S
C445 C441 1.376 . S
C445 C444 1.392 . S
C445 H457 0.929 . S
C446 C442 1.531 1_455 S
C446 H458 0.960 . S
C446 H459 0.962 . S
C446 H460 0.960 . S
C447 C444 1.511 1_565 S
C447 H461 0.961 . S
C447 H462 0.961 . S
C447 H463 0.961 . S
C448 C449 1.370 . S
C448 C450 1.363 . S
C448 H464 0.931 . S
C449 C448 1.370 . S
C449 C453 1.408 . S
C450 C448 1.363 . S
C450 C451 1.370 . S
C450 C454 1.524 1_565 S
C451 C443 1.503 1_465 S
C451 C450 1.370 . S
C451 C452 1.403 . S
C452 C451 1.403 . S
C452 C453 1.404 . S
C452 C455 1.539 1_455 S
C453 C449 1.408 . S
C453 C452 1.404 . S
C453 H465 0.930 . S
C454 C450 1.524 1_545 S
C454 H466 0.956 . S
C454 H467 0.961 . S
C454 H468 0.961 1_545 S
C455 C452 1.539 1_655 S
C455 H469 0.958 1_655 S
C455 H470 0.961 . S
C455 H471 0.960 . S
H456 C440 0.931 . S
H457 C445 0.929 . S
H458 C446 0.960 . S
H459 C446 0.962 . S
H460 C446 0.960 . S
H461 C447 0.961 . S
H462 C447 0.961 . S
H463 C447 0.961 . S
H464 C448 0.931 . S
H465 C453 0.930 . S
H466 C454 0.956 . S
H467 C454 0.961 . S
H468 C454 0.961 1_565 S
H469 C455 0.958 1_455 S
H470 C455 0.961 . S
H471 C455 0.960 . S
C472 C473 1.391 . S
C472 C474 1.394 . S
C472 H488 0.931 . S
C473 C472 1.391 . S
C473 C477 1.376 . S
C474 C472 1.394 . S
C474 C475 1.369 . S
C474 C478 1.531 . S
C475 C474 1.369 . S
C475 C476 1.410 . S
C475 C483 1.503 . S
C476 C475 1.410 . S
C476 C477 1.392 . S
C476 C479 1.511 . S
C477 C473 1.376 . S
C477 C476 1.392 . S
C477 H489 0.929 . S
C478 C474 1.531 . S
C478 H490 0.960 . S
C478 H491 0.962 . S
C478 H492 0.960 . S
C479 C476 1.511 . S
C479 H493 0.961 . S
C479 H494 0.961 . S
C479 H495 0.961 . S
C480 C481 1.370 . S
C480 C482 1.363 . S
C480 H496 0.931 . S
C481 C480 1.370 . S
C481 C485 1.408 . S
C482 C480 1.363 . S
C482 C483 1.370 . S
C482 C486 1.524 . S
C483 C475 1.503 . S
C483 C482 1.370 . S
C483 C484 1.403 . S
C484 C483 1.403 . S
C484 C485 1.404 . S
C484 C487 1.539 . S
C485 C481 1.408 . S
C485 C484 1.404 . S
C485 H497 0.930 . S
C486 C482 1.524 . S
C486 H498 0.956 . S
C486 H499 0.961 . S
C486 H500 0.961 . S
C487 C484 1.539 . S
C487 H501 0.958 . S
C487 H502 0.961 . S
C487 H503 0.960 . S
H488 C472 0.931 . S
H489 C477 0.929 . S
H490 C478 0.960 . S
H491 C478 0.962 . S
H492 C478 0.960 . S
H493 C479 0.961 . S
H494 C479 0.961 . S
H495 C479 0.961 . S
H496 C480 0.931 . S
H497 C485 0.930 . S
H498 C486 0.956 . S
H499 C486 0.961 . S
H500 C486 0.961 . S
H501 C487 0.958 . S
H502 C487 0.961 . S
H503 C487 0.960 . S
C504 C505 1.391 . S
C504 C506 1.394 . S
C504 H520 0.931 . S
C505 C504 1.391 . S
C505 C509 1.376 . S
C506 C504 1.394 . S
C506 C507 1.369 . S
C506 C510 1.531 . S
C507 C506 1.369 . S
C507 C508 1.410 . S
C507 C515 1.503 . S
C508 C507 1.410 . S
C508 C509 1.392 . S
C508 C511 1.511 . S
C509 C505 1.376 . S
C509 C508 1.392 . S
C509 H521 0.929 . S
C510 C506 1.531 . S
C510 H522 0.960 . S
C510 H523 0.962 . S
C510 H524 0.960 . S
C511 C508 1.511 . S
C511 H525 0.961 . S
C511 H526 0.961 . S
C511 H527 0.961 . S
C512 C513 1.370 . S
C512 C514 1.363 . S
C512 H528 0.931 . S
C513 C512 1.370 . S
C513 C517 1.408 . S
C514 C512 1.363 . S
C514 C515 1.370 . S
C514 C518 1.524 . S
C515 C507 1.503 . S
C515 C514 1.370 . S
C515 C516 1.403 . S
C516 C515 1.403 . S
C516 C517 1.404 . S
C516 C519 1.539 . S
C517 C513 1.408 . S
C517 C516 1.404 . S
C517 H529 0.930 . S
C518 C514 1.524 . S
C518 H530 0.956 . S
C518 H531 0.961 . S
C518 H532 0.961 . S
C519 C516 1.539 . S
C519 H533 0.958 . S
C519 H534 0.961 . S
C519 H535 0.960 . S
H520 C504 0.931 . S
H521 C509 0.929 . S
H522 C510 0.960 . S
H523 C510 0.962 . S
H524 C510 0.960 . S
H525 C511 0.961 . S
H526 C511 0.961 . S
H527 C511 0.961 . S
H528 C512 0.931 . S
H529 C517 0.930 . S
H530 C518 0.956 . S
H531 C518 0.961 . S
H532 C518 0.961 . S
H533 C519 0.958 . S
H534 C519 0.961 . S
H535 C519 0.960 . S
C536 C537 1.391 . S
C536 C538 1.394 . S
C536 H552 0.931 . S
C537 C536 1.391 . S
C537 C541 1.376 . S
C538 C536 1.394 . S
C538 C539 1.369 . S
C538 C542 1.531 . S
C539 C538 1.369 . S
C539 C540 1.410 . S
C539 C547 1.503 . S
C540 C539 1.410 . S
C540 C541 1.392 . S
C540 C543 1.511 . S
C541 C537 1.376 . S
C541 C540 1.392 . S
C541 H553 0.929 . S
C542 C538 1.531 . S
C542 H554 0.960 . S
C542 H555 0.962 . S
C542 H556 0.960 . S
C543 C540 1.511 . S
C543 H557 0.961 . S
C543 H558 0.961 . S
C543 H559 0.961 . S
C544 C545 1.370 . S
C544 C546 1.363 . S
C544 H560 0.931 . S
C545 C544 1.370 . S
C545 C549 1.408 . S
C546 C544 1.363 . S
C546 C547 1.370 . S
C546 C550 1.524 . S
C547 C539 1.503 . S
C547 C546 1.370 . S
C547 C548 1.403 . S
C548 C547 1.403 . S
C548 C549 1.404 . S
C548 C551 1.539 . S
C549 C545 1.408 . S
C549 C548 1.404 . S
C549 H561 0.930 . S
C550 C546 1.524 . S
C550 H562 0.956 . S
C550 H563 0.961 . S
C550 H564 0.961 . S
C551 C548 1.539 . S
C551 H565 0.958 . S
C551 H566 0.961 . S
C551 H567 0.960 . S
H552 C536 0.931 . S
H553 C541 0.929 . S
H554 C542 0.960 . S
H555 C542 0.962 . S
H556 C542 0.960 . S
H557 C543 0.961 . S
H558 C543 0.961 . S
H559 C543 0.961 . S
H560 C544 0.931 . S
H561 C549 0.930 . S
H562 C550 0.956 . S
H563 C550 0.961 . S
H564 C550 0.961 . S
H565 C551 0.958 . S
H566 C551 0.961 . S
H567 C551 0.960 . S
C568 C569 1.391 . S
C568 C570 1.394 . S
C568 H584 0.931 . S
C569 C568 1.391 . S
C569 C573 1.376 . S
C570 C568 1.394 . S
C570 C571 1.369 . S
C570 C574 1.531 . S
C571 C570 1.369 . S
C571 C572 1.410 . S
C571 C579 1.503 . S
C572 C571 1.410 . S
C572 C573 1.392 . S
C572 C575 1.511 . S
C573 C569 1.376 . S
C573 C572 1.392 . S
C573 H585 0.929 . S
C574 C570 1.531 . S
C574 H586 0.960 . S
C574 H587 0.962 . S
C574 H588 0.960 . S
C575 C572 1.511 . S
C575 H589 0.961 . S
C575 H590 0.961 . S
C575 H591 0.961 . S
C576 C577 1.370 . S
C576 C578 1.363 . S
C576 H592 0.931 . S
C577 C576 1.370 . S
C577 C581 1.408 . S
C578 C576 1.363 . S
C578 C579 1.370 . S
C578 C582 1.524 . S
C579 C571 1.503 . S
C579 C578 1.370 . S
C579 C580 1.403 . S
C580 C579 1.403 . S
C580 C581 1.404 . S
C580 C583 1.539 . S
C581 C577 1.408 . S
C581 C580 1.404 . S
C581 H593 0.930 . S
C582 C578 1.524 . S
C582 H594 0.956 . S
C582 H595 0.961 . S
C582 H596 0.961 . S
C583 C580 1.539 . S
C583 H597 0.958 . S
C583 H598 0.961 . S
C583 H599 0.960 . S
H584 C568 0.931 . S
H585 C573 0.929 . S
H586 C574 0.960 . S
H587 C574 0.962 . S
H588 C574 0.960 . S
H589 C575 0.961 . S
H590 C575 0.961 . S
H591 C575 0.961 . S
H592 C576 0.931 . S
H593 C581 0.930 . S
H594 C582 0.956 . S
H595 C582 0.961 . S
H596 C582 0.961 . S
H597 C583 0.958 . S
H598 C583 0.961 . S
H599 C583 0.960 . S
C600 C601 1.391 . S
C600 C602 1.394 . S
C600 H616 0.931 . S
C601 C600 1.391 . S
C601 C605 1.376 . S
C602 C600 1.394 . S
C602 C603 1.369 . S
C602 C606 1.531 . S
C603 C602 1.369 . S
C603 C604 1.410 1_455 S
C603 C611 1.503 1_455 S
C604 C603 1.410 1_655 S
C604 C605 1.392 1_655 S
C604 C607 1.511 . S
C605 C601 1.376 . S
C605 C604 1.392 1_455 S
C605 H617 0.929 1_455 S
C606 C602 1.531 . S
C606 H618 0.960 . S
C606 H619 0.962 . S
C606 H620 0.960 . S
C607 C604 1.511 . S
C607 H621 0.961 . S
C607 H622 0.961 . S
C607 H623 0.961 . S
C608 C609 1.370 . S
C608 C610 1.363 . S
C608 H624 0.931 . S
C609 C608 1.370 . S
C609 C613 1.408 . S
C610 C608 1.363 . S
C610 C611 1.370 . S
C610 C614 1.524 1_655 S
C611 C603 1.503 1_655 S
C611 C610 1.370 . S
C611 C612 1.403 . S
C612 C611 1.403 . S
C612 C613 1.404 . S
C612 C615 1.539 . S
C613 C609 1.408 . S
C613 C612 1.404 . S
C613 H625 0.930 . S
C614 C610 1.524 1_455 S
C614 H626 0.956 . S
C614 H627 0.961 1_455 S
C614 H628 0.961 . S
C615 C612 1.539 . S
C615 H629 0.958 . S
C615 H630 0.961 . S
C615 H631 0.960 . S
H616 C600 0.931 . S
H617 C605 0.929 1_655 S
H618 C606 0.960 . S
H619 C606 0.962 . S
H620 C606 0.960 . S
H621 C607 0.961 . S
H622 C607 0.961 . S
H623 C607 0.961 . S
H624 C608 0.931 . S
H625 C613 0.930 . S
H626 C614 0.956 . S
H627 C614 0.961 1_655 S
H628 C614 0.961 . S
H629 C615 0.958 . S
H630 C615 0.961 . S
H631 C615 0.960 . S
C632 C633 1.391 . S
C632 C634 1.394 1_655 S
C632 H648 0.931 1_655 S
C633 C632 1.391 . S
C633 C637 1.376 . S
C634 C632 1.394 1_455 S
C634 C635 1.369 1_455 S
C634 C638 1.531 . S
C635 C634 1.369 1_655 S
C635 C636 1.410 . S
C635 C643 1.503 1_655 S
C636 C635 1.410 . S
C636 C637 1.392 . S
C636 C639 1.511 . S
C637 C633 1.376 . S
C637 C636 1.392 . S
C637 H649 0.929 . S
C638 C634 1.531 . S
C638 H650 0.960 . S
C638 H651 0.962 . S
C638 H652 0.960 . S
C639 C636 1.511 . S
C639 H653 0.961 . S
C639 H654 0.961 . S
C639 H655 0.961 . S
C640 C641 1.370 . S
C640 C642 1.363 . S
C640 H656 0.931 . S
C641 C640 1.370 . S
C641 C645 1.408 . S
C642 C640 1.363 . S
C642 C643 1.370 . S
C642 C646 1.524 . S
C643 C635 1.503 1_455 S
C643 C642 1.370 . S
C643 C644 1.403 . S
C644 C643 1.403 . S
C644 C645 1.404 . S
C644 C647 1.539 . S
C645 C641 1.408 . S
C645 C644 1.404 . S
C645 H657 0.930 . S
C646 C642 1.524 . S
C646 H658 0.956 . S
C646 H659 0.961 1_455 S
C646 H660 0.961 . S
C647 C644 1.539 . S
C647 H661 0.958 . S
C647 H662 0.961 . S
C647 H663 0.960 1_455 S
H648 C632 0.931 1_455 S
H649 C637 0.929 . S
H650 C638 0.960 . S
H651 C638 0.962 . S
H652 C638 0.960 . S
H653 C639 0.961 . S
H654 C639 0.961 . S
H655 C639 0.961 . S
H656 C640 0.931 . S
H657 C645 0.930 . S
H658 C646 0.956 . S
H659 C646 0.961 1_655 S
H660 C646 0.961 . S
H661 C647 0.958 . S
H662 C647 0.961 . S
H663 C647 0.960 1_655 S
C664 C665 1.391 . S
C664 C666 1.394 . S
C664 H680 0.931 . S
C665 C664 1.391 . S
C665 C669 1.376 . S
C666 C664 1.394 . S
C666 C667 1.369 . S
C666 C670 1.531 . S
C667 C666 1.369 . S
C667 C668 1.410 1_455 S
C667 C675 1.503 1_455 S
C668 C667 1.410 1_655 S
C668 C669 1.392 1_655 S
C668 C671 1.511 . S
C669 C665 1.376 . S
C669 C668 1.392 1_455 S
C669 H681 0.929 1_455 S
C670 C666 1.531 . S
C670 H682 0.960 . S
C670 H683 0.962 . S
C670 H684 0.960 . S
C671 C668 1.511 . S
C671 H685 0.961 . S
C671 H686 0.961 . S
C671 H687 0.961 . S
C672 C673 1.370 . S
C672 C674 1.363 . S
C672 H688 0.931 . S
C673 C672 1.370 . S
C673 C677 1.408 . S
C674 C672 1.363 . S
C674 C675 1.370 . S
C674 C678 1.524 . S
C675 C667 1.503 1_655 S
C675 C674 1.370 . S
C675 C676 1.403 . S
C676 C675 1.403 . S
C676 C677 1.404 . S
C676 C679 1.539 1_655 S
C677 C673 1.408 . S
C677 C676 1.404 . S
C677 H689 0.930 . S
C678 C674 1.524 . S
C678 H690 0.956 1_655 S
C678 H691 0.961 . S
C678 H692 0.961 . S
C679 C676 1.539 1_455 S
C679 H693 0.958 . S
C679 H694 0.961 1_455 S
C679 H695 0.960 . S
H680 C664 0.931 . S
H681 C669 0.929 1_655 S
H682 C670 0.960 . S
H683 C670 0.962 . S
H684 C670 0.960 . S
H685 C671 0.961 . S
H686 C671 0.961 . S
H687 C671 0.961 . S
H688 C672 0.931 . S
H689 C677 0.930 . S
H690 C678 0.956 1_455 S
H691 C678 0.961 . S
H692 C678 0.961 . S
H693 C679 0.958 . S
H694 C679 0.961 1_655 S
H695 C679 0.960 . S
C696 C697 1.391 . S
C696 C698 1.394 1_455 S
C696 H712 0.931 1_455 S
C697 C696 1.391 . S
C697 C701 1.376 . S
C698 C696 1.394 1_655 S
C698 C699 1.369 1_655 S
C698 C702 1.531 . S
C699 C698 1.369 1_455 S
C699 C700 1.410 . S
C699 C707 1.503 1_455 S
C700 C699 1.410 . S
C700 C701 1.392 . S
C700 C703 1.511 . S
C701 C697 1.376 . S
C701 C700 1.392 . S
C701 H713 0.929 . S
C702 C698 1.531 . S
C702 H714 0.960 . S
C702 H715 0.962 . S
C702 H716 0.960 . S
C703 C700 1.511 . S
C703 H717 0.961 . S
C703 H718 0.961 . S
C703 H719 0.961 . S
C704 C705 1.370 . S
C704 C706 1.363 . S
C704 H720 0.931 . S
C705 C704 1.370 . S
C705 C709 1.408 . S
C706 C704 1.363 . S
C706 C707 1.370 . S
C706 C710 1.524 . S
C707 C699 1.503 1_655 S
C707 C706 1.370 . S
C707 C708 1.403 . S
C708 C707 1.403 . S
C708 C709 1.404 . S
C708 C711 1.539 1_655 S
C709 C705 1.408 . S
C709 C708 1.404 . S
C709 H721 0.930 . S
C710 C706 1.524 . S
C710 H722 0.956 . S
C710 H723 0.961 1_655 S
C710 H724 0.961 . S
C711 C708 1.539 1_455 S
C711 H725 0.958 1_455 S
C711 H726 0.961 . S
C711 H727 0.960 . S
H712 C696 0.931 1_655 S
H713 C701 0.929 . S
H714 C702 0.960 . S
H715 C702 0.962 . S
H716 C702 0.960 . S
H717 C703 0.961 . S
H718 C703 0.961 . S
H719 C703 0.961 . S
H720 C704 0.931 . S
H721 C709 0.930 . S
H722 C710 0.956 . S
H723 C710 0.961 1_455 S
H724 C710 0.961 . S
H725 C711 0.958 1_655 S
H726 C711 0.961 . S
H727 C711 0.960 . S
C217 C35 0.400 . S
C225 C28 0.487 . S
C249 C89 0.564 . S
C257 C82 0.426 . S
C281 C136 0.433 . S
C289 C143 0.489 . S
C313 C190 0.392 . S
C321 C197 0.501 . S
C345 C64 1.708 . S
C353 C27 1.705 . S
C377 C189 1.708 . S
C385 C118 1.705 . S
C409 C10 1.698 . S
C417 C81 1.709 . S
C441 C172 1.706 . S
C449 C135 1.705 . S
C473 C184 1.754 . S
C481 C22 1.764 . S
C505 C59 1.767 . S
C513 C113 1.755 . S
C537 C140 1.767 . S
C545 C86 1.737 . S
C569 C13 1.728 . S
C577 C175 1.754 . S
C601 C130 1.750 . S
C609 C76 1.765 . S
C633 C167 1.757 . S
C641 C5 1.759 . S
C665 C32 1.748 . S
C673 C194 1.746 . S
C697 C121 1.748 . S
C705 C67 1.744 . S
