# Generated by pormake.
# Topology yfz, (5)-cn, num edge types: 1
# Building blocks:
#     Node 0, Type 0, BuildingBlock: XOMCOT_clean_sbu_0, # of connection points: 5
#     Node 1, Type 0, BuildingBlock: XOMCOT_clean_sbu_0, # of connection points: 5
#     Node 2, Type 0, BuildingBlock: XOMCOT_clean_sbu_0, # of connection points: 5
#     Node 3, Type 0, BuildingBlock: XOMCOT_clean_sbu_0, # of connection points: 5
#     Node 4, Type 0, BuildingBlock: XOMCOT_clean_sbu_0, # of connection points: 5
#     Node 5, Type 0, BuildingBlock: XOMCOT_clean_sbu_0, # of connection points: 5
#     Node 6, Type 0, BuildingBlock: XOMCOT_clean_sbu_0, # of connection points: 5
#     Node 7, Type 0, BuildingBlock: XOMCOT_clean_sbu_0, # of connection points: 5
#     Edge 8, Type (0, 0), BuildingBlock: XUDNAN_clean_linker_2, # of connection points: 2
#     Edge 9, Type (0, 0), BuildingBlock: XUDNAN_clean_linker_2, # of connection points: 2
#     Edge 10, Type (0, 0), BuildingBlock: XUDNAN_clean_linker_2, # of connection points: 2
#     Edge 11, Type (0, 0), BuildingBlock: XUDNAN_clean_linker_2, # of connection points: 2
#     Edge 12, Type (0, 0), BuildingBlock: XUDNAN_clean_linker_2, # of connection points: 2
#     Edge 13, Type (0, 0), BuildingBlock: XUDNAN_clean_linker_2, # of connection points: 2
#     Edge 14, Type (0, 0), BuildingBlock: XUDNAN_clean_linker_2, # of connection points: 2
#     Edge 15, Type (0, 0), BuildingBlock: XUDNAN_clean_linker_2, # of connection points: 2
#     Edge 16, Type (0, 0), BuildingBlock: XUDNAN_clean_linker_2, # of connection points: 2
#     Edge 17, Type (0, 0), BuildingBlock: XUDNAN_clean_linker_2, # of connection points: 2
#     Edge 18, Type (0, 0), BuildingBlock: XUDNAN_clean_linker_2, # of connection points: 2
#     Edge 19, Type (0, 0), BuildingBlock: XUDNAN_clean_linker_2, # of connection points: 2
#     Edge 20, Type (0, 0), BuildingBlock: XUDNAN_clean_linker_2, # of connection points: 2
#     Edge 21, Type (0, 0), BuildingBlock: XUDNAN_clean_linker_2, # of connection points: 2
#     Edge 22, Type (0, 0), BuildingBlock: XUDNAN_clean_linker_2, # of connection points: 2
#     Edge 23, Type (0, 0), BuildingBlock: XUDNAN_clean_linker_2, # of connection points: 2
#     Edge 24, Type (0, 0), BuildingBlock: XUDNAN_clean_linker_2, # of connection points: 2
#     Edge 25, Type (0, 0), BuildingBlock: XUDNAN_clean_linker_2, # of connection points: 2
#     Edge 26, Type (0, 0), BuildingBlock: XUDNAN_clean_linker_2, # of connection points: 2
#     Edge 27, Type (0, 0), BuildingBlock: XUDNAN_clean_linker_2, # of connection points: 2
# Relax obj value: 0.170
# Max RMSD: 0.157
# Mean RMSD: 0.157
data_MOF--net-yfz--node1-XOMCOT_clean_sbu_0--edge1-XUDNAN_clean_linker_2
_symmetry_space_group_name_H-M    P1
_symmetry_Int_Tables_number       1
_symmetry_cell_setting            triclinic
loop_
_symmetry_equiv_pos_as_xyz
'x, y, z'
_cell_length_a     51.456127
_cell_length_b     51.567456
_cell_length_c     17.528056
_cell_angle_alpha  90.092748
_cell_angle_beta   89.978229
_cell_angle_gamma 89.994386
loop_
_atom_site_label
_atom_site_type_symbol
_atom_site_fract_x
_atom_site_fract_y
_atom_site_fract_z
_atom_type_partial_charge
Co0 Co 0.56874 0.10323 0.31786 0.0
C1 C 0.55832 0.10795 0.15088 0.0
C2 C 0.54734 0.07044 0.19146 0.0
C3 C 0.54311 0.07137 0.11382 0.0
N4 N 0.55708 0.09339 0.21511 0.0
N5 N 0.55015 0.09499 0.08818 0.0
H6 H 0.56647 0.12722 0.14904 0.0
H7 H 0.5439 0.05376 0.22688 0.0
C8 C 0.54996 0.04984 0.37494 0.0
O9 O 0.57052 0.03729 0.35059 0.0
N10 N 0.57961 0.11348 0.41948 0.0
C11 C 0.60058 0.12806 0.43662 0.0
C12 C 0.60055 0.13307 0.51375 0.0
C13 C 0.56718 0.10965 0.48651 0.0
N14 N 0.57965 0.12142 0.54485 0.0
C15 C 0.61334 0.0848 0.23794 0.0
C16 C 0.63722 0.05943 0.35757 0.0
C17 C 0.65014 0.06098 0.28718 0.0
C18 C 0.63773 0.07375 0.22703 0.0
C19 C 0.61243 0.07051 0.36582 0.0
N20 N 0.60053 0.08273 0.3059 0.0
H21 H 0.60547 0.09622 0.19217 0.0
H22 H 0.60298 0.06951 0.42083 0.0
H23 H 0.61471 0.1349 0.39564 0.0
H24 H 0.54901 0.09928 0.49233 0.0
O25 O 0.58219 0.13567 0.27954 0.0
O26 O 0.54195 0.1296 0.32118 0.0
O27 O 0.54737 0.0742 0.36363 0.0
C28 C 0.55932 0.14538 0.29356 0.0
H29 H 0.53568 0.05568 0.07909 0.0
H30 H 0.61471 0.1445 0.54472 0.0
H31 H 0.64627 0.05001 0.40592 0.0
H32 H 0.64736 0.0764 0.17262 0.0
Co33 Co 0.37446 0.56519 0.82503 0.0
C34 C 0.38193 0.57093 0.65958 0.0
C35 C 0.39903 0.53552 0.69929 0.0
C36 C 0.40259 0.53714 0.62149 0.0
N37 N 0.38617 0.55678 0.723 0.0
N38 N 0.39178 0.55944 0.59641 0.0
H39 H 0.37127 0.58901 0.65996 0.0
H40 H 0.40515 0.51971 0.73533 0.0
C41 C 0.40835 0.52478 0.89106 0.0
O42 O 0.38862 0.50891 0.88233 0.0
N43 N 0.36253 0.57368 0.92786 0.0
C44 C 0.33906 0.58343 0.94765 0.0
C45 C 0.33886 0.5886 0.02451 0.0
C46 C 0.37616 0.57284 0.99391 0.0
N47 N 0.36209 0.58186 0.05333 0.0
C48 C 0.37835 0.62021 0.83164 0.0
C49 C 0.42862 0.624 0.77671 0.0
C50 C 0.41414 0.64672 0.78834 0.0
C51 C 0.38895 0.64462 0.81783 0.0
C52 C 0.41749 0.59984 0.79347 0.0
N53 N 0.39244 0.59821 0.81901 0.0
H54 H 0.35831 0.61897 0.84934 0.0
H55 H 0.42849 0.58238 0.7822 0.0
H56 H 0.32319 0.58737 0.90906 0.0
H57 H 0.39618 0.56666 0.99857 0.0
O58 O 0.3416 0.57598 0.78285 0.0
O59 O 0.35021 0.53609 0.82123 0.0
O60 O 0.40638 0.54836 0.86963 0.0
C61 C 0.33356 0.55234 0.79215 0.0
H62 H 0.41237 0.52289 0.58641 0.0
H63 H 0.32292 0.5968 0.0569 0.0
H64 H 0.44811 0.6249 0.75348 0.0
H65 H 0.37699 0.66169 0.82622 0.0
Co66 Co 0.91611 0.37416 0.35151 0.0
C67 C 0.91765 0.37989 0.18269 0.0
C68 C 0.95152 0.39546 0.23816 0.0
C69 C 0.95377 0.39968 0.16114 0.0
N70 N 0.92879 0.3834 0.2517 0.0
N71 N 0.93251 0.38994 0.12648 0.0
H72 H 0.89885 0.37093 0.17411 0.0
H73 H 0.96546 0.40095 0.28142 0.0
C74 C 0.92204 0.42445 0.4348 0.0
O75 O 0.89736 0.422 0.45278 0.0
N76 N 0.90488 0.36439 0.45437 0.0
C77 C 0.88752 0.34632 0.47745 0.0
C78 C 0.88656 0.3461 0.55623 0.0
C79 C 0.91565 0.37306 0.51984 0.0
N80 N 0.90406 0.36333 0.5825 0.0
C81 C 0.86081 0.37904 0.33766 0.0
C82 C 0.85981 0.4279 0.2733 0.0
C83 C 0.83632 0.4147 0.28492 0.0
C84 C 0.83708 0.39002 0.31762 0.0
C85 C 0.88328 0.41636 0.29616 0.0
N86 N 0.88354 0.39237 0.32971 0.0
H87 H 0.8608 0.35923 0.35583 0.0
H88 H 0.9013 0.42652 0.28558 0.0
H89 H 0.87673 0.33346 0.44055 0.0
H90 H 0.93232 0.38571 0.5223 0.0
O91 O 0.90574 0.3409 0.31343 0.0
O92 O 0.94473 0.34951 0.36085 0.0
O93 O 0.93307 0.40686 0.39435 0.0
C94 C 0.92884 0.33265 0.3304 0.0
H95 H 0.96984 0.40914 0.13262 0.0
H96 H 0.87381 0.33439 0.59119 0.0
H97 H 0.86004 0.44679 0.24644 0.0
H98 H 0.81948 0.3787 0.32435 0.0
Co99 Co 0.10254 0.90723 0.84906 0.0
C100 C 0.09157 0.90654 0.68233 0.0
C101 C 0.09475 0.94529 0.72499 0.0
C102 C 0.09187 0.94629 0.64671 0.0
N103 N 0.09419 0.9203 0.7476 0.0
N104 N 0.08992 0.92183 0.61986 0.0
H105 H 0.09235 0.88573 0.67955 0.0
H106 H 0.09765 0.96167 0.76265 0.0
C107 C 0.05135 0.93677 0.8723 0.0
O108 O 0.04606 0.93761 0.79915 0.0
N109 N 0.11141 0.89412 0.94929 0.0
C110 C 0.12355 0.87148 0.96357 0.0
C111 C 0.12321 0.86705 0.04093 0.0
C112 C 0.1043 0.90343 0.01845 0.0
N113 N 0.11109 0.88709 0.07527 0.0
C114 C 0.0966 0.85548 0.7938 0.0
C115 C 0.04701 0.84594 0.84657 0.0
C116 C 0.0604 0.82604 0.80828 0.0
C117 C 0.08553 0.83123 0.78207 0.0
C118 C 0.05888 0.87025 0.8571 0.0
N119 N 0.08337 0.87497 0.82981 0.0
H120 H 0.11609 0.85836 0.77322 0.0
H121 H 0.04841 0.88475 0.88891 0.0
H122 H 0.13127 0.85858 0.92052 0.0
H123 H 0.09333 0.92109 0.02702 0.0
O124 O 0.13608 0.89664 0.81139 0.0
O125 O 0.12785 0.93513 0.86139 0.0
O126 O 0.0716 0.92514 0.897 0.0
C127 C 0.14463 0.91933 0.83074 0.0
H128 H 0.09172 0.96372 0.61243 0.0
H129 H 0.1307 0.85005 0.06969 0.0
H130 H 0.02764 0.84273 0.86877 0.0
H131 H 0.0971 0.81637 0.7545 0.0
Co132 Co 0.56997 0.37413 0.16045 0.0
C133 C 0.56643 0.37172 0.32976 0.0
C134 C 0.53627 0.39552 0.28394 0.0
C135 C 0.53283 0.39381 0.36187 0.0
N136 N 0.55794 0.38236 0.26374 0.0
N137 N 0.55178 0.37868 0.39036 0.0
H138 H 0.58212 0.35793 0.3335 0.0
H139 H 0.52281 0.4045 0.2448 0.0
C140 C 0.55045 0.42856 0.13802 0.0
O141 O 0.56527 0.43603 0.19502 0.0
N142 N 0.58155 0.36521 0.05885 0.0
C143 C 0.60429 0.35355 0.04246 0.0
C144 C 0.60514 0.34842 0.96563 0.0
C145 C 0.5688 0.36718 0.99167 0.0
N146 N 0.58287 0.35693 0.93377 0.0
C147 C 0.61913 0.38587 0.22825 0.0
C148 C 0.63459 0.42349 0.12597 0.0
C149 C 0.65226 0.41539 0.18228 0.0
C150 C 0.64402 0.39629 0.23375 0.0
C151 C 0.60979 0.41221 0.1219 0.0
N152 N 0.60203 0.39403 0.17396 0.0
H153 H 0.61449 0.36985 0.2647 0.0
H154 H 0.59725 0.41741 0.07494 0.0
H155 H 0.61908 0.34873 0.08393 0.0
H156 H 0.54942 0.37509 0.98566 0.0
O157 O 0.58254 0.34101 0.19562 0.0
O158 O 0.54263 0.34824 0.15336 0.0
O159 O 0.55024 0.40477 0.11725 0.0
C160 C 0.55958 0.33189 0.18054 0.0
H161 H 0.51677 0.40174 0.3943 0.0
H162 H 0.62089 0.33901 0.93538 0.0
H163 H 0.64 0.43792 0.0841 0.0
H164 H 0.65712 0.38819 0.27573 0.0
Co165 Co 0.10294 0.56077 0.68667 0.0
C166 C 0.09528 0.561 0.85652 0.0
C167 C 0.09293 0.52289 0.80876 0.0
C168 C 0.08924 0.52112 0.88664 0.0
N169 N 0.09646 0.54799 0.78966 0.0
N170 N 0.09055 0.54521 0.91626 0.0
H171 H 0.09833 0.58145 0.86303 0.0
H172 H 0.09285 0.50694 0.76859 0.0
C173 C 0.04882 0.54046 0.68335 0.0
O174 O 0.04538 0.5528 0.74823 0.0
N175 N 0.10973 0.57304 0.58465 0.0
C176 C 0.1216 0.59559 0.56761 0.0
C177 C 0.11998 0.59958 0.49031 0.0
C178 C 0.1013 0.56337 0.51739 0.0
N179 N 0.10723 0.57937 0.45898 0.0
C180 C 0.09568 0.61151 0.7501 0.0
C181 C 0.05022 0.62408 0.67522 0.0
C182 C 0.06105 0.64191 0.72644 0.0
C183 C 0.08418 0.63554 0.7633 0.0
C184 C 0.06225 0.59989 0.66455 0.0
N185 N 0.08399 0.59321 0.70526 0.0
H186 H 0.1143 0.60781 0.77607 0.0
H187 H 0.05446 0.587 0.62176 0.0
H188 H 0.1299 0.60877 0.60902 0.0
H189 H 0.08997 0.5458 0.5116 0.0
O190 O 0.13694 0.5723 0.71745 0.0
O191 O 0.12841 0.53309 0.67282 0.0
O192 O 0.07075 0.54188 0.6492 0.0
C193 C 0.14553 0.54952 0.69883 0.0
H194 H 0.08552 0.50358 0.91865 0.0
H195 H 0.12702 0.61636 0.45956 0.0
H196 H 0.03291 0.62893 0.64315 0.0
H197 H 0.09368 0.64935 0.80072 0.0
Co198 Co 0.91951 0.10468 0.19248 0.0
C199 C 0.92249 0.09779 0.36385 0.0
C200 C 0.95927 0.09581 0.30646 0.0
C201 C 0.96341 0.09197 0.38288 0.0
N202 N 0.93362 0.09906 0.29393 0.0
N203 N 0.94032 0.0932 0.41882 0.0
H204 H 0.902 0.09966 0.3752 0.0
H205 H 0.974 0.09589 0.26241 0.0
C206 C 0.94201 0.05109 0.18848 0.0
O207 O 0.93145 0.04706 0.25569 0.0
N208 N 0.90688 0.11032 0.09038 0.0
C209 C 0.88347 0.11906 0.06763 0.0
C210 C 0.88226 0.11741 0.98897 0.0
C211 C 0.9196 0.10379 0.02613 0.0
N212 N 0.90497 0.10758 0.96324 0.0
C213 C 0.86961 0.09701 0.26005 0.0
C214 C 0.85653 0.05199 0.18402 0.0
C215 C 0.83767 0.06389 0.23053 0.0
C216 C 0.84476 0.0867 0.26894 0.0
C217 C 0.88112 0.06333 0.17536 0.0
N218 N 0.88773 0.08527 0.21473 0.0
H219 H 0.87379 0.11526 0.28749 0.0
H220 H 0.89422 0.05502 0.13396 0.0
H221 H 0.86811 0.12534 0.10553 0.0
H222 H 0.93916 0.09612 0.02569 0.0
O223 O 0.90748 0.13854 0.22236 0.0
O224 O 0.94664 0.13055 0.17596 0.0
O225 O 0.93866 0.07278 0.15466 0.0
C226 C 0.93015 0.14738 0.20319 0.0
H227 H 0.982 0.08871 0.41012 0.0
H228 H 0.86561 0.1221 0.95389 0.0
H229 H 0.85222 0.03445 0.1525 0.0
H230 H 0.8309 0.0975 0.30286 0.0
Co231 Co 0.37177 0.9127 0.6719 0.0
C232 C 0.37299 0.9176 0.84306 0.0
C233 C 0.39333 0.94829 0.78661 0.0
C234 C 0.39283 0.95359 0.86334 0.0
N235 N 0.38144 0.9254 0.77327 0.0
N236 N 0.37998 0.93436 0.89891 0.0
H237 H 0.36009 0.90143 0.85266 0.0
H238 H 0.40029 0.96145 0.74337 0.0
C239 C 0.42542 0.93475 0.63603 0.0
O240 O 0.43649 0.92077 0.68952 0.0
N241 N 0.36195 0.90132 0.57063 0.0
C242 C 0.35357 0.87778 0.54811 0.0
C243 C 0.35038 0.87806 0.46978 0.0
C244 C 0.36343 0.91562 0.50643 0.0
N245 N 0.35657 0.90192 0.44375 0.0
C246 C 0.38503 0.86442 0.73952 0.0
C247 C 0.42224 0.84903 0.63547 0.0
C248 C 0.41448 0.83139 0.69235 0.0
C249 C 0.39561 0.83967 0.74477 0.0
C250 C 0.4107 0.87369 0.63144 0.0
N251 N 0.39259 0.88131 0.68404 0.0
H252 H 0.36932 0.86917 0.77733 0.0
H253 H 0.4155 0.88612 0.58396 0.0
H254 H 0.35043 0.86147 0.58573 0.0
H255 H 0.37006 0.93552 0.50558 0.0
O256 O 0.33945 0.89956 0.71163 0.0
O257 O 0.34523 0.93943 0.6679 0.0
O258 O 0.401 0.93309 0.62387 0.0
C259 C 0.32968 0.92231 0.69792 0.0
H260 H 0.4004 0.97088 0.89048 0.0
H261 H 0.34392 0.86198 0.43487 0.0
H262 H 0.43656 0.84369 0.59302 0.0
H263 H 0.38774 0.82672 0.78744 0.0
H264 H 0.47875 0.9377 0.61503 0.0
H265 H 0.40618 0.97619 0.5586 0.0
H266 H 0.43028 0.00949 0.48751 0.0
H267 H 0.51764 0.99569 0.6379 0.0
H268 H 0.54621 0.98203 0.59394 0.0
H269 H 0.52347 0.96124 0.6425 0.0
H270 H 0.51856 0.93341 0.52014 0.0
H271 H 0.54129 0.95413 0.47125 0.0
H272 H 0.50936 0.94882 0.43193 0.0
H273 H 0.46171 0.03954 0.42672 0.0
H274 H 0.49881 0.06299 0.37069 0.0
H275 H 0.5515 0.00433 0.45771 0.0
C276 C 0.46799 0.95318 0.58786 0.0
C277 C 0.44054 0.95434 0.59277 0.0
C278 C 0.42716 0.97478 0.55566 0.0
C279 C 0.44069 0.99389 0.51525 0.0
C280 C 0.46764 0.99224 0.51149 0.0
C281 C 0.48121 0.97233 0.546 0.0
C282 C 0.51018 0.97491 0.53082 0.0
C283 C 0.52526 0.97869 0.60576 0.0
C284 C 0.52045 0.95142 0.48585 0.0
C285 C 0.51066 0.99937 0.48264 0.0
C286 C 0.48587 0.00914 0.47313 0.0
C287 C 0.48121 0.03199 0.43322 0.0
C288 C 0.50243 0.04522 0.40181 0.0
C289 C 0.52801 0.03542 0.40939 0.0
C290 C 0.53212 0.01211 0.45022 0.0
H291 H 0.50764 0.41833 0.04916 0.0
H292 H 0.55305 0.48155 0.14395 0.0
H293 H 0.52277 0.51313 0.08623 0.0
H294 H 0.48979 0.44996 0.87092 0.0
H295 H 0.45746 0.43652 0.87059 0.0
H296 H 0.48368 0.41901 0.91509 0.0
H297 H 0.45755 0.41713 0.04143 0.0
H298 H 0.43129 0.43466 0.99742 0.0
H299 H 0.4459 0.44682 0.08379 0.0
H300 H 0.48701 0.53791 0.01938 0.0
H301 H 0.4474 0.55378 0.95459 0.0
H302 H 0.42428 0.47433 0.90882 0.0
C303 C 0.51141 0.43883 0.05704 0.0
C304 C 0.53284 0.44747 0.10075 0.0
C305 C 0.53679 0.47446 0.11068 0.0
C306 C 0.51973 0.49256 0.07792 0.0
C307 C 0.49867 0.48339 0.03576 0.0
C308 C 0.49439 0.45715 0.02556 0.0
C309 C 0.4696 0.45233 0.98101 0.0
C310 C 0.47549 0.43865 0.90489 0.0
C311 C 0.44993 0.43682 0.02878 0.0
C312 C 0.46047 0.47994 0.96837 0.0
C313 C 0.47768 0.49759 0.99952 0.0
C314 C 0.4734 0.52425 0.99479 0.0
C315 C 0.45087 0.53309 0.95776 0.0
C316 C 0.43269 0.51532 0.92684 0.0
C317 C 0.43772 0.48841 0.93219 0.0
H318 H 0.97516 0.43405 0.4258 0.0
H319 H 0.90364 0.46254 0.52781 0.0
H320 H 0.92829 0.49577 0.59722 0.0
H321 H 0.0149 0.44216 0.58999 0.0
H322 H 0.04335 0.45288 0.53898 0.0
H323 H 0.0202 0.43188 0.49286 0.0
H324 H 0.01497 0.4651 0.38327 0.0
H325 H 0.03821 0.48617 0.42893 0.0
H326 H 0.00629 0.49814 0.40544 0.0
H327 H 0.96009 0.52391 0.66254 0.0
H328 H 0.99764 0.54705 0.71644 0.0
H329 H 0.0495 0.50236 0.5715 0.0
C330 C 0.96468 0.44751 0.46194 0.0
C331 C 0.93736 0.44558 0.47108 0.0
C332 C 0.92447 0.4635 0.51949 0.0
C333 C 0.93831 0.48253 0.55936 0.0
C334 C 0.96513 0.48369 0.55006 0.0
C335 C 0.97826 0.46689 0.50218 0.0
C336 C 0.00734 0.47222 0.50446 0.0
C337 C 0.02232 0.44836 0.5333 0.0
C338 C 0.01728 0.48093 0.42584 0.0
C339 C 0.00838 0.49432 0.56194 0.0
C340 C 0.98372 0.50052 0.5873 0.0
C341 C 0.9795 0.51943 0.64265 0.0
C342 C 1.00101 0.53241 0.67318 0.0
C343 C 0.02654 0.52662 0.64816 0.0
C344 C 0.03021 0.50741 0.59123 0.0
H345 H 0.95687 0.047 0.03759 0.0
H346 H 0.96243 0.00811 0.25646 0.0
H347 H 0.98931 0.97389 0.1977 0.0
H348 H 0.9527 0.98755 0.92284 0.0
H349 H 0.97151 1.00092 0.84554 0.0
H350 H 0.95202 0.02191 0.9046 0.0
H351 H 0.99277 0.04964 0.93414 0.0
H352 H 0.01237 0.02851 0.87594 0.0
H353 H 0.02117 0.0343 0.97405 0.0
H354 H 0.01754 0.94529 0.11797 0.0
H355 H 0.04417 0.92311 0.02081 0.0
H356 H 0.01927 0.97905 0.85113 0.0
C357 C 0.96367 0.03123 0.07304 0.0
C358 C 0.95757 0.03029 0.1518 0.0
C359 C 0.96675 0.00924 0.19607 0.0
C360 C 0.98206 0.98969 0.1632 0.0
C361 C 0.98778 0.99123 0.08565 0.0
C362 C 0.97871 0.0113 0.04084 0.0
C363 C 0.98784 0.00828 0.95887 0.0
C364 C 0.96464 0.00443 0.90478 0.0
C365 C 0.00454 0.03157 0.93435 0.0
C366 C 0.00397 0.9837 0.96514 0.0
C367 C 1.00359 0.97422 0.03888 0.0
C368 C 0.0178 0.95238 0.05989 0.0
C369 C 0.03295 0.93996 1.00433 0.0
C370 C 0.03374 0.94927 0.92835 0.0
C371 C 0.01876 0.97126 0.90846 0.0
H372 H 0.59404 0.18439 0.26789 0.0
H373 H 0.51142 0.16849 0.2823 0.0
H374 H 0.502 0.21448 0.25209 0.0
H375 H 0.59134 0.24709 0.35688 0.0
H376 H 0.61647 0.26061 0.29735 0.0
H377 H 0.61634 0.22642 0.31808 0.0
H378 H 0.61651 0.21616 0.17322 0.0
H379 H 0.61654 0.25032 0.15204 0.0
H380 H 0.59154 0.2297 0.11313 0.0
H381 H 0.502 0.26259 0.21691 0.0
H382 H 0.51149 0.30877 0.1888 0.0
H383 H 0.59406 0.29263 0.20367 0.0
C384 C 0.57395 0.19054 0.26448 0.0
C385 C 0.55344 0.17288 0.27703 0.0
C386 C 0.52742 0.18175 0.27293 0.0
C387 C 0.5219 0.20779 0.25558 0.0
C388 C 0.54263 0.22473 0.24328 0.0
C389 C 0.56813 0.21645 0.24827 0.0
C390 C 0.58695 0.23851 0.2349 0.0
C391 C 0.60376 0.24345 0.30605 0.0
C392 C 0.60387 0.23336 0.16411 0.0
C393 C 0.56812 0.26054 0.22131 0.0
C394 C 0.54262 0.25226 0.22567 0.0
C395 C 0.5219 0.26927 0.21374 0.0
C396 C 0.52745 0.29542 0.19761 0.0
C397 C 0.55347 0.30428 0.19443 0.0
C398 C 0.57395 0.2865 0.20628 0.0
H399 H 0.18503 0.58389 0.7145 0.0
H400 H 0.16921 0.50142 0.702 0.0
H401 H 0.21614 0.49233 0.72282 0.0
H402 H 0.24644 0.58209 0.6152 0.0
H403 H 0.26042 0.60728 0.67361 0.0
H404 H 0.2259 0.60666 0.65679 0.0
H405 H 0.2176 0.60649 0.80273 0.0
H406 H 0.25207 0.60701 0.82001 0.0
H407 H 0.23235 0.58169 0.86077 0.0
H408 H 0.26547 0.49306 0.75295 0.0
H409 H 0.31169 0.50355 0.78041 0.0
H410 H 0.29358 0.58553 0.76654 0.0
C411 C 0.19137 0.56387 0.71588 0.0
C412 C 0.17349 0.54333 0.70702 0.0
C413 C 0.18264 0.51744 0.70853 0.0
C414 C 0.20922 0.51213 0.72053 0.0
C415 C 0.22632 0.53296 0.7299 0.0
C416 C 0.21765 0.55831 0.72679 0.0
C417 C 0.23959 0.57741 0.73798 0.0
C418 C 0.2433 0.59435 0.66664 0.0
C419 C 0.23513 0.59413 0.80963 0.0
C420 C 0.26208 0.55896 0.74869 0.0
C421 C 0.25421 0.53337 0.74439 0.0
C422 C 0.27179 0.51306 0.75559 0.0
C423 C 0.29797 0.51916 0.77129 0.0
C424 C 0.30627 0.54532 0.77487 0.0
C425 C 0.28798 0.56531 0.76316 0.0
H426 H 0.89607 0.1867 0.22617 0.0
H427 H 0.97855 0.17046 0.20997 0.0
H428 H 0.98817 0.21639 0.24276 0.0
H429 H 0.89855 0.25082 0.14377 0.0
H430 H 0.87337 0.26305 0.20566 0.0
H431 H 0.87376 0.22929 0.17935 0.0
H432 H 0.87372 0.21659 0.32249 0.0
H433 H 0.87364 0.25031 0.34924 0.0
H434 H 0.89876 0.22909 0.38438 0.0
H435 H 0.98793 0.26478 0.28497 0.0
H436 H 0.97775 0.31043 0.32029 0.0
H437 H 0.89549 0.2931 0.30426 0.0
C438 C 0.9162 0.19277 0.22896 0.0
C439 C 0.93658 0.17504 0.2157 0.0
C440 C 0.96264 0.18381 0.21956 0.0
C441 C 0.96825 0.20981 0.23853 0.0
C442 C 0.94756 0.22673 0.25267 0.0
C443 C 0.92206 0.21848 0.24701 0.0
C444 C 0.90314 0.2401 0.26415 0.0
C445 C 0.88622 0.24617 0.19405 0.0
C446 C 0.88634 0.23363 0.33423 0.0
C447 C 0.92186 0.2619 0.28104 0.0
C448 C 0.94743 0.25401 0.27476 0.0
C449 C 0.96793 0.27111 0.28947 0.0
C450 C 0.96202 0.29694 0.30987 0.0
C451 C 0.93587 0.30532 0.31462 0.0
C452 C 0.91571 0.28739 0.30051 0.0
H453 H 0.29183 0.88765 0.73399 0.0
H454 H 0.30572 0.97001 0.70536 0.0
H455 H 0.25997 0.97902 0.74172 0.0
H456 H 0.22795 0.88721 0.65501 0.0
H457 H 0.21612 0.86293 0.72023 0.0
H458 H 0.24997 0.86358 0.69447 0.0
H459 H 0.26252 0.8664 0.83754 0.0
H460 H 0.22868 0.86593 0.86373 0.0
H461 H 0.24925 0.89207 0.89563 0.0
H462 H 0.21202 0.97844 0.78408 0.0
H463 H 0.16623 0.96805 0.8174 0.0
H464 H 0.18489 0.88607 0.81222 0.0
C465 C 0.28532 0.90762 0.7355 0.0
C466 C 0.30231 0.92816 0.7172 0.0
C467 C 0.29296 0.95399 0.71913 0.0
C468 C 0.26707 0.95927 0.74002 0.0
C469 C 0.25083 0.93848 0.7582 0.0
C470 C 0.25964 0.91317 0.75534 0.0
C471 C 0.23835 0.89411 0.77475 0.0
C472 C 0.23277 0.87589 0.70707 0.0
C473 C 0.24511 0.87873 0.84722 0.0
C474 C 0.21605 0.91256 0.78871 0.0
C475 C 0.22354 0.93812 0.77993 0.0
C476 C 0.20599 0.95847 0.79084 0.0
C477 C 0.18009 0.95244 0.81004 0.0
C478 C 0.17207 0.92629 0.81698 0.0
C479 C 0.19042 0.90626 0.80676 0.0
H480 H 0.4203 0.79941 0.81751 0.0
H481 H 0.42879 0.80009 0.57084 0.0
H482 H 0.43748 0.75315 0.57279 0.0
H483 H 0.46576 0.74564 0.8617 0.0
H484 H 0.44431 0.73273 0.93354 0.0
H485 H 0.44493 0.76711 0.91521 0.0
H486 H 0.39524 0.76654 0.89082 0.0
H487 H 0.39449 0.73227 0.90903 0.0
H488 H 0.38214 0.74473 0.82012 0.0
H489 H 0.43955 0.70497 0.59949 0.0
H490 H 0.43153 0.66047 0.64704 0.0
H491 H 0.41693 0.69112 0.87324 0.0
C492 C 0.42423 0.78992 0.76363 0.0
C493 C 0.42381 0.80385 0.69399 0.0
C494 C 0.42949 0.79032 0.62537 0.0
C495 C 0.43434 0.76348 0.6258 0.0
C496 C 0.43337 0.75028 0.69515 0.0
C497 C 0.42837 0.76312 0.7628 0.0
C498 C 0.42472 0.74427 0.82814 0.0
C499 C 0.44622 0.74764 0.88819 0.0
C500 C 0.39754 0.74712 0.86408 0.0
C501 C 0.42752 0.71873 0.7863 0.0
C502 C 0.43325 0.72255 0.71004 0.0
C503 C 0.43542 0.70178 0.65928 0.0
C504 C 0.43095 0.67658 0.68676 0.0
C505 C 0.42386 0.67246 0.76381 0.0
C506 C 0.42264 0.69378 0.81428 0.0
H507 H 0.79189 0.41982 0.3679 0.0
H508 H 0.82355 0.4312 0.1415 0.0
H509 H 0.77921 0.43938 0.09186 0.0
H510 H 0.7393 0.38472 0.31648 0.0
H511 H 0.71683 0.39821 0.38476 0.0
H512 H 0.75106 0.39829 0.40482 0.0
H513 H 0.7501 0.44811 0.42421 0.0
H514 H 0.71568 0.44819 0.40508 0.0
H515 H 0.7371 0.46857 0.35017 0.0
H516 H 0.73095 0.43758 0.0638 0.0
H517 H 0.68389 0.42874 0.06094 0.0
H518 H 0.68377 0.42205 0.30793 0.0
C519 C 0.7895 0.42497 0.30842 0.0
C520 C 0.81104 0.42513 0.25851 0.0
C521 C 0.80729 0.43145 0.18077 0.0
C522 C 0.78217 0.43601 0.15215 0.0
C523 C 0.76115 0.43471 0.20243 0.0
C524 C 0.76467 0.42989 0.27934 0.0
C525 C 0.73891 0.42728 0.32037 0.0
C526 C 0.7364 0.40054 0.35881 0.0
C527 C 0.73523 0.44936 0.37838 0.0
C528 C 0.72031 0.42998 0.254 0.0
C529 C 0.73341 0.4345 0.1865 0.0
C530 C 0.72044 0.43481 0.11664 0.0
C531 C 0.69355 0.42988 0.11567 0.0
C532 C 0.67981 0.4247 0.1842 0.0
C533 C 0.69348 0.42569 0.25424 0.0
H534 H 0.06498 0.79353 0.68486 0.0
H535 H 0.0324 0.79774 0.91286 0.0
H536 H 0.02171 0.75109 0.90639 0.0
H537 H 0.02088 0.74181 0.60721 0.0
H538 H 0.04719 0.72699 0.55505 0.0
H539 H 0.04701 0.76155 0.57094 0.0
H540 H 0.09264 0.75853 0.63279 0.0
H541 H 0.09293 0.72409 0.61734 0.0
H542 H 0.09762 0.73687 0.71212 0.0
H543 H 0.02213 0.70287 0.88495 0.0
H544 H 0.0331 0.65764 0.84944 0.0
H545 H 0.06598 0.68456 0.63665 0.0
C546 C 0.05505 0.7848 0.73287 0.0
C547 C 0.04952 0.79939 0.79941 0.0
C548 C 0.03648 0.78717 0.86079 0.0
C549 C 0.03041 0.7606 0.85769 0.0
C550 C 0.03727 0.74656 0.79255 0.0
C551 C 0.04909 0.75835 0.73088 0.0
C552 C 0.0573 0.7386 0.67143 0.0
C553 C 0.04218 0.74247 0.59673 0.0
C554 C 0.08687 0.73958 0.65769 0.0
C555 C 0.04933 0.7137 0.71065 0.0
C556 C 0.03738 0.7187 0.77993 0.0
C557 C 0.03076 0.69874 0.82995 0.0
C558 C 0.03699 0.67315 0.80941 0.0
C559 C 0.04963 0.66779 0.73953 0.0
C560 C 0.05541 0.68823 0.68902 0.0
H561 H 0.80241 0.06808 0.34964 0.0
H562 H 0.80974 0.03881 0.11783 0.0
H563 H 0.76336 0.02777 0.11785 0.0
H564 H 0.75004 0.02385 0.41593 0.0
H565 H 0.73392 0.04941 0.46785 0.0
H566 H 0.76875 0.04999 0.45664 0.0
H567 H 0.76588 0.09589 0.39726 0.0
H568 H 0.73117 0.09548 0.40849 0.0
H569 H 0.74519 0.1011 0.31572 0.0
H570 H 0.71533 0.02519 0.13526 0.0
H571 H 0.66931 0.03363 0.16595 0.0
H572 H 0.69219 0.06782 0.38194 0.0
C573 C 0.79449 0.05911 0.2989 0.0
C574 C 0.81022 0.05423 0.23393 0.0
C575 C 0.79868 0.04221 0.16936 0.0
C576 C 0.77214 0.03596 0.16856 0.0
C577 C 0.75717 0.04186 0.23253 0.0
C578 C 0.76792 0.05323 0.29651 0.0
C579 C 0.74708 0.06062 0.35387 0.0
C580 C 0.75013 0.04503 0.42796 0.0
C581 C 0.74735 0.09001 0.36971 0.0
C582 C 0.72284 0.05254 0.31085 0.0
C583 C 0.72917 0.04119 0.24174 0.0
C584 C 0.71016 0.03375 0.18959 0.0
C585 C 0.68407 0.03872 0.2074 0.0
C586 C 0.67715 0.05134 0.27638 0.0
C587 C 0.69682 0.05764 0.3296 0.0
H588 H 0.56598 0.08125 0.63635 0.0
H589 H 0.57698 0.16445 0.63125 0.0
H590 H 0.56685 0.16699 0.76911 0.0
H591 H 0.51374 0.07946 0.78085 0.0
H592 H 0.52645 0.05085 0.82648 0.0
H593 H 0.53157 0.05584 0.72584 0.0
H594 H 0.58125 0.05134 0.74532 0.0
H595 H 0.57631 0.04633 0.84588 0.0
H596 H 0.59744 0.07194 0.81358 0.0
H597 H 0.55739 0.16038 0.90746 0.0
H598 H 0.55201 0.1451 0.03923 0.0
H599 H 0.55027 0.06547 0.95775 0.0
C600 C 0.56566 0.09997 0.66435 0.0
C601 C 0.5719 0.12275 0.62357 0.0
C602 C 0.57211 0.1469 0.66191 0.0
C603 C 0.56629 0.1485 0.73991 0.0
C604 C 0.56059 0.12568 0.779 0.0
C605 C 0.56039 0.10183 0.7428 0.0
C606 C 0.55587 0.08011 0.79964 0.0
C607 C 0.53039 0.06572 0.78215 0.0
C608 C 0.5791 0.06133 0.80118 0.0
C609 C 0.55387 0.09548 0.87339 0.0
C610 C 0.55627 0.12174 0.85985 0.0
C611 C 0.55555 0.13984 0.91884 0.0
C612 C 0.5527 0.13089 0.99386 0.0
C613 C 0.55099 0.10397 0.00992 0.0
C614 C 0.55125 0.08615 0.94817 0.0
H615 H 0.39771 0.53089 0.46561 0.0
H616 H 0.38165 0.60872 0.54858 0.0
H617 H 0.37546 0.62349 0.41656 0.0
H618 H 0.4335 0.55137 0.29324 0.0
H619 H 0.4205 0.52524 0.23648 0.0
H620 H 0.42521 0.52095 0.33759 0.0
H621 H 0.3768 0.50818 0.35258 0.0
H622 H 0.37192 0.51244 0.25174 0.0
H623 H 0.35193 0.52995 0.31878 0.0
H624 H 0.36668 0.62894 0.2773 0.0
H625 H 0.35782 0.62488 0.13894 0.0
H626 H 0.38258 0.54471 0.14427 0.0
C627 C 0.39343 0.55116 0.45643 0.0
C628 C 0.38998 0.5685 0.51847 0.0
C629 C 0.38394 0.59481 0.50286 0.0
C630 C 0.38062 0.6035 0.42775 0.0
C631 C 0.38377 0.58581 0.36838 0.0
C632 C 0.39033 0.56025 0.38169 0.0
C633 C 0.39165 0.54498 0.30768 0.0
C634 C 0.41937 0.53505 0.29289 0.0
C635 C 0.37189 0.52257 0.30773 0.0
C636 C 0.38414 0.56582 0.2509 0.0
C637 C 0.37972 0.58924 0.28726 0.0
C638 C 0.37058 0.61087 0.24799 0.0
C639 C 0.36556 0.60842 0.16974 0.0
C640 C 0.36995 0.58466 0.13146 0.0
C641 C 0.37976 0.56323 0.17228 0.0
H642 H 0.91111 0.35238 0.03704 0.0
H643 H 0.94183 0.43063 0.0349 0.0
H644 H 0.93589 0.43262 0.89541 0.0
H645 H 0.94205 0.33189 0.86663 0.0
H646 H 0.91551 0.31213 0.83302 0.0
H647 H 0.91986 0.31739 0.93379 0.0
H648 H 0.87287 0.33505 0.94421 0.0
H649 H 0.8683 0.3297 0.84346 0.0
H650 H 0.86281 0.36143 0.88363 0.0
H651 H 0.92889 0.42578 0.7578 0.0
H652 H 0.92108 0.41063 0.62709 0.0
H653 H 0.89593 0.33589 0.71411 0.0
C654 C 0.91605 0.37004 1.00703 0.0
C655 C 0.92688 0.39141 0.04634 0.0
C656 C 0.93367 0.41406 1.00546 0.0
C657 C 0.93026 0.41539 0.92645 0.0
C658 C 0.92009 0.39385 0.88901 0.0
C659 C 0.91302 0.37159 0.92758 0.0
C660 C 0.9039 0.35078 0.87233 0.0
C661 C 0.92138 0.32662 0.87672 0.0
C662 C 0.87527 0.34384 0.88678 0.0
C663 C 0.90725 0.3648 0.79687 0.0
C664 C 0.91647 0.38967 0.8083 0.0
C665 C 0.92168 0.40635 0.74799 0.0
C666 C 0.91742 0.39741 0.67374 0.0
C667 C 0.9082 0.37191 0.65994 0.0
C668 C 0.90287 0.35549 0.72268 0.0
H669 H 0.11417 0.92921 0.16898 0.0
H670 H 0.09228 0.84813 0.16102 0.0
H671 H 0.08165 0.84934 0.29839 0.0
H672 H 0.14576 0.92589 0.34934 0.0
H673 H 0.13544 0.95749 0.38135 0.0
H674 H 0.13904 0.95108 0.2809 0.0
H675 H 0.09143 0.96542 0.25804 0.0
H676 H 0.08767 0.97186 0.35855 0.0
H677 H 0.0656 0.95008 0.31081 0.0
H678 H 0.0744 0.85876 0.43605 0.0
H679 H 0.07354 0.87478 0.56794 0.0
H680 H 0.10287 0.94935 0.49106 0.0
C681 C 0.10676 0.91191 0.19629 0.0
C682 C 0.10392 0.88857 0.15462 0.0
C683 C 0.09468 0.86612 0.1922 0.0
C684 C 0.08846 0.86667 0.27 0.0
C685 C 0.09178 0.88982 0.30984 0.0
C686 C 0.10086 0.91202 0.27464 0.0
C687 C 0.10428 0.9338 0.33228 0.0
C688 C 0.13283 0.94257 0.33619 0.0
C689 C 0.08616 0.95664 0.31381 0.0
C690 C 0.09603 0.92022 0.40527 0.0
C691 C 0.08855 0.895 0.39056 0.0
C692 C 0.08035 0.87845 0.4484 0.0
C693 C 0.08015 0.88774 0.52356 0.0
C694 C 0.0885 0.9133 0.54108 0.0
C695 C 0.09621 0.9298 0.48038 0.0
H696 H 0.54084 0.40552 0.52063 0.0
H697 H 0.56939 0.33172 0.43601 0.0
H698 H 0.57698 0.31717 0.56789 0.0
H699 H 0.58645 0.41227 0.66948 0.0
H700 H 0.56423 0.42653 0.73713 0.0
H701 H 0.55881 0.43056 0.6364 0.0
H702 H 0.51263 0.41118 0.65078 0.0
H703 H 0.51794 0.40709 0.7517 0.0
H704 H 0.50866 0.37969 0.69381 0.0
H705 H 0.58455 0.31157 0.70632 0.0
H706 H 0.59213 0.31539 0.8448 0.0
H707 H 0.55833 0.39237 0.84367 0.0
C708 C 0.54823 0.38614 0.53015 0.0
C709 C 0.55464 0.36979 0.46792 0.0
C710 C 0.56471 0.34472 0.48254 0.0
C711 C 0.56886 0.33619 0.55735 0.0
C712 C 0.56276 0.35288 0.61726 0.0
C713 C 0.5526 0.37731 0.60484 0.0
C714 C 0.54921 0.39186 0.6797 0.0
C715 C 0.56566 0.41677 0.68071 0.0
C716 C 0.52039 0.3978 0.69488 0.0
C717 C 0.55957 0.37195 0.73575 0.0
C718 C 0.56706 0.34956 0.69822 0.0
C719 C 0.57853 0.32889 0.73648 0.0
C720 C 0.58287 0.33127 0.81498 0.0
C721 C 0.57576 0.35411 0.85474 0.0
C722 C 0.56352 0.37454 0.81476 0.0
H723 H 0.10177 0.51704 0.04414 0.0
H724 H 0.0723 0.59137 0.96687 0.0
H725 H 0.07042 0.60672 0.09959 0.0
H726 H 0.06247 0.51474 0.22262 0.0
H727 H 0.08829 0.49985 0.27645 0.0
H728 H 0.08539 0.49365 0.17555 0.0
H729 H 0.13281 0.5091 0.15552 0.0
H730 H 0.13583 0.51542 0.25613 0.0
H731 H 0.14226 0.54088 0.18836 0.0
H732 H 0.07571 0.6158 0.2371 0.0
H733 H 0.08647 0.61745 0.37429 0.0
H734 H 0.1106 0.53702 0.36692 0.0
C735 C 0.09441 0.53633 0.05537 0.0
C736 C 0.08745 0.55308 0.99479 0.0
C737 C 0.07825 0.57834 0.01192 0.0
C738 C 0.07686 0.58718 0.08729 0.0
C739 C 0.08442 0.57046 0.14537 0.0
C740 C 0.09278 0.54548 0.13072 0.0
C741 C 0.1009 0.53201 0.20396 0.0
C742 C 0.08321 0.50868 0.22062 0.0
C743 C 0.12966 0.52389 0.20077 0.0
C744 C 0.09655 0.55363 0.26143 0.0
C745 C 0.08688 0.57556 0.22613 0.0
C746 C 0.08289 0.59865 0.26568 0.0
C747 C 0.08916 0.59947 0.3433 0.0
C748 C 0.09917 0.57735 0.38075 0.0
C749 C 0.10251 0.55401 0.33958 0.0
H750 H 0.90617 0.11934 0.50928 0.0
H751 H 0.96532 0.05948 0.51024 0.0
H752 H 0.96087 0.05528 0.64985 0.0
H753 H 0.92669 0.15027 0.67917 0.0
H754 H 0.8945 0.15797 0.71289 0.0
H755 H 0.90053 0.15483 0.61212 0.0
H756 H 0.86432 0.1201 0.60202 0.0
H757 H 0.85809 0.12321 0.70281 0.0
H758 H 0.86558 0.0919 0.66258 0.0
H759 H 0.95187 0.0589 0.78842 0.0
H760 H 0.93897 0.0702 0.91923 0.0
H761 H 0.88627 0.12875 0.83142 0.0
C762 C 0.91776 0.10504 0.53896 0.0
C763 C 0.93607 0.08968 0.49924 0.0
C764 C 0.95134 0.07153 0.53989 0.0
C765 C 0.94885 0.06892 0.61901 0.0
C766 C 0.93102 0.08466 0.65676 0.0
C767 C 0.91569 0.10236 0.61837 0.0
C768 C 0.89912 0.11788 0.67365 0.0
C769 C 0.90561 0.14696 0.66918 0.0
C770 C 0.87005 0.11297 0.65941 0.0
C771 C 0.90781 0.10631 0.74899 0.0
C772 C 0.92608 0.08707 0.73762 0.0
C773 C 0.93754 0.07391 0.79812 0.0
C774 C 0.93023 0.08067 0.87243 0.0
C775 C 0.91174 0.10055 0.88601 0.0
C776 C 0.90026 0.11334 0.82308 0.0
H777 H 0.36336 0.87301 0.31402 0.0
H778 H 0.35011 0.95145 0.39549 0.0
H779 H 0.35254 0.9676 0.2636 0.0
H780 H 0.40919 0.88913 0.17076 0.0
H781 H 0.3978 0.86566 0.10219 0.0
H782 H 0.3936 0.85978 0.20266 0.0
H783 H 0.34407 0.85406 0.18241 0.0
H784 H 0.34813 0.85991 0.08174 0.0
H785 H 0.3258 0.87944 0.13641 0.0
H786 H 0.35848 0.97582 0.1249 0.0
H787 H 0.36761 0.97563 0.98692 0.0
H788 H 0.37645 0.89202 0.99176 0.0
C789 C 0.36053 0.89352 0.30403 0.0
C790 C 0.35662 0.91095 0.36563 0.0
C791 C 0.35349 0.93772 0.34982 0.0
C792 C 0.35464 0.94708 0.27487 0.0
C793 C 0.35882 0.92947 0.21581 0.0
C794 C 0.36164 0.90324 0.22923 0.0
C795 C 0.3669 0.88869 0.15528 0.0
C796 C 0.39345 0.87502 0.15791 0.0
C797 C 0.34491 0.86938 0.13795 0.0
C798 C 0.36697 0.91093 0.09853 0.0
C799 C 0.36214 0.93424 0.13494 0.0
C800 C 0.36216 0.95768 0.0957 0.0
C801 C 0.36752 0.95739 0.01736 0.0
C802 C 0.37283 0.93384 0.97857 0.0
C803 C 0.37216 0.91026 0.01975 0.0
loop_
_geom_bond_atom_site_label_1
_geom_bond_atom_site_label_2
_geom_bond_distance
_geom_bond_site_symmetry_2
_ccdc_geom_bond_type
Co0 N4 2.148 . S
Co0 N10 2.128 . S
Co0 N20 2.194 . S
Co0 O25 2.351 . S
Co0 O26 2.155 . S
Co0 O27 2.096 . S
C1 N4 1.301 . S
C1 N5 1.328 . S
C1 H6 0.930 . S
C2 C3 1.333 . S
C2 N4 1.317 . S
C2 H7 0.930 . S
C3 C2 1.333 . S
C3 N5 1.350 . S
C3 H29 0.931 . S
N4 Co0 2.148 . S
N4 C1 1.301 . S
N4 C2 1.317 . S
N5 C1 1.328 . S
N5 C3 1.350 . S
H6 C1 0.930 . S
H7 C2 0.930 . S
C8 O9 1.224 . S
C8 O27 1.247 . S
O9 C8 1.224 . S
N10 Co0 2.128 . S
N10 C11 1.355 . S
N10 C13 1.311 . S
C11 N10 1.355 . S
C11 C12 1.363 . S
C11 H23 0.929 . S
C12 C11 1.363 . S
C12 N14 1.375 . S
C12 H30 0.931 . S
C13 N10 1.311 . S
C13 N14 1.347 . S
C13 H24 0.929 . S
N14 C12 1.375 . S
N14 C13 1.347 . S
C15 C18 1.365 . S
C15 N20 1.328 . S
C15 H21 0.929 . S
C16 C17 1.362 . S
C16 C19 1.378 . S
C16 H31 0.929 . S
C17 C16 1.362 . S
C17 C18 1.366 . S
C18 C15 1.365 . S
C18 C17 1.366 . S
C18 H32 0.930 . S
C19 C16 1.378 . S
C19 N20 1.315 . S
C19 H22 0.930 . S
N20 Co0 2.194 . S
N20 C15 1.328 . S
N20 C19 1.315 . S
H21 C15 0.929 . S
H22 C19 0.930 . S
H23 C11 0.929 . S
H24 C13 0.929 . S
O25 Co0 2.351 . S
O25 C28 1.244 . S
O26 Co0 2.155 . S
O26 C28 1.240 . S
O27 Co0 2.096 . S
O27 C8 1.247 . S
C28 O25 1.244 . S
C28 O26 1.240 . S
H29 C3 0.931 . S
H30 C12 0.931 . S
H31 C16 0.929 . S
H32 C18 0.930 . S
Co33 N37 2.148 . S
Co33 N43 2.128 . S
Co33 N53 2.194 . S
Co33 O58 2.351 . S
Co33 O59 2.155 . S
Co33 O60 2.096 . S
C34 N37 1.301 . S
C34 N38 1.328 . S
C34 H39 0.930 . S
C35 C36 1.333 . S
C35 N37 1.317 . S
C35 H40 0.930 . S
C36 C35 1.333 . S
C36 N38 1.350 . S
C36 H62 0.931 . S
N37 Co33 2.148 . S
N37 C34 1.301 . S
N37 C35 1.317 . S
N38 C34 1.328 . S
N38 C36 1.350 . S
H39 C34 0.930 . S
H40 C35 0.930 . S
C41 O42 1.224 . S
C41 O60 1.247 . S
O42 C41 1.224 . S
N43 Co33 2.128 . S
N43 C44 1.355 . S
N43 C46 1.311 . S
C44 N43 1.355 . S
C44 C45 1.363 1_556 S
C44 H56 0.929 . S
C45 C44 1.363 1_554 S
C45 N47 1.375 . S
C45 H63 0.931 . S
C46 N43 1.311 . S
C46 N47 1.347 1_556 S
C46 H57 0.929 . S
N47 C45 1.375 . S
N47 C46 1.347 1_554 S
C48 C51 1.365 . S
C48 N53 1.328 . S
C48 H54 0.929 . S
C49 C50 1.362 . S
C49 C52 1.378 . S
C49 H64 0.929 . S
C50 C49 1.362 . S
C50 C51 1.366 . S
C51 C48 1.365 . S
C51 C50 1.366 . S
C51 H65 0.930 . S
C52 C49 1.378 . S
C52 N53 1.315 . S
C52 H55 0.930 . S
N53 Co33 2.194 . S
N53 C48 1.328 . S
N53 C52 1.315 . S
H54 C48 0.929 . S
H55 C52 0.930 . S
H56 C44 0.929 . S
H57 C46 0.929 . S
O58 Co33 2.351 . S
O58 C61 1.244 . S
O59 Co33 2.155 . S
O59 C61 1.240 . S
O60 Co33 2.096 . S
O60 C41 1.247 . S
C61 O58 1.244 . S
C61 O59 1.240 . S
H62 C36 0.931 . S
H63 C45 0.931 . S
H64 C49 0.929 . S
H65 C51 0.930 . S
Co66 N70 2.148 . S
Co66 N76 2.128 . S
Co66 N86 2.194 . S
Co66 O91 2.351 . S
Co66 O92 2.155 . S
Co66 O93 2.096 . S
C67 N70 1.301 . S
C67 N71 1.328 . S
C67 H72 0.930 . S
C68 C69 1.333 . S
C68 N70 1.317 . S
C68 H73 0.930 . S
C69 C68 1.333 . S
C69 N71 1.350 . S
C69 H95 0.931 . S
N70 Co66 2.148 . S
N70 C67 1.301 . S
N70 C68 1.317 . S
N71 C67 1.328 . S
N71 C69 1.350 . S
H72 C67 0.930 . S
H73 C68 0.930 . S
C74 O75 1.224 . S
C74 O93 1.247 . S
O75 C74 1.224 . S
N76 Co66 2.128 . S
N76 C77 1.355 . S
N76 C79 1.311 . S
C77 N76 1.355 . S
C77 C78 1.363 . S
C77 H89 0.929 . S
C78 C77 1.363 . S
C78 N80 1.375 . S
C78 H96 0.931 . S
C79 N76 1.311 . S
C79 N80 1.347 . S
C79 H90 0.929 . S
N80 C78 1.375 . S
N80 C79 1.347 . S
C81 C84 1.365 . S
C81 N86 1.328 . S
C81 H87 0.929 . S
C82 C83 1.362 . S
C82 C85 1.378 . S
C82 H97 0.929 . S
C83 C82 1.362 . S
C83 C84 1.366 . S
C84 C81 1.365 . S
C84 C83 1.366 . S
C84 H98 0.930 . S
C85 C82 1.378 . S
C85 N86 1.315 . S
C85 H88 0.930 . S
N86 Co66 2.194 . S
N86 C81 1.328 . S
N86 C85 1.315 . S
H87 C81 0.929 . S
H88 C85 0.930 . S
H89 C77 0.929 . S
H90 C79 0.929 . S
O91 Co66 2.351 . S
O91 C94 1.244 . S
O92 Co66 2.155 . S
O92 C94 1.240 . S
O93 Co66 2.096 . S
O93 C74 1.247 . S
C94 O91 1.244 . S
C94 O92 1.240 . S
H95 C69 0.931 . S
H96 C78 0.931 . S
H97 C82 0.929 . S
H98 C84 0.930 . S
Co99 N103 2.148 . S
Co99 N109 2.128 . S
Co99 N119 2.194 . S
Co99 O124 2.351 . S
Co99 O125 2.155 . S
Co99 O126 2.096 . S
C100 N103 1.301 . S
C100 N104 1.328 . S
C100 H105 0.930 . S
C101 C102 1.333 . S
C101 N103 1.317 . S
C101 H106 0.930 . S
C102 C101 1.333 . S
C102 N104 1.350 . S
C102 H128 0.931 . S
N103 Co99 2.148 . S
N103 C100 1.301 . S
N103 C101 1.317 . S
N104 C100 1.328 . S
N104 C102 1.350 . S
H105 C100 0.930 . S
H106 C101 0.930 . S
C107 O108 1.224 . S
C107 O126 1.247 . S
O108 C107 1.224 . S
N109 Co99 2.128 . S
N109 C110 1.355 . S
N109 C112 1.311 . S
C110 N109 1.355 . S
C110 C111 1.363 1_556 S
C110 H122 0.929 . S
C111 C110 1.363 1_554 S
C111 N113 1.375 . S
C111 H129 0.931 . S
C112 N109 1.311 . S
C112 N113 1.347 1_556 S
C112 H123 0.929 . S
N113 C111 1.375 . S
N113 C112 1.347 1_554 S
C114 C117 1.365 . S
C114 N119 1.328 . S
C114 H120 0.929 . S
C115 C116 1.362 . S
C115 C118 1.378 . S
C115 H130 0.929 . S
C116 C115 1.362 . S
C116 C117 1.366 . S
C117 C114 1.365 . S
C117 C116 1.366 . S
C117 H131 0.930 . S
C118 C115 1.378 . S
C118 N119 1.315 . S
C118 H121 0.930 . S
N119 Co99 2.194 . S
N119 C114 1.328 . S
N119 C118 1.315 . S
H120 C114 0.929 . S
H121 C118 0.930 . S
H122 C110 0.929 . S
H123 C112 0.929 . S
O124 Co99 2.351 . S
O124 C127 1.244 . S
O125 Co99 2.155 . S
O125 C127 1.240 . S
O126 Co99 2.096 . S
O126 C107 1.247 . S
C127 O124 1.244 . S
C127 O125 1.240 . S
H128 C102 0.931 . S
H129 C111 0.931 . S
H130 C115 0.929 . S
H131 C117 0.930 . S
Co132 N136 2.148 . S
Co132 N142 2.128 . S
Co132 N152 2.194 . S
Co132 O157 2.351 . S
Co132 O158 2.155 . S
Co132 O159 2.096 . S
C133 N136 1.301 . S
C133 N137 1.328 . S
C133 H138 0.930 . S
C134 C135 1.333 . S
C134 N136 1.317 . S
C134 H139 0.930 . S
C135 C134 1.333 . S
C135 N137 1.350 . S
C135 H161 0.931 . S
N136 Co132 2.148 . S
N136 C133 1.301 . S
N136 C134 1.317 . S
N137 C133 1.328 . S
N137 C135 1.350 . S
H138 C133 0.930 . S
H139 C134 0.930 . S
C140 O141 1.224 . S
C140 O159 1.247 . S
O141 C140 1.224 . S
N142 Co132 2.128 . S
N142 C143 1.355 . S
N142 C145 1.311 . S
C143 N142 1.355 . S
C143 C144 1.363 1_554 S
C143 H155 0.929 . S
C144 C143 1.363 1_556 S
C144 N146 1.375 . S
C144 H162 0.931 . S
C145 N142 1.311 . S
C145 N146 1.347 1_554 S
C145 H156 0.929 . S
N146 C144 1.375 . S
N146 C145 1.347 1_556 S
C147 C150 1.365 . S
C147 N152 1.328 . S
C147 H153 0.929 . S
C148 C149 1.362 . S
C148 C151 1.378 . S
C148 H163 0.929 . S
C149 C148 1.362 . S
C149 C150 1.366 . S
C150 C147 1.365 . S
C150 C149 1.366 . S
C150 H164 0.930 . S
C151 C148 1.378 . S
C151 N152 1.315 . S
C151 H154 0.930 . S
N152 Co132 2.194 . S
N152 C147 1.328 . S
N152 C151 1.315 . S
H153 C147 0.929 . S
H154 C151 0.930 . S
H155 C143 0.929 . S
H156 C145 0.929 . S
O157 Co132 2.351 . S
O157 C160 1.244 . S
O158 Co132 2.155 . S
O158 C160 1.240 . S
O159 Co132 2.096 . S
O159 C140 1.247 . S
C160 O157 1.244 . S
C160 O158 1.240 . S
H161 C135 0.931 . S
H162 C144 0.931 . S
H163 C148 0.929 . S
H164 C150 0.930 . S
Co165 N169 2.148 . S
Co165 N175 2.128 . S
Co165 N185 2.194 . S
Co165 O190 2.351 . S
Co165 O191 2.155 . S
Co165 O192 2.096 . S
C166 N169 1.301 . S
C166 N170 1.328 . S
C166 H171 0.930 . S
C167 C168 1.333 . S
C167 N169 1.317 . S
C167 H172 0.930 . S
C168 C167 1.333 . S
C168 N170 1.350 . S
C168 H194 0.931 . S
N169 Co165 2.148 . S
N169 C166 1.301 . S
N169 C167 1.317 . S
N170 C166 1.328 . S
N170 C168 1.350 . S
H171 C166 0.930 . S
H172 C167 0.930 . S
C173 O174 1.224 . S
C173 O192 1.247 . S
O174 C173 1.224 . S
N175 Co165 2.128 . S
N175 C176 1.355 . S
N175 C178 1.311 . S
C176 N175 1.355 . S
C176 C177 1.363 . S
C176 H188 0.929 . S
C177 C176 1.363 . S
C177 N179 1.375 . S
C177 H195 0.931 . S
C178 N175 1.311 . S
C178 N179 1.347 . S
C178 H189 0.929 . S
N179 C177 1.375 . S
N179 C178 1.347 . S
C180 C183 1.365 . S
C180 N185 1.328 . S
C180 H186 0.929 . S
C181 C182 1.362 . S
C181 C184 1.378 . S
C181 H196 0.929 . S
C182 C181 1.362 . S
C182 C183 1.366 . S
C183 C180 1.365 . S
C183 C182 1.366 . S
C183 H197 0.930 . S
C184 C181 1.378 . S
C184 N185 1.315 . S
C184 H187 0.930 . S
N185 Co165 2.194 . S
N185 C180 1.328 . S
N185 C184 1.315 . S
H186 C180 0.929 . S
H187 C184 0.930 . S
H188 C176 0.929 . S
H189 C178 0.929 . S
O190 Co165 2.351 . S
O190 C193 1.244 . S
O191 Co165 2.155 . S
O191 C193 1.240 . S
O192 Co165 2.096 . S
O192 C173 1.247 . S
C193 O190 1.244 . S
C193 O191 1.240 . S
H194 C168 0.931 . S
H195 C177 0.931 . S
H196 C181 0.929 . S
H197 C183 0.930 . S
Co198 N202 2.148 . S
Co198 N208 2.128 . S
Co198 N218 2.194 . S
Co198 O223 2.351 . S
Co198 O224 2.155 . S
Co198 O225 2.096 . S
C199 N202 1.301 . S
C199 N203 1.328 . S
C199 H204 0.930 . S
C200 C201 1.333 . S
C200 N202 1.317 . S
C200 H205 0.930 . S
C201 C200 1.333 . S
C201 N203 1.350 . S
C201 H227 0.931 . S
N202 Co198 2.148 . S
N202 C199 1.301 . S
N202 C200 1.317 . S
N203 C199 1.328 . S
N203 C201 1.350 . S
H204 C199 0.930 . S
H205 C200 0.930 . S
C206 O207 1.224 . S
C206 O225 1.247 . S
O207 C206 1.224 . S
N208 Co198 2.128 . S
N208 C209 1.355 . S
N208 C211 1.311 . S
C209 N208 1.355 . S
C209 C210 1.363 1_554 S
C209 H221 0.929 . S
C210 C209 1.363 1_556 S
C210 N212 1.375 . S
C210 H228 0.931 . S
C211 N208 1.311 . S
C211 N212 1.347 1_554 S
C211 H222 0.929 . S
N212 C210 1.375 . S
N212 C211 1.347 1_556 S
C213 C216 1.365 . S
C213 N218 1.328 . S
C213 H219 0.929 . S
C214 C215 1.362 . S
C214 C217 1.378 . S
C214 H229 0.929 . S
C215 C214 1.362 . S
C215 C216 1.366 . S
C216 C213 1.365 . S
C216 C215 1.366 . S
C216 H230 0.930 . S
C217 C214 1.378 . S
C217 N218 1.315 . S
C217 H220 0.930 . S
N218 Co198 2.194 . S
N218 C213 1.328 . S
N218 C217 1.315 . S
H219 C213 0.929 . S
H220 C217 0.930 . S
H221 C209 0.929 . S
H222 C211 0.929 . S
O223 Co198 2.351 . S
O223 C226 1.244 . S
O224 Co198 2.155 . S
O224 C226 1.240 . S
O225 Co198 2.096 . S
O225 C206 1.247 . S
C226 O223 1.244 . S
C226 O224 1.240 . S
H227 C201 0.931 . S
H228 C210 0.931 . S
H229 C214 0.929 . S
H230 C216 0.930 . S
Co231 N235 2.148 . S
Co231 N241 2.128 . S
Co231 N251 2.194 . S
Co231 O256 2.351 . S
Co231 O257 2.155 . S
Co231 O258 2.096 . S
C232 N235 1.301 . S
C232 N236 1.328 . S
C232 H237 0.930 . S
C233 C234 1.333 . S
C233 N235 1.317 . S
C233 H238 0.930 . S
C234 C233 1.333 . S
C234 N236 1.350 . S
C234 H260 0.931 . S
N235 Co231 2.148 . S
N235 C232 1.301 . S
N235 C233 1.317 . S
N236 C232 1.328 . S
N236 C234 1.350 . S
H237 C232 0.930 . S
H238 C233 0.930 . S
C239 O240 1.224 . S
C239 O258 1.247 . S
O240 C239 1.224 . S
N241 Co231 2.128 . S
N241 C242 1.355 . S
N241 C244 1.311 . S
C242 N241 1.355 . S
C242 C243 1.363 . S
C242 H254 0.929 . S
C243 C242 1.363 . S
C243 N245 1.375 . S
C243 H261 0.931 . S
C244 N241 1.311 . S
C244 N245 1.347 . S
C244 H255 0.929 . S
N245 C243 1.375 . S
N245 C244 1.347 . S
C246 C249 1.365 . S
C246 N251 1.328 . S
C246 H252 0.929 . S
C247 C248 1.362 . S
C247 C250 1.378 . S
C247 H262 0.929 . S
C248 C247 1.362 . S
C248 C249 1.366 . S
C249 C246 1.365 . S
C249 C248 1.366 . S
C249 H263 0.930 . S
C250 C247 1.378 . S
C250 N251 1.315 . S
C250 H253 0.930 . S
N251 Co231 2.194 . S
N251 C246 1.328 . S
N251 C250 1.315 . S
H252 C246 0.929 . S
H253 C250 0.930 . S
H254 C242 0.929 . S
H255 C244 0.929 . S
O256 Co231 2.351 . S
O256 C259 1.244 . S
O257 Co231 2.155 . S
O257 C259 1.240 . S
O258 Co231 2.096 . S
O258 C239 1.247 . S
C259 O256 1.244 . S
C259 O257 1.240 . S
H260 C234 0.931 . S
H261 C243 0.931 . S
H262 C247 0.929 . S
H263 C249 0.930 . S
H264 C276 0.930 . S
H265 C278 0.930 . S
H266 C279 0.930 . S
H267 C283 0.959 . S
H268 C283 0.959 . S
H269 C283 0.961 . S
H270 C284 0.960 . S
H271 C284 0.961 . S
H272 C284 0.959 . S
H273 C287 0.929 . S
H274 C288 0.931 . S
H275 C290 0.930 . S
C276 H264 0.930 . S
C276 C277 1.399 . S
C276 C281 1.399 . S
C277 C276 1.399 . S
C277 C278 1.376 . S
C278 H265 0.930 . S
C278 C277 1.376 . S
C278 C279 1.388 1_565 S
C279 H266 0.930 . S
C279 C278 1.388 1_545 S
C279 C280 1.390 . S
C280 C279 1.390 . S
C280 C281 1.394 1_545 S
C280 C286 1.465 . S
C281 C276 1.399 . S
C281 C280 1.394 1_565 S
C281 C282 1.516 . S
C282 C281 1.516 . S
C282 C283 1.502 . S
C282 C284 1.561 . S
C282 C285 1.526 1_565 S
C283 H267 0.959 . S
C283 H268 0.959 . S
C283 H269 0.961 . S
C283 C282 1.502 . S
C284 H270 0.960 . S
C284 H271 0.961 . S
C284 H272 0.959 . S
C284 C282 1.561 . S
C285 C282 1.526 1_545 S
C285 C286 1.396 . S
C285 C290 1.390 . S
C286 C280 1.465 . S
C286 C285 1.396 . S
C286 C287 1.399 . S
C287 H273 0.929 . S
C287 C286 1.399 . S
C287 C288 1.385 . S
C288 H274 0.931 . S
C288 C287 1.385 . S
C288 C289 1.389 . S
C289 C288 1.389 . S
C289 C290 1.387 . S
C290 H275 0.930 . S
C290 C285 1.390 . S
C290 C289 1.387 . S
H291 C303 0.930 . S
H292 C305 0.930 . S
H293 C306 0.930 . S
H294 C310 0.959 . S
H295 C310 0.959 . S
H296 C310 0.961 . S
H297 C311 0.960 . S
H298 C311 0.961 . S
H299 C311 0.959 . S
H300 C314 0.929 . S
H301 C315 0.931 . S
H302 C317 0.930 . S
C303 H291 0.930 . S
C303 C304 1.399 . S
C303 C308 1.399 . S
C304 C303 1.399 . S
C304 C305 1.376 . S
C305 H292 0.930 . S
C305 C304 1.376 . S
C305 C306 1.388 . S
C306 H293 0.930 . S
C306 C305 1.388 . S
C306 C307 1.390 . S
C307 C306 1.390 . S
C307 C308 1.394 . S
C307 C313 1.465 . S
C308 C303 1.399 . S
C308 C307 1.394 . S
C308 C309 1.516 1_554 S
C309 C308 1.516 1_556 S
C309 C310 1.502 . S
C309 C311 1.561 . S
C309 C312 1.526 . S
C310 H294 0.959 . S
C310 H295 0.959 . S
C310 H296 0.961 . S
C310 C309 1.502 . S
C311 H297 0.960 . S
C311 H298 0.961 . S
C311 H299 0.959 . S
C311 C309 1.561 . S
C312 C309 1.526 . S
C312 C313 1.396 1_556 S
C312 C317 1.390 . S
C313 C307 1.465 . S
C313 C312 1.396 1_554 S
C313 C314 1.399 . S
C314 H300 0.929 . S
C314 C313 1.399 . S
C314 C315 1.385 1_554 S
C315 H301 0.931 . S
C315 C314 1.385 1_556 S
C315 C316 1.389 . S
C316 C315 1.389 . S
C316 C317 1.387 . S
C317 H302 0.930 . S
C317 C312 1.390 . S
C317 C316 1.387 . S
H318 C330 0.930 . S
H319 C332 0.930 . S
H320 C333 0.930 . S
H321 C337 0.959 1_655 S
H322 C337 0.959 . S
H323 C337 0.961 1_655 S
H324 C338 0.960 . S
H325 C338 0.961 . S
H326 C338 0.959 . S
H327 C341 0.937 . S
H328 C342 0.931 . S
H329 C344 0.930 . S
C330 H318 0.930 . S
C330 C331 1.399 . S
C330 C335 1.399 . S
C331 C330 1.399 . S
C331 C332 1.376 . S
C332 H319 0.930 . S
C332 C331 1.376 . S
C332 C333 1.388 . S
C333 H320 0.930 . S
C333 C332 1.388 . S
C333 C334 1.390 . S
C334 C333 1.390 . S
C334 C335 1.394 . S
C334 C340 1.465 1_655 S
C335 C330 1.399 . S
C335 C334 1.394 . S
C335 C336 1.516 1_655 S
C336 C335 1.516 1_455 S
C336 C337 1.502 . S
C336 C338 1.561 . S
C336 C339 1.526 . S
C337 H321 0.959 1_455 S
C337 H322 0.959 . S
C337 H323 0.961 1_455 S
C337 C336 1.502 . S
C338 H324 0.960 . S
C338 H325 0.961 . S
C338 H326 0.959 . S
C338 C336 1.561 . S
C339 C336 1.526 . S
C339 C340 1.396 . S
C339 C344 1.390 . S
C340 C334 1.465 1_455 S
C340 C339 1.396 . S
C340 C341 1.399 . S
C341 H327 0.937 . S
C341 C340 1.399 . S
C341 C342 1.385 . S
C342 H328 0.931 . S
C342 C341 1.385 . S
C342 C343 1.389 . S
C343 C342 1.389 . S
C343 C344 1.387 . S
C344 H329 0.930 . S
C344 C339 1.390 . S
C344 C343 1.387 . S
H345 C357 0.930 . S
H346 C359 0.930 . S
H347 C360 0.930 . S
H348 C364 0.959 . S
H349 C364 0.959 . S
H350 C364 0.961 . S
H351 C365 0.960 . S
H352 C365 0.961 . S
H353 C365 0.959 . S
H354 C368 0.929 . S
H355 C369 0.931 . S
H356 C371 0.930 . S
C357 H345 0.930 . S
C357 C358 1.399 . S
C357 C362 1.399 . S
C358 C357 1.399 . S
C358 C359 1.376 . S
C359 H346 0.930 . S
C359 C358 1.376 . S
C359 C360 1.388 1_655 S
C360 H347 0.930 . S
C360 C359 1.388 1_455 S
C360 C361 1.390 . S
C361 C360 1.390 . S
C361 C362 1.394 1_455 S
C361 C367 1.465 1_544 S
C362 C357 1.399 . S
C362 C361 1.394 1_655 S
C362 C363 1.516 1_554 S
C363 C362 1.516 1_556 S
C363 C364 1.502 1_545 S
C363 C365 1.561 . S
C363 C366 1.526 1_645 S
C364 H348 0.959 . S
C364 H349 0.959 . S
C364 H350 0.961 . S
C364 C363 1.502 1_565 S
C365 H351 0.960 . S
C365 H352 0.961 . S
C365 H353 0.959 . S
C365 C363 1.561 . S
C366 C363 1.526 1_465 S
C366 C367 1.396 . S
C366 C371 1.390 . S
C367 C361 1.465 1_566 S
C367 C366 1.396 . S
C367 C368 1.399 1_556 S
C368 H354 0.929 . S
C368 C367 1.399 1_554 S
C368 C369 1.385 1_554 S
C369 H355 0.931 . S
C369 C368 1.385 1_556 S
C369 C370 1.389 . S
C370 C369 1.389 . S
C370 C371 1.387 . S
C371 H356 0.930 . S
C371 C366 1.390 . S
C371 C370 1.387 . S
H372 C384 0.930 . S
H373 C386 0.930 . S
H374 C387 0.930 . S
H375 C391 0.959 . S
H376 C391 0.959 . S
H377 C391 0.961 . S
H378 C392 0.960 . S
H379 C392 0.961 . S
H380 C392 0.959 . S
H381 C395 0.929 . S
H382 C396 0.931 . S
H383 C398 0.930 . S
C384 H372 0.930 . S
C384 C385 1.399 . S
C384 C389 1.399 . S
C385 C384 1.399 . S
C385 C386 1.376 . S
C386 H373 0.930 . S
C386 C385 1.376 . S
C386 C387 1.388 . S
C387 H374 0.930 . S
C387 C386 1.388 . S
C387 C388 1.390 . S
C388 C387 1.390 . S
C388 C389 1.394 . S
C388 C394 1.465 . S
C389 C384 1.399 . S
C389 C388 1.394 . S
C389 C390 1.516 . S
C390 C389 1.516 . S
C390 C391 1.502 . S
C390 C392 1.561 . S
C390 C393 1.526 . S
C391 H375 0.959 . S
C391 H376 0.959 . S
C391 H377 0.961 . S
C391 C390 1.502 . S
C392 H378 0.960 . S
C392 H379 0.961 . S
C392 H380 0.959 . S
C392 C390 1.561 . S
C393 C390 1.526 . S
C393 C394 1.396 . S
C393 C398 1.390 . S
C394 C388 1.465 . S
C394 C393 1.396 . S
C394 C395 1.399 . S
C395 H381 0.929 . S
C395 C394 1.399 . S
C395 C396 1.385 . S
C396 H382 0.931 . S
C396 C395 1.385 . S
C396 C397 1.389 . S
C397 C396 1.389 . S
C397 C398 1.387 . S
C398 H383 0.930 . S
C398 C393 1.390 . S
C398 C397 1.387 . S
H399 C411 0.930 . S
H400 C413 0.930 . S
H401 C414 0.930 . S
H402 C418 0.959 . S
H403 C418 0.959 . S
H404 C418 0.961 . S
H405 C419 0.960 . S
H406 C419 0.961 . S
H407 C419 0.959 . S
H408 C422 0.929 . S
H409 C423 0.931 . S
H410 C425 0.930 . S
C411 H399 0.930 . S
C411 C412 1.399 . S
C411 C416 1.399 . S
C412 C411 1.399 . S
C412 C413 1.376 . S
C413 H400 0.930 . S
C413 C412 1.376 . S
C413 C414 1.388 . S
C414 H401 0.930 . S
C414 C413 1.388 . S
C414 C415 1.390 . S
C415 C414 1.390 . S
C415 C416 1.394 . S
C415 C421 1.465 . S
C416 C411 1.399 . S
C416 C415 1.394 . S
C416 C417 1.516 . S
C417 C416 1.516 . S
C417 C418 1.502 . S
C417 C419 1.561 . S
C417 C420 1.526 . S
C418 H402 0.959 . S
C418 H403 0.959 . S
C418 H404 0.961 . S
C418 C417 1.502 . S
C419 H405 0.960 . S
C419 H406 0.961 . S
C419 H407 0.959 . S
C419 C417 1.561 . S
C420 C417 1.526 . S
C420 C421 1.396 . S
C420 C425 1.390 . S
C421 C415 1.465 . S
C421 C420 1.396 . S
C421 C422 1.399 . S
C422 H408 0.929 . S
C422 C421 1.399 . S
C422 C423 1.385 . S
C423 H409 0.931 . S
C423 C422 1.385 . S
C423 C424 1.389 . S
C424 C423 1.389 . S
C424 C425 1.387 . S
C425 H410 0.930 . S
C425 C420 1.390 . S
C425 C424 1.387 . S
H426 C438 0.930 . S
H427 C440 0.930 . S
H428 C441 0.930 . S
H429 C445 0.959 . S
H430 C445 0.959 . S
H431 C445 0.961 . S
H432 C446 0.960 . S
H433 C446 0.961 . S
H434 C446 0.959 . S
H435 C449 0.929 . S
H436 C450 0.931 . S
H437 C452 0.930 . S
C438 H426 0.930 . S
C438 C439 1.399 . S
C438 C443 1.399 . S
C439 C438 1.399 . S
C439 C440 1.376 . S
C440 H427 0.930 . S
C440 C439 1.376 . S
C440 C441 1.388 . S
C441 H428 0.930 . S
C441 C440 1.388 . S
C441 C442 1.390 . S
C442 C441 1.390 . S
C442 C443 1.394 . S
C442 C448 1.465 . S
C443 C438 1.399 . S
C443 C442 1.394 . S
C443 C444 1.516 . S
C444 C443 1.516 . S
C444 C445 1.502 . S
C444 C446 1.561 . S
C444 C447 1.526 . S
C445 H429 0.959 . S
C445 H430 0.959 . S
C445 H431 0.961 . S
C445 C444 1.502 . S
C446 H432 0.960 . S
C446 H433 0.961 . S
C446 H434 0.959 . S
C446 C444 1.561 . S
C447 C444 1.526 . S
C447 C448 1.396 . S
C447 C452 1.390 . S
C448 C442 1.465 . S
C448 C447 1.396 . S
C448 C449 1.399 . S
C449 H435 0.929 . S
C449 C448 1.399 . S
C449 C450 1.385 . S
C450 H436 0.931 . S
C450 C449 1.385 . S
C450 C451 1.389 . S
C451 C450 1.389 . S
C451 C452 1.387 . S
C452 H437 0.930 . S
C452 C447 1.390 . S
C452 C451 1.387 . S
H453 C465 0.930 . S
H454 C467 0.930 . S
H455 C468 0.930 . S
H456 C472 0.959 . S
H457 C472 0.959 . S
H458 C472 0.961 . S
H459 C473 0.960 . S
H460 C473 0.961 . S
H461 C473 0.959 . S
H462 C476 0.929 . S
H463 C477 0.931 . S
H464 C479 0.930 . S
C465 H453 0.930 . S
C465 C466 1.399 . S
C465 C470 1.399 . S
C466 C465 1.399 . S
C466 C467 1.376 . S
C467 H454 0.930 . S
C467 C466 1.376 . S
C467 C468 1.388 . S
C468 H455 0.930 . S
C468 C467 1.388 . S
C468 C469 1.390 . S
C469 C468 1.390 . S
C469 C470 1.394 . S
C469 C475 1.465 . S
C470 C465 1.399 . S
C470 C469 1.394 . S
C470 C471 1.516 . S
C471 C470 1.516 . S
C471 C472 1.502 . S
C471 C473 1.561 . S
C471 C474 1.526 . S
C472 H456 0.959 . S
C472 H457 0.959 . S
C472 H458 0.961 . S
C472 C471 1.502 . S
C473 H459 0.960 . S
C473 H460 0.961 . S
C473 H461 0.959 . S
C473 C471 1.561 . S
C474 C471 1.526 . S
C474 C475 1.396 . S
C474 C479 1.390 . S
C475 C469 1.465 . S
C475 C474 1.396 . S
C475 C476 1.399 . S
C476 H462 0.929 . S
C476 C475 1.399 . S
C476 C477 1.385 . S
C477 H463 0.931 . S
C477 C476 1.385 . S
C477 C478 1.389 . S
C478 C477 1.389 . S
C478 C479 1.387 . S
C479 H464 0.930 . S
C479 C474 1.390 . S
C479 C478 1.387 . S
H480 C492 0.930 . S
H481 C494 0.930 . S
H482 C495 0.930 . S
H483 C499 0.959 . S
H484 C499 0.959 . S
H485 C499 0.961 . S
H486 C500 0.960 . S
H487 C500 0.961 . S
H488 C500 0.959 . S
H489 C503 0.929 . S
H490 C504 0.931 . S
H491 C506 0.930 . S
C492 H480 0.930 . S
C492 C493 1.399 . S
C492 C497 1.399 . S
C493 C492 1.399 . S
C493 C494 1.376 . S
C494 H481 0.930 . S
C494 C493 1.376 . S
C494 C495 1.388 . S
C495 H482 0.930 . S
C495 C494 1.388 . S
C495 C496 1.390 . S
C496 C495 1.390 . S
C496 C497 1.394 . S
C496 C502 1.465 . S
C497 C492 1.399 . S
C497 C496 1.394 . S
C497 C498 1.516 . S
C498 C497 1.516 . S
C498 C499 1.502 . S
C498 C500 1.561 . S
C498 C501 1.526 . S
C499 H483 0.959 . S
C499 H484 0.959 . S
C499 H485 0.961 . S
C499 C498 1.502 . S
C500 H486 0.960 . S
C500 H487 0.961 . S
C500 H488 0.959 . S
C500 C498 1.561 . S
C501 C498 1.526 . S
C501 C502 1.396 . S
C501 C506 1.390 . S
C502 C496 1.465 . S
C502 C501 1.396 . S
C502 C503 1.399 . S
C503 H489 0.929 . S
C503 C502 1.399 . S
C503 C504 1.385 . S
C504 H490 0.931 . S
C504 C503 1.385 . S
C504 C505 1.389 . S
C505 C504 1.389 . S
C505 C506 1.387 . S
C506 H491 0.930 . S
C506 C501 1.390 . S
C506 C505 1.387 . S
H507 C519 0.930 . S
H508 C521 0.930 . S
H509 C522 0.930 . S
H510 C526 0.959 . S
H511 C526 0.959 . S
H512 C526 0.961 . S
H513 C527 0.960 . S
H514 C527 0.961 . S
H515 C527 0.959 . S
H516 C530 0.929 . S
H517 C531 0.931 . S
H518 C533 0.930 . S
C519 H507 0.930 . S
C519 C520 1.399 . S
C519 C524 1.399 . S
C520 C519 1.399 . S
C520 C521 1.376 . S
C521 H508 0.930 . S
C521 C520 1.376 . S
C521 C522 1.388 . S
C522 H509 0.930 . S
C522 C521 1.388 . S
C522 C523 1.390 . S
C523 C522 1.390 . S
C523 C524 1.394 . S
C523 C529 1.465 . S
C524 C519 1.399 . S
C524 C523 1.394 . S
C524 C525 1.516 . S
C525 C524 1.516 . S
C525 C526 1.502 . S
C525 C527 1.561 . S
C525 C528 1.526 . S
C526 H510 0.959 . S
C526 H511 0.959 . S
C526 H512 0.961 . S
C526 C525 1.502 . S
C527 H513 0.960 . S
C527 H514 0.961 . S
C527 H515 0.959 . S
C527 C525 1.561 . S
C528 C525 1.526 . S
C528 C529 1.396 . S
C528 C533 1.390 . S
C529 C523 1.465 . S
C529 C528 1.396 . S
C529 C530 1.399 . S
C530 H516 0.929 . S
C530 C529 1.399 . S
C530 C531 1.385 . S
C531 H517 0.931 . S
C531 C530 1.385 . S
C531 C532 1.389 . S
C532 C531 1.389 . S
C532 C533 1.387 . S
C533 H518 0.930 . S
C533 C528 1.390 . S
C533 C532 1.387 . S
H534 C546 0.930 . S
H535 C548 0.930 . S
H536 C549 0.930 . S
H537 C553 0.959 . S
H538 C553 0.959 . S
H539 C553 0.961 . S
H540 C554 0.960 . S
H541 C554 0.961 . S
H542 C554 0.959 . S
H543 C557 0.929 . S
H544 C558 0.931 . S
H545 C560 0.930 . S
C546 H534 0.930 . S
C546 C547 1.399 . S
C546 C551 1.399 . S
C547 C546 1.399 . S
C547 C548 1.376 . S
C548 H535 0.930 . S
C548 C547 1.376 . S
C548 C549 1.388 . S
C549 H536 0.930 . S
C549 C548 1.388 . S
C549 C550 1.390 . S
C550 C549 1.390 . S
C550 C551 1.394 . S
C550 C556 1.465 . S
C551 C546 1.399 . S
C551 C550 1.394 . S
C551 C552 1.516 . S
C552 C551 1.516 . S
C552 C553 1.502 . S
C552 C554 1.561 . S
C552 C555 1.526 . S
C553 H537 0.959 . S
C553 H538 0.959 . S
C553 H539 0.961 . S
C553 C552 1.502 . S
C554 H540 0.960 . S
C554 H541 0.961 . S
C554 H542 0.959 . S
C554 C552 1.561 . S
C555 C552 1.526 . S
C555 C556 1.396 . S
C555 C560 1.390 . S
C556 C550 1.465 . S
C556 C555 1.396 . S
C556 C557 1.399 . S
C557 H543 0.929 . S
C557 C556 1.399 . S
C557 C558 1.385 . S
C558 H544 0.931 . S
C558 C557 1.385 . S
C558 C559 1.389 . S
C559 C558 1.389 . S
C559 C560 1.387 . S
C560 H545 0.930 . S
C560 C555 1.390 . S
C560 C559 1.387 . S
H561 C573 0.930 . S
H562 C575 0.930 . S
H563 C576 0.930 . S
H564 C580 0.959 . S
H565 C580 0.959 . S
H566 C580 0.961 . S
H567 C581 0.960 . S
H568 C581 0.961 . S
H569 C581 0.959 . S
H570 C584 0.929 . S
H571 C585 0.931 . S
H572 C587 0.930 . S
C573 H561 0.930 . S
C573 C574 1.399 . S
C573 C578 1.399 . S
C574 C573 1.399 . S
C574 C575 1.376 . S
C575 H562 0.930 . S
C575 C574 1.376 . S
C575 C576 1.388 . S
C576 H563 0.930 . S
C576 C575 1.388 . S
C576 C577 1.390 . S
C577 C576 1.390 . S
C577 C578 1.394 . S
C577 C583 1.465 . S
C578 C573 1.399 . S
C578 C577 1.394 . S
C578 C579 1.516 . S
C579 C578 1.516 . S
C579 C580 1.502 . S
C579 C581 1.561 . S
C579 C582 1.526 . S
C580 H564 0.959 . S
C580 H565 0.959 . S
C580 H566 0.961 . S
C580 C579 1.502 . S
C581 H567 0.960 . S
C581 H568 0.961 . S
C581 H569 0.959 . S
C581 C579 1.561 . S
C582 C579 1.526 . S
C582 C583 1.396 . S
C582 C587 1.390 . S
C583 C577 1.465 . S
C583 C582 1.396 . S
C583 C584 1.399 . S
C584 H570 0.929 . S
C584 C583 1.399 . S
C584 C585 1.385 . S
C585 H571 0.931 . S
C585 C584 1.385 . S
C585 C586 1.389 . S
C586 C585 1.389 . S
C586 C587 1.387 . S
C587 H572 0.930 . S
C587 C582 1.390 . S
C587 C586 1.387 . S
H588 C600 0.930 . S
H589 C602 0.930 . S
H590 C603 0.930 . S
H591 C607 0.959 . S
H592 C607 0.959 . S
H593 C607 0.961 . S
H594 C608 0.960 . S
H595 C608 0.961 . S
H596 C608 0.959 . S
H597 C611 0.929 . S
H598 C612 0.931 1_554 S
H599 C614 0.930 . S
C600 H588 0.930 . S
C600 C601 1.399 . S
C600 C605 1.399 . S
C601 C600 1.399 . S
C601 C602 1.376 . S
C602 H589 0.930 . S
C602 C601 1.376 . S
C602 C603 1.388 . S
C603 H590 0.930 . S
C603 C602 1.388 . S
C603 C604 1.390 . S
C604 C603 1.390 . S
C604 C605 1.394 . S
C604 C610 1.465 . S
C605 C600 1.399 . S
C605 C604 1.394 . S
C605 C606 1.516 . S
C606 C605 1.516 . S
C606 C607 1.502 . S
C606 C608 1.561 . S
C606 C609 1.526 . S
C607 H591 0.959 . S
C607 H592 0.959 . S
C607 H593 0.961 . S
C607 C606 1.502 . S
C608 H594 0.960 . S
C608 H595 0.961 . S
C608 H596 0.959 . S
C608 C606 1.561 . S
C609 C606 1.526 . S
C609 C610 1.396 . S
C609 C614 1.390 . S
C610 C604 1.465 . S
C610 C609 1.396 . S
C610 C611 1.399 . S
C611 H597 0.929 . S
C611 C610 1.399 . S
C611 C612 1.385 . S
C612 H598 0.931 1_556 S
C612 C611 1.385 . S
C612 C613 1.389 1_556 S
C613 C612 1.389 1_554 S
C613 C614 1.387 1_554 S
C614 H599 0.930 . S
C614 C609 1.390 . S
C614 C613 1.387 1_556 S
H615 C627 0.930 . S
H616 C629 0.930 . S
H617 C630 0.930 . S
H618 C634 0.959 . S
H619 C634 0.959 . S
H620 C634 0.961 . S
H621 C635 0.960 . S
H622 C635 0.961 . S
H623 C635 0.959 . S
H624 C638 0.929 . S
H625 C639 0.931 . S
H626 C641 0.930 . S
C627 H615 0.930 . S
C627 C628 1.399 . S
C627 C632 1.399 . S
C628 C627 1.399 . S
C628 C629 1.376 . S
C629 H616 0.930 . S
C629 C628 1.376 . S
C629 C630 1.388 . S
C630 H617 0.930 . S
C630 C629 1.388 . S
C630 C631 1.390 . S
C631 C630 1.390 . S
C631 C632 1.394 . S
C631 C637 1.465 . S
C632 C627 1.399 . S
C632 C631 1.394 . S
C632 C633 1.516 . S
C633 C632 1.516 . S
C633 C634 1.502 . S
C633 C635 1.561 . S
C633 C636 1.526 . S
C634 H618 0.959 . S
C634 H619 0.959 . S
C634 H620 0.961 . S
C634 C633 1.502 . S
C635 H621 0.960 . S
C635 H622 0.961 . S
C635 H623 0.959 . S
C635 C633 1.561 . S
C636 C633 1.526 . S
C636 C637 1.396 . S
C636 C641 1.390 . S
C637 C631 1.465 . S
C637 C636 1.396 . S
C637 C638 1.399 . S
C638 H624 0.929 . S
C638 C637 1.399 . S
C638 C639 1.385 . S
C639 H625 0.931 . S
C639 C638 1.385 . S
C639 C640 1.389 . S
C640 C639 1.389 . S
C640 C641 1.387 . S
C641 H626 0.930 . S
C641 C636 1.390 . S
C641 C640 1.387 . S
H642 C654 0.930 . S
H643 C656 0.930 1_554 S
H644 C657 0.930 . S
H645 C661 0.959 . S
H646 C661 0.959 . S
H647 C661 0.961 . S
H648 C662 0.960 . S
H649 C662 0.961 . S
H650 C662 0.959 . S
H651 C665 0.929 . S
H652 C666 0.931 . S
H653 C668 0.930 . S
C654 H642 0.930 . S
C654 C655 1.399 1_556 S
C654 C659 1.399 . S
C655 C654 1.399 1_554 S
C655 C656 1.376 1_554 S
C656 H643 0.930 1_556 S
C656 C655 1.376 1_556 S
C656 C657 1.388 . S
C657 H644 0.930 . S
C657 C656 1.388 . S
C657 C658 1.390 . S
C658 C657 1.390 . S
C658 C659 1.394 . S
C658 C664 1.465 . S
C659 C654 1.399 . S
C659 C658 1.394 . S
C659 C660 1.516 . S
C660 C659 1.516 . S
C660 C661 1.502 . S
C660 C662 1.561 . S
C660 C663 1.526 . S
C661 H645 0.959 . S
C661 H646 0.959 . S
C661 H647 0.961 . S
C661 C660 1.502 . S
C662 H648 0.960 . S
C662 H649 0.961 . S
C662 H650 0.959 . S
C662 C660 1.561 . S
C663 C660 1.526 . S
C663 C664 1.396 . S
C663 C668 1.390 . S
C664 C658 1.465 . S
C664 C663 1.396 . S
C664 C665 1.399 . S
C665 H651 0.929 . S
C665 C664 1.399 . S
C665 C666 1.385 . S
C666 H652 0.931 . S
C666 C665 1.385 . S
C666 C667 1.389 . S
C667 C666 1.389 . S
C667 C668 1.387 . S
C668 H653 0.930 . S
C668 C663 1.390 . S
C668 C667 1.387 . S
H669 C681 0.930 . S
H670 C683 0.930 . S
H671 C684 0.930 . S
H672 C688 0.959 . S
H673 C688 0.959 . S
H674 C688 0.961 . S
H675 C689 0.960 . S
H676 C689 0.961 . S
H677 C689 0.959 . S
H678 C692 0.929 . S
H679 C693 0.931 . S
H680 C695 0.930 . S
C681 H669 0.930 . S
C681 C682 1.399 . S
C681 C686 1.399 . S
C682 C681 1.399 . S
C682 C683 1.376 . S
C683 H670 0.930 . S
C683 C682 1.376 . S
C683 C684 1.388 . S
C684 H671 0.930 . S
C684 C683 1.388 . S
C684 C685 1.390 . S
C685 C684 1.390 . S
C685 C686 1.394 . S
C685 C691 1.465 . S
C686 C681 1.399 . S
C686 C685 1.394 . S
C686 C687 1.516 . S
C687 C686 1.516 . S
C687 C688 1.502 . S
C687 C689 1.561 . S
C687 C690 1.526 . S
C688 H672 0.959 . S
C688 H673 0.959 . S
C688 H674 0.961 . S
C688 C687 1.502 . S
C689 H675 0.960 . S
C689 H676 0.961 . S
C689 H677 0.959 . S
C689 C687 1.561 . S
C690 C687 1.526 . S
C690 C691 1.396 . S
C690 C695 1.390 . S
C691 C685 1.465 . S
C691 C690 1.396 . S
C691 C692 1.399 . S
C692 H678 0.929 . S
C692 C691 1.399 . S
C692 C693 1.385 . S
C693 H679 0.931 . S
C693 C692 1.385 . S
C693 C694 1.389 . S
C694 C693 1.389 . S
C694 C695 1.387 . S
C695 H680 0.930 . S
C695 C690 1.390 . S
C695 C694 1.387 . S
H696 C708 0.930 . S
H697 C710 0.930 . S
H698 C711 0.930 . S
H699 C715 0.959 . S
H700 C715 0.959 . S
H701 C715 0.961 . S
H702 C716 0.960 . S
H703 C716 0.961 . S
H704 C716 0.959 . S
H705 C719 0.929 . S
H706 C720 0.931 . S
H707 C722 0.930 . S
C708 H696 0.930 . S
C708 C709 1.399 . S
C708 C713 1.399 . S
C709 C708 1.399 . S
C709 C710 1.376 . S
C710 H697 0.930 . S
C710 C709 1.376 . S
C710 C711 1.388 . S
C711 H698 0.930 . S
C711 C710 1.388 . S
C711 C712 1.390 . S
C712 C711 1.390 . S
C712 C713 1.394 . S
C712 C718 1.465 . S
C713 C708 1.399 . S
C713 C712 1.394 . S
C713 C714 1.516 . S
C714 C713 1.516 . S
C714 C715 1.502 . S
C714 C716 1.561 . S
C714 C717 1.526 . S
C715 H699 0.959 . S
C715 H700 0.959 . S
C715 H701 0.961 . S
C715 C714 1.502 . S
C716 H702 0.960 . S
C716 H703 0.961 . S
C716 H704 0.959 . S
C716 C714 1.561 . S
C717 C714 1.526 . S
C717 C718 1.396 . S
C717 C722 1.390 . S
C718 C712 1.465 . S
C718 C717 1.396 . S
C718 C719 1.399 . S
C719 H705 0.929 . S
C719 C718 1.399 . S
C719 C720 1.385 . S
C720 H706 0.931 . S
C720 C719 1.385 . S
C720 C721 1.389 . S
C721 C720 1.389 . S
C721 C722 1.387 . S
C722 H707 0.930 . S
C722 C717 1.390 . S
C722 C721 1.387 . S
H723 C735 0.930 . S
H724 C737 0.930 1_556 S
H725 C738 0.930 . S
H726 C742 0.959 . S
H727 C742 0.959 . S
H728 C742 0.961 . S
H729 C743 0.960 . S
H730 C743 0.961 . S
H731 C743 0.959 . S
H732 C746 0.929 . S
H733 C747 0.931 . S
H734 C749 0.930 . S
C735 H723 0.930 . S
C735 C736 1.399 1_554 S
C735 C740 1.399 . S
C736 C735 1.399 1_556 S
C736 C737 1.376 1_556 S
C737 H724 0.930 1_554 S
C737 C736 1.376 1_554 S
C737 C738 1.388 . S
C738 H725 0.930 . S
C738 C737 1.388 . S
C738 C739 1.390 . S
C739 C738 1.390 . S
C739 C740 1.394 . S
C739 C745 1.465 . S
C740 C735 1.399 . S
C740 C739 1.394 . S
C740 C741 1.516 . S
C741 C740 1.516 . S
C741 C742 1.502 . S
C741 C743 1.561 . S
C741 C744 1.526 . S
C742 H726 0.959 . S
C742 H727 0.959 . S
C742 H728 0.961 . S
C742 C741 1.502 . S
C743 H729 0.960 . S
C743 H730 0.961 . S
C743 H731 0.959 . S
C743 C741 1.561 . S
C744 C741 1.526 . S
C744 C745 1.396 . S
C744 C749 1.390 . S
C745 C739 1.465 . S
C745 C744 1.396 . S
C745 C746 1.399 . S
C746 H732 0.929 . S
C746 C745 1.399 . S
C746 C747 1.385 . S
C747 H733 0.931 . S
C747 C746 1.385 . S
C747 C748 1.389 . S
C748 C747 1.389 . S
C748 C749 1.387 . S
C749 H734 0.930 . S
C749 C744 1.390 . S
C749 C748 1.387 . S
H750 C762 0.930 . S
H751 C764 0.930 . S
H752 C765 0.930 . S
H753 C769 0.959 . S
H754 C769 0.959 . S
H755 C769 0.961 . S
H756 C770 0.960 . S
H757 C770 0.961 . S
H758 C770 0.959 . S
H759 C773 0.929 . S
H760 C774 0.931 . S
H761 C776 0.930 . S
C762 H750 0.930 . S
C762 C763 1.399 . S
C762 C767 1.399 . S
C763 C762 1.399 . S
C763 C764 1.376 . S
C764 H751 0.930 . S
C764 C763 1.376 . S
C764 C765 1.388 . S
C765 H752 0.930 . S
C765 C764 1.388 . S
C765 C766 1.390 . S
C766 C765 1.390 . S
C766 C767 1.394 . S
C766 C772 1.465 . S
C767 C762 1.399 . S
C767 C766 1.394 . S
C767 C768 1.516 . S
C768 C767 1.516 . S
C768 C769 1.502 . S
C768 C770 1.561 . S
C768 C771 1.526 . S
C769 H753 0.959 . S
C769 H754 0.959 . S
C769 H755 0.961 . S
C769 C768 1.502 . S
C770 H756 0.960 . S
C770 H757 0.961 . S
C770 H758 0.959 . S
C770 C768 1.561 . S
C771 C768 1.526 . S
C771 C772 1.396 . S
C771 C776 1.390 . S
C772 C766 1.465 . S
C772 C771 1.396 . S
C772 C773 1.399 . S
C773 H759 0.929 . S
C773 C772 1.399 . S
C773 C774 1.385 . S
C774 H760 0.931 . S
C774 C773 1.385 . S
C774 C775 1.389 . S
C775 C774 1.389 . S
C775 C776 1.387 . S
C776 H761 0.930 . S
C776 C771 1.390 . S
C776 C775 1.387 . S
H777 C789 0.930 . S
H778 C791 0.930 . S
H779 C792 0.930 . S
H780 C796 0.959 . S
H781 C796 0.959 . S
H782 C796 0.961 . S
H783 C797 0.960 . S
H784 C797 0.961 . S
H785 C797 0.959 . S
H786 C800 0.929 . S
H787 C801 0.931 1_556 S
H788 C803 0.930 . S
C789 H777 0.930 . S
C789 C790 1.399 . S
C789 C794 1.399 . S
C790 C789 1.399 . S
C790 C791 1.376 . S
C791 H778 0.930 . S
C791 C790 1.376 . S
C791 C792 1.388 . S
C792 H779 0.930 . S
C792 C791 1.388 . S
C792 C793 1.390 . S
C793 C792 1.390 . S
C793 C794 1.394 . S
C793 C799 1.465 . S
C794 C789 1.399 . S
C794 C793 1.394 . S
C794 C795 1.516 . S
C795 C794 1.516 . S
C795 C796 1.502 . S
C795 C797 1.561 . S
C795 C798 1.526 . S
C796 H780 0.959 . S
C796 H781 0.959 . S
C796 H782 0.961 . S
C796 C795 1.502 . S
C797 H783 0.960 . S
C797 H784 0.961 . S
C797 H785 0.959 . S
C797 C795 1.561 . S
C798 C795 1.526 . S
C798 C799 1.396 . S
C798 C803 1.390 . S
C799 C793 1.465 . S
C799 C798 1.396 . S
C799 C800 1.399 . S
C800 H786 0.929 . S
C800 C799 1.399 . S
C800 C801 1.385 . S
C801 H787 0.931 1_554 S
C801 C800 1.385 . S
C801 C802 1.389 1_554 S
C802 C801 1.389 1_556 S
C802 C803 1.387 1_556 S
C803 H788 0.930 . S
C803 C798 1.390 . S
C803 C802 1.387 1_554 S
C277 C239 1.069 . S
C289 C8 1.066 . S
C304 C140 1.109 . S
C316 C41 1.030 . S
C331 C74 1.107 . S
C343 C173 1.039 . S
C358 C206 1.096 . S
C370 C107 1.041 . S
C385 C28 1.483 . S
C397 C160 1.494 . S
C412 C193 1.456 . S
C424 C61 1.466 . S
C439 C226 1.469 . S
C451 C94 1.484 . S
C466 C259 1.456 . S
C478 C127 1.465 . S
C493 C248 1.530 . S
C505 C50 1.522 . S
C520 C83 1.538 . S
C532 C149 1.558 . S
C547 C116 1.538 . S
C559 C182 1.524 . S
C574 C215 1.548 . S
C586 C17 1.529 . S
C601 N14 1.245 . S
C613 N5 1.292 . S
C628 N38 1.288 . S
C640 N47 1.252 . S
C655 N71 1.264 . S
C667 N80 1.278 . S
C682 N113 1.281 . S
C694 N104 1.262 . S
C709 N137 1.283 . S
C721 N146 1.252 . S
C736 N170 1.291 . S
C748 N179 1.248 . S
C763 N203 1.260 . S
C775 N212 1.282 . S
C790 N245 1.262 . S
C802 N236 1.274 . S
