# Generated by pormake.
# Topology wmb, (6)-cn, num edge types: 1
# Building blocks:
#     Node 0, Type 0, BuildingBlock: IZENUY_clean_sbu_0, # of connection points: 6
#     Node 1, Type 0, BuildingBlock: IZENUY_clean_sbu_0, # of connection points: 6
#     Node 2, Type 0, BuildingBlock: IZENUY_clean_sbu_0, # of connection points: 6
#     Node 3, Type 0, BuildingBlock: IZENUY_clean_sbu_0, # of connection points: 6
#     Node 4, Type 0, BuildingBlock: IZENUY_clean_sbu_0, # of connection points: 6
#     Node 5, Type 0, BuildingBlock: IZENUY_clean_sbu_0, # of connection points: 6
#     Edge 6, Type (0, 0), BuildingBlock: OJICUG_clean_linker_0, # of connection points: 2
#     Edge 7, Type (0, 0), BuildingBlock: OJICUG_clean_linker_0, # of connection points: 2
#     Edge 8, Type (0, 0), BuildingBlock: OJICUG_clean_linker_0, # of connection points: 2
#     Edge 9, Type (0, 0), BuildingBlock: OJICUG_clean_linker_0, # of connection points: 2
#     Edge 10, Type (0, 0), BuildingBlock: OJICUG_clean_linker_0, # of connection points: 2
#     Edge 11, Type (0, 0), BuildingBlock: OJICUG_clean_linker_0, # of connection points: 2
#     Edge 12, Type (0, 0), BuildingBlock: OJICUG_clean_linker_0, # of connection points: 2
#     Edge 13, Type (0, 0), BuildingBlock: OJICUG_clean_linker_0, # of connection points: 2
#     Edge 14, Type (0, 0), BuildingBlock: OJICUG_clean_linker_0, # of connection points: 2
#     Edge 15, Type (0, 0), BuildingBlock: OJICUG_clean_linker_0, # of connection points: 2
#     Edge 16, Type (0, 0), BuildingBlock: OJICUG_clean_linker_0, # of connection points: 2
#     Edge 17, Type (0, 0), BuildingBlock: OJICUG_clean_linker_0, # of connection points: 2
#     Edge 18, Type (0, 0), BuildingBlock: OJICUG_clean_linker_0, # of connection points: 2
#     Edge 19, Type (0, 0), BuildingBlock: OJICUG_clean_linker_0, # of connection points: 2
#     Edge 20, Type (0, 0), BuildingBlock: OJICUG_clean_linker_0, # of connection points: 2
#     Edge 21, Type (0, 0), BuildingBlock: OJICUG_clean_linker_0, # of connection points: 2
#     Edge 22, Type (0, 0), BuildingBlock: OJICUG_clean_linker_0, # of connection points: 2
#     Edge 23, Type (0, 0), BuildingBlock: OJICUG_clean_linker_0, # of connection points: 2
# Relax obj value: 0.257
# Max RMSD: 0.257
# Mean RMSD: 0.257
data_MOF--net-wmb--node1-IZENUY_clean_sbu_0--edge1-OJICUG_clean_linker_0
_symmetry_space_group_name_H-M    P1
_symmetry_Int_Tables_number       1
_symmetry_cell_setting            triclinic
loop_
_symmetry_equiv_pos_as_xyz
'x, y, z'
_cell_length_a     19.775995
_cell_length_b     19.789982
_cell_length_c     31.496752
_cell_angle_alpha  89.933478
_cell_angle_beta   90.006513
_cell_angle_gamma 119.95118
loop_
_atom_site_label
_atom_site_type_symbol
_atom_site_fract_x
_atom_site_fract_y
_atom_site_fract_z
_atom_type_partial_charge
Fe0 Fe 0.49333 0.19513 0.05476 0.0
Fe1 Fe 0.60469 0.15452 0.00779 0.0
O2 O 0.57834 0.22387 0.02387 0.0
Fe3 Fe 0.63777 0.32288 0.0097 0.0
O4 O 0.65874 0.34992 0.06536 0.0
O5 O 0.53528 0.28714 0.08444 0.0
O6 O 0.53069 0.1607 0.09656 0.0
C7 C 0.55379 0.11228 0.09265 0.0
C8 C 0.4838 0.30224 0.00591 0.0
O9 O 0.56817 0.09456 0.0564 0.0
C10 C 0.63347 0.25037 0.9353 0.0
O11 O 0.43714 0.09617 0.0314 0.0
O12 O 0.51337 0.09817 0.98042 0.0
O13 O 0.55738 0.34431 0.00913 0.0
O14 O 0.45075 0.23058 0.01534 0.0
C15 C 0.74927 0.27564 0.02509 0.0
O16 O 0.64471 0.2025 0.95676 0.0
O17 O 0.61994 0.29943 0.95351 0.0
C18 C 0.44768 0.06646 0.99808 0.0
O19 O 0.69939 0.20605 0.03343 0.0
O20 O 0.72944 0.32074 0.00774 0.0
C21 C 0.60634 0.33442 0.09278 0.0
Fe22 Fe 0.9028 0.46034 0.6743 0.0
Fe23 Fe 0.73427 0.32541 0.67633 0.0
O24 O 0.8333 0.36483 0.69051 0.0
Fe25 Fe 0.8619 0.3086 0.72156 0.0
O26 O 0.89621 0.38039 0.76326 0.0
O27 O 0.96265 0.48376 0.72293 0.0
O28 O 0.85126 0.50364 0.6998 0.0
C29 C 0.78168 0.4841 0.69142 0.0
C30 C 0.9909 0.39134 0.66488 0.0
O31 O 0.73652 0.41922 0.67418 0.0
C32 C 0.75491 0.19212 0.67276 0.0
O33 O 0.85496 0.45239 0.62322 0.0
O34 O 0.75788 0.3309 0.62016 0.0
O35 O 0.96105 0.35125 0.69826 0.0
O36 O 0.95917 0.42518 0.64705 0.0
C37 C 0.72242 0.28257 0.75947 0.0
O38 O 0.71277 0.22363 0.67593 0.0
O39 O 0.82657 0.23064 0.68223 0.0
C40 C 0.807 0.39337 0.60186 0.0
O41 O 0.70706 0.31948 0.73198 0.0
O42 O 0.76969 0.25868 0.75121 0.0
C43 C 0.94475 0.45179 0.75924 0.0
Fe44 Fe 0.74725 0.56286 0.38807 0.0
Fe45 Fe 0.59543 0.45183 0.34107 0.0
O46 O 0.69111 0.47803 0.35717 0.0
Fe47 Fe 0.73082 0.41866 0.34301 0.0
O48 O 0.73696 0.39754 0.39867 0.0
O49 O 0.79746 0.52084 0.41774 0.0
O50 O 0.67549 0.52537 0.42986 0.0
C51 C 0.60401 0.50243 0.42595 0.0
C52 C 0.8639 0.57257 0.33918 0.0
O53 O 0.57192 0.4882 0.38969 0.0
C54 C 0.66255 0.42316 0.26859 0.0
O55 O 0.70434 0.6191 0.36472 0.0
O56 O 0.63033 0.54319 0.3137 0.0
O57 O 0.83256 0.49902 0.34242 0.0
O58 O 0.82518 0.60554 0.34864 0.0
C59 C 0.57212 0.30723 0.35836 0.0
O60 O 0.60344 0.41197 0.29003 0.0
O61 O 0.72514 0.43664 0.28682 0.0
C62 C 0.66422 0.60876 0.33136 0.0
O63 O 0.55236 0.35711 0.3667 0.0
O64 O 0.63709 0.32706 0.34106 0.0
C65 C 0.77384 0.44982 0.42608 0.0
Fe66 Fe 0.33488 0.62615 0.99306 0.0
Fe67 Fe 0.20731 0.48202 0.9479 0.0
O68 O 0.23588 0.56682 0.97882 0.0
Fe69 Fe 0.16638 0.59306 0.99484 0.0
O70 O 0.21806 0.6878 0.96923 0.0
O71 O 0.33272 0.71776 0.99498 0.0
O72 O 0.36228 0.64733 0.93742 0.0
C73 C 0.34695 0.59509 0.91 0.0
C74 C 0.26195 0.62166 0.06741 0.0
O75 O 0.29956 0.52405 0.91829 0.0
C76 C 0.0783 0.43611 0.00453 0.0
O77 O 0.3563 0.54578 0.99368 0.0
O78 O 0.2425 0.43929 0.98735 0.0
O79 O 0.21411 0.63289 0.04591 0.0
O80 O 0.31109 0.60813 0.04924 0.0
C81 C 0.12451 0.54247 0.90994 0.0
O82 O 0.10815 0.42577 0.9712 0.0
O83 O 0.10987 0.50169 0.02219 0.0
C84 C 0.31414 0.47223 0.99687 0.0
O85 O 0.17309 0.51954 0.90607 0.0
O86 O 0.10661 0.55672 0.94619 0.0
C87 C 0.28766 0.73763 0.97761 0.0
Fe88 Fe 0.43132 0.71965 0.65976 0.0
Fe89 Fe 0.5755 0.73634 0.61432 0.0
O90 O 0.49086 0.68017 0.64548 0.0
Fe91 Fe 0.465 0.58468 0.66169 0.0
O92 O 0.37008 0.54136 0.63631 0.0
O93 O 0.33981 0.62586 0.66195 0.0
O94 O 0.40982 0.72558 0.60414 0.0
C95 C 0.46194 0.76245 0.57659 0.0
C96 C 0.43638 0.65169 0.7342 0.0
O97 O 0.5331 0.7863 0.58476 0.0
C98 C 0.6221 0.65372 0.67092 0.0
O99 O 0.5116 0.82142 0.66013 0.0
O100 O 0.61832 0.81432 0.65361 0.0
O101 O 0.42531 0.59266 0.71282 0.0
O102 O 0.44962 0.71415 0.71591 0.0
C103 C 0.51504 0.5931 0.57667 0.0
O104 O 0.6321 0.69366 0.63751 0.0
O105 O 0.55663 0.61987 0.68883 0.0
C106 C 0.58523 0.85286 0.6632 0.0
O107 O 0.53781 0.6645 0.57265 0.0
O108 O 0.50122 0.56121 0.613 0.0
C109 C 0.32008 0.56096 0.64471 0.0
Fe110 Fe 0.33675 0.72193 0.32635 0.0
Fe111 Fe 0.32004 0.8497 0.28122 0.0
O112 O 0.37627 0.82094 0.31218 0.0
Fe113 Fe 0.47189 0.89029 0.3283 0.0
O114 O 0.51513 0.83878 0.3027 0.0
O115 O 0.43055 0.72407 0.32835 0.0
O116 O 0.33075 0.69489 0.27069 0.0
C117 C 0.29391 0.71041 0.24323 0.0
C118 C 0.40484 0.79444 0.40078 0.0
O119 O 0.27008 0.75768 0.25154 0.0
C120 C 0.40291 0.97837 0.33792 0.0
O121 O 0.23496 0.70053 0.32688 0.0
O122 O 0.24197 0.81426 0.3206 0.0
O123 O 0.46392 0.8423 0.37934 0.0
O124 O 0.3423 0.74538 0.38255 0.0
C125 C 0.46337 0.93251 0.24342 0.0
O126 O 0.36276 0.94868 0.30458 0.0
O127 O 0.43681 0.9466 0.35564 0.0
C128 C 0.20341 0.74261 0.33006 0.0
O129 O 0.3919 0.88411 0.23947 0.0
O130 O 0.49537 0.95026 0.27969 0.0
C131 C 0.49545 0.76917 0.31101 0.0
C132 C 0.3141 0.34364 1.00098 0.0
C133 C 0.3545 0.42587 1.00109 0.0
H134 H 0.32273 0.23929 0.00217 0.0
C135 C 0.43655 0.46538 0.0016 0.0
H136 H 0.25093 0.31122 1.00021 0.0
C137 C 0.47715 0.42472 0.00154 0.0
C138 C 0.43752 0.34271 0.00176 0.0
H139 H 0.47026 0.5285 0.00137 0.0
H140 H 0.54032 0.45834 0.00198 0.0
C141 C 0.35524 0.30243 0.00162 0.0
C142 C 0.63244 0.0631 0.66828 0.0
C143 C 0.7145 0.10549 0.66851 0.0
H144 H 0.52868 0.95248 0.66795 0.0
C145 C 0.75491 0.06359 0.66822 0.0
H146 H 0.59872 0.09257 0.66884 0.0
C147 C 0.71378 0.98133 0.66741 0.0
C148 C 0.63149 0.93948 0.66751 0.0
H149 H 0.81809 0.09422 0.66876 0.0
H150 H 0.74631 0.95067 0.66653 0.0
C151 C 0.59184 0.98191 0.66817 0.0
C152 C 0.07465 0.7424 0.3342 0.0
C153 C 0.1167 0.70215 0.33425 0.0
H154 H 0.96152 0.73356 0.33548 0.0
C155 C 0.07442 0.62015 0.33471 0.0
H156 H 0.1052 0.80553 0.33348 0.0
C157 C 0.99318 0.57945 0.33467 0.0
C158 C 0.95059 0.61893 0.33497 0.0
H159 H 0.10401 0.58654 0.33443 0.0
H160 H 0.96385 0.51633 0.33508 0.0
C161 C 0.99233 0.70116 0.33488 0.0
C162 C 0.54862 0.05955 0.20766 0.0
C163 C 0.50433 0.97802 0.20555 0.0
H164 H 0.59891 0.16665 0.17257 0.0
C165 C 0.48825 0.94103 0.16574 0.0
H166 H 0.56099 0.08924 0.23797 0.0
C167 C 0.51135 0.98511 0.12842 0.0
C168 C 0.54899 0.06666 0.13053 0.0
H169 H 0.45395 0.87804 0.1635 0.0
H170 H 0.49397 0.95543 0.0981 0.0
C171 C 0.56994 0.10363 0.17033 0.0
C172 C 0.07183 0.53706 0.79492 0.0
C173 C 0.99024 0.49271 0.79709 0.0
H174 H 0.17897 0.58751 0.82995 0.0
C175 C 0.95318 0.47661 0.83692 0.0
H176 H 0.10159 0.54945 0.7646 0.0
C177 C 0.99724 0.49979 0.87422 0.0
C178 C 0.07887 0.53755 0.87206 0.0
H179 H 0.89014 0.44226 0.8392 0.0
H180 H 0.96751 0.48242 0.90455 0.0
C181 C 0.1159 0.55847 0.83223 0.0
C182 C 0.51946 0.54518 0.46168 0.0
C183 C 0.56323 0.5073 0.46381 0.0
H184 H 0.46999 0.60282 0.49671 0.0
C185 C 0.57926 0.48624 0.50364 0.0
H186 H 0.50716 0.56265 0.43135 0.0
C187 C 0.55663 0.50765 0.54095 0.0
C188 C 0.51951 0.55215 0.53881 0.0
H189 H 0.61321 0.45709 0.5059 0.0
H190 H 0.57396 0.49516 0.57127 0.0
C191 C 0.4986 0.56836 0.49899 0.0
C192 C 0.40998 0.95015 0.95195 0.0
C193 C 0.39174 0.98443 0.98607 0.0
H194 H 0.39116 0.84411 0.92289 0.0
C195 C 0.32852 0.93606 0.01257 0.0
H196 H 0.45788 0.9854 0.93064 0.0
C197 C 0.28936 0.85487 0.00736 0.0
C198 C 0.31305 0.82109 0.97574 0.0
H199 H 0.31299 0.96025 0.03917 0.0
H200 H 0.24462 0.8183 0.02999 0.0
C201 C 0.3718 0.86923 0.94728 0.0
C202 C 0.20287 0.44571 0.67476 0.0
C203 C 0.23663 0.5028 0.64292 0.0
H204 H 0.09737 0.36398 0.70661 0.0
C205 C 0.18847 0.51279 0.61416 0.0
H206 H 0.23947 0.43802 0.6976 0.0
C207 C 0.10747 0.46977 0.61873 0.0
C208 C 0.07314 0.41761 0.65303 0.0
H209 H 0.2136 0.55695 0.58959 0.0
H210 H 0.07216 0.48193 0.59718 0.0
C211 C 0.12159 0.40339 0.67986 0.0
C212 C 0.54266 0.68488 0.28066 0.0
C213 C 0.55352 0.74372 0.30904 0.0
H214 H 0.57255 0.59862 0.26406 0.0
C215 C 0.61121 0.76738 0.34054 0.0
H216 H 0.49801 0.66555 0.25636 0.0
C217 C 0.65322 0.7281 0.34573 0.0
C218 C 0.63811 0.66478 0.31932 0.0
H219 H 0.61956 0.8122 0.36311 0.0
H220 H 0.69312 0.74361 0.37225 0.0
C221 C 0.58539 0.64658 0.28529 0.0
C222 C 0.9618 0.39798 0.05074 0.0
C223 C 0.99624 0.38002 0.01657 0.0
H224 H 0.85555 0.37881 0.07987 0.0
C225 C 0.94799 0.31692 0.99006 0.0
H226 H 0.99697 0.44577 0.07206 0.0
C227 C 0.86673 0.27762 0.99531 0.0
C228 C 0.83278 0.30104 0.02697 0.0
H229 H 0.97231 0.3016 0.96343 0.0
H230 H 0.83024 0.233 0.97266 0.0
C231 C 0.88081 0.35965 0.05545 0.0
C232 C 0.74023 0.64103 0.65559 0.0
C233 C 0.67822 0.62761 0.68274 0.0
H234 H 0.82288 0.6057 0.6377 0.0
C235 C 0.66112 0.57631 0.71739 0.0
H236 H 0.75483 0.67975 0.62856 0.0
C237 C 0.69914 0.53331 0.72207 0.0
C238 C 0.75657 0.54244 0.69303 0.0
H239 H 0.61417 0.56481 0.73918 0.0
H240 H 0.68063 0.48977 0.74697 0.0
C241 C 0.77918 0.5987 0.66077 0.0
C242 C 0.45671 0.19013 0.32846 0.0
C243 C 0.514 0.2238 0.36017 0.0
H244 H 0.37498 0.08483 0.29661 0.0
C245 C 0.52432 0.17557 0.38873 0.0
H246 H 0.44877 0.22678 0.30577 0.0
C247 C 0.48145 0.09465 0.38408 0.0
C248 C 0.42909 0.06045 0.34988 0.0
H249 H 0.56866 0.2006 0.41319 0.0
H250 H 0.49387 0.05931 0.40547 0.0
C251 C 0.41454 0.10894 0.32327 0.0
C252 C 0.56845 0.37099 0.16038 0.0
C253 C 0.62641 0.36924 0.13553 0.0
H254 H 0.53479 0.3902 0.22133 0.0
C255 C 0.69965 0.3922 0.15374 0.0
H256 H 0.51162 0.3542 0.14714 0.0
C257 C 0.71294 0.41221 0.19683 0.0
C258 C 0.65326 0.40999 0.22217 0.0
H259 H 0.74523 0.3909 0.13529 0.0
H260 H 0.76886 0.42689 0.21053 0.0
C261 C 0.58179 0.39144 0.20305 0.0
C262 C 0.66482 0.20105 0.86977 0.0
C263 C 0.64663 0.25421 0.88887 0.0
H264 H 0.70185 0.16785 0.81388 0.0
C265 C 0.64477 0.31183 0.8635 0.0
H266 H 0.66574 0.15514 0.88808 0.0
C267 C 0.66483 0.31848 0.82039 0.0
C268 C 0.68746 0.26793 0.80222 0.0
H269 H 0.63037 0.35325 0.87718 0.0
H270 H 0.66644 0.36547 0.80191 0.0
C271 C 0.68531 0.20807 0.82709 0.0
C272 C 0.84858 0.48746 0.49357 0.0
C273 C 0.78878 0.42964 0.4688 0.0
H274 H 0.90167 0.52096 0.55446 0.0
C275 C 0.73858 0.35646 0.48707 0.0
H276 H 0.88855 0.54423 0.48028 0.0
C277 C 0.74548 0.34312 0.53016 0.0
C278 C 0.80301 0.40267 0.55543 0.0
H279 H 0.69165 0.311 0.46867 0.0
H280 H 0.70429 0.28726 0.54391 0.0
C281 C 0.85586 0.47406 0.53624 0.0
C282 C 0.38423 0.5576 0.8425 0.0
C283 C 0.38209 0.61534 0.86728 0.0
H284 H 0.40391 0.52419 0.7816 0.0
C285 C 0.4049 0.68851 0.84902 0.0
H286 H 0.36757 0.50085 0.85579 0.0
C287 C 0.4251 0.70189 0.80592 0.0
C288 C 0.42321 0.64239 0.78064 0.0
H289 H 0.40331 0.73391 0.86742 0.0
H290 H 0.43961 0.75772 0.79218 0.0
C291 C 0.40488 0.57104 0.79983 0.0
C292 C 0.49892 0.83706 0.50901 0.0
C293 C 0.44143 0.77703 0.53387 0.0
H294 H 0.53204 0.89009 0.44804 0.0
C295 C 0.36836 0.72626 0.51569 0.0
H296 H 0.55558 0.87746 0.52224 0.0
C297 C 0.35487 0.73286 0.47258 0.0
C298 C 0.41416 0.79065 0.44722 0.0
H299 H 0.32316 0.67913 0.53416 0.0
H300 H 0.29915 0.69125 0.45889 0.0
C301 C 0.48536 0.84404 0.46633 0.0
C302 C 0.32303 0.63256 0.13926 0.0
C303 C 0.2657 0.63486 0.11383 0.0
H304 H 0.37639 0.6538 0.20087 0.0
C305 C 0.21278 0.65351 0.13286 0.0
H306 H 0.36427 0.6178 0.12563 0.0
C307 C 0.21975 0.67397 0.17553 0.0
C308 C 0.27932 0.67562 0.20047 0.0
H309 H 0.16711 0.65482 0.11451 0.0
H310 H 0.17972 0.69084 0.18869 0.0
C311 C 0.32962 0.65258 0.18235 0.0
loop_
_geom_bond_atom_site_label_1
_geom_bond_atom_site_label_2
_geom_bond_distance
_geom_bond_site_symmetry_2
_ccdc_geom_bond_type
Fe0 O2 1.918 . S
Fe0 O5 1.997 . S
Fe0 O6 2.002 . S
Fe0 O11 1.976 . S
Fe0 O14 1.996 . S
Fe1 O2 1.918 . S
Fe1 O9 1.997 . S
Fe1 O12 1.996 1_554 S
Fe1 O16 1.976 1_554 S
Fe1 O19 2.002 . S
O2 Fe0 1.918 . S
O2 Fe1 1.918 . S
O2 Fe3 1.918 . S
Fe3 O2 1.918 . S
Fe3 O4 2.002 . S
Fe3 O13 1.978 . S
Fe3 O17 1.996 1_554 S
Fe3 O20 1.997 . S
O4 Fe3 2.002 . S
O4 C21 1.295 . S
O5 Fe0 1.997 . S
O5 C21 1.235 . S
O6 Fe0 2.002 . S
O6 C7 1.295 . S
C7 O6 1.295 . S
C7 O9 1.235 . S
C8 O13 1.289 . S
C8 O14 1.255 . S
O9 Fe1 1.997 . S
O9 C7 1.235 . S
C10 O16 1.287 . S
C10 O17 1.255 . S
O11 Fe0 1.976 . S
O11 C18 1.296 . S
O12 Fe1 1.996 1_556 S
O12 C18 1.251 1_556 S
O13 Fe3 1.978 . S
O13 C8 1.289 . S
O14 Fe0 1.996 . S
O14 C8 1.255 . S
C15 O19 1.295 . S
C15 O20 1.235 . S
O16 Fe1 1.976 1_556 S
O16 C10 1.287 . S
O17 Fe3 1.996 1_556 S
O17 C10 1.255 . S
C18 O11 1.296 . S
C18 O12 1.251 1_554 S
O19 Fe1 2.002 . S
O19 C15 1.295 . S
O20 Fe3 1.997 . S
O20 C15 1.235 . S
C21 O4 1.295 . S
C21 O5 1.235 . S
Fe22 O24 1.918 . S
Fe22 O27 1.997 . S
Fe22 O28 2.002 . S
Fe22 O33 1.976 . S
Fe22 O36 1.996 . S
Fe23 O24 1.918 . S
Fe23 O31 1.997 . S
Fe23 O34 1.996 . S
Fe23 O38 1.976 . S
Fe23 O41 2.002 . S
O24 Fe22 1.918 . S
O24 Fe23 1.918 . S
O24 Fe25 1.918 . S
Fe25 O24 1.918 . S
Fe25 O26 2.002 . S
Fe25 O35 1.976 . S
Fe25 O39 1.996 . S
Fe25 O42 1.997 . S
O26 Fe25 2.002 . S
O26 C43 1.295 . S
O27 Fe22 1.997 . S
O27 C43 1.235 . S
O28 Fe22 2.002 . S
O28 C29 1.295 . S
C29 O28 1.295 . S
C29 O31 1.235 . S
C30 O35 1.287 . S
C30 O36 1.255 . S
O31 Fe23 1.997 . S
O31 C29 1.235 . S
C32 O38 1.287 . S
C32 O39 1.255 . S
O33 Fe22 1.976 . S
O33 C40 1.287 . S
O34 Fe23 1.996 . S
O34 C40 1.255 . S
O35 Fe25 1.976 . S
O35 C30 1.287 . S
O36 Fe22 1.996 . S
O36 C30 1.255 . S
C37 O41 1.295 . S
C37 O42 1.235 . S
O38 Fe23 1.976 . S
O38 C32 1.287 . S
O39 Fe25 1.996 . S
O39 C32 1.255 . S
C40 O33 1.287 . S
C40 O34 1.255 . S
O41 Fe23 2.002 . S
O41 C37 1.295 . S
O42 Fe25 1.997 . S
O42 C37 1.235 . S
C43 O26 1.295 . S
C43 O27 1.235 . S
Fe44 O46 1.918 . S
Fe44 O49 1.997 . S
Fe44 O50 2.002 . S
Fe44 O55 1.976 . S
Fe44 O58 1.996 . S
Fe45 O46 1.918 . S
Fe45 O53 1.997 . S
Fe45 O56 1.996 . S
Fe45 O60 1.976 . S
Fe45 O63 2.002 . S
O46 Fe44 1.918 . S
O46 Fe45 1.918 . S
O46 Fe47 1.918 . S
Fe47 O46 1.918 . S
Fe47 O48 2.002 . S
Fe47 O57 1.976 . S
Fe47 O61 1.996 . S
Fe47 O64 1.997 . S
O48 Fe47 2.002 . S
O48 C65 1.295 . S
O49 Fe44 1.997 . S
O49 C65 1.235 . S
O50 Fe44 2.002 . S
O50 C51 1.295 . S
C51 O50 1.295 . S
C51 O53 1.235 . S
C52 O57 1.287 . S
C52 O58 1.255 . S
O53 Fe45 1.997 . S
O53 C51 1.235 . S
C54 O60 1.287 . S
C54 O61 1.255 . S
O55 Fe44 1.976 . S
O55 C62 1.287 . S
O56 Fe45 1.996 . S
O56 C62 1.255 . S
O57 Fe47 1.976 . S
O57 C52 1.287 . S
O58 Fe44 1.996 . S
O58 C52 1.255 . S
C59 O63 1.295 . S
C59 O64 1.235 . S
O60 Fe45 1.976 . S
O60 C54 1.287 . S
O61 Fe47 1.996 . S
O61 C54 1.255 . S
C62 O55 1.287 . S
C62 O56 1.255 . S
O63 Fe45 2.002 . S
O63 C59 1.295 . S
O64 Fe47 1.997 . S
O64 C59 1.235 . S
C65 O48 1.295 . S
C65 O49 1.235 . S
Fe66 O68 1.918 . S
Fe66 O71 1.997 . S
Fe66 O72 2.002 . S
Fe66 O77 1.978 . S
Fe66 O80 1.996 1_556 S
Fe67 O68 1.918 . S
Fe67 O75 1.997 . S
Fe67 O78 1.996 . S
Fe67 O82 1.976 . S
Fe67 O85 2.002 . S
O68 Fe66 1.918 . S
O68 Fe67 1.918 . S
O68 Fe69 1.918 . S
Fe69 O68 1.918 . S
Fe69 O70 2.002 . S
Fe69 O79 1.976 1_556 S
Fe69 O83 1.996 1_556 S
Fe69 O86 1.997 . S
O70 Fe69 2.002 . S
O70 C87 1.295 . S
O71 Fe66 1.997 . S
O71 C87 1.235 . S
O72 Fe66 2.002 . S
O72 C73 1.295 . S
C73 O72 1.295 . S
C73 O75 1.235 . S
C74 O79 1.287 . S
C74 O80 1.255 . S
O75 Fe67 1.997 . S
O75 C73 1.235 . S
C76 O82 1.296 . S
C76 O83 1.251 1_556 S
O77 Fe66 1.978 . S
O77 C84 1.289 . S
O78 Fe67 1.996 . S
O78 C84 1.255 . S
O79 Fe69 1.976 1_554 S
O79 C74 1.287 . S
O80 Fe66 1.996 1_554 S
O80 C74 1.255 . S
C81 O85 1.295 . S
C81 O86 1.235 . S
O82 Fe67 1.976 . S
O82 C76 1.296 . S
O83 Fe69 1.996 1_554 S
O83 C76 1.251 1_554 S
C84 O77 1.289 . S
C84 O78 1.255 . S
O85 Fe67 2.002 . S
O85 C81 1.295 . S
O86 Fe69 1.997 . S
O86 C81 1.235 . S
C87 O70 1.295 . S
C87 O71 1.235 . S
Fe88 O90 1.918 . S
Fe88 O93 1.997 . S
Fe88 O94 2.002 . S
Fe88 O99 1.976 . S
Fe88 O102 1.996 . S
Fe89 O90 1.918 . S
Fe89 O97 1.997 . S
Fe89 O100 1.996 . S
Fe89 O104 1.976 . S
Fe89 O107 2.002 . S
O90 Fe88 1.918 . S
O90 Fe89 1.918 . S
O90 Fe91 1.918 . S
Fe91 O90 1.918 . S
Fe91 O92 2.002 . S
Fe91 O101 1.976 . S
Fe91 O105 1.996 . S
Fe91 O108 1.997 . S
O92 Fe91 2.002 . S
O92 C109 1.295 . S
O93 Fe88 1.997 . S
O93 C109 1.235 . S
O94 Fe88 2.002 . S
O94 C95 1.295 . S
C95 O94 1.295 . S
C95 O97 1.235 . S
C96 O101 1.287 . S
C96 O102 1.255 . S
O97 Fe89 1.997 . S
O97 C95 1.235 . S
C98 O104 1.287 . S
C98 O105 1.255 . S
O99 Fe88 1.976 . S
O99 C106 1.287 . S
O100 Fe89 1.996 . S
O100 C106 1.255 . S
O101 Fe91 1.976 . S
O101 C96 1.287 . S
O102 Fe88 1.996 . S
O102 C96 1.255 . S
C103 O107 1.295 . S
C103 O108 1.235 . S
O104 Fe89 1.976 . S
O104 C98 1.287 . S
O105 Fe91 1.996 . S
O105 C98 1.255 . S
C106 O99 1.287 . S
C106 O100 1.255 . S
O107 Fe89 2.002 . S
O107 C103 1.295 . S
O108 Fe91 1.997 . S
O108 C103 1.235 . S
C109 O92 1.295 . S
C109 O93 1.235 . S
Fe110 O112 1.918 . S
Fe110 O115 1.997 . S
Fe110 O116 2.002 . S
Fe110 O121 1.976 . S
Fe110 O124 1.996 . S
Fe111 O112 1.918 . S
Fe111 O119 1.997 . S
Fe111 O122 1.996 . S
Fe111 O126 1.976 . S
Fe111 O129 2.002 . S
O112 Fe110 1.918 . S
O112 Fe111 1.918 . S
O112 Fe113 1.918 . S
Fe113 O112 1.918 . S
Fe113 O114 2.002 . S
Fe113 O123 1.976 . S
Fe113 O127 1.996 . S
Fe113 O130 1.997 . S
O114 Fe113 2.002 . S
O114 C131 1.295 . S
O115 Fe110 1.997 . S
O115 C131 1.235 . S
O116 Fe110 2.002 . S
O116 C117 1.295 . S
C117 O116 1.295 . S
C117 O119 1.235 . S
C118 O123 1.287 . S
C118 O124 1.255 . S
O119 Fe111 1.997 . S
O119 C117 1.235 . S
C120 O126 1.287 . S
C120 O127 1.255 . S
O121 Fe110 1.976 . S
O121 C128 1.287 . S
O122 Fe111 1.996 . S
O122 C128 1.255 . S
O123 Fe113 1.976 . S
O123 C118 1.287 . S
O124 Fe110 1.996 . S
O124 C118 1.255 . S
C125 O129 1.295 . S
C125 O130 1.235 . S
O126 Fe111 1.976 . S
O126 C120 1.287 . S
O127 Fe113 1.996 . S
O127 C120 1.255 . S
C128 O121 1.287 . S
C128 O122 1.255 . S
O129 Fe111 2.002 . S
O129 C125 1.295 . S
O130 Fe113 1.997 . S
O130 C125 1.235 . S
C131 O114 1.295 . S
C131 O115 1.235 . S
C132 C133 1.387 . S
C132 H136 0.950 . S
C132 C141 1.390 . S
C133 C132 1.387 . S
C133 C135 1.387 1_556 S
H134 C141 0.950 . S
C135 C133 1.387 1_554 S
C135 C137 1.390 . S
C135 H139 0.950 . S
H136 C132 0.950 . S
C137 C135 1.390 . S
C137 C138 1.387 . S
C137 H140 0.950 . S
C138 C137 1.387 . S
C138 C141 1.387 1_554 S
H139 C135 0.950 . S
H140 C137 0.950 . S
C141 C132 1.390 . S
C141 H134 0.950 . S
C141 C138 1.387 1_556 S
C142 C143 1.387 . S
C142 H146 0.950 . S
C142 C151 1.390 1_545 S
C143 C142 1.387 . S
C143 C145 1.387 . S
H144 C151 0.950 . S
C145 C143 1.387 . S
C145 C147 1.390 1_545 S
C145 H149 0.950 . S
H146 C142 0.950 . S
C147 C145 1.390 1_565 S
C147 C148 1.387 . S
C147 H150 0.950 . S
C148 C147 1.387 . S
C148 C151 1.387 . S
H149 C145 0.950 . S
H150 C147 0.950 . S
C151 C142 1.390 1_565 S
C151 H144 0.950 . S
C151 C148 1.387 . S
C152 C153 1.387 . S
C152 H156 0.950 . S
C152 C161 1.390 1_455 S
C153 C152 1.387 . S
C153 C155 1.387 . S
H154 C161 0.950 . S
C155 C153 1.387 . S
C155 C157 1.390 1_455 S
C155 H159 0.950 . S
H156 C152 0.950 . S
C157 C155 1.390 1_655 S
C157 C158 1.387 . S
C157 H160 0.950 . S
C158 C157 1.387 . S
C158 C161 1.387 . S
H159 C155 0.950 . S
H160 C157 0.950 . S
C161 C152 1.390 1_655 S
C161 H154 0.950 . S
C161 C158 1.387 . S
C162 C163 1.387 . S
C162 H166 0.950 . S
C162 C171 1.390 1_565 S
C163 C162 1.387 . S
C163 C165 1.387 . S
H164 C171 0.950 . S
C165 C163 1.387 . S
C165 C167 1.390 1_565 S
C165 H169 0.950 . S
H166 C162 0.950 . S
C167 C165 1.390 1_545 S
C167 C168 1.387 . S
C167 H170 0.950 . S
C168 C167 1.387 . S
C168 C171 1.387 . S
H169 C165 0.950 . S
H170 C167 0.950 . S
C171 C162 1.390 1_545 S
C171 H164 0.950 . S
C171 C168 1.387 . S
C172 C173 1.387 1_455 S
C172 H176 0.950 . S
C172 C181 1.390 . S
C173 C172 1.387 1_655 S
C173 C175 1.387 . S
H174 C181 0.950 . S
C175 C173 1.387 . S
C175 C177 1.390 . S
C175 H179 0.950 . S
H176 C172 0.950 . S
C177 C175 1.390 . S
C177 C178 1.387 1_655 S
C177 H180 0.950 . S
C178 C177 1.387 1_455 S
C178 C181 1.387 . S
H179 C175 0.950 . S
H180 C177 0.950 . S
C181 C172 1.390 . S
C181 H174 0.950 . S
C181 C178 1.387 . S
C182 C183 1.387 . S
C182 H186 0.950 . S
C182 C191 1.390 . S
C183 C182 1.387 . S
C183 C185 1.387 . S
H184 C191 0.950 . S
C185 C183 1.387 . S
C185 C187 1.390 . S
C185 H189 0.950 . S
H186 C182 0.950 . S
C187 C185 1.390 . S
C187 C188 1.387 . S
C187 H190 0.950 . S
C188 C187 1.387 . S
C188 C191 1.387 . S
H189 C185 0.950 . S
H190 C187 0.950 . S
C191 C182 1.390 . S
C191 H184 0.950 . S
C191 C188 1.387 . S
C192 C193 1.387 . S
C192 H196 0.950 . S
C192 C201 1.390 . S
C193 C192 1.387 . S
C193 C195 1.387 . S
H194 C201 0.950 . S
C195 C193 1.387 . S
C195 C197 1.390 . S
C195 H199 0.950 . S
H196 C192 0.950 . S
C197 C195 1.390 . S
C197 C198 1.387 . S
C197 H200 0.950 . S
C198 C197 1.387 . S
C198 C201 1.387 . S
H199 C195 0.950 . S
H200 C197 0.950 . S
C201 C192 1.390 . S
C201 H194 0.950 . S
C201 C198 1.387 . S
C202 C203 1.387 . S
C202 H206 0.950 . S
C202 C211 1.390 . S
C203 C202 1.387 . S
C203 C205 1.387 . S
H204 C211 0.950 . S
C205 C203 1.387 . S
C205 C207 1.390 . S
C205 H209 0.950 . S
H206 C202 0.950 . S
C207 C205 1.390 . S
C207 C208 1.387 . S
C207 H210 0.950 . S
C208 C207 1.387 . S
C208 C211 1.387 . S
H209 C205 0.950 . S
H210 C207 0.950 . S
C211 C202 1.390 . S
C211 H204 0.950 . S
C211 C208 1.387 . S
C212 C213 1.387 . S
C212 H216 0.950 . S
C212 C221 1.390 . S
C213 C212 1.387 . S
C213 C215 1.387 . S
H214 C221 0.950 . S
C215 C213 1.387 . S
C215 C217 1.390 . S
C215 H219 0.950 . S
H216 C212 0.950 . S
C217 C215 1.390 . S
C217 C218 1.387 . S
C217 H220 0.950 . S
C218 C217 1.387 . S
C218 C221 1.387 . S
H219 C215 0.950 . S
H220 C217 0.950 . S
C221 C212 1.390 . S
C221 H214 0.950 . S
C221 C218 1.387 . S
C222 C223 1.387 . S
C222 H226 0.950 . S
C222 C231 1.390 . S
C223 C222 1.387 . S
C223 C225 1.387 1_554 S
H224 C231 0.950 . S
C225 C223 1.387 1_556 S
C225 C227 1.390 . S
C225 H229 0.950 . S
H226 C222 0.950 . S
C227 C225 1.390 . S
C227 C228 1.387 1_556 S
C227 H230 0.950 . S
C228 C227 1.387 1_554 S
C228 C231 1.387 . S
H229 C225 0.950 . S
H230 C227 0.950 . S
C231 C222 1.390 . S
C231 H224 0.950 . S
C231 C228 1.387 . S
C232 C233 1.387 . S
C232 H236 0.950 . S
C232 C241 1.390 . S
C233 C232 1.387 . S
C233 C235 1.387 . S
H234 C241 0.950 . S
C235 C233 1.387 . S
C235 C237 1.390 . S
C235 H239 0.950 . S
H236 C232 0.950 . S
C237 C235 1.390 . S
C237 C238 1.387 . S
C237 H240 0.950 . S
C238 C237 1.387 . S
C238 C241 1.387 . S
H239 C235 0.950 . S
H240 C237 0.950 . S
C241 C232 1.390 . S
C241 H234 0.950 . S
C241 C238 1.387 . S
C242 C243 1.387 . S
C242 H246 0.950 . S
C242 C251 1.390 . S
C243 C242 1.387 . S
C243 C245 1.387 . S
H244 C251 0.950 . S
C245 C243 1.387 . S
C245 C247 1.390 . S
C245 H249 0.950 . S
H246 C242 0.950 . S
C247 C245 1.390 . S
C247 C248 1.387 . S
C247 H250 0.950 . S
C248 C247 1.387 . S
C248 C251 1.387 . S
H249 C245 0.950 . S
H250 C247 0.950 . S
C251 C242 1.390 . S
C251 H244 0.950 . S
C251 C248 1.387 . S
C252 C253 1.387 . S
C252 H256 0.950 . S
C252 C261 1.390 . S
C253 C252 1.387 . S
C253 C255 1.387 . S
H254 C261 0.950 . S
C255 C253 1.387 . S
C255 C257 1.390 . S
C255 H259 0.950 . S
H256 C252 0.950 . S
C257 C255 1.390 . S
C257 C258 1.387 . S
C257 H260 0.950 . S
C258 C257 1.387 . S
C258 C261 1.387 . S
H259 C255 0.950 . S
H260 C257 0.950 . S
C261 C252 1.390 . S
C261 H254 0.950 . S
C261 C258 1.387 . S
C262 C263 1.387 . S
C262 H266 0.950 . S
C262 C271 1.390 . S
C263 C262 1.387 . S
C263 C265 1.387 . S
H264 C271 0.950 . S
C265 C263 1.387 . S
C265 C267 1.390 . S
C265 H269 0.950 . S
H266 C262 0.950 . S
C267 C265 1.390 . S
C267 C268 1.387 . S
C267 H270 0.950 . S
C268 C267 1.387 . S
C268 C271 1.387 . S
H269 C265 0.950 . S
H270 C267 0.950 . S
C271 C262 1.390 . S
C271 H264 0.950 . S
C271 C268 1.387 . S
C272 C273 1.387 . S
C272 H276 0.950 . S
C272 C281 1.390 . S
C273 C272 1.387 . S
C273 C275 1.387 . S
H274 C281 0.950 . S
C275 C273 1.387 . S
C275 C277 1.390 . S
C275 H279 0.950 . S
H276 C272 0.950 . S
C277 C275 1.390 . S
C277 C278 1.387 . S
C277 H280 0.950 . S
C278 C277 1.387 . S
C278 C281 1.387 . S
H279 C275 0.950 . S
H280 C277 0.950 . S
C281 C272 1.390 . S
C281 H274 0.950 . S
C281 C278 1.387 . S
C282 C283 1.387 . S
C282 H286 0.950 . S
C282 C291 1.390 . S
C283 C282 1.387 . S
C283 C285 1.387 . S
H284 C291 0.950 . S
C285 C283 1.387 . S
C285 C287 1.390 . S
C285 H289 0.950 . S
H286 C282 0.950 . S
C287 C285 1.390 . S
C287 C288 1.387 . S
C287 H290 0.950 . S
C288 C287 1.387 . S
C288 C291 1.387 . S
H289 C285 0.950 . S
H290 C287 0.950 . S
C291 C282 1.390 . S
C291 H284 0.950 . S
C291 C288 1.387 . S
C292 C293 1.387 . S
C292 H296 0.950 . S
C292 C301 1.390 . S
C293 C292 1.387 . S
C293 C295 1.387 . S
H294 C301 0.950 . S
C295 C293 1.387 . S
C295 C297 1.390 . S
C295 H299 0.950 . S
H296 C292 0.950 . S
C297 C295 1.390 . S
C297 C298 1.387 . S
C297 H300 0.950 . S
C298 C297 1.387 . S
C298 C301 1.387 . S
H299 C295 0.950 . S
H300 C297 0.950 . S
C301 C292 1.390 . S
C301 H294 0.950 . S
C301 C298 1.387 . S
C302 C303 1.387 . S
C302 H306 0.950 . S
C302 C311 1.390 . S
C303 C302 1.387 . S
C303 C305 1.387 . S
H304 C311 0.950 . S
C305 C303 1.387 . S
C305 C307 1.390 . S
C305 H309 0.950 . S
H306 C302 0.950 . S
C307 C305 1.390 . S
C307 C308 1.387 . S
C307 H310 0.950 . S
C308 C307 1.387 . S
C308 C311 1.387 . S
H309 C305 0.950 . S
H310 C307 0.950 . S
C311 C302 1.390 . S
C311 H304 0.950 . S
C311 C308 1.387 . S
C133 C84 1.737 . S
C138 C8 1.736 . S
C143 C32 1.736 . S
C148 C106 1.736 . S
C153 C128 1.736 . S
C158 C52 1.737 . S
C163 C125 1.107 . S
C168 C7 1.107 . S
C173 C43 1.106 . S
C178 C81 1.107 . S
C183 C51 1.106 . S
C188 C103 1.107 . S
C193 C18 1.449 1_566 S
C198 C87 1.461 . S
C203 C109 1.462 . S
C208 C30 1.452 1_455 S
C213 C131 1.461 . S
C218 C62 1.455 . S
C223 C76 1.451 1_654 S
C228 C15 1.462 . S
C233 C98 1.452 . S
C238 C29 1.461 . S
C243 C59 1.463 . S
C248 C120 1.454 1_545 S
C253 C21 1.380 . S
C258 C54 1.376 . S
C263 C10 1.376 . S
C268 C37 1.381 . S
C273 C65 1.381 . S
C278 C40 1.376 . S
C283 C73 1.381 . S
C288 C96 1.376 . S
C293 C95 1.381 . S
C298 C118 1.377 . S
C303 C74 1.377 . S
C308 C117 1.380 . S
