# Generated by pormake.
# Topology utb, (3)-cn, num edge types: 1
# Building blocks:
#     Node 0, Type 0, BuildingBlock: OLANEW_clean_sbu_2, # of connection points: 3
#     Node 1, Type 0, BuildingBlock: OLANEW_clean_sbu_2, # of connection points: 3
#     Node 2, Type 0, BuildingBlock: OLANEW_clean_sbu_2, # of connection points: 3
#     Node 3, Type 0, BuildingBlock: OLANEW_clean_sbu_2, # of connection points: 3
#     Node 4, Type 0, BuildingBlock: OLANEW_clean_sbu_2, # of connection points: 3
#     Node 5, Type 0, BuildingBlock: OLANEW_clean_sbu_2, # of connection points: 3
#     Node 6, Type 0, BuildingBlock: OLANEW_clean_sbu_2, # of connection points: 3
#     Node 7, Type 0, BuildingBlock: OLANEW_clean_sbu_2, # of connection points: 3
#     Node 8, Type 0, BuildingBlock: OLANEW_clean_sbu_2, # of connection points: 3
#     Node 9, Type 0, BuildingBlock: OLANEW_clean_sbu_2, # of connection points: 3
#     Node 10, Type 0, BuildingBlock: OLANEW_clean_sbu_2, # of connection points: 3
#     Node 11, Type 0, BuildingBlock: OLANEW_clean_sbu_2, # of connection points: 3
#     Node 12, Type 0, BuildingBlock: OLANEW_clean_sbu_2, # of connection points: 3
#     Node 13, Type 0, BuildingBlock: OLANEW_clean_sbu_2, # of connection points: 3
#     Node 14, Type 0, BuildingBlock: OLANEW_clean_sbu_2, # of connection points: 3
#     Node 15, Type 0, BuildingBlock: OLANEW_clean_sbu_2, # of connection points: 3
#     Node 16, Type 0, BuildingBlock: OLANEW_clean_sbu_2, # of connection points: 3
#     Node 17, Type 0, BuildingBlock: OLANEW_clean_sbu_2, # of connection points: 3
#     Node 18, Type 0, BuildingBlock: OLANEW_clean_sbu_2, # of connection points: 3
#     Node 19, Type 0, BuildingBlock: OLANEW_clean_sbu_2, # of connection points: 3
#     Node 20, Type 0, BuildingBlock: OLANEW_clean_sbu_2, # of connection points: 3
#     Node 21, Type 0, BuildingBlock: OLANEW_clean_sbu_2, # of connection points: 3
#     Node 22, Type 0, BuildingBlock: OLANEW_clean_sbu_2, # of connection points: 3
#     Node 23, Type 0, BuildingBlock: OLANEW_clean_sbu_2, # of connection points: 3
#     Edge 24, Type (0, 0), BuildingBlock: EZIPEK_clean_linker_0, # of connection points: 2
#     Edge 25, Type (0, 0), BuildingBlock: EZIPEK_clean_linker_0, # of connection points: 2
#     Edge 26, Type (0, 0), BuildingBlock: EZIPEK_clean_linker_0, # of connection points: 2
#     Edge 27, Type (0, 0), BuildingBlock: EZIPEK_clean_linker_0, # of connection points: 2
#     Edge 28, Type (0, 0), BuildingBlock: EZIPEK_clean_linker_0, # of connection points: 2
#     Edge 29, Type (0, 0), BuildingBlock: EZIPEK_clean_linker_0, # of connection points: 2
#     Edge 30, Type (0, 0), BuildingBlock: EZIPEK_clean_linker_0, # of connection points: 2
#     Edge 31, Type (0, 0), BuildingBlock: EZIPEK_clean_linker_0, # of connection points: 2
#     Edge 32, Type (0, 0), BuildingBlock: EZIPEK_clean_linker_0, # of connection points: 2
#     Edge 33, Type (0, 0), BuildingBlock: EZIPEK_clean_linker_0, # of connection points: 2
#     Edge 34, Type (0, 0), BuildingBlock: EZIPEK_clean_linker_0, # of connection points: 2
#     Edge 35, Type (0, 0), BuildingBlock: EZIPEK_clean_linker_0, # of connection points: 2
#     Edge 36, Type (0, 0), BuildingBlock: EZIPEK_clean_linker_0, # of connection points: 2
#     Edge 37, Type (0, 0), BuildingBlock: EZIPEK_clean_linker_0, # of connection points: 2
#     Edge 38, Type (0, 0), BuildingBlock: EZIPEK_clean_linker_0, # of connection points: 2
#     Edge 39, Type (0, 0), BuildingBlock: EZIPEK_clean_linker_0, # of connection points: 2
#     Edge 40, Type (0, 0), BuildingBlock: EZIPEK_clean_linker_0, # of connection points: 2
#     Edge 41, Type (0, 0), BuildingBlock: EZIPEK_clean_linker_0, # of connection points: 2
#     Edge 42, Type (0, 0), BuildingBlock: EZIPEK_clean_linker_0, # of connection points: 2
#     Edge 43, Type (0, 0), BuildingBlock: EZIPEK_clean_linker_0, # of connection points: 2
#     Edge 44, Type (0, 0), BuildingBlock: EZIPEK_clean_linker_0, # of connection points: 2
#     Edge 45, Type (0, 0), BuildingBlock: EZIPEK_clean_linker_0, # of connection points: 2
#     Edge 46, Type (0, 0), BuildingBlock: EZIPEK_clean_linker_0, # of connection points: 2
#     Edge 47, Type (0, 0), BuildingBlock: EZIPEK_clean_linker_0, # of connection points: 2
#     Edge 48, Type (0, 0), BuildingBlock: EZIPEK_clean_linker_0, # of connection points: 2
#     Edge 49, Type (0, 0), BuildingBlock: EZIPEK_clean_linker_0, # of connection points: 2
#     Edge 50, Type (0, 0), BuildingBlock: EZIPEK_clean_linker_0, # of connection points: 2
#     Edge 51, Type (0, 0), BuildingBlock: EZIPEK_clean_linker_0, # of connection points: 2
#     Edge 52, Type (0, 0), BuildingBlock: EZIPEK_clean_linker_0, # of connection points: 2
#     Edge 53, Type (0, 0), BuildingBlock: EZIPEK_clean_linker_0, # of connection points: 2
#     Edge 54, Type (0, 0), BuildingBlock: EZIPEK_clean_linker_0, # of connection points: 2
#     Edge 55, Type (0, 0), BuildingBlock: EZIPEK_clean_linker_0, # of connection points: 2
#     Edge 56, Type (0, 0), BuildingBlock: EZIPEK_clean_linker_0, # of connection points: 2
#     Edge 57, Type (0, 0), BuildingBlock: EZIPEK_clean_linker_0, # of connection points: 2
#     Edge 58, Type (0, 0), BuildingBlock: EZIPEK_clean_linker_0, # of connection points: 2
#     Edge 59, Type (0, 0), BuildingBlock: EZIPEK_clean_linker_0, # of connection points: 2
# Relax obj value: 0.061
# Max RMSD: 0.181
# Mean RMSD: 0.059
data_MOF--net-utb--node1-OLANEW_clean_sbu_2--edge1-EZIPEK_clean_linker_0
_symmetry_space_group_name_H-M    P1
_symmetry_Int_Tables_number       1
_symmetry_cell_setting            triclinic
loop_
_symmetry_equiv_pos_as_xyz
'x, y, z'
_cell_length_a     47.799269
_cell_length_b     34.842364
_cell_length_c     41.732778
_cell_angle_alpha  89.837211
_cell_angle_beta   90.853904
_cell_angle_gamma 89.599628
loop_
_atom_site_label
_atom_site_type_symbol
_atom_site_fract_x
_atom_site_fract_y
_atom_site_fract_z
_atom_type_partial_charge
O0 O -0.00012 0.63063 0.1894 0.0
Cd1 Cd 0.02783 0.57406 0.17592 0.0
O2 O 0.98048 0.63483 0.14119 0.0
Cd3 Cd 0.01042 0.59687 0.11824 0.0
O4 O 0.04259 0.58593 0.08286 0.0
C5 C 0.04075 0.60432 0.05656 0.0
O6 O 0.01954 0.62784 0.05145 0.0
C7 C 0.98217 0.64584 0.17015 0.0
C8 C 0.01286 0.51495 0.21717 0.0
O9 O 0.03378 0.53643 0.22384 0.0
O10 O -0.00055 0.5206 0.19075 0.0
O11 O 0.58109 0.95911 0.12122 0.0
Cd12 Cd 0.62244 -0.00305 0.10946 0.0
O13 O 0.60369 0.93714 0.1637 0.0
Cd14 Cd 0.60366 0.90198 0.2071 0.0
O15 O 0.60224 0.86991 0.25199 0.0
C16 C 0.62488 0.85667 0.26402 0.0
O17 O 0.64847 0.86159 0.24886 0.0
C18 C 0.58164 0.93848 0.14636 0.0
C19 C 0.6126 0.07418 0.12229 0.0
O20 O 0.60879 0.06069 0.09403 0.0
O21 O 0.62124 0.05129 0.14445 0.0
O22 O 0.88699 0.76978 0.21708 0.0
Cd23 Cd 0.85892 0.82675 0.2286 0.0
O24 O 0.90872 0.79892 0.17782 0.0
Cd25 Cd 0.87323 0.83735 0.16925 0.0
O26 O 0.8399 0.82777 0.13378 0.0
C27 C 0.84392 0.79722 0.11782 0.0
O28 O 0.86609 0.77596 0.12437 0.0
C29 C 0.90659 0.77063 0.19687 0.0
C30 C 0.88916 0.86925 0.27358 0.0
O31 O 0.87248 0.84269 0.2823 0.0
O32 O 0.89075 0.87693 0.24361 0.0
O33 O 0.46624 0.84462 0.17034 0.0
Cd34 Cd 0.42896 0.8004 0.18447 0.0
O35 O 0.48504 0.84323 0.21888 0.0
Cd36 Cd 0.44722 0.81858 0.23872 0.0
O37 O 0.40504 0.82159 0.25789 0.0
C38 C 0.39501 0.85533 0.26008 0.0
O39 O 0.40986 0.88458 0.25033 0.0
C40 C 0.48599 0.85331 0.18963 0.0
C41 C 0.44829 0.72803 0.16742 0.0
O42 O 0.4342 0.74885 0.14755 0.0
O43 O 0.45207 0.7404 0.19603 0.0
O44 O 0.04318 0.45565 0.73848 0.0
Cd45 Cd 0.06045 0.51442 0.76328 0.0
O46 O 0.0076 0.45573 0.77159 0.0
Cd47 Cd 0.02658 0.49444 0.80657 0.0
O48 O 0.04582 0.50141 0.85395 0.0
C49 C 0.07201 0.5062 0.85722 0.0
O50 O 0.08695 0.50766 0.83106 0.0
C51 C 0.01986 0.44218 0.74724 0.0
C52 C 0.03086 0.5759 0.73599 0.0
O53 O 0.02108 0.55722 0.75977 0.0
O54 O 0.05501 0.56628 0.72561 0.0
O55 O 0.43562 0.2024 0.75914 0.0
Cd56 Cd 0.40638 0.25994 0.75973 0.0
O57 O 0.45958 0.2265 0.71917 0.0
Cd58 Cd 0.42373 0.26159 0.70405 0.0
O59 O 0.38987 0.22761 0.68366 0.0
C60 C 0.39818 0.20479 0.66205 0.0
O61 O 0.42356 0.20861 0.65087 0.0
C62 C 0.45687 0.20153 0.7412 0.0
C63 C 0.43749 0.31083 0.79663 0.0
O64 O 0.44132 0.30817 0.7664 0.0
O65 O 0.41775 0.29133 0.80906 0.0
O66 O 0.94433 0.30789 0.67636 0.0
Cd67 Cd 0.91132 0.25614 0.66564 0.0
O68 O 0.94464 0.29978 0.72888 0.0
Cd69 Cd 0.90967 0.26008 0.73196 0.0
O70 O 0.87282 0.25823 0.76239 0.0
C71 C 0.87297 0.2848 0.78321 0.0
O72 O 0.89393 0.30899 0.78395 0.0
C73 C 0.95357 0.31667 0.70407 0.0
C74 C 0.92636 0.2164 0.61054 0.0
O75 O 0.91067 0.24633 0.60879 0.0
O76 O 0.93477 0.20498 0.63829 0.0
O77 O 0.54111 0.05223 0.74654 0.0
Cd78 Cd 0.57821 0.00346 0.74753 0.0
O79 O 0.56906 0.10045 0.7583 0.0
Cd80 Cd 0.60611 0.06669 0.74776 0.0
O81 O 0.62651 0.06081 0.70179 0.0
C82 C 0.62295 0.08945 0.68322 0.0
O83 O 0.60911 0.11966 0.69335 0.0
C84 C 0.54465 0.08755 0.75298 0.0
C85 C 0.55651 0.9298 0.75398 0.0
O86 O 0.56301 0.94973 0.77873 0.0
O87 O 0.56027 0.94453 0.72622 0.0
O88 O 0.26737 0.96007 0.39937 0.0
Cd89 Cd 0.24759 0.93925 0.34814 0.0
O90 O 0.23644 0.92877 0.42783 0.0
Cd91 Cd 0.20693 0.92121 0.38813 0.0
O92 O 0.16479 0.93079 0.36878 0.0
C93 C 0.15219 0.96069 0.37856 0.0
O94 O 0.16534 0.98444 0.39787 0.0
C95 C 0.25867 0.9484 0.42628 0.0
C96 C 0.29133 0.90435 0.31585 0.0
O97 O 0.28579 0.94008 0.31182 0.0
O98 O 0.27548 0.88457 0.33397 0.0
O99 O 0.97182 0.29039 0.35879 0.0
Cd100 Cd 0.95645 0.35752 0.35996 0.0
O101 O 0.92786 0.27714 0.36752 0.0
Cd102 Cd 0.89402 0.23731 0.37776 0.0
O103 O 0.86236 0.20125 0.39959 0.0
C104 C 0.84303 0.21751 0.41523 0.0
O105 O 0.8424 0.25513 0.41721 0.0
C106 C 0.95284 0.26565 0.36332 0.0
C107 C 0.97611 0.4046 0.31126 0.0
O108 O 0.98915 0.40223 0.33826 0.0
O109 O 0.95431 0.38394 0.30685 0.0
O110 O 0.71356 0.8261 0.42966 0.0
Cd111 Cd 0.72036 0.75713 0.43587 0.0
O112 O 0.67999 0.82267 0.465 0.0
Cd113 Cd 0.66995 0.766 0.44654 0.0
O114 O 0.65863 0.77181 0.39609 0.0
C115 C 0.635 0.78697 0.38942 0.0
O116 O 0.61705 0.79282 0.41247 0.0
C117 C 0.69743 0.84251 0.44939 0.0
C118 C 0.75476 0.75473 0.48995 0.0
O119 O 0.72816 0.75261 0.49274 0.0
O120 O 0.76504 0.75514 0.46177 0.0
O121 O 0.97571 0.91834 0.47336 0.0
Cd122 Cd 0.99252 0.95318 0.42667 0.0
O123 O 0.01211 0.92914 0.50515 0.0
Cd124 Cd 0.03607 0.96347 0.4716 0.0
O125 O 0.07821 0.9862 0.46687 0.0
C126 C 0.09055 0.99014 0.49383 0.0
O127 O 0.07672 0.98309 0.52014 0.0
C128 C 0.98834 0.91406 0.50016 0.0
C129 C 0.959 0.93328 0.37412 0.0
O130 O 0.98028 0.91285 0.38246 0.0
O131 O 0.9539 0.96391 0.38999 0.0
O132 O 0.3349 0.96787 0.55718 0.0
Cd133 Cd 0.35083 0.97947 0.6119 0.0
O134 O 0.30133 0.01024 0.56424 0.0
Cd135 Cd 0.26268 0.03679 0.54623 0.0
O136 O 0.22068 0.04289 0.52575 0.0
C137 C 0.2066 0.01213 0.52516 0.0
O138 O 0.21831 0.98017 0.53566 0.0
C139 C 0.31321 0.98536 0.54676 0.0
C140 C 0.35786 0.05655 0.62606 0.0
O141 O 0.37809 0.03631 0.61524 0.0
O142 O 0.33397 0.04075 0.62955 0.0
O143 O 0.972 0.08294 0.33821 0.0
Cd144 Cd 0.98036 0.01371 0.33654 0.0
O145 O 0.98355 0.0844 0.38931 0.0
Cd146 Cd 0.98758 0.11554 0.43454 0.0
O147 O 0.97828 0.1475 0.47807 0.0
C148 C 0.95908 0.13492 0.49596 0.0
O149 O 0.94608 0.10315 0.48805 0.0
C150 C 0.97552 0.10181 0.36395 0.0
C151 C 0.03621 0.99561 0.34898 0.0
O152 O 0.02764 0.00313 0.32039 0.0
O153 O 0.0185 -0.00346 0.37171 0.0
O154 O 0.71808 0.01968 0.49505 0.0
Cd155 Cd 0.7189 0.08658 0.51247 0.0
O156 O 0.67942 0.02529 0.46587 0.0
Cd157 Cd 0.672 0.08233 0.48505 0.0
O158 O 0.65961 0.10299 0.53192 0.0
C159 C 0.65753 0.07585 0.55211 0.0
O160 O 0.66257 0.04044 0.54313 0.0
C161 C 0.69985 0.00505 0.47631 0.0
C162 C 0.75928 0.12858 0.48068 0.0
O163 O 0.76534 0.11054 0.5067 0.0
O164 O 0.73417 0.12681 0.46961 0.0
O165 O 0.94818 0.78721 0.60623 0.0
Cd166 Cd 0.9261 0.74897 0.64803 0.0
O167 O 0.91352 0.82928 0.60597 0.0
Cd168 Cd 0.88465 0.79001 0.62891 0.0
O169 O 0.84964 0.76429 0.60292 0.0
C170 C 0.82863 0.78596 0.59757 0.0
O171 O 0.82762 0.81982 0.61132 0.0
C172 C 0.93763 0.81896 0.59676 0.0
C173 C 0.96189 0.69442 0.67604 0.0
O174 O 0.96226 0.72948 0.68525 0.0
O175 O 0.94489 0.68524 0.65333 0.0
O176 O 0.5616 0.34123 0.10778 0.0
Cd177 Cd 0.58063 0.31281 0.15697 0.0
O178 O 0.51887 0.32586 0.12135 0.0
Cd179 Cd 0.47423 0.32334 0.11039 0.0
O180 O 0.42951 0.31991 0.10008 0.0
C181 C 0.41745 0.28756 0.09896 0.0
O182 O 0.43209 0.25599 0.10385 0.0
C183 C 0.53553 0.34077 0.10153 0.0
C184 C 0.59097 0.23506 0.14752 0.0
O185 O 0.60946 0.26017 0.14078 0.0
O186 O 0.56773 0.24658 0.15917 0.0
O187 O 0.49566 0.67307 0.82238 0.0
Cd188 Cd 0.48943 0.70278 0.76953 0.0
O189 O 0.45261 0.69005 0.83369 0.0
Cd190 Cd 0.4172 0.69013 0.8661 0.0
O191 O 0.3789 0.68483 0.89353 0.0
C192 C 0.35918 0.66483 0.88176 0.0
O193 O 0.36228 0.64832 0.85378 0.0
C194 C 0.47549 0.67379 0.84184 0.0
C195 C 0.51118 0.77665 0.7659 0.0
O196 O 0.48593 0.77119 0.77467 0.0
O197 O 0.52627 0.7473 0.75915 0.0
O198 O 0.23545 0.36099 0.03711 0.0
Cd199 Cd 0.24158 0.29701 0.05995 0.0
O200 O 0.18987 0.35552 0.03044 0.0
Cd201 Cd 0.15171 0.38403 0.01308 0.0
O202 O 0.12723 0.42716 0.98678 0.0
C203 C 0.1277 0.4253 0.95641 0.0
O204 O 0.14211 0.39773 0.94279 0.0
C205 C 0.2121 0.37502 0.02792 0.0
C206 C 0.29835 0.28757 0.07278 0.0
O207 O 0.28773 0.27703 0.04587 0.0
O208 O 0.28204 0.30124 0.09407 0.0
O209 O 0.54673 0.41121 0.96795 0.0
Cd210 Cd 0.55545 0.4336 0.91337 0.0
O211 O 0.50498 0.43756 0.9682 0.0
Cd212 Cd 0.51976 0.47841 0.93224 0.0
O213 O 0.55231 0.5127 0.90936 0.0
C214 C 0.56294 0.53968 0.92582 0.0
O215 O 0.5523 0.54793 0.95377 0.0
C216 C 0.52296 0.41502 0.98099 0.0
C217 C 0.51746 0.39698 0.87256 0.0
O218 O 0.54152 0.38212 0.87886 0.0
O219 O 0.51154 0.42971 0.88465 0.0
O220 O 0.77659 0.41536 0.93838 0.0
Cd221 Cd 0.76129 0.34914 0.93089 0.0
O222 O 0.73678 0.44044 0.95537 0.0
Cd223 Cd 0.7071 0.39372 0.95923 0.0
O224 O 0.66491 0.41101 0.97321 0.0
C225 C 0.66376 0.43401 0.99677 0.0
O226 O 0.68691 0.4428 0.01235 0.0
C227 C 0.76213 0.44404 0.94724 0.0
C228 C 0.79221 0.32027 0.88016 0.0
O229 O 0.76804 0.3355 0.8752 0.0
O230 O 0.8012 0.31697 0.90912 0.0
O231 O 0.48767 0.57687 0.97836 0.0
Cd232 Cd 0.50516 0.54449 0.02755 0.0
O233 O 0.51896 0.62277 0.98058 0.0
Cd234 Cd 0.52801 0.61048 0.03078 0.0
O235 O 0.51891 0.6204 0.08106 0.0
C236 C 0.49415 0.61414 0.09034 0.0
O237 O 0.4761 0.60114 0.06901 0.0
C238 C 0.49929 0.60576 0.96565 0.0
C239 C 0.55879 0.51203 0.02134 0.0
O240 O 0.53696 0.49566 0.00989 0.0
O241 O 0.55548 0.54367 0.03638 0.0
O242 O 0.20575 0.55713 0.99389 0.0
Cd243 Cd 0.20466 0.62409 0.97645 0.0
O244 O 0.19741 0.53343 0.94579 0.0
Cd245 Cd 0.18147 0.58925 0.93072 0.0
O246 O 0.14547 0.61193 0.9559 0.0
C247 C 0.12889 0.58575 0.9648 0.0
O248 O 0.13365 0.55014 0.95618 0.0
C249 C 0.20363 0.52844 0.97524 0.0
C250 C 0.25475 0.64091 0.94663 0.0
O251 O 0.25216 0.64553 0.97689 0.0
O252 O 0.2336 0.62913 0.93031 0.0
O253 O 0.77477 0.63089 0.95986 0.0
Cd254 Cd 0.75748 0.69712 0.95923 0.0
O255 O 0.74411 0.60953 0.92419 0.0
Cd256 Cd 0.71747 0.65997 0.91847 0.0
O257 O 0.67344 0.6439 0.91883 0.0
C258 C 0.6658 0.61889 0.89843 0.0
O259 O 0.6833 0.60807 0.87615 0.0
C260 C 0.76478 0.60371 0.9431 0.0
C261 C 0.77996 0.73497 0.01229 0.0
O262 O 0.7926 0.73493 0.98543 0.0
O263 O 0.75623 0.71822 0.01393 0.0
C264 C 0.97383 0.71298 0.18977 0.0
C265 C 0.9631 0.67649 0.18117 0.0
C266 C 0.91519 0.70143 0.18375 0.0
C267 C 0.92583 0.73749 0.19373 0.0
N268 N 0.96451 0.7755 0.21287 0.0
N269 N 0.92402 0.63333 0.17742 0.0
C270 C 0.95496 0.74261 0.1988 0.0
C271 C 0.93388 0.6699 0.1805 0.0
N272 N 0.00187 0.71992 0.1878 0.0
N273 N 0.88751 0.69773 0.17562 0.0
H274 H 0.9372 0.60948 0.17532 0.0
H275 H 0.90306 0.62622 0.18008 0.0
H276 H 0.87302 0.72012 0.17726 0.0
H277 H 0.8793 0.6734 0.16462 0.0
H278 H 0.01052 0.74714 0.19012 0.0
H279 H 0.01642 0.69897 0.18141 0.0
H280 H 0.98521 0.77935 0.22023 0.0
H281 H 0.95119 0.79767 0.2199 0.0
C282 C 0.55859 0.8761 0.15927 0.0
C283 C 0.55667 0.91658 0.15593 0.0
C284 C 0.50743 0.91492 0.1716 0.0
C285 C 0.51024 0.87504 0.17793 0.0
N286 N 0.53911 0.81808 0.18172 0.0
N287 N 0.53088 0.97558 0.16373 0.0
C288 C 0.53605 0.85575 0.17301 0.0
C289 C 0.53146 0.93632 0.16316 0.0
N290 N 0.58153 0.85694 0.14811 0.0
N291 N 0.48181 0.93236 0.17371 0.0
H292 H 0.54811 0.99242 0.15822 0.0
H293 H 0.51413 0.99157 0.17232 0.0
H294 H 0.464 0.91815 0.18149 0.0
H295 H 0.47774 0.9602 0.1657 0.0
H296 H 0.58294 0.82716 0.14678 0.0
H297 H 0.59826 0.87081 0.13739 0.0
H298 H 0.55828 0.80371 0.18227 0.0
H299 H 0.52276 0.80175 0.19065 0.0
C300 C 0.0161 0.37208 0.73471 0.0
C301 C 0.00659 0.41029 0.72959 0.0
C302 C 0.96417 0.38708 0.70269 0.0
C303 C 0.97338 0.34876 0.70829 0.0
N304 N 0.01057 0.30453 0.72205 0.0
N305 N 0.97608 0.4547 0.70172 0.0
C306 C 0.00024 0.34121 0.72184 0.0
C307 C 0.98208 0.41791 0.71115 0.0
N308 N 0.03945 0.36529 0.75323 0.0
N309 N 0.93765 0.39414 0.69128 0.0
H310 H 0.98894 0.4778 0.70763 0.0
H311 H 0.95999 0.46184 0.68565 0.0
H312 H 0.92382 0.3725 0.68461 0.0
H313 H 0.92858 0.42138 0.69045 0.0
H314 H 0.0456 0.33811 0.76113 0.0
H315 H 0.052 0.38724 0.76227 0.0
H316 H 0.03099 0.29742 0.72889 0.0
H317 H -0.00061 0.28148 0.71253 0.0
C318 C 0.48208 0.14398 0.72028 0.0
C319 C 0.47813 0.17082 0.74527 0.0
C320 C 0.5144 0.1383 0.77761 0.0
C321 C 0.52074 0.11468 0.75101 0.0
N322 N 0.51406 0.10012 0.69475 0.0
N323 N 0.49294 0.19729 0.79604 0.0
C324 C 0.50543 0.11869 0.72173 0.0
C325 C 0.49485 0.16893 0.77361 0.0
N326 N 0.4631 0.1419 0.69554 0.0
N327 N 0.52652 0.13082 0.80685 0.0
H328 H 0.47915 0.22046 0.79363 0.0
H329 H 0.50664 0.19968 0.81556 0.0
H330 H 0.54065 0.10825 0.8107 0.0
H331 H 0.52064 0.14463 0.82783 0.0
H332 H 0.46332 0.12017 0.67844 0.0
H333 H 0.44548 0.1596 0.69396 0.0
H334 H 0.50546 0.10548 0.67207 0.0
H335 H 0.53158 0.08217 0.69424 0.0
C336 C 0.27953 -0.00335 0.46424 0.0
C337 C 0.27425 0.9578 0.45613 0.0
C338 C 0.29313 0.93712 0.50828 0.0
C339 C 0.3009 0.97554 0.51506 0.0
N340 N 0.30718 0.04047 0.49631 0.0
N341 N 0.28197 0.8905 0.46727 0.0
C342 C 0.29584 0.00492 0.49204 0.0
C343 C 0.28283 0.92783 0.47721 0.0
N344 N 0.26782 0.02574 0.44645 0.0
N345 N 0.29417 0.9098 0.53185 0.0
H346 H 0.27527 0.88256 0.44434 0.0
H347 H 0.29062 0.86788 0.48055 0.0
H348 H 0.30069 0.91547 0.5553 0.0
H349 H 0.28589 0.88242 0.52897 0.0
H350 H 0.26854 0.05442 0.45342 0.0
H351 H 0.25501 0.02106 0.42642 0.0
H352 H 0.30643 0.06178 0.47874 0.0
H353 H 0.3197 0.04744 0.51611 0.0
C354 C 0.95225 0.16028 0.3873 0.0
C355 C 0.97025 0.14388 0.36424 0.0
C356 C 0.9749 0.20695 0.33874 0.0
C357 C 0.95968 0.22397 0.36406 0.0
N358 N 0.94061 0.21735 0.41712 0.0
N359 N 0.00404 0.15363 0.32252 0.0
C360 C 0.95033 0.2008 0.38977 0.0
C361 C 0.98316 0.16779 0.34123 0.0
N362 N 0.93599 0.13741 0.40593 0.0
N363 N 0.9804 0.22743 0.3116 0.0
H364 H 0.0115 0.1255 0.32436 0.0
H365 H 0.01596 0.17093 0.30766 0.0
H366 H 0.97381 0.25573 0.30808 0.0
H367 H 0.98894 0.21504 0.29123 0.0
H368 H 0.92054 0.14834 0.4208 0.0
H369 H 0.93599 0.10756 0.40418 0.0
H370 H 0.93603 0.20156 0.43763 0.0
H371 H 0.9399 0.24699 0.42047 0.0
C372 C 0.69716 0.91112 0.4301 0.0
C373 C 0.69998 0.88415 0.45556 0.0
C374 C 0.7017 0.9364 0.49449 0.0
C375 C 0.70101 0.96351 0.46898 0.0
N376 N 0.70406 0.97667 0.41238 0.0
N377 N 0.71281 0.87139 0.51077 0.0
C378 C 0.70049 0.95088 0.43669 0.0
C379 C 0.70462 0.89687 0.48741 0.0
N380 N 0.69021 0.89904 0.3999 0.0
N381 N 0.69805 0.94801 0.52543 0.0
H382 H 0.71607 0.84225 0.5064 0.0
H383 H 0.7193 0.87987 0.53361 0.0
H384 H 0.69484 0.97653 0.53191 0.0
H385 H 0.69534 0.92886 0.54434 0.0
H386 H 0.68481 0.91775 0.38127 0.0
H387 H 0.68743 0.87026 0.394 0.0
H388 H 0.70673 0.96866 0.38859 0.0
H389 H 0.70708 0.00591 0.41636 0.0
C390 C 0.95665 0.82774 0.54159 0.0
C391 C 0.95215 0.84264 0.57273 0.0
C392 C 0.96943 0.90542 0.55556 0.0
C393 C 0.976 0.88959 0.52526 0.0
N394 N 0.98151 0.83373 0.49176 0.0
N395 N 0.95862 0.89331 0.61128 0.0
C396 C 0.97122 0.85017 0.51892 0.0
C397 C 0.95981 0.88086 0.58029 0.0
N398 N 0.94584 0.79292 0.53307 0.0
N399 N 0.97127 0.94414 0.56029 0.0
H400 H 0.95187 0.87595 0.63001 0.0
H401 H 0.96666 0.91949 0.61891 0.0
H402 H 0.97794 0.96312 0.54266 0.0
H403 H 0.96391 0.95789 0.58066 0.0
H404 H 0.94569 0.78274 0.50962 0.0
H405 H 0.93471 0.7756 0.54873 0.0
H406 H 0.98133 0.80426 0.48765 0.0
H407 H 0.99268 0.84898 0.47469 0.0
C408 C 0.52641 0.35343 0.01204 0.0
C409 C 0.51701 0.39227 0.01055 0.0
C410 C 0.51274 0.39334 0.06908 0.0
C411 C 0.52504 0.35627 0.07057 0.0
N412 N 0.53641 0.2968 0.04469 0.0
N413 N 0.49112 0.44329 0.03655 0.0
C414 C 0.52951 0.33489 0.04232 0.0
C415 C 0.50663 0.41026 0.03863 0.0
N416 N 0.53255 0.33457 0.9843 0.0
N417 N 0.50856 0.41336 0.09676 0.0
H418 H 0.48559 0.45662 0.01508 0.0
H419 H 0.48101 0.45552 0.05597 0.0
H420 H 0.5119 0.4014 0.11945 0.0
H421 H 0.50348 0.44244 0.09736 0.0
H422 H 0.54276 0.30817 0.9833 0.0
H423 H 0.52738 0.34582 0.96179 0.0
H424 H 0.53816 0.27839 0.02525 0.0
H425 H 0.53851 0.28262 0.06667 0.0
C426 C 0.4831 0.66149 0.93211 0.0
C427 C 0.48906 0.62157 0.93439 0.0
C428 C 0.47993 0.61516 0.87654 0.0
C429 C 0.47867 0.65571 0.87383 0.0
N430 N 0.48125 0.71816 0.89842 0.0
N431 N 0.49414 0.56001 0.90835 0.0
C432 C 0.48066 0.67909 0.90147 0.0
C433 C 0.4873 0.5981 0.90657 0.0
N434 N 0.47862 0.6823 0.95931 0.0
N435 N 0.4735 0.59298 0.85051 0.0
H436 H 0.49923 0.54604 0.92972 0.0
H437 H 0.49676 0.54266 0.88833 0.0
H438 H 0.46822 0.60457 0.82813 0.0
H439 H 0.47099 0.56335 0.85168 0.0
H440 H 0.47155 0.71064 0.95908 0.0
H441 H 0.47892 0.67 0.98214 0.0
H442 H 0.48601 0.73649 0.91737 0.0
H443 H 0.47915 0.73225 0.87642 0.0
C444 C 0.19357 0.44234 0.02964 0.0
C445 C 0.21065 0.41446 0.01464 0.0
C446 C 0.22562 0.46266 0.97566 0.0
C447 C 0.20614 0.48913 0.98854 0.0
N448 N 0.1668 0.50091 0.02302 0.0
N449 N 0.23919 0.39595 0.96991 0.0
C450 C 0.18877 0.47812 0.01424 0.0
C451 C 0.22571 0.424 0.98668 0.0
N452 N 0.18256 0.43514 0.05908 0.0
N453 N 0.24471 0.47469 0.9538 0.0
H454 H 0.23945 0.3672 0.97692 0.0
H455 H 0.24793 0.40058 0.94752 0.0
H456 H 0.24562 0.50294 0.94556 0.0
H457 H 0.26126 0.45761 0.94613 0.0
H458 H 0.17235 0.45602 0.07249 0.0
H459 H 0.18595 0.40947 0.0715 0.0
H460 H 0.15174 0.49218 0.03925 0.0
H461 H 0.16183 0.52684 0.01172 0.0
C462 C 0.7732 0.5034 0.9772 0.0
C463 C 0.77405 0.48309 0.94794 0.0
C464 C 0.78274 0.54316 0.91939 0.0
C465 C 0.77499 0.56373 0.94714 0.0
N466 N 0.76302 0.5636 0.00332 0.0
N467 N 0.78096 0.48278 0.89077 0.0
C468 C 0.77107 0.54405 0.97661 0.0
C469 C 0.77999 0.50256 0.91896 0.0
N470 N 0.77394 0.4835 0.00545 0.0
N471 N 0.79233 0.56276 0.89342 0.0
H472 H 0.77969 0.45298 0.88954 0.0
H473 H 0.78168 0.49599 0.86839 0.0
H474 H 0.79461 0.59254 0.89355 0.0
H475 H 0.8005 0.54944 0.87328 0.0
H476 H 0.77582 0.49656 0.02779 0.0
H477 H 0.77559 0.4536 0.0062 0.0
H478 H 0.75626 0.55012 0.0241 0.0
H479 H 0.76145 0.59337 0.00437 0.0
C480 C 0.1128 0.60518 0.0193 0.0
C481 C 0.10618 0.59392 0.98744 0.0
C482 C 0.05683 0.58741 0.00135 0.0
C483 C 0.06315 0.60116 0.03259 0.0
N484 N 0.09586 0.63109 0.06921 0.0
N485 N 0.07166 0.58123 0.94627 0.0
C486 C 0.09078 0.61234 0.04099 0.0
C487 C 0.07809 0.58707 0.9779 0.0
N488 N 0.14011 0.60734 0.02933 0.0
N489 N 0.03088 0.57303 0.99448 0.0
H490 H 0.08676 0.58065 0.92847 0.0
H491 H 0.05123 0.58056 0.93729 0.0
H492 H 0.01482 0.57238 0.01111 0.0
H493 H 0.02598 0.55879 0.97325 0.0
H494 H 0.14609 0.61081 0.05324 0.0
H495 H 0.15697 0.60247 0.01427 0.0
H496 H 0.115 0.64361 0.07498 0.0
H497 H 0.08024 0.63742 0.0856 0.0
C498 C 0.57685 0.1721 0.1231 0.0
C499 C 0.59627 0.19371 0.14159 0.0
C500 C 0.62773 0.13793 0.14449 0.0
C501 C 0.60694 0.11523 0.12919 0.0
N502 N 0.55905 0.10901 0.11064 0.0
N503 N 0.63739 0.19466 0.17594 0.0
C504 C 0.58071 0.13181 0.12037 0.0
C505 C 0.62095 0.17593 0.15403 0.0
N506 N 0.55542 0.19012 0.10689 0.0
N507 N 0.65433 0.12397 0.14869 0.0
H508 H 0.6327 0.22205 0.1844 0.0
H509 H 0.65403 0.18147 0.18817 0.0
H510 H 0.66054 0.09679 0.14105 0.0
H511 H 0.67093 0.14081 0.15671 0.0
H512 H 0.54246 0.17609 0.09047 0.0
H513 H 0.55234 0.21977 0.10721 0.0
H514 H 0.53873 0.11935 0.10707 0.0
H515 H 0.5606 0.07919 0.10943 0.0
C516 C 0.81874 0.80658 0.06484 0.0
C517 C 0.82377 0.78425 0.09287 0.0
C518 C 0.79925 0.72986 0.06851 0.0
C519 C 0.79314 0.75267 0.04099 0.0
N520 N 0.79116 0.81515 0.01606 0.0
N521 N 0.81269 0.72873 0.12471 0.0
C522 C 0.80106 0.79184 0.04012 0.0
C523 C 0.81203 0.74717 0.09573 0.0
N524 N 0.832 0.84087 0.06097 0.0
N525 N 0.79446 0.69121 0.06807 0.0
H526 H 0.82146 0.74091 0.14531 0.0
H527 H 0.80206 0.70329 0.12906 0.0
H528 H 0.78578 0.67696 0.04843 0.0
H529 H 0.80148 0.67262 0.0861 0.0
H530 H 0.83174 0.85616 0.03948 0.0
H531 H 0.84513 0.85275 0.07841 0.0
H532 H 0.7939 0.84478 0.01586 0.0
H533 H 0.77784 0.80541 0.99785 0.0
C534 C 0.49039 0.68727 0.15525 0.0
C535 C 0.4608 0.6913 0.15676 0.0
C536 C 0.45518 0.63033 0.12828 0.0
C537 C 0.48401 0.63121 0.12102 0.0
N538 N 0.52945 0.64513 0.14327 0.0
N539 N 0.41485 0.66456 0.1489 0.0
C540 C 0.50188 0.65482 0.13956 0.0
C541 C 0.44312 0.66177 0.14498 0.0
N542 N 0.50748 0.71564 0.1665 0.0
N543 N 0.44001 0.59846 0.12077 0.0
H544 H 0.40567 0.68589 0.16284 0.0
H545 H 0.40044 0.64661 0.13766 0.0
H546 H 0.44947 0.57377 0.11169 0.0
H547 H 0.41921 0.5946 0.12695 0.0
H548 H 0.5289 0.71632 0.1623 0.0
H549 H 0.50011 0.73996 0.17819 0.0
H550 H 0.54321 0.65963 0.15848 0.0
H551 H 0.53746 0.61933 0.13451 0.0
C552 C 0.08417 0.46042 0.93768 0.0
C553 C 0.11362 0.455 0.93629 0.0
C554 C 0.11567 0.50091 0.89169 0.0
C555 C 0.08614 0.4998 0.88916 0.0
N556 N 0.04418 0.49871 0.92031 0.0
N557 N 0.15819 0.47345 0.91478 0.0
C558 C 0.07083 0.48588 0.91552 0.0
C559 C 0.12967 0.47667 0.91434 0.0
N560 N 0.06863 0.43929 0.95845 0.0
N561 N 0.12992 0.5272 0.87405 0.0
H562 H 0.16927 0.45873 0.93274 0.0
H563 H 0.17086 0.4844 0.89691 0.0
H564 H 0.11952 0.54781 0.86003 0.0
H565 H 0.15134 0.53186 0.87632 0.0
H566 H 0.04684 0.43873 0.95769 0.0
H567 H 0.07737 0.41998 0.97494 0.0
H568 H 0.03269 0.49195 0.94054 0.0
H569 H 0.03523 0.52066 0.90644 0.0
C570 C 0.46208 0.37269 0.80922 0.0
C571 C 0.45679 0.33374 0.81697 0.0
C572 C 0.48829 0.33851 0.86361 0.0
C573 C 0.49633 0.37567 0.85348 0.0
N574 N 0.49399 0.42622 0.81385 0.0
N575 N 0.46926 0.27725 0.84814 0.0
C576 C 0.48402 0.39236 0.82555 0.0
C577 C 0.47102 0.31598 0.84329 0.0
N578 N 0.44553 0.39132 0.78708 0.0
N579 N 0.49618 0.3252 0.89326 0.0
H580 H 0.4573 0.25915 0.83372 0.0
H581 H 0.48188 0.26244 0.86465 0.0
H582 H 0.50818 0.3412 0.90933 0.0
H583 H 0.48838 0.30005 0.90319 0.0
H584 H 0.4466 0.42074 0.7828 0.0
H585 H 0.42882 0.37814 0.77525 0.0
H586 H 0.48784 0.43765 0.79174 0.0
H587 H 0.51032 0.44119 0.82483 0.0
C588 C 0.84268 0.2632 0.82874 0.0
C589 C 0.84918 0.29089 0.80503 0.0
C590 C 0.81791 0.33751 0.83017 0.0
C591 C 0.8103 0.30933 0.85305 0.0
N592 N 0.81057 0.2431 0.86995 0.0
N593 N 0.83752 0.35028 0.7781 0.0
C594 C 0.8212 0.27141 0.85105 0.0
C595 C 0.83501 0.32674 0.80415 0.0
N596 N 0.8579 0.22992 0.83101 0.0
N597 N 0.81037 0.3751 0.83427 0.0
H598 H 0.8495 0.34295 0.7583 0.0
H599 H 0.82548 0.37503 0.77466 0.0
H600 H 0.79863 0.38481 0.8535 0.0
H601 H 0.81807 0.39736 0.82028 0.0
H602 H 0.85634 0.21075 0.85008 0.0
H603 H 0.87366 0.22274 0.81505 0.0
H604 H 0.81569 0.21418 0.86739 0.0
H605 H 0.79459 0.24807 0.88621 0.0
C606 C 0.50894 0.84347 0.7431 0.0
C607 C 0.52258 0.816 0.76323 0.0
C608 C 0.5599 0.86211 0.77483 0.0
C609 C 0.54478 0.89071 0.75738 0.0
N610 N 0.50204 0.91073 0.73043 0.0
N611 N 0.55804 0.80159 0.80335 0.0
C612 C 0.51848 0.882 0.74303 0.0
C613 C 0.54725 0.82597 0.78054 0.0
N614 N 0.48765 0.83248 0.72298 0.0
N615 N 0.58679 0.86878 0.7848 0.0
H616 H 0.54906 0.77522 0.8088 0.0
H617 H 0.57423 0.80913 0.81904 0.0
H618 H 0.5971 0.89452 0.7805 0.0
H619 H 0.5998 0.84752 0.79457 0.0
H620 H 0.47902 0.85039 0.70535 0.0
H621 H 0.48042 0.80436 0.72165 0.0
H622 H 0.48144 0.90657 0.72277 0.0
H623 H 0.50792 0.9395 0.73054 0.0
C624 C 0.07333 0.94952 0.36829 0.0
C625 C 0.06597 0.9861 0.35561 0.0
C626 C 0.11554 0.0033 0.35345 0.0
C627 C 0.12265 0.96843 0.36932 0.0
N628 N 0.10803 0.91078 0.39647 0.0
N629 N 0.07943 0.05032 0.34084 0.0
C630 C 0.10149 0.94208 0.37792 0.0
C631 C 0.0869 0.01369 0.34936 0.0
N632 N 0.05363 0.92139 0.37006 0.0
N633 N 0.13614 0.02587 0.34129 0.0
H634 H 0.05867 0.05923 0.33793 0.0
H635 H 0.09364 0.07276 0.33946 0.0
H636 H 0.15735 0.01888 0.34334 0.0
H637 H 0.13216 0.04953 0.32657 0.0
H638 H 0.05835 0.89294 0.3758 0.0
H639 H 0.03286 0.92559 0.36286 0.0
H640 H 0.09302 0.89321 0.40668 0.0
H641 H 0.12835 0.90413 0.40411 0.0
C642 C 0.8051 0.16788 0.41449 0.0
C643 C 0.82183 0.19431 0.43195 0.0
C644 C 0.79552 0.1804 0.48053 0.0
C645 C 0.78081 0.15115 0.46389 0.0
N646 N 0.77561 0.11176 0.41667 0.0
N647 N 0.83694 0.21985 0.48305 0.0
C648 C 0.78669 0.14339 0.43128 0.0
C649 C 0.81817 0.19895 0.46541 0.0
N650 N 0.8059 0.1672 0.38176 0.0
N651 N 0.78715 0.19169 0.51026 0.0
H652 H 0.85432 0.233 0.4731 0.0
H653 H 0.83693 0.22078 0.508 0.0
H654 H 0.77016 0.17962 0.5219 0.0
H655 H 0.79525 0.2156 0.522 0.0
H656 H 0.79196 0.15144 0.36769 0.0
H657 H 0.81866 0.18519 0.36845 0.0
H658 H 0.78155 0.10251 0.39403 0.0
H659 H 0.76255 0.09253 0.42831 0.0
C660 C 0.78778 0.79733 0.51953 0.0
C661 C 0.77294 0.76226 0.51821 0.0
C662 C 0.79224 0.74423 0.57101 0.0
C663 C 0.80935 0.77737 0.57047 0.0
N664 N 0.8282 0.83051 0.54046 0.0
N665 N 0.76316 0.70003 0.54059 0.0
C666 C 0.80844 0.8026 0.54372 0.0
C667 C 0.77565 0.73504 0.54344 0.0
N668 N 0.78141 0.82635 0.49845 0.0
N669 N 0.79126 0.72226 0.59814 0.0
H670 H 0.75085 0.69251 0.52077 0.0
H671 H 0.76672 0.67747 0.55657 0.0
H672 H 0.80319 0.72819 0.61864 0.0
H673 H 0.77707 0.70007 0.60126 0.0
H674 H 0.78948 0.85393 0.50069 0.0
H675 H 0.76587 0.82423 0.48074 0.0
H676 H 0.83014 0.84694 0.51972 0.0
H677 H 0.84457 0.83454 0.55688 0.0
C678 C 0.15652 0.03538 0.52645 0.0
C679 C 0.17738 0.01157 0.51274 0.0
C680 C 0.14129 0.97587 0.48331 0.0
C681 C 0.12052 0.00038 0.4963 0.0
N682 N 0.10888 0.05951 0.52286 0.0
N683 N 0.19036 0.96683 0.47155 0.0
C684 C 0.12836 0.03218 0.51545 0.0
C685 C 0.16996 0.98429 0.48899 0.0
N686 N 0.1631 0.05919 0.55139 0.0
N687 N 0.1338 0.94323 0.46735 0.0
H688 H 0.21152 0.9733 0.47447 0.0
H689 H 0.18611 0.94903 0.4521 0.0
H690 H 0.11309 0.93551 0.46294 0.0
H691 H 0.1481 0.92209 0.4608 0.0
H692 H 0.1481 0.07379 0.56459 0.0
H693 H 0.18327 0.06192 0.56085 0.0
H694 H 0.11389 0.08525 0.53414 0.0
H695 H 0.08814 0.05817 0.51476 0.0
C696 C 0.66051 0.09075 0.642 0.0
C697 C 0.63176 0.08753 0.64948 0.0
C698 C 0.61971 0.07877 0.59263 0.0
C699 C 0.64833 0.08318 0.58511 0.0
N700 N 0.69552 0.09884 0.60089 0.0
N701 N 0.58338 0.083 0.63249 0.0
C702 C 0.66862 0.09086 0.60932 0.0
C703 C 0.61115 0.08307 0.62491 0.0
N704 N 0.68004 0.09311 0.6662 0.0
N705 N 0.6009 0.06922 0.56898 0.0
H706 H 0.57627 0.08346 0.65598 0.0
H707 H 0.5672 0.08456 0.61558 0.0
H708 H 0.6062 0.06755 0.54485 0.0
H709 H 0.58041 0.06094 0.5732 0.0
H710 H 0.70151 0.09123 0.66274 0.0
H711 H 0.67476 0.0948 0.69032 0.0
H712 H 0.71083 0.10839 0.61689 0.0
H713 H 0.70215 0.09862 0.57718 0.0
C714 C -0.00377 0.63961 0.67216 0.0
C715 C 0.98046 0.66509 0.69142 0.0
C716 C 0.00184 0.63619 0.7396 0.0
C717 C 0.01428 0.60726 0.72051 0.0
N718 N 0.01782 0.57692 0.66862 0.0
N719 N 0.96379 0.68174 0.7441 0.0
C720 C 0.01004 0.6077 0.68674 0.0
C721 C 0.98206 0.66188 0.72536 0.0
N722 N -0.00105 0.64651 0.64011 0.0
N723 N 0.00956 0.6401 0.77107 0.0
H724 H 0.94796 0.69941 0.73479 0.0
H725 H 0.96239 0.67735 0.76874 0.0
H726 H 0.02482 0.62288 0.78214 0.0
H727 H 0.00307 0.66308 0.78514 0.0
H728 H 0.01243 0.63077 0.6257 0.0
H729 H 0.99024 0.6705 0.62865 0.0
H730 H 0.01259 0.57444 0.64438 0.0
H731 H 0.02673 0.55201 0.67833 0.0
C732 C 0.37736 0.1415 0.67757 0.0
C733 C 0.38217 0.16989 0.65374 0.0
C734 C 0.36748 0.12502 0.61166 0.0
C735 C 0.36262 0.09685 0.6355 0.0
N736 N 0.35638 0.08062 0.69117 0.0
N737 N 0.37611 0.19209 0.59943 0.0
C738 C 0.36515 0.10604 0.66847 0.0
C739 C 0.3754 0.16266 0.62113 0.0
N740 N 0.38645 0.14697 0.70845 0.0
N741 N 0.36505 0.11547 0.57999 0.0
H742 H 0.38149 0.22003 0.60589 0.0
H743 H 0.36908 0.1898 0.57579 0.0
H744 H 0.35764 0.08888 0.57229 0.0
H745 H 0.3715 0.13308 0.56136 0.0
H746 H 0.38696 0.12533 0.72571 0.0
H747 H 0.39576 0.17214 0.71652 0.0
H748 H 0.35464 0.08756 0.71532 0.0
H749 H 0.34855 0.05355 0.68564 0.0
C750 C 0.97121 0.1651 0.54901 0.0
C751 C 0.95088 0.15629 0.52507 0.0
C752 C 0.91409 0.18323 0.55879 0.0
C753 C 0.93478 0.19571 0.58112 0.0
N754 N 0.98368 0.20575 0.59382 0.0
N755 N 0.90383 0.16443 0.50411 0.0
C756 C 0.96356 0.18865 0.57525 0.0
C757 C 0.92253 0.16745 0.52908 0.0
N758 N -0.00245 0.14973 0.54748 0.0
N759 N 0.88639 0.18489 0.56643 0.0
H760 H 0.90932 0.15423 0.48158 0.0
H761 H 0.8836 0.17561 0.50475 0.0
H762 H 0.8793 0.19507 0.58835 0.0
H763 H 0.87066 0.17257 0.55238 0.0
H764 H 0.01224 0.15192 0.56607 0.0
H765 H 0.00388 0.13158 0.5291 0.0
H766 H 0.00489 0.20475 0.58848 0.0
H767 H 0.97906 0.22425 0.61264 0.0
C768 C 0.62594 0.84453 0.35442 0.0
C769 C 0.63007 0.8042 0.35732 0.0
C770 C 0.63076 0.79822 0.29877 0.0
C771 C 0.62513 0.83815 0.29596 0.0
N772 N 0.61281 0.89848 0.32056 0.0
N773 N 0.63146 0.74166 0.33292 0.0
C774 C 0.62103 0.86094 0.32364 0.0
C775 C 0.63113 0.78073 0.32964 0.0
N776 N 0.62866 0.8676 0.38077 0.0
N777 N 0.63598 0.77709 0.27192 0.0
H778 H 0.63138 0.72797 0.35518 0.0
H779 H 0.62938 0.72277 0.31378 0.0
H780 H 0.63424 0.78837 0.24879 0.0
H781 H 0.64354 0.74901 0.27254 0.0
H782 H 0.62898 0.89744 0.37961 0.0
H783 H 0.63345 0.8573 0.40367 0.0
H784 H 0.60599 0.91504 0.33969 0.0
H785 H 0.61084 0.91254 0.29856 0.0
C786 C 0.95257 0.9111 0.31739 0.0
C787 C 0.94056 0.92102 0.34714 0.0
C788 C 0.89414 0.90532 0.3253 0.0
C789 C 0.90675 0.88954 0.29769 0.0
N790 N 0.94903 0.87153 0.2701 0.0
N791 N 0.90007 0.92137 0.38127 0.0
C792 C 0.93626 0.89106 0.29426 0.0
C793 C 0.91133 0.91677 0.3516 0.0
N794 N 0.97937 0.92164 0.31084 0.0
N795 N 0.86577 0.91028 0.32614 0.0
H796 H 0.91187 0.92833 0.4016 0.0
H797 H 0.87942 0.91452 0.38637 0.0
H798 H 0.85256 0.90329 0.30694 0.0
H799 H 0.85575 0.92509 0.3444 0.0
H800 H 0.98823 0.91842 0.28833 0.0
H801 H 0.99167 0.93739 0.32682 0.0
H802 H 0.97068 0.86838 0.26872 0.0
H803 H 0.93818 0.85517 0.25323 0.0
C804 C 0.36333 0.85831 0.3073 0.0
C805 C 0.36706 0.86229 0.27379 0.0
C806 C 0.3189 0.88635 0.26751 0.0
C807 C 0.3165 0.88704 0.30133 0.0
N808 N 0.3373 0.8779 0.35393 0.0
N809 N 0.34925 0.88088 0.22162 0.0
C810 C 0.33878 0.87362 0.3214 0.0
C811 C 0.34502 0.87644 0.25376 0.0
N812 N 0.38341 0.84036 0.32573 0.0
N813 N 0.2959 0.89402 0.24861 0.0
H814 H 0.36738 0.87146 0.21036 0.0
H815 H 0.33544 0.89548 0.20632 0.0
H816 H 0.2764 0.90091 0.25801 0.0
H817 H 0.29538 0.89038 0.22387 0.0
H818 H 0.38048 0.83254 0.34953 0.0
H819 H 0.40234 0.83052 0.31666 0.0
H820 H 0.35413 0.87304 0.36957 0.0
H821 H 0.31992 0.88938 0.36537 0.0
C822 C 0.01961 0.45262 0.24669 0.0
C823 C 0.00322 0.48599 0.24049 0.0
C824 C 0.96795 0.46417 0.27846 0.0
C825 C 0.98524 0.43205 0.28634 0.0
N826 N 0.02837 0.39663 0.28025 0.0
N827 N 0.96403 0.52683 0.25322 0.0
C828 C 0.01139 0.42662 0.27117 0.0
C829 C 0.97786 0.49252 0.25693 0.0
N830 N 0.04241 0.44511 0.22824 0.0
N831 N 0.94205 0.46774 0.29173 0.0
H832 H 0.97056 0.54838 0.23769 0.0
H833 H 0.94731 0.53542 0.26725 0.0
H834 H 0.9348 0.4496 0.30963 0.0
H835 H 0.92699 0.48744 0.28381 0.0
H836 H 0.05365 0.41943 0.22903 0.0
H837 H 0.04901 0.46359 0.2102 0.0
H838 H 0.04903 0.39359 0.27312 0.0
H839 H 0.02229 0.37548 0.29639 0.0
C840 C 0.60962 0.51391 0.00449 0.0
C841 C 0.58681 0.49371 0.01791 0.0
C842 C 0.61457 0.43402 0.01732 0.0
C843 C 0.63734 0.45437 0.00431 0.0
N844 N 0.6573 0.51457 0.98711 0.0
N845 N 0.57145 0.43798 0.0468 0.0
C846 C 0.63518 0.49455 0.99888 0.0
C847 C 0.59031 0.4546 0.02689 0.0
N848 N 0.60777 0.55167 0.99609 0.0
N849 N 0.61601 0.395 0.02054 0.0
H850 H 0.55469 0.45322 0.05635 0.0
H851 H 0.57423 0.41082 0.05688 0.0
H852 H 0.63396 0.37908 0.01551 0.0
H853 H 0.59878 0.3782 0.02608 0.0
H854 H 0.59003 0.56879 0.99857 0.0
H855 H 0.59003 0.56879 0.99857 0.0
H856 H 0.65653 0.54418 0.98323 0.0
H857 H 0.67628 0.50183 0.98103 0.0
C858 C 0.33195 0.63467 0.92588 0.0
C859 C 0.33279 0.6601 0.89932 0.0
C860 C 0.28326 0.67635 0.90636 0.0
C861 C 0.28176 0.64818 0.93088 0.0
N862 N 0.30328 0.59603 0.96068 0.0
N863 N 0.30913 0.70251 0.86186 0.0
C864 C 0.30578 0.62629 0.93997 0.0
C865 C 0.30837 0.68011 0.8888 0.0
N866 N 0.35616 0.61848 0.93763 0.0
N867 N 0.26109 0.70063 0.90083 0.0
H868 H 0.32746 0.70767 0.84934 0.0
H869 H 0.29134 0.71406 0.85071 0.0
H870 H 0.24252 0.69915 0.91356 0.0
H871 H 0.26188 0.72438 0.88569 0.0
H872 H 0.35739 0.60335 0.95917 0.0
H873 H 0.37557 0.62244 0.92707 0.0
H874 H 0.3193 0.57634 0.96544 0.0
H875 H 0.2844 0.58838 0.97106 0.0
C876 C 0.37652 0.30213 0.0627 0.0
C877 C 0.3871 0.28561 0.09156 0.0
C878 C 0.33984 0.2651 0.10546 0.0
C879 C 0.32894 0.28576 0.07867 0.0
N880 N 0.3365 0.33008 0.03501 0.0
N881 N 0.37844 0.25665 0.14309 0.0
C882 C 0.34716 0.30586 0.05805 0.0
C883 C 0.36869 0.26834 0.11366 0.0
N884 N 0.39447 0.31313 0.03924 0.0
N885 N 0.32282 0.24143 0.12247 0.0
H886 H 0.39933 0.25909 0.15031 0.0
H887 H 0.3654 0.24778 0.16143 0.0
H888 H 0.30167 0.23784 0.11685 0.0
H889 H 0.33023 0.22261 0.14014 0.0
H890 H 0.38778 0.3216 0.01641 0.0
H891 H 0.41614 0.31012 0.04142 0.0
H892 H 0.34887 0.34859 0.02174 0.0
H893 H 0.31512 0.33459 0.03122 0.0
C894 C 0.61345 0.61831 0.9011 0.0
C895 C 0.63921 0.59798 0.90279 0.0
C896 C 0.61435 0.53804 0.91431 0.0
C897 C 0.58882 0.55918 0.91552 0.0
N898 N 0.56383 0.61942 0.91213 0.0
N899 N 0.66513 0.53955 0.9138 0.0
C900 C 0.58834 0.59933 0.9095 0.0
C901 C 0.63991 0.55797 0.90968 0.0
N902 N 0.61292 0.65537 0.89018 0.0
N903 N 0.61424 0.49908 0.91863 0.0
H904 H 0.68434 0.55336 0.91248 0.0
H905 H 0.66746 0.51108 0.92088 0.0
H906 H 0.59664 0.4838 0.92544 0.0
H907 H 0.63126 0.48123 0.91417 0.0
H908 H 0.59461 0.67069 0.88509 0.0
H909 H 0.6309 0.67002 0.88354 0.0
H910 H 0.5625 0.64924 0.91226 0.0
H911 H 0.54474 0.60609 0.91579 0.0
loop_
_geom_bond_atom_site_label_1
_geom_bond_atom_site_label_2
_geom_bond_distance
_geom_bond_site_symmetry_2
_ccdc_geom_bond_type
O0 Cd1 2.300 . S
O0 C7 1.275 . S
Cd1 O0 2.300 . S
Cd1 O9 2.381 . S
Cd1 O10 2.378 . S
O2 Cd3 2.385 1_655 S
O2 C7 1.255 . S
Cd3 O2 2.385 1_455 S
Cd3 O4 2.317 . S
O4 Cd3 2.317 . S
O4 C5 1.232 . S
C5 O4 1.232 . S
C5 O6 1.218 . S
O6 C5 1.218 . S
C7 O0 1.275 . S
C7 O2 1.255 . S
C8 O9 1.258 . S
C8 O10 1.256 . S
O9 Cd1 2.381 . S
O9 C8 1.258 . S
O10 Cd1 2.378 . S
O10 C8 1.256 . S
O11 Cd12 2.300 1_565 S
O11 C18 1.275 . S
Cd12 O11 2.300 1_545 S
Cd12 O20 2.381 . S
Cd12 O21 2.378 . S
O13 Cd14 2.385 . S
O13 C18 1.255 . S
Cd14 O13 2.385 . S
Cd14 O15 2.317 . S
O15 Cd14 2.317 . S
O15 C16 1.232 . S
C16 O15 1.232 . S
C16 O17 1.218 . S
O17 C16 1.218 . S
C18 O11 1.275 . S
C18 O13 1.255 . S
C19 O20 1.258 . S
C19 O21 1.256 . S
O20 Cd12 2.381 . S
O20 C19 1.258 . S
O21 Cd12 2.378 . S
O21 C19 1.256 . S
O22 Cd23 2.300 . S
O22 C29 1.275 . S
Cd23 O22 2.300 . S
Cd23 O31 2.381 . S
Cd23 O32 2.378 . S
O24 Cd25 2.385 . S
O24 C29 1.255 . S
Cd25 O24 2.385 . S
Cd25 O26 2.317 . S
O26 Cd25 2.317 . S
O26 C27 1.232 . S
C27 O26 1.232 . S
C27 O28 1.218 . S
O28 C27 1.218 . S
C29 O22 1.275 . S
C29 O24 1.255 . S
C30 O31 1.258 . S
C30 O32 1.256 . S
O31 Cd23 2.381 . S
O31 C30 1.258 . S
O32 Cd23 2.378 . S
O32 C30 1.256 . S
O33 Cd34 2.300 . S
O33 C40 1.275 . S
Cd34 O33 2.300 . S
Cd34 O42 2.381 . S
Cd34 O43 2.378 . S
O35 Cd36 2.385 . S
O35 C40 1.255 . S
Cd36 O35 2.385 . S
Cd36 O37 2.317 . S
O37 Cd36 2.317 . S
O37 C38 1.232 . S
C38 O37 1.232 . S
C38 O39 1.218 . S
O39 C38 1.218 . S
C40 O33 1.275 . S
C40 O35 1.255 . S
C41 O42 1.258 . S
C41 O43 1.256 . S
O42 Cd34 2.381 . S
O42 C41 1.258 . S
O43 Cd34 2.378 . S
O43 C41 1.256 . S
O44 Cd45 2.300 . S
O44 C51 1.275 . S
Cd45 O44 2.300 . S
Cd45 O53 2.381 . S
Cd45 O54 2.378 . S
O46 Cd47 2.385 . S
O46 C51 1.255 . S
Cd47 O46 2.385 . S
Cd47 O48 2.317 . S
O48 Cd47 2.317 . S
O48 C49 1.232 . S
C49 O48 1.232 . S
C49 O50 1.218 . S
O50 C49 1.218 . S
C51 O44 1.275 . S
C51 O46 1.255 . S
C52 O53 1.258 . S
C52 O54 1.256 . S
O53 Cd45 2.381 . S
O53 C52 1.258 . S
O54 Cd45 2.378 . S
O54 C52 1.256 . S
O55 Cd56 2.300 . S
O55 C62 1.275 . S
Cd56 O55 2.300 . S
Cd56 O64 2.381 . S
Cd56 O65 2.378 . S
O57 Cd58 2.385 . S
O57 C62 1.255 . S
Cd58 O57 2.385 . S
Cd58 O59 2.317 . S
O59 Cd58 2.317 . S
O59 C60 1.232 . S
C60 O59 1.232 . S
C60 O61 1.218 . S
O61 C60 1.218 . S
C62 O55 1.275 . S
C62 O57 1.255 . S
C63 O64 1.258 . S
C63 O65 1.256 . S
O64 Cd56 2.381 . S
O64 C63 1.258 . S
O65 Cd56 2.378 . S
O65 C63 1.256 . S
O66 Cd67 2.300 . S
O66 C73 1.275 . S
Cd67 O66 2.300 . S
Cd67 O75 2.381 . S
Cd67 O76 2.378 . S
O68 Cd69 2.385 . S
O68 C73 1.255 . S
Cd69 O68 2.385 . S
Cd69 O70 2.317 . S
O70 Cd69 2.317 . S
O70 C71 1.232 . S
C71 O70 1.232 . S
C71 O72 1.218 . S
O72 C71 1.218 . S
C73 O66 1.275 . S
C73 O68 1.255 . S
C74 O75 1.258 . S
C74 O76 1.256 . S
O75 Cd67 2.381 . S
O75 C74 1.258 . S
O76 Cd67 2.378 . S
O76 C74 1.256 . S
O77 Cd78 2.300 1_545 S
O77 C84 1.275 . S
Cd78 O77 2.300 1_565 S
Cd78 O86 2.381 . S
Cd78 O87 2.378 . S
O79 Cd80 2.385 . S
O79 C84 1.255 . S
Cd80 O79 2.385 . S
Cd80 O81 2.317 . S
O81 Cd80 2.317 . S
O81 C82 1.232 . S
C82 O81 1.232 . S
C82 O83 1.218 . S
O83 C82 1.218 . S
C84 O77 1.275 . S
C84 O79 1.255 . S
C85 O86 1.258 . S
C85 O87 1.256 . S
O86 Cd78 2.381 . S
O86 C85 1.258 . S
O87 Cd78 2.378 . S
O87 C85 1.256 . S
O88 Cd89 2.300 1_545 S
O88 C95 1.275 . S
Cd89 O88 2.300 1_565 S
Cd89 O97 2.381 . S
Cd89 O98 2.378 . S
O90 Cd91 2.385 . S
O90 C95 1.255 1_565 S
Cd91 O90 2.385 . S
Cd91 O92 2.325 . S
O92 Cd91 2.325 . S
O92 C93 1.223 1_565 S
C93 O92 1.223 1_545 S
C93 O94 1.218 . S
O94 C93 1.218 . S
C95 O88 1.275 . S
C95 O90 1.255 1_545 S
C96 O97 1.258 . S
C96 O98 1.256 . S
O97 Cd89 2.381 . S
O97 C96 1.258 . S
O98 Cd89 2.378 . S
O98 C96 1.256 . S
O99 Cd100 2.300 . S
O99 C106 1.275 . S
Cd100 O99 2.300 . S
Cd100 O108 2.381 . S
Cd100 O109 2.378 . S
O101 Cd102 2.385 . S
O101 C106 1.255 . S
Cd102 O101 2.385 . S
Cd102 O103 2.317 . S
O103 Cd102 2.317 . S
O103 C104 1.232 . S
C104 O103 1.232 . S
C104 O105 1.218 . S
O105 C104 1.218 . S
C106 O99 1.275 . S
C106 O101 1.255 . S
C107 O108 1.258 . S
C107 O109 1.256 . S
O108 Cd100 2.381 . S
O108 C107 1.258 . S
O109 Cd100 2.378 . S
O109 C107 1.256 . S
O110 Cd111 2.300 . S
O110 C117 1.275 . S
Cd111 O110 2.300 . S
Cd111 O119 2.381 . S
Cd111 O120 2.378 . S
O112 Cd113 2.385 . S
O112 C117 1.255 . S
Cd113 O112 2.385 . S
Cd113 O114 2.317 . S
O114 Cd113 2.317 . S
O114 C115 1.232 . S
C115 O114 1.232 . S
C115 O116 1.218 . S
O116 C115 1.218 . S
C117 O110 1.275 . S
C117 O112 1.255 . S
C118 O119 1.258 . S
C118 O120 1.256 . S
O119 Cd111 2.381 . S
O119 C118 1.258 . S
O120 Cd111 2.378 . S
O120 C118 1.256 . S
O121 Cd122 2.294 1_655 S
O121 C128 1.275 . S
Cd122 O121 2.294 1_455 S
Cd122 O130 2.374 1_455 S
Cd122 O131 2.378 1_455 S
O123 Cd124 2.385 1_565 S
O123 C128 1.255 1_455 S
Cd124 O123 2.385 1_545 S
Cd124 O125 2.317 1_545 S
O125 Cd124 2.317 1_565 S
O125 C126 1.232 . S
C126 O125 1.232 . S
C126 O127 1.218 1_565 S
O127 C126 1.218 1_545 S
C128 O121 1.275 . S
C128 O123 1.255 1_655 S
C129 O130 1.258 . S
C129 O131 1.255 . S
O130 Cd122 2.374 1_655 S
O130 C129 1.258 . S
O131 Cd122 2.378 1_655 S
O131 C129 1.255 . S
O132 Cd133 2.300 1_565 S
O132 C139 1.275 . S
Cd133 O132 2.300 1_545 S
Cd133 O141 2.381 . S
Cd133 O142 2.378 . S
O134 Cd135 2.385 . S
O134 C139 1.255 1_545 S
Cd135 O134 2.385 . S
Cd135 O136 2.317 . S
O136 Cd135 2.317 . S
O136 C137 1.232 1_545 S
C137 O136 1.232 1_565 S
C137 O138 1.218 . S
O138 C137 1.218 . S
C139 O132 1.275 . S
C139 O134 1.255 1_565 S
C140 O141 1.258 . S
C140 O142 1.256 . S
O141 Cd133 2.381 . S
O141 C140 1.258 . S
O142 Cd133 2.378 . S
O142 C140 1.256 . S
O143 Cd144 2.300 . S
O143 C150 1.278 . S
Cd144 O143 2.300 . S
Cd144 O152 2.381 . S
Cd144 O153 2.378 . S
O145 Cd146 2.385 . S
O145 C150 1.259 . S
Cd146 O145 2.385 . S
Cd146 O147 2.317 . S
O147 Cd146 2.317 . S
O147 C148 1.232 . S
C148 O147 1.232 . S
C148 O149 1.218 1_455 S
O149 C148 1.218 1_655 S
C150 O143 1.278 . S
C150 O145 1.259 . S
C151 O152 1.258 . S
C151 O153 1.256 . S
O152 Cd144 2.381 . S
O152 C151 1.258 . S
O153 Cd144 2.378 . S
O153 C151 1.256 . S
O154 Cd155 2.300 . S
O154 C161 1.275 . S
Cd155 O154 2.300 . S
Cd155 O163 2.381 . S
Cd155 O164 2.378 . S
O156 Cd157 2.385 . S
O156 C161 1.255 . S
Cd157 O156 2.385 . S
Cd157 O158 2.317 . S
O158 Cd157 2.317 . S
O158 C159 1.232 . S
C159 O158 1.232 . S
C159 O160 1.218 . S
O160 C159 1.218 . S
C161 O154 1.275 . S
C161 O156 1.255 . S
C162 O163 1.258 . S
C162 O164 1.256 . S
O163 Cd155 2.381 . S
O163 C162 1.258 . S
O164 Cd155 2.378 . S
O164 C162 1.256 . S
O165 Cd166 2.300 . S
O165 C172 1.275 . S
Cd166 O165 2.300 . S
Cd166 O174 2.381 . S
Cd166 O175 2.378 . S
O167 Cd168 2.385 . S
O167 C172 1.255 . S
Cd168 O167 2.385 . S
Cd168 O169 2.317 . S
O169 Cd168 2.317 . S
O169 C170 1.232 . S
C170 O169 1.232 . S
C170 O171 1.218 . S
O171 C170 1.218 . S
C172 O165 1.275 . S
C172 O167 1.255 . S
C173 O174 1.258 . S
C173 O175 1.256 . S
O174 Cd166 2.381 . S
O174 C173 1.258 . S
O175 Cd166 2.378 . S
O175 C173 1.256 . S
O176 Cd177 2.300 . S
O176 C183 1.275 . S
Cd177 O176 2.300 . S
Cd177 O185 2.381 . S
Cd177 O186 2.378 . S
O178 Cd179 2.385 . S
O178 C183 1.255 . S
Cd179 O178 2.385 . S
Cd179 O180 2.317 . S
O180 Cd179 2.317 . S
O180 C181 1.232 . S
C181 O180 1.232 . S
C181 O182 1.218 . S
O182 C181 1.218 . S
C183 O176 1.275 . S
C183 O178 1.255 . S
C184 O185 1.258 . S
C184 O186 1.256 . S
O185 Cd177 2.381 . S
O185 C184 1.258 . S
O186 Cd177 2.378 . S
O186 C184 1.256 . S
O187 Cd188 2.300 . S
O187 C194 1.275 . S
Cd188 O187 2.300 . S
Cd188 O196 2.381 . S
Cd188 O197 2.378 . S
O189 Cd190 2.385 . S
O189 C194 1.255 . S
Cd190 O189 2.385 . S
Cd190 O191 2.317 . S
O191 Cd190 2.317 . S
O191 C192 1.232 . S
C192 O191 1.232 . S
C192 O193 1.218 . S
O193 C192 1.218 . S
C194 O187 1.275 . S
C194 O189 1.255 . S
C195 O196 1.258 . S
C195 O197 1.256 . S
O196 Cd188 2.381 . S
O196 C195 1.258 . S
O197 Cd188 2.378 . S
O197 C195 1.256 . S
O198 Cd199 2.300 . S
O198 C205 1.275 . S
Cd199 O198 2.300 . S
Cd199 O207 2.381 . S
Cd199 O208 2.378 . S
O200 Cd201 2.385 . S
O200 C205 1.255 . S
Cd201 O200 2.385 . S
Cd201 O202 2.317 1_554 S
O202 Cd201 2.317 1_556 S
O202 C203 1.232 . S
C203 O202 1.232 . S
C203 O204 1.218 . S
O204 C203 1.218 . S
C205 O198 1.275 . S
C205 O200 1.255 . S
C206 O207 1.258 . S
C206 O208 1.256 . S
O207 Cd199 2.381 . S
O207 C206 1.258 . S
O208 Cd199 2.378 . S
O208 C206 1.256 . S
O209 Cd210 2.300 . S
O209 C216 1.275 . S
Cd210 O209 2.300 . S
Cd210 O218 2.381 . S
Cd210 O219 2.378 . S
O211 Cd212 2.385 . S
O211 C216 1.255 . S
Cd212 O211 2.385 . S
Cd212 O213 2.317 . S
O213 Cd212 2.317 . S
O213 C214 1.232 . S
C214 O213 1.232 . S
C214 O215 1.218 . S
O215 C214 1.218 . S
C216 O209 1.275 . S
C216 O211 1.255 . S
C217 O218 1.258 . S
C217 O219 1.256 . S
O218 Cd210 2.381 . S
O218 C217 1.258 . S
O219 Cd210 2.378 . S
O219 C217 1.256 . S
O220 Cd221 2.300 . S
O220 C227 1.275 . S
Cd221 O220 2.300 . S
Cd221 O229 2.381 . S
Cd221 O230 2.378 . S
O222 Cd223 2.385 1_556 S
O222 C227 1.255 . S
Cd223 O222 2.385 1_554 S
Cd223 O224 2.317 1_554 S
O224 Cd223 2.317 1_556 S
O224 C225 1.232 . S
C225 O224 1.232 . S
C225 O226 1.218 . S
O226 C225 1.218 . S
C227 O220 1.275 . S
C227 O222 1.255 . S
C228 O229 1.258 . S
C228 O230 1.256 . S
O229 Cd221 2.381 . S
O229 C228 1.258 . S
O230 Cd221 2.378 . S
O230 C228 1.256 . S
O231 Cd232 2.300 . S
O231 C238 1.275 . S
Cd232 O231 2.300 . S
Cd232 O240 2.381 . S
Cd232 O241 2.378 . S
O233 Cd234 2.385 1_556 S
O233 C238 1.255 . S
Cd234 O233 2.385 1_554 S
Cd234 O235 2.317 . S
O235 Cd234 2.317 . S
O235 C236 1.232 . S
C236 O235 1.232 . S
C236 O237 1.218 . S
O237 C236 1.218 . S
C238 O231 1.275 . S
C238 O233 1.255 . S
C239 O240 1.258 . S
C239 O241 1.256 . S
O240 Cd232 2.381 . S
O240 C239 1.258 . S
O241 Cd232 2.378 . S
O241 C239 1.256 . S
O242 Cd243 2.300 . S
O242 C249 1.275 . S
Cd243 O242 2.300 . S
Cd243 O251 2.381 . S
Cd243 O252 2.378 . S
O244 Cd245 2.385 . S
O244 C249 1.255 . S
Cd245 O244 2.385 . S
Cd245 O246 2.317 1_556 S
O246 Cd245 2.317 1_554 S
O246 C247 1.232 . S
C247 O246 1.232 . S
C247 O248 1.218 . S
O248 C247 1.218 . S
C249 O242 1.275 . S
C249 O244 1.255 . S
C250 O251 1.258 . S
C250 O252 1.256 . S
O251 Cd243 2.381 . S
O251 C250 1.258 . S
O252 Cd243 2.378 . S
O252 C250 1.256 . S
O253 Cd254 2.300 . S
O253 C260 1.275 . S
Cd254 O253 2.300 . S
Cd254 O262 2.381 1_556 S
Cd254 O263 2.378 1_556 S
O255 Cd256 2.385 . S
O255 C260 1.255 . S
Cd256 O255 2.385 . S
Cd256 O257 2.317 . S
O257 Cd256 2.317 . S
O257 C258 1.232 . S
C258 O257 1.232 . S
C258 O259 1.218 . S
O259 C258 1.218 . S
C260 O253 1.275 . S
C260 O255 1.255 . S
C261 O262 1.258 . S
C261 O263 1.256 . S
O262 Cd254 2.381 1_554 S
O262 C261 1.258 . S
O263 Cd254 2.378 1_554 S
O263 C261 1.256 . S
C264 C265 1.363 . S
C264 C270 1.379 . S
C264 N272 1.356 1_655 S
C265 C264 1.363 . S
C265 C271 1.363 . S
C266 C267 1.363 . S
C266 C271 1.379 . S
C266 N273 1.356 . S
C267 C266 1.363 . S
C267 C270 1.363 . S
N268 C270 1.356 . S
N268 H280 0.984 1_655 S
N268 H281 0.985 . S
N269 C271 1.356 . S
N269 H274 0.984 . S
N269 H275 0.985 . S
C270 C264 1.379 . S
C270 C267 1.363 . S
C270 N268 1.356 . S
C271 C265 1.363 . S
C271 C266 1.379 . S
C271 N269 1.356 . S
N272 C264 1.356 1_455 S
N272 H278 0.984 . S
N272 H279 0.984 . S
N273 C266 1.356 . S
N273 H276 0.984 . S
N273 H277 0.985 . S
H274 N269 0.984 . S
H275 N269 0.985 . S
H276 N273 0.984 . S
H277 N273 0.985 . S
H278 N272 0.984 . S
H279 N272 0.984 . S
H280 N268 0.984 1_455 S
H281 N268 0.985 . S
C282 C283 1.363 . S
C282 C288 1.379 . S
C282 N290 1.356 . S
C283 C282 1.363 . S
C283 C289 1.363 . S
C284 C285 1.363 . S
C284 C289 1.379 . S
C284 N291 1.356 . S
C285 C284 1.363 . S
C285 C288 1.363 . S
N286 C288 1.356 . S
N286 H298 0.984 . S
N286 H299 0.985 . S
N287 C289 1.356 . S
N287 H292 0.984 . S
N287 H293 0.985 . S
C288 C282 1.379 . S
C288 C285 1.363 . S
C288 N286 1.356 . S
C289 C283 1.363 . S
C289 C284 1.379 . S
C289 N287 1.356 . S
N290 C282 1.356 . S
N290 H296 0.984 . S
N290 H297 0.984 . S
N291 C284 1.356 . S
N291 H294 0.984 . S
N291 H295 0.985 . S
H292 N287 0.984 . S
H293 N287 0.985 . S
H294 N291 0.984 . S
H295 N291 0.985 . S
H296 N290 0.984 . S
H297 N290 0.984 . S
H298 N286 0.984 . S
H299 N286 0.985 . S
C300 C301 1.363 . S
C300 C306 1.379 . S
C300 N308 1.356 . S
C301 C300 1.363 . S
C301 C307 1.363 . S
C302 C303 1.363 . S
C302 C307 1.379 . S
C302 N309 1.356 1_455 S
C303 C302 1.363 . S
C303 C306 1.363 . S
N304 C306 1.356 . S
N304 H316 0.984 . S
N304 H317 0.985 . S
N305 C307 1.356 . S
N305 H310 0.984 . S
N305 H311 0.985 . S
C306 C300 1.379 . S
C306 C303 1.363 . S
C306 N304 1.356 . S
C307 C301 1.363 . S
C307 C302 1.379 . S
C307 N305 1.356 . S
N308 C300 1.356 . S
N308 H314 0.984 . S
N308 H315 0.984 . S
N309 C302 1.356 1_655 S
N309 H312 0.984 . S
N309 H313 0.985 . S
H310 N305 0.984 . S
H311 N305 0.985 . S
H312 N309 0.984 . S
H313 N309 0.985 . S
H314 N308 0.984 . S
H315 N308 0.984 . S
H316 N304 0.984 . S
H317 N304 0.985 . S
C318 C319 1.363 . S
C318 C324 1.379 . S
C318 N326 1.356 . S
C319 C318 1.363 . S
C319 C325 1.363 . S
C320 C321 1.363 . S
C320 C325 1.379 . S
C320 N327 1.356 . S
C321 C320 1.363 . S
C321 C324 1.363 . S
N322 C324 1.356 . S
N322 H334 0.984 . S
N322 H335 0.985 . S
N323 C325 1.356 . S
N323 H328 0.984 . S
N323 H329 0.985 . S
C324 C318 1.379 . S
C324 C321 1.363 . S
C324 N322 1.356 . S
C325 C319 1.363 . S
C325 C320 1.379 . S
C325 N323 1.356 . S
N326 C318 1.356 . S
N326 H332 0.984 . S
N326 H333 0.984 . S
N327 C320 1.356 . S
N327 H330 0.984 . S
N327 H331 0.985 . S
H328 N323 0.984 . S
H329 N323 0.985 . S
H330 N327 0.984 . S
H331 N327 0.985 . S
H332 N326 0.984 . S
H333 N326 0.984 . S
H334 N322 0.984 . S
H335 N322 0.985 . S
C336 C337 1.363 . S
C336 C342 1.379 . S
C336 N344 1.356 . S
C337 C336 1.363 . S
C337 C343 1.363 1_545 S
C338 C339 1.363 . S
C338 C343 1.379 . S
C338 N345 1.356 . S
C339 C338 1.363 . S
C339 C342 1.363 1_565 S
N340 C342 1.356 . S
N340 H352 0.984 . S
N340 H353 0.985 . S
N341 C343 1.356 . S
N341 H346 0.984 . S
N341 H347 0.985 . S
C342 C336 1.379 . S
C342 C339 1.363 1_545 S
C342 N340 1.356 . S
C343 C337 1.363 1_565 S
C343 C338 1.379 . S
C343 N341 1.356 . S
N344 C336 1.356 . S
N344 H350 0.984 . S
N344 H351 0.984 . S
N345 C338 1.356 . S
N345 H348 0.984 . S
N345 H349 0.985 . S
H346 N341 0.984 . S
H347 N341 0.985 . S
H348 N345 0.984 . S
H349 N345 0.985 . S
H350 N344 0.984 . S
H351 N344 0.984 . S
H352 N340 0.984 . S
H353 N340 0.985 . S
C354 C355 1.363 . S
C354 C360 1.379 . S
C354 N362 1.356 . S
C355 C354 1.363 . S
C355 C361 1.363 . S
C356 C357 1.363 . S
C356 C361 1.379 . S
C356 N363 1.356 . S
C357 C356 1.363 . S
C357 C360 1.363 . S
N358 C360 1.356 . S
N358 H370 0.984 . S
N358 H371 0.985 . S
N359 C361 1.376 . S
N359 H364 0.976 1_655 S
N359 H365 0.975 1_655 S
C360 C354 1.379 . S
C360 C357 1.363 . S
C360 N358 1.356 . S
C361 C355 1.363 . S
C361 C356 1.379 . S
C361 N359 1.376 . S
N362 C354 1.356 . S
N362 H368 0.984 . S
N362 H369 0.984 . S
N363 C356 1.356 . S
N363 H366 0.984 . S
N363 H367 0.985 . S
H364 N359 0.976 1_455 S
H365 N359 0.975 1_455 S
H366 N363 0.984 . S
H367 N363 0.985 . S
H368 N362 0.984 . S
H369 N362 0.984 . S
H370 N358 0.984 . S
H371 N358 0.985 . S
C372 C373 1.363 . S
C372 C378 1.379 1_565 S
C372 N380 1.356 . S
C373 C372 1.363 . S
C373 C379 1.363 . S
C374 C375 1.363 . S
C374 C379 1.379 1_545 S
C374 N381 1.356 . S
C375 C374 1.363 . S
C375 C378 1.363 . S
N376 C378 1.356 . S
N376 H388 0.984 . S
N376 H389 0.985 . S
N377 C379 1.356 . S
N377 H382 0.984 . S
N377 H383 0.985 . S
C378 C372 1.379 1_545 S
C378 C375 1.363 . S
C378 N376 1.356 . S
C379 C373 1.363 . S
C379 C374 1.379 1_565 S
C379 N377 1.356 . S
N380 C372 1.356 . S
N380 H386 0.984 . S
N380 H387 0.984 . S
N381 C374 1.356 . S
N381 H384 0.984 . S
N381 H385 0.985 . S
H382 N377 0.984 . S
H383 N377 0.985 . S
H384 N381 0.984 . S
H385 N381 0.985 . S
H386 N380 0.984 . S
H387 N380 0.984 . S
H388 N376 0.984 . S
H389 N376 0.985 . S
C390 C391 1.363 . S
C390 C396 1.379 . S
C390 N398 1.356 . S
C391 C390 1.363 . S
C391 C397 1.363 . S
C392 C393 1.363 . S
C392 C397 1.379 . S
C392 N399 1.356 . S
C393 C392 1.363 . S
C393 C396 1.363 . S
N394 C396 1.356 . S
N394 H406 0.984 . S
N394 H407 0.985 1_655 S
N395 C397 1.356 . S
N395 H400 0.984 . S
N395 H401 0.985 . S
C396 C390 1.379 . S
C396 C393 1.363 . S
C396 N394 1.356 . S
C397 C391 1.363 . S
C397 C392 1.379 . S
C397 N395 1.356 . S
N398 C390 1.356 . S
N398 H404 0.984 . S
N398 H405 0.984 . S
N399 C392 1.356 . S
N399 H402 0.984 . S
N399 H403 0.985 . S
H400 N395 0.984 . S
H401 N395 0.985 . S
H402 N399 0.984 . S
H403 N399 0.985 . S
H404 N398 0.984 . S
H405 N398 0.984 . S
H406 N394 0.984 . S
H407 N394 0.985 1_455 S
C408 C409 1.363 . S
C408 C414 1.379 . S
C408 N416 1.356 1_554 S
C409 C408 1.363 . S
C409 C415 1.363 . S
C410 C411 1.363 . S
C410 C415 1.379 . S
C410 N417 1.356 . S
C411 C410 1.363 . S
C411 C414 1.363 . S
N412 C414 1.356 . S
N412 H424 0.984 . S
N412 H425 0.985 . S
N413 C415 1.356 . S
N413 H418 0.984 . S
N413 H419 0.985 . S
C414 C408 1.379 . S
C414 C411 1.363 . S
C414 N412 1.356 . S
C415 C409 1.363 . S
C415 C410 1.379 . S
C415 N413 1.356 . S
N416 C408 1.356 1_556 S
N416 H422 0.984 . S
N416 H423 0.984 . S
N417 C410 1.356 . S
N417 H420 0.984 . S
N417 H421 0.985 . S
H418 N413 0.984 . S
H419 N413 0.985 . S
H420 N417 0.984 . S
H421 N417 0.985 . S
H422 N416 0.984 . S
H423 N416 0.984 . S
H424 N412 0.984 . S
H425 N412 0.985 . S
C426 C427 1.363 . S
C426 C432 1.379 . S
C426 N434 1.356 . S
C427 C426 1.363 . S
C427 C433 1.363 . S
C428 C429 1.363 . S
C428 C433 1.379 . S
C428 N435 1.356 . S
C429 C428 1.363 . S
C429 C432 1.363 . S
N430 C432 1.356 . S
N430 H442 0.984 . S
N430 H443 0.985 . S
N431 C433 1.356 . S
N431 H436 0.984 . S
N431 H437 0.985 . S
C432 C426 1.379 . S
C432 C429 1.363 . S
C432 N430 1.356 . S
C433 C427 1.363 . S
C433 C428 1.379 . S
C433 N431 1.356 . S
N434 C426 1.356 . S
N434 H440 0.984 . S
N434 H441 0.984 . S
N435 C428 1.356 . S
N435 H438 0.984 . S
N435 H439 0.985 . S
H436 N431 0.984 . S
H437 N431 0.985 . S
H438 N435 0.984 . S
H439 N435 0.985 . S
H440 N434 0.984 . S
H441 N434 0.984 . S
H442 N430 0.984 . S
H443 N430 0.985 . S
C444 C445 1.363 . S
C444 C450 1.379 . S
C444 N452 1.356 . S
C445 C444 1.363 . S
C445 C451 1.363 1_554 S
C446 C447 1.362 1_556 S
C446 C451 1.379 . S
C446 N453 1.356 . S
C447 C446 1.362 1_554 S
C447 C450 1.365 . S
N448 C450 1.356 . S
N448 H460 0.984 . S
N448 H461 0.985 . S
N449 C451 1.356 . S
N449 H454 0.984 . S
N449 H455 0.985 . S
C450 C444 1.379 . S
C450 C447 1.365 . S
C450 N448 1.356 . S
C451 C445 1.363 1_556 S
C451 C446 1.379 . S
C451 N449 1.356 . S
N452 C444 1.356 . S
N452 H458 0.984 . S
N452 H459 0.984 . S
N453 C446 1.356 . S
N453 H456 0.984 . S
N453 H457 0.985 . S
H454 N449 0.984 . S
H455 N449 0.985 . S
H456 N453 0.984 . S
H457 N453 0.985 . S
H458 N452 0.984 . S
H459 N452 0.984 . S
H460 N448 0.984 . S
H461 N448 0.985 . S
C462 C463 1.363 . S
C462 C468 1.379 . S
C462 N470 1.356 1_556 S
C463 C462 1.363 . S
C463 C469 1.363 . S
C464 C465 1.363 . S
C464 C469 1.379 . S
C464 N471 1.356 . S
C465 C464 1.363 . S
C465 C468 1.363 . S
N466 C468 1.356 1_554 S
N466 H478 0.984 . S
N466 H479 0.985 . S
N467 C469 1.356 . S
N467 H472 0.984 . S
N467 H473 0.985 . S
C468 C462 1.379 . S
C468 C465 1.363 . S
C468 N466 1.356 1_556 S
C469 C463 1.363 . S
C469 C464 1.379 . S
C469 N467 1.356 . S
N470 C462 1.356 1_554 S
N470 H476 0.984 . S
N470 H477 0.984 . S
N471 C464 1.356 . S
N471 H474 0.984 . S
N471 H475 0.985 . S
H472 N467 0.984 . S
H473 N467 0.985 . S
H474 N471 0.984 . S
H475 N471 0.985 . S
H476 N470 0.984 . S
H477 N470 0.984 . S
H478 N466 0.984 . S
H479 N466 0.985 . S
C480 C481 1.363 . S
C480 C486 1.379 . S
C480 N488 1.356 . S
C481 C480 1.363 . S
C481 C487 1.363 . S
C482 C483 1.363 . S
C482 C487 1.379 . S
C482 N489 1.356 . S
C483 C482 1.363 . S
C483 C486 1.363 . S
N484 C486 1.356 . S
N484 H496 0.984 . S
N484 H497 0.985 . S
N485 C487 1.356 . S
N485 H490 0.984 . S
N485 H491 0.985 1_554 S
C486 C480 1.379 . S
C486 C483 1.363 . S
C486 N484 1.356 . S
C487 C481 1.363 . S
C487 C482 1.379 . S
C487 N485 1.356 . S
N488 C480 1.356 . S
N488 H494 0.984 . S
N488 H495 0.984 . S
N489 C482 1.356 . S
N489 H492 0.984 . S
N489 H493 0.985 . S
H490 N485 0.984 . S
H491 N485 0.985 1_556 S
H492 N489 0.984 . S
H493 N489 0.985 . S
H494 N488 0.984 . S
H495 N488 0.984 . S
H496 N484 0.984 . S
H497 N484 0.985 . S
C498 C499 1.363 . S
C498 C504 1.379 . S
C498 N506 1.356 . S
C499 C498 1.363 . S
C499 C505 1.363 . S
C500 C501 1.363 . S
C500 C505 1.379 . S
C500 N507 1.356 . S
C501 C500 1.363 . S
C501 C504 1.363 . S
N502 C504 1.356 . S
N502 H514 0.984 . S
N502 H515 0.985 . S
N503 C505 1.356 . S
N503 H508 0.984 . S
N503 H509 0.985 . S
C504 C498 1.379 . S
C504 C501 1.363 . S
C504 N502 1.356 . S
C505 C499 1.363 . S
C505 C500 1.379 . S
C505 N503 1.356 . S
N506 C498 1.356 . S
N506 H512 0.984 . S
N506 H513 0.984 . S
N507 C500 1.356 . S
N507 H510 0.984 . S
N507 H511 0.985 . S
H508 N503 0.984 . S
H509 N503 0.985 . S
H510 N507 0.984 . S
H511 N507 0.985 . S
H512 N506 0.984 . S
H513 N506 0.984 . S
H514 N502 0.984 . S
H515 N502 0.985 . S
C516 C517 1.363 . S
C516 C522 1.379 . S
C516 N524 1.356 . S
C517 C516 1.363 . S
C517 C523 1.363 . S
C518 C519 1.363 . S
C518 C523 1.379 . S
C518 N525 1.356 . S
C519 C518 1.363 . S
C519 C522 1.363 . S
N520 C522 1.356 . S
N520 H532 0.984 . S
N520 H533 0.985 . S
N521 C523 1.356 . S
N521 H526 0.984 . S
N521 H527 0.985 . S
C522 C516 1.379 . S
C522 C519 1.363 . S
C522 N520 1.356 . S
C523 C517 1.363 . S
C523 C518 1.379 . S
C523 N521 1.356 . S
N524 C516 1.356 . S
N524 H530 0.984 . S
N524 H531 0.984 . S
N525 C518 1.356 . S
N525 H528 0.984 . S
N525 H529 0.985 . S
H526 N521 0.984 . S
H527 N521 0.985 . S
H528 N525 0.984 . S
H529 N525 0.985 . S
H530 N524 0.984 . S
H531 N524 0.984 . S
H532 N520 0.984 . S
H533 N520 0.985 . S
C534 C535 1.363 . S
C534 C540 1.379 . S
C534 N542 1.356 . S
C535 C534 1.363 . S
C535 C541 1.363 . S
C536 C537 1.363 . S
C536 C541 1.379 . S
C536 N543 1.356 . S
C537 C536 1.363 . S
C537 C540 1.363 . S
N538 C540 1.356 . S
N538 H550 0.984 . S
N538 H551 0.985 . S
N539 C541 1.356 . S
N539 H544 0.984 . S
N539 H545 0.985 . S
C540 C534 1.379 . S
C540 C537 1.363 . S
C540 N538 1.356 . S
C541 C535 1.363 . S
C541 C536 1.379 . S
C541 N539 1.356 . S
N542 C534 1.356 . S
N542 H548 0.984 . S
N542 H549 0.984 . S
N543 C536 1.356 . S
N543 H546 0.984 . S
N543 H547 0.985 . S
H544 N539 0.984 . S
H545 N539 0.985 . S
H546 N543 0.984 . S
H547 N543 0.985 . S
H548 N542 0.984 . S
H549 N542 0.984 . S
H550 N538 0.984 . S
H551 N538 0.985 . S
C552 C553 1.363 . S
C552 C558 1.379 . S
C552 N560 1.356 . S
C553 C552 1.363 . S
C553 C559 1.363 . S
C554 C555 1.363 . S
C554 C559 1.379 . S
C554 N561 1.356 . S
C555 C554 1.363 . S
C555 C558 1.363 . S
N556 C558 1.356 . S
N556 H568 0.984 . S
N556 H569 0.985 . S
N557 C559 1.356 . S
N557 H562 0.984 . S
N557 H563 0.985 . S
C558 C552 1.379 . S
C558 C555 1.363 . S
C558 N556 1.356 . S
C559 C553 1.363 . S
C559 C554 1.379 . S
C559 N557 1.356 . S
N560 C552 1.356 . S
N560 H566 0.984 . S
N560 H567 0.984 . S
N561 C554 1.356 . S
N561 H564 0.984 . S
N561 H565 0.985 . S
H562 N557 0.984 . S
H563 N557 0.985 . S
H564 N561 0.984 . S
H565 N561 0.985 . S
H566 N560 0.984 . S
H567 N560 0.984 . S
H568 N556 0.984 . S
H569 N556 0.985 . S
C570 C571 1.363 . S
C570 C576 1.379 . S
C570 N578 1.356 . S
C571 C570 1.363 . S
C571 C577 1.363 . S
C572 C573 1.363 . S
C572 C577 1.379 . S
C572 N579 1.356 . S
C573 C572 1.363 . S
C573 C576 1.363 . S
N574 C576 1.356 . S
N574 H586 0.984 . S
N574 H587 0.985 . S
N575 C577 1.356 . S
N575 H580 0.984 . S
N575 H581 0.985 . S
C576 C570 1.379 . S
C576 C573 1.363 . S
C576 N574 1.356 . S
C577 C571 1.363 . S
C577 C572 1.379 . S
C577 N575 1.356 . S
N578 C570 1.356 . S
N578 H584 0.984 . S
N578 H585 0.984 . S
N579 C572 1.356 . S
N579 H582 0.984 . S
N579 H583 0.985 . S
H580 N575 0.984 . S
H581 N575 0.985 . S
H582 N579 0.984 . S
H583 N579 0.985 . S
H584 N578 0.984 . S
H585 N578 0.984 . S
H586 N574 0.984 . S
H587 N574 0.985 . S
C588 C589 1.363 . S
C588 C594 1.379 . S
C588 N596 1.356 . S
C589 C588 1.363 . S
C589 C595 1.363 . S
C590 C591 1.363 . S
C590 C595 1.379 . S
C590 N597 1.356 . S
C591 C590 1.363 . S
C591 C594 1.363 . S
N592 C594 1.356 . S
N592 H604 0.984 . S
N592 H605 0.985 . S
N593 C595 1.356 . S
N593 H598 0.984 . S
N593 H599 0.985 . S
C594 C588 1.379 . S
C594 C591 1.363 . S
C594 N592 1.356 . S
C595 C589 1.363 . S
C595 C590 1.379 . S
C595 N593 1.356 . S
N596 C588 1.356 . S
N596 H602 0.984 . S
N596 H603 0.984 . S
N597 C590 1.356 . S
N597 H600 0.984 . S
N597 H601 0.985 . S
H598 N593 0.984 . S
H599 N593 0.985 . S
H600 N597 0.984 . S
H601 N597 0.985 . S
H602 N596 0.984 . S
H603 N596 0.984 . S
H604 N592 0.984 . S
H605 N592 0.985 . S
C606 C607 1.363 . S
C606 C612 1.379 . S
C606 N614 1.356 . S
C607 C606 1.363 . S
C607 C613 1.363 . S
C608 C609 1.363 . S
C608 C613 1.379 . S
C608 N615 1.356 . S
C609 C608 1.363 . S
C609 C612 1.363 . S
N610 C612 1.356 . S
N610 H622 0.984 . S
N610 H623 0.985 . S
N611 C613 1.356 . S
N611 H616 0.984 . S
N611 H617 0.985 . S
C612 C606 1.379 . S
C612 C609 1.363 . S
C612 N610 1.356 . S
C613 C607 1.363 . S
C613 C608 1.379 . S
C613 N611 1.356 . S
N614 C606 1.356 . S
N614 H620 0.984 . S
N614 H621 0.984 . S
N615 C608 1.356 . S
N615 H618 0.984 . S
N615 H619 0.985 . S
H616 N611 0.984 . S
H617 N611 0.985 . S
H618 N615 0.984 . S
H619 N615 0.985 . S
H620 N614 0.984 . S
H621 N614 0.984 . S
H622 N610 0.984 . S
H623 N610 0.985 . S
C624 C625 1.363 . S
C624 C630 1.379 . S
C624 N632 1.356 1_545 S
C625 C624 1.363 . S
C625 C631 1.363 . S
C626 C627 1.363 . S
C626 C631 1.379 . S
C626 N633 1.356 . S
C627 C626 1.363 . S
C627 C630 1.363 . S
N628 C630 1.356 1_565 S
N628 H640 0.984 . S
N628 H641 0.985 . S
N629 C631 1.356 . S
N629 H634 0.984 . S
N629 H635 0.985 . S
C630 C624 1.379 . S
C630 C627 1.363 . S
C630 N628 1.356 1_545 S
C631 C625 1.363 . S
C631 C626 1.379 . S
C631 N629 1.356 . S
N632 C624 1.356 1_565 S
N632 H638 0.984 . S
N632 H639 0.984 . S
N633 C626 1.356 . S
N633 H636 0.984 . S
N633 H637 0.985 . S
H634 N629 0.984 . S
H635 N629 0.985 . S
H636 N633 0.984 . S
H637 N633 0.985 . S
H638 N632 0.984 . S
H639 N632 0.984 . S
H640 N628 0.984 . S
H641 N628 0.985 . S
C642 C643 1.363 . S
C642 C648 1.379 . S
C642 N650 1.356 . S
C643 C642 1.363 . S
C643 C649 1.363 . S
C644 C645 1.363 . S
C644 C649 1.379 . S
C644 N651 1.356 . S
C645 C644 1.363 . S
C645 C648 1.363 . S
N646 C648 1.356 . S
N646 H658 0.984 . S
N646 H659 0.985 . S
N647 C649 1.356 . S
N647 H652 0.984 . S
N647 H653 0.985 . S
C648 C642 1.379 . S
C648 C645 1.363 . S
C648 N646 1.356 . S
C649 C643 1.363 . S
C649 C644 1.379 . S
C649 N647 1.356 . S
N650 C642 1.356 . S
N650 H656 0.984 . S
N650 H657 0.984 . S
N651 C644 1.356 . S
N651 H654 0.984 . S
N651 H655 0.985 . S
H652 N647 0.984 . S
H653 N647 0.985 . S
H654 N651 0.984 . S
H655 N651 0.985 . S
H656 N650 0.984 . S
H657 N650 0.984 . S
H658 N646 0.984 . S
H659 N646 0.985 . S
C660 C661 1.363 . S
C660 C666 1.379 . S
C660 N668 1.356 . S
C661 C660 1.363 . S
C661 C667 1.363 . S
C662 C663 1.363 . S
C662 C667 1.379 . S
C662 N669 1.356 . S
C663 C662 1.363 . S
C663 C666 1.363 . S
N664 C666 1.356 . S
N664 H676 0.984 . S
N664 H677 0.985 . S
N665 C667 1.356 . S
N665 H670 0.984 . S
N665 H671 0.985 . S
C666 C660 1.379 . S
C666 C663 1.363 . S
C666 N664 1.356 . S
C667 C661 1.363 . S
C667 C662 1.379 . S
C667 N665 1.356 . S
N668 C660 1.356 . S
N668 H674 0.984 . S
N668 H675 0.984 . S
N669 C662 1.356 . S
N669 H672 0.984 . S
N669 H673 0.985 . S
H670 N665 0.984 . S
H671 N665 0.985 . S
H672 N669 0.984 . S
H673 N669 0.985 . S
H674 N668 0.984 . S
H675 N668 0.984 . S
H676 N664 0.984 . S
H677 N664 0.985 . S
C678 C679 1.363 . S
C678 C684 1.379 . S
C678 N686 1.356 . S
C679 C678 1.363 . S
C679 C685 1.363 . S
C680 C681 1.363 . S
C680 C685 1.379 . S
C680 N687 1.356 . S
C681 C680 1.363 . S
C681 C684 1.363 . S
N682 C684 1.356 1_545 S
N682 H694 0.984 . S
N682 H695 0.985 . S
N683 C685 1.356 . S
N683 H688 0.984 . S
N683 H689 0.985 . S
C684 C678 1.379 . S
C684 C681 1.363 . S
C684 N682 1.356 1_565 S
C685 C679 1.363 . S
C685 C680 1.379 . S
C685 N683 1.356 . S
N686 C678 1.356 . S
N686 H692 0.981 1_565 S
N686 H693 0.984 . S
N687 C680 1.356 . S
N687 H690 0.984 . S
N687 H691 0.985 . S
H688 N683 0.984 . S
H689 N683 0.985 . S
H690 N687 0.984 . S
H691 N687 0.985 . S
H692 N686 0.981 1_545 S
H693 N686 0.984 . S
H694 N682 0.984 . S
H695 N682 0.985 . S
C696 C697 1.363 . S
C696 C702 1.379 . S
C696 N704 1.356 . S
C697 C696 1.363 . S
C697 C703 1.363 . S
C698 C699 1.363 . S
C698 C703 1.379 . S
C698 N705 1.356 . S
C699 C698 1.363 . S
C699 C702 1.363 . S
N700 C702 1.356 . S
N700 H712 0.984 . S
N700 H713 0.985 . S
N701 C703 1.356 . S
N701 H706 0.984 . S
N701 H707 0.985 . S
C702 C696 1.379 . S
C702 C699 1.363 . S
C702 N700 1.356 . S
C703 C697 1.363 . S
C703 C698 1.379 . S
C703 N701 1.356 . S
N704 C696 1.356 . S
N704 H710 0.984 . S
N704 H711 0.984 . S
N705 C698 1.356 . S
N705 H708 0.984 . S
N705 H709 0.985 . S
H706 N701 0.984 . S
H707 N701 0.985 . S
H708 N705 0.984 . S
H709 N705 0.985 . S
H710 N704 0.984 . S
H711 N704 0.984 . S
H712 N700 0.984 . S
H713 N700 0.985 . S
C714 C715 1.363 1_455 S
C714 C720 1.379 . S
C714 N722 1.356 . S
C715 C714 1.363 1_655 S
C715 C721 1.363 . S
C716 C717 1.363 . S
C716 C721 1.379 1_455 S
C716 N723 1.356 . S
C717 C716 1.363 . S
C717 C720 1.363 . S
N718 C720 1.356 . S
N718 H730 0.984 . S
N718 H731 0.985 . S
N719 C721 1.356 . S
N719 H724 0.984 . S
N719 H725 0.985 . S
C720 C714 1.379 . S
C720 C717 1.363 . S
C720 N718 1.356 . S
C721 C715 1.363 . S
C721 C716 1.379 1_655 S
C721 N719 1.356 . S
N722 C714 1.356 . S
N722 H728 0.984 . S
N722 H729 0.984 1_455 S
N723 C716 1.356 . S
N723 H726 0.984 . S
N723 H727 0.985 . S
H724 N719 0.984 . S
H725 N719 0.985 . S
H726 N723 0.984 . S
H727 N723 0.985 . S
H728 N722 0.984 . S
H729 N722 0.984 1_655 S
H730 N718 0.984 . S
H731 N718 0.985 . S
C732 C733 1.363 . S
C732 C738 1.379 . S
C732 N740 1.356 . S
C733 C732 1.363 . S
C733 C739 1.363 . S
C734 C735 1.363 . S
C734 C739 1.379 . S
C734 N741 1.356 . S
C735 C734 1.363 . S
C735 C738 1.363 . S
N736 C738 1.356 . S
N736 H748 0.984 . S
N736 H749 0.985 . S
N737 C739 1.356 . S
N737 H742 0.984 . S
N737 H743 0.985 . S
C738 C732 1.379 . S
C738 C735 1.363 . S
C738 N736 1.356 . S
C739 C733 1.363 . S
C739 C734 1.379 . S
C739 N737 1.356 . S
N740 C732 1.356 . S
N740 H746 0.984 . S
N740 H747 0.984 . S
N741 C734 1.356 . S
N741 H744 0.984 . S
N741 H745 0.985 . S
H742 N737 0.984 . S
H743 N737 0.985 . S
H744 N741 0.984 . S
H745 N741 0.985 . S
H746 N740 0.984 . S
H747 N740 0.984 . S
H748 N736 0.984 . S
H749 N736 0.985 . S
C750 C751 1.363 1_455 S
C750 C756 1.379 . S
C750 N758 1.356 . S
C751 C750 1.363 1_655 S
C751 C757 1.363 . S
C752 C753 1.363 . S
C752 C757 1.379 . S
C752 N759 1.356 . S
C753 C752 1.363 . S
C753 C756 1.363 1_655 S
N754 C756 1.356 . S
N754 H766 0.984 . S
N754 H767 0.985 . S
N755 C757 1.356 . S
N755 H760 0.984 . S
N755 H761 0.985 . S
C756 C750 1.379 . S
C756 C753 1.363 1_455 S
C756 N754 1.356 . S
C757 C751 1.363 . S
C757 C752 1.379 . S
C757 N755 1.356 . S
N758 C750 1.356 . S
N758 H764 0.984 . S
N758 H765 0.984 . S
N759 C752 1.356 . S
N759 H762 0.984 . S
N759 H763 0.985 . S
H760 N755 0.984 . S
H761 N755 0.985 . S
H762 N759 0.984 . S
H763 N759 0.985 . S
H764 N758 0.984 . S
H765 N758 0.984 . S
H766 N754 0.984 . S
H767 N754 0.985 . S
C768 C769 1.363 . S
C768 C774 1.379 . S
C768 N776 1.356 . S
C769 C768 1.363 . S
C769 C775 1.363 . S
C770 C771 1.363 . S
C770 C775 1.379 . S
C770 N777 1.356 . S
C771 C770 1.363 . S
C771 C774 1.363 . S
N772 C774 1.356 . S
N772 H784 0.984 . S
N772 H785 0.985 . S
N773 C775 1.356 . S
N773 H778 0.984 . S
N773 H779 0.985 . S
C774 C768 1.379 . S
C774 C771 1.363 . S
C774 N772 1.356 . S
C775 C769 1.363 . S
C775 C770 1.379 . S
C775 N773 1.356 . S
N776 C768 1.356 . S
N776 H782 0.984 . S
N776 H783 0.984 . S
N777 C770 1.356 . S
N777 H780 0.984 . S
N777 H781 0.985 . S
H778 N773 0.984 . S
H779 N773 0.985 . S
H780 N777 0.984 . S
H781 N777 0.985 . S
H782 N776 0.984 . S
H783 N776 0.984 . S
H784 N772 0.984 . S
H785 N772 0.985 . S
C786 C787 1.363 . S
C786 C792 1.379 . S
C786 N794 1.356 1_655 S
C787 C786 1.363 . S
C787 C793 1.363 . S
C788 C789 1.363 . S
C788 C793 1.379 . S
C788 N795 1.356 . S
C789 C788 1.363 . S
C789 C792 1.363 . S
N790 C792 1.356 . S
N790 H802 0.984 1_655 S
N790 H803 0.985 . S
N791 C793 1.356 . S
N791 H796 0.984 . S
N791 H797 0.985 . S
C792 C786 1.379 . S
C792 C789 1.363 . S
C792 N790 1.356 . S
C793 C787 1.363 . S
C793 C788 1.379 . S
C793 N791 1.356 . S
N794 C786 1.356 1_455 S
N794 H800 0.984 . S
N794 H801 0.984 . S
N795 C788 1.356 . S
N795 H798 0.984 . S
N795 H799 0.985 . S
H796 N791 0.984 . S
H797 N791 0.985 . S
H798 N795 0.984 . S
H799 N795 0.985 . S
H800 N794 0.984 . S
H801 N794 0.984 . S
H802 N790 0.984 1_455 S
H803 N790 0.985 . S
C804 C805 1.363 . S
C804 C810 1.379 . S
C804 N812 1.356 . S
C805 C804 1.363 . S
C805 C811 1.363 . S
C806 C807 1.363 . S
C806 C811 1.379 . S
C806 N813 1.356 . S
C807 C806 1.363 . S
C807 C810 1.363 . S
N808 C810 1.356 . S
N808 H820 0.984 . S
N808 H821 0.985 . S
N809 C811 1.356 . S
N809 H814 0.984 . S
N809 H815 0.985 . S
C810 C804 1.379 . S
C810 C807 1.363 . S
C810 N808 1.356 . S
C811 C805 1.363 . S
C811 C806 1.379 . S
C811 N809 1.356 . S
N812 C804 1.356 . S
N812 H818 0.984 . S
N812 H819 0.984 . S
N813 C806 1.356 . S
N813 H816 0.984 . S
N813 H817 0.985 . S
H814 N809 0.984 . S
H815 N809 0.985 . S
H816 N813 0.984 . S
H817 N813 0.985 . S
H818 N812 0.984 . S
H819 N812 0.984 . S
H820 N808 0.984 . S
H821 N808 0.985 . S
C822 C823 1.363 . S
C822 C828 1.379 . S
C822 N830 1.356 1_655 S
C823 C822 1.363 . S
C823 C829 1.363 . S
C824 C825 1.363 . S
C824 C829 1.379 . S
C824 N831 1.356 . S
C825 C824 1.363 . S
C825 C828 1.363 . S
N826 C828 1.356 . S
N826 H838 0.984 1_655 S
N826 H839 0.985 . S
N827 C829 1.356 . S
N827 H832 0.984 . S
N827 H833 0.985 . S
C828 C822 1.379 . S
C828 C825 1.363 . S
C828 N826 1.356 . S
C829 C823 1.363 . S
C829 C824 1.379 . S
C829 N827 1.356 . S
N830 C822 1.356 1_455 S
N830 H836 0.984 . S
N830 H837 0.984 . S
N831 C824 1.356 . S
N831 H834 0.984 . S
N831 H835 0.985 . S
H832 N827 0.984 . S
H833 N827 0.985 . S
H834 N831 0.984 . S
H835 N831 0.985 . S
H836 N830 0.984 . S
H837 N830 0.984 . S
H838 N826 0.984 1_455 S
H839 N826 0.985 . S
C840 C841 1.363 . S
C840 C846 1.379 . S
C840 N848 1.356 . S
C841 C840 1.363 . S
C841 C847 1.363 . S
C842 C843 1.363 . S
C842 C847 1.379 . S
C842 N849 1.356 . S
C843 C842 1.363 . S
C843 C846 1.363 . S
N844 C846 1.356 . S
N844 H856 0.984 . S
N844 H857 0.985 . S
N845 C847 1.356 . S
N845 H850 0.984 . S
N845 H851 0.985 . S
C846 C840 1.379 . S
C846 C843 1.363 . S
C846 N844 1.356 . S
C847 C841 1.363 . S
C847 C842 1.379 . S
C847 N845 1.356 . S
N848 C840 1.356 . S
N848 H854 0.984 . S
N848 H855 0.984 . S
N849 C842 1.356 . S
N849 H852 0.984 . S
N849 H853 0.985 . S
H850 N845 0.984 . S
H851 N845 0.985 . S
H852 N849 0.984 . S
H853 N849 0.985 . S
H854 N848 0.984 . S
H855 N848 0.984 . S
H856 N844 0.984 . S
H857 N844 0.985 . S
C858 C859 1.363 . S
C858 C864 1.379 . S
C858 N866 1.356 . S
C859 C858 1.363 . S
C859 C865 1.363 . S
C860 C861 1.363 . S
C860 C865 1.379 . S
C860 N867 1.356 . S
C861 C860 1.363 . S
C861 C864 1.363 . S
N862 C864 1.356 . S
N862 H874 0.984 . S
N862 H875 0.985 . S
N863 C865 1.356 . S
N863 H868 0.984 . S
N863 H869 0.985 . S
C864 C858 1.379 . S
C864 C861 1.363 . S
C864 N862 1.356 . S
C865 C859 1.363 . S
C865 C860 1.379 . S
C865 N863 1.356 . S
N866 C858 1.356 . S
N866 H872 0.984 . S
N866 H873 0.984 . S
N867 C860 1.356 . S
N867 H870 0.984 . S
N867 H871 0.985 . S
H868 N863 0.984 . S
H869 N863 0.985 . S
H870 N867 0.984 . S
H871 N867 0.985 . S
H872 N866 0.984 . S
H873 N866 0.984 . S
H874 N862 0.984 . S
H875 N862 0.985 . S
C876 C877 1.363 . S
C876 C882 1.379 . S
C876 N884 1.356 . S
C877 C876 1.363 . S
C877 C883 1.363 . S
C878 C879 1.363 . S
C878 C883 1.379 . S
C878 N885 1.356 . S
C879 C878 1.363 . S
C879 C882 1.363 . S
N880 C882 1.356 . S
N880 H892 0.984 . S
N880 H893 0.985 . S
N881 C883 1.356 . S
N881 H886 0.984 . S
N881 H887 0.985 . S
C882 C876 1.379 . S
C882 C879 1.363 . S
C882 N880 1.356 . S
C883 C877 1.363 . S
C883 C878 1.379 . S
C883 N881 1.356 . S
N884 C876 1.356 . S
N884 H890 0.984 . S
N884 H891 0.984 . S
N885 C878 1.356 . S
N885 H888 0.984 . S
N885 H889 0.985 . S
H886 N881 0.984 . S
H887 N881 0.985 . S
H888 N885 0.984 . S
H889 N885 0.985 . S
H890 N884 0.984 . S
H891 N884 0.984 . S
H892 N880 0.984 . S
H893 N880 0.985 . S
C894 C895 1.363 . S
C894 C900 1.379 . S
C894 N902 1.356 . S
C895 C894 1.363 . S
C895 C901 1.363 . S
C896 C897 1.363 . S
C896 C901 1.379 . S
C896 N903 1.356 . S
C897 C896 1.363 . S
C897 C900 1.363 . S
N898 C900 1.356 . S
N898 H910 0.984 . S
N898 H911 0.985 . S
N899 C901 1.356 . S
N899 H904 0.984 . S
N899 H905 0.985 . S
C900 C894 1.379 . S
C900 C897 1.363 . S
C900 N898 1.356 . S
C901 C895 1.363 . S
C901 C896 1.379 . S
C901 N899 1.356 . S
N902 C894 1.356 . S
N902 H908 0.984 . S
N902 H909 0.984 . S
N903 C896 1.356 . S
N903 H906 0.984 . S
N903 H907 0.985 . S
H904 N899 0.984 . S
H905 N899 0.985 . S
H906 N903 0.984 . S
H907 N903 0.985 . S
H908 N902 0.984 . S
H909 N902 0.984 . S
H910 N898 0.984 . S
H911 N898 0.985 . S
C265 C7 1.278 . S
C267 C29 1.272 . S
C283 C18 1.519 . S
C285 C40 1.628 . S
C301 C51 1.422 . S
C303 C73 1.466 1_455 S
C319 C62 1.479 . S
C321 C84 1.418 . S
C337 C95 1.125 . S
C339 C139 1.106 . S
C355 C150 1.343 1_655 S
C357 C106 1.439 . S
C373 C117 1.198 . S
C375 C161 1.204 . S
C391 C172 1.511 . S
C393 C128 1.493 . S
C409 C216 1.692 1_554 S
C411 C183 1.722 . S
C427 C238 1.502 . S
C429 C194 1.658 . S
C445 C205 1.054 . S
C447 C249 1.067 1_554 S
C463 C227 1.114 . S
C465 C260 1.113 . S
C481 C247 1.244 . S
C483 C5 1.417 . S
C499 C184 1.857 . S
C501 C19 1.771 . S
C517 C27 1.400 . S
C519 C261 1.574 . S
C535 C41 1.711 . S
C537 C236 1.364 . S
C553 C203 1.668 . S
C555 C49 1.348 . S
C571 C63 1.642 . S
C573 C217 1.648 . S
C589 C71 1.453 . S
C591 C228 1.633 . S
C607 C195 1.661 . S
C609 C85 1.577 . S
C625 C151 1.736 . S
C627 C93 1.221 . S
C643 C104 1.424 . S
C645 C162 1.534 . S
C661 C118 1.772 . S
C663 C170 1.822 . S
C679 C137 1.240 . S
C681 C126 1.755 . S
C697 C82 1.204 . S
C699 C159 1.581 . S
C715 C173 1.687 . S
C717 C52 1.634 . S
C733 C60 1.736 . S
C735 C140 1.677 . S
C751 C148 1.459 1_655 S
C753 C74 1.746 . S
C769 C115 1.749 . S
C771 C16 1.354 . S
C787 C129 1.735 . S
C789 C30 1.708 . S
C805 C38 1.719 . S
C807 C96 1.669 . S
C823 C8 1.469 . S
C825 C107 1.459 . S
C841 C239 1.676 . S
C843 C225 1.483 . S
C859 C192 1.813 . S
C861 C250 1.672 . S
C877 C181 1.936 . S
C879 C206 1.864 . S
C895 C258 1.464 . S
C897 C214 1.555 . S
