# Generated by pormake.
# Topology unl, (4)-cn, num edge types: 1
# Building blocks:
#     Node 0, Type 0, BuildingBlock: CEKHIL_clean_sbu_0, # of connection points: 4
#     Node 1, Type 0, BuildingBlock: CEKHIL_clean_sbu_0, # of connection points: 4
#     Node 2, Type 0, BuildingBlock: CEKHIL_clean_sbu_0, # of connection points: 4
#     Node 3, Type 0, BuildingBlock: CEKHIL_clean_sbu_0, # of connection points: 4
#     Node 4, Type 0, BuildingBlock: CEKHIL_clean_sbu_0, # of connection points: 4
#     Node 5, Type 0, BuildingBlock: CEKHIL_clean_sbu_0, # of connection points: 4
#     Node 6, Type 0, BuildingBlock: CEKHIL_clean_sbu_0, # of connection points: 4
#     Node 7, Type 0, BuildingBlock: CEKHIL_clean_sbu_0, # of connection points: 4
#     Node 8, Type 0, BuildingBlock: CEKHIL_clean_sbu_0, # of connection points: 4
#     Node 9, Type 0, BuildingBlock: CEKHIL_clean_sbu_0, # of connection points: 4
#     Node 10, Type 0, BuildingBlock: CEKHIL_clean_sbu_0, # of connection points: 4
#     Node 11, Type 0, BuildingBlock: CEKHIL_clean_sbu_0, # of connection points: 4
#     Node 12, Type 0, BuildingBlock: CEKHIL_clean_sbu_0, # of connection points: 4
#     Node 13, Type 0, BuildingBlock: CEKHIL_clean_sbu_0, # of connection points: 4
#     Node 14, Type 0, BuildingBlock: CEKHIL_clean_sbu_0, # of connection points: 4
#     Node 15, Type 0, BuildingBlock: CEKHIL_clean_sbu_0, # of connection points: 4
#     Node 16, Type 0, BuildingBlock: CEKHIL_clean_sbu_0, # of connection points: 4
#     Node 17, Type 0, BuildingBlock: CEKHIL_clean_sbu_0, # of connection points: 4
#     Node 18, Type 0, BuildingBlock: CEKHIL_clean_sbu_0, # of connection points: 4
#     Node 19, Type 0, BuildingBlock: CEKHIL_clean_sbu_0, # of connection points: 4
#     Node 20, Type 0, BuildingBlock: CEKHIL_clean_sbu_0, # of connection points: 4
#     Node 21, Type 0, BuildingBlock: CEKHIL_clean_sbu_0, # of connection points: 4
#     Node 22, Type 0, BuildingBlock: CEKHIL_clean_sbu_0, # of connection points: 4
#     Node 23, Type 0, BuildingBlock: CEKHIL_clean_sbu_0, # of connection points: 4
#     Node 24, Type 0, BuildingBlock: CEKHIL_clean_sbu_0, # of connection points: 4
#     Node 25, Type 0, BuildingBlock: CEKHIL_clean_sbu_0, # of connection points: 4
#     Node 26, Type 0, BuildingBlock: CEKHIL_clean_sbu_0, # of connection points: 4
#     Node 27, Type 0, BuildingBlock: CEKHIL_clean_sbu_0, # of connection points: 4
#     Node 28, Type 0, BuildingBlock: CEKHIL_clean_sbu_0, # of connection points: 4
#     Node 29, Type 0, BuildingBlock: CEKHIL_clean_sbu_0, # of connection points: 4
#     Node 30, Type 0, BuildingBlock: CEKHIL_clean_sbu_0, # of connection points: 4
#     Node 31, Type 0, BuildingBlock: CEKHIL_clean_sbu_0, # of connection points: 4
#     Node 32, Type 0, BuildingBlock: CEKHIL_clean_sbu_0, # of connection points: 4
#     Node 33, Type 0, BuildingBlock: CEKHIL_clean_sbu_0, # of connection points: 4
#     Node 34, Type 0, BuildingBlock: CEKHIL_clean_sbu_0, # of connection points: 4
#     Node 35, Type 0, BuildingBlock: CEKHIL_clean_sbu_0, # of connection points: 4
#     Edge 36, Type (0, 0), BuildingBlock: UVAHIK_clean_linker_0, # of connection points: 2
#     Edge 37, Type (0, 0), BuildingBlock: UVAHIK_clean_linker_0, # of connection points: 2
#     Edge 38, Type (0, 0), BuildingBlock: UVAHIK_clean_linker_0, # of connection points: 2
#     Edge 39, Type (0, 0), BuildingBlock: UVAHIK_clean_linker_0, # of connection points: 2
#     Edge 40, Type (0, 0), BuildingBlock: UVAHIK_clean_linker_0, # of connection points: 2
#     Edge 41, Type (0, 0), BuildingBlock: UVAHIK_clean_linker_0, # of connection points: 2
#     Edge 42, Type (0, 0), BuildingBlock: UVAHIK_clean_linker_0, # of connection points: 2
#     Edge 43, Type (0, 0), BuildingBlock: UVAHIK_clean_linker_0, # of connection points: 2
#     Edge 44, Type (0, 0), BuildingBlock: UVAHIK_clean_linker_0, # of connection points: 2
#     Edge 45, Type (0, 0), BuildingBlock: UVAHIK_clean_linker_0, # of connection points: 2
#     Edge 46, Type (0, 0), BuildingBlock: UVAHIK_clean_linker_0, # of connection points: 2
#     Edge 47, Type (0, 0), BuildingBlock: UVAHIK_clean_linker_0, # of connection points: 2
#     Edge 48, Type (0, 0), BuildingBlock: UVAHIK_clean_linker_0, # of connection points: 2
#     Edge 49, Type (0, 0), BuildingBlock: UVAHIK_clean_linker_0, # of connection points: 2
#     Edge 50, Type (0, 0), BuildingBlock: UVAHIK_clean_linker_0, # of connection points: 2
#     Edge 51, Type (0, 0), BuildingBlock: UVAHIK_clean_linker_0, # of connection points: 2
#     Edge 52, Type (0, 0), BuildingBlock: UVAHIK_clean_linker_0, # of connection points: 2
#     Edge 53, Type (0, 0), BuildingBlock: UVAHIK_clean_linker_0, # of connection points: 2
#     Edge 54, Type (0, 0), BuildingBlock: UVAHIK_clean_linker_0, # of connection points: 2
#     Edge 55, Type (0, 0), BuildingBlock: UVAHIK_clean_linker_0, # of connection points: 2
#     Edge 56, Type (0, 0), BuildingBlock: UVAHIK_clean_linker_0, # of connection points: 2
#     Edge 57, Type (0, 0), BuildingBlock: UVAHIK_clean_linker_0, # of connection points: 2
#     Edge 58, Type (0, 0), BuildingBlock: UVAHIK_clean_linker_0, # of connection points: 2
#     Edge 59, Type (0, 0), BuildingBlock: UVAHIK_clean_linker_0, # of connection points: 2
#     Edge 60, Type (0, 0), BuildingBlock: UVAHIK_clean_linker_0, # of connection points: 2
#     Edge 61, Type (0, 0), BuildingBlock: UVAHIK_clean_linker_0, # of connection points: 2
#     Edge 62, Type (0, 0), BuildingBlock: UVAHIK_clean_linker_0, # of connection points: 2
#     Edge 63, Type (0, 0), BuildingBlock: UVAHIK_clean_linker_0, # of connection points: 2
#     Edge 64, Type (0, 0), BuildingBlock: UVAHIK_clean_linker_0, # of connection points: 2
#     Edge 65, Type (0, 0), BuildingBlock: UVAHIK_clean_linker_0, # of connection points: 2
#     Edge 66, Type (0, 0), BuildingBlock: UVAHIK_clean_linker_0, # of connection points: 2
#     Edge 67, Type (0, 0), BuildingBlock: UVAHIK_clean_linker_0, # of connection points: 2
#     Edge 68, Type (0, 0), BuildingBlock: UVAHIK_clean_linker_0, # of connection points: 2
#     Edge 69, Type (0, 0), BuildingBlock: UVAHIK_clean_linker_0, # of connection points: 2
#     Edge 70, Type (0, 0), BuildingBlock: UVAHIK_clean_linker_0, # of connection points: 2
#     Edge 71, Type (0, 0), BuildingBlock: UVAHIK_clean_linker_0, # of connection points: 2
#     Edge 72, Type (0, 0), BuildingBlock: UVAHIK_clean_linker_0, # of connection points: 2
#     Edge 73, Type (0, 0), BuildingBlock: UVAHIK_clean_linker_0, # of connection points: 2
#     Edge 74, Type (0, 0), BuildingBlock: UVAHIK_clean_linker_0, # of connection points: 2
#     Edge 75, Type (0, 0), BuildingBlock: UVAHIK_clean_linker_0, # of connection points: 2
#     Edge 76, Type (0, 0), BuildingBlock: UVAHIK_clean_linker_0, # of connection points: 2
#     Edge 77, Type (0, 0), BuildingBlock: UVAHIK_clean_linker_0, # of connection points: 2
#     Edge 78, Type (0, 0), BuildingBlock: UVAHIK_clean_linker_0, # of connection points: 2
#     Edge 79, Type (0, 0), BuildingBlock: UVAHIK_clean_linker_0, # of connection points: 2
#     Edge 80, Type (0, 0), BuildingBlock: UVAHIK_clean_linker_0, # of connection points: 2
#     Edge 81, Type (0, 0), BuildingBlock: UVAHIK_clean_linker_0, # of connection points: 2
#     Edge 82, Type (0, 0), BuildingBlock: UVAHIK_clean_linker_0, # of connection points: 2
#     Edge 83, Type (0, 0), BuildingBlock: UVAHIK_clean_linker_0, # of connection points: 2
#     Edge 84, Type (0, 0), BuildingBlock: UVAHIK_clean_linker_0, # of connection points: 2
#     Edge 85, Type (0, 0), BuildingBlock: UVAHIK_clean_linker_0, # of connection points: 2
#     Edge 86, Type (0, 0), BuildingBlock: UVAHIK_clean_linker_0, # of connection points: 2
#     Edge 87, Type (0, 0), BuildingBlock: UVAHIK_clean_linker_0, # of connection points: 2
#     Edge 88, Type (0, 0), BuildingBlock: UVAHIK_clean_linker_0, # of connection points: 2
#     Edge 89, Type (0, 0), BuildingBlock: UVAHIK_clean_linker_0, # of connection points: 2
#     Edge 90, Type (0, 0), BuildingBlock: UVAHIK_clean_linker_0, # of connection points: 2
#     Edge 91, Type (0, 0), BuildingBlock: UVAHIK_clean_linker_0, # of connection points: 2
#     Edge 92, Type (0, 0), BuildingBlock: UVAHIK_clean_linker_0, # of connection points: 2
#     Edge 93, Type (0, 0), BuildingBlock: UVAHIK_clean_linker_0, # of connection points: 2
#     Edge 94, Type (0, 0), BuildingBlock: UVAHIK_clean_linker_0, # of connection points: 2
#     Edge 95, Type (0, 0), BuildingBlock: UVAHIK_clean_linker_0, # of connection points: 2
#     Edge 96, Type (0, 0), BuildingBlock: UVAHIK_clean_linker_0, # of connection points: 2
#     Edge 97, Type (0, 0), BuildingBlock: UVAHIK_clean_linker_0, # of connection points: 2
#     Edge 98, Type (0, 0), BuildingBlock: UVAHIK_clean_linker_0, # of connection points: 2
#     Edge 99, Type (0, 0), BuildingBlock: UVAHIK_clean_linker_0, # of connection points: 2
#     Edge 100, Type (0, 0), BuildingBlock: UVAHIK_clean_linker_0, # of connection points: 2
#     Edge 101, Type (0, 0), BuildingBlock: UVAHIK_clean_linker_0, # of connection points: 2
#     Edge 102, Type (0, 0), BuildingBlock: UVAHIK_clean_linker_0, # of connection points: 2
#     Edge 103, Type (0, 0), BuildingBlock: UVAHIK_clean_linker_0, # of connection points: 2
#     Edge 104, Type (0, 0), BuildingBlock: UVAHIK_clean_linker_0, # of connection points: 2
#     Edge 105, Type (0, 0), BuildingBlock: UVAHIK_clean_linker_0, # of connection points: 2
#     Edge 106, Type (0, 0), BuildingBlock: UVAHIK_clean_linker_0, # of connection points: 2
#     Edge 107, Type (0, 0), BuildingBlock: UVAHIK_clean_linker_0, # of connection points: 2
# Relax obj value: 0.040
# Max RMSD: 0.122
# Mean RMSD: 0.122
data_MOF--net-unl--node1-CEKHIL_clean_sbu_0--edge1-UVAHIK_clean_linker_0
_symmetry_space_group_name_H-M    P1
_symmetry_Int_Tables_number       1
_symmetry_cell_setting            triclinic
loop_
_symmetry_equiv_pos_as_xyz
'x, y, z'
_cell_length_a     83.134056
_cell_length_b     83.120973
_cell_length_c     53.035222
_cell_angle_alpha  89.988811
_cell_angle_beta   90.004976
_cell_angle_gamma 120.01279
loop_
_atom_site_label
_atom_site_type_symbol
_atom_site_fract_x
_atom_site_fract_y
_atom_site_fract_z
_atom_type_partial_charge
Co0 Co 0.20902 0.11421 0.11223 0.0
O1 O 0.22596 0.11223 0.13493 0.0
O2 O 0.23214 0.1376 0.11361 0.0
C3 C 0.20026 0.08737 0.09153 0.0
O4 O 0.19533 0.12118 0.08649 0.0
Co5 Co 0.16687 0.0848 0.11319 0.0
O6 O 0.1666 0.09676 0.08088 0.0
C7 C 0.18288 0.11351 0.15288 0.0
C8 C 0.23781 0.12931 0.12907 0.0
C9 C 0.17967 0.11289 0.07477 0.0
O10 O 0.19835 0.12205 0.14076 0.0
O11 O 0.16936 0.09767 0.14623 0.0
O12 O 0.21562 0.10232 0.08557 0.0
O13 O 0.19177 0.08873 0.11107 0.0
Co14 Co 0.88831 0.09647 0.11511 0.0
O15 O 0.89005 0.11485 0.13874 0.0
O16 O 0.86478 0.09581 0.11714 0.0
C17 C 0.91505 0.11525 0.09451 0.0
O18 O 0.88136 0.07641 0.08839 0.0
Co19 Co 0.91792 0.08407 0.11335 0.0
O20 O 0.9061 0.07306 0.08052 0.0
C21 C 0.88884 0.06913 0.15295 0.0
C22 C 0.87293 0.10953 0.13297 0.0
C23 C 0.88975 0.06975 0.07535 0.0
O24 O 0.88074 0.07732 0.14286 0.0
O25 O 0.90434 0.07126 0.145 0.0
O26 O 0.89999 0.11559 0.08909 0.0
O27 O 0.91385 0.10497 0.11348 0.0
Co28 Co 0.90338 0.79111 0.10968 0.0
O29 O 0.88279 0.77299 0.1292 0.0
O30 O 0.90339 0.76781 0.10995 0.0
C31 C 0.88724 0.80149 0.08744 0.0
O32 O 0.92593 0.80624 0.08719 0.0
Co33 Co 0.91604 0.83304 0.11571 0.0
O34 O 0.93264 0.83605 0.087 0.0
C35 C 0.92501 0.81397 0.15524 0.0
C36 C 0.88843 0.76143 0.12363 0.0
C37 C 0.93542 0.82312 0.07921 0.0
O38 O 0.91962 0.79976 0.14076 0.0
O39 O 0.92286 0.82779 0.14982 0.0
O40 O 0.88709 0.7864 0.08068 0.0
O41 O 0.89543 0.80857 0.10858 0.0
Co42 Co 0.11447 0.2102 0.38516 0.0
O43 O 0.11236 0.22746 0.36328 0.0
O44 O 0.13788 0.23335 0.38397 0.0
C45 C 0.08776 0.20112 0.40639 0.0
O46 O 0.12152 0.19603 0.41004 0.0
Co47 Co 0.08495 0.1681 0.38286 0.0
O48 O 0.09708 0.16717 0.41468 0.0
C49 C 0.11334 0.18491 0.34297 0.0
C50 C 0.1295 0.23921 0.36895 0.0
C51 C 0.1132 0.1801 0.42109 0.0
O52 O 0.12212 0.19999 0.35586 0.0
O53 O 0.09743 0.17136 0.3493 0.0
O54 O 0.10274 0.21638 0.41255 0.0
O55 O 0.08902 0.19298 0.38638 0.0
Co56 Co 0.79028 0.9033 0.38346 0.0
O57 O 0.77336 0.88442 0.36066 0.0
O58 O 0.76745 0.90407 0.38126 0.0
C59 C 0.79822 0.88484 0.40489 0.0
O60 O 0.80391 0.924 0.40923 0.0
Co61 Co 0.83222 0.91537 0.38418 0.0
O62 O 0.83205 0.92728 0.41651 0.0
C63 C 0.81747 0.92892 0.34367 0.0
C64 C 0.7617 0.88999 0.36599 0.0
C65 C 0.8192 0.93085 0.42178 0.0
O66 O 0.80157 0.92161 0.35477 0.0
O67 O 0.83086 0.92675 0.35142 0.0
O68 O 0.78299 0.88485 0.41033 0.0
O69 O 0.80715 0.89461 0.38547 0.0
Co70 Co 0.09398 0.88646 0.38174 0.0
O71 O 0.11238 0.88814 0.35828 0.0
O72 O 0.0937 0.86307 0.38049 0.0
C73 C 0.11256 0.91357 0.40163 0.0
O74 O 0.07392 0.87981 0.40834 0.0
Co75 Co 0.08123 0.91585 0.38132 0.0
O76 O 0.0698 0.90432 0.41417 0.0
C77 C 0.06723 0.8864 0.34251 0.0
C78 C 0.10733 0.87116 0.36448 0.0
C79 C 0.06684 0.88824 0.42038 0.0
O80 O 0.07476 0.8782 0.35406 0.0
O81 O 0.0696 0.90227 0.3491 0.0
O82 O 0.11308 0.89869 0.40759 0.0
O83 O 0.10225 0.91197 0.3825 0.0
Co84 Co 0.79215 0.89025 0.88224 0.0
O85 O 0.77515 0.89184 0.85916 0.0
O86 O 0.76926 0.86665 0.8807 0.0
C87 C 0.80033 0.91705 0.90282 0.0
O88 O 0.80583 0.88355 0.90844 0.0
Co89 Co 0.83415 0.92011 0.88267 0.0
O90 O 0.834 0.90848 0.91541 0.0
C91 C 0.81945 0.89077 0.84341 0.0
C92 C 0.76345 0.87472 0.86509 0.0
C93 C 0.82114 0.89212 0.92095 0.0
O94 O 0.80335 0.88264 0.85404 0.0
O95 O 0.8329 0.90638 0.85096 0.0
O96 O 0.78505 0.90196 0.90861 0.0
O97 O 0.80911 0.91582 0.88352 0.0
Co98 Co 0.11598 0.90398 0.88595 0.0
O99 O 0.11425 0.88483 0.86395 0.0
O100 O 0.13976 0.90508 0.88412 0.0
C101 C 0.08971 0.88572 0.9078 0.0
O102 O 0.12278 0.92506 0.91096 0.0
Co103 Co 0.08565 0.91541 0.88555 0.0
O104 O 0.09747 0.92763 0.91788 0.0
C105 C 0.11396 0.92871 0.84505 0.0
C106 C 0.13156 0.89075 0.86925 0.0
C107 C 0.11401 0.93163 0.9233 0.0
O108 O 0.12272 0.92173 0.85656 0.0
O109 O 0.09833 0.92645 0.85264 0.0
O110 O 0.10508 0.8861 0.91355 0.0
O111 O 0.09035 0.89494 0.88787 0.0
Co112 Co 0.09537 0.20956 0.88326 0.0
O113 O 0.11389 0.22628 0.85982 0.0
O114 O 0.09478 0.23248 0.88127 0.0
C115 C 0.11401 0.20145 0.90398 0.0
O116 O 0.07516 0.1963 0.90977 0.0
Co117 Co 0.08297 0.16751 0.88463 0.0
O118 O 0.07183 0.16818 0.91741 0.0
C119 C 0.06834 0.1819 0.84495 0.0
C120 C 0.10856 0.23809 0.86552 0.0
C121 C 0.06847 0.18117 0.92268 0.0
O122 O 0.07638 0.19811 0.85528 0.0
O123 O 0.07047 0.1685 0.85281 0.0
O124 O 0.11436 0.21685 0.90947 0.0
O125 O 0.10384 0.1925 0.88488 0.0
Co126 Co 0.88664 0.79172 0.61348 0.0
O127 O 0.88929 0.77532 0.63659 0.0
O128 O 0.86348 0.76853 0.61597 0.0
C129 C 0.91319 0.80044 0.59197 0.0
O130 O 0.87873 0.80443 0.58742 0.0
Co131 Co 0.91524 0.83401 0.6115 0.0
O132 O 0.90264 0.83298 0.57927 0.0
C133 C 0.88741 0.81888 0.65261 0.0
C134 C 0.87213 0.76324 0.63135 0.0
C135 C 0.88643 0.81954 0.57443 0.0
O136 O 0.87916 0.8028 0.64194 0.0
O137 O 0.90265 0.83251 0.64441 0.0
O138 O 0.89829 0.78483 0.58677 0.0
O139 O 0.91199 0.80932 0.61118 0.0
Co140 Co 0.20818 0.09368 0.61252 0.0
O141 O 0.22447 0.11204 0.63639 0.0
O142 O 0.23127 0.09343 0.61479 0.0
C143 C 0.20003 0.11229 0.59184 0.0
O144 O 0.19536 0.07372 0.58554 0.0
Co145 Co 0.16606 0.08083 0.61068 0.0
O146 O 0.16737 0.07059 0.57747 0.0
C147 C 0.18034 0.06598 0.65019 0.0
C148 C 0.23653 0.10706 0.63072 0.0
C149 C 0.18045 0.06735 0.57222 0.0
O150 O 0.19664 0.07437 0.64015 0.0
O151 O 0.16686 0.06793 0.64223 0.0
O152 O 0.21557 0.11288 0.58664 0.0
O153 O 0.19093 0.10192 0.61073 0.0
Co154 Co 0.90404 0.11276 0.61207 0.0
O155 O 0.8849 0.11042 0.63465 0.0
O156 O 0.90419 0.13606 0.61392 0.0
C157 C 0.88617 0.08614 0.59075 0.0
O158 O 0.92489 0.12018 0.58646 0.0
Co159 Co 0.91709 0.08363 0.61194 0.0
O160 O 0.92867 0.09559 0.5794 0.0
C161 C 0.92993 0.11208 0.6522 0.0
C162 C 0.89011 0.12755 0.62913 0.0
C163 C 0.93192 0.11189 0.57397 0.0
O164 O 0.92232 0.12032 0.64091 0.0
O165 O 0.92817 0.09664 0.64463 0.0
O166 O 0.88574 0.10112 0.58511 0.0
O167 O 0.89596 0.08732 0.61031 0.0
Co168 Co 0.87138 0.44085 0.44997 0.0
O169 O 0.88864 0.43932 0.47261 0.0
O170 O 0.89439 0.46435 0.45077 0.0
C171 C 0.86261 0.41384 0.42963 0.0
O172 O 0.85741 0.44741 0.42409 0.0
Co173 Co 0.82931 0.41121 0.45163 0.0
O174 O 0.82819 0.42354 0.42023 0.0
C175 C 0.84505 0.44113 0.48987 0.0
C176 C 0.90033 0.45636 0.46633 0.0
C177 C 0.84133 0.43943 0.4134 0.0
O178 O 0.86083 0.44899 0.47841 0.0
O179 O 0.8314 0.42536 0.48323 0.0
O180 O 0.8779 0.42878 0.42347 0.0
O181 O 0.85424 0.41529 0.44927 0.0
Co182 Co 0.55433 0.43003 0.44594 0.0
O183 O 0.5571 0.44919 0.4689 0.0
O184 O 0.53106 0.42985 0.44903 0.0
C185 C 0.58051 0.44783 0.42359 0.0
O186 O 0.54636 0.40915 0.42019 0.0
Co187 Co 0.58351 0.41704 0.44396 0.0
O188 O 0.57079 0.40537 0.41183 0.0
C189 C 0.55563 0.40374 0.48502 0.0
C190 C 0.53984 0.44392 0.46418 0.0
C191 C 0.55438 0.40208 0.40716 0.0
O192 O 0.54735 0.41166 0.47466 0.0
O193 O 0.57088 0.40548 0.47665 0.0
O194 O 0.56545 0.44835 0.4188 0.0
O195 O 0.57971 0.4381 0.44301 0.0
Co196 Co 0.57038 0.12502 0.44789 0.0
O197 O 0.55118 0.10737 0.46971 0.0
O198 O 0.57137 0.10227 0.4491 0.0
C199 C 0.55227 0.1334 0.42642 0.0
O200 O 0.59146 0.13944 0.42292 0.0
Co201 Co 0.58195 0.16688 0.44946 0.0
O202 O 0.59643 0.16852 0.41892 0.0
C203 C 0.59491 0.15121 0.48937 0.0
C204 C 0.55699 0.09597 0.46392 0.0
C205 C 0.59958 0.15558 0.41241 0.0
O206 O 0.58821 0.13572 0.47729 0.0
O207 O 0.59236 0.16453 0.48243 0.0
O208 O 0.55242 0.11833 0.42043 0.0
O209 O 0.56152 0.14176 0.44642 0.0
Co210 Co 0.78079 0.54269 0.71884 0.0
O211 O 0.77847 0.55971 0.69661 0.0
O212 O 0.80414 0.56578 0.71704 0.0
C213 C 0.75422 0.53384 0.74038 0.0
O214 O 0.78832 0.52913 0.74406 0.0
Co215 Co 0.75164 0.50049 0.719 0.0
O216 O 0.76415 0.50045 0.75084 0.0
C217 C 0.77967 0.5163 0.67821 0.0
C218 C 0.79566 0.57152 0.70205 0.0
C219 C 0.7804 0.51362 0.75618 0.0
O220 O 0.78814 0.53205 0.68969 0.0
O221 O 0.76422 0.50265 0.68586 0.0
O222 O 0.76924 0.5492 0.74611 0.0
O223 O 0.75536 0.52533 0.72069 0.0
Co224 Co 0.45598 0.23922 0.7179 0.0
O225 O 0.43954 0.22098 0.69403 0.0
O226 O 0.43325 0.24014 0.71516 0.0
C227 C 0.46322 0.22001 0.73881 0.0
O228 O 0.46904 0.25922 0.74475 0.0
Co229 Co 0.49779 0.251 0.72048 0.0
O230 O 0.49673 0.26183 0.75332 0.0
C231 C 0.4843 0.26582 0.67991 0.0
C232 C 0.42777 0.22641 0.69935 0.0
C233 C 0.48388 0.26547 0.75819 0.0
O234 O 0.46806 0.25825 0.69012 0.0
O235 O 0.49741 0.26338 0.68816 0.0
O236 O 0.44796 0.22005 0.74391 0.0
O237 O 0.47267 0.23031 0.72005 0.0
Co238 Co 0.76193 0.219 0.71813 0.0
O239 O 0.78029 0.22065 0.69462 0.0
O240 O 0.76063 0.19518 0.71536 0.0
C241 C 0.78114 0.24524 0.73941 0.0
O242 O 0.74165 0.21215 0.7445 0.0
Co243 Co 0.75069 0.24945 0.72037 0.0
O244 O 0.73886 0.23719 0.75264 0.0
C245 C 0.73566 0.22106 0.6799 0.0
C246 C 0.7745 0.20334 0.69975 0.0
C247 C 0.73505 0.22063 0.75747 0.0
O248 O 0.74322 0.21238 0.69006 0.0
O249 O 0.73815 0.23663 0.68816 0.0
O250 O 0.78083 0.22981 0.74452 0.0
O251 O 0.77114 0.24465 0.72043 0.0
Co252 Co 0.45779 0.22045 0.21713 0.0
O253 O 0.44106 0.2223 0.19383 0.0
O254 O 0.43497 0.19686 0.21491 0.0
C255 C 0.46569 0.247 0.2382 0.0
O256 O 0.47116 0.21346 0.2434 0.0
Co257 Co 0.49976 0.2503 0.21845 0.0
O258 O 0.49924 0.23831 0.25103 0.0
C259 C 0.48545 0.22153 0.17848 0.0
C260 C 0.42935 0.20509 0.19928 0.0
C261 C 0.48633 0.2219 0.25621 0.0
O262 O 0.4693 0.21321 0.18894 0.0
O263 O 0.49882 0.23706 0.18638 0.0
O264 O 0.45037 0.23184 0.24358 0.0
O265 O 0.4747 0.24601 0.219 0.0
Co266 Co 0.77744 0.23523 0.21684 0.0
O267 O 0.77641 0.21689 0.19379 0.0
O268 O 0.80143 0.23683 0.21509 0.0
C269 C 0.75099 0.21598 0.23764 0.0
O270 O 0.78362 0.25546 0.24302 0.0
Co271 Co 0.74666 0.24603 0.21766 0.0
O272 O 0.75814 0.25761 0.25044 0.0
C273 C 0.77573 0.26142 0.17807 0.0
C274 C 0.79367 0.22288 0.19953 0.0
C275 C 0.77469 0.26164 0.25581 0.0
O276 O 0.78432 0.25387 0.18857 0.0
O277 O 0.75999 0.2588 0.18583 0.0
O278 O 0.76642 0.21649 0.2434 0.0
O279 O 0.7517 0.22574 0.21829 0.0
Co280 Co 0.76478 0.54129 0.21769 0.0
O281 O 0.78439 0.55852 0.19601 0.0
O282 O 0.76417 0.56423 0.21535 0.0
C283 C 0.78248 0.53286 0.24009 0.0
O284 O 0.74321 0.52725 0.24215 0.0
Co285 Co 0.75274 0.49934 0.21767 0.0
O286 O 0.7393 0.4988 0.24888 0.0
C287 C 0.7401 0.51466 0.17673 0.0
C288 C 0.77864 0.57011 0.20078 0.0
C289 C 0.73566 0.51163 0.25399 0.0
O290 O 0.74735 0.5305 0.18799 0.0
O291 O 0.74203 0.50114 0.18459 0.0
O292 O 0.78227 0.54795 0.24577 0.0
O293 O 0.7734 0.52438 0.22005 0.0
Co294 Co 0.55063 0.12382 0.9438 0.0
O295 O 0.5539 0.10803 0.9673 0.0
O296 O 0.5277 0.10048 0.94723 0.0
C297 C 0.577 0.13253 0.92184 0.0
O298 O 0.5421 0.13589 0.91754 0.0
Co299 Co 0.57881 0.16619 0.94045 0.0
O300 O 0.56573 0.16441 0.90839 0.0
C301 C 0.5516 0.15143 0.98234 0.0
C302 C 0.53673 0.09569 0.96268 0.0
C303 C 0.54952 0.15078 0.90408 0.0
O304 O 0.54333 0.13519 0.97211 0.0
O305 O 0.56665 0.16503 0.97361 0.0
O306 O 0.56216 0.11674 0.91712 0.0
O307 O 0.57585 0.14162 0.94081 0.0
Co308 Co 0.875 0.42717 0.94695 0.0
O309 O 0.89063 0.44613 0.97069 0.0
O310 O 0.89817 0.42735 0.95099 0.0
C311 C 0.86685 0.44509 0.92456 0.0
O312 O 0.86315 0.40667 0.92055 0.0
Co313 Co 0.83279 0.4133 0.94256 0.0
O314 O 0.83487 0.40206 0.91061 0.0
C315 C 0.84677 0.4004 0.98484 0.0
C316 C 0.90293 0.44119 0.96637 0.0
C317 C 0.84846 0.39935 0.90671 0.0
O318 O 0.86316 0.40843 0.97509 0.0
O319 O 0.83333 0.40193 0.97572 0.0
O320 O 0.88261 0.44586 0.92032 0.0
O321 O 0.85741 0.43484 0.94337 0.0
Co322 Co 0.5723 0.44666 0.9487 0.0
O323 O 0.55393 0.44503 0.97223 0.0
O324 O 0.57317 0.4703 0.95079 0.0
C325 C 0.55333 0.41999 0.92808 0.0
O326 O 0.59243 0.45348 0.92212 0.0
Co327 Co 0.58427 0.41671 0.94694 0.0
O328 O 0.59546 0.42855 0.9142 0.0
C329 C 0.59901 0.44549 0.98696 0.0
C330 C 0.55939 0.4622 0.96655 0.0
C331 C 0.59898 0.44498 0.90909 0.0
O332 O 0.59127 0.45395 0.97662 0.0
O333 O 0.59669 0.42992 0.97898 0.0
O334 O 0.55324 0.43517 0.92257 0.0
O335 O 0.56355 0.42108 0.94705 0.0
Co336 Co 0.54261 0.78096 0.7794 0.0
O337 O 0.55957 0.77938 0.80256 0.0
O338 O 0.56522 0.80475 0.78171 0.0
C339 C 0.5352 0.75458 0.75818 0.0
O340 O 0.52899 0.78773 0.75327 0.0
Co341 Co 0.50088 0.75057 0.7777 0.0
O342 O 0.50122 0.76258 0.74521 0.0
C343 C 0.51454 0.7793 0.81781 0.0
C344 C 0.57108 0.79665 0.79718 0.0
C345 C 0.51392 0.77914 0.74028 0.0
O346 O 0.53082 0.78779 0.80771 0.0
O347 O 0.50135 0.76376 0.80962 0.0
O348 O 0.55027 0.76997 0.75272 0.0
O349 O 0.52608 0.75528 0.77743 0.0
Co350 Co 0.21924 0.76045 0.7754 0.0
O351 O 0.22202 0.77825 0.80074 0.0
O352 O 0.19625 0.76065 0.77916 0.0
C353 C 0.24598 0.77939 0.75495 0.0
O354 O 0.21117 0.74129 0.7472 0.0
Co355 Co 0.24742 0.74654 0.76941 0.0
O356 O 0.23485 0.7369 0.73657 0.0
C357 C 0.21911 0.7312 0.81008 0.0
C358 C 0.20499 0.77375 0.7957 0.0
C359 C 0.21866 0.73448 0.73266 0.0
O360 O 0.21142 0.7403 0.80172 0.0
O361 O 0.23411 0.73288 0.80081 0.0
O362 O 0.23115 0.78043 0.75061 0.0
O363 O 0.24458 0.76812 0.77269 0.0
Co364 Co 0.23702 0.4591 0.7792 0.0
O365 O 0.21784 0.44201 0.80159 0.0
O366 O 0.23731 0.436 0.78072 0.0
C367 C 0.21912 0.46792 0.75802 0.0
O368 O 0.25794 0.47281 0.75374 0.0
Co369 Co 0.24991 0.50126 0.77958 0.0
O370 O 0.26177 0.50125 0.74712 0.0
C371 C 0.26278 0.48548 0.8196 0.0
C372 C 0.22319 0.43022 0.79591 0.0
C373 C 0.26506 0.48826 0.74152 0.0
O374 O 0.25522 0.4697 0.80815 0.0
O375 O 0.26097 0.49918 0.8122 0.0
O376 O 0.21877 0.45257 0.75218 0.0
O377 O 0.22883 0.4764 0.77768 0.0
Co378 Co 0.44445 0.87474 0.04923 0.0
O379 O 0.44263 0.8927 0.02844 0.0
O380 O 0.46815 0.8976 0.04821 0.0
C381 C 0.41813 0.86588 0.07141 0.0
O382 O 0.45128 0.85982 0.07309 0.0
Co383 Co 0.41409 0.83294 0.0461 0.0
O384 O 0.42719 0.8306 0.07588 0.0
C385 C 0.44264 0.84947 0.00624 0.0
C386 C 0.45989 0.90406 0.03404 0.0
C387 C 0.44328 0.84337 0.0827 0.0
O388 O 0.45145 0.86466 0.01897 0.0
O389 O 0.42675 0.83601 0.01285 0.0
O390 O 0.43339 0.88088 0.07752 0.0
O391 O 0.41885 0.85795 0.05086 0.0
Co392 Co 0.12429 0.57151 0.04931 0.0
O393 O 0.10625 0.55137 0.02908 0.0
O394 O 0.1014 0.57227 0.04815 0.0
C395 C 0.13337 0.55448 0.07207 0.0
O396 O 0.13923 0.59364 0.07258 0.0
Co397 Co 0.16613 0.58317 0.04616 0.0
O398 O 0.16852 0.599 0.07547 0.0
C399 C 0.14911 0.59389 0.00544 0.0
C400 C 0.09489 0.55732 0.03443 0.0
C401 C 0.15569 0.60229 0.0821 0.0
O402 O 0.13414 0.58806 0.01852 0.0
O403 O 0.16258 0.59154 0.01222 0.0
O404 O 0.11838 0.55476 0.07812 0.0
O405 O 0.14118 0.56286 0.05132 0.0
Co406 Co 0.4297 0.55364 0.04853 0.0
O407 O 0.44819 0.55525 0.02524 0.0
O408 O 0.42891 0.53002 0.04673 0.0
C409 C 0.44846 0.58033 0.06925 0.0
O410 O 0.40948 0.54691 0.07495 0.0
Co411 Co 0.41772 0.58361 0.04958 0.0
O412 O 0.40657 0.57197 0.08245 0.0
C413 C 0.40282 0.55443 0.0101 0.0
C414 C 0.44277 0.53812 0.03109 0.0
C415 C 0.403 0.55556 0.0878 0.0
O416 O 0.41077 0.54619 0.02048 0.0
O417 O 0.40509 0.57003 0.01786 0.0
O418 O 0.44863 0.5652 0.07481 0.0
O419 O 0.4384 0.57921 0.05007 0.0
Co420 Co 0.12188 0.55202 0.54905 0.0
O421 O 0.1046 0.55291 0.52579 0.0
O422 O 0.09929 0.52814 0.54793 0.0
C423 C 0.12948 0.57893 0.56886 0.0
O424 O 0.13597 0.54608 0.57547 0.0
Co425 Co 0.16364 0.58254 0.54849 0.0
O426 O 0.16428 0.57113 0.58111 0.0
C427 C 0.14881 0.55345 0.50919 0.0
C428 C 0.0932 0.53579 0.53203 0.0
C429 C 0.15153 0.55487 0.58734 0.0
O430 O 0.1333 0.5445 0.52114 0.0
O431 O 0.16186 0.56958 0.51576 0.0
O432 O 0.11445 0.56371 0.57501 0.0
O433 O 0.13839 0.5777 0.54971 0.0
Co434 Co 0.44658 0.57189 0.55042 0.0
O435 O 0.44479 0.5524 0.52901 0.0
O436 O 0.47022 0.57262 0.54931 0.0
C437 C 0.42006 0.5541 0.57209 0.0
O438 O 0.4534 0.5933 0.57494 0.0
Co439 Co 0.41635 0.58354 0.54806 0.0
O440 O 0.42938 0.59849 0.5782 0.0
C441 C 0.44508 0.59613 0.50833 0.0
C442 C 0.462 0.55812 0.53473 0.0
C443 C 0.44544 0.60167 0.58492 0.0
O444 O 0.45379 0.58947 0.52067 0.0
O445 O 0.4292 0.59367 0.51507 0.0
O446 O 0.43524 0.55422 0.57821 0.0
O447 O 0.421 0.56316 0.55187 0.0
Co448 Co 0.4287 0.87523 0.54922 0.0
O449 O 0.44734 0.89131 0.52543 0.0
O450 O 0.42858 0.89832 0.5463 0.0
C451 C 0.44697 0.86695 0.5705 0.0
O452 O 0.40851 0.86287 0.57593 0.0
Co453 Co 0.41525 0.83301 0.55244 0.0
O454 O 0.40412 0.83451 0.58481 0.0
C455 C 0.40159 0.84728 0.51136 0.0
C456 C 0.44229 0.90342 0.53057 0.0
C457 C 0.40134 0.84798 0.58938 0.0
O458 O 0.40966 0.8636 0.52136 0.0
O459 O 0.40338 0.83383 0.5199 0.0
O460 O 0.44768 0.8826 0.57542 0.0
O461 O 0.43659 0.85776 0.55168 0.0
Co462 Co 0.22163 0.45942 0.27885 0.0
O463 O 0.22378 0.44228 0.30095 0.0
O464 O 0.19822 0.43629 0.28029 0.0
C465 C 0.24827 0.46836 0.25753 0.0
O466 O 0.21452 0.47343 0.25381 0.0
Co467 Co 0.25111 0.50153 0.28065 0.0
O468 O 0.23896 0.50224 0.24874 0.0
C469 C 0.2227 0.48502 0.3206 0.0
C470 C 0.20662 0.43052 0.29541 0.0
C471 C 0.2228 0.48927 0.24252 0.0
O472 O 0.21404 0.46979 0.30799 0.0
O473 O 0.23855 0.4986 0.3141 0.0
O474 O 0.23327 0.45305 0.25157 0.0
O475 O 0.24709 0.47664 0.27744 0.0
Co476 Co 0.54121 0.76216 0.2782 0.0
O477 O 0.55819 0.78136 0.30058 0.0
O478 O 0.56409 0.76151 0.28052 0.0
C479 C 0.53306 0.78026 0.25625 0.0
O480 O 0.52754 0.74114 0.25294 0.0
Co481 Co 0.49927 0.74998 0.27745 0.0
O482 O 0.49939 0.73775 0.24538 0.0
C483 C 0.51407 0.7365 0.31806 0.0
C484 C 0.56986 0.77575 0.29548 0.0
C485 C 0.51225 0.73414 0.24037 0.0
O486 O 0.5301 0.74417 0.30728 0.0
O487 O 0.50056 0.73838 0.31004 0.0
O488 O 0.54824 0.78017 0.25079 0.0
O489 O 0.52429 0.77081 0.27595 0.0
Co490 Co 0.23624 0.77945 0.2801 0.0
O491 O 0.21737 0.7779 0.30252 0.0
O492 O 0.23775 0.8034 0.28244 0.0
C493 C 0.21751 0.75345 0.25809 0.0
O494 O 0.25713 0.78613 0.2548 0.0
Co495 Co 0.24694 0.74859 0.27937 0.0
O496 O 0.25948 0.76075 0.24734 0.0
C497 C 0.26137 0.77694 0.31989 0.0
C498 C 0.22347 0.79528 0.29741 0.0
C499 C 0.26368 0.7774 0.24228 0.0
O500 O 0.25418 0.78577 0.30913 0.0
O501 O 0.25886 0.76129 0.31192 0.0
O502 O 0.21817 0.76901 0.25269 0.0
O503 O 0.22677 0.75376 0.2778 0.0
C504 C 0.17414 0.05583 0.08046 0.0
C505 C 0.19229 0.0704 0.07591 0.0
C506 C 0.16628 0.04003 0.06521 0.0
C507 C 0.17707 0.01236 0.02194 0.0
H508 H 0.128 0.99647 0.99507 0.0
C509 C 0.14315 0.95668 0.94337 0.0
C510 C 0.12372 0.94536 0.94354 0.0
C511 C 0.15202 0.9711 0.96089 0.0
C512 C 0.14155 0.00044 0.00274 0.0
H513 H 0.21662 0.07967 0.05225 0.0
H514 H 0.20289 0.05186 0.02568 0.0
H515 H 0.14253 0.02314 0.02308 0.0
H516 H 0.09847 0.9394 0.9632 0.0
H517 H 0.11391 0.96396 0.99427 0.0
H518 H 0.176 0.98949 0.00189 0.0
C519 C 0.19478 0.05274 0.04104 0.0
C520 C 0.14991 0.01582 0.01871 0.0
C521 C 0.20258 0.06868 0.05614 0.0
C522 C 0.11345 0.9481 0.96235 0.0
C523 C 0.12231 0.96228 0.98005 0.0
C524 C 0.1686 0.99679 0.00616 0.0
C525 C 0.17648 0.03837 0.04527 0.0
C526 C 0.16774 0.02194 0.02846 0.0
C527 C 0.14165 0.97431 0.97914 0.0
C528 C 0.15071 0.99063 0.99636 0.0
H529 H 0.16589 0.05672 0.09562 0.0
H530 H 0.15221 0.02908 0.06902 0.0
H531 H 0.19079 0.01674 0.02937 0.0
H532 H 0.15143 0.95493 0.92903 0.0
H533 H 0.16691 0.98014 0.95946 0.0
C534 C 0.94644 0.12072 0.08254 0.0
C535 C 0.9318 0.12425 0.07842 0.0
C536 C 0.96191 0.1284 0.06669 0.0
C537 C 0.98892 0.16606 0.02208 0.0
H538 H 0.0039 0.13208 0.99554 0.0
C539 C 0.0441 0.18628 0.94291 0.0
C540 C 0.05513 0.17785 0.94323 0.0
C541 C 0.02981 0.18116 0.96054 0.0
C542 C 0.00018 0.14189 0.0031 0.0
H543 H 0.9221 0.13903 0.05493 0.0
H544 H 0.94939 0.1527 0.0273 0.0
H545 H 0.97757 0.12058 0.02406 0.0
H546 H 0.06074 0.15846 0.9633 0.0
H547 H 0.03644 0.1501 0.99456 0.0
H548 H 0.01175 0.18746 0.00141 0.0
C549 C 0.94879 0.14392 0.04279 0.0
C550 C 0.985 0.13523 0.01935 0.0
C551 C 0.93316 0.13603 0.05851 0.0
C552 C 0.05228 0.16499 0.96234 0.0
C553 C 0.03823 0.1601 0.98015 0.0
C554 C 0.00431 0.1728 0.00599 0.0
C555 C 0.96319 0.13995 0.04654 0.0
C556 C 0.97923 0.14723 0.02907 0.0
C557 C 0.02643 0.16767 0.97905 0.0
C558 C 0.01018 0.16079 0.99636 0.0
H559 H 0.94586 0.11179 0.09779 0.0
H560 H 0.97291 0.12529 0.07018 0.0
H561 H 0.98481 0.17562 0.02944 0.0
H562 H 0.04593 0.19618 0.92833 0.0
H563 H 0.02096 0.18721 0.95898 0.0
C564 C 0.83788 0.89224 0.96014 0.0
C565 C 0.82486 0.88219 0.94122 0.0
C566 C 0.84313 0.88316 0.97761 0.0
C567 C 0.83106 0.83635 0.0024 0.0
H568 H 0.88328 0.86209 0.02049 0.0
C569 C 0.86794 0.80089 0.05082 0.0
C570 C 0.87929 0.81038 0.07153 0.0
C571 C 0.86041 0.80932 0.0358 0.0
C572 C 0.86863 0.8548 0.01577 0.0
H573 H 0.80668 0.85464 0.92624 0.0
H574 H 0.81627 0.83879 0.95619 0.0
H575 H 0.87142 0.87724 0.99307 0.0
H576 H 0.89169 0.83613 0.09275 0.0
H577 H 0.87882 0.85097 0.06622 0.0
H578 H 0.8286 0.81363 0.02458 0.0
C579 C 0.82216 0.85367 0.95796 0.0
C580 C 0.86177 0.86351 0.00015 0.0
C581 C 0.81667 0.86276 0.94071 0.0
C582 C 0.883 0.82847 0.07691 0.0
C583 C 0.8757 0.83699 0.06169 0.0
C584 C 0.83802 0.82753 0.01778 0.0
C585 C 0.83575 0.86381 0.97634 0.0
C586 C 0.84287 0.85446 0.99333 0.0
C587 C 0.86432 0.8275 0.04101 0.0
C588 C 0.85686 0.83671 0.02467 0.0
H589 H 0.84426 0.90722 0.96121 0.0
H590 H 0.85321 0.89139 0.99192 0.0
H591 H 0.8164 0.82901 0.99786 0.0
H592 H 0.86482 0.78692 0.04626 0.0
H593 H 0.85181 0.80176 0.01984 0.0
C594 C 0.94837 0.11206 0.53453 0.0
C595 C 0.94547 0.12199 0.55368 0.0
C596 C 0.96259 0.12127 0.51696 0.0
C597 C 0.99715 0.16806 0.49217 0.0
H598 H 0.02369 0.14236 0.47426 0.0
C599 C 0.06919 0.20286 0.4424 0.0
C600 C 0.07087 0.19288 0.42217 0.0
C601 C 0.05328 0.19483 0.45756 0.0
C602 C 0.01632 0.14964 0.47892 0.0
H603 H 0.95474 0.14944 0.56894 0.0
H604 H 0.98003 0.16553 0.53876 0.0
H605 H 0.99687 0.12734 0.50197 0.0
H606 H 0.05716 0.16677 0.40177 0.0
H607 H 0.02957 0.15268 0.42846 0.0
H608 H 0.0172 0.19064 0.46956 0.0
C609 C 0.97109 0.15065 0.53694 0.0
C610 C 0.00086 0.141 0.4947 0.0
C611 C 0.95662 0.14143 0.55431 0.0
C612 C 0.0563 0.1748 0.41726 0.0
C613 C 0.04054 0.1667 0.43258 0.0
C614 C 0.01281 0.17681 0.47658 0.0
C615 C 0.97451 0.14061 0.51838 0.0
C616 C 0.99095 0.15001 0.50141 0.0
C617 C 0.0389 0.17659 0.45293 0.0
C618 C 0.02245 0.16761 0.46969 0.0
H619 H 0.93981 0.09708 0.53335 0.0
H620 H 0.96441 0.11312 0.5025 0.0
H621 H 0.98979 0.17536 0.4967 0.0
H622 H 0.08019 0.21685 0.44658 0.0
H623 H 0.05241 0.2027 0.47325 0.0
C624 C 0.82363 0.87865 0.41712 0.0
C625 C 0.8055 0.87531 0.42075 0.0
C626 C 0.83073 0.86998 0.43239 0.0
C627 C 0.82325 0.84623 0.49407 0.0
H628 H 0.85888 0.83358 0.46707 0.0
C629 C 0.85614 0.81218 0.55452 0.0
C630 C 0.87568 0.82207 0.55416 0.0
C631 C 0.84606 0.81606 0.53683 0.0
C632 C 0.84891 0.83701 0.47482 0.0
H633 H 0.78038 0.85997 0.44286 0.0
H634 H 0.79254 0.84436 0.4691 0.0
H635 H 0.8437 0.84507 0.43884 0.0
H636 H 0.89992 0.84309 0.53425 0.0
H637 H 0.88228 0.84958 0.50312 0.0
H638 H 0.82849 0.83804 0.53006 0.0
C639 C 0.80149 0.85404 0.45486 0.0
C640 C 0.84029 0.84372 0.45872 0.0
C641 C 0.79447 0.86291 0.43974 0.0
C642 C 0.88488 0.83531 0.5351 0.0
C643 C 0.8748 0.83895 0.51719 0.0
C644 C 0.83169 0.83929 0.5101 0.0
C645 C 0.81977 0.85755 0.45149 0.0
C646 C 0.82765 0.84881 0.46822 0.0
C647 C 0.85531 0.82963 0.51818 0.0
C648 C 0.84487 0.83497 0.50071 0.0
H649 H 0.8325 0.8882 0.4027 0.0
H650 H 0.84498 0.87336 0.42952 0.0
H651 H 0.8138 0.85021 0.50218 0.0
H652 H 0.84866 0.80194 0.56901 0.0
H653 H 0.83103 0.80862 0.53789 0.0
C654 C 0.11846 0.94536 0.41221 0.0
C655 C 0.12183 0.93068 0.41695 0.0
C656 C 0.12656 0.96124 0.42731 0.0
C657 C 0.16485 0.98857 0.47132 0.0
H658 H 0.13182 0.00502 0.49702 0.0
C659 C 0.18541 0.04307 0.5514 0.0
C660 C 0.17743 0.05451 0.55114 0.0
C661 C 0.18032 0.0291 0.53327 0.0
C662 C 0.14138 0.0009 0.48967 0.0
H663 H 0.13673 0.92132 0.44077 0.0
H664 H 0.15104 0.94922 0.46713 0.0
H665 H 0.11979 0.97855 0.46871 0.0
H666 H 0.15902 0.06126 0.53065 0.0
H667 H 0.15074 0.03751 0.49857 0.0
H668 H 0.18651 0.01106 0.49216 0.0
C669 C 0.14211 0.94839 0.4517 0.0
C670 C 0.13442 0.98564 0.47351 0.0
C671 C 0.13384 0.93239 0.43672 0.0
C672 C 0.16517 0.05246 0.53157 0.0
C673 C 0.16032 0.03873 0.51328 0.0
C674 C 0.1719 0.00402 0.48734 0.0
C675 C 0.13836 0.96286 0.44733 0.0
C676 C 0.14605 0.97929 0.46419 0.0
C677 C 0.16734 0.02646 0.51435 0.0
C678 C 0.16022 0.01037 0.49673 0.0
H679 H 0.10933 0.94449 0.39704 0.0
H680 H 0.12358 0.97227 0.42336 0.0
H681 H 0.17415 0.98402 0.46425 0.0
H682 H 0.19485 0.04429 0.56633 0.0
H683 H 0.18593 0.01986 0.53481 0.0
C684 C 0.86017 0.04562 0.0551 0.0
C685 C 0.87965 0.05651 0.05474 0.0
C686 C 0.85087 0.03146 0.03733 0.0
C687 C 0.86002 0.0019 0.99398 0.0
H688 H 0.81082 0.98703 0.96842 0.0
C689 C 0.82641 0.94846 0.91436 0.0
C690 C 0.80829 0.93383 0.91884 0.0
C691 C 0.83443 0.96394 0.9302 0.0
C692 C 0.82452 0.99101 0.97555 0.0
H693 H 0.90454 0.062 0.03451 0.0
H694 H 0.88836 0.03795 0.003 0.0
H695 H 0.8263 0.01383 0.99661 0.0
H696 H 0.78412 0.92416 0.94295 0.0
H697 H 0.79815 0.95146 0.97056 0.0
H698 H 0.85835 0.9793 0.97258 0.0
C699 C 0.88025 0.03973 0.01754 0.0
C700 C 0.83339 0.00631 0.99174 0.0
C701 C 0.88954 0.05365 0.03549 0.0
C702 C 0.79814 0.93521 0.93909 0.0
C703 C 0.80611 0.95085 0.9548 0.0
C704 C 0.85127 0.98681 0.9776 0.0
C705 C 0.86084 0.02809 0.01864 0.0
C706 C 0.85129 0.01199 0.00112 0.0
C707 C 0.82443 0.96522 0.95069 0.0
C708 C 0.83347 0.98122 0.96819 0.0
H709 H 0.85218 0.04745 0.06979 0.0
H710 H 0.83595 0.02271 0.03893 0.0
H711 H 0.87355 0.00546 0.00132 0.0
H712 H 0.83455 0.94787 0.89884 0.0
H713 H 0.84851 0.97492 0.92645 0.0
C714 C 0.95333 0.81438 0.0492 0.0
C715 C 0.95066 0.82808 0.06082 0.0
C716 C 0.96791 0.81937 0.03205 0.0
C717 C 0.00019 0.85847 0.99102 0.0
H718 H 0.02876 0.83324 0.99042 0.0
C719 C 0.07397 0.87038 0.94832 0.0
C720 C 0.07316 0.87701 0.92427 0.0
C721 C 0.0585 0.86307 0.96431 0.0
C722 C 0.02099 0.84051 0.99046 0.0
H723 H 0.96156 0.85784 0.0638 0.0
H724 H 0.98695 0.86643 0.03453 0.0
H725 H 0.003 0.82335 0.02002 0.0
H726 H 0.05539 0.88062 0.89771 0.0
H727 H 0.02835 0.8675 0.92523 0.0
H728 H 0.01848 0.87607 0.96225 0.0
C729 C 0.97756 0.85181 0.0381 0.0
C730 C 0.00607 0.83468 0.00721 0.0
C731 C 0.963 0.84685 0.05504 0.0
C732 C 0.05649 0.87576 0.91624 0.0
C733 C 0.04101 0.86834 0.9321 0.0
C734 C 0.01511 0.86433 0.97441 0.0
C735 C 0.98016 0.83816 0.02623 0.0
C736 C 0.99557 0.8437 0.00781 0.0
C737 C 0.04188 0.86215 0.95649 0.0
C738 C 0.02575 0.85548 0.97393 0.0
H739 H 0.94411 0.79979 0.0532 0.0
H740 H 0.96941 0.80848 0.02309 0.0
H741 H 0.99226 0.86558 0.99067 0.0
H742 H 0.08667 0.87121 0.95504 0.0
H743 H 0.05976 0.85863 0.98304 0.0
C744 C 0.11896 0.17525 0.9162 0.0
C745 C 0.12283 0.19355 0.92014 0.0
C746 C 0.12647 0.16732 0.93211 0.0
C747 C 0.16429 0.17747 0.97588 0.0
H748 H 0.12979 0.1292 0.00396 0.0
C749 C 0.18491 0.14235 0.0543 0.0
C750 C 0.17596 0.12284 0.05451 0.0
C751 C 0.17966 0.15157 0.03693 0.0
C752 C 0.13973 0.14251 0.99597 0.0
H753 H 0.13803 0.21812 0.94335 0.0
H754 H 0.15146 0.20425 0.97103 0.0
H755 H 0.11846 0.14427 0.97556 0.0
H756 H 0.15541 0.09778 0.03568 0.0
H757 H 0.14684 0.11379 0.0048 0.0
H758 H 0.18567 0.17557 0.99587 0.0
C759 C 0.14251 0.19607 0.95567 0.0
C760 C 0.13317 0.15119 0.9798 0.0
C761 C 0.13477 0.20395 0.93992 0.0
C762 C 0.16237 0.11281 0.03622 0.0
C763 C 0.15735 0.12202 0.01863 0.0
C764 C 0.17094 0.16866 0.99185 0.0
C765 C 0.13821 0.17759 0.95209 0.0
C766 C 0.14537 0.16871 0.96954 0.0
C767 C 0.16554 0.14148 0.01918 0.0
C768 C 0.15873 0.15102 0.00204 0.0
H769 H 0.10989 0.16689 0.90106 0.0
H770 H 0.12308 0.1531 0.92878 0.0
H771 H 0.174 0.19095 0.96808 0.0
H772 H 0.19538 0.15045 0.06827 0.0
H773 H 0.1862 0.16655 0.0381 0.0
C774 C 0.93155 0.79799 0.55614 0.0
C775 C 0.92985 0.80845 0.57571 0.0
C776 C 0.94721 0.80588 0.54048 0.0
C777 C 0.98282 0.85077 0.51622 0.0
H778 H 0.0108 0.82617 0.50058 0.0
C779 C 0.05022 0.88864 0.4594 0.0
C780 C 0.05352 0.87846 0.44104 0.0
C781 C 0.03617 0.87959 0.47724 0.0
C782 C 0.00302 0.83314 0.5045 0.0
H783 H 0.94329 0.83525 0.59441 0.0
H784 H 0.97037 0.84906 0.56685 0.0
H785 H 0.98373 0.81097 0.52835 0.0
H786 H 0.04509 0.85075 0.4275 0.0
H787 H 0.0201 0.83491 0.45814 0.0
H788 H 0.00151 0.87265 0.49198 0.0
C789 C 0.95963 0.83479 0.56363 0.0
C790 C 0.98755 0.82444 0.52044 0.0
C791 C 0.94415 0.82685 0.57945 0.0
C792 C 0.04292 0.85896 0.4415 0.0
C793 C 0.02862 0.84989 0.45914 0.0
C794 C 0.99808 0.85935 0.50009 0.0
C795 C 0.96128 0.82443 0.54391 0.0
C796 C 0.97741 0.83326 0.52659 0.0
C797 C 0.0248 0.86013 0.4769 0.0
C798 C 0.00852 0.85076 0.49416 0.0
H799 H 0.92076 0.78375 0.55287 0.0
H800 H 0.9481 0.79763 0.52531 0.0
H801 H 0.97505 0.85774 0.5203 0.0
H802 H 0.05834 0.90368 0.45974 0.0
H803 H 0.03403 0.88792 0.49107 0.0
C804 C 0.11287 0.16184 0.45869 0.0
C805 C 0.12304 0.17593 0.44104 0.0
C806 C 0.12193 0.15648 0.47602 0.0
C807 C 0.16818 0.16992 0.50385 0.0
H808 H 0.14398 0.11712 0.51814 0.0
C809 C 0.203 0.13354 0.55634 0.0
C810 C 0.19224 0.12114 0.57554 0.0
C811 C 0.19531 0.14136 0.54042 0.0
C812 C 0.15084 0.13192 0.51446 0.0
H813 H 0.15075 0.19584 0.42818 0.0
H814 H 0.16663 0.18609 0.45796 0.0
H815 H 0.12931 0.1288 0.48958 0.0
H816 H 0.16511 0.10743 0.59335 0.0
H817 H 0.15164 0.12079 0.56529 0.0
H818 H 0.19001 0.17275 0.52837 0.0
C819 C 0.15163 0.17941 0.45878 0.0
C820 C 0.1424 0.13867 0.49819 0.0
C821 C 0.14254 0.18499 0.44164 0.0
C822 C 0.17374 0.11688 0.57869 0.0
C823 C 0.166 0.12447 0.56258 0.0
C824 C 0.17676 0.16309 0.51992 0.0
C825 C 0.14141 0.16483 0.47588 0.0
C826 C 0.15081 0.15779 0.49289 0.0
C827 C 0.17666 0.1367 0.5432 0.0
C828 C 0.16805 0.14405 0.52557 0.0
H829 H 0.09783 0.15478 0.45894 0.0
H830 H 0.11359 0.1456 0.48937 0.0
H831 H 0.17501 0.18473 0.50041 0.0
H832 H 0.21731 0.13712 0.55352 0.0
H833 H 0.20378 0.15069 0.52554 0.0
C834 C 0.88126 0.05493 0.57883 0.0
C835 C 0.87748 0.0694 0.57464 0.0
C836 C 0.87363 0.03937 0.56314 0.0
C837 C 0.83556 0.01178 0.51941 0.0
H838 H 0.86931 0.99661 0.49255 0.0
C839 C 0.81443 0.95559 0.4415 0.0
C840 C 0.82285 0.94456 0.44194 0.0
C841 C 0.8198 0.97015 0.45875 0.0
C842 C 0.85958 0.00039 0.50021 0.0
H843 H 0.8624 0.07874 0.55115 0.0
H844 H 0.84883 0.0513 0.52382 0.0
H845 H 0.88109 0.02328 0.52053 0.0
H846 H 0.84253 0.93926 0.46182 0.0
H847 H 0.85132 0.96405 0.49242 0.0
H848 H 0.81395 0.98868 0.49941 0.0
C849 C 0.85776 0.0521 0.53923 0.0
C850 C 0.86639 0.01577 0.51615 0.0
C851 C 0.86559 0.06782 0.55477 0.0
C852 C 0.83598 0.94771 0.46077 0.0
C853 C 0.84113 0.96204 0.4782 0.0
C854 C 0.82866 0.99621 0.50365 0.0
C855 C 0.86189 0.03783 0.54311 0.0
C856 C 0.85447 0.02159 0.52597 0.0
C857 C 0.83353 0.97381 0.47699 0.0
C858 C 0.84059 0.99027 0.49391 0.0
H859 H 0.89031 0.05571 0.59404 0.0
H860 H 0.87689 0.02848 0.5667 0.0
H861 H 0.82606 0.01593 0.52688 0.0
H862 H 0.80432 0.95354 0.42713 0.0
H863 H 0.81371 0.97898 0.45711 0.0
C864 C 0.80376 0.28602 0.27683 0.0
C865 C 0.7843 0.275 0.2765 0.0
C866 C 0.81264 0.3 0.29493 0.0
C867 C 0.80263 0.32886 0.33852 0.0
H868 H 0.85149 0.3434 0.36512 0.0
C869 C 0.83613 0.38256 0.41825 0.0
C870 C 0.85438 0.39696 0.41381 0.0
C871 C 0.82797 0.36699 0.40255 0.0
C872 C 0.83787 0.33951 0.35773 0.0
H873 H 0.75896 0.26919 0.2958 0.0
H874 H 0.77441 0.29297 0.32788 0.0
H875 H 0.83633 0.31689 0.33648 0.0
H876 H 0.87859 0.40614 0.38992 0.0
H877 H 0.86434 0.37873 0.36261 0.0
H878 H 0.80409 0.35131 0.36009 0.0
C879 C 0.78284 0.29139 0.31363 0.0
C880 C 0.82919 0.32437 0.34126 0.0
C881 C 0.77397 0.27764 0.29534 0.0
C882 C 0.86448 0.39527 0.39375 0.0
C883 C 0.85638 0.37957 0.37821 0.0
C884 C 0.81119 0.3438 0.35519 0.0
C885 C 0.80226 0.30308 0.31332 0.0
C886 C 0.81146 0.31886 0.33139 0.0
C887 C 0.83796 0.3654 0.38228 0.0
C888 C 0.8289 0.34931 0.36492 0.0
H889 H 0.81209 0.28437 0.26248 0.0
H890 H 0.82758 0.30881 0.29389 0.0
H891 H 0.7892 0.32539 0.33087 0.0
H892 H 0.82802 0.38342 0.43362 0.0
H893 H 0.81381 0.35618 0.40624 0.0
C894 C 0.61088 0.45162 0.40953 0.0
C895 C 0.59672 0.45599 0.40646 0.0
C896 C 0.62587 0.45861 0.39286 0.0
C897 C 0.65348 0.49621 0.34893 0.0
H898 H 0.66624 0.46114 0.32025 0.0
C899 C 0.71082 0.51682 0.2726 0.0
C900 C 0.72116 0.50764 0.27313 0.0
C901 C 0.69575 0.51147 0.28897 0.0
C902 C 0.66311 0.47122 0.32837 0.0
H903 H 0.58738 0.47151 0.38389 0.0
H904 H 0.61394 0.4841 0.35492 0.0
H905 H 0.63973 0.45009 0.34845 0.0
H906 H 0.72449 0.48643 0.29223 0.0
H907 H 0.69883 0.47761 0.32128 0.0
H908 H 0.67717 0.51744 0.32938 0.0
C909 C 0.61327 0.47512 0.37018 0.0
C910 C 0.64782 0.46483 0.34441 0.0
C911 C 0.59807 0.46787 0.38668 0.0
C912 C 0.71665 0.49361 0.2911 0.0
C913 C 0.7018 0.48844 0.30764 0.0
C914 C 0.66898 0.50268 0.33308 0.0
C915 C 0.62719 0.47036 0.37297 0.0
C916 C 0.64294 0.47726 0.35503 0.0
C917 C 0.69085 0.49696 0.30641 0.0
C918 C 0.67411 0.49026 0.32279 0.0
H919 H 0.6103 0.44257 0.42462 0.0
H920 H 0.63651 0.45488 0.3956 0.0
H921 H 0.65005 0.50609 0.35699 0.0
H922 H 0.7139 0.52764 0.25887 0.0
H923 H 0.68759 0.51827 0.28733 0.0
C924 C 0.54686 0.15944 0.41486 0.0
C925 C 0.54357 0.1414 0.41024 0.0
C926 C 0.5393 0.16739 0.39907 0.0
C927 C 0.50202 0.15703 0.35409 0.0
H928 H 0.53574 0.20644 0.32866 0.0
C929 C 0.48153 0.19237 0.27587 0.0
C930 C 0.48978 0.21181 0.27652 0.0
C931 C 0.48677 0.18316 0.29325 0.0
C932 C 0.52601 0.19278 0.33591 0.0
H933 H 0.52941 0.11735 0.38586 0.0
H934 H 0.51593 0.13123 0.35837 0.0
H935 H 0.54732 0.19149 0.35687 0.0
H936 H 0.50899 0.23671 0.29691 0.0
H937 H 0.51752 0.22067 0.32779 0.0
H938 H 0.48059 0.15843 0.3335 0.0
C939 C 0.52444 0.13919 0.37419 0.0
C940 C 0.53271 0.18419 0.35198 0.0
C941 C 0.53221 0.1313 0.38982 0.0
C942 C 0.50259 0.22174 0.29571 0.0
C943 C 0.50759 0.21253 0.31329 0.0
C944 C 0.49522 0.16573 0.33822 0.0
C945 C 0.5281 0.15739 0.37851 0.0
C946 C 0.5208 0.16626 0.36127 0.0
C947 C 0.50018 0.19318 0.31187 0.0
C948 C 0.50714 0.18377 0.32898 0.0
H949 H 0.55549 0.16755 0.43048 0.0
H950 H 0.5422 0.18138 0.40296 0.0
H951 H 0.49253 0.14322 0.36114 0.0
H952 H 0.47168 0.18435 0.2612 0.0
H953 H 0.48085 0.16828 0.29142 0.0
C954 C 0.61529 0.44512 0.86947 0.0
C955 C 0.61243 0.45505 0.88867 0.0
C956 C 0.62948 0.45433 0.85185 0.0
C957 C 0.66399 0.50112 0.82697 0.0
H958 H 0.69057 0.47548 0.80907 0.0
C959 C 0.73586 0.53586 0.77653 0.0
C960 C 0.73743 0.52575 0.75638 0.0
C961 C 0.72004 0.5279 0.79187 0.0
C962 C 0.68319 0.48275 0.81373 0.0
H963 H 0.62176 0.48253 0.90392 0.0
H964 H 0.64696 0.4986 0.87363 0.0
H965 H 0.66379 0.46045 0.83683 0.0
H966 H 0.72359 0.4995 0.73629 0.0
H967 H 0.69619 0.48558 0.76327 0.0
H968 H 0.68398 0.52369 0.80426 0.0
C969 C 0.63801 0.48372 0.87183 0.0
C970 C 0.66775 0.47411 0.82954 0.0
C971 C 0.62358 0.4745 0.88926 0.0
C972 C 0.72284 0.50763 0.75173 0.0
C973 C 0.70717 0.49962 0.76721 0.0
C974 C 0.67963 0.50988 0.81133 0.0
C975 C 0.6414 0.47368 0.85325 0.0
C976 C 0.65783 0.48309 0.83624 0.0
C977 C 0.70564 0.50963 0.78751 0.0
C978 C 0.68929 0.5007 0.80444 0.0
H979 H 0.60674 0.43014 0.86831 0.0
H980 H 0.63128 0.44619 0.83737 0.0
H981 H 0.65661 0.50841 0.8315 0.0
H982 H 0.74688 0.54987 0.7805 0.0
H983 H 0.71925 0.53587 0.8075 0.0
C984 C 0.48778 0.21244 0.75041 0.0
C985 C 0.46989 0.20972 0.75422 0.0
C986 C 0.49429 0.20295 0.76511 0.0
C987 C 0.4861 0.17809 0.82588 0.0
H988 H 0.52032 0.1641 0.79733 0.0
C989 C 0.5189 0.14332 0.88507 0.0
C990 C 0.53842 0.15295 0.88395 0.0
C991 C 0.50859 0.14714 0.86766 0.0
C992 C 0.51073 0.16788 0.80552 0.0
H993 H 0.44461 0.19471 0.7761 0.0
H994 H 0.45579 0.17776 0.80145 0.0
H995 H 0.50557 0.17655 0.76995 0.0
H996 H 0.56236 0.17334 0.8629 0.0
H997 H 0.54436 0.17971 0.83231 0.0
H998 H 0.49138 0.16942 0.86148 0.0
C999 C 0.46497 0.18752 0.78744 0.0
C1000 C 0.50236 0.17513 0.7899 0.0
C1001 C 0.45852 0.19716 0.77285 0.0
C1002 C 0.54735 0.16577 0.86435 0.0
C1003 C 0.53704 0.16934 0.84674 0.0
C1004 C 0.49432 0.17063 0.84144 0.0
C1005 C 0.48299 0.19035 0.78383 0.0
C1006 C 0.4903 0.18078 0.79998 0.0
C1007 C 0.5176 0.16037 0.84853 0.0
C1008 C 0.50704 0.16587 0.83151 0.0
H1009 H 0.49691 0.22208 0.73626 0.0
H1010 H 0.50837 0.20583 0.76211 0.0
H1011 H 0.47707 0.18246 0.8344 0.0
H1012 H 0.51163 0.1334 0.9 0.0
H1013 H 0.4936 0.13996 0.86936 0.0
C1014 C 0.85605 0.37621 0.88803 0.0
C1015 C 0.8465 0.38617 0.88659 0.0
C1016 C 0.8525 0.36223 0.87051 0.0
C1017 C 0.83295 0.34429 0.80769 0.0
H1018 H 0.81749 0.29568 0.83601 0.0
C1019 C 0.78897 0.27744 0.75113 0.0
C1020 C 0.79139 0.26208 0.75505 0.0
C1021 C 0.79836 0.2933 0.7661 0.0
C1022 C 0.82212 0.30919 0.82766 0.0
H1023 H 0.82651 0.38996 0.86494 0.0
H1024 H 0.8206 0.36583 0.83415 0.0
H1025 H 0.83013 0.32277 0.86357 0.0
H1026 H 0.80582 0.25139 0.77738 0.0
H1027 H 0.82261 0.27929 0.8032 0.0
H1028 H 0.82495 0.33085 0.77182 0.0
C1029 C 0.83071 0.36873 0.84891 0.0
C1030 C 0.82934 0.32471 0.8435 0.0
C1031 C 0.83401 0.38247 0.86662 0.0
C1032 C 0.8036 0.26299 0.77404 0.0
C1033 C 0.81315 0.27895 0.7889 0.0
C1034 C 0.82595 0.32884 0.79181 0.0
C1035 C 0.83962 0.35822 0.85097 0.0
C1036 C 0.8344 0.34232 0.83375 0.0
C1037 C 0.81057 0.29428 0.7852 0.0
C1038 C 0.81997 0.311 0.80167 0.0
H1039 H 0.86572 0.37872 0.90325 0.0
H1040 H 0.85961 0.35436 0.87243 0.0
H1041 H 0.83698 0.35778 0.79966 0.0
H1042 H 0.77961 0.27714 0.7367 0.0
H1043 H 0.7957 0.30463 0.763 0.0
C1044 C 0.52446 0.37714 0.38853 0.0
C1045 C 0.54387 0.38844 0.38713 0.0
C1046 C 0.51497 0.36252 0.37143 0.0
C1047 C 0.52419 0.3327 0.32874 0.0
H1048 H 0.47439 0.31616 0.30412 0.0
C1049 C 0.49135 0.27857 0.24998 0.0
C1050 C 0.47334 0.26369 0.25437 0.0
C1051 C 0.49905 0.29405 0.26581 0.0
C1052 C 0.48826 0.32059 0.31102 0.0
H1053 H 0.56838 0.3942 0.3657 0.0
H1054 H 0.55185 0.36933 0.33538 0.0
H1055 H 0.48961 0.34341 0.33165 0.0
H1056 H 0.44907 0.25357 0.27838 0.0
H1057 H 0.46256 0.28086 0.30602 0.0
H1058 H 0.52296 0.31012 0.30784 0.0
C1059 C 0.54397 0.37116 0.35022 0.0
C1060 C 0.49697 0.33617 0.32681 0.0
C1061 C 0.55345 0.38553 0.36748 0.0
C1062 C 0.46301 0.26482 0.27458 0.0
C1063 C 0.47067 0.28044 0.29031 0.0
C1064 C 0.51558 0.31734 0.31281 0.0
C1065 C 0.52469 0.35908 0.35242 0.0
C1066 C 0.51512 0.3425 0.33572 0.0
C1067 C 0.48887 0.29509 0.28625 0.0
C1068 C 0.49759 0.31118 0.30366 0.0
H1069 H 0.51672 0.37901 0.40356 0.0
H1070 H 0.50015 0.35347 0.37379 0.0
H1071 H 0.53793 0.33677 0.33579 0.0
H1072 H 0.49964 0.27819 0.23449 0.0
H1073 H 0.51303 0.30524 0.26207 0.0
C1074 C 0.71727 0.20418 0.24495 0.0
C1075 C 0.7343 0.2067 0.25374 0.0
C1076 C 0.70165 0.1964 0.26054 0.0
C1077 C 0.67494 0.19231 0.30167 0.0
H1078 H 0.66581 0.1549 0.35207 0.0
C1079 C 0.62485 0.17806 0.3839 0.0
C1080 C 0.61379 0.15975 0.39267 0.0
C1081 C 0.63868 0.18234 0.36597 0.0
C1082 C 0.66801 0.16517 0.33789 0.0
H1083 H 0.74833 0.2028 0.28559 0.0
H1084 H 0.72122 0.18977 0.31319 0.0
H1085 H 0.69119 0.16417 0.32207 0.0
H1086 H 0.60856 0.13152 0.38913 0.0
H1087 H 0.63252 0.13897 0.35729 0.0
H1088 H 0.65157 0.19304 0.31698 0.0
C1089 C 0.71975 0.19337 0.29404 0.0
C1090 C 0.68273 0.17068 0.32089 0.0
C1091 C 0.73534 0.20094 0.27828 0.0
C1092 C 0.61684 0.14578 0.38284 0.0
C1093 C 0.63065 0.15007 0.3647 0.0
C1094 C 0.66017 0.18671 0.31847 0.0
C1095 C 0.70275 0.19122 0.28546 0.0
C1096 C 0.68651 0.18449 0.30274 0.0
C1097 C 0.64176 0.16843 0.35607 0.0
C1098 C 0.65668 0.17329 0.33707 0.0
H1099 H 0.71603 0.20833 0.22601 0.0
H1100 H 0.68872 0.19459 0.25307 0.0
H1101 H 0.67752 0.20315 0.28822 0.0
H1102 H 0.62306 0.18924 0.39117 0.0
H1103 H 0.64719 0.1967 0.36022 0.0
C1104 C 0.85128 0.46675 0.38422 0.0
C1105 C 0.83737 0.44941 0.39332 0.0
C1106 C 0.84705 0.47642 0.36622 0.0
C1107 C 0.81089 0.46974 0.31934 0.0
H1108 H 0.83232 0.52305 0.32565 0.0
C1109 C 0.79394 0.51067 0.24725 0.0
C1110 C 0.79117 0.52493 0.25641 0.0
C1111 C 0.80142 0.50249 0.26277 0.0
C1112 C 0.8261 0.50814 0.32372 0.0
H1113 H 0.80809 0.42868 0.39043 0.0
H1114 H 0.80074 0.44559 0.35975 0.0
H1115 H 0.84162 0.50654 0.35489 0.0
H1116 H 0.79423 0.54203 0.2889 0.0
H1117 H 0.8067 0.52733 0.3164 0.0
H1118 H 0.79469 0.47108 0.28909 0.0
C1119 C 0.81501 0.45161 0.366 0.0
C1120 C 0.83165 0.4987 0.34028 0.0
C1121 C 0.81923 0.44192 0.38379 0.0
C1122 C 0.79629 0.53109 0.28132 0.0
C1123 C 0.80355 0.52273 0.29701 0.0
C1124 C 0.80524 0.47912 0.30298 0.0
C1125 C 0.82882 0.469 0.357 0.0
C1126 C 0.82395 0.47934 0.33845 0.0
C1127 C 0.80604 0.50818 0.288 0.0
C1128 C 0.81267 0.49843 0.30501 0.0
H1129 H 0.86541 0.47292 0.3911 0.0
H1130 H 0.85808 0.48969 0.35948 0.0
H1131 H 0.80487 0.45488 0.31708 0.0
H1132 H 0.7903 0.50576 0.22802 0.0
H1133 H 0.80352 0.49165 0.25495 0.0
C1134 C 0.59539 0.12978 0.88625 0.0
C1135 C 0.59365 0.14038 0.90558 0.0
C1136 C 0.61119 0.1375 0.87084 0.0
C1137 C 0.64792 0.18235 0.84742 0.0
H1138 H 0.67536 0.15695 0.83329 0.0
C1139 C 0.71759 0.22018 0.79603 0.0
C1140 C 0.7211 0.21038 0.77731 0.0
C1141 C 0.70282 0.21086 0.81278 0.0
C1142 C 0.66774 0.16414 0.83681 0.0
H1143 H 0.60714 0.16727 0.92407 0.0
H1144 H 0.63446 0.18073 0.89704 0.0
H1145 H 0.64742 0.14184 0.85954 0.0
H1146 H 0.71234 0.18299 0.76217 0.0
H1147 H 0.68619 0.1667 0.79106 0.0
H1148 H 0.66776 0.20445 0.82444 0.0
C1149 C 0.62364 0.1665 0.89375 0.0
C1150 C 0.65176 0.15548 0.85185 0.0
C1151 C 0.60801 0.15876 0.90928 0.0
C1152 C 0.71002 0.19092 0.77646 0.0
C1153 C 0.69504 0.18159 0.79306 0.0
C1154 C 0.66372 0.19091 0.83225 0.0
C1155 C 0.62538 0.156 0.87431 0.0
C1156 C 0.64183 0.16462 0.85751 0.0
C1157 C 0.69098 0.19152 0.81102 0.0
C1158 C 0.67399 0.18204 0.82698 0.0
H1159 H 0.58455 0.11556 0.88302 0.0
H1160 H 0.61214 0.12913 0.85589 0.0
H1161 H 0.64034 0.18957 0.85109 0.0
H1162 H 0.72604 0.23516 0.79741 0.0
H1163 H 0.70047 0.21891 0.82685 0.0
C1164 C 0.84121 0.45052 0.91095 0.0
C1165 C 0.85961 0.4544 0.90819 0.0
C1166 C 0.83421 0.45919 0.89554 0.0
C1167 C 0.84265 0.48444 0.83495 0.0
H1168 H 0.80634 0.4961 0.86205 0.0
C1169 C 0.81046 0.52006 0.77601 0.0
C1170 C 0.79092 0.51031 0.77603 0.0
C1171 C 0.8203 0.51555 0.79331 0.0
C1172 C 0.81648 0.49293 0.85426 0.0
H1173 H 0.88519 0.47056 0.8873 0.0
H1174 H 0.87312 0.48613 0.86074 0.0
H1175 H 0.82112 0.48401 0.88993 0.0
H1176 H 0.76642 0.48878 0.7949 0.0
H1177 H 0.7836 0.48119 0.82534 0.0
H1178 H 0.83797 0.49352 0.79926 0.0
C1179 C 0.86395 0.47608 0.87448 0.0
C1180 C 0.82488 0.48589 0.87016 0.0
C1181 C 0.87091 0.46723 0.88977 0.0
C1182 C 0.78146 0.49649 0.79433 0.0
C1183 C 0.79129 0.49221 0.81184 0.0
C1184 C 0.8344 0.49171 0.8191 0.0
C1185 C 0.84548 0.47215 0.87715 0.0
C1186 C 0.83778 0.48117 0.86062 0.0
C1187 C 0.81078 0.50146 0.81123 0.0
C1188 C 0.82097 0.49567 0.82852 0.0
H1189 H 0.83212 0.44061 0.92489 0.0
H1190 H 0.81981 0.45547 0.89781 0.0
H1191 H 0.85234 0.48078 0.82683 0.0
H1192 H 0.81814 0.53074 0.76209 0.0
H1193 H 0.83533 0.52295 0.79255 0.0
C1194 C 0.54676 0.38809 0.91695 0.0
C1195 C 0.54388 0.4031 0.91233 0.0
C1196 C 0.53855 0.37239 0.90155 0.0
C1197 C 0.50056 0.34586 0.85701 0.0
H1198 H 0.53318 0.32871 0.83189 0.0
C1199 C 0.47933 0.29029 0.77813 0.0
C1200 C 0.48711 0.27868 0.77888 0.0
C1201 C 0.48461 0.30456 0.79585 0.0
C1202 C 0.52374 0.33304 0.83906 0.0
H1203 H 0.52969 0.41322 0.88841 0.0
H1204 H 0.51514 0.38556 0.86149 0.0
H1205 H 0.54544 0.35535 0.85993 0.0
H1206 H 0.50537 0.27196 0.79982 0.0
H1207 H 0.51398 0.29624 0.8312 0.0
H1208 H 0.47877 0.32337 0.83634 0.0
C1209 C 0.52381 0.38604 0.87706 0.0
C1210 C 0.53083 0.3484 0.85505 0.0
C1211 C 0.53221 0.40188 0.89236 0.0
C1212 C 0.49937 0.28088 0.79853 0.0
C1213 C 0.50441 0.29491 0.81641 0.0
C1214 C 0.49337 0.33031 0.84116 0.0
C1215 C 0.52712 0.37125 0.88132 0.0
C1216 C 0.51934 0.35496 0.86424 0.0
C1217 C 0.49759 0.30733 0.81484 0.0
C1218 C 0.50488 0.32367 0.83204 0.0
H1219 H 0.55559 0.38855 0.93228 0.0
H1220 H 0.54117 0.3611 0.90544 0.0
H1221 H 0.49137 0.35058 0.86397 0.0
H1222 H 0.46989 0.28896 0.76314 0.0
H1223 H 0.47914 0.31389 0.79394 0.0
C1224 C 0.47233 0.61927 0.61473 0.0
C1225 C 0.45549 0.61624 0.60425 0.0
C1226 C 0.48178 0.63338 0.63257 0.0
C1227 C 0.47432 0.66372 0.67689 0.0
H1228 H 0.52798 0.69426 0.67505 0.0
C1229 C 0.53507 0.73881 0.71783 0.0
C1230 C 0.52784 0.7379 0.74205 0.0
C1231 C 0.5272 0.72319 0.7021 0.0
C1232 C 0.51297 0.68594 0.67572 0.0
H1233 H 0.43559 0.62594 0.60413 0.0
H1234 H 0.45213 0.65053 0.63449 0.0
H1235 H 0.51223 0.66864 0.64526 0.0
H1236 H 0.50726 0.71979 0.76924 0.0
H1237 H 0.49392 0.69247 0.74226 0.0
H1238 H 0.47486 0.6814 0.7064 0.0
C1239 C 0.45787 0.64178 0.62955 0.0
C1240 C 0.50396 0.67107 0.65885 0.0
C1241 C 0.4484 0.62767 0.61195 0.0
C1242 C 0.513 0.72096 0.75055 0.0
C1243 C 0.50528 0.70532 0.73499 0.0
C1244 C 0.48329 0.6786 0.69355 0.0
C1245 C 0.47463 0.64479 0.64021 0.0
C1246 C 0.48449 0.65991 0.65905 0.0
C1247 C 0.51204 0.70629 0.71038 0.0
C1248 C 0.50272 0.69 0.69313 0.0
H1249 H 0.47819 0.61073 0.60924 0.0
H1250 H 0.49458 0.63521 0.64056 0.0
H1251 H 0.45934 0.65524 0.67791 0.0
H1252 H 0.54648 0.75172 0.71075 0.0
H1253 H 0.53264 0.72455 0.68318 0.0
C1254 C 0.38396 0.83229 0.62872 0.0
C1255 C 0.3882 0.84565 0.60978 0.0
C1256 C 0.37021 0.82868 0.64654 0.0
C1257 C 0.32699 0.82901 0.65318 0.0
H1258 H 0.33178 0.82052 0.72397 0.0
C1259 C 0.26493 0.80303 0.72209 0.0
C1260 C 0.26304 0.78956 0.7397 0.0
C1261 C 0.28112 0.81254 0.70766 0.0
C1262 C 0.33015 0.82268 0.70421 0.0
H1263 H 0.38172 0.86615 0.59519 0.0
H1264 H 0.3574 0.85958 0.62622 0.0
H1265 H 0.35895 0.83278 0.69655 0.0
H1266 H 0.27657 0.77547 0.756 0.0
H1267 H 0.30444 0.79154 0.7304 0.0
H1268 H 0.29807 0.81816 0.66043 0.0
C1269 C 0.36482 0.85197 0.62721 0.0
C1270 C 0.34575 0.82981 0.68858 0.0
C1271 C 0.3788 0.85578 0.60957 0.0
C1272 C 0.27764 0.78583 0.74265 0.0
C1273 C 0.29372 0.79519 0.7281 0.0
C1274 C 0.31133 0.8217 0.66875 0.0
C1275 C 0.36022 0.83819 0.64564 0.0
C1276 C 0.34425 0.83274 0.66282 0.0
C1277 C 0.2957 0.80867 0.71041 0.0
C1278 C 0.31264 0.8181 0.69437 0.0
H1279 H 0.39102 0.82432 0.62948 0.0
H1280 H 0.36686 0.81789 0.66042 0.0
H1281 H 0.32539 0.83095 0.63333 0.0
H1282 H 0.25394 0.80628 0.71953 0.0
H1283 H 0.28224 0.82298 0.69444 0.0
C1284 C 0.16913 0.55572 0.62602 0.0
C1285 C 0.15555 0.54533 0.60787 0.0
C1286 C 0.17442 0.54689 0.64386 0.0
C1287 C 0.1616 0.50061 0.67142 0.0
H1288 H 0.21415 0.52573 0.6875 0.0
C1289 C 0.19842 0.46575 0.72225 0.0
C1290 C 0.21045 0.47605 0.74201 0.0
C1291 C 0.19059 0.4737 0.7068 0.0
C1292 C 0.19942 0.51862 0.68334 0.0
H1293 H 0.13647 0.51747 0.59463 0.0
H1294 H 0.14612 0.50205 0.6252 0.0
H1295 H 0.20238 0.54045 0.65917 0.0
H1296 H 0.22357 0.50263 0.76126 0.0
H1297 H 0.21021 0.51657 0.73402 0.0
H1298 H 0.15896 0.47847 0.69513 0.0
C1299 C 0.15242 0.51701 0.62609 0.0
C1300 C 0.19261 0.52709 0.66721 0.0
C1301 C 0.14691 0.52586 0.60847 0.0
C1302 C 0.2144 0.49436 0.74614 0.0
C1303 C 0.2068 0.50237 0.73052 0.0
C1304 C 0.1685 0.49202 0.68734 0.0
C1305 C 0.16652 0.52745 0.64372 0.0
C1306 C 0.17359 0.51828 0.66113 0.0
C1307 C 0.19489 0.49216 0.71063 0.0
C1308 C 0.18746 0.501 0.69356 0.0
H1309 H 0.17587 0.57075 0.62626 0.0
H1310 H 0.18491 0.55539 0.65757 0.0
H1311 H 0.14686 0.49348 0.66745 0.0
H1312 H 0.19509 0.45159 0.71866 0.0
H1313 H 0.18154 0.46556 0.6915 0.0
C1314 C 0.40039 0.86761 0.10848 0.0
C1315 C 0.40159 0.85763 0.08788 0.0
C1316 C 0.38484 0.85959 0.12432 0.0
C1317 C 0.34828 0.81454 0.14672 0.0
H1318 H 0.32198 0.84032 0.16539 0.0
C1319 C 0.28064 0.77725 0.20348 0.0
C1320 C 0.27766 0.78732 0.22236 0.0
C1321 C 0.29498 0.78632 0.18602 0.0
C1322 C 0.32929 0.83301 0.16065 0.0
H1323 H 0.38742 0.8315 0.0676 0.0
H1324 H 0.36048 0.8174 0.09552 0.0
H1325 H 0.34897 0.85546 0.13753 0.0
H1326 H 0.28709 0.81487 0.23737 0.0
H1327 H 0.31255 0.8307 0.20741 0.0
H1328 H 0.32919 0.79236 0.17026 0.0
C1329 C 0.37154 0.83143 0.09936 0.0
C1330 C 0.34471 0.84168 0.14463 0.0
C1331 C 0.38693 0.83953 0.08335 0.0
C1332 C 0.28898 0.80675 0.22294 0.0
C1333 C 0.30356 0.81582 0.20568 0.0
C1334 C 0.33307 0.80599 0.16296 0.0
C1335 C 0.37036 0.84135 0.12004 0.0
C1336 C 0.35425 0.83245 0.13738 0.0
C1337 C 0.30695 0.80567 0.18726 0.0
C1338 C 0.32324 0.81502 0.17 0.0
H1339 H 0.41147 0.88161 0.1124 0.0
H1340 H 0.38433 0.86749 0.14023 0.0
H1341 H 0.35557 0.80724 0.14175 0.0
H1342 H 0.27198 0.76228 0.20233 0.0
H1343 H 0.29678 0.77808 0.17169 0.0
C1344 C 0.1317 0.53502 0.10916 0.0
C1345 C 0.14173 0.54639 0.08872 0.0
C1346 C 0.13979 0.5276 0.12505 0.0
C1347 C 0.18476 0.53666 0.14827 0.0
H1348 H 0.16001 0.48422 0.16493 0.0
C1349 C 0.2229 0.50696 0.20439 0.0
C1350 C 0.21285 0.49329 0.22259 0.0
C1351 C 0.21374 0.5122 0.18705 0.0
C1352 C 0.16703 0.49894 0.16078 0.0
H1353 H 0.16805 0.55885 0.06883 0.0
H1354 H 0.18228 0.54623 0.09689 0.0
H1355 H 0.14465 0.49598 0.13733 0.0
H1356 H 0.18526 0.47402 0.23651 0.0
H1357 H 0.16923 0.4836 0.2068 0.0
H1358 H 0.20684 0.53994 0.17216 0.0
C1359 C 0.16814 0.543 0.10053 0.0
C1360 C 0.15823 0.50564 0.1449 0.0
C1361 C 0.15997 0.55017 0.08444 0.0
C1362 C 0.19337 0.48454 0.22259 0.0
C1363 C 0.18419 0.49001 0.20548 0.0
C1364 C 0.19343 0.53005 0.16439 0.0
C1365 C 0.15816 0.53168 0.12101 0.0
C1366 C 0.16711 0.52453 0.13834 0.0
C1367 C 0.19429 0.50416 0.18775 0.0
C1368 C 0.18479 0.51107 0.1707 0.0
H1369 H 0.1176 0.53185 0.11287 0.0
H1370 H 0.13184 0.51899 0.14081 0.0
H1371 H 0.19178 0.55134 0.14381 0.0
H1372 H 0.23793 0.51378 0.20371 0.0
H1373 H 0.22198 0.52273 0.17323 0.0
C1374 C 0.51739 0.70951 0.22107 0.0
C1375 C 0.50869 0.72029 0.22045 0.0
C1376 C 0.51232 0.69497 0.20387 0.0
C1377 C 0.47314 0.66439 0.16171 0.0
H1378 H 0.50769 0.65008 0.13534 0.0
C1379 C 0.45357 0.61155 0.08145 0.0
C1380 C 0.4572 0.59696 0.08556 0.0
C1381 C 0.4609 0.62685 0.09758 0.0
C1382 C 0.49791 0.65389 0.14272 0.0
H1383 H 0.48878 0.72511 0.20036 0.0
H1384 H 0.48051 0.70038 0.16984 0.0
H1385 H 0.51899 0.67697 0.16337 0.0
H1386 H 0.47181 0.58722 0.10931 0.0
H1387 H 0.48491 0.61427 0.1374 0.0
H1388 H 0.45217 0.64157 0.14065 0.0
C1389 C 0.49069 0.70257 0.18417 0.0
C1390 C 0.50433 0.66925 0.15882 0.0
C1391 C 0.49553 0.71686 0.20156 0.0
C1392 C 0.46875 0.59824 0.10574 0.0
C1393 C 0.4763 0.61372 0.12172 0.0
C1394 C 0.4668 0.64925 0.14543 0.0
C1395 C 0.49863 0.6911 0.18549 0.0
C1396 C 0.49203 0.67476 0.16841 0.0
C1397 C 0.4722 0.62803 0.11798 0.0
C1398 C 0.47911 0.6439 0.13568 0.0
H1399 H 0.52753 0.71177 0.2355 0.0
H1400 H 0.51865 0.68637 0.20561 0.0
H1401 H 0.46313 0.66783 0.16925 0.0
H1402 H 0.44481 0.61103 0.066 0.0
H1403 H 0.4577 0.63779 0.09412 0.0
C1404 C 0.15444 0.61122 0.57914 0.0
C1405 C 0.13652 0.59624 0.58357 0.0
C1406 C 0.16134 0.62747 0.59338 0.0
C1407 C 0.1541 0.64503 0.654 0.0
H1408 H 0.18896 0.6928 0.62483 0.0
C1409 C 0.188 0.71242 0.71289 0.0
C1410 C 0.20752 0.72187 0.71197 0.0
C1411 C 0.17752 0.69859 0.69522 0.0
C1412 C 0.17919 0.67955 0.63317 0.0
H1413 H 0.11154 0.58665 0.60592 0.0
H1414 H 0.12335 0.61523 0.63036 0.0
H1415 H 0.17361 0.66543 0.59779 0.0
H1416 H 0.23131 0.72509 0.69088 0.0
H1417 H 0.21301 0.70118 0.65986 0.0
H1418 H 0.15978 0.65924 0.6894 0.0
C1419 C 0.1323 0.6143 0.61631 0.0
C1420 C 0.17047 0.66384 0.61776 0.0
C1421 C 0.12548 0.59794 0.60223 0.0
C1422 C 0.2163 0.71797 0.69219 0.0
C1423 C 0.20583 0.70436 0.67433 0.0
C1424 C 0.16264 0.66079 0.66934 0.0
C1425 C 0.15038 0.62923 0.6122 0.0
C1426 C 0.15815 0.64628 0.62807 0.0
C1427 C 0.18637 0.6942 0.67606 0.0
C1428 C 0.17558 0.67811 0.65918 0.0
H1429 H 0.16331 0.6103 0.56494 0.0
H1430 H 0.17545 0.63848 0.58998 0.0
H1431 H 0.14491 0.63175 0.66272 0.0
H1432 H 0.18082 0.71509 0.72791 0.0
H1433 H 0.16252 0.69103 0.69685 0.0
C1434 C 0.2898 0.4835 0.72182 0.0
C1435 C 0.27874 0.49189 0.72134 0.0
C1436 C 0.30431 0.4888 0.70451 0.0
C1437 C 0.33422 0.52825 0.66218 0.0
H1438 H 0.35008 0.49464 0.63683 0.0
C1439 C 0.3887 0.549 0.5835 0.0
C1440 C 0.40334 0.54557 0.58824 0.0
C1441 C 0.37314 0.54152 0.5992 0.0
C1442 C 0.34583 0.50417 0.64391 0.0
H1443 H 0.27334 0.51145 0.70134 0.0
H1444 H 0.29799 0.52008 0.67054 0.0
H1445 H 0.32287 0.48274 0.6643 0.0
H1446 H 0.413 0.53128 0.61276 0.0
H1447 H 0.38554 0.51794 0.64007 0.0
H1448 H 0.35696 0.54956 0.64138 0.0
C1449 C 0.29607 0.51 0.68487 0.0
C1450 C 0.33028 0.49739 0.6597 0.0
C1451 C 0.28182 0.50493 0.70241 0.0
C1452 C 0.40194 0.53419 0.6087 0.0
C1453 C 0.38621 0.52649 0.62423 0.0
C1454 C 0.34956 0.53493 0.64618 0.0
C1455 C 0.30787 0.50241 0.68611 0.0
C1456 C 0.32425 0.50935 0.66901 0.0
C1457 C 0.37177 0.53027 0.61977 0.0
C1458 C 0.35551 0.52298 0.63687 0.0
H1459 H 0.2878 0.47347 0.7363 0.0
H1460 H 0.31315 0.48275 0.70621 0.0
H1461 H 0.33038 0.53802 0.66948 0.0
H1462 H 0.38933 0.55766 0.56785 0.0
H1463 H 0.36211 0.54451 0.59521 0.0
C1464 C 0.51877 0.80868 0.72055 0.0
C1465 C 0.51033 0.78921 0.72007 0.0
C1466 C 0.51349 0.81791 0.70325 0.0
C1467 C 0.47382 0.80849 0.66178 0.0
H1468 H 0.50744 0.85749 0.6349 0.0
C1469 C 0.45209 0.84091 0.58288 0.0
C1470 C 0.45586 0.85919 0.58674 0.0
C1471 C 0.4598 0.83313 0.59869 0.0
C1472 C 0.4979 0.84385 0.64244 0.0
H1473 H 0.49074 0.76428 0.70004 0.0
H1474 H 0.48207 0.78035 0.66938 0.0
H1475 H 0.51948 0.84232 0.66246 0.0
H1476 H 0.47105 0.88385 0.60977 0.0
H1477 H 0.48476 0.87023 0.63738 0.0
H1478 H 0.45233 0.8099 0.64147 0.0
C1479 C 0.49221 0.7885 0.68367 0.0
C1480 C 0.50477 0.83516 0.65824 0.0
C1481 C 0.49729 0.77928 0.70114 0.0
C1482 C 0.46786 0.8697 0.6064 0.0
C1483 C 0.47577 0.86196 0.6221 0.0
C1484 C 0.46704 0.81707 0.64583 0.0
C1485 C 0.49983 0.80788 0.68494 0.0
C1486 C 0.4928 0.81731 0.66801 0.0
C1487 C 0.4716 0.84352 0.61856 0.0
C1488 C 0.479 0.83478 0.63591 0.0
H1489 H 0.52882 0.81672 0.735 0.0
H1490 H 0.51957 0.83282 0.70492 0.0
H1491 H 0.46407 0.79499 0.66947 0.0
H1492 H 0.44298 0.83247 0.56782 0.0
H1493 H 0.45653 0.81895 0.59536 0.0
C1494 C 0.26665 0.46632 0.2215 0.0
C1495 C 0.2651 0.47647 0.24161 0.0
C1496 C 0.28247 0.47421 0.20619 0.0
C1497 C 0.31949 0.5192 0.18421 0.0
H1498 H 0.34552 0.493 0.16634 0.0
C1499 C 0.38704 0.55587 0.12751 0.0
C1500 C 0.38962 0.54571 0.10838 0.0
C1501 C 0.37295 0.54691 0.14533 0.0
C1502 C 0.3383 0.50043 0.1709 0.0
H1503 H 0.27894 0.50273 0.26164 0.0
H1504 H 0.3064 0.51657 0.23468 0.0
H1505 H 0.31831 0.47809 0.19388 0.0
H1506 H 0.3799 0.51809 0.09341 0.0
H1507 H 0.35486 0.50244 0.12404 0.0
H1508 H 0.33889 0.54128 0.16081 0.0
C1509 C 0.29539 0.50253 0.23078 0.0
C1510 C 0.32275 0.4919 0.18672 0.0
C1511 C 0.2797 0.49458 0.24624 0.0
C1512 C 0.37829 0.52628 0.10803 0.0
C1513 C 0.36396 0.51732 0.12565 0.0
C1514 C 0.33485 0.52763 0.16821 0.0
C1515 C 0.29691 0.49246 0.21054 0.0
C1516 C 0.31328 0.50127 0.19362 0.0
C1517 C 0.36085 0.52758 0.14419 0.0
C1518 C 0.34456 0.51844 0.16146 0.0
H1519 H 0.25561 0.45231 0.21753 0.0
H1520 H 0.28324 0.4662 0.1906 0.0
H1521 H 0.31225 0.52662 0.18888 0.0
H1522 H 0.39574 0.57084 0.12849 0.0
H1523 H 0.37136 0.55522 0.15976 0.0
C1524 C 0.53269 0.79554 0.2157 0.0
C1525 C 0.52536 0.78913 0.23986 0.0
C1526 C 0.5247 0.80307 0.19981 0.0
C1527 C 0.51039 0.826 0.17344 0.0
H1528 H 0.4567 0.80249 0.17451 0.0
C1529 C 0.46998 0.85234 0.11271 0.0
C1530 C 0.45329 0.83861 0.10179 0.0
C1531 C 0.47933 0.8475 0.13046 0.0
C1532 C 0.4717 0.80916 0.1738 0.0
H1533 H 0.50441 0.78617 0.26672 0.0
H1534 H 0.49084 0.79976 0.23943 0.0
H1535 H 0.47211 0.79178 0.20309 0.0
H1536 H 0.43358 0.80897 0.10071 0.0
H1537 H 0.44997 0.8006 0.13092 0.0
H1538 H 0.50981 0.84282 0.14324 0.0
C1539 C 0.5024 0.79854 0.23236 0.0
C1540 C 0.48059 0.80318 0.19051 0.0
C1541 C 0.51024 0.79084 0.24809 0.0
C1542 C 0.44627 0.81998 0.1089 0.0
C1543 C 0.45565 0.81516 0.1264 0.0
C1544 C 0.50146 0.8319 0.15654 0.0
C1545 C 0.50933 0.8045 0.20786 0.0
C1546 C 0.50005 0.81144 0.1905 0.0
C1547 C 0.47224 0.82883 0.13754 0.0
C1548 C 0.48197 0.82341 0.15635 0.0
H1549 H 0.54431 0.79434 0.20882 0.0
H1550 H 0.53027 0.80729 0.18098 0.0
H1551 H 0.52541 0.83285 0.17311 0.0
H1552 H 0.47577 0.86683 0.10768 0.0
H1553 H 0.49199 0.85841 0.13883 0.0
C1554 C 0.20626 0.71998 0.24946 0.0
C1555 C 0.20848 0.73706 0.24142 0.0
C1556 C 0.1986 0.70464 0.23337 0.0
C1557 C 0.1946 0.67882 0.19101 0.0
H1558 H 0.1559 0.66936 0.14258 0.0
C1559 C 0.17889 0.62873 0.10842 0.0
C1560 C 0.16032 0.61712 0.10104 0.0
C1561 C 0.18353 0.64283 0.12603 0.0
C1562 C 0.16656 0.67168 0.15618 0.0
H1563 H 0.20413 0.75144 0.2104 0.0
H1564 H 0.19123 0.72479 0.18196 0.0
H1565 H 0.16549 0.69453 0.17307 0.0
H1566 H 0.13205 0.61136 0.10644 0.0
H1567 H 0.14017 0.63586 0.13771 0.0
H1568 H 0.19543 0.65578 0.17465 0.0
C1569 C 0.19503 0.7231 0.20089 0.0
C1570 C 0.17223 0.68626 0.17346 0.0
C1571 C 0.20254 0.73842 0.21712 0.0
C1572 C 0.14649 0.62004 0.11169 0.0
C1573 C 0.15116 0.63415 0.12951 0.0
C1574 C 0.18886 0.66421 0.17391 0.0
C1575 C 0.19318 0.70607 0.20872 0.0
C1576 C 0.18644 0.69011 0.19096 0.0
C1577 C 0.16975 0.64567 0.13696 0.0
C1578 C 0.17495 0.66059 0.15605 0.0
H1579 H 0.21056 0.71848 0.26818 0.0
H1580 H 0.19702 0.69166 0.24025 0.0
H1581 H 0.20574 0.68147 0.20393 0.0
H1582 H 0.18996 0.62707 0.10044 0.0
H1583 H 0.19804 0.65168 0.13084 0.0
C1584 C 0.1118 0.17148 0.30043 0.0
C1585 C 0.1225 0.18223 0.32084 0.0
C1586 C 0.11992 0.16656 0.28112 0.0
C1587 C 0.16536 0.17441 0.25554 0.0
H1588 H 0.13376 0.12441 0.23052 0.0
C1589 C 0.18731 0.14224 0.17452 0.0
C1590 C 0.17976 0.12288 0.17443 0.0
C1591 C 0.1819 0.15069 0.19289 0.0
C1592 C 0.14295 0.1383 0.23754 0.0
H1593 H 0.15021 0.1969 0.33668 0.0
H1594 H 0.16432 0.18762 0.30361 0.0
H1595 H 0.12146 0.13732 0.26044 0.0
H1596 H 0.16183 0.09735 0.19447 0.0
H1597 H 0.1532 0.11207 0.22722 0.0
H1598 H 0.18717 0.17486 0.23349 0.0
C1599 C 0.14975 0.18338 0.302 0.0
C1600 C 0.13572 0.14592 0.25438 0.0
C1601 C 0.14167 0.18868 0.32104 0.0
C1602 C 0.16767 0.11228 0.1939 0.0
C1603 C 0.16258 0.12074 0.21253 0.0
C1604 C 0.17272 0.16664 0.23891 0.0
C1605 C 0.13886 0.17181 0.28213 0.0
C1606 C 0.14675 0.16411 0.26358 0.0
C1607 C 0.16908 0.13996 0.21179 0.0
C1608 C 0.1616 0.14843 0.22975 0.0
H1609 H 0.09703 0.16653 0.29966 0.0
H1610 H 0.11118 0.15821 0.26573 0.0
H1611 H 0.17427 0.18852 0.26199 0.0
H1612 H 0.19658 0.15072 0.15961 0.0
H1613 H 0.18713 0.16548 0.19155 0.0
C1614 C 0.83726 0.94727 0.30724 0.0
C1615 C 0.821 0.94121 0.32157 0.0
C1616 C 0.84153 0.95991 0.2876 0.0
C1617 C 0.83353 0.99706 0.26523 0.0
H1618 H 0.85749 0.99259 0.20504 0.0
C1619 C 0.86141 0.05072 0.1818 0.0
C1620 C 0.87937 0.05548 0.17357 0.0
C1621 C 0.852 0.03639 0.1994 0.0
C1622 C 0.85083 0.99404 0.22175 0.0
H1623 H 0.79627 0.9435 0.32601 0.0
H1624 H 0.80379 0.96568 0.29142 0.0
H1625 H 0.84437 0.96731 0.23553 0.0
H1626 H 0.90174 0.04937 0.17844 0.0
H1627 H 0.8854 0.02464 0.20878 0.0
H1628 H 0.84036 0.02405 0.25138 0.0
C1629 C 0.81325 0.96064 0.29565 0.0
C1630 C 0.84333 0.97957 0.23923 0.0
C1631 C 0.80889 0.94784 0.31533 0.0
C1632 C 0.88789 0.04605 0.18404 0.0
C1633 C 0.87848 0.03175 0.20138 0.0
C1634 C 0.84101 0.01158 0.2476 0.0
C1635 C 0.82969 0.96688 0.28167 0.0
C1636 C 0.8351 0.98113 0.26154 0.0
C1637 C 0.86032 0.02649 0.20887 0.0
C1638 C 0.85023 0.01041 0.22608 0.0
H1639 H 0.84693 0.94249 0.31143 0.0
H1640 H 0.85445 0.96463 0.27749 0.0
H1641 H 0.82735 0.99872 0.28229 0.0
H1642 H 0.85444 0.0577 0.17418 0.0
H1643 H 0.83801 0.03264 0.20495 0.0
C1644 C 0.93502 0.82512 0.1992 0.0
C1645 C 0.93598 0.81559 0.17795 0.0
C1646 C 0.94765 0.8296 0.21897 0.0
C1647 C 0.98659 0.82332 0.24342 0.0
H1648 H 0.00297 0.87241 0.27051 0.0
C1649 C 0.04279 0.85713 0.32197 0.0
C1650 C 0.05398 0.87658 0.32181 0.0
C1651 C 0.02827 0.84817 0.30457 0.0
C1652 C 0.99881 0.85879 0.26293 0.0
H1653 H 0.95026 0.80247 0.16115 0.0
H1654 H 0.97291 0.81104 0.19504 0.0
H1655 H 0.97733 0.85892 0.24128 0.0
H1656 H 0.05968 0.90177 0.30225 0.0
H1657 H 0.03514 0.88621 0.27122 0.0
H1658 H 0.00895 0.82382 0.26417 0.0
C1659 C 0.96212 0.81463 0.19695 0.0
C1660 C 0.98372 0.8508 0.24649 0.0
C1661 C 0.94916 0.80974 0.17743 0.0
C1662 C 0.05112 0.88678 0.30303 0.0
C1663 C 0.03689 0.87784 0.2854 0.0
C1664 C 0.00194 0.83147 0.25967 0.0
C1665 C 0.96192 0.82517 0.21762 0.0
C1666 C 0.97738 0.83298 0.23639 0.0
C1667 C 0.02485 0.85848 0.28643 0.0
C1668 C 0.00836 0.84941 0.26945 0.0
H1669 H 0.92483 0.82959 0.20019 0.0
H1670 H 0.94657 0.83712 0.23494 0.0
H1671 H 0.98202 0.80949 0.23631 0.0
H1672 H 0.04461 0.84892 0.33635 0.0
H1673 H 0.01927 0.83328 0.30608 0.0
C1674 C 0.88877 0.83874 0.68885 0.0
C1675 C 0.87866 0.82235 0.67477 0.0
C1676 C 0.88042 0.84299 0.70852 0.0
C1677 C 0.83529 0.83461 0.73141 0.0
H1678 H 0.86419 0.85936 0.79097 0.0
C1679 C 0.81017 0.86307 0.81501 0.0
C1680 C 0.82337 0.88119 0.82267 0.0
C1681 C 0.81492 0.85354 0.79739 0.0
C1682 C 0.85594 0.85247 0.77444 0.0
H1683 H 0.85179 0.79733 0.67078 0.0
H1684 H 0.83714 0.80482 0.70545 0.0
H1685 H 0.87623 0.84608 0.76059 0.0
H1686 H 0.85163 0.90374 0.81672 0.0
H1687 H 0.85974 0.88719 0.78637 0.0
H1688 H 0.81511 0.84137 0.74535 0.0
C1689 C 0.85157 0.8144 0.701 0.0
C1690 C 0.86283 0.84487 0.75703 0.0
C1691 C 0.86 0.81006 0.68128 0.0
C1692 C 0.84112 0.88976 0.81157 0.0
C1693 C 0.84585 0.88024 0.79423 0.0
C1694 C 0.82831 0.84217 0.749 0.0
C1695 C 0.86169 0.83098 0.71474 0.0
C1696 C 0.85289 0.83637 0.73492 0.0
C1697 C 0.83297 0.86191 0.78735 0.0
C1698 C 0.83888 0.85169 0.77027 0.0
H1699 H 0.90315 0.84855 0.68445 0.0
H1700 H 0.88856 0.85602 0.71842 0.0
H1701 H 0.82733 0.82821 0.71451 0.0
H1702 H 0.79636 0.85605 0.82312 0.0
H1703 H 0.80471 0.83942 0.79231 0.0
C1704 C 0.15831 0.04265 0.68118 0.0
C1705 C 0.17632 0.05242 0.67091 0.0
C1706 C 0.15369 0.02861 0.69887 0.0
C1707 C 0.1718 0.01003 0.74641 0.0
H1708 H 0.1246 0.96498 0.73555 0.0
C1709 C 0.14135 0.94755 0.81644 0.0
C1710 C 0.12255 0.94068 0.82261 0.0
C1711 C 0.14959 0.96006 0.79638 0.0
C1712 C 0.1378 0.97747 0.73892 0.0
H1713 H 0.2038 0.05544 0.67216 0.0
H1714 H 0.19564 0.03085 0.70355 0.0
H1715 H 0.13625 0.98962 0.70413 0.0
H1716 H 0.09761 0.94125 0.81197 0.0
H1717 H 0.11187 0.96286 0.77739 0.0
H1718 H 0.17299 0.99801 0.78169 0.0
C1719 C 0.18515 0.03413 0.69758 0.0
C1720 C 0.14447 0.99158 0.72091 0.0
C1721 C 0.1898 0.04819 0.67961 0.0
C1722 C 0.11211 0.94622 0.80785 0.0
C1723 C 0.12028 0.95856 0.78784 0.0
C1724 C 0.16506 0.99587 0.76458 0.0
C1725 C 0.16692 0.02395 0.70695 0.0
C1726 C 0.16127 0.00823 0.72477 0.0
C1727 C 0.13913 0.96576 0.78194 0.0
C1728 C 0.14771 0.97966 0.76132 0.0
H1729 H 0.14755 0.04553 0.67519 0.0
H1730 H 0.13963 0.02129 0.70616 0.0
H1731 H 0.18479 0.02272 0.74987 0.0
H1732 H 0.14982 0.94362 0.82745 0.0
H1733 H 0.16412 0.96528 0.7922 0.0
C1734 C 0.94818 0.11113 0.68907 0.0
C1735 C 0.94202 0.12109 0.67439 0.0
C1736 C 0.96061 0.1197 0.70887 0.0
C1737 C 0.99716 0.16508 0.73142 0.0
H1738 H 0.99229 0.13684 0.79199 0.0
C1739 C 0.05005 0.19097 0.81592 0.0
C1740 C 0.05486 0.1778 0.82412 0.0
C1741 C 0.03587 0.18609 0.79809 0.0
C1742 C 0.99384 0.14491 0.77518 0.0
H1743 H 0.94396 0.14792 0.66944 0.0
H1744 H 0.96579 0.16295 0.70431 0.0
H1745 H 0.9673 0.12448 0.76107 0.0
H1746 H 0.04901 0.14942 0.81895 0.0
H1747 H 0.02453 0.14109 0.78825 0.0
H1748 H 0.02397 0.18538 0.74561 0.0
C1749 C 0.96097 0.14848 0.70024 0.0
C1750 C 0.97954 0.13783 0.75746 0.0
C1751 C 0.94837 0.13982 0.6804 0.0
C1752 C 0.04565 0.15993 0.81338 0.0
C1753 C 0.03149 0.15507 0.79584 0.0
C1754 C 0.0115 0.17224 0.74931 0.0
C1755 C 0.96728 0.1385 0.71461 0.0
C1756 C 0.98126 0.14752 0.73499 0.0
C1757 C 0.02617 0.16793 0.78837 0.0
C1758 C 0.0102 0.16191 0.77097 0.0
H1759 H 0.94362 0.0967 0.68507 0.0
H1760 H 0.96539 0.11168 0.71927 0.0
H1761 H 0.99892 0.17285 0.71425 0.0
H1762 H 0.05687 0.20487 0.82374 0.0
H1763 H 0.03207 0.19629 0.79255 0.0
C1764 C 0.80736 0.52495 0.65026 0.0
C1765 C 0.78843 0.51315 0.65582 0.0
C1766 C 0.81581 0.52066 0.63051 0.0
C1767 C 0.80474 0.49129 0.57324 0.0
H1768 H 0.8507 0.49161 0.5873 0.0
C1769 C 0.82391 0.44351 0.52127 0.0
C1770 C 0.84166 0.4513 0.51031 0.0
C1771 C 0.81969 0.4537 0.53813 0.0
C1772 C 0.83802 0.49172 0.58299 0.0
H1773 H 0.76343 0.48801 0.64431 0.0
H1774 H 0.77804 0.4806 0.61029 0.0
H1775 H 0.83891 0.50553 0.61756 0.0
H1776 H 0.86921 0.47572 0.50968 0.0
H1777 H 0.86177 0.49348 0.53978 0.0
H1778 H 0.8034 0.47679 0.53928 0.0
C1779 C 0.78641 0.49321 0.62096 0.0
C1780 C 0.83129 0.49972 0.60024 0.0
C1781 C 0.77804 0.4974 0.64067 0.0
C1782 C 0.85538 0.4693 0.51769 0.0
C1783 C 0.85116 0.47948 0.53488 0.0
C1784 C 0.81138 0.48321 0.55619 0.0
C1785 C 0.80543 0.50463 0.6158 0.0
C1786 C 0.81426 0.49905 0.59588 0.0
C1787 C 0.83311 0.47191 0.54471 0.0
C1788 C 0.82776 0.48284 0.56125 0.0
H1789 H 0.81578 0.53717 0.6616 0.0
H1790 H 0.83047 0.52979 0.62687 0.0
H1791 H 0.79182 0.49093 0.56903 0.0
H1792 H 0.81298 0.42967 0.51629 0.0
H1793 H 0.80576 0.44739 0.54583 0.0
C1794 C 0.47632 0.28483 0.65075 0.0
C1795 C 0.48852 0.27856 0.65813 0.0
C1796 C 0.48112 0.29775 0.6311 0.0
C1797 C 0.51279 0.31704 0.5763 0.0
H1798 H 0.50755 0.36053 0.58506 0.0
C1799 C 0.55578 0.3824 0.51816 0.0
C1800 C 0.54666 0.39085 0.50657 0.0
C1801 C 0.54681 0.36864 0.53635 0.0
C1802 C 0.50887 0.34833 0.58224 0.0
H1803 H 0.51522 0.28082 0.65025 0.0
H1804 H 0.52348 0.30315 0.61642 0.0
H1805 H 0.49464 0.3357 0.61674 0.0
H1806 H 0.52114 0.392 0.50611 0.0
H1807 H 0.50547 0.36788 0.5383 0.0
H1808 H 0.5274 0.32976 0.54227 0.0
C1809 C 0.51014 0.29802 0.62555 0.0
C1810 C 0.50145 0.33411 0.60031 0.0
C1811 C 0.50542 0.28526 0.64514 0.0
C1812 C 0.52857 0.38576 0.51459 0.0
C1813 C 0.51959 0.37197 0.53301 0.0
C1814 C 0.52023 0.33121 0.5584 0.0
C1815 C 0.49812 0.30449 0.61831 0.0
C1816 C 0.50377 0.31852 0.59783 0.0
C1817 C 0.52849 0.36296 0.54358 0.0
C1818 C 0.51878 0.34723 0.56147 0.0
H1819 H 0.46321 0.28002 0.66039 0.0
H1820 H 0.47152 0.3024 0.62585 0.0
H1821 H 0.51443 0.30502 0.57351 0.0
H1822 H 0.56976 0.38604 0.51277 0.0
H1823 H 0.55419 0.36225 0.54458 0.0
C1824 C 0.61462 0.14291 0.51662 0.0
C1825 C 0.60753 0.15477 0.51109 0.0
C1826 C 0.62861 0.14798 0.5348 0.0
C1827 C 0.66688 0.19007 0.56195 0.0
H1828 H 0.66695 0.15948 0.61709 0.0
C1829 C 0.71458 0.22186 0.64689 0.0
C1830 C 0.72268 0.21238 0.65841 0.0
C1831 C 0.70146 0.21351 0.62778 0.0
C1832 C 0.66728 0.16807 0.60151 0.0
H1833 H 0.60874 0.18061 0.52172 0.0
H1834 H 0.63296 0.18931 0.55303 0.0
H1835 H 0.64135 0.14653 0.58653 0.0
H1836 H 0.72342 0.18665 0.65842 0.0
H1837 H 0.70053 0.17209 0.62462 0.0
H1838 H 0.6926 0.21161 0.57665 0.0
C1839 C 0.62797 0.17629 0.54305 0.0
C1840 C 0.65261 0.16067 0.58411 0.0
C1841 C 0.61401 0.17123 0.52512 0.0
C1842 C 0.7175 0.19437 0.64996 0.0
C1843 C 0.70429 0.18597 0.63072 0.0
C1844 C 0.68152 0.19739 0.57912 0.0
C1845 C 0.63579 0.16502 0.54757 0.0
C1846 C 0.65205 0.17181 0.5646 0.0
C1847 C 0.69609 0.19545 0.61947 0.0
C1848 C 0.68167 0.18668 0.59954 0.0
H1849 H 0.60992 0.13011 0.50623 0.0
H1850 H 0.63439 0.13902 0.53804 0.0
H1851 H 0.667 0.19883 0.54674 0.0
H1852 H 0.7181 0.2357 0.65289 0.0
H1853 H 0.6952 0.2211 0.6199 0.0
C1854 C 0.55337 0.17172 0.01824 0.0
C1855 C 0.54317 0.15506 0.00472 0.0
C1856 C 0.54535 0.17599 0.03831 0.0
C1857 C 0.50064 0.16693 0.06378 0.0
H1858 H 0.53083 0.19208 0.12226 0.0
C1859 C 0.47632 0.19425 0.14935 0.0
C1860 C 0.48945 0.2123 0.15735 0.0
C1861 C 0.48107 0.18509 0.13115 0.0
C1862 C 0.52223 0.18511 0.10602 0.0
H1863 H 0.5165 0.12966 0.00206 0.0
H1864 H 0.50243 0.13721 0.03741 0.0
H1865 H 0.54251 0.17923 0.0907 0.0
H1866 H 0.51758 0.23511 0.15148 0.0
H1867 H 0.52568 0.21922 0.12004 0.0
H1868 H 0.48048 0.17318 0.07915 0.0
C1869 C 0.51667 0.14695 0.03223 0.0
C1870 C 0.52892 0.17774 0.08795 0.0
C1871 C 0.52477 0.14259 0.01211 0.0
C1872 C 0.50713 0.22117 0.14606 0.0
C1873 C 0.51185 0.21202 0.1281 0.0
C1874 C 0.4939 0.17428 0.08201 0.0
C1875 C 0.52689 0.16375 0.04548 0.0
C1876 C 0.51846 0.16905 0.06625 0.0
C1877 C 0.49905 0.19376 0.12081 0.0
C1878 C 0.50489 0.18393 0.10292 0.0
H1879 H 0.56756 0.18168 0.01315 0.0
H1880 H 0.55353 0.18917 0.04783 0.0
H1881 H 0.49229 0.16037 0.04721 0.0
H1882 H 0.46256 0.18701 0.15759 0.0
H1883 H 0.47091 0.17102 0.1258 0.0
C1884 C 0.82577 0.38118 0.01984 0.0
C1885 C 0.84278 0.38808 0.00705 0.0
C1886 C 0.82119 0.36861 0.03964 0.0
C1887 C 0.83058 0.33312 0.06519 0.0
H1888 H 0.80348 0.33637 0.12263 0.0
C1889 C 0.80313 0.28042 0.1495 0.0
C1890 C 0.78485 0.27487 0.15714 0.0
C1891 C 0.81218 0.29459 0.13158 0.0
C1892 C 0.81098 0.33523 0.10666 0.0
H1893 H 0.86847 0.38731 0.00546 0.0
H1894 H 0.8604 0.36524 0.04033 0.0
H1895 H 0.81643 0.36136 0.09171 0.0
H1896 H 0.76154 0.27935 0.1509 0.0
H1897 H 0.77723 0.30378 0.11993 0.0
H1898 H 0.82481 0.30675 0.0802 0.0
C1899 C 0.85061 0.36958 0.03477 0.0
C1900 C 0.81841 0.34955 0.08896 0.0
C1901 C 0.85527 0.38231 0.01493 0.0
C1902 C 0.77566 0.28332 0.14576 0.0
C1903 C 0.78469 0.29745 0.12807 0.0
C1904 C 0.82317 0.31876 0.08304 0.0
C1905 C 0.83346 0.36253 0.04726 0.0
C1906 C 0.82785 0.34845 0.06765 0.0
C1907 C 0.80316 0.30352 0.12116 0.0
C1908 C 0.81285 0.31946 0.10358 0.0
H1909 H 0.81578 0.38528 0.01436 0.0
H1910 H 0.80775 0.36325 0.04856 0.0
H1911 H 0.83771 0.33182 0.04891 0.0
H1912 H 0.81063 0.27421 0.15783 0.0
H1913 H 0.82641 0.29897 0.12654 0.0
C1914 C 0.61802 0.47283 0.01563 0.0
C1915 C 0.612 0.45438 0.00839 0.0
C1916 C 0.63134 0.48135 0.03473 0.0
C1917 C 0.65276 0.47002 0.08814 0.0
H1918 H 0.69512 0.51931 0.07782 0.0
C1919 C 0.71994 0.49396 0.14214 0.0
C1920 C 0.72752 0.51105 0.15493 0.0
C1921 C 0.70602 0.4891 0.1242 0.0
C1922 C 0.68325 0.50563 0.08104 0.0
H1923 H 0.61512 0.43038 0.01599 0.0
H1924 H 0.63815 0.44514 0.04876 0.0
H1925 H 0.66934 0.5067 0.04753 0.0
H1926 H 0.72716 0.53694 0.15753 0.0
H1927 H 0.70278 0.52837 0.12573 0.0
H1928 H 0.66683 0.46863 0.12108 0.0
C1929 C 0.63251 0.45303 0.04 0.0
C1930 C 0.66848 0.49843 0.0638 0.0
C1931 C 0.61933 0.44458 0.02101 0.0
C1932 C 0.72159 0.52364 0.14813 0.0
C1933 C 0.70765 0.51877 0.12994 0.0
C1934 C 0.6675 0.47712 0.10516 0.0
C1935 C 0.63876 0.47152 0.04707 0.0
C1936 C 0.6533 0.48033 0.06684 0.0
C1937 C 0.69935 0.5012 0.11842 0.0
C1938 C 0.6831 0.49478 0.10146 0.0
H1939 H 0.61272 0.48081 0.00626 0.0
H1940 H 0.6358 0.49558 0.03986 0.0
H1941 H 0.64108 0.45623 0.0914 0.0
H1942 H 0.72428 0.48398 0.14656 0.0
H1943 H 0.70014 0.47563 0.11519 0.0
C1944 C 0.44176 0.83034 0.96936 0.0
C1945 C 0.4518 0.84636 0.98423 0.0
C1946 C 0.45075 0.82542 0.95139 0.0
C1947 C 0.49165 0.8406 0.9118 0.0
H1948 H 0.47995 0.78946 0.91961 0.0
C1949 C 0.52308 0.8062 0.84748 0.0
C1950 C 0.51022 0.78818 0.83907 0.0
C1951 C 0.51817 0.81478 0.86637 0.0
C1952 C 0.4833 0.80373 0.91702 0.0
H1953 H 0.47903 0.87048 0.99043 0.0
H1954 H 0.49475 0.86183 0.95855 0.0
H1955 H 0.46684 0.80241 0.94876 0.0
H1956 H 0.48216 0.76508 0.84427 0.0
H1957 H 0.47369 0.77997 0.87654 0.0
H1958 H 0.50764 0.84166 0.87941 0.0
C1959 C 0.4799 0.8531 0.96117 0.0
C1960 C 0.47581 0.81115 0.93376 0.0
C1961 C 0.47088 0.85803 0.97939 0.0
C1962 C 0.49251 0.7789 0.85025 0.0
C1963 C 0.48765 0.78744 0.86897 0.0
C1964 C 0.49906 0.83309 0.89478 0.0
C1965 C 0.46998 0.8364 0.94767 0.0
C1966 C 0.47953 0.82949 0.931 0.0
C1967 C 0.50035 0.80548 0.87727 0.0
C1968 C 0.49457 0.8144 0.89687 0.0
H1969 H 0.42701 0.82114 0.97222 0.0
H1970 H 0.44271 0.81267 0.94085 0.0
H1971 H 0.49476 0.85481 0.90933 0.0
H1972 H 0.53682 0.81378 0.83925 0.0
H1973 H 0.52832 0.82865 0.87246 0.0
C1974 C 0.19326 0.71437 0.84177 0.0
C1975 C 0.21006 0.71758 0.83084 0.0
C1976 C 0.18473 0.70104 0.86085 0.0
C1977 C 0.19568 0.67525 0.90826 0.0
H1978 H 0.14281 0.63973 0.90804 0.0
C1979 C 0.16679 0.60925 0.96626 0.0
C1980 C 0.15194 0.60531 0.98259 0.0
C1981 C 0.17173 0.62241 0.94718 0.0
C1982 C 0.15756 0.64969 0.90842 0.0
H1983 H 0.23085 0.70901 0.83138 0.0
H1984 H 0.21602 0.68594 0.86409 0.0
H1985 H 0.15595 0.6647 0.87646 0.0
H1986 H 0.12978 0.61121 0.99042 0.0
H1987 H 0.13851 0.63435 0.95673 0.0
H1988 H 0.19747 0.66017 0.9397 0.0
C1989 C 0.20956 0.69389 0.85834 0.0
C1990 C 0.16507 0.66399 0.89044 0.0
C1991 C 0.21804 0.70713 0.83941 0.0
C1992 C 0.14133 0.61396 0.97821 0.0
C1993 C 0.1463 0.6272 0.95896 0.0
C1994 C 0.18824 0.66099 0.926 0.0
C1995 C 0.19288 0.69073 0.86943 0.0
C1996 C 0.18431 0.67668 0.88985 0.0
C1997 C 0.16197 0.632 0.94387 0.0
C1998 C 0.16919 0.64781 0.92595 0.0
H1999 H 0.18668 0.72211 0.83557 0.0
H2000 H 0.17192 0.69896 0.86911 0.0
H2001 H 0.21046 0.68506 0.90878 0.0
H2002 H 0.17509 0.60265 0.96876 0.0
H2003 H 0.1836 0.62551 0.93543 0.0
C2004 C 0.38418 0.52694 0.98142 0.0
C2005 C 0.38924 0.54503 0.98939 0.0
C2006 C 0.36984 0.5176 0.96381 0.0
C2007 C 0.3278 0.51692 0.94156 0.0
H2008 H 0.33203 0.49356 0.8806 0.0
C2009 C 0.28118 0.50465 0.85641 0.0
C2010 C 0.27494 0.48854 0.84171 0.0
C2011 C 0.29376 0.50854 0.87602 0.0
C2012 C 0.3305 0.4997 0.89778 0.0
H2013 H 0.38366 0.56773 0.984 0.0
H2014 H 0.35889 0.5515 0.9537 0.0
H2015 H 0.35742 0.50617 0.91144 0.0
H2016 H 0.27684 0.46364 0.83657 0.0
H2017 H 0.29892 0.47048 0.87113 0.0
H2018 H 0.30114 0.51082 0.928 0.0
C2019 C 0.36579 0.54443 0.9613 0.0
C2020 C 0.34504 0.50694 0.91537 0.0
C2021 C 0.38011 0.55376 0.97861 0.0
C2022 C 0.28132 0.47616 0.84755 0.0
C2023 C 0.29406 0.48013 0.86721 0.0
C2024 C 0.31329 0.50963 0.92415 0.0
C2025 C 0.36022 0.52614 0.9541 0.0
C2026 C 0.34404 0.51614 0.93702 0.0
C2027 C 0.30049 0.49644 0.88156 0.0
C2028 C 0.3147 0.50147 0.90166 0.0
H2029 H 0.39093 0.5198 0.98927 0.0
H2030 H 0.36584 0.50351 0.95846 0.0
H2031 H 0.32649 0.52358 0.95837 0.0
H2032 H 0.2766 0.51453 0.85254 0.0
H2033 H 0.29863 0.52138 0.8864 0.0
C2034 C 0.14581 0.5251 0.48813 0.0
C2035 C 0.15256 0.54433 0.48793 0.0
C2036 C 0.1518 0.517 0.46999 0.0
C2037 C 0.19098 0.53064 0.42523 0.0
H2038 H 0.16125 0.47996 0.40155 0.0
C2039 C 0.22405 0.49911 0.36263 0.0
C2040 C 0.21344 0.48778 0.34256 0.0
C2041 C 0.21568 0.50384 0.38181 0.0
C2042 C 0.16972 0.4942 0.40777 0.0
H2043 H 0.16971 0.56995 0.46762 0.0
H2044 H 0.17931 0.5558 0.43525 0.0
H2045 H 0.14752 0.49288 0.42986 0.0
H2046 H 0.18565 0.47196 0.32718 0.0
H2047 H 0.17109 0.4809 0.35999 0.0
H2048 H 0.21281 0.53246 0.40224 0.0
C2049 C 0.17013 0.547 0.45001 0.0
C2050 C 0.16189 0.50155 0.42431 0.0
C2051 C 0.16447 0.55512 0.46841 0.0
C2052 C 0.19415 0.48064 0.34255 0.0
C2053 C 0.1858 0.48574 0.36145 0.0
C2054 C 0.19867 0.52343 0.40846 0.0
C2055 C 0.16441 0.52795 0.45102 0.0
C2056 C 0.17242 0.51991 0.4332 0.0
C2057 C 0.19655 0.4978 0.38102 0.0
C2058 C 0.18821 0.50509 0.39951 0.0
H2059 H 0.1367 0.51647 0.5031 0.0
H2060 H 0.14716 0.50234 0.47156 0.0
H2061 H 0.19974 0.54467 0.43204 0.0
H2062 H 0.23893 0.50461 0.36325 0.0
H2063 H 0.22435 0.51262 0.39696 0.0
C2064 C 0.47326 0.61583 0.48131 0.0
C2065 C 0.45428 0.60874 0.48662 0.0
C2066 C 0.48232 0.62994 0.4633 0.0
C2067 C 0.4791 0.66867 0.4372 0.0
H2068 H 0.50843 0.66851 0.38049 0.0
C2069 C 0.49333 0.71623 0.35259 0.0
C2070 C 0.51048 0.72401 0.33996 0.0
C2071 C 0.48909 0.70335 0.37189 0.0
C2072 C 0.50058 0.66893 0.39652 0.0
H2073 H 0.42975 0.61005 0.47573 0.0
H2074 H 0.44554 0.63451 0.44479 0.0
H2075 H 0.49603 0.64276 0.41083 0.0
H2076 H 0.53681 0.72448 0.33825 0.0
H2077 H 0.52939 0.70198 0.37237 0.0
H2078 H 0.48342 0.69461 0.42319 0.0
C2079 C 0.45345 0.6294 0.45478 0.0
C2080 C 0.49345 0.65416 0.41379 0.0
C2081 C 0.44441 0.61531 0.4725 0.0
C2082 C 0.52347 0.71881 0.34758 0.0
C2083 C 0.51918 0.70582 0.367 0.0
C2084 C 0.48631 0.68342 0.42019 0.0
C2085 C 0.47258 0.63724 0.45052 0.0
C2086 C 0.48218 0.65367 0.43383 0.0
C2087 C 0.50188 0.69787 0.37927 0.0
C2088 C 0.49664 0.68347 0.39918 0.0
H2089 H 0.48128 0.61107 0.49178 0.0
H2090 H 0.49709 0.63573 0.46023 0.0
H2091 H 0.47076 0.66881 0.45282 0.0
H2092 H 0.48293 0.71981 0.34728 0.0
H2093 H 0.4755 0.69728 0.38057 0.0
C2094 C 0.38167 0.82623 0.4769 0.0
C2095 C 0.38888 0.8433 0.48962 0.0
C2096 C 0.36874 0.82162 0.45758 0.0
C2097 C 0.33309 0.83122 0.43311 0.0
H2098 H 0.33537 0.80363 0.37559 0.0
C2099 C 0.2802 0.80412 0.34883 0.0
C2100 C 0.2744 0.78576 0.34131 0.0
C2101 C 0.29425 0.813 0.36694 0.0
C2102 C 0.33451 0.81127 0.39158 0.0
H2103 H 0.38826 0.86906 0.49159 0.0
H2104 H 0.3656 0.86096 0.45747 0.0
H2105 H 0.36075 0.81662 0.40587 0.0
H2106 H 0.27817 0.76207 0.34814 0.0
H2107 H 0.30243 0.77748 0.37943 0.0
H2108 H 0.30662 0.8256 0.41865 0.0
C2109 C 0.36996 0.85113 0.46275 0.0
C2110 C 0.34905 0.81872 0.40893 0.0
C2111 C 0.38303 0.85582 0.48215 0.0
C2112 C 0.28236 0.77626 0.35315 0.0
C2113 C 0.29638 0.78513 0.37104 0.0
C2114 C 0.31851 0.8238 0.41557 0.0
C2115 C 0.36263 0.83393 0.45032 0.0
C2116 C 0.3483 0.82833 0.43028 0.0
C2117 C 0.3028 0.80371 0.37769 0.0
C2118 C 0.31888 0.81331 0.39502 0.0
H2119 H 0.38578 0.81619 0.48207 0.0
H2120 H 0.36317 0.80813 0.44872 0.0
H2121 H 0.33206 0.83849 0.44942 0.0
H2122 H 0.27436 0.81185 0.34016 0.0
H2123 H 0.29891 0.82732 0.3718 0.0
C2124 C 0.26256 0.12868 0.15498 0.0
C2125 C 0.25721 0.13821 0.13815 0.0
C2126 C 0.28116 0.13608 0.16179 0.0
C2127 C 0.32841 0.16842 0.13909 0.0
H2128 H 0.34271 0.16417 0.20729 0.0
C2129 C 0.40469 0.20541 0.17275 0.0
C2130 C 0.41007 0.19597 0.1897 0.0
C2131 C 0.38612 0.19781 0.16563 0.0
C2132 C 0.33892 0.16523 0.18807 0.0
H2133 H 0.26708 0.16327 0.11586 0.0
H2134 H 0.29964 0.17634 0.12798 0.0
H2135 H 0.31014 0.15299 0.19759 0.0
H2136 H 0.40029 0.17084 0.21181 0.0
H2137 H 0.3678 0.15745 0.19918 0.0
H2138 H 0.35721 0.18069 0.12959 0.0
C2139 C 0.28944 0.16299 0.13563 0.0
C2140 C 0.32026 0.15888 0.18254 0.0
C2141 C 0.27078 0.15559 0.12885 0.0
C2142 C 0.39657 0.17846 0.19874 0.0
C2143 C 0.37795 0.17087 0.19167 0.0
C2144 C 0.34708 0.17477 0.14463 0.0
C2145 C 0.29487 0.15319 0.15191 0.0
C2146 C 0.31478 0.16041 0.15798 0.0
C2147 C 0.37247 0.1806 0.17534 0.0
C2148 C 0.35256 0.17326 0.16919 0.0
H2149 H 0.25244 0.11524 0.16247 0.0
H2150 H 0.28487 0.12808 0.17417 0.0
H2151 H 0.32462 0.16949 0.11988 0.0
H2152 H 0.41475 0.21894 0.16544 0.0
H2153 H 0.38236 0.20575 0.1532 0.0
C2154 C 0.82093 0.21771 0.19974 0.0
C2155 C 0.80332 0.21313 0.19042 0.0
C2156 C 0.82902 0.20703 0.19316 0.0
C2157 C 0.8262 0.17215 0.14702 0.0
H2158 H 0.84874 0.15845 0.20068 0.0
C2159 C 0.84631 0.11566 0.13313 0.0
C2160 C 0.86385 0.11983 0.14222 0.0
C2161 C 0.83875 0.12681 0.13968 0.0
C2162 C 0.84264 0.16228 0.18543 0.0
H2163 H 0.78069 0.19417 0.1662 0.0
H2164 H 0.79472 0.17558 0.15484 0.0
H2165 H 0.83692 0.17944 0.20958 0.0
H2166 H 0.88691 0.13853 0.16604 0.0
H2167 H 0.87375 0.15794 0.17741 0.0
H2168 H 0.83186 0.15495 0.12289 0.0
C2169 C 0.80237 0.18746 0.16709 0.0
C2170 C 0.83593 0.17437 0.19051 0.0
C2171 C 0.79429 0.19808 0.1737 0.0
C2172 C 0.87335 0.13493 0.15873 0.0
C2173 C 0.86578 0.14604 0.16533 0.0
C2174 C 0.8329 0.16006 0.14195 0.0
C2175 C 0.81969 0.1916 0.17706 0.0
C2176 C 0.82757 0.1794 0.17138 0.0
C2177 C 0.84854 0.14231 0.15553 0.0
C2178 C 0.84115 0.15493 0.16111 0.0
H2179 H 0.82825 0.22923 0.21265 0.0
H2180 H 0.84251 0.21075 0.20086 0.0
H2181 H 0.82007 0.17595 0.13178 0.0
H2182 H 0.83864 0.1041 0.1204 0.0
H2183 H 0.82529 0.12338 0.13215 0.0
C2184 C 0.78355 0.60243 0.19765 0.0
C2185 C 0.78885 0.58937 0.19103 0.0
C2186 C 0.7941 0.62092 0.18965 0.0
C2187 C 0.84138 0.65515 0.16812 0.0
H2188 H 0.81806 0.68296 0.14554 0.0
C2189 C 0.88312 0.72889 0.12469 0.0
C2190 C 0.87776 0.7418 0.13185 0.0
C2191 C 0.87237 0.71019 0.13169 0.0
C2192 C 0.8248 0.67545 0.15205 0.0
H2193 H 0.80907 0.58534 0.17032 0.0
H2194 H 0.82726 0.61741 0.15622 0.0
H2195 H 0.79877 0.65051 0.1579 0.0
H2196 H 0.8571 0.74529 0.15231 0.0
H2197 H 0.83857 0.71288 0.16469 0.0
H2198 H 0.86741 0.68009 0.16236 0.0
C2199 C 0.81517 0.6135 0.1679 0.0
C2200 C 0.81373 0.65685 0.15913 0.0
C2201 C 0.80465 0.59507 0.17585 0.0
C2202 C 0.8616 0.7357 0.14639 0.0
C2203 C 0.85087 0.71706 0.15335 0.0
C2204 C 0.85245 0.67375 0.16105 0.0
C2205 C 0.81016 0.6267 0.17492 0.0
C2206 C 0.82189 0.64648 0.16727 0.0
C2207 C 0.85603 0.70404 0.14593 0.0
C2208 C 0.8443 0.68414 0.153 0.0
H2209 H 0.77148 0.59847 0.20938 0.0
H2210 H 0.78994 0.63078 0.19555 0.0
H2211 H 0.84812 0.64764 0.17468 0.0
H2212 H 0.89547 0.73316 0.11343 0.0
H2213 H 0.87665 0.70048 0.1255 0.0
C2214 C 0.18021 0.39758 0.2957 0.0
C2215 C 0.19767 0.41117 0.30473 0.0
C2216 C 0.17267 0.37899 0.303 0.0
C2217 C 0.18694 0.34637 0.32749 0.0
H2218 H 0.1345 0.315 0.34193 0.0
C2219 C 0.15587 0.27217 0.36903 0.0
C2220 C 0.13844 0.25861 0.35986 0.0
C2221 C 0.16339 0.2908 0.36193 0.0
C2222 C 0.14915 0.32352 0.33767 0.0
H2223 H 0.2206 0.41609 0.32922 0.0
H2224 H 0.20737 0.38385 0.34219 0.0
H2225 H 0.14657 0.34753 0.33092 0.0
H2226 H 0.11554 0.2538 0.33538 0.0
H2227 H 0.12875 0.28611 0.32275 0.0
H2228 H 0.18952 0.32236 0.33422 0.0
C2229 C 0.19965 0.38741 0.32908 0.0
C2230 C 0.15606 0.34217 0.33138 0.0
C2231 C 0.20717 0.40593 0.32177 0.0
C2232 C 0.12895 0.26394 0.34292 0.0
C2233 C 0.13646 0.28249 0.33581 0.0
C2234 C 0.18004 0.32772 0.33378 0.0
C2235 C 0.18246 0.37366 0.31948 0.0
C2236 C 0.17504 0.35382 0.32623 0.0
C2237 C 0.15362 0.2962 0.34552 0.0
C2238 C 0.16105 0.31606 0.33891 0.0
H2239 H 0.17259 0.40119 0.28248 0.0
H2240 H 0.15945 0.36872 0.29512 0.0
H2241 H 0.20159 0.35489 0.32321 0.0
H2242 H 0.16347 0.2685 0.38218 0.0
H2243 H 0.17659 0.30104 0.36989 0.0
C2244 C 0.60261 0.78181 0.29634 0.0
C2245 C 0.5892 0.78612 0.30483 0.0
C2246 C 0.62125 0.7929 0.30332 0.0
C2247 C 0.65439 0.84039 0.32525 0.0
H2248 H 0.68557 0.81937 0.34125 0.0
C2249 C 0.72897 0.884 0.36531 0.0
C2250 C 0.74235 0.8797 0.35666 0.0
C2251 C 0.71031 0.87293 0.35841 0.0
C2252 C 0.6771 0.82547 0.33653 0.0
H2253 H 0.58467 0.80497 0.32808 0.0
H2254 H 0.61704 0.82406 0.34053 0.0
H2255 H 0.65286 0.7988 0.33131 0.0
H2256 H 0.7468 0.8609 0.3332 0.0
H2257 H 0.7144 0.84183 0.32091 0.0
H2258 H 0.67864 0.86707 0.33049 0.0
C2259 C 0.61327 0.81238 0.32808 0.0
C2260 C 0.65835 0.81367 0.33086 0.0
C2261 C 0.59469 0.80134 0.32109 0.0
C2262 C 0.73681 0.86452 0.34032 0.0
C2263 C 0.71821 0.85349 0.33342 0.0
C2264 C 0.67315 0.85219 0.33093 0.0
C2265 C 0.62683 0.80849 0.31894 0.0
C2266 C 0.64676 0.82099 0.32516 0.0
C2267 C 0.70467 0.85736 0.34272 0.0
C2268 C 0.68473 0.84487 0.3366 0.0
H2269 H 0.59881 0.77021 0.28373 0.0
H2270 H 0.63137 0.78959 0.29582 0.0
H2271 H 0.64593 0.8465 0.32052 0.0
H2272 H 0.7328 0.89557 0.378 0.0
H2273 H 0.70021 0.87622 0.36603 0.0
C2274 C 0.21763 0.82212 0.29717 0.0
C2275 C 0.21349 0.80468 0.30662 0.0
C2276 C 0.20666 0.82988 0.30383 0.0
C2277 C 0.17189 0.8266 0.35043 0.0
H2278 H 0.15643 0.84743 0.29656 0.0
C2279 C 0.11424 0.84505 0.36504 0.0
C2280 C 0.11781 0.86225 0.35536 0.0
C2281 C 0.12562 0.83776 0.35846 0.0
C2282 C 0.16074 0.84181 0.31186 0.0
H2283 H 0.19507 0.78201 0.33121 0.0
H2284 H 0.17602 0.79548 0.34276 0.0
H2285 H 0.17806 0.83642 0.28755 0.0
H2286 H 0.13567 0.88498 0.33049 0.0
H2287 H 0.15549 0.87234 0.31912 0.0
H2288 H 0.15457 0.83197 0.37474 0.0
C2289 C 0.18774 0.80325 0.33031 0.0
C2290 C 0.1732 0.83557 0.30672 0.0
C2291 C 0.19863 0.79548 0.32358 0.0
C2292 C 0.13254 0.87168 0.33827 0.0
C2293 C 0.14388 0.86439 0.33166 0.0
C2294 C 0.15945 0.83285 0.35558 0.0
C2295 C 0.19141 0.82038 0.32019 0.0
C2296 C 0.17887 0.82783 0.32593 0.0
C2297 C 0.14076 0.8475 0.34201 0.0
C2298 C 0.15368 0.84049 0.33635 0.0
H2299 H 0.22899 0.82954 0.28405 0.0
H2300 H 0.20999 0.84323 0.29598 0.0
H2301 H 0.17617 0.82093 0.36571 0.0
H2302 H 0.10298 0.83745 0.37823 0.0
H2303 H 0.12267 0.82456 0.36643 0.0
C2304 C 0.73065 0.84807 0.86538 0.0
C2305 C 0.744 0.86556 0.85608 0.0
C2306 C 0.71192 0.84042 0.85882 0.0
C2307 C 0.68044 0.84412 0.81256 0.0
H2308 H 0.64388 0.82157 0.86584 0.0
C2309 C 0.60373 0.82356 0.79756 0.0
C2310 C 0.59043 0.80596 0.80659 0.0
C2311 C 0.62242 0.83133 0.80438 0.0
C2312 C 0.6539 0.82769 0.8507 0.0
H2313 H 0.74827 0.88846 0.83197 0.0
H2314 H 0.71571 0.87518 0.82063 0.0
H2315 H 0.67662 0.83319 0.87507 0.0
H2316 H 0.58618 0.78302 0.83058 0.0
H2317 H 0.61869 0.7965 0.84238 0.0
H2318 H 0.65773 0.83862 0.78819 0.0
C2319 C 0.71966 0.86729 0.83285 0.0
C2320 C 0.67266 0.83429 0.85597 0.0
C2321 C 0.73834 0.87494 0.83944 0.0
C2322 C 0.59609 0.79661 0.82329 0.0
C2323 C 0.61473 0.80438 0.83016 0.0
C2324 C 0.66169 0.83753 0.80729 0.0
C2325 C 0.70617 0.85007 0.84275 0.0
C2326 C 0.68616 0.84258 0.83696 0.0
C2327 C 0.62818 0.82169 0.82044 0.0
C2328 C 0.64819 0.82923 0.8263 0.0
H2329 H 0.73458 0.8405 0.87823 0.0
H2330 H 0.70191 0.827 0.86647 0.0
H2331 H 0.69045 0.85021 0.7974 0.0
H2332 H 0.5998 0.83112 0.78469 0.0
H2333 H 0.6324 0.84482 0.79688 0.0
C2334 C 0.20695 0.79917 0.82309 0.0
C2335 C 0.19672 0.78443 0.80629 0.0
C2336 C 0.2002 0.81081 0.83065 0.0
C2337 C 0.16871 0.82708 0.8091 0.0
H2338 H 0.17372 0.84576 0.87734 0.0
C2339 C 0.13155 0.86574 0.84326 0.0
C2340 C 0.14087 0.88067 0.86007 0.0
C2341 C 0.13936 0.85495 0.83623 0.0
C2342 C 0.17247 0.84089 0.85811 0.0
H2343 H 0.17103 0.76982 0.78513 0.0
H2344 H 0.15915 0.79 0.79856 0.0
H2345 H 0.18454 0.82409 0.86724 0.0
H2346 H 0.16594 0.89633 0.88218 0.0
H2347 H 0.17971 0.8775 0.86968 0.0
H2348 H 0.15664 0.84381 0.79993 0.0
C2349 C 0.17254 0.79276 0.80554 0.0
C2350 C 0.17861 0.82841 0.85235 0.0
C2351 C 0.17926 0.78109 0.79802 0.0
C2352 C 0.15843 0.88491 0.86918 0.0
C2353 C 0.16624 0.87404 0.86219 0.0
C2354 C 0.16261 0.83955 0.81484 0.0
C2355 C 0.1831 0.80797 0.82153 0.0
C2356 C 0.17665 0.82125 0.82782 0.0
C2357 C 0.15667 0.8588 0.84585 0.0
C2358 C 0.16427 0.84648 0.83945 0.0
H2359 H 0.22046 0.80212 0.82978 0.0
H2360 H 0.20872 0.82245 0.84287 0.0
H2361 H 0.16739 0.82216 0.78988 0.0
H2362 H 0.11799 0.86208 0.83591 0.0
H2363 H 0.13151 0.8432 0.82385 0.0
C2364 C 0.19753 0.40516 0.82123 0.0
C2365 C 0.21274 0.41078 0.80492 0.0
C2366 C 0.18651 0.38652 0.82805 0.0
C2367 C 0.17295 0.33938 0.80606 0.0
H2368 H 0.15346 0.325 0.87384 0.0
C2369 C 0.13393 0.263 0.83964 0.0
C2370 C 0.11883 0.25744 0.85614 0.0
C2371 C 0.14491 0.28162 0.8327 0.0
C2372 C 0.15858 0.3288 0.85473 0.0
H2373 H 0.22866 0.40131 0.78354 0.0
H2374 H 0.2095 0.36871 0.79565 0.0
H2375 H 0.17444 0.35767 0.86413 0.0
H2376 H 0.10303 0.26698 0.87766 0.0
H2377 H 0.1221 0.29953 0.8653 0.0
H2378 H 0.15708 0.3105 0.79666 0.0
C2379 C 0.20595 0.37872 0.80289 0.0
C2380 C 0.17066 0.34753 0.84919 0.0
C2381 C 0.21701 0.39742 0.79611 0.0
C2382 C 0.11459 0.27083 0.86495 0.0
C2383 C 0.12561 0.2895 0.85803 0.0
C2384 C 0.16086 0.32065 0.8116 0.0
C2385 C 0.19042 0.37303 0.81868 0.0
C2386 C 0.17798 0.35305 0.82479 0.0
C2387 C 0.14107 0.29515 0.84212 0.0
C2388 C 0.15353 0.31512 0.836 0.0
H2389 H 0.19383 0.41511 0.82833 0.0
H2390 H 0.17457 0.38261 0.84004 0.0
H2391 H 0.17807 0.34318 0.78696 0.0
H2392 H 0.1376 0.25303 0.83256 0.0
H2393 H 0.1568 0.2855 0.82061 0.0
C2394 C 0.84558 0.73049 0.63297 0.0
C2395 C 0.86344 0.74397 0.6409 0.0
C2396 C 0.83817 0.71189 0.64004 0.0
C2397 C 0.84346 0.6811 0.68568 0.0
H2398 H 0.81861 0.64377 0.63387 0.0
C2399 C 0.82243 0.60422 0.70123 0.0
C2400 C 0.80458 0.59093 0.693 0.0
C2401 C 0.83008 0.6229 0.69438 0.0
C2402 C 0.82537 0.654 0.64862 0.0
H2403 H 0.88731 0.74863 0.66312 0.0
H2404 H 0.87443 0.71623 0.67535 0.0
H2405 H 0.83028 0.6764 0.62399 0.0
H2406 H 0.78094 0.58672 0.67059 0.0
H2407 H 0.79421 0.6192 0.65878 0.0
H2408 H 0.83853 0.65868 0.71031 0.0
C2409 C 0.86607 0.72001 0.66381 0.0
C2410 C 0.83201 0.6727 0.64298 0.0
C2411 C 0.87349 0.73858 0.65671 0.0
C2412 C 0.79475 0.5966 0.67722 0.0
C2413 C 0.80239 0.61523 0.67035 0.0
C2414 C 0.83681 0.66239 0.69133 0.0
C2415 C 0.84845 0.70639 0.65524 0.0
C2416 C 0.84111 0.68648 0.66145 0.0
C2417 C 0.82004 0.62865 0.6791 0.0
C2418 C 0.82765 0.64861 0.67287 0.0
H2419 H 0.83747 0.73421 0.62082 0.0
H2420 H 0.82442 0.70179 0.63346 0.0
H2421 H 0.85022 0.69134 0.70042 0.0
H2422 H 0.83036 0.60028 0.71339 0.0
H2423 H 0.84382 0.63285 0.70114 0.0
C2424 C 0.26969 0.11436 0.6307 0.0
C2425 C 0.25584 0.1177 0.64015 0.0
C2426 C 0.28831 0.12598 0.63739 0.0
C2427 C 0.31891 0.16148 0.68393 0.0
H2428 H 0.35539 0.17751 0.63024 0.0
C2429 C 0.3948 0.21971 0.69904 0.0
C2430 C 0.40851 0.21613 0.68968 0.0
C2431 C 0.37617 0.20834 0.69218 0.0
C2432 C 0.34541 0.17306 0.64548 0.0
H2433 H 0.25056 0.13539 0.66476 0.0
H2434 H 0.28293 0.1556 0.67635 0.0
H2435 H 0.32291 0.15531 0.62115 0.0
H2436 H 0.41357 0.19832 0.66499 0.0
H2437 H 0.38119 0.17854 0.65311 0.0
H2438 H 0.34142 0.17921 0.70827 0.0
C2439 C 0.27947 0.14399 0.66389 0.0
C2440 C 0.32679 0.16028 0.6403 0.0
C2441 C 0.2609 0.13243 0.65716 0.0
C2442 C 0.40334 0.20145 0.67254 0.0
C2443 C 0.38476 0.19014 0.66564 0.0
C2444 C 0.33753 0.17426 0.68911 0.0
C2445 C 0.29345 0.14112 0.65374 0.0
C2446 C 0.31332 0.15432 0.65946 0.0
C2447 C 0.37091 0.19322 0.67574 0.0
C2448 C 0.351 0.18019 0.66996 0.0
H2449 H 0.26624 0.10312 0.61757 0.0
H2450 H 0.29872 0.12321 0.62956 0.0
H2451 H 0.30893 0.15701 0.69918 0.0
H2452 H 0.39836 0.23092 0.71227 0.0
H2453 H 0.36586 0.21125 0.69999 0.0
C2454 C 0.86439 0.12652 0.65472 0.0
C2455 C 0.87946 0.13628 0.63825 0.0
C2456 C 0.85308 0.1338 0.6615 0.0
C2457 C 0.83834 0.16635 0.63912 0.0
H2458 H 0.81927 0.16152 0.70711 0.0
C2459 C 0.79929 0.20347 0.67302 0.0
C2460 C 0.78441 0.19404 0.6899 0.0
C2461 C 0.81012 0.19575 0.66579 0.0
C2462 C 0.82426 0.16273 0.68794 0.0
H2463 H 0.89485 0.16163 0.61656 0.0
H2464 H 0.87517 0.17448 0.62863 0.0
H2465 H 0.84066 0.15034 0.69744 0.0
H2466 H 0.76879 0.1688 0.7117 0.0
H2467 H 0.78764 0.15518 0.69884 0.0
H2468 H 0.82196 0.17878 0.62964 0.0
C2469 C 0.87197 0.16104 0.63602 0.0
C2470 C 0.83657 0.15639 0.68243 0.0
C2471 C 0.88333 0.15376 0.62927 0.0
C2472 C 0.78018 0.17641 0.6987 0.0
C2473 C 0.79107 0.16869 0.6915 0.0
C2474 C 0.82602 0.17269 0.64464 0.0
C2475 C 0.85656 0.15102 0.65194 0.0
C2476 C 0.84379 0.15815 0.65796 0.0
C2477 C 0.80636 0.17842 0.67529 0.0
C2478 C 0.81885 0.17099 0.66913 0.0
H2479 H 0.86101 0.11299 0.66194 0.0
H2480 H 0.84124 0.12564 0.67361 0.0
H2481 H 0.84337 0.1676 0.61998 0.0
H2482 H 0.80293 0.21709 0.6659 0.0
H2483 H 0.82188 0.20369 0.65347 0.0
C2484 C 0.06789 0.53509 0.50584 0.0
C2485 C 0.07376 0.52618 0.52299 0.0
C2486 C 0.04918 0.52709 0.49922 0.0
C2487 C 0.00245 0.49426 0.52315 0.0
H2488 H 0.98704 0.4973 0.45514 0.0
C2489 C 0.92559 0.45634 0.49183 0.0
C2490 C 0.91985 0.46554 0.475 0.0
C2491 C 0.94431 0.46403 0.49824 0.0
C2492 C 0.99114 0.49656 0.4743 0.0
H2493 H 0.06471 0.50157 0.54598 0.0
H2494 H 0.03198 0.48745 0.53419 0.0
H2495 H 0.01984 0.5091 0.46411 0.0
H2496 H 0.92917 0.49032 0.45226 0.0
H2497 H 0.96191 0.50388 0.46365 0.0
H2498 H 0.97375 0.48173 0.53333 0.0
C2499 C 0.04184 0.50078 0.52615 0.0
C2500 C 0.00993 0.50326 0.47942 0.0
C2501 C 0.06061 0.50878 0.53274 0.0
C2502 C 0.93316 0.48288 0.46526 0.0
C2503 C 0.95193 0.49057 0.47162 0.0
C2504 C 0.98366 0.48754 0.51802 0.0
C2505 C 0.03588 0.50999 0.50961 0.0
C2506 C 0.01582 0.50222 0.50392 0.0
C2507 C 0.95775 0.4811 0.48792 0.0
C2508 C 0.97778 0.48863 0.49354 0.0
H2509 H 0.07767 0.54853 0.498 0.0
H2510 H 0.04507 0.53465 0.48663 0.0
H2511 H 0.00655 0.49355 0.54232 0.0
H2512 H 0.91568 0.44293 0.49964 0.0
H2513 H 0.94831 0.45628 0.51065 0.0
C2514 C 0.46147 0.53194 0.51093 0.0
C2515 C 0.47112 0.54762 0.52645 0.0
C2516 C 0.46918 0.52088 0.5048 0.0
C2517 C 0.51327 0.52029 0.50222 0.0
H2518 H 0.48067 0.46683 0.50392 0.0
C2519 C 0.54132 0.46979 0.49006 0.0
C2520 C 0.53116 0.45441 0.47418 0.0
C2521 C 0.5339 0.48082 0.49774 0.0
C2522 C 0.48992 0.48172 0.50313 0.0
H2523 H 0.49667 0.56429 0.54721 0.0
H2524 H 0.51017 0.54491 0.53653 0.0
H2525 H 0.46837 0.48721 0.51411 0.0
H2526 H 0.50503 0.43825 0.45446 0.0
H2527 H 0.49209 0.45757 0.46773 0.0
H2528 H 0.53481 0.5148 0.4911 0.0
C2529 C 0.49666 0.54124 0.52898 0.0
C2530 C 0.48288 0.49342 0.50895 0.0
C2531 C 0.48892 0.55232 0.53514 0.0
C2532 C 0.51318 0.44997 0.46675 0.0
C2533 C 0.50575 0.46102 0.47444 0.0
C2534 C 0.52033 0.50859 0.49638 0.0
C2535 C 0.48674 0.52522 0.51405 0.0
C2536 C 0.49443 0.51285 0.5084 0.0
C2537 C 0.51614 0.47674 0.48972 0.0
C2538 C 0.50872 0.48916 0.49665 0.0
H2539 H 0.44777 0.52796 0.5038 0.0
H2540 H 0.46132 0.50887 0.49285 0.0
H2541 H 0.5225 0.53518 0.50134 0.0
H2542 H 0.55519 0.47354 0.49622 0.0
H2543 H 0.54214 0.49261 0.50987 0.0
C2544 C 0.5513 0.06333 0.46301 0.0
C2545 C 0.54666 0.07635 0.47218 0.0
C2546 C 0.54021 0.04445 0.46885 0.0
C2547 C 0.49237 0.01039 0.48837 0.0
H2548 H 0.5133 0.97915 0.50449 0.0
C2549 C 0.4485 0.93616 0.52858 0.0
C2550 C 0.45276 0.9226 0.52063 0.0
C2551 C 0.45963 0.9547 0.52124 0.0
C2552 C 0.50723 0.98763 0.49968 0.0
H2553 H 0.5272 0.0799 0.49547 0.0
H2554 H 0.5081 0.04713 0.5059 0.0
H2555 H 0.53394 0.01202 0.4954 0.0
H2556 H 0.47162 0.91771 0.49797 0.0
H2557 H 0.49087 0.94998 0.48488 0.0
H2558 H 0.46568 0.98605 0.49272 0.0
C2559 C 0.52005 0.05139 0.49379 0.0
C2560 C 0.51907 0.00648 0.49451 0.0
C2561 C 0.5311 0.07021 0.48797 0.0
C2562 C 0.468 0.92784 0.50451 0.0
C2563 C 0.47913 0.94637 0.49716 0.0
C2564 C 0.48054 0.99156 0.49352 0.0
C2565 C 0.52427 0.03824 0.48395 0.0
C2566 C 0.51177 0.01811 0.48898 0.0
C2567 C 0.47526 0.96007 0.50577 0.0
C2568 C 0.48782 0.97997 0.49937 0.0
H2569 H 0.56317 0.06763 0.45073 0.0
H2570 H 0.5438 0.03466 0.46087 0.0
H2571 H 0.48629 0.01889 0.48369 0.0
H2572 H 0.43688 0.93257 0.54108 0.0
H2573 H 0.45635 0.96492 0.52839 0.0
C2574 C 0.51033 0.06295 0.9663 0.0
C2575 C 0.52838 0.07668 0.97315 0.0
C2576 C 0.50312 0.0446 0.97444 0.0
C2577 C 0.51819 0.01207 0.99635 0.0
H2578 H 0.46649 0.98157 0.01543 0.0
C2579 C 0.48692 0.93673 0.03465 0.0
C2580 C 0.46905 0.92375 0.02606 0.0
C2581 C 0.4947 0.95561 0.02877 0.0
C2582 C 0.48093 0.98986 0.00992 0.0
H2583 H 0.5528 0.08206 0.99459 0.0
H2584 H 0.54015 0.05014 0.00902 0.0
H2585 H 0.47867 0.01422 0.00513 0.0
H2586 H 0.4456 0.9203 0.00387 0.0
H2587 H 0.45921 0.95303 0.9934 0.0
H2588 H 0.52039 0.98764 0.00102 0.0
C2589 C 0.53167 0.05346 0.99702 0.0
C2590 C 0.4879 0.00858 0.00403 0.0
C2591 C 0.53886 0.07179 0.9889 0.0
C2592 C 0.45936 0.92995 0.01091 0.0
C2593 C 0.4671 0.94875 0.00507 0.0
C2594 C 0.51121 0.99333 0.00226 0.0
C2595 C 0.51381 0.03959 0.98961 0.0
C2596 C 0.50658 0.01988 0.99697 0.0
C2597 C 0.48473 0.96186 0.01423 0.0
C2598 C 0.49244 0.98196 0.00886 0.0
H2599 H 0.50192 0.06626 0.95413 0.0
H2600 H 0.48938 0.03424 0.96819 0.0
H2601 H 0.53259 0.02032 0.99066 0.0
H2602 H 0.49471 0.93238 0.04643 0.0
H2603 H 0.50828 0.96537 0.03622 0.0
C2604 C 0.93561 0.44748 0.97021 0.0
C2605 C 0.92191 0.45188 0.97687 0.0
C2606 C 0.95399 0.45874 0.97811 0.0
C2607 C 0.98656 0.50672 -0.00152 0.0
H2608 H 0.01739 0.48602 0.01812 0.0
C2609 C 0.06223 0.55164 0.03515 0.0
C2610 C 0.07516 0.54664 0.02672 0.0
C2611 C 0.04331 0.54041 0.02962 0.0
C2612 C 0.00901 0.49203 0.01244 0.0
H2613 H 0.9166 0.47117 0.99779 0.0
H2614 H 0.9486 0.49068 0.01181 0.0
H2615 H 0.98466 0.46528 0.00862 0.0
H2616 H 0.07848 0.52631 0.00516 0.0
H2617 H 0.04567 0.50695 0.9953 0.0
H2618 H 0.01099 0.53348 0.00216 0.0
C2619 C 0.94522 0.4787 0.00014 0.0
C2620 C 0.99025 0.48013 0.00702 0.0
C2621 C 0.92685 0.46743 0.99226 0.0
C2622 C 0.06888 0.53051 0.01207 0.0
C2623 C 0.05003 0.51931 0.00658 0.0
C2624 C 0.00536 0.51863 0.00391 0.0
C2625 C 0.95906 0.47466 0.99284 0.0
C2626 C 0.97882 0.48732 -0.00023 0.0
C2627 C 0.03698 0.52395 0.01561 0.0
C2628 C 0.01684 0.51141 0.0107 0.0
H2629 H 0.93226 0.43562 0.95831 0.0
H2630 H 0.96434 0.45532 0.97196 0.0
H2631 H 0.97822 0.51272 0.99262 0.0
H2632 H 0.06665 0.56397 0.04653 0.0
H2633 H 0.0336 0.54433 0.03695 0.0
C2634 C 0.53415 0.46192 0.99247 0.0
C2635 C 0.54917 0.47134 0.9758 0.0
C2636 C 0.52302 0.46947 -0.00099 0.0
C2637 C 0.50856 0.50185 0.97506 0.0
H2638 H 0.48877 0.49761 0.04248 0.0
C2639 C 0.46823 0.53848 0.00561 0.0
C2640 C 0.45314 0.52904 0.02217 0.0
C2641 C 0.47946 0.531 -0.00068 0.0
C2642 C 0.49397 0.49867 0.02347 0.0
H2643 H 0.56473 0.49643 0.95368 0.0
H2644 H 0.54539 0.50975 0.96533 0.0
H2645 H 0.51037 0.48647 0.03403 0.0
H2646 H 0.43762 0.50402 0.04445 0.0
H2647 H 0.45714 0.49082 0.03322 0.0
H2648 H 0.49216 0.51404 0.96449 0.0
C2649 C 0.54207 0.49636 0.97304 0.0
C2650 C 0.50641 0.49235 0.01865 0.0
C2651 C 0.55324 0.48882 0.96653 0.0
C2652 C 0.44915 0.51164 0.03165 0.0
C2653 C 0.46043 0.50416 0.0254 0.0
C2654 C 0.49612 0.50817 0.97988 0.0
C2655 C 0.52663 0.48661 0.989 0.0
C2656 C 0.51386 0.49387 0.99439 0.0
C2657 C 0.47589 0.51391 0.00947 0.0
C2658 C 0.48868 0.50666 0.00414 0.0
H2659 H 0.53063 0.44841 -7e-05 0.0
H2660 H 0.51117 0.46152 0.01119 0.0
H2661 H 0.51376 0.50291 0.95605 0.0
H2662 H 0.47171 0.55194 0.99801 0.0
H2663 H 0.49134 0.53896 0.98719 0.0
loop_
_geom_bond_atom_site_label_1
_geom_bond_atom_site_label_2
_geom_bond_distance
_geom_bond_site_symmetry_2
_ccdc_geom_bond_type
Co0 O1 2.216 . S
Co0 O2 2.091 . S
Co0 O4 2.004 . S
Co0 O10 2.021 . S
Co0 O12 2.137 . S
Co0 O13 2.244 . S
O1 Co0 2.216 . S
O1 C8 1.247 . S
O2 Co0 2.091 . S
O2 C8 1.261 . S
C3 O12 1.247 . S
C3 O13 1.272 . S
O4 Co0 2.004 . S
O4 C9 1.259 . S
Co5 O6 2.061 . S
Co5 O11 2.052 . S
Co5 O13 2.135 . S
O6 Co5 2.061 . S
O6 C9 1.235 . S
C7 O10 1.238 . S
C7 O11 1.241 . S
C8 O1 1.247 . S
C8 O2 1.261 . S
C9 O4 1.259 . S
C9 O6 1.235 . S
O10 Co0 2.021 . S
O10 C7 1.238 . S
O11 Co5 2.052 . S
O11 C7 1.241 . S
O12 Co0 2.137 . S
O12 C3 1.247 . S
O13 Co0 2.244 . S
O13 C3 1.272 . S
O13 Co5 2.135 . S
Co14 O15 2.216 . S
Co14 O16 2.091 . S
Co14 O18 2.004 . S
Co14 O24 2.021 . S
Co14 O26 2.137 . S
Co14 O27 2.244 . S
O15 Co14 2.216 . S
O15 C22 1.247 . S
O16 Co14 2.091 . S
O16 C22 1.261 . S
C17 O26 1.247 . S
C17 O27 1.272 . S
O18 Co14 2.004 . S
O18 C23 1.259 . S
Co19 O20 2.061 . S
Co19 O25 2.052 . S
Co19 O27 2.135 . S
O20 Co19 2.061 . S
O20 C23 1.235 . S
C21 O24 1.238 . S
C21 O25 1.241 . S
C22 O15 1.247 . S
C22 O16 1.261 . S
C23 O18 1.259 . S
C23 O20 1.235 . S
O24 Co14 2.021 . S
O24 C21 1.238 . S
O25 Co19 2.052 . S
O25 C21 1.241 . S
O26 Co14 2.137 . S
O26 C17 1.247 . S
O27 Co14 2.244 . S
O27 C17 1.272 . S
O27 Co19 2.135 . S
Co28 O29 2.216 . S
Co28 O30 2.091 . S
Co28 O32 2.004 . S
Co28 O38 2.021 . S
Co28 O40 2.137 . S
Co28 O41 2.244 . S
O29 Co28 2.216 . S
O29 C36 1.247 . S
O30 Co28 2.091 . S
O30 C36 1.261 . S
C31 O40 1.247 . S
C31 O41 1.272 . S
O32 Co28 2.004 . S
O32 C37 1.259 . S
Co33 O34 2.061 . S
Co33 O39 2.052 . S
Co33 O41 2.135 . S
O34 Co33 2.061 . S
O34 C37 1.235 . S
C35 O38 1.238 . S
C35 O39 1.241 . S
C36 O29 1.247 . S
C36 O30 1.261 . S
C37 O32 1.259 . S
C37 O34 1.235 . S
O38 Co28 2.021 . S
O38 C35 1.238 . S
O39 Co33 2.052 . S
O39 C35 1.241 . S
O40 Co28 2.137 . S
O40 C31 1.247 . S
O41 Co28 2.244 . S
O41 C31 1.272 . S
O41 Co33 2.135 . S
Co42 O43 2.216 . S
Co42 O44 2.091 . S
Co42 O46 2.004 . S
Co42 O52 2.021 . S
Co42 O54 2.137 . S
Co42 O55 2.244 . S
O43 Co42 2.216 . S
O43 C50 1.247 . S
O44 Co42 2.091 . S
O44 C50 1.261 . S
C45 O54 1.247 . S
C45 O55 1.272 . S
O46 Co42 2.004 . S
O46 C51 1.259 . S
Co47 O48 2.061 . S
Co47 O53 2.052 . S
Co47 O55 2.135 . S
O48 Co47 2.061 . S
O48 C51 1.235 . S
C49 O52 1.238 . S
C49 O53 1.241 . S
C50 O43 1.247 . S
C50 O44 1.261 . S
C51 O46 1.259 . S
C51 O48 1.235 . S
O52 Co42 2.021 . S
O52 C49 1.238 . S
O53 Co47 2.052 . S
O53 C49 1.241 . S
O54 Co42 2.137 . S
O54 C45 1.247 . S
O55 Co42 2.244 . S
O55 C45 1.272 . S
O55 Co47 2.135 . S
Co56 O57 2.216 . S
Co56 O58 2.091 . S
Co56 O60 2.004 . S
Co56 O66 2.021 . S
Co56 O68 2.137 . S
Co56 O69 2.244 . S
O57 Co56 2.216 . S
O57 C64 1.247 . S
O58 Co56 2.091 . S
O58 C64 1.261 . S
C59 O68 1.247 . S
C59 O69 1.272 . S
O60 Co56 2.004 . S
O60 C65 1.259 . S
Co61 O62 2.061 . S
Co61 O67 2.052 . S
Co61 O69 2.135 . S
O62 Co61 2.061 . S
O62 C65 1.235 . S
C63 O66 1.238 . S
C63 O67 1.241 . S
C64 O57 1.247 . S
C64 O58 1.261 . S
C65 O60 1.259 . S
C65 O62 1.235 . S
O66 Co56 2.021 . S
O66 C63 1.238 . S
O67 Co61 2.052 . S
O67 C63 1.241 . S
O68 Co56 2.137 . S
O68 C59 1.247 . S
O69 Co56 2.244 . S
O69 C59 1.272 . S
O69 Co61 2.135 . S
Co70 O71 2.216 . S
Co70 O72 2.091 . S
Co70 O74 2.004 . S
Co70 O80 2.021 . S
Co70 O82 2.137 . S
Co70 O83 2.244 . S
O71 Co70 2.216 . S
O71 C78 1.247 . S
O72 Co70 2.091 . S
O72 C78 1.261 . S
C73 O82 1.247 . S
C73 O83 1.272 . S
O74 Co70 2.004 . S
O74 C79 1.259 . S
Co75 O76 2.061 . S
Co75 O81 2.052 . S
Co75 O83 2.135 . S
O76 Co75 2.061 . S
O76 C79 1.235 . S
C77 O80 1.238 . S
C77 O81 1.241 . S
C78 O71 1.247 . S
C78 O72 1.261 . S
C79 O74 1.259 . S
C79 O76 1.235 . S
O80 Co70 2.021 . S
O80 C77 1.238 . S
O81 Co75 2.052 . S
O81 C77 1.241 . S
O82 Co70 2.137 . S
O82 C73 1.247 . S
O83 Co70 2.244 . S
O83 C73 1.272 . S
O83 Co75 2.135 . S
Co84 O85 2.216 . S
Co84 O86 2.091 . S
Co84 O88 2.004 . S
Co84 O94 2.021 . S
Co84 O96 2.137 . S
Co84 O97 2.244 . S
O85 Co84 2.216 . S
O85 C92 1.247 . S
O86 Co84 2.091 . S
O86 C92 1.261 . S
C87 O96 1.247 . S
C87 O97 1.272 . S
O88 Co84 2.004 . S
O88 C93 1.259 . S
Co89 O90 2.061 . S
Co89 O95 2.052 . S
Co89 O97 2.135 . S
O90 Co89 2.061 . S
O90 C93 1.235 . S
C91 O94 1.238 . S
C91 O95 1.241 . S
C92 O85 1.247 . S
C92 O86 1.261 . S
C93 O88 1.259 . S
C93 O90 1.235 . S
O94 Co84 2.021 . S
O94 C91 1.238 . S
O95 Co89 2.052 . S
O95 C91 1.241 . S
O96 Co84 2.137 . S
O96 C87 1.247 . S
O97 Co84 2.244 . S
O97 C87 1.272 . S
O97 Co89 2.135 . S
Co98 O99 2.216 . S
Co98 O100 2.091 . S
Co98 O102 2.004 . S
Co98 O108 2.021 . S
Co98 O110 2.137 . S
Co98 O111 2.244 . S
O99 Co98 2.216 . S
O99 C106 1.247 . S
O100 Co98 2.091 . S
O100 C106 1.261 . S
C101 O110 1.247 . S
C101 O111 1.272 . S
O102 Co98 2.004 . S
O102 C107 1.259 . S
Co103 O104 2.061 . S
Co103 O109 2.052 . S
Co103 O111 2.135 . S
O104 Co103 2.061 . S
O104 C107 1.235 . S
C105 O108 1.238 . S
C105 O109 1.241 . S
C106 O99 1.247 . S
C106 O100 1.261 . S
C107 O102 1.259 . S
C107 O104 1.235 . S
O108 Co98 2.021 . S
O108 C105 1.238 . S
O109 Co103 2.052 . S
O109 C105 1.241 . S
O110 Co98 2.137 . S
O110 C101 1.247 . S
O111 Co98 2.244 . S
O111 C101 1.272 . S
O111 Co103 2.135 . S
Co112 O113 2.216 . S
Co112 O114 2.091 . S
Co112 O116 2.004 . S
Co112 O122 2.021 . S
Co112 O124 2.137 . S
Co112 O125 2.244 . S
O113 Co112 2.216 . S
O113 C120 1.247 . S
O114 Co112 2.091 . S
O114 C120 1.261 . S
C115 O124 1.247 . S
C115 O125 1.272 . S
O116 Co112 2.004 . S
O116 C121 1.259 . S
Co117 O118 2.061 . S
Co117 O123 2.052 . S
Co117 O125 2.135 . S
O118 Co117 2.061 . S
O118 C121 1.235 . S
C119 O122 1.238 . S
C119 O123 1.241 . S
C120 O113 1.247 . S
C120 O114 1.261 . S
C121 O116 1.259 . S
C121 O118 1.235 . S
O122 Co112 2.021 . S
O122 C119 1.238 . S
O123 Co117 2.052 . S
O123 C119 1.241 . S
O124 Co112 2.137 . S
O124 C115 1.247 . S
O125 Co112 2.244 . S
O125 C115 1.272 . S
O125 Co117 2.135 . S
Co126 O127 2.216 . S
Co126 O128 2.091 . S
Co126 O130 2.004 . S
Co126 O136 2.021 . S
Co126 O138 2.137 . S
Co126 O139 2.244 . S
O127 Co126 2.216 . S
O127 C134 1.247 . S
O128 Co126 2.091 . S
O128 C134 1.261 . S
C129 O138 1.247 . S
C129 O139 1.272 . S
O130 Co126 2.004 . S
O130 C135 1.259 . S
Co131 O132 2.061 . S
Co131 O137 2.052 . S
Co131 O139 2.135 . S
O132 Co131 2.061 . S
O132 C135 1.235 . S
C133 O136 1.238 . S
C133 O137 1.241 . S
C134 O127 1.247 . S
C134 O128 1.261 . S
C135 O130 1.259 . S
C135 O132 1.235 . S
O136 Co126 2.021 . S
O136 C133 1.238 . S
O137 Co131 2.052 . S
O137 C133 1.241 . S
O138 Co126 2.137 . S
O138 C129 1.247 . S
O139 Co126 2.244 . S
O139 C129 1.272 . S
O139 Co131 2.135 . S
Co140 O141 2.216 . S
Co140 O142 2.091 . S
Co140 O144 2.004 . S
Co140 O150 2.021 . S
Co140 O152 2.137 . S
Co140 O153 2.244 . S
O141 Co140 2.216 . S
O141 C148 1.247 . S
O142 Co140 2.091 . S
O142 C148 1.261 . S
C143 O152 1.247 . S
C143 O153 1.272 . S
O144 Co140 2.004 . S
O144 C149 1.259 . S
Co145 O146 2.061 . S
Co145 O151 2.052 . S
Co145 O153 2.135 . S
O146 Co145 2.061 . S
O146 C149 1.235 . S
C147 O150 1.238 . S
C147 O151 1.241 . S
C148 O141 1.247 . S
C148 O142 1.261 . S
C149 O144 1.259 . S
C149 O146 1.235 . S
O150 Co140 2.021 . S
O150 C147 1.238 . S
O151 Co145 2.052 . S
O151 C147 1.241 . S
O152 Co140 2.137 . S
O152 C143 1.247 . S
O153 Co140 2.244 . S
O153 C143 1.272 . S
O153 Co145 2.135 . S
Co154 O155 2.216 . S
Co154 O156 2.091 . S
Co154 O158 2.004 . S
Co154 O164 2.021 . S
Co154 O166 2.137 . S
Co154 O167 2.244 . S
O155 Co154 2.216 . S
O155 C162 1.247 . S
O156 Co154 2.091 . S
O156 C162 1.261 . S
C157 O166 1.247 . S
C157 O167 1.272 . S
O158 Co154 2.004 . S
O158 C163 1.259 . S
Co159 O160 2.061 . S
Co159 O165 2.052 . S
Co159 O167 2.135 . S
O160 Co159 2.061 . S
O160 C163 1.235 . S
C161 O164 1.238 . S
C161 O165 1.241 . S
C162 O155 1.247 . S
C162 O156 1.261 . S
C163 O158 1.259 . S
C163 O160 1.235 . S
O164 Co154 2.021 . S
O164 C161 1.238 . S
O165 Co159 2.052 . S
O165 C161 1.241 . S
O166 Co154 2.137 . S
O166 C157 1.247 . S
O167 Co154 2.244 . S
O167 C157 1.272 . S
O167 Co159 2.135 . S
Co168 O169 2.216 . S
Co168 O170 2.091 . S
Co168 O172 2.004 . S
Co168 O178 2.021 . S
Co168 O180 2.137 . S
Co168 O181 2.244 . S
O169 Co168 2.216 . S
O169 C176 1.247 . S
O170 Co168 2.091 . S
O170 C176 1.261 . S
C171 O180 1.247 . S
C171 O181 1.272 . S
O172 Co168 2.004 . S
O172 C177 1.259 . S
Co173 O174 2.061 . S
Co173 O179 2.052 . S
Co173 O181 2.135 . S
O174 Co173 2.061 . S
O174 C177 1.235 . S
C175 O178 1.238 . S
C175 O179 1.241 . S
C176 O169 1.247 . S
C176 O170 1.261 . S
C177 O172 1.259 . S
C177 O174 1.235 . S
O178 Co168 2.021 . S
O178 C175 1.238 . S
O179 Co173 2.052 . S
O179 C175 1.241 . S
O180 Co168 2.137 . S
O180 C171 1.247 . S
O181 Co168 2.244 . S
O181 C171 1.272 . S
O181 Co173 2.135 . S
Co182 O183 2.216 . S
Co182 O184 2.091 . S
Co182 O186 2.004 . S
Co182 O192 2.021 . S
Co182 O194 2.137 . S
Co182 O195 2.244 . S
O183 Co182 2.216 . S
O183 C190 1.247 . S
O184 Co182 2.091 . S
O184 C190 1.261 . S
C185 O194 1.247 . S
C185 O195 1.272 . S
O186 Co182 2.004 . S
O186 C191 1.259 . S
Co187 O188 2.061 . S
Co187 O193 2.052 . S
Co187 O195 2.135 . S
O188 Co187 2.061 . S
O188 C191 1.235 . S
C189 O192 1.238 . S
C189 O193 1.241 . S
C190 O183 1.247 . S
C190 O184 1.261 . S
C191 O186 1.259 . S
C191 O188 1.235 . S
O192 Co182 2.021 . S
O192 C189 1.238 . S
O193 Co187 2.052 . S
O193 C189 1.241 . S
O194 Co182 2.137 . S
O194 C185 1.247 . S
O195 Co182 2.244 . S
O195 C185 1.272 . S
O195 Co187 2.135 . S
Co196 O197 2.216 . S
Co196 O198 2.091 . S
Co196 O200 2.004 . S
Co196 O206 2.021 . S
Co196 O208 2.137 . S
Co196 O209 2.244 . S
O197 Co196 2.216 . S
O197 C204 1.247 . S
O198 Co196 2.091 . S
O198 C204 1.261 . S
C199 O208 1.247 . S
C199 O209 1.272 . S
O200 Co196 2.004 . S
O200 C205 1.259 . S
Co201 O202 2.061 . S
Co201 O207 2.052 . S
Co201 O209 2.135 . S
O202 Co201 2.061 . S
O202 C205 1.235 . S
C203 O206 1.238 . S
C203 O207 1.241 . S
C204 O197 1.247 . S
C204 O198 1.261 . S
C205 O200 1.259 . S
C205 O202 1.235 . S
O206 Co196 2.021 . S
O206 C203 1.238 . S
O207 Co201 2.052 . S
O207 C203 1.241 . S
O208 Co196 2.137 . S
O208 C199 1.247 . S
O209 Co196 2.244 . S
O209 C199 1.272 . S
O209 Co201 2.135 . S
Co210 O211 2.216 . S
Co210 O212 2.091 . S
Co210 O214 2.004 . S
Co210 O220 2.021 . S
Co210 O222 2.137 . S
Co210 O223 2.244 . S
O211 Co210 2.216 . S
O211 C218 1.247 . S
O212 Co210 2.091 . S
O212 C218 1.261 . S
C213 O222 1.247 . S
C213 O223 1.272 . S
O214 Co210 2.004 . S
O214 C219 1.259 . S
Co215 O216 2.061 . S
Co215 O221 2.052 . S
Co215 O223 2.135 . S
O216 Co215 2.061 . S
O216 C219 1.235 . S
C217 O220 1.238 . S
C217 O221 1.241 . S
C218 O211 1.247 . S
C218 O212 1.261 . S
C219 O214 1.259 . S
C219 O216 1.235 . S
O220 Co210 2.021 . S
O220 C217 1.238 . S
O221 Co215 2.052 . S
O221 C217 1.241 . S
O222 Co210 2.137 . S
O222 C213 1.247 . S
O223 Co210 2.244 . S
O223 C213 1.272 . S
O223 Co215 2.135 . S
Co224 O225 2.216 . S
Co224 O226 2.091 . S
Co224 O228 2.004 . S
Co224 O234 2.021 . S
Co224 O236 2.137 . S
Co224 O237 2.244 . S
O225 Co224 2.216 . S
O225 C232 1.247 . S
O226 Co224 2.091 . S
O226 C232 1.261 . S
C227 O236 1.247 . S
C227 O237 1.272 . S
O228 Co224 2.004 . S
O228 C233 1.259 . S
Co229 O230 2.061 . S
Co229 O235 2.052 . S
Co229 O237 2.135 . S
O230 Co229 2.061 . S
O230 C233 1.235 . S
C231 O234 1.238 . S
C231 O235 1.241 . S
C232 O225 1.247 . S
C232 O226 1.261 . S
C233 O228 1.259 . S
C233 O230 1.235 . S
O234 Co224 2.021 . S
O234 C231 1.238 . S
O235 Co229 2.052 . S
O235 C231 1.241 . S
O236 Co224 2.137 . S
O236 C227 1.247 . S
O237 Co224 2.244 . S
O237 C227 1.272 . S
O237 Co229 2.135 . S
Co238 O239 2.216 . S
Co238 O240 2.091 . S
Co238 O242 2.004 . S
Co238 O248 2.021 . S
Co238 O250 2.137 . S
Co238 O251 2.244 . S
O239 Co238 2.216 . S
O239 C246 1.247 . S
O240 Co238 2.091 . S
O240 C246 1.261 . S
C241 O250 1.247 . S
C241 O251 1.272 . S
O242 Co238 2.004 . S
O242 C247 1.259 . S
Co243 O244 2.061 . S
Co243 O249 2.052 . S
Co243 O251 2.135 . S
O244 Co243 2.061 . S
O244 C247 1.235 . S
C245 O248 1.238 . S
C245 O249 1.241 . S
C246 O239 1.247 . S
C246 O240 1.261 . S
C247 O242 1.259 . S
C247 O244 1.235 . S
O248 Co238 2.021 . S
O248 C245 1.238 . S
O249 Co243 2.052 . S
O249 C245 1.241 . S
O250 Co238 2.137 . S
O250 C241 1.247 . S
O251 Co238 2.244 . S
O251 C241 1.272 . S
O251 Co243 2.135 . S
Co252 O253 2.216 . S
Co252 O254 2.091 . S
Co252 O256 2.004 . S
Co252 O262 2.021 . S
Co252 O264 2.137 . S
Co252 O265 2.244 . S
O253 Co252 2.216 . S
O253 C260 1.247 . S
O254 Co252 2.091 . S
O254 C260 1.261 . S
C255 O264 1.247 . S
C255 O265 1.272 . S
O256 Co252 2.004 . S
O256 C261 1.259 . S
Co257 O258 2.061 . S
Co257 O263 2.052 . S
Co257 O265 2.135 . S
O258 Co257 2.061 . S
O258 C261 1.235 . S
C259 O262 1.238 . S
C259 O263 1.241 . S
C260 O253 1.247 . S
C260 O254 1.261 . S
C261 O256 1.259 . S
C261 O258 1.235 . S
O262 Co252 2.021 . S
O262 C259 1.238 . S
O263 Co257 2.052 . S
O263 C259 1.241 . S
O264 Co252 2.137 . S
O264 C255 1.247 . S
O265 Co252 2.244 . S
O265 C255 1.272 . S
O265 Co257 2.135 . S
Co266 O267 2.216 . S
Co266 O268 2.091 . S
Co266 O270 2.004 . S
Co266 O276 2.021 . S
Co266 O278 2.137 . S
Co266 O279 2.244 . S
O267 Co266 2.216 . S
O267 C274 1.247 . S
O268 Co266 2.091 . S
O268 C274 1.261 . S
C269 O278 1.247 . S
C269 O279 1.272 . S
O270 Co266 2.004 . S
O270 C275 1.259 . S
Co271 O272 2.061 . S
Co271 O277 2.052 . S
Co271 O279 2.135 . S
O272 Co271 2.061 . S
O272 C275 1.235 . S
C273 O276 1.238 . S
C273 O277 1.241 . S
C274 O267 1.247 . S
C274 O268 1.261 . S
C275 O270 1.259 . S
C275 O272 1.235 . S
O276 Co266 2.021 . S
O276 C273 1.238 . S
O277 Co271 2.052 . S
O277 C273 1.241 . S
O278 Co266 2.137 . S
O278 C269 1.247 . S
O279 Co266 2.244 . S
O279 C269 1.272 . S
O279 Co271 2.135 . S
Co280 O281 2.216 . S
Co280 O282 2.091 . S
Co280 O284 2.004 . S
Co280 O290 2.021 . S
Co280 O292 2.137 . S
Co280 O293 2.244 . S
O281 Co280 2.216 . S
O281 C288 1.247 . S
O282 Co280 2.091 . S
O282 C288 1.261 . S
C283 O292 1.247 . S
C283 O293 1.272 . S
O284 Co280 2.004 . S
O284 C289 1.259 . S
Co285 O286 2.061 . S
Co285 O291 2.052 . S
Co285 O293 2.135 . S
O286 Co285 2.061 . S
O286 C289 1.235 . S
C287 O290 1.238 . S
C287 O291 1.241 . S
C288 O281 1.247 . S
C288 O282 1.261 . S
C289 O284 1.259 . S
C289 O286 1.235 . S
O290 Co280 2.021 . S
O290 C287 1.238 . S
O291 Co285 2.052 . S
O291 C287 1.241 . S
O292 Co280 2.137 . S
O292 C283 1.247 . S
O293 Co280 2.244 . S
O293 C283 1.272 . S
O293 Co285 2.135 . S
Co294 O295 2.216 . S
Co294 O296 2.091 . S
Co294 O298 2.004 . S
Co294 O304 2.021 . S
Co294 O306 2.137 . S
Co294 O307 2.244 . S
O295 Co294 2.216 . S
O295 C302 1.247 . S
O296 Co294 2.091 . S
O296 C302 1.261 . S
C297 O306 1.247 . S
C297 O307 1.272 . S
O298 Co294 2.004 . S
O298 C303 1.259 . S
Co299 O300 2.061 . S
Co299 O305 2.052 . S
Co299 O307 2.135 . S
O300 Co299 2.061 . S
O300 C303 1.235 . S
C301 O304 1.238 . S
C301 O305 1.241 . S
C302 O295 1.247 . S
C302 O296 1.261 . S
C303 O298 1.259 . S
C303 O300 1.235 . S
O304 Co294 2.021 . S
O304 C301 1.238 . S
O305 Co299 2.052 . S
O305 C301 1.241 . S
O306 Co294 2.137 . S
O306 C297 1.247 . S
O307 Co294 2.244 . S
O307 C297 1.272 . S
O307 Co299 2.135 . S
Co308 O309 2.216 . S
Co308 O310 2.091 . S
Co308 O312 2.004 . S
Co308 O318 2.021 . S
Co308 O320 2.137 . S
Co308 O321 2.244 . S
O309 Co308 2.216 . S
O309 C316 1.247 . S
O310 Co308 2.091 . S
O310 C316 1.261 . S
C311 O320 1.247 . S
C311 O321 1.272 . S
O312 Co308 2.004 . S
O312 C317 1.259 . S
Co313 O314 2.061 . S
Co313 O319 2.052 . S
Co313 O321 2.135 . S
O314 Co313 2.061 . S
O314 C317 1.235 . S
C315 O318 1.238 . S
C315 O319 1.241 . S
C316 O309 1.247 . S
C316 O310 1.261 . S
C317 O312 1.259 . S
C317 O314 1.235 . S
O318 Co308 2.021 . S
O318 C315 1.238 . S
O319 Co313 2.052 . S
O319 C315 1.241 . S
O320 Co308 2.137 . S
O320 C311 1.247 . S
O321 Co308 2.244 . S
O321 C311 1.272 . S
O321 Co313 2.135 . S
Co322 O323 2.216 . S
Co322 O324 2.091 . S
Co322 O326 2.004 . S
Co322 O332 2.021 . S
Co322 O334 2.137 . S
Co322 O335 2.244 . S
O323 Co322 2.216 . S
O323 C330 1.247 . S
O324 Co322 2.091 . S
O324 C330 1.261 . S
C325 O334 1.247 . S
C325 O335 1.272 . S
O326 Co322 2.004 . S
O326 C331 1.259 . S
Co327 O328 2.061 . S
Co327 O333 2.052 . S
Co327 O335 2.135 . S
O328 Co327 2.061 . S
O328 C331 1.235 . S
C329 O332 1.238 . S
C329 O333 1.241 . S
C330 O323 1.247 . S
C330 O324 1.261 . S
C331 O326 1.259 . S
C331 O328 1.235 . S
O332 Co322 2.021 . S
O332 C329 1.238 . S
O333 Co327 2.052 . S
O333 C329 1.241 . S
O334 Co322 2.137 . S
O334 C325 1.247 . S
O335 Co322 2.244 . S
O335 C325 1.272 . S
O335 Co327 2.135 . S
Co336 O337 2.216 . S
Co336 O338 2.091 . S
Co336 O340 2.004 . S
Co336 O346 2.021 . S
Co336 O348 2.137 . S
Co336 O349 2.244 . S
O337 Co336 2.216 . S
O337 C344 1.247 . S
O338 Co336 2.091 . S
O338 C344 1.261 . S
C339 O348 1.247 . S
C339 O349 1.272 . S
O340 Co336 2.004 . S
O340 C345 1.259 . S
Co341 O342 2.061 . S
Co341 O347 2.052 . S
Co341 O349 2.135 . S
O342 Co341 2.061 . S
O342 C345 1.235 . S
C343 O346 1.238 . S
C343 O347 1.241 . S
C344 O337 1.247 . S
C344 O338 1.261 . S
C345 O340 1.259 . S
C345 O342 1.235 . S
O346 Co336 2.021 . S
O346 C343 1.238 . S
O347 Co341 2.052 . S
O347 C343 1.241 . S
O348 Co336 2.137 . S
O348 C339 1.247 . S
O349 Co336 2.244 . S
O349 C339 1.272 . S
O349 Co341 2.135 . S
Co350 O351 2.216 . S
Co350 O352 2.091 . S
Co350 O354 2.004 . S
Co350 O360 2.021 . S
Co350 O362 2.137 . S
Co350 O363 2.244 . S
O351 Co350 2.216 . S
O351 C358 1.247 . S
O352 Co350 2.091 . S
O352 C358 1.261 . S
C353 O362 1.247 . S
C353 O363 1.272 . S
O354 Co350 2.004 . S
O354 C359 1.259 . S
Co355 O356 2.061 . S
Co355 O361 2.052 . S
Co355 O363 2.135 . S
O356 Co355 2.061 . S
O356 C359 1.235 . S
C357 O360 1.238 . S
C357 O361 1.241 . S
C358 O351 1.247 . S
C358 O352 1.261 . S
C359 O354 1.259 . S
C359 O356 1.235 . S
O360 Co350 2.021 . S
O360 C357 1.238 . S
O361 Co355 2.052 . S
O361 C357 1.241 . S
O362 Co350 2.137 . S
O362 C353 1.247 . S
O363 Co350 2.244 . S
O363 C353 1.272 . S
O363 Co355 2.135 . S
Co364 O365 2.216 . S
Co364 O366 2.091 . S
Co364 O368 2.004 . S
Co364 O374 2.021 . S
Co364 O376 2.137 . S
Co364 O377 2.244 . S
O365 Co364 2.216 . S
O365 C372 1.247 . S
O366 Co364 2.091 . S
O366 C372 1.261 . S
C367 O376 1.247 . S
C367 O377 1.272 . S
O368 Co364 2.004 . S
O368 C373 1.259 . S
Co369 O370 2.061 . S
Co369 O375 2.052 . S
Co369 O377 2.135 . S
O370 Co369 2.061 . S
O370 C373 1.235 . S
C371 O374 1.238 . S
C371 O375 1.241 . S
C372 O365 1.247 . S
C372 O366 1.261 . S
C373 O368 1.259 . S
C373 O370 1.235 . S
O374 Co364 2.021 . S
O374 C371 1.238 . S
O375 Co369 2.052 . S
O375 C371 1.241 . S
O376 Co364 2.137 . S
O376 C367 1.247 . S
O377 Co364 2.244 . S
O377 C367 1.272 . S
O377 Co369 2.135 . S
Co378 O379 2.216 . S
Co378 O380 2.091 . S
Co378 O382 2.004 . S
Co378 O388 2.021 . S
Co378 O390 2.137 . S
Co378 O391 2.244 . S
O379 Co378 2.216 . S
O379 C386 1.247 . S
O380 Co378 2.091 . S
O380 C386 1.261 . S
C381 O390 1.247 . S
C381 O391 1.272 . S
O382 Co378 2.004 . S
O382 C387 1.259 . S
Co383 O384 2.061 . S
Co383 O389 2.052 . S
Co383 O391 2.135 . S
O384 Co383 2.061 . S
O384 C387 1.235 . S
C385 O388 1.238 . S
C385 O389 1.241 . S
C386 O379 1.247 . S
C386 O380 1.261 . S
C387 O382 1.259 . S
C387 O384 1.235 . S
O388 Co378 2.021 . S
O388 C385 1.238 . S
O389 Co383 2.052 . S
O389 C385 1.241 . S
O390 Co378 2.137 . S
O390 C381 1.247 . S
O391 Co378 2.244 . S
O391 C381 1.272 . S
O391 Co383 2.135 . S
Co392 O393 2.216 . S
Co392 O394 2.091 . S
Co392 O396 2.004 . S
Co392 O402 2.021 . S
Co392 O404 2.137 . S
Co392 O405 2.244 . S
O393 Co392 2.216 . S
O393 C400 1.247 . S
O394 Co392 2.091 . S
O394 C400 1.261 . S
C395 O404 1.247 . S
C395 O405 1.272 . S
O396 Co392 2.004 . S
O396 C401 1.259 . S
Co397 O398 2.061 . S
Co397 O403 2.052 . S
Co397 O405 2.135 . S
O398 Co397 2.061 . S
O398 C401 1.235 . S
C399 O402 1.238 . S
C399 O403 1.241 . S
C400 O393 1.247 . S
C400 O394 1.261 . S
C401 O396 1.259 . S
C401 O398 1.235 . S
O402 Co392 2.021 . S
O402 C399 1.238 . S
O403 Co397 2.052 . S
O403 C399 1.241 . S
O404 Co392 2.137 . S
O404 C395 1.247 . S
O405 Co392 2.244 . S
O405 C395 1.272 . S
O405 Co397 2.135 . S
Co406 O407 2.216 . S
Co406 O408 2.091 . S
Co406 O410 2.004 . S
Co406 O416 2.021 . S
Co406 O418 2.137 . S
Co406 O419 2.244 . S
O407 Co406 2.216 . S
O407 C414 1.247 . S
O408 Co406 2.091 . S
O408 C414 1.261 . S
C409 O418 1.247 . S
C409 O419 1.272 . S
O410 Co406 2.004 . S
O410 C415 1.259 . S
Co411 O412 2.061 . S
Co411 O417 2.052 . S
Co411 O419 2.135 . S
O412 Co411 2.061 . S
O412 C415 1.235 . S
C413 O416 1.238 . S
C413 O417 1.241 . S
C414 O407 1.247 . S
C414 O408 1.261 . S
C415 O410 1.259 . S
C415 O412 1.235 . S
O416 Co406 2.021 . S
O416 C413 1.238 . S
O417 Co411 2.052 . S
O417 C413 1.241 . S
O418 Co406 2.137 . S
O418 C409 1.247 . S
O419 Co406 2.244 . S
O419 C409 1.272 . S
O419 Co411 2.135 . S
Co420 O421 2.216 . S
Co420 O422 2.091 . S
Co420 O424 2.004 . S
Co420 O430 2.021 . S
Co420 O432 2.137 . S
Co420 O433 2.244 . S
O421 Co420 2.216 . S
O421 C428 1.247 . S
O422 Co420 2.091 . S
O422 C428 1.261 . S
C423 O432 1.247 . S
C423 O433 1.272 . S
O424 Co420 2.004 . S
O424 C429 1.259 . S
Co425 O426 2.061 . S
Co425 O431 2.052 . S
Co425 O433 2.135 . S
O426 Co425 2.061 . S
O426 C429 1.235 . S
C427 O430 1.238 . S
C427 O431 1.241 . S
C428 O421 1.247 . S
C428 O422 1.261 . S
C429 O424 1.259 . S
C429 O426 1.235 . S
O430 Co420 2.021 . S
O430 C427 1.238 . S
O431 Co425 2.052 . S
O431 C427 1.241 . S
O432 Co420 2.137 . S
O432 C423 1.247 . S
O433 Co420 2.244 . S
O433 C423 1.272 . S
O433 Co425 2.135 . S
Co434 O435 2.216 . S
Co434 O436 2.091 . S
Co434 O438 2.004 . S
Co434 O444 2.021 . S
Co434 O446 2.137 . S
Co434 O447 2.244 . S
O435 Co434 2.216 . S
O435 C442 1.247 . S
O436 Co434 2.091 . S
O436 C442 1.261 . S
C437 O446 1.247 . S
C437 O447 1.272 . S
O438 Co434 2.004 . S
O438 C443 1.259 . S
Co439 O440 2.061 . S
Co439 O445 2.052 . S
Co439 O447 2.135 . S
O440 Co439 2.061 . S
O440 C443 1.235 . S
C441 O444 1.238 . S
C441 O445 1.241 . S
C442 O435 1.247 . S
C442 O436 1.261 . S
C443 O438 1.259 . S
C443 O440 1.235 . S
O444 Co434 2.021 . S
O444 C441 1.238 . S
O445 Co439 2.052 . S
O445 C441 1.241 . S
O446 Co434 2.137 . S
O446 C437 1.247 . S
O447 Co434 2.244 . S
O447 C437 1.272 . S
O447 Co439 2.135 . S
Co448 O449 2.216 . S
Co448 O450 2.091 . S
Co448 O452 2.004 . S
Co448 O458 2.021 . S
Co448 O460 2.137 . S
Co448 O461 2.244 . S
O449 Co448 2.216 . S
O449 C456 1.247 . S
O450 Co448 2.091 . S
O450 C456 1.261 . S
C451 O460 1.247 . S
C451 O461 1.272 . S
O452 Co448 2.004 . S
O452 C457 1.259 . S
Co453 O454 2.061 . S
Co453 O459 2.052 . S
Co453 O461 2.135 . S
O454 Co453 2.061 . S
O454 C457 1.235 . S
C455 O458 1.238 . S
C455 O459 1.241 . S
C456 O449 1.247 . S
C456 O450 1.261 . S
C457 O452 1.259 . S
C457 O454 1.235 . S
O458 Co448 2.021 . S
O458 C455 1.238 . S
O459 Co453 2.052 . S
O459 C455 1.241 . S
O460 Co448 2.137 . S
O460 C451 1.247 . S
O461 Co448 2.244 . S
O461 C451 1.272 . S
O461 Co453 2.135 . S
Co462 O463 2.216 . S
Co462 O464 2.091 . S
Co462 O466 2.004 . S
Co462 O472 2.021 . S
Co462 O474 2.137 . S
Co462 O475 2.244 . S
O463 Co462 2.216 . S
O463 C470 1.247 . S
O464 Co462 2.091 . S
O464 C470 1.261 . S
C465 O474 1.247 . S
C465 O475 1.272 . S
O466 Co462 2.004 . S
O466 C471 1.259 . S
Co467 O468 2.061 . S
Co467 O473 2.052 . S
Co467 O475 2.135 . S
O468 Co467 2.061 . S
O468 C471 1.235 . S
C469 O472 1.238 . S
C469 O473 1.241 . S
C470 O463 1.247 . S
C470 O464 1.261 . S
C471 O466 1.259 . S
C471 O468 1.235 . S
O472 Co462 2.021 . S
O472 C469 1.238 . S
O473 Co467 2.052 . S
O473 C469 1.241 . S
O474 Co462 2.137 . S
O474 C465 1.247 . S
O475 Co462 2.244 . S
O475 C465 1.272 . S
O475 Co467 2.135 . S
Co476 O477 2.216 . S
Co476 O478 2.091 . S
Co476 O480 2.004 . S
Co476 O486 2.021 . S
Co476 O488 2.137 . S
Co476 O489 2.244 . S
O477 Co476 2.216 . S
O477 C484 1.247 . S
O478 Co476 2.091 . S
O478 C484 1.261 . S
C479 O488 1.247 . S
C479 O489 1.272 . S
O480 Co476 2.004 . S
O480 C485 1.259 . S
Co481 O482 2.061 . S
Co481 O487 2.052 . S
Co481 O489 2.135 . S
O482 Co481 2.061 . S
O482 C485 1.235 . S
C483 O486 1.238 . S
C483 O487 1.241 . S
C484 O477 1.247 . S
C484 O478 1.261 . S
C485 O480 1.259 . S
C485 O482 1.235 . S
O486 Co476 2.021 . S
O486 C483 1.238 . S
O487 Co481 2.052 . S
O487 C483 1.241 . S
O488 Co476 2.137 . S
O488 C479 1.247 . S
O489 Co476 2.244 . S
O489 C479 1.272 . S
O489 Co481 2.135 . S
Co490 O491 2.216 . S
Co490 O492 2.091 . S
Co490 O494 2.004 . S
Co490 O500 2.021 . S
Co490 O502 2.137 . S
Co490 O503 2.244 . S
O491 Co490 2.216 . S
O491 C498 1.247 . S
O492 Co490 2.091 . S
O492 C498 1.261 . S
C493 O502 1.247 . S
C493 O503 1.272 . S
O494 Co490 2.004 . S
O494 C499 1.259 . S
Co495 O496 2.061 . S
Co495 O501 2.052 . S
Co495 O503 2.135 . S
O496 Co495 2.061 . S
O496 C499 1.235 . S
C497 O500 1.238 . S
C497 O501 1.241 . S
C498 O491 1.247 . S
C498 O492 1.261 . S
C499 O494 1.259 . S
C499 O496 1.235 . S
O500 Co490 2.021 . S
O500 C497 1.238 . S
O501 Co495 2.052 . S
O501 C497 1.241 . S
O502 Co490 2.137 . S
O502 C493 1.247 . S
O503 Co490 2.244 . S
O503 C493 1.272 . S
O503 Co495 2.135 . S
C504 C505 1.349 . S
C504 C506 1.327 . S
C504 H529 0.950 . S
C505 C504 1.349 . S
C505 C521 1.349 . S
C506 C504 1.327 . S
C506 C525 1.429 . S
C506 H530 0.950 . S
C507 C524 1.574 1_554 S
C507 C526 1.368 . S
C507 H531 0.949 . S
H508 C512 0.949 . S
C509 C510 1.349 . S
C509 C511 1.327 . S
C509 H532 0.950 . S
C510 C509 1.349 . S
C510 C522 1.349 . S
C511 C509 1.327 . S
C511 C527 1.429 1_565 S
C511 H533 0.950 1_565 S
C512 H508 0.949 . S
C512 C520 1.574 1_556 S
C512 C528 1.368 . S
H513 C521 0.950 . S
H514 C519 0.950 . S
H515 C520 0.949 . S
H516 C522 0.950 . S
H517 C523 0.950 . S
H518 C524 0.949 . S
C519 H514 0.950 . S
C519 C521 1.327 . S
C519 C525 1.429 . S
C520 C512 1.574 1_554 S
C520 H515 0.949 . S
C520 C526 1.368 . S
C521 C505 1.349 . S
C521 H513 0.950 . S
C521 C519 1.327 . S
C522 C510 1.349 . S
C522 H516 0.950 . S
C522 C523 1.327 . S
C523 H517 0.950 . S
C523 C522 1.327 . S
C523 C527 1.429 1_565 S
C524 C507 1.574 1_556 S
C524 H518 0.949 . S
C524 C528 1.368 . S
C525 C506 1.429 . S
C525 C519 1.429 . S
C525 C526 1.523 . S
C526 C507 1.368 . S
C526 C520 1.368 . S
C526 C525 1.523 . S
C527 C511 1.429 1_545 S
C527 C523 1.429 1_545 S
C527 C528 1.523 . S
C528 C512 1.368 . S
C528 C524 1.368 . S
C528 C527 1.523 . S
H529 C504 0.950 . S
H530 C506 0.950 . S
H531 C507 0.949 . S
H532 C509 0.950 . S
H533 C511 0.950 1_545 S
C534 C535 1.349 . S
C534 C536 1.327 . S
C534 H559 0.950 . S
C535 C534 1.349 . S
C535 C551 1.349 . S
C536 C534 1.327 . S
C536 C555 1.429 . S
C536 H560 0.950 . S
C537 C554 1.574 . S
C537 C556 1.368 1_556 S
C537 H561 0.949 . S
H538 C542 0.992 . S
C539 C540 1.349 . S
C539 C541 1.327 1_455 S
C539 H562 0.950 . S
C540 C539 1.349 . S
C540 C552 1.349 . S
C541 C539 1.327 1_655 S
C541 C557 1.429 . S
C541 H563 0.950 . S
C542 H538 0.992 . S
C542 C550 1.574 . S
C542 C558 1.368 1_554 S
H543 C551 0.950 . S
H544 C549 0.950 . S
H545 C550 0.949 . S
H546 C552 0.950 . S
H547 C553 0.947 . S
H548 C554 0.949 . S
C549 H544 0.950 . S
C549 C551 1.327 . S
C549 C555 1.429 . S
C550 C542 1.574 . S
C550 H545 0.949 . S
C550 C556 1.368 . S
C551 C535 1.349 . S
C551 H543 0.950 . S
C551 C549 1.327 . S
C552 C540 1.349 . S
C552 H546 0.950 . S
C552 C553 1.327 . S
C553 H547 0.947 . S
C553 C552 1.327 . S
C553 C557 1.429 1_455 S
C554 C537 1.574 . S
C554 H548 0.949 . S
C554 C558 1.368 . S
C555 C536 1.429 . S
C555 C549 1.429 . S
C555 C556 1.523 . S
C556 C537 1.368 1_554 S
C556 C550 1.368 . S
C556 C555 1.523 . S
C557 C541 1.429 . S
C557 C553 1.429 1_655 S
C557 C558 1.523 . S
C558 C542 1.368 1_556 S
C558 C554 1.368 . S
C558 C557 1.523 . S
H559 C534 0.950 . S
H560 C536 0.950 . S
H561 C537 0.949 . S
H562 C539 0.950 . S
H563 C541 0.950 . S
C564 C565 1.349 . S
C564 C566 1.327 . S
C564 H589 0.950 . S
C565 C564 1.349 . S
C565 C581 1.349 . S
C566 C564 1.327 . S
C566 C585 1.429 . S
C566 H590 0.948 . S
C567 C584 1.574 . S
C567 C586 1.368 . S
C567 H591 0.949 . S
H568 C572 0.949 . S
C569 C570 1.349 . S
C569 C571 1.327 . S
C569 H592 0.950 . S
C570 C569 1.349 . S
C570 C582 1.349 . S
C571 C569 1.327 . S
C571 C587 1.429 . S
C571 H593 0.950 . S
C572 H568 0.949 . S
C572 C580 1.574 . S
C572 C588 1.368 . S
H573 C581 0.950 . S
H574 C579 0.950 . S
H575 C580 0.949 . S
H576 C582 0.950 . S
H577 C583 0.950 . S
H578 C584 0.949 . S
C579 H574 0.950 . S
C579 C581 1.327 . S
C579 C585 1.429 . S
C580 C572 1.574 . S
C580 H575 0.949 . S
C580 C586 1.368 1_554 S
C581 C565 1.349 . S
C581 H573 0.950 . S
C581 C579 1.327 . S
C582 C570 1.349 . S
C582 H576 0.950 . S
C582 C583 1.327 . S
C583 H577 0.950 . S
C583 C582 1.327 . S
C583 C587 1.429 . S
C584 C567 1.574 . S
C584 H578 0.949 . S
C584 C588 1.368 1_556 S
C585 C566 1.429 . S
C585 C579 1.429 . S
C585 C586 1.523 . S
C586 C567 1.368 . S
C586 C580 1.368 1_556 S
C586 C585 1.523 . S
C587 C571 1.429 . S
C587 C583 1.429 . S
C587 C588 1.523 . S
C588 C572 1.368 . S
C588 C584 1.368 1_554 S
C588 C587 1.523 . S
H589 C564 0.950 . S
H590 C566 0.948 . S
H591 C567 0.949 . S
H592 C569 0.950 . S
H593 C571 0.950 . S
C594 C595 1.349 . S
C594 C596 1.327 . S
C594 H619 0.950 . S
C595 C594 1.349 . S
C595 C611 1.349 . S
C596 C594 1.327 . S
C596 C615 1.429 1_655 S
C596 H620 0.950 . S
C597 C614 1.574 . S
C597 C616 1.368 . S
C597 H621 0.949 . S
H598 C602 0.949 . S
C599 C600 1.349 . S
C599 C601 1.327 . S
C599 H622 0.950 . S
C600 C599 1.349 . S
C600 C612 1.349 . S
C601 C599 1.327 . S
C601 C617 1.429 . S
C601 H623 0.950 . S
C602 H598 0.949 . S
C602 C610 1.574 . S
C602 C618 1.368 . S
H603 C611 0.950 . S
H604 C609 0.975 . S
H605 C610 0.949 . S
H606 C612 0.950 . S
H607 C613 0.950 . S
H608 C614 0.949 . S
C609 H604 0.975 . S
C609 C611 1.281 1_455 S
C609 C615 1.453 . S
C610 C602 1.574 . S
C610 H605 0.949 . S
C610 C616 1.368 . S
C611 C595 1.349 . S
C611 H603 0.950 . S
C611 C609 1.281 1_655 S
C612 C600 1.349 . S
C612 H606 0.950 . S
C612 C613 1.327 . S
C613 H607 0.950 . S
C613 C612 1.327 . S
C613 C617 1.429 . S
C614 C597 1.574 . S
C614 H608 0.949 . S
C614 C618 1.368 . S
C615 C596 1.429 1_455 S
C615 C609 1.453 . S
C615 C616 1.523 . S
C616 C597 1.368 . S
C616 C610 1.368 . S
C616 C615 1.523 . S
C617 C601 1.429 . S
C617 C613 1.429 . S
C617 C618 1.523 . S
C618 C602 1.368 . S
C618 C614 1.368 . S
C618 C617 1.523 . S
H619 C594 0.950 . S
H620 C596 0.950 . S
H621 C597 0.949 . S
H622 C599 0.950 . S
H623 C601 0.950 . S
C624 C625 1.349 . S
C624 C626 1.327 . S
C624 H649 0.950 . S
C625 C624 1.349 . S
C625 C641 1.349 . S
C626 C624 1.327 . S
C626 C645 1.429 . S
C626 H650 0.950 . S
C627 C644 1.574 . S
C627 C646 1.368 . S
C627 H651 0.949 . S
H628 C632 0.949 . S
C629 C630 1.349 . S
C629 C631 1.327 . S
C629 H652 0.950 . S
C630 C629 1.349 . S
C630 C642 1.349 . S
C631 C629 1.327 . S
C631 C647 1.429 . S
C631 H653 0.950 . S
C632 H628 0.949 . S
C632 C640 1.574 . S
C632 C648 1.368 . S
H633 C641 0.950 . S
H634 C639 0.950 . S
H635 C640 0.949 . S
H636 C642 0.950 . S
H637 C643 0.950 . S
H638 C644 0.949 . S
C639 H634 0.950 . S
C639 C641 1.327 . S
C639 C645 1.429 . S
C640 C632 1.574 . S
C640 H635 0.949 . S
C640 C646 1.368 . S
C641 C625 1.349 . S
C641 H633 0.950 . S
C641 C639 1.327 . S
C642 C630 1.349 . S
C642 H636 0.950 . S
C642 C643 1.327 . S
C643 H637 0.950 . S
C643 C642 1.327 . S
C643 C647 1.429 . S
C644 C627 1.574 . S
C644 H638 0.949 . S
C644 C648 1.368 . S
C645 C626 1.429 . S
C645 C639 1.429 . S
C645 C646 1.523 . S
C646 C627 1.368 . S
C646 C640 1.368 . S
C646 C645 1.523 . S
C647 C631 1.429 . S
C647 C643 1.429 . S
C647 C648 1.523 . S
C648 C632 1.368 . S
C648 C644 1.368 . S
C648 C647 1.523 . S
H649 C624 0.950 . S
H650 C626 0.950 . S
H651 C627 0.949 . S
H652 C629 0.950 . S
H653 C631 0.950 . S
C654 C655 1.349 . S
C654 C656 1.327 . S
C654 H679 0.950 . S
C655 C654 1.349 . S
C655 C671 1.349 . S
C656 C654 1.327 . S
C656 C675 1.429 . S
C656 H680 0.950 . S
C657 C674 1.574 . S
C657 C676 1.368 . S
C657 H681 0.949 . S
H658 C662 0.949 . S
C659 C660 1.349 . S
C659 C661 1.331 . S
C659 H682 0.950 . S
C660 C659 1.349 . S
C660 C672 1.349 . S
C661 C659 1.331 . S
C661 C677 1.431 1_545 S
C661 H683 0.943 1_545 S
C662 H658 0.949 . S
C662 C670 1.574 . S
C662 C678 1.368 . S
H663 C671 0.950 . S
H664 C669 0.950 . S
H665 C670 0.949 . S
H666 C672 0.950 . S
H667 C673 0.950 . S
H668 C674 0.949 . S
C669 H664 0.950 . S
C669 C671 1.327 . S
C669 C675 1.429 . S
C670 C662 1.574 . S
C670 H665 0.949 . S
C670 C676 1.368 . S
C671 C655 1.349 . S
C671 H663 0.950 . S
C671 C669 1.327 . S
C672 C660 1.349 . S
C672 H666 0.950 . S
C672 C673 1.327 . S
C673 H667 0.950 . S
C673 C672 1.327 . S
C673 C677 1.429 1_545 S
C674 C657 1.574 . S
C674 H668 0.949 . S
C674 C678 1.368 . S
C675 C656 1.429 . S
C675 C669 1.429 . S
C675 C676 1.523 . S
C676 C657 1.368 . S
C676 C670 1.368 . S
C676 C675 1.523 . S
C677 C661 1.431 1_565 S
C677 C673 1.429 1_565 S
C677 C678 1.523 . S
C678 C662 1.368 . S
C678 C674 1.368 . S
C678 C677 1.523 . S
H679 C654 0.950 . S
H680 C656 0.950 . S
H681 C657 0.949 . S
H682 C659 0.950 . S
H683 C661 0.943 1_565 S
C684 C685 1.349 . S
C684 C686 1.327 . S
C684 H709 0.950 . S
C685 C684 1.349 . S
C685 C701 1.349 . S
C686 C684 1.327 . S
C686 C705 1.429 1_545 S
C686 H710 0.950 1_545 S
C687 C704 1.574 1_554 S
C687 C706 1.368 . S
C687 H711 0.949 . S
H688 C692 0.949 . S
C689 C690 1.349 . S
C689 C691 1.327 . S
C689 H712 0.950 . S
C690 C689 1.349 . S
C690 C702 1.349 . S
C691 C689 1.327 . S
C691 C707 1.429 . S
C691 H713 0.950 . S
C692 H688 0.949 . S
C692 C700 1.574 1_556 S
C692 C708 1.368 . S
H693 C701 0.950 . S
H694 C699 0.950 . S
H695 C700 0.949 . S
H696 C702 0.950 . S
H697 C703 0.950 . S
H698 C704 0.949 . S
C699 H694 0.950 . S
C699 C701 1.327 . S
C699 C705 1.429 1_545 S
C700 C692 1.574 1_554 S
C700 H695 0.949 . S
C700 C706 1.368 . S
C701 C685 1.349 . S
C701 H693 0.950 . S
C701 C699 1.327 . S
C702 C690 1.349 . S
C702 H696 0.950 . S
C702 C703 1.327 . S
C703 H697 0.950 . S
C703 C702 1.327 . S
C703 C707 1.429 . S
C704 C687 1.574 1_556 S
C704 H698 0.949 . S
C704 C708 1.368 . S
C705 C686 1.429 1_565 S
C705 C699 1.429 1_565 S
C705 C706 1.523 . S
C706 C687 1.368 . S
C706 C700 1.368 . S
C706 C705 1.523 . S
C707 C691 1.429 . S
C707 C703 1.429 . S
C707 C708 1.523 . S
C708 C692 1.368 . S
C708 C704 1.368 . S
C708 C707 1.523 . S
H709 C684 0.950 . S
H710 C686 0.950 1_565 S
H711 C687 0.949 . S
H712 C689 0.950 . S
H713 C691 0.950 . S
C714 C715 1.349 . S
C714 C716 1.327 . S
C714 H739 0.950 . S
C715 C714 1.349 . S
C715 C731 1.349 . S
C716 C714 1.327 . S
C716 C735 1.429 1_655 S
C716 H740 0.939 1_554 S
C717 C734 1.574 . S
C717 C736 1.368 . S
C717 H741 0.949 . S
H718 C722 0.949 . S
C719 C720 1.349 . S
C719 C721 1.327 . S
C719 H742 0.950 . S
C720 C719 1.349 . S
C720 C732 1.349 . S
C721 C719 1.327 . S
C721 C737 1.429 . S
C721 H743 0.950 . S
C722 H718 0.949 . S
C722 C730 1.574 . S
C722 C738 1.368 . S
H723 C731 0.950 . S
H724 C729 0.947 . S
H725 C730 0.949 . S
H726 C732 0.950 . S
H727 C733 0.950 . S
H728 C734 0.949 . S
C729 H724 0.947 . S
C729 C731 1.331 1_455 S
C729 C735 1.427 . S
C730 C722 1.574 . S
C730 H725 0.949 . S
C730 C736 1.368 1_556 S
C731 C715 1.349 . S
C731 H723 0.950 . S
C731 C729 1.331 1_655 S
C732 C720 1.349 . S
C732 H726 0.950 . S
C732 C733 1.327 . S
C733 H727 0.950 . S
C733 C732 1.327 . S
C733 C737 1.429 . S
C734 C717 1.574 . S
C734 H728 0.949 . S
C734 C738 1.368 1_554 S
C735 C716 1.429 1_455 S
C735 C729 1.427 . S
C735 C736 1.523 . S
C736 C717 1.368 . S
C736 C730 1.368 1_554 S
C736 C735 1.523 . S
C737 C721 1.429 . S
C737 C733 1.429 . S
C737 C738 1.523 . S
C738 C722 1.368 . S
C738 C734 1.368 1_556 S
C738 C737 1.523 . S
H739 C714 0.950 . S
H740 C716 0.939 1_556 S
H741 C717 0.949 . S
H742 C719 0.950 . S
H743 C721 0.950 . S
C744 C745 1.349 . S
C744 C746 1.327 . S
C744 H769 0.950 . S
C745 C744 1.349 . S
C745 C761 1.349 . S
C746 C744 1.327 . S
C746 C765 1.429 . S
C746 H770 0.950 . S
C747 C764 1.574 1_556 S
C747 C766 1.368 . S
C747 H771 0.949 . S
H748 C752 0.949 . S
C749 C750 1.349 . S
C749 C751 1.327 . S
C749 H772 0.950 . S
C750 C749 1.349 . S
C750 C762 1.349 . S
C751 C749 1.327 . S
C751 C767 1.429 . S
C751 H773 0.950 . S
C752 H748 0.949 . S
C752 C760 1.574 . S
C752 C768 1.368 1_556 S
H753 C761 0.950 . S
H754 C759 0.950 . S
H755 C760 0.949 . S
H756 C762 0.950 . S
H757 C763 0.950 . S
H758 C764 0.949 . S
C759 H754 0.950 . S
C759 C761 1.327 . S
C759 C765 1.429 . S
C760 C752 1.574 . S
C760 H755 0.949 . S
C760 C766 1.368 . S
C761 C745 1.349 . S
C761 H753 0.950 . S
C761 C759 1.327 . S
C762 C750 1.349 . S
C762 H756 0.950 . S
C762 C763 1.327 . S
C763 H757 0.950 . S
C763 C762 1.327 . S
C763 C767 1.429 . S
C764 C747 1.574 1_554 S
C764 H758 0.949 . S
C764 C768 1.368 . S
C765 C746 1.429 . S
C765 C759 1.429 . S
C765 C766 1.523 . S
C766 C747 1.368 . S
C766 C760 1.368 . S
C766 C765 1.523 . S
C767 C751 1.429 . S
C767 C763 1.429 . S
C767 C768 1.523 . S
C768 C752 1.368 1_554 S
C768 C764 1.368 . S
C768 C767 1.523 . S
H769 C744 0.950 . S
H770 C746 0.950 . S
H771 C747 0.949 . S
H772 C749 0.950 . S
H773 C751 0.950 . S
C774 C775 1.349 . S
C774 C776 1.327 . S
C774 H799 0.950 . S
C775 C774 1.349 . S
C775 C791 1.349 . S
C776 C774 1.327 . S
C776 C795 1.429 . S
C776 H800 0.950 . S
C777 C794 1.574 . S
C777 C796 1.368 . S
C777 H801 0.949 . S
H778 C782 0.949 . S
C779 C780 1.349 . S
C779 C781 1.327 . S
C779 H802 0.950 . S
C780 C779 1.349 . S
C780 C792 1.349 . S
C781 C779 1.327 . S
C781 C797 1.429 1_455 S
C781 H803 0.950 . S
C782 H778 0.949 . S
C782 C790 1.574 . S
C782 C798 1.368 . S
H783 C791 0.950 . S
H784 C789 0.950 . S
H785 C790 0.949 . S
H786 C792 0.950 . S
H787 C793 0.950 . S
H788 C794 0.987 . S
C789 H784 0.950 . S
C789 C791 1.327 . S
C789 C795 1.429 . S
C790 C782 1.574 . S
C790 H785 0.949 . S
C790 C796 1.368 . S
C791 C775 1.349 . S
C791 H783 0.950 . S
C791 C789 1.327 . S
C792 C780 1.349 . S
C792 H786 0.950 . S
C792 C793 1.327 1_455 S
C793 H787 0.950 . S
C793 C792 1.327 1_655 S
C793 C797 1.429 . S
C794 C777 1.574 . S
C794 H788 0.987 . S
C794 C798 1.368 . S
C795 C776 1.429 . S
C795 C789 1.429 . S
C795 C796 1.523 . S
C796 C777 1.368 . S
C796 C790 1.368 . S
C796 C795 1.523 . S
C797 C781 1.429 1_655 S
C797 C793 1.429 . S
C797 C798 1.523 . S
C798 C782 1.368 . S
C798 C794 1.368 . S
C798 C797 1.523 . S
H799 C774 0.950 . S
H800 C776 0.950 . S
H801 C777 0.949 . S
H802 C779 0.950 . S
H803 C781 0.950 . S
C804 C805 1.349 . S
C804 C806 1.327 . S
C804 H829 0.950 . S
C805 C804 1.349 . S
C805 C821 1.349 . S
C806 C804 1.327 . S
C806 C825 1.429 . S
C806 H830 0.950 . S
C807 C824 1.574 . S
C807 C826 1.368 . S
C807 H831 0.949 . S
H808 C812 0.949 . S
C809 C810 1.349 . S
C809 C811 1.327 . S
C809 H832 0.950 . S
C810 C809 1.349 . S
C810 C822 1.349 . S
C811 C809 1.327 . S
C811 C827 1.429 . S
C811 H833 0.950 . S
C812 H808 0.949 . S
C812 C820 1.574 . S
C812 C828 1.368 . S
H813 C821 0.950 . S
H814 C819 0.950 . S
H815 C820 0.949 . S
H816 C822 0.950 . S
H817 C823 0.950 . S
H818 C824 0.949 . S
C819 H814 0.950 . S
C819 C821 1.327 . S
C819 C825 1.429 . S
C820 C812 1.574 . S
C820 H815 0.949 . S
C820 C826 1.368 . S
C821 C805 1.349 . S
C821 H813 0.950 . S
C821 C819 1.327 . S
C822 C810 1.349 . S
C822 H816 0.950 . S
C822 C823 1.327 . S
C823 H817 0.950 . S
C823 C822 1.327 . S
C823 C827 1.429 . S
C824 C807 1.574 . S
C824 H818 0.949 . S
C824 C828 1.368 . S
C825 C806 1.429 . S
C825 C819 1.429 . S
C825 C826 1.523 . S
C826 C807 1.368 . S
C826 C820 1.368 . S
C826 C825 1.523 . S
C827 C811 1.429 . S
C827 C823 1.429 . S
C827 C828 1.523 . S
C828 C812 1.368 . S
C828 C824 1.368 . S
C828 C827 1.523 . S
H829 C804 0.950 . S
H830 C806 0.950 . S
H831 C807 0.949 . S
H832 C809 0.950 . S
H833 C811 0.950 . S
C834 C835 1.349 . S
C834 C836 1.327 . S
C834 H859 0.950 . S
C835 C834 1.349 . S
C835 C851 1.349 . S
C836 C834 1.327 . S
C836 C855 1.429 . S
C836 H860 0.950 . S
C837 C854 1.574 . S
C837 C856 1.368 . S
C837 H861 0.949 . S
H838 C842 0.949 . S
C839 C840 1.349 . S
C839 C841 1.327 . S
C839 H862 0.950 . S
C840 C839 1.349 . S
C840 C852 1.349 . S
C841 C839 1.327 . S
C841 C857 1.429 1_565 S
C841 H863 0.950 . S
C842 H838 0.949 . S
C842 C850 1.574 . S
C842 C858 1.368 . S
H843 C851 0.950 . S
H844 C849 0.950 . S
H845 C850 0.949 . S
H846 C852 0.950 . S
H847 C853 0.950 . S
H848 C854 0.949 . S
C849 H844 0.950 . S
C849 C851 1.327 . S
C849 C855 1.429 . S
C850 C842 1.574 . S
C850 H845 0.949 . S
C850 C856 1.368 . S
C851 C835 1.349 . S
C851 H843 0.950 . S
C851 C849 1.327 . S
C852 C840 1.349 . S
C852 H846 0.950 . S
C852 C853 1.327 . S
C853 H847 0.950 . S
C853 C852 1.327 . S
C853 C857 1.429 1_565 S
C854 C837 1.574 . S
C854 H848 0.949 . S
C854 C858 1.368 . S
C855 C836 1.429 . S
C855 C849 1.429 . S
C855 C856 1.523 . S
C856 C837 1.368 . S
C856 C850 1.368 . S
C856 C855 1.523 . S
C857 C841 1.429 1_545 S
C857 C853 1.429 1_545 S
C857 C858 1.523 . S
C858 C842 1.368 . S
C858 C854 1.368 . S
C858 C857 1.523 . S
H859 C834 0.950 . S
H860 C836 0.950 . S
H861 C837 0.949 . S
H862 C839 0.950 . S
H863 C841 0.950 . S
C864 C865 1.349 . S
C864 C866 1.327 . S
C864 H889 0.950 . S
C865 C864 1.349 . S
C865 C881 1.349 . S
C866 C864 1.327 . S
C866 C885 1.429 . S
C866 H890 0.950 . S
C867 C884 1.574 . S
C867 C886 1.368 . S
C867 H891 0.949 . S
H868 C872 0.949 . S
C869 C870 1.349 . S
C869 C871 1.327 . S
C869 H892 0.950 . S
C870 C869 1.349 . S
C870 C882 1.349 . S
C871 C869 1.327 . S
C871 C887 1.429 . S
C871 H893 0.950 . S
C872 H868 0.949 . S
C872 C880 1.574 . S
C872 C888 1.368 . S
H873 C881 0.950 . S
H874 C879 0.950 . S
H875 C880 0.949 . S
H876 C882 0.950 . S
H877 C883 0.950 . S
H878 C884 0.949 . S
C879 H874 0.950 . S
C879 C881 1.327 . S
C879 C885 1.429 . S
C880 C872 1.574 . S
C880 H875 0.949 . S
C880 C886 1.368 . S
C881 C865 1.349 . S
C881 H873 0.950 . S
C881 C879 1.327 . S
C882 C870 1.349 . S
C882 H876 0.950 . S
C882 C883 1.327 . S
C883 H877 0.950 . S
C883 C882 1.327 . S
C883 C887 1.429 . S
C884 C867 1.574 . S
C884 H878 0.949 . S
C884 C888 1.368 . S
C885 C866 1.429 . S
C885 C879 1.429 . S
C885 C886 1.523 . S
C886 C867 1.368 . S
C886 C880 1.368 . S
C886 C885 1.523 . S
C887 C871 1.429 . S
C887 C883 1.429 . S
C887 C888 1.523 . S
C888 C872 1.368 . S
C888 C884 1.368 . S
C888 C887 1.523 . S
H889 C864 0.950 . S
H890 C866 0.950 . S
H891 C867 0.949 . S
H892 C869 0.950 . S
H893 C871 0.950 . S
C894 C895 1.349 . S
C894 C896 1.327 . S
C894 H919 0.950 . S
C895 C894 1.349 . S
C895 C911 1.349 . S
C896 C894 1.327 . S
C896 C915 1.429 . S
C896 H920 0.950 . S
C897 C914 1.574 . S
C897 C916 1.368 . S
C897 H921 0.949 . S
H898 C902 0.949 . S
C899 C900 1.349 . S
C899 C901 1.327 . S
C899 H922 0.950 . S
C900 C899 1.349 . S
C900 C912 1.349 . S
C901 C899 1.327 . S
C901 C917 1.429 . S
C901 H923 0.950 . S
C902 H898 0.949 . S
C902 C910 1.574 . S
C902 C918 1.368 . S
H903 C911 0.950 . S
H904 C909 0.950 . S
H905 C910 0.949 . S
H906 C912 0.950 . S
H907 C913 0.950 . S
H908 C914 0.949 . S
C909 H904 0.950 . S
C909 C911 1.327 . S
C909 C915 1.429 . S
C910 C902 1.574 . S
C910 H905 0.949 . S
C910 C916 1.368 . S
C911 C895 1.349 . S
C911 H903 0.950 . S
C911 C909 1.327 . S
C912 C900 1.349 . S
C912 H906 0.950 . S
C912 C913 1.327 . S
C913 H907 0.950 . S
C913 C912 1.327 . S
C913 C917 1.429 . S
C914 C897 1.574 . S
C914 H908 0.949 . S
C914 C918 1.368 . S
C915 C896 1.429 . S
C915 C909 1.429 . S
C915 C916 1.523 . S
C916 C897 1.368 . S
C916 C910 1.368 . S
C916 C915 1.523 . S
C917 C901 1.429 . S
C917 C913 1.429 . S
C917 C918 1.523 . S
C918 C902 1.368 . S
C918 C914 1.368 . S
C918 C917 1.523 . S
H919 C894 0.950 . S
H920 C896 0.950 . S
H921 C897 0.949 . S
H922 C899 0.950 . S
H923 C901 0.950 . S
C924 C925 1.349 . S
C924 C926 1.327 . S
C924 H949 0.950 . S
C925 C924 1.349 . S
C925 C941 1.349 . S
C926 C924 1.327 . S
C926 C945 1.429 . S
C926 H950 0.950 . S
C927 C944 1.574 . S
C927 C946 1.368 . S
C927 H951 0.949 . S
H928 C932 0.949 . S
C929 C930 1.349 . S
C929 C931 1.327 . S
C929 H952 0.950 . S
C930 C929 1.349 . S
C930 C942 1.349 . S
C931 C929 1.327 . S
C931 C947 1.429 . S
C931 H953 0.950 . S
C932 H928 0.949 . S
C932 C940 1.574 . S
C932 C948 1.368 . S
H933 C941 0.950 . S
H934 C939 0.950 . S
H935 C940 0.949 . S
H936 C942 0.950 . S
H937 C943 0.950 . S
H938 C944 0.949 . S
C939 H934 0.950 . S
C939 C941 1.327 . S
C939 C945 1.429 . S
C940 C932 1.574 . S
C940 H935 0.949 . S
C940 C946 1.368 . S
C941 C925 1.349 . S
C941 H933 0.950 . S
C941 C939 1.327 . S
C942 C930 1.349 . S
C942 H936 0.950 . S
C942 C943 1.327 . S
C943 H937 0.950 . S
C943 C942 1.327 . S
C943 C947 1.429 . S
C944 C927 1.574 . S
C944 H938 0.949 . S
C944 C948 1.368 . S
C945 C926 1.429 . S
C945 C939 1.429 . S
C945 C946 1.523 . S
C946 C927 1.368 . S
C946 C940 1.368 . S
C946 C945 1.523 . S
C947 C931 1.429 . S
C947 C943 1.429 . S
C947 C948 1.523 . S
C948 C932 1.368 . S
C948 C944 1.368 . S
C948 C947 1.523 . S
H949 C924 0.950 . S
H950 C926 0.950 . S
H951 C927 0.949 . S
H952 C929 0.950 . S
H953 C931 0.950 . S
C954 C955 1.349 . S
C954 C956 1.327 . S
C954 H979 0.950 . S
C955 C954 1.349 . S
C955 C971 1.349 . S
C956 C954 1.327 . S
C956 C975 1.429 . S
C956 H980 0.950 . S
C957 C974 1.574 . S
C957 C976 1.368 . S
C957 H981 0.949 . S
H958 C962 0.949 . S
C959 C960 1.349 . S
C959 C961 1.327 . S
C959 H982 0.950 . S
C960 C959 1.349 . S
C960 C972 1.349 . S
C961 C959 1.327 . S
C961 C977 1.429 . S
C961 H983 0.950 . S
C962 H958 0.949 . S
C962 C970 1.574 . S
C962 C978 1.368 . S
H963 C971 0.950 . S
H964 C969 0.950 . S
H965 C970 0.949 . S
H966 C972 0.950 . S
H967 C973 0.950 . S
H968 C974 0.949 . S
C969 H964 0.950 . S
C969 C971 1.327 . S
C969 C975 1.429 . S
C970 C962 1.574 . S
C970 H965 0.949 . S
C970 C976 1.368 . S
C971 C955 1.349 . S
C971 H963 0.950 . S
C971 C969 1.327 . S
C972 C960 1.349 . S
C972 H966 0.950 . S
C972 C973 1.327 . S
C973 H967 0.950 . S
C973 C972 1.327 . S
C973 C977 1.429 . S
C974 C957 1.574 . S
C974 H968 0.949 . S
C974 C978 1.368 . S
C975 C956 1.429 . S
C975 C969 1.429 . S
C975 C976 1.523 . S
C976 C957 1.368 . S
C976 C970 1.368 . S
C976 C975 1.523 . S
C977 C961 1.429 . S
C977 C973 1.429 . S
C977 C978 1.523 . S
C978 C962 1.368 . S
C978 C974 1.368 . S
C978 C977 1.523 . S
H979 C954 0.950 . S
H980 C956 0.950 . S
H981 C957 0.949 . S
H982 C959 0.950 . S
H983 C961 0.950 . S
C984 C985 1.349 . S
C984 C986 1.327 . S
C984 H1009 0.950 . S
C985 C984 1.349 . S
C985 C1001 1.349 . S
C986 C984 1.327 . S
C986 C1005 1.429 . S
C986 H1010 0.950 . S
C987 C1004 1.574 . S
C987 C1006 1.368 . S
C987 H1011 0.949 . S
H988 C992 0.949 . S
C989 C990 1.349 . S
C989 C991 1.327 . S
C989 H1012 0.950 . S
C990 C989 1.349 . S
C990 C1002 1.349 . S
C991 C989 1.327 . S
C991 C1007 1.429 . S
C991 H1013 0.950 . S
C992 H988 0.949 . S
C992 C1000 1.574 . S
C992 C1008 1.368 . S
H993 C1001 0.950 . S
H994 C999 0.950 . S
H995 C1000 0.949 . S
H996 C1002 0.950 . S
H997 C1003 0.950 . S
H998 C1004 0.949 . S
C999 H994 0.950 . S
C999 C1001 1.327 . S
C999 C1005 1.429 . S
C1000 C992 1.574 . S
C1000 H995 0.949 . S
C1000 C1006 1.368 . S
C1001 C985 1.349 . S
C1001 H993 0.950 . S
C1001 C999 1.327 . S
C1002 C990 1.349 . S
C1002 H996 0.950 . S
C1002 C1003 1.327 . S
C1003 H997 0.950 . S
C1003 C1002 1.327 . S
C1003 C1007 1.429 . S
C1004 C987 1.574 . S
C1004 H998 0.949 . S
C1004 C1008 1.368 . S
C1005 C986 1.429 . S
C1005 C999 1.429 . S
C1005 C1006 1.523 . S
C1006 C987 1.368 . S
C1006 C1000 1.368 . S
C1006 C1005 1.523 . S
C1007 C991 1.429 . S
C1007 C1003 1.429 . S
C1007 C1008 1.523 . S
C1008 C992 1.368 . S
C1008 C1004 1.368 . S
C1008 C1007 1.523 . S
H1009 C984 0.950 . S
H1010 C986 0.950 . S
H1011 C987 0.949 . S
H1012 C989 0.950 . S
H1013 C991 0.950 . S
C1014 C1015 1.349 . S
C1014 C1016 1.327 . S
C1014 H1039 0.950 . S
C1015 C1014 1.349 . S
C1015 C1031 1.349 . S
C1016 C1014 1.327 . S
C1016 C1035 1.429 . S
C1016 H1040 0.950 . S
C1017 C1034 1.574 . S
C1017 C1036 1.368 . S
C1017 H1041 0.949 . S
H1018 C1022 0.949 . S
C1019 C1020 1.349 . S
C1019 C1021 1.327 . S
C1019 H1042 0.950 . S
C1020 C1019 1.349 . S
C1020 C1032 1.349 . S
C1021 C1019 1.327 . S
C1021 C1037 1.429 . S
C1021 H1043 0.950 . S
C1022 H1018 0.949 . S
C1022 C1030 1.574 . S
C1022 C1038 1.368 . S
H1023 C1031 0.950 . S
H1024 C1029 0.950 . S
H1025 C1030 0.949 . S
H1026 C1032 0.950 . S
H1027 C1033 0.950 . S
H1028 C1034 0.949 . S
C1029 H1024 0.950 . S
C1029 C1031 1.327 . S
C1029 C1035 1.429 . S
C1030 C1022 1.574 . S
C1030 H1025 0.949 . S
C1030 C1036 1.368 . S
C1031 C1015 1.349 . S
C1031 H1023 0.950 . S
C1031 C1029 1.327 . S
C1032 C1020 1.349 . S
C1032 H1026 0.950 . S
C1032 C1033 1.327 . S
C1033 H1027 0.950 . S
C1033 C1032 1.327 . S
C1033 C1037 1.429 . S
C1034 C1017 1.574 . S
C1034 H1028 0.949 . S
C1034 C1038 1.368 . S
C1035 C1016 1.429 . S
C1035 C1029 1.429 . S
C1035 C1036 1.523 . S
C1036 C1017 1.368 . S
C1036 C1030 1.368 . S
C1036 C1035 1.523 . S
C1037 C1021 1.429 . S
C1037 C1033 1.429 . S
C1037 C1038 1.523 . S
C1038 C1022 1.368 . S
C1038 C1034 1.368 . S
C1038 C1037 1.523 . S
H1039 C1014 0.950 . S
H1040 C1016 0.950 . S
H1041 C1017 0.949 . S
H1042 C1019 0.950 . S
H1043 C1021 0.950 . S
C1044 C1045 1.349 . S
C1044 C1046 1.327 . S
C1044 H1069 0.950 . S
C1045 C1044 1.349 . S
C1045 C1061 1.349 . S
C1046 C1044 1.327 . S
C1046 C1065 1.429 . S
C1046 H1070 0.950 . S
C1047 C1064 1.574 . S
C1047 C1066 1.368 . S
C1047 H1071 0.949 . S
H1048 C1052 0.949 . S
C1049 C1050 1.349 . S
C1049 C1051 1.327 . S
C1049 H1072 0.950 . S
C1050 C1049 1.349 . S
C1050 C1062 1.349 . S
C1051 C1049 1.327 . S
C1051 C1067 1.429 . S
C1051 H1073 0.950 . S
C1052 H1048 0.949 . S
C1052 C1060 1.574 . S
C1052 C1068 1.368 . S
H1053 C1061 0.950 . S
H1054 C1059 0.950 . S
H1055 C1060 0.949 . S
H1056 C1062 0.950 . S
H1057 C1063 0.950 . S
H1058 C1064 0.949 . S
C1059 H1054 0.950 . S
C1059 C1061 1.327 . S
C1059 C1065 1.429 . S
C1060 C1052 1.574 . S
C1060 H1055 0.949 . S
C1060 C1066 1.368 . S
C1061 C1045 1.349 . S
C1061 H1053 0.950 . S
C1061 C1059 1.327 . S
C1062 C1050 1.349 . S
C1062 H1056 0.950 . S
C1062 C1063 1.327 . S
C1063 H1057 0.950 . S
C1063 C1062 1.327 . S
C1063 C1067 1.429 . S
C1064 C1047 1.574 . S
C1064 H1058 0.949 . S
C1064 C1068 1.368 . S
C1065 C1046 1.429 . S
C1065 C1059 1.429 . S
C1065 C1066 1.523 . S
C1066 C1047 1.368 . S
C1066 C1060 1.368 . S
C1066 C1065 1.523 . S
C1067 C1051 1.429 . S
C1067 C1063 1.429 . S
C1067 C1068 1.523 . S
C1068 C1052 1.368 . S
C1068 C1064 1.368 . S
C1068 C1067 1.523 . S
H1069 C1044 0.950 . S
H1070 C1046 0.950 . S
H1071 C1047 0.949 . S
H1072 C1049 0.950 . S
H1073 C1051 0.950 . S
C1074 C1075 1.349 . S
C1074 C1076 1.327 . S
C1074 H1099 0.950 . S
C1075 C1074 1.349 . S
C1075 C1091 1.349 . S
C1076 C1074 1.327 . S
C1076 C1095 1.429 . S
C1076 H1100 0.950 . S
C1077 C1094 1.574 . S
C1077 C1096 1.368 . S
C1077 H1101 0.949 . S
H1078 C1082 0.949 . S
C1079 C1080 1.349 . S
C1079 C1081 1.327 . S
C1079 H1102 0.950 . S
C1080 C1079 1.349 . S
C1080 C1092 1.349 . S
C1081 C1079 1.327 . S
C1081 C1097 1.429 . S
C1081 H1103 0.950 . S
C1082 H1078 0.949 . S
C1082 C1090 1.574 . S
C1082 C1098 1.368 . S
H1083 C1091 0.950 . S
H1084 C1089 0.950 . S
H1085 C1090 0.949 . S
H1086 C1092 0.950 . S
H1087 C1093 0.950 . S
H1088 C1094 0.949 . S
C1089 H1084 0.950 . S
C1089 C1091 1.327 . S
C1089 C1095 1.429 . S
C1090 C1082 1.574 . S
C1090 H1085 0.949 . S
C1090 C1096 1.368 . S
C1091 C1075 1.349 . S
C1091 H1083 0.950 . S
C1091 C1089 1.327 . S
C1092 C1080 1.349 . S
C1092 H1086 0.950 . S
C1092 C1093 1.327 . S
C1093 H1087 0.950 . S
C1093 C1092 1.327 . S
C1093 C1097 1.429 . S
C1094 C1077 1.574 . S
C1094 H1088 0.949 . S
C1094 C1098 1.368 . S
C1095 C1076 1.429 . S
C1095 C1089 1.429 . S
C1095 C1096 1.523 . S
C1096 C1077 1.368 . S
C1096 C1090 1.368 . S
C1096 C1095 1.523 . S
C1097 C1081 1.429 . S
C1097 C1093 1.429 . S
C1097 C1098 1.523 . S
C1098 C1082 1.368 . S
C1098 C1094 1.368 . S
C1098 C1097 1.523 . S
H1099 C1074 0.950 . S
H1100 C1076 0.950 . S
H1101 C1077 0.949 . S
H1102 C1079 0.950 . S
H1103 C1081 0.950 . S
C1104 C1105 1.349 . S
C1104 C1106 1.327 . S
C1104 H1129 0.950 . S
C1105 C1104 1.349 . S
C1105 C1121 1.349 . S
C1106 C1104 1.327 . S
C1106 C1125 1.429 . S
C1106 H1130 0.950 . S
C1107 C1124 1.574 . S
C1107 C1126 1.368 . S
C1107 H1131 0.949 . S
H1108 C1112 0.949 . S
C1109 C1110 1.349 . S
C1109 C1111 1.327 . S
C1109 H1132 0.950 . S
C1110 C1109 1.349 . S
C1110 C1122 1.349 . S
C1111 C1109 1.327 . S
C1111 C1127 1.429 . S
C1111 H1133 0.950 . S
C1112 H1108 0.949 . S
C1112 C1120 1.574 . S
C1112 C1128 1.368 . S
H1113 C1121 0.950 . S
H1114 C1119 0.950 . S
H1115 C1120 0.949 . S
H1116 C1122 0.950 . S
H1117 C1123 0.950 . S
H1118 C1124 0.949 . S
C1119 H1114 0.950 . S
C1119 C1121 1.327 . S
C1119 C1125 1.429 . S
C1120 C1112 1.574 . S
C1120 H1115 0.949 . S
C1120 C1126 1.368 . S
C1121 C1105 1.349 . S
C1121 H1113 0.950 . S
C1121 C1119 1.327 . S
C1122 C1110 1.349 . S
C1122 H1116 0.950 . S
C1122 C1123 1.327 . S
C1123 H1117 0.950 . S
C1123 C1122 1.327 . S
C1123 C1127 1.429 . S
C1124 C1107 1.574 . S
C1124 H1118 0.949 . S
C1124 C1128 1.368 . S
C1125 C1106 1.429 . S
C1125 C1119 1.429 . S
C1125 C1126 1.523 . S
C1126 C1107 1.368 . S
C1126 C1120 1.368 . S
C1126 C1125 1.523 . S
C1127 C1111 1.429 . S
C1127 C1123 1.429 . S
C1127 C1128 1.523 . S
C1128 C1112 1.368 . S
C1128 C1124 1.368 . S
C1128 C1127 1.523 . S
H1129 C1104 0.950 . S
H1130 C1106 0.950 . S
H1131 C1107 0.949 . S
H1132 C1109 0.950 . S
H1133 C1111 0.950 . S
C1134 C1135 1.349 . S
C1134 C1136 1.327 . S
C1134 H1159 0.950 . S
C1135 C1134 1.349 . S
C1135 C1151 1.349 . S
C1136 C1134 1.327 . S
C1136 C1155 1.429 . S
C1136 H1160 0.950 . S
C1137 C1154 1.574 . S
C1137 C1156 1.368 . S
C1137 H1161 0.949 . S
H1138 C1142 0.949 . S
C1139 C1140 1.349 . S
C1139 C1141 1.327 . S
C1139 H1162 0.950 . S
C1140 C1139 1.349 . S
C1140 C1152 1.349 . S
C1141 C1139 1.327 . S
C1141 C1157 1.429 . S
C1141 H1163 0.950 . S
C1142 H1138 0.949 . S
C1142 C1150 1.574 . S
C1142 C1158 1.368 . S
H1143 C1151 0.950 . S
H1144 C1149 0.950 . S
H1145 C1150 0.949 . S
H1146 C1152 0.950 . S
H1147 C1153 0.950 . S
H1148 C1154 0.949 . S
C1149 H1144 0.950 . S
C1149 C1151 1.327 . S
C1149 C1155 1.429 . S
C1150 C1142 1.574 . S
C1150 H1145 0.949 . S
C1150 C1156 1.368 . S
C1151 C1135 1.349 . S
C1151 H1143 0.950 . S
C1151 C1149 1.327 . S
C1152 C1140 1.349 . S
C1152 H1146 0.950 . S
C1152 C1153 1.327 . S
C1153 H1147 0.950 . S
C1153 C1152 1.327 . S
C1153 C1157 1.429 . S
C1154 C1137 1.574 . S
C1154 H1148 0.949 . S
C1154 C1158 1.368 . S
C1155 C1136 1.429 . S
C1155 C1149 1.429 . S
C1155 C1156 1.523 . S
C1156 C1137 1.368 . S
C1156 C1150 1.368 . S
C1156 C1155 1.523 . S
C1157 C1141 1.429 . S
C1157 C1153 1.429 . S
C1157 C1158 1.523 . S
C1158 C1142 1.368 . S
C1158 C1154 1.368 . S
C1158 C1157 1.523 . S
H1159 C1134 0.950 . S
H1160 C1136 0.950 . S
H1161 C1137 0.949 . S
H1162 C1139 0.950 . S
H1163 C1141 0.950 . S
C1164 C1165 1.349 . S
C1164 C1166 1.327 . S
C1164 H1189 0.950 . S
C1165 C1164 1.349 . S
C1165 C1181 1.349 . S
C1166 C1164 1.327 . S
C1166 C1185 1.429 . S
C1166 H1190 0.950 . S
C1167 C1184 1.574 . S
C1167 C1186 1.368 . S
C1167 H1191 0.949 . S
H1168 C1172 0.949 . S
C1169 C1170 1.349 . S
C1169 C1171 1.327 . S
C1169 H1192 0.950 . S
C1170 C1169 1.349 . S
C1170 C1182 1.349 . S
C1171 C1169 1.327 . S
C1171 C1187 1.429 . S
C1171 H1193 0.950 . S
C1172 H1168 0.949 . S
C1172 C1180 1.574 . S
C1172 C1188 1.368 . S
H1173 C1181 0.950 . S
H1174 C1179 0.950 . S
H1175 C1180 0.949 . S
H1176 C1182 0.950 . S
H1177 C1183 0.950 . S
H1178 C1184 0.949 . S
C1179 H1174 0.950 . S
C1179 C1181 1.327 . S
C1179 C1185 1.429 . S
C1180 C1172 1.574 . S
C1180 H1175 0.949 . S
C1180 C1186 1.368 . S
C1181 C1165 1.349 . S
C1181 H1173 0.950 . S
C1181 C1179 1.327 . S
C1182 C1170 1.349 . S
C1182 H1176 0.950 . S
C1182 C1183 1.327 . S
C1183 H1177 0.950 . S
C1183 C1182 1.327 . S
C1183 C1187 1.429 . S
C1184 C1167 1.574 . S
C1184 H1178 0.949 . S
C1184 C1188 1.368 . S
C1185 C1166 1.429 . S
C1185 C1179 1.429 . S
C1185 C1186 1.523 . S
C1186 C1167 1.368 . S
C1186 C1180 1.368 . S
C1186 C1185 1.523 . S
C1187 C1171 1.429 . S
C1187 C1183 1.429 . S
C1187 C1188 1.523 . S
C1188 C1172 1.368 . S
C1188 C1184 1.368 . S
C1188 C1187 1.523 . S
H1189 C1164 0.950 . S
H1190 C1166 0.950 . S
H1191 C1167 0.949 . S
H1192 C1169 0.950 . S
H1193 C1171 0.950 . S
C1194 C1195 1.349 . S
C1194 C1196 1.327 . S
C1194 H1219 0.950 . S
C1195 C1194 1.349 . S
C1195 C1211 1.349 . S
C1196 C1194 1.327 . S
C1196 C1215 1.429 . S
C1196 H1220 0.950 . S
C1197 C1214 1.574 . S
C1197 C1216 1.368 . S
C1197 H1221 0.949 . S
H1198 C1202 0.949 . S
C1199 C1200 1.349 . S
C1199 C1201 1.327 . S
C1199 H1222 0.950 . S
C1200 C1199 1.349 . S
C1200 C1212 1.349 . S
C1201 C1199 1.327 . S
C1201 C1217 1.429 . S
C1201 H1223 0.950 . S
C1202 H1198 0.949 . S
C1202 C1210 1.574 . S
C1202 C1218 1.368 . S
H1203 C1211 0.950 . S
H1204 C1209 0.950 . S
H1205 C1210 0.949 . S
H1206 C1212 0.950 . S
H1207 C1213 0.950 . S
H1208 C1214 0.949 . S
C1209 H1204 0.950 . S
C1209 C1211 1.327 . S
C1209 C1215 1.429 . S
C1210 C1202 1.574 . S
C1210 H1205 0.949 . S
C1210 C1216 1.368 . S
C1211 C1195 1.349 . S
C1211 H1203 0.950 . S
C1211 C1209 1.327 . S
C1212 C1200 1.349 . S
C1212 H1206 0.950 . S
C1212 C1213 1.327 . S
C1213 H1207 0.950 . S
C1213 C1212 1.327 . S
C1213 C1217 1.429 . S
C1214 C1197 1.574 . S
C1214 H1208 0.949 . S
C1214 C1218 1.368 . S
C1215 C1196 1.429 . S
C1215 C1209 1.429 . S
C1215 C1216 1.523 . S
C1216 C1197 1.368 . S
C1216 C1210 1.368 . S
C1216 C1215 1.523 . S
C1217 C1201 1.429 . S
C1217 C1213 1.429 . S
C1217 C1218 1.523 . S
C1218 C1202 1.368 . S
C1218 C1214 1.368 . S
C1218 C1217 1.523 . S
H1219 C1194 0.950 . S
H1220 C1196 0.950 . S
H1221 C1197 0.949 . S
H1222 C1199 0.950 . S
H1223 C1201 0.950 . S
C1224 C1225 1.349 . S
C1224 C1226 1.327 . S
C1224 H1249 0.950 . S
C1225 C1224 1.349 . S
C1225 C1241 1.349 . S
C1226 C1224 1.327 . S
C1226 C1245 1.429 . S
C1226 H1250 0.950 . S
C1227 C1244 1.574 . S
C1227 C1246 1.368 . S
C1227 H1251 0.949 . S
H1228 C1232 0.949 . S
C1229 C1230 1.349 . S
C1229 C1231 1.327 . S
C1229 H1252 0.950 . S
C1230 C1229 1.349 . S
C1230 C1242 1.349 . S
C1231 C1229 1.327 . S
C1231 C1247 1.429 . S
C1231 H1253 0.950 . S
C1232 H1228 0.949 . S
C1232 C1240 1.574 . S
C1232 C1248 1.368 . S
H1233 C1241 0.950 . S
H1234 C1239 0.950 . S
H1235 C1240 0.949 . S
H1236 C1242 0.950 . S
H1237 C1243 0.950 . S
H1238 C1244 0.949 . S
C1239 H1234 0.950 . S
C1239 C1241 1.327 . S
C1239 C1245 1.429 . S
C1240 C1232 1.574 . S
C1240 H1235 0.949 . S
C1240 C1246 1.368 . S
C1241 C1225 1.349 . S
C1241 H1233 0.950 . S
C1241 C1239 1.327 . S
C1242 C1230 1.349 . S
C1242 H1236 0.950 . S
C1242 C1243 1.327 . S
C1243 H1237 0.950 . S
C1243 C1242 1.327 . S
C1243 C1247 1.429 . S
C1244 C1227 1.574 . S
C1244 H1238 0.949 . S
C1244 C1248 1.368 . S
C1245 C1226 1.429 . S
C1245 C1239 1.429 . S
C1245 C1246 1.523 . S
C1246 C1227 1.368 . S
C1246 C1240 1.368 . S
C1246 C1245 1.523 . S
C1247 C1231 1.429 . S
C1247 C1243 1.429 . S
C1247 C1248 1.523 . S
C1248 C1232 1.368 . S
C1248 C1244 1.368 . S
C1248 C1247 1.523 . S
H1249 C1224 0.950 . S
H1250 C1226 0.950 . S
H1251 C1227 0.949 . S
H1252 C1229 0.950 . S
H1253 C1231 0.950 . S
C1254 C1255 1.349 . S
C1254 C1256 1.327 . S
C1254 H1279 0.950 . S
C1255 C1254 1.349 . S
C1255 C1271 1.349 . S
C1256 C1254 1.327 . S
C1256 C1275 1.429 . S
C1256 H1280 0.950 . S
C1257 C1274 1.574 . S
C1257 C1276 1.368 . S
C1257 H1281 0.949 . S
H1258 C1262 0.949 . S
C1259 C1260 1.349 . S
C1259 C1261 1.327 . S
C1259 H1282 0.950 . S
C1260 C1259 1.349 . S
C1260 C1272 1.349 . S
C1261 C1259 1.327 . S
C1261 C1277 1.429 . S
C1261 H1283 0.950 . S
C1262 H1258 0.949 . S
C1262 C1270 1.574 . S
C1262 C1278 1.368 . S
H1263 C1271 0.950 . S
H1264 C1269 0.950 . S
H1265 C1270 0.949 . S
H1266 C1272 0.950 . S
H1267 C1273 0.950 . S
H1268 C1274 0.949 . S
C1269 H1264 0.950 . S
C1269 C1271 1.327 . S
C1269 C1275 1.429 . S
C1270 C1262 1.574 . S
C1270 H1265 0.949 . S
C1270 C1276 1.368 . S
C1271 C1255 1.349 . S
C1271 H1263 0.950 . S
C1271 C1269 1.327 . S
C1272 C1260 1.349 . S
C1272 H1266 0.950 . S
C1272 C1273 1.327 . S
C1273 H1267 0.950 . S
C1273 C1272 1.327 . S
C1273 C1277 1.429 . S
C1274 C1257 1.574 . S
C1274 H1268 0.949 . S
C1274 C1278 1.368 . S
C1275 C1256 1.429 . S
C1275 C1269 1.429 . S
C1275 C1276 1.523 . S
C1276 C1257 1.368 . S
C1276 C1270 1.368 . S
C1276 C1275 1.523 . S
C1277 C1261 1.429 . S
C1277 C1273 1.429 . S
C1277 C1278 1.523 . S
C1278 C1262 1.368 . S
C1278 C1274 1.368 . S
C1278 C1277 1.523 . S
H1279 C1254 0.950 . S
H1280 C1256 0.950 . S
H1281 C1257 0.949 . S
H1282 C1259 0.950 . S
H1283 C1261 0.950 . S
C1284 C1285 1.349 . S
C1284 C1286 1.327 . S
C1284 H1309 0.950 . S
C1285 C1284 1.349 . S
C1285 C1301 1.349 . S
C1286 C1284 1.327 . S
C1286 C1305 1.429 . S
C1286 H1310 0.950 . S
C1287 C1304 1.574 . S
C1287 C1306 1.368 . S
C1287 H1311 0.949 . S
H1288 C1292 0.949 . S
C1289 C1290 1.349 . S
C1289 C1291 1.327 . S
C1289 H1312 0.950 . S
C1290 C1289 1.349 . S
C1290 C1302 1.349 . S
C1291 C1289 1.327 . S
C1291 C1307 1.429 . S
C1291 H1313 0.950 . S
C1292 H1288 0.949 . S
C1292 C1300 1.574 . S
C1292 C1308 1.368 . S
H1293 C1301 0.950 . S
H1294 C1299 0.950 . S
H1295 C1300 0.949 . S
H1296 C1302 0.950 . S
H1297 C1303 0.950 . S
H1298 C1304 0.949 . S
C1299 H1294 0.950 . S
C1299 C1301 1.327 . S
C1299 C1305 1.429 . S
C1300 C1292 1.574 . S
C1300 H1295 0.949 . S
C1300 C1306 1.368 . S
C1301 C1285 1.349 . S
C1301 H1293 0.950 . S
C1301 C1299 1.327 . S
C1302 C1290 1.349 . S
C1302 H1296 0.950 . S
C1302 C1303 1.327 . S
C1303 H1297 0.950 . S
C1303 C1302 1.327 . S
C1303 C1307 1.429 . S
C1304 C1287 1.574 . S
C1304 H1298 0.949 . S
C1304 C1308 1.368 . S
C1305 C1286 1.429 . S
C1305 C1299 1.429 . S
C1305 C1306 1.523 . S
C1306 C1287 1.368 . S
C1306 C1300 1.368 . S
C1306 C1305 1.523 . S
C1307 C1291 1.429 . S
C1307 C1303 1.429 . S
C1307 C1308 1.523 . S
C1308 C1292 1.368 . S
C1308 C1304 1.368 . S
C1308 C1307 1.523 . S
H1309 C1284 0.950 . S
H1310 C1286 0.950 . S
H1311 C1287 0.949 . S
H1312 C1289 0.950 . S
H1313 C1291 0.950 . S
C1314 C1315 1.349 . S
C1314 C1316 1.327 . S
C1314 H1339 0.950 . S
C1315 C1314 1.349 . S
C1315 C1331 1.349 . S
C1316 C1314 1.327 . S
C1316 C1335 1.429 . S
C1316 H1340 0.950 . S
C1317 C1334 1.574 . S
C1317 C1336 1.368 . S
C1317 H1341 0.949 . S
H1318 C1322 0.949 . S
C1319 C1320 1.349 . S
C1319 C1321 1.327 . S
C1319 H1342 0.950 . S
C1320 C1319 1.349 . S
C1320 C1332 1.349 . S
C1321 C1319 1.327 . S
C1321 C1337 1.429 . S
C1321 H1343 0.950 . S
C1322 H1318 0.949 . S
C1322 C1330 1.574 . S
C1322 C1338 1.368 . S
H1323 C1331 0.950 . S
H1324 C1329 0.950 . S
H1325 C1330 0.949 . S
H1326 C1332 0.950 . S
H1327 C1333 0.950 . S
H1328 C1334 0.949 . S
C1329 H1324 0.950 . S
C1329 C1331 1.327 . S
C1329 C1335 1.429 . S
C1330 C1322 1.574 . S
C1330 H1325 0.949 . S
C1330 C1336 1.368 . S
C1331 C1315 1.349 . S
C1331 H1323 0.950 . S
C1331 C1329 1.327 . S
C1332 C1320 1.349 . S
C1332 H1326 0.950 . S
C1332 C1333 1.327 . S
C1333 H1327 0.950 . S
C1333 C1332 1.327 . S
C1333 C1337 1.429 . S
C1334 C1317 1.574 . S
C1334 H1328 0.949 . S
C1334 C1338 1.368 . S
C1335 C1316 1.429 . S
C1335 C1329 1.429 . S
C1335 C1336 1.523 . S
C1336 C1317 1.368 . S
C1336 C1330 1.368 . S
C1336 C1335 1.523 . S
C1337 C1321 1.429 . S
C1337 C1333 1.429 . S
C1337 C1338 1.523 . S
C1338 C1322 1.368 . S
C1338 C1334 1.368 . S
C1338 C1337 1.523 . S
H1339 C1314 0.950 . S
H1340 C1316 0.950 . S
H1341 C1317 0.949 . S
H1342 C1319 0.950 . S
H1343 C1321 0.950 . S
C1344 C1345 1.349 . S
C1344 C1346 1.327 . S
C1344 H1369 0.950 . S
C1345 C1344 1.349 . S
C1345 C1361 1.349 . S
C1346 C1344 1.327 . S
C1346 C1365 1.429 . S
C1346 H1370 0.950 . S
C1347 C1364 1.574 . S
C1347 C1366 1.368 . S
C1347 H1371 0.949 . S
H1348 C1352 0.949 . S
C1349 C1350 1.349 . S
C1349 C1351 1.327 . S
C1349 H1372 0.950 . S
C1350 C1349 1.349 . S
C1350 C1362 1.349 . S
C1351 C1349 1.327 . S
C1351 C1367 1.429 . S
C1351 H1373 0.950 . S
C1352 H1348 0.949 . S
C1352 C1360 1.574 . S
C1352 C1368 1.368 . S
H1353 C1361 0.950 . S
H1354 C1359 0.950 . S
H1355 C1360 0.949 . S
H1356 C1362 0.950 . S
H1357 C1363 0.950 . S
H1358 C1364 0.949 . S
C1359 H1354 0.950 . S
C1359 C1361 1.327 . S
C1359 C1365 1.429 . S
C1360 C1352 1.574 . S
C1360 H1355 0.949 . S
C1360 C1366 1.368 . S
C1361 C1345 1.349 . S
C1361 H1353 0.950 . S
C1361 C1359 1.327 . S
C1362 C1350 1.349 . S
C1362 H1356 0.950 . S
C1362 C1363 1.327 . S
C1363 H1357 0.950 . S
C1363 C1362 1.327 . S
C1363 C1367 1.429 . S
C1364 C1347 1.574 . S
C1364 H1358 0.949 . S
C1364 C1368 1.368 . S
C1365 C1346 1.429 . S
C1365 C1359 1.429 . S
C1365 C1366 1.523 . S
C1366 C1347 1.368 . S
C1366 C1360 1.368 . S
C1366 C1365 1.523 . S
C1367 C1351 1.429 . S
C1367 C1363 1.429 . S
C1367 C1368 1.523 . S
C1368 C1352 1.368 . S
C1368 C1364 1.368 . S
C1368 C1367 1.523 . S
H1369 C1344 0.950 . S
H1370 C1346 0.950 . S
H1371 C1347 0.949 . S
H1372 C1349 0.950 . S
H1373 C1351 0.950 . S
C1374 C1375 1.349 . S
C1374 C1376 1.327 . S
C1374 H1399 0.950 . S
C1375 C1374 1.349 . S
C1375 C1391 1.349 . S
C1376 C1374 1.327 . S
C1376 C1395 1.429 . S
C1376 H1400 0.950 . S
C1377 C1394 1.574 . S
C1377 C1396 1.368 . S
C1377 H1401 0.949 . S
H1378 C1382 0.949 . S
C1379 C1380 1.349 . S
C1379 C1381 1.327 . S
C1379 H1402 0.950 . S
C1380 C1379 1.349 . S
C1380 C1392 1.349 . S
C1381 C1379 1.327 . S
C1381 C1397 1.429 . S
C1381 H1403 0.950 . S
C1382 H1378 0.949 . S
C1382 C1390 1.574 . S
C1382 C1398 1.368 . S
H1383 C1391 0.950 . S
H1384 C1389 0.950 . S
H1385 C1390 0.949 . S
H1386 C1392 0.950 . S
H1387 C1393 0.950 . S
H1388 C1394 0.949 . S
C1389 H1384 0.950 . S
C1389 C1391 1.327 . S
C1389 C1395 1.429 . S
C1390 C1382 1.574 . S
C1390 H1385 0.949 . S
C1390 C1396 1.368 . S
C1391 C1375 1.349 . S
C1391 H1383 0.950 . S
C1391 C1389 1.327 . S
C1392 C1380 1.349 . S
C1392 H1386 0.950 . S
C1392 C1393 1.327 . S
C1393 H1387 0.950 . S
C1393 C1392 1.327 . S
C1393 C1397 1.429 . S
C1394 C1377 1.574 . S
C1394 H1388 0.949 . S
C1394 C1398 1.368 . S
C1395 C1376 1.429 . S
C1395 C1389 1.429 . S
C1395 C1396 1.523 . S
C1396 C1377 1.368 . S
C1396 C1390 1.368 . S
C1396 C1395 1.523 . S
C1397 C1381 1.429 . S
C1397 C1393 1.429 . S
C1397 C1398 1.523 . S
C1398 C1382 1.368 . S
C1398 C1394 1.368 . S
C1398 C1397 1.523 . S
H1399 C1374 0.950 . S
H1400 C1376 0.950 . S
H1401 C1377 0.949 . S
H1402 C1379 0.950 . S
H1403 C1381 0.950 . S
C1404 C1405 1.349 . S
C1404 C1406 1.327 . S
C1404 H1429 0.950 . S
C1405 C1404 1.349 . S
C1405 C1421 1.349 . S
C1406 C1404 1.327 . S
C1406 C1425 1.429 . S
C1406 H1430 0.950 . S
C1407 C1424 1.574 . S
C1407 C1426 1.368 . S
C1407 H1431 0.949 . S
H1408 C1412 0.949 . S
C1409 C1410 1.349 . S
C1409 C1411 1.327 . S
C1409 H1432 0.950 . S
C1410 C1409 1.349 . S
C1410 C1422 1.349 . S
C1411 C1409 1.327 . S
C1411 C1427 1.429 . S
C1411 H1433 0.950 . S
C1412 H1408 0.949 . S
C1412 C1420 1.574 . S
C1412 C1428 1.368 . S
H1413 C1421 0.950 . S
H1414 C1419 0.950 . S
H1415 C1420 0.949 . S
H1416 C1422 0.950 . S
H1417 C1423 0.950 . S
H1418 C1424 0.949 . S
C1419 H1414 0.950 . S
C1419 C1421 1.327 . S
C1419 C1425 1.429 . S
C1420 C1412 1.574 . S
C1420 H1415 0.949 . S
C1420 C1426 1.368 . S
C1421 C1405 1.349 . S
C1421 H1413 0.950 . S
C1421 C1419 1.327 . S
C1422 C1410 1.349 . S
C1422 H1416 0.950 . S
C1422 C1423 1.327 . S
C1423 H1417 0.950 . S
C1423 C1422 1.327 . S
C1423 C1427 1.429 . S
C1424 C1407 1.574 . S
C1424 H1418 0.949 . S
C1424 C1428 1.368 . S
C1425 C1406 1.429 . S
C1425 C1419 1.429 . S
C1425 C1426 1.523 . S
C1426 C1407 1.368 . S
C1426 C1420 1.368 . S
C1426 C1425 1.523 . S
C1427 C1411 1.429 . S
C1427 C1423 1.429 . S
C1427 C1428 1.523 . S
C1428 C1412 1.368 . S
C1428 C1424 1.368 . S
C1428 C1427 1.523 . S
H1429 C1404 0.950 . S
H1430 C1406 0.950 . S
H1431 C1407 0.949 . S
H1432 C1409 0.950 . S
H1433 C1411 0.950 . S
C1434 C1435 1.349 . S
C1434 C1436 1.327 . S
C1434 H1459 0.950 . S
C1435 C1434 1.349 . S
C1435 C1451 1.349 . S
C1436 C1434 1.327 . S
C1436 C1455 1.429 . S
C1436 H1460 0.950 . S
C1437 C1454 1.574 . S
C1437 C1456 1.368 . S
C1437 H1461 0.949 . S
H1438 C1442 0.949 . S
C1439 C1440 1.349 . S
C1439 C1441 1.327 . S
C1439 H1462 0.950 . S
C1440 C1439 1.349 . S
C1440 C1452 1.349 . S
C1441 C1439 1.327 . S
C1441 C1457 1.429 . S
C1441 H1463 0.950 . S
C1442 H1438 0.949 . S
C1442 C1450 1.574 . S
C1442 C1458 1.368 . S
H1443 C1451 0.950 . S
H1444 C1449 0.950 . S
H1445 C1450 0.949 . S
H1446 C1452 0.950 . S
H1447 C1453 0.950 . S
H1448 C1454 0.949 . S
C1449 H1444 0.950 . S
C1449 C1451 1.327 . S
C1449 C1455 1.429 . S
C1450 C1442 1.574 . S
C1450 H1445 0.949 . S
C1450 C1456 1.368 . S
C1451 C1435 1.349 . S
C1451 H1443 0.950 . S
C1451 C1449 1.327 . S
C1452 C1440 1.349 . S
C1452 H1446 0.950 . S
C1452 C1453 1.327 . S
C1453 H1447 0.950 . S
C1453 C1452 1.327 . S
C1453 C1457 1.429 . S
C1454 C1437 1.574 . S
C1454 H1448 0.949 . S
C1454 C1458 1.368 . S
C1455 C1436 1.429 . S
C1455 C1449 1.429 . S
C1455 C1456 1.523 . S
C1456 C1437 1.368 . S
C1456 C1450 1.368 . S
C1456 C1455 1.523 . S
C1457 C1441 1.429 . S
C1457 C1453 1.429 . S
C1457 C1458 1.523 . S
C1458 C1442 1.368 . S
C1458 C1454 1.368 . S
C1458 C1457 1.523 . S
H1459 C1434 0.950 . S
H1460 C1436 0.950 . S
H1461 C1437 0.949 . S
H1462 C1439 0.950 . S
H1463 C1441 0.950 . S
C1464 C1465 1.349 . S
C1464 C1466 1.327 . S
C1464 H1489 0.950 . S
C1465 C1464 1.349 . S
C1465 C1481 1.349 . S
C1466 C1464 1.327 . S
C1466 C1485 1.429 . S
C1466 H1490 0.950 . S
C1467 C1484 1.574 . S
C1467 C1486 1.368 . S
C1467 H1491 0.949 . S
H1468 C1472 0.949 . S
C1469 C1470 1.349 . S
C1469 C1471 1.327 . S
C1469 H1492 0.950 . S
C1470 C1469 1.349 . S
C1470 C1482 1.349 . S
C1471 C1469 1.327 . S
C1471 C1487 1.429 . S
C1471 H1493 0.950 . S
C1472 H1468 0.949 . S
C1472 C1480 1.574 . S
C1472 C1488 1.368 . S
H1473 C1481 0.950 . S
H1474 C1479 0.950 . S
H1475 C1480 0.949 . S
H1476 C1482 0.950 . S
H1477 C1483 0.950 . S
H1478 C1484 0.949 . S
C1479 H1474 0.950 . S
C1479 C1481 1.327 . S
C1479 C1485 1.429 . S
C1480 C1472 1.574 . S
C1480 H1475 0.949 . S
C1480 C1486 1.368 . S
C1481 C1465 1.349 . S
C1481 H1473 0.950 . S
C1481 C1479 1.327 . S
C1482 C1470 1.349 . S
C1482 H1476 0.950 . S
C1482 C1483 1.327 . S
C1483 H1477 0.950 . S
C1483 C1482 1.327 . S
C1483 C1487 1.429 . S
C1484 C1467 1.574 . S
C1484 H1478 0.949 . S
C1484 C1488 1.368 . S
C1485 C1466 1.429 . S
C1485 C1479 1.429 . S
C1485 C1486 1.523 . S
C1486 C1467 1.368 . S
C1486 C1480 1.368 . S
C1486 C1485 1.523 . S
C1487 C1471 1.429 . S
C1487 C1483 1.429 . S
C1487 C1488 1.523 . S
C1488 C1472 1.368 . S
C1488 C1484 1.368 . S
C1488 C1487 1.523 . S
H1489 C1464 0.950 . S
H1490 C1466 0.950 . S
H1491 C1467 0.949 . S
H1492 C1469 0.950 . S
H1493 C1471 0.950 . S
C1494 C1495 1.349 . S
C1494 C1496 1.327 . S
C1494 H1519 0.950 . S
C1495 C1494 1.349 . S
C1495 C1511 1.349 . S
C1496 C1494 1.327 . S
C1496 C1515 1.429 . S
C1496 H1520 0.950 . S
C1497 C1514 1.574 . S
C1497 C1516 1.368 . S
C1497 H1521 0.949 . S
H1498 C1502 0.949 . S
C1499 C1500 1.349 . S
C1499 C1501 1.327 . S
C1499 H1522 0.950 . S
C1500 C1499 1.349 . S
C1500 C1512 1.349 . S
C1501 C1499 1.327 . S
C1501 C1517 1.429 . S
C1501 H1523 0.950 . S
C1502 H1498 0.949 . S
C1502 C1510 1.574 . S
C1502 C1518 1.368 . S
H1503 C1511 0.950 . S
H1504 C1509 0.950 . S
H1505 C1510 0.949 . S
H1506 C1512 0.950 . S
H1507 C1513 0.950 . S
H1508 C1514 0.949 . S
C1509 H1504 0.950 . S
C1509 C1511 1.327 . S
C1509 C1515 1.429 . S
C1510 C1502 1.574 . S
C1510 H1505 0.949 . S
C1510 C1516 1.368 . S
C1511 C1495 1.349 . S
C1511 H1503 0.950 . S
C1511 C1509 1.327 . S
C1512 C1500 1.349 . S
C1512 H1506 0.950 . S
C1512 C1513 1.327 . S
C1513 H1507 0.950 . S
C1513 C1512 1.327 . S
C1513 C1517 1.429 . S
C1514 C1497 1.574 . S
C1514 H1508 0.949 . S
C1514 C1518 1.368 . S
C1515 C1496 1.429 . S
C1515 C1509 1.429 . S
C1515 C1516 1.523 . S
C1516 C1497 1.368 . S
C1516 C1510 1.368 . S
C1516 C1515 1.523 . S
C1517 C1501 1.429 . S
C1517 C1513 1.429 . S
C1517 C1518 1.523 . S
C1518 C1502 1.368 . S
C1518 C1514 1.368 . S
C1518 C1517 1.523 . S
H1519 C1494 0.950 . S
H1520 C1496 0.950 . S
H1521 C1497 0.949 . S
H1522 C1499 0.950 . S
H1523 C1501 0.950 . S
C1524 C1525 1.349 . S
C1524 C1526 1.327 . S
C1524 H1549 0.950 . S
C1525 C1524 1.349 . S
C1525 C1541 1.349 . S
C1526 C1524 1.327 . S
C1526 C1545 1.429 . S
C1526 H1550 0.950 . S
C1527 C1544 1.574 . S
C1527 C1546 1.368 . S
C1527 H1551 0.949 . S
H1528 C1532 0.949 . S
C1529 C1530 1.349 . S
C1529 C1531 1.327 . S
C1529 H1552 0.950 . S
C1530 C1529 1.349 . S
C1530 C1542 1.349 . S
C1531 C1529 1.327 . S
C1531 C1547 1.429 . S
C1531 H1553 0.950 . S
C1532 H1528 0.949 . S
C1532 C1540 1.574 . S
C1532 C1548 1.368 . S
H1533 C1541 0.950 . S
H1534 C1539 0.950 . S
H1535 C1540 0.949 . S
H1536 C1542 0.950 . S
H1537 C1543 0.950 . S
H1538 C1544 0.949 . S
C1539 H1534 0.950 . S
C1539 C1541 1.327 . S
C1539 C1545 1.429 . S
C1540 C1532 1.574 . S
C1540 H1535 0.949 . S
C1540 C1546 1.368 . S
C1541 C1525 1.349 . S
C1541 H1533 0.950 . S
C1541 C1539 1.327 . S
C1542 C1530 1.349 . S
C1542 H1536 0.950 . S
C1542 C1543 1.327 . S
C1543 H1537 0.950 . S
C1543 C1542 1.327 . S
C1543 C1547 1.429 . S
C1544 C1527 1.574 . S
C1544 H1538 0.949 . S
C1544 C1548 1.368 . S
C1545 C1526 1.429 . S
C1545 C1539 1.429 . S
C1545 C1546 1.523 . S
C1546 C1527 1.368 . S
C1546 C1540 1.368 . S
C1546 C1545 1.523 . S
C1547 C1531 1.429 . S
C1547 C1543 1.429 . S
C1547 C1548 1.523 . S
C1548 C1532 1.368 . S
C1548 C1544 1.368 . S
C1548 C1547 1.523 . S
H1549 C1524 0.950 . S
H1550 C1526 0.950 . S
H1551 C1527 0.949 . S
H1552 C1529 0.950 . S
H1553 C1531 0.950 . S
C1554 C1555 1.349 . S
C1554 C1556 1.327 . S
C1554 H1579 0.950 . S
C1555 C1554 1.349 . S
C1555 C1571 1.349 . S
C1556 C1554 1.327 . S
C1556 C1575 1.429 . S
C1556 H1580 0.950 . S
C1557 C1574 1.574 . S
C1557 C1576 1.368 . S
C1557 H1581 0.949 . S
H1558 C1562 0.949 . S
C1559 C1560 1.349 . S
C1559 C1561 1.327 . S
C1559 H1582 0.950 . S
C1560 C1559 1.349 . S
C1560 C1572 1.349 . S
C1561 C1559 1.327 . S
C1561 C1577 1.429 . S
C1561 H1583 0.950 . S
C1562 H1558 0.949 . S
C1562 C1570 1.574 . S
C1562 C1578 1.368 . S
H1563 C1571 0.950 . S
H1564 C1569 0.950 . S
H1565 C1570 0.949 . S
H1566 C1572 0.950 . S
H1567 C1573 0.950 . S
H1568 C1574 0.949 . S
C1569 H1564 0.950 . S
C1569 C1571 1.327 . S
C1569 C1575 1.429 . S
C1570 C1562 1.574 . S
C1570 H1565 0.949 . S
C1570 C1576 1.368 . S
C1571 C1555 1.349 . S
C1571 H1563 0.950 . S
C1571 C1569 1.327 . S
C1572 C1560 1.349 . S
C1572 H1566 0.950 . S
C1572 C1573 1.327 . S
C1573 H1567 0.950 . S
C1573 C1572 1.327 . S
C1573 C1577 1.429 . S
C1574 C1557 1.574 . S
C1574 H1568 0.949 . S
C1574 C1578 1.368 . S
C1575 C1556 1.429 . S
C1575 C1569 1.429 . S
C1575 C1576 1.523 . S
C1576 C1557 1.368 . S
C1576 C1570 1.368 . S
C1576 C1575 1.523 . S
C1577 C1561 1.429 . S
C1577 C1573 1.429 . S
C1577 C1578 1.523 . S
C1578 C1562 1.368 . S
C1578 C1574 1.368 . S
C1578 C1577 1.523 . S
H1579 C1554 0.950 . S
H1580 C1556 0.950 . S
H1581 C1557 0.949 . S
H1582 C1559 0.950 . S
H1583 C1561 0.950 . S
C1584 C1585 1.349 . S
C1584 C1586 1.327 . S
C1584 H1609 0.950 . S
C1585 C1584 1.349 . S
C1585 C1601 1.349 . S
C1586 C1584 1.327 . S
C1586 C1605 1.429 . S
C1586 H1610 0.950 . S
C1587 C1604 1.574 . S
C1587 C1606 1.368 . S
C1587 H1611 0.949 . S
H1588 C1592 0.949 . S
C1589 C1590 1.349 . S
C1589 C1591 1.327 . S
C1589 H1612 0.950 . S
C1590 C1589 1.349 . S
C1590 C1602 1.349 . S
C1591 C1589 1.327 . S
C1591 C1607 1.429 . S
C1591 H1613 0.950 . S
C1592 H1588 0.949 . S
C1592 C1600 1.574 . S
C1592 C1608 1.368 . S
H1593 C1601 0.950 . S
H1594 C1599 0.950 . S
H1595 C1600 0.949 . S
H1596 C1602 0.950 . S
H1597 C1603 0.950 . S
H1598 C1604 0.949 . S
C1599 H1594 0.950 . S
C1599 C1601 1.327 . S
C1599 C1605 1.429 . S
C1600 C1592 1.574 . S
C1600 H1595 0.949 . S
C1600 C1606 1.368 . S
C1601 C1585 1.349 . S
C1601 H1593 0.950 . S
C1601 C1599 1.327 . S
C1602 C1590 1.349 . S
C1602 H1596 0.950 . S
C1602 C1603 1.327 . S
C1603 H1597 0.950 . S
C1603 C1602 1.327 . S
C1603 C1607 1.429 . S
C1604 C1587 1.574 . S
C1604 H1598 0.949 . S
C1604 C1608 1.368 . S
C1605 C1586 1.429 . S
C1605 C1599 1.429 . S
C1605 C1606 1.523 . S
C1606 C1587 1.368 . S
C1606 C1600 1.368 . S
C1606 C1605 1.523 . S
C1607 C1591 1.429 . S
C1607 C1603 1.429 . S
C1607 C1608 1.523 . S
C1608 C1592 1.368 . S
C1608 C1604 1.368 . S
C1608 C1607 1.523 . S
H1609 C1584 0.950 . S
H1610 C1586 0.950 . S
H1611 C1587 0.949 . S
H1612 C1589 0.950 . S
H1613 C1591 0.950 . S
C1614 C1615 1.349 . S
C1614 C1616 1.327 . S
C1614 H1639 0.950 . S
C1615 C1614 1.349 . S
C1615 C1631 1.349 . S
C1616 C1614 1.327 . S
C1616 C1635 1.429 . S
C1616 H1640 0.950 . S
C1617 C1634 1.574 . S
C1617 C1636 1.368 . S
C1617 H1641 0.949 . S
H1618 C1622 0.949 . S
C1619 C1620 1.349 . S
C1619 C1621 1.327 . S
C1619 H1642 0.950 . S
C1620 C1619 1.349 . S
C1620 C1632 1.349 . S
C1621 C1619 1.327 . S
C1621 C1637 1.429 . S
C1621 H1643 0.950 . S
C1622 H1618 0.949 . S
C1622 C1630 1.574 . S
C1622 C1638 1.368 . S
H1623 C1631 0.950 . S
H1624 C1629 0.950 . S
H1625 C1630 0.949 . S
H1626 C1632 0.950 . S
H1627 C1633 0.950 . S
H1628 C1634 0.949 . S
C1629 H1624 0.950 . S
C1629 C1631 1.327 . S
C1629 C1635 1.429 . S
C1630 C1622 1.574 . S
C1630 H1625 0.949 . S
C1630 C1636 1.368 1_545 S
C1631 C1615 1.349 . S
C1631 H1623 0.950 . S
C1631 C1629 1.327 . S
C1632 C1620 1.349 . S
C1632 H1626 0.950 . S
C1632 C1633 1.327 . S
C1633 H1627 0.950 . S
C1633 C1632 1.327 . S
C1633 C1637 1.429 . S
C1634 C1617 1.574 . S
C1634 H1628 0.949 . S
C1634 C1638 1.368 1_565 S
C1635 C1616 1.429 . S
C1635 C1629 1.429 . S
C1635 C1636 1.523 . S
C1636 C1617 1.368 . S
C1636 C1630 1.368 1_565 S
C1636 C1635 1.523 . S
C1637 C1621 1.429 . S
C1637 C1633 1.429 . S
C1637 C1638 1.523 . S
C1638 C1622 1.368 . S
C1638 C1634 1.368 1_545 S
C1638 C1637 1.523 . S
H1639 C1614 0.950 . S
H1640 C1616 0.950 . S
H1641 C1617 0.949 . S
H1642 C1619 0.950 . S
H1643 C1621 0.950 . S
C1644 C1645 1.349 . S
C1644 C1646 1.327 . S
C1644 H1669 0.950 . S
C1645 C1644 1.349 . S
C1645 C1661 1.349 . S
C1646 C1644 1.327 . S
C1646 C1665 1.429 . S
C1646 H1670 0.950 . S
C1647 C1664 1.574 1_655 S
C1647 C1666 1.368 . S
C1647 H1671 0.949 . S
H1648 C1652 0.949 . S
C1649 C1650 1.349 . S
C1649 C1651 1.327 . S
C1649 H1672 0.950 . S
C1650 C1649 1.349 . S
C1650 C1662 1.349 . S
C1651 C1649 1.327 . S
C1651 C1667 1.429 . S
C1651 H1673 0.950 . S
C1652 H1648 0.949 . S
C1652 C1660 1.574 1_455 S
C1652 C1668 1.368 . S
H1653 C1661 0.950 . S
H1654 C1659 0.950 . S
H1655 C1660 0.949 . S
H1656 C1662 0.950 . S
H1657 C1663 0.950 . S
H1658 C1664 0.949 . S
C1659 H1654 0.950 . S
C1659 C1661 1.327 . S
C1659 C1665 1.429 . S
C1660 C1652 1.574 1_655 S
C1660 H1655 0.949 . S
C1660 C1666 1.368 . S
C1661 C1645 1.349 . S
C1661 H1653 0.950 . S
C1661 C1659 1.327 . S
C1662 C1650 1.349 . S
C1662 H1656 0.950 . S
C1662 C1663 1.327 . S
C1663 H1657 0.950 . S
C1663 C1662 1.327 . S
C1663 C1667 1.429 . S
C1664 C1647 1.574 1_455 S
C1664 H1658 0.949 . S
C1664 C1668 1.368 . S
C1665 C1646 1.429 . S
C1665 C1659 1.429 . S
C1665 C1666 1.523 . S
C1666 C1647 1.368 . S
C1666 C1660 1.368 . S
C1666 C1665 1.523 . S
C1667 C1651 1.429 . S
C1667 C1663 1.429 . S
C1667 C1668 1.523 . S
C1668 C1652 1.368 . S
C1668 C1664 1.368 . S
C1668 C1667 1.523 . S
H1669 C1644 0.950 . S
H1670 C1646 0.950 . S
H1671 C1647 0.949 . S
H1672 C1649 0.950 . S
H1673 C1651 0.950 . S
C1674 C1675 1.349 . S
C1674 C1676 1.327 . S
C1674 H1699 0.950 . S
C1675 C1674 1.349 . S
C1675 C1691 1.349 . S
C1676 C1674 1.327 . S
C1676 C1695 1.429 . S
C1676 H1700 0.950 . S
C1677 C1694 1.574 . S
C1677 C1696 1.368 . S
C1677 H1701 0.949 . S
H1678 C1682 0.949 . S
C1679 C1680 1.349 . S
C1679 C1681 1.327 . S
C1679 H1702 0.950 . S
C1680 C1679 1.349 . S
C1680 C1692 1.349 . S
C1681 C1679 1.327 . S
C1681 C1697 1.429 . S
C1681 H1703 0.950 . S
C1682 H1678 0.949 . S
C1682 C1690 1.574 . S
C1682 C1698 1.368 . S
H1683 C1691 0.950 . S
H1684 C1689 0.950 . S
H1685 C1690 0.949 . S
H1686 C1692 0.950 . S
H1687 C1693 0.950 . S
H1688 C1694 0.949 . S
C1689 H1684 0.950 . S
C1689 C1691 1.327 . S
C1689 C1695 1.429 . S
C1690 C1682 1.574 . S
C1690 H1685 0.949 . S
C1690 C1696 1.368 . S
C1691 C1675 1.349 . S
C1691 H1683 0.950 . S
C1691 C1689 1.327 . S
C1692 C1680 1.349 . S
C1692 H1686 0.950 . S
C1692 C1693 1.327 . S
C1693 H1687 0.950 . S
C1693 C1692 1.327 . S
C1693 C1697 1.429 . S
C1694 C1677 1.574 . S
C1694 H1688 0.949 . S
C1694 C1698 1.368 . S
C1695 C1676 1.429 . S
C1695 C1689 1.429 . S
C1695 C1696 1.523 . S
C1696 C1677 1.368 . S
C1696 C1690 1.368 . S
C1696 C1695 1.523 . S
C1697 C1681 1.429 . S
C1697 C1693 1.429 . S
C1697 C1698 1.523 . S
C1698 C1682 1.368 . S
C1698 C1694 1.368 . S
C1698 C1697 1.523 . S
H1699 C1674 0.950 . S
H1700 C1676 0.950 . S
H1701 C1677 0.949 . S
H1702 C1679 0.950 . S
H1703 C1681 0.950 . S
C1704 C1705 1.349 . S
C1704 C1706 1.327 . S
C1704 H1729 0.950 . S
C1705 C1704 1.349 . S
C1705 C1721 1.349 . S
C1706 C1704 1.327 . S
C1706 C1725 1.429 . S
C1706 H1730 0.950 . S
C1707 C1724 1.574 . S
C1707 C1726 1.368 1_565 S
C1707 H1731 0.949 . S
H1708 C1712 0.949 . S
C1709 C1710 1.349 . S
C1709 C1711 1.327 . S
C1709 H1732 0.950 . S
C1710 C1709 1.349 . S
C1710 C1722 1.349 . S
C1711 C1709 1.327 . S
C1711 C1727 1.429 . S
C1711 H1733 0.950 . S
C1712 H1708 0.949 . S
C1712 C1720 1.574 . S
C1712 C1728 1.368 1_545 S
H1713 C1721 0.950 . S
H1714 C1719 0.950 . S
H1715 C1720 0.949 . S
H1716 C1722 0.950 . S
H1717 C1723 0.950 . S
H1718 C1724 0.949 . S
C1719 H1714 0.950 . S
C1719 C1721 1.327 . S
C1719 C1725 1.429 . S
C1720 C1712 1.574 . S
C1720 H1715 0.949 . S
C1720 C1726 1.368 . S
C1721 C1705 1.349 . S
C1721 H1713 0.950 . S
C1721 C1719 1.327 . S
C1722 C1710 1.349 . S
C1722 H1716 0.950 . S
C1722 C1723 1.327 . S
C1723 H1717 0.950 . S
C1723 C1722 1.327 . S
C1723 C1727 1.429 . S
C1724 C1707 1.574 . S
C1724 H1718 0.949 . S
C1724 C1728 1.368 . S
C1725 C1706 1.429 . S
C1725 C1719 1.429 . S
C1725 C1726 1.523 . S
C1726 C1707 1.368 1_545 S
C1726 C1720 1.368 . S
C1726 C1725 1.523 . S
C1727 C1711 1.429 . S
C1727 C1723 1.429 . S
C1727 C1728 1.523 . S
C1728 C1712 1.368 1_565 S
C1728 C1724 1.368 . S
C1728 C1727 1.523 . S
H1729 C1704 0.950 . S
H1730 C1706 0.950 . S
H1731 C1707 0.949 . S
H1732 C1709 0.950 . S
H1733 C1711 0.950 . S
C1734 C1735 1.349 . S
C1734 C1736 1.327 . S
C1734 H1759 0.950 . S
C1735 C1734 1.349 . S
C1735 C1751 1.349 . S
C1736 C1734 1.327 . S
C1736 C1755 1.429 . S
C1736 H1760 0.950 . S
C1737 C1754 1.574 1_655 S
C1737 C1756 1.368 . S
C1737 H1761 0.949 . S
H1738 C1742 0.949 . S
C1739 C1740 1.349 . S
C1739 C1741 1.327 . S
C1739 H1762 0.950 . S
C1740 C1739 1.349 . S
C1740 C1752 1.349 . S
C1741 C1739 1.327 . S
C1741 C1757 1.429 . S
C1741 H1763 0.950 . S
C1742 H1738 0.949 . S
C1742 C1750 1.574 1_455 S
C1742 C1758 1.368 . S
H1743 C1751 0.950 . S
H1744 C1749 0.950 . S
H1745 C1750 0.949 . S
H1746 C1752 0.950 . S
H1747 C1753 0.950 . S
H1748 C1754 0.949 . S
C1749 H1744 0.950 . S
C1749 C1751 1.327 . S
C1749 C1755 1.429 . S
C1750 C1742 1.574 1_655 S
C1750 H1745 0.949 . S
C1750 C1756 1.368 . S
C1751 C1735 1.349 . S
C1751 H1743 0.950 . S
C1751 C1749 1.327 . S
C1752 C1740 1.349 . S
C1752 H1746 0.950 . S
C1752 C1753 1.327 . S
C1753 H1747 0.950 . S
C1753 C1752 1.327 . S
C1753 C1757 1.429 . S
C1754 C1737 1.574 1_455 S
C1754 H1748 0.949 . S
C1754 C1758 1.368 . S
C1755 C1736 1.429 . S
C1755 C1749 1.429 . S
C1755 C1756 1.523 . S
C1756 C1737 1.368 . S
C1756 C1750 1.368 . S
C1756 C1755 1.523 . S
C1757 C1741 1.429 . S
C1757 C1753 1.429 . S
C1757 C1758 1.523 . S
C1758 C1742 1.368 . S
C1758 C1754 1.368 . S
C1758 C1757 1.523 . S
H1759 C1734 0.950 . S
H1760 C1736 0.950 . S
H1761 C1737 0.949 . S
H1762 C1739 0.950 . S
H1763 C1741 0.950 . S
C1764 C1765 1.349 . S
C1764 C1766 1.327 . S
C1764 H1789 0.950 . S
C1765 C1764 1.349 . S
C1765 C1781 1.349 . S
C1766 C1764 1.327 . S
C1766 C1785 1.429 . S
C1766 H1790 0.950 . S
C1767 C1784 1.574 . S
C1767 C1786 1.368 . S
C1767 H1791 0.949 . S
H1768 C1772 0.949 . S
C1769 C1770 1.349 . S
C1769 C1771 1.327 . S
C1769 H1792 0.950 . S
C1770 C1769 1.349 . S
C1770 C1782 1.349 . S
C1771 C1769 1.327 . S
C1771 C1787 1.429 . S
C1771 H1793 0.950 . S
C1772 H1768 0.949 . S
C1772 C1780 1.574 . S
C1772 C1788 1.368 . S
H1773 C1781 0.950 . S
H1774 C1779 0.950 . S
H1775 C1780 0.949 . S
H1776 C1782 0.950 . S
H1777 C1783 0.950 . S
H1778 C1784 0.949 . S
C1779 H1774 0.950 . S
C1779 C1781 1.327 . S
C1779 C1785 1.429 . S
C1780 C1772 1.574 . S
C1780 H1775 0.949 . S
C1780 C1786 1.368 . S
C1781 C1765 1.349 . S
C1781 H1773 0.950 . S
C1781 C1779 1.327 . S
C1782 C1770 1.349 . S
C1782 H1776 0.950 . S
C1782 C1783 1.327 . S
C1783 H1777 0.950 . S
C1783 C1782 1.327 . S
C1783 C1787 1.429 . S
C1784 C1767 1.574 . S
C1784 H1778 0.949 . S
C1784 C1788 1.368 . S
C1785 C1766 1.429 . S
C1785 C1779 1.429 . S
C1785 C1786 1.523 . S
C1786 C1767 1.368 . S
C1786 C1780 1.368 . S
C1786 C1785 1.523 . S
C1787 C1771 1.429 . S
C1787 C1783 1.429 . S
C1787 C1788 1.523 . S
C1788 C1772 1.368 . S
C1788 C1784 1.368 . S
C1788 C1787 1.523 . S
H1789 C1764 0.950 . S
H1790 C1766 0.950 . S
H1791 C1767 0.949 . S
H1792 C1769 0.950 . S
H1793 C1771 0.950 . S
C1794 C1795 1.349 . S
C1794 C1796 1.327 . S
C1794 H1819 0.950 . S
C1795 C1794 1.349 . S
C1795 C1811 1.349 . S
C1796 C1794 1.327 . S
C1796 C1815 1.429 . S
C1796 H1820 0.950 . S
C1797 C1814 1.574 . S
C1797 C1816 1.368 . S
C1797 H1821 0.949 . S
H1798 C1802 0.949 . S
C1799 C1800 1.349 . S
C1799 C1801 1.327 . S
C1799 H1822 0.950 . S
C1800 C1799 1.349 . S
C1800 C1812 1.349 . S
C1801 C1799 1.327 . S
C1801 C1817 1.429 . S
C1801 H1823 0.950 . S
C1802 H1798 0.949 . S
C1802 C1810 1.574 . S
C1802 C1818 1.368 . S
H1803 C1811 0.950 . S
H1804 C1809 0.950 . S
H1805 C1810 0.949 . S
H1806 C1812 0.950 . S
H1807 C1813 0.950 . S
H1808 C1814 0.949 . S
C1809 H1804 0.950 . S
C1809 C1811 1.327 . S
C1809 C1815 1.429 . S
C1810 C1802 1.574 . S
C1810 H1805 0.949 . S
C1810 C1816 1.368 . S
C1811 C1795 1.349 . S
C1811 H1803 0.950 . S
C1811 C1809 1.327 . S
C1812 C1800 1.349 . S
C1812 H1806 0.950 . S
C1812 C1813 1.327 . S
C1813 H1807 0.950 . S
C1813 C1812 1.327 . S
C1813 C1817 1.429 . S
C1814 C1797 1.574 . S
C1814 H1808 0.949 . S
C1814 C1818 1.368 . S
C1815 C1796 1.429 . S
C1815 C1809 1.429 . S
C1815 C1816 1.523 . S
C1816 C1797 1.368 . S
C1816 C1810 1.368 . S
C1816 C1815 1.523 . S
C1817 C1801 1.429 . S
C1817 C1813 1.429 . S
C1817 C1818 1.523 . S
C1818 C1802 1.368 . S
C1818 C1814 1.368 . S
C1818 C1817 1.523 . S
H1819 C1794 0.950 . S
H1820 C1796 0.950 . S
H1821 C1797 0.949 . S
H1822 C1799 0.950 . S
H1823 C1801 0.950 . S
C1824 C1825 1.349 . S
C1824 C1826 1.327 . S
C1824 H1849 0.950 . S
C1825 C1824 1.349 . S
C1825 C1841 1.349 . S
C1826 C1824 1.327 . S
C1826 C1845 1.429 . S
C1826 H1850 0.950 . S
C1827 C1844 1.574 . S
C1827 C1846 1.368 . S
C1827 H1851 0.949 . S
H1828 C1832 0.949 . S
C1829 C1830 1.349 . S
C1829 C1831 1.327 . S
C1829 H1852 0.950 . S
C1830 C1829 1.349 . S
C1830 C1842 1.349 . S
C1831 C1829 1.327 . S
C1831 C1847 1.429 . S
C1831 H1853 0.950 . S
C1832 H1828 0.949 . S
C1832 C1840 1.574 . S
C1832 C1848 1.368 . S
H1833 C1841 0.950 . S
H1834 C1839 0.950 . S
H1835 C1840 0.949 . S
H1836 C1842 0.950 . S
H1837 C1843 0.950 . S
H1838 C1844 0.949 . S
C1839 H1834 0.950 . S
C1839 C1841 1.327 . S
C1839 C1845 1.429 . S
C1840 C1832 1.574 . S
C1840 H1835 0.949 . S
C1840 C1846 1.368 . S
C1841 C1825 1.349 . S
C1841 H1833 0.950 . S
C1841 C1839 1.327 . S
C1842 C1830 1.349 . S
C1842 H1836 0.950 . S
C1842 C1843 1.327 . S
C1843 H1837 0.950 . S
C1843 C1842 1.327 . S
C1843 C1847 1.429 . S
C1844 C1827 1.574 . S
C1844 H1838 0.949 . S
C1844 C1848 1.368 . S
C1845 C1826 1.429 . S
C1845 C1839 1.429 . S
C1845 C1846 1.523 . S
C1846 C1827 1.368 . S
C1846 C1840 1.368 . S
C1846 C1845 1.523 . S
C1847 C1831 1.429 . S
C1847 C1843 1.429 . S
C1847 C1848 1.523 . S
C1848 C1832 1.368 . S
C1848 C1844 1.368 . S
C1848 C1847 1.523 . S
H1849 C1824 0.950 . S
H1850 C1826 0.950 . S
H1851 C1827 0.949 . S
H1852 C1829 0.950 . S
H1853 C1831 0.950 . S
C1854 C1855 1.349 . S
C1854 C1856 1.327 1_556 S
C1854 H1879 0.950 . S
C1855 C1854 1.349 . S
C1855 C1871 1.349 1_556 S
C1856 C1854 1.327 1_554 S
C1856 C1875 1.429 . S
C1856 H1880 0.950 . S
C1857 C1874 1.574 . S
C1857 C1876 1.368 . S
C1857 H1881 0.949 . S
H1858 C1862 0.949 . S
C1859 C1860 1.349 . S
C1859 C1861 1.327 . S
C1859 H1882 0.950 . S
C1860 C1859 1.349 . S
C1860 C1872 1.349 . S
C1861 C1859 1.327 . S
C1861 C1877 1.429 . S
C1861 H1883 0.950 . S
C1862 H1858 0.949 . S
C1862 C1870 1.574 . S
C1862 C1878 1.368 . S
H1863 C1871 0.950 . S
H1864 C1869 0.950 . S
H1865 C1870 0.949 . S
H1866 C1872 0.950 . S
H1867 C1873 0.950 . S
H1868 C1874 0.949 . S
C1869 H1864 0.950 . S
C1869 C1871 1.327 . S
C1869 C1875 1.429 . S
C1870 C1862 1.574 . S
C1870 H1865 0.949 . S
C1870 C1876 1.368 . S
C1871 C1855 1.349 1_554 S
C1871 H1863 0.950 . S
C1871 C1869 1.327 . S
C1872 C1860 1.349 . S
C1872 H1866 0.950 . S
C1872 C1873 1.327 . S
C1873 H1867 0.950 . S
C1873 C1872 1.327 . S
C1873 C1877 1.429 . S
C1874 C1857 1.574 . S
C1874 H1868 0.949 . S
C1874 C1878 1.368 . S
C1875 C1856 1.429 . S
C1875 C1869 1.429 . S
C1875 C1876 1.523 . S
C1876 C1857 1.368 . S
C1876 C1870 1.368 . S
C1876 C1875 1.523 . S
C1877 C1861 1.429 . S
C1877 C1873 1.429 . S
C1877 C1878 1.523 . S
C1878 C1862 1.368 . S
C1878 C1874 1.368 . S
C1878 C1877 1.523 . S
H1879 C1854 0.950 . S
H1880 C1856 0.950 . S
H1881 C1857 0.949 . S
H1882 C1859 0.950 . S
H1883 C1861 0.950 . S
C1884 C1885 1.349 . S
C1884 C1886 1.327 1_556 S
C1884 H1909 0.950 . S
C1885 C1884 1.349 . S
C1885 C1901 1.349 1_556 S
C1886 C1884 1.327 1_554 S
C1886 C1905 1.429 . S
C1886 H1910 0.950 . S
C1887 C1904 1.574 . S
C1887 C1906 1.368 . S
C1887 H1911 0.949 . S
H1888 C1892 0.949 . S
C1889 C1890 1.349 . S
C1889 C1891 1.327 . S
C1889 H1912 0.950 . S
C1890 C1889 1.349 . S
C1890 C1902 1.349 . S
C1891 C1889 1.327 . S
C1891 C1907 1.429 . S
C1891 H1913 0.950 . S
C1892 H1888 0.949 . S
C1892 C1900 1.574 . S
C1892 C1908 1.368 . S
H1893 C1901 0.950 . S
H1894 C1899 0.950 . S
H1895 C1900 0.949 . S
H1896 C1902 0.950 . S
H1897 C1903 0.950 . S
H1898 C1904 0.949 . S
C1899 H1894 0.950 . S
C1899 C1901 1.327 . S
C1899 C1905 1.429 . S
C1900 C1892 1.574 . S
C1900 H1895 0.949 . S
C1900 C1906 1.368 . S
C1901 C1885 1.349 1_554 S
C1901 H1893 0.950 . S
C1901 C1899 1.327 . S
C1902 C1890 1.349 . S
C1902 H1896 0.950 . S
C1902 C1903 1.327 . S
C1903 H1897 0.950 . S
C1903 C1902 1.327 . S
C1903 C1907 1.429 . S
C1904 C1887 1.574 . S
C1904 H1898 0.949 . S
C1904 C1908 1.368 . S
C1905 C1886 1.429 . S
C1905 C1899 1.429 . S
C1905 C1906 1.523 . S
C1906 C1887 1.368 . S
C1906 C1900 1.368 . S
C1906 C1905 1.523 . S
C1907 C1891 1.429 . S
C1907 C1903 1.429 . S
C1907 C1908 1.523 . S
C1908 C1892 1.368 . S
C1908 C1904 1.368 . S
C1908 C1907 1.523 . S
H1909 C1884 0.950 . S
H1910 C1886 0.950 . S
H1911 C1887 0.949 . S
H1912 C1889 0.950 . S
H1913 C1891 0.950 . S
C1914 C1915 1.349 1_554 S
C1914 C1916 1.327 . S
C1914 H1939 0.950 . S
C1915 C1914 1.349 1_556 S
C1915 C1931 1.349 . S
C1916 C1914 1.327 . S
C1916 C1935 1.429 . S
C1916 H1940 0.950 . S
C1917 C1934 1.574 . S
C1917 C1936 1.368 . S
C1917 H1941 0.949 . S
H1918 C1922 0.949 . S
C1919 C1920 1.349 . S
C1919 C1921 1.327 . S
C1919 H1942 0.950 . S
C1920 C1919 1.349 . S
C1920 C1932 1.349 . S
C1921 C1919 1.327 . S
C1921 C1937 1.429 . S
C1921 H1943 0.950 . S
C1922 H1918 0.949 . S
C1922 C1930 1.574 . S
C1922 C1938 1.368 . S
H1923 C1931 0.950 . S
H1924 C1929 0.950 . S
H1925 C1930 0.949 . S
H1926 C1932 0.950 . S
H1927 C1933 0.950 . S
H1928 C1934 0.949 . S
C1929 H1924 0.950 . S
C1929 C1931 1.327 1_554 S
C1929 C1935 1.429 . S
C1930 C1922 1.574 . S
C1930 H1925 0.949 . S
C1930 C1936 1.368 . S
C1931 C1915 1.349 . S
C1931 H1923 0.950 . S
C1931 C1929 1.327 1_556 S
C1932 C1920 1.349 . S
C1932 H1926 0.950 . S
C1932 C1933 1.327 . S
C1933 H1927 0.950 . S
C1933 C1932 1.327 . S
C1933 C1937 1.429 . S
C1934 C1917 1.574 . S
C1934 H1928 0.949 . S
C1934 C1938 1.368 . S
C1935 C1916 1.429 . S
C1935 C1929 1.429 . S
C1935 C1936 1.523 . S
C1936 C1917 1.368 . S
C1936 C1930 1.368 . S
C1936 C1935 1.523 . S
C1937 C1921 1.429 . S
C1937 C1933 1.429 . S
C1937 C1938 1.523 . S
C1938 C1922 1.368 . S
C1938 C1934 1.368 . S
C1938 C1937 1.523 . S
H1939 C1914 0.950 . S
H1940 C1916 0.950 . S
H1941 C1917 0.949 . S
H1942 C1919 0.950 . S
H1943 C1921 0.950 . S
C1944 C1945 1.349 1_556 S
C1944 C1946 1.327 . S
C1944 H1969 0.950 . S
C1945 C1944 1.349 1_554 S
C1945 C1961 1.349 1_554 S
C1946 C1944 1.327 . S
C1946 C1965 1.429 . S
C1946 H1970 0.950 . S
C1947 C1964 1.574 . S
C1947 C1966 1.368 . S
C1947 H1971 0.949 . S
H1948 C1952 0.949 . S
C1949 C1950 1.349 . S
C1949 C1951 1.327 . S
C1949 H1972 0.950 . S
C1950 C1949 1.349 . S
C1950 C1962 1.349 . S
C1951 C1949 1.327 . S
C1951 C1967 1.429 . S
C1951 H1973 0.950 . S
C1952 H1948 0.949 . S
C1952 C1960 1.574 . S
C1952 C1968 1.368 . S
H1953 C1961 0.950 1_554 S
H1954 C1959 0.950 . S
H1955 C1960 0.949 . S
H1956 C1962 0.950 . S
H1957 C1963 0.950 . S
H1958 C1964 0.949 . S
C1959 H1954 0.950 . S
C1959 C1961 1.327 . S
C1959 C1965 1.429 . S
C1960 C1952 1.574 . S
C1960 H1955 0.949 . S
C1960 C1966 1.368 . S
C1961 C1945 1.349 1_556 S
C1961 H1953 0.950 1_556 S
C1961 C1959 1.327 . S
C1962 C1950 1.349 . S
C1962 H1956 0.950 . S
C1962 C1963 1.327 . S
C1963 H1957 0.950 . S
C1963 C1962 1.327 . S
C1963 C1967 1.429 . S
C1964 C1947 1.574 . S
C1964 H1958 0.949 . S
C1964 C1968 1.368 . S
C1965 C1946 1.429 . S
C1965 C1959 1.429 . S
C1965 C1966 1.523 . S
C1966 C1947 1.368 . S
C1966 C1960 1.368 . S
C1966 C1965 1.523 . S
C1967 C1951 1.429 . S
C1967 C1963 1.429 . S
C1967 C1968 1.523 . S
C1968 C1952 1.368 . S
C1968 C1964 1.368 . S
C1968 C1967 1.523 . S
H1969 C1944 0.950 . S
H1970 C1946 0.950 . S
H1971 C1947 0.949 . S
H1972 C1949 0.950 . S
H1973 C1951 0.950 . S
C1974 C1975 1.349 . S
C1974 C1976 1.327 . S
C1974 H1999 0.950 . S
C1975 C1974 1.349 . S
C1975 C1991 1.349 . S
C1976 C1974 1.327 . S
C1976 C1995 1.429 . S
C1976 H2000 0.950 . S
C1977 C1994 1.574 . S
C1977 C1996 1.368 . S
C1977 H2001 0.949 . S
H1978 C1982 0.949 . S
C1979 C1980 1.349 1_556 S
C1979 C1981 1.327 . S
C1979 H2002 0.950 . S
C1980 C1979 1.349 1_554 S
C1980 C1992 1.349 . S
C1981 C1979 1.327 . S
C1981 C1997 1.429 . S
C1981 H2003 0.950 . S
C1982 H1978 0.949 . S
C1982 C1990 1.574 . S
C1982 C1998 1.368 . S
H1983 C1991 0.950 . S
H1984 C1989 0.950 . S
H1985 C1990 0.949 . S
H1986 C1992 0.950 . S
H1987 C1993 0.950 . S
H1988 C1994 0.949 . S
C1989 H1984 0.950 . S
C1989 C1991 1.327 . S
C1989 C1995 1.429 . S
C1990 C1982 1.574 . S
C1990 H1985 0.949 . S
C1990 C1996 1.368 . S
C1991 C1975 1.349 . S
C1991 H1983 0.950 . S
C1991 C1989 1.327 . S
C1992 C1980 1.349 . S
C1992 H1986 0.950 . S
C1992 C1993 1.327 1_554 S
C1993 H1987 0.950 . S
C1993 C1992 1.327 1_556 S
C1993 C1997 1.429 . S
C1994 C1977 1.574 . S
C1994 H1988 0.949 . S
C1994 C1998 1.368 . S
C1995 C1976 1.429 . S
C1995 C1989 1.429 . S
C1995 C1996 1.523 . S
C1996 C1977 1.368 . S
C1996 C1990 1.368 . S
C1996 C1995 1.523 . S
C1997 C1981 1.429 . S
C1997 C1993 1.429 . S
C1997 C1998 1.523 . S
C1998 C1982 1.368 . S
C1998 C1994 1.368 . S
C1998 C1997 1.523 . S
H1999 C1974 0.950 . S
H2000 C1976 0.950 . S
H2001 C1977 0.949 . S
H2002 C1979 0.950 . S
H2003 C1981 0.950 . S
C2004 C2005 1.349 . S
C2004 C2006 1.327 1_554 S
C2004 H2029 0.950 . S
C2005 C2004 1.349 . S
C2005 C2021 1.349 1_554 S
C2006 C2004 1.327 1_556 S
C2006 C2025 1.429 . S
C2006 H2030 0.950 . S
C2007 C2024 1.574 . S
C2007 C2026 1.368 . S
C2007 H2031 0.949 . S
H2008 C2012 0.949 . S
C2009 C2010 1.349 . S
C2009 C2011 1.327 . S
C2009 H2032 0.950 . S
C2010 C2009 1.349 . S
C2010 C2022 1.349 . S
C2011 C2009 1.327 . S
C2011 C2027 1.429 . S
C2011 H2033 0.950 . S
C2012 H2008 0.949 . S
C2012 C2020 1.574 . S
C2012 C2028 1.368 . S
H2013 C2021 0.950 . S
H2014 C2019 0.950 . S
H2015 C2020 0.949 . S
H2016 C2022 0.950 . S
H2017 C2023 0.950 . S
H2018 C2024 0.949 . S
C2019 H2014 0.950 . S
C2019 C2021 1.327 . S
C2019 C2025 1.429 . S
C2020 C2012 1.574 . S
C2020 H2015 0.949 . S
C2020 C2026 1.368 . S
C2021 C2005 1.349 1_556 S
C2021 H2013 0.950 . S
C2021 C2019 1.327 . S
C2022 C2010 1.349 . S
C2022 H2016 0.950 . S
C2022 C2023 1.327 . S
C2023 H2017 0.950 . S
C2023 C2022 1.327 . S
C2023 C2027 1.429 . S
C2024 C2007 1.574 . S
C2024 H2018 0.949 . S
C2024 C2028 1.368 . S
C2025 C2006 1.429 . S
C2025 C2019 1.429 . S
C2025 C2026 1.523 . S
C2026 C2007 1.368 . S
C2026 C2020 1.368 . S
C2026 C2025 1.523 . S
C2027 C2011 1.429 . S
C2027 C2023 1.429 . S
C2027 C2028 1.523 . S
C2028 C2012 1.368 . S
C2028 C2024 1.368 . S
C2028 C2027 1.523 . S
H2029 C2004 0.950 . S
H2030 C2006 0.950 . S
H2031 C2007 0.949 . S
H2032 C2009 0.950 . S
H2033 C2011 0.950 . S
C2034 C2035 1.349 . S
C2034 C2036 1.327 . S
C2034 H2059 0.950 . S
C2035 C2034 1.349 . S
C2035 C2051 1.349 . S
C2036 C2034 1.327 . S
C2036 C2055 1.429 . S
C2036 H2060 0.950 . S
C2037 C2054 1.574 . S
C2037 C2056 1.368 . S
C2037 H2061 0.949 . S
H2038 C2042 0.949 . S
C2039 C2040 1.349 . S
C2039 C2041 1.327 . S
C2039 H2062 0.950 . S
C2040 C2039 1.349 . S
C2040 C2052 1.349 . S
C2041 C2039 1.327 . S
C2041 C2057 1.429 . S
C2041 H2063 0.950 . S
C2042 H2038 0.949 . S
C2042 C2050 1.574 . S
C2042 C2058 1.368 . S
H2043 C2051 0.950 . S
H2044 C2049 0.950 . S
H2045 C2050 0.949 . S
H2046 C2052 0.950 . S
H2047 C2053 0.950 . S
H2048 C2054 0.949 . S
C2049 H2044 0.950 . S
C2049 C2051 1.327 . S
C2049 C2055 1.429 . S
C2050 C2042 1.574 . S
C2050 H2045 0.949 . S
C2050 C2056 1.368 . S
C2051 C2035 1.349 . S
C2051 H2043 0.950 . S
C2051 C2049 1.327 . S
C2052 C2040 1.349 . S
C2052 H2046 0.950 . S
C2052 C2053 1.327 . S
C2053 H2047 0.950 . S
C2053 C2052 1.327 . S
C2053 C2057 1.429 . S
C2054 C2037 1.574 . S
C2054 H2048 0.949 . S
C2054 C2058 1.368 . S
C2055 C2036 1.429 . S
C2055 C2049 1.429 . S
C2055 C2056 1.523 . S
C2056 C2037 1.368 . S
C2056 C2050 1.368 . S
C2056 C2055 1.523 . S
C2057 C2041 1.429 . S
C2057 C2053 1.429 . S
C2057 C2058 1.523 . S
C2058 C2042 1.368 . S
C2058 C2054 1.368 . S
C2058 C2057 1.523 . S
H2059 C2034 0.950 . S
H2060 C2036 0.950 . S
H2061 C2037 0.949 . S
H2062 C2039 0.950 . S
H2063 C2041 0.950 . S
C2064 C2065 1.349 . S
C2064 C2066 1.327 . S
C2064 H2089 0.950 . S
C2065 C2064 1.349 . S
C2065 C2081 1.349 . S
C2066 C2064 1.327 . S
C2066 C2085 1.429 . S
C2066 H2090 0.950 . S
C2067 C2084 1.574 . S
C2067 C2086 1.368 . S
C2067 H2091 0.949 . S
H2068 C2072 0.949 . S
C2069 C2070 1.349 . S
C2069 C2071 1.327 . S
C2069 H2092 0.950 . S
C2070 C2069 1.349 . S
C2070 C2082 1.349 . S
C2071 C2069 1.327 . S
C2071 C2087 1.429 . S
C2071 H2093 0.950 . S
C2072 H2068 0.949 . S
C2072 C2080 1.574 . S
C2072 C2088 1.368 . S
H2073 C2081 0.950 . S
H2074 C2079 0.950 . S
H2075 C2080 0.949 . S
H2076 C2082 0.950 . S
H2077 C2083 0.950 . S
H2078 C2084 0.949 . S
C2079 H2074 0.950 . S
C2079 C2081 1.327 . S
C2079 C2085 1.429 . S
C2080 C2072 1.574 . S
C2080 H2075 0.949 . S
C2080 C2086 1.368 . S
C2081 C2065 1.349 . S
C2081 H2073 0.950 . S
C2081 C2079 1.327 . S
C2082 C2070 1.349 . S
C2082 H2076 0.950 . S
C2082 C2083 1.327 . S
C2083 H2077 0.950 . S
C2083 C2082 1.327 . S
C2083 C2087 1.429 . S
C2084 C2067 1.574 . S
C2084 H2078 0.949 . S
C2084 C2088 1.368 . S
C2085 C2066 1.429 . S
C2085 C2079 1.429 . S
C2085 C2086 1.523 . S
C2086 C2067 1.368 . S
C2086 C2080 1.368 . S
C2086 C2085 1.523 . S
C2087 C2071 1.429 . S
C2087 C2083 1.429 . S
C2087 C2088 1.523 . S
C2088 C2072 1.368 . S
C2088 C2084 1.368 . S
C2088 C2087 1.523 . S
H2089 C2064 0.950 . S
H2090 C2066 0.950 . S
H2091 C2067 0.949 . S
H2092 C2069 0.950 . S
H2093 C2071 0.950 . S
C2094 C2095 1.349 . S
C2094 C2096 1.327 . S
C2094 H2119 0.950 . S
C2095 C2094 1.349 . S
C2095 C2111 1.349 . S
C2096 C2094 1.327 . S
C2096 C2115 1.429 . S
C2096 H2120 0.950 . S
C2097 C2114 1.574 . S
C2097 C2116 1.368 . S
C2097 H2121 0.949 . S
H2098 C2102 0.949 . S
C2099 C2100 1.349 . S
C2099 C2101 1.327 . S
C2099 H2122 0.950 . S
C2100 C2099 1.349 . S
C2100 C2112 1.349 . S
C2101 C2099 1.327 . S
C2101 C2117 1.429 . S
C2101 H2123 0.950 . S
C2102 H2098 0.949 . S
C2102 C2110 1.574 . S
C2102 C2118 1.368 . S
H2103 C2111 0.950 . S
H2104 C2109 0.950 . S
H2105 C2110 0.949 . S
H2106 C2112 0.950 . S
H2107 C2113 0.950 . S
H2108 C2114 0.949 . S
C2109 H2104 0.950 . S
C2109 C2111 1.327 . S
C2109 C2115 1.429 . S
C2110 C2102 1.574 . S
C2110 H2105 0.949 . S
C2110 C2116 1.368 . S
C2111 C2095 1.349 . S
C2111 H2103 0.950 . S
C2111 C2109 1.327 . S
C2112 C2100 1.349 . S
C2112 H2106 0.950 . S
C2112 C2113 1.327 . S
C2113 H2107 0.950 . S
C2113 C2112 1.327 . S
C2113 C2117 1.429 . S
C2114 C2097 1.574 . S
C2114 H2108 0.949 . S
C2114 C2118 1.368 . S
C2115 C2096 1.429 . S
C2115 C2109 1.429 . S
C2115 C2116 1.523 . S
C2116 C2097 1.368 . S
C2116 C2110 1.368 . S
C2116 C2115 1.523 . S
C2117 C2101 1.429 . S
C2117 C2113 1.429 . S
C2117 C2118 1.523 . S
C2118 C2102 1.368 . S
C2118 C2114 1.368 . S
C2118 C2117 1.523 . S
H2119 C2094 0.950 . S
H2120 C2096 0.950 . S
H2121 C2097 0.949 . S
H2122 C2099 0.950 . S
H2123 C2101 0.950 . S
C2124 C2125 1.349 . S
C2124 C2126 1.327 . S
C2124 H2149 0.950 . S
C2125 C2124 1.349 . S
C2125 C2141 1.349 . S
C2126 C2124 1.327 . S
C2126 C2145 1.429 . S
C2126 H2150 0.950 . S
C2127 C2144 1.574 . S
C2127 C2146 1.368 . S
C2127 H2151 0.949 . S
H2128 C2132 0.949 . S
C2129 C2130 1.349 . S
C2129 C2131 1.327 . S
C2129 H2152 0.950 . S
C2130 C2129 1.349 . S
C2130 C2142 1.349 . S
C2131 C2129 1.327 . S
C2131 C2147 1.429 . S
C2131 H2153 0.950 . S
C2132 H2128 0.949 . S
C2132 C2140 1.574 . S
C2132 C2148 1.368 . S
H2133 C2141 0.950 . S
H2134 C2139 0.950 . S
H2135 C2140 0.949 . S
H2136 C2142 0.950 . S
H2137 C2143 0.950 . S
H2138 C2144 0.949 . S
C2139 H2134 0.950 . S
C2139 C2141 1.327 . S
C2139 C2145 1.429 . S
C2140 C2132 1.574 . S
C2140 H2135 0.949 . S
C2140 C2146 1.368 . S
C2141 C2125 1.349 . S
C2141 H2133 0.950 . S
C2141 C2139 1.327 . S
C2142 C2130 1.349 . S
C2142 H2136 0.950 . S
C2142 C2143 1.327 . S
C2143 H2137 0.950 . S
C2143 C2142 1.327 . S
C2143 C2147 1.429 . S
C2144 C2127 1.574 . S
C2144 H2138 0.949 . S
C2144 C2148 1.368 . S
C2145 C2126 1.429 . S
C2145 C2139 1.429 . S
C2145 C2146 1.523 . S
C2146 C2127 1.368 . S
C2146 C2140 1.368 . S
C2146 C2145 1.523 . S
C2147 C2131 1.429 . S
C2147 C2143 1.429 . S
C2147 C2148 1.523 . S
C2148 C2132 1.368 . S
C2148 C2144 1.368 . S
C2148 C2147 1.523 . S
H2149 C2124 0.950 . S
H2150 C2126 0.950 . S
H2151 C2127 0.949 . S
H2152 C2129 0.950 . S
H2153 C2131 0.950 . S
C2154 C2155 1.349 . S
C2154 C2156 1.327 . S
C2154 H2179 0.950 . S
C2155 C2154 1.349 . S
C2155 C2171 1.349 . S
C2156 C2154 1.327 . S
C2156 C2175 1.429 . S
C2156 H2180 0.950 . S
C2157 C2174 1.574 . S
C2157 C2176 1.368 . S
C2157 H2181 0.949 . S
H2158 C2162 0.949 . S
C2159 C2160 1.349 . S
C2159 C2161 1.327 . S
C2159 H2182 0.950 . S
C2160 C2159 1.349 . S
C2160 C2172 1.349 . S
C2161 C2159 1.327 . S
C2161 C2177 1.429 . S
C2161 H2183 0.950 . S
C2162 H2158 0.949 . S
C2162 C2170 1.574 . S
C2162 C2178 1.368 . S
H2163 C2171 0.950 . S
H2164 C2169 0.950 . S
H2165 C2170 0.949 . S
H2166 C2172 0.950 . S
H2167 C2173 0.950 . S
H2168 C2174 0.949 . S
C2169 H2164 0.950 . S
C2169 C2171 1.327 . S
C2169 C2175 1.429 . S
C2170 C2162 1.574 . S
C2170 H2165 0.949 . S
C2170 C2176 1.368 . S
C2171 C2155 1.349 . S
C2171 H2163 0.950 . S
C2171 C2169 1.327 . S
C2172 C2160 1.349 . S
C2172 H2166 0.950 . S
C2172 C2173 1.327 . S
C2173 H2167 0.950 . S
C2173 C2172 1.327 . S
C2173 C2177 1.429 . S
C2174 C2157 1.574 . S
C2174 H2168 0.949 . S
C2174 C2178 1.368 . S
C2175 C2156 1.429 . S
C2175 C2169 1.429 . S
C2175 C2176 1.523 . S
C2176 C2157 1.368 . S
C2176 C2170 1.368 . S
C2176 C2175 1.523 . S
C2177 C2161 1.429 . S
C2177 C2173 1.429 . S
C2177 C2178 1.523 . S
C2178 C2162 1.368 . S
C2178 C2174 1.368 . S
C2178 C2177 1.523 . S
H2179 C2154 0.950 . S
H2180 C2156 0.950 . S
H2181 C2157 0.949 . S
H2182 C2159 0.950 . S
H2183 C2161 0.950 . S
C2184 C2185 1.349 . S
C2184 C2186 1.327 . S
C2184 H2209 0.950 . S
C2185 C2184 1.349 . S
C2185 C2201 1.349 . S
C2186 C2184 1.327 . S
C2186 C2205 1.429 . S
C2186 H2210 0.950 . S
C2187 C2204 1.574 . S
C2187 C2206 1.368 . S
C2187 H2211 0.949 . S
H2188 C2192 0.949 . S
C2189 C2190 1.349 . S
C2189 C2191 1.327 . S
C2189 H2212 0.950 . S
C2190 C2189 1.349 . S
C2190 C2202 1.349 . S
C2191 C2189 1.327 . S
C2191 C2207 1.429 . S
C2191 H2213 0.950 . S
C2192 H2188 0.949 . S
C2192 C2200 1.574 . S
C2192 C2208 1.368 . S
H2193 C2201 0.950 . S
H2194 C2199 0.950 . S
H2195 C2200 0.949 . S
H2196 C2202 0.950 . S
H2197 C2203 0.950 . S
H2198 C2204 0.949 . S
C2199 H2194 0.950 . S
C2199 C2201 1.327 . S
C2199 C2205 1.429 . S
C2200 C2192 1.574 . S
C2200 H2195 0.949 . S
C2200 C2206 1.368 . S
C2201 C2185 1.349 . S
C2201 H2193 0.950 . S
C2201 C2199 1.327 . S
C2202 C2190 1.349 . S
C2202 H2196 0.950 . S
C2202 C2203 1.327 . S
C2203 H2197 0.950 . S
C2203 C2202 1.327 . S
C2203 C2207 1.429 . S
C2204 C2187 1.574 . S
C2204 H2198 0.949 . S
C2204 C2208 1.368 . S
C2205 C2186 1.429 . S
C2205 C2199 1.429 . S
C2205 C2206 1.523 . S
C2206 C2187 1.368 . S
C2206 C2200 1.368 . S
C2206 C2205 1.523 . S
C2207 C2191 1.429 . S
C2207 C2203 1.429 . S
C2207 C2208 1.523 . S
C2208 C2192 1.368 . S
C2208 C2204 1.368 . S
C2208 C2207 1.523 . S
H2209 C2184 0.950 . S
H2210 C2186 0.950 . S
H2211 C2187 0.949 . S
H2212 C2189 0.950 . S
H2213 C2191 0.950 . S
C2214 C2215 1.349 . S
C2214 C2216 1.327 . S
C2214 H2239 0.950 . S
C2215 C2214 1.349 . S
C2215 C2231 1.349 . S
C2216 C2214 1.327 . S
C2216 C2235 1.429 . S
C2216 H2240 0.950 . S
C2217 C2234 1.574 . S
C2217 C2236 1.368 . S
C2217 H2241 0.949 . S
H2218 C2222 0.949 . S
C2219 C2220 1.349 . S
C2219 C2221 1.327 . S
C2219 H2242 0.950 . S
C2220 C2219 1.349 . S
C2220 C2232 1.349 . S
C2221 C2219 1.327 . S
C2221 C2237 1.429 . S
C2221 H2243 0.950 . S
C2222 H2218 0.949 . S
C2222 C2230 1.574 . S
C2222 C2238 1.368 . S
H2223 C2231 0.950 . S
H2224 C2229 0.950 . S
H2225 C2230 0.949 . S
H2226 C2232 0.950 . S
H2227 C2233 0.950 . S
H2228 C2234 0.949 . S
C2229 H2224 0.950 . S
C2229 C2231 1.327 . S
C2229 C2235 1.429 . S
C2230 C2222 1.574 . S
C2230 H2225 0.949 . S
C2230 C2236 1.368 . S
C2231 C2215 1.349 . S
C2231 H2223 0.950 . S
C2231 C2229 1.327 . S
C2232 C2220 1.349 . S
C2232 H2226 0.950 . S
C2232 C2233 1.327 . S
C2233 H2227 0.950 . S
C2233 C2232 1.327 . S
C2233 C2237 1.429 . S
C2234 C2217 1.574 . S
C2234 H2228 0.949 . S
C2234 C2238 1.368 . S
C2235 C2216 1.429 . S
C2235 C2229 1.429 . S
C2235 C2236 1.523 . S
C2236 C2217 1.368 . S
C2236 C2230 1.368 . S
C2236 C2235 1.523 . S
C2237 C2221 1.429 . S
C2237 C2233 1.429 . S
C2237 C2238 1.523 . S
C2238 C2222 1.368 . S
C2238 C2234 1.368 . S
C2238 C2237 1.523 . S
H2239 C2214 0.950 . S
H2240 C2216 0.950 . S
H2241 C2217 0.949 . S
H2242 C2219 0.950 . S
H2243 C2221 0.950 . S
C2244 C2245 1.349 . S
C2244 C2246 1.327 . S
C2244 H2269 0.950 . S
C2245 C2244 1.349 . S
C2245 C2261 1.349 . S
C2246 C2244 1.327 . S
C2246 C2265 1.429 . S
C2246 H2270 0.950 . S
C2247 C2264 1.574 . S
C2247 C2266 1.368 . S
C2247 H2271 0.949 . S
H2248 C2252 0.949 . S
C2249 C2250 1.349 . S
C2249 C2251 1.327 . S
C2249 H2272 0.950 . S
C2250 C2249 1.349 . S
C2250 C2262 1.349 . S
C2251 C2249 1.327 . S
C2251 C2267 1.429 . S
C2251 H2273 0.950 . S
C2252 H2248 0.949 . S
C2252 C2260 1.574 . S
C2252 C2268 1.368 . S
H2253 C2261 0.950 . S
H2254 C2259 0.950 . S
H2255 C2260 0.949 . S
H2256 C2262 0.950 . S
H2257 C2263 0.950 . S
H2258 C2264 0.949 . S
C2259 H2254 0.950 . S
C2259 C2261 1.327 . S
C2259 C2265 1.429 . S
C2260 C2252 1.574 . S
C2260 H2255 0.949 . S
C2260 C2266 1.368 . S
C2261 C2245 1.349 . S
C2261 H2253 0.950 . S
C2261 C2259 1.327 . S
C2262 C2250 1.349 . S
C2262 H2256 0.950 . S
C2262 C2263 1.327 . S
C2263 H2257 0.950 . S
C2263 C2262 1.327 . S
C2263 C2267 1.429 . S
C2264 C2247 1.574 . S
C2264 H2258 0.949 . S
C2264 C2268 1.368 . S
C2265 C2246 1.429 . S
C2265 C2259 1.429 . S
C2265 C2266 1.523 . S
C2266 C2247 1.368 . S
C2266 C2260 1.368 . S
C2266 C2265 1.523 . S
C2267 C2251 1.429 . S
C2267 C2263 1.429 . S
C2267 C2268 1.523 . S
C2268 C2252 1.368 . S
C2268 C2264 1.368 . S
C2268 C2267 1.523 . S
H2269 C2244 0.950 . S
H2270 C2246 0.950 . S
H2271 C2247 0.949 . S
H2272 C2249 0.950 . S
H2273 C2251 0.950 . S
C2274 C2275 1.349 . S
C2274 C2276 1.327 . S
C2274 H2299 0.950 . S
C2275 C2274 1.349 . S
C2275 C2291 1.349 . S
C2276 C2274 1.327 . S
C2276 C2295 1.429 . S
C2276 H2300 0.950 . S
C2277 C2294 1.574 . S
C2277 C2296 1.368 . S
C2277 H2301 0.949 . S
H2278 C2282 0.949 . S
C2279 C2280 1.349 . S
C2279 C2281 1.327 . S
C2279 H2302 0.950 . S
C2280 C2279 1.349 . S
C2280 C2292 1.349 . S
C2281 C2279 1.327 . S
C2281 C2297 1.429 . S
C2281 H2303 0.950 . S
C2282 H2278 0.949 . S
C2282 C2290 1.574 . S
C2282 C2298 1.368 . S
H2283 C2291 0.950 . S
H2284 C2289 0.950 . S
H2285 C2290 0.949 . S
H2286 C2292 0.950 . S
H2287 C2293 0.950 . S
H2288 C2294 0.949 . S
C2289 H2284 0.950 . S
C2289 C2291 1.327 . S
C2289 C2295 1.429 . S
C2290 C2282 1.574 . S
C2290 H2285 0.949 . S
C2290 C2296 1.368 . S
C2291 C2275 1.349 . S
C2291 H2283 0.950 . S
C2291 C2289 1.327 . S
C2292 C2280 1.349 . S
C2292 H2286 0.950 . S
C2292 C2293 1.327 . S
C2293 H2287 0.950 . S
C2293 C2292 1.327 . S
C2293 C2297 1.429 . S
C2294 C2277 1.574 . S
C2294 H2288 0.949 . S
C2294 C2298 1.368 . S
C2295 C2276 1.429 . S
C2295 C2289 1.429 . S
C2295 C2296 1.523 . S
C2296 C2277 1.368 . S
C2296 C2290 1.368 . S
C2296 C2295 1.523 . S
C2297 C2281 1.429 . S
C2297 C2293 1.429 . S
C2297 C2298 1.523 . S
C2298 C2282 1.368 . S
C2298 C2294 1.368 . S
C2298 C2297 1.523 . S
H2299 C2274 0.950 . S
H2300 C2276 0.950 . S
H2301 C2277 0.949 . S
H2302 C2279 0.950 . S
H2303 C2281 0.950 . S
C2304 C2305 1.349 . S
C2304 C2306 1.327 . S
C2304 H2329 0.950 . S
C2305 C2304 1.349 . S
C2305 C2321 1.349 . S
C2306 C2304 1.327 . S
C2306 C2325 1.429 . S
C2306 H2330 0.950 . S
C2307 C2324 1.574 . S
C2307 C2326 1.368 . S
C2307 H2331 0.949 . S
H2308 C2312 0.949 . S
C2309 C2310 1.349 . S
C2309 C2311 1.327 . S
C2309 H2332 0.950 . S
C2310 C2309 1.349 . S
C2310 C2322 1.349 . S
C2311 C2309 1.327 . S
C2311 C2327 1.429 . S
C2311 H2333 0.950 . S
C2312 H2308 0.949 . S
C2312 C2320 1.574 . S
C2312 C2328 1.368 . S
H2313 C2321 0.950 . S
H2314 C2319 0.950 . S
H2315 C2320 0.949 . S
H2316 C2322 0.950 . S
H2317 C2323 0.950 . S
H2318 C2324 0.949 . S
C2319 H2314 0.950 . S
C2319 C2321 1.327 . S
C2319 C2325 1.429 . S
C2320 C2312 1.574 . S
C2320 H2315 0.949 . S
C2320 C2326 1.368 . S
C2321 C2305 1.349 . S
C2321 H2313 0.950 . S
C2321 C2319 1.327 . S
C2322 C2310 1.349 . S
C2322 H2316 0.950 . S
C2322 C2323 1.327 . S
C2323 H2317 0.950 . S
C2323 C2322 1.327 . S
C2323 C2327 1.429 . S
C2324 C2307 1.574 . S
C2324 H2318 0.949 . S
C2324 C2328 1.368 . S
C2325 C2306 1.429 . S
C2325 C2319 1.429 . S
C2325 C2326 1.523 . S
C2326 C2307 1.368 . S
C2326 C2320 1.368 . S
C2326 C2325 1.523 . S
C2327 C2311 1.429 . S
C2327 C2323 1.429 . S
C2327 C2328 1.523 . S
C2328 C2312 1.368 . S
C2328 C2324 1.368 . S
C2328 C2327 1.523 . S
H2329 C2304 0.950 . S
H2330 C2306 0.950 . S
H2331 C2307 0.949 . S
H2332 C2309 0.950 . S
H2333 C2311 0.950 . S
C2334 C2335 1.349 . S
C2334 C2336 1.327 . S
C2334 H2359 0.950 . S
C2335 C2334 1.349 . S
C2335 C2351 1.349 . S
C2336 C2334 1.327 . S
C2336 C2355 1.429 . S
C2336 H2360 0.950 . S
C2337 C2354 1.574 . S
C2337 C2356 1.368 . S
C2337 H2361 0.949 . S
H2338 C2342 0.949 . S
C2339 C2340 1.349 . S
C2339 C2341 1.327 . S
C2339 H2362 0.950 . S
C2340 C2339 1.349 . S
C2340 C2352 1.349 . S
C2341 C2339 1.327 . S
C2341 C2357 1.429 . S
C2341 H2363 0.950 . S
C2342 H2338 0.949 . S
C2342 C2350 1.574 . S
C2342 C2358 1.368 . S
H2343 C2351 0.950 . S
H2344 C2349 0.950 . S
H2345 C2350 0.949 . S
H2346 C2352 0.950 . S
H2347 C2353 0.950 . S
H2348 C2354 0.949 . S
C2349 H2344 0.950 . S
C2349 C2351 1.327 . S
C2349 C2355 1.429 . S
C2350 C2342 1.574 . S
C2350 H2345 0.949 . S
C2350 C2356 1.368 . S
C2351 C2335 1.349 . S
C2351 H2343 0.950 . S
C2351 C2349 1.327 . S
C2352 C2340 1.349 . S
C2352 H2346 0.950 . S
C2352 C2353 1.327 . S
C2353 H2347 0.950 . S
C2353 C2352 1.327 . S
C2353 C2357 1.429 . S
C2354 C2337 1.574 . S
C2354 H2348 0.949 . S
C2354 C2358 1.368 . S
C2355 C2336 1.429 . S
C2355 C2349 1.429 . S
C2355 C2356 1.523 . S
C2356 C2337 1.368 . S
C2356 C2350 1.368 . S
C2356 C2355 1.523 . S
C2357 C2341 1.429 . S
C2357 C2353 1.429 . S
C2357 C2358 1.523 . S
C2358 C2342 1.368 . S
C2358 C2354 1.368 . S
C2358 C2357 1.523 . S
H2359 C2334 0.950 . S
H2360 C2336 0.950 . S
H2361 C2337 0.949 . S
H2362 C2339 0.950 . S
H2363 C2341 0.950 . S
C2364 C2365 1.349 . S
C2364 C2366 1.327 . S
C2364 H2389 0.950 . S
C2365 C2364 1.349 . S
C2365 C2381 1.349 . S
C2366 C2364 1.327 . S
C2366 C2385 1.429 . S
C2366 H2390 0.950 . S
C2367 C2384 1.574 . S
C2367 C2386 1.368 . S
C2367 H2391 0.949 . S
H2368 C2372 0.949 . S
C2369 C2370 1.349 . S
C2369 C2371 1.327 . S
C2369 H2392 0.950 . S
C2370 C2369 1.349 . S
C2370 C2382 1.349 . S
C2371 C2369 1.327 . S
C2371 C2387 1.429 . S
C2371 H2393 0.950 . S
C2372 H2368 0.949 . S
C2372 C2380 1.574 . S
C2372 C2388 1.368 . S
H2373 C2381 0.950 . S
H2374 C2379 0.950 . S
H2375 C2380 0.949 . S
H2376 C2382 0.950 . S
H2377 C2383 0.950 . S
H2378 C2384 0.949 . S
C2379 H2374 0.950 . S
C2379 C2381 1.327 . S
C2379 C2385 1.429 . S
C2380 C2372 1.574 . S
C2380 H2375 0.949 . S
C2380 C2386 1.368 . S
C2381 C2365 1.349 . S
C2381 H2373 0.950 . S
C2381 C2379 1.327 . S
C2382 C2370 1.349 . S
C2382 H2376 0.950 . S
C2382 C2383 1.327 . S
C2383 H2377 0.950 . S
C2383 C2382 1.327 . S
C2383 C2387 1.429 . S
C2384 C2367 1.574 . S
C2384 H2378 0.949 . S
C2384 C2388 1.368 . S
C2385 C2366 1.429 . S
C2385 C2379 1.429 . S
C2385 C2386 1.523 . S
C2386 C2367 1.368 . S
C2386 C2380 1.368 . S
C2386 C2385 1.523 . S
C2387 C2371 1.429 . S
C2387 C2383 1.429 . S
C2387 C2388 1.523 . S
C2388 C2372 1.368 . S
C2388 C2384 1.368 . S
C2388 C2387 1.523 . S
H2389 C2364 0.950 . S
H2390 C2366 0.950 . S
H2391 C2367 0.949 . S
H2392 C2369 0.950 . S
H2393 C2371 0.950 . S
C2394 C2395 1.349 . S
C2394 C2396 1.327 . S
C2394 H2419 0.950 . S
C2395 C2394 1.349 . S
C2395 C2411 1.349 . S
C2396 C2394 1.327 . S
C2396 C2415 1.429 . S
C2396 H2420 0.950 . S
C2397 C2414 1.574 . S
C2397 C2416 1.368 . S
C2397 H2421 0.949 . S
H2398 C2402 0.949 . S
C2399 C2400 1.349 . S
C2399 C2401 1.327 . S
C2399 H2422 0.950 . S
C2400 C2399 1.349 . S
C2400 C2412 1.349 . S
C2401 C2399 1.327 . S
C2401 C2417 1.429 . S
C2401 H2423 0.950 . S
C2402 H2398 0.949 . S
C2402 C2410 1.574 . S
C2402 C2418 1.368 . S
H2403 C2411 0.950 . S
H2404 C2409 0.950 . S
H2405 C2410 0.949 . S
H2406 C2412 0.950 . S
H2407 C2413 0.950 . S
H2408 C2414 0.949 . S
C2409 H2404 0.950 . S
C2409 C2411 1.327 . S
C2409 C2415 1.429 . S
C2410 C2402 1.574 . S
C2410 H2405 0.949 . S
C2410 C2416 1.368 . S
C2411 C2395 1.349 . S
C2411 H2403 0.950 . S
C2411 C2409 1.327 . S
C2412 C2400 1.349 . S
C2412 H2406 0.950 . S
C2412 C2413 1.327 . S
C2413 H2407 0.950 . S
C2413 C2412 1.327 . S
C2413 C2417 1.429 . S
C2414 C2397 1.574 . S
C2414 H2408 0.949 . S
C2414 C2418 1.368 . S
C2415 C2396 1.429 . S
C2415 C2409 1.429 . S
C2415 C2416 1.523 . S
C2416 C2397 1.368 . S
C2416 C2410 1.368 . S
C2416 C2415 1.523 . S
C2417 C2401 1.429 . S
C2417 C2413 1.429 . S
C2417 C2418 1.523 . S
C2418 C2402 1.368 . S
C2418 C2414 1.368 . S
C2418 C2417 1.523 . S
H2419 C2394 0.950 . S
H2420 C2396 0.950 . S
H2421 C2397 0.949 . S
H2422 C2399 0.950 . S
H2423 C2401 0.950 . S
C2424 C2425 1.349 . S
C2424 C2426 1.327 . S
C2424 H2449 0.950 . S
C2425 C2424 1.349 . S
C2425 C2441 1.349 . S
C2426 C2424 1.327 . S
C2426 C2445 1.429 . S
C2426 H2450 0.950 . S
C2427 C2444 1.574 . S
C2427 C2446 1.368 . S
C2427 H2451 0.949 . S
H2428 C2432 0.949 . S
C2429 C2430 1.349 . S
C2429 C2431 1.327 . S
C2429 H2452 0.950 . S
C2430 C2429 1.349 . S
C2430 C2442 1.349 . S
C2431 C2429 1.327 . S
C2431 C2447 1.429 . S
C2431 H2453 0.950 . S
C2432 H2428 0.949 . S
C2432 C2440 1.574 . S
C2432 C2448 1.368 . S
H2433 C2441 0.950 . S
H2434 C2439 0.950 . S
H2435 C2440 0.949 . S
H2436 C2442 0.950 . S
H2437 C2443 0.950 . S
H2438 C2444 0.949 . S
C2439 H2434 0.950 . S
C2439 C2441 1.327 . S
C2439 C2445 1.429 . S
C2440 C2432 1.574 . S
C2440 H2435 0.949 . S
C2440 C2446 1.368 . S
C2441 C2425 1.349 . S
C2441 H2433 0.950 . S
C2441 C2439 1.327 . S
C2442 C2430 1.349 . S
C2442 H2436 0.950 . S
C2442 C2443 1.327 . S
C2443 H2437 0.950 . S
C2443 C2442 1.327 . S
C2443 C2447 1.429 . S
C2444 C2427 1.574 . S
C2444 H2438 0.949 . S
C2444 C2448 1.368 . S
C2445 C2426 1.429 . S
C2445 C2439 1.429 . S
C2445 C2446 1.523 . S
C2446 C2427 1.368 . S
C2446 C2440 1.368 . S
C2446 C2445 1.523 . S
C2447 C2431 1.429 . S
C2447 C2443 1.429 . S
C2447 C2448 1.523 . S
C2448 C2432 1.368 . S
C2448 C2444 1.368 . S
C2448 C2447 1.523 . S
H2449 C2424 0.950 . S
H2450 C2426 0.950 . S
H2451 C2427 0.949 . S
H2452 C2429 0.950 . S
H2453 C2431 0.950 . S
C2454 C2455 1.349 . S
C2454 C2456 1.327 . S
C2454 H2479 0.950 . S
C2455 C2454 1.349 . S
C2455 C2471 1.349 . S
C2456 C2454 1.327 . S
C2456 C2475 1.429 . S
C2456 H2480 0.950 . S
C2457 C2474 1.574 . S
C2457 C2476 1.368 . S
C2457 H2481 0.949 . S
H2458 C2462 0.949 . S
C2459 C2460 1.349 . S
C2459 C2461 1.327 . S
C2459 H2482 0.950 . S
C2460 C2459 1.349 . S
C2460 C2472 1.349 . S
C2461 C2459 1.327 . S
C2461 C2477 1.429 . S
C2461 H2483 0.950 . S
C2462 H2458 0.949 . S
C2462 C2470 1.574 . S
C2462 C2478 1.368 . S
H2463 C2471 0.950 . S
H2464 C2469 0.950 . S
H2465 C2470 0.949 . S
H2466 C2472 0.950 . S
H2467 C2473 0.950 . S
H2468 C2474 0.949 . S
C2469 H2464 0.950 . S
C2469 C2471 1.327 . S
C2469 C2475 1.429 . S
C2470 C2462 1.574 . S
C2470 H2465 0.949 . S
C2470 C2476 1.368 . S
C2471 C2455 1.349 . S
C2471 H2463 0.950 . S
C2471 C2469 1.327 . S
C2472 C2460 1.349 . S
C2472 H2466 0.950 . S
C2472 C2473 1.327 . S
C2473 H2467 0.950 . S
C2473 C2472 1.327 . S
C2473 C2477 1.429 . S
C2474 C2457 1.574 . S
C2474 H2468 0.949 . S
C2474 C2478 1.368 . S
C2475 C2456 1.429 . S
C2475 C2469 1.429 . S
C2475 C2476 1.523 . S
C2476 C2457 1.368 . S
C2476 C2470 1.368 . S
C2476 C2475 1.523 . S
C2477 C2461 1.429 . S
C2477 C2473 1.429 . S
C2477 C2478 1.523 . S
C2478 C2462 1.368 . S
C2478 C2474 1.368 . S
C2478 C2477 1.523 . S
H2479 C2454 0.950 . S
H2480 C2456 0.950 . S
H2481 C2457 0.949 . S
H2482 C2459 0.950 . S
H2483 C2461 0.950 . S
C2484 C2485 1.349 . S
C2484 C2486 1.327 . S
C2484 H2509 0.950 . S
C2485 C2484 1.349 . S
C2485 C2501 1.349 . S
C2486 C2484 1.327 . S
C2486 C2505 1.429 . S
C2486 H2510 0.950 . S
C2487 C2504 1.528 1_455 S
C2487 C2506 1.397 . S
C2487 H2511 0.967 . S
H2488 C2492 0.967 . S
C2489 C2490 1.349 . S
C2489 C2491 1.327 . S
C2489 H2512 0.950 . S
C2490 C2489 1.349 . S
C2490 C2502 1.349 . S
C2491 C2489 1.327 . S
C2491 C2507 1.429 . S
C2491 H2513 0.950 . S
C2492 H2488 0.967 . S
C2492 C2500 1.528 1_655 S
C2492 C2508 1.397 . S
H2493 C2501 0.950 . S
H2494 C2499 0.950 . S
H2495 C2500 0.949 . S
H2496 C2502 0.950 . S
H2497 C2503 0.950 . S
H2498 C2504 0.949 . S
C2499 H2494 0.950 . S
C2499 C2501 1.327 . S
C2499 C2505 1.429 . S
C2500 C2492 1.528 1_455 S
C2500 H2495 0.949 . S
C2500 C2506 1.368 . S
C2501 C2485 1.349 . S
C2501 H2493 0.950 . S
C2501 C2499 1.327 . S
C2502 C2490 1.349 . S
C2502 H2496 0.950 . S
C2502 C2503 1.327 . S
C2503 H2497 0.950 . S
C2503 C2502 1.327 . S
C2503 C2507 1.429 . S
C2504 C2487 1.528 1_655 S
C2504 H2498 0.949 . S
C2504 C2508 1.368 . S
C2505 C2486 1.429 . S
C2505 C2499 1.429 . S
C2505 C2506 1.523 . S
C2506 C2487 1.397 . S
C2506 C2500 1.368 . S
C2506 C2505 1.523 . S
C2507 C2491 1.429 . S
C2507 C2503 1.429 . S
C2507 C2508 1.523 . S
C2508 C2492 1.397 . S
C2508 C2504 1.368 . S
C2508 C2507 1.523 . S
H2509 C2484 0.950 . S
H2510 C2486 0.950 . S
H2511 C2487 0.967 . S
H2512 C2489 0.950 . S
H2513 C2491 0.950 . S
C2514 C2515 1.349 . S
C2514 C2516 1.327 . S
C2514 H2539 0.950 . S
C2515 C2514 1.349 . S
C2515 C2531 1.349 . S
C2516 C2514 1.327 . S
C2516 C2535 1.429 . S
C2516 H2540 0.950 . S
C2517 C2534 1.574 . S
C2517 C2536 1.368 . S
C2517 H2541 0.949 . S
H2518 C2522 0.949 . S
C2519 C2520 1.349 . S
C2519 C2521 1.327 . S
C2519 H2542 0.950 . S
C2520 C2519 1.349 . S
C2520 C2532 1.349 . S
C2521 C2519 1.327 . S
C2521 C2537 1.429 . S
C2521 H2543 0.950 . S
C2522 H2518 0.949 . S
C2522 C2530 1.574 . S
C2522 C2538 1.368 . S
H2523 C2531 0.950 . S
H2524 C2529 0.950 . S
H2525 C2530 0.949 . S
H2526 C2532 0.950 . S
H2527 C2533 0.950 . S
H2528 C2534 0.949 . S
C2529 H2524 0.950 . S
C2529 C2531 1.327 . S
C2529 C2535 1.429 . S
C2530 C2522 1.574 . S
C2530 H2525 0.949 . S
C2530 C2536 1.368 . S
C2531 C2515 1.349 . S
C2531 H2523 0.950 . S
C2531 C2529 1.327 . S
C2532 C2520 1.349 . S
C2532 H2526 0.950 . S
C2532 C2533 1.327 . S
C2533 H2527 0.950 . S
C2533 C2532 1.327 . S
C2533 C2537 1.429 . S
C2534 C2517 1.574 . S
C2534 H2528 0.949 . S
C2534 C2538 1.368 . S
C2535 C2516 1.429 . S
C2535 C2529 1.429 . S
C2535 C2536 1.523 . S
C2536 C2517 1.368 . S
C2536 C2530 1.368 . S
C2536 C2535 1.523 . S
C2537 C2521 1.429 . S
C2537 C2533 1.429 . S
C2537 C2538 1.523 . S
C2538 C2522 1.368 . S
C2538 C2534 1.368 . S
C2538 C2537 1.523 . S
H2539 C2514 0.950 . S
H2540 C2516 0.950 . S
H2541 C2517 0.949 . S
H2542 C2519 0.950 . S
H2543 C2521 0.950 . S
C2544 C2545 1.349 . S
C2544 C2546 1.327 . S
C2544 H2569 0.950 . S
C2545 C2544 1.349 . S
C2545 C2561 1.349 . S
C2546 C2544 1.327 . S
C2546 C2565 1.429 . S
C2546 H2570 0.950 . S
C2547 C2564 1.574 1_545 S
C2547 C2566 1.368 . S
C2547 H2571 0.949 . S
H2548 C2552 0.949 . S
C2549 C2550 1.349 . S
C2549 C2551 1.327 . S
C2549 H2572 0.950 . S
C2550 C2549 1.349 . S
C2550 C2562 1.349 . S
C2551 C2549 1.327 . S
C2551 C2567 1.429 . S
C2551 H2573 0.950 . S
C2552 H2548 0.949 . S
C2552 C2560 1.574 1_565 S
C2552 C2568 1.368 . S
H2553 C2561 0.950 . S
H2554 C2559 0.950 . S
H2555 C2560 0.949 . S
H2556 C2562 0.950 . S
H2557 C2563 0.950 . S
H2558 C2564 0.949 . S
C2559 H2554 0.950 . S
C2559 C2561 1.327 . S
C2559 C2565 1.429 . S
C2560 C2552 1.574 1_545 S
C2560 H2555 0.949 . S
C2560 C2566 1.368 . S
C2561 C2545 1.349 . S
C2561 H2553 0.950 . S
C2561 C2559 1.327 . S
C2562 C2550 1.349 . S
C2562 H2556 0.950 . S
C2562 C2563 1.327 . S
C2563 H2557 0.950 . S
C2563 C2562 1.327 . S
C2563 C2567 1.429 . S
C2564 C2547 1.574 1_565 S
C2564 H2558 0.949 . S
C2564 C2568 1.368 . S
C2565 C2546 1.429 . S
C2565 C2559 1.429 . S
C2565 C2566 1.523 . S
C2566 C2547 1.368 . S
C2566 C2560 1.368 . S
C2566 C2565 1.523 . S
C2567 C2551 1.429 . S
C2567 C2563 1.429 . S
C2567 C2568 1.523 . S
C2568 C2552 1.368 . S
C2568 C2564 1.368 . S
C2568 C2567 1.523 . S
H2569 C2544 0.950 . S
H2570 C2546 0.950 . S
H2571 C2547 0.949 . S
H2572 C2549 0.950 . S
H2573 C2551 0.950 . S
C2574 C2575 1.349 . S
C2574 C2576 1.327 . S
C2574 H2599 0.950 . S
C2575 C2574 1.349 . S
C2575 C2591 1.349 . S
C2576 C2574 1.327 . S
C2576 C2595 1.429 . S
C2576 H2600 0.950 . S
C2577 C2594 1.574 1_545 S
C2577 C2596 1.368 . S
C2577 H2601 0.949 . S
H2578 C2582 0.949 . S
C2579 C2580 1.349 . S
C2579 C2581 1.327 . S
C2579 H2602 0.950 . S
C2580 C2579 1.349 . S
C2580 C2592 1.349 . S
C2581 C2579 1.327 . S
C2581 C2597 1.429 . S
C2581 H2603 0.950 . S
C2582 H2578 0.949 . S
C2582 C2590 1.574 1_565 S
C2582 C2598 1.368 . S
H2583 C2591 0.950 . S
H2584 C2589 0.950 . S
H2585 C2590 0.949 . S
H2586 C2592 0.950 . S
H2587 C2593 0.950 . S
H2588 C2594 0.949 . S
C2589 H2584 0.950 . S
C2589 C2591 1.327 . S
C2589 C2595 1.429 . S
C2590 C2582 1.574 1_545 S
C2590 H2585 0.949 . S
C2590 C2596 1.368 1_554 S
C2591 C2575 1.349 . S
C2591 H2583 0.950 . S
C2591 C2589 1.327 . S
C2592 C2580 1.349 . S
C2592 H2586 0.950 . S
C2592 C2593 1.327 . S
C2593 H2587 0.950 . S
C2593 C2592 1.327 . S
C2593 C2597 1.429 . S
C2594 C2577 1.574 1_565 S
C2594 H2588 0.949 . S
C2594 C2598 1.368 1_556 S
C2595 C2576 1.429 . S
C2595 C2589 1.429 . S
C2595 C2596 1.523 . S
C2596 C2577 1.368 . S
C2596 C2590 1.368 1_556 S
C2596 C2595 1.523 . S
C2597 C2581 1.429 . S
C2597 C2593 1.429 . S
C2597 C2598 1.523 . S
C2598 C2582 1.368 . S
C2598 C2594 1.368 1_554 S
C2598 C2597 1.523 . S
H2599 C2574 0.950 . S
H2600 C2576 0.950 . S
H2601 C2577 0.949 . S
H2602 C2579 0.950 . S
H2603 C2581 0.950 . S
C2604 C2605 1.349 . S
C2604 C2606 1.327 . S
C2604 H2629 0.950 . S
C2605 C2604 1.349 . S
C2605 C2621 1.349 . S
C2606 C2604 1.327 . S
C2606 C2625 1.429 . S
C2606 H2630 0.950 . S
C2607 C2624 1.579 1_655 S
C2607 C2626 1.368 . S
C2607 H2631 0.949 . S
H2608 C2612 0.949 . S
C2609 C2610 1.349 . S
C2609 C2611 1.327 . S
C2609 H2632 0.950 . S
C2610 C2609 1.349 . S
C2610 C2622 1.349 . S
C2611 C2609 1.327 . S
C2611 C2627 1.429 . S
C2611 H2633 0.950 . S
C2612 H2608 0.949 . S
C2612 C2620 1.579 1_455 S
C2612 C2628 1.368 . S
H2613 C2621 0.950 . S
H2614 C2619 0.950 . S
H2615 C2620 0.949 . S
H2616 C2622 0.950 . S
H2617 C2623 0.950 . S
H2618 C2624 0.949 . S
C2619 H2614 0.950 . S
C2619 C2621 1.327 . S
C2619 C2625 1.429 . S
C2620 C2612 1.579 1_655 S
C2620 H2615 0.949 . S
C2620 C2626 1.363 1_554 S
C2621 C2605 1.349 . S
C2621 H2613 0.950 . S
C2621 C2619 1.327 . S
C2622 C2610 1.349 . S
C2622 H2616 0.950 . S
C2622 C2623 1.327 . S
C2623 H2617 0.950 . S
C2623 C2622 1.327 . S
C2623 C2627 1.429 . S
C2624 C2607 1.579 1_455 S
C2624 H2618 0.949 . S
C2624 C2628 1.363 1_556 S
C2625 C2606 1.429 . S
C2625 C2619 1.429 . S
C2625 C2626 1.523 . S
C2626 C2607 1.368 . S
C2626 C2620 1.363 1_556 S
C2626 C2625 1.523 . S
C2627 C2611 1.429 . S
C2627 C2623 1.429 . S
C2627 C2628 1.523 . S
C2628 C2612 1.368 . S
C2628 C2624 1.363 1_554 S
C2628 C2627 1.523 . S
H2629 C2604 0.950 . S
H2630 C2606 0.950 . S
H2631 C2607 0.949 . S
H2632 C2609 0.950 . S
H2633 C2611 0.950 . S
C2634 C2635 1.349 . S
C2634 C2636 1.327 . S
C2634 H2659 0.950 . S
C2635 C2634 1.349 . S
C2635 C2651 1.349 . S
C2636 C2634 1.327 . S
C2636 C2655 1.429 . S
C2636 H2660 0.950 1_556 S
C2637 C2654 1.574 . S
C2637 C2656 1.368 . S
C2637 H2661 0.949 . S
H2638 C2642 0.949 . S
C2639 C2640 1.349 . S
C2639 C2641 1.327 . S
C2639 H2662 0.950 . S
C2640 C2639 1.349 . S
C2640 C2652 1.349 . S
C2641 C2639 1.327 . S
C2641 C2657 1.429 . S
C2641 H2663 0.950 1_554 S
C2642 H2638 0.949 . S
C2642 C2650 1.574 . S
C2642 C2658 1.368 . S
H2643 C2651 0.950 . S
H2644 C2649 0.950 . S
H2645 C2650 0.949 . S
H2646 C2652 0.950 . S
H2647 C2653 0.950 . S
H2648 C2654 0.949 . S
C2649 H2644 0.950 . S
C2649 C2651 1.327 . S
C2649 C2655 1.429 . S
C2650 C2642 1.574 . S
C2650 H2645 0.949 . S
C2650 C2656 1.368 1_554 S
C2651 C2635 1.349 . S
C2651 H2643 0.950 . S
C2651 C2649 1.327 . S
C2652 C2640 1.349 . S
C2652 H2646 0.950 . S
C2652 C2653 1.327 . S
C2653 H2647 0.950 . S
C2653 C2652 1.327 . S
C2653 C2657 1.429 . S
C2654 C2637 1.574 . S
C2654 H2648 0.949 . S
C2654 C2658 1.368 1_556 S
C2655 C2636 1.429 . S
C2655 C2649 1.429 . S
C2655 C2656 1.523 . S
C2656 C2637 1.368 . S
C2656 C2650 1.368 1_556 S
C2656 C2655 1.523 . S
C2657 C2641 1.429 . S
C2657 C2653 1.429 . S
C2657 C2658 1.523 . S
C2658 C2642 1.368 . S
C2658 C2654 1.368 1_554 S
C2658 C2657 1.523 . S
H2659 C2634 0.950 . S
H2660 C2636 0.950 1_554 S
H2661 C2637 0.949 . S
H2662 C2639 0.950 . S
H2663 C2641 0.950 1_556 S
C505 C3 1.255 . S
C510 C107 1.231 . S
C535 C17 1.255 . S
C540 C121 1.231 . S
C565 C93 1.231 . S
C570 C31 1.255 . S
C595 C163 1.231 . S
C600 C45 1.255 . S
C625 C59 1.255 . S
C630 C135 1.231 . S
C655 C73 1.255 . S
C660 C149 1.231 . S
C685 C23 1.231 . S
C690 C87 1.255 . S
C715 C37 1.231 . S
C720 C101 1.255 . S
C745 C115 1.255 . S
C750 C9 1.231 . S
C775 C129 1.255 . S
C780 C79 1.231 . S
C805 C51 1.231 . S
C810 C143 1.255 . S
C835 C157 1.255 . S
C840 C65 1.231 . S
C865 C275 1.231 . S
C870 C171 1.255 . S
C895 C185 1.255 . S
C900 C289 1.231 . S
C925 C199 1.255 . S
C930 C261 1.231 . S
C955 C331 1.231 . S
C960 C213 1.255 . S
C985 C227 1.255 . S
C990 C303 1.231 . S
C1015 C317 1.231 . S
C1020 C241 1.255 . S
C1045 C191 1.231 . S
C1050 C255 1.255 . S
C1075 C269 1.255 . S
C1080 C205 1.231 . S
C1105 C177 1.231 . S
C1110 C283 1.255 . S
C1135 C297 1.255 . S
C1140 C247 1.231 . S
C1165 C311 1.255 . S
C1170 C219 1.231 . S
C1195 C325 1.255 . S
C1200 C233 1.231 . S
C1225 C443 1.231 . S
C1230 C339 1.255 . S
C1255 C457 1.231 . S
C1260 C353 1.255 . S
C1285 C429 1.231 . S
C1290 C367 1.255 . S
C1315 C381 1.255 . S
C1320 C499 1.231 . S
C1345 C395 1.255 . S
C1350 C471 1.231 . S
C1375 C485 1.231 . S
C1380 C409 1.255 . S
C1405 C423 1.255 . S
C1410 C359 1.231 . S
C1435 C373 1.231 . S
C1440 C437 1.255 . S
C1465 C345 1.231 . S
C1470 C451 1.255 . S
C1495 C465 1.255 . S
C1500 C415 1.231 . S
C1525 C479 1.255 . S
C1530 C387 1.231 . S
C1555 C493 1.255 . S
C1560 C401 1.231 . S
C1585 C49 1.282 . S
C1590 C7 1.282 . S
C1615 C63 1.282 . S
C1620 C21 1.282 . S
C1645 C35 1.282 . S
C1650 C77 1.282 . S
C1675 C133 1.282 . S
C1680 C91 1.282 . S
C1705 C147 1.282 . S
C1710 C105 1.282 . S
C1735 C161 1.282 . S
C1740 C119 1.282 . S
C1765 C217 1.282 . S
C1770 C175 1.282 . S
C1795 C231 1.282 . S
C1800 C189 1.282 . S
C1825 C203 1.282 . S
C1830 C245 1.282 . S
C1855 C301 1.282 . S
C1860 C259 1.282 . S
C1885 C315 1.282 . S
C1890 C273 1.282 . S
C1915 C329 1.282 . S
C1920 C287 1.282 . S
C1945 C385 1.282 . S
C1950 C343 1.282 . S
C1975 C357 1.282 . S
C1980 C399 1.282 . S
C2005 C413 1.282 . S
C2010 C371 1.282 . S
C2035 C427 1.282 . S
C2040 C469 1.282 . S
C2065 C441 1.282 . S
C2070 C483 1.282 . S
C2095 C455 1.282 . S
C2100 C497 1.282 . S
C2125 C8 1.396 . S
C2130 C260 1.396 . S
C2155 C274 1.396 . S
C2160 C22 1.396 . S
C2185 C288 1.396 . S
C2190 C36 1.396 . S
C2215 C470 1.396 . S
C2220 C50 1.396 . S
C2245 C484 1.396 . S
C2250 C64 1.396 . S
C2275 C498 1.396 . S
C2280 C78 1.396 . S
C2305 C92 1.396 . S
C2310 C344 1.396 . S
C2335 C358 1.396 . S
C2340 C106 1.396 . S
C2365 C372 1.396 . S
C2370 C120 1.396 . S
C2395 C134 1.396 . S
C2400 C218 1.396 . S
C2425 C148 1.396 . S
C2430 C232 1.396 . S
C2455 C162 1.396 . S
C2460 C246 1.396 . S
C2485 C428 1.396 . S
C2490 C176 1.396 . S
C2515 C442 1.396 . S
C2520 C190 1.396 . S
C2545 C204 1.396 . S
C2550 C456 1.396 . S
C2575 C302 1.396 . S
C2580 C386 1.396 . S
C2605 C316 1.396 . S
C2610 C400 1.396 . S
C2635 C330 1.396 . S
C2640 C414 1.396 . S
