# Generated by pormake.
# Topology wjd, (6)-cn, num edge types: 1
# Building blocks:
#     Node 0, Type 0, BuildingBlock: KUMBOL_clean_sbu_1, # of connection points: 6
#     Node 1, Type 0, BuildingBlock: KUMBOL_clean_sbu_1, # of connection points: 6
#     Node 2, Type 0, BuildingBlock: KUMBOL_clean_sbu_1, # of connection points: 6
#     Node 3, Type 0, BuildingBlock: KUMBOL_clean_sbu_1, # of connection points: 6
#     Node 4, Type 0, BuildingBlock: KUMBOL_clean_sbu_1, # of connection points: 6
#     Node 5, Type 0, BuildingBlock: KUMBOL_clean_sbu_1, # of connection points: 6
#     Node 6, Type 0, BuildingBlock: KUMBOL_clean_sbu_1, # of connection points: 6
#     Node 7, Type 0, BuildingBlock: KUMBOL_clean_sbu_1, # of connection points: 6
#     Node 8, Type 0, BuildingBlock: KUMBOL_clean_sbu_1, # of connection points: 6
#     Node 9, Type 0, BuildingBlock: KUMBOL_clean_sbu_1, # of connection points: 6
#     Node 10, Type 0, BuildingBlock: KUMBOL_clean_sbu_1, # of connection points: 6
#     Node 11, Type 0, BuildingBlock: KUMBOL_clean_sbu_1, # of connection points: 6
#     Edge 12, Type (0, 0), BuildingBlock: UVAHIK_clean_linker_0, # of connection points: 2
#     Edge 13, Type (0, 0), BuildingBlock: UVAHIK_clean_linker_0, # of connection points: 2
#     Edge 14, Type (0, 0), BuildingBlock: UVAHIK_clean_linker_0, # of connection points: 2
#     Edge 15, Type (0, 0), BuildingBlock: UVAHIK_clean_linker_0, # of connection points: 2
#     Edge 16, Type (0, 0), BuildingBlock: UVAHIK_clean_linker_0, # of connection points: 2
#     Edge 17, Type (0, 0), BuildingBlock: UVAHIK_clean_linker_0, # of connection points: 2
#     Edge 18, Type (0, 0), BuildingBlock: UVAHIK_clean_linker_0, # of connection points: 2
#     Edge 19, Type (0, 0), BuildingBlock: UVAHIK_clean_linker_0, # of connection points: 2
#     Edge 20, Type (0, 0), BuildingBlock: UVAHIK_clean_linker_0, # of connection points: 2
#     Edge 21, Type (0, 0), BuildingBlock: UVAHIK_clean_linker_0, # of connection points: 2
#     Edge 22, Type (0, 0), BuildingBlock: UVAHIK_clean_linker_0, # of connection points: 2
#     Edge 23, Type (0, 0), BuildingBlock: UVAHIK_clean_linker_0, # of connection points: 2
#     Edge 24, Type (0, 0), BuildingBlock: UVAHIK_clean_linker_0, # of connection points: 2
#     Edge 25, Type (0, 0), BuildingBlock: UVAHIK_clean_linker_0, # of connection points: 2
#     Edge 26, Type (0, 0), BuildingBlock: UVAHIK_clean_linker_0, # of connection points: 2
#     Edge 27, Type (0, 0), BuildingBlock: UVAHIK_clean_linker_0, # of connection points: 2
#     Edge 28, Type (0, 0), BuildingBlock: UVAHIK_clean_linker_0, # of connection points: 2
#     Edge 29, Type (0, 0), BuildingBlock: UVAHIK_clean_linker_0, # of connection points: 2
#     Edge 30, Type (0, 0), BuildingBlock: UVAHIK_clean_linker_0, # of connection points: 2
#     Edge 31, Type (0, 0), BuildingBlock: UVAHIK_clean_linker_0, # of connection points: 2
#     Edge 32, Type (0, 0), BuildingBlock: UVAHIK_clean_linker_0, # of connection points: 2
#     Edge 33, Type (0, 0), BuildingBlock: UVAHIK_clean_linker_0, # of connection points: 2
#     Edge 34, Type (0, 0), BuildingBlock: UVAHIK_clean_linker_0, # of connection points: 2
#     Edge 35, Type (0, 0), BuildingBlock: UVAHIK_clean_linker_0, # of connection points: 2
#     Edge 36, Type (0, 0), BuildingBlock: UVAHIK_clean_linker_0, # of connection points: 2
#     Edge 37, Type (0, 0), BuildingBlock: UVAHIK_clean_linker_0, # of connection points: 2
#     Edge 38, Type (0, 0), BuildingBlock: UVAHIK_clean_linker_0, # of connection points: 2
#     Edge 39, Type (0, 0), BuildingBlock: UVAHIK_clean_linker_0, # of connection points: 2
#     Edge 40, Type (0, 0), BuildingBlock: UVAHIK_clean_linker_0, # of connection points: 2
#     Edge 41, Type (0, 0), BuildingBlock: UVAHIK_clean_linker_0, # of connection points: 2
#     Edge 42, Type (0, 0), BuildingBlock: UVAHIK_clean_linker_0, # of connection points: 2
#     Edge 43, Type (0, 0), BuildingBlock: UVAHIK_clean_linker_0, # of connection points: 2
#     Edge 44, Type (0, 0), BuildingBlock: UVAHIK_clean_linker_0, # of connection points: 2
#     Edge 45, Type (0, 0), BuildingBlock: UVAHIK_clean_linker_0, # of connection points: 2
#     Edge 46, Type (0, 0), BuildingBlock: UVAHIK_clean_linker_0, # of connection points: 2
#     Edge 47, Type (0, 0), BuildingBlock: UVAHIK_clean_linker_0, # of connection points: 2
# Relax obj value: 0.072
# Max RMSD: 0.178
# Mean RMSD: 0.178
data_MOF--net-wjd--node1-KUMBOL_clean_sbu_1--edge1-UVAHIK_clean_linker_0
_symmetry_space_group_name_H-M    P1
_symmetry_Int_Tables_number       1
_symmetry_cell_setting            triclinic
loop_
_symmetry_equiv_pos_as_xyz
'x, y, z'
_cell_length_a     48.258963
_cell_length_b     48.175976
_cell_length_c     68.478856
_cell_angle_alpha  90.014224
_cell_angle_beta   89.957037
_cell_angle_gamma 120.04803
loop_
_atom_site_label
_atom_site_type_symbol
_atom_site_fract_x
_atom_site_fract_y
_atom_site_fract_z
_atom_type_partial_charge
C0 C 0.30995 0.20677 0.11359 0.0
C1 C 0.30433 0.23234 0.1426 0.0
C2 C 0.31769 0.21585 0.13297 0.0
C3 C 0.2823 0.23832 0.13277 0.0
C4 C 0.28875 0.21376 0.10344 0.0
C5 C 0.27467 0.22922 0.11322 0.0
N6 N 0.32298 0.19084 0.10466 0.0
C7 C 0.3171 0.18239 0.08546 0.0
C8 C 0.282 0.20459 0.08382 0.0
C9 C 0.29638 0.18899 0.07477 0.0
Gd10 Gd 0.31231 0.09389 0.15226 0.0
Gd11 Gd 0.35808 0.18153 0.12316 0.0
N12 N 0.33921 0.20981 0.1421 0.0
C13 C 0.31431 0.24332 0.16162 0.0
C14 C 0.35146 0.22366 0.1598 0.0
C15 C 0.33852 0.23961 0.17007 0.0
H16 H 0.37193 0.22361 0.16596 0.0
H17 H 0.34779 0.2497 0.18432 0.0
H18 H 0.33917 0.04753 0.1332 0.0
H19 H 0.32829 0.17039 0.07845 0.0
H20 H 0.36686 0.0189 0.14442 0.0
H21 H 0.3046 0.25604 0.16952 0.0
H22 H 0.27155 0.2506 0.14005 0.0
H23 H 0.28422 0.11028 0.19219 0.0
H24 H 0.26577 0.20946 0.07555 0.0
H25 H 0.29148 0.182 0.05958 0.0
H26 H 0.37696 0.03674 0.21377 0.0
H27 H 0.25793 0.23435 0.10576 0.0
H28 H 0.3231 0.08799 0.24213 0.0
H29 H 0.28966 0.1087 0.22808 0.0
N30 N 0.3146 0.09124 0.18626 0.0
C31 C 0.33163 0.07828 0.19362 0.0
C32 C 0.2988 0.10121 0.19829 0.0
C33 C 0.32078 0.08866 0.22642 0.0
C34 C 0.30185 0.10033 0.21856 0.0
C35 C 0.33546 0.07684 0.21393 0.0
H36 H 0.35623 0.06156 0.2366 0.0
N37 N 0.33732 0.06468 0.16149 0.0
C38 C 0.34328 0.0644 0.18081 0.0
C39 C 0.36817 0.0325 0.17455 0.0
C40 C 0.35913 0.04857 0.18789 0.0
C41 C 0.34451 0.0476 0.14853 0.0
C42 C 0.36043 0.03166 0.15481 0.0
O43 O 0.30471 0.14536 0.12099 0.0
O44 O 0.29417 0.12864 0.15242 0.0
O45 O 0.27008 0.06723 0.13415 0.0
O46 O 0.27092 0.05068 0.16333 0.0
O47 O 0.37553 0.17951 0.15375 0.0
O48 O 0.32681 0.14219 0.16446 0.0
O49 O 0.36366 0.10958 0.14375 0.0
O50 O 0.38966 0.16076 0.1294 0.0
O51 O 0.39501 0.23235 0.12258 0.0
O52 O 0.38741 0.20187 0.09719 0.0
O53 O 0.32192 0.09171 0.12038 0.0
O54 O 0.34651 0.14006 0.10259 0.0
C55 C 0.28542 0.13631 0.13614 0.0
C56 C 0.3569 0.1621 0.16809 0.0
C57 C 0.2396 0.01156 0.13987 0.0
C58 C 0.19114 0.96031 0.13337 0.0
C59 C 0.24343 0.9685 0.12412 0.0
C60 C 0.25807 0.99961 0.13155 0.0
C61 C 0.2102 0.94897 0.12495 0.0
C62 C 0.20613 0.99176 0.14092 0.0
C63 C 0.25493 0.04477 0.14709 0.0
C64 C 0.36451 0.04847 0.20805 0.0
C65 C 0.35272 0.06261 0.22105 0.0
H66 H 0.38042 0.02006 0.17939 0.0
C67 C 0.38891 0.13468 0.13603 0.0
C68 C 0.3329 0.10843 0.10409 0.0
C69 C 0.42902 0.25788 0.09408 0.0
C70 C 0.47746 0.31088 0.0934 0.0
C71 C 0.45419 0.28199 0.06315 0.0
C72 C 0.43009 0.25655 0.07363 0.0
C73 C 0.47773 0.30889 0.07291 0.0
C74 C 0.45262 0.28535 0.10395 0.0
C75 C 0.4034 0.23034 0.10483 0.0
H76 H 0.25787 0.9595 0.11767 0.0
H77 H 0.28376 0.01444 0.13066 0.0
H78 H 0.19942 0.92482 0.11919 0.0
H79 H 0.19178 1.00101 0.14726 0.0
H80 H 0.4547 0.2808 0.04738 0.0
H81 H 0.41217 0.23585 0.0657 0.0
H82 H 0.49616 0.3283 0.06437 0.0
H83 H 0.45222 0.28645 0.11974 0.0
C84 C 0.7206 0.65153 0.38025 0.0
C85 C 0.68612 0.64856 0.40693 0.0
C86 C 0.71703 0.66035 0.39903 0.0
C87 C 0.6592 0.62648 0.39622 0.0
C88 C 0.69364 0.62991 0.36929 0.0
C89 C 0.66295 0.61715 0.37747 0.0
N90 N 0.75069 0.66347 0.37292 0.0
C91 C 0.75544 0.65638 0.35436 0.0
C92 C 0.69836 0.62168 0.35045 0.0
C93 C 0.72938 0.63518 0.34291 0.0
Gd94 Gd 0.83247 0.65101 0.42073 0.0
Gd95 Gd 0.79285 0.69765 0.39355 0.0
N96 N 0.74359 0.68142 0.40922 0.0
C97 C 0.68312 0.6601 0.4251 0.0
C98 C 0.74043 0.69532 0.4258 0.0
C99 C 0.71036 0.68418 0.43434 0.0
H100 H 0.76089 0.71563 0.43226 0.0
H101 H 0.70817 0.69464 0.44783 0.0
H102 H 0.87662 0.65659 0.38065 0.0
H103 H 0.77938 0.66701 0.34849 0.0
H104 H 0.93313 0.68401 0.37101 0.0
H105 H 0.65982 0.65169 0.43166 0.0
H106 H 0.63532 0.61694 0.40216 0.0
H107 H 0.83172 0.66544 0.46836 0.0
H108 H 0.67824 0.60513 0.34157 0.0
H109 H 0.73322 0.62925 0.32829 0.0
H110 H 0.98989 0.73458 0.42981 0.0
H111 H 0.64194 0.60032 0.36933 0.0
H112 H 0.92877 0.72157 0.48775 0.0
H113 H 0.87068 0.69406 0.49473 0.0
N114 N 0.86746 0.67723 0.44669 0.0
C115 C 0.89927 0.69162 0.44259 0.0
C116 C 0.85702 0.6777 0.46513 0.0
C117 C 0.9118 0.70909 0.47612 0.0
C118 C 0.87902 0.69368 0.48011 0.0
C119 C 0.92232 0.70822 0.45719 0.0
H120 H 0.97306 0.73663 0.46343 0.0
N121 N 0.88582 0.67487 0.40967 0.0
C122 C 0.90872 0.69045 0.42355 0.0
C123 C 0.95029 0.70402 0.39954 0.0
C124 C 0.94155 0.70582 0.41877 0.0
C125 C 0.89434 0.67144 0.39121 0.0
C126 C 0.92658 0.68642 0.38577 0.0
O127 O 0.7681 0.64306 0.39278 0.0
O128 O 0.77908 0.62941 0.42256 0.0
O129 O 0.8342 0.60801 0.41267 0.0
O130 O 0.82705 0.61626 0.44274 0.0
O131 O 0.80634 0.70802 0.42556 0.0
O132 O 0.79844 0.66026 0.43875 0.0
O133 O 0.8588 0.70537 0.42146 0.0
O134 O 0.84692 0.72128 0.39249 0.0
O135 O 0.79481 0.74405 0.39706 0.0
O136 O 0.79188 0.72369 0.36809 0.0
O137 O 0.82133 0.6419 0.38811 0.0
O138 O 0.8275 0.68957 0.37604 0.0
C139 C 0.75973 0.62366 0.40781 0.0
C140 C 0.79896 0.68783 0.44027 0.0
C141 C 0.85626 0.5895 0.43696 0.0
C142 C 0.87638 0.55165 0.4364 0.0
C143 C 0.90203 0.5995 0.45681 0.0
C144 C 0.88033 0.60856 0.4504 0.0
C145 C 0.90002 0.57129 0.45001 0.0
C146 C 0.85444 0.56107 0.42993 0.0
C147 C 0.83254 0.59866 0.4307 0.0
C148 C 0.96458 0.72249 0.43327 0.0
C149 C 0.955 0.72364 0.45242 0.0
H150 H 0.97524 0.71559 0.39527 0.0
C151 C 0.86695 0.72523 0.40666 0.0
C152 C 0.8262 0.66191 0.37356 0.0
C153 C 0.79237 0.77425 0.36873 0.0
C154 C 0.79672 0.82708 0.36987 0.0
C155 C 0.78057 0.79593 0.3399 0.0
C156 C 0.78312 0.77147 0.34904 0.0
C157 C 0.78712 0.82346 0.35024 0.0
C158 C 0.79953 0.80242 0.3791 0.0
C159 C 0.79288 0.74692 0.37827 0.0
H160 H 0.92028 0.61424 0.46731 0.0
H161 H 0.88217 0.63025 0.45625 0.0
H162 H 0.91674 0.5646 0.45579 0.0
H163 H 0.83605 0.54647 0.41945 0.0
H164 H 0.77329 0.79346 0.32475 0.0
H165 H 0.77736 0.75012 0.34072 0.0
H166 H 0.78501 0.84218 0.34282 0.0
H167 H 0.80667 0.80494 0.3943 0.0
C168 C 0.79285 0.10723 0.11332 0.0
C169 C 0.76427 0.07465 0.14134 0.0
C170 C 0.78281 0.10501 0.13256 0.0
C171 C 0.75696 0.04682 0.13075 0.0
C172 C 0.78475 0.07934 0.10244 0.0
C173 C 0.76708 0.04915 0.11134 0.0
N174 N 0.81109 0.13679 0.10534 0.0
C175 C 0.82005 0.14028 0.0862 0.0
C176 C 0.79491 0.0827 0.08298 0.0
C177 C 0.81236 0.1133 0.07477 0.0
Gd178 Gd 0.91415 0.2205 0.1462 0.0
Gd179 Gd 0.82311 0.18064 0.12547 0.0
N180 N 0.79044 0.13243 0.14249 0.0
C181 C 0.75306 0.07312 0.16038 0.0
C182 C 0.77733 0.13082 0.16044 0.0
C183 C 0.75915 0.1013 0.16982 0.0
H184 H 0.78011 0.15206 0.1675 0.0
H185 H 0.74943 0.10028 0.18423 0.0
H186 H 0.95579 0.26676 0.10887 0.0
H187 H 0.83341 0.16392 0.07983 0.0
H188 H 0.98887 0.32464 0.10126 0.0
H189 H 0.73879 0.05028 0.16765 0.0
H190 H 0.74304 0.02333 0.13735 0.0
H191 H 0.90594 0.21586 0.1954 0.0
H192 H 0.78919 0.06186 0.07414 0.0
H193 H 0.81994 0.11611 0.05967 0.0
H194 H 0.98959 0.37686 0.16124 0.0
H195 H 0.76099 0.02745 0.1033 0.0
H196 H 0.94019 0.31061 0.21728 0.0
H197 H 0.9141 0.25211 0.22287 0.0
N198 N 0.92337 0.25281 0.17396 0.0
C199 C 0.93955 0.28501 0.17077 0.0
C200 C 0.91564 0.24106 0.19253 0.0
C201 C 0.93574 0.29467 0.20503 0.0
C202 C 0.92094 0.26167 0.20824 0.0
C203 C 0.94603 0.30681 0.18621 0.0
H204 H 0.96841 0.35703 0.19416 0.0
N205 N 0.94529 0.27467 0.13776 0.0
C206 C 0.95141 0.29629 0.15222 0.0
C207 C 0.98334 0.3397 0.12996 0.0
C208 C 0.97014 0.32947 0.14861 0.0
C209 C 0.95925 0.28433 0.11982 0.0
C210 C 0.9782 0.317 0.11558 0.0
O211 O 0.85337 0.15709 0.1222 0.0
O212 O 0.88011 0.16781 0.15108 0.0
O213 O 0.94706 0.2071 0.13342 0.0
O214 O 0.95464 0.22524 0.16288 0.0
O215 O 0.83068 0.19551 0.1575 0.0
O216 O 0.87366 0.18983 0.16706 0.0
O217 O 0.89624 0.25205 0.13293 0.0
O218 O 0.84374 0.2268 0.14232 0.0
O219 O 0.7728 0.16676 0.12393 0.0
O220 O 0.80622 0.20061 0.10311 0.0
O221 O 0.9062 0.20747 0.11423 0.0
O222 O 0.86261 0.21204 0.10398 0.0
C223 C 0.86363 0.14774 0.13709 0.0
C224 C 0.84739 0.19074 0.171 0.0
C225 C 1.00038 0.2349 0.14471 0.0
C226 C 0.05123 0.23704 0.1384 0.0
C227 C 0.04812 0.28583 0.13774 0.0
C228 C 0.01564 0.2683 0.14247 0.0
C229 C 0.06581 0.27031 0.13555 0.0
C230 C 0.01839 0.21939 0.14294 0.0
C231 C 0.96574 0.21581 0.1486 0.0
C232 C 0.97556 0.35124 0.16377 0.0
C233 C 0.96344 0.33994 0.18251 0.0
H234 H 0.99797 0.36499 0.12663 0.0
C235 C 0.87032 0.25296 0.13771 0.0
C236 C 0.89063 0.21404 0.10091 0.0
C237 C 0.76246 0.2071 0.11305 0.0
C238 C 0.71478 0.21126 0.11984 0.0
C239 C 0.76698 0.25941 0.11628 0.0
C240 C 0.78114 0.24072 0.11293 0.0
C241 C 0.73411 0.24489 0.11972 0.0
C242 C 0.72927 0.19253 0.11643 0.0
C243 C 0.77714 0.18686 0.11001 0.0
H244 H 0.05966 0.31156 0.13589 0.0
H245 H 1.00261 0.28088 0.14445 0.0
H246 H 0.09108 0.28438 0.13212 0.0
H247 H 0.00685 0.19364 0.14494 0.0
H248 H 0.78154 0.2853 0.11614 0.0
H249 H 0.80667 0.25259 0.11029 0.0
H250 H 0.72376 0.26006 0.12197 0.0
H251 H 0.71485 0.16659 0.11668 0.0
C252 C 0.35158 0.07216 0.36401 0.0
C253 C 0.37407 0.04494 0.38235 0.0
C254 C 0.35737 0.06194 0.38174 0.0
C255 C 0.38529 0.03873 0.36489 0.0
C256 C 0.36252 0.06569 0.34644 0.0
C257 C 0.37957 0.04911 0.347 0.0
N258 N 0.33492 0.08804 0.36393 0.0
C259 C 0.32733 0.09707 0.3468 0.0
C260 C 0.35578 0.07589 0.32883 0.0
C261 C 0.33795 0.09149 0.32901 0.0
Gd262 Gd 0.36704 0.18328 0.42122 0.0
Gd263 Gd 0.31951 0.0973 0.39456 0.0
N264 N 0.34686 0.06898 0.39846 0.0
C265 C 0.37886 0.0346 0.4005 0.0
C266 C 0.35027 0.0579 0.41608 0.0
C267 C 0.36667 0.04088 0.41741 0.0
H268 H 0.34053 0.06234 0.42908 0.0
H269 H 0.3698 0.03253 0.43146 0.0
H270 H 0.34443 0.20946 0.38201 0.0
H271 H 0.31284 0.10838 0.34685 0.0
H272 H 0.31424 0.23713 0.37521 0.0
H273 H 0.39159 0.02146 0.4016 0.0
H274 H 0.39829 0.02579 0.36506 0.0
H275 H 0.36797 0.17651 0.46986 0.0
H276 H 0.36386 0.07148 0.31502 0.0
H277 H 0.33224 0.09907 0.31546 0.0
H278 H 0.28611 0.25757 0.43868 0.0
H279 H 0.38824 0.04399 0.33365 0.0
H280 H 0.31813 0.22077 0.49464 0.0
H281 H 0.34784 0.19164 0.49879 0.0
N282 N 0.34904 0.19614 0.44962 0.0
C283 C 0.33318 0.21254 0.44697 0.0
C284 C 0.35457 0.18875 0.46789 0.0
C285 C 0.32676 0.21407 0.48189 0.0
C286 C 0.34344 0.19753 0.4843 0.0
C287 C 0.32144 0.22179 0.46307 0.0
H288 H 0.29535 0.24542 0.47212 0.0
N289 N 0.33839 0.20901 0.41273 0.0
C290 C 0.32793 0.21941 0.42802 0.0
C291 C 0.30568 0.24181 0.40559 0.0
C292 C 0.31091 0.23574 0.42483 0.0
C293 C 0.33449 0.21598 0.394 0.0
C294 C 0.31771 0.23207 0.39012 0.0
O295 O 0.37414 0.12014 0.39695 0.0
O296 O 0.39006 0.15308 0.4241 0.0
O297 O 0.40276 0.22879 0.40915 0.0
O298 O 0.40718 0.21732 0.43908 0.0
O299 O 0.31272 0.10074 0.42691 0.0
O300 O 0.35877 0.14165 0.44081 0.0
O301 O 0.31255 0.15589 0.42247 0.0
O302 O 0.29824 0.12965 0.39311 0.0
O303 O 0.27893 0.05655 0.40834 0.0
O304 O 0.27969 0.06273 0.377 0.0
O305 O 0.37775 0.17879 0.38928 0.0
O306 O 0.32836 0.14114 0.37824 0.0
C307 C 0.39502 0.13641 0.41082 0.0
C308 C 0.33314 0.11269 0.44144 0.0
C309 C 0.4547 0.2501 0.4212 0.0
C310 C 0.50809 0.29575 0.41534 0.0
C311 C 0.4977 0.2413 0.41066 0.0
C312 C 0.46575 0.22922 0.41594 0.0
C313 C 0.51876 0.27437 0.41024 0.0
C314 C 0.47598 0.28336 0.42104 0.0
C315 C 0.42045 0.23766 0.42478 0.0
C316 C 0.29933 0.2451 0.44086 0.0
C317 C 0.30457 0.23816 0.45991 0.0
H318 H 0.29258 0.25415 0.40253 0.0
C319 C 0.29157 0.14179 0.40838 0.0
C320 C 0.35748 0.16449 0.37493 0.0
C321 C 0.25093 0.00978 0.3891 0.0
C322 C 0.20428 0.95563 0.3896 0.0
C323 C 0.25649 0.96443 0.37942 0.0
C324 C 0.26996 0.99732 0.38246 0.0
C325 C 0.22391 0.94371 0.38285 0.0
C326 C 0.21824 0.98891 0.39279 0.0
C327 C 0.26445 0.04449 0.39182 0.0
H328 H 0.506 0.22499 0.40654 0.0
H329 H 0.44946 0.20369 0.41546 0.0
H330 H 0.5434 0.28327 0.40593 0.0
H331 H 0.46725 0.29957 0.4246 0.0
H332 H 0.27128 0.95498 0.37415 0.0
H333 H 0.29508 0.01297 0.37945 0.0
H334 H 0.21405 0.91843 0.37984 0.0
H335 H 0.20379 0.99872 0.39818 0.0
C336 C 0.88982 0.68146 0.10306 0.0
C337 C 0.92946 0.6914 0.12799 0.0
C338 C 0.89721 0.67837 0.1223 0.0
C339 C 0.95399 0.70774 0.11425 0.0
C340 C 0.91439 0.6978 0.08922 0.0
C341 C 0.94648 0.71088 0.09492 0.0
N342 N 0.8586 0.66957 0.09808 0.0
C343 C 0.85018 0.6723 0.07948 0.0
C344 C 0.90598 0.70098 0.07013 0.0
C345 C 0.87374 0.68812 0.06524 0.0
Gd346 Gd 0.78479 0.69265 0.1484 0.0
Gd347 Gd 0.82098 0.64226 0.12267 0.0
N348 N 0.87295 0.66294 0.13543 0.0
C349 C 0.93613 0.68742 0.14733 0.0
C350 C 0.87935 0.65719 0.15392 0.0
C351 C 0.91094 0.66989 0.16027 0.0
H352 H 0.86039 0.64196 0.16373 0.0
H353 H 0.91583 0.66564 0.17505 0.0
H354 H 0.72784 0.66542 0.11411 0.0
H355 H 0.82529 0.6619 0.07551 0.0
H356 H 0.66877 0.63826 0.11239 0.0
H357 H 0.96058 0.6971 0.15228 0.0
H358 H 0.97888 0.71799 0.11841 0.0
H359 H 0.80424 0.70452 0.19576 0.0
H360 H 0.92416 0.71336 0.05908 0.0
H361 H 0.86701 0.6903 0.05049 0.0
H362 H 0.63571 0.62499 0.17959 0.0
H363 H 0.96569 0.72362 0.0845 0.0
H364 H 0.71724 0.66383 0.22887 0.0
H365 H 0.77644 0.69173 0.22766 0.0
N366 N 0.76117 0.68257 0.17931 0.0
C367 C 0.72868 0.66759 0.17959 0.0
C368 C 0.77839 0.6916 0.19621 0.0
C369 C 0.7293 0.66901 0.21487 0.0
C370 C 0.76273 0.68472 0.21425 0.0
C371 C 0.71184 0.66042 0.19741 0.0
H372 H 0.66488 0.63925 0.2108 0.0
N373 N 0.72906 0.66556 0.14506 0.0
C374 C 0.71216 0.65934 0.16197 0.0
C375 C 0.66278 0.63614 0.14366 0.0
C376 C 0.67847 0.64401 0.16173 0.0
C377 C 0.71406 0.65903 0.1274 0.0
C378 C 0.68067 0.64386 0.12643 0.0
O379 O 0.84879 0.69669 0.12137 0.0
O380 O 0.83836 0.71266 0.15068 0.0
O381 O 0.77944 0.72894 0.13306 0.0
O382 O 0.79379 0.73629 0.16341 0.0
O383 O 0.80743 0.63305 0.15506 0.0
O384 O 0.81811 0.68274 0.1658 0.0
O385 O 0.7522 0.63793 0.1487 0.0
O386 O 0.76789 0.62149 0.12149 0.0
O387 O 0.82254 0.59888 0.12977 0.0
O388 O 0.81462 0.60812 0.10006 0.0
O389 O 0.7967 0.69862 0.11626 0.0
O390 O 0.7873 0.6505 0.10347 0.0
C391 C 0.85796 0.71661 0.13619 0.0
C392 C 0.81325 0.65386 0.16924 0.0
C393 C 0.81554 0.78154 0.14266 0.0
C394 C 0.8348 0.83856 0.13826 0.0
C395 C 0.8682 0.81626 0.12881 0.0
C396 C 0.84416 0.78592 0.13459 0.0
C397 C 0.86355 0.84246 0.13055 0.0
C398 C 0.81095 0.80799 0.14462 0.0
C399 C 0.78977 0.74903 0.14765 0.0
C400 C 0.66161 0.63686 0.17947 0.0
C401 C 0.67823 0.64497 0.19725 0.0
H402 H 0.63691 0.6243 0.14286 0.0
C403 C 0.74811 0.61553 0.13604 0.0
C404 C 0.78633 0.67732 0.10221 0.0
C405 C 0.84465 0.58201 0.1046 0.0
C406 C 0.86691 0.54609 0.10527 0.0
C407 C 0.88856 0.59168 0.08303 0.0
C408 C 0.8667 0.60021 0.08993 0.0
C409 C 0.88859 0.56478 0.09049 0.0
C410 C 0.845 0.5551 0.11231 0.0
C411 C 0.8207 0.59035 0.11155 0.0
H412 H 0.89025 0.81935 0.12267 0.0
H413 H 0.84757 0.76574 0.13235 0.0
H414 H 0.88238 0.86581 0.12577 0.0
H415 H 0.78854 0.80461 0.15039 0.0
H416 H 0.90527 0.60572 0.07161 0.0
H417 H 0.86686 0.62078 0.08353 0.0
H418 H 0.90522 0.5583 0.08429 0.0
H419 H 0.82821 0.54129 0.12376 0.0
C420 C 0.93793 0.28141 0.36993 0.0
C421 C 0.97098 0.32854 0.38964 0.0
C422 C 0.95209 0.29499 0.38766 0.0
C423 C 0.97395 0.34834 0.37379 0.0
C424 C 0.94209 0.30119 0.35371 0.0
C425 C 0.95943 0.3347 0.35588 0.0
N426 N 0.92205 0.24893 0.36819 0.0
C427 C 0.91265 0.23497 0.35023 0.0
C428 C 0.92978 0.28672 0.33563 0.0
C429 C 0.9155 0.25348 0.33382 0.0
Gd430 Gd 0.8282 0.18159 0.42165 0.0
Gd431 Gd 0.91662 0.22011 0.39706 0.0
N432 N 0.94839 0.27525 0.40281 0.0
C433 C 0.98696 0.3411 0.40734 0.0
C434 C 0.96516 0.28715 0.41974 0.0
C435 C 0.98442 0.32027 0.42235 0.0
H436 H 0.96355 0.271 0.43115 0.0
H437 H 0.9973 0.3297 0.4359 0.0
H438 H 0.78184 0.14978 0.3811 0.0
H439 H 0.9034 0.2096 0.34842 0.0
H440 H 0.74842 0.09663 0.36656 0.0
H441 H 1.00183 0.36675 0.4094 0.0
H442 H 0.98803 0.3742 0.37508 0.0
H443 H 0.84329 0.16886 0.46708 0.0
H444 H 0.93241 0.30105 0.32283 0.0
H445 H 0.9072 0.24214 0.31972 0.0
H446 H 0.74314 0.02351 0.41585 0.0
H447 H 0.96263 0.35026 0.34363 0.0
H448 H 0.79591 0.0674 0.47679 0.0
H449 H 0.83001 0.12284 0.48888 0.0
N450 N 0.81755 0.13953 0.44297 0.0
C451 C 0.79766 0.10937 0.43627 0.0
C452 C 0.82855 0.1447 0.46172 0.0
C453 C 0.80157 0.08746 0.46722 0.0
C454 C 0.82094 0.11874 0.47408 0.0
C455 C 0.78958 0.08244 0.44813 0.0
H456 H 0.76397 0.03051 0.44935 0.0
N457 N 0.79352 0.13209 0.40648 0.0
C458 C 0.78596 0.10553 0.41734 0.0
C459 C 0.75303 0.07136 0.39113 0.0
C460 C 0.76578 0.07446 0.40986 0.0
C461 C 0.77906 0.12908 0.38884 0.0
C462 C 0.75929 0.09879 0.38071 0.0
O463 O 0.9008 0.25318 0.41085 0.0
O464 O 0.84728 0.22697 0.40404 0.0
O465 O 0.77832 0.16924 0.42402 0.0
O466 O 0.81298 0.20177 0.44481 0.0
O467 O 0.91058 0.20713 0.42896 0.0
O468 O 0.87011 0.2143 0.44147 0.0
O469 O 0.85697 0.15594 0.42347 0.0
O470 O 0.88228 0.16697 0.39388 0.0
O471 O 0.95196 0.2097 0.4094 0.0
O472 O 0.95461 0.22213 0.37895 0.0
O473 O 0.83241 0.19469 0.38936 0.0
O474 O 0.87377 0.18754 0.37839 0.0
C475 C 0.87404 0.2535 0.40779 0.0
C476 C 0.89871 0.21696 0.44285 0.0
C477 C 0.76989 0.21028 0.43632 0.0
C478 C 0.72308 0.2168 0.43191 0.0
C479 C 0.77597 0.26349 0.43638 0.0
C480 C 0.78933 0.24374 0.43788 0.0
C481 C 0.74311 0.25019 0.43351 0.0
C482 C 0.73672 0.19693 0.43315 0.0
C483 C 0.78373 0.18905 0.43831 0.0
C484 C 0.75838 0.04753 0.42144 0.0
C485 C 0.77015 0.05151 0.44054 0.0
H486 H 0.73746 0.04793 0.38485 0.0
C487 C 0.86767 0.14714 0.40842 0.0
C488 C 0.84752 0.18884 0.3753 0.0
C489 C 1.00322 0.23568 0.39493 0.0
C490 C 0.05527 0.23961 0.39952 0.0
C491 C 0.05139 0.28787 0.39682 0.0
C492 C 0.0183 0.26925 0.39439 0.0
C493 C 0.06979 0.27321 0.3995 0.0
C494 C 0.02184 0.22093 0.39726 0.0
C495 C 0.96818 0.21567 0.39325 0.0
H496 H 0.79115 0.28924 0.43756 0.0
H497 H 0.81486 0.25472 0.44031 0.0
H498 H 0.73332 0.26605 0.43245 0.0
H499 H 0.72148 0.17113 0.43211 0.0
H500 H 0.06283 0.31376 0.3965 0.0
H501 H 1.00463 0.2811 0.39201 0.0
H502 H 0.09548 0.28812 0.40111 0.0
H503 H 0.01032 0.19499 0.3975 0.0
C504 C 0.08093 0.35705 0.68047 0.0
C505 C 0.04655 0.37085 0.66206 0.0
C506 C 0.06541 0.35612 0.66327 0.0
C507 C 0.04507 0.38819 0.67813 0.0
C508 C 0.07818 0.37306 0.69696 0.0
C509 C 0.06094 0.38939 0.69552 0.0
N510 N 0.09666 0.3403 0.68152 0.0
C511 C 0.1072 0.33584 0.69909 0.0
C512 C 0.09172 0.37107 0.7146 0.0
C513 C 0.10577 0.35187 0.71575 0.0
Gd514 Gd 0.18651 0.36718 0.6252 0.0
Gd515 Gd 0.10009 0.31661 0.65222 0.0
N516 N 0.06761 0.33948 0.64792 0.0
C517 C 0.02902 0.36686 0.64496 0.0
C518 C 0.04926 0.33398 0.63163 0.0
C519 C 0.02995 0.34787 0.62981 0.0
H520 H 0.04985 0.31909 0.62006 0.0
H521 H 0.01586 0.34397 0.61674 0.0
H522 H 0.2352 0.38228 0.66469 0.0
H523 H 0.11643 0.31963 0.70038 0.0
H524 H 0.26778 0.36129 0.67876 0.0
H525 H 0.01411 0.37767 0.6435 0.0
H526 H 0.03103 0.40003 0.67742 0.0
H527 H 0.16918 0.33872 0.57986 0.0
H528 H 0.09022 0.3831 0.7276 0.0
H529 H 0.11504 0.34899 0.72952 0.0
H530 H 0.26686 0.28951 0.62994 0.0
H531 H 0.05883 0.40208 0.70798 0.0
H532 H 0.2116 0.2802 0.56999 0.0
H533 H 0.17915 0.30349 0.55818 0.0
N534 N 0.19522 0.3347 0.60362 0.0
C535 C 0.21439 0.32347 0.6101 0.0
C536 C 0.1833 0.32856 0.58508 0.0
C537 C 0.20743 0.29574 0.5795 0.0
C538 C 0.18901 0.30876 0.57279 0.0
C539 C 0.22052 0.30315 0.59831 0.0
H540 H 0.24389 0.27476 0.59696 0.0
N541 N 0.22117 0.35182 0.63968 0.0
C542 C 0.22721 0.33177 0.62878 0.0
C543 C 0.26059 0.33 0.65448 0.0
C544 C 0.24671 0.31997 0.63602 0.0
C545 C 0.23677 0.3636 0.65699 0.0
C546 C 0.25604 0.35234 0.66484 0.0
O547 O 0.1142 0.36452 0.63778 0.0
O548 O 0.16814 0.39374 0.6432 0.0
O549 O 0.23661 0.40302 0.62103 0.0
O550 O 0.20068 0.40379 0.60273 0.0
O551 O 0.10236 0.30965 0.61982 0.0
O552 O 0.14329 0.35656 0.6062 0.0
O553 O 0.15642 0.31288 0.62355 0.0
O554 O 0.13533 0.29891 0.65414 0.0
O555 O 0.06518 0.26979 0.64076 0.0
O556 O 0.06307 0.28092 0.67101 0.0
O557 O 0.1845 0.37721 0.65756 0.0
O558 O 0.14474 0.32847 0.66946 0.0
C559 C 0.14052 0.39217 0.6405 0.0
C560 C 0.11441 0.33065 0.60547 0.0
C561 C 0.24588 0.45402 0.61172 0.0
C562 C 0.2939 0.50542 0.61914 0.0
C563 C 0.24158 0.50129 0.61833 0.0
C564 C 0.22725 0.46882 0.6136 0.0
C565 C 0.2746 0.51943 0.62127 0.0
C566 C 0.27938 0.47265 0.6142 0.0
C567 C 0.23064 0.41905 0.60811 0.0
C568 C 0.25221 0.29904 0.62452 0.0
C569 C 0.23922 0.29072 0.60571 0.0
H570 H 0.27568 0.32145 0.66057 0.0
C571 C 0.14879 0.29412 0.63886 0.0
C572 C 0.17041 0.35676 0.67202 0.0
C573 C 0.01419 0.24501 0.65554 0.0
C574 C 0.96216 0.19708 0.64998 0.0
C575 C 0.9659 0.24881 0.65506 0.0
C576 C 0.999 0.26325 0.65733 0.0
C577 C 0.94756 0.21598 0.6513 0.0
C578 C 0.99563 0.21184 0.65207 0.0
C579 C 0.04927 0.26018 0.65705 0.0
H580 H 0.22702 0.51245 0.61981 0.0
H581 H 0.20156 0.45526 0.61161 0.0
H582 H 0.28516 0.54461 0.62491 0.0
H583 H 0.29401 0.46152 0.61275 0.0
H584 H 0.95439 0.26308 0.65636 0.0
H585 H 0.01261 0.28857 0.66056 0.0
H586 H 0.92185 0.20522 0.64987 0.0
H587 H 0.00723 0.1976 0.65083 0.0
C588 C 0.10888 0.79819 0.93469 0.0
C589 C 0.07305 0.767 0.90843 0.0
C590 C 0.10436 0.78611 0.91578 0.0
C591 C 0.04663 0.76078 0.92014 0.0
C592 C 0.08242 0.79148 0.94662 0.0
C593 C 0.0513 0.77285 0.93921 0.0
N594 N 0.13925 0.81754 0.94117 0.0
C595 C 0.14508 0.82948 0.9597 0.0
C596 C 0.08812 0.80422 0.96555 0.0
C597 C 0.11958 0.82316 0.97214 0.0
Gd598 Gd 0.21809 0.91219 0.89182 0.0
Gd599 Gd 0.18037 0.82542 0.91994 0.0
N600 N 0.13046 0.79271 0.9047 0.0
C601 C 0.06917 0.75429 0.88962 0.0
C602 C 0.12657 0.77834 0.88692 0.0
C603 C 0.09602 0.7596 0.87895 0.0
H604 H 0.14666 0.78026 0.87893 0.0
H605 H 0.0932 0.74879 0.86469 0.0
H606 H 0.27534 0.96098 0.92245 0.0
H607 H 0.16942 0.84397 0.96479 0.0
H608 H 0.33449 0.99521 0.92278 0.0
H609 H 0.04553 0.73956 0.88343 0.0
H610 H 0.02245 0.74636 0.91466 0.0
H611 H 0.19741 0.89519 0.84469 0.0
H612 H 0.06843 0.79961 0.97517 0.0
H613 H 0.12419 0.8329 0.98679 0.0
H614 H 0.36615 0.98444 0.85792 0.0
H615 H 0.03067 0.76773 0.94808 0.0
H616 H 0.28285 0.92531 0.81131 0.0
H617 H 0.22377 0.89855 0.81312 0.0
N618 N 0.24085 0.91668 0.86083 0.0
C619 C 0.27331 0.93307 0.85997 0.0
C620 C 0.22312 0.90575 0.84416 0.0
C621 C 0.27135 0.9232 0.82526 0.0
C622 C 0.238 0.90808 0.82622 0.0
C623 C 0.28949 0.93671 0.84217 0.0
H624 H 0.33598 0.95747 0.82818 0.0
N625 N 0.27386 0.9448 0.89343 0.0
C626 C 0.29034 0.94807 0.87671 0.0
C627 C 0.33997 0.98395 0.89306 0.0
C628 C 0.32394 0.96738 0.87612 0.0
C629 C 0.28905 0.96247 0.90962 0.0
C630 C 0.32239 0.98184 0.90979 0.0
O631 O 0.15648 0.85601 0.92084 0.0
O632 O 0.16522 0.87656 0.89002 0.0
O633 O 0.21135 0.94956 0.90515 0.0
O634 O 0.2129 0.94633 0.87382 0.0
O635 O 0.19505 0.82689 0.88819 0.0
O636 O 0.18542 0.86577 0.87622 0.0
O637 O 0.25385 0.89846 0.9039 0.0
O638 O 0.22741 0.84285 0.90453 0.0
O639 O 0.16786 0.77508 0.92192 0.0
O640 O 0.19599 0.80908 0.94499 0.0
O641 O 0.2088 0.90885 0.92422 0.0
O642 O 0.21568 0.86879 0.93781 0.0
C643 C 0.14673 0.86501 0.90544 0.0
C644 C 0.19174 0.84257 0.87346 0.0
C645 C 0.2326 0.99795 0.88715 0.0
C646 C 0.2397 0.0519 0.88983 0.0
C647 C 0.28339 0.04443 0.8784 0.0
C648 C 0.26417 0.01132 0.88038 0.0
C649 C 0.2713 0.06457 0.88297 0.0
C650 C 0.22049 0.01829 0.89195 0.0
C651 C 0.21182 0.96284 0.88851 0.0
C652 C 0.34029 0.97002 0.85862 0.0
C653 C 0.3231 0.95461 0.84169 0.0
H654 H 0.36579 0.99905 0.89321 0.0
C655 C 0.25365 0.87101 0.90517 0.0
C656 C 0.22014 0.89822 0.93795 0.0
C657 C 0.18349 0.75383 0.94962 0.0
C658 C 0.18068 0.70156 0.95109 0.0
C659 C 0.18859 0.73269 0.98073 0.0
C660 C 0.18812 0.75693 0.9699 0.0
C661 C 0.18487 0.70526 0.97147 0.0
C662 C 0.17953 0.72593 0.94023 0.0
C663 C 0.1823 0.77965 0.93862 0.0
H664 H 0.30764 0.0545 0.87301 0.0
H665 H 0.27384 0.9962 0.87631 0.0
H666 H 0.28661 0.09009 0.88068 0.0
H667 H 0.19614 0.00788 0.89729 0.0
H668 H 0.19181 0.73516 0.9964 0.0
H669 H 0.19095 0.77795 0.97746 0.0
H670 H 0.18506 0.68676 0.98036 0.0
H671 H 0.17633 0.72357 0.92454 0.0
C672 C 0.65489 0.71627 0.65876 0.0
C673 C 0.64777 0.68113 0.6315 0.0
C674 C 0.66046 0.71224 0.63931 0.0
C675 C 0.6281 0.65436 0.64316 0.0
C676 C 0.63563 0.6895 0.6706 0.0
C677 C 0.62199 0.65854 0.66264 0.0
N678 N 0.66794 0.74657 0.66599 0.0
C679 C 0.66386 0.75182 0.68506 0.0
C680 C 0.63066 0.69468 0.6901 0.0
C681 C 0.64501 0.72597 0.69739 0.0
Gd682 Gd 0.64818 0.82704 0.62148 0.0
Gd683 Gd 0.69793 0.78822 0.644 0.0
N684 N 0.67926 0.73864 0.62827 0.0
C685 C 0.65604 0.67782 0.6124 0.0
C686 C 0.68993 0.73535 0.61047 0.0
C687 C 0.67781 0.70504 0.60201 0.0
H688 H 0.7086 0.75588 0.60301 0.0
H689 H 0.68578 0.70265 0.58765 0.0
H690 H 0.67206 0.87816 0.65948 0.0
H691 H 0.67516 0.77595 0.69074 0.0
H692 H 0.69991 0.93649 0.66501 0.0
H693 H 0.64687 0.65434 0.60588 0.0
H694 H 0.61793 0.63029 0.63734 0.0
H695 H 0.64281 0.81661 0.57286 0.0
H696 H 0.616 0.67472 0.69968 0.0
H697 H 0.64156 0.73018 0.71249 0.0
H698 H 0.72045 0.98143 0.60049 0.0
H699 H 0.60699 0.63765 0.67148 0.0
H700 H 0.68674 0.90929 0.54603 0.0
H701 H 0.65905 0.85019 0.54318 0.0
N702 N 0.66216 0.85638 0.59232 0.0
C703 C 0.67696 0.8888 0.59423 0.0
C704 C 0.65548 0.8424 0.57429 0.0
C705 C 0.6799 0.8947 0.55912 0.0
C706 C 0.66435 0.86134 0.55745 0.0
C707 C 0.68635 0.90885 0.57766 0.0
H708 H 0.70938 0.95805 0.56752 0.0
N709 N 0.67511 0.88209 0.62857 0.0
C710 C 0.68325 0.90203 0.61288 0.0
C711 C 0.70527 0.94801 0.63434 0.0
C712 C 0.69898 0.93558 0.61535 0.0
C713 C 0.68007 0.89401 0.6471 0.0
C714 C 0.69558 0.92711 0.65027 0.0
O715 O 0.64324 0.7623 0.64654 0.0
O716 O 0.62784 0.77406 0.61768 0.0
O717 O 0.60874 0.82681 0.63684 0.0
O718 O 0.60832 0.82467 0.60527 0.0
O719 O 0.70573 0.80453 0.61241 0.0
O720 O 0.6564 0.79443 0.60144 0.0
O721 O 0.70236 0.85783 0.62051 0.0
O722 O 0.72149 0.84211 0.64663 0.0
O723 O 0.7433 0.79195 0.63602 0.0
O724 O 0.72958 0.78776 0.66638 0.0
O725 O 0.6441 0.8168 0.65428 0.0
O726 O 0.69205 0.82134 0.66426 0.0
C727 C 0.6228 0.75421 0.63206 0.0
C728 C 0.68466 0.7973 0.59834 0.0
C729 C 0.55833 0.80204 0.62145 0.0
C730 C 0.50409 0.79331 0.62514 0.0
C731 C 0.51282 0.74813 0.62005 0.0
C732 C 0.54587 0.76898 0.61929 0.0
C733 C 0.49203 0.76012 0.6229 0.0
C734 C 0.5375 0.81406 0.62447 0.0
C735 C 0.59297 0.82457 0.62093 0.0
C736 C 0.70825 0.9556 0.59887 0.0
C737 C 0.70197 0.94228 0.58009 0.0
H738 H 0.7174 0.97365 0.63686 0.0
C739 C 0.72473 0.86332 0.6334 0.0
C740 C 0.66555 0.82182 0.66785 0.0
C741 C 0.76305 0.76708 0.65704 0.0
C742 C 0.80872 0.75824 0.65769 0.0
C743 C 0.75544 0.71515 0.66636 0.0
C744 C 0.7429 0.73529 0.66302 0.0
C745 C 0.78813 0.72652 0.66383 0.0
C746 C 0.79587 0.77836 0.6542 0.0
C747 C 0.75054 0.78902 0.6539 0.0
H748 H 0.50326 0.72259 0.61832 0.0
H749 H 0.56165 0.75939 0.61699 0.0
H750 H 0.4665 0.74343 0.62304 0.0
H751 H 0.54747 0.83963 0.6265 0.0
H752 H 0.73979 0.69065 0.671 0.0
H753 H 0.71759 0.72612 0.66524 0.0
H754 H 0.79729 0.71042 0.66648 0.0
H755 H 0.81149 0.80299 0.64967 0.0
C756 C 0.20955 0.32481 0.9414 0.0
C757 C 0.24021 0.31568 0.91672 0.0
C758 C 0.2212 0.32897 0.9224 0.0
C759 C 0.24666 0.29764 0.93019 0.0
C760 C 0.2161 0.30686 0.95498 0.0
C761 C 0.23467 0.29328 0.94927 0.0
N762 N 0.19059 0.33715 0.94631 0.0
C763 C 0.17808 0.33322 0.96464 0.0
C764 C 0.20324 0.30259 0.97381 0.0
C765 C 0.18424 0.31591 0.97867 0.0
Gd766 Gd 0.0958 0.31632 0.89279 0.0
Gd767 Gd 0.18067 0.36485 0.92178 0.0
N768 N 0.21377 0.34578 0.90948 0.0
C769 C 0.25243 0.32112 0.89771 0.0
C770 C 0.22773 0.35318 0.89145 0.0
C771 C 0.2466 0.34041 0.88515 0.0
H772 H 0.22539 0.36967 0.88199 0.0
H773 H 0.25708 0.3459 0.87068 0.0
H774 H 0.04666 0.30376 0.93123 0.0
H775 H 0.16347 0.34358 0.96847 0.0
H776 H 0.01129 0.3231 0.94302 0.0
H777 H 0.26712 0.31132 0.89279 0.0
H778 H 0.26101 0.28706 0.92602 0.0
H779 H 0.11543 0.34255 0.84691 0.0
H780 H 0.20773 0.28895 0.98467 0.0
H781 H 0.17424 0.31276 0.9932 0.0
H782 H 0.00775 0.38585 0.88981 0.0
H783 H 0.23979 0.27924 0.95947 0.0
H784 H 0.06715 0.39377 0.83191 0.0
H785 H 0.10386 0.37388 0.82302 0.0
N786 N 0.08676 0.34603 0.86922 0.0
C787 C 0.06587 0.35598 0.87429 0.0
C788 C 0.10002 0.35182 0.85103 0.0
C789 C 0.07233 0.38024 0.84248 0.0
C790 C 0.09318 0.36918 0.83742 0.0
C791 C 0.05831 0.37364 0.86106 0.0
H792 H 0.03149 0.39823 0.85695 0.0
N793 N 0.06065 0.33228 0.90552 0.0
C794 C 0.05291 0.34941 0.89305 0.0
C795 C 0.01729 0.35115 0.91722 0.0
C796 C 0.03142 0.35975 0.89872 0.0
C797 C 0.04456 0.32135 0.92274 0.0
C798 C 0.02344 0.33135 0.92913 0.0
O799 O 0.15447 0.31045 0.92195 0.0
O800 O 0.1288 0.29546 0.89227 0.0
O801 O 0.0519 0.26926 0.8968 0.0
O802 O 0.07098 0.2876 0.86771 0.0
O803 O 0.17965 0.37555 0.88939 0.0
O804 O 0.14063 0.32715 0.87677 0.0
O805 O 0.12108 0.37132 0.89289 0.0
O806 O 0.14489 0.38148 0.92268 0.0
O807 O 0.22369 0.41177 0.91578 0.0
O808 O 0.20666 0.39656 0.94563 0.0
O809 O 0.09704 0.30505 0.92489 0.0
O810 O 0.13579 0.35247 0.93913 0.0
C811 C 0.14369 0.29092 0.90695 0.0
C812 C 0.16594 0.35568 0.87463 0.0
C813 C 0.02188 0.23646 0.86828 0.0
C814 C 0.97489 0.18247 0.86899 0.0
C815 C 0.99106 0.21284 0.83871 0.0
C816 C 0.01663 0.2383 0.84824 0.0
C817 C 0.97025 0.1852 0.84898 0.0
C818 C 1.00099 0.20819 0.87864 0.0
C819 C 0.04851 0.26476 0.87798 0.0
C820 C 0.02408 0.3776 0.88564 0.0
C821 C 0.03747 0.38451 0.86688 0.0
H822 H 1.00064 0.35858 0.92212 0.0
C823 C 0.13595 0.39117 0.9074 0.0
C824 C 0.10928 0.32425 0.9401 0.0
C825 C 0.25331 0.44932 0.94259 0.0
C826 C 0.30736 0.49628 0.94213 0.0
C827 C 0.27124 0.48793 0.96915 0.0
C828 C 0.24768 0.45974 0.96055 0.0
C829 C 0.30087 0.50598 0.96011 0.0
C830 C 0.28317 0.46803 0.93318 0.0
C831 C 0.22783 0.4187 0.93433 0.0
H832 H 0.98725 0.21461 0.82329 0.0
H833 H 0.03211 0.25967 0.8399 0.0
H834 H 0.95055 0.16569 0.84123 0.0
H835 H 1.00464 0.20639 0.8941 0.0
H836 H 0.26659 0.49572 0.98298 0.0
H837 H 0.22493 0.44606 0.96799 0.0
H838 H 0.31885 0.52771 0.96719 0.0
H839 H 0.28792 0.46015 0.91939 0.0
C840 C 0.27034 0.93441 0.68506 0.0
C841 C 0.32198 0.96351 0.66891 0.0
C842 C 0.2883 0.94607 0.66809 0.0
C843 C 0.33739 0.96868 0.68705 0.0
C844 C 0.28568 0.93975 0.70331 0.0
C845 C 0.31929 0.95678 0.7042 0.0
N846 N 0.2379 0.91809 0.68373 0.0
C847 C 0.21929 0.90743 0.70008 0.0
C848 C 0.26674 0.92789 0.72013 0.0
C849 C 0.2334 0.91181 0.7185 0.0
Gd850 Gd 0.17986 0.82541 0.62314 0.0
Gd851 Gd 0.21672 0.91023 0.65216 0.0
N852 N 0.27271 0.93973 0.65069 0.0
C853 C 0.33912 0.97519 0.65145 0.0
C854 C 0.28913 0.95218 0.63373 0.0
C855 C 0.32261 0.96974 0.63381 0.0
H856 H 0.2764 0.94818 0.62016 0.0
H857 H 0.33564 0.97909 0.62029 0.0
H858 H 0.14281 0.78378 0.66447 0.0
H859 H 0.19353 0.89559 0.69889 0.0
H860 H 0.08817 0.75321 0.67731 0.0
H861 H 0.36505 0.9887 0.65146 0.0
H862 H 0.36328 0.98191 0.68799 0.0
H863 H 0.17289 0.84338 0.57713 0.0
H864 H 0.2776 0.93134 0.73442 0.0
H865 H 0.21857 0.90289 0.73143 0.0
H866 H 0.02188 0.74786 0.62373 0.0
H867 H 0.33152 0.96105 0.71809 0.0
H868 H 0.07293 0.79937 0.56376 0.0
H869 H 0.12957 0.83235 0.55365 0.0
N870 N 0.14086 0.81706 0.60011 0.0
C871 C 0.10994 0.79838 0.60592 0.0
C872 C 0.14819 0.82908 0.58162 0.0
C873 C 0.0918 0.80403 0.57407 0.0
C874 C 0.12376 0.82276 0.56832 0.0
C875 C 0.08453 0.79165 0.59307 0.0
H876 H 0.03297 0.76807 0.59001 0.0
N877 N 0.12883 0.79459 0.63733 0.0
C878 C 0.10376 0.7871 0.62508 0.0
C879 C 0.06634 0.75703 0.65082 0.0
C880 C 0.07186 0.76852 0.63163 0.0
C881 C 0.12342 0.78138 0.65554 0.0
C882 C 0.09223 0.76309 0.66271 0.0
O883 O 0.25011 0.88957 0.64908 0.0
O884 O 0.23344 0.85489 0.62252 0.0
O885 O 0.17784 0.77988 0.62854 0.0
O886 O 0.18295 0.79775 0.59906 0.0
O887 O 0.20895 0.90854 0.61954 0.0
O888 O 0.21443 0.86831 0.6049 0.0
O889 O 0.155 0.85502 0.6226 0.0
O890 O 0.16349 0.8756 0.65343 0.0
O891 O 0.21793 0.95131 0.6383 0.0
O892 O 0.20986 0.9443 0.66939 0.0
O893 O 0.19543 0.82767 0.65482 0.0
O894 O 0.18289 0.86419 0.66705 0.0
C895 C 0.25462 0.87222 0.63589 0.0
C896 C 0.2193 0.89787 0.60524 0.0
C897 C 0.15396 0.7412 0.60347 0.0
C898 C 0.13304 0.68309 0.60393 0.0
C899 C 0.1081 0.70598 0.58353 0.0
C900 C 0.13009 0.73669 0.59004 0.0
C901 C 0.10963 0.67944 0.59026 0.0
C902 C 0.15516 0.71433 0.61048 0.0
C903 C 0.17811 0.7737 0.61006 0.0
C904 C 0.0465 0.76188 0.61887 0.0
C905 C 0.05281 0.77334 0.59965 0.0
H906 H 0.0422 0.74278 0.65642 0.0
C907 C 0.14499 0.86353 0.63806 0.0
C908 C 0.19051 0.84196 0.66969 0.0
C909 C 0.18441 0.96811 0.6524 0.0
C910 C 0.16613 0.00645 0.64685 0.0
C911 C 0.12769 0.94938 0.64884 0.0
C912 C 0.15252 0.94304 0.65205 0.0
C913 C 0.13441 0.98086 0.64612 0.0
C914 C 0.19115 0.99991 0.65005 0.0
C915 C 0.21068 0.96105 0.65424 0.0
H916 H 0.08996 0.70275 0.57303 0.0
H917 H 0.12856 0.75685 0.58439 0.0
H918 H 0.09271 0.6561 0.58442 0.0
H919 H 0.17327 0.71789 0.62111 0.0
H920 H 0.10316 0.92983 0.64845 0.0
H921 H 0.14682 0.91858 0.65418 0.0
H922 H 0.11476 0.9853 0.64378 0.0
H923 H 0.21575 0.01942 0.65034 0.0
C924 C 0.68366 0.88956 0.94718 0.0
C925 C 0.70785 0.93691 0.9265 0.0
C926 C 0.69014 0.9033 0.92868 0.0
C927 C 0.71884 0.95649 0.94316 0.0
C928 C 0.69476 0.90916 0.96393 0.0
C929 C 0.71232 0.94266 0.96182 0.0
N930 N 0.66706 0.85706 0.94878 0.0
C931 C 0.66019 0.84259 0.96665 0.0
C932 C 0.68809 0.89448 0.98232 0.0
C933 C 0.67068 0.86106 0.98367 0.0
Gd934 Gd 0.69577 0.78513 0.89536 0.0
Gd935 Gd 0.65076 0.82846 0.91939 0.0
N936 N 0.68032 0.88368 0.91279 0.0
C937 C 0.71435 0.94981 0.90763 0.0
C938 C 0.68553 0.89614 0.89439 0.0
C939 C 0.70295 0.92933 0.89152 0.0
H940 H 0.67628 0.88069 0.88187 0.0
H941 H 0.70746 0.93911 0.87688 0.0
H942 H 0.71213 0.75513 0.93555 0.0
H943 H 0.6462 0.81679 0.96784 0.0
H944 H 0.68921 0.70356 0.95298 0.0
H945 H 0.72801 0.97551 0.90535 0.0
H946 H 0.73259 0.98236 0.94178 0.0
H947 H 0.66469 0.76874 0.85036 0.0
H948 H 0.69622 0.90871 0.99553 0.0
H949 H 0.66523 0.84952 0.99783 0.0
H950 H 0.6081 0.62891 0.90961 0.0
H951 H 0.72109 0.9581 0.97452 0.0
H952 H 0.59853 0.66768 0.84695 0.0
H953 H 0.62522 0.72138 0.83155 0.0
N954 N 0.65985 0.74183 0.87599 0.0
C955 C 0.6465 0.71236 0.88449 0.0
C956 C 0.65317 0.74528 0.85707 0.0
C957 C 0.61592 0.68827 0.85519 0.0
C958 C 0.63091 0.71858 0.84644 0.0
C959 C 0.62377 0.68483 0.87439 0.0
H960 H 0.59183 0.63347 0.87628 0.0
N961 N 0.67739 0.73704 0.91287 0.0
C962 C 0.65513 0.71002 0.90355 0.0
C963 C 0.65353 0.6777 0.93098 0.0
C964 C 0.64201 0.67971 0.9126 0.0
C965 C 0.69115 0.73459 0.92969 0.0
C966 C 0.67882 0.70515 0.93932 0.0
O967 O 0.70512 0.85672 0.91991 0.0
O968 O 0.72401 0.83939 0.89425 0.0
O969 O 0.74011 0.78331 0.89976 0.0
O970 O 0.72106 0.78099 0.87047 0.0
O971 O 0.6464 0.81984 0.88643 0.0
O972 O 0.69252 0.8207 0.87592 0.0
O973 O 0.64158 0.76414 0.89297 0.0
O974 O 0.62731 0.77496 0.92246 0.0
O975 O 0.61227 0.83125 0.90488 0.0
O976 O 0.61232 0.82798 0.93634 0.0
O977 O 0.70567 0.80137 0.92698 0.0
O978 O 0.65736 0.79374 0.93843 0.0
C979 C 0.72735 0.8612 0.90711 0.0
C980 C 0.66718 0.82344 0.87269 0.0
C981 C 0.76909 0.77707 0.87203 0.0
C982 C 0.82199 0.78172 0.87301 0.0
C983 C 0.78731 0.75773 0.84491 0.0
C984 C 0.76398 0.7627 0.85353 0.0
C985 C 0.81603 0.767 0.85458 0.0
C986 C 0.7984 0.78686 0.88173 0.0
C987 C 0.74315 0.78057 0.88108 0.0
C988 C 0.61872 0.65231 0.90277 0.0
C989 C 0.60957 0.65487 0.88374 0.0
H990 H 0.64416 0.65487 0.93841 0.0
C991 C 0.62148 0.75567 0.90765 0.0
C992 C 0.68501 0.79508 0.94125 0.0
C993 C 0.56213 0.80711 0.92059 0.0
C994 C 0.50799 0.79896 0.91742 0.0
C995 C 0.51637 0.75322 0.92013 0.0
C996 C 0.5494 0.77384 0.92134 0.0
C997 C 0.49579 0.7656 0.91815 0.0
C998 C 0.54139 0.8196 0.91872 0.0
C999 C 0.59697 0.82909 0.92101 0.0
H1000 H 0.78306 0.74653 0.83068 0.0
H1001 H 0.7417 0.75485 0.84579 0.0
H1002 H 0.83386 0.76303 0.84754 0.0
H1003 H 0.8027 0.79803 0.89599 0.0
H1004 H 0.50669 0.72753 0.9207 0.0
H1005 H 0.56499 0.76387 0.9228 0.0
H1006 H 0.47025 0.74905 0.91742 0.0
H1007 H 0.55135 0.84534 0.91789 0.0
C1008 C 0.07294 0.20445 0.15335 0.0
C1009 C 0.07074 0.22121 0.13721 0.0
C1010 C 0.09381 0.19221 0.15297 0.0
C1011 C 0.13516 0.16374 0.12187 0.0
H1012 H 0.20155 0.19639 0.16138 0.0
C1013 C 0.24247 0.14124 0.11856 0.0
C1014 C 0.25708 0.14053 0.13612 0.0
C1015 C 0.21786 0.14863 0.11855 0.0
C1016 C 0.18283 0.18635 0.15047 0.0
H1017 H 0.08756 0.23737 0.1078 0.0
H1018 H 0.12332 0.21486 0.10686 0.0
H1019 H 0.16111 0.21247 0.16176 0.0
H1020 H 0.25567 0.14446 0.1676 0.0
H1021 H 0.21188 0.15561 0.16773 0.0
H1022 H 0.15596 0.13672 0.11088 0.0
C1023 C 0.1092 0.21161 0.11986 0.0
C1024 C 0.15979 0.19583 0.15065 0.0
C1025 C 0.08888 0.22451 0.12041 0.0
C1026 C 0.24518 0.14523 0.15377 0.0
C1027 C 0.2203 0.15213 0.1538 0.0
C1028 C 0.15779 0.15361 0.12194 0.0
C1029 C 0.11227 0.19587 0.13626 0.0
C1030 C 0.13588 0.18476 0.13631 0.0
C1031 C 0.2068 0.1548 0.13617 0.0
C1032 C 0.18207 0.16487 0.13621 0.0
H1033 H 0.05934 0.20182 0.16651 0.0
H1034 H 0.09577 0.1801 0.16578 0.0
H1035 H 0.11683 0.15481 0.11069 0.0
H1036 H 0.2508 0.13714 0.10476 0.0
H1037 H 0.20844 0.15067 0.10462 0.0
C1038 C 0.15801 0.90226 0.40009 0.0
C1039 C 0.16931 0.93345 0.39284 0.0
C1040 C 0.12519 0.88094 0.40225 0.0
C1041 C 0.05544 0.84444 0.41438 0.0
H1042 H 0.99733 0.84629 0.37605 0.0
C1043 C 0.91835 0.76524 0.42242 0.0
C1044 C 0.90048 0.75159 0.40538 0.0
C1045 C 0.9508 0.78839 0.42129 0.0
C1046 C 0.0132 0.84518 0.38679 0.0
H1047 H 0.15449 0.96658 0.38244 0.0
H1048 H 0.09754 0.93004 0.38706 0.0
H1049 H 0.05437 0.88396 0.37334 0.0
H1050 H 0.90237 0.75142 0.3738 0.0
H1051 H 0.95913 0.79143 0.37173 0.0
H1052 H 0.01439 0.80466 0.42729 0.0
C1053 C 0.11402 0.92171 0.39062 0.0
C1054 C 0.04598 0.86721 0.38542 0.0
C1055 C 0.14684 0.94293 0.38825 0.0
C1056 C 0.9155 0.7619 0.38716 0.0
C1057 C 0.94805 0.78486 0.386 0.0
C1058 C 0.02268 0.8222 0.41563 0.0
C1059 C 0.10269 0.89028 0.39745 0.0
C1060 C 0.0676 0.86715 0.39918 0.0
C1061 C 0.96621 0.79831 0.40306 0.0
C1062 C 1.0011 0.82225 0.40185 0.0
H1063 H 0.17451 0.89418 0.40409 0.0
H1064 H 0.11751 0.85688 0.40735 0.0
H1065 H 0.07118 0.84384 0.42541 0.0
H1066 H 0.90725 0.75784 0.43667 0.0
H1067 H 0.96377 0.79854 0.43473 0.0
C1068 C 0.84935 0.09846 0.15638 0.0
C1069 C 0.85617 0.11421 0.13829 0.0
C1070 C 0.84139 0.06633 0.15744 0.0
C1071 C 0.81602 0.99363 0.12677 0.0
H1072 H 0.85308 0.9686 0.16864 0.0
C1073 C 0.83597 0.88574 0.12235 0.0
C1074 C 0.8297 0.8664 0.13897 0.0
C1075 C 0.83354 0.91338 0.12315 0.0
C1076 C 0.84211 0.97506 0.15705 0.0
H1077 H 0.86063 0.10931 0.10722 0.0
H1078 H 0.84769 0.05353 0.10901 0.0
H1079 H 0.8602 0.02238 0.1684 0.0
H1080 H 0.8152 0.86024 0.16932 0.0
H1081 H 0.81137 0.90914 0.17085 0.0
H1082 H 0.79917 0.94663 0.11501 0.0
C1083 C 0.84753 0.0655 0.12236 0.0
C1084 C 0.84615 0.00589 0.1569 0.0
C1085 C 0.85521 0.09751 0.12131 0.0
C1086 C 0.82009 0.87475 0.15631 0.0
C1087 C 0.81808 0.90273 0.1572 0.0
C1088 C 0.81226 0.96292 0.12683 0.0
C1089 C 0.84054 0.04948 0.14044 0.0
C1090 C 0.83368 0.01577 0.14155 0.0
C1091 C 0.82511 0.92247 0.14066 0.0
C1092 C 0.82575 0.95353 0.14179 0.0
H1093 H 0.84958 0.11083 0.16965 0.0
H1094 H 0.83571 0.05465 0.17156 0.0
H1095 H 0.80544 1.00016 0.11498 0.0
H1096 H 0.84317 0.87967 0.10875 0.0
H1097 H 0.83939 0.92826 0.11023 0.0
C1098 C 0.25427 0.15664 0.42472 0.0
C1099 C 0.26278 0.14542 0.40812 0.0
C1100 C 0.2293 0.16339 0.42398 0.0
C1101 C 0.18031 0.17906 0.3883 0.0
H1102 H 0.13094 0.17235 0.43458 0.0
C1103 C 0.07295 0.20162 0.38771 0.0
C1104 C 0.07526 0.22433 0.40147 0.0
C1105 C 0.09358 0.18911 0.38868 0.0
C1106 C 0.14458 0.17434 0.42155 0.0
H1107 H 0.25014 0.13038 0.37803 0.0
H1108 H 0.20548 0.14041 0.377 0.0
H1109 H 0.17016 0.15455 0.43582 0.0
H1110 H 0.10007 0.25092 0.42739 0.0
H1111 H 0.13563 0.22842 0.42938 0.0
H1112 H 0.15399 0.19823 0.37402 0.0
C1113 C 0.21905 0.1455 0.3904 0.0
C1114 C 0.16726 0.16435 0.42225 0.0
C1115 C 0.24447 0.13933 0.39105 0.0
C1116 C 0.09789 0.23353 0.41656 0.0
C1117 C 0.11808 0.22056 0.41775 0.0
C1118 C 0.15723 0.18849 0.38753 0.0
C1119 C 0.21147 0.15822 0.40675 0.0
C1120 C 0.18581 0.16697 0.40571 0.0
C1121 C 0.11646 0.19859 0.40366 0.0
C1122 C 0.13943 0.18661 0.40421 0.0
H1123 H 0.26744 0.16104 0.43824 0.0
H1124 H 0.22468 0.17353 0.43683 0.0
H1125 H 0.19442 0.18212 0.37534 0.0
H1126 H 0.05583 0.19429 0.37586 0.0
H1127 H 0.09175 0.1721 0.37768 0.0
C1128 C 0.13863 0.93555 0.15142 0.0
C1129 C 0.15577 0.93917 0.13409 0.0
C1130 C 0.10562 0.91387 0.15233 0.0
C1131 C 0.03357 0.86904 0.12164 0.0
H1132 H 1.00105 0.80902 0.16484 0.0
C1133 C 0.90878 0.75546 0.11917 0.0
C1134 C 0.89105 0.74431 0.13652 0.0
C1135 C 0.94037 0.78082 0.11947 0.0
C1136 C 0.00953 0.8259 0.15282 0.0
H1137 H 0.15156 0.92381 0.10395 0.0
H1138 H 0.09408 0.88623 0.10549 0.0
H1139 H 0.05717 0.85118 0.16442 0.0
H1140 H 0.89215 0.75192 0.16776 0.0
H1141 H 0.947 0.79694 0.16828 0.0
H1142 H 0.98607 0.84405 0.11003 0.0
C1143 C 0.10609 0.90002 0.1184 0.0
C1144 C 0.04177 0.85006 0.15258 0.0
C1145 C 0.13906 0.92136 0.11756 0.0
C1146 C 0.90528 0.75981 0.15415 0.0
C1147 C 0.93685 0.78543 0.15445 0.0
C1148 C 1.0013 0.8451 0.12195 0.0
C1149 C 0.08902 0.89572 0.13584 0.0
C1150 C 0.05426 0.87162 0.13685 0.0
C1151 C 0.95493 0.79616 0.13712 0.0
C1152 C 0.98891 0.82287 0.1374 0.0
H1153 H 0.15089 0.94883 0.16442 0.0
H1154 H 0.09309 0.91126 0.16593 0.0
H1155 H 0.04236 0.88559 0.10945 0.0
H1156 H 0.89822 0.74461 0.10528 0.0
H1157 H 0.95351 0.78804 0.10585 0.0
C1158 C 0.78085 0.86677 0.38058 0.0
C1159 C 0.80381 0.85698 0.38023 0.0
C1160 C 0.7888 0.89722 0.38742 0.0
C1161 C 0.80968 0.95981 0.4098 0.0
H1162 H 0.88554 0.02872 0.38537 0.0
C1163 C 0.85609 0.09533 0.4243 0.0
C1164 C 0.86242 0.11409 0.40738 0.0
C1165 C 0.84991 0.0637 0.42308 0.0
C1166 C 0.86436 0.00973 0.39236 0.0
H1167 H 0.85273 0.8708 0.38733 0.0
H1168 H 0.86692 0.9245 0.3991 0.0
H1169 H 0.8727 0.9732 0.38084 0.0
H1170 H 0.86833 0.11468 0.37596 0.0
H1171 H 0.85855 0.0599 0.37391 0.0
H1172 H 0.80112 0.99646 0.42105 0.0
C1173 C 0.8427 0.90847 0.39417 0.0
C1174 C 0.85717 0.97797 0.38992 0.0
C1175 C 0.83456 0.87773 0.3876 0.0
C1176 C 0.86354 0.1009 0.38929 0.0
C1177 C 0.85794 0.06952 0.3881 0.0
C1178 C 0.81714 0.99165 0.41248 0.0
C1179 C 0.82006 0.91877 0.39378 0.0
C1180 C 0.82946 0.95259 0.39833 0.0
C1181 C 0.85085 0.05048 0.40496 0.0
C1182 C 0.84424 0.0169 0.40347 0.0
H1183 H 0.757 0.8512 0.37491 0.0
H1184 H 0.7709 0.90448 0.38678 0.0
H1185 H 0.78821 0.94076 0.4165 0.0
H1186 H 0.85611 0.10516 0.43851 0.0
H1187 H 0.84487 0.04973 0.43634 0.0
C1188 C 0.18921 0.0628 0.6591 0.0
C1189 C 0.17257 0.03978 0.64458 0.0
C1190 C 0.19183 0.09306 0.65811 0.0
C1191 C 0.18729 0.15111 0.62536 0.0
H1192 H 0.15492 0.17422 0.67061 0.0
C1193 C 0.15316 0.25026 0.6222 0.0
C1194 C 0.15596 0.26774 0.63919 0.0
C1195 C 0.15923 0.22475 0.62271 0.0
C1196 C 0.16474 0.1687 0.65796 0.0
H1197 H 0.14703 0.0307 0.61721 0.0
H1198 H 0.15231 0.08389 0.61519 0.0
H1199 H 0.15998 0.1265 0.67161 0.0
H1200 H 0.1686 0.27339 0.66982 0.0
H1201 H 0.18033 0.22972 0.67068 0.0
H1202 H 0.19256 0.19346 0.61174 0.0
C1203 C 0.16306 0.07847 0.62741 0.0
C1204 C 0.1675 0.14117 0.65855 0.0
C1205 C 0.15991 0.04804 0.6286 0.0
C1206 C 0.16571 0.25985 0.65659 0.0
C1207 C 0.17233 0.23473 0.65705 0.0
C1208 C 0.18509 0.179 0.62487 0.0
C1209 C 0.17841 0.10104 0.64237 0.0
C1210 C 0.17835 0.13183 0.64217 0.0
C1211 C 0.16865 0.2164 0.6402 0.0
C1212 C 0.17327 0.18795 0.64107 0.0
H1213 H 0.19902 0.05693 0.67162 0.0
H1214 H 0.20389 0.11008 0.66979 0.0
H1215 H 0.19596 0.14455 0.61257 0.0
H1216 H 0.1456 0.25591 0.6086 0.0
H1217 H 0.15567 0.2111 0.60946 0.0
C1218 C 0.09672 0.85689 0.92205 0.0
C1219 C 0.11378 0.8599 0.90478 0.0
C1220 C 0.065 0.85035 0.9213 0.0
C1221 C 0.00724 0.85734 0.88968 0.0
H1222 H 0.94201 0.78618 0.91958 0.0
C1223 C 0.86372 0.76952 0.88489 0.0
C1224 C 0.85319 0.79175 0.8826 0.0
C1225 C 0.89501 0.77955 0.89094 0.0
C1226 C 0.95999 0.80625 0.91125 0.0
H1227 H 0.1113 0.85964 0.87316 0.0
H1228 H 0.05632 0.84916 0.87186 0.0
H1229 H 0.99829 0.80096 0.92307 0.0
H1230 H 0.86671 0.8417 0.88543 0.0
H1231 H 0.92183 0.85947 0.89582 0.0
H1232 H 0.96901 0.86233 0.87759 0.0
C1233 C 0.06735 0.85146 0.88599 0.0
C1234 C 0.9922 0.81481 0.91332 0.0
C1235 C 0.09885 0.85747 0.88675 0.0
C1236 C 0.87418 0.82407 0.88724 0.0
C1237 C 0.90574 0.83423 0.89301 0.0
C1238 C 0.97512 0.84909 0.88782 0.0
C1239 C 0.04995 0.84754 0.90325 0.0
C1240 C 0.0161 0.84008 0.90228 0.0
C1241 C 0.91667 0.81214 0.89455 0.0
C1242 C 0.95105 0.82309 0.89832 0.0
H1243 H 0.10788 0.8595 0.93615 0.0
H1244 H 0.05232 0.84778 0.93485 0.0
H1245 H 0.02516 0.87709 0.8811 0.0
H1246 H 0.848 0.74447 0.88136 0.0
H1247 H 0.90271 0.76198 0.89183 0.0
C1248 C 0.77328 0.90643 0.65064 0.0
C1249 C 0.75317 0.89604 0.63419 0.0
C1250 C 0.79874 0.93803 0.65186 0.0
C1251 C 0.84759 0.01193 0.62183 0.0
H1252 H 0.86584 0.05425 0.6722 0.0
C1253 C 0.91882 0.1498 0.63212 0.0
C1254 C 0.94218 0.16195 0.64687 0.0
C1255 C 0.89848 0.11673 0.63001 0.0
C1256 C 0.86125 0.04263 0.65808 0.0
H1257 H 0.74528 0.91037 0.60566 0.0
H1258 H 0.78816 0.96558 0.60821 0.0
H1259 H 0.82502 0.99783 0.66968 0.0
H1260 H 0.96278 0.1491 0.67087 0.0
H1261 H 0.92675 0.09115 0.66739 0.0
H1262 H 0.88302 0.05738 0.6102 0.0
C1263 C 0.78484 0.94938 0.62009 0.0
C1264 C 0.83791 0.0102 0.65661 0.0
C1265 C 0.75978 0.9177 0.61875 0.0
C1266 C 0.94512 0.14035 0.65929 0.0
C1267 C 0.92439 0.10727 0.65739 0.0
C1268 C 0.87058 0.04448 0.62327 0.0
C1269 C 0.8046 0.96013 0.63673 0.0
C1270 C 0.83057 0.99438 0.63843 0.0
C1271 C 0.90071 0.09514 0.64281 0.0
C1272 C 0.87753 0.06021 0.64139 0.0
H1273 H 0.76905 0.89033 0.66275 0.0
H1274 H 0.81377 0.9451 0.66472 0.0
H1275 H 0.84322 1.00056 0.60765 0.0
H1276 H 0.91614 0.16592 0.62229 0.0
H1277 H 0.88033 0.10808 0.61872 0.0
C1278 C 0.15426 0.2527 0.88799 0.0
C1279 C 0.15041 0.26415 0.90605 0.0
C1280 C 0.16229 0.22855 0.88716 0.0
C1281 C 0.196 0.18819 0.91749 0.0
H1282 H 0.16382 0.12622 0.87534 0.0
C1283 C 0.19521 0.06517 0.88948 0.0
C1284 C 0.22694 0.07386 0.89413 0.0
C1285 C 0.18417 0.08684 0.89221 0.0
C1286 C 0.17271 0.14297 0.8874 0.0
H1287 H 0.151 0.25868 0.93741 0.0
H1288 H 0.16425 0.2161 0.93606 0.0
H1289 H 0.14715 0.16604 0.87769 0.0
H1290 H 0.2714 0.11195 0.9062 0.0
H1291 H 0.25279 0.14995 0.91006 0.0
H1292 H 0.22063 0.16443 0.92763 0.0
C1293 C 0.16195 0.22623 0.92247 0.0
C1294 C 0.16353 0.16627 0.88856 0.0
C1295 C 0.15419 0.25057 0.92327 0.0
C1296 C 0.247 0.10451 0.90208 0.0
C1297 C 0.2361 0.12625 0.9046 0.0
C1298 C 0.20488 0.16467 0.91646 0.0
C1299 C 0.1663 0.21496 0.9044 0.0
C1300 C 0.17528 0.18943 0.90351 0.0
C1301 C 0.20462 0.11791 0.89952 0.0
C1302 C 0.19366 0.14189 0.90128 0.0
H1303 H 0.15187 0.263 0.87447 0.0
H1304 H 0.16601 0.22103 0.87298 0.0
H1305 H 0.20591 0.20577 0.9291 0.0
H1306 H 0.17906 0.04193 0.88321 0.0
H1307 H 0.1596 0.07923 0.88845 0.0
C1308 C 0.09397 0.85463 0.6228 0.0
C1309 C 0.11095 0.85459 0.63943 0.0
C1310 C 0.06138 0.84487 0.62411 0.0
C1311 C 0.98971 0.7941 0.65292 0.0
H1312 H 0.95635 0.84648 0.63228 0.0
C1313 C 0.86068 0.76449 0.66965 0.0
C1314 C 0.84354 0.77027 0.6552 0.0
C1315 C 0.89328 0.7752 0.66726 0.0
C1316 C 0.96507 0.83124 0.63786 0.0
H1317 H 0.10737 0.84445 0.67045 0.0
H1318 H 0.05038 0.82693 0.67267 0.0
H1319 H 0.01311 0.86399 0.62849 0.0
H1320 H 0.84713 0.79174 0.62686 0.0
H1321 H 0.90385 0.80968 0.62234 0.0
H1322 H 0.94189 0.76096 0.66193 0.0
C1323 C 0.06225 0.83462 0.65865 0.0
C1324 C 0.99765 0.84139 0.63573 0.0
C1325 C 0.09489 0.84489 0.65742 0.0
C1326 C 0.8598 0.78718 0.63832 0.0
C1327 C 0.89238 0.79755 0.63579 0.0
C1328 C 0.95709 0.78373 0.65483 0.0
C1329 C 0.04513 0.83443 0.64202 0.0
C1330 C 0.01035 0.8231 0.64345 0.0
C1331 C 0.9096 0.79162 0.65021 0.0
C1332 C 0.9443 0.80231 0.64754 0.0
H1333 H 0.10587 0.86207 0.60878 0.0
H1334 H 0.04871 0.84478 0.61103 0.0
H1335 H 0.99878 0.77927 0.65874 0.0
H1336 H 0.8489 0.75195 0.68295 0.0
H1337 H 0.90573 0.77083 0.67893 0.0
C1338 C 0.96248 0.13299 0.88809 0.0
C1339 C 0.95203 0.15242 0.87922 0.0
C1340 C 0.9402 0.10197 0.89448 0.0
C1341 C 0.85418 0.0481 0.90632 0.0
H1342 H 0.86889 0.98021 0.88832 0.0
C1343 C 0.76489 0.91441 0.92242 0.0
C1344 C 0.7566 0.89339 0.90643 0.0
C1345 C 0.79056 0.94585 0.9212 0.0
C1346 C 0.86443 0.99889 0.89345 0.0
H1347 H 0.91034 0.15548 0.87102 0.0
H1348 H 0.87156 0.10182 0.88241 0.0
H1349 H 0.91021 0.03622 0.88352 0.0
H1350 H 0.76979 0.88865 0.87686 0.0
H1351 H 0.81495 0.94341 0.87483 0.0
H1352 H 0.80808 0.01082 0.91577 0.0
C1353 C 0.89681 0.11027 0.88443 0.0
C1354 C 0.88826 0.03099 0.89091 0.0
C1355 C 0.919 0.14099 0.87785 0.0
C1356 C 0.77555 0.90415 0.88947 0.0
C1357 C 0.80145 0.93556 0.88831 0.0
C1358 C 0.83047 0.01602 0.909 0.0
C1359 C 0.90709 0.09003 0.89236 0.0
C1360 C 0.88323 0.056 0.89703 0.0
C1361 C 0.80896 0.95695 0.90406 0.0
C1362 C 0.8351 0.99101 0.90233 0.0
H1363 H 0.98782 0.14116 0.88916 0.0
H1364 H 0.94887 0.08706 0.90068 0.0
H1365 H 0.8496 0.06677 0.91131 0.0
H1366 H 0.7513 0.90671 0.93587 0.0
H1367 H 0.79597 0.96151 0.9337 0.0
C1368 C 0.34441 0.17784 0.34265 0.0
C1369 C 0.36646 0.1751 0.35461 0.0
C1370 C 0.34903 0.18128 0.32253 0.0
C1371 C 0.40579 0.19797 0.28174 0.0
H1372 H 0.32665 0.14442 0.25387 0.0
C1373 C 0.39233 0.17122 0.19704 0.0
C1374 C 0.36623 0.17188 0.18852 0.0
C1375 C 0.39712 0.17494 0.21734 0.0
C1376 C 0.34897 0.15959 0.26138 0.0
H1377 H 0.41135 0.17523 0.35527 0.0
H1378 H 0.41932 0.18074 0.31968 0.0
H1379 H 0.32652 0.14481 0.28921 0.0
H1380 H 0.32588 0.17875 0.19401 0.0
H1381 H 0.33464 0.18609 0.22906 0.0
H1382 H 0.42809 0.21221 0.25345 0.0
C1383 C 0.39871 0.18074 0.32594 0.0
C1384 C 0.34888 0.15998 0.28169 0.0
C1385 C 0.39426 0.17771 0.34627 0.0
C1386 C 0.34621 0.17819 0.20027 0.0
C1387 C 0.3511 0.18215 0.22034 0.0
C1388 C 0.40591 0.19733 0.26121 0.0
C1389 C 0.3755 0.18143 0.31382 0.0
C1390 C 0.37704 0.17979 0.29216 0.0
C1391 C 0.37586 0.17944 0.22922 0.0
C1392 C 0.37727 0.17867 0.25086 0.0
H1393 H 0.32284 0.17597 0.34881 0.0
H1394 H 0.33114 0.18266 0.3137 0.0
H1395 H 0.42791 0.21336 0.28939 0.0
H1396 H 0.40784 0.16604 0.18821 0.0
H1397 H 0.41635 0.17267 0.22382 0.0
C1398 C 0.84898 0.67751 0.34015 0.0
C1399 C 0.82969 0.65319 0.3534 0.0
C1400 C 0.84959 0.67052 0.32045 0.0
C1401 C 0.79945 0.61559 0.28249 0.0
H1402 H 0.87777 0.65888 0.25219 0.0
C1403 C 0.79993 0.6156 0.19739 0.0
C1404 C 0.81816 0.64649 0.18947 0.0
C1405 C 0.80273 0.61018 0.21727 0.0
C1406 C 0.85567 0.64653 0.26042 0.0
H1407 H 0.7963 0.60236 0.35658 0.0
H1408 H 0.79698 0.59005 0.32178 0.0
H1409 H 0.88044 0.66056 0.28776 0.0
H1410 H 0.85472 0.69549 0.19571 0.0
H1411 H 0.85964 0.68619 0.23003 0.0
H1412 H 0.77461 0.60286 0.25509 0.0
C1413 C 0.81183 0.61451 0.32678 0.0
C1414 C 0.85722 0.64747 0.2808 0.0
C1415 C 0.81165 0.62147 0.34667 0.0
C1416 C 0.84016 0.67146 0.20146 0.0
C1417 C 0.84319 0.66604 0.22112 0.0
C1418 C 0.79788 0.61473 0.26204 0.0
C1419 C 0.83059 0.63907 0.31343 0.0
C1420 C 0.8291 0.63294 0.29206 0.0
C1421 C 0.82423 0.63549 0.22938 0.0
C1422 C 0.82595 0.63116 0.25079 0.0
H1423 H 0.86312 0.70218 0.34496 0.0
H1424 H 0.86397 0.69006 0.31054 0.0
H1425 H 0.77735 0.60434 0.29078 0.0
H1426 H 0.78274 0.59598 0.18843 0.0
H1427 H 0.78789 0.58635 0.2232 0.0
C1428 C 0.84218 0.16588 0.20364 0.0
C1429 C 0.83617 0.18565 0.19142 0.0
C1430 C 0.83401 0.16282 0.22337 0.0
C1431 C 0.82456 0.20705 0.26332 0.0
H1432 H 0.79217 0.12619 0.29074 0.0
C1433 C 0.82065 0.20024 0.3477 0.0
C1434 C 0.83475 0.18316 0.35525 0.0
C1435 C 0.81262 0.19777 0.32787 0.0
C1436 C 0.80117 0.14895 0.2833 0.0
H1437 H 0.8161 0.21697 0.18996 0.0
H1438 H 0.80206 0.21191 0.22475 0.0
H1439 H 0.79317 0.12702 0.2551 0.0
H1440 H 0.84964 0.14863 0.34854 0.0
H1441 H 0.83576 0.14429 0.31412 0.0
H1442 H 0.83398 0.22917 0.29151 0.0
C1443 C 0.81308 0.1988 0.219 0.0
C1444 C 0.80171 0.14941 0.26291 0.0
C1445 C 0.82093 0.20156 0.19913 0.0
C1446 C 0.839 0.16223 0.34301 0.0
C1447 C 0.8308 0.15958 0.32332 0.0
C1448 C 0.82413 0.20661 0.28375 0.0
C1449 C 0.81984 0.17962 0.23135 0.0
C1450 C 0.81431 0.17856 0.25272 0.0
C1451 C 0.81815 0.17781 0.3154 0.0
C1452 C 0.81336 0.17765 0.29396 0.0
H1453 H 0.85373 0.1532 0.19801 0.0
H1454 H 0.83989 0.14817 0.23254 0.0
H1455 H 0.83465 0.22991 0.25587 0.0
H1456 H 0.81717 0.21655 0.3569 0.0
H1457 H 0.80267 0.21192 0.32221 0.0
C1458 C 0.19571 0.39642 0.69917 0.0
C1459 C 0.18388 0.36527 0.69186 0.0
C1460 C 0.20398 0.40297 0.71893 0.0
C1461 C 0.22087 0.37007 0.7636 0.0
H1462 H 0.18003 0.41046 0.79107 0.0
C1463 C 0.17766 0.34034 0.84238 0.0
C1464 C 0.18005 0.36448 0.85492 0.0
C1465 C 0.1872 0.34719 0.82294 0.0
C1466 C 0.19224 0.39982 0.78361 0.0
H1467 H 0.17331 0.31713 0.69888 0.0
H1468 H 0.18783 0.32844 0.73318 0.0
H1469 H 0.18068 0.41041 0.7554 0.0
H1470 H 0.19512 0.4149 0.85726 0.0
H1471 H 0.2115 0.42695 0.82285 0.0
H1472 H 0.23099 0.35806 0.79178 0.0
C1473 C 0.19077 0.34789 0.72385 0.0
C1474 C 0.19262 0.39978 0.76317 0.0
C1475 C 0.18224 0.34131 0.70424 0.0
C1476 C 0.19326 0.39595 0.84786 0.0
C1477 C 0.20239 0.40275 0.8282 0.0
C1478 C 0.22043 0.37005 0.78399 0.0
C1479 C 0.20104 0.37859 0.73155 0.0
C1480 C 0.20597 0.38393 0.75295 0.0
C1481 C 0.19904 0.37829 0.8155 0.0
C1482 C 0.20513 0.38394 0.79421 0.0
H1483 H 0.19707 0.41524 0.68987 0.0
H1484 H 0.21201 0.4269 0.72442 0.0
H1485 H 0.23185 0.35817 0.75615 0.0
H1486 H 0.16766 0.31588 0.84749 0.0
H1487 H 0.18391 0.32771 0.8135 0.0
C1488 C 0.2152 0.82699 0.84602 0.0
C1489 C 0.19024 0.83082 0.85348 0.0
C1490 C 0.21596 0.82055 0.82613 0.0
C1491 C 0.16559 0.79174 0.7818 0.0
H1492 H 0.24276 0.85078 0.7537 0.0
C1493 C 0.16478 0.82621 0.70221 0.0
C1494 C 0.18961 0.83049 0.6897 0.0
C1495 C 0.16552 0.81949 0.72192 0.0
C1496 C 0.22129 0.83362 0.76135 0.0
H1497 H 0.14585 0.82952 0.84663 0.0
H1498 H 0.14668 0.81759 0.81208 0.0
H1499 H 0.24277 0.85078 0.78944 0.0
H1500 H 0.23442 0.83066 0.68761 0.0
H1501 H 0.23601 0.81912 0.72249 0.0
H1502 H 0.14369 0.77551 0.7538 0.0
C1503 C 0.16574 0.81963 0.8214 0.0
C1504 C 0.22129 0.83362 0.7818 0.0
C1505 C 0.16528 0.82656 0.84112 0.0
C1506 C 0.21484 0.82703 0.69704 0.0
C1507 C 0.21586 0.82075 0.71694 0.0
C1508 C 0.1656 0.79172 0.76142 0.0
C1509 C 0.19138 0.81718 0.81359 0.0
C1510 C 0.19312 0.81336 0.7922 0.0
C1511 C 0.19131 0.81723 0.7296 0.0
C1512 C 0.19313 0.81335 0.75098 0.0
H1513 H 0.23485 0.83054 0.85535 0.0
H1514 H 0.23597 0.81874 0.8205 0.0
H1515 H 0.14369 0.77554 0.78944 0.0
H1516 H 0.14516 0.82894 0.69682 0.0
H1517 H 0.1465 0.8174 0.73132 0.0
C1518 C 0.68623 0.8445 0.7008 0.0
C1519 C 0.65997 0.82792 0.68824 0.0
C1520 C 0.68162 0.84813 0.72052 0.0
C1521 C 0.62472 0.80941 0.76023 0.0
H1522 H 0.68382 0.8871 0.78789 0.0
C1523 C 0.63039 0.81796 0.84512 0.0
C1524 C 0.66154 0.82955 0.85233 0.0
C1525 C 0.62542 0.82089 0.82522 0.0
C1526 C 0.66703 0.86528 0.78038 0.0
H1527 H 0.6082 0.8027 0.68638 0.0
H1528 H 0.60004 0.80882 0.7212 0.0
H1529 H 0.68333 0.88677 0.75228 0.0
H1530 H 0.71189 0.85442 0.84464 0.0
H1531 H 0.70332 0.85987 0.81022 0.0
H1532 H 0.60932 0.78763 0.78844 0.0
C1533 C 0.62422 0.81904 0.71565 0.0
C1534 C 0.66675 0.86507 0.75999 0.0
C1535 C 0.62888 0.81573 0.69574 0.0
C1536 C 0.68759 0.84517 0.8395 0.0
C1537 C 0.68269 0.8485 0.81978 0.0
C1538 C 0.62496 0.80964 0.7807 0.0
C1539 C 0.65061 0.83509 0.72827 0.0
C1540 C 0.64644 0.83683 0.74968 0.0
C1541 C 0.65156 0.836 0.81233 0.0
C1542 C 0.64694 0.83727 0.79096 0.0
H1543 H 0.7105 0.8543 0.69546 0.0
H1544 H 0.70247 0.86021 0.72985 0.0
H1545 H 0.60892 0.78722 0.75271 0.0
H1546 H 0.60985 0.8056 0.85468 0.0
H1547 H 0.60117 0.81108 0.81987 0.0
C1548 C 0.23012 0.94526 0.95843 0.0
C1549 C 0.23535 0.91944 0.95505 0.0
C1550 C 0.24554 0.96675 0.97368 0.0
C1551 C 0.28818 0.97615 1.02045 0.0
H1552 H 0.30854 0.06446 1.0144 0.0
C1553 C 0.30652 0.05568 0.08678 0.0
C1554 C 0.32784 0.08899 0.08612 0.0
C1555 C 0.3003 0.03665 0.07024 0.0
C1556 C 0.30357 0.04008 1.01632 0.0
H1557 H 0.2611 0.89608 0.96509 0.0
H1558 H 0.28868 0.93407 0.9917 0.0
H1559 H 0.28921 0.02838 0.98652 0.0
H1560 H 0.35944 0.1283 0.06721 0.0
H1561 H 0.34899 0.09473 0.0381 0.0
H1562 H 0.30328 0.98803 0.05011 0.0
C1563 C 0.27211 0.93735 0.98269 0.0
C1564 C 0.29192 0.01913 1.00035 0.0
C1565 C 0.25631 0.91552 0.96745 0.0
C1566 C 0.34293 0.10275 0.06828 0.0
C1567 C 0.33681 0.08348 0.05158 0.0
C1568 C 0.30017 0.99718 0.03634 0.0
C1569 C 0.26705 0.96341 0.98595 0.0
C1570 C 0.28312 0.9866 1.00233 0.0
C1571 C 0.31533 0.05011 0.05237 0.0
C1572 C 0.30709 0.02919 0.03469 0.0
H1573 H 0.21393 0.94893 0.94929 0.0
H1574 H 0.24019 0.98581 0.97596 0.0
H1575 H 0.28171 0.95137 0.02265 0.0
H1576 H 0.29382 0.0441 0.10004 0.0
H1577 H 0.28289 0.01135 0.07143 0.0
C1578 C 0.80468 0.72804 0.4651 0.0
C1579 C 0.78905 0.69606 0.45874 0.0
C1580 C 0.79254 0.73724 0.48076 0.0
C1581 C 0.71851 0.71952 0.50396 0.0
H1582 H 0.77178 0.76925 0.54734 0.0
C1583 C 0.67053 0.761 0.56938 0.0
C1584 C 0.69252 0.78911 0.57916 0.0
C1585 C 0.68079 0.74901 0.55404 0.0
C1586 C 0.75664 0.75594 0.53516 0.0
H1587 H 0.74886 0.64844 0.46381 0.0
H1588 H 0.72702 0.66481 0.49109 0.0
H1589 H 0.79323 0.7484 0.52292 0.0
H1590 H 0.74142 0.82836 0.57957 0.0
H1591 H 0.75882 0.80896 0.55206 0.0
H1592 H 0.6823 0.72811 0.51566 0.0
C1593 C 0.7489 0.68256 0.48406 0.0
C1594 C 0.76892 0.74369 0.5213 0.0
C1595 C 0.76156 0.67316 0.46867 0.0
C1596 C 0.7241 0.80647 0.57233 0.0
C1597 C 0.73414 0.79499 0.55676 0.0
C1598 C 0.70634 0.73229 0.51767 0.0
C1599 C 0.76413 0.71478 0.49008 0.0
C1600 C 0.75008 0.72555 0.50552 0.0
C1601 C 0.71307 0.76534 0.54796 0.0
C1602 C 0.72538 0.75102 0.53337 0.0
H1603 H 0.82584 0.74611 0.45759 0.0
H1604 H 0.80465 0.76223 0.48508 0.0
H1605 H 0.70363 0.70584 0.49177 0.0
H1606 H 0.64613 0.74698 0.5746 0.0
H1607 H 0.66381 0.72609 0.54774 0.0
C1608 C 0.07181 0.28235 0.96324 0.0
C1609 C 0.09016 0.31487 0.95825 0.0
C1610 C 0.04963 0.27255 0.97848 0.0
C1611 C 0.02255 0.30219 1.02076 0.0
H1612 H 0.94461 0.22047 1.01371 0.0
C1613 C 0.91371 0.25379 0.07374 0.0
C1614 C 0.90602 0.22391 0.08166 0.0
C1615 C 0.93418 0.2659 0.05755 0.0
C1616 C 0.96622 0.24339 1.01582 0.0
H1617 H 0.10046 0.36284 0.96551 0.0
H1618 H 0.06102 0.34578 0.99181 0.0
H1619 H 0.98565 0.2403 0.98844 0.0
H1620 H 0.91224 0.18265 0.07869 0.0
H1621 H 0.94668 0.20303 0.04987 0.0
H1622 H 1.00238 0.30522 0.04809 0.0
C1623 C 0.06417 0.32777 0.98432 0.0
C1624 C 0.98998 0.25467 1.00145 0.0
C1625 C 0.08686 0.33762 0.96927 0.0
C1626 C 0.91764 0.20561 0.07265 0.0
C1627 C 0.93734 0.21729 0.05622 0.0
C1628 C 0.99848 0.2911 0.035 0.0
C1629 C 0.04473 0.29498 0.98886 0.0
C1630 C 0.01881 0.28393 1.00387 0.0
C1631 C 0.94649 0.24788 0.04882 0.0
C1632 C 0.97033 0.26134 0.0328 0.0
H1633 H 0.07407 0.26435 0.95503 0.0
H1634 H 0.03597 0.24723 0.98189 0.0
H1635 H 0.04444 0.32464 0.0233 0.0
H1636 H 0.90549 0.26853 0.08075 0.0
H1637 H 0.9409 0.28955 0.05208 0.0
C1638 C 0.29586 0.06415 0.46072 0.0
C1639 C 0.32556 0.0927 0.45932 0.0
C1640 C 0.2888 0.04361 0.47659 0.0
C1641 C 0.30904 0.03979 0.52767 0.0
H1642 H 0.26186 0.94814 0.51783 0.0
C1643 C 0.2348 0.94876 0.58718 0.0
C1644 C 0.23412 0.91924 0.58812 0.0
C1645 C 0.24992 0.96996 0.57176 0.0
C1646 C 0.2754 0.9736 0.52086 0.0
H1647 H 0.37097 0.12222 0.47387 0.0
H1648 H 0.35834 0.08618 0.50198 0.0
H1649 H 0.28198 0.98549 0.49046 0.0
H1650 H 0.24887 0.88893 0.57338 0.0
H1651 H 0.27526 0.92607 0.5462 0.0
H1652 H 0.30224 0.02787 0.55808 0.0
C1653 C 0.34062 0.07986 0.4906 0.0
C1654 C 0.28665 0.99506 0.50517 0.0
C1655 C 0.34782 0.10053 0.47454 0.0
C1656 C 0.24876 0.91134 0.57305 0.0
C1657 C 0.2639 0.93265 0.5575 0.0
C1658 C 0.29773 0.01832 0.54338 0.0
C1659 C 0.31113 0.05093 0.49163 0.0
C1660 C 0.3029 0.02841 0.50837 0.0
C1661 C 0.26481 0.96232 0.55676 0.0
C1662 C 0.2801 0.98497 0.54016 0.0
H1663 H 0.27789 0.05733 0.44944 0.0
H1664 H 0.26557 0.022 0.47713 0.0
H1665 H 0.32141 0.06529 0.53064 0.0
H1666 H 0.22363 0.9557 0.59839 0.0
H1667 H 0.24947 0.99221 0.57146 0.0
C1668 C 0.74941 0.66319 0.07344 0.0
C1669 C 0.77637 0.68588 0.08386 0.0
C1670 C 0.73771 0.67287 0.05765 0.0
C1671 C 0.76077 0.73331 1.01989 0.0
H1672 H 0.67607 0.72327 0.02392 0.0
C1673 C 0.72369 0.80072 0.96703 0.0
C1674 C 0.69206 0.78548 0.96024 0.0
C1675 C 0.73221 0.78801 0.9827 0.0
C1676 C 0.69957 0.72587 0.02232 0.0
H1677 H 0.81304 0.73602 0.08553 0.0
H1678 H 0.79353 0.75254 0.05748 0.0
H1679 H 0.69429 0.69937 0.04867 0.0
H1680 H 0.64412 0.74579 0.96493 0.0
H1681 H 0.65904 0.7227 0.99192 0.0
H1682 H 0.76618 0.75885 0.99344 0.0
C1683 C 0.78108 0.72749 0.06171 0.0
C1684 C 0.70995 0.71216 0.03655 0.0
C1685 C 0.79221 0.71803 0.07773 0.0
C1686 C 0.66863 0.75821 0.97009 0.0
C1687 C 0.6773 0.74496 0.98553 0.0
C1688 C 0.75024 0.74643 1.00551 0.0
C1689 C 0.75341 0.70518 0.05174 0.0
C1690 C 0.74086 0.71628 0.03561 0.0
C1691 C 0.70945 0.75918 0.99168 0.0
C1692 C 0.71975 0.74359 1.00671 0.0
H1693 H 0.7366 0.63834 0.07806 0.0
H1694 H 0.71634 0.65525 0.05012 0.0
H1695 H 0.78464 0.7366 1.01879 0.0
H1696 H 0.74213 0.82196 0.95976 0.0
H1697 H 0.75693 0.80049 0.98742 0.0
C1698 C 0.06487 0.29442 0.58665 0.0
C1699 C 0.09404 0.32364 0.58779 0.0
C1700 C 0.044 0.28793 0.57105 0.0
C1701 C 0.03985 0.30646 0.51996 0.0
H1702 H 0.9486 0.26419 0.53057 0.0
C1703 C 0.94632 0.22837 0.46304 0.0
C1704 C 0.91876 0.23099 0.46054 0.0
C1705 C 0.96749 0.24395 0.47836 0.0
C1706 C 0.97398 0.27636 0.52734 0.0
H1707 H 0.12438 0.36858 0.57288 0.0
H1708 H 0.08786 0.35676 0.5451 0.0
H1709 H 0.98675 0.28477 0.55761 0.0
H1710 H 0.8914 0.25133 0.47276 0.0
H1711 H 0.92836 0.27817 0.50007 0.0
H1712 H 0.02705 0.2973 0.48972 0.0
C1713 C 0.08123 0.33914 0.55662 0.0
C1714 C 0.99584 0.28792 0.54282 0.0
C1715 C 0.10216 0.34587 0.57248 0.0
C1716 C 0.91233 0.24875 0.47428 0.0
C1717 C 0.93355 0.26421 0.48985 0.0
C1718 C 0.01798 0.29469 0.50449 0.0
C1719 C 0.05168 0.31024 0.55592 0.0
C1720 C 0.02898 0.30234 0.53934 0.0
C1721 C 0.96166 0.26239 0.49183 0.0
C1722 C 0.98477 0.27875 0.50804 0.0
H1723 H 0.05773 0.27643 0.59798 0.0
H1724 H 0.02185 0.26513 0.57074 0.0
H1725 H 0.06517 0.31737 0.51679 0.0
H1726 H 0.95201 0.21467 0.45292 0.0
H1727 H 0.98844 0.24136 0.47973 0.0
C1728 C 0.66758 0.2087 0.13726 0.0
C1729 C 0.6796 0.19603 0.12328 0.0
C1730 C 0.63459 0.19587 0.13964 0.0
C1731 C 0.55896 0.15087 0.11243 0.0
H1732 H 0.52065 0.14829 0.16271 0.0
C1733 C 0.44139 0.15245 0.11973 0.0
C1734 C 0.41934 0.13426 0.13442 0.0
C1735 C 0.47113 0.15431 0.1186 0.0
C1736 C 0.53083 0.1484 0.14859 0.0
H1737 H 0.66608 0.15925 0.10116 0.0
H1738 H 0.60851 0.13653 0.1055 0.0
H1739 H 0.57652 0.16147 0.16102 0.0
H1740 H 0.41126 0.10353 0.1594 0.0
H1741 H 0.46355 0.10668 0.15739 0.0
H1742 H 0.51345 0.13813 0.09998 0.0
C1743 C 0.62467 0.15669 0.11449 0.0
C1744 C 0.56298 0.15633 0.14759 0.0
C1745 C 0.65771 0.16952 0.11214 0.0
C1746 C 0.42757 0.11742 0.14779 0.0
C1747 C 0.45762 0.11951 0.14675 0.0
C1748 C 0.5269 0.14302 0.11343 0.0
C1749 C 0.61267 0.16999 0.12809 0.0
C1750 C 0.57765 0.15831 0.12945 0.0
C1751 C 0.47984 0.13818 0.13218 0.0
C1752 C 0.51261 0.14239 0.13147 0.0
H1753 H 0.68372 0.22882 0.1463 0.0
H1754 H 0.62632 0.20696 0.15011 0.0
H1755 H 0.56942 0.15235 0.0982 0.0
H1756 H 0.4358 0.16562 0.10914 0.0
H1757 H 0.48773 0.16928 0.10738 0.0
C1758 C 0.71327 0.58006 0.42549 0.0
C1759 C 0.72901 0.59317 0.40777 0.0
C1760 C 0.68593 0.54971 0.42601 0.0
C1761 C 0.62505 0.48343 0.39458 0.0
H1762 H 0.61921 0.43171 0.4395 0.0
C1763 C 0.54895 0.34446 0.3973 0.0
C1764 C 0.53026 0.33088 0.41412 0.0
C1765 C 0.57044 0.37745 0.39625 0.0
C1766 C 0.62031 0.44596 0.42697 0.0
H1767 H 0.72801 0.58557 0.37657 0.0
H1768 H 0.68097 0.53189 0.37745 0.0
H1769 H 0.66158 0.48743 0.43798 0.0
H1770 H 0.51918 0.34112 0.44295 0.0
H1771 H 0.5574 0.39885 0.44131 0.0
H1772 H 0.58444 0.44098 0.38327 0.0
C1773 C 0.68914 0.54521 0.39097 0.0
C1774 C 0.64453 0.47806 0.4261 0.0
C1775 C 0.71621 0.57595 0.39043 0.0
C1776 C 0.53325 0.35099 0.42981 0.0
C1777 C 0.55516 0.38393 0.42889 0.0
C1778 C 0.6011 0.45109 0.39532 0.0
C1779 C 0.67405 0.53134 0.40886 0.0
C1780 C 0.64732 0.49734 0.4099 0.0
C1781 C 0.57406 0.39745 0.41213 0.0
C1782 C 0.59854 0.43205 0.41153 0.0
H1783 H 0.72236 0.59317 0.43903 0.0
H1784 H 0.67446 0.54047 0.43997 0.0
H1785 H 0.62601 0.4975 0.382 0.0
H1786 H 0.5469 0.32952 0.38492 0.0
H1787 H 0.58487 0.3872 0.38322 0.0
C1788 C 0.8953 0.31088 0.12802 0.0
C1789 C 0.87021 0.28366 0.137 0.0
C1790 C 0.89478 0.33961 0.12711 0.0
C1791 C 0.84084 0.37089 0.12405 0.0
H1792 H 0.91217 0.45121 0.14216 0.0
C1793 C 0.83795 0.48895 0.11755 0.0
C1794 C 0.86677 0.51685 0.11268 0.0
C1795 C 0.83778 0.46082 0.12294 0.0
C1796 C 0.89219 0.42914 0.13674 0.0
H1797 H 0.82459 0.26525 0.1519 0.0
H1798 H 0.82311 0.31509 0.14952 0.0
H1799 H 0.91356 0.40161 0.14616 0.0
H1800 H 0.91828 0.53719 0.11079 0.0
H1801 H 0.9178 0.4881 0.1189 0.0
H1802 H 0.82004 0.39814 0.11366 0.0
C1803 C 0.84347 0.31425 0.14355 0.0
C1804 C 0.89298 0.40071 0.13918 0.0
C1805 C 0.84438 0.28575 0.14489 0.0
C1806 C 0.89548 0.51607 0.11397 0.0
C1807 C 0.89526 0.48787 0.11901 0.0
C1808 C 0.84031 0.39937 0.12123 0.0
C1809 C 0.86869 0.34144 0.13468 0.0
C1810 C 0.86738 0.37138 0.13278 0.0
C1811 C 0.86637 0.45966 0.12334 0.0
C1812 C 0.86608 0.429 0.12742 0.0
H1813 H 0.915 0.30985 0.12129 0.0
H1814 H 0.91433 0.36016 0.11996 0.0
H1815 H 0.82092 0.34856 0.11884 0.0
H1816 H 0.8153 0.48842 0.11664 0.0
H1817 H 0.81509 0.43989 0.12657 0.0
C1818 C 0.43881 0.12879 0.39593 0.0
C1819 C 0.42569 0.13626 0.41209 0.0
C1820 C 0.46999 0.13343 0.39685 0.0
C1821 C 0.54558 0.18608 0.42084 0.0
H1822 H 0.5724 0.12422 0.40949 0.0
C1823 C 0.67144 0.21316 0.44177 0.0
C1824 C 0.68799 0.20317 0.42941 0.0
C1825 C 0.63901 0.20249 0.43881 0.0
C1826 C 0.56545 0.14197 0.41243 0.0
H1827 H 0.43416 0.15199 0.44233 0.0
H1828 H 0.48814 0.16058 0.44368 0.0
H1829 H 0.51614 0.10934 0.40508 0.0
H1830 H 0.68333 0.17352 0.40447 0.0
H1831 H 0.62662 0.15545 0.39884 0.0
H1832 H 0.59436 0.21903 0.42775 0.0
C1833 C 0.47463 0.15151 0.43027 0.0
C1834 C 0.5332 0.13336 0.40993 0.0
C1835 C 0.44361 0.14653 0.42946 0.0
C1836 C 0.67111 0.18151 0.41427 0.0
C1837 C 0.63859 0.17113 0.4111 0.0
C1838 C 0.57768 0.19482 0.42305 0.0
C1839 C 0.48851 0.14586 0.41387 0.0
C1840 C 0.52289 0.15517 0.41453 0.0
C1841 C 0.6222 0.18193 0.42315 0.0
C1842 C 0.58807 0.17272 0.41935 0.0
H1843 H 0.42563 0.12077 0.38235 0.0
H1844 H 0.48014 0.12878 0.384 0.0
H1845 H 0.53841 0.20356 0.42421 0.0
H1846 H 0.6837 0.22941 0.45377 0.0
H1847 H 0.62716 0.21057 0.44883 0.0
C1848 C 0.49741 0.35593 0.11807 0.0
C1849 C 0.50375 0.33941 0.1034 0.0
C1850 C 0.52233 0.38443 0.12604 0.0
C1851 C 0.61128 0.43167 0.13024 0.0
H1852 H 0.60002 0.50577 0.13381 0.0
C1853 C 0.71609 0.55945 0.1236 0.0
C1854 C 0.71863 0.58339 0.13648 0.0
C1855 C 0.68885 0.52909 0.12343 0.0
C1856 C 0.60338 0.48518 0.13323 0.0
H1857 H 0.54135 0.33902 0.08629 0.0
H1858 H 0.58441 0.38835 0.09992 0.0
H1859 H 0.55387 0.45288 0.12669 0.0
H1860 H 0.69438 0.59346 0.15969 0.0
H1861 H 0.6459 0.54028 0.1589 0.0
H1862 H 0.66092 0.46405 0.13592 0.0
C1863 C 0.56038 0.37951 0.10541 0.0
C1864 C 0.57695 0.45485 0.12917 0.0
C1865 C 0.53559 0.35134 0.09742 0.0
C1866 C 0.69306 0.5759 0.14935 0.0
C1867 C 0.66535 0.54542 0.14895 0.0
C1868 C 0.63759 0.46186 0.13418 0.0
C1869 C 0.55413 0.3967 0.11967 0.0
C1870 C 0.58081 0.42789 0.12701 0.0
C1871 C 0.66311 0.52164 0.13603 0.0
C1872 C 0.63416 0.48913 0.13512 0.0
H1873 H 0.47309 0.34739 0.12293 0.0
H1874 H 0.5167 0.39693 0.13709 0.0
H1875 H 0.61503 0.41135 0.12918 0.0
H1876 H 0.73525 0.56403 0.11354 0.0
H1877 H 0.68775 0.51148 0.11313 0.0
C1878 C 0.84507 0.49311 0.42648 0.0
C1879 C 0.87463 0.52125 0.42958 0.0
C1880 C 0.84378 0.46409 0.42184 0.0
C1881 C 0.8957 0.42986 0.40661 0.0
H1882 H 0.82641 0.35145 0.42843 0.0
C1883 C 0.90007 0.31232 0.41582 0.0
C1884 C 0.87362 0.28415 0.4087 0.0
C1885 C 0.89947 0.34106 0.41671 0.0
C1886 C 0.84578 0.37315 0.42213 0.0
H1887 H 0.92611 0.54089 0.429 0.0
H1888 H 0.92387 0.49062 0.42211 0.0
H1889 H 0.82649 0.40176 0.43267 0.0
H1890 H 0.82541 0.26415 0.39723 0.0
H1891 H 0.82398 0.31403 0.39954 0.0
H1892 H 0.91561 0.40114 0.39694 0.0
C1893 C 0.90153 0.49072 0.42287 0.0
C1894 C 0.84578 0.40206 0.42442 0.0
C1895 C 0.90281 0.5197 0.42721 0.0
C1896 C 0.84631 0.28536 0.40277 0.0
C1897 C 0.84541 0.31392 0.40409 0.0
C1898 C 0.89599 0.40107 0.40468 0.0
C1899 C 0.872 0.4623 0.42032 0.0
C1900 C 0.87089 0.43099 0.41683 0.0
C1901 C 0.87205 0.34211 0.41099 0.0
C1902 C 0.87114 0.37245 0.41251 0.0
H1903 H 0.82281 0.49318 0.42824 0.0
H1904 H 0.82055 0.44301 0.41961 0.0
H1905 H 0.91507 0.45125 0.40007 0.0
H1906 H 0.92105 0.31211 0.42104 0.0
H1907 H 0.92022 0.36233 0.42233 0.0
C1908 C 0.10637 0.62447 0.61296 0.0
C1909 C 0.13453 0.6544 0.61091 0.0
C1910 C 0.10769 0.59709 0.61816 0.0
C1911 C 0.16444 0.5656 0.62029 0.0
H1912 H 0.09378 0.49544 0.64777 0.0
C1913 C 0.16561 0.45139 0.64627 0.0
C1914 C 0.13956 0.42245 0.63956 0.0
C1915 C 0.16548 0.48027 0.64447 0.0
C1916 C 0.11366 0.51487 0.64008 0.0
H1917 H 0.1863 0.67868 0.6134 0.0
H1918 H 0.18847 0.63153 0.6236 0.0
H1919 H 0.09336 0.54526 0.64239 0.0
H1920 H 0.0931 0.40142 0.62567 0.0
H1921 H 0.09218 0.45152 0.62342 0.0
H1922 H 0.18497 0.53513 0.61857 0.0
C1923 C 0.1653 0.62892 0.6205 0.0
C1924 C 0.11338 0.54342 0.63683 0.0
C1925 C 0.16401 0.65626 0.61495 0.0
C1926 C 0.11313 0.42302 0.63143 0.0
C1927 C 0.11271 0.45178 0.63 0.0
C1928 C 0.16498 0.53727 0.6239 0.0
C1929 C 0.13718 0.59878 0.62189 0.0
C1930 C 0.13853 0.56909 0.6266 0.0
C1931 C 0.13907 0.48075 0.63627 0.0
C1932 C 0.13938 0.51148 0.63358 0.0
H1933 H 0.0831 0.62199 0.61043 0.0
H1934 H 0.08545 0.57445 0.61877 0.0
H1935 H 0.184 0.58436 0.61206 0.0
H1936 H 0.18634 0.45184 0.65269 0.0
H1937 H 0.18604 0.50226 0.64951 0.0
C1938 C 0.30987 0.88827 0.89447 0.0
C1939 C 0.28413 0.871 0.90729 0.0
C1940 C 0.33736 0.8854 0.89559 0.0
C1941 C 0.3814 0.85908 0.92813 0.0
H1942 H 0.41299 0.84264 0.87996 0.0
C1943 C 0.48992 0.8382 0.9265 0.0
C1944 C 0.48581 0.81194 0.91527 0.0
C1945 C 0.46807 0.84927 0.92512 0.0
C1946 C 0.40448 0.84722 0.89355 0.0
H1947 H 0.26689 0.83746 0.93141 0.0
H1948 H 0.31485 0.83269 0.93358 0.0
H1949 H 0.37001 0.85547 0.87888 0.0
H1950 H 0.45607 0.77753 0.89325 0.0
H1951 H 0.41799 0.79666 0.89093 0.0
H1952 H 0.41529 0.85008 0.94285 0.0
C1953 C 0.31409 0.84867 0.92275 0.0
C1954 C 0.38006 0.8549 0.89291 0.0
C1955 C 0.28655 0.85126 0.92145 0.0
C1956 C 0.45976 0.79756 0.90229 0.0
C1957 C 0.43811 0.80877 0.9008 0.0
C1958 C 0.406 0.85169 0.92876 0.0
C1959 C 0.3397 0.86536 0.90968 0.0
C1960 C 0.36782 0.86037 0.91022 0.0
C1961 C 0.44176 0.83455 0.91233 0.0
C1962 C 0.41748 0.8451 0.9115 0.0
H1963 H 0.3082 0.90279 0.88304 0.0
H1964 H 0.35664 0.89857 0.8853 0.0
H1965 H 0.37271 0.86344 0.94172 0.0
H1966 H 0.5096 0.84973 0.93672 0.0
H1967 H 0.47176 0.86934 0.93411 0.0
C1968 C 0.57486 0.71045 0.64943 0.0
C1969 C 0.59228 0.72335 0.63215 0.0
C1970 C 0.54371 0.68388 0.64873 0.0
C1971 C 0.47664 0.64011 0.61303 0.0
H1972 H 0.43792 0.57948 0.65553 0.0
C1973 C 0.35037 0.52789 0.60713 0.0
C1974 C 0.32911 0.52544 0.62194 0.0
C1975 C 0.38329 0.54955 0.60892 0.0
C1976 C 0.44849 0.59627 0.64355 0.0
H1977 H 0.59208 0.71723 0.60084 0.0
H1978 H 0.53895 0.67016 0.59963 0.0
H1979 H 0.49427 0.62125 0.65756 0.0
H1980 H 0.32567 0.54258 0.65058 0.0
H1981 H 0.3833 0.57976 0.65394 0.0
H1982 H 0.43098 0.61458 0.59889 0.0
C1983 C 0.54822 0.68121 0.61368 0.0
C1984 C 0.48077 0.6204 0.64474 0.0
C1985 C 0.57892 0.70804 0.61436 0.0
C1986 C 0.34155 0.54406 0.63892 0.0
C1987 C 0.3745 0.56521 0.64088 0.0
C1988 C 0.44467 0.61567 0.6117 0.0
C1989 C 0.52961 0.66929 0.63075 0.0
C1990 C 0.49536 0.64282 0.62951 0.0
C1991 C 0.39566 0.56868 0.62573 0.0
C1992 C 0.43016 0.59358 0.62696 0.0
H1993 H 0.58465 0.72188 0.66335 0.0
H1994 H 0.53031 0.67569 0.66222 0.0
H1995 H 0.48639 0.6573 0.60121 0.0
H1996 H 0.3414 0.51396 0.59386 0.0
H1997 H 0.39907 0.55164 0.59705 0.0
C1998 C 0.19738 0.66006 0.94807 0.0
C1999 C 0.17803 0.67239 0.94158 0.0
C2000 C 0.19354 0.63138 0.94059 0.0
C2001 C 0.13458 0.55642 0.91569 0.0
H2002 H 0.20771 0.54365 0.91295 0.0
C2003 C 0.12676 0.43487 0.89385 0.0
C2004 C 0.14134 0.42441 0.9075 0.0
C2005 C 0.13125 0.466 0.89492 0.0
C2006 C 0.18704 0.54685 0.9136 0.0
H2007 H 0.14003 0.66443 0.92152 0.0
H2008 H 0.13378 0.61447 0.90804 0.0
H2009 H 0.21596 0.59692 0.91961 0.0
H2010 H 0.17322 0.43922 0.93254 0.0
H2011 H 0.18155 0.49322 0.93407 0.0
H2012 H 0.10578 0.506 0.90966 0.0
C2013 C 0.1516 0.62686 0.91925 0.0
C2014 C 0.19172 0.57738 0.91753 0.0
C2015 C 0.15542 0.65571 0.92682 0.0
C2016 C 0.16131 0.44618 0.92184 0.0
C2017 C 0.16628 0.4773 0.92268 0.0
C2018 C 0.12995 0.52583 0.91152 0.0
C2019 C 0.17043 0.61412 0.9262 0.0
C2020 C 0.16552 0.58247 0.91926 0.0
C2021 C 0.15116 0.48756 0.90936 0.0
C2022 C 0.15608 0.52057 0.911 0.0
H2023 H 0.21541 0.67244 0.95918 0.0
H2024 H 0.20822 0.6223 0.94659 0.0
H2025 H 0.11378 0.55925 0.91701 0.0
H2026 H 0.11174 0.41907 0.88244 0.0
H2027 H 0.11946 0.47333 0.88436 0.0
C2028 C 0.29357 0.86064 0.61894 0.0
C2029 C 0.28543 0.87231 0.6355 0.0
C2030 C 0.32079 0.85755 0.61884 0.0
C2031 C 0.38667 0.86521 0.61835 0.0
H2032 H 0.40289 0.82804 0.66404 0.0
C2033 C 0.48859 0.83541 0.61915 0.0
C2034 C 0.482 0.80631 0.62793 0.0
C2035 C 0.46765 0.84734 0.62142 0.0
C2036 C 0.39861 0.83829 0.65112 0.0
H2037 H 0.30021 0.89073 0.66484 0.0
H2038 H 0.34834 0.88578 0.66457 0.0
H2039 H 0.36135 0.84279 0.66517 0.0
H2040 H 0.4483 0.76743 0.64643 0.0
H2041 H 0.41125 0.78756 0.64978 0.0
H2042 H 0.42267 0.85933 0.60394 0.0
C2043 C 0.33327 0.87868 0.65171 0.0
C2044 C 0.37508 0.8472 0.65187 0.0
C2045 C 0.30587 0.88183 0.6518 0.0
C2046 C 0.454 0.78966 0.63922 0.0
C2047 C 0.43294 0.80151 0.6414 0.0
C2048 C 0.41004 0.8562 0.61757 0.0
C2049 C 0.34082 0.8661 0.63528 0.0
C2050 C 0.36838 0.8602 0.63536 0.0
C2051 C 0.43936 0.83041 0.63242 0.0
C2052 C 0.41601 0.84212 0.63383 0.0
H2053 H 0.27853 0.85318 0.60606 0.0
H2054 H 0.32547 0.84734 0.60603 0.0
H2055 H 0.38252 0.87559 0.60544 0.0
H2056 H 0.50969 0.84878 0.61017 0.0
H2057 H 0.47366 0.86986 0.61448 0.0
C2058 C 0.57279 0.71374 0.88997 0.0
C2059 C 0.5908 0.72499 0.90723 0.0
C2060 C 0.54252 0.68588 0.89021 0.0
C2061 C 0.49325 0.61115 0.91716 0.0
H2062 H 0.41948 0.6169 0.90055 0.0
C2063 C 0.36685 0.52406 0.94527 0.0
C2064 C 0.33992 0.51575 0.93356 0.0
C2065 C 0.39758 0.54614 0.93875 0.0
C2066 C 0.43979 0.61454 0.90487 0.0
H2067 H 0.59204 0.71558 0.93802 0.0
H2068 H 0.53981 0.66645 0.93833 0.0
H2069 H 0.47347 0.66221 0.89511 0.0
H2070 H 0.32417 0.52325 0.90549 0.0
H2071 H 0.37825 0.56191 0.89385 0.0
H2072 H 0.45998 0.56377 0.92703 0.0
C2073 C 0.54876 0.67929 0.92469 0.0
C2074 C 0.47073 0.64058 0.90179 0.0
C2075 C 0.57855 0.70744 0.92454 0.0
C2076 C 0.34454 0.52907 0.91476 0.0
C2077 C 0.37548 0.55147 0.90822 0.0
C2078 C 0.46244 0.58504 0.92002 0.0
C2079 C 0.5302 0.6684 0.90761 0.0
C2080 C 0.49772 0.63944 0.90838 0.0
C2081 C 0.4024 0.5607 0.92029 0.0
C2082 C 0.43519 0.58667 0.91447 0.0
H2083 H 0.5817 0.72697 0.87646 0.0
H2084 H 0.52876 0.67797 0.87684 0.0
H2085 H 0.51365 0.60945 0.92215 0.0
H2086 H 0.36401 0.51415 0.95982 0.0
H2087 H 0.41745 0.55282 0.94863 0.0
loop_
_geom_bond_atom_site_label_1
_geom_bond_atom_site_label_2
_geom_bond_distance
_geom_bond_site_symmetry_2
_ccdc_geom_bond_type
C0 C2 1.422 . S
C0 C4 1.415 . S
C0 N6 1.369 . S
C1 C2 1.421 . S
C1 C3 1.417 . S
C1 C13 1.422 . S
C2 C0 1.422 . S
C2 C1 1.421 . S
C2 N12 1.359 . S
C3 C1 1.417 . S
C3 C5 1.329 . S
C3 H22 0.930 . S
C4 C0 1.415 . S
C4 C5 1.437 . S
C4 C8 1.413 . S
C5 C3 1.329 . S
C5 C4 1.437 . S
C5 H27 0.929 . S
N6 C0 1.369 . S
N6 C7 1.338 . S
N6 Gd11 2.622 . S
C7 N6 1.338 . S
C7 C9 1.378 . S
C7 H19 0.929 . S
C8 C4 1.413 . S
C8 C9 1.348 . S
C8 H24 0.931 . S
C9 C7 1.378 . S
C9 C8 1.348 . S
C9 H25 0.930 . S
Gd10 N30 2.622 . S
Gd10 N37 2.570 . S
Gd10 O44 2.353 . S
Gd10 O45 2.468 . S
Gd10 O46 2.427 . S
Gd10 O48 2.388 . S
Gd10 O49 2.386 . S
Gd10 O53 2.307 . S
Gd10 C63 2.805 . S
Gd11 N6 2.622 . S
Gd11 N12 2.570 . S
Gd11 O43 2.386 . S
Gd11 O47 2.307 . S
Gd11 O50 2.353 . S
Gd11 O51 2.468 . S
Gd11 O52 2.427 . S
Gd11 O54 2.388 . S
Gd11 C75 2.805 . S
N12 C2 1.359 . S
N12 Gd11 2.570 . S
N12 C14 1.343 . S
C13 C1 1.422 . S
C13 C15 1.321 . S
C13 H21 0.931 . S
C14 N12 1.343 . S
C14 C15 1.390 . S
C14 H16 0.931 . S
C15 C13 1.321 . S
C15 C14 1.390 . S
C15 H17 0.930 . S
H16 C14 0.931 . S
H17 C15 0.930 . S
H18 C41 0.931 . S
H19 C7 0.929 . S
H20 C42 0.930 . S
H21 C13 0.931 . S
H22 C3 0.930 . S
H23 C32 0.929 . S
H24 C8 0.931 . S
H25 C9 0.930 . S
H26 C64 0.930 . S
H27 C5 0.929 . S
H28 C33 0.931 . S
H29 C34 0.930 . S
N30 Gd10 2.622 . S
N30 C31 1.369 . S
N30 C32 1.338 . S
C31 N30 1.369 . S
C31 C35 1.415 . S
C31 C38 1.422 . S
C32 H23 0.929 . S
C32 N30 1.338 . S
C32 C34 1.378 . S
C33 H28 0.931 . S
C33 C34 1.348 . S
C33 C35 1.413 . S
C34 H29 0.930 . S
C34 C32 1.378 . S
C34 C33 1.348 . S
C35 C31 1.415 . S
C35 C33 1.413 . S
C35 C65 1.437 . S
H36 C65 0.929 . S
N37 Gd10 2.570 . S
N37 C38 1.359 . S
N37 C41 1.343 . S
C38 C31 1.422 . S
C38 N37 1.359 . S
C38 C40 1.421 . S
C39 C40 1.422 . S
C39 C42 1.321 . S
C39 H66 0.931 . S
C40 C38 1.421 . S
C40 C39 1.422 . S
C40 C64 1.417 . S
C41 H18 0.931 . S
C41 N37 1.343 . S
C41 C42 1.390 . S
C42 H20 0.930 . S
C42 C39 1.321 . S
C42 C41 1.390 . S
O43 Gd11 2.386 . S
O43 C55 1.265 . S
O44 Gd10 2.353 . S
O44 C55 1.242 . S
O45 Gd10 2.468 . S
O45 C63 1.263 . S
O46 Gd10 2.427 . S
O46 C63 1.252 . S
O47 Gd11 2.307 . S
O47 C56 1.261 . S
O48 Gd10 2.388 . S
O48 C56 1.252 . S
O49 Gd10 2.386 . S
O49 C67 1.265 . S
O50 Gd11 2.353 . S
O50 C67 1.242 . S
O51 Gd11 2.468 . S
O51 C75 1.263 . S
O52 Gd11 2.427 . S
O52 C75 1.252 . S
O53 Gd10 2.307 . S
O53 C68 1.261 . S
O54 Gd11 2.388 . S
O54 C68 1.252 . S
C55 O43 1.265 . S
C55 O44 1.242 . S
C56 O47 1.261 . S
C56 O48 1.252 . S
C57 C60 1.394 . S
C57 C62 1.370 . S
C57 C63 1.500 . S
C58 C61 1.383 . S
C58 C62 1.395 1_565 S
C59 C60 1.396 1_565 S
C59 C61 1.365 . S
C59 H76 0.929 . S
C60 C57 1.394 . S
C60 C59 1.396 1_545 S
C60 H77 0.930 . S
C61 C58 1.383 . S
C61 C59 1.365 . S
C61 H78 0.931 . S
C62 C57 1.370 . S
C62 C58 1.395 1_545 S
C62 H79 0.930 . S
C63 Gd10 2.805 . S
C63 O45 1.263 . S
C63 O46 1.252 . S
C63 C57 1.500 . S
C64 H26 0.930 . S
C64 C40 1.417 . S
C64 C65 1.329 . S
C65 C35 1.437 . S
C65 H36 0.929 . S
C65 C64 1.329 . S
H66 C39 0.931 . S
C67 O49 1.265 . S
C67 O50 1.242 . S
C68 O53 1.261 . S
C68 O54 1.252 . S
C69 C72 1.394 . S
C69 C74 1.370 . S
C69 C75 1.500 . S
C70 C73 1.383 . S
C70 C74 1.395 . S
C71 C72 1.396 . S
C71 C73 1.365 . S
C71 H80 0.929 . S
C72 C69 1.394 . S
C72 C71 1.396 . S
C72 H81 0.930 . S
C73 C70 1.383 . S
C73 C71 1.365 . S
C73 H82 0.931 . S
C74 C69 1.370 . S
C74 C70 1.395 . S
C74 H83 0.930 . S
C75 Gd11 2.805 . S
C75 O51 1.263 . S
C75 O52 1.252 . S
C75 C69 1.500 . S
H76 C59 0.929 . S
H77 C60 0.930 . S
H78 C61 0.931 . S
H79 C62 0.930 . S
H80 C71 0.929 . S
H81 C72 0.930 . S
H82 C73 0.931 . S
H83 C74 0.930 . S
C84 C86 1.422 . S
C84 C88 1.415 . S
C84 N90 1.369 . S
C85 C86 1.421 . S
C85 C87 1.417 . S
C85 C97 1.422 . S
C86 C84 1.422 . S
C86 C85 1.421 . S
C86 N96 1.359 . S
C87 C85 1.417 . S
C87 C89 1.329 . S
C87 H106 0.930 . S
C88 C84 1.415 . S
C88 C89 1.437 . S
C88 C92 1.413 . S
C89 C87 1.329 . S
C89 C88 1.437 . S
C89 H111 0.929 . S
N90 C84 1.369 . S
N90 C91 1.338 . S
N90 Gd95 2.622 . S
C91 N90 1.338 . S
C91 C93 1.378 . S
C91 H103 0.929 . S
C92 C88 1.413 . S
C92 C93 1.348 . S
C92 H108 0.931 . S
C93 C91 1.378 . S
C93 C92 1.348 . S
C93 H109 0.930 . S
Gd94 N114 2.622 . S
Gd94 N121 2.570 . S
Gd94 O128 2.353 . S
Gd94 O129 2.468 . S
Gd94 O130 2.427 . S
Gd94 O132 2.388 . S
Gd94 O133 2.386 . S
Gd94 O137 2.307 . S
Gd94 C147 2.805 . S
Gd95 N90 2.622 . S
Gd95 N96 2.570 . S
Gd95 O127 2.386 . S
Gd95 O131 2.307 . S
Gd95 O134 2.353 . S
Gd95 O135 2.468 . S
Gd95 O136 2.427 . S
Gd95 O138 2.388 . S
Gd95 C159 2.805 . S
N96 C86 1.359 . S
N96 Gd95 2.570 . S
N96 C98 1.343 . S
C97 C85 1.422 . S
C97 C99 1.321 . S
C97 H105 0.931 . S
C98 N96 1.343 . S
C98 C99 1.390 . S
C98 H100 0.931 . S
C99 C97 1.321 . S
C99 C98 1.390 . S
C99 H101 0.930 . S
H100 C98 0.931 . S
H101 C99 0.930 . S
H102 C125 0.931 . S
H103 C91 0.929 . S
H104 C126 0.930 . S
H105 C97 0.931 . S
H106 C87 0.930 . S
H107 C116 0.929 . S
H108 C92 0.931 . S
H109 C93 0.930 . S
H110 C148 0.897 1_455 S
H111 C89 0.929 . S
H112 C117 0.931 . S
H113 C118 0.930 . S
N114 Gd94 2.622 . S
N114 C115 1.369 . S
N114 C116 1.338 . S
C115 N114 1.369 . S
C115 C119 1.415 . S
C115 C122 1.422 . S
C116 H107 0.929 . S
C116 N114 1.338 . S
C116 C118 1.378 . S
C117 H112 0.931 . S
C117 C118 1.348 . S
C117 C119 1.413 . S
C118 H113 0.930 . S
C118 C116 1.378 . S
C118 C117 1.348 . S
C119 C115 1.415 . S
C119 C117 1.413 . S
C119 C149 1.437 . S
H120 C149 0.929 . S
N121 Gd94 2.570 . S
N121 C122 1.359 . S
N121 C125 1.343 . S
C122 C115 1.422 . S
C122 N121 1.359 . S
C122 C124 1.421 . S
C123 C124 1.422 . S
C123 C126 1.321 . S
C123 H150 0.931 . S
C124 C122 1.421 . S
C124 C123 1.422 . S
C124 C148 1.417 . S
C125 H102 0.931 . S
C125 N121 1.343 . S
C125 C126 1.390 . S
C126 H104 0.930 . S
C126 C123 1.321 . S
C126 C125 1.390 . S
O127 Gd95 2.386 . S
O127 C139 1.265 . S
O128 Gd94 2.353 . S
O128 C139 1.242 . S
O129 Gd94 2.468 . S
O129 C147 1.263 . S
O130 Gd94 2.427 . S
O130 C147 1.252 . S
O131 Gd95 2.307 . S
O131 C140 1.261 . S
O132 Gd94 2.388 . S
O132 C140 1.252 . S
O133 Gd94 2.386 . S
O133 C151 1.265 . S
O134 Gd95 2.353 . S
O134 C151 1.242 . S
O135 Gd95 2.468 . S
O135 C159 1.263 . S
O136 Gd95 2.427 . S
O136 C159 1.252 . S
O137 Gd94 2.307 . S
O137 C152 1.261 . S
O138 Gd95 2.388 . S
O138 C152 1.252 . S
C139 O127 1.265 . S
C139 O128 1.242 . S
C140 O131 1.261 . S
C140 O132 1.252 . S
C141 C144 1.394 . S
C141 C146 1.370 . S
C141 C147 1.500 . S
C142 C145 1.383 . S
C142 C146 1.395 . S
C143 C144 1.396 . S
C143 C145 1.365 . S
C143 H160 0.929 . S
C144 C141 1.394 . S
C144 C143 1.396 . S
C144 H161 0.930 . S
C145 C142 1.383 . S
C145 C143 1.365 . S
C145 H162 0.931 . S
C146 C141 1.370 . S
C146 C142 1.395 . S
C146 H163 0.930 . S
C147 Gd94 2.805 . S
C147 O129 1.263 . S
C147 O130 1.252 . S
C147 C141 1.500 . S
C148 H110 0.897 1_655 S
C148 C124 1.417 . S
C148 C149 1.329 . S
C149 C119 1.437 . S
C149 H120 0.929 . S
C149 C148 1.329 . S
H150 C123 0.931 . S
C151 O133 1.265 . S
C151 O134 1.242 . S
C152 O137 1.261 . S
C152 O138 1.252 . S
C153 C156 1.394 . S
C153 C158 1.370 . S
C153 C159 1.500 . S
C154 C157 1.383 . S
C154 C158 1.395 . S
C155 C156 1.396 . S
C155 C157 1.365 . S
C155 H164 0.929 . S
C156 C153 1.394 . S
C156 C155 1.396 . S
C156 H165 0.930 . S
C157 C154 1.383 . S
C157 C155 1.365 . S
C157 H166 0.931 . S
C158 C153 1.370 . S
C158 C154 1.395 . S
C158 H167 0.930 . S
C159 Gd95 2.805 . S
C159 O135 1.263 . S
C159 O136 1.252 . S
C159 C153 1.500 . S
H160 C143 0.929 . S
H161 C144 0.930 . S
H162 C145 0.931 . S
H163 C146 0.930 . S
H164 C155 0.929 . S
H165 C156 0.930 . S
H166 C157 0.931 . S
H167 C158 0.930 . S
C168 C170 1.422 . S
C168 C172 1.415 . S
C168 N174 1.369 . S
C169 C170 1.421 . S
C169 C171 1.417 . S
C169 C181 1.422 . S
C170 C168 1.422 . S
C170 C169 1.421 . S
C170 N180 1.359 . S
C171 C169 1.417 . S
C171 C173 1.329 . S
C171 H190 0.903 1_545 S
C172 C168 1.415 . S
C172 C173 1.437 . S
C172 C176 1.413 . S
C173 C171 1.329 . S
C173 C172 1.437 . S
C173 H195 0.929 . S
N174 C168 1.369 . S
N174 C175 1.338 . S
N174 Gd179 2.622 . S
C175 N174 1.338 . S
C175 C177 1.378 . S
C175 H187 0.929 . S
C176 C172 1.413 . S
C176 C177 1.348 . S
C176 H192 0.931 . S
C177 C175 1.378 . S
C177 C176 1.348 . S
C177 H193 0.930 . S
Gd178 N198 2.622 . S
Gd178 N205 2.570 . S
Gd178 O212 2.353 . S
Gd178 O213 2.468 . S
Gd178 O214 2.427 . S
Gd178 O216 2.388 . S
Gd178 O217 2.386 . S
Gd178 O221 2.307 . S
Gd178 C231 2.805 . S
Gd179 N174 2.622 . S
Gd179 N180 2.570 . S
Gd179 O211 2.386 . S
Gd179 O215 2.307 . S
Gd179 O218 2.353 . S
Gd179 O219 2.468 . S
Gd179 O220 2.427 . S
Gd179 O222 2.388 . S
Gd179 C243 2.805 . S
N180 C170 1.359 . S
N180 Gd179 2.570 . S
N180 C182 1.343 . S
C181 C169 1.422 . S
C181 C183 1.321 . S
C181 H189 0.931 . S
C182 N180 1.343 . S
C182 C183 1.390 . S
C182 H184 0.931 . S
C183 C181 1.321 . S
C183 C182 1.390 . S
C183 H185 0.930 . S
H184 C182 0.931 . S
H185 C183 0.930 . S
H186 C209 0.931 . S
H187 C175 0.929 . S
H188 C210 0.930 . S
H189 C181 0.931 . S
H190 C171 0.903 1_565 S
H191 C200 0.929 . S
H192 C176 0.931 . S
H193 C177 0.930 . S
H194 C232 0.930 . S
H195 C173 0.929 . S
H196 C201 0.931 . S
H197 C202 0.930 . S
N198 Gd178 2.622 . S
N198 C199 1.369 . S
N198 C200 1.338 . S
C199 N198 1.369 . S
C199 C203 1.415 . S
C199 C206 1.422 . S
C200 H191 0.929 . S
C200 N198 1.338 . S
C200 C202 1.378 . S
C201 H196 0.931 . S
C201 C202 1.348 . S
C201 C203 1.413 . S
C202 H197 0.930 . S
C202 C200 1.378 . S
C202 C201 1.348 . S
C203 C199 1.415 . S
C203 C201 1.413 . S
C203 C233 1.437 . S
H204 C233 0.929 . S
N205 Gd178 2.570 . S
N205 C206 1.359 . S
N205 C209 1.343 . S
C206 C199 1.422 . S
C206 N205 1.359 . S
C206 C208 1.421 . S
C207 C208 1.422 . S
C207 C210 1.321 . S
C207 H234 0.931 . S
C208 C206 1.421 . S
C208 C207 1.422 . S
C208 C232 1.417 . S
C209 H186 0.931 . S
C209 N205 1.343 . S
C209 C210 1.390 . S
C210 H188 0.930 . S
C210 C207 1.321 . S
C210 C209 1.390 . S
O211 Gd179 2.386 . S
O211 C223 1.265 . S
O212 Gd178 2.353 . S
O212 C223 1.242 . S
O213 Gd178 2.468 . S
O213 C231 1.263 . S
O214 Gd178 2.427 . S
O214 C231 1.252 . S
O215 Gd179 2.307 . S
O215 C224 1.261 . S
O216 Gd178 2.388 . S
O216 C224 1.252 . S
O217 Gd178 2.386 . S
O217 C235 1.265 . S
O218 Gd179 2.353 . S
O218 C235 1.242 . S
O219 Gd179 2.468 . S
O219 C243 1.263 . S
O220 Gd179 2.427 . S
O220 C243 1.252 . S
O221 Gd178 2.307 . S
O221 C236 1.261 . S
O222 Gd179 2.388 . S
O222 C236 1.252 . S
C223 O211 1.265 . S
C223 O212 1.242 . S
C224 O215 1.261 . S
C224 O216 1.252 . S
C225 C228 1.394 . S
C225 C230 1.370 . S
C225 C231 1.500 . S
C226 C229 1.383 . S
C226 C230 1.395 1_455 S
C227 C228 1.396 1_455 S
C227 C229 1.365 . S
C227 H244 0.929 . S
C228 C225 1.394 . S
C228 C227 1.396 1_655 S
C228 H245 0.930 . S
C229 C226 1.383 . S
C229 C227 1.365 . S
C229 H246 0.931 . S
C230 C225 1.370 . S
C230 C226 1.395 1_655 S
C230 H247 0.930 . S
C231 Gd178 2.805 . S
C231 O213 1.263 . S
C231 O214 1.252 . S
C231 C225 1.500 . S
C232 H194 0.930 . S
C232 C208 1.417 . S
C232 C233 1.329 . S
C233 C203 1.437 . S
C233 H204 0.929 . S
C233 C232 1.329 . S
H234 C207 0.931 . S
C235 O217 1.265 . S
C235 O218 1.242 . S
C236 O221 1.261 . S
C236 O222 1.252 . S
C237 C240 1.394 . S
C237 C242 1.370 . S
C237 C243 1.500 . S
C238 C241 1.383 . S
C238 C242 1.395 . S
C239 C240 1.396 . S
C239 C241 1.365 . S
C239 H248 0.929 . S
C240 C237 1.394 . S
C240 C239 1.396 . S
C240 H249 0.930 . S
C241 C238 1.383 . S
C241 C239 1.365 . S
C241 H250 0.931 . S
C242 C237 1.370 . S
C242 C238 1.395 . S
C242 H251 0.930 . S
C243 Gd179 2.805 . S
C243 O219 1.263 . S
C243 O220 1.252 . S
C243 C237 1.500 . S
H244 C227 0.929 . S
H245 C228 0.930 . S
H246 C229 0.931 . S
H247 C230 0.930 . S
H248 C239 0.929 . S
H249 C240 0.930 . S
H250 C241 0.931 . S
H251 C242 0.930 . S
C252 C254 1.422 . S
C252 C256 1.415 . S
C252 N258 1.369 . S
C253 C254 1.421 . S
C253 C255 1.417 . S
C253 C265 1.422 . S
C254 C252 1.422 . S
C254 C253 1.421 . S
C254 N264 1.359 . S
C255 C253 1.417 . S
C255 C257 1.329 . S
C255 H274 0.930 . S
C256 C252 1.415 . S
C256 C257 1.437 . S
C256 C260 1.413 . S
C257 C255 1.329 . S
C257 C256 1.437 . S
C257 H279 0.929 . S
N258 C252 1.369 . S
N258 C259 1.338 . S
N258 Gd263 2.622 . S
C259 N258 1.338 . S
C259 C261 1.378 . S
C259 H271 0.929 . S
C260 C256 1.413 . S
C260 C261 1.348 . S
C260 H276 0.931 . S
C261 C259 1.378 . S
C261 C260 1.348 . S
C261 H277 0.930 . S
Gd262 N282 2.622 . S
Gd262 N289 2.570 . S
Gd262 O296 2.353 . S
Gd262 O297 2.468 . S
Gd262 O298 2.427 . S
Gd262 O300 2.388 . S
Gd262 O301 2.386 . S
Gd262 O305 2.307 . S
Gd262 C315 2.805 . S
Gd263 N258 2.622 . S
Gd263 N264 2.570 . S
Gd263 O295 2.386 . S
Gd263 O299 2.307 . S
Gd263 O302 2.353 . S
Gd263 O303 2.468 . S
Gd263 O304 2.427 . S
Gd263 O306 2.388 . S
Gd263 C327 2.805 . S
N264 C254 1.359 . S
N264 Gd263 2.570 . S
N264 C266 1.343 . S
C265 C253 1.422 . S
C265 C267 1.321 . S
C265 H273 0.931 . S
C266 N264 1.343 . S
C266 C267 1.390 . S
C266 H268 0.931 . S
C267 C265 1.321 . S
C267 C266 1.390 . S
C267 H269 0.930 . S
H268 C266 0.931 . S
H269 C267 0.930 . S
H270 C293 0.931 . S
H271 C259 0.929 . S
H272 C294 0.930 . S
H273 C265 0.931 . S
H274 C255 0.930 . S
H275 C284 0.929 . S
H276 C260 0.931 . S
H277 C261 0.930 . S
H278 C316 0.930 . S
H279 C257 0.929 . S
H280 C285 0.931 . S
H281 C286 0.930 . S
N282 Gd262 2.622 . S
N282 C283 1.369 . S
N282 C284 1.338 . S
C283 N282 1.369 . S
C283 C287 1.415 . S
C283 C290 1.422 . S
C284 H275 0.929 . S
C284 N282 1.338 . S
C284 C286 1.378 . S
C285 H280 0.931 . S
C285 C286 1.348 . S
C285 C287 1.413 . S
C286 H281 0.930 . S
C286 C284 1.378 . S
C286 C285 1.348 . S
C287 C283 1.415 . S
C287 C285 1.413 . S
C287 C317 1.437 . S
H288 C317 0.929 . S
N289 Gd262 2.570 . S
N289 C290 1.359 . S
N289 C293 1.343 . S
C290 C283 1.422 . S
C290 N289 1.359 . S
C290 C292 1.421 . S
C291 C292 1.422 . S
C291 C294 1.321 . S
C291 H318 0.931 . S
C292 C290 1.421 . S
C292 C291 1.422 . S
C292 C316 1.417 . S
C293 H270 0.931 . S
C293 N289 1.343 . S
C293 C294 1.390 . S
C294 H272 0.930 . S
C294 C291 1.321 . S
C294 C293 1.390 . S
O295 Gd263 2.386 . S
O295 C307 1.265 . S
O296 Gd262 2.353 . S
O296 C307 1.242 . S
O297 Gd262 2.468 . S
O297 C315 1.263 . S
O298 Gd262 2.427 . S
O298 C315 1.252 . S
O299 Gd263 2.307 . S
O299 C308 1.261 . S
O300 Gd262 2.388 . S
O300 C308 1.252 . S
O301 Gd262 2.386 . S
O301 C319 1.265 . S
O302 Gd263 2.353 . S
O302 C319 1.242 . S
O303 Gd263 2.468 . S
O303 C327 1.263 . S
O304 Gd263 2.427 . S
O304 C327 1.252 . S
O305 Gd262 2.307 . S
O305 C320 1.261 . S
O306 Gd263 2.388 . S
O306 C320 1.252 . S
C307 O295 1.265 . S
C307 O296 1.242 . S
C308 O299 1.261 . S
C308 O300 1.252 . S
C309 C312 1.394 . S
C309 C314 1.370 . S
C309 C315 1.500 . S
C310 C313 1.383 . S
C310 C314 1.395 . S
C311 C312 1.396 . S
C311 C313 1.365 . S
C311 H328 0.929 . S
C312 C309 1.394 . S
C312 C311 1.396 . S
C312 H329 0.930 . S
C313 C310 1.383 . S
C313 C311 1.365 . S
C313 H330 0.931 . S
C314 C309 1.370 . S
C314 C310 1.395 . S
C314 H331 0.930 . S
C315 Gd262 2.805 . S
C315 O297 1.263 . S
C315 O298 1.252 . S
C315 C309 1.500 . S
C316 H278 0.930 . S
C316 C292 1.417 . S
C316 C317 1.329 . S
C317 C287 1.437 . S
C317 H288 0.929 . S
C317 C316 1.329 . S
H318 C291 0.931 . S
C319 O301 1.265 . S
C319 O302 1.242 . S
C320 O305 1.261 . S
C320 O306 1.252 . S
C321 C324 1.394 . S
C321 C326 1.370 . S
C321 C327 1.500 . S
C322 C325 1.383 . S
C322 C326 1.395 1_565 S
C323 C324 1.396 1_565 S
C323 C325 1.365 . S
C323 H332 0.929 . S
C324 C321 1.394 . S
C324 C323 1.396 1_545 S
C324 H333 0.930 . S
C325 C322 1.383 . S
C325 C323 1.365 . S
C325 H334 0.931 . S
C326 C321 1.370 . S
C326 C322 1.395 1_545 S
C326 H335 0.930 . S
C327 Gd263 2.805 . S
C327 O303 1.263 . S
C327 O304 1.252 . S
C327 C321 1.500 . S
H328 C311 0.929 . S
H329 C312 0.930 . S
H330 C313 0.931 . S
H331 C314 0.930 . S
H332 C323 0.929 . S
H333 C324 0.930 . S
H334 C325 0.931 . S
H335 C326 0.930 . S
C336 C338 1.422 . S
C336 C340 1.415 . S
C336 N342 1.369 . S
C337 C338 1.421 . S
C337 C339 1.417 . S
C337 C349 1.422 . S
C338 C336 1.422 . S
C338 C337 1.421 . S
C338 N348 1.359 . S
C339 C337 1.417 . S
C339 C341 1.329 . S
C339 H358 0.897 1_655 S
C340 C336 1.415 . S
C340 C341 1.437 . S
C340 C344 1.413 . S
C341 C339 1.329 . S
C341 C340 1.437 . S
C341 H363 0.929 . S
N342 C336 1.369 . S
N342 C343 1.338 . S
N342 Gd347 2.622 . S
C343 N342 1.338 . S
C343 C345 1.378 . S
C343 H355 0.929 . S
C344 C340 1.413 . S
C344 C345 1.348 . S
C344 H360 0.931 . S
C345 C343 1.378 . S
C345 C344 1.348 . S
C345 H361 0.930 . S
Gd346 N366 2.622 . S
Gd346 N373 2.570 . S
Gd346 O380 2.353 . S
Gd346 O381 2.468 . S
Gd346 O382 2.427 . S
Gd346 O384 2.388 . S
Gd346 O385 2.386 . S
Gd346 O389 2.307 . S
Gd346 C399 2.805 . S
Gd347 N342 2.622 . S
Gd347 N348 2.570 . S
Gd347 O379 2.386 . S
Gd347 O383 2.307 . S
Gd347 O386 2.353 . S
Gd347 O387 2.468 . S
Gd347 O388 2.427 . S
Gd347 O390 2.388 . S
Gd347 C411 2.805 . S
N348 C338 1.359 . S
N348 Gd347 2.570 . S
N348 C350 1.343 . S
C349 C337 1.422 . S
C349 C351 1.321 . S
C349 H357 0.931 . S
C350 N348 1.343 . S
C350 C351 1.390 . S
C350 H352 0.931 . S
C351 C349 1.321 . S
C351 C350 1.390 . S
C351 H353 0.930 . S
H352 C350 0.931 . S
H353 C351 0.930 . S
H354 C377 0.931 . S
H355 C343 0.929 . S
H356 C378 0.930 . S
H357 C349 0.931 . S
H358 C339 0.897 1_455 S
H359 C368 0.929 . S
H360 C344 0.931 . S
H361 C345 0.930 . S
H362 C400 0.930 . S
H363 C341 0.929 . S
H364 C369 0.931 . S
H365 C370 0.930 . S
N366 Gd346 2.622 . S
N366 C367 1.369 . S
N366 C368 1.338 . S
C367 N366 1.369 . S
C367 C371 1.415 . S
C367 C374 1.422 . S
C368 H359 0.929 . S
C368 N366 1.338 . S
C368 C370 1.378 . S
C369 H364 0.931 . S
C369 C370 1.348 . S
C369 C371 1.413 . S
C370 H365 0.930 . S
C370 C368 1.378 . S
C370 C369 1.348 . S
C371 C367 1.415 . S
C371 C369 1.413 . S
C371 C401 1.437 . S
H372 C401 0.929 . S
N373 Gd346 2.570 . S
N373 C374 1.359 . S
N373 C377 1.343 . S
C374 C367 1.422 . S
C374 N373 1.359 . S
C374 C376 1.421 . S
C375 C376 1.422 . S
C375 C378 1.321 . S
C375 H402 0.931 . S
C376 C374 1.421 . S
C376 C375 1.422 . S
C376 C400 1.417 . S
C377 H354 0.931 . S
C377 N373 1.343 . S
C377 C378 1.390 . S
C378 H356 0.930 . S
C378 C375 1.321 . S
C378 C377 1.390 . S
O379 Gd347 2.386 . S
O379 C391 1.265 . S
O380 Gd346 2.353 . S
O380 C391 1.242 . S
O381 Gd346 2.468 . S
O381 C399 1.263 . S
O382 Gd346 2.427 . S
O382 C399 1.252 . S
O383 Gd347 2.307 . S
O383 C392 1.261 . S
O384 Gd346 2.388 . S
O384 C392 1.252 . S
O385 Gd346 2.386 . S
O385 C403 1.265 . S
O386 Gd347 2.353 . S
O386 C403 1.242 . S
O387 Gd347 2.468 . S
O387 C411 1.263 . S
O388 Gd347 2.427 . S
O388 C411 1.252 . S
O389 Gd346 2.307 . S
O389 C404 1.261 . S
O390 Gd347 2.388 . S
O390 C404 1.252 . S
C391 O379 1.265 . S
C391 O380 1.242 . S
C392 O383 1.261 . S
C392 O384 1.252 . S
C393 C396 1.394 . S
C393 C398 1.370 . S
C393 C399 1.500 . S
C394 C397 1.383 . S
C394 C398 1.395 . S
C395 C396 1.396 . S
C395 C397 1.365 . S
C395 H412 0.929 . S
C396 C393 1.394 . S
C396 C395 1.396 . S
C396 H413 0.930 . S
C397 C394 1.383 . S
C397 C395 1.365 . S
C397 H414 0.931 . S
C398 C393 1.370 . S
C398 C394 1.395 . S
C398 H415 0.930 . S
C399 Gd346 2.805 . S
C399 O381 1.263 . S
C399 O382 1.252 . S
C399 C393 1.500 . S
C400 H362 0.930 . S
C400 C376 1.417 . S
C400 C401 1.329 . S
C401 C371 1.437 . S
C401 H372 0.929 . S
C401 C400 1.329 . S
H402 C375 0.931 . S
C403 O385 1.265 . S
C403 O386 1.242 . S
C404 O389 1.261 . S
C404 O390 1.252 . S
C405 C408 1.394 . S
C405 C410 1.370 . S
C405 C411 1.500 . S
C406 C409 1.383 . S
C406 C410 1.395 . S
C407 C408 1.396 . S
C407 C409 1.365 . S
C407 H416 0.929 . S
C408 C405 1.394 . S
C408 C407 1.396 . S
C408 H417 0.930 . S
C409 C406 1.383 . S
C409 C407 1.365 . S
C409 H418 0.931 . S
C410 C405 1.370 . S
C410 C406 1.395 . S
C410 H419 0.930 . S
C411 Gd347 2.805 . S
C411 O387 1.263 . S
C411 O388 1.252 . S
C411 C405 1.500 . S
H412 C395 0.929 . S
H413 C396 0.930 . S
H414 C397 0.931 . S
H415 C398 0.930 . S
H416 C407 0.929 . S
H417 C408 0.930 . S
H418 C409 0.931 . S
H419 C410 0.930 . S
C420 C422 1.422 . S
C420 C424 1.415 . S
C420 N426 1.369 . S
C421 C422 1.421 . S
C421 C423 1.417 . S
C421 C433 1.422 . S
C422 C420 1.422 . S
C422 C421 1.421 . S
C422 N432 1.359 . S
C423 C421 1.417 . S
C423 C425 1.329 . S
C423 H442 0.930 . S
C424 C420 1.415 . S
C424 C425 1.437 . S
C424 C428 1.413 . S
C425 C423 1.329 . S
C425 C424 1.437 . S
C425 H447 0.929 . S
N426 C420 1.369 . S
N426 C427 1.338 . S
N426 Gd431 2.622 . S
C427 N426 1.338 . S
C427 C429 1.378 . S
C427 H439 0.929 . S
C428 C424 1.413 . S
C428 C429 1.348 . S
C428 H444 0.931 . S
C429 C427 1.378 . S
C429 C428 1.348 . S
C429 H445 0.930 . S
Gd430 N450 2.622 . S
Gd430 N457 2.570 . S
Gd430 O464 2.353 . S
Gd430 O465 2.468 . S
Gd430 O466 2.427 . S
Gd430 O468 2.388 . S
Gd430 O469 2.386 . S
Gd430 O473 2.307 . S
Gd430 C483 2.805 . S
Gd431 N426 2.622 . S
Gd431 N432 2.570 . S
Gd431 O463 2.386 . S
Gd431 O467 2.307 . S
Gd431 O470 2.353 . S
Gd431 O471 2.468 . S
Gd431 O472 2.427 . S
Gd431 O474 2.388 . S
Gd431 C495 2.805 . S
N432 C422 1.359 . S
N432 Gd431 2.570 . S
N432 C434 1.343 . S
C433 C421 1.422 . S
C433 C435 1.321 . S
C433 H441 0.931 . S
C434 N432 1.343 . S
C434 C435 1.390 . S
C434 H436 0.931 . S
C435 C433 1.321 . S
C435 C434 1.390 . S
C435 H437 0.930 . S
H436 C434 0.931 . S
H437 C435 0.930 . S
H438 C461 0.931 . S
H439 C427 0.929 . S
H440 C462 0.930 . S
H441 C433 0.931 . S
H442 C423 0.930 . S
H443 C452 0.929 . S
H444 C428 0.931 . S
H445 C429 0.930 . S
H446 C484 0.902 1_565 S
H447 C425 0.929 . S
H448 C453 0.931 . S
H449 C454 0.930 . S
N450 Gd430 2.622 . S
N450 C451 1.369 . S
N450 C452 1.338 . S
C451 N450 1.369 . S
C451 C455 1.415 . S
C451 C458 1.422 . S
C452 H443 0.929 . S
C452 N450 1.338 . S
C452 C454 1.378 . S
C453 H448 0.931 . S
C453 C454 1.348 . S
C453 C455 1.413 . S
C454 H449 0.930 . S
C454 C452 1.378 . S
C454 C453 1.348 . S
C455 C451 1.415 . S
C455 C453 1.413 . S
C455 C485 1.437 . S
H456 C485 0.929 . S
N457 Gd430 2.570 . S
N457 C458 1.359 . S
N457 C461 1.343 . S
C458 C451 1.422 . S
C458 N457 1.359 . S
C458 C460 1.421 . S
C459 C460 1.422 . S
C459 C462 1.321 . S
C459 H486 0.931 . S
C460 C458 1.421 . S
C460 C459 1.422 . S
C460 C484 1.417 . S
C461 H438 0.931 . S
C461 N457 1.343 . S
C461 C462 1.390 . S
C462 H440 0.930 . S
C462 C459 1.321 . S
C462 C461 1.390 . S
O463 Gd431 2.386 . S
O463 C475 1.265 . S
O464 Gd430 2.353 . S
O464 C475 1.242 . S
O465 Gd430 2.468 . S
O465 C483 1.263 . S
O466 Gd430 2.427 . S
O466 C483 1.252 . S
O467 Gd431 2.307 . S
O467 C476 1.261 . S
O468 Gd430 2.388 . S
O468 C476 1.252 . S
O469 Gd430 2.386 . S
O469 C487 1.265 . S
O470 Gd431 2.353 . S
O470 C487 1.242 . S
O471 Gd431 2.468 . S
O471 C495 1.263 . S
O472 Gd431 2.427 . S
O472 C495 1.252 . S
O473 Gd430 2.307 . S
O473 C488 1.261 . S
O474 Gd431 2.388 . S
O474 C488 1.252 . S
C475 O463 1.265 . S
C475 O464 1.242 . S
C476 O467 1.261 . S
C476 O468 1.252 . S
C477 C480 1.394 . S
C477 C482 1.370 . S
C477 C483 1.500 . S
C478 C481 1.383 . S
C478 C482 1.395 . S
C479 C480 1.396 . S
C479 C481 1.365 . S
C479 H496 0.929 . S
C480 C477 1.394 . S
C480 C479 1.396 . S
C480 H497 0.930 . S
C481 C478 1.383 . S
C481 C479 1.365 . S
C481 H498 0.931 . S
C482 C477 1.370 . S
C482 C478 1.395 . S
C482 H499 0.930 . S
C483 Gd430 2.805 . S
C483 O465 1.263 . S
C483 O466 1.252 . S
C483 C477 1.500 . S
C484 H446 0.902 1_545 S
C484 C460 1.417 . S
C484 C485 1.329 . S
C485 C455 1.437 . S
C485 H456 0.929 . S
C485 C484 1.329 . S
H486 C459 0.931 . S
C487 O469 1.265 . S
C487 O470 1.242 . S
C488 O473 1.261 . S
C488 O474 1.252 . S
C489 C492 1.394 . S
C489 C494 1.370 . S
C489 C495 1.500 . S
C490 C493 1.383 . S
C490 C494 1.395 1_455 S
C491 C492 1.396 1_455 S
C491 C493 1.365 . S
C491 H500 0.929 . S
C492 C489 1.394 . S
C492 C491 1.396 1_655 S
C492 H501 0.930 . S
C493 C490 1.383 . S
C493 C491 1.365 . S
C493 H502 0.931 . S
C494 C489 1.370 . S
C494 C490 1.395 1_655 S
C494 H503 0.930 . S
C495 Gd431 2.805 . S
C495 O471 1.263 . S
C495 O472 1.252 . S
C495 C489 1.500 . S
H496 C479 0.929 . S
H497 C480 0.930 . S
H498 C481 0.931 . S
H499 C482 0.930 . S
H500 C491 0.929 . S
H501 C492 0.930 . S
H502 C493 0.931 . S
H503 C494 0.930 . S
C504 C506 1.422 . S
C504 C508 1.415 . S
C504 N510 1.369 . S
C505 C506 1.421 . S
C505 C507 1.417 . S
C505 C517 1.422 . S
C506 C504 1.422 . S
C506 C505 1.421 . S
C506 N516 1.359 . S
C507 C505 1.417 . S
C507 C509 1.329 . S
C507 H526 0.930 . S
C508 C504 1.415 . S
C508 C509 1.437 . S
C508 C512 1.413 . S
C509 C507 1.329 . S
C509 C508 1.437 . S
C509 H531 0.929 . S
N510 C504 1.369 . S
N510 C511 1.338 . S
N510 Gd515 2.622 . S
C511 N510 1.338 . S
C511 C513 1.378 . S
C511 H523 0.929 . S
C512 C508 1.413 . S
C512 C513 1.348 . S
C512 H528 0.931 . S
C513 C511 1.378 . S
C513 C512 1.348 . S
C513 H529 0.930 . S
Gd514 N534 2.622 . S
Gd514 N541 2.570 . S
Gd514 O548 2.353 . S
Gd514 O549 2.468 . S
Gd514 O550 2.427 . S
Gd514 O552 2.388 . S
Gd514 O553 2.386 . S
Gd514 O557 2.307 . S
Gd514 C567 2.805 . S
Gd515 N510 2.622 . S
Gd515 N516 2.570 . S
Gd515 O547 2.386 . S
Gd515 O551 2.307 . S
Gd515 O554 2.353 . S
Gd515 O555 2.468 . S
Gd515 O556 2.427 . S
Gd515 O558 2.388 . S
Gd515 C579 2.805 . S
N516 C506 1.359 . S
N516 Gd515 2.570 . S
N516 C518 1.343 . S
C517 C505 1.422 . S
C517 C519 1.321 . S
C517 H525 0.931 . S
C518 N516 1.343 . S
C518 C519 1.390 . S
C518 H520 0.931 . S
C519 C517 1.321 . S
C519 C518 1.390 . S
C519 H521 0.930 . S
H520 C518 0.931 . S
H521 C519 0.930 . S
H522 C545 0.931 . S
H523 C511 0.929 . S
H524 C546 0.930 . S
H525 C517 0.931 . S
H526 C507 0.930 . S
H527 C536 0.929 . S
H528 C512 0.931 . S
H529 C513 0.930 . S
H530 C568 0.930 . S
H531 C509 0.929 . S
H532 C537 0.931 . S
H533 C538 0.930 . S
N534 Gd514 2.622 . S
N534 C535 1.369 . S
N534 C536 1.338 . S
C535 N534 1.369 . S
C535 C539 1.415 . S
C535 C542 1.422 . S
C536 H527 0.929 . S
C536 N534 1.338 . S
C536 C538 1.378 . S
C537 H532 0.931 . S
C537 C538 1.348 . S
C537 C539 1.413 . S
C538 H533 0.930 . S
C538 C536 1.378 . S
C538 C537 1.348 . S
C539 C535 1.415 . S
C539 C537 1.413 . S
C539 C569 1.437 . S
H540 C569 0.929 . S
N541 Gd514 2.570 . S
N541 C542 1.359 . S
N541 C545 1.343 . S
C542 C535 1.422 . S
C542 N541 1.359 . S
C542 C544 1.421 . S
C543 C544 1.422 . S
C543 C546 1.321 . S
C543 H570 0.931 . S
C544 C542 1.421 . S
C544 C543 1.422 . S
C544 C568 1.417 . S
C545 H522 0.931 . S
C545 N541 1.343 . S
C545 C546 1.390 . S
C546 H524 0.930 . S
C546 C543 1.321 . S
C546 C545 1.390 . S
O547 Gd515 2.386 . S
O547 C559 1.265 . S
O548 Gd514 2.353 . S
O548 C559 1.242 . S
O549 Gd514 2.468 . S
O549 C567 1.263 . S
O550 Gd514 2.427 . S
O550 C567 1.252 . S
O551 Gd515 2.307 . S
O551 C560 1.261 . S
O552 Gd514 2.388 . S
O552 C560 1.252 . S
O553 Gd514 2.386 . S
O553 C571 1.265 . S
O554 Gd515 2.353 . S
O554 C571 1.242 . S
O555 Gd515 2.468 . S
O555 C579 1.263 . S
O556 Gd515 2.427 . S
O556 C579 1.252 . S
O557 Gd514 2.307 . S
O557 C572 1.261 . S
O558 Gd515 2.388 . S
O558 C572 1.252 . S
C559 O547 1.265 . S
C559 O548 1.242 . S
C560 O551 1.261 . S
C560 O552 1.252 . S
C561 C564 1.394 . S
C561 C566 1.370 . S
C561 C567 1.500 . S
C562 C565 1.383 . S
C562 C566 1.395 . S
C563 C564 1.396 . S
C563 C565 1.365 . S
C563 H580 0.929 . S
C564 C561 1.394 . S
C564 C563 1.396 . S
C564 H581 0.930 . S
C565 C562 1.383 . S
C565 C563 1.365 . S
C565 H582 0.931 . S
C566 C561 1.370 . S
C566 C562 1.395 . S
C566 H583 0.930 . S
C567 Gd514 2.805 . S
C567 O549 1.263 . S
C567 O550 1.252 . S
C567 C561 1.500 . S
C568 H530 0.930 . S
C568 C544 1.417 . S
C568 C569 1.329 . S
C569 C539 1.437 . S
C569 H540 0.929 . S
C569 C568 1.329 . S
H570 C543 0.931 . S
C571 O553 1.265 . S
C571 O554 1.242 . S
C572 O557 1.261 . S
C572 O558 1.252 . S
C573 C576 1.394 . S
C573 C578 1.370 . S
C573 C579 1.500 . S
C574 C577 1.383 . S
C574 C578 1.395 1_655 S
C575 C576 1.396 1_655 S
C575 C577 1.365 . S
C575 H584 0.929 . S
C576 C573 1.394 . S
C576 C575 1.396 1_455 S
C576 H585 0.930 . S
C577 C574 1.383 . S
C577 C575 1.365 . S
C577 H586 0.931 . S
C578 C573 1.370 . S
C578 C574 1.395 1_455 S
C578 H587 0.930 . S
C579 Gd515 2.805 . S
C579 O555 1.263 . S
C579 O556 1.252 . S
C579 C573 1.500 . S
H580 C563 0.929 . S
H581 C564 0.930 . S
H582 C565 0.931 . S
H583 C566 0.930 . S
H584 C575 0.929 . S
H585 C576 0.930 . S
H586 C577 0.931 . S
H587 C578 0.930 . S
C588 C590 1.422 . S
C588 C592 1.415 . S
C588 N594 1.369 . S
C589 C590 1.421 . S
C589 C591 1.417 . S
C589 C601 1.422 . S
C590 C588 1.422 . S
C590 C589 1.421 . S
C590 N600 1.359 . S
C591 C589 1.417 . S
C591 C593 1.329 . S
C591 H610 0.902 1_455 S
C592 C588 1.415 . S
C592 C593 1.437 . S
C592 C596 1.413 . S
C593 C591 1.329 . S
C593 C592 1.437 . S
C593 H615 0.929 . S
N594 C588 1.369 . S
N594 C595 1.338 . S
N594 Gd599 2.622 . S
C595 N594 1.338 . S
C595 C597 1.378 . S
C595 H607 0.929 . S
C596 C592 1.413 . S
C596 C597 1.348 . S
C596 H612 0.931 . S
C597 C595 1.378 . S
C597 C596 1.348 . S
C597 H613 0.930 . S
Gd598 N618 2.622 . S
Gd598 N625 2.570 . S
Gd598 O632 2.353 . S
Gd598 O633 2.468 . S
Gd598 O634 2.427 . S
Gd598 O636 2.388 . S
Gd598 O637 2.386 . S
Gd598 O641 2.307 . S
Gd598 C651 2.805 . S
Gd599 N594 2.622 . S
Gd599 N600 2.570 . S
Gd599 O631 2.386 . S
Gd599 O635 2.307 . S
Gd599 O638 2.353 . S
Gd599 O639 2.468 . S
Gd599 O640 2.427 . S
Gd599 O642 2.388 . S
Gd599 C663 2.805 . S
N600 C590 1.359 . S
N600 Gd599 2.570 . S
N600 C602 1.343 . S
C601 C589 1.422 . S
C601 C603 1.321 . S
C601 H609 0.931 . S
C602 N600 1.343 . S
C602 C603 1.390 . S
C602 H604 0.931 . S
C603 C601 1.321 . S
C603 C602 1.390 . S
C603 H605 0.930 . S
H604 C602 0.931 . S
H605 C603 0.930 . S
H606 C629 0.931 . S
H607 C595 0.929 . S
H608 C630 0.930 . S
H609 C601 0.931 . S
H610 C591 0.902 1_655 S
H611 C620 0.929 . S
H612 C596 0.931 . S
H613 C597 0.930 . S
H614 C652 0.930 . S
H615 C593 0.929 . S
H616 C621 0.931 . S
H617 C622 0.930 . S
N618 Gd598 2.622 . S
N618 C619 1.369 . S
N618 C620 1.338 . S
C619 N618 1.369 . S
C619 C623 1.415 . S
C619 C626 1.422 . S
C620 H611 0.929 . S
C620 N618 1.338 . S
C620 C622 1.378 . S
C621 H616 0.931 . S
C621 C622 1.348 . S
C621 C623 1.413 . S
C622 H617 0.930 . S
C622 C620 1.378 . S
C622 C621 1.348 . S
C623 C619 1.415 . S
C623 C621 1.413 . S
C623 C653 1.437 . S
H624 C653 0.929 . S
N625 Gd598 2.570 . S
N625 C626 1.359 . S
N625 C629 1.343 . S
C626 C619 1.422 . S
C626 N625 1.359 . S
C626 C628 1.421 . S
C627 C628 1.422 . S
C627 C630 1.321 . S
C627 H654 0.931 . S
C628 C626 1.421 . S
C628 C627 1.422 . S
C628 C652 1.417 . S
C629 H606 0.931 . S
C629 N625 1.343 . S
C629 C630 1.390 . S
C630 H608 0.930 . S
C630 C627 1.321 . S
C630 C629 1.390 . S
O631 Gd599 2.386 . S
O631 C643 1.265 . S
O632 Gd598 2.353 . S
O632 C643 1.242 . S
O633 Gd598 2.468 . S
O633 C651 1.263 . S
O634 Gd598 2.427 . S
O634 C651 1.252 . S
O635 Gd599 2.307 . S
O635 C644 1.261 . S
O636 Gd598 2.388 . S
O636 C644 1.252 . S
O637 Gd598 2.386 . S
O637 C655 1.265 . S
O638 Gd599 2.353 . S
O638 C655 1.242 . S
O639 Gd599 2.468 . S
O639 C663 1.263 . S
O640 Gd599 2.427 . S
O640 C663 1.252 . S
O641 Gd598 2.307 . S
O641 C656 1.261 . S
O642 Gd599 2.388 . S
O642 C656 1.252 . S
C643 O631 1.265 . S
C643 O632 1.242 . S
C644 O635 1.261 . S
C644 O636 1.252 . S
C645 C648 1.394 . S
C645 C650 1.370 . S
C645 C651 1.500 . S
C646 C649 1.383 . S
C646 C650 1.395 1_545 S
C647 C648 1.396 1_545 S
C647 C649 1.365 . S
C647 H664 0.929 . S
C648 C645 1.394 . S
C648 C647 1.396 1_565 S
C648 H665 0.930 . S
C649 C646 1.383 . S
C649 C647 1.365 . S
C649 H666 0.931 . S
C650 C645 1.370 . S
C650 C646 1.395 1_565 S
C650 H667 0.930 . S
C651 Gd598 2.805 . S
C651 O633 1.263 . S
C651 O634 1.252 . S
C651 C645 1.500 . S
C652 H614 0.930 . S
C652 C628 1.417 . S
C652 C653 1.329 . S
C653 C623 1.437 . S
C653 H624 0.929 . S
C653 C652 1.329 . S
H654 C627 0.931 . S
C655 O637 1.265 . S
C655 O638 1.242 . S
C656 O641 1.261 . S
C656 O642 1.252 . S
C657 C660 1.394 . S
C657 C662 1.370 . S
C657 C663 1.500 . S
C658 C661 1.383 . S
C658 C662 1.395 . S
C659 C660 1.396 . S
C659 C661 1.365 . S
C659 H668 0.929 . S
C660 C657 1.394 . S
C660 C659 1.396 . S
C660 H669 0.930 . S
C661 C658 1.383 . S
C661 C659 1.365 . S
C661 H670 0.931 . S
C662 C657 1.370 . S
C662 C658 1.395 . S
C662 H671 0.930 . S
C663 Gd599 2.805 . S
C663 O639 1.263 . S
C663 O640 1.252 . S
C663 C657 1.500 . S
H664 C647 0.929 . S
H665 C648 0.930 . S
H666 C649 0.931 . S
H667 C650 0.930 . S
H668 C659 0.929 . S
H669 C660 0.930 . S
H670 C661 0.931 . S
H671 C662 0.930 . S
C672 C674 1.422 . S
C672 C676 1.415 . S
C672 N678 1.369 . S
C673 C674 1.421 . S
C673 C675 1.417 . S
C673 C685 1.422 . S
C674 C672 1.422 . S
C674 C673 1.421 . S
C674 N684 1.359 . S
C675 C673 1.417 . S
C675 C677 1.329 . S
C675 H694 0.930 . S
C676 C672 1.415 . S
C676 C677 1.437 . S
C676 C680 1.413 . S
C677 C675 1.329 . S
C677 C676 1.437 . S
C677 H699 0.929 . S
N678 C672 1.369 . S
N678 C679 1.338 . S
N678 Gd683 2.622 . S
C679 N678 1.338 . S
C679 C681 1.378 . S
C679 H691 0.929 . S
C680 C676 1.413 . S
C680 C681 1.348 . S
C680 H696 0.931 . S
C681 C679 1.378 . S
C681 C680 1.348 . S
C681 H697 0.930 . S
Gd682 N702 2.622 . S
Gd682 N709 2.570 . S
Gd682 O716 2.353 . S
Gd682 O717 2.468 . S
Gd682 O718 2.427 . S
Gd682 O720 2.388 . S
Gd682 O721 2.386 . S
Gd682 O725 2.307 . S
Gd682 C735 2.805 . S
Gd683 N678 2.622 . S
Gd683 N684 2.570 . S
Gd683 O715 2.386 . S
Gd683 O719 2.307 . S
Gd683 O722 2.353 . S
Gd683 O723 2.468 . S
Gd683 O724 2.427 . S
Gd683 O726 2.388 . S
Gd683 C747 2.805 . S
N684 C674 1.359 . S
N684 Gd683 2.570 . S
N684 C686 1.343 . S
C685 C673 1.422 . S
C685 C687 1.321 . S
C685 H693 0.931 . S
C686 N684 1.343 . S
C686 C687 1.390 . S
C686 H688 0.931 . S
C687 C685 1.321 . S
C687 C686 1.390 . S
C687 H689 0.930 . S
H688 C686 0.931 . S
H689 C687 0.930 . S
H690 C713 0.931 . S
H691 C679 0.929 . S
H692 C714 0.930 . S
H693 C685 0.931 . S
H694 C675 0.930 . S
H695 C704 0.929 . S
H696 C680 0.931 . S
H697 C681 0.930 . S
H698 C736 0.897 1_545 S
H699 C677 0.929 . S
H700 C705 0.931 . S
H701 C706 0.930 . S
N702 Gd682 2.622 . S
N702 C703 1.369 . S
N702 C704 1.338 . S
C703 N702 1.369 . S
C703 C707 1.415 . S
C703 C710 1.422 . S
C704 H695 0.929 . S
C704 N702 1.338 . S
C704 C706 1.378 . S
C705 H700 0.931 . S
C705 C706 1.348 . S
C705 C707 1.413 . S
C706 H701 0.930 . S
C706 C704 1.378 . S
C706 C705 1.348 . S
C707 C703 1.415 . S
C707 C705 1.413 . S
C707 C737 1.437 . S
H708 C737 0.929 . S
N709 Gd682 2.570 . S
N709 C710 1.359 . S
N709 C713 1.343 . S
C710 C703 1.422 . S
C710 N709 1.359 . S
C710 C712 1.421 . S
C711 C712 1.422 . S
C711 C714 1.321 . S
C711 H738 0.931 . S
C712 C710 1.421 . S
C712 C711 1.422 . S
C712 C736 1.417 . S
C713 H690 0.931 . S
C713 N709 1.343 . S
C713 C714 1.390 . S
C714 H692 0.930 . S
C714 C711 1.321 . S
C714 C713 1.390 . S
O715 Gd683 2.386 . S
O715 C727 1.265 . S
O716 Gd682 2.353 . S
O716 C727 1.242 . S
O717 Gd682 2.468 . S
O717 C735 1.263 . S
O718 Gd682 2.427 . S
O718 C735 1.252 . S
O719 Gd683 2.307 . S
O719 C728 1.261 . S
O720 Gd682 2.388 . S
O720 C728 1.252 . S
O721 Gd682 2.386 . S
O721 C739 1.265 . S
O722 Gd683 2.353 . S
O722 C739 1.242 . S
O723 Gd683 2.468 . S
O723 C747 1.263 . S
O724 Gd683 2.427 . S
O724 C747 1.252 . S
O725 Gd682 2.307 . S
O725 C740 1.261 . S
O726 Gd683 2.388 . S
O726 C740 1.252 . S
C727 O715 1.265 . S
C727 O716 1.242 . S
C728 O719 1.261 . S
C728 O720 1.252 . S
C729 C732 1.394 . S
C729 C734 1.370 . S
C729 C735 1.500 . S
C730 C733 1.383 . S
C730 C734 1.395 . S
C731 C732 1.396 . S
C731 C733 1.365 . S
C731 H748 0.929 . S
C732 C729 1.394 . S
C732 C731 1.396 . S
C732 H749 0.930 . S
C733 C730 1.383 . S
C733 C731 1.365 . S
C733 H750 0.931 . S
C734 C729 1.370 . S
C734 C730 1.395 . S
C734 H751 0.930 . S
C735 Gd682 2.805 . S
C735 O717 1.263 . S
C735 O718 1.252 . S
C735 C729 1.500 . S
C736 H698 0.897 1_565 S
C736 C712 1.417 . S
C736 C737 1.329 . S
C737 C707 1.437 . S
C737 H708 0.929 . S
C737 C736 1.329 . S
H738 C711 0.931 . S
C739 O721 1.265 . S
C739 O722 1.242 . S
C740 O725 1.261 . S
C740 O726 1.252 . S
C741 C744 1.394 . S
C741 C746 1.370 . S
C741 C747 1.500 . S
C742 C745 1.383 . S
C742 C746 1.395 . S
C743 C744 1.396 . S
C743 C745 1.365 . S
C743 H752 0.929 . S
C744 C741 1.394 . S
C744 C743 1.396 . S
C744 H753 0.930 . S
C745 C742 1.383 . S
C745 C743 1.365 . S
C745 H754 0.931 . S
C746 C741 1.370 . S
C746 C742 1.395 . S
C746 H755 0.930 . S
C747 Gd683 2.805 . S
C747 O723 1.263 . S
C747 O724 1.252 . S
C747 C741 1.500 . S
H748 C731 0.929 . S
H749 C732 0.930 . S
H750 C733 0.931 . S
H751 C734 0.930 . S
H752 C743 0.929 . S
H753 C744 0.930 . S
H754 C745 0.931 . S
H755 C746 0.930 . S
C756 C758 1.422 . S
C756 C760 1.415 . S
C756 N762 1.369 . S
C757 C758 1.421 . S
C757 C759 1.417 . S
C757 C769 1.422 . S
C758 C756 1.422 . S
C758 C757 1.421 . S
C758 N768 1.359 . S
C759 C757 1.417 . S
C759 C761 1.329 . S
C759 H778 0.930 . S
C760 C756 1.415 . S
C760 C761 1.437 . S
C760 C764 1.413 . S
C761 C759 1.329 . S
C761 C760 1.437 . S
C761 H783 0.929 . S
N762 C756 1.369 . S
N762 C763 1.338 . S
N762 Gd767 2.622 . S
C763 N762 1.338 . S
C763 C765 1.378 . S
C763 H775 0.929 . S
C764 C760 1.413 . S
C764 C765 1.348 . S
C764 H780 0.931 . S
C765 C763 1.378 . S
C765 C764 1.348 . S
C765 H781 0.930 . S
Gd766 N786 2.622 . S
Gd766 N793 2.570 . S
Gd766 O800 2.353 . S
Gd766 O801 2.468 . S
Gd766 O802 2.427 . S
Gd766 O804 2.388 . S
Gd766 O805 2.386 . S
Gd766 O809 2.307 . S
Gd766 C819 2.805 . S
Gd767 N762 2.622 . S
Gd767 N768 2.570 . S
Gd767 O799 2.386 . S
Gd767 O803 2.307 . S
Gd767 O806 2.353 . S
Gd767 O807 2.468 . S
Gd767 O808 2.427 . S
Gd767 O810 2.388 . S
Gd767 C831 2.805 . S
N768 C758 1.359 . S
N768 Gd767 2.570 . S
N768 C770 1.343 . S
C769 C757 1.422 . S
C769 C771 1.321 . S
C769 H777 0.931 . S
C770 N768 1.343 . S
C770 C771 1.390 . S
C770 H772 0.931 . S
C771 C769 1.321 . S
C771 C770 1.390 . S
C771 H773 0.930 . S
H772 C770 0.931 . S
H773 C771 0.930 . S
H774 C797 0.931 . S
H775 C763 0.929 . S
H776 C798 0.930 . S
H777 C769 0.931 . S
H778 C759 0.930 . S
H779 C788 0.929 . S
H780 C764 0.931 . S
H781 C765 0.930 . S
H782 C820 0.930 . S
H783 C761 0.929 . S
H784 C789 0.931 . S
H785 C790 0.930 . S
N786 Gd766 2.622 . S
N786 C787 1.369 . S
N786 C788 1.338 . S
C787 N786 1.369 . S
C787 C791 1.415 . S
C787 C794 1.422 . S
C788 H779 0.929 . S
C788 N786 1.338 . S
C788 C790 1.378 . S
C789 H784 0.931 . S
C789 C790 1.348 . S
C789 C791 1.413 . S
C790 H785 0.930 . S
C790 C788 1.378 . S
C790 C789 1.348 . S
C791 C787 1.415 . S
C791 C789 1.413 . S
C791 C821 1.437 . S
H792 C821 0.929 . S
N793 Gd766 2.570 . S
N793 C794 1.359 . S
N793 C797 1.343 . S
C794 C787 1.422 . S
C794 N793 1.359 . S
C794 C796 1.421 . S
C795 C796 1.422 . S
C795 C798 1.321 . S
C795 H822 0.931 . S
C796 C794 1.421 . S
C796 C795 1.422 . S
C796 C820 1.417 . S
C797 H774 0.931 . S
C797 N793 1.343 . S
C797 C798 1.390 . S
C798 H776 0.930 . S
C798 C795 1.321 . S
C798 C797 1.390 . S
O799 Gd767 2.386 . S
O799 C811 1.265 . S
O800 Gd766 2.353 . S
O800 C811 1.242 . S
O801 Gd766 2.468 . S
O801 C819 1.263 . S
O802 Gd766 2.427 . S
O802 C819 1.252 . S
O803 Gd767 2.307 . S
O803 C812 1.261 . S
O804 Gd766 2.388 . S
O804 C812 1.252 . S
O805 Gd766 2.386 . S
O805 C823 1.265 . S
O806 Gd767 2.353 . S
O806 C823 1.242 . S
O807 Gd767 2.468 . S
O807 C831 1.263 . S
O808 Gd767 2.427 . S
O808 C831 1.252 . S
O809 Gd766 2.307 . S
O809 C824 1.261 . S
O810 Gd767 2.388 . S
O810 C824 1.252 . S
C811 O799 1.265 . S
C811 O800 1.242 . S
C812 O803 1.261 . S
C812 O804 1.252 . S
C813 C816 1.394 . S
C813 C818 1.370 . S
C813 C819 1.500 . S
C814 C817 1.383 . S
C814 C818 1.395 1_655 S
C815 C816 1.396 1_655 S
C815 C817 1.365 . S
C815 H832 0.929 . S
C816 C813 1.394 . S
C816 C815 1.396 1_455 S
C816 H833 0.930 . S
C817 C814 1.383 . S
C817 C815 1.365 . S
C817 H834 0.931 . S
C818 C813 1.370 . S
C818 C814 1.395 1_455 S
C818 H835 0.930 . S
C819 Gd766 2.805 . S
C819 O801 1.263 . S
C819 O802 1.252 . S
C819 C813 1.500 . S
C820 H782 0.930 . S
C820 C796 1.417 . S
C820 C821 1.329 . S
C821 C791 1.437 . S
C821 H792 0.929 . S
C821 C820 1.329 . S
H822 C795 0.931 . S
C823 O805 1.265 . S
C823 O806 1.242 . S
C824 O809 1.261 . S
C824 O810 1.252 . S
C825 C828 1.394 . S
C825 C830 1.370 . S
C825 C831 1.500 . S
C826 C829 1.383 . S
C826 C830 1.395 . S
C827 C828 1.396 . S
C827 C829 1.365 . S
C827 H836 0.929 . S
C828 C825 1.394 . S
C828 C827 1.396 . S
C828 H837 0.930 . S
C829 C826 1.383 . S
C829 C827 1.365 . S
C829 H838 0.931 . S
C830 C825 1.370 . S
C830 C826 1.395 . S
C830 H839 0.930 . S
C831 Gd767 2.805 . S
C831 O807 1.263 . S
C831 O808 1.252 . S
C831 C825 1.500 . S
H832 C815 0.929 . S
H833 C816 0.930 . S
H834 C817 0.931 . S
H835 C818 0.930 . S
H836 C827 0.929 . S
H837 C828 0.930 . S
H838 C829 0.931 . S
H839 C830 0.930 . S
C840 C842 1.422 . S
C840 C844 1.415 . S
C840 N846 1.369 . S
C841 C842 1.421 . S
C841 C843 1.417 . S
C841 C853 1.422 . S
C842 C840 1.422 . S
C842 C841 1.421 . S
C842 N852 1.359 . S
C843 C841 1.417 . S
C843 C845 1.329 . S
C843 H862 0.930 . S
C844 C840 1.415 . S
C844 C845 1.437 . S
C844 C848 1.413 . S
C845 C843 1.329 . S
C845 C844 1.437 . S
C845 H867 0.929 . S
N846 C840 1.369 . S
N846 C847 1.338 . S
N846 Gd851 2.622 . S
C847 N846 1.338 . S
C847 C849 1.378 . S
C847 H859 0.929 . S
C848 C844 1.413 . S
C848 C849 1.348 . S
C848 H864 0.931 . S
C849 C847 1.378 . S
C849 C848 1.348 . S
C849 H865 0.930 . S
Gd850 N870 2.622 . S
Gd850 N877 2.570 . S
Gd850 O884 2.353 . S
Gd850 O885 2.468 . S
Gd850 O886 2.427 . S
Gd850 O888 2.388 . S
Gd850 O889 2.386 . S
Gd850 O893 2.307 . S
Gd850 C903 2.805 . S
Gd851 N846 2.622 . S
Gd851 N852 2.570 . S
Gd851 O883 2.386 . S
Gd851 O887 2.307 . S
Gd851 O890 2.353 . S
Gd851 O891 2.468 . S
Gd851 O892 2.427 . S
Gd851 O894 2.388 . S
Gd851 C915 2.805 . S
N852 C842 1.359 . S
N852 Gd851 2.570 . S
N852 C854 1.343 . S
C853 C841 1.422 . S
C853 C855 1.321 . S
C853 H861 0.931 . S
C854 N852 1.343 . S
C854 C855 1.390 . S
C854 H856 0.931 . S
C855 C853 1.321 . S
C855 C854 1.390 . S
C855 H857 0.930 . S
H856 C854 0.931 . S
H857 C855 0.930 . S
H858 C881 0.931 . S
H859 C847 0.929 . S
H860 C882 0.930 . S
H861 C853 0.931 . S
H862 C843 0.930 . S
H863 C872 0.929 . S
H864 C848 0.931 . S
H865 C849 0.930 . S
H866 C904 0.903 1_655 S
H867 C845 0.929 . S
H868 C873 0.931 . S
H869 C874 0.930 . S
N870 Gd850 2.622 . S
N870 C871 1.369 . S
N870 C872 1.338 . S
C871 N870 1.369 . S
C871 C875 1.415 . S
C871 C878 1.422 . S
C872 H863 0.929 . S
C872 N870 1.338 . S
C872 C874 1.378 . S
C873 H868 0.931 . S
C873 C874 1.348 . S
C873 C875 1.413 . S
C874 H869 0.930 . S
C874 C872 1.378 . S
C874 C873 1.348 . S
C875 C871 1.415 . S
C875 C873 1.413 . S
C875 C905 1.437 . S
H876 C905 0.929 . S
N877 Gd850 2.570 . S
N877 C878 1.359 . S
N877 C881 1.343 . S
C878 C871 1.422 . S
C878 N877 1.359 . S
C878 C880 1.421 . S
C879 C880 1.422 . S
C879 C882 1.321 . S
C879 H906 0.931 . S
C880 C878 1.421 . S
C880 C879 1.422 . S
C880 C904 1.417 . S
C881 H858 0.931 . S
C881 N877 1.343 . S
C881 C882 1.390 . S
C882 H860 0.930 . S
C882 C879 1.321 . S
C882 C881 1.390 . S
O883 Gd851 2.386 . S
O883 C895 1.265 . S
O884 Gd850 2.353 . S
O884 C895 1.242 . S
O885 Gd850 2.468 . S
O885 C903 1.263 . S
O886 Gd850 2.427 . S
O886 C903 1.252 . S
O887 Gd851 2.307 . S
O887 C896 1.261 . S
O888 Gd850 2.388 . S
O888 C896 1.252 . S
O889 Gd850 2.386 . S
O889 C907 1.265 . S
O890 Gd851 2.353 . S
O890 C907 1.242 . S
O891 Gd851 2.468 . S
O891 C915 1.263 . S
O892 Gd851 2.427 . S
O892 C915 1.252 . S
O893 Gd850 2.307 . S
O893 C908 1.261 . S
O894 Gd851 2.388 . S
O894 C908 1.252 . S
C895 O883 1.265 . S
C895 O884 1.242 . S
C896 O887 1.261 . S
C896 O888 1.252 . S
C897 C900 1.394 . S
C897 C902 1.370 . S
C897 C903 1.500 . S
C898 C901 1.383 . S
C898 C902 1.395 . S
C899 C900 1.396 . S
C899 C901 1.365 . S
C899 H916 0.929 . S
C900 C897 1.394 . S
C900 C899 1.396 . S
C900 H917 0.930 . S
C901 C898 1.383 . S
C901 C899 1.365 . S
C901 H918 0.931 . S
C902 C897 1.370 . S
C902 C898 1.395 . S
C902 H919 0.930 . S
C903 Gd850 2.805 . S
C903 O885 1.263 . S
C903 O886 1.252 . S
C903 C897 1.500 . S
C904 H866 0.903 1_455 S
C904 C880 1.417 . S
C904 C905 1.329 . S
C905 C875 1.437 . S
C905 H876 0.929 . S
C905 C904 1.329 . S
H906 C879 0.931 . S
C907 O889 1.265 . S
C907 O890 1.242 . S
C908 O893 1.261 . S
C908 O894 1.252 . S
C909 C912 1.394 . S
C909 C914 1.370 . S
C909 C915 1.500 . S
C910 C913 1.383 . S
C910 C914 1.395 1_545 S
C911 C912 1.396 1_545 S
C911 C913 1.365 . S
C911 H920 0.929 . S
C912 C909 1.394 . S
C912 C911 1.396 1_565 S
C912 H921 0.930 . S
C913 C910 1.383 . S
C913 C911 1.365 . S
C913 H922 0.931 . S
C914 C909 1.370 . S
C914 C910 1.395 1_565 S
C914 H923 0.930 . S
C915 Gd851 2.805 . S
C915 O891 1.263 . S
C915 O892 1.252 . S
C915 C909 1.500 . S
H916 C899 0.929 . S
H917 C900 0.930 . S
H918 C901 0.931 . S
H919 C902 0.930 . S
H920 C911 0.929 . S
H921 C912 0.930 . S
H922 C913 0.931 . S
H923 C914 0.930 . S
C924 C926 1.422 . S
C924 C928 1.415 . S
C924 N930 1.369 . S
C925 C926 1.421 . S
C925 C927 1.417 . S
C925 C937 1.422 . S
C926 C924 1.422 . S
C926 C925 1.421 . S
C926 N936 1.359 . S
C927 C925 1.417 . S
C927 C929 1.329 . S
C927 H946 0.897 1_565 S
C928 C924 1.415 . S
C928 C929 1.437 . S
C928 C932 1.413 . S
C929 C927 1.329 . S
C929 C928 1.437 . S
C929 H951 0.929 . S
N930 C924 1.369 . S
N930 C931 1.338 . S
N930 Gd935 2.622 . S
C931 N930 1.338 . S
C931 C933 1.378 . S
C931 H943 0.929 . S
C932 C928 1.413 . S
C932 C933 1.348 . S
C932 H948 0.931 . S
C933 C931 1.378 . S
C933 C932 1.348 . S
C933 H949 0.930 . S
Gd934 N954 2.622 . S
Gd934 N961 2.570 . S
Gd934 O968 2.353 . S
Gd934 O969 2.468 . S
Gd934 O970 2.427 . S
Gd934 O972 2.388 . S
Gd934 O973 2.386 . S
Gd934 O977 2.307 . S
Gd934 C987 2.805 . S
Gd935 N930 2.622 . S
Gd935 N936 2.570 . S
Gd935 O967 2.386 . S
Gd935 O971 2.307 . S
Gd935 O974 2.353 . S
Gd935 O975 2.468 . S
Gd935 O976 2.427 . S
Gd935 O978 2.388 . S
Gd935 C999 2.805 . S
N936 C926 1.359 . S
N936 Gd935 2.570 . S
N936 C938 1.343 . S
C937 C925 1.422 . S
C937 C939 1.321 . S
C937 H945 0.931 . S
C938 N936 1.343 . S
C938 C939 1.390 . S
C938 H940 0.931 . S
C939 C937 1.321 . S
C939 C938 1.390 . S
C939 H941 0.930 . S
H940 C938 0.931 . S
H941 C939 0.930 . S
H942 C965 0.931 . S
H943 C931 0.929 . S
H944 C966 0.930 . S
H945 C937 0.931 . S
H946 C927 0.897 1_545 S
H947 C956 0.929 . S
H948 C932 0.931 . S
H949 C933 0.930 . S
H950 C988 0.930 . S
H951 C929 0.929 . S
H952 C957 0.931 . S
H953 C958 0.930 . S
N954 Gd934 2.622 . S
N954 C955 1.369 . S
N954 C956 1.338 . S
C955 N954 1.369 . S
C955 C959 1.415 . S
C955 C962 1.422 . S
C956 H947 0.929 . S
C956 N954 1.338 . S
C956 C958 1.378 . S
C957 H952 0.931 . S
C957 C958 1.348 . S
C957 C959 1.413 . S
C958 H953 0.930 . S
C958 C956 1.378 . S
C958 C957 1.348 . S
C959 C955 1.415 . S
C959 C957 1.413 . S
C959 C989 1.437 . S
H960 C989 0.929 . S
N961 Gd934 2.570 . S
N961 C962 1.359 . S
N961 C965 1.343 . S
C962 C955 1.422 . S
C962 N961 1.359 . S
C962 C964 1.421 . S
C963 C964 1.422 . S
C963 C966 1.321 . S
C963 H990 0.931 . S
C964 C962 1.421 . S
C964 C963 1.422 . S
C964 C988 1.417 . S
C965 H942 0.931 . S
C965 N961 1.343 . S
C965 C966 1.390 . S
C966 H944 0.930 . S
C966 C963 1.321 . S
C966 C965 1.390 . S
O967 Gd935 2.386 . S
O967 C979 1.265 . S
O968 Gd934 2.353 . S
O968 C979 1.242 . S
O969 Gd934 2.468 . S
O969 C987 1.263 . S
O970 Gd934 2.427 . S
O970 C987 1.252 . S
O971 Gd935 2.307 . S
O971 C980 1.261 . S
O972 Gd934 2.388 . S
O972 C980 1.252 . S
O973 Gd934 2.386 . S
O973 C991 1.265 . S
O974 Gd935 2.353 . S
O974 C991 1.242 . S
O975 Gd935 2.468 . S
O975 C999 1.263 . S
O976 Gd935 2.427 . S
O976 C999 1.252 . S
O977 Gd934 2.307 . S
O977 C992 1.261 . S
O978 Gd935 2.388 . S
O978 C992 1.252 . S
C979 O967 1.265 . S
C979 O968 1.242 . S
C980 O971 1.261 . S
C980 O972 1.252 . S
C981 C984 1.394 . S
C981 C986 1.370 . S
C981 C987 1.500 . S
C982 C985 1.383 . S
C982 C986 1.395 . S
C983 C984 1.396 . S
C983 C985 1.365 . S
C983 H1000 0.929 . S
C984 C981 1.394 . S
C984 C983 1.396 . S
C984 H1001 0.930 . S
C985 C982 1.383 . S
C985 C983 1.365 . S
C985 H1002 0.931 . S
C986 C981 1.370 . S
C986 C982 1.395 . S
C986 H1003 0.930 . S
C987 Gd934 2.805 . S
C987 O969 1.263 . S
C987 O970 1.252 . S
C987 C981 1.500 . S
C988 H950 0.930 . S
C988 C964 1.417 . S
C988 C989 1.329 . S
C989 C959 1.437 . S
C989 H960 0.929 . S
C989 C988 1.329 . S
H990 C963 0.931 . S
C991 O973 1.265 . S
C991 O974 1.242 . S
C992 O977 1.261 . S
C992 O978 1.252 . S
C993 C996 1.394 . S
C993 C998 1.370 . S
C993 C999 1.500 . S
C994 C997 1.383 . S
C994 C998 1.395 . S
C995 C996 1.396 . S
C995 C997 1.365 . S
C995 H1004 0.929 . S
C996 C993 1.394 . S
C996 C995 1.396 . S
C996 H1005 0.930 . S
C997 C994 1.383 . S
C997 C995 1.365 . S
C997 H1006 0.931 . S
C998 C993 1.370 . S
C998 C994 1.395 . S
C998 H1007 0.930 . S
C999 Gd935 2.805 . S
C999 O975 1.263 . S
C999 O976 1.252 . S
C999 C993 1.500 . S
H1000 C983 0.929 . S
H1001 C984 0.930 . S
H1002 C985 0.931 . S
H1003 C986 0.930 . S
H1004 C995 0.929 . S
H1005 C996 0.930 . S
H1006 C997 0.931 . S
H1007 C998 0.930 . S
C1008 C1009 1.349 . S
C1008 C1010 1.327 . S
C1008 H1033 0.950 . S
C1009 C1008 1.349 . S
C1009 C1025 1.349 . S
C1010 C1008 1.327 . S
C1010 C1029 1.429 . S
C1010 H1034 0.950 . S
C1011 C1028 1.574 . S
C1011 C1030 1.368 . S
C1011 H1035 0.949 . S
H1012 C1016 0.949 . S
C1013 C1014 1.349 . S
C1013 C1015 1.327 . S
C1013 H1036 0.950 . S
C1014 C1013 1.349 . S
C1014 C1026 1.349 . S
C1015 C1013 1.327 . S
C1015 C1031 1.429 . S
C1015 H1037 0.950 . S
C1016 H1012 0.949 . S
C1016 C1024 1.574 . S
C1016 C1032 1.368 . S
H1017 C1025 0.950 . S
H1018 C1023 0.950 . S
H1019 C1024 0.949 . S
H1020 C1026 0.950 . S
H1021 C1027 0.950 . S
H1022 C1028 0.949 . S
C1023 H1018 0.950 . S
C1023 C1025 1.327 . S
C1023 C1029 1.429 . S
C1024 C1016 1.574 . S
C1024 H1019 0.949 . S
C1024 C1030 1.368 . S
C1025 C1009 1.349 . S
C1025 H1017 0.950 . S
C1025 C1023 1.327 . S
C1026 C1014 1.349 . S
C1026 H1020 0.950 . S
C1026 C1027 1.327 . S
C1027 H1021 0.950 . S
C1027 C1026 1.327 . S
C1027 C1031 1.429 . S
C1028 C1011 1.574 . S
C1028 H1022 0.949 . S
C1028 C1032 1.368 . S
C1029 C1010 1.429 . S
C1029 C1023 1.429 . S
C1029 C1030 1.523 . S
C1030 C1011 1.368 . S
C1030 C1024 1.368 . S
C1030 C1029 1.523 . S
C1031 C1015 1.429 . S
C1031 C1027 1.429 . S
C1031 C1032 1.523 . S
C1032 C1016 1.368 . S
C1032 C1028 1.368 . S
C1032 C1031 1.523 . S
H1033 C1008 0.950 . S
H1034 C1010 0.950 . S
H1035 C1011 0.949 . S
H1036 C1013 0.950 . S
H1037 C1015 0.950 . S
C1038 C1039 1.349 . S
C1038 C1040 1.327 . S
C1038 H1063 0.950 . S
C1039 C1038 1.349 . S
C1039 C1055 1.349 . S
C1040 C1038 1.327 . S
C1040 C1059 1.429 . S
C1040 H1064 0.950 . S
C1041 C1058 1.598 . S
C1041 C1060 1.368 . S
C1041 H1065 0.949 . S
H1042 C1046 0.949 . S
C1043 C1044 1.349 . S
C1043 C1045 1.327 . S
C1043 H1066 0.950 . S
C1044 C1043 1.349 . S
C1044 C1056 1.349 . S
C1045 C1043 1.327 . S
C1045 C1061 1.429 . S
C1045 H1067 0.950 . S
C1046 H1042 0.949 . S
C1046 C1054 1.574 . S
C1046 C1062 1.368 1_455 S
H1047 C1055 0.950 . S
H1048 C1053 0.950 . S
H1049 C1054 0.949 . S
H1050 C1056 0.950 . S
H1051 C1057 0.950 . S
H1052 C1058 0.921 1_655 S
C1053 H1048 0.950 . S
C1053 C1055 1.327 . S
C1053 C1059 1.429 . S
C1054 C1046 1.574 . S
C1054 H1049 0.949 . S
C1054 C1060 1.368 . S
C1055 C1039 1.349 . S
C1055 H1047 0.950 . S
C1055 C1053 1.327 . S
C1056 C1044 1.349 . S
C1056 H1050 0.950 . S
C1056 C1057 1.327 . S
C1057 H1051 0.950 . S
C1057 C1056 1.327 . S
C1057 C1061 1.429 . S
C1058 C1041 1.598 . S
C1058 H1052 0.921 1_455 S
C1058 C1062 1.377 1_455 S
C1059 C1040 1.429 . S
C1059 C1053 1.429 . S
C1059 C1060 1.523 . S
C1060 C1041 1.368 . S
C1060 C1054 1.368 . S
C1060 C1059 1.523 . S
C1061 C1045 1.429 . S
C1061 C1057 1.429 . S
C1061 C1062 1.523 . S
C1062 C1046 1.368 1_655 S
C1062 C1058 1.377 1_655 S
C1062 C1061 1.523 . S
H1063 C1038 0.950 . S
H1064 C1040 0.950 . S
H1065 C1041 0.949 . S
H1066 C1043 0.950 . S
H1067 C1045 0.950 . S
C1068 C1069 1.349 . S
C1068 C1070 1.327 . S
C1068 H1093 0.950 . S
C1069 C1068 1.349 . S
C1069 C1085 1.349 . S
C1070 C1068 1.327 . S
C1070 C1089 1.429 . S
C1070 H1094 0.950 . S
C1071 C1088 1.574 1_545 S
C1071 C1090 1.368 . S
C1071 H1095 0.949 . S
H1072 C1076 0.949 . S
C1073 C1074 1.349 . S
C1073 C1075 1.327 . S
C1073 H1096 0.950 . S
C1074 C1073 1.349 . S
C1074 C1086 1.349 . S
C1075 C1073 1.327 . S
C1075 C1091 1.429 . S
C1075 H1097 0.950 . S
C1076 H1072 0.949 . S
C1076 C1084 1.574 . S
C1076 C1092 1.368 . S
H1077 C1085 0.950 . S
H1078 C1083 0.950 . S
H1079 C1084 0.949 . S
H1080 C1086 0.950 . S
H1081 C1087 0.950 . S
H1082 C1088 0.949 . S
C1083 H1078 0.950 . S
C1083 C1085 1.327 . S
C1083 C1089 1.429 . S
C1084 C1076 1.574 . S
C1084 H1079 0.949 . S
C1084 C1090 1.368 1_565 S
C1085 C1069 1.349 . S
C1085 H1077 0.950 . S
C1085 C1083 1.327 . S
C1086 C1074 1.349 . S
C1086 H1080 0.950 . S
C1086 C1087 1.327 . S
C1087 H1081 0.950 . S
C1087 C1086 1.327 . S
C1087 C1091 1.429 . S
C1088 C1071 1.574 1_565 S
C1088 H1082 0.949 . S
C1088 C1092 1.368 . S
C1089 C1070 1.429 . S
C1089 C1083 1.429 . S
C1089 C1090 1.523 . S
C1090 C1071 1.368 . S
C1090 C1084 1.368 1_545 S
C1090 C1089 1.523 . S
C1091 C1075 1.429 . S
C1091 C1087 1.429 . S
C1091 C1092 1.523 . S
C1092 C1076 1.368 . S
C1092 C1088 1.368 . S
C1092 C1091 1.523 . S
H1093 C1068 0.950 . S
H1094 C1070 0.950 . S
H1095 C1071 0.949 . S
H1096 C1073 0.950 . S
H1097 C1075 0.950 . S
C1098 C1099 1.349 . S
C1098 C1100 1.327 . S
C1098 H1123 0.950 . S
C1099 C1098 1.349 . S
C1099 C1115 1.349 . S
C1100 C1098 1.327 . S
C1100 C1119 1.429 . S
C1100 H1124 0.950 . S
C1101 C1118 1.574 . S
C1101 C1120 1.368 . S
C1101 H1125 0.949 . S
H1102 C1106 0.949 . S
C1103 C1104 1.349 . S
C1103 C1105 1.327 . S
C1103 H1126 0.950 . S
C1104 C1103 1.349 . S
C1104 C1116 1.349 . S
C1105 C1103 1.327 . S
C1105 C1121 1.429 . S
C1105 H1127 0.950 . S
C1106 H1102 0.949 . S
C1106 C1114 1.574 . S
C1106 C1122 1.368 . S
H1107 C1115 0.950 . S
H1108 C1113 0.950 . S
H1109 C1114 0.949 . S
H1110 C1116 0.950 . S
H1111 C1117 0.950 . S
H1112 C1118 0.949 . S
C1113 H1108 0.950 . S
C1113 C1115 1.327 . S
C1113 C1119 1.429 . S
C1114 C1106 1.574 . S
C1114 H1109 0.949 . S
C1114 C1120 1.368 . S
C1115 C1099 1.349 . S
C1115 H1107 0.950 . S
C1115 C1113 1.327 . S
C1116 C1104 1.349 . S
C1116 H1110 0.950 . S
C1116 C1117 1.327 . S
C1117 H1111 0.950 . S
C1117 C1116 1.327 . S
C1117 C1121 1.429 . S
C1118 C1101 1.574 . S
C1118 H1112 0.949 . S
C1118 C1122 1.368 . S
C1119 C1100 1.429 . S
C1119 C1113 1.429 . S
C1119 C1120 1.523 . S
C1120 C1101 1.368 . S
C1120 C1114 1.368 . S
C1120 C1119 1.523 . S
C1121 C1105 1.429 . S
C1121 C1117 1.429 . S
C1121 C1122 1.523 . S
C1122 C1106 1.368 . S
C1122 C1118 1.368 . S
C1122 C1121 1.523 . S
H1123 C1098 0.950 . S
H1124 C1100 0.950 . S
H1125 C1101 0.949 . S
H1126 C1103 0.950 . S
H1127 C1105 0.950 . S
C1128 C1129 1.349 . S
C1128 C1130 1.327 . S
C1128 H1153 0.950 . S
C1129 C1128 1.349 . S
C1129 C1145 1.349 . S
C1130 C1128 1.327 . S
C1130 C1149 1.429 . S
C1130 H1154 0.950 . S
C1131 C1148 1.574 . S
C1131 C1150 1.368 . S
C1131 H1155 0.949 . S
H1132 C1136 0.949 1_655 S
C1133 C1134 1.349 . S
C1133 C1135 1.327 . S
C1133 H1156 0.950 . S
C1134 C1133 1.349 . S
C1134 C1146 1.349 . S
C1135 C1133 1.327 . S
C1135 C1151 1.429 . S
C1135 H1157 0.950 . S
C1136 H1132 0.949 1_455 S
C1136 C1144 1.574 . S
C1136 C1152 1.368 1_455 S
H1137 C1145 0.950 . S
H1138 C1143 0.950 . S
H1139 C1144 0.949 . S
H1140 C1146 0.950 . S
H1141 C1147 0.950 . S
H1142 C1148 0.949 . S
C1143 H1138 0.950 . S
C1143 C1145 1.327 . S
C1143 C1149 1.429 . S
C1144 C1136 1.574 . S
C1144 H1139 0.949 . S
C1144 C1150 1.368 . S
C1145 C1129 1.349 . S
C1145 H1137 0.950 . S
C1145 C1143 1.327 . S
C1146 C1134 1.349 . S
C1146 H1140 0.950 . S
C1146 C1147 1.327 . S
C1147 H1141 0.950 . S
C1147 C1146 1.327 . S
C1147 C1151 1.429 . S
C1148 C1131 1.574 . S
C1148 H1142 0.949 . S
C1148 C1152 1.368 1_455 S
C1149 C1130 1.429 . S
C1149 C1143 1.429 . S
C1149 C1150 1.523 . S
C1150 C1131 1.368 . S
C1150 C1144 1.368 . S
C1150 C1149 1.523 . S
C1151 C1135 1.429 . S
C1151 C1147 1.429 . S
C1151 C1152 1.523 . S
C1152 C1136 1.368 1_655 S
C1152 C1148 1.368 1_655 S
C1152 C1151 1.523 . S
H1153 C1128 0.950 . S
H1154 C1130 0.950 . S
H1155 C1131 0.949 . S
H1156 C1133 0.950 . S
H1157 C1135 0.950 . S
C1158 C1159 1.349 . S
C1158 C1160 1.327 . S
C1158 H1183 0.950 . S
C1159 C1158 1.349 . S
C1159 C1175 1.349 . S
C1160 C1158 1.327 . S
C1160 C1179 1.429 . S
C1160 H1184 0.950 . S
C1161 C1178 1.557 1_565 S
C1161 C1180 1.368 . S
C1161 H1185 0.949 . S
H1162 C1166 0.949 . S
C1163 C1164 1.349 . S
C1163 C1165 1.327 . S
C1163 H1186 0.950 . S
C1164 C1163 1.349 . S
C1164 C1176 1.349 . S
C1165 C1163 1.327 . S
C1165 C1181 1.429 . S
C1165 H1187 0.950 . S
C1166 H1162 0.949 . S
C1166 C1174 1.574 . S
C1166 C1182 1.368 1_565 S
H1167 C1175 0.950 . S
H1168 C1173 0.950 . S
H1169 C1174 0.949 . S
H1170 C1176 0.950 . S
H1171 C1177 0.950 . S
H1172 C1178 0.958 . S
C1173 H1168 0.950 . S
C1173 C1175 1.327 . S
C1173 C1179 1.429 . S
C1174 C1166 1.574 . S
C1174 H1169 0.949 . S
C1174 C1180 1.368 . S
C1175 C1159 1.349 . S
C1175 H1167 0.950 . S
C1175 C1173 1.327 . S
C1176 C1164 1.349 . S
C1176 H1170 0.950 . S
C1176 C1177 1.327 . S
C1177 H1171 0.950 . S
C1177 C1176 1.327 . S
C1177 C1181 1.429 . S
C1178 C1161 1.557 1_545 S
C1178 H1172 0.958 . S
C1178 C1182 1.375 . S
C1179 C1160 1.429 . S
C1179 C1173 1.429 . S
C1179 C1180 1.523 . S
C1180 C1161 1.368 . S
C1180 C1174 1.368 . S
C1180 C1179 1.523 . S
C1181 C1165 1.429 . S
C1181 C1177 1.429 . S
C1181 C1182 1.523 . S
C1182 C1166 1.368 1_545 S
C1182 C1178 1.375 . S
C1182 C1181 1.523 . S
H1183 C1158 0.950 . S
H1184 C1160 0.950 . S
H1185 C1161 0.949 . S
H1186 C1163 0.950 . S
H1187 C1165 0.950 . S
C1188 C1189 1.349 . S
C1188 C1190 1.327 . S
C1188 H1213 0.950 . S
C1189 C1188 1.349 . S
C1189 C1205 1.349 . S
C1190 C1188 1.327 . S
C1190 C1209 1.429 . S
C1190 H1214 0.950 . S
C1191 C1208 1.574 . S
C1191 C1210 1.368 . S
C1191 H1215 0.949 . S
H1192 C1196 0.949 . S
C1193 C1194 1.349 . S
C1193 C1195 1.327 . S
C1193 H1216 0.950 . S
C1194 C1193 1.349 . S
C1194 C1206 1.349 . S
C1195 C1193 1.327 . S
C1195 C1211 1.429 . S
C1195 H1217 0.950 . S
C1196 H1192 0.949 . S
C1196 C1204 1.574 . S
C1196 C1212 1.368 . S
H1197 C1205 0.950 . S
H1198 C1203 0.950 . S
H1199 C1204 0.949 . S
H1200 C1206 0.950 . S
H1201 C1207 0.950 . S
H1202 C1208 0.949 . S
C1203 H1198 0.950 . S
C1203 C1205 1.327 . S
C1203 C1209 1.429 . S
C1204 C1196 1.574 . S
C1204 H1199 0.949 . S
C1204 C1210 1.368 . S
C1205 C1189 1.349 . S
C1205 H1197 0.950 . S
C1205 C1203 1.327 . S
C1206 C1194 1.349 . S
C1206 H1200 0.950 . S
C1206 C1207 1.327 . S
C1207 H1201 0.950 . S
C1207 C1206 1.327 . S
C1207 C1211 1.429 . S
C1208 C1191 1.574 . S
C1208 H1202 0.949 . S
C1208 C1212 1.368 . S
C1209 C1190 1.429 . S
C1209 C1203 1.429 . S
C1209 C1210 1.523 . S
C1210 C1191 1.368 . S
C1210 C1204 1.368 . S
C1210 C1209 1.523 . S
C1211 C1195 1.429 . S
C1211 C1207 1.429 . S
C1211 C1212 1.523 . S
C1212 C1196 1.368 . S
C1212 C1208 1.368 . S
C1212 C1211 1.523 . S
H1213 C1188 0.950 . S
H1214 C1190 0.950 . S
H1215 C1191 0.949 . S
H1216 C1193 0.950 . S
H1217 C1195 0.950 . S
C1218 C1219 1.349 . S
C1218 C1220 1.327 . S
C1218 H1243 0.950 . S
C1219 C1218 1.349 . S
C1219 C1235 1.349 . S
C1220 C1218 1.327 . S
C1220 C1239 1.429 . S
C1220 H1244 0.950 . S
C1221 C1238 1.574 . S
C1221 C1240 1.368 1_655 S
C1221 H1245 0.949 . S
H1222 C1226 0.949 . S
C1223 C1224 1.349 . S
C1223 C1225 1.327 . S
C1223 H1246 0.950 . S
C1224 C1223 1.349 . S
C1224 C1236 1.349 . S
C1225 C1223 1.327 . S
C1225 C1241 1.429 . S
C1225 H1247 0.950 . S
C1226 H1222 0.949 . S
C1226 C1234 1.574 . S
C1226 C1242 1.368 . S
H1227 C1235 0.950 . S
H1228 C1233 0.950 . S
H1229 C1234 0.949 1_455 S
H1230 C1236 0.950 . S
H1231 C1237 0.950 . S
H1232 C1238 0.949 . S
C1233 H1228 0.950 . S
C1233 C1235 1.327 . S
C1233 C1239 1.429 . S
C1234 C1226 1.574 . S
C1234 H1229 0.949 1_655 S
C1234 C1240 1.368 1_655 S
C1235 C1219 1.349 . S
C1235 H1227 0.950 . S
C1235 C1233 1.327 . S
C1236 C1224 1.349 . S
C1236 H1230 0.950 . S
C1236 C1237 1.327 . S
C1237 H1231 0.950 . S
C1237 C1236 1.327 . S
C1237 C1241 1.429 . S
C1238 C1221 1.574 . S
C1238 H1232 0.949 . S
C1238 C1242 1.368 . S
C1239 C1220 1.429 . S
C1239 C1233 1.429 . S
C1239 C1240 1.523 . S
C1240 C1221 1.368 1_455 S
C1240 C1234 1.368 1_455 S
C1240 C1239 1.523 . S
C1241 C1225 1.429 . S
C1241 C1237 1.429 . S
C1241 C1242 1.523 . S
C1242 C1226 1.368 . S
C1242 C1238 1.368 . S
C1242 C1241 1.523 . S
H1243 C1218 0.950 . S
H1244 C1220 0.950 . S
H1245 C1221 0.949 . S
H1246 C1223 0.950 . S
H1247 C1225 0.950 . S
C1248 C1249 1.349 . S
C1248 C1250 1.327 . S
C1248 H1273 0.950 . S
C1249 C1248 1.349 . S
C1249 C1265 1.349 . S
C1250 C1248 1.327 . S
C1250 C1269 1.429 . S
C1250 H1274 0.950 . S
C1251 C1268 1.574 . S
C1251 C1270 1.368 1_545 S
C1251 H1275 0.949 . S
H1252 C1256 0.949 . S
C1253 C1254 1.349 . S
C1253 C1255 1.327 . S
C1253 H1276 0.950 . S
C1254 C1253 1.349 . S
C1254 C1266 1.349 . S
C1255 C1253 1.327 . S
C1255 C1271 1.429 . S
C1255 H1277 0.950 . S
C1256 H1252 0.949 . S
C1256 C1264 1.574 . S
C1256 C1272 1.368 . S
H1257 C1265 0.950 . S
H1258 C1263 0.950 . S
H1259 C1264 0.949 1_565 S
H1260 C1266 0.950 . S
H1261 C1267 0.950 . S
H1262 C1268 0.949 . S
C1263 H1258 0.950 . S
C1263 C1265 1.327 . S
C1263 C1269 1.429 . S
C1264 C1256 1.574 . S
C1264 H1259 0.949 1_545 S
C1264 C1270 1.368 1_545 S
C1265 C1249 1.349 . S
C1265 H1257 0.950 . S
C1265 C1263 1.327 . S
C1266 C1254 1.349 . S
C1266 H1260 0.950 . S
C1266 C1267 1.327 . S
C1267 H1261 0.950 . S
C1267 C1266 1.327 . S
C1267 C1271 1.429 . S
C1268 C1251 1.574 . S
C1268 H1262 0.949 . S
C1268 C1272 1.368 . S
C1269 C1250 1.429 . S
C1269 C1263 1.429 . S
C1269 C1270 1.523 . S
C1270 C1251 1.368 1_565 S
C1270 C1264 1.368 1_565 S
C1270 C1269 1.523 . S
C1271 C1255 1.429 . S
C1271 C1267 1.429 . S
C1271 C1272 1.523 . S
C1272 C1256 1.368 . S
C1272 C1268 1.368 . S
C1272 C1271 1.523 . S
H1273 C1248 0.950 . S
H1274 C1250 0.950 . S
H1275 C1251 0.949 . S
H1276 C1253 0.950 . S
H1277 C1255 0.950 . S
C1278 C1279 1.349 . S
C1278 C1280 1.327 . S
C1278 H1303 0.950 . S
C1279 C1278 1.349 . S
C1279 C1295 1.349 . S
C1280 C1278 1.327 . S
C1280 C1299 1.429 . S
C1280 H1304 0.950 . S
C1281 C1298 1.574 . S
C1281 C1300 1.368 . S
C1281 H1305 0.949 . S
H1282 C1286 0.949 . S
C1283 C1284 1.349 . S
C1283 C1285 1.327 . S
C1283 H1306 0.950 . S
C1284 C1283 1.349 . S
C1284 C1296 1.349 . S
C1285 C1283 1.327 . S
C1285 C1301 1.429 . S
C1285 H1307 0.950 . S
C1286 H1282 0.949 . S
C1286 C1294 1.574 . S
C1286 C1302 1.368 . S
H1287 C1295 0.950 . S
H1288 C1293 0.950 . S
H1289 C1294 0.949 . S
H1290 C1296 0.950 . S
H1291 C1297 0.950 . S
H1292 C1298 0.949 . S
C1293 H1288 0.950 . S
C1293 C1295 1.327 . S
C1293 C1299 1.429 . S
C1294 C1286 1.574 . S
C1294 H1289 0.949 . S
C1294 C1300 1.368 . S
C1295 C1279 1.349 . S
C1295 H1287 0.950 . S
C1295 C1293 1.327 . S
C1296 C1284 1.349 . S
C1296 H1290 0.950 . S
C1296 C1297 1.327 . S
C1297 H1291 0.950 . S
C1297 C1296 1.327 . S
C1297 C1301 1.429 . S
C1298 C1281 1.574 . S
C1298 H1292 0.949 . S
C1298 C1302 1.368 . S
C1299 C1280 1.429 . S
C1299 C1293 1.429 . S
C1299 C1300 1.523 . S
C1300 C1281 1.368 . S
C1300 C1294 1.368 . S
C1300 C1299 1.523 . S
C1301 C1285 1.429 . S
C1301 C1297 1.429 . S
C1301 C1302 1.523 . S
C1302 C1286 1.368 . S
C1302 C1298 1.368 . S
C1302 C1301 1.523 . S
H1303 C1278 0.950 . S
H1304 C1280 0.950 . S
H1305 C1281 0.949 . S
H1306 C1283 0.950 . S
H1307 C1285 0.950 . S
C1308 C1309 1.349 . S
C1308 C1310 1.327 . S
C1308 H1333 0.950 . S
C1309 C1308 1.349 . S
C1309 C1325 1.349 . S
C1310 C1308 1.327 . S
C1310 C1329 1.429 . S
C1310 H1334 0.950 . S
C1311 C1328 1.574 . S
C1311 C1330 1.368 1_655 S
C1311 H1335 0.949 1_655 S
H1312 C1316 0.949 . S
C1313 C1314 1.349 . S
C1313 C1315 1.327 . S
C1313 H1336 0.950 . S
C1314 C1313 1.349 . S
C1314 C1326 1.349 . S
C1315 C1313 1.327 . S
C1315 C1331 1.429 . S
C1315 H1337 0.950 . S
C1316 H1312 0.949 . S
C1316 C1324 1.574 . S
C1316 C1332 1.368 . S
H1317 C1325 0.950 . S
H1318 C1323 0.950 . S
H1319 C1324 0.949 . S
H1320 C1326 0.950 . S
H1321 C1327 0.950 . S
H1322 C1328 0.949 . S
C1323 H1318 0.950 . S
C1323 C1325 1.327 . S
C1323 C1329 1.429 . S
C1324 C1316 1.574 . S
C1324 H1319 0.949 . S
C1324 C1330 1.368 1_655 S
C1325 C1309 1.349 . S
C1325 H1317 0.950 . S
C1325 C1323 1.327 . S
C1326 C1314 1.349 . S
C1326 H1320 0.950 . S
C1326 C1327 1.327 . S
C1327 H1321 0.950 . S
C1327 C1326 1.327 . S
C1327 C1331 1.429 . S
C1328 C1311 1.574 . S
C1328 H1322 0.949 . S
C1328 C1332 1.368 . S
C1329 C1310 1.429 . S
C1329 C1323 1.429 . S
C1329 C1330 1.523 . S
C1330 C1311 1.368 1_455 S
C1330 C1324 1.368 1_455 S
C1330 C1329 1.523 . S
C1331 C1315 1.429 . S
C1331 C1327 1.429 . S
C1331 C1332 1.523 . S
C1332 C1316 1.368 . S
C1332 C1328 1.368 . S
C1332 C1331 1.523 . S
H1333 C1308 0.950 . S
H1334 C1310 0.950 . S
H1335 C1311 0.949 1_455 S
H1336 C1313 0.950 . S
H1337 C1315 0.950 . S
C1338 C1339 1.349 . S
C1338 C1340 1.327 . S
C1338 H1363 0.950 . S
C1339 C1338 1.349 . S
C1339 C1355 1.349 . S
C1340 C1338 1.327 . S
C1340 C1359 1.429 . S
C1340 H1364 0.950 . S
C1341 C1358 1.574 . S
C1341 C1360 1.368 . S
C1341 H1365 0.949 . S
H1342 C1346 0.919 1_565 S
C1343 C1344 1.349 . S
C1343 C1345 1.327 . S
C1343 H1366 0.950 . S
C1344 C1343 1.349 . S
C1344 C1356 1.349 . S
C1345 C1343 1.327 . S
C1345 C1361 1.429 . S
C1345 H1367 0.950 . S
C1346 H1342 0.919 1_545 S
C1346 C1354 1.597 . S
C1346 C1362 1.380 1_545 S
H1347 C1355 0.950 . S
H1348 C1353 0.950 . S
H1349 C1354 0.949 . S
H1350 C1356 0.950 . S
H1351 C1357 0.950 . S
H1352 C1358 0.949 . S
C1353 H1348 0.950 . S
C1353 C1355 1.327 . S
C1353 C1359 1.429 . S
C1354 C1346 1.597 . S
C1354 H1349 0.949 . S
C1354 C1360 1.368 . S
C1355 C1339 1.349 . S
C1355 H1347 0.950 . S
C1355 C1353 1.327 . S
C1356 C1344 1.349 . S
C1356 H1350 0.950 . S
C1356 C1357 1.327 . S
C1357 H1351 0.950 . S
C1357 C1356 1.327 . S
C1357 C1361 1.429 . S
C1358 C1341 1.574 . S
C1358 H1352 0.949 . S
C1358 C1362 1.368 1_545 S
C1359 C1340 1.429 . S
C1359 C1353 1.429 . S
C1359 C1360 1.523 . S
C1360 C1341 1.368 . S
C1360 C1354 1.368 . S
C1360 C1359 1.523 . S
C1361 C1345 1.429 . S
C1361 C1357 1.429 . S
C1361 C1362 1.523 . S
C1362 C1346 1.380 1_565 S
C1362 C1358 1.368 1_565 S
C1362 C1361 1.523 . S
H1363 C1338 0.950 . S
H1364 C1340 0.950 . S
H1365 C1341 0.949 . S
H1366 C1343 0.950 . S
H1367 C1345 0.950 . S
C1368 C1369 1.349 . S
C1368 C1370 1.327 . S
C1368 H1393 0.950 . S
C1369 C1368 1.349 . S
C1369 C1385 1.349 . S
C1370 C1368 1.327 . S
C1370 C1389 1.429 . S
C1370 H1394 0.950 . S
C1371 C1388 1.574 . S
C1371 C1390 1.368 . S
C1371 H1395 0.949 . S
H1372 C1376 0.949 . S
C1373 C1374 1.349 . S
C1373 C1375 1.327 . S
C1373 H1396 0.950 . S
C1374 C1373 1.349 . S
C1374 C1386 1.349 . S
C1375 C1373 1.327 . S
C1375 C1391 1.429 . S
C1375 H1397 0.950 . S
C1376 H1372 0.949 . S
C1376 C1384 1.574 . S
C1376 C1392 1.368 . S
H1377 C1385 0.950 . S
H1378 C1383 0.950 . S
H1379 C1384 0.949 . S
H1380 C1386 0.950 . S
H1381 C1387 0.950 . S
H1382 C1388 0.949 . S
C1383 H1378 0.950 . S
C1383 C1385 1.327 . S
C1383 C1389 1.429 . S
C1384 C1376 1.574 . S
C1384 H1379 0.949 . S
C1384 C1390 1.368 . S
C1385 C1369 1.349 . S
C1385 H1377 0.950 . S
C1385 C1383 1.327 . S
C1386 C1374 1.349 . S
C1386 H1380 0.950 . S
C1386 C1387 1.327 . S
C1387 H1381 0.950 . S
C1387 C1386 1.327 . S
C1387 C1391 1.429 . S
C1388 C1371 1.574 . S
C1388 H1382 0.949 . S
C1388 C1392 1.368 . S
C1389 C1370 1.429 . S
C1389 C1383 1.429 . S
C1389 C1390 1.523 . S
C1390 C1371 1.368 . S
C1390 C1384 1.368 . S
C1390 C1389 1.523 . S
C1391 C1375 1.429 . S
C1391 C1387 1.429 . S
C1391 C1392 1.523 . S
C1392 C1376 1.368 . S
C1392 C1388 1.368 . S
C1392 C1391 1.523 . S
H1393 C1368 0.950 . S
H1394 C1370 0.950 . S
H1395 C1371 0.949 . S
H1396 C1373 0.950 . S
H1397 C1375 0.950 . S
C1398 C1399 1.349 . S
C1398 C1400 1.327 . S
C1398 H1423 0.950 . S
C1399 C1398 1.349 . S
C1399 C1415 1.349 . S
C1400 C1398 1.327 . S
C1400 C1419 1.429 . S
C1400 H1424 0.950 . S
C1401 C1418 1.574 . S
C1401 C1420 1.368 . S
C1401 H1425 0.949 . S
H1402 C1406 0.949 . S
C1403 C1404 1.349 . S
C1403 C1405 1.327 . S
C1403 H1426 0.950 . S
C1404 C1403 1.349 . S
C1404 C1416 1.349 . S
C1405 C1403 1.327 . S
C1405 C1421 1.429 . S
C1405 H1427 0.950 . S
C1406 H1402 0.949 . S
C1406 C1414 1.574 . S
C1406 C1422 1.368 . S
H1407 C1415 0.950 . S
H1408 C1413 0.950 . S
H1409 C1414 0.949 . S
H1410 C1416 0.950 . S
H1411 C1417 0.950 . S
H1412 C1418 0.949 . S
C1413 H1408 0.950 . S
C1413 C1415 1.327 . S
C1413 C1419 1.429 . S
C1414 C1406 1.574 . S
C1414 H1409 0.949 . S
C1414 C1420 1.368 . S
C1415 C1399 1.349 . S
C1415 H1407 0.950 . S
C1415 C1413 1.327 . S
C1416 C1404 1.349 . S
C1416 H1410 0.950 . S
C1416 C1417 1.327 . S
C1417 H1411 0.950 . S
C1417 C1416 1.327 . S
C1417 C1421 1.429 . S
C1418 C1401 1.574 . S
C1418 H1412 0.949 . S
C1418 C1422 1.368 . S
C1419 C1400 1.429 . S
C1419 C1413 1.429 . S
C1419 C1420 1.523 . S
C1420 C1401 1.368 . S
C1420 C1414 1.368 . S
C1420 C1419 1.523 . S
C1421 C1405 1.429 . S
C1421 C1417 1.429 . S
C1421 C1422 1.523 . S
C1422 C1406 1.368 . S
C1422 C1418 1.368 . S
C1422 C1421 1.523 . S
H1423 C1398 0.950 . S
H1424 C1400 0.950 . S
H1425 C1401 0.949 . S
H1426 C1403 0.950 . S
H1427 C1405 0.950 . S
C1428 C1429 1.349 . S
C1428 C1430 1.327 . S
C1428 H1453 0.950 . S
C1429 C1428 1.349 . S
C1429 C1445 1.349 . S
C1430 C1428 1.327 . S
C1430 C1449 1.429 . S
C1430 H1454 0.950 . S
C1431 C1448 1.574 . S
C1431 C1450 1.368 . S
C1431 H1455 0.949 . S
H1432 C1436 0.949 . S
C1433 C1434 1.349 . S
C1433 C1435 1.327 . S
C1433 H1456 0.950 . S
C1434 C1433 1.349 . S
C1434 C1446 1.349 . S
C1435 C1433 1.327 . S
C1435 C1451 1.429 . S
C1435 H1457 0.950 . S
C1436 H1432 0.949 . S
C1436 C1444 1.574 . S
C1436 C1452 1.368 . S
H1437 C1445 0.950 . S
H1438 C1443 0.950 . S
H1439 C1444 0.949 . S
H1440 C1446 0.950 . S
H1441 C1447 0.950 . S
H1442 C1448 0.949 . S
C1443 H1438 0.950 . S
C1443 C1445 1.327 . S
C1443 C1449 1.429 . S
C1444 C1436 1.574 . S
C1444 H1439 0.949 . S
C1444 C1450 1.368 . S
C1445 C1429 1.349 . S
C1445 H1437 0.950 . S
C1445 C1443 1.327 . S
C1446 C1434 1.349 . S
C1446 H1440 0.950 . S
C1446 C1447 1.327 . S
C1447 H1441 0.950 . S
C1447 C1446 1.327 . S
C1447 C1451 1.429 . S
C1448 C1431 1.574 . S
C1448 H1442 0.949 . S
C1448 C1452 1.368 . S
C1449 C1430 1.429 . S
C1449 C1443 1.429 . S
C1449 C1450 1.523 . S
C1450 C1431 1.368 . S
C1450 C1444 1.368 . S
C1450 C1449 1.523 . S
C1451 C1435 1.429 . S
C1451 C1447 1.429 . S
C1451 C1452 1.523 . S
C1452 C1436 1.368 . S
C1452 C1448 1.368 . S
C1452 C1451 1.523 . S
H1453 C1428 0.950 . S
H1454 C1430 0.950 . S
H1455 C1431 0.949 . S
H1456 C1433 0.950 . S
H1457 C1435 0.950 . S
C1458 C1459 1.349 . S
C1458 C1460 1.327 . S
C1458 H1483 0.950 . S
C1459 C1458 1.349 . S
C1459 C1475 1.349 . S
C1460 C1458 1.327 . S
C1460 C1479 1.429 . S
C1460 H1484 0.950 . S
C1461 C1478 1.574 . S
C1461 C1480 1.368 . S
C1461 H1485 0.949 . S
H1462 C1466 0.949 . S
C1463 C1464 1.349 . S
C1463 C1465 1.327 . S
C1463 H1486 0.950 . S
C1464 C1463 1.349 . S
C1464 C1476 1.349 . S
C1465 C1463 1.327 . S
C1465 C1481 1.429 . S
C1465 H1487 0.950 . S
C1466 H1462 0.949 . S
C1466 C1474 1.574 . S
C1466 C1482 1.368 . S
H1467 C1475 0.950 . S
H1468 C1473 0.950 . S
H1469 C1474 0.949 . S
H1470 C1476 0.950 . S
H1471 C1477 0.950 . S
H1472 C1478 0.949 . S
C1473 H1468 0.950 . S
C1473 C1475 1.327 . S
C1473 C1479 1.429 . S
C1474 C1466 1.574 . S
C1474 H1469 0.949 . S
C1474 C1480 1.368 . S
C1475 C1459 1.349 . S
C1475 H1467 0.950 . S
C1475 C1473 1.327 . S
C1476 C1464 1.349 . S
C1476 H1470 0.950 . S
C1476 C1477 1.327 . S
C1477 H1471 0.950 . S
C1477 C1476 1.327 . S
C1477 C1481 1.429 . S
C1478 C1461 1.574 . S
C1478 H1472 0.949 . S
C1478 C1482 1.368 . S
C1479 C1460 1.429 . S
C1479 C1473 1.429 . S
C1479 C1480 1.523 . S
C1480 C1461 1.368 . S
C1480 C1474 1.368 . S
C1480 C1479 1.523 . S
C1481 C1465 1.429 . S
C1481 C1477 1.429 . S
C1481 C1482 1.523 . S
C1482 C1466 1.368 . S
C1482 C1478 1.368 . S
C1482 C1481 1.523 . S
H1483 C1458 0.950 . S
H1484 C1460 0.950 . S
H1485 C1461 0.949 . S
H1486 C1463 0.950 . S
H1487 C1465 0.950 . S
C1488 C1489 1.349 . S
C1488 C1490 1.327 . S
C1488 H1513 0.950 . S
C1489 C1488 1.349 . S
C1489 C1505 1.349 . S
C1490 C1488 1.327 . S
C1490 C1509 1.429 . S
C1490 H1514 0.950 . S
C1491 C1508 1.574 . S
C1491 C1510 1.368 . S
C1491 H1515 0.949 . S
H1492 C1496 0.949 . S
C1493 C1494 1.349 . S
C1493 C1495 1.327 . S
C1493 H1516 0.950 . S
C1494 C1493 1.349 . S
C1494 C1506 1.349 . S
C1495 C1493 1.327 . S
C1495 C1511 1.429 . S
C1495 H1517 0.950 . S
C1496 H1492 0.949 . S
C1496 C1504 1.574 . S
C1496 C1512 1.368 . S
H1497 C1505 0.950 . S
H1498 C1503 0.950 . S
H1499 C1504 0.949 . S
H1500 C1506 0.950 . S
H1501 C1507 0.950 . S
H1502 C1508 0.949 . S
C1503 H1498 0.950 . S
C1503 C1505 1.327 . S
C1503 C1509 1.429 . S
C1504 C1496 1.574 . S
C1504 H1499 0.949 . S
C1504 C1510 1.368 . S
C1505 C1489 1.349 . S
C1505 H1497 0.950 . S
C1505 C1503 1.327 . S
C1506 C1494 1.349 . S
C1506 H1500 0.950 . S
C1506 C1507 1.327 . S
C1507 H1501 0.950 . S
C1507 C1506 1.327 . S
C1507 C1511 1.429 . S
C1508 C1491 1.574 . S
C1508 H1502 0.949 . S
C1508 C1512 1.368 . S
C1509 C1490 1.429 . S
C1509 C1503 1.429 . S
C1509 C1510 1.523 . S
C1510 C1491 1.368 . S
C1510 C1504 1.368 . S
C1510 C1509 1.523 . S
C1511 C1495 1.429 . S
C1511 C1507 1.429 . S
C1511 C1512 1.523 . S
C1512 C1496 1.368 . S
C1512 C1508 1.368 . S
C1512 C1511 1.523 . S
H1513 C1488 0.950 . S
H1514 C1490 0.950 . S
H1515 C1491 0.949 . S
H1516 C1493 0.950 . S
H1517 C1495 0.950 . S
C1518 C1519 1.349 . S
C1518 C1520 1.327 . S
C1518 H1543 0.950 . S
C1519 C1518 1.349 . S
C1519 C1535 1.349 . S
C1520 C1518 1.327 . S
C1520 C1539 1.429 . S
C1520 H1544 0.950 . S
C1521 C1538 1.574 . S
C1521 C1540 1.368 . S
C1521 H1545 0.949 . S
H1522 C1526 0.949 . S
C1523 C1524 1.349 . S
C1523 C1525 1.327 . S
C1523 H1546 0.950 . S
C1524 C1523 1.349 . S
C1524 C1536 1.349 . S
C1525 C1523 1.327 . S
C1525 C1541 1.429 . S
C1525 H1547 0.950 . S
C1526 H1522 0.949 . S
C1526 C1534 1.574 . S
C1526 C1542 1.368 . S
H1527 C1535 0.950 . S
H1528 C1533 0.950 . S
H1529 C1534 0.949 . S
H1530 C1536 0.950 . S
H1531 C1537 0.950 . S
H1532 C1538 0.949 . S
C1533 H1528 0.950 . S
C1533 C1535 1.327 . S
C1533 C1539 1.429 . S
C1534 C1526 1.574 . S
C1534 H1529 0.949 . S
C1534 C1540 1.368 . S
C1535 C1519 1.349 . S
C1535 H1527 0.950 . S
C1535 C1533 1.327 . S
C1536 C1524 1.349 . S
C1536 H1530 0.950 . S
C1536 C1537 1.327 . S
C1537 H1531 0.950 . S
C1537 C1536 1.327 . S
C1537 C1541 1.429 . S
C1538 C1521 1.574 . S
C1538 H1532 0.949 . S
C1538 C1542 1.368 . S
C1539 C1520 1.429 . S
C1539 C1533 1.429 . S
C1539 C1540 1.523 . S
C1540 C1521 1.368 . S
C1540 C1534 1.368 . S
C1540 C1539 1.523 . S
C1541 C1525 1.429 . S
C1541 C1537 1.429 . S
C1541 C1542 1.523 . S
C1542 C1526 1.368 . S
C1542 C1538 1.368 . S
C1542 C1541 1.523 . S
H1543 C1518 0.950 . S
H1544 C1520 0.950 . S
H1545 C1521 0.949 . S
H1546 C1523 0.950 . S
H1547 C1525 0.950 . S
C1548 C1549 1.349 . S
C1548 C1550 1.327 . S
C1548 H1573 0.950 . S
C1549 C1548 1.349 . S
C1549 C1565 1.349 . S
C1550 C1548 1.327 . S
C1550 C1569 1.429 . S
C1550 H1574 0.950 . S
C1551 C1568 1.574 . S
C1551 C1570 1.368 1_554 S
C1551 H1575 0.949 . S
H1552 C1556 0.949 . S
C1553 C1554 1.349 . S
C1553 C1555 1.327 . S
C1553 H1576 0.950 . S
C1554 C1553 1.349 . S
C1554 C1566 1.349 . S
C1555 C1553 1.327 . S
C1555 C1571 1.429 . S
C1555 H1577 0.950 . S
C1556 H1552 0.949 . S
C1556 C1564 1.574 . S
C1556 C1572 1.368 1_556 S
H1557 C1565 0.950 . S
H1558 C1563 0.950 . S
H1559 C1564 0.949 . S
H1560 C1566 0.950 . S
H1561 C1567 0.950 . S
H1562 C1568 0.949 . S
C1563 H1558 0.950 . S
C1563 C1565 1.327 . S
C1563 C1569 1.429 . S
C1564 C1556 1.574 . S
C1564 H1559 0.949 . S
C1564 C1570 1.368 1_545 S
C1565 C1549 1.349 . S
C1565 H1557 0.950 . S
C1565 C1563 1.327 . S
C1566 C1554 1.349 . S
C1566 H1560 0.950 . S
C1566 C1567 1.327 . S
C1567 H1561 0.950 . S
C1567 C1566 1.327 . S
C1567 C1571 1.429 . S
C1568 C1551 1.574 . S
C1568 H1562 0.949 . S
C1568 C1572 1.368 1_565 S
C1569 C1550 1.429 . S
C1569 C1563 1.429 . S
C1569 C1570 1.523 . S
C1570 C1551 1.368 1_556 S
C1570 C1564 1.368 1_565 S
C1570 C1569 1.523 . S
C1571 C1555 1.429 . S
C1571 C1567 1.429 . S
C1571 C1572 1.523 . S
C1572 C1556 1.368 1_554 S
C1572 C1568 1.368 1_545 S
C1572 C1571 1.523 . S
H1573 C1548 0.950 . S
H1574 C1550 0.950 . S
H1575 C1551 0.949 . S
H1576 C1553 0.950 . S
H1577 C1555 0.950 . S
C1578 C1579 1.349 . S
C1578 C1580 1.327 . S
C1578 H1603 0.950 . S
C1579 C1578 1.349 . S
C1579 C1595 1.349 . S
C1580 C1578 1.327 . S
C1580 C1599 1.429 . S
C1580 H1604 0.950 . S
C1581 C1598 1.574 . S
C1581 C1600 1.368 . S
C1581 H1605 0.949 . S
H1582 C1586 0.949 . S
C1583 C1584 1.349 . S
C1583 C1585 1.327 . S
C1583 H1606 0.950 . S
C1584 C1583 1.349 . S
C1584 C1596 1.349 . S
C1585 C1583 1.327 . S
C1585 C1601 1.429 . S
C1585 H1607 0.950 . S
C1586 H1582 0.949 . S
C1586 C1594 1.574 . S
C1586 C1602 1.368 . S
H1587 C1595 0.950 . S
H1588 C1593 0.950 . S
H1589 C1594 0.949 . S
H1590 C1596 0.950 . S
H1591 C1597 0.950 . S
H1592 C1598 0.949 . S
C1593 H1588 0.950 . S
C1593 C1595 1.327 . S
C1593 C1599 1.429 . S
C1594 C1586 1.574 . S
C1594 H1589 0.949 . S
C1594 C1600 1.368 . S
C1595 C1579 1.349 . S
C1595 H1587 0.950 . S
C1595 C1593 1.327 . S
C1596 C1584 1.349 . S
C1596 H1590 0.950 . S
C1596 C1597 1.327 . S
C1597 H1591 0.950 . S
C1597 C1596 1.327 . S
C1597 C1601 1.429 . S
C1598 C1581 1.574 . S
C1598 H1592 0.949 . S
C1598 C1602 1.368 . S
C1599 C1580 1.429 . S
C1599 C1593 1.429 . S
C1599 C1600 1.523 . S
C1600 C1581 1.368 . S
C1600 C1594 1.368 . S
C1600 C1599 1.523 . S
C1601 C1585 1.429 . S
C1601 C1597 1.429 . S
C1601 C1602 1.523 . S
C1602 C1586 1.368 . S
C1602 C1598 1.368 . S
C1602 C1601 1.523 . S
H1603 C1578 0.950 . S
H1604 C1580 0.950 . S
H1605 C1581 0.949 . S
H1606 C1583 0.950 . S
H1607 C1585 0.950 . S
C1608 C1609 1.349 . S
C1608 C1610 1.327 . S
C1608 H1633 0.950 . S
C1609 C1608 1.349 . S
C1609 C1625 1.349 . S
C1610 C1608 1.327 . S
C1610 C1629 1.429 . S
C1610 H1634 0.950 . S
C1611 C1628 1.574 1_456 S
C1611 C1630 1.368 . S
C1611 H1635 0.949 . S
H1612 C1616 0.949 . S
C1613 C1614 1.349 . S
C1613 C1615 1.327 . S
C1613 H1636 0.950 . S
C1614 C1613 1.349 . S
C1614 C1626 1.349 . S
C1615 C1613 1.327 . S
C1615 C1631 1.429 . S
C1615 H1637 0.950 . S
C1616 H1612 0.949 . S
C1616 C1624 1.574 1_654 S
C1616 C1632 1.368 . S
H1617 C1625 0.950 . S
H1618 C1623 0.950 . S
H1619 C1624 0.949 . S
H1620 C1626 0.950 . S
H1621 C1627 0.950 . S
H1622 C1628 0.949 . S
C1623 H1618 0.950 . S
C1623 C1625 1.327 . S
C1623 C1629 1.429 . S
C1624 C1616 1.574 1_456 S
C1624 H1619 0.949 . S
C1624 C1630 1.368 . S
C1625 C1609 1.349 . S
C1625 H1617 0.950 . S
C1625 C1623 1.327 . S
C1626 C1614 1.349 . S
C1626 H1620 0.950 . S
C1626 C1627 1.327 . S
C1627 H1621 0.950 . S
C1627 C1626 1.327 . S
C1627 C1631 1.429 . S
C1628 C1611 1.574 1_654 S
C1628 H1622 0.949 . S
C1628 C1632 1.368 . S
C1629 C1610 1.429 . S
C1629 C1623 1.429 . S
C1629 C1630 1.523 . S
C1630 C1611 1.368 . S
C1630 C1624 1.368 . S
C1630 C1629 1.523 . S
C1631 C1615 1.429 . S
C1631 C1627 1.429 . S
C1631 C1632 1.523 . S
C1632 C1616 1.368 . S
C1632 C1628 1.368 . S
C1632 C1631 1.523 . S
H1633 C1608 0.950 . S
H1634 C1610 0.950 . S
H1635 C1611 0.949 . S
H1636 C1613 0.950 . S
H1637 C1615 0.950 . S
C1638 C1639 1.349 . S
C1638 C1640 1.327 . S
C1638 H1663 0.950 . S
C1639 C1638 1.349 . S
C1639 C1655 1.349 . S
C1640 C1638 1.327 . S
C1640 C1659 1.429 . S
C1640 H1664 0.950 . S
C1641 C1658 1.574 . S
C1641 C1660 1.368 . S
C1641 H1665 0.949 . S
H1642 C1646 0.949 . S
C1643 C1644 1.349 . S
C1643 C1645 1.327 . S
C1643 H1666 0.950 . S
C1644 C1643 1.349 . S
C1644 C1656 1.349 . S
C1645 C1643 1.327 . S
C1645 C1661 1.429 . S
C1645 H1667 0.950 . S
C1646 H1642 0.949 . S
C1646 C1654 1.574 . S
C1646 C1662 1.368 . S
H1647 C1655 0.950 . S
H1648 C1653 0.950 . S
H1649 C1654 0.949 . S
H1650 C1656 0.950 . S
H1651 C1657 0.950 . S
H1652 C1658 0.949 . S
C1653 H1648 0.950 . S
C1653 C1655 1.327 . S
C1653 C1659 1.429 . S
C1654 C1646 1.574 . S
C1654 H1649 0.949 . S
C1654 C1660 1.368 1_565 S
C1655 C1639 1.349 . S
C1655 H1647 0.950 . S
C1655 C1653 1.327 . S
C1656 C1644 1.349 . S
C1656 H1650 0.950 . S
C1656 C1657 1.327 . S
C1657 H1651 0.950 . S
C1657 C1656 1.327 . S
C1657 C1661 1.429 . S
C1658 C1641 1.574 . S
C1658 H1652 0.949 . S
C1658 C1662 1.368 1_545 S
C1659 C1640 1.429 . S
C1659 C1653 1.429 . S
C1659 C1660 1.523 . S
C1660 C1641 1.368 . S
C1660 C1654 1.368 1_545 S
C1660 C1659 1.523 . S
C1661 C1645 1.429 . S
C1661 C1657 1.429 . S
C1661 C1662 1.523 . S
C1662 C1646 1.368 . S
C1662 C1658 1.368 1_565 S
C1662 C1661 1.523 . S
H1663 C1638 0.950 . S
H1664 C1640 0.950 . S
H1665 C1641 0.949 . S
H1666 C1643 0.950 . S
H1667 C1645 0.950 . S
C1668 C1669 1.349 . S
C1668 C1670 1.327 . S
C1668 H1693 0.950 . S
C1669 C1668 1.349 . S
C1669 C1685 1.349 . S
C1670 C1668 1.327 . S
C1670 C1689 1.429 . S
C1670 H1694 0.950 . S
C1671 C1688 1.574 . S
C1671 C1690 1.368 1_556 S
C1671 H1695 0.949 . S
H1672 C1676 0.949 . S
C1673 C1674 1.349 . S
C1673 C1675 1.327 . S
C1673 H1696 0.950 . S
C1674 C1673 1.349 . S
C1674 C1686 1.349 . S
C1675 C1673 1.327 . S
C1675 C1691 1.429 . S
C1675 H1697 0.950 . S
C1676 H1672 0.949 . S
C1676 C1684 1.574 . S
C1676 C1692 1.368 1_554 S
H1677 C1685 0.950 . S
H1678 C1683 0.950 . S
H1679 C1684 0.949 . S
H1680 C1686 0.950 . S
H1681 C1687 0.950 . S
H1682 C1688 0.949 . S
C1683 H1678 0.950 . S
C1683 C1685 1.327 . S
C1683 C1689 1.429 . S
C1684 C1676 1.574 . S
C1684 H1679 0.949 . S
C1684 C1690 1.368 . S
C1685 C1669 1.349 . S
C1685 H1677 0.950 . S
C1685 C1683 1.327 . S
C1686 C1674 1.349 . S
C1686 H1680 0.950 . S
C1686 C1687 1.327 . S
C1687 H1681 0.950 . S
C1687 C1686 1.327 . S
C1687 C1691 1.429 . S
C1688 C1671 1.574 . S
C1688 H1682 0.949 . S
C1688 C1692 1.368 . S
C1689 C1670 1.429 . S
C1689 C1683 1.429 . S
C1689 C1690 1.523 . S
C1690 C1671 1.368 1_554 S
C1690 C1684 1.368 . S
C1690 C1689 1.523 . S
C1691 C1675 1.429 . S
C1691 C1687 1.429 . S
C1691 C1692 1.523 . S
C1692 C1676 1.368 1_556 S
C1692 C1688 1.368 . S
C1692 C1691 1.523 . S
H1693 C1668 0.950 . S
H1694 C1670 0.950 . S
H1695 C1671 0.949 . S
H1696 C1673 0.950 . S
H1697 C1675 0.950 . S
C1698 C1699 1.349 . S
C1698 C1700 1.327 . S
C1698 H1723 0.950 . S
C1699 C1698 1.349 . S
C1699 C1715 1.349 . S
C1700 C1698 1.327 . S
C1700 C1719 1.429 . S
C1700 H1724 0.950 . S
C1701 C1718 1.574 . S
C1701 C1720 1.368 . S
C1701 H1725 0.949 . S
H1702 C1706 0.949 . S
C1703 C1704 1.349 . S
C1703 C1705 1.327 . S
C1703 H1726 0.950 . S
C1704 C1703 1.349 . S
C1704 C1716 1.349 . S
C1705 C1703 1.327 . S
C1705 C1721 1.429 . S
C1705 H1727 0.950 . S
C1706 H1702 0.949 . S
C1706 C1714 1.574 . S
C1706 C1722 1.368 . S
H1707 C1715 0.950 . S
H1708 C1713 0.950 . S
H1709 C1714 0.949 . S
H1710 C1716 0.950 . S
H1711 C1717 0.950 . S
H1712 C1718 0.949 . S
C1713 H1708 0.950 . S
C1713 C1715 1.327 . S
C1713 C1719 1.429 . S
C1714 C1706 1.574 . S
C1714 H1709 0.949 . S
C1714 C1720 1.368 1_655 S
C1715 C1699 1.349 . S
C1715 H1707 0.950 . S
C1715 C1713 1.327 . S
C1716 C1704 1.349 . S
C1716 H1710 0.950 . S
C1716 C1717 1.327 . S
C1717 H1711 0.950 . S
C1717 C1716 1.327 . S
C1717 C1721 1.429 . S
C1718 C1701 1.574 . S
C1718 H1712 0.949 . S
C1718 C1722 1.368 1_455 S
C1719 C1700 1.429 . S
C1719 C1713 1.429 . S
C1719 C1720 1.523 . S
C1720 C1701 1.368 . S
C1720 C1714 1.368 1_455 S
C1720 C1719 1.523 . S
C1721 C1705 1.429 . S
C1721 C1717 1.429 . S
C1721 C1722 1.523 . S
C1722 C1706 1.368 . S
C1722 C1718 1.368 1_655 S
C1722 C1721 1.523 . S
H1723 C1698 0.950 . S
H1724 C1700 0.950 . S
H1725 C1701 0.949 . S
H1726 C1703 0.950 . S
H1727 C1705 0.950 . S
C1728 C1729 1.349 . S
C1728 C1730 1.327 . S
C1728 H1753 0.950 . S
C1729 C1728 1.349 . S
C1729 C1745 1.349 . S
C1730 C1728 1.327 . S
C1730 C1749 1.429 . S
C1730 H1754 0.950 . S
C1731 C1748 1.574 . S
C1731 C1750 1.368 . S
C1731 H1755 0.949 . S
H1732 C1736 0.949 . S
C1733 C1734 1.349 . S
C1733 C1735 1.327 . S
C1733 H1756 0.950 . S
C1734 C1733 1.349 . S
C1734 C1746 1.349 . S
C1735 C1733 1.327 . S
C1735 C1751 1.429 . S
C1735 H1757 0.950 . S
C1736 H1732 0.949 . S
C1736 C1744 1.574 . S
C1736 C1752 1.368 . S
H1737 C1745 0.950 . S
H1738 C1743 0.950 . S
H1739 C1744 0.949 . S
H1740 C1746 0.950 . S
H1741 C1747 0.950 . S
H1742 C1748 0.949 . S
C1743 H1738 0.950 . S
C1743 C1745 1.327 . S
C1743 C1749 1.429 . S
C1744 C1736 1.574 . S
C1744 H1739 0.949 . S
C1744 C1750 1.368 . S
C1745 C1729 1.349 . S
C1745 H1737 0.950 . S
C1745 C1743 1.327 . S
C1746 C1734 1.349 . S
C1746 H1740 0.950 . S
C1746 C1747 1.327 . S
C1747 H1741 0.950 . S
C1747 C1746 1.327 . S
C1747 C1751 1.429 . S
C1748 C1731 1.574 . S
C1748 H1742 0.949 . S
C1748 C1752 1.368 . S
C1749 C1730 1.429 . S
C1749 C1743 1.429 . S
C1749 C1750 1.523 . S
C1750 C1731 1.368 . S
C1750 C1744 1.368 . S
C1750 C1749 1.523 . S
C1751 C1735 1.429 . S
C1751 C1747 1.429 . S
C1751 C1752 1.523 . S
C1752 C1736 1.368 . S
C1752 C1748 1.368 . S
C1752 C1751 1.523 . S
H1753 C1728 0.950 . S
H1754 C1730 0.950 . S
H1755 C1731 0.949 . S
H1756 C1733 0.950 . S
H1757 C1735 0.950 . S
C1758 C1759 1.349 . S
C1758 C1760 1.327 . S
C1758 H1783 0.950 . S
C1759 C1758 1.349 . S
C1759 C1775 1.349 . S
C1760 C1758 1.327 . S
C1760 C1779 1.429 . S
C1760 H1784 0.950 . S
C1761 C1778 1.574 . S
C1761 C1780 1.368 . S
C1761 H1785 0.949 . S
H1762 C1766 0.949 . S
C1763 C1764 1.349 . S
C1763 C1765 1.327 . S
C1763 H1786 0.950 . S
C1764 C1763 1.349 . S
C1764 C1776 1.349 . S
C1765 C1763 1.327 . S
C1765 C1781 1.429 . S
C1765 H1787 0.950 . S
C1766 H1762 0.949 . S
C1766 C1774 1.574 . S
C1766 C1782 1.368 . S
H1767 C1775 0.950 . S
H1768 C1773 0.950 . S
H1769 C1774 0.949 . S
H1770 C1776 0.950 . S
H1771 C1777 0.950 . S
H1772 C1778 0.949 . S
C1773 H1768 0.950 . S
C1773 C1775 1.327 . S
C1773 C1779 1.429 . S
C1774 C1766 1.574 . S
C1774 H1769 0.949 . S
C1774 C1780 1.368 . S
C1775 C1759 1.349 . S
C1775 H1767 0.950 . S
C1775 C1773 1.327 . S
C1776 C1764 1.349 . S
C1776 H1770 0.950 . S
C1776 C1777 1.327 . S
C1777 H1771 0.950 . S
C1777 C1776 1.327 . S
C1777 C1781 1.429 . S
C1778 C1761 1.574 . S
C1778 H1772 0.949 . S
C1778 C1782 1.368 . S
C1779 C1760 1.429 . S
C1779 C1773 1.429 . S
C1779 C1780 1.523 . S
C1780 C1761 1.368 . S
C1780 C1774 1.368 . S
C1780 C1779 1.523 . S
C1781 C1765 1.429 . S
C1781 C1777 1.429 . S
C1781 C1782 1.523 . S
C1782 C1766 1.368 . S
C1782 C1778 1.368 . S
C1782 C1781 1.523 . S
H1783 C1758 0.950 . S
H1784 C1760 0.950 . S
H1785 C1761 0.949 . S
H1786 C1763 0.950 . S
H1787 C1765 0.950 . S
C1788 C1789 1.349 . S
C1788 C1790 1.327 . S
C1788 H1813 0.950 . S
C1789 C1788 1.349 . S
C1789 C1805 1.349 . S
C1790 C1788 1.327 . S
C1790 C1809 1.429 . S
C1790 H1814 0.950 . S
C1791 C1808 1.574 . S
C1791 C1810 1.368 . S
C1791 H1815 0.949 . S
H1792 C1796 0.949 . S
C1793 C1794 1.349 . S
C1793 C1795 1.327 . S
C1793 H1816 0.950 . S
C1794 C1793 1.349 . S
C1794 C1806 1.349 . S
C1795 C1793 1.327 . S
C1795 C1811 1.429 . S
C1795 H1817 0.950 . S
C1796 H1792 0.949 . S
C1796 C1804 1.574 . S
C1796 C1812 1.368 . S
H1797 C1805 0.950 . S
H1798 C1803 0.950 . S
H1799 C1804 0.949 . S
H1800 C1806 0.950 . S
H1801 C1807 0.950 . S
H1802 C1808 0.949 . S
C1803 H1798 0.950 . S
C1803 C1805 1.327 . S
C1803 C1809 1.429 . S
C1804 C1796 1.574 . S
C1804 H1799 0.949 . S
C1804 C1810 1.368 . S
C1805 C1789 1.349 . S
C1805 H1797 0.950 . S
C1805 C1803 1.327 . S
C1806 C1794 1.349 . S
C1806 H1800 0.950 . S
C1806 C1807 1.327 . S
C1807 H1801 0.950 . S
C1807 C1806 1.327 . S
C1807 C1811 1.429 . S
C1808 C1791 1.574 . S
C1808 H1802 0.949 . S
C1808 C1812 1.368 . S
C1809 C1790 1.429 . S
C1809 C1803 1.429 . S
C1809 C1810 1.523 . S
C1810 C1791 1.368 . S
C1810 C1804 1.368 . S
C1810 C1809 1.523 . S
C1811 C1795 1.429 . S
C1811 C1807 1.429 . S
C1811 C1812 1.523 . S
C1812 C1796 1.368 . S
C1812 C1808 1.368 . S
C1812 C1811 1.523 . S
H1813 C1788 0.950 . S
H1814 C1790 0.950 . S
H1815 C1791 0.949 . S
H1816 C1793 0.950 . S
H1817 C1795 0.950 . S
C1818 C1819 1.349 . S
C1818 C1820 1.327 . S
C1818 H1843 0.950 . S
C1819 C1818 1.349 . S
C1819 C1835 1.349 . S
C1820 C1818 1.327 . S
C1820 C1839 1.429 . S
C1820 H1844 0.950 . S
C1821 C1838 1.574 . S
C1821 C1840 1.368 . S
C1821 H1845 0.949 . S
H1822 C1826 0.949 . S
C1823 C1824 1.349 . S
C1823 C1825 1.327 . S
C1823 H1846 0.950 . S
C1824 C1823 1.349 . S
C1824 C1836 1.349 . S
C1825 C1823 1.327 . S
C1825 C1841 1.429 . S
C1825 H1847 0.950 . S
C1826 H1822 0.949 . S
C1826 C1834 1.574 . S
C1826 C1842 1.368 . S
H1827 C1835 0.950 . S
H1828 C1833 0.950 . S
H1829 C1834 0.949 . S
H1830 C1836 0.950 . S
H1831 C1837 0.950 . S
H1832 C1838 0.949 . S
C1833 H1828 0.950 . S
C1833 C1835 1.327 . S
C1833 C1839 1.429 . S
C1834 C1826 1.574 . S
C1834 H1829 0.949 . S
C1834 C1840 1.368 . S
C1835 C1819 1.349 . S
C1835 H1827 0.950 . S
C1835 C1833 1.327 . S
C1836 C1824 1.349 . S
C1836 H1830 0.950 . S
C1836 C1837 1.327 . S
C1837 H1831 0.950 . S
C1837 C1836 1.327 . S
C1837 C1841 1.429 . S
C1838 C1821 1.574 . S
C1838 H1832 0.949 . S
C1838 C1842 1.368 . S
C1839 C1820 1.429 . S
C1839 C1833 1.429 . S
C1839 C1840 1.523 . S
C1840 C1821 1.368 . S
C1840 C1834 1.368 . S
C1840 C1839 1.523 . S
C1841 C1825 1.429 . S
C1841 C1837 1.429 . S
C1841 C1842 1.523 . S
C1842 C1826 1.368 . S
C1842 C1838 1.368 . S
C1842 C1841 1.523 . S
H1843 C1818 0.950 . S
H1844 C1820 0.950 . S
H1845 C1821 0.949 . S
H1846 C1823 0.950 . S
H1847 C1825 0.950 . S
C1848 C1849 1.349 . S
C1848 C1850 1.327 . S
C1848 H1873 0.950 . S
C1849 C1848 1.349 . S
C1849 C1865 1.349 . S
C1850 C1848 1.327 . S
C1850 C1869 1.429 . S
C1850 H1874 0.950 . S
C1851 C1868 1.574 . S
C1851 C1870 1.368 . S
C1851 H1875 0.949 . S
H1852 C1856 0.949 . S
C1853 C1854 1.349 . S
C1853 C1855 1.327 . S
C1853 H1876 0.950 . S
C1854 C1853 1.349 . S
C1854 C1866 1.349 . S
C1855 C1853 1.327 . S
C1855 C1871 1.429 . S
C1855 H1877 0.950 . S
C1856 H1852 0.949 . S
C1856 C1864 1.574 . S
C1856 C1872 1.368 . S
H1857 C1865 0.950 . S
H1858 C1863 0.950 . S
H1859 C1864 0.949 . S
H1860 C1866 0.950 . S
H1861 C1867 0.950 . S
H1862 C1868 0.949 . S
C1863 H1858 0.950 . S
C1863 C1865 1.327 . S
C1863 C1869 1.429 . S
C1864 C1856 1.574 . S
C1864 H1859 0.949 . S
C1864 C1870 1.368 . S
C1865 C1849 1.349 . S
C1865 H1857 0.950 . S
C1865 C1863 1.327 . S
C1866 C1854 1.349 . S
C1866 H1860 0.950 . S
C1866 C1867 1.327 . S
C1867 H1861 0.950 . S
C1867 C1866 1.327 . S
C1867 C1871 1.429 . S
C1868 C1851 1.574 . S
C1868 H1862 0.949 . S
C1868 C1872 1.368 . S
C1869 C1850 1.429 . S
C1869 C1863 1.429 . S
C1869 C1870 1.523 . S
C1870 C1851 1.368 . S
C1870 C1864 1.368 . S
C1870 C1869 1.523 . S
C1871 C1855 1.429 . S
C1871 C1867 1.429 . S
C1871 C1872 1.523 . S
C1872 C1856 1.368 . S
C1872 C1868 1.368 . S
C1872 C1871 1.523 . S
H1873 C1848 0.950 . S
H1874 C1850 0.950 . S
H1875 C1851 0.949 . S
H1876 C1853 0.950 . S
H1877 C1855 0.950 . S
C1878 C1879 1.349 . S
C1878 C1880 1.327 . S
C1878 H1903 0.950 . S
C1879 C1878 1.349 . S
C1879 C1895 1.349 . S
C1880 C1878 1.327 . S
C1880 C1899 1.429 . S
C1880 H1904 0.950 . S
C1881 C1898 1.574 . S
C1881 C1900 1.368 . S
C1881 H1905 0.949 . S
H1882 C1886 0.949 . S
C1883 C1884 1.349 . S
C1883 C1885 1.327 . S
C1883 H1906 0.950 . S
C1884 C1883 1.349 . S
C1884 C1896 1.349 . S
C1885 C1883 1.327 . S
C1885 C1901 1.429 . S
C1885 H1907 0.950 . S
C1886 H1882 0.949 . S
C1886 C1894 1.574 . S
C1886 C1902 1.368 . S
H1887 C1895 0.950 . S
H1888 C1893 0.950 . S
H1889 C1894 0.949 . S
H1890 C1896 0.950 . S
H1891 C1897 0.950 . S
H1892 C1898 0.949 . S
C1893 H1888 0.950 . S
C1893 C1895 1.327 . S
C1893 C1899 1.429 . S
C1894 C1886 1.574 . S
C1894 H1889 0.949 . S
C1894 C1900 1.368 . S
C1895 C1879 1.349 . S
C1895 H1887 0.950 . S
C1895 C1893 1.327 . S
C1896 C1884 1.349 . S
C1896 H1890 0.950 . S
C1896 C1897 1.327 . S
C1897 H1891 0.950 . S
C1897 C1896 1.327 . S
C1897 C1901 1.429 . S
C1898 C1881 1.574 . S
C1898 H1892 0.949 . S
C1898 C1902 1.368 . S
C1899 C1880 1.429 . S
C1899 C1893 1.429 . S
C1899 C1900 1.523 . S
C1900 C1881 1.368 . S
C1900 C1894 1.368 . S
C1900 C1899 1.523 . S
C1901 C1885 1.429 . S
C1901 C1897 1.429 . S
C1901 C1902 1.523 . S
C1902 C1886 1.368 . S
C1902 C1898 1.368 . S
C1902 C1901 1.523 . S
H1903 C1878 0.950 . S
H1904 C1880 0.950 . S
H1905 C1881 0.949 . S
H1906 C1883 0.950 . S
H1907 C1885 0.950 . S
C1908 C1909 1.349 . S
C1908 C1910 1.327 . S
C1908 H1933 0.950 . S
C1909 C1908 1.349 . S
C1909 C1925 1.349 . S
C1910 C1908 1.327 . S
C1910 C1929 1.429 . S
C1910 H1934 0.950 . S
C1911 C1928 1.574 . S
C1911 C1930 1.368 . S
C1911 H1935 0.949 . S
H1912 C1916 0.949 . S
C1913 C1914 1.349 . S
C1913 C1915 1.327 . S
C1913 H1936 0.950 . S
C1914 C1913 1.349 . S
C1914 C1926 1.349 . S
C1915 C1913 1.327 . S
C1915 C1931 1.429 . S
C1915 H1937 0.950 . S
C1916 H1912 0.949 . S
C1916 C1924 1.574 . S
C1916 C1932 1.368 . S
H1917 C1925 0.950 . S
H1918 C1923 0.950 . S
H1919 C1924 0.949 . S
H1920 C1926 0.950 . S
H1921 C1927 0.950 . S
H1922 C1928 0.949 . S
C1923 H1918 0.950 . S
C1923 C1925 1.327 . S
C1923 C1929 1.429 . S
C1924 C1916 1.574 . S
C1924 H1919 0.949 . S
C1924 C1930 1.368 . S
C1925 C1909 1.349 . S
C1925 H1917 0.950 . S
C1925 C1923 1.327 . S
C1926 C1914 1.349 . S
C1926 H1920 0.950 . S
C1926 C1927 1.327 . S
C1927 H1921 0.950 . S
C1927 C1926 1.327 . S
C1927 C1931 1.429 . S
C1928 C1911 1.574 . S
C1928 H1922 0.949 . S
C1928 C1932 1.368 . S
C1929 C1910 1.429 . S
C1929 C1923 1.429 . S
C1929 C1930 1.523 . S
C1930 C1911 1.368 . S
C1930 C1924 1.368 . S
C1930 C1929 1.523 . S
C1931 C1915 1.429 . S
C1931 C1927 1.429 . S
C1931 C1932 1.523 . S
C1932 C1916 1.368 . S
C1932 C1928 1.368 . S
C1932 C1931 1.523 . S
H1933 C1908 0.950 . S
H1934 C1910 0.950 . S
H1935 C1911 0.949 . S
H1936 C1913 0.950 . S
H1937 C1915 0.950 . S
C1938 C1939 1.349 . S
C1938 C1940 1.327 . S
C1938 H1963 0.950 . S
C1939 C1938 1.349 . S
C1939 C1955 1.349 . S
C1940 C1938 1.327 . S
C1940 C1959 1.429 . S
C1940 H1964 0.950 . S
C1941 C1958 1.574 . S
C1941 C1960 1.368 . S
C1941 H1965 0.949 . S
H1942 C1946 0.949 . S
C1943 C1944 1.349 . S
C1943 C1945 1.327 . S
C1943 H1966 0.950 . S
C1944 C1943 1.349 . S
C1944 C1956 1.349 . S
C1945 C1943 1.327 . S
C1945 C1961 1.429 . S
C1945 H1967 0.950 . S
C1946 H1942 0.949 . S
C1946 C1954 1.574 . S
C1946 C1962 1.368 . S
H1947 C1955 0.950 . S
H1948 C1953 0.950 . S
H1949 C1954 0.949 . S
H1950 C1956 0.950 . S
H1951 C1957 0.950 . S
H1952 C1958 0.949 . S
C1953 H1948 0.950 . S
C1953 C1955 1.327 . S
C1953 C1959 1.429 . S
C1954 C1946 1.574 . S
C1954 H1949 0.949 . S
C1954 C1960 1.368 . S
C1955 C1939 1.349 . S
C1955 H1947 0.950 . S
C1955 C1953 1.327 . S
C1956 C1944 1.349 . S
C1956 H1950 0.950 . S
C1956 C1957 1.327 . S
C1957 H1951 0.950 . S
C1957 C1956 1.327 . S
C1957 C1961 1.429 . S
C1958 C1941 1.574 . S
C1958 H1952 0.949 . S
C1958 C1962 1.368 . S
C1959 C1940 1.429 . S
C1959 C1953 1.429 . S
C1959 C1960 1.523 . S
C1960 C1941 1.368 . S
C1960 C1954 1.368 . S
C1960 C1959 1.523 . S
C1961 C1945 1.429 . S
C1961 C1957 1.429 . S
C1961 C1962 1.523 . S
C1962 C1946 1.368 . S
C1962 C1958 1.368 . S
C1962 C1961 1.523 . S
H1963 C1938 0.950 . S
H1964 C1940 0.950 . S
H1965 C1941 0.949 . S
H1966 C1943 0.950 . S
H1967 C1945 0.950 . S
C1968 C1969 1.349 . S
C1968 C1970 1.327 . S
C1968 H1993 0.950 . S
C1969 C1968 1.349 . S
C1969 C1985 1.349 . S
C1970 C1968 1.327 . S
C1970 C1989 1.429 . S
C1970 H1994 0.950 . S
C1971 C1988 1.574 . S
C1971 C1990 1.368 . S
C1971 H1995 0.949 . S
H1972 C1976 0.949 . S
C1973 C1974 1.349 . S
C1973 C1975 1.327 . S
C1973 H1996 0.950 . S
C1974 C1973 1.349 . S
C1974 C1986 1.349 . S
C1975 C1973 1.327 . S
C1975 C1991 1.429 . S
C1975 H1997 0.950 . S
C1976 H1972 0.949 . S
C1976 C1984 1.574 . S
C1976 C1992 1.368 . S
H1977 C1985 0.950 . S
H1978 C1983 0.950 . S
H1979 C1984 0.949 . S
H1980 C1986 0.950 . S
H1981 C1987 0.950 . S
H1982 C1988 0.949 . S
C1983 H1978 0.950 . S
C1983 C1985 1.327 . S
C1983 C1989 1.429 . S
C1984 C1976 1.574 . S
C1984 H1979 0.949 . S
C1984 C1990 1.368 . S
C1985 C1969 1.349 . S
C1985 H1977 0.950 . S
C1985 C1983 1.327 . S
C1986 C1974 1.349 . S
C1986 H1980 0.950 . S
C1986 C1987 1.327 . S
C1987 H1981 0.950 . S
C1987 C1986 1.327 . S
C1987 C1991 1.429 . S
C1988 C1971 1.574 . S
C1988 H1982 0.949 . S
C1988 C1992 1.368 . S
C1989 C1970 1.429 . S
C1989 C1983 1.429 . S
C1989 C1990 1.523 . S
C1990 C1971 1.368 . S
C1990 C1984 1.368 . S
C1990 C1989 1.523 . S
C1991 C1975 1.429 . S
C1991 C1987 1.429 . S
C1991 C1992 1.523 . S
C1992 C1976 1.368 . S
C1992 C1988 1.368 . S
C1992 C1991 1.523 . S
H1993 C1968 0.950 . S
H1994 C1970 0.950 . S
H1995 C1971 0.949 . S
H1996 C1973 0.950 . S
H1997 C1975 0.950 . S
C1998 C1999 1.349 . S
C1998 C2000 1.327 . S
C1998 H2023 0.950 . S
C1999 C1998 1.349 . S
C1999 C2015 1.349 . S
C2000 C1998 1.327 . S
C2000 C2019 1.429 . S
C2000 H2024 0.950 . S
C2001 C2018 1.574 . S
C2001 C2020 1.368 . S
C2001 H2025 0.949 . S
H2002 C2006 0.949 . S
C2003 C2004 1.349 . S
C2003 C2005 1.327 . S
C2003 H2026 0.950 . S
C2004 C2003 1.349 . S
C2004 C2016 1.349 . S
C2005 C2003 1.327 . S
C2005 C2021 1.429 . S
C2005 H2027 0.950 . S
C2006 H2002 0.949 . S
C2006 C2014 1.574 . S
C2006 C2022 1.368 . S
H2007 C2015 0.950 . S
H2008 C2013 0.950 . S
H2009 C2014 0.949 . S
H2010 C2016 0.950 . S
H2011 C2017 0.950 . S
H2012 C2018 0.949 . S
C2013 H2008 0.950 . S
C2013 C2015 1.327 . S
C2013 C2019 1.429 . S
C2014 C2006 1.574 . S
C2014 H2009 0.949 . S
C2014 C2020 1.368 . S
C2015 C1999 1.349 . S
C2015 H2007 0.950 . S
C2015 C2013 1.327 . S
C2016 C2004 1.349 . S
C2016 H2010 0.950 . S
C2016 C2017 1.327 . S
C2017 H2011 0.950 . S
C2017 C2016 1.327 . S
C2017 C2021 1.429 . S
C2018 C2001 1.574 . S
C2018 H2012 0.949 . S
C2018 C2022 1.368 . S
C2019 C2000 1.429 . S
C2019 C2013 1.429 . S
C2019 C2020 1.523 . S
C2020 C2001 1.368 . S
C2020 C2014 1.368 . S
C2020 C2019 1.523 . S
C2021 C2005 1.429 . S
C2021 C2017 1.429 . S
C2021 C2022 1.523 . S
C2022 C2006 1.368 . S
C2022 C2018 1.368 . S
C2022 C2021 1.523 . S
H2023 C1998 0.950 . S
H2024 C2000 0.950 . S
H2025 C2001 0.949 . S
H2026 C2003 0.950 . S
H2027 C2005 0.950 . S
C2028 C2029 1.349 . S
C2028 C2030 1.327 . S
C2028 H2053 0.950 . S
C2029 C2028 1.349 . S
C2029 C2045 1.349 . S
C2030 C2028 1.327 . S
C2030 C2049 1.429 . S
C2030 H2054 0.950 . S
C2031 C2048 1.574 . S
C2031 C2050 1.368 . S
C2031 H2055 0.949 . S
H2032 C2036 0.949 . S
C2033 C2034 1.349 . S
C2033 C2035 1.327 . S
C2033 H2056 0.950 . S
C2034 C2033 1.349 . S
C2034 C2046 1.349 . S
C2035 C2033 1.327 . S
C2035 C2051 1.429 . S
C2035 H2057 0.950 . S
C2036 H2032 0.949 . S
C2036 C2044 1.574 . S
C2036 C2052 1.368 . S
H2037 C2045 0.950 . S
H2038 C2043 0.950 . S
H2039 C2044 0.949 . S
H2040 C2046 0.950 . S
H2041 C2047 0.950 . S
H2042 C2048 0.949 . S
C2043 H2038 0.950 . S
C2043 C2045 1.327 . S
C2043 C2049 1.429 . S
C2044 C2036 1.574 . S
C2044 H2039 0.949 . S
C2044 C2050 1.368 . S
C2045 C2029 1.349 . S
C2045 H2037 0.950 . S
C2045 C2043 1.327 . S
C2046 C2034 1.349 . S
C2046 H2040 0.950 . S
C2046 C2047 1.327 . S
C2047 H2041 0.950 . S
C2047 C2046 1.327 . S
C2047 C2051 1.429 . S
C2048 C2031 1.574 . S
C2048 H2042 0.949 . S
C2048 C2052 1.368 . S
C2049 C2030 1.429 . S
C2049 C2043 1.429 . S
C2049 C2050 1.523 . S
C2050 C2031 1.368 . S
C2050 C2044 1.368 . S
C2050 C2049 1.523 . S
C2051 C2035 1.429 . S
C2051 C2047 1.429 . S
C2051 C2052 1.523 . S
C2052 C2036 1.368 . S
C2052 C2048 1.368 . S
C2052 C2051 1.523 . S
H2053 C2028 0.950 . S
H2054 C2030 0.950 . S
H2055 C2031 0.949 . S
H2056 C2033 0.950 . S
H2057 C2035 0.950 . S
C2058 C2059 1.349 . S
C2058 C2060 1.327 . S
C2058 H2083 0.950 . S
C2059 C2058 1.349 . S
C2059 C2075 1.349 . S
C2060 C2058 1.327 . S
C2060 C2079 1.429 . S
C2060 H2084 0.950 . S
C2061 C2078 1.574 . S
C2061 C2080 1.368 . S
C2061 H2085 0.949 . S
H2062 C2066 0.949 . S
C2063 C2064 1.349 . S
C2063 C2065 1.327 . S
C2063 H2086 0.950 . S
C2064 C2063 1.349 . S
C2064 C2076 1.349 . S
C2065 C2063 1.327 . S
C2065 C2081 1.429 . S
C2065 H2087 0.950 . S
C2066 H2062 0.949 . S
C2066 C2074 1.574 . S
C2066 C2082 1.368 . S
H2067 C2075 0.950 . S
H2068 C2073 0.950 . S
H2069 C2074 0.949 . S
H2070 C2076 0.950 . S
H2071 C2077 0.950 . S
H2072 C2078 0.949 . S
C2073 H2068 0.950 . S
C2073 C2075 1.327 . S
C2073 C2079 1.429 . S
C2074 C2066 1.574 . S
C2074 H2069 0.949 . S
C2074 C2080 1.368 . S
C2075 C2059 1.349 . S
C2075 H2067 0.950 . S
C2075 C2073 1.327 . S
C2076 C2064 1.349 . S
C2076 H2070 0.950 . S
C2076 C2077 1.327 . S
C2077 H2071 0.950 . S
C2077 C2076 1.327 . S
C2077 C2081 1.429 . S
C2078 C2061 1.574 . S
C2078 H2072 0.949 . S
C2078 C2082 1.368 . S
C2079 C2060 1.429 . S
C2079 C2073 1.429 . S
C2079 C2080 1.523 . S
C2080 C2061 1.368 . S
C2080 C2074 1.368 . S
C2080 C2079 1.523 . S
C2081 C2065 1.429 . S
C2081 C2077 1.429 . S
C2081 C2082 1.523 . S
C2082 C2066 1.368 . S
C2082 C2078 1.368 . S
C2082 C2081 1.523 . S
H2083 C2058 0.950 . S
H2084 C2060 0.950 . S
H2085 C2061 0.949 . S
H2086 C2063 0.950 . S
H2087 C2065 0.950 . S
C1009 C226 1.086 . S
C1014 C55 1.224 . S
C1039 C322 1.086 . S
C1044 C151 1.224 . S
C1069 C223 1.224 . S
C1074 C394 1.086 . S
C1099 C319 1.224 . S
C1104 C490 1.086 . S
C1129 C58 1.086 . S
C1134 C391 1.224 . S
C1159 C154 1.086 . S
C1164 C487 1.224 . S
C1189 C910 1.086 . S
C1194 C571 1.224 . S
C1219 C643 1.224 . S
C1224 C982 1.086 . S
C1249 C739 1.224 . S
C1254 C574 1.086 . S
C1279 C811 1.224 . S
C1284 C646 1.086 . S
C1309 C907 1.224 . S
C1314 C742 1.086 . S
C1339 C814 1.086 . S
C1344 C979 1.224 . S
C1369 C320 1.960 . S
C1374 C56 1.960 . S
C1399 C152 1.960 . S
C1404 C392 1.960 . S
C1429 C224 1.960 . S
C1434 C488 1.960 . S
C1459 C572 1.960 . S
C1464 C812 1.960 . S
C1489 C644 1.960 . S
C1494 C908 1.960 . S
C1519 C740 1.960 . S
C1524 C980 1.960 . S
C1549 C656 2.160 . S
C1554 C68 2.160 . S
C1579 C140 2.160 . S
C1584 C728 2.160 . S
C1609 C824 2.160 . S
C1614 C236 2.160 . S
C1639 C308 2.160 . S
C1644 C896 2.160 . S
C1669 C404 2.160 . S
C1674 C992 2.160 . S
C1699 C560 2.160 . S
C1704 C476 2.160 . S
C1729 C238 1.244 . S
C1734 C67 1.404 . S
C1759 C139 1.404 . S
C1764 C310 1.244 . S
C1789 C235 1.404 . S
C1794 C406 1.244 . S
C1819 C307 1.404 . S
C1824 C478 1.244 . S
C1849 C70 1.244 . S
C1854 C403 1.404 . S
C1879 C142 1.244 . S
C1884 C475 1.404 . S
C1909 C898 1.244 . S
C1914 C559 1.404 . S
C1939 C655 1.404 . S
C1944 C994 1.244 . S
C1969 C727 1.404 . S
C1974 C562 1.244 . S
C1999 C658 1.244 . S
C2004 C823 1.404 . S
C2029 C895 1.404 . S
C2034 C730 1.244 . S
C2059 C991 1.404 . S
C2064 C826 1.244 . S
