# Generated by pormake.
# Topology unn, (4)-cn, num edge types: 1
# Building blocks:
#     Node 0, Type 0, BuildingBlock: QUQFOY_clean_sbu_1, # of connection points: 4
#     Node 1, Type 0, BuildingBlock: QUQFOY_clean_sbu_1, # of connection points: 4
#     Node 2, Type 0, BuildingBlock: QUQFOY_clean_sbu_1, # of connection points: 4
#     Node 3, Type 0, BuildingBlock: QUQFOY_clean_sbu_1, # of connection points: 4
#     Node 4, Type 0, BuildingBlock: QUQFOY_clean_sbu_1, # of connection points: 4
#     Node 5, Type 0, BuildingBlock: QUQFOY_clean_sbu_1, # of connection points: 4
#     Node 6, Type 0, BuildingBlock: QUQFOY_clean_sbu_1, # of connection points: 4
#     Node 7, Type 0, BuildingBlock: QUQFOY_clean_sbu_1, # of connection points: 4
#     Node 8, Type 0, BuildingBlock: QUQFOY_clean_sbu_1, # of connection points: 4
#     Node 9, Type 0, BuildingBlock: QUQFOY_clean_sbu_1, # of connection points: 4
#     Node 10, Type 0, BuildingBlock: QUQFOY_clean_sbu_1, # of connection points: 4
#     Node 11, Type 0, BuildingBlock: QUQFOY_clean_sbu_1, # of connection points: 4
#     Node 12, Type 0, BuildingBlock: QUQFOY_clean_sbu_1, # of connection points: 4
#     Node 13, Type 0, BuildingBlock: QUQFOY_clean_sbu_1, # of connection points: 4
#     Node 14, Type 0, BuildingBlock: QUQFOY_clean_sbu_1, # of connection points: 4
#     Node 15, Type 0, BuildingBlock: QUQFOY_clean_sbu_1, # of connection points: 4
#     Node 16, Type 0, BuildingBlock: QUQFOY_clean_sbu_1, # of connection points: 4
#     Node 17, Type 0, BuildingBlock: QUQFOY_clean_sbu_1, # of connection points: 4
#     Edge 18, Type (0, 0), BuildingBlock: XUDNAN_clean_linker_2, # of connection points: 2
#     Edge 19, Type (0, 0), BuildingBlock: XUDNAN_clean_linker_2, # of connection points: 2
#     Edge 20, Type (0, 0), BuildingBlock: XUDNAN_clean_linker_2, # of connection points: 2
#     Edge 21, Type (0, 0), BuildingBlock: XUDNAN_clean_linker_2, # of connection points: 2
#     Edge 22, Type (0, 0), BuildingBlock: XUDNAN_clean_linker_2, # of connection points: 2
#     Edge 23, Type (0, 0), BuildingBlock: XUDNAN_clean_linker_2, # of connection points: 2
#     Edge 24, Type (0, 0), BuildingBlock: XUDNAN_clean_linker_2, # of connection points: 2
#     Edge 25, Type (0, 0), BuildingBlock: XUDNAN_clean_linker_2, # of connection points: 2
#     Edge 26, Type (0, 0), BuildingBlock: XUDNAN_clean_linker_2, # of connection points: 2
#     Edge 27, Type (0, 0), BuildingBlock: XUDNAN_clean_linker_2, # of connection points: 2
#     Edge 28, Type (0, 0), BuildingBlock: XUDNAN_clean_linker_2, # of connection points: 2
#     Edge 29, Type (0, 0), BuildingBlock: XUDNAN_clean_linker_2, # of connection points: 2
#     Edge 30, Type (0, 0), BuildingBlock: XUDNAN_clean_linker_2, # of connection points: 2
#     Edge 31, Type (0, 0), BuildingBlock: XUDNAN_clean_linker_2, # of connection points: 2
#     Edge 32, Type (0, 0), BuildingBlock: XUDNAN_clean_linker_2, # of connection points: 2
#     Edge 33, Type (0, 0), BuildingBlock: XUDNAN_clean_linker_2, # of connection points: 2
#     Edge 34, Type (0, 0), BuildingBlock: XUDNAN_clean_linker_2, # of connection points: 2
#     Edge 35, Type (0, 0), BuildingBlock: XUDNAN_clean_linker_2, # of connection points: 2
#     Edge 36, Type (0, 0), BuildingBlock: XUDNAN_clean_linker_2, # of connection points: 2
#     Edge 37, Type (0, 0), BuildingBlock: XUDNAN_clean_linker_2, # of connection points: 2
#     Edge 38, Type (0, 0), BuildingBlock: XUDNAN_clean_linker_2, # of connection points: 2
#     Edge 39, Type (0, 0), BuildingBlock: XUDNAN_clean_linker_2, # of connection points: 2
#     Edge 40, Type (0, 0), BuildingBlock: XUDNAN_clean_linker_2, # of connection points: 2
#     Edge 41, Type (0, 0), BuildingBlock: XUDNAN_clean_linker_2, # of connection points: 2
#     Edge 42, Type (0, 0), BuildingBlock: XUDNAN_clean_linker_2, # of connection points: 2
#     Edge 43, Type (0, 0), BuildingBlock: XUDNAN_clean_linker_2, # of connection points: 2
#     Edge 44, Type (0, 0), BuildingBlock: XUDNAN_clean_linker_2, # of connection points: 2
#     Edge 45, Type (0, 0), BuildingBlock: XUDNAN_clean_linker_2, # of connection points: 2
#     Edge 46, Type (0, 0), BuildingBlock: XUDNAN_clean_linker_2, # of connection points: 2
#     Edge 47, Type (0, 0), BuildingBlock: XUDNAN_clean_linker_2, # of connection points: 2
#     Edge 48, Type (0, 0), BuildingBlock: XUDNAN_clean_linker_2, # of connection points: 2
#     Edge 49, Type (0, 0), BuildingBlock: XUDNAN_clean_linker_2, # of connection points: 2
#     Edge 50, Type (0, 0), BuildingBlock: XUDNAN_clean_linker_2, # of connection points: 2
#     Edge 51, Type (0, 0), BuildingBlock: XUDNAN_clean_linker_2, # of connection points: 2
#     Edge 52, Type (0, 0), BuildingBlock: XUDNAN_clean_linker_2, # of connection points: 2
#     Edge 53, Type (0, 0), BuildingBlock: XUDNAN_clean_linker_2, # of connection points: 2
# Relax obj value: 0.137
# Max RMSD: 0.241
# Mean RMSD: 0.197
data_MOF--net-unn--node1-QUQFOY_clean_sbu_1--edge1-XUDNAN_clean_linker_2
_symmetry_space_group_name_H-M    P1
_symmetry_Int_Tables_number       1
_symmetry_cell_setting            triclinic
loop_
_symmetry_equiv_pos_as_xyz
'x, y, z'
_cell_length_a     45.175666
_cell_length_b     46.417979
_cell_length_c     40.468105
_cell_angle_alpha  90.70335
_cell_angle_beta   87.790998
_cell_angle_gamma 121.56319
loop_
_atom_site_label
_atom_site_type_symbol
_atom_site_fract_x
_atom_site_fract_y
_atom_site_fract_z
_atom_type_partial_charge
O0 O 0.0714 0.76724 0.26219 0.0
Cd1 Cd 1.02717 0.72256 0.25107 0.0
Cd2 Cd 1.00606 0.7628 0.24123 0.0
O3 O 1.04082 0.78939 0.27889 0.0
O4 O 1.03038 0.68777 0.27614 0.0
O5 O 0.9946 0.7056 0.29012 0.0
C6 C 1.00926 0.68913 0.29769 0.0
C7 C 0.94562 0.73691 0.24078 0.0
C8 C 0.06875 0.78883 0.27955 0.0
C9 C 1.02203 0.73521 0.18286 0.0
O10 O 1.02652 0.76261 0.19486 0.0
O11 O 1.01502 0.71081 0.20211 0.0
O12 O 0.96573 0.76905 0.23521 0.0
O13 O 0.95982 0.7204 0.24966 0.0
O14 O 0.46708 0.27336 0.20784 0.0
Cd15 Cd 0.4628 0.31506 0.21035 0.0
Cd16 Cd 0.40576 0.27462 0.24604 0.0
O17 O 0.40989 0.24098 0.21265 0.0
O18 O 0.47726 0.34182 0.16735 0.0
O19 O 0.4228 0.30609 0.18393 0.0
C20 C 0.44446 0.32642 0.16156 0.0
C21 C 0.36559 0.29199 0.25509 0.0
C22 C 0.4394 0.24485 0.20412 0.0
C23 C 0.46275 0.32537 0.2825 0.0
O24 O 0.43997 0.29397 0.28321 0.0
O25 O 0.47317 0.34119 0.25491 0.0
O26 O 0.35878 0.263 0.26618 0.0
O27 O 0.39287 0.3088 0.23599 0.0
O28 O 0.84508 0.14202 0.22801 0.0
Cd29 Cd 0.80665 0.0918 0.23507 0.0
Cd30 Cd 0.8447 0.10446 0.28851 0.0
O31 O 0.88424 0.14481 0.26116 0.0
O32 O 0.78431 0.07529 0.19133 0.0
O33 O 0.81736 0.05907 0.2135 0.0
C34 C 0.79954 0.05827 0.18897 0.0
C35 C 0.83184 0.0515 0.3061 0.0
C36 C 0.87582 0.15783 0.23856 0.0
C37 C 0.77671 0.09266 0.30166 0.0
O38 O 0.80812 0.11324 0.30865 0.0
O39 O 0.76984 0.07678 0.27438 0.0
O40 O 0.85348 0.07817 0.32222 0.0
O41 O 0.82203 0.05572 0.27794 0.0
O42 O 0.07771 0.32116 0.76518 0.0
Cd43 Cd 0.04305 0.32772 0.74045 0.0
Cd44 Cd 1.00993 0.26099 0.74015 0.0
O45 O 0.0429 0.26753 0.77883 0.0
O46 O 0.05431 0.37301 0.7563 0.0
O47 O 1.00463 0.32545 0.76868 0.0
C48 C 1.02538 0.35737 0.77348 0.0
C49 C 0.94914 0.23054 0.74031 0.0
C50 C 0.07145 0.29562 0.78211 0.0
C51 C 1.04016 0.29817 0.67548 0.0
O52 O 1.03033 0.27137 0.69214 0.0
O53 O 0.0441 0.32452 0.68963 0.0
O54 O 0.96621 0.21526 0.73798 0.0
O55 O 0.96646 0.26261 0.74595 0.0
O56 O 0.82083 0.64108 0.7216 0.0
Cd57 Cd 0.78766 0.65881 0.72011 0.0
Cd58 Cd 0.8318 0.69921 0.76176 0.0
O59 O 0.86649 0.68998 0.73451 0.0
O60 O 0.76329 0.64145 0.67766 0.0
O61 O 0.80099 0.69571 0.68679 0.0
C62 C 0.7812 0.67222 0.6667 0.0
C63 C 0.82394 0.74488 0.76806 0.0
C64 C 0.85356 0.65991 0.72373 0.0
C65 C 0.76507 0.64867 0.78944 0.0
O66 O 0.79732 0.66117 0.79339 0.0
O67 O 0.75457 0.64986 0.76102 0.0
O68 O 0.84712 0.74359 0.78475 0.0
O69 O 0.80912 0.72288 0.74507 0.0
O70 O 0.3488 0.03094 0.75175 0.0
Cd71 Cd 0.39606 0.0673 0.73198 0.0
Cd72 Cd 0.36899 0.10231 0.74236 0.0
O73 O 0.3501 0.0697 0.78408 0.0
O74 O 0.42877 0.05393 0.74663 0.0
O75 O 0.42763 0.09849 0.76572 0.0
C76 C 0.43877 0.07803 0.7679 0.0
C77 C 0.40152 0.16144 0.74014 0.0
C78 C 0.33965 0.03872 0.77874 0.0
C79 C 0.37158 0.08068 0.67419 0.0
O80 O 0.35153 0.08258 0.69589 0.0
O81 O 0.39805 0.08033 0.68325 0.0
O82 O 0.36817 0.14509 0.74541 0.0
O83 O 0.41665 0.14431 0.73939 0.0
O84 O 0.73245 0.08119 0.60857 0.0
Cd85 Cd 0.69001 0.0361 0.59478 0.0
Cd86 Cd 0.66783 0.07546 0.58733 0.0
O87 O 0.70153 0.10292 0.62529 0.0
O88 O 0.69953 1.00316 0.61494 0.0
O89 O 0.65687 1.01055 0.6326 0.0
C90 C 0.67572 0.99758 0.6371 0.0
C91 C 0.60765 0.04935 0.58437 0.0
C92 C 0.72967 0.10277 0.62577 0.0
C93 C 0.68682 0.05249 0.5272 0.0
O94 O 0.68988 0.07866 0.54089 0.0
O95 O 0.6803 1.02727 0.54496 0.0
O96 O 0.6279 0.08171 0.58048 0.0
O97 O 0.62135 0.03247 0.59373 0.0
O98 O 0.04182 0.63798 0.59945 0.0
Cd99 Cd 0.08771 0.6476 0.57808 0.0
Cd100 Cd 0.04789 0.58562 0.5592 0.0
O101 O 1.01487 0.58252 0.59898 0.0
O102 O 0.12039 0.68763 0.60361 0.0
O103 O 0.11681 0.63835 0.60735 0.0
C104 C 0.12833 0.66842 0.6187 0.0
C105 C 0.06318 0.54631 0.54277 0.0
C106 C 1.01637 0.60948 0.60887 0.0
C107 C 0.07074 0.64223 0.50979 0.0
O108 O 0.0482 0.61207 0.51845 0.0
O109 O 0.09416 0.66179 0.52935 0.0
O110 O 1.03195 0.54011 0.54039 0.0
O111 O 0.08511 0.5735 0.55798 0.0
O112 O 0.45626 0.36307 0.5992 0.0
Cd113 Cd 0.44849 0.39671 0.575 0.0
Cd114 Cd 0.51999 0.4346 0.5746 0.0
O115 O 0.51078 0.39913 0.61207 0.0
O116 O 0.40465 0.3925 0.59437 0.0
O117 O 0.45801 0.43473 0.60396 0.0
C118 C 0.42512 0.41928 0.61094 0.0
C119 C 0.55202 0.4941 0.57695 0.0
C120 C 0.48267 0.37024 0.61563 0.0
C121 C 0.48441 0.40744 0.50977 0.0
O122 O 0.51163 0.41835 0.52627 0.0
O123 O 0.45561 0.39997 0.52408 0.0
O124 O 0.56766 0.47754 0.57323 0.0
O125 O 0.51884 0.47686 0.58217 0.0
O126 O 0.73581 0.66313 0.0988 0.0
Cd127 Cd 0.69353 0.66296 0.08201 0.0
Cd128 Cd 0.66722 0.59898 0.08295 0.0
O129 O 0.70106 0.61356 0.12243 0.0
O130 O 0.69605 0.70452 0.09976 0.0
O131 O 0.6605 0.65264 0.11993 0.0
C132 C 0.67433 0.68486 0.12271 0.0
C133 C 0.60653 0.56899 0.0825 0.0
C134 C 0.73048 0.64126 0.12057 0.0
C135 C 0.68591 0.63026 0.01845 0.0
O136 O 0.68865 0.60904 0.03559 0.0
O137 O 0.68101 0.65207 0.03281 0.0
O138 O 0.62278 0.55311 0.08559 0.0
O139 O 0.62447 0.60158 0.08266 0.0
O140 O 0.50362 0.99003 0.04644 0.0
Cd141 Cd 0.4702 1.00696 0.04429 0.0
Cd142 Cd 0.51614 0.05276 0.08414 0.0
O143 O 0.54935 0.03971 0.05853 0.0
O144 O 0.44736 0.99622 0.00019 0.0
O145 O 0.48872 0.04735 0.01502 0.0
C146 C 0.46807 0.02788 0.99281 0.0
C147 C 0.50986 0.09956 0.09063 0.0
C148 C 0.53627 1.00907 0.04914 0.0
C149 C 0.45033 1.00183 0.11479 0.0
O150 O 0.48296 1.01801 0.11829 0.0
O151 O 0.43799 0.99783 0.08615 0.0
O152 O 0.53364 0.09822 0.10622 0.0
O153 O 0.49374 0.0771 0.06838 0.0
O154 O 1.0112 0.36121 0.08373 0.0
Cd155 Cd 0.05839 0.39877 0.06472 0.0
Cd156 Cd 1.02954 0.43193 0.07269 0.0
O157 O 1.01038 0.39983 0.11467 0.0
O158 O 0.09241 0.38868 0.08241 0.0
O159 O 0.08735 0.43194 0.09864 0.0
C160 C 0.09999 0.41295 0.10299 0.0
C161 C 0.05366 0.49046 0.07013 0.0
C162 C 1.00076 0.36896 0.10992 0.0
C163 C 1.03465 0.4094 0.00525 0.0
O164 O 1.01388 0.41115 0.02614 0.0
O165 O 0.0614 0.41025 0.01535 0.0
O166 O 1.02059 0.46969 0.07474 0.0
O167 O 0.07357 0.4782 0.07047 0.0
O168 O 0.41923 0.46649 0.92695 0.0
Cd169 Cd 0.40094 0.42006 0.90674 0.0
Cd170 Cd 0.34197 0.41968 0.91106 0.0
O171 O 0.36939 0.4429 0.9545 0.0
O172 O 0.42644 0.40107 0.92712 0.0
O173 O 0.37032 0.38179 0.93726 0.0
C174 C 0.39802 0.38178 0.94427 0.0
C175 C 0.28163 0.38436 0.90916 0.0
C176 C 0.40194 0.46471 0.95299 0.0
C177 C 0.37977 0.42862 0.84435 0.0
O178 O 0.36121 0.43609 0.86266 0.0
O179 O 0.39629 0.41651 0.85697 0.0
O180 O 0.29634 0.41677 0.91142 0.0
O181 O 0.30095 0.37161 0.91169 0.0
O182 O 0.77396 0.91395 0.88902 0.0
Cd183 Cd 0.76338 0.95144 0.8986 0.0
Cd184 Cd 0.71616 0.90614 0.93631 0.0
O185 O 0.71858 0.87589 0.89837 0.0
O186 O 0.77267 0.97967 0.85764 0.0
O187 O 0.72003 0.9412 0.877 0.0
C188 C 0.73936 0.96303 0.85446 0.0
C189 C 0.67138 0.91428 0.95585 0.0
C190 C 0.74837 0.88393 0.88586 0.0
C191 C 0.77373 0.95834 0.96967 0.0
O192 O 0.75587 0.92631 0.96849 0.0
O193 O 0.77594 0.97563 0.94445 0.0
O194 O 0.67109 0.88706 0.96313 0.0
O195 O 0.69529 0.93527 0.93526 0.0
O196 O 0.1946 0.81035 0.89425 0.0
Cd197 Cd 0.15643 0.76001 0.89979 0.0
Cd198 Cd 0.19259 0.77206 0.95395 0.0
O199 O 0.23303 0.81387 0.92875 0.0
O200 O 0.13498 0.74813 0.8557 0.0
O201 O 0.16549 0.72745 0.8747 0.0
C202 C 0.14908 0.73033 0.85081 0.0
C203 C 0.17801 0.71766 0.96797 0.0
C204 C 0.22483 0.82675 0.90584 0.0
C205 C 0.12383 0.76048 0.96453 0.0
O206 O 0.15493 0.77982 0.97319 0.0
O207 O 0.11778 0.74498 0.93709 0.0
O208 O 0.19876 0.74282 0.98627 0.0
O209 O 0.17036 0.72433 0.93978 0.0
O210 O 0.40955 0.99413 0.43303 0.0
Cd211 Cd 0.3748 1.00133 0.40913 0.0
Cd212 Cd 0.33976 0.9348 0.41006 0.0
O213 O 0.37211 0.94196 0.44962 0.0
O214 O 0.38671 0.0469 0.42456 0.0
O215 O 0.33736 0.9995 0.43839 0.0
C216 C 0.35825 0.03153 0.44248 0.0
C217 C 0.27916 0.90567 0.40865 0.0
C218 C 0.40177 0.96917 0.45168 0.0
C219 C 0.36853 0.96982 0.34481 0.0
O220 O 0.36011 0.94375 0.36212 0.0
O221 O 0.37272 0.99644 0.35853 0.0
O222 O 0.29541 0.88956 0.40788 0.0
O223 O 0.29703 0.93777 0.41411 0.0
O224 O 0.19233 0.34245 0.37254 0.0
Cd225 Cd 0.15048 0.34817 0.37581 0.0
Cd226 Cd 0.19242 0.39937 0.41466 0.0
O227 O 0.22859 0.39679 0.38155 0.0
O228 O 0.12477 0.33499 0.33308 0.0
O229 O 0.15954 0.38775 0.34889 0.0
C230 C 0.13991 0.36702 0.32683 0.0
C231 C 0.17469 0.43827 0.42412 0.0
C232 C 0.22295 0.36827 0.37094 0.0
C233 C 0.13523 0.34063 0.44778 0.0
O234 O 0.16758 0.36203 0.44948 0.0
O235 O 0.12076 0.33386 0.41997 0.0
O236 O 0.20261 0.44305 0.43722 0.0
O237 O 0.15991 0.41414 0.40314 0.0
O238 O 0.68596 0.70438 0.43524 0.0
Cd239 Cd 0.73114 0.7431 0.41475 0.0
Cd240 Cd 0.69686 0.77294 0.42155 0.0
O241 O 0.67397 0.73876 0.46175 0.0
O242 O 0.76255 0.7264 0.42216 0.0
O243 O 0.76571 0.76973 0.44911 0.0
C244 C 0.77443 0.74729 0.44643 0.0
C245 C 0.71853 0.83093 0.42032 0.0
C246 C 0.67031 0.70968 0.45895 0.0
C247 C 0.70586 0.75205 0.3541 0.0
O248 O 0.68497 0.75488 0.37384 0.0
O249 O 0.7317 0.7519 0.3652 0.0
O250 O 0.68557 0.80897 0.42322 0.0
O251 O 0.73958 0.82006 0.42226 0.0
H252 H 0.06227 0.78668 0.13971 0.0
H253 H 0.99324 0.6778 0.14536 0.0
H254 H 1.00389 0.67391 0.08543 0.0
H255 H 0.04413 0.79988 0.0541 0.0
H256 H 0.08916 0.83145 0.04526 0.0
H257 H 0.07101 0.82625 0.08678 0.0
H258 H 0.119 0.81739 0.1085 0.0
H259 H 0.13737 0.82289 0.06724 0.0
H260 H 0.12501 0.78504 0.09039 0.0
H261 H 1.02631 0.68163 0.02614 0.0
H262 H 0.06447 0.699 0.97559 0.0
H263 H 0.12138 0.8022 0.01053 0.0
C264 C 0.04867 0.76211 0.12814 0.0
C265 C 1.02659 0.73258 0.14692 0.0
C266 C 1.01013 0.70074 0.13124 0.0
C267 C 1.01578 0.69834 0.09721 0.0
C268 C 1.03811 0.72801 0.0794 0.0
C269 C 0.05456 0.75925 0.09449 0.0
C270 C 0.08108 0.7867 0.07129 0.0
C271 C 0.0707 0.8126 0.06392 0.0
C272 C 0.11777 0.80399 0.08518 0.0
C273 C 0.07794 0.76591 0.04113 0.0
C274 C 0.05226 0.73228 0.04583 0.0
C275 C 0.04615 0.70795 0.02202 0.0
C276 C 0.0678 0.71805 0.99332 0.0
C277 C 0.09565 0.75193 0.98927 0.0
C278 C 0.09996 0.77623 0.01295 0.0
H279 H 0.45477 0.39356 0.97776 0.0
H280 H 0.34205 0.33206 0.9797 0.0
H281 H 0.34225 0.31008 0.03489 0.0
H282 H 0.46965 0.33372 0.02277 0.0
H283 H 0.50525 0.36706 0.04483 0.0
H284 H 0.4964 0.37501 0.00399 0.0
H285 H 0.49171 0.42523 0.02665 0.0
H286 H 0.50063 0.41721 0.06739 0.0
H287 H 0.46175 0.4178 0.06088 0.0
H288 H 0.35415 0.29878 0.09128 0.0
H289 H 0.37692 0.29574 0.14449 0.0
H290 H 0.4823 0.36517 0.1068 0.0
C291 C 0.43018 0.37466 0.98933 0.0
C292 C 0.39837 0.36411 0.97423 0.0
C293 C 0.3667 0.34018 0.99065 0.0
C294 C 0.36656 0.32766 0.02204 0.0
C295 C 0.3983 0.33942 0.03667 0.0
C296 C 0.42956 0.36214 0.0208 0.0
C297 C 0.45986 0.3722 0.04285 0.0
C298 C 0.48422 0.36134 0.0277 0.0
C299 C 0.47966 0.41038 0.04983 0.0
C300 C 0.44069 0.35179 0.07374 0.0
C301 C 0.40521 0.33308 0.06953 0.0
C302 C 0.38189 0.31303 0.09477 0.0
C303 C 0.39515 0.31162 0.12499 0.0
C304 C 0.43145 0.33016 0.12985 0.0
C305 C 0.45446 0.35066 0.10385 0.0
H306 H 0.77837 0.06384 0.12782 0.0
H307 H 0.81902 1.01194 0.18087 0.0
H308 H 0.82074 0.98382 0.12931 0.0
H309 H 0.72401 0.9953 0.07386 0.0
H310 H 0.73289 1.02243 0.03865 0.0
H311 H 0.73459 0.03819 0.07984 0.0
H312 H 0.79757 0.0877 0.06692 0.0
H313 H 0.79618 0.07179 0.02581 0.0
H314 H 0.83016 0.07866 0.0527 0.0
H315 H 0.81583 0.95958 0.07292 0.0
H316 H 0.80372 0.94015 0.01512 0.0
H317 H 0.76979 1.0102 -0.00246 0.0
C318 C 0.78738 0.04636 0.12863 0.0
C319 C 0.79841 0.03994 0.15841 0.0
C320 C 0.8104 1.0172 0.15836 0.0
C321 C 0.81157 1.00119 0.12919 0.0
C322 C 0.80101 1.00843 0.10018 0.0
C323 C 0.7891 0.03043 0.09961 0.0
C324 C 0.77922 0.03371 0.06506 0.0
C325 C 0.74038 1.02168 0.06432 0.0
C326 C 0.80216 0.07013 0.05185 0.0
C327 C 0.78711 1.00983 0.0464 0.0
C328 C 0.79961 0.9955 0.06719 0.0
C329 C 0.80657 0.97098 0.05627 0.0
C330 C 0.79977 0.9602 0.02345 0.0
C331 C 0.78668 0.9743 0.00184 0.0
C332 C 0.78093 0.99989 0.0133 0.0
H333 H 0.72563 0.10646 0.48615 0.0
H334 H 0.65849 0.99726 0.48667 0.0
H335 H 0.66643 0.99706 0.42574 0.0
H336 H 0.70186 0.12385 0.40594 0.0
H337 H 0.74601 0.15661 0.39537 0.0
H338 H 0.73092 0.14858 0.43807 0.0
H339 H 0.78119 0.13971 0.4521 0.0
H340 H 0.79663 0.14823 0.40966 0.0
H341 H 0.78675 0.10926 0.42906 0.0
H342 H 0.68453 1.00886 0.36506 0.0
H343 H 0.71838 0.03011 0.31218 0.0
H344 H 0.77638 0.13097 0.35283 0.0
C345 C 0.71207 0.08256 0.47336 0.0
C346 C 0.69114 0.05191 0.49093 0.0
C347 C 0.67458 1.02103 0.47353 0.0
C348 C 0.67867 1.02072 0.43896 0.0
C349 C 0.69958 0.05149 0.42232 0.0
C350 C 0.7164 0.08178 0.43908 0.0
C351 C 0.74084 0.11087 0.41627 0.0
C352 C 0.72919 0.13648 0.41377 0.0
C353 C 0.77857 0.12799 0.42743 0.0
C354 C 0.73592 0.09216 0.38416 0.0
C355 C 0.71127 0.05809 0.38784 0.0
C356 C 0.70366 0.03552 0.36184 0.0
C357 C 0.72287 0.04785 0.33182 0.0
C358 C 0.74997 0.08216 0.32853 0.0
C359 C 0.75557 0.10469 0.35463 0.0
H360 H 0.06547 0.61919 0.44649 0.0
H361 H 0.06064 0.69442 0.50701 0.0
H362 H 1.0383 0.71013 0.46002 0.0
H363 H 0.09618 0.67212 0.37091 0.0
H364 H 0.07269 0.63634 0.34422 0.0
H365 H 0.08799 0.6312 0.38284 0.0
H366 H 1.02513 0.58353 0.39943 0.0
H367 H 1.00949 0.58928 0.36128 0.0
H368 H 0.99067 0.59232 0.40027 0.0
H369 H 1.01123 0.71343 0.40889 0.0
H370 H 0.99593 0.71606 0.35181 0.0
H371 H 1.02446 0.64334 0.32188 0.0
C372 C 0.06037 0.63944 0.44944 0.0
C373 C 0.06483 0.65585 0.48003 0.0
C374 C 0.0578 0.68206 0.48344 0.0
C375 C 0.04469 0.69077 0.45711 0.0
C376 C 1.03955 0.67345 0.42748 0.0
C377 C 0.04836 0.64925 0.42304 0.0
C378 C 0.04241 0.63618 0.38792 0.0
C379 C 0.07687 0.64447 0.37044 0.0
C380 C 1.01531 0.59806 0.38721 0.0
C381 C 1.02843 0.65651 0.3735 0.0
C382 C 1.02615 0.67713 0.39707 0.0
C383 C 1.01327 0.69772 0.39008 0.0
C384 C 1.00421 0.69868 0.35763 0.0
C385 C 1.00896 0.67984 0.33243 0.0
C386 C 1.02036 0.65782 0.3407 0.0
H387 H 0.43385 0.35953 0.47088 0.0
H388 H 0.54056 0.44403 0.46793 0.0
H389 H 0.5463 0.4339 0.40857 0.0
H390 H 0.44992 0.30618 0.42065 0.0
H391 H 0.40931 0.28701 0.39998 0.0
H392 H 0.41221 0.30309 0.44119 0.0
H393 H 0.38993 0.3411 0.42141 0.0
H394 H 0.38669 0.32491 0.38016 0.0
H395 H 0.41211 0.36982 0.38709 0.0
H396 H 0.54058 0.41389 0.34942 0.0
H397 H 0.52461 0.38323 0.29615 0.0
H398 H 0.42357 0.30946 0.33958 0.0
C399 C 0.45815 0.37627 0.45753 0.0
C400 C 0.48664 0.40277 0.4738 0.0
C401 C 0.51838 0.42364 0.4558 0.0
C402 C 0.52187 0.41815 0.4221 0.0
C403 C 0.4935 0.39143 0.40687 0.0
C404 C 0.4623 0.37071 0.42404 0.0
C405 C 0.43667 0.34227 0.40253 0.0
C406 C 0.42645 0.3076 0.41695 0.0
C407 C 0.40445 0.34468 0.3975 0.0
C408 C 0.45845 0.35002 0.37079 0.0
C409 C 0.49094 0.37878 0.37352 0.0
C410 C 0.51526 0.39121 0.34703 0.0
C411 C 0.50606 0.3737 0.31695 0.0
C412 C 0.47318 0.34376 0.31402 0.0
C413 C 0.4492 0.33192 0.34134 0.0
H414 H 0.07495 0.39915 0.8147 0.0
H415 H 0.96409 0.34715 0.80099 0.0
H416 H 0.95536 0.36232 0.85796 0.0
H417 H 0.06548 0.36463 0.89167 0.0
H418 H 0.10385 0.40087 0.9075 0.0
H419 H 0.10071 0.39281 0.86381 0.0
H420 H 0.11297 0.45364 0.85406 0.0
H421 H 0.11467 0.46071 0.89803 0.0
H422 H 0.08483 0.46579 0.8741 0.0
H423 H 0.95834 0.37682 0.91857 0.0
H424 H 0.97183 0.38652 0.97774 0.0
H425 H 0.08014 0.42309 0.95261 0.0
C426 C 0.04907 0.39254 0.82311 0.0
C427 C 1.02028 0.37308 0.80321 0.0
C428 C 0.9865 0.36293 0.81566 0.0
C429 C 0.98137 0.37136 0.84797 0.0
C430 C 1.01025 0.3893 0.86757 0.0
C431 C 0.04345 0.39964 0.85556 0.0
C432 C 0.06925 0.41306 0.88288 0.0
C433 C 0.0858 0.39157 0.88672 0.0
C434 C 0.09707 0.45054 0.87691 0.0
C435 C 0.04546 0.40845 0.91226 0.0
C436 C 1.01165 0.39532 0.9029 0.0
C437 C 0.98479 0.38744 0.92607 0.0
C438 C 0.9927 0.39295 0.95963 0.0
C439 C 1.02702 0.40547 0.96973 0.0
C440 C 0.05368 0.4135 0.94562 0.0
H441 H 0.72544 0.61279 0.98118 0.0
H442 H 0.65337 0.64729 0.97402 0.0
H443 H 0.65939 0.64753 0.91291 0.0
H444 H 0.78312 0.66621 0.91882 0.0
H445 H 0.79473 0.63666 0.90348 0.0
H446 H 0.7806 0.63445 0.94601 0.0
H447 H 0.73224 0.57166 0.93839 0.0
H448 H 0.7461 0.57381 0.89564 0.0
H449 H 0.7016 0.56054 0.90624 0.0
H450 H 0.67595 0.64694 0.8527 0.0
H451 H 0.70737 0.65307 0.79927 0.0
H452 H 0.77123 0.62251 0.84671 0.0
C453 C 0.71042 0.61974 0.96668 0.0
C454 C 0.68866 0.62966 0.9821 0.0
C455 C 0.67014 0.63955 0.9625 0.0
C456 C 0.67317 0.63947 0.92785 0.0
C457 C 0.69509 0.62976 0.91334 0.0
C458 C 0.71373 0.62049 0.93219 0.0
C459 C 0.7386 0.61502 0.91091 0.0
C460 C 0.77649 0.63955 0.92036 0.0
C461 C 0.72905 0.57806 0.91292 0.0
C462 C 0.73162 0.62336 0.87718 0.0
C463 C 0.70582 0.63095 0.87892 0.0
C464 C 0.69596 0.64075 0.85099 0.0
C465 C 0.71377 0.64396 0.82074 0.0
C466 C 0.74152 0.63807 0.81897 0.0
C467 C 0.74989 0.62687 0.84739 0.0
H468 H 0.43736 0.99292 0.93623 0.0
H469 H 0.50251 0.09428 0.97437 0.0
H470 H 0.50759 0.1181 0.91891 0.0
H471 H 0.48272 1.00816 0.85617 0.0
H472 H 0.44347 0.98219 0.83414 0.0
H473 H 0.44557 0.9727 0.87672 0.0
H474 H 0.39104 0.97578 0.89185 0.0
H475 H 0.38852 0.98514 0.84939 0.0
H476 H 0.39098 1.01342 0.88158 0.0
H477 H 0.50224 0.13129 0.86055 0.0
H478 H 0.48524 0.13251 0.8034 0.0
H479 H 0.42702 1.02296 0.80203 0.0
C480 C 0.45268 1.02011 0.93289 0.0
C481 C 0.46953 0.04172 0.95965 0.0
C482 C 0.4894 0.07719 0.95424 0.0
C483 C 0.49259 0.09099 0.92279 0.0
C484 C 0.47604 0.06903 0.89686 0.0
C485 C 0.45643 0.03436 0.90151 0.0
C486 C 0.44031 1.0165 0.86965 0.0
C487 C 0.45384 0.99353 0.85852 0.0
C488 C 0.40035 0.99653 0.87333 0.0
C489 C 0.45365 0.04658 0.8465 0.0
C490 C 0.47421 0.07666 0.8627 0.0
C491 C 0.48682 0.10792 0.84734 0.0
C492 C 0.47725 0.10843 0.81488 0.0
C493 C 0.45583 0.0779 0.79808 0.0
C494 C 0.44469 0.04667 0.81383 0.0
H495 H 0.41638 0.09566 0.62078 0.0
H496 H 0.30851 0.0592 0.64794 0.0
H497 H 0.29422 0.05097 0.5889 0.0
H498 H 0.41987 0.14009 0.54341 0.0
H499 H 0.44787 0.12835 0.52235 0.0
H500 H 0.45009 0.13476 0.56643 0.0
H501 H 0.43937 0.07484 0.57498 0.0
H502 H 0.43644 0.06775 0.53116 0.0
H503 H 0.40115 0.03883 0.55863 0.0
H504 H 0.2902 0.03727 0.52827 0.0
H505 H 0.29771 1.02204 0.47097 0.0
H506 H 0.40888 0.07351 0.48267 0.0
C507 C 0.38986 0.08646 0.61426 0.0
C508 C 0.36352 0.07796 0.63886 0.0
C509 C 0.32912 0.06598 0.62941 0.0
C510 C 0.32078 0.06133 0.59596 0.0
C511 C 0.34731 0.06959 0.57227 0.0
C512 C 0.38126 0.08238 0.58101 0.0
C513 C 0.40456 0.08728 0.55107 0.0
C514 C 0.43223 0.12486 0.54549 0.0
C515 C 0.42135 0.0659 0.55418 0.0
C516 C 0.37823 0.0741 0.52425 0.0
C517 C 0.34528 0.06396 0.5369 0.0
C518 C 0.316 0.04622 0.51778 0.0
C519 C 0.32045 0.03778 0.48528 0.0
C520 C 0.35396 0.04771 0.47219 0.0
C521 C 0.38319 0.0671 0.49158 0.0
H522 H 0.08806 0.35161 0.63695 0.0
H523 H 1.00888 0.24497 0.63334 0.0
H524 H 1.02217 0.2445 0.57352 0.0
H525 H 0.07692 0.37555 0.55474 0.0
H526 H 0.12292 0.40413 0.54713 0.0
H527 H 0.10473 0.39678 0.58877 0.0
H528 H 0.14776 0.37928 0.60641 0.0
H529 H 0.16599 0.3865 0.56484 0.0
H530 H 0.14922 0.34595 0.58452 0.0
H531 H 0.0445 0.25596 0.51369 0.0
H532 H 0.0779 0.27735 0.46022 0.0
H533 H 0.1453 0.37471 0.50502 0.0
C534 C 0.07318 0.32833 0.62341 0.0
C535 C 0.04723 0.29841 0.63955 0.0
C536 C 1.02884 0.26818 0.62129 0.0
C537 C 1.03608 0.26771 0.58733 0.0
C538 C 0.06212 0.29757 0.57216 0.0
C539 C 0.0806 0.32725 0.58969 0.0
C540 C 0.10911 0.35519 0.56823 0.0
C541 C 0.10304 0.38464 0.5645 0.0
C542 C 0.14514 0.36743 0.58181 0.0
C543 C 0.10396 0.33653 0.53603 0.0
C544 C 0.07634 0.30352 0.53849 0.0
C545 C 0.06633 0.28171 0.51153 0.0
C546 C 0.08533 0.29398 0.48134 0.0
C547 C 0.11437 0.32736 0.47884 0.0
C548 C 0.12356 0.34881 0.5065 0.0
H549 H 0.78799 0.77594 0.50812 0.0
H550 H 0.7916 0.69913 0.44887 0.0
H551 H 0.79618 0.67301 0.49935 0.0
H552 H 0.84856 0.78056 0.57345 0.0
H553 H 0.82381 0.7868 0.60565 0.0
H554 H 0.82685 0.80275 0.56448 0.0
H555 H 0.75963 0.76976 0.56372 0.0
H556 H 0.75625 0.75275 0.60435 0.0
H557 H 0.73539 0.72462 0.57038 0.0
H558 H 0.78712 0.64823 0.55565 0.0
H559 H 0.77917 0.63352 0.61513 0.0
H560 H 0.78623 0.72827 0.6387 0.0
C561 C 0.79145 0.75462 0.5056 0.0
C562 C 0.78935 0.73959 0.47447 0.0
C563 C 0.79323 0.71122 0.47237 0.0
C564 C 0.79561 0.69601 0.50097 0.0
C565 C 0.795 0.70996 0.53143 0.0
C566 C 0.79431 0.73932 0.53396 0.0
C567 C 0.79204 0.74795 0.5699 0.0
C568 C 0.82477 0.7815 0.5789 0.0
C569 C 0.75885 0.74881 0.57751 0.0
C570 C 0.79033 0.71822 0.58701 0.0
C571 C 0.79167 0.69643 0.56428 0.0
C572 C 0.78707 0.66555 0.57377 0.0
C573 C 0.78212 0.65721 0.60751 0.0
C574 C 0.78233 0.67988 0.63131 0.0
C575 C 0.78643 0.71074 0.62092 0.0
H576 H 0.43561 0.4492 0.80203 0.0
H577 H 0.32645 0.41664 0.80552 0.0
H578 H 0.327 0.41729 0.74424 0.0
H579 H 0.4598 0.50599 0.7285 0.0
H580 H 0.49105 0.49557 0.71324 0.0
H581 H 0.48242 0.49547 0.75711 0.0
H582 H 0.46759 0.43353 0.76142 0.0
H583 H 0.47629 0.43353 0.71773 0.0
H584 H 0.43476 0.40174 0.7357 0.0
H585 H 0.33773 0.41175 0.68287 0.0
H586 H 0.35922 0.40608 0.62723 0.0
H587 H 0.46261 0.44918 0.66455 0.0
C588 C 0.41204 0.44286 0.78982 0.0
C589 C 0.38099 0.43278 0.80823 0.0
C590 C 0.35056 0.42464 0.79165 0.0
C591 C 0.35064 0.42493 0.75693 0.0
C592 C 0.38164 0.43442 0.73936 0.0
C593 C 0.41196 0.44399 0.75535 0.0
C594 C 0.44154 0.45197 0.73104 0.0
C595 C 0.47041 0.48949 0.73257 0.0
C596 C 0.45585 0.4288 0.73682 0.0
C597 C 0.42286 0.444 0.69893 0.0
C598 C 0.38829 0.43379 0.70405 0.0
C599 C 0.36501 0.4208 0.67838 0.0
C600 C 0.37736 0.41766 0.64689 0.0
C601 C 0.41271 0.42806 0.64142 0.0
C602 C 0.43573 0.44224 0.66763 0.0
H603 H 0.72816 0.99414 0.66361 0.0
H604 H 0.62298 0.97091 0.68471 0.0
H605 H 0.62724 0.95786 0.74286 0.0
H606 H 0.72693 0.93189 0.721 0.0
H607 H 0.7712 0.96097 0.73205 0.0
H608 H 0.75743 0.96298 0.69139 0.0
H609 H 0.77901 1.02602 0.70042 0.0
H610 H 0.79195 1.02434 0.74149 0.0
H611 H 0.76209 0.03832 0.73525 0.0
H612 H 0.64469 0.95104 0.7995 0.0
H613 H 0.67345 0.95013 0.84992 0.0
H614 H 0.76881 0.98266 0.7921 0.0
C615 C 0.70552 0.98509 0.68011 0.0
C616 C 0.67494 0.98286 0.66951 0.0
C617 C 0.64641 0.97224 0.69223 0.0
C618 C 0.64868 0.96494 0.7253 0.0
C619 C 0.67978 0.96876 0.73523 0.0
C620 C 0.70762 0.97843 0.71323 0.0
C621 C 0.73913 0.98355 0.73058 0.0
C622 C 0.74926 0.95834 0.71801 0.0
C623 C 0.76985 1.02025 0.72672 0.0
C624 C 0.72489 0.97572 0.76591 0.0
C625 C 0.69047 0.96679 0.76803 0.0
C626 C 0.67161 0.95797 0.79809 0.0
C627 C 0.68819 0.95767 0.82659 0.0
C628 C 0.72343 0.96672 0.8249 0.0
C629 C 0.74204 0.97622 0.7942 0.0
H630 H 0.13732 0.74996 0.79221 0.0
H631 H 0.16235 0.68031 0.83478 0.0
H632 H 0.16584 0.66002 0.77863 0.0
H633 H 0.08446 0.69669 0.72832 0.0
H634 H 0.10001 0.73084 0.69882 0.0
H635 H 0.09965 0.73906 0.74233 0.0
H636 H 0.16558 0.78437 0.73722 0.0
H637 H 0.16622 0.77571 0.69376 0.0
H638 H 0.19543 0.77269 0.72061 0.0
H639 H 0.16256 0.64506 0.71725 0.0
H640 H 0.15196 0.63652 0.65727 0.0
H641 H 0.13468 0.72006 0.65615 0.0
C642 C 0.14327 0.73024 0.78981 0.0
C643 C 0.14918 0.7164 0.81782 0.0
C644 C 0.15752 0.69108 0.81358 0.0
C645 C 0.15973 0.67955 0.78181 0.0
C646 C 0.15418 0.69411 0.75462 0.0
C647 C 0.14624 0.719 0.75842 0.0
C648 C 0.14124 0.73058 0.72553 0.0
C649 C 0.10415 0.72387 0.72365 0.0
C650 C 0.16876 0.76806 0.7189 0.0
C651 C 0.14691 0.70788 0.70252 0.0
C652 C 0.15431 0.68693 0.7196 0.0
C653 C 0.15742 0.66177 0.70358 0.0
C654 C 0.15157 0.65721 0.66948 0.0
C655 C 0.14308 0.67795 0.65187 0.0
C656 C 0.14201 0.7043 0.66858 0.0
H657 H 0.71858 0.71365 0.31155 0.0
H658 H 0.6771 0.77935 0.31702 0.0
H659 H 0.66449 0.77025 0.25742 0.0
H660 H 0.75734 0.73609 0.22881 0.0
H661 H 0.74488 0.69335 0.21872 0.0
H662 H 0.75289 0.70734 0.26091 0.0
H663 H 0.69137 0.65776 0.2789 0.0
H664 H 0.68319 0.64386 0.23671 0.0
H665 H 0.65385 0.65292 0.25931 0.0
H666 H 0.65885 0.75527 0.19592 0.0
H667 H 0.65551 0.73109 0.13985 0.0
H668 H 0.69435 0.6708 0.17806 0.0
C669 C 0.70724 0.72643 0.30007 0.0
C670 C 0.69917 0.7475 0.31855 0.0
C671 C 0.68355 0.76319 0.30304 0.0
C672 C 0.67641 0.75825 0.26928 0.0
C673 C 0.68444 0.73704 0.25172 0.0
C674 C 0.69915 0.72109 0.26675 0.0
C675 C 0.70332 0.69789 0.24316 0.0
C676 C 0.74189 0.70936 0.23758 0.0
C677 C 0.68163 0.66092 0.25525 0.0
C678 C 0.68874 0.70329 0.21251 0.0
C679 C 0.67854 0.7264 0.21754 0.0
C680 C 0.66619 0.7367 0.19185 0.0
C681 C 0.66428 0.72292 0.16025 0.0
C682 C 0.67369 0.69854 0.15531 0.0
C683 C 0.68593 0.68866 0.18171 0.0
H684 H 0.45874 0.04025 0.16802 0.0
H685 H 0.39235 0.93969 0.12928 0.0
H686 H 0.36077 0.92094 0.18391 0.0
H687 H 0.46908 1.01752 0.24528 0.0
H688 H 0.46769 0.05075 0.26743 0.0
H689 H 0.48218 0.05689 0.22467 0.0
H690 H 0.43548 0.0706 0.2103 0.0
H691 H 0.42102 0.06495 0.25315 0.0
H692 H 0.39049 0.04106 0.22172 0.0
H693 H 0.34311 0.91193 0.24483 0.0
H694 H 0.33557 0.91445 0.30544 0.0
H695 H 0.41116 1.02226 0.30274 0.0
C696 C 0.43704 1.01444 0.17093 0.0
C697 C 0.4278 0.99123 0.14483 0.0
C698 C 0.39943 0.95774 0.14915 0.0
C699 C 0.38155 0.94696 0.18002 0.0
C700 C 0.39202 0.97034 0.20569 0.0
C701 C 0.41861 1.0036 0.20117 0.0
C702 C 0.42576 1.02357 0.23277 0.0
C703 C 0.4634 0.03801 0.24313 0.0
C704 C 0.41769 0.0517 0.22927 0.0
C705 C 0.39994 0.99605 0.25629 0.0
C706 C 0.38074 0.96551 0.24026 0.0
C707 C 0.35742 0.93583 0.25747 0.0
C708 C 0.35352 0.93747 0.29187 0.0
C709 C 0.3726 0.96861 0.30859 0.0
C710 C 0.3958 0.99826 0.29046 0.0
H711 H 0.11127 0.33163 0.26981 0.0
H712 H 0.16243 0.43249 0.31129 0.0
H713 H 0.16198 0.45595 0.25717 0.0
H714 H 0.15624 0.35515 0.19059 0.0
H715 H 0.1188 0.32576 0.16775 0.0
H716 H 0.12242 0.31638 0.20995 0.0
H717 H 0.06275 0.30935 0.2256 0.0
H718 H 0.05869 0.31827 0.1834 0.0
H719 H 0.05567 0.34313 0.21639 0.0
H720 H 0.15448 0.46849 0.19907 0.0
H721 H 0.13823 0.46847 0.14133 0.0
H722 H 0.0951 0.3603 0.13674 0.0
C723 C 0.12212 0.3586 0.26755 0.0
C724 C 0.13687 0.38019 0.29482 0.0
C725 C 0.15101 0.4154 0.29078 0.0
C726 C 0.151 0.42903 0.26009 0.0
C727 C 0.13691 0.40719 0.23356 0.0
C728 C 0.12254 0.37271 0.23697 0.0
C729 C 0.10868 0.35484 0.20454 0.0
C730 C 0.12768 0.33698 0.19251 0.0
C731 C 0.06911 0.32993 0.20767 0.0
C732 C 0.11767 0.38467 0.18242 0.0
C733 C 0.13379 0.41464 0.19968 0.0
C734 C 0.14234 0.44527 0.18512 0.0
C735 C 0.13325 0.44509 0.15231 0.0
C736 C 0.11633 0.4146 0.13436 0.0
C737 C 0.1092 0.38421 0.14946 0.0
H738 H 0.24221 0.8465 0.37488 0.0
H739 H 0.2346 0.92895 0.4167 0.0
H740 H 0.17817 0.90681 0.39039 0.0
H741 H 0.21223 0.8488 0.29794 0.0
H742 H 0.18871 0.80377 0.29151 0.0
H743 H 0.22564 0.82297 0.31747 0.0
H744 H 0.18791 0.78319 0.36609 0.0
H745 H 0.15094 0.76343 0.34008 0.0
H746 H 0.14821 0.78109 0.37916 0.0
H747 H 0.12406 0.87746 0.35542 0.0
H748 H 0.07762 0.84338 0.31609 0.0
H749 H 0.12334 0.78257 0.29558 0.0
C750 C 0.22817 0.8593 0.37945 0.0
C751 C 0.24262 0.88918 0.39833 0.0
C752 C 0.22386 0.90577 0.4027 0.0
C753 C 0.19182 0.89343 0.38775 0.0
C754 C 0.1789 0.86454 0.36831 0.0
C755 C 0.19647 0.8476 0.36434 0.0
C756 C 0.17864 0.81876 0.34021 0.0
C757 C 0.20274 0.82391 0.31 0.0
C758 C 0.16565 0.7846 0.35742 0.0
C759 C 0.1486 0.82238 0.33082 0.0
C760 C 0.14884 0.84864 0.34748 0.0
C761 C 0.12361 0.85676 0.34237 0.0
C762 C 0.0974 0.83736 0.31989 0.0
C763 C 0.09689 0.81046 0.30246 0.0
C764 C 0.12301 0.80313 0.30817 0.0
H765 H 0.3068 0.26502 0.29675 0.0
H766 H 0.38101 0.356 0.24182 0.0
H767 H 0.35468 0.38617 0.26741 0.0
H768 H 0.23322 0.27668 0.29032 0.0
H769 H 0.21596 0.2601 0.33127 0.0
H770 H 0.24051 0.24561 0.30816 0.0
H771 H 0.28226 0.26258 0.35661 0.0
H772 H 0.25824 0.27773 0.37963 0.0
H773 H 0.30427 0.30547 0.37128 0.0
H774 H 0.32253 0.40793 0.30186 0.0
H775 H 0.28136 0.41671 0.33632 0.0
H776 H 0.2264 0.31126 0.36658 0.0
C777 C 0.31716 0.29111 0.2897 0.0
C778 C 0.34602 0.308 0.26715 0.0
C779 C 0.35885 0.34231 0.25885 0.0
C780 C 0.34421 0.35984 0.27346 0.0
C781 C 0.31642 0.34275 0.29618 0.0
C782 C 0.30256 0.30898 0.30379 0.0
C783 C 0.27214 0.29643 0.32854 0.0
C784 C 0.23846 0.26803 0.31368 0.0
C785 C 0.27969 0.28487 0.36093 0.0
C786 C 0.2711 0.32836 0.33356 0.0
C787 C 0.2972 0.35497 0.31509 0.0
C788 C 0.30181 0.38718 0.31626 0.0
C789 C 0.27851 0.39205 0.33609 0.0
C790 C 0.25066 0.36473 0.35407 0.0
C791 C 0.24737 0.33265 0.35301 0.0
H792 H 0.85393 1.01487 0.34124 0.0
H793 H 0.76256 1.01335 0.30937 0.0
H794 H 0.72486 0.96068 0.34079 0.0
H795 H 0.81545 0.92422 0.33186 0.0
H796 H 0.8364 0.91973 0.36675 0.0
H797 H 0.85681 0.95917 0.3442 0.0
H798 H 0.85998 0.99045 0.39862 0.0
H799 H 0.83909 0.95098 0.42124 0.0
H800 H 0.82072 0.97735 0.42315 0.0
H801 H 0.69682 0.90974 0.37625 0.0
H802 H 0.6785 0.85633 0.40485 0.0
H803 H 0.78647 0.88492 0.40974 0.0
C804 C 0.826 1.00326 0.34095 0.0
C805 C 0.81107 1.01824 0.32301 0.0
C806 C 0.77445 1.00222 0.32285 0.0
C807 C 0.75281 0.97245 0.34087 0.0
C808 C 0.76807 0.95832 0.35845 0.0
C809 C 0.8037 0.97251 0.358 0.0
C810 C 0.81266 0.94991 0.37664 0.0
C811 C 0.83144 0.93752 0.35348 0.0
C812 C 0.8344 0.96828 0.4067 0.0
C813 C 0.77652 0.92099 0.3874 0.0
C814 C 0.75142 0.92706 0.37728 0.0
C815 C 0.71618 0.90452 0.38414 0.0
C816 C 0.70605 0.87422 0.40064 0.0
C817 C 0.73093 0.86617 0.40959 0.0
C818 C 0.76678 0.89033 0.40346 0.0
H819 H 0.87947 0.18012 0.17589 0.0
H820 H 0.92732 0.21297 0.27077 0.0
H821 H 0.96279 0.27191 0.24923 0.0
H822 H 0.95806 0.23556 0.12624 0.0
H823 H 0.93443 0.24202 0.09525 0.0
H824 H 0.91378 0.20305 0.1186 0.0
H825 H 0.86378 0.21253 0.13638 0.0
H826 H 0.88466 0.25189 0.11367 0.0
H827 H 0.87379 0.25104 0.15712 0.0
H828 H 0.9897 0.32842 0.21752 0.0
H829 H 1.01279 0.37508 0.17619 0.0
H830 H 0.94946 0.30346 0.10178 0.0
C831 C 0.89768 0.19967 0.19206 0.0
C832 C 0.90062 0.1921 0.22503 0.0
C833 C 0.92488 0.21825 0.24536 0.0
C834 C 0.94486 0.2518 0.23341 0.0
C835 C 0.9406 0.25854 0.20095 0.0
C836 C 0.91816 0.23295 0.18038 0.0
C837 C 0.91901 0.2463 0.14621 0.0
C838 C 0.93211 0.23082 0.12004 0.0
C839 C 0.88318 0.24007 0.13788 0.0
C840 C 0.94508 0.28355 0.15073 0.0
C841 C 0.95695 0.29033 0.18256 0.0
C842 C 0.98069 0.32327 0.19251 0.0
C843 C 0.99333 0.34967 0.16904 0.0
C844 C 0.98254 0.34282 0.136 0.0
C845 C 0.95789 0.30939 0.12697 0.0
H846 H 0.78845 0.70305 0.13171 0.0
H847 H 0.7344 0.59822 0.16411 0.0
H848 H 0.78098 0.61257 0.20324 0.0
H849 H 0.87318 0.71901 0.13257 0.0
H850 H 0.89227 0.76162 0.14757 0.0
H851 H 0.85349 0.74324 0.12421 0.0
H852 H 0.82191 0.75558 0.17219 0.0
H853 H 0.86082 0.77408 0.19557 0.0
H854 H 0.8204 0.74003 0.2132 0.0
H855 H 0.8364 0.63795 0.23537 0.0
H856 H 0.89547 0.67152 0.25699 0.0
H857 H 0.91187 0.76006 0.20474 0.0
C858 C 0.78624 0.68303 0.14709 0.0
C859 C 0.75784 0.64938 0.1446 0.0
C860 C 0.75591 0.62413 0.16547 0.0
C861 C 0.78219 0.6321 0.18786 0.0
C862 C 0.80995 0.66553 0.18947 0.0
C863 C 0.81194 0.6906 0.16974 0.0
C864 C 0.84496 0.72432 0.17523 0.0
C865 C 0.86728 0.73782 0.14298 0.0
C866 C 0.83651 0.75002 0.18992 0.0
C867 C 0.86203 0.71416 0.20024 0.0
C868 C 0.84127 0.68022 0.20845 0.0
C869 C 0.85258 0.66463 0.22947 0.0
C870 C 0.8862 0.68395 0.24169 0.0
C871 C 0.90823 0.71856 0.23291 0.0
C872 C 0.89548 0.73389 0.21253 0.0
H873 H 0.49231 0.23238 0.20608 0.0
H874 H 0.39345 0.19765 0.16154 0.0
H875 H 0.40244 0.15885 0.12596 0.0
H876 H 0.53933 0.2311 0.13496 0.0
H877 H 0.56245 0.21496 0.15556 0.0
H878 H 0.54809 0.23935 0.17825 0.0
H879 H 0.51436 0.19055 0.22095 0.0
H880 H 0.52925 0.16632 0.19876 0.0
H881 H 0.48338 0.14871 0.20672 0.0
H882 H 0.42478 0.12773 0.092 0.0
H883 H 0.4531 0.09861 0.06862 0.0
H884 H 0.53591 0.15015 0.13793 0.0
C885 C 0.47233 0.21624 0.18913 0.0
C886 C 0.44214 0.21803 0.18651 0.0
C887 C 0.41656 0.19647 0.16417 0.0
C888 C 0.42163 0.17459 0.14367 0.0
C889 C 0.45211 0.1741 0.14628 0.0
C890 C 0.4766 0.19369 0.16907 0.0
C891 C 0.50654 0.18754 0.16763 0.0
C892 C 0.54115 0.22019 0.15856 0.0
C893 C 0.50848 0.17237 0.20046 0.0
C894 C 0.49548 0.16197 0.13993 0.0
C895 C 0.4642 0.15493 0.12776 0.0
C896 C 0.44906 0.13278 0.10162 0.0
C897 C 0.46561 0.11654 0.08831 0.0
C898 C 0.49689 0.122 0.10131 0.0
C899 C 0.5122 0.14549 0.12724 0.0
H900 H 0.78655 0.09935 0.63876 0.0
H901 H 0.73862 0.15773 0.66194 0.0
H902 H 0.78767 0.1948 0.69779 0.0
H903 H 0.81888 0.10256 0.71936 0.0
H904 H 0.85849 0.1061 0.70345 0.0
H905 H 0.81968 0.08419 0.68005 0.0
H906 H 0.85163 0.12286 0.62937 0.0
H907 H 0.89091 0.14461 0.65204 0.0
H908 H 0.87392 0.1681 0.634 0.0
H909 H 0.84478 0.22747 0.72872 0.0
H910 H 0.90354 0.25238 0.75093 0.0
H911 H 0.91135 0.17018 0.70872 0.0
C912 C 0.78617 0.11991 0.6513 0.0
C913 C 0.7587 0.12571 0.64731 0.0
C914 C 0.75935 0.1528 0.6645 0.0
C915 C 0.78708 0.17391 0.68498 0.0
C916 C 0.81371 0.16734 0.68828 0.0
C917 C 0.81329 0.14087 0.67189 0.0
C918 C 0.84511 0.13927 0.67875 0.0
C919 C 0.83492 0.10606 0.69649 0.0
C920 C 0.86666 0.14401 0.64664 0.0
C921 C 0.86394 0.16924 0.70136 0.0
C922 C 0.84554 0.18522 0.70664 0.0
C923 C 0.85908 0.21483 0.72505 0.0
C924 C 0.89246 0.22876 0.73767 0.0
C925 C 0.9119 0.21299 0.73203 0.0
C926 C 0.89693 0.18246 0.7142 0.0
H927 H 1.01678 0.66386 0.63601 0.0
H928 H 0.95339 0.55438 0.63067 0.0
H929 H 0.90676 0.5555 0.66395 0.0
H930 H 0.9893 0.67212 0.72019 0.0
H931 H 0.99009 0.71024 0.71013 0.0
H932 H 1.0193 0.70039 0.68851 0.0
H933 H 0.99595 0.70494 0.63256 0.0
H934 H 0.96666 0.71472 0.65394 0.0
H935 H 0.94996 0.67959 0.6259 0.0
H936 H 0.86564 0.56918 0.69382 0.0
H937 H 0.83273 0.5936 0.71767 0.0
H938 H 0.9233 0.69458 0.70371 0.0
C939 C 0.99331 0.63996 0.64208 0.0
C940 C 0.9888 0.60893 0.63065 0.0
C941 C 0.95753 0.57841 0.63919 0.0
C942 C 0.93095 0.57883 0.65811 0.0
C943 C 0.93618 0.60996 0.66849 0.0
C944 C 0.96668 0.63995 0.66087 0.0
C945 C 0.96529 0.67018 0.67346 0.0
C946 C 0.99262 0.68936 0.69963 0.0
C947 C 0.96972 0.69373 0.64475 0.0
C948 C 0.92877 0.65264 0.68875 0.0
C949 C 0.91259 0.61788 0.68583 0.0
C950 C 0.8782 0.5963 0.6965 0.0
C951 C 0.85969 0.6105 0.70996 0.0
C952 C 0.87542 0.64607 0.71271 0.0
C953 C 0.91068 0.66733 0.70244 0.0
H954 H 0.37506 0.19861 0.71832 0.0
H955 H 0.4723 0.20558 0.73777 0.0
H956 H 0.50475 0.26284 0.7125 0.0
H957 H 0.39968 0.23357 0.64002 0.0
H958 H 0.37672 0.25573 0.64235 0.0
H959 H 0.3615 0.21818 0.66688 0.0
H960 H 0.36484 0.25113 0.72019 0.0
H961 H 0.37973 0.28879 0.69574 0.0
H962 H 0.40501 0.28941 0.72942 0.0
H963 H 0.52642 0.31802 0.68001 0.0
H964 H 0.53443 0.36393 0.64275 0.0
H965 H 0.42256 0.31818 0.64293 0.0
C966 C 0.40319 0.2126 0.71833 0.0
C967 C 0.42112 0.19779 0.73055 0.0
C968 C 0.45798 0.21657 0.72896 0.0
C969 C 0.47665 0.24913 0.71461 0.0
C970 C 0.4581 0.26256 0.70179 0.0
C971 C 0.42213 0.24482 0.70367 0.0
C972 C 0.4081 0.26308 0.68525 0.0
C973 C 0.38517 0.24134 0.65696 0.0
C974 C 0.38825 0.27374 0.70908 0.0
C975 C 0.44166 0.29348 0.67209 0.0
C976 C 0.47035 0.29321 0.68223 0.0
C977 C 0.50407 0.31853 0.67215 0.0
C978 C 0.50842 0.34451 0.65099 0.0
C979 C 0.47918 0.34459 0.63969 0.0
C980 C 0.44552 0.31883 0.65085 0.0
H981 H 0.29342 0.97186 0.7698 0.0
H982 H 0.34807 0.04556 0.84593 0.0
H983 H 0.32704 0.99908 0.88722 0.0
H984 H 0.21765 0.91397 0.82193 0.0
H985 H 0.2129 0.87721 0.80131 0.0
H986 H 0.23137 0.91665 0.77907 0.0
H987 H 0.28587 0.91353 0.76365 0.0
H988 H 0.26793 0.87452 0.78656 0.0
H989 H 0.31014 0.91001 0.79605 0.0
H990 H 0.30385 0.94272 0.91895 0.0
H991 H 0.27177 0.88339 0.9399 0.0
H992 H 0.23105 0.84843 0.84267 0.0
C993 C 0.30045 0.97827 0.7953 0.0
C994 C 0.32214 1.01227 0.80476 0.0
C995 C 0.33096 1.01968 0.8383 0.0
C996 C 0.31951 0.99342 0.86179 0.0
C997 C 0.29911 0.96 0.85132 0.0
C998 C 0.28899 0.95254 0.81896 0.0
C999 C 0.26642 0.91483 0.8138 0.0
C1000 C 0.22992 0.9051 0.80343 0.0
C1001 C 0.28363 0.90252 0.78852 0.0
C1002 C 0.2655 0.90202 0.84821 0.0
C1003 C 0.2849 0.92826 0.86953 0.0
C1004 C 0.28831 0.92208 0.90248 0.0
C1005 C 0.27035 0.88834 0.91411 0.0
C1006 C 0.24897 0.86142 0.8929 0.0
C1007 C 0.24715 0.86853 0.85947 0.0
H1008 H 0.12485 0.35536 0.80388 0.0
H1009 H 0.07781 0.24696 0.81502 0.0
H1010 H 0.12425 0.25714 0.85307 0.0
H1011 H 0.21224 0.37623 0.80174 0.0
H1012 H 0.22757 0.4154 0.82348 0.0
H1013 H 0.1898 0.39871 0.79884 0.0
H1014 H 0.15583 0.40178 0.84941 0.0
H1015 H 0.19198 0.41622 0.8758 0.0
H1016 H 0.15099 0.3785 0.88671 0.0
H1017 H 0.18043 0.28084 0.88636 0.0
H1018 H 0.23784 0.31483 0.91195 0.0
H1019 H 0.24406 0.40673 0.88013 0.0
C1020 C 0.124 0.33356 0.81433 0.0
C1021 C 0.09768 0.30027 0.80623 0.0
C1022 C 0.09766 0.27267 0.82083 0.0
C1023 C 0.12395 0.27827 0.84246 0.0
C1024 C 0.14976 0.31158 0.84952 0.0
C1025 C 0.14965 0.33867 0.83592 0.0
C1026 C 0.1806 0.37207 0.84609 0.0
C1027 C 0.20392 0.39174 0.81574 0.0
C1028 C 0.16911 0.39335 0.86572 0.0
C1029 C 0.19832 0.35981 0.86778 0.0
C1030 C 0.18055 0.32488 0.86935 0.0
C1031 C 0.19407 0.30817 0.88574 0.0
C1032 C 0.22666 0.32766 0.90028 0.0
C1033 C 0.24514 0.36348 0.8987 0.0
C1034 C 0.23022 0.37947 0.88272 0.0
H1035 H 0.85189 0.79913 0.81115 0.0
H1036 H 0.76356 0.73873 0.74968 0.0
H1037 H 0.73458 0.7671 0.77348 0.0
H1038 H 0.80534 0.80013 0.88249 0.0
H1039 H 0.83555 0.84353 0.89306 0.0
H1040 H 0.85069 0.81984 0.87023 0.0
H1041 H 0.87647 0.86525 0.82366 0.0
H1042 H 0.86193 0.88938 0.84661 0.0
H1043 H 0.84899 0.87725 0.80466 0.0
H1044 H 0.71198 0.79721 0.80854 0.0
H1045 H 0.70186 0.83435 0.84558 0.0
H1046 H 0.80629 0.879 0.8809 0.0
C1047 C 0.8268 0.79241 0.80219 0.0
C1048 C 0.81014 0.76667 0.77842 0.0
C1049 C 0.77713 0.75852 0.76759 0.0
C1050 C 0.76024 0.77433 0.78117 0.0
C1051 C 0.77686 0.79883 0.80519 0.0
C1052 C 0.80979 0.80853 0.81501 0.0
C1053 C 0.82191 0.83594 0.841 0.0
C1054 C 0.82877 0.82414 0.87362 0.0
C1055 C 0.85424 0.86891 0.82821 0.0
C1056 C 0.79043 0.83959 0.84463 0.0
C1057 C 0.76453 0.81758 0.82408 0.0
C1058 C 0.73229 0.81496 0.82435 0.0
C1059 C 0.72664 0.83592 0.84564 0.0
C1060 C 0.75331 0.85964 0.86591 0.0
C1061 C 0.78554 0.86131 0.8654 0.0
H1062 H 0.61485 0.53453 0.54436 0.0
H1063 H 0.52898 0.53665 0.59338 0.0
H1064 H 0.5532 0.59513 0.57327 0.0
H1065 H 0.68272 0.62681 0.55502 0.0
H1066 H 0.70201 0.62906 0.5146 0.0
H1067 H 0.68165 0.59016 0.53814 0.0
H1068 H 0.64215 0.55861 0.48914 0.0
H1069 H 0.662 0.59736 0.46568 0.0
H1070 H 0.61553 0.57321 0.4731 0.0
H1071 H 0.58346 0.65147 0.54203 0.0
H1072 H 0.61674 0.69944 0.50246 0.0
H1073 H 0.6806 0.6585 0.47255 0.0
C1074 C 0.60188 0.54775 0.55195 0.0
C1075 C 0.57026 0.53113 0.57082 0.0
C1076 C 0.55344 0.54897 0.57924 0.0
C1077 C 0.56701 0.58225 0.56792 0.0
C1078 C 0.59751 0.59747 0.5482 0.0
C1079 C 0.61491 0.58086 0.54057 0.0
C1080 C 0.64506 0.60124 0.51618 0.0
C1081 C 0.67992 0.61248 0.53193 0.0
C1082 C 0.64091 0.58142 0.48414 0.0
C1083 C 0.64101 0.63113 0.51026 0.0
C1084 C 0.61399 0.62903 0.52941 0.0
C1085 C 0.60489 0.65348 0.52715 0.0
C1086 C 0.62382 0.68059 0.50459 0.0
C1087 C 0.65094 0.68252 0.48416 0.0
C1088 C 0.65972 0.65759 0.48752 0.0
H1089 H 0.57725 0.07558 0.5481 0.0
H1090 H 0.55623 0.9825 0.5941 0.0
H1091 H 0.49911 0.9515 0.56792 0.0
H1092 H 0.48737 0.05783 0.55117 0.0
H1093 H 0.49362 0.07742 0.5112 0.0
H1094 H 0.52987 0.09189 0.5376 0.0
H1095 H 0.56325 0.08165 0.48981 0.0
H1096 H 0.52653 0.06622 0.46391 0.0
H1097 H 0.54421 0.04016 0.47197 0.0
H1098 H 0.44536 0.92995 0.53227 0.0
H1099 H 0.40139 0.92075 0.49164 0.0
H1100 H 0.46017 0.02811 0.46845 0.0
C1101 C 0.56026 0.04887 0.55355 0.0
C1102 C 0.57111 0.03162 0.57362 0.0
C1103 C 0.54837 0.9964 0.57917 0.0
C1104 C 0.51588 0.97854 0.5643 0.0
C1105 C 0.50648 0.9962 0.54379 0.0
C1106 C 0.52807 0.03067 0.5386 0.0
C1107 C 0.51354 0.04352 0.51357 0.0
C1108 C 0.5056 0.06917 0.52935 0.0
C1109 C 0.53836 0.05877 0.48302 0.0
C1110 C 0.48052 1.01095 0.50519 0.0
C1111 C 0.47656 0.98385 0.52293 0.0
C1112 C 0.44819 0.9511 0.51842 0.0
C1113 C 0.42336 0.94606 0.49524 0.0
C1114 C 0.42728 0.97356 0.47659 0.0
C1115 C 0.45629 1.00635 0.48201 0.0
H1116 H 0.1913 0.48419 0.47562 0.0
H1117 H 0.11627 0.43144 0.39958 0.0
H1118 H 0.07966 0.45158 0.42345 0.0
H1119 H 0.13034 0.46869 0.54171 0.0
H1120 H 0.1552 0.50982 0.56017 0.0
H1121 H 0.17709 0.49258 0.53686 0.0
H1122 H 0.20732 0.54557 0.49873 0.0
H1123 H 0.18599 0.56323 0.52228 0.0
H1124 H 0.1813 0.55841 0.47818 0.0
H1125 H 0.04816 0.47207 0.45771 0.0
H1126 H 1.02788 0.50093 0.49488 0.0
H1127 H 0.12399 0.54511 0.54751 0.0
C1128 C 0.16756 0.47754 0.46359 0.0
C1129 C 0.15677 0.45609 0.43564 0.0
C1130 C 0.12527 0.44775 0.42093 0.0
C1131 C 0.10408 0.45892 0.43443 0.0
C1132 C 0.11475 0.47891 0.46252 0.0
C1133 C 0.14608 0.48894 0.47657 0.0
C1134 C 0.15118 0.51108 0.50652 0.0
C1135 C 0.15359 0.49455 0.53819 0.0
C1136 C 0.18336 0.54669 0.5011 0.0
C1137 C 0.11778 0.51169 0.507 0.0
C1138 C 0.09701 0.49236 0.48165 0.0
C1139 C 0.06436 0.48767 0.4774 0.0
C1140 C 0.05295 0.50403 0.49891 0.0
C1141 C 0.07428 0.52544 0.52418 0.0
C1142 C 0.10706 0.52898 0.52845 0.0
H1143 H 0.45838 0.52798 0.95968 0.0
H1144 H 0.39212 0.43361 0.01259 0.0
H1145 H 0.43511 0.45245 0.05637 0.0
H1146 H 0.5352 0.53455 0.97179 0.0
H1147 H 0.56076 0.57964 0.97759 0.0
H1148 H 0.52237 0.56153 0.95376 0.0
H1149 H 0.49705 0.5894 0.99176 0.0
H1150 H 0.53575 0.60821 0.01546 0.0
H1151 H 0.49365 0.58249 0.03584 0.0
H1152 H 0.49174 0.47653 0.08697 0.0
H1153 H 0.5522 0.50785 0.10645 0.0
H1154 H 0.57858 0.5886 0.03674 0.0
C1155 C 0.45228 0.51201 0.98128 0.0
C1156 C 0.42168 0.47969 0.98315 0.0
C1157 C 0.41495 0.45888 0.01119 0.0
C1158 C 0.43947 0.46923 0.03596 0.0
C1159 C 0.47022 0.50072 0.03264 0.0
C1160 C 0.47612 0.52226 0.00648 0.0
C1161 C 0.51195 0.55388 0.00739 0.0
C1162 C 0.53384 0.55758 0.97577 0.0
C1163 C 0.50944 0.58536 0.01296 0.0
C1164 C 0.52593 0.54622 0.03725 0.0
C1165 C 0.50167 0.51537 0.05148 0.0
C1166 C 0.51049 0.50119 0.07671 0.0
C1167 C 0.54484 0.51904 0.08759 0.0
C1168 C 0.5696 0.55101 0.07376 0.0
C1169 C 0.55974 0.56479 0.04863 0.0
H1170 H 0.67186 0.97376 0.95181 0.0
H1171 H 0.61701 0.87478 -0.00081 0.0
H1172 H 0.58006 0.8907 0.03104 0.0
H1173 H 0.67151 1.0207 0.02375 0.0
H1174 H 0.66504 0.0498 0.00064 0.0
H1175 H 0.68743 0.03092 0.98139 0.0
H1176 H 0.64363 1.00794 0.93429 0.0
H1177 H 0.62139 1.02708 0.95319 0.0
H1178 H 0.59771 0.98246 0.94454 0.0
H1179 H 0.54858 0.91645 0.05694 0.0
H1180 H 0.52155 0.94911 0.07306 0.0
H1181 H 0.59693 0.03256 0.01038 0.0
C1182 C 0.65187 0.9553 0.96868 0.0
C1183 C 0.64722 0.92284 0.97283 0.0
C1184 C 0.62099 0.89965 -0.00459 0.0
C1185 C 0.6 0.90856 0.01378 0.0
C1186 C 0.60564 0.94085 0.00947 0.0
C1187 C 0.63076 0.96385 0.98737 0.0
C1188 C 0.63099 0.99674 0.98721 0.0
C1189 C 0.66582 1.02629 -0.00106 0.0
C1190 C 0.62294 1.00397 0.95276 0.0
C1191 C 0.6016 0.98842 0.01227 0.0
C1192 C 0.58766 0.95608 0.02493 0.0
C1193 C 0.55943 0.94185 0.0474 0.0
C1194 C 0.54432 0.96065 0.05647 0.0
C1195 C 0.55743 0.99349 0.04333 0.0
C1196 C 0.58695 1.00787 0.02143 0.0
H1197 H 0.1964 0.67765 0.00243 0.0
H1198 H 0.10876 0.68046 0.96629 0.0
H1199 H 0.06829 0.62574 0.99332 0.0
H1200 H 0.15757 0.58746 0.98752 0.0
H1201 H 0.17544 0.58017 0.02328 0.0
H1202 H 0.19801 0.621 0.00318 0.0
H1203 H 0.19755 0.64896 0.05882 0.0
H1204 H 0.17454 0.60812 0.07897 0.0
H1205 H 0.15676 0.63499 0.08089 0.0
H1206 H 1.03699 0.57247 0.02538 0.0
H1207 H 1.01584 0.51744 0.05201 0.0
H1208 H 0.12239 0.54369 0.06324 0.0
C1209 C 0.1687 0.66653 0.00022 0.0
C1210 C 0.15564 0.68329 0.98229 0.0
C1211 C 0.11927 0.66793 0.97967 0.0
C1212 C 0.09604 0.63699 -0.00479 0.0
C1213 C 0.10947 0.6211 0.0128 0.0
C1214 C 0.14487 0.63472 0.01475 0.0
C1215 C 0.15187 0.61052 0.03303 0.0
C1216 C 0.1719 0.59911 0.0104 0.0
C1217 C 0.17134 0.62662 0.06482 0.0
C1218 C 0.11492 0.58143 0.04093 0.0
C1219 C 0.09105 0.58867 0.02966 0.0
C1220 C 0.05539 0.56632 0.03414 0.0
C1221 C 0.04362 0.53512 0.04954 0.0
C1222 C 0.06734 0.52604 0.05976 0.0
C1223 C 0.10356 0.54987 0.05584 0.0
loop_
_geom_bond_atom_site_label_1
_geom_bond_atom_site_label_2
_geom_bond_distance
_geom_bond_site_symmetry_2
_ccdc_geom_bond_type
O0 Cd1 2.223 . S
O0 C8 1.315 . S
Cd1 O0 2.223 . S
Cd1 O4 2.297 . S
Cd1 O5 2.439 1_455 S
Cd1 O11 2.240 . S
Cd2 O3 2.240 . S
Cd2 O10 2.223 . S
Cd2 O12 2.297 1_455 S
Cd2 O13 2.439 1_455 S
O3 Cd2 2.240 . S
O3 C8 1.279 . S
O4 Cd1 2.297 . S
O4 C6 1.247 . S
O5 Cd1 2.439 1_655 S
O5 C6 1.208 1_655 S
C6 O4 1.247 . S
C6 O5 1.208 1_455 S
C7 O12 1.247 . S
C7 O13 1.208 . S
C8 O0 1.315 . S
C8 O3 1.279 . S
C9 O10 1.315 . S
C9 O11 1.279 . S
O10 Cd2 2.223 . S
O10 C9 1.315 . S
O11 Cd1 2.240 . S
O11 C9 1.279 . S
O12 Cd2 2.297 1_655 S
O12 C7 1.247 . S
O13 Cd2 2.439 1_655 S
O13 C7 1.208 . S
O14 Cd15 2.223 . S
O14 C22 1.315 . S
Cd15 O14 2.223 . S
Cd15 O18 2.297 . S
Cd15 O19 2.439 . S
Cd15 O25 2.240 . S
Cd16 O17 2.240 . S
Cd16 O24 2.223 . S
Cd16 O26 2.297 . S
Cd16 O27 2.439 . S
O17 Cd16 2.240 . S
O17 C22 1.279 . S
O18 Cd15 2.297 . S
O18 C20 1.247 . S
O19 Cd15 2.439 . S
O19 C20 1.208 . S
C20 O18 1.247 . S
C20 O19 1.208 . S
C21 O26 1.247 . S
C21 O27 1.208 . S
C22 O14 1.315 . S
C22 O17 1.279 . S
C23 O24 1.315 . S
C23 O25 1.279 . S
O24 Cd16 2.223 . S
O24 C23 1.315 . S
O25 Cd15 2.240 . S
O25 C23 1.279 . S
O26 Cd16 2.297 . S
O26 C21 1.247 . S
O27 Cd16 2.439 . S
O27 C21 1.208 . S
O28 Cd29 2.223 . S
O28 C36 1.315 . S
Cd29 O28 2.223 . S
Cd29 O32 2.297 . S
Cd29 O33 2.439 1_545 S
Cd29 O39 2.240 . S
Cd30 O31 2.240 . S
Cd30 O38 2.223 . S
Cd30 O40 2.297 1_545 S
Cd30 O41 2.439 1_545 S
O31 Cd30 2.240 . S
O31 C36 1.279 . S
O32 Cd29 2.297 . S
O32 C34 1.247 . S
O33 Cd29 2.439 1_565 S
O33 C34 1.208 1_565 S
C34 O32 1.247 . S
C34 O33 1.208 1_545 S
C35 O40 1.247 . S
C35 O41 1.208 . S
C36 O28 1.315 . S
C36 O31 1.279 . S
C37 O38 1.315 . S
C37 O39 1.279 . S
O38 Cd30 2.223 . S
O38 C37 1.315 . S
O39 Cd29 2.240 . S
O39 C37 1.279 . S
O40 Cd30 2.297 1_565 S
O40 C35 1.247 . S
O41 Cd30 2.439 1_565 S
O41 C35 1.208 . S
O42 Cd43 2.223 . S
O42 C50 1.315 . S
Cd43 O42 2.223 . S
Cd43 O46 2.297 . S
Cd43 O47 2.439 1_455 S
Cd43 O53 2.240 . S
Cd44 O45 2.240 . S
Cd44 O52 2.223 . S
Cd44 O54 2.297 1_455 S
Cd44 O55 2.439 1_455 S
O45 Cd44 2.240 . S
O45 C50 1.279 . S
O46 Cd43 2.297 . S
O46 C48 1.247 . S
O47 Cd43 2.439 1_655 S
O47 C48 1.208 1_655 S
C48 O46 1.247 . S
C48 O47 1.208 1_455 S
C49 O54 1.247 . S
C49 O55 1.208 . S
C50 O42 1.315 . S
C50 O45 1.279 . S
C51 O52 1.315 . S
C51 O53 1.279 . S
O52 Cd44 2.223 . S
O52 C51 1.315 . S
O53 Cd43 2.240 . S
O53 C51 1.279 . S
O54 Cd44 2.297 1_655 S
O54 C49 1.247 . S
O55 Cd44 2.439 1_655 S
O55 C49 1.208 . S
O56 Cd57 2.223 . S
O56 C64 1.315 . S
Cd57 O56 2.223 . S
Cd57 O60 2.297 . S
Cd57 O61 2.439 . S
Cd57 O67 2.240 . S
Cd58 O59 2.240 . S
Cd58 O66 2.223 . S
Cd58 O68 2.297 . S
Cd58 O69 2.439 . S
O59 Cd58 2.240 . S
O59 C64 1.279 . S
O60 Cd57 2.297 . S
O60 C62 1.247 . S
O61 Cd57 2.439 . S
O61 C62 1.208 . S
C62 O60 1.247 . S
C62 O61 1.208 . S
C63 O68 1.247 . S
C63 O69 1.208 . S
C64 O56 1.315 . S
C64 O59 1.279 . S
C65 O66 1.315 . S
C65 O67 1.279 . S
O66 Cd58 2.223 . S
O66 C65 1.315 . S
O67 Cd57 2.240 . S
O67 C65 1.279 . S
O68 Cd58 2.297 . S
O68 C63 1.247 . S
O69 Cd58 2.439 . S
O69 C63 1.208 . S
O70 Cd71 2.229 . S
O70 C78 1.315 . S
Cd71 O70 2.229 . S
Cd71 O74 2.298 1_565 S
Cd71 O75 2.429 1_565 S
Cd71 O81 2.236 1_565 S
Cd72 O73 2.240 1_545 S
Cd72 O80 2.223 1_545 S
Cd72 O82 2.297 . S
Cd72 O83 2.439 . S
O73 Cd72 2.240 1_565 S
O73 C78 1.279 . S
O74 Cd71 2.298 1_545 S
O74 C76 1.247 . S
O75 Cd71 2.429 1_545 S
O75 C76 1.208 . S
C76 O74 1.247 . S
C76 O75 1.208 . S
C77 O82 1.247 . S
C77 O83 1.208 . S
C78 O70 1.315 . S
C78 O73 1.279 . S
C79 O80 1.315 . S
C79 O81 1.279 1_565 S
O80 Cd72 2.223 1_565 S
O80 C79 1.315 . S
O81 Cd71 2.236 1_545 S
O81 C79 1.279 1_545 S
O82 Cd72 2.297 . S
O82 C77 1.247 . S
O83 Cd72 2.439 . S
O83 C77 1.208 . S
O84 Cd85 2.223 . S
O84 C92 1.315 . S
Cd85 O84 2.223 . S
Cd85 O88 2.297 . S
Cd85 O89 2.439 . S
Cd85 O95 2.240 . S
Cd86 O87 2.240 . S
Cd86 O94 2.223 . S
Cd86 O96 2.297 . S
Cd86 O97 2.439 . S
O87 Cd86 2.240 . S
O87 C92 1.279 . S
O88 Cd85 2.297 . S
O88 C90 1.247 . S
O89 Cd85 2.439 . S
O89 C90 1.208 . S
C90 O88 1.247 . S
C90 O89 1.208 . S
C91 O96 1.247 . S
C91 O97 1.208 . S
C92 O84 1.315 . S
C92 O87 1.279 . S
C93 O94 1.315 . S
C93 O95 1.279 . S
O94 Cd86 2.223 . S
O94 C93 1.315 . S
O95 Cd85 2.240 . S
O95 C93 1.279 . S
O96 Cd86 2.297 . S
O96 C91 1.247 . S
O97 Cd86 2.439 . S
O97 C91 1.208 . S
O98 Cd99 2.223 . S
O98 C106 1.315 . S
Cd99 O98 2.223 . S
Cd99 O102 2.297 . S
Cd99 O103 2.439 . S
Cd99 O109 2.240 . S
Cd100 O101 2.240 . S
Cd100 O108 2.223 . S
Cd100 O110 2.297 . S
Cd100 O111 2.439 . S
O101 Cd100 2.240 . S
O101 C106 1.279 . S
O102 Cd99 2.297 . S
O102 C104 1.247 . S
O103 Cd99 2.439 . S
O103 C104 1.208 . S
C104 O102 1.247 . S
C104 O103 1.208 . S
C105 O110 1.247 . S
C105 O111 1.208 . S
C106 O98 1.315 . S
C106 O101 1.279 . S
C107 O108 1.315 . S
C107 O109 1.279 . S
O108 Cd100 2.223 . S
O108 C107 1.315 . S
O109 Cd99 2.240 . S
O109 C107 1.279 . S
O110 Cd100 2.297 . S
O110 C105 1.247 . S
O111 Cd100 2.439 . S
O111 C105 1.208 . S
O112 Cd113 2.223 . S
O112 C120 1.315 . S
Cd113 O112 2.223 . S
Cd113 O116 2.297 . S
Cd113 O117 2.439 . S
Cd113 O123 2.240 . S
Cd114 O115 2.240 . S
Cd114 O122 2.223 . S
Cd114 O124 2.297 . S
Cd114 O125 2.439 . S
O115 Cd114 2.240 . S
O115 C120 1.279 . S
O116 Cd113 2.297 . S
O116 C118 1.247 . S
O117 Cd113 2.439 . S
O117 C118 1.208 . S
C118 O116 1.247 . S
C118 O117 1.208 . S
C119 O124 1.247 . S
C119 O125 1.208 . S
C120 O112 1.315 . S
C120 O115 1.279 . S
C121 O122 1.315 . S
C121 O123 1.279 . S
O122 Cd114 2.223 . S
O122 C121 1.315 . S
O123 Cd113 2.240 . S
O123 C121 1.279 . S
O124 Cd114 2.297 . S
O124 C119 1.247 . S
O125 Cd114 2.439 . S
O125 C119 1.208 . S
O126 Cd127 2.223 . S
O126 C134 1.315 . S
Cd127 O126 2.223 . S
Cd127 O130 2.297 . S
Cd127 O131 2.439 . S
Cd127 O137 2.240 . S
Cd128 O129 2.240 . S
Cd128 O136 2.223 . S
Cd128 O138 2.297 . S
Cd128 O139 2.439 . S
O129 Cd128 2.240 . S
O129 C134 1.279 . S
O130 Cd127 2.297 . S
O130 C132 1.247 . S
O131 Cd127 2.439 . S
O131 C132 1.208 . S
C132 O130 1.247 . S
C132 O131 1.208 . S
C133 O138 1.247 . S
C133 O139 1.208 . S
C134 O126 1.315 . S
C134 O129 1.279 . S
C135 O136 1.315 . S
C135 O137 1.279 . S
O136 Cd128 2.223 . S
O136 C135 1.315 . S
O137 Cd127 2.240 . S
O137 C135 1.279 . S
O138 Cd128 2.297 . S
O138 C133 1.247 . S
O139 Cd128 2.439 . S
O139 C133 1.208 . S
O140 Cd141 2.223 . S
O140 C148 1.315 . S
Cd141 O140 2.223 . S
Cd141 O144 2.297 . S
Cd141 O145 2.439 . S
Cd141 O151 2.240 . S
Cd142 O143 2.240 . S
Cd142 O150 2.223 . S
Cd142 O152 2.297 . S
Cd142 O153 2.439 . S
O143 Cd142 2.240 . S
O143 C148 1.279 . S
O144 Cd141 2.297 . S
O144 C146 1.247 . S
O145 Cd141 2.439 . S
O145 C146 1.208 . S
C146 O144 1.247 . S
C146 O145 1.208 . S
C147 O152 1.247 . S
C147 O153 1.208 . S
C148 O140 1.315 . S
C148 O143 1.279 . S
C149 O150 1.315 . S
C149 O151 1.279 . S
O150 Cd142 2.223 . S
O150 C149 1.315 . S
O151 Cd141 2.240 . S
O151 C149 1.279 . S
O152 Cd142 2.297 . S
O152 C147 1.247 . S
O153 Cd142 2.439 . S
O153 C147 1.208 . S
O154 Cd155 2.223 . S
O154 C162 1.315 . S
Cd155 O154 2.223 . S
Cd155 O158 2.297 1_655 S
Cd155 O159 2.439 . S
Cd155 O165 2.240 . S
Cd156 O157 2.240 . S
Cd156 O164 2.223 . S
Cd156 O166 2.297 . S
Cd156 O167 2.439 . S
O157 Cd156 2.240 . S
O157 C162 1.279 . S
O158 Cd155 2.297 1_455 S
O158 C160 1.247 . S
O159 Cd155 2.439 . S
O159 C160 1.208 1_655 S
C160 O158 1.247 . S
C160 O159 1.208 1_455 S
C161 O166 1.247 . S
C161 O167 1.208 . S
C162 O154 1.315 . S
C162 O157 1.279 . S
C163 O164 1.315 . S
C163 O165 1.279 . S
O164 Cd156 2.223 . S
O164 C163 1.315 . S
O165 Cd155 2.240 . S
O165 C163 1.279 . S
O166 Cd156 2.297 . S
O166 C161 1.247 . S
O167 Cd156 2.439 . S
O167 C161 1.208 . S
O168 Cd169 2.223 . S
O168 C176 1.315 . S
Cd169 O168 2.223 . S
Cd169 O172 2.297 . S
Cd169 O173 2.439 . S
Cd169 O179 2.240 . S
Cd170 O171 2.240 . S
Cd170 O178 2.223 . S
Cd170 O180 2.297 . S
Cd170 O181 2.439 . S
O171 Cd170 2.240 . S
O171 C176 1.279 . S
O172 Cd169 2.297 . S
O172 C174 1.247 . S
O173 Cd169 2.439 . S
O173 C174 1.208 . S
C174 O172 1.247 . S
C174 O173 1.208 . S
C175 O180 1.247 . S
C175 O181 1.208 . S
C176 O168 1.315 . S
C176 O171 1.279 . S
C177 O178 1.315 . S
C177 O179 1.279 . S
O178 Cd170 2.223 . S
O178 C177 1.315 . S
O179 Cd169 2.240 . S
O179 C177 1.279 . S
O180 Cd170 2.297 . S
O180 C175 1.247 . S
O181 Cd170 2.439 . S
O181 C175 1.208 . S
O182 Cd183 2.223 . S
O182 C190 1.315 . S
Cd183 O182 2.223 . S
Cd183 O186 2.297 . S
Cd183 O187 2.439 . S
Cd183 O193 2.240 . S
Cd184 O185 2.240 . S
Cd184 O192 2.223 . S
Cd184 O194 2.297 . S
Cd184 O195 2.439 . S
O185 Cd184 2.240 . S
O185 C190 1.279 . S
O186 Cd183 2.297 . S
O186 C188 1.247 . S
O187 Cd183 2.439 . S
O187 C188 1.208 . S
C188 O186 1.247 . S
C188 O187 1.208 . S
C189 O194 1.247 . S
C189 O195 1.208 . S
C190 O182 1.315 . S
C190 O185 1.279 . S
C191 O192 1.315 . S
C191 O193 1.279 . S
O192 Cd184 2.223 . S
O192 C191 1.315 . S
O193 Cd183 2.240 . S
O193 C191 1.279 . S
O194 Cd184 2.297 . S
O194 C189 1.247 . S
O195 Cd184 2.439 . S
O195 C189 1.208 . S
O196 Cd197 2.223 . S
O196 C204 1.315 . S
Cd197 O196 2.223 . S
Cd197 O200 2.297 . S
Cd197 O201 2.439 . S
Cd197 O207 2.240 . S
Cd198 O199 2.240 . S
Cd198 O206 2.223 . S
Cd198 O208 2.297 . S
Cd198 O209 2.439 . S
O199 Cd198 2.240 . S
O199 C204 1.279 . S
O200 Cd197 2.297 . S
O200 C202 1.247 . S
O201 Cd197 2.439 . S
O201 C202 1.208 . S
C202 O200 1.247 . S
C202 O201 1.208 . S
C203 O208 1.247 . S
C203 O209 1.208 . S
C204 O196 1.315 . S
C204 O199 1.279 . S
C205 O206 1.315 . S
C205 O207 1.279 . S
O206 Cd198 2.223 . S
O206 C205 1.315 . S
O207 Cd197 2.240 . S
O207 C205 1.279 . S
O208 Cd198 2.297 . S
O208 C203 1.247 . S
O209 Cd198 2.439 . S
O209 C203 1.208 . S
O210 Cd211 2.223 . S
O210 C218 1.315 . S
Cd211 O210 2.223 . S
Cd211 O214 2.297 . S
Cd211 O215 2.439 . S
Cd211 O221 2.240 . S
Cd212 O213 2.240 . S
Cd212 O220 2.223 . S
Cd212 O222 2.297 . S
Cd212 O223 2.439 . S
O213 Cd212 2.240 . S
O213 C218 1.279 . S
O214 Cd211 2.297 . S
O214 C216 1.247 . S
O215 Cd211 2.439 . S
O215 C216 1.208 . S
C216 O214 1.247 . S
C216 O215 1.208 . S
C217 O222 1.247 . S
C217 O223 1.208 . S
C218 O210 1.315 . S
C218 O213 1.279 . S
C219 O220 1.315 . S
C219 O221 1.279 . S
O220 Cd212 2.223 . S
O220 C219 1.315 . S
O221 Cd211 2.240 . S
O221 C219 1.279 . S
O222 Cd212 2.297 . S
O222 C217 1.247 . S
O223 Cd212 2.439 . S
O223 C217 1.208 . S
O224 Cd225 2.223 . S
O224 C232 1.315 . S
Cd225 O224 2.223 . S
Cd225 O228 2.297 . S
Cd225 O229 2.439 . S
Cd225 O235 2.240 . S
Cd226 O227 2.240 . S
Cd226 O234 2.223 . S
Cd226 O236 2.297 . S
Cd226 O237 2.439 . S
O227 Cd226 2.240 . S
O227 C232 1.279 . S
O228 Cd225 2.297 . S
O228 C230 1.247 . S
O229 Cd225 2.439 . S
O229 C230 1.208 . S
C230 O228 1.247 . S
C230 O229 1.208 . S
C231 O236 1.247 . S
C231 O237 1.208 . S
C232 O224 1.315 . S
C232 O227 1.279 . S
C233 O234 1.315 . S
C233 O235 1.279 . S
O234 Cd226 2.223 . S
O234 C233 1.315 . S
O235 Cd225 2.240 . S
O235 C233 1.279 . S
O236 Cd226 2.297 . S
O236 C231 1.247 . S
O237 Cd226 2.439 . S
O237 C231 1.208 . S
O238 Cd239 2.223 . S
O238 C246 1.315 . S
Cd239 O238 2.223 . S
Cd239 O242 2.297 . S
Cd239 O243 2.439 . S
Cd239 O249 2.240 . S
Cd240 O241 2.240 . S
Cd240 O248 2.223 . S
Cd240 O250 2.297 . S
Cd240 O251 2.439 . S
O241 Cd240 2.240 . S
O241 C246 1.279 . S
O242 Cd239 2.297 . S
O242 C244 1.247 . S
O243 Cd239 2.439 . S
O243 C244 1.208 . S
C244 O242 1.247 . S
C244 O243 1.208 . S
C245 O250 1.247 . S
C245 O251 1.208 . S
C246 O238 1.315 . S
C246 O241 1.279 . S
C247 O248 1.315 . S
C247 O249 1.279 . S
O248 Cd240 2.223 . S
O248 C247 1.315 . S
O249 Cd239 2.240 . S
O249 C247 1.279 . S
O250 Cd240 2.297 . S
O250 C245 1.247 . S
O251 Cd240 2.439 . S
O251 C245 1.208 . S
H252 C264 0.930 . S
H253 C266 0.930 . S
H254 C267 0.930 . S
H255 C271 0.959 . S
H256 C271 0.959 . S
H257 C271 0.961 . S
H258 C272 0.960 . S
H259 C272 0.961 . S
H260 C272 0.959 . S
H261 C275 0.929 . S
H262 C276 0.931 . S
H263 C278 0.930 . S
C264 H252 0.930 . S
C264 C265 1.399 . S
C264 C269 1.399 . S
C265 C264 1.399 . S
C265 C266 1.376 . S
C266 H253 0.930 . S
C266 C265 1.376 . S
C266 C267 1.388 . S
C267 H254 0.930 . S
C267 C266 1.388 . S
C267 C268 1.390 . S
C268 C267 1.390 . S
C268 C269 1.394 . S
C268 C274 1.465 . S
C269 C264 1.399 . S
C269 C268 1.394 . S
C269 C270 1.516 . S
C270 C269 1.516 . S
C270 C271 1.502 . S
C270 C272 1.561 . S
C270 C273 1.526 . S
C271 H255 0.959 . S
C271 H256 0.959 . S
C271 H257 0.961 . S
C271 C270 1.502 . S
C272 H258 0.960 . S
C272 H259 0.961 . S
C272 H260 0.959 . S
C272 C270 1.561 . S
C273 C270 1.526 . S
C273 C274 1.396 . S
C273 C278 1.390 . S
C274 C268 1.465 . S
C274 C273 1.396 . S
C274 C275 1.399 . S
C275 H261 0.929 . S
C275 C274 1.399 . S
C275 C276 1.385 . S
C276 H262 0.931 . S
C276 C275 1.385 . S
C276 C277 1.389 . S
C277 C276 1.389 . S
C277 C278 1.387 . S
C278 H263 0.930 . S
C278 C273 1.390 . S
C278 C277 1.387 . S
H279 C291 0.930 . S
H280 C293 0.930 1_556 S
H281 C294 0.930 . S
H282 C298 0.959 . S
H283 C298 0.959 . S
H284 C298 0.961 . S
H285 C299 0.960 . S
H286 C299 0.961 . S
H287 C299 0.959 . S
H288 C302 0.929 . S
H289 C303 0.931 . S
H290 C305 0.930 . S
C291 H279 0.930 . S
C291 C292 1.399 . S
C291 C296 1.399 . S
C292 C291 1.399 . S
C292 C293 1.376 . S
C293 H280 0.930 1_554 S
C293 C292 1.376 . S
C293 C294 1.388 . S
C294 H281 0.930 . S
C294 C293 1.388 . S
C294 C295 1.390 . S
C295 C294 1.390 . S
C295 C296 1.394 . S
C295 C301 1.465 . S
C296 C291 1.399 . S
C296 C295 1.394 . S
C296 C297 1.516 . S
C297 C296 1.516 . S
C297 C298 1.502 . S
C297 C299 1.561 . S
C297 C300 1.526 . S
C298 H282 0.959 . S
C298 H283 0.959 . S
C298 H284 0.961 . S
C298 C297 1.502 . S
C299 H285 0.960 . S
C299 H286 0.961 . S
C299 H287 0.959 . S
C299 C297 1.561 . S
C300 C297 1.526 . S
C300 C301 1.396 . S
C300 C305 1.390 . S
C301 C295 1.465 . S
C301 C300 1.396 . S
C301 C302 1.399 . S
C302 H288 0.929 . S
C302 C301 1.399 . S
C302 C303 1.385 . S
C303 H289 0.931 . S
C303 C302 1.385 . S
C303 C304 1.389 . S
C304 C303 1.389 . S
C304 C305 1.387 . S
C305 H290 0.930 . S
C305 C300 1.390 . S
C305 C304 1.387 . S
H306 C318 0.930 . S
H307 C320 0.930 . S
H308 C321 0.930 . S
H309 C325 0.959 . S
H310 C325 0.959 . S
H311 C325 0.961 . S
H312 C326 0.960 . S
H313 C326 0.961 . S
H314 C326 0.959 1_545 S
H315 C329 0.929 . S
H316 C330 0.931 . S
H317 C332 0.930 . S
C318 H306 0.930 . S
C318 C319 1.399 . S
C318 C323 1.399 . S
C319 C318 1.399 . S
C319 C320 1.376 1_565 S
C320 H307 0.930 . S
C320 C319 1.376 1_545 S
C320 C321 1.388 . S
C321 H308 0.930 . S
C321 C320 1.388 . S
C321 C322 1.390 1_545 S
C322 C321 1.390 1_565 S
C322 C323 1.394 . S
C322 C328 1.465 . S
C323 C318 1.399 . S
C323 C322 1.394 . S
C323 C324 1.516 . S
C324 C323 1.516 . S
C324 C325 1.502 . S
C324 C326 1.561 . S
C324 C327 1.526 . S
C325 H309 0.959 . S
C325 H310 0.959 . S
C325 H311 0.961 . S
C325 C324 1.502 . S
C326 H312 0.960 . S
C326 H313 0.961 . S
C326 H314 0.959 1_565 S
C326 C324 1.561 . S
C327 C324 1.526 . S
C327 C328 1.396 . S
C327 C332 1.390 . S
C328 C322 1.465 . S
C328 C327 1.396 . S
C328 C329 1.399 1_554 S
C329 H315 0.929 . S
C329 C328 1.399 1_556 S
C329 C330 1.385 . S
C330 H316 0.931 . S
C330 C329 1.385 . S
C330 C331 1.389 . S
C331 C330 1.389 . S
C331 C332 1.387 1_556 S
C332 H317 0.930 . S
C332 C327 1.390 . S
C332 C331 1.387 1_554 S
H333 C345 0.930 . S
H334 C347 0.930 . S
H335 C348 0.930 . S
H336 C352 0.959 . S
H337 C352 0.959 . S
H338 C352 0.961 . S
H339 C353 0.960 . S
H340 C353 0.961 . S
H341 C353 0.959 . S
H342 C356 0.958 . S
H343 C357 0.937 . S
H344 C359 0.930 . S
C345 H333 0.930 . S
C345 C346 1.399 . S
C345 C350 1.399 . S
C346 C345 1.399 . S
C346 C347 1.376 . S
C347 H334 0.930 . S
C347 C346 1.376 . S
C347 C348 1.388 . S
C348 H335 0.930 . S
C348 C347 1.388 . S
C348 C349 1.390 . S
C349 C348 1.390 . S
C349 C350 1.394 . S
C349 C355 1.465 . S
C350 C345 1.399 . S
C350 C349 1.394 . S
C350 C351 1.516 . S
C351 C350 1.516 . S
C351 C352 1.502 . S
C351 C353 1.561 . S
C351 C354 1.526 . S
C352 H336 0.959 . S
C352 H337 0.959 . S
C352 H338 0.961 . S
C352 C351 1.502 . S
C353 H339 0.960 . S
C353 H340 0.961 . S
C353 H341 0.959 . S
C353 C351 1.561 . S
C354 C351 1.526 . S
C354 C355 1.396 . S
C354 C359 1.390 . S
C355 C349 1.465 . S
C355 C354 1.396 . S
C355 C356 1.399 . S
C356 H342 0.958 . S
C356 C355 1.399 . S
C356 C357 1.385 . S
C357 H343 0.937 . S
C357 C356 1.385 . S
C357 C358 1.389 . S
C358 C357 1.389 . S
C358 C359 1.387 . S
C359 H344 0.930 . S
C359 C354 1.390 . S
C359 C358 1.387 . S
H360 C372 0.930 . S
H361 C374 0.930 . S
H362 C375 0.930 1_455 S
H363 C379 0.959 . S
H364 C379 0.959 . S
H365 C379 0.961 . S
H366 C380 0.960 . S
H367 C380 0.961 . S
H368 C380 0.959 . S
H369 C383 0.929 . S
H370 C384 0.931 . S
H371 C386 0.930 . S
C372 H360 0.930 . S
C372 C373 1.399 . S
C372 C377 1.399 . S
C373 C372 1.399 . S
C373 C374 1.376 . S
C374 H361 0.930 . S
C374 C373 1.376 . S
C374 C375 1.388 . S
C375 H362 0.930 1_655 S
C375 C374 1.388 . S
C375 C376 1.390 . S
C376 C375 1.390 . S
C376 C377 1.394 . S
C376 C382 1.465 . S
C377 C372 1.399 . S
C377 C376 1.394 . S
C377 C378 1.516 . S
C378 C377 1.516 . S
C378 C379 1.502 . S
C378 C380 1.561 . S
C378 C381 1.526 . S
C379 H363 0.959 . S
C379 H364 0.959 . S
C379 H365 0.961 . S
C379 C378 1.502 . S
C380 H366 0.960 . S
C380 H367 0.961 . S
C380 H368 0.959 . S
C380 C378 1.561 . S
C381 C378 1.526 . S
C381 C382 1.396 . S
C381 C386 1.390 . S
C382 C376 1.465 . S
C382 C381 1.396 . S
C382 C383 1.399 1_655 S
C383 H369 0.929 . S
C383 C382 1.399 1_455 S
C383 C384 1.385 . S
C384 H370 0.931 . S
C384 C383 1.385 . S
C384 C385 1.389 1_455 S
C385 C384 1.389 1_655 S
C385 C386 1.387 . S
C386 H371 0.930 . S
C386 C381 1.390 . S
C386 C385 1.387 . S
H387 C399 0.930 . S
H388 C401 0.930 . S
H389 C402 0.930 . S
H390 C406 0.959 . S
H391 C406 0.959 . S
H392 C406 0.961 . S
H393 C407 0.960 . S
H394 C407 0.961 . S
H395 C407 0.959 . S
H396 C410 0.929 . S
H397 C411 0.931 . S
H398 C413 0.930 . S
C399 H387 0.930 . S
C399 C400 1.399 . S
C399 C404 1.399 . S
C400 C399 1.399 . S
C400 C401 1.376 . S
C401 H388 0.930 . S
C401 C400 1.376 . S
C401 C402 1.388 . S
C402 H389 0.930 . S
C402 C401 1.388 . S
C402 C403 1.390 . S
C403 C402 1.390 . S
C403 C404 1.394 . S
C403 C409 1.465 . S
C404 C399 1.399 . S
C404 C403 1.394 . S
C404 C405 1.516 . S
C405 C404 1.516 . S
C405 C406 1.502 . S
C405 C407 1.561 . S
C405 C408 1.526 . S
C406 H390 0.959 . S
C406 H391 0.959 . S
C406 H392 0.961 . S
C406 C405 1.502 . S
C407 H393 0.960 . S
C407 H394 0.961 . S
C407 H395 0.959 . S
C407 C405 1.561 . S
C408 C405 1.526 . S
C408 C409 1.396 . S
C408 C413 1.390 . S
C409 C403 1.465 . S
C409 C408 1.396 . S
C409 C410 1.399 . S
C410 H396 0.929 . S
C410 C409 1.399 . S
C410 C411 1.385 . S
C411 H397 0.931 . S
C411 C410 1.385 . S
C411 C412 1.389 . S
C412 C411 1.389 . S
C412 C413 1.387 . S
C413 H398 0.930 . S
C413 C408 1.390 . S
C413 C412 1.387 . S
H414 C426 0.930 . S
H415 C428 0.930 . S
H416 C429 0.930 . S
H417 C433 0.959 . S
H418 C433 0.959 . S
H419 C433 0.961 . S
H420 C434 0.960 . S
H421 C434 0.961 . S
H422 C434 0.959 1_655 S
H423 C437 0.929 . S
H424 C438 0.931 . S
H425 C440 0.930 1_455 S
C426 H414 0.930 . S
C426 C427 1.399 1_455 S
C426 C431 1.399 1_455 S
C427 C426 1.399 1_655 S
C427 C428 1.376 . S
C428 H415 0.930 . S
C428 C427 1.376 . S
C428 C429 1.388 . S
C429 H416 0.930 . S
C429 C428 1.388 . S
C429 C430 1.390 . S
C430 C429 1.390 . S
C430 C431 1.394 . S
C430 C436 1.465 . S
C431 C426 1.399 1_655 S
C431 C430 1.394 . S
C431 C432 1.516 1_655 S
C432 C431 1.516 1_455 S
C432 C433 1.502 . S
C432 C434 1.561 . S
C432 C435 1.526 1_455 S
C433 H417 0.959 . S
C433 H418 0.959 . S
C433 H419 0.961 . S
C433 C432 1.502 . S
C434 H420 0.960 . S
C434 H421 0.961 . S
C434 H422 0.959 1_455 S
C434 C432 1.561 . S
C435 C432 1.526 1_655 S
C435 C436 1.396 . S
C435 C440 1.390 . S
C436 C430 1.465 . S
C436 C435 1.396 . S
C436 C437 1.399 . S
C437 H423 0.929 . S
C437 C436 1.399 . S
C437 C438 1.385 1_556 S
C438 H424 0.931 . S
C438 C437 1.385 1_554 S
C438 C439 1.389 . S
C439 C438 1.389 . S
C439 C440 1.387 1_554 S
C440 H425 0.930 1_655 S
C440 C435 1.390 . S
C440 C439 1.387 1_556 S
H441 C453 0.930 . S
H442 C455 0.930 1_554 S
H443 C456 0.930 . S
H444 C460 0.959 . S
H445 C460 0.959 . S
H446 C460 0.961 . S
H447 C461 0.960 . S
H448 C461 0.961 . S
H449 C461 0.959 . S
H450 C464 0.929 . S
H451 C465 0.931 . S
H452 C467 0.930 . S
C453 H441 0.930 . S
C453 C454 1.399 . S
C453 C458 1.399 . S
C454 C453 1.399 . S
C454 C455 1.376 . S
C455 H442 0.930 1_556 S
C455 C454 1.376 . S
C455 C456 1.388 . S
C456 H443 0.930 . S
C456 C455 1.388 . S
C456 C457 1.390 . S
C457 C456 1.390 . S
C457 C458 1.394 . S
C457 C463 1.465 . S
C458 C453 1.399 . S
C458 C457 1.394 . S
C458 C459 1.516 . S
C459 C458 1.516 . S
C459 C460 1.502 . S
C459 C461 1.561 . S
C459 C462 1.526 . S
C460 H444 0.959 . S
C460 H445 0.959 . S
C460 H446 0.961 . S
C460 C459 1.502 . S
C461 H447 0.960 . S
C461 H448 0.961 . S
C461 H449 0.959 . S
C461 C459 1.561 . S
C462 C459 1.526 . S
C462 C463 1.396 . S
C462 C467 1.390 . S
C463 C457 1.465 . S
C463 C462 1.396 . S
C463 C464 1.399 . S
C464 H450 0.929 . S
C464 C463 1.399 . S
C464 C465 1.385 . S
C465 H451 0.931 . S
C465 C464 1.385 . S
C465 C466 1.389 . S
C466 C465 1.389 . S
C466 C467 1.387 . S
C467 H452 0.930 . S
C467 C462 1.390 . S
C467 C466 1.387 . S
H468 C480 0.930 . S
H469 C482 0.930 1_554 S
H470 C483 0.930 . S
H471 C487 0.959 . S
H472 C487 0.959 1_565 S
H473 C487 0.982 . S
H474 C488 0.960 . S
H475 C488 0.961 . S
H476 C488 0.959 1_545 S
H477 C491 0.929 . S
H478 C492 0.931 . S
H479 C494 0.930 . S
C480 H468 0.930 . S
C480 C481 1.399 1_556 S
C480 C485 1.399 . S
C481 C480 1.399 1_554 S
C481 C482 1.376 1_554 S
C482 H469 0.930 1_556 S
C482 C481 1.376 1_556 S
C482 C483 1.388 . S
C483 H470 0.930 . S
C483 C482 1.388 . S
C483 C484 1.390 . S
C484 C483 1.390 . S
C484 C485 1.394 . S
C484 C490 1.465 . S
C485 C480 1.399 . S
C485 C484 1.394 . S
C485 C486 1.516 . S
C486 C485 1.516 . S
C486 C487 1.502 . S
C486 C488 1.561 1_545 S
C486 C489 1.526 . S
C487 H471 0.959 . S
C487 H472 0.959 1_545 S
C487 H473 0.982 . S
C487 C486 1.502 . S
C488 H474 0.960 . S
C488 H475 0.961 . S
C488 H476 0.959 1_565 S
C488 C486 1.561 1_565 S
C489 C486 1.526 . S
C489 C490 1.396 . S
C489 C494 1.390 . S
C490 C484 1.465 . S
C490 C489 1.396 . S
C490 C491 1.399 . S
C491 H477 0.929 . S
C491 C490 1.399 . S
C491 C492 1.385 . S
C492 H478 0.931 . S
C492 C491 1.385 . S
C492 C493 1.389 . S
C493 C492 1.389 . S
C493 C494 1.387 . S
C494 H479 0.930 . S
C494 C489 1.390 . S
C494 C493 1.387 . S
H495 C507 0.930 1_545 S
H496 C509 0.930 . S
H497 C510 0.930 . S
H498 C514 0.959 . S
H499 C514 0.959 . S
H500 C514 0.961 1_545 S
H501 C515 0.960 . S
H502 C515 0.961 . S
H503 C515 0.959 . S
H504 C518 0.929 . S
H505 C519 0.931 . S
H506 C521 0.930 . S
C507 H495 0.930 1_565 S
C507 C508 1.399 . S
C507 C512 1.399 . S
C508 C507 1.399 . S
C508 C509 1.376 . S
C509 H496 0.930 . S
C509 C508 1.376 . S
C509 C510 1.388 . S
C510 H497 0.930 . S
C510 C509 1.388 . S
C510 C511 1.390 . S
C511 C510 1.390 . S
C511 C512 1.394 . S
C511 C517 1.465 . S
C512 C507 1.399 . S
C512 C511 1.394 . S
C512 C513 1.516 . S
C513 C512 1.516 . S
C513 C514 1.502 . S
C513 C515 1.561 1_565 S
C513 C516 1.526 . S
C514 H498 0.959 . S
C514 H499 0.959 . S
C514 H500 0.961 1_565 S
C514 C513 1.502 . S
C515 H501 0.960 . S
C515 H502 0.961 . S
C515 H503 0.959 . S
C515 C513 1.561 1_545 S
C516 C513 1.526 . S
C516 C517 1.396 . S
C516 C521 1.390 . S
C517 C511 1.465 . S
C517 C516 1.396 . S
C517 C518 1.399 . S
C518 H504 0.929 . S
C518 C517 1.399 . S
C518 C519 1.385 . S
C519 H505 0.931 . S
C519 C518 1.385 . S
C519 C520 1.389 . S
C520 C519 1.389 . S
C520 C521 1.387 . S
C521 H506 0.930 . S
C521 C516 1.390 . S
C521 C520 1.387 . S
H522 C534 0.930 . S
H523 C536 0.930 . S
H524 C537 0.930 . S
H525 C541 0.959 . S
H526 C541 0.959 . S
H527 C541 0.961 . S
H528 C542 0.960 . S
H529 C542 0.961 . S
H530 C542 0.959 . S
H531 C545 0.929 . S
H532 C546 0.931 . S
H533 C548 0.930 . S
C534 H522 0.930 . S
C534 C535 1.399 . S
C534 C539 1.399 . S
C535 C534 1.399 . S
C535 C536 1.376 . S
C536 H523 0.930 . S
C536 C535 1.376 . S
C536 C537 1.388 . S
C537 H524 0.930 . S
C537 C536 1.388 . S
C537 C538 1.390 . S
C538 C537 1.390 . S
C538 C539 1.394 . S
C538 C544 1.465 . S
C539 C534 1.399 . S
C539 C538 1.394 . S
C539 C540 1.516 . S
C540 C539 1.516 . S
C540 C541 1.502 . S
C540 C542 1.561 . S
C540 C543 1.526 . S
C541 H525 0.959 . S
C541 H526 0.959 . S
C541 H527 0.961 . S
C541 C540 1.502 . S
C542 H528 0.960 . S
C542 H529 0.961 . S
C542 H530 0.959 . S
C542 C540 1.561 . S
C543 C540 1.526 . S
C543 C544 1.396 . S
C543 C548 1.390 . S
C544 C538 1.465 . S
C544 C543 1.396 . S
C544 C545 1.399 . S
C545 H531 0.929 . S
C545 C544 1.399 . S
C545 C546 1.385 . S
C546 H532 0.931 . S
C546 C545 1.385 . S
C546 C547 1.389 . S
C547 C546 1.389 . S
C547 C548 1.387 . S
C548 H533 0.930 . S
C548 C543 1.390 . S
C548 C547 1.387 . S
H549 C561 0.930 . S
H550 C563 0.930 . S
H551 C564 0.930 . S
H552 C568 0.959 . S
H553 C568 0.959 . S
H554 C568 0.961 . S
H555 C569 0.960 . S
H556 C569 0.961 . S
H557 C569 0.959 . S
H558 C572 0.929 . S
H559 C573 0.931 . S
H560 C575 0.930 . S
C561 H549 0.930 . S
C561 C562 1.399 . S
C561 C566 1.399 . S
C562 C561 1.399 . S
C562 C563 1.376 . S
C563 H550 0.930 . S
C563 C562 1.376 . S
C563 C564 1.388 . S
C564 H551 0.930 . S
C564 C563 1.388 . S
C564 C565 1.390 . S
C565 C564 1.390 . S
C565 C566 1.394 . S
C565 C571 1.465 . S
C566 C561 1.399 . S
C566 C565 1.394 . S
C566 C567 1.516 . S
C567 C566 1.516 . S
C567 C568 1.502 . S
C567 C569 1.561 . S
C567 C570 1.526 . S
C568 H552 0.959 . S
C568 H553 0.959 . S
C568 H554 0.961 . S
C568 C567 1.502 . S
C569 H555 0.960 . S
C569 H556 0.961 . S
C569 H557 0.959 . S
C569 C567 1.561 . S
C570 C567 1.526 . S
C570 C571 1.396 . S
C570 C575 1.390 . S
C571 C565 1.465 . S
C571 C570 1.396 . S
C571 C572 1.399 . S
C572 H558 0.929 . S
C572 C571 1.399 . S
C572 C573 1.385 . S
C573 H559 0.931 . S
C573 C572 1.385 . S
C573 C574 1.389 . S
C574 C573 1.389 . S
C574 C575 1.387 . S
C575 H560 0.930 . S
C575 C570 1.390 . S
C575 C574 1.387 . S
H576 C588 0.930 . S
H577 C590 0.930 . S
H578 C591 0.930 . S
H579 C595 0.959 . S
H580 C595 0.959 . S
H581 C595 0.961 . S
H582 C596 0.960 . S
H583 C596 0.961 . S
H584 C596 0.959 . S
H585 C599 0.929 . S
H586 C600 0.931 . S
H587 C602 0.930 . S
C588 H576 0.930 . S
C588 C589 1.399 . S
C588 C593 1.399 . S
C589 C588 1.399 . S
C589 C590 1.376 . S
C590 H577 0.930 . S
C590 C589 1.376 . S
C590 C591 1.388 . S
C591 H578 0.930 . S
C591 C590 1.388 . S
C591 C592 1.390 . S
C592 C591 1.390 . S
C592 C593 1.394 . S
C592 C598 1.465 . S
C593 C588 1.399 . S
C593 C592 1.394 . S
C593 C594 1.516 . S
C594 C593 1.516 . S
C594 C595 1.502 . S
C594 C596 1.561 . S
C594 C597 1.526 . S
C595 H579 0.959 . S
C595 H580 0.959 . S
C595 H581 0.961 . S
C595 C594 1.502 . S
C596 H582 0.960 . S
C596 H583 0.961 . S
C596 H584 0.959 . S
C596 C594 1.561 . S
C597 C594 1.526 . S
C597 C598 1.396 . S
C597 C602 1.390 . S
C598 C592 1.465 . S
C598 C597 1.396 . S
C598 C599 1.399 . S
C599 H585 0.929 . S
C599 C598 1.399 . S
C599 C600 1.385 . S
C600 H586 0.931 . S
C600 C599 1.385 . S
C600 C601 1.389 . S
C601 C600 1.389 . S
C601 C602 1.387 . S
C602 H587 0.930 . S
C602 C597 1.390 . S
C602 C601 1.387 . S
H603 C615 0.930 . S
H604 C617 0.930 . S
H605 C618 0.930 . S
H606 C622 0.959 . S
H607 C622 0.959 . S
H608 C622 0.961 . S
H609 C623 0.960 . S
H610 C623 0.961 . S
H611 C623 0.959 . S
H612 C626 0.929 . S
H613 C627 0.931 . S
H614 C629 0.930 . S
C615 H603 0.930 . S
C615 C616 1.399 . S
C615 C620 1.399 . S
C616 C615 1.399 . S
C616 C617 1.376 . S
C617 H604 0.930 . S
C617 C616 1.376 . S
C617 C618 1.388 . S
C618 H605 0.930 . S
C618 C617 1.388 . S
C618 C619 1.390 . S
C619 C618 1.390 . S
C619 C620 1.394 . S
C619 C625 1.465 . S
C620 C615 1.399 . S
C620 C619 1.394 . S
C620 C621 1.516 . S
C621 C620 1.516 . S
C621 C622 1.502 1_545 S
C621 C623 1.561 . S
C621 C624 1.526 1_545 S
C622 H606 0.959 . S
C622 H607 0.959 . S
C622 H608 0.961 . S
C622 C621 1.502 1_565 S
C623 H609 0.960 . S
C623 H610 0.961 . S
C623 H611 0.959 . S
C623 C621 1.561 . S
C624 C621 1.526 1_565 S
C624 C625 1.396 1_565 S
C624 C629 1.390 . S
C625 C619 1.465 . S
C625 C624 1.396 1_545 S
C625 C626 1.399 . S
C626 H612 0.929 . S
C626 C625 1.399 . S
C626 C627 1.385 1_545 S
C627 H613 0.931 . S
C627 C626 1.385 1_565 S
C627 C628 1.389 . S
C628 C627 1.389 . S
C628 C629 1.387 . S
C629 H614 0.930 . S
C629 C624 1.390 . S
C629 C628 1.387 . S
H630 C642 0.930 . S
H631 C644 0.930 . S
H632 C645 0.930 . S
H633 C649 0.959 . S
H634 C649 0.959 . S
H635 C649 0.961 . S
H636 C650 0.960 . S
H637 C650 0.961 1_655 S
H638 C650 0.959 1_655 S
H639 C653 0.929 . S
H640 C654 0.931 . S
H641 C656 0.930 . S
C642 H630 0.930 . S
C642 C643 1.399 . S
C642 C647 1.399 . S
C643 C642 1.399 . S
C643 C644 1.376 . S
C644 H631 0.930 . S
C644 C643 1.376 . S
C644 C645 1.388 . S
C645 H632 0.930 . S
C645 C644 1.388 . S
C645 C646 1.390 . S
C646 C645 1.390 . S
C646 C647 1.394 . S
C646 C652 1.465 . S
C647 C642 1.399 . S
C647 C646 1.394 . S
C647 C648 1.516 . S
C648 C647 1.516 . S
C648 C649 1.502 . S
C648 C650 1.561 . S
C648 C651 1.526 . S
C649 H633 0.959 . S
C649 H634 0.959 . S
C649 H635 0.961 . S
C649 C648 1.502 . S
C650 H636 0.960 . S
C650 H637 0.961 1_455 S
C650 H638 0.959 1_455 S
C650 C648 1.561 . S
C651 C648 1.526 . S
C651 C652 1.396 . S
C651 C656 1.390 . S
C652 C646 1.465 . S
C652 C651 1.396 . S
C652 C653 1.399 . S
C653 H639 0.929 . S
C653 C652 1.399 . S
C653 C654 1.385 . S
C654 H640 0.931 . S
C654 C653 1.385 . S
C654 C655 1.393 1_455 S
C655 C654 1.393 1_655 S
C655 C656 1.378 1_655 S
C656 H641 0.930 . S
C656 C651 1.390 . S
C656 C655 1.378 1_455 S
H657 C669 0.930 . S
H658 C671 0.930 . S
H659 C672 0.930 . S
H660 C676 0.959 . S
H661 C676 0.959 . S
H662 C676 0.961 . S
H663 C677 0.960 . S
H664 C677 0.961 . S
H665 C677 0.959 . S
H666 C680 0.929 . S
H667 C681 0.931 . S
H668 C683 0.930 . S
C669 H657 0.930 . S
C669 C670 1.399 . S
C669 C674 1.399 . S
C670 C669 1.399 . S
C670 C671 1.376 . S
C671 H658 0.930 . S
C671 C670 1.376 . S
C671 C672 1.388 . S
C672 H659 0.930 . S
C672 C671 1.388 . S
C672 C673 1.390 . S
C673 C672 1.390 . S
C673 C674 1.394 . S
C673 C679 1.465 . S
C674 C669 1.399 . S
C674 C673 1.394 . S
C674 C675 1.516 . S
C675 C674 1.516 . S
C675 C676 1.502 . S
C675 C677 1.561 . S
C675 C678 1.526 . S
C676 H660 0.959 . S
C676 H661 0.959 . S
C676 H662 0.961 . S
C676 C675 1.502 . S
C677 H663 0.960 . S
C677 H664 0.961 . S
C677 H665 0.959 . S
C677 C675 1.561 . S
C678 C675 1.526 . S
C678 C679 1.396 . S
C678 C683 1.390 . S
C679 C673 1.465 . S
C679 C678 1.396 . S
C679 C680 1.399 . S
C680 H666 0.929 . S
C680 C679 1.399 . S
C680 C681 1.385 . S
C681 H667 0.931 . S
C681 C680 1.385 . S
C681 C682 1.389 . S
C682 C681 1.389 . S
C682 C683 1.387 . S
C683 H668 0.930 . S
C683 C678 1.390 . S
C683 C682 1.387 . S
H684 C696 0.930 . S
H685 C698 0.930 . S
H686 C699 0.930 . S
H687 C703 0.959 . S
H688 C703 0.959 . S
H689 C703 0.961 . S
H690 C704 0.960 . S
H691 C704 0.961 . S
H692 C704 0.959 . S
H693 C707 0.929 . S
H694 C708 0.931 . S
H695 C710 0.930 . S
C696 H684 0.930 . S
C696 C697 1.399 . S
C696 C701 1.399 . S
C697 C696 1.399 . S
C697 C698 1.376 . S
C698 H685 0.930 . S
C698 C697 1.376 . S
C698 C699 1.388 1_545 S
C699 H686 0.930 . S
C699 C698 1.388 1_565 S
C699 C700 1.390 . S
C700 C699 1.390 . S
C700 C701 1.394 1_565 S
C700 C706 1.465 . S
C701 C696 1.399 . S
C701 C700 1.394 1_545 S
C701 C702 1.516 . S
C702 C701 1.516 . S
C702 C703 1.502 . S
C702 C704 1.561 . S
C702 C705 1.526 1_545 S
C703 H687 0.959 . S
C703 H688 0.959 . S
C703 H689 0.961 . S
C703 C702 1.502 . S
C704 H690 0.960 . S
C704 H691 0.961 . S
C704 H692 0.959 . S
C704 C702 1.561 . S
C705 C702 1.526 1_565 S
C705 C706 1.396 . S
C705 C710 1.390 . S
C706 C700 1.465 . S
C706 C705 1.396 . S
C706 C707 1.399 . S
C707 H693 0.929 . S
C707 C706 1.399 . S
C707 C708 1.385 . S
C708 H694 0.931 . S
C708 C707 1.385 . S
C708 C709 1.389 . S
C709 C708 1.389 . S
C709 C710 1.387 . S
C710 H695 0.930 . S
C710 C705 1.390 . S
C710 C709 1.387 . S
H711 C723 0.930 . S
H712 C725 0.930 . S
H713 C726 0.930 . S
H714 C730 0.959 . S
H715 C730 0.959 . S
H716 C730 0.961 . S
H717 C731 0.960 . S
H718 C731 0.961 1_655 S
H719 C731 0.959 1_655 S
H720 C734 0.929 . S
H721 C735 0.931 . S
H722 C737 0.930 . S
C723 H711 0.930 . S
C723 C724 1.399 . S
C723 C728 1.399 . S
C724 C723 1.399 . S
C724 C725 1.376 . S
C725 H712 0.930 . S
C725 C724 1.376 . S
C725 C726 1.388 . S
C726 H713 0.930 . S
C726 C725 1.388 . S
C726 C727 1.390 . S
C727 C726 1.390 . S
C727 C728 1.394 . S
C727 C733 1.465 . S
C728 C723 1.399 . S
C728 C727 1.394 . S
C728 C729 1.516 . S
C729 C728 1.516 . S
C729 C730 1.502 . S
C729 C731 1.561 . S
C729 C732 1.526 . S
C730 H714 0.959 . S
C730 H715 0.959 . S
C730 H716 0.961 . S
C730 C729 1.502 . S
C731 H717 0.960 . S
C731 H718 0.961 1_455 S
C731 H719 0.959 1_455 S
C731 C729 1.561 . S
C732 C729 1.526 . S
C732 C733 1.396 . S
C732 C737 1.390 . S
C733 C727 1.465 . S
C733 C732 1.396 . S
C733 C734 1.399 . S
C734 H720 0.929 . S
C734 C733 1.399 . S
C734 C735 1.385 . S
C735 H721 0.931 . S
C735 C734 1.385 . S
C735 C736 1.389 . S
C736 C735 1.389 . S
C736 C737 1.387 . S
C737 H722 0.930 . S
C737 C732 1.390 . S
C737 C736 1.387 . S
H738 C750 0.930 . S
H739 C752 0.930 . S
H740 C753 0.930 . S
H741 C757 0.959 . S
H742 C757 0.959 . S
H743 C757 0.961 . S
H744 C758 0.960 . S
H745 C758 0.961 . S
H746 C758 0.959 . S
H747 C761 0.929 . S
H748 C762 0.931 . S
H749 C764 0.930 . S
C750 H738 0.930 . S
C750 C751 1.399 . S
C750 C755 1.399 . S
C751 C750 1.399 . S
C751 C752 1.376 . S
C752 H739 0.930 . S
C752 C751 1.376 . S
C752 C753 1.388 . S
C753 H740 0.930 . S
C753 C752 1.388 . S
C753 C754 1.390 . S
C754 C753 1.390 . S
C754 C755 1.394 . S
C754 C760 1.465 . S
C755 C750 1.399 . S
C755 C754 1.394 . S
C755 C756 1.516 . S
C756 C755 1.516 . S
C756 C757 1.502 . S
C756 C758 1.561 . S
C756 C759 1.526 . S
C757 H741 0.959 . S
C757 H742 0.959 . S
C757 H743 0.961 . S
C757 C756 1.502 . S
C758 H744 0.960 . S
C758 H745 0.961 . S
C758 H746 0.959 . S
C758 C756 1.561 . S
C759 C756 1.526 . S
C759 C760 1.396 . S
C759 C764 1.390 . S
C760 C754 1.465 . S
C760 C759 1.396 . S
C760 C761 1.399 . S
C761 H747 0.929 . S
C761 C760 1.399 . S
C761 C762 1.385 . S
C762 H748 0.931 . S
C762 C761 1.385 . S
C762 C763 1.389 . S
C763 C762 1.389 . S
C763 C764 1.387 . S
C764 H749 0.930 . S
C764 C759 1.390 . S
C764 C763 1.387 . S
H765 C777 0.930 . S
H766 C779 0.930 . S
H767 C780 0.930 . S
H768 C784 0.959 . S
H769 C784 0.959 . S
H770 C784 0.961 . S
H771 C785 0.960 . S
H772 C785 0.961 . S
H773 C785 0.959 . S
H774 C788 0.929 . S
H775 C789 0.931 . S
H776 C791 0.930 . S
C777 H765 0.930 . S
C777 C778 1.399 . S
C777 C782 1.399 . S
C778 C777 1.399 . S
C778 C779 1.376 . S
C779 H766 0.930 . S
C779 C778 1.376 . S
C779 C780 1.388 . S
C780 H767 0.930 . S
C780 C779 1.388 . S
C780 C781 1.390 . S
C781 C780 1.390 . S
C781 C782 1.394 . S
C781 C787 1.465 . S
C782 C777 1.399 . S
C782 C781 1.394 . S
C782 C783 1.516 . S
C783 C782 1.516 . S
C783 C784 1.502 . S
C783 C785 1.561 . S
C783 C786 1.526 . S
C784 H768 0.959 . S
C784 H769 0.959 . S
C784 H770 0.961 . S
C784 C783 1.502 . S
C785 H771 0.960 . S
C785 H772 0.961 . S
C785 H773 0.959 . S
C785 C783 1.561 . S
C786 C783 1.526 . S
C786 C787 1.396 . S
C786 C791 1.390 . S
C787 C781 1.465 . S
C787 C786 1.396 . S
C787 C788 1.399 . S
C788 H774 0.929 . S
C788 C787 1.399 . S
C788 C789 1.385 . S
C789 H775 0.931 . S
C789 C788 1.385 . S
C789 C790 1.389 . S
C790 C789 1.389 . S
C790 C791 1.387 . S
C791 H776 0.930 . S
C791 C786 1.390 . S
C791 C790 1.387 . S
H792 C804 0.930 . S
H793 C806 0.930 . S
H794 C807 0.930 . S
H795 C811 0.959 . S
H796 C811 0.959 . S
H797 C811 0.961 . S
H798 C812 0.960 . S
H799 C812 0.961 . S
H800 C812 0.959 . S
H801 C815 0.929 . S
H802 C816 0.931 . S
H803 C818 0.930 . S
C804 H792 0.930 . S
C804 C805 1.399 . S
C804 C809 1.399 . S
C805 C804 1.399 . S
C805 C806 1.376 . S
C806 H793 0.930 . S
C806 C805 1.376 . S
C806 C807 1.388 . S
C807 H794 0.930 . S
C807 C806 1.388 . S
C807 C808 1.390 . S
C808 C807 1.390 . S
C808 C809 1.394 . S
C808 C814 1.465 . S
C809 C804 1.399 . S
C809 C808 1.394 . S
C809 C810 1.516 . S
C810 C809 1.516 . S
C810 C811 1.502 . S
C810 C812 1.561 . S
C810 C813 1.526 . S
C811 H795 0.959 . S
C811 H796 0.959 . S
C811 H797 0.961 . S
C811 C810 1.502 . S
C812 H798 0.960 . S
C812 H799 0.961 . S
C812 H800 0.959 . S
C812 C810 1.561 . S
C813 C810 1.526 . S
C813 C814 1.396 . S
C813 C818 1.390 . S
C814 C808 1.465 . S
C814 C813 1.396 . S
C814 C815 1.399 . S
C815 H801 0.929 . S
C815 C814 1.399 . S
C815 C816 1.385 . S
C816 H802 0.931 . S
C816 C815 1.385 . S
C816 C817 1.389 . S
C817 C816 1.389 . S
C817 C818 1.387 . S
C818 H803 0.930 . S
C818 C813 1.390 . S
C818 C817 1.387 . S
H819 C831 0.930 . S
H820 C833 0.930 . S
H821 C834 0.930 . S
H822 C838 0.959 . S
H823 C838 0.959 . S
H824 C838 0.961 . S
H825 C839 0.960 . S
H826 C839 0.961 . S
H827 C839 0.959 . S
H828 C842 0.929 . S
H829 C843 0.931 . S
H830 C845 0.930 . S
C831 H819 0.930 . S
C831 C832 1.399 . S
C831 C836 1.399 . S
C832 C831 1.399 . S
C832 C833 1.376 . S
C833 H820 0.930 . S
C833 C832 1.376 . S
C833 C834 1.388 . S
C834 H821 0.930 . S
C834 C833 1.388 . S
C834 C835 1.390 . S
C835 C834 1.390 . S
C835 C836 1.394 . S
C835 C841 1.465 . S
C836 C831 1.399 . S
C836 C835 1.394 . S
C836 C837 1.516 . S
C837 C836 1.516 . S
C837 C838 1.502 . S
C837 C839 1.561 . S
C837 C840 1.526 . S
C838 H822 0.959 . S
C838 H823 0.959 . S
C838 H824 0.961 . S
C838 C837 1.502 . S
C839 H825 0.960 . S
C839 H826 0.961 . S
C839 H827 0.959 . S
C839 C837 1.561 . S
C840 C837 1.526 . S
C840 C841 1.396 . S
C840 C845 1.390 . S
C841 C835 1.465 . S
C841 C840 1.396 . S
C841 C842 1.399 . S
C842 H828 0.929 . S
C842 C841 1.399 . S
C842 C843 1.385 . S
C843 H829 0.931 . S
C843 C842 1.385 . S
C843 C844 1.389 . S
C844 C843 1.389 . S
C844 C845 1.387 . S
C845 H830 0.930 . S
C845 C840 1.390 . S
C845 C844 1.387 . S
H846 C858 0.930 . S
H847 C860 0.930 . S
H848 C861 0.930 . S
H849 C865 0.959 . S
H850 C865 0.959 . S
H851 C865 0.961 . S
H852 C866 0.960 . S
H853 C866 0.961 . S
H854 C866 0.959 . S
H855 C869 0.929 . S
H856 C870 0.931 . S
H857 C872 0.930 . S
C858 H846 0.930 . S
C858 C859 1.399 . S
C858 C863 1.399 . S
C859 C858 1.399 . S
C859 C860 1.376 . S
C860 H847 0.930 . S
C860 C859 1.376 . S
C860 C861 1.388 . S
C861 H848 0.930 . S
C861 C860 1.388 . S
C861 C862 1.390 . S
C862 C861 1.390 . S
C862 C863 1.394 . S
C862 C868 1.465 . S
C863 C858 1.399 . S
C863 C862 1.394 . S
C863 C864 1.516 . S
C864 C863 1.516 . S
C864 C865 1.502 . S
C864 C866 1.561 . S
C864 C867 1.526 . S
C865 H849 0.959 . S
C865 H850 0.959 . S
C865 H851 0.961 . S
C865 C864 1.502 . S
C866 H852 0.960 . S
C866 H853 0.961 . S
C866 H854 0.959 . S
C866 C864 1.561 . S
C867 C864 1.526 . S
C867 C868 1.396 . S
C867 C872 1.390 . S
C868 C862 1.465 . S
C868 C867 1.396 . S
C868 C869 1.399 . S
C869 H855 0.929 . S
C869 C868 1.399 . S
C869 C870 1.385 . S
C870 H856 0.931 . S
C870 C869 1.385 . S
C870 C871 1.389 . S
C871 C870 1.389 . S
C871 C872 1.387 . S
C872 H857 0.930 . S
C872 C867 1.390 . S
C872 C871 1.387 . S
H873 C885 0.930 . S
H874 C887 0.930 . S
H875 C888 0.930 . S
H876 C892 0.959 . S
H877 C892 0.959 . S
H878 C892 0.961 . S
H879 C893 0.960 . S
H880 C893 0.961 . S
H881 C893 0.959 . S
H882 C896 0.929 . S
H883 C897 0.931 . S
H884 C899 0.930 . S
C885 H873 0.930 . S
C885 C886 1.399 . S
C885 C890 1.399 . S
C886 C885 1.399 . S
C886 C887 1.376 . S
C887 H874 0.930 . S
C887 C886 1.376 . S
C887 C888 1.388 . S
C888 H875 0.930 . S
C888 C887 1.388 . S
C888 C889 1.390 . S
C889 C888 1.390 . S
C889 C890 1.394 . S
C889 C895 1.465 . S
C890 C885 1.399 . S
C890 C889 1.394 . S
C890 C891 1.516 . S
C891 C890 1.516 . S
C891 C892 1.502 . S
C891 C893 1.561 . S
C891 C894 1.526 . S
C892 H876 0.959 . S
C892 H877 0.959 . S
C892 H878 0.961 . S
C892 C891 1.502 . S
C893 H879 0.960 . S
C893 H880 0.961 . S
C893 H881 0.959 . S
C893 C891 1.561 . S
C894 C891 1.526 . S
C894 C895 1.396 . S
C894 C899 1.390 . S
C895 C889 1.465 . S
C895 C894 1.396 . S
C895 C896 1.399 . S
C896 H882 0.929 . S
C896 C895 1.399 . S
C896 C897 1.385 . S
C897 H883 0.931 . S
C897 C896 1.385 . S
C897 C898 1.389 . S
C898 C897 1.389 . S
C898 C899 1.387 . S
C899 H884 0.930 . S
C899 C894 1.390 . S
C899 C898 1.387 . S
H900 C912 0.930 . S
H901 C914 0.930 . S
H902 C915 0.930 . S
H903 C919 0.959 . S
H904 C919 0.959 . S
H905 C919 0.961 . S
H906 C920 0.960 . S
H907 C920 0.961 . S
H908 C920 0.959 . S
H909 C923 0.929 . S
H910 C924 0.931 . S
H911 C926 0.930 . S
C912 H900 0.930 . S
C912 C913 1.399 . S
C912 C917 1.399 . S
C913 C912 1.399 . S
C913 C914 1.376 . S
C914 H901 0.930 . S
C914 C913 1.376 . S
C914 C915 1.388 . S
C915 H902 0.930 . S
C915 C914 1.388 . S
C915 C916 1.390 . S
C916 C915 1.390 . S
C916 C917 1.394 . S
C916 C922 1.465 . S
C917 C912 1.399 . S
C917 C916 1.394 . S
C917 C918 1.516 . S
C918 C917 1.516 . S
C918 C919 1.502 . S
C918 C920 1.561 . S
C918 C921 1.526 . S
C919 H903 0.959 . S
C919 H904 0.959 . S
C919 H905 0.961 . S
C919 C918 1.502 . S
C920 H906 0.960 . S
C920 H907 0.961 . S
C920 H908 0.959 . S
C920 C918 1.561 . S
C921 C918 1.526 . S
C921 C922 1.396 . S
C921 C926 1.390 . S
C922 C916 1.465 . S
C922 C921 1.396 . S
C922 C923 1.399 . S
C923 H909 0.929 . S
C923 C922 1.399 . S
C923 C924 1.385 . S
C924 H910 0.931 . S
C924 C923 1.385 . S
C924 C925 1.389 . S
C925 C924 1.389 . S
C925 C926 1.387 . S
C926 H911 0.930 . S
C926 C921 1.390 . S
C926 C925 1.387 . S
H927 C939 0.930 . S
H928 C941 0.930 . S
H929 C942 0.930 . S
H930 C946 0.959 . S
H931 C946 0.959 . S
H932 C946 0.961 . S
H933 C947 0.960 . S
H934 C947 0.961 . S
H935 C947 0.959 . S
H936 C950 0.929 . S
H937 C951 0.931 . S
H938 C953 0.930 . S
C939 H927 0.930 . S
C939 C940 1.399 . S
C939 C944 1.399 . S
C940 C939 1.399 . S
C940 C941 1.376 . S
C941 H928 0.930 . S
C941 C940 1.376 . S
C941 C942 1.388 . S
C942 H929 0.930 . S
C942 C941 1.388 . S
C942 C943 1.390 . S
C943 C942 1.390 . S
C943 C944 1.394 . S
C943 C949 1.465 . S
C944 C939 1.399 . S
C944 C943 1.394 . S
C944 C945 1.516 . S
C945 C944 1.516 . S
C945 C946 1.502 . S
C945 C947 1.561 . S
C945 C948 1.526 . S
C946 H930 0.959 . S
C946 H931 0.959 . S
C946 H932 0.961 . S
C946 C945 1.502 . S
C947 H933 0.960 . S
C947 H934 0.961 . S
C947 H935 0.959 . S
C947 C945 1.561 . S
C948 C945 1.526 . S
C948 C949 1.396 . S
C948 C953 1.390 . S
C949 C943 1.465 . S
C949 C948 1.396 . S
C949 C950 1.399 . S
C950 H936 0.929 . S
C950 C949 1.399 . S
C950 C951 1.385 . S
C951 H937 0.931 . S
C951 C950 1.385 . S
C951 C952 1.389 . S
C952 C951 1.389 . S
C952 C953 1.387 . S
C953 H938 0.930 . S
C953 C948 1.390 . S
C953 C952 1.387 . S
H954 C966 0.930 . S
H955 C968 0.930 . S
H956 C969 0.930 . S
H957 C973 0.959 . S
H958 C973 0.959 . S
H959 C973 0.961 . S
H960 C974 0.960 . S
H961 C974 0.961 . S
H962 C974 0.959 . S
H963 C977 0.929 . S
H964 C978 0.931 . S
H965 C980 0.930 . S
C966 H954 0.930 . S
C966 C967 1.399 . S
C966 C971 1.399 . S
C967 C966 1.399 . S
C967 C968 1.376 . S
C968 H955 0.930 . S
C968 C967 1.376 . S
C968 C969 1.388 . S
C969 H956 0.930 . S
C969 C968 1.388 . S
C969 C970 1.390 . S
C970 C969 1.390 . S
C970 C971 1.394 . S
C970 C976 1.465 . S
C971 C966 1.399 . S
C971 C970 1.394 . S
C971 C972 1.516 . S
C972 C971 1.516 . S
C972 C973 1.502 . S
C972 C974 1.561 . S
C972 C975 1.526 . S
C973 H957 0.959 . S
C973 H958 0.959 . S
C973 H959 0.961 . S
C973 C972 1.502 . S
C974 H960 0.960 . S
C974 H961 0.961 . S
C974 H962 0.959 . S
C974 C972 1.561 . S
C975 C972 1.526 . S
C975 C976 1.396 . S
C975 C980 1.390 . S
C976 C970 1.465 . S
C976 C975 1.396 . S
C976 C977 1.399 . S
C977 H963 0.929 . S
C977 C976 1.399 . S
C977 C978 1.385 . S
C978 H964 0.931 . S
C978 C977 1.385 . S
C978 C979 1.389 . S
C979 C978 1.389 . S
C979 C980 1.387 . S
C980 H965 0.930 . S
C980 C975 1.390 . S
C980 C979 1.387 . S
H981 C993 0.930 . S
H982 C995 0.930 . S
H983 C996 0.930 . S
H984 C1000 0.959 . S
H985 C1000 0.959 . S
H986 C1000 0.961 . S
H987 C1001 0.960 . S
H988 C1001 0.961 . S
H989 C1001 0.959 . S
H990 C1004 0.929 . S
H991 C1005 0.931 . S
H992 C1007 0.930 . S
C993 H981 0.930 . S
C993 C994 1.399 . S
C993 C998 1.399 . S
C994 C993 1.399 . S
C994 C995 1.376 . S
C995 H982 0.930 . S
C995 C994 1.376 . S
C995 C996 1.388 . S
C996 H983 0.930 . S
C996 C995 1.388 . S
C996 C997 1.390 . S
C997 C996 1.390 . S
C997 C998 1.394 . S
C997 C1003 1.465 . S
C998 C993 1.399 . S
C998 C997 1.394 . S
C998 C999 1.516 . S
C999 C998 1.516 . S
C999 C1000 1.502 . S
C999 C1001 1.561 . S
C999 C1002 1.526 . S
C1000 H984 0.959 . S
C1000 H985 0.959 . S
C1000 H986 0.961 . S
C1000 C999 1.502 . S
C1001 H987 0.960 . S
C1001 H988 0.961 . S
C1001 H989 0.959 . S
C1001 C999 1.561 . S
C1002 C999 1.526 . S
C1002 C1003 1.396 . S
C1002 C1007 1.390 . S
C1003 C997 1.465 . S
C1003 C1002 1.396 . S
C1003 C1004 1.399 . S
C1004 H990 0.929 . S
C1004 C1003 1.399 . S
C1004 C1005 1.385 . S
C1005 H991 0.931 . S
C1005 C1004 1.385 . S
C1005 C1006 1.389 . S
C1006 C1005 1.389 . S
C1006 C1007 1.387 . S
C1007 H992 0.930 . S
C1007 C1002 1.390 . S
C1007 C1006 1.387 . S
H1008 C1020 0.930 . S
H1009 C1022 0.930 . S
H1010 C1023 0.930 . S
H1011 C1027 0.959 . S
H1012 C1027 0.959 . S
H1013 C1027 0.961 . S
H1014 C1028 0.960 . S
H1015 C1028 0.961 . S
H1016 C1028 0.959 . S
H1017 C1031 0.929 . S
H1018 C1032 0.931 . S
H1019 C1034 0.930 . S
C1020 H1008 0.930 . S
C1020 C1021 1.399 . S
C1020 C1025 1.399 . S
C1021 C1020 1.399 . S
C1021 C1022 1.376 . S
C1022 H1009 0.930 . S
C1022 C1021 1.376 . S
C1022 C1023 1.388 . S
C1023 H1010 0.930 . S
C1023 C1022 1.388 . S
C1023 C1024 1.390 . S
C1024 C1023 1.390 . S
C1024 C1025 1.394 . S
C1024 C1030 1.465 . S
C1025 C1020 1.399 . S
C1025 C1024 1.394 . S
C1025 C1026 1.516 . S
C1026 C1025 1.516 . S
C1026 C1027 1.502 . S
C1026 C1028 1.561 . S
C1026 C1029 1.526 . S
C1027 H1011 0.959 . S
C1027 H1012 0.959 . S
C1027 H1013 0.961 . S
C1027 C1026 1.502 . S
C1028 H1014 0.960 . S
C1028 H1015 0.961 . S
C1028 H1016 0.959 . S
C1028 C1026 1.561 . S
C1029 C1026 1.526 . S
C1029 C1030 1.396 . S
C1029 C1034 1.390 . S
C1030 C1024 1.465 . S
C1030 C1029 1.396 . S
C1030 C1031 1.399 . S
C1031 H1017 0.929 . S
C1031 C1030 1.399 . S
C1031 C1032 1.385 . S
C1032 H1018 0.931 . S
C1032 C1031 1.385 . S
C1032 C1033 1.389 . S
C1033 C1032 1.389 . S
C1033 C1034 1.387 . S
C1034 H1019 0.930 . S
C1034 C1029 1.390 . S
C1034 C1033 1.387 . S
H1035 C1047 0.930 . S
H1036 C1049 0.930 . S
H1037 C1050 0.930 . S
H1038 C1054 0.959 . S
H1039 C1054 0.959 . S
H1040 C1054 0.961 . S
H1041 C1055 0.960 . S
H1042 C1055 0.961 . S
H1043 C1055 0.959 . S
H1044 C1058 0.929 . S
H1045 C1059 0.931 . S
H1046 C1061 0.930 . S
C1047 H1035 0.930 . S
C1047 C1048 1.399 . S
C1047 C1052 1.399 . S
C1048 C1047 1.399 . S
C1048 C1049 1.376 . S
C1049 H1036 0.930 . S
C1049 C1048 1.376 . S
C1049 C1050 1.388 . S
C1050 H1037 0.930 . S
C1050 C1049 1.388 . S
C1050 C1051 1.390 . S
C1051 C1050 1.390 . S
C1051 C1052 1.394 . S
C1051 C1057 1.465 . S
C1052 C1047 1.399 . S
C1052 C1051 1.394 . S
C1052 C1053 1.516 . S
C1053 C1052 1.516 . S
C1053 C1054 1.502 . S
C1053 C1055 1.561 . S
C1053 C1056 1.526 . S
C1054 H1038 0.959 . S
C1054 H1039 0.959 . S
C1054 H1040 0.961 . S
C1054 C1053 1.502 . S
C1055 H1041 0.960 . S
C1055 H1042 0.961 . S
C1055 H1043 0.959 . S
C1055 C1053 1.561 . S
C1056 C1053 1.526 . S
C1056 C1057 1.396 . S
C1056 C1061 1.390 . S
C1057 C1051 1.465 . S
C1057 C1056 1.396 . S
C1057 C1058 1.399 . S
C1058 H1044 0.929 . S
C1058 C1057 1.399 . S
C1058 C1059 1.385 . S
C1059 H1045 0.931 . S
C1059 C1058 1.385 . S
C1059 C1060 1.389 . S
C1060 C1059 1.389 . S
C1060 C1061 1.387 . S
C1061 H1046 0.930 . S
C1061 C1056 1.390 . S
C1061 C1060 1.387 . S
H1062 C1074 0.930 . S
H1063 C1076 0.930 . S
H1064 C1077 0.930 . S
H1065 C1081 0.959 . S
H1066 C1081 0.959 . S
H1067 C1081 0.961 . S
H1068 C1082 0.960 . S
H1069 C1082 0.961 . S
H1070 C1082 0.959 . S
H1071 C1085 0.929 . S
H1072 C1086 0.931 . S
H1073 C1088 0.930 . S
C1074 H1062 0.930 . S
C1074 C1075 1.399 . S
C1074 C1079 1.399 . S
C1075 C1074 1.399 . S
C1075 C1076 1.376 . S
C1076 H1063 0.930 . S
C1076 C1075 1.376 . S
C1076 C1077 1.388 . S
C1077 H1064 0.930 . S
C1077 C1076 1.388 . S
C1077 C1078 1.390 . S
C1078 C1077 1.390 . S
C1078 C1079 1.394 . S
C1078 C1084 1.465 . S
C1079 C1074 1.399 . S
C1079 C1078 1.394 . S
C1079 C1080 1.516 . S
C1080 C1079 1.516 . S
C1080 C1081 1.502 . S
C1080 C1082 1.561 . S
C1080 C1083 1.526 . S
C1081 H1065 0.959 . S
C1081 H1066 0.959 . S
C1081 H1067 0.961 . S
C1081 C1080 1.502 . S
C1082 H1068 0.960 . S
C1082 H1069 0.961 . S
C1082 H1070 0.959 . S
C1082 C1080 1.561 . S
C1083 C1080 1.526 . S
C1083 C1084 1.396 . S
C1083 C1088 1.390 . S
C1084 C1078 1.465 . S
C1084 C1083 1.396 . S
C1084 C1085 1.399 . S
C1085 H1071 0.929 . S
C1085 C1084 1.399 . S
C1085 C1086 1.385 . S
C1086 H1072 0.931 . S
C1086 C1085 1.385 . S
C1086 C1087 1.389 . S
C1087 C1086 1.389 . S
C1087 C1088 1.387 . S
C1088 H1073 0.930 . S
C1088 C1083 1.390 . S
C1088 C1087 1.387 . S
H1089 C1101 0.930 . S
H1090 C1103 0.930 . S
H1091 C1104 0.930 1_565 S
H1092 C1108 0.959 . S
H1093 C1108 0.959 . S
H1094 C1108 0.961 . S
H1095 C1109 0.949 1_545 S
H1096 C1109 0.963 . S
H1097 C1109 0.986 . S
H1098 C1112 0.929 . S
H1099 C1113 0.931 . S
H1100 C1115 0.930 . S
C1101 H1089 0.930 . S
C1101 C1102 1.399 . S
C1101 C1106 1.399 . S
C1102 C1101 1.399 . S
C1102 C1103 1.376 . S
C1103 H1090 0.930 . S
C1103 C1102 1.376 . S
C1103 C1104 1.388 . S
C1104 H1091 0.930 1_545 S
C1104 C1103 1.388 . S
C1104 C1105 1.390 1_545 S
C1105 C1104 1.390 1_565 S
C1105 C1106 1.394 1_565 S
C1105 C1111 1.465 . S
C1106 C1101 1.399 . S
C1106 C1105 1.394 1_545 S
C1106 C1107 1.516 . S
C1107 C1106 1.516 . S
C1107 C1108 1.502 . S
C1107 C1109 1.544 1_545 S
C1107 C1110 1.526 1_545 S
C1108 H1092 0.959 . S
C1108 H1093 0.959 . S
C1108 H1094 0.961 . S
C1108 C1107 1.502 . S
C1109 H1095 0.949 1_565 S
C1109 H1096 0.963 . S
C1109 H1097 0.986 . S
C1109 C1107 1.544 1_565 S
C1110 C1107 1.526 1_565 S
C1110 C1111 1.396 . S
C1110 C1115 1.390 . S
C1111 C1105 1.465 . S
C1111 C1110 1.396 . S
C1111 C1112 1.399 . S
C1112 H1098 0.929 . S
C1112 C1111 1.399 . S
C1112 C1113 1.385 . S
C1113 H1099 0.931 . S
C1113 C1112 1.385 . S
C1113 C1114 1.389 . S
C1114 C1113 1.389 . S
C1114 C1115 1.387 . S
C1115 H1100 0.930 . S
C1115 C1110 1.390 . S
C1115 C1114 1.387 . S
H1116 C1128 0.930 . S
H1117 C1130 0.930 . S
H1118 C1131 0.930 . S
H1119 C1135 0.959 . S
H1120 C1135 0.959 . S
H1121 C1135 0.961 . S
H1122 C1136 0.960 . S
H1123 C1136 0.961 . S
H1124 C1136 0.959 . S
H1125 C1139 0.929 . S
H1126 C1140 0.931 . S
H1127 C1142 0.930 . S
C1128 H1116 0.930 . S
C1128 C1129 1.399 . S
C1128 C1133 1.399 . S
C1129 C1128 1.399 . S
C1129 C1130 1.376 . S
C1130 H1117 0.930 . S
C1130 C1129 1.376 . S
C1130 C1131 1.388 . S
C1131 H1118 0.930 . S
C1131 C1130 1.388 . S
C1131 C1132 1.390 . S
C1132 C1131 1.390 . S
C1132 C1133 1.394 . S
C1132 C1138 1.465 . S
C1133 C1128 1.399 . S
C1133 C1132 1.394 . S
C1133 C1134 1.516 . S
C1134 C1133 1.516 . S
C1134 C1135 1.502 . S
C1134 C1136 1.561 . S
C1134 C1137 1.526 . S
C1135 H1119 0.959 . S
C1135 H1120 0.959 . S
C1135 H1121 0.961 . S
C1135 C1134 1.502 . S
C1136 H1122 0.960 . S
C1136 H1123 0.961 . S
C1136 H1124 0.959 . S
C1136 C1134 1.561 . S
C1137 C1134 1.526 . S
C1137 C1138 1.396 . S
C1137 C1142 1.390 . S
C1138 C1132 1.465 . S
C1138 C1137 1.396 . S
C1138 C1139 1.399 1_455 S
C1139 H1125 0.929 . S
C1139 C1138 1.399 1_655 S
C1139 C1140 1.385 . S
C1140 H1126 0.931 . S
C1140 C1139 1.385 . S
C1140 C1141 1.389 . S
C1141 C1140 1.389 . S
C1141 C1142 1.387 1_655 S
C1142 H1127 0.930 . S
C1142 C1137 1.390 . S
C1142 C1141 1.387 1_455 S
H1143 C1155 0.930 . S
H1144 C1157 0.930 . S
H1145 C1158 0.930 . S
H1146 C1162 0.959 . S
H1147 C1162 0.959 . S
H1148 C1162 0.961 . S
H1149 C1163 0.958 1_556 S
H1150 C1163 0.963 . S
H1151 C1163 0.963 . S
H1152 C1166 0.929 1_554 S
H1153 C1167 0.931 . S
H1154 C1169 0.930 . S
C1155 H1143 0.930 . S
C1155 C1156 1.399 . S
C1155 C1160 1.399 . S
C1156 C1155 1.399 . S
C1156 C1157 1.376 . S
C1157 H1144 0.930 . S
C1157 C1156 1.376 . S
C1157 C1158 1.388 . S
C1158 H1145 0.930 . S
C1158 C1157 1.388 . S
C1158 C1159 1.390 . S
C1159 C1158 1.390 . S
C1159 C1160 1.394 . S
C1159 C1165 1.465 . S
C1160 C1155 1.399 . S
C1160 C1159 1.394 . S
C1160 C1161 1.516 . S
C1161 C1160 1.516 . S
C1161 C1162 1.502 . S
C1161 C1163 1.557 1_556 S
C1161 C1164 1.526 . S
C1162 H1146 0.959 . S
C1162 H1147 0.959 . S
C1162 H1148 0.961 . S
C1162 C1161 1.502 . S
C1163 H1149 0.958 1_554 S
C1163 H1150 0.963 . S
C1163 H1151 0.963 . S
C1163 C1161 1.557 1_554 S
C1164 C1161 1.526 . S
C1164 C1165 1.396 . S
C1164 C1169 1.390 . S
C1165 C1159 1.465 . S
C1165 C1164 1.396 . S
C1165 C1166 1.402 . S
C1166 H1152 0.929 1_556 S
C1166 C1165 1.402 . S
C1166 C1167 1.382 1_556 S
C1167 H1153 0.931 . S
C1167 C1166 1.382 1_554 S
C1167 C1168 1.389 . S
C1168 C1167 1.389 . S
C1168 C1169 1.387 1_554 S
C1169 H1154 0.930 . S
C1169 C1164 1.390 . S
C1169 C1168 1.387 1_556 S
H1170 C1182 0.930 . S
H1171 C1184 0.930 . S
H1172 C1185 0.930 . S
H1173 C1189 0.959 . S
H1174 C1189 0.959 . S
H1175 C1189 0.961 . S
H1176 C1190 0.947 1_556 S
H1177 C1190 0.974 . S
H1178 C1190 0.940 1_556 S
H1179 C1193 0.929 . S
H1180 C1194 0.931 . S
H1181 C1196 0.930 . S
C1182 H1170 0.930 . S
C1182 C1183 1.399 . S
C1182 C1187 1.399 1_566 S
C1183 C1182 1.399 . S
C1183 C1184 1.376 . S
C1184 H1171 0.930 . S
C1184 C1183 1.376 . S
C1184 C1185 1.388 1_556 S
C1185 H1172 0.930 . S
C1185 C1184 1.388 1_554 S
C1185 C1186 1.390 . S
C1186 C1185 1.390 . S
C1186 C1187 1.394 1_565 S
C1186 C1192 1.465 1_565 S
C1187 C1182 1.399 1_544 S
C1187 C1186 1.394 1_545 S
C1187 C1188 1.516 . S
C1188 C1187 1.516 . S
C1188 C1189 1.502 . S
C1188 C1190 1.582 . S
C1188 C1191 1.526 . S
C1189 H1173 0.959 . S
C1189 H1174 0.959 . S
C1189 H1175 0.961 . S
C1189 C1188 1.502 . S
C1190 H1176 0.947 1_554 S
C1190 H1177 0.974 . S
C1190 H1178 0.940 1_554 S
C1190 C1188 1.582 . S
C1191 C1188 1.526 . S
C1191 C1192 1.396 . S
C1191 C1196 1.390 . S
C1192 C1186 1.465 1_545 S
C1192 C1191 1.396 . S
C1192 C1193 1.399 . S
C1193 H1179 0.929 . S
C1193 C1192 1.399 . S
C1193 C1194 1.385 . S
C1194 H1180 0.931 . S
C1194 C1193 1.385 . S
C1194 C1195 1.389 . S
C1195 C1194 1.389 . S
C1195 C1196 1.387 . S
C1196 H1181 0.930 . S
C1196 C1191 1.390 . S
C1196 C1195 1.387 . S
H1197 C1209 0.930 . S
H1198 C1211 0.930 . S
H1199 C1212 0.930 . S
H1200 C1216 0.959 . S
H1201 C1216 0.959 . S
H1202 C1216 0.961 . S
H1203 C1217 0.960 . S
H1204 C1217 0.961 . S
H1205 C1217 0.959 . S
H1206 C1220 0.929 1_655 S
H1207 C1221 0.931 1_556 S
H1208 C1223 0.930 . S
C1209 H1197 0.930 . S
C1209 C1210 1.399 1_554 S
C1209 C1214 1.399 . S
C1210 C1209 1.399 1_556 S
C1210 C1211 1.376 . S
C1211 H1198 0.930 . S
C1211 C1210 1.376 . S
C1211 C1212 1.388 . S
C1212 H1199 0.930 . S
C1212 C1211 1.388 . S
C1212 C1213 1.390 . S
C1213 C1212 1.390 . S
C1213 C1214 1.394 1_556 S
C1213 C1219 1.465 1_556 S
C1214 C1209 1.399 . S
C1214 C1213 1.394 1_554 S
C1214 C1215 1.516 . S
C1215 C1214 1.516 . S
C1215 C1216 1.502 . S
C1215 C1217 1.561 . S
C1215 C1218 1.526 . S
C1216 H1200 0.959 . S
C1216 H1201 0.959 . S
C1216 H1202 0.961 . S
C1216 C1215 1.502 . S
C1217 H1203 0.960 . S
C1217 H1204 0.961 . S
C1217 H1205 0.959 . S
C1217 C1215 1.561 . S
C1218 C1215 1.526 . S
C1218 C1219 1.396 . S
C1218 C1223 1.390 . S
C1219 C1213 1.465 1_554 S
C1219 C1218 1.396 . S
C1219 C1220 1.399 1_554 S
C1220 H1206 0.929 1_455 S
C1220 C1219 1.399 1_556 S
C1220 C1221 1.385 1_456 S
C1221 H1207 0.931 1_554 S
C1221 C1220 1.385 1_654 S
C1221 C1222 1.389 . S
C1222 C1221 1.389 . S
C1222 C1223 1.387 1_655 S
C1223 H1208 0.930 . S
C1223 C1218 1.390 . S
C1223 C1222 1.387 1_455 S
C265 C9 1.478 . S
C277 C205 1.452 1_554 S
C292 C174 1.252 1_554 S
C304 C20 1.259 . S
C319 C34 1.085 1_565 S
C331 C191 1.119 . S
C346 C93 1.620 . S
C358 C37 1.581 . S
C373 C107 1.536 . S
C385 C6 1.509 1_655 S
C400 C121 1.462 . S
C412 C23 1.447 . S
C427 C48 1.423 1_655 S
C439 C163 1.405 . S
C454 C135 1.540 1_556 S
C466 C65 1.523 . S
C481 C146 1.154 . S
C493 C76 1.163 . S
C508 C79 1.496 . S
C520 C216 1.478 . S
C535 C51 1.226 . S
C547 C233 1.249 . S
C562 C244 1.039 . S
C574 C62 0.979 . S
C589 C177 1.172 . S
C601 C118 1.107 . S
C616 C90 1.156 . S
C628 C188 1.149 . S
C643 C202 0.665 . S
C655 C104 0.702 . S
C670 C247 1.138 . S
C682 C132 1.165 . S
C697 C149 1.324 . S
C709 C219 1.289 . S
C724 C230 0.986 . S
C736 C160 0.991 . S
C751 C217 1.916 . S
C763 C8 1.590 . S
C778 C21 1.713 . S
C790 C232 1.578 . S
C805 C35 1.587 . S
C817 C245 1.644 . S
C832 C36 1.537 . S
C844 C162 1.576 . S
C859 C134 1.691 . S
C871 C7 1.861 . S
C886 C22 1.529 . S
C898 C147 1.829 . S
C913 C92 1.617 . S
C925 C49 1.772 . S
C940 C106 1.705 . S
C952 C64 1.573 . S
C967 C77 1.789 . S
C979 C120 1.641 . S
C994 C78 1.675 . S
C1006 C204 1.671 . S
C1021 C50 1.441 . S
C1033 C175 1.700 . S
C1048 C63 1.885 . S
C1060 C190 1.763 . S
C1075 C119 1.719 . S
C1087 C246 1.556 . S
C1102 C91 1.818 . S
C1114 C218 1.610 . S
C1129 C231 1.725 . S
C1141 C105 1.777 . S
C1156 C176 1.532 . S
C1168 C133 1.793 . S
C1183 C189 1.820 . S
C1195 C148 1.515 . S
C1210 C203 1.743 . S
C1222 C161 1.757 . S
