# Generated by pormake.
# Topology ung, (4)-cn, num edge types: 1
# Building blocks:
#     Node 0, Type 0, BuildingBlock: MUDLON_clean_sbu_0, # of connection points: 4
#     Node 1, Type 0, BuildingBlock: MUDLON_clean_sbu_0, # of connection points: 4
#     Node 2, Type 0, BuildingBlock: MUDLON_clean_sbu_0, # of connection points: 4
#     Node 3, Type 0, BuildingBlock: MUDLON_clean_sbu_0, # of connection points: 4
#     Node 4, Type 0, BuildingBlock: MUDLON_clean_sbu_0, # of connection points: 4
#     Node 5, Type 0, BuildingBlock: MUDLON_clean_sbu_0, # of connection points: 4
#     Node 6, Type 0, BuildingBlock: MUDLON_clean_sbu_0, # of connection points: 4
#     Node 7, Type 0, BuildingBlock: MUDLON_clean_sbu_0, # of connection points: 4
#     Node 8, Type 0, BuildingBlock: MUDLON_clean_sbu_0, # of connection points: 4
#     Node 9, Type 0, BuildingBlock: MUDLON_clean_sbu_0, # of connection points: 4
#     Node 10, Type 0, BuildingBlock: MUDLON_clean_sbu_0, # of connection points: 4
#     Node 11, Type 0, BuildingBlock: MUDLON_clean_sbu_0, # of connection points: 4
#     Node 12, Type 0, BuildingBlock: MUDLON_clean_sbu_0, # of connection points: 4
#     Node 13, Type 0, BuildingBlock: MUDLON_clean_sbu_0, # of connection points: 4
#     Node 14, Type 0, BuildingBlock: MUDLON_clean_sbu_0, # of connection points: 4
#     Node 15, Type 0, BuildingBlock: MUDLON_clean_sbu_0, # of connection points: 4
#     Node 16, Type 0, BuildingBlock: MUDLON_clean_sbu_0, # of connection points: 4
#     Node 17, Type 0, BuildingBlock: MUDLON_clean_sbu_0, # of connection points: 4
#     Edge 18, Type (0, 0), BuildingBlock: AJUNOK_clean_linker_0, # of connection points: 2
#     Edge 19, Type (0, 0), BuildingBlock: AJUNOK_clean_linker_0, # of connection points: 2
#     Edge 20, Type (0, 0), BuildingBlock: AJUNOK_clean_linker_0, # of connection points: 2
#     Edge 21, Type (0, 0), BuildingBlock: AJUNOK_clean_linker_0, # of connection points: 2
#     Edge 22, Type (0, 0), BuildingBlock: AJUNOK_clean_linker_0, # of connection points: 2
#     Edge 23, Type (0, 0), BuildingBlock: AJUNOK_clean_linker_0, # of connection points: 2
#     Edge 24, Type (0, 0), BuildingBlock: AJUNOK_clean_linker_0, # of connection points: 2
#     Edge 25, Type (0, 0), BuildingBlock: AJUNOK_clean_linker_0, # of connection points: 2
#     Edge 26, Type (0, 0), BuildingBlock: AJUNOK_clean_linker_0, # of connection points: 2
#     Edge 27, Type (0, 0), BuildingBlock: AJUNOK_clean_linker_0, # of connection points: 2
#     Edge 28, Type (0, 0), BuildingBlock: AJUNOK_clean_linker_0, # of connection points: 2
#     Edge 29, Type (0, 0), BuildingBlock: AJUNOK_clean_linker_0, # of connection points: 2
#     Edge 30, Type (0, 0), BuildingBlock: AJUNOK_clean_linker_0, # of connection points: 2
#     Edge 31, Type (0, 0), BuildingBlock: AJUNOK_clean_linker_0, # of connection points: 2
#     Edge 32, Type (0, 0), BuildingBlock: AJUNOK_clean_linker_0, # of connection points: 2
#     Edge 33, Type (0, 0), BuildingBlock: AJUNOK_clean_linker_0, # of connection points: 2
#     Edge 34, Type (0, 0), BuildingBlock: AJUNOK_clean_linker_0, # of connection points: 2
#     Edge 35, Type (0, 0), BuildingBlock: AJUNOK_clean_linker_0, # of connection points: 2
#     Edge 36, Type (0, 0), BuildingBlock: AJUNOK_clean_linker_0, # of connection points: 2
#     Edge 37, Type (0, 0), BuildingBlock: AJUNOK_clean_linker_0, # of connection points: 2
#     Edge 38, Type (0, 0), BuildingBlock: AJUNOK_clean_linker_0, # of connection points: 2
#     Edge 39, Type (0, 0), BuildingBlock: AJUNOK_clean_linker_0, # of connection points: 2
#     Edge 40, Type (0, 0), BuildingBlock: AJUNOK_clean_linker_0, # of connection points: 2
#     Edge 41, Type (0, 0), BuildingBlock: AJUNOK_clean_linker_0, # of connection points: 2
#     Edge 42, Type (0, 0), BuildingBlock: AJUNOK_clean_linker_0, # of connection points: 2
#     Edge 43, Type (0, 0), BuildingBlock: AJUNOK_clean_linker_0, # of connection points: 2
#     Edge 44, Type (0, 0), BuildingBlock: AJUNOK_clean_linker_0, # of connection points: 2
#     Edge 45, Type (0, 0), BuildingBlock: AJUNOK_clean_linker_0, # of connection points: 2
#     Edge 46, Type (0, 0), BuildingBlock: AJUNOK_clean_linker_0, # of connection points: 2
#     Edge 47, Type (0, 0), BuildingBlock: AJUNOK_clean_linker_0, # of connection points: 2
#     Edge 48, Type (0, 0), BuildingBlock: AJUNOK_clean_linker_0, # of connection points: 2
#     Edge 49, Type (0, 0), BuildingBlock: AJUNOK_clean_linker_0, # of connection points: 2
#     Edge 50, Type (0, 0), BuildingBlock: AJUNOK_clean_linker_0, # of connection points: 2
#     Edge 51, Type (0, 0), BuildingBlock: AJUNOK_clean_linker_0, # of connection points: 2
#     Edge 52, Type (0, 0), BuildingBlock: AJUNOK_clean_linker_0, # of connection points: 2
#     Edge 53, Type (0, 0), BuildingBlock: AJUNOK_clean_linker_0, # of connection points: 2
# Relax obj value: 0.034
# Max RMSD: 0.247
# Mean RMSD: 0.245
data_MOF--net-ung--node1-MUDLON_clean_sbu_0--edge1-AJUNOK_clean_linker_0
_symmetry_space_group_name_H-M    P1
_symmetry_Int_Tables_number       1
_symmetry_cell_setting            triclinic
loop_
_symmetry_equiv_pos_as_xyz
'x, y, z'
_cell_length_a     57.130106
_cell_length_b     57.891093
_cell_length_c     17.387477
_cell_angle_alpha  89.54682
_cell_angle_beta   90.74111
_cell_angle_gamma 121.3599
loop_
_atom_site_label
_atom_site_type_symbol
_atom_site_fract_x
_atom_site_fract_y
_atom_site_fract_z
_atom_type_partial_charge
Mg0 Mg 0.05169 0.65282 0.25523 0.0
C1 C 0.05982 0.61996 0.36957 0.0
O2 O 0.08259 0.63186 0.32992 0.0
C3 C 1.01306 0.67303 0.21066 0.0
O4 O 0.02434 0.68892 0.27054 0.0
C5 C 0.04487 0.61514 0.13658 0.0
O6 O 1.02054 0.60564 0.16662 0.0
O7 O 0.06494 0.63679 0.16455 0.0
O8 O 0.04098 0.62454 0.35063 0.0
O9 O 0.08205 0.69328 0.29652 0.0
C10 C 0.08468 0.69754 0.36879 0.0
O11 O 0.06996 0.67718 0.41538 0.0
O12 O 1.01887 0.65505 0.19711 0.0
Mg13 Mg 0.47941 0.5137 0.26942 0.0
C14 C 0.43604 0.50407 0.38439 0.0
O15 O 0.45584 0.50749 0.43108 0.0
C16 C 0.51772 0.54513 0.14521 0.0
O17 O 0.52869 0.53218 0.17668 0.0
C18 C 0.44994 0.46484 0.17943 0.0
O19 O 0.43761 0.47843 0.16776 0.0
O20 O 0.47068 0.47488 0.22442 0.0
O21 O 0.44041 0.5066 0.31228 0.0
O22 O 0.50925 0.53199 0.36255 0.0
C23 C 0.51438 0.55543 0.38109 0.0
O24 O 0.5022 0.56579 0.34181 0.0
O25 O 0.49558 0.54153 0.1731 0.0
Mg26 Mg 0.61353 0.07165 0.27902 0.0
C27 C 0.58289 0.08068 0.15766 0.0
O28 O 0.59417 0.10303 0.19847 0.0
C29 C 0.6241 0.0379 0.38897 0.0
O30 O 0.62062 0.05342 0.4362 0.0
C31 C 0.5692 0.05674 0.38785 0.0
O32 O 0.56113 0.03481 0.34694 0.0
O33 O 0.59215 0.07781 0.37196 0.0
O34 O 0.58696 0.06193 0.17872 0.0
O35 O 0.65339 0.10598 0.24555 0.0
C36 C 0.65986 0.10634 0.17547 0.0
O37 O 0.64184 0.08743 0.12919 0.0
O38 O 0.62141 0.04022 0.31693 0.0
Mg39 Mg 0.05215 0.52071 0.75979 0.0
C40 C 0.04704 0.55393 0.64007 0.0
O41 O 0.02403 0.54353 0.67837 0.0
C42 C 0.06996 0.49455 0.86615 0.0
O43 O 0.04432 0.48625 0.88201 0.0
C44 C 0.06107 0.55902 0.88466 0.0
O45 O 0.08622 0.56738 0.86309 0.0
O46 O 0.0413 0.53876 0.8505 0.0
O47 O 0.06486 0.54832 0.66231 0.0
O48 O 1.01827 0.4816 0.72108 0.0
C49 C 1.0163 0.47576 0.64992 0.0
O50 O 0.03359 0.49424 0.60192 0.0
O51 O 0.0814 0.51162 0.81193 0.0
Mg52 Mg 0.61596 0.64989 0.77155 0.0
C53 C 0.58362 0.61041 0.64901 0.0
O54 O 0.59507 0.59879 0.68573 0.0
C55 C 0.62707 0.69325 0.88457 0.0
O56 O 0.62537 0.67418 0.92982 0.0
C57 C 0.57346 0.61646 0.88462 0.0
O58 O 0.5632 0.62911 0.84751 0.0
O59 O 0.59678 0.62085 0.8644 0.0
O60 O 0.58842 0.6332 0.673 0.0
O61 O 0.65577 0.65735 0.73592 0.0
C62 C 0.66216 0.66388 0.66585 0.0
O63 O 0.644 0.66415 0.61935 0.0
O64 O 0.62316 0.68864 0.81259 0.0
Mg65 Mg 0.49048 0.08718 0.76649 0.0
C66 C 0.52004 0.07455 0.88282 0.0
O67 O 0.50689 0.05241 0.84135 0.0
C68 C 0.48237 0.12497 0.66566 0.0
O69 O 0.48809 0.11224 0.61398 0.0
C70 C 0.50367 0.05802 0.64132 0.0
O71 O 0.4838 0.03585 0.67283 0.0
O72 O 0.50966 0.08078 0.6684 0.0
O73 O 0.51757 0.09451 0.86432 0.0
O74 O 0.45021 0.05348 0.79946 0.0
C75 C 0.44421 0.05236 0.87028 0.0
O76 O 0.46294 0.07005 0.91774 0.0
O77 O 0.48353 0.11984 0.73652 0.0
Mg78 Mg 0.71927 0.98014 0.61512 0.0
C79 C 0.70198 0.95184 0.77289 0.0
O80 O 0.69356 0.96875 0.7844 0.0
C81 C 0.68357 0.98871 0.50735 0.0
O82 O 0.70267 0.99062 0.4618 0.0
C83 C 0.71281 0.94136 0.49659 0.0
O84 O 0.68998 0.92814 0.5358 0.0
O85 O 0.73074 0.96524 0.51758 0.0
O86 O 0.71223 0.95202 0.70834 0.0
O87 O 0.74992 0.02111 0.6508 0.0
C88 C 0.76158 0.0264 0.71662 0.0
O89 O 0.7574 1.00627 0.76142 0.0
O90 O 0.68411 0.98282 0.57787 0.0
Mg91 Mg 0.15132 0.85202 0.60026 0.0
C92 C 0.10788 0.83757 0.71401 0.0
O93 O 0.12593 0.83408 0.75141 0.0
C94 C 0.1916 0.88479 0.48072 0.0
O95 O 0.2033 0.87337 0.51714 0.0
C96 C 0.13682 0.80688 0.49086 0.0
O97 O 0.13698 0.82519 0.44538 0.0
O98 O 0.14315 0.81273 0.56151 0.0
O99 O 0.11284 0.84569 0.64451 0.0
O100 O 0.18077 0.87026 0.69425 0.0
C101 C 0.184 0.89246 0.7183 0.0
O102 O 0.17017 0.90202 0.68386 0.0
O103 O 0.16836 0.87982 0.50377 0.0
Mg104 Mg 0.2788 0.4118 0.60475 0.0
C105 C 0.2393 0.39655 0.73067 0.0
O106 O 0.23384 0.37308 0.70375 0.0
C107 C 0.32495 0.44596 0.50073 0.0
O108 O 0.30688 0.42689 0.45491 0.0
C109 C 0.24828 0.4208 0.48128 0.0
O110 O 0.2621 0.44458 0.51478 0.0
O111 O 0.25112 0.40174 0.50705 0.0
O112 O 0.25856 0.41812 0.7004 0.0
O113 O 0.28725 0.3805 0.6392 0.0
C114 C 0.29475 0.381 0.70878 0.0
O115 O 0.29548 0.3991 0.75548 0.0
O116 O 0.31848 0.44601 0.57053 0.0
Mg117 Mg 0.71571 0.8484 0.11256 0.0
C118 C 0.72498 0.88871 0.2284 0.0
O119 O 0.74684 0.90081 0.18499 0.0
C120 C 0.68073 0.80284 1.00478 0.0
O121 O 0.69601 0.82241 0.95648 0.0
C122 C 0.70315 0.88251 1.01675 0.0
O123 O 0.6834 0.8716 0.06748 0.0
O124 O 0.7216 0.87641 1.01968 0.0
O125 O 0.70637 0.86455 0.21183 0.0
O126 O 0.75049 0.84446 0.14663 0.0
C127 C 0.75226 0.83987 0.21769 0.0
O128 O 0.73456 0.83977 0.26536 0.0
O129 O 0.68345 0.80811 0.07644 0.0
Mg130 Mg 0.29014 0.98645 0.10236 0.0
C131 C 0.2478 0.95364 0.21604 0.0
O132 O 0.23729 0.96552 0.17613 0.0
C133 C 0.33347 0.99626 0.98901 0.0
O134 O 0.31419 0.99481 0.9437 0.0
C135 C 0.25501 0.94644 0.98406 0.0
O136 O 0.26635 0.93448 1.01943 0.0
O137 O 0.26092 0.96967 1.00739 0.0
O138 O 0.27138 0.95831 0.19761 0.0
O139 O 0.29931 0.0261 0.14152 0.0
C140 C 0.30252 0.03137 0.21323 0.0
O141 O 0.29831 1.01208 0.26166 0.0
O142 O 0.32892 0.9925 0.06096 0.0
Mg143 Mg 0.14857 0.41813 0.09485 0.0
C144 C 0.17594 0.40741 0.22304 0.0
O145 O 0.15644 0.38322 0.20083 0.0
C146 C 0.11783 0.43868 1.01841 0.0
O147 O 0.10367 0.41232 1.00898 0.0
C148 C 0.17647 0.39642 0.99176 0.0
O149 O 0.17611 0.3832 0.05384 0.0
O150 O 0.16511 0.41033 0.99276 0.0
O151 O 0.17804 0.42793 0.18865 0.0
O152 O 0.10936 0.38522 0.13788 0.0
C153 C 0.10406 0.38839 0.2066 0.0
O154 O 0.12232 0.40998 0.24463 0.0
O155 O 0.14011 0.44916 0.05708 0.0
Mg156 Mg 0.38062 0.31295 0.9355 0.0
C157 C 0.38966 0.28391 0.06066 0.0
O158 O 0.41447 0.30074 0.03517 0.0
C159 C 0.35032 0.32769 0.8245 0.0
O160 O 0.37099 0.3311 0.78327 0.0
C161 C 0.36985 0.27731 0.80533 0.0
O162 O 0.34548 0.27032 0.83086 0.0
O163 O 0.39102 0.2961 0.83951 0.0
O164 O 0.36961 0.28426 0.02917 0.0
O165 O 0.4111 0.35227 0.98308 0.0
C166 C 0.39949 0.35954 0.03099 0.0
O167 O 0.37323 0.34303 0.04397 0.0
O168 O 0.34809 0.31917 0.89339 0.0
Mg169 Mg 0.81557 0.17907 0.94631 0.0
C170 C 0.77089 0.16721 0.05828 0.0
O171 O 0.79096 0.17165 0.10536 0.0
C172 C 0.85678 0.21329 0.83123 0.0
O173 O 0.86829 0.20207 0.86962 0.0
C174 C 0.80392 0.13486 0.83696 0.0
O175 O 0.80157 0.15201 0.79246 0.0
O176 O 0.81054 0.14107 0.90725 0.0
O177 O 0.77539 0.16979 0.98617 0.0
O178 O 0.84414 0.19694 0.04195 0.0
C179 C 0.84957 0.22017 0.06358 0.0
O180 O 0.83832 0.23176 0.0257 0.0
O181 O 0.83297 0.20758 0.85109 0.0
Mg182 Mg 0.95265 0.75625 0.94851 0.0
C183 C 0.92337 0.74013 0.7886 0.0
O184 O 0.94027 0.73187 0.77278 0.0
C185 C 0.96972 0.71504 0.9829 0.0
O186 O 0.98527 0.72613 0.92247 0.0
C187 C 0.91342 0.75023 0.06045 0.0
O188 O 0.90195 0.72776 1.02023 0.0
O189 O 0.93752 0.76899 0.04251 0.0
O190 O 0.92386 0.7491 0.85535 0.0
O191 O 0.99448 0.78484 0.91218 0.0
C192 C 1.00008 0.79644 0.84677 0.0
O193 O 0.9799 0.79324 0.80205 0.0
O194 O 0.95271 0.72195 1.00073 0.0
Mg195 Mg 0.39004 0.18653 0.44386 0.0
C196 C 0.37714 0.21071 0.31147 0.0
O197 O 0.35287 0.19183 0.33573 0.0
C198 C 0.42347 0.17569 0.55316 0.0
O199 O 0.40413 0.17426 0.59664 0.0
C200 C 0.37511 0.22196 0.5354 0.0
O201 O 0.37394 0.2308 0.4666 0.0
O202 O 0.38001 0.20297 0.54229 0.0
O203 O 0.39828 0.21366 0.34644 0.0
O204 O 0.35818 0.1463 0.40482 0.0
C205 C 0.36082 0.14064 0.33601 0.0
O206 O 0.38161 0.15898 0.29572 0.0
O207 O 0.42382 0.18174 0.48236 0.0
Mg208 Mg 0.95 0.31807 0.44666 0.0
C209 C 0.91716 0.27523 0.33355 0.0
O210 O 0.92981 0.26542 0.37309 0.0
C211 C 0.96016 0.36395 0.54917 0.0
O212 O 0.95863 0.34638 0.60022 0.0
C213 C 0.91 0.28392 0.56699 0.0
O214 O 0.89653 0.29306 0.52844 0.0
O215 O 0.93405 0.29103 0.54539 0.0
O216 O 0.9212 0.29822 0.3525 0.0
O217 O 0.99003 0.32698 0.40729 0.0
C218 C 0.99483 0.32999 0.3354 0.0
O219 O 0.97491 0.32573 0.28786 0.0
O220 O 0.95588 0.35706 0.47868 0.0
Mg221 Mg 0.8188 0.75371 0.44401 0.0
C222 C 0.85442 0.74315 0.54274 0.0
O223 O 0.84474 0.72375 0.49121 0.0
C224 C 0.80963 0.78846 0.33504 0.0
O225 O 0.81041 0.77108 0.28873 0.0
C226 C 0.85892 0.7617 0.32599 0.0
O227 O 0.87191 0.7842 0.36604 0.0
O228 O 0.83483 0.7436 0.34606 0.0
O229 O 0.84748 0.76077 0.53781 0.0
O230 O 0.77833 0.7216 0.4808 0.0
C231 C 0.77377 0.71727 0.55256 0.0
O232 O 0.79414 0.73108 0.60116 0.0
O233 O 0.8137 0.7871 0.40682 0.0
C234 C 0.07866 0.59443 0.98756 0.0
C235 C 0.05621 0.57305 0.94807 0.0
C236 C 0.07486 0.60803 0.04798 0.0
C237 C 0.04845 0.60077 0.07163 0.0
H238 H 0.09946 0.60075 0.97204 0.0
H239 H 0.09282 0.62422 0.07671 0.0
S240 S 0.98268 0.54685 0.98534 0.0
N241 N 1.00653 0.54574 0.93592 0.0
N242 N 0.99934 0.57119 0.04912 0.0
C243 C 0.02577 0.57958 0.03219 0.0
C244 C 0.02966 0.56576 0.97058 0.0
C245 C 0.5696 0.58452 0.98877 0.0
C246 C 0.55855 0.59822 0.95024 0.0
C247 C 0.55621 0.56747 0.05142 0.0
C248 C 0.53119 0.56339 0.07851 0.0
H249 H 0.58883 0.58695 0.97059 0.0
H250 H 0.56571 0.55747 0.07885 0.0
S251 S 0.49336 0.59443 0.99788 0.0
N252 N 0.52085 0.60644 0.94385 0.0
N253 N 0.4958 0.57446 0.06153 0.0
C254 C 0.51983 0.57692 0.04053 0.0
C255 C 0.53346 0.59428 0.97651 0.0
C256 C 0.56272 0.09958 0.06668 0.0
C257 C 0.56667 0.07825 0.08733 0.0
C258 C 0.54787 0.0983 1.00039 0.0
C259 C 0.53627 0.07561 0.95174 0.0
H260 H 0.57115 0.11756 0.102 0.0
H261 H 0.54537 0.11524 0.98756 0.0
S262 S 0.54094 0.01433 0.97892 0.0
N263 N 0.55794 0.03377 0.05304 0.0
N264 N 0.53006 0.03128 0.92854 0.0
C265 C 0.54013 0.05411 0.97144 0.0
C266 C 0.55529 0.05544 0.03911 0.0
C267 C 0.55832 0.08079 0.48753 0.0
C268 C 0.55209 0.05647 0.45202 0.0
C269 C 0.54245 0.08104 0.54804 0.0
C270 C 0.51973 0.05694 0.57613 0.0
H271 H 0.57556 0.09989 0.46829 0.0
H272 H 0.54821 0.10037 0.57318 0.0
S273 S 0.4949 0.98765 0.50386 0.0
N274 N 0.52163 1.00748 0.44999 0.0
N275 N 0.49196 1.00799 0.5636 0.0
C276 C 0.5133 0.03244 0.54128 0.0
C277 C 0.5294 0.03219 0.47935 0.0
C278 C 0.034 0.59282 0.4851 0.0
C279 C 0.05697 0.60282 0.43731 0.0
C280 C 0.03117 0.57723 0.55041 0.0
C281 C 0.05117 0.57091 0.57092 0.0
H282 H 1.01807 0.59717 0.47241 0.0
H283 H 1.01306 0.57013 0.58512 0.0
S284 S 0.11503 0.59161 0.46422 0.0
N285 N 0.10002 0.60486 0.4146 0.0
N286 N 0.09463 0.57563 0.53721 0.0
C287 C 0.0742 0.58065 0.5235 0.0
C288 C 0.0771 0.59655 0.45683 0.0
C289 C 0.5607 0.57156 0.55684 0.0
C290 C 0.56601 0.59713 0.58023 0.0
C291 C 0.54426 0.55839 0.49224 0.0
C292 C 0.53239 0.5702 0.44804 0.0
H293 H 0.56924 0.56146 0.58878 0.0
H294 H 0.54074 0.5387 0.4772 0.0
S295 S 0.54019 0.63715 0.48377 0.0
N296 N 0.55823 0.63391 0.55326 0.0
N297 N 0.52742 0.60931 0.43199 0.0
C298 C 0.53766 0.59588 0.47043 0.0
C299 C 0.5544 0.60928 0.53638 0.0
C300 C 0.69953 0.88916 0.344 0.0
C301 C 0.7225 0.90276 0.2961 0.0
C302 C 0.69675 0.90181 0.4086 0.0
C303 C 0.7168 0.92862 0.42821 0.0
H304 H 0.6835 0.8685 0.33175 0.0
H305 H 0.67862 0.89036 0.44339 0.0
S306 S 0.78086 0.97339 0.32139 0.0
N307 N 0.76572 0.94477 0.27263 0.0
N308 N 0.76043 0.96845 0.39399 0.0
C309 C 0.7399 0.94251 0.38084 0.0
C310 C 0.74274 0.92963 0.31488 0.0
C311 C 0.23119 0.90774 0.39044 0.0
C312 C 0.20527 0.90251 0.41314 0.0
C313 C 0.24466 0.92412 0.3267 0.0
C314 C 0.23282 0.93601 0.28271 0.0
H315 H 0.24131 0.89914 0.42213 0.0
H316 H 0.26458 0.92751 0.31204 0.0
S317 S 0.16512 0.9286 0.31728 0.0
N318 N 0.16819 0.91052 0.38606 0.0
N319 N 0.19339 0.94124 0.26641 0.0
C320 C 0.20685 0.93092 0.30461 0.0
C321 C 0.19313 0.91422 0.36968 0.0
C322 C 0.22937 0.43895 0.38326 0.0
C323 C 0.22996 0.41672 0.41462 0.0
C324 C 0.21212 0.43585 0.32098 0.0
C325 C 0.19458 0.41036 0.28768 0.0
H326 H 0.24234 0.45903 0.40695 0.0
H327 H 0.21237 0.45358 0.29939 0.0
S328 S 0.18861 0.34564 0.34697 0.0
N329 N 0.21171 0.36834 0.40654 0.0
N330 N 0.1793 0.36243 0.2899 0.0
C331 C 0.19509 0.38795 0.31807 0.0
C332 C 0.21276 0.39114 0.38131 0.0
C333 C 0.19687 0.37565 0.91213 0.0
C334 C 0.19181 0.3967 0.92321 0.0
C335 C 0.21214 0.37581 0.84948 0.0
C336 C 0.22349 0.39731 0.79636 0.0
H337 H 0.18887 0.35881 0.95198 0.0
H338 H 0.21539 0.35907 0.84328 0.0
S339 S 0.21642 0.45744 0.79915 0.0
N340 N 0.19928 0.43964 0.87511 0.0
N341 N 0.22849 0.44012 0.75837 0.0
C342 C 0.21876 0.41857 0.80678 0.0
C343 C 0.20274 0.41819 0.86983 0.0
C344 C 0.71782 0.90526 0.88808 0.0
C345 C 0.70306 0.90073 0.95626 0.0
C346 C 0.71704 0.92151 0.82896 0.0
C347 C 0.70174 0.93419 0.83592 0.0
H348 H 0.72979 0.89588 0.87971 0.0
H349 H 0.72875 0.92428 0.77757 0.0
S350 S 0.6601 0.92948 1.00416 0.0
N351 N 0.67302 0.91068 0.028 0.0
N352 N 0.67175 0.94129 0.91736 0.0
C353 C 0.68712 0.93006 0.90423 0.0
C354 C 0.68773 0.91333 0.96417 0.0
C355 C 0.23223 0.90841 0.88933 0.0
C356 C 0.23667 0.93327 0.91645 0.0
C357 C 0.21537 0.89551 0.82519 0.0
C358 C 0.20215 0.90686 0.78535 0.0
H359 H 0.24189 0.89873 0.91767 0.0
H360 H 0.21266 0.8764 0.80699 0.0
S361 S 0.20691 0.97172 0.83274 0.0
N362 N 0.22637 0.96879 0.89821 0.0
N363 N 0.19473 0.94464 0.77788 0.0
C364 C 0.20639 0.93175 0.81179 0.0
C365 C 0.22361 0.94491 0.87718 0.0
C366 C 0.3891 0.2536 0.73418 0.0
C367 C 0.37193 0.26425 0.73553 0.0
C368 C 0.38946 0.23923 0.66989 0.0
C369 C 0.37323 0.23574 0.60421 0.0
H370 H 0.40181 0.25584 0.78372 0.0
H371 H 0.40288 0.23121 0.67109 0.0
S372 S 0.32553 0.26068 0.57885 0.0
N373 N 0.33848 0.27055 0.66624 0.0
N374 N 0.33994 0.24456 0.5444 0.0
C375 C 0.35639 0.24677 0.60464 0.0
C376 C 0.35552 0.26076 0.67063 0.0
C377 C 0.8578 0.24194 0.72067 0.0
C378 C 0.87105 0.23154 0.76491 0.0
C379 C 0.87058 0.25877 0.65708 0.0
C380 C 0.8972 0.26599 0.63485 0.0
H381 H 0.83729 0.23698 0.73489 0.0
H382 H 0.85936 0.26612 0.62508 0.0
S383 S 0.94111 0.24453 0.73194 0.0
N384 N 0.91261 0.22999 0.78221 0.0
N385 N 0.93649 0.26154 0.66295 0.0
C386 C 0.91078 0.25585 0.67876 0.0
C387 C 0.89776 0.23868 0.7436 0.0
C388 C 0.90118 0.72708 0.65812 0.0
C389 C 0.90543 0.74112 0.7275 0.0
C390 C 0.88483 0.72808 0.59891 0.0
C391 C 0.87228 0.74343 0.60603 0.0
H392 H 0.91043 0.71506 0.64943 0.0
H393 H 0.88212 0.71674 0.54687 0.0
S394 S 0.87703 0.78421 0.7756 0.0
N395 N 0.8957 0.77105 0.79974 0.0
N396 N 0.86523 0.77303 0.68807 0.0
C397 C 0.87648 0.75775 0.67478 0.0
C398 C 0.89292 0.75653 0.73557 0.0
C399 C 0.89885 0.77865 0.23757 0.0
C400 C 0.8721 0.75815 0.25776 0.0
C401 C 0.91193 0.77606 0.17344 0.0
C402 C 0.89884 0.75288 0.12676 0.0
H403 H 0.90993 0.7969 0.27161 0.0
H404 H 0.93258 0.79236 0.16078 0.0
S405 S 0.82846 0.69349 0.15361 0.0
N406 N 0.83281 0.71398 0.22507 0.0
N407 N 0.85725 0.70907 0.10471 0.0
C408 C 0.87197 0.73227 0.14593 0.0
C409 C 0.85867 0.73492 0.21133 0.0
C410 C 0.40566 0.24906 0.22128 0.0
C411 C 0.37962 0.22884 0.24688 0.0
C412 C 0.40858 0.26667 0.1613 0.0
C413 C 0.3856 0.26491 0.12435 0.0
H414 H 0.42404 0.25141 0.24777 0.0
H415 H 0.42914 0.28187 0.14405 0.0
S416 S 0.31271 0.21534 0.16884 0.0
N417 N 0.33024 0.20796 0.22988 0.0
N418 N 0.33582 0.24109 0.11752 0.0
C419 C 0.3594 0.24476 0.14919 0.0
C420 C 0.3564 0.22674 0.21023 0.0
C421 C 0.88795 0.27216 0.22077 0.0
C422 C 0.89976 0.26046 0.26575 0.0
C423 C 0.87197 0.25903 0.15552 0.0
C424 C 0.86707 0.23361 0.13233 0.0
H425 H 0.89111 0.29172 0.23574 0.0
H426 H 0.86338 0.26899 0.12313 0.0
S427 S 0.89311 0.19403 0.2304 0.0
N428 N 0.90529 0.22173 0.28252 0.0
N429 N 0.87529 0.19714 0.15999 0.0
C430 C 0.8787 0.22161 0.17679 0.0
C431 C 0.89501 0.23499 0.24339 0.0
C432 C 0.10875 0.7478 0.35165 0.0
C433 C 0.10119 0.72546 0.39999 0.0
C434 C 0.12116 0.77409 0.38141 0.0
C435 C 0.12671 0.77922 0.46072 0.0
H436 H 0.1041 0.74493 0.29062 0.0
H437 H 0.12574 0.79043 0.34184 0.0
S438 S 0.11392 0.72804 0.61076 0.0
N439 N 0.10234 0.71044 0.5304 0.0
N440 N 0.1257 0.75981 0.58618 0.0
C441 C 0.12062 0.75723 0.50918 0.0
C442 C 0.10784 0.73039 0.47888 0.0
C443 C 0.38518 0.47993 0.36468 0.0
C444 C 0.40797 0.49324 0.41454 0.0
C445 C 0.3584 0.46583 0.39308 0.0
C446 C 0.35321 0.4646 0.47249 0.0
H447 H 0.388 0.47928 0.30341 0.0
H448 H 0.34166 0.45504 0.35237 0.0
S449 S 0.40561 0.49912 0.62655 0.0
N450 N 0.42349 0.50657 0.5467 0.0
N451 N 0.37314 0.48015 0.59995 0.0
C452 C 0.37571 0.4793 0.52259 0.0
C453 C 0.40307 0.49355 0.49367 0.0
C454 C 0.6636 1.00175 0.39865 0.0
C455 C 0.66444 0.99702 0.47803 0.0
C456 C 0.64916 1.01352 0.36967 0.0
C457 C 0.63511 0.02125 0.41893 0.0
H458 H 0.67501 0.99723 0.35848 0.0
H459 H 0.65019 0.01777 0.30861 0.0
S460 S 0.6276 1.0099 0.63009 0.0
N461 N 0.64746 0.99845 0.60442 0.0
N462 N 0.62042 0.02064 0.5501 0.0
C463 C 0.6343 0.01507 0.4978 0.0
C464 C 0.64889 1.00292 0.5273 0.0
C465 C 0.69319 0.12665 0.06751 0.0
C466 C 0.68799 0.12546 0.14695 0.0
C467 C 0.71992 0.14143 0.03884 0.0
C468 C 0.74267 0.1555 0.08844 0.0
H469 H 0.67652 0.11536 0.02695 0.0
H470 H 0.72279 0.14076 0.97761 0.0
S471 S 0.74017 0.1618 0.3003 0.0
N472 N 0.7078 0.14185 0.27404 0.0
N473 N 0.75804 0.16956 0.22036 0.0
C474 C 0.7377 0.15582 0.16756 0.0
C475 C 0.7104 0.14087 0.19674 0.0
C476 C 0.97415 0.70309 0.11874 0.0
C477 C 0.97649 0.69997 0.03943 0.0
C478 C 0.98499 0.69328 0.17397 0.0
C479 C 0.99798 0.67936 0.15222 0.0
H480 H 0.96527 0.71457 0.13841 0.0
H481 H 0.9839 0.69734 0.23412 0.0
S482 S 1.00663 0.66319 0.95204 0.0
N483 N 0.99104 0.68036 0.94209 0.0
N484 N 1.01062 0.66112 0.04557 0.0
C485 C 0.99885 0.67456 0.0732 0.0
C486 C 0.98834 0.68509 1.01693 0.0
C487 C 0.39817 0.39784 0.08923 0.0
C488 C 0.41379 0.38657 0.06789 0.0
C489 C 0.41023 0.42301 0.12535 0.0
C490 C 0.43838 0.4379 0.14322 0.0
H491 H 0.37635 0.38726 0.07717 0.0
H492 H 0.39719 0.43076 0.13993 0.0
S493 S 0.4885 0.41739 0.1007 0.0
N494 N 0.45904 0.39222 0.06714 0.0
N495 N 0.48174 0.43956 0.13711 0.0
C496 C 0.45435 0.42685 0.12309 0.0
C497 C 0.44206 0.40124 0.0847 0.0
C498 C 0.97461 0.39904 0.65184 0.0
C499 C 0.97051 0.39233 0.57308 0.0
C500 C 0.98803 0.42602 0.67643 0.0
C501 C 0.99809 0.44746 0.62327 0.0
H502 H 0.96829 0.38339 0.69512 0.0
H503 H 0.99167 0.43007 0.73751 0.0
S504 S 0.98941 0.44085 0.41099 0.0
N505 N 0.97515 0.40942 0.4423 0.0
N506 N 1.00045 0.46007 0.48853 0.0
C507 C 0.99264 0.44102 0.54459 0.0
C508 C 0.97881 0.4135 0.5195 0.0
C509 C 0.69607 0.67979 0.55901 0.0
C510 C 0.69039 0.67399 0.63781 0.0
C511 C 0.72293 0.69251 0.53137 0.0
C512 C 0.74532 0.70015 0.58141 0.0
H513 H 0.67973 0.67523 0.51824 0.0
H514 H 0.72617 0.69739 0.47068 0.0
S515 S 0.74141 0.68666 0.79159 0.0
N516 N 0.70931 0.67469 0.76455 0.0
N517 N 0.75977 0.69863 0.71276 0.0
C518 C 0.73984 0.69312 0.65973 0.0
C519 C 0.71241 0.68003 0.68787 0.0
C520 C 0.45604 0.15945 0.53393 0.0
C521 C 0.44187 0.16674 0.58425 0.0
C522 C 0.47018 0.14716 0.56138 0.0
C523 C 0.4709 0.14177 0.64033 0.0
H524 H 0.45523 0.16214 0.47243 0.0
H525 H 0.47983 0.14101 0.51977 0.0
S526 S 0.44012 0.16018 0.79725 0.0
N527 N 0.43172 0.1701 0.71784 0.0
N528 N 0.45825 0.14707 0.7692 0.0
C529 C 0.45826 0.15051 0.69177 0.0
C530 C 0.44376 0.16293 0.66379 0.0
C531 C 0.38425 0.01823 1.00742 0.0
C532 C 0.36129 1.00633 0.9579 0.0
C533 C 0.41096 0.03189 0.97836 0.0
C534 C 0.41587 0.03406 0.8986 0.0
H535 H 0.38167 0.01818 0.06904 0.0
H536 H 0.42789 0.04164 1.01898 0.0
S537 S 0.36275 1.00301 0.74481 0.0
N538 N 0.34519 0.9951 0.82536 0.0
N539 N 0.39536 0.02068 0.77091 0.0
C540 C 0.39311 0.02064 0.84863 0.0
C541 C 0.36585 1.00685 0.87823 0.0
C542 C 0.06705 0.45636 0.94078 0.0
C543 C 0.08356 0.48198 0.90692 0.0
C544 C 0.07853 0.44304 0.97802 0.0
C545 C 0.10707 0.45493 0.98457 0.0
H546 H 0.0449 0.44608 0.93706 0.0
H547 H 0.06483 0.42309 1.00158 0.0
S548 S 0.15961 0.52218 0.90903 0.0
N549 N 0.13011 0.51909 0.88385 0.0
N550 N 0.15179 0.49413 0.95587 0.0
C551 C 0.12399 0.48086 0.95304 0.0
C552 C 0.11222 0.49432 0.91352 0.0
C553 C 0.64839 0.74325 0.86678 0.0
C554 C 0.637 0.72067 0.91605 0.0
C555 C 0.66141 0.76965 0.89607 0.0
C556 C 0.66347 0.77462 0.97586 0.0
H557 H 0.64833 0.74064 0.80514 0.0
H558 H 0.67071 0.78631 0.85558 0.0
S559 S 0.63362 0.72229 0.12906 0.0
N560 N 0.62618 0.7049 0.04835 0.0
N561 N 0.65055 0.75444 0.10329 0.0
C562 C 0.65067 0.75216 0.02558 0.0
C563 C 0.6375 0.72524 0.99572 0.0
C564 C 0.77777 0.07548 0.69988 0.0
C565 C 0.77597 0.05462 0.74644 0.0
C566 C 0.78776 0.10149 0.72912 0.0
C567 C 0.79642 0.10789 0.80633 0.0
H568 H 0.77058 0.07155 0.64074 0.0
H569 H 0.78791 0.11647 0.69106 0.0
S570 S 0.79876 0.06147 0.95061 0.0
N571 N 0.78586 0.04281 0.87246 0.0
N572 N 0.80459 0.0917 0.92732 0.0
C573 C 0.79608 0.08766 0.85264 0.0
C574 C 0.78589 0.06107 0.82276 0.0
C575 C 0.0593 0.82691 0.70595 0.0
C576 C 0.08144 0.83002 0.75076 0.0
C577 C 0.03338 0.81712 0.73821 0.0
C578 C 0.02851 0.81005 0.81666 0.0
H579 H 0.0617 0.8312 0.64485 0.0
H580 H 1.01683 0.81424 0.70051 0.0
S581 S 0.08052 0.81767 0.96117 0.0
N582 N 0.09739 0.82761 0.87947 0.0
N583 N 0.04881 0.80921 0.93975 0.0
C584 C 0.05084 0.81437 0.86293 0.0
C585 C 0.07723 0.82434 0.8301 0.0
C586 C 0.30795 0.36076 0.81582 0.0
C587 C 0.3052 0.36362 0.73618 0.0
C588 C 0.32111 0.34761 0.84417 0.0
C589 C 0.3324 0.33716 0.79394 0.0
H590 H 0.30058 0.36945 0.85686 0.0
H591 H 0.32366 0.34689 0.90582 0.0
S592 S 0.32819 0.33658 0.58069 0.0
N593 N 0.31279 0.35265 0.60762 0.0
N594 N 0.33788 0.32833 0.66092 0.0
C595 C 0.32858 0.3386 0.7143 0.0
C596 C 0.31485 0.35168 0.6854 0.0
C597 C 0.02706 0.34212 0.2252 0.0
C598 C 0.02302 0.34144 0.30525 0.0
C599 C 0.05343 0.35604 0.19372 0.0
C600 C 0.07682 0.3701 0.24102 0.0
H601 H 1.00966 0.33253 0.18607 0.0
H602 H 0.05539 0.35688 0.13172 0.0
S603 S 0.07793 0.37202 0.4545 0.0
N604 N 0.04505 0.35403 0.43138 0.0
N605 N 0.0945 0.38034 0.37222 0.0
C606 C 0.07322 0.36836 0.32127 0.0
C607 C 0.04638 0.35397 0.3534 0.0
C608 C 0.78724 0.81542 0.35468 0.0
C609 C 0.79963 0.80595 0.30497 0.0
C610 C 0.77322 0.82765 0.32583 0.0
C611 C 0.77114 0.8311 0.24613 0.0
H612 H 0.78709 0.81211 0.41612 0.0
H613 H 0.76303 0.8335 0.36652 0.0
S614 S 0.80373 0.8136 0.09233 0.0
N615 N 0.81165 0.80367 0.17262 0.0
N616 N 0.78538 0.82668 0.1186 0.0
C617 C 0.78516 0.82352 0.19617 0.0
C618 C 0.79934 0.81092 0.22554 0.0
C619 C 0.31565 0.06419 0.32204 0.0
C620 C 0.31408 0.05944 0.24215 0.0
C621 C 0.32955 0.09055 0.35203 0.0
C622 C 0.34272 0.11321 0.30337 0.0
H623 H 0.30675 0.04741 0.36216 0.0
H624 H 0.33104 0.0931 0.41391 0.0
S625 S 0.34204 0.11216 0.08979 0.0
N626 N 0.32485 0.07994 0.1148 0.0
N627 N 0.35111 0.12934 0.17114 0.0
C628 C 0.3401 0.10884 0.22333 0.0
C629 C 0.32573 0.08202 0.19273 0.0
loop_
_geom_bond_atom_site_label_1
_geom_bond_atom_site_label_2
_geom_bond_distance
_geom_bond_site_symmetry_2
_ccdc_geom_bond_type
Mg0 O7 2.141 . S
Mg0 O8 2.048 . S
Mg0 O9 2.048 . S
Mg0 O12 2.141 . S
C1 O2 1.313 . S
C1 O8 1.195 . S
O2 C1 1.313 . S
C3 O4 1.245 1_455 S
C3 O12 1.289 . S
O4 C3 1.245 1_655 S
C5 O6 1.245 1_455 S
C5 O7 1.289 . S
O6 C5 1.245 1_655 S
O7 Mg0 2.141 . S
O7 C5 1.289 . S
O8 Mg0 2.048 . S
O8 C1 1.195 . S
O9 Mg0 2.048 . S
O9 C10 1.195 . S
C10 O9 1.195 . S
C10 O11 1.313 . S
O11 C10 1.313 . S
O12 Mg0 2.141 . S
O12 C3 1.289 . S
Mg13 O20 2.141 . S
Mg13 O21 2.048 . S
Mg13 O22 2.048 . S
Mg13 O25 2.141 . S
C14 O15 1.313 . S
C14 O21 1.195 . S
O15 C14 1.313 . S
C16 O17 1.245 . S
C16 O25 1.289 . S
O17 C16 1.245 . S
C18 O19 1.245 . S
C18 O20 1.289 . S
O19 C18 1.245 . S
O20 Mg13 2.141 . S
O20 C18 1.289 . S
O21 Mg13 2.048 . S
O21 C14 1.195 . S
O22 Mg13 2.048 . S
O22 C23 1.195 . S
C23 O22 1.195 . S
C23 O24 1.313 . S
O24 C23 1.313 . S
O25 Mg13 2.141 . S
O25 C16 1.289 . S
Mg26 O33 2.141 . S
Mg26 O34 2.048 . S
Mg26 O35 2.048 . S
Mg26 O38 2.141 . S
C27 O28 1.313 . S
C27 O34 1.195 . S
O28 C27 1.313 . S
C29 O30 1.245 . S
C29 O38 1.289 . S
O30 C29 1.245 . S
C31 O32 1.245 . S
C31 O33 1.289 . S
O32 C31 1.245 . S
O33 Mg26 2.141 . S
O33 C31 1.289 . S
O34 Mg26 2.048 . S
O34 C27 1.195 . S
O35 Mg26 2.048 . S
O35 C36 1.195 . S
C36 O35 1.195 . S
C36 O37 1.313 . S
O37 C36 1.313 . S
O38 Mg26 2.141 . S
O38 C29 1.289 . S
Mg39 O46 2.141 . S
Mg39 O47 2.048 . S
Mg39 O48 2.048 . S
Mg39 O51 2.141 . S
C40 O41 1.313 1_455 S
C40 O47 1.195 . S
O41 C40 1.313 1_655 S
C42 O43 1.245 . S
C42 O51 1.289 . S
O43 C42 1.245 . S
C44 O45 1.245 . S
C44 O46 1.289 . S
O45 C44 1.245 . S
O46 Mg39 2.141 . S
O46 C44 1.289 . S
O47 Mg39 2.048 . S
O47 C40 1.195 . S
O48 Mg39 2.048 . S
O48 C49 1.195 . S
C49 O48 1.195 . S
C49 O50 1.313 1_455 S
O50 C49 1.313 1_655 S
O51 Mg39 2.141 . S
O51 C42 1.289 . S
Mg52 O59 2.141 . S
Mg52 O60 2.048 . S
Mg52 O61 2.048 . S
Mg52 O64 2.141 . S
C53 O54 1.313 . S
C53 O60 1.195 . S
O54 C53 1.313 . S
C55 O56 1.245 . S
C55 O64 1.289 . S
O56 C55 1.245 . S
C57 O58 1.245 . S
C57 O59 1.289 . S
O58 C57 1.245 . S
O59 Mg52 2.141 . S
O59 C57 1.289 . S
O60 Mg52 2.048 . S
O60 C53 1.195 . S
O61 Mg52 2.048 . S
O61 C62 1.195 . S
C62 O61 1.195 . S
C62 O63 1.313 . S
O63 C62 1.313 . S
O64 Mg52 2.141 . S
O64 C55 1.289 . S
Mg65 O72 2.141 . S
Mg65 O73 2.048 . S
Mg65 O74 2.048 . S
Mg65 O77 2.141 . S
C66 O67 1.313 . S
C66 O73 1.195 . S
O67 C66 1.313 . S
C68 O69 1.245 . S
C68 O77 1.289 . S
O69 C68 1.245 . S
C70 O71 1.245 . S
C70 O72 1.289 . S
O71 C70 1.245 . S
O72 Mg65 2.141 . S
O72 C70 1.289 . S
O73 Mg65 2.048 . S
O73 C66 1.195 . S
O74 Mg65 2.048 . S
O74 C75 1.195 . S
C75 O74 1.195 . S
C75 O76 1.313 . S
O76 C75 1.313 . S
O77 Mg65 2.141 . S
O77 C68 1.289 . S
Mg78 O85 2.141 . S
Mg78 O86 2.048 . S
Mg78 O87 2.048 1_565 S
Mg78 O90 2.141 . S
C79 O80 1.313 . S
C79 O86 1.195 . S
O80 C79 1.313 . S
C81 O82 1.245 . S
C81 O90 1.289 . S
O82 C81 1.245 . S
C83 O84 1.245 . S
C83 O85 1.289 . S
O84 C83 1.245 . S
O85 Mg78 2.141 . S
O85 C83 1.289 . S
O86 Mg78 2.048 . S
O86 C79 1.195 . S
O87 Mg78 2.048 1_545 S
O87 C88 1.195 . S
C88 O87 1.195 . S
C88 O89 1.313 1_545 S
O89 C88 1.313 1_565 S
O90 Mg78 2.141 . S
O90 C81 1.289 . S
Mg91 O98 2.141 . S
Mg91 O99 2.048 . S
Mg91 O100 2.048 . S
Mg91 O103 2.141 . S
C92 O93 1.313 . S
C92 O99 1.195 . S
O93 C92 1.313 . S
C94 O95 1.245 . S
C94 O103 1.289 . S
O95 C94 1.245 . S
C96 O97 1.245 . S
C96 O98 1.289 . S
O97 C96 1.245 . S
O98 Mg91 2.141 . S
O98 C96 1.289 . S
O99 Mg91 2.048 . S
O99 C92 1.195 . S
O100 Mg91 2.048 . S
O100 C101 1.195 . S
C101 O100 1.195 . S
C101 O102 1.313 . S
O102 C101 1.313 . S
O103 Mg91 2.141 . S
O103 C94 1.289 . S
Mg104 O111 2.141 . S
Mg104 O112 2.048 . S
Mg104 O113 2.048 . S
Mg104 O116 2.141 . S
C105 O106 1.313 . S
C105 O112 1.195 . S
O106 C105 1.313 . S
C107 O108 1.245 . S
C107 O116 1.289 . S
O108 C107 1.245 . S
C109 O110 1.245 . S
C109 O111 1.289 . S
O110 C109 1.245 . S
O111 Mg104 2.141 . S
O111 C109 1.289 . S
O112 Mg104 2.048 . S
O112 C105 1.195 . S
O113 Mg104 2.048 . S
O113 C114 1.195 . S
C114 O113 1.195 . S
C114 O115 1.313 . S
O115 C114 1.313 . S
O116 Mg104 2.141 . S
O116 C107 1.289 . S
Mg117 O124 2.141 . S
Mg117 O125 2.048 . S
Mg117 O126 2.048 . S
Mg117 O129 2.141 . S
C118 O119 1.313 . S
C118 O125 1.195 . S
O119 C118 1.313 . S
C120 O121 1.245 . S
C120 O129 1.289 1_556 S
O121 C120 1.245 . S
C122 O123 1.245 . S
C122 O124 1.289 1_556 S
O123 C122 1.245 . S
O124 Mg117 2.141 . S
O124 C122 1.289 1_554 S
O125 Mg117 2.048 . S
O125 C118 1.195 . S
O126 Mg117 2.048 . S
O126 C127 1.195 . S
C127 O126 1.195 . S
C127 O128 1.313 . S
O128 C127 1.313 . S
O129 Mg117 2.141 . S
O129 C120 1.289 1_554 S
Mg130 O137 2.141 . S
Mg130 O138 2.048 . S
Mg130 O139 2.048 . S
Mg130 O142 2.141 . S
C131 O132 1.313 . S
C131 O138 1.195 . S
O132 C131 1.313 . S
C133 O134 1.245 . S
C133 O142 1.289 1_546 S
O134 C133 1.245 . S
C135 O136 1.245 . S
C135 O137 1.289 1_556 S
O136 C135 1.245 . S
O137 Mg130 2.141 . S
O137 C135 1.289 1_554 S
O138 Mg130 2.048 . S
O138 C131 1.195 . S
O139 Mg130 2.048 . S
O139 C140 1.195 1_565 S
C140 O139 1.195 1_545 S
C140 O141 1.313 . S
O141 C140 1.313 . S
O142 Mg130 2.141 . S
O142 C133 1.289 1_564 S
Mg143 O150 2.141 . S
Mg143 O151 2.048 . S
Mg143 O152 2.048 . S
Mg143 O155 2.141 . S
C144 O145 1.313 . S
C144 O151 1.195 . S
O145 C144 1.313 . S
C146 O147 1.245 . S
C146 O155 1.289 1_556 S
O147 C146 1.245 . S
C148 O149 1.245 . S
C148 O150 1.289 1_556 S
O149 C148 1.245 . S
O150 Mg143 2.141 . S
O150 C148 1.289 1_554 S
O151 Mg143 2.048 . S
O151 C144 1.195 . S
O152 Mg143 2.048 . S
O152 C153 1.195 . S
C153 O152 1.195 . S
C153 O154 1.313 . S
O154 C153 1.313 . S
O155 Mg143 2.141 . S
O155 C146 1.289 1_554 S
Mg156 O163 2.141 . S
Mg156 O164 2.048 . S
Mg156 O165 2.048 . S
Mg156 O168 2.141 . S
C157 O158 1.313 . S
C157 O164 1.195 1_554 S
O158 C157 1.313 . S
C159 O160 1.245 . S
C159 O168 1.289 . S
O160 C159 1.245 . S
C161 O162 1.245 . S
C161 O163 1.289 . S
O162 C161 1.245 . S
O163 Mg156 2.141 . S
O163 C161 1.289 . S
O164 Mg156 2.048 . S
O164 C157 1.195 1_556 S
O165 Mg156 2.048 . S
O165 C166 1.195 1_556 S
C166 O165 1.195 1_554 S
C166 O167 1.313 . S
O167 C166 1.313 . S
O168 Mg156 2.141 . S
O168 C159 1.289 . S
Mg169 O176 2.141 . S
Mg169 O177 2.046 1_556 S
Mg169 O178 2.058 . S
Mg169 O181 2.141 . S
C170 O171 1.313 . S
C170 O177 1.196 . S
O171 C170 1.313 . S
C172 O173 1.245 . S
C172 O181 1.289 . S
O173 C172 1.245 . S
C174 O175 1.245 . S
C174 O176 1.289 . S
O175 C174 1.245 . S
O176 Mg169 2.141 . S
O176 C174 1.289 . S
O177 Mg169 2.046 1_554 S
O177 C170 1.196 . S
O178 Mg169 2.058 . S
O178 C179 1.190 1_556 S
C179 O178 1.190 1_554 S
C179 O180 1.313 . S
O180 C179 1.313 . S
O181 Mg169 2.141 . S
O181 C172 1.289 . S
Mg182 O189 2.141 1_556 S
Mg182 O190 2.048 . S
Mg182 O191 2.048 . S
Mg182 O194 2.141 1_556 S
C183 O184 1.313 . S
C183 O190 1.195 . S
O184 C183 1.313 . S
C185 O186 1.245 1_554 S
C185 O194 1.289 . S
O186 C185 1.245 1_556 S
C187 O188 1.245 1_554 S
C187 O189 1.289 . S
O188 C187 1.245 1_556 S
O189 Mg182 2.141 1_554 S
O189 C187 1.289 . S
O190 Mg182 2.048 . S
O190 C183 1.195 . S
O191 Mg182 2.048 . S
O191 C192 1.195 . S
C192 O191 1.195 . S
C192 O193 1.313 . S
O193 C192 1.313 . S
O194 Mg182 2.141 1_554 S
O194 C185 1.289 . S
Mg195 O202 2.141 . S
Mg195 O203 2.048 . S
Mg195 O204 2.048 . S
Mg195 O207 2.141 . S
C196 O197 1.313 . S
C196 O203 1.195 . S
O197 C196 1.313 . S
C198 O199 1.245 . S
C198 O207 1.289 . S
O199 C198 1.245 . S
C200 O201 1.245 . S
C200 O202 1.289 . S
O201 C200 1.245 . S
O202 Mg195 2.141 . S
O202 C200 1.289 . S
O203 Mg195 2.048 . S
O203 C196 1.195 . S
O204 Mg195 2.048 . S
O204 C205 1.195 . S
C205 O204 1.195 . S
C205 O206 1.313 . S
O206 C205 1.313 . S
O207 Mg195 2.141 . S
O207 C198 1.289 . S
Mg208 O215 2.141 . S
Mg208 O216 2.048 . S
Mg208 O217 2.048 . S
Mg208 O220 2.141 . S
C209 O210 1.313 . S
C209 O216 1.195 . S
O210 C209 1.313 . S
C211 O212 1.245 . S
C211 O220 1.289 . S
O212 C211 1.245 . S
C213 O214 1.245 . S
C213 O215 1.289 . S
O214 C213 1.245 . S
O215 Mg208 2.141 . S
O215 C213 1.289 . S
O216 Mg208 2.048 . S
O216 C209 1.195 . S
O217 Mg208 2.048 . S
O217 C218 1.195 . S
C218 O217 1.195 . S
C218 O219 1.313 . S
O219 C218 1.313 . S
O220 Mg208 2.141 . S
O220 C211 1.289 . S
Mg221 O228 2.141 . S
Mg221 O229 2.048 . S
Mg221 O230 2.048 . S
Mg221 O233 2.141 . S
C222 O223 1.313 . S
C222 O229 1.195 . S
O223 C222 1.313 . S
C224 O225 1.245 . S
C224 O233 1.289 . S
O225 C224 1.245 . S
C226 O227 1.245 . S
C226 O228 1.289 . S
O227 C226 1.245 . S
O228 Mg221 2.141 . S
O228 C226 1.289 . S
O229 Mg221 2.048 . S
O229 C222 1.195 . S
O230 Mg221 2.048 . S
O230 C231 1.195 . S
C231 O230 1.195 . S
C231 O232 1.313 . S
O232 C231 1.313 . S
O233 Mg221 2.141 . S
O233 C224 1.289 . S
C234 C235 1.369 . S
C234 C236 1.419 1_556 S
C234 H238 0.930 . S
C235 C234 1.369 . S
C235 C244 1.429 . S
C236 C234 1.419 1_554 S
C236 C237 1.363 . S
C236 H239 0.929 . S
C237 C236 1.363 . S
C237 C243 1.428 1_554 S
H238 C234 0.930 . S
H239 C236 0.929 . S
S240 N241 1.613 . S
S240 N242 1.610 . S
N241 S240 1.613 . S
N241 C244 1.350 1_655 S
N242 S240 1.610 . S
N242 C243 1.351 1_655 S
C243 C237 1.428 1_556 S
C243 N242 1.351 1_455 S
C243 C244 1.434 . S
C244 C235 1.429 . S
C244 N241 1.350 1_455 S
C244 C243 1.434 . S
C245 C246 1.369 1_554 S
C245 C247 1.419 . S
C245 H249 0.930 . S
C246 C245 1.369 1_556 S
C246 C255 1.429 . S
C247 C245 1.419 . S
C247 C248 1.363 . S
C247 H250 0.929 . S
C248 C247 1.363 . S
C248 C254 1.428 1_554 S
H249 C245 0.930 . S
H250 C247 0.929 . S
S251 N252 1.613 . S
S251 N253 1.610 . S
N252 S251 1.613 . S
N252 C255 1.350 . S
N253 S251 1.610 . S
N253 C254 1.351 . S
C254 C248 1.428 1_556 S
C254 N253 1.351 . S
C254 C255 1.434 . S
C255 C246 1.429 . S
C255 N252 1.350 . S
C255 C254 1.434 . S
C256 C257 1.369 . S
C256 C258 1.419 1_554 S
C256 H260 0.930 . S
C257 C256 1.369 . S
C257 C266 1.429 . S
C258 C256 1.419 1_556 S
C258 C259 1.363 . S
C258 H261 0.929 . S
C259 C258 1.363 . S
C259 C265 1.428 . S
H260 C256 0.930 . S
H261 C258 0.929 . S
S262 N263 1.613 1_556 S
S262 N264 1.610 . S
N263 S262 1.613 1_554 S
N263 C266 1.350 . S
N264 S262 1.610 . S
N264 C265 1.351 . S
C265 C259 1.428 . S
C265 N264 1.351 . S
C265 C266 1.434 1_556 S
C266 C257 1.429 . S
C266 N263 1.350 . S
C266 C265 1.434 1_554 S
C267 C268 1.369 . S
C267 C269 1.419 . S
C267 H271 0.930 . S
C268 C267 1.369 . S
C268 C277 1.429 . S
C269 C267 1.419 . S
C269 C270 1.363 . S
C269 H272 0.929 . S
C270 C269 1.363 . S
C270 C276 1.428 . S
H271 C267 0.930 . S
H272 C269 0.929 . S
S273 N274 1.613 . S
S273 N275 1.610 . S
N274 S273 1.613 . S
N274 C277 1.350 . S
N275 S273 1.610 . S
N275 C276 1.351 . S
C276 C270 1.428 . S
C276 N275 1.351 . S
C276 C277 1.434 . S
C277 C268 1.429 . S
C277 N274 1.350 . S
C277 C276 1.434 . S
C278 C279 1.369 . S
C278 C280 1.419 . S
C278 H282 0.930 . S
C279 C278 1.369 . S
C279 C288 1.429 . S
C280 C278 1.419 . S
C280 C281 1.363 . S
C280 H283 0.929 . S
C281 C280 1.363 . S
C281 C287 1.428 . S
H282 C278 0.930 . S
H283 C280 0.929 . S
S284 N285 1.613 . S
S284 N286 1.610 . S
N285 S284 1.613 . S
N285 C288 1.350 1_655 S
N286 S284 1.610 . S
N286 C287 1.351 1_655 S
C287 C281 1.428 . S
C287 N286 1.351 1_455 S
C287 C288 1.434 . S
C288 C279 1.429 . S
C288 N285 1.350 1_455 S
C288 C287 1.434 . S
C289 C290 1.369 . S
C289 C291 1.419 . S
C289 H293 0.930 . S
C290 C289 1.369 . S
C290 C299 1.429 . S
C291 C289 1.419 . S
C291 C292 1.363 . S
C291 H294 0.929 . S
C292 C291 1.363 . S
C292 C298 1.428 . S
H293 C289 0.930 . S
H294 C291 0.929 . S
S295 N296 1.613 . S
S295 N297 1.610 . S
N296 S295 1.613 . S
N296 C299 1.350 . S
N297 S295 1.610 . S
N297 C298 1.351 . S
C298 C292 1.428 . S
C298 N297 1.351 . S
C298 C299 1.434 . S
C299 C290 1.429 . S
C299 N296 1.350 . S
C299 C298 1.434 . S
C300 C301 1.369 . S
C300 C302 1.419 . S
C300 H304 0.930 . S
C301 C300 1.369 . S
C301 C310 1.429 . S
C302 C300 1.419 . S
C302 C303 1.363 . S
C302 H305 0.929 . S
C303 C302 1.363 . S
C303 C309 1.428 . S
H304 C300 0.930 . S
H305 C302 0.929 . S
S306 N307 1.613 . S
S306 N308 1.610 . S
N307 S306 1.613 . S
N307 C310 1.350 . S
N308 S306 1.610 . S
N308 C309 1.351 . S
C309 C303 1.428 . S
C309 N308 1.351 . S
C309 C310 1.434 . S
C310 C301 1.429 . S
C310 N307 1.350 . S
C310 C309 1.434 . S
C311 C312 1.369 . S
C311 C313 1.419 . S
C311 H315 0.930 . S
C312 C311 1.369 . S
C312 C321 1.429 . S
C313 C311 1.419 . S
C313 C314 1.363 . S
C313 H316 0.929 . S
C314 C313 1.363 . S
C314 C320 1.428 . S
H315 C311 0.930 . S
H316 C313 0.929 . S
S317 N318 1.613 . S
S317 N319 1.610 . S
N318 S317 1.613 . S
N318 C321 1.350 . S
N319 S317 1.610 . S
N319 C320 1.351 . S
C320 C314 1.428 . S
C320 N319 1.351 . S
C320 C321 1.434 . S
C321 C312 1.429 . S
C321 N318 1.350 . S
C321 C320 1.434 . S
C322 C323 1.369 . S
C322 C324 1.419 . S
C322 H326 0.930 . S
C323 C322 1.369 . S
C323 C332 1.429 . S
C324 C322 1.419 . S
C324 C325 1.363 . S
C324 H327 0.929 . S
C325 C324 1.363 . S
C325 C331 1.428 . S
H326 C322 0.930 . S
H327 C324 0.929 . S
S328 N329 1.613 . S
S328 N330 1.610 . S
N329 S328 1.613 . S
N329 C332 1.350 . S
N330 S328 1.610 . S
N330 C331 1.351 . S
C331 C325 1.428 . S
C331 N330 1.351 . S
C331 C332 1.434 . S
C332 C323 1.429 . S
C332 N329 1.350 . S
C332 C331 1.434 . S
C333 C334 1.369 . S
C333 C335 1.419 . S
C333 H337 0.930 . S
C334 C333 1.369 . S
C334 C343 1.429 . S
C335 C333 1.419 . S
C335 C336 1.363 . S
C335 H338 0.929 . S
C336 C335 1.363 . S
C336 C342 1.428 . S
H337 C333 0.930 . S
H338 C335 0.929 . S
S339 N340 1.613 . S
S339 N341 1.610 . S
N340 S339 1.613 . S
N340 C343 1.350 . S
N341 S339 1.610 . S
N341 C342 1.351 . S
C342 C336 1.428 . S
C342 N341 1.351 . S
C342 C343 1.434 . S
C343 C334 1.429 . S
C343 N340 1.350 . S
C343 C342 1.434 . S
C344 C345 1.369 . S
C344 C346 1.419 . S
C344 H348 0.930 . S
C345 C344 1.369 . S
C345 C354 1.429 . S
C346 C344 1.419 . S
C346 C347 1.363 . S
C346 H349 0.929 . S
C347 C346 1.363 . S
C347 C353 1.428 . S
H348 C344 0.930 . S
H349 C346 0.929 . S
S350 N351 1.613 . S
S350 N352 1.610 . S
N351 S350 1.613 . S
N351 C354 1.350 . S
N352 S350 1.610 . S
N352 C353 1.351 . S
C353 C347 1.428 . S
C353 N352 1.351 . S
C353 C354 1.434 . S
C354 C345 1.429 . S
C354 N351 1.350 . S
C354 C353 1.434 . S
C355 C356 1.369 . S
C355 C357 1.419 . S
C355 H359 0.930 . S
C356 C355 1.369 . S
C356 C365 1.429 . S
C357 C355 1.419 . S
C357 C358 1.363 . S
C357 H360 0.929 . S
C358 C357 1.363 . S
C358 C364 1.428 . S
H359 C355 0.930 . S
H360 C357 0.929 . S
S361 N362 1.613 . S
S361 N363 1.610 . S
N362 S361 1.613 . S
N362 C365 1.350 . S
N363 S361 1.610 . S
N363 C364 1.351 . S
C364 C358 1.428 . S
C364 N363 1.351 . S
C364 C365 1.434 . S
C365 C356 1.429 . S
C365 N362 1.350 . S
C365 C364 1.434 . S
C366 C367 1.369 . S
C366 C368 1.419 . S
C366 H370 0.930 . S
C367 C366 1.369 . S
C367 C376 1.429 . S
C368 C366 1.419 . S
C368 C369 1.363 . S
C368 H371 0.929 . S
C369 C368 1.363 . S
C369 C375 1.428 . S
H370 C366 0.930 . S
H371 C368 0.929 . S
S372 N373 1.613 . S
S372 N374 1.610 . S
N373 S372 1.613 . S
N373 C376 1.350 . S
N374 S372 1.610 . S
N374 C375 1.351 . S
C375 C369 1.428 . S
C375 N374 1.351 . S
C375 C376 1.434 . S
C376 C367 1.429 . S
C376 N373 1.350 . S
C376 C375 1.434 . S
C377 C378 1.369 . S
C377 C379 1.419 . S
C377 H381 0.930 . S
C378 C377 1.369 . S
C378 C387 1.429 . S
C379 C377 1.419 . S
C379 C380 1.363 . S
C379 H382 0.929 . S
C380 C379 1.363 . S
C380 C386 1.428 . S
H381 C377 0.930 . S
H382 C379 0.929 . S
S383 N384 1.613 . S
S383 N385 1.610 . S
N384 S383 1.613 . S
N384 C387 1.350 . S
N385 S383 1.610 . S
N385 C386 1.351 . S
C386 C380 1.428 . S
C386 N385 1.351 . S
C386 C387 1.434 . S
C387 C378 1.429 . S
C387 N384 1.350 . S
C387 C386 1.434 . S
C388 C389 1.369 . S
C388 C390 1.419 . S
C388 H392 0.930 . S
C389 C388 1.369 . S
C389 C398 1.429 . S
C390 C388 1.419 . S
C390 C391 1.363 . S
C390 H393 0.929 . S
C391 C390 1.363 . S
C391 C397 1.428 . S
H392 C388 0.930 . S
H393 C390 0.929 . S
S394 N395 1.613 . S
S394 N396 1.610 . S
N395 S394 1.613 . S
N395 C398 1.350 . S
N396 S394 1.610 . S
N396 C397 1.351 . S
C397 C391 1.428 . S
C397 N396 1.351 . S
C397 C398 1.434 . S
C398 C389 1.429 . S
C398 N395 1.350 . S
C398 C397 1.434 . S
C399 C400 1.369 . S
C399 C401 1.419 . S
C399 H403 0.930 . S
C400 C399 1.369 . S
C400 C409 1.429 . S
C401 C399 1.419 . S
C401 C402 1.363 . S
C401 H404 0.929 . S
C402 C401 1.363 . S
C402 C408 1.428 . S
H403 C399 0.930 . S
H404 C401 0.929 . S
S405 N406 1.613 . S
S405 N407 1.610 . S
N406 S405 1.613 . S
N406 C409 1.350 . S
N407 S405 1.610 . S
N407 C408 1.351 . S
C408 C402 1.428 . S
C408 N407 1.351 . S
C408 C409 1.434 . S
C409 C400 1.429 . S
C409 N406 1.350 . S
C409 C408 1.434 . S
C410 C411 1.369 . S
C410 C412 1.419 . S
C410 H414 0.930 . S
C411 C410 1.369 . S
C411 C420 1.429 . S
C412 C410 1.419 . S
C412 C413 1.363 . S
C412 H415 0.929 . S
C413 C412 1.363 . S
C413 C419 1.428 . S
H414 C410 0.930 . S
H415 C412 0.929 . S
S416 N417 1.613 . S
S416 N418 1.610 . S
N417 S416 1.613 . S
N417 C420 1.350 . S
N418 S416 1.610 . S
N418 C419 1.351 . S
C419 C413 1.428 . S
C419 N418 1.351 . S
C419 C420 1.434 . S
C420 C411 1.429 . S
C420 N417 1.350 . S
C420 C419 1.434 . S
C421 C422 1.369 . S
C421 C423 1.419 . S
C421 H425 0.930 . S
C422 C421 1.369 . S
C422 C431 1.429 . S
C423 C421 1.419 . S
C423 C424 1.363 . S
C423 H426 0.929 . S
C424 C423 1.363 . S
C424 C430 1.428 . S
H425 C421 0.930 . S
H426 C423 0.929 . S
S427 N428 1.613 . S
S427 N429 1.610 . S
N428 S427 1.613 . S
N428 C431 1.350 . S
N429 S427 1.610 . S
N429 C430 1.351 . S
C430 C424 1.428 . S
C430 N429 1.351 . S
C430 C431 1.434 . S
C431 C422 1.429 . S
C431 N428 1.350 . S
C431 C430 1.434 . S
C432 C433 1.369 . S
C432 C434 1.419 . S
C432 H436 0.930 . S
C433 C432 1.369 . S
C433 C442 1.429 . S
C434 C432 1.419 . S
C434 C435 1.363 . S
C434 H437 0.929 . S
C435 C434 1.363 . S
C435 C441 1.428 . S
H436 C432 0.930 . S
H437 C434 0.929 . S
S438 N439 1.613 . S
S438 N440 1.610 . S
N439 S438 1.613 . S
N439 C442 1.350 . S
N440 S438 1.610 . S
N440 C441 1.351 . S
C441 C435 1.428 . S
C441 N440 1.351 . S
C441 C442 1.434 . S
C442 C433 1.429 . S
C442 N439 1.350 . S
C442 C441 1.434 . S
C443 C444 1.369 . S
C443 C445 1.419 . S
C443 H447 0.930 . S
C444 C443 1.369 . S
C444 C453 1.429 . S
C445 C443 1.419 . S
C445 C446 1.363 . S
C445 H448 0.929 . S
C446 C445 1.363 . S
C446 C452 1.428 . S
H447 C443 0.930 . S
H448 C445 0.929 . S
S449 N450 1.613 . S
S449 N451 1.610 . S
N450 S449 1.613 . S
N450 C453 1.350 . S
N451 S449 1.610 . S
N451 C452 1.351 . S
C452 C446 1.428 . S
C452 N451 1.351 . S
C452 C453 1.434 . S
C453 C444 1.429 . S
C453 N450 1.350 . S
C453 C452 1.434 . S
C454 C455 1.369 . S
C454 C456 1.419 . S
C454 H458 0.930 . S
C455 C454 1.369 . S
C455 C464 1.429 . S
C456 C454 1.419 . S
C456 C457 1.363 . S
C456 H459 0.929 . S
C457 C456 1.363 . S
C457 C463 1.428 . S
H458 C454 0.930 . S
H459 C456 0.929 . S
S460 N461 1.613 . S
S460 N462 1.610 . S
N461 S460 1.613 . S
N461 C464 1.318 1_565 S
N462 S460 1.610 . S
N462 C463 1.351 1_565 S
C463 C457 1.428 . S
C463 N462 1.351 1_545 S
C463 C464 1.467 . S
C464 C455 1.429 . S
C464 N461 1.318 1_545 S
C464 C463 1.467 . S
C465 C466 1.369 . S
C465 C467 1.419 . S
C465 H469 0.930 . S
C466 C465 1.369 . S
C466 C475 1.429 . S
C467 C465 1.419 . S
C467 C468 1.363 . S
C467 H470 0.929 . S
C468 C467 1.363 . S
C468 C474 1.428 . S
H469 C465 0.930 . S
H470 C467 0.929 . S
S471 N472 1.613 . S
S471 N473 1.610 . S
N472 S471 1.613 . S
N472 C475 1.350 . S
N473 S471 1.610 . S
N473 C474 1.351 . S
C474 C468 1.428 . S
C474 N473 1.351 . S
C474 C475 1.434 . S
C475 C466 1.429 . S
C475 N472 1.350 . S
C475 C474 1.434 . S
C476 C477 1.369 . S
C476 C478 1.419 . S
C476 H480 0.930 . S
C477 C476 1.369 . S
C477 C486 1.429 . S
C478 C476 1.419 . S
C478 C479 1.359 . S
C478 H481 0.929 . S
C479 C478 1.359 . S
C479 C485 1.428 1_655 S
H480 C476 0.930 . S
H481 C478 0.929 . S
S482 N483 1.613 1_455 S
S482 N484 1.610 . S
N483 S482 1.613 1_655 S
N483 C486 1.350 1_556 S
N484 S482 1.610 . S
N484 C485 1.351 1_556 S
C485 C479 1.428 1_455 S
C485 N484 1.351 1_554 S
C485 C486 1.434 1_455 S
C486 C477 1.429 . S
C486 N483 1.350 1_554 S
C486 C485 1.434 1_655 S
C487 C488 1.369 . S
C487 C489 1.419 . S
C487 H491 0.930 . S
C488 C487 1.369 . S
C488 C497 1.429 . S
C489 C487 1.419 . S
C489 C490 1.363 . S
C489 H492 0.929 . S
C490 C489 1.363 . S
C490 C496 1.428 . S
H491 C487 0.930 . S
H492 C489 0.929 . S
S493 N494 1.613 . S
S493 N495 1.610 . S
N494 S493 1.613 . S
N494 C497 1.350 . S
N495 S493 1.610 . S
N495 C496 1.351 . S
C496 C490 1.428 . S
C496 N495 1.351 . S
C496 C497 1.434 . S
C497 C488 1.429 . S
C497 N494 1.350 . S
C497 C496 1.434 . S
C498 C499 1.369 . S
C498 C500 1.419 . S
C498 H502 0.930 . S
C499 C498 1.369 . S
C499 C508 1.429 . S
C500 C498 1.419 . S
C500 C501 1.363 1_655 S
C500 H503 0.929 . S
C501 C500 1.363 1_455 S
C501 C507 1.428 . S
H502 C498 0.930 . S
H503 C500 0.929 . S
S504 N505 1.613 1_455 S
S504 N506 1.610 . S
N505 S504 1.613 1_655 S
N505 C508 1.350 . S
N506 S504 1.610 . S
N506 C507 1.351 . S
C507 C501 1.428 . S
C507 N506 1.351 . S
C507 C508 1.434 1_455 S
C508 C499 1.429 . S
C508 N505 1.350 . S
C508 C507 1.434 1_655 S
C509 C510 1.369 . S
C509 C511 1.419 . S
C509 H513 0.930 . S
C510 C509 1.369 . S
C510 C519 1.429 . S
C511 C509 1.419 . S
C511 C512 1.363 . S
C511 H514 0.929 . S
C512 C511 1.363 . S
C512 C518 1.428 . S
H513 C509 0.930 . S
H514 C511 0.929 . S
S515 N516 1.613 . S
S515 N517 1.610 . S
N516 S515 1.613 . S
N516 C519 1.350 . S
N517 S515 1.610 . S
N517 C518 1.351 . S
C518 C512 1.428 . S
C518 N517 1.351 . S
C518 C519 1.434 . S
C519 C510 1.429 . S
C519 N516 1.350 . S
C519 C518 1.434 . S
C520 C521 1.369 . S
C520 C522 1.419 . S
C520 H524 0.930 . S
C521 C520 1.369 . S
C521 C530 1.429 . S
C522 C520 1.419 . S
C522 C523 1.363 . S
C522 H525 0.929 . S
C523 C522 1.363 . S
C523 C529 1.428 . S
H524 C520 0.930 . S
H525 C522 0.929 . S
S526 N527 1.613 . S
S526 N528 1.610 . S
N527 S526 1.613 . S
N527 C530 1.350 . S
N528 S526 1.610 . S
N528 C529 1.351 . S
C529 C523 1.428 . S
C529 N528 1.351 . S
C529 C530 1.434 . S
C530 C521 1.429 . S
C530 N527 1.350 . S
C530 C529 1.434 . S
C531 C532 1.369 . S
C531 C533 1.419 . S
C531 H535 0.930 1_545 S
C532 C531 1.369 . S
C532 C541 1.429 . S
C533 C531 1.419 . S
C533 C534 1.363 . S
C533 H536 0.929 . S
C534 C533 1.363 . S
C534 C540 1.428 . S
H535 C531 0.930 1_565 S
H536 C533 0.929 . S
S537 N538 1.613 . S
S537 N539 1.610 . S
N538 S537 1.613 . S
N538 C541 1.350 . S
N539 S537 1.610 . S
N539 C540 1.351 . S
C540 C534 1.428 . S
C540 N539 1.351 . S
C540 C541 1.434 . S
C541 C532 1.429 . S
C541 N538 1.350 . S
C541 C540 1.434 . S
C542 C543 1.369 . S
C542 C544 1.419 . S
C542 H546 0.930 . S
C543 C542 1.369 . S
C543 C552 1.429 . S
C544 C542 1.419 . S
C544 C545 1.363 . S
C544 H547 0.929 . S
C545 C544 1.363 . S
C545 C551 1.428 . S
H546 C542 0.930 . S
H547 C544 0.929 . S
S548 N549 1.613 . S
S548 N550 1.610 . S
N549 S548 1.613 . S
N549 C552 1.350 . S
N550 S548 1.610 . S
N550 C551 1.351 . S
C551 C545 1.428 . S
C551 N550 1.351 . S
C551 C552 1.434 . S
C552 C543 1.429 . S
C552 N549 1.350 . S
C552 C551 1.434 . S
C553 C554 1.369 . S
C553 C555 1.419 . S
C553 H557 0.930 . S
C554 C553 1.369 . S
C554 C563 1.429 . S
C555 C553 1.419 . S
C555 C556 1.363 . S
C555 H558 0.929 . S
C556 C555 1.363 . S
C556 C562 1.428 . S
H557 C553 0.930 . S
H558 C555 0.929 . S
S559 N560 1.613 . S
S559 N561 1.610 . S
N560 S559 1.613 . S
N560 C563 1.350 1_554 S
N561 S559 1.610 . S
N561 C562 1.351 1_554 S
C562 C556 1.428 . S
C562 N561 1.351 1_556 S
C562 C563 1.434 . S
C563 C554 1.429 . S
C563 N560 1.350 1_556 S
C563 C562 1.434 . S
C564 C565 1.369 . S
C564 C566 1.419 . S
C564 H568 0.930 . S
C565 C564 1.369 . S
C565 C574 1.429 . S
C566 C564 1.419 . S
C566 C567 1.363 . S
C566 H569 0.929 . S
C567 C566 1.363 . S
C567 C573 1.428 . S
H568 C564 0.930 . S
H569 C566 0.929 . S
S570 N571 1.613 . S
S570 N572 1.610 . S
N571 S570 1.613 . S
N571 C574 1.350 . S
N572 S570 1.610 . S
N572 C573 1.351 . S
C573 C567 1.428 . S
C573 N572 1.351 . S
C573 C574 1.434 . S
C574 C565 1.429 . S
C574 N571 1.350 . S
C574 C573 1.434 . S
C575 C576 1.369 . S
C575 C577 1.419 . S
C575 H579 0.930 . S
C576 C575 1.369 . S
C576 C585 1.429 . S
C577 C575 1.419 . S
C577 C578 1.335 1_455 S
C577 H580 0.929 1_455 S
C578 C577 1.335 1_655 S
C578 C584 1.419 1_655 S
H579 C575 0.930 . S
H580 C577 0.929 1_655 S
S581 N582 1.613 . S
S581 N583 1.610 . S
N582 S581 1.613 . S
N582 C585 1.350 . S
N583 S581 1.610 . S
N583 C584 1.351 . S
C584 C578 1.419 1_455 S
C584 N583 1.351 . S
C584 C585 1.434 . S
C585 C576 1.429 . S
C585 N582 1.350 . S
C585 C584 1.434 . S
C586 C587 1.369 . S
C586 C588 1.419 . S
C586 H590 0.930 . S
C587 C586 1.369 . S
C587 C596 1.429 . S
C588 C586 1.419 . S
C588 C589 1.363 . S
C588 H591 0.929 . S
C589 C588 1.363 . S
C589 C595 1.428 . S
H590 C586 0.930 . S
H591 C588 0.929 . S
S592 N593 1.613 . S
S592 N594 1.610 . S
N593 S592 1.613 . S
N593 C596 1.350 . S
N594 S592 1.610 . S
N594 C595 1.351 . S
C595 C589 1.428 . S
C595 N594 1.351 . S
C595 C596 1.434 . S
C596 C587 1.429 . S
C596 N593 1.350 . S
C596 C595 1.434 . S
C597 C598 1.369 . S
C597 C599 1.419 . S
C597 H601 0.930 . S
C598 C597 1.369 . S
C598 C607 1.429 . S
C599 C597 1.419 . S
C599 C600 1.363 . S
C599 H602 0.929 . S
C600 C599 1.363 . S
C600 C606 1.428 . S
H601 C597 0.930 . S
H602 C599 0.929 . S
S603 N604 1.613 . S
S603 N605 1.610 . S
N604 S603 1.613 . S
N604 C607 1.350 . S
N605 S603 1.610 . S
N605 C606 1.351 . S
C606 C600 1.428 . S
C606 N605 1.351 . S
C606 C607 1.434 . S
C607 C598 1.429 . S
C607 N604 1.350 . S
C607 C606 1.434 . S
C608 C609 1.369 . S
C608 C610 1.419 . S
C608 H612 0.930 . S
C609 C608 1.369 . S
C609 C618 1.429 . S
C610 C608 1.419 . S
C610 C611 1.363 . S
C610 H613 0.929 . S
C611 C610 1.363 . S
C611 C617 1.428 . S
H612 C608 0.930 . S
H613 C610 0.929 . S
S614 N615 1.613 . S
S614 N616 1.610 . S
N615 S614 1.613 . S
N615 C618 1.350 . S
N616 S614 1.610 . S
N616 C617 1.351 . S
C617 C611 1.428 . S
C617 N616 1.351 . S
C617 C618 1.434 . S
C618 C609 1.429 . S
C618 N615 1.350 . S
C618 C617 1.434 . S
C619 C620 1.369 . S
C619 C621 1.419 . S
C619 H623 0.930 . S
C620 C619 1.369 . S
C620 C629 1.429 . S
C621 C619 1.419 . S
C621 C622 1.363 . S
C621 H624 0.929 . S
C622 C621 1.363 . S
C622 C628 1.428 . S
H623 C619 0.930 . S
H624 C621 0.929 . S
S625 N626 1.613 . S
S625 N627 1.610 . S
N626 S625 1.613 . S
N626 C629 1.350 . S
N627 S625 1.610 . S
N627 C628 1.351 . S
C628 C622 1.428 . S
C628 N627 1.351 . S
C628 C629 1.434 . S
C629 C620 1.429 . S
C629 N626 1.350 . S
C629 C628 1.434 . S
C235 C44 1.835 . S
C237 C5 1.972 . S
C246 C57 1.845 . S
C248 C16 1.833 . S
C257 C27 1.811 . S
C259 C66 1.907 . S
C268 C31 1.980 . S
C270 C70 1.835 . S
C279 C1 1.814 . S
C281 C40 1.906 . S
C290 C53 1.912 . S
C292 C23 1.915 . S
C301 C118 1.945 . S
C303 C83 1.955 . S
C312 C94 1.842 . S
C314 C131 1.961 . S
C323 C109 1.945 . S
C325 C144 1.938 . S
C334 C148 1.821 . S
C336 C105 1.846 . S
C345 C122 1.805 . S
C347 C79 1.816 . S
C356 C135 1.813 . S
C358 C101 1.934 . S
C367 C161 1.979 . S
C369 C200 1.846 . S
C378 C172 1.841 . S
C380 C213 1.847 . S
C389 C183 1.825 . S
C391 C222 1.916 . S
C400 C226 1.842 . S
C402 C187 1.985 . S
C411 C196 1.917 . S
C413 C157 1.831 . S
C422 C209 1.925 . S
C424 C179 1.922 . S
C433 C10 1.659 . S
C435 C96 1.661 . S
C444 C14 1.603 . S
C446 C107 1.596 . S
C455 C81 1.525 1_545 S
C457 C29 1.521 . S
C466 C36 1.704 . S
C468 C170 1.634 . S
C477 C185 1.509 . S
C479 C3 1.527 1_655 S
C488 C166 1.643 . S
C490 C18 1.650 . S
C499 C211 1.646 . S
C501 C49 1.585 . S
C510 C62 1.648 . S
C512 C231 1.637 . S
C521 C198 1.586 . S
C523 C68 1.581 . S
C532 C133 1.674 . S
C534 C75 1.608 . S
C543 C42 1.596 . S
C545 C146 1.596 . S
C554 C55 1.607 . S
C556 C120 1.602 . S
C565 C88 1.629 . S
C567 C174 1.630 . S
C576 C92 1.631 . S
C578 C192 1.723 . S
C587 C114 1.619 . S
C589 C159 1.555 . S
C598 C218 1.618 1_455 S
C600 C153 1.631 . S
C609 C224 1.622 . S
C611 C127 1.561 . S
C620 C140 1.614 . S
C622 C205 1.621 . S
