# Generated by pormake.
# Topology uog, (4)-cn, num edge types: 1
# Building blocks:
#     Node 0, Type 0, BuildingBlock: GALJAG_clean_sbu_0, # of connection points: 4
#     Node 1, Type 0, BuildingBlock: GALJAG_clean_sbu_0, # of connection points: 4
#     Node 2, Type 0, BuildingBlock: GALJAG_clean_sbu_0, # of connection points: 4
#     Node 3, Type 0, BuildingBlock: GALJAG_clean_sbu_0, # of connection points: 4
#     Node 4, Type 0, BuildingBlock: GALJAG_clean_sbu_0, # of connection points: 4
#     Node 5, Type 0, BuildingBlock: GALJAG_clean_sbu_0, # of connection points: 4
#     Edge 6, Type (0, 0), BuildingBlock: TEMPAE_clean_linker_10, # of connection points: 2
#     Edge 7, Type (0, 0), BuildingBlock: TEMPAE_clean_linker_10, # of connection points: 2
#     Edge 8, Type (0, 0), BuildingBlock: TEMPAE_clean_linker_10, # of connection points: 2
#     Edge 9, Type (0, 0), BuildingBlock: TEMPAE_clean_linker_10, # of connection points: 2
#     Edge 10, Type (0, 0), BuildingBlock: TEMPAE_clean_linker_10, # of connection points: 2
#     Edge 11, Type (0, 0), BuildingBlock: TEMPAE_clean_linker_10, # of connection points: 2
#     Edge 12, Type (0, 0), BuildingBlock: TEMPAE_clean_linker_10, # of connection points: 2
#     Edge 13, Type (0, 0), BuildingBlock: TEMPAE_clean_linker_10, # of connection points: 2
#     Edge 14, Type (0, 0), BuildingBlock: TEMPAE_clean_linker_10, # of connection points: 2
#     Edge 15, Type (0, 0), BuildingBlock: TEMPAE_clean_linker_10, # of connection points: 2
#     Edge 16, Type (0, 0), BuildingBlock: TEMPAE_clean_linker_10, # of connection points: 2
#     Edge 17, Type (0, 0), BuildingBlock: TEMPAE_clean_linker_10, # of connection points: 2
# Relax obj value: 0.035
# Max RMSD: 0.144
# Mean RMSD: 0.144
data_MOF--net-uog--node1-GALJAG_clean_sbu_0--edge1-TEMPAE_clean_linker_10
_symmetry_space_group_name_H-M    P1
_symmetry_Int_Tables_number       1
_symmetry_cell_setting            triclinic
loop_
_symmetry_equiv_pos_as_xyz
'x, y, z'
_cell_length_a     29.58219
_cell_length_b     29.532744
_cell_length_c     43.396518
_cell_angle_alpha  90.284406
_cell_angle_beta   89.888606
_cell_angle_gamma 120.19512
loop_
_atom_site_label
_atom_site_type_symbol
_atom_site_fract_x
_atom_site_fract_y
_atom_site_fract_z
_atom_type_partial_charge
In0 In 0.50099 0.25973 0.15063 0.0
O1 O 0.43086 0.26818 0.16506 0.0
O2 O 0.4897 0.32723 0.13692 0.0
C3 C 0.45799 0.15505 0.15537 0.0
C4 C 0.55663 0.29412 0.2032 0.0
C5 C 0.54608 0.28134 0.09454 0.0
O6 O 0.43448 0.17523 0.14203 0.0
O7 O 0.50217 0.18739 0.16618 0.0
O8 O 0.5698 0.30767 0.11822 0.0
O9 O 0.50041 0.24386 0.09942 0.0
C10 C 0.44738 0.31128 0.15131 0.0
O11 O 0.57662 0.28948 0.17844 0.0
O12 O 0.50961 0.28289 0.20097 0.0
In13 In 0.30467 0.55077 0.49987 0.0
O14 O 0.33578 0.61583 0.53594 0.0
O15 O 0.28052 0.53802 0.54987 0.0
C16 C 0.34663 0.60946 0.44967 0.0
C17 C 0.20188 0.50773 0.48719 0.0
C18 C 0.36601 0.50779 0.5024 0.0
O19 O 0.33992 0.62868 0.47421 0.0
O20 O 0.33306 0.5616 0.45101 0.0
O21 O 0.3224 0.48534 0.48859 0.0
O22 O 0.37726 0.55034 0.51554 0.0
C23 C 0.3094 0.58537 0.55759 0.0
O24 O 0.21969 0.48205 0.50064 0.0
O25 O 0.23566 0.55381 0.48002 0.0
In26 In 0.73264 0.32588 0.82582 0.0
O27 O 0.68793 0.35062 0.85846 0.0
O28 O 0.72716 0.31215 0.87659 0.0
C29 C 0.72744 0.34238 0.76587 0.0
C30 C 0.66887 0.22235 0.8217 0.0
C31 C 0.83239 0.40115 0.83314 0.0
O32 O 0.70304 0.35392 0.78569 0.0
O33 O 0.75448 0.32395 0.77671 0.0
O34 O 0.81971 0.35355 0.82912 0.0
O35 O 0.79478 0.41003 0.83363 0.0
C36 C 0.69909 0.33242 0.88191 0.0
O37 O 0.71631 0.24166 0.8299 0.0
O38 O 0.65478 0.25523 0.81565 0.0
In39 In 0.37507 0.69291 0.17049 0.0
O40 O 0.41917 0.65025 0.17614 0.0
O41 O 0.33445 0.60546 0.174 0.0
C42 C 0.38299 0.78491 0.16295 0.0
C43 C 0.37303 0.70264 0.23049 0.0
C44 C 0.37041 0.67977 0.11059 0.0
O45 O 0.42313 0.77944 0.16312 0.0
O46 O 0.33879 0.7434 0.16662 0.0
O47 O 0.32904 0.6634 0.12682 0.0
O48 O 0.41381 0.70276 0.12506 0.0
C49 C 0.37744 0.60549 0.17628 0.0
O50 O 0.33099 0.67881 0.21467 0.0
O51 O 0.41586 0.72142 0.21557 0.0
In52 In 0.72923 0.39922 0.47557 0.0
O53 O 0.81618 0.45868 0.47483 0.0
O54 O 0.79075 0.37653 0.47101 0.0
C55 C 0.6548 0.42409 0.47997 0.0
C56 C 0.72351 0.38036 0.5356 0.0
C57 C 0.70746 0.37184 0.41672 0.0
O58 O 0.70228 0.45914 0.47522 0.0
O59 O 0.6459 0.37752 0.48206 0.0
O60 O 0.69287 0.33737 0.43781 0.0
O61 O 0.73326 0.41909 0.42575 0.0
C62 C 0.82858 0.42331 0.47226 0.0
O63 O 0.70277 0.34282 0.51614 0.0
O64 O 0.74713 0.42606 0.52432 0.0
In65 In 0.31341 0.74146 0.83166 0.0
O66 O 0.33911 0.82857 0.83555 0.0
O67 O 0.39335 0.80719 0.81816 0.0
C68 C 0.20936 0.68562 0.84055 0.0
C69 C 0.34485 0.72716 0.8865 0.0
C70 C 0.3157 0.70596 0.77524 0.0
O71 O 0.23105 0.73109 0.829 0.0
O72 O 0.24008 0.66962 0.84793 0.0
O73 O 0.33801 0.69836 0.79788 0.0
O74 O 0.29264 0.73106 0.78139 0.0
C75 C 0.3847 0.84354 0.82545 0.0
O76 O 0.34406 0.70106 0.86303 0.0
O77 O 0.33062 0.76034 0.88185 0.0
C78 C 0.45419 0.0784 0.18101 0.0
C79 C 0.43755 0.09824 0.15711 0.0
C80 C 0.44 0.02548 0.18165 0.0
C81 C 0.40959 0.99195 0.15731 0.0
C82 C 0.39148 0.01148 0.13348 0.0
C83 C 0.40519 0.06448 0.13387 0.0
C84 C 0.45905 0.00592 0.20787 0.0
C85 C 0.3599 0.97711 0.10684 0.0
C86 C 0.43177 0.87748 0.14518 0.0
C87 C 0.38767 0.83671 0.15945 0.0
C88 C 0.43801 0.92765 0.14294 0.0
C89 C 0.39987 0.93748 0.15605 0.0
C90 C 0.35474 0.89614 0.16999 0.0
C91 C 0.34886 0.84596 0.17119 0.0
C92 C 0.48613 0.97046 0.12729 0.0
C93 C 0.31386 0.9054 0.18482 0.0
H94 H 0.47898 0.10454 0.1991 0.0
H95 H 0.39273 0.08004 0.11525 0.0
H96 H 0.42595 0.97016 0.21804 0.0
H97 H 0.48765 0.99516 0.19909 0.0
H98 H 0.47814 0.03578 0.22637 0.0
H99 H 0.34583 0.99723 0.09131 0.0
H100 H 0.38429 0.96552 0.09323 0.0
H101 H 0.32568 0.9406 0.1154 0.0
H102 H 0.46152 0.87017 0.13581 0.0
H103 H 0.31481 0.81442 0.18234 0.0
H104 H 0.51148 0.00031 0.14454 0.0
H105 H 0.47491 0.99051 0.10993 0.0
H106 H 0.50933 0.95521 0.11568 0.0
H107 H 0.33126 0.93223 0.20484 0.0
H108 H 0.27949 0.86847 0.19293 0.0
H109 H 0.30026 0.92465 0.16837 0.0
C110 C 0.4439 0.50667 0.52282 0.0
C111 C 0.40403 0.48949 0.50076 0.0
C112 C 0.48405 0.49485 0.51991 0.0
C113 C 0.48496 0.46623 0.49389 0.0
C114 C 0.44428 0.44804 0.47177 0.0
C115 C 0.40386 0.45941 0.47566 0.0
C116 C 0.52593 0.5137 0.54442 0.0
C117 C 0.44438 0.41807 0.4435 0.0
C118 C 0.61695 0.48239 0.47225 0.0
C119 C 0.61206 0.43578 0.48348 0.0
C120 C 0.57544 0.49245 0.47498 0.0
C121 C 0.52863 0.4555 0.48989 0.0
C122 C 0.52389 0.4087 0.50159 0.0
C123 C 0.56546 0.39919 0.49795 0.0
C124 C 0.58152 0.54242 0.46178 0.0
C125 C 0.47514 0.36893 0.51824 0.0
H126 H 0.44399 0.52992 0.54227 0.0
H127 H 0.37337 0.44668 0.45839 0.0
H128 H 0.52905 0.48028 0.55344 0.0
H129 H 0.56441 0.54193 0.53432 0.0
H130 H 0.518 0.53309 0.56399 0.0
H131 H 0.40964 0.40629 0.42863 0.0
H132 H 0.48017 0.44256 0.42975 0.0
H133 H 0.44522 0.38236 0.45034 0.0
H134 H 0.65284 0.51054 0.4609 0.0
H135 H 0.56168 0.36321 0.50687 0.0
H136 H 0.57834 0.56648 0.48043 0.0
H137 H 0.54958 0.53312 0.4451 0.0
H138 H 0.61965 0.56617 0.44993 0.0
H139 H 0.468 0.38751 0.53852 0.0
H140 H 0.47793 0.33473 0.52622 0.0
H141 H 0.44066 0.35462 0.50287 0.0
C142 C 0.92805 0.43933 0.82349 0.0
C143 C 0.8871 0.44404 0.83625 0.0
C144 C 0.9798 0.48131 0.82472 0.0
C145 C 0.99086 0.52847 0.83985 0.0
C146 C 0.94969 0.5329 0.85337 0.0
C147 C 0.89819 0.49086 0.85102 0.0
C148 C 0.02253 0.47545 0.80951 0.0
C149 C 0.96006 0.58187 0.87047 0.0
C150 C 0.13169 0.6126 0.86582 0.0
C151 C 0.15228 0.65088 0.84281 0.0
C152 C 0.0786 0.57401 0.86595 0.0
C153 C 0.04572 0.57274 0.84191 0.0
C154 C 0.06603 0.61232 0.81909 0.0
C155 C 0.1191 0.65148 0.82006 0.0
C156 C 0.05815 0.53357 0.89125 0.0
C157 C 0.03246 0.6117 0.79275 0.0
H158 H 0.91944 0.40332 0.81181 0.0
H159 H 0.86652 0.49445 0.86105 0.0
H160 H 0.0434 0.50706 0.79236 0.0
H161 H 0.05168 0.47945 0.82695 0.0
H162 H 0.00716 0.43701 0.7977 0.0
H163 H 0.92382 0.57856 0.8803 0.0
H164 H 0.98823 0.59008 0.88948 0.0
H165 H 0.97812 0.616 0.85476 0.0
H166 H 0.15745 0.61229 0.88346 0.0
H167 H 0.13526 0.68072 0.80205 0.0
H168 H 0.04751 0.49465 0.88152 0.0
H169 H 0.02221 0.53023 0.90151 0.0
H170 H 0.08741 0.54318 0.90984 0.0
H171 H 0.01997 0.57602 0.7785 0.0
H172 H 0.05345 0.64662 0.77775 0.0
H173 H -0.00349 0.61007 0.80166 0.0
C174 C 0.13009 0.50709 0.45731 0.0
C175 C 0.14577 0.4879 0.48206 0.0
C176 C 0.07781 0.49413 0.45392 0.0
C177 C 0.0407 0.46259 0.47642 0.0
C178 C 0.05613 0.44206 0.50112 0.0
C179 C 0.10851 0.45439 0.50339 0.0
C180 C 0.06264 0.5154 0.42674 0.0
C181 C 0.01791 0.40917 0.52589 0.0
C182 C 0.92278 0.48038 0.4861 0.0
C183 C 0.88328 0.43492 0.472 0.0
C184 C 0.97411 0.48954 0.48803 0.0
C185 C 0.98634 0.45303 0.47478 0.0
C186 C 0.94677 0.40775 0.45978 0.0
C187 C 0.89553 0.39889 0.45895 0.0
C188 C 0.01505 0.53781 0.50473 0.0
C189 C 0.95856 0.36872 0.44459 0.0
H190 H 0.159 0.5329 0.44074 0.0
H191 H 0.12085 0.4401 0.52273 0.0
H192 H 0.02822 0.48329 0.41478 0.0
H193 H 0.05133 0.544 0.43486 0.0
H194 H 0.09504 0.5352 0.40986 0.0
H195 H 0.03564 0.39474 0.54295 0.0
H196 H 0.00377 0.4327 0.53822 0.0
H197 H 0.98326 0.375 0.51549 0.0
H198 H 0.91321 0.50799 0.49647 0.0
H199 H 0.865 0.36378 0.44789 0.0
H200 H 0.04732 0.56276 0.48875 0.0
H201 H 0.03223 0.5263 0.52373 0.0
H202 H -0.00115 0.56152 0.51452 0.0
H203 H 0.99015 0.38877 0.4273 0.0
H204 H 0.92374 0.33645 0.43295 0.0
H205 H 0.97282 0.35148 0.46201 0.0
C206 C 0.46987 0.91346 0.80472 0.0
C207 C 0.42617 0.89907 0.82355 0.0
C208 C 0.51107 0.9655 0.80357 0.0
C209 C 0.50902 0.00383 0.82224 0.0
C210 C 0.46505 0.98946 0.84143 0.0
C211 C 0.42379 0.93726 0.84159 0.0
C212 C 0.55662 0.97951 0.78225 0.0
C213 C 0.46186 0.02914 0.86201 0.0
C214 C 0.63575 0.13053 0.83959 0.0
C215 C 0.63111 0.16567 0.82015 0.0
C216 C 0.59631 0.0775 0.8405 0.0
C217 C 0.5521 0.05932 0.82096 0.0
C218 C 0.54848 0.09442 0.80043 0.0
C219 C 0.58772 0.14728 0.80057 0.0
C220 C 0.60106 0.04135 0.86304 0.0
C221 C 0.50274 0.07634 0.77865 0.0
H222 H 0.47172 0.88397 0.79068 0.0
H223 H 0.39028 0.92607 0.8564 0.0
H224 H 0.5608 0.00997 0.76575 0.0
H225 H 0.59348 0.99621 0.79566 0.0
H226 H 0.55193 0.94513 0.76899 0.0
H227 H 0.42593 0.01126 0.87639 0.0
H228 H 0.49648 0.04798 0.87742 0.0
H229 H 0.46234 0.06053 0.84783 0.0
H230 H 0.6691 0.14491 0.85494 0.0
H231 H 0.58429 0.17446 0.78538 0.0
H232 H 0.59874 0.00727 0.85071 0.0
H233 H 0.56797 0.02587 0.87957 0.0
H234 H 0.6383 0.06135 0.87623 0.0
H235 H 0.49804 0.04273 0.76461 0.0
H236 H 0.50745 0.10794 0.76287 0.0
H237 H 0.46614 0.06263 0.79199 0.0
C238 C 0.42498 0.55722 0.18583 0.0
C239 C 0.37913 0.55641 0.17691 0.0
C240 C 0.42907 0.51204 0.18363 0.0
C241 C 0.38659 0.46526 0.17165 0.0
C242 C 0.33942 0.46367 0.16376 0.0
C243 C 0.33611 0.50928 0.16672 0.0
C244 C 0.47972 0.51504 0.19286 0.0
C245 C 0.29355 0.41473 0.15061 0.0
C246 C 0.43214 0.38124 0.13176 0.0
C247 C 0.42317 0.34409 0.15443 0.0
C248 C 0.41717 0.41884 0.13635 0.0
C249 C 0.39387 0.42004 0.16464 0.0
C250 C 0.38237 0.38096 0.18703 0.0
C251 C 0.39673 0.34295 0.18149 0.0
C252 C 0.42895 0.45903 0.11157 0.0
C253 C 0.35819 0.38136 0.21761 0.0
H254 H 0.45812 0.59349 0.19401 0.0
H255 H 0.30058 0.50857 0.15976 0.0
H256 H 0.47188 0.48215 0.20839 0.0
H257 H 0.49958 0.51143 0.17207 0.0
H258 H 0.50681 0.55252 0.20468 0.0
H259 H 0.25791 0.41813 0.14885 0.0
H260 H 0.30363 0.40716 0.12723 0.0
H261 H 0.28452 0.38025 0.16499 0.0
H262 H 0.45233 0.38186 0.11074 0.0
H263 H 0.3902 0.31441 0.19913 0.0
H264 H 0.46051 0.49797 0.11955 0.0
H265 H 0.39396 0.46248 0.10685 0.0
H266 H 0.44168 0.44913 0.0897 0.0
H267 H 0.38714 0.41504 0.23162 0.0
H268 H 0.34575 0.34482 0.23081 0.0
H269 H 0.32386 0.38646 0.21426 0.0
C270 C 0.64802 0.35413 0.91956 0.0
C271 C 0.67946 0.33216 0.91331 0.0
C272 C 0.62724 0.35084 0.94921 0.0
C273 C 0.63789 0.3246 0.97287 0.0
C274 C 0.67061 0.3035 0.96677 0.0
C275 C 0.6911 0.30772 0.93715 0.0
C276 C 0.5929 0.37425 0.95502 0.0
C277 C 0.68267 0.27491 0.99127 0.0
C278 C 0.61682 0.33968 0.05784 0.0
C279 C 0.56908 0.29377 0.06331 0.0
C280 C 0.6388 0.35144 0.02818 0.0
C281 C 0.61261 0.31613 0.00359 0.0
C282 C 0.56397 0.27017 0.00894 0.0
C283 C 0.54271 0.25968 0.0387 0.0
C284 C 0.69053 0.40101 0.02328 0.0
C285 C 0.5351 0.23122 0.98342 0.0
H286 H 0.63908 0.3732 0.90124 0.0
H287 H 0.71547 0.29071 0.93253 0.0
H288 H 0.55245 0.34261 0.96012 0.0
H289 H 0.60709 0.40049 0.97546 0.0
H290 H 0.59175 0.39686 0.93496 0.0
H291 H 0.71047 0.26257 0.98308 0.0
H292 H 0.69961 0.30023 0.0119 0.0
H293 H 0.64601 0.23953 -0.00139 0.0
H294 H 0.6371 0.36638 0.07676 0.0
H295 H 0.50569 0.2242 0.04279 0.0
H296 H 0.68764 0.42357 0.00377 0.0
H297 H 0.72088 0.39097 0.01716 0.0
H298 H 0.70367 0.42645 0.04412 0.0
H299 H 0.52906 0.25112 0.96358 0.0
H300 H 0.49644 0.19879 0.99102 0.0
H301 H 0.55885 0.21415 0.97509 0.0
C302 C 0.41926 0.73385 0.28085 0.0
C303 C 0.37241 0.70485 0.26441 0.0
C304 C 0.42041 0.72995 0.31298 0.0
C305 C 0.37373 0.69574 0.3288 0.0
C306 C 0.32571 0.66954 0.31256 0.0
C307 C 0.32562 0.6746 0.28049 0.0
C308 C 0.47212 0.7594 0.32963 0.0
C309 C 0.27502 0.63278 0.32866 0.0
C310 C 0.37601 0.61604 0.39564 0.0
C311 C 0.3631 0.63805 0.42034 0.0
C312 C 0.3825 0.63653 0.36597 0.0
C313 C 0.37594 0.68019 0.36092 0.0
C314 C 0.36657 0.70495 0.38615 0.0
C315 C 0.36021 0.68347 0.41574 0.0
C316 C 0.39304 0.60926 0.33972 0.0
C317 C 0.36006 0.75198 0.38166 0.0
H318 H 0.45546 0.75801 0.26851 0.0
H319 H 0.28923 0.65253 0.26789 0.0
H320 H 0.4678 0.77627 0.35157 0.0
H321 H 0.48613 0.73196 0.33539 0.0
H322 H 0.5024 0.79145 0.31533 0.0
H323 H 0.24051 0.62037 0.31349 0.0
H324 H 0.27577 0.59726 0.33612 0.0
H325 H 0.27016 0.65158 0.34961 0.0
H326 H 0.37887 0.58125 0.39925 0.0
H327 H 0.35026 0.70056 0.43487 0.0
H328 H 0.42723 0.63791 0.32611 0.0
H329 H 0.35881 0.59113 0.32399 0.0
H330 H 0.40067 0.57813 0.3479 0.0
H331 H 0.38996 0.7803 0.36553 0.0
H332 H 0.36289 0.7723 0.4038 0.0
H333 H 0.32111 0.73915 0.3714 0.0
C334 C 0.75756 0.3408 0.71258 0.0
C335 C 0.72387 0.34779 0.73227 0.0
C336 C 0.75449 0.34403 0.68056 0.0
C337 C 0.71649 0.35411 0.6678 0.0
C338 C 0.68198 0.3608 0.68749 0.0
C339 C 0.68627 0.35783 0.71961 0.0
C340 C 0.79251 0.33741 0.6604 0.0
C341 C 0.64082 0.37135 0.67463 0.0
C342 C 0.74871 0.41611 0.58875 0.0
C343 C 0.72029 0.37269 0.56934 0.0
C344 C 0.74674 0.41069 0.62082 0.0
C345 C 0.71528 0.36061 0.63392 0.0
C346 C 0.6857 0.31663 0.61453 0.0
C347 C 0.68873 0.32316 0.58236 0.0
C348 C 0.77935 0.45847 0.64066 0.0
C349 C 0.6515 0.26267 0.62776 0.0
H350 H 0.78676 0.33304 0.72223 0.0
H351 H 0.6599 0.36283 0.73475 0.0
H352 H 0.77091 0.30532 0.6435 0.0
H353 H 0.81684 0.37379 0.64712 0.0
H354 H 0.81888 0.32847 0.67395 0.0
H355 H 0.61544 0.37316 0.69292 0.0
H356 H 0.65979 0.40907 0.66203 0.0
H357 H 0.61589 0.34027 0.65785 0.0
H358 H 0.77317 0.45458 0.57886 0.0
H359 H 0.6664 0.28958 0.56745 0.0
H360 H 0.80883 0.45342 0.65358 0.0
H361 H 0.75428 0.46325 0.65787 0.0
H362 H 0.80009 0.49495 0.62689 0.0
H363 H 0.6761 0.24986 0.6399 0.0
H364 H 0.62841 0.23321 0.60972 0.0
H365 H 0.62419 0.26352 0.645 0.0
C366 C 0.35612 0.67062 0.92484 0.0
C367 C 0.35713 0.71737 0.91775 0.0
C368 C 0.36095 0.65852 0.95549 0.0
C369 C 0.36719 0.69425 0.97924 0.0
C370 C 0.37077 0.74258 0.9719 0.0
C371 C 0.36555 0.75345 0.94124 0.0
C372 C 0.35708 0.6067 0.96256 0.0
C373 C 0.37803 0.78202 -0.00344 0.0
C374 C 0.32096 0.65546 0.06106 0.0
C375 C 0.36864 0.67552 0.07671 0.0
C376 C 0.31959 0.65779 0.02886 0.0
C377 C 0.36706 0.6807 0.01208 0.0
C378 C 0.41493 0.69752 0.02761 0.0
C379 C 0.41516 0.69481 0.05983 0.0
C380 C 0.26771 0.63913 0.01303 0.0
C381 C 0.46625 0.72172 0.01046 0.0
H382 H 0.34944 0.64262 0.90666 0.0
H383 H 0.36679 0.78983 0.93575 0.0
H384 H 0.38928 0.61243 0.97811 0.0
H385 H 0.31976 0.58107 0.97471 0.0
H386 H 0.35839 0.58616 0.94136 0.0
H387 H 0.38278 0.81885 0.98676 0.0
H388 H 0.34363 0.76496 0.01214 0.0
H389 H 0.41292 0.7918 0.01078 0.0
H390 H 0.28485 0.64 0.07402 0.0
H391 H 0.45211 0.70977 0.07183 0.0
H392 H 0.26374 0.61435 -0.00723 0.0
H393 H 0.26565 0.67343 0.00454 0.0
H394 H 0.23412 0.61639 0.02875 0.0
H395 H 0.46299 0.69834 0.98963 0.0
H396 H 0.49857 0.72506 0.02511 0.0
H397 H 0.47667 0.76155 0.00268 0.0
C398 C 0.70924 0.39955 0.36243 0.0
C399 C 0.69291 0.35893 0.38393 0.0
C400 C 0.69161 0.38931 0.33188 0.0
C401 C 0.65694 0.3371 0.32251 0.0
C402 C 0.64234 0.2956 0.34367 0.0
C403 C 0.66044 0.30704 0.37424 0.0
C404 C 0.70798 0.43467 0.31008 0.0
C405 C 0.60578 0.23937 0.3344 0.0
C406 C 0.56117 0.31712 0.25877 0.0
C407 C 0.58421 0.30777 0.23312 0.0
C408 C 0.58457 0.32674 0.28792 0.0
C409 C 0.63206 0.32665 0.29158 0.0
C410 C 0.65585 0.3177 0.26571 0.0
C411 C 0.6317 0.30856 0.23668 0.0
C412 C 0.55829 0.33682 0.31484 0.0
C413 C 0.70642 0.31721 0.2688 0.0
H414 H 0.73462 0.43979 0.3697 0.0
H415 H 0.64791 0.2755 0.39072 0.0
H416 H 0.72286 0.42749 0.2882 0.0
H417 H 0.67358 0.43859 0.3043 0.0
H418 H 0.73874 0.47235 0.32012 0.0
H419 H 0.6026 0.21141 0.35248 0.0
H420 H 0.56622 0.23345 0.33001 0.0
H421 H 0.6193 0.23001 0.31269 0.0
H422 H 0.52448 0.31661 0.25613 0.0
H423 H 0.64945 0.30101 0.21692 0.0
H424 H 0.5852 0.37569 0.3252 0.0
H425 H 0.54893 0.30701 0.33296 0.0
H426 H 0.5216 0.3358 0.30805 0.0
H427 H 0.73747 0.35529 0.27814 0.0
H428 H 0.7199 0.30972 0.24645 0.0
H429 H 0.70132 0.2865 0.28538 0.0
C430 C 0.34756 0.66575 0.7363 0.0
C431 C 0.31653 0.6877 0.74371 0.0
C432 C 0.34885 0.64924 0.70609 0.0
C433 C 0.31806 0.65456 0.68303 0.0
C434 C 0.28655 0.67653 0.69047 0.0
C435 C 0.28632 0.693 0.72071 0.0
C436 C 0.38305 0.62614 0.69883 0.0
C437 C 0.25283 0.68239 0.66653 0.0
C438 C 0.34942 0.6545 0.5983 0.0
C439 C 0.31249 0.60315 0.58969 0.0
C440 C 0.35261 0.67147 0.62888 0.0
C441 C 0.31775 0.63629 0.65113 0.0
C442 C 0.28067 0.5843 0.64258 0.0
C443 C 0.27862 0.56829 0.61194 0.0
C444 C 0.39277 0.72716 0.63729 0.0
C445 C 0.24252 0.54587 0.66565 0.0
H446 H 0.37108 0.66179 0.75405 0.0
H447 H 0.26215 0.70986 0.72637 0.0
H448 H 0.35868 0.58544 0.69018 0.0
H449 H 0.41112 0.64899 0.68029 0.0
H450 H 0.40537 0.62566 0.71926 0.0
H451 H 0.23072 0.70046 0.67613 0.0
H452 H 0.27747 0.70697 0.64724 0.0
H453 H 0.2245 0.64346 0.65676 0.0
H454 H 0.37585 0.68141 0.58116 0.0
H455 H 0.25002 0.52852 0.60535 0.0
H456 H 0.41732 0.7275 0.65669 0.0
H457 H 0.37282 0.74846 0.64516 0.0
H458 H 0.41867 0.74876 0.61761 0.0
H459 H 0.26394 0.5422 0.68554 0.0
H460 H 0.21729 0.50636 0.65546 0.0
H461 H 0.21708 0.56048 0.67472 0.0
loop_
_geom_bond_atom_site_label_1
_geom_bond_atom_site_label_2
_geom_bond_distance
_geom_bond_site_symmetry_2
_ccdc_geom_bond_type
In0 O1 2.294 . S
In0 O2 2.326 . S
In0 O6 2.266 . S
In0 O7 2.326 . S
In0 O8 2.266 . S
In0 O9 2.326 . S
In0 O11 2.294 . S
In0 O12 2.326 . S
O1 In0 2.294 . S
O1 C10 1.240 . S
O2 In0 2.326 . S
O2 C10 1.252 . S
C3 O6 1.252 . S
C3 O7 1.260 . S
C4 O11 1.240 . S
C4 O12 1.252 . S
C5 O8 1.252 . S
C5 O9 1.260 . S
O6 In0 2.266 . S
O6 C3 1.252 . S
O7 In0 2.326 . S
O7 C3 1.260 . S
O8 In0 2.266 . S
O8 C5 1.252 . S
O9 In0 2.326 . S
O9 C5 1.260 . S
C10 O1 1.240 . S
C10 O2 1.252 . S
O11 In0 2.294 . S
O11 C4 1.240 . S
O12 In0 2.326 . S
O12 C4 1.252 . S
In13 O14 2.294 . S
In13 O15 2.326 . S
In13 O19 2.266 . S
In13 O20 2.326 . S
In13 O21 2.266 . S
In13 O22 2.326 . S
In13 O24 2.294 . S
In13 O25 2.326 . S
O14 In13 2.294 . S
O14 C23 1.240 . S
O15 In13 2.326 . S
O15 C23 1.252 . S
C16 O19 1.252 . S
C16 O20 1.260 . S
C17 O24 1.240 . S
C17 O25 1.252 . S
C18 O21 1.252 . S
C18 O22 1.260 . S
O19 In13 2.266 . S
O19 C16 1.252 . S
O20 In13 2.326 . S
O20 C16 1.260 . S
O21 In13 2.266 . S
O21 C18 1.252 . S
O22 In13 2.326 . S
O22 C18 1.260 . S
C23 O14 1.240 . S
C23 O15 1.252 . S
O24 In13 2.294 . S
O24 C17 1.240 . S
O25 In13 2.326 . S
O25 C17 1.252 . S
In26 O27 2.294 . S
In26 O28 2.326 . S
In26 O32 2.266 . S
In26 O33 2.326 . S
In26 O34 2.266 . S
In26 O35 2.326 . S
In26 O37 2.294 . S
In26 O38 2.326 . S
O27 In26 2.294 . S
O27 C36 1.240 . S
O28 In26 2.326 . S
O28 C36 1.252 . S
C29 O32 1.252 . S
C29 O33 1.260 . S
C30 O37 1.240 . S
C30 O38 1.252 . S
C31 O34 1.252 . S
C31 O35 1.260 . S
O32 In26 2.266 . S
O32 C29 1.252 . S
O33 In26 2.326 . S
O33 C29 1.260 . S
O34 In26 2.266 . S
O34 C31 1.252 . S
O35 In26 2.326 . S
O35 C31 1.260 . S
C36 O27 1.240 . S
C36 O28 1.252 . S
O37 In26 2.294 . S
O37 C30 1.240 . S
O38 In26 2.326 . S
O38 C30 1.252 . S
In39 O40 2.294 . S
In39 O41 2.326 . S
In39 O45 2.266 . S
In39 O46 2.326 . S
In39 O47 2.266 . S
In39 O48 2.326 . S
In39 O50 2.294 . S
In39 O51 2.326 . S
O40 In39 2.294 . S
O40 C49 1.240 . S
O41 In39 2.326 . S
O41 C49 1.252 . S
C42 O45 1.252 . S
C42 O46 1.260 . S
C43 O50 1.240 . S
C43 O51 1.252 . S
C44 O47 1.252 . S
C44 O48 1.260 . S
O45 In39 2.266 . S
O45 C42 1.252 . S
O46 In39 2.326 . S
O46 C42 1.260 . S
O47 In39 2.266 . S
O47 C44 1.252 . S
O48 In39 2.326 . S
O48 C44 1.260 . S
C49 O40 1.240 . S
C49 O41 1.252 . S
O50 In39 2.294 . S
O50 C43 1.240 . S
O51 In39 2.326 . S
O51 C43 1.252 . S
In52 O53 2.294 . S
In52 O54 2.326 . S
In52 O58 2.266 . S
In52 O59 2.326 . S
In52 O60 2.266 . S
In52 O61 2.326 . S
In52 O63 2.294 . S
In52 O64 2.326 . S
O53 In52 2.294 . S
O53 C62 1.240 . S
O54 In52 2.326 . S
O54 C62 1.252 . S
C55 O58 1.252 . S
C55 O59 1.260 . S
C56 O63 1.240 . S
C56 O64 1.252 . S
C57 O60 1.252 . S
C57 O61 1.260 . S
O58 In52 2.266 . S
O58 C55 1.252 . S
O59 In52 2.326 . S
O59 C55 1.260 . S
O60 In52 2.266 . S
O60 C57 1.252 . S
O61 In52 2.326 . S
O61 C57 1.260 . S
C62 O53 1.240 . S
C62 O54 1.252 . S
O63 In52 2.294 . S
O63 C56 1.240 . S
O64 In52 2.326 . S
O64 C56 1.252 . S
In65 O66 2.294 . S
In65 O67 2.326 . S
In65 O71 2.266 . S
In65 O72 2.326 . S
In65 O73 2.266 . S
In65 O74 2.326 . S
In65 O76 2.294 . S
In65 O77 2.326 . S
O66 In65 2.294 . S
O66 C75 1.240 . S
O67 In65 2.326 . S
O67 C75 1.252 . S
C68 O71 1.252 . S
C68 O72 1.260 . S
C69 O76 1.240 . S
C69 O77 1.252 . S
C70 O73 1.252 . S
C70 O74 1.260 . S
O71 In65 2.266 . S
O71 C68 1.252 . S
O72 In65 2.326 . S
O72 C68 1.260 . S
O73 In65 2.266 . S
O73 C70 1.252 . S
O74 In65 2.326 . S
O74 C70 1.260 . S
C75 O66 1.240 . S
C75 O67 1.252 . S
O76 In65 2.294 . S
O76 C69 1.240 . S
O77 In65 2.326 . S
O77 C69 1.252 . S
C78 C79 1.391 . S
C78 C80 1.394 . S
C78 H94 0.931 . S
C79 C78 1.391 . S
C79 C83 1.376 . S
C80 C78 1.394 . S
C80 C81 1.369 . S
C80 C84 1.531 . S
C81 C80 1.369 . S
C81 C82 1.410 . S
C81 C89 1.503 1_545 S
C82 C81 1.410 . S
C82 C83 1.392 . S
C82 C85 1.511 1_545 S
C83 C79 1.376 . S
C83 C82 1.392 . S
C83 H95 0.929 . S
C84 C80 1.531 . S
C84 H96 0.960 . S
C84 H97 0.962 . S
C84 H98 0.960 . S
C85 C82 1.511 1_565 S
C85 H99 0.961 . S
C85 H100 0.961 . S
C85 H101 0.961 . S
C86 C87 1.370 . S
C86 C88 1.363 . S
C86 H102 0.931 . S
C87 C86 1.370 . S
C87 C91 1.408 . S
C88 C86 1.363 . S
C88 C89 1.370 . S
C88 C92 1.524 . S
C89 C81 1.503 1_565 S
C89 C88 1.370 . S
C89 C90 1.403 . S
C90 C89 1.403 . S
C90 C91 1.404 . S
C90 C93 1.539 . S
C91 C87 1.408 . S
C91 C90 1.404 . S
C91 H103 0.930 . S
C92 C88 1.524 . S
C92 H104 0.956 1_565 S
C92 H105 0.961 1_565 S
C92 H106 0.961 . S
C93 C90 1.539 . S
C93 H107 0.958 . S
C93 H108 0.961 . S
C93 H109 0.960 . S
H94 C78 0.931 . S
H95 C83 0.929 . S
H96 C84 0.960 . S
H97 C84 0.962 . S
H98 C84 0.960 . S
H99 C85 0.961 . S
H100 C85 0.961 . S
H101 C85 0.961 . S
H102 C86 0.931 . S
H103 C91 0.930 . S
H104 C92 0.956 1_545 S
H105 C92 0.961 1_545 S
H106 C92 0.961 . S
H107 C93 0.958 . S
H108 C93 0.961 . S
H109 C93 0.960 . S
C110 C111 1.391 . S
C110 C112 1.394 . S
C110 H126 0.931 . S
C111 C110 1.391 . S
C111 C115 1.376 . S
C112 C110 1.394 . S
C112 C113 1.369 . S
C112 C116 1.531 . S
C113 C112 1.369 . S
C113 C114 1.410 . S
C113 C121 1.503 . S
C114 C113 1.410 . S
C114 C115 1.392 . S
C114 C117 1.511 . S
C115 C111 1.376 . S
C115 C114 1.392 . S
C115 H127 0.929 . S
C116 C112 1.531 . S
C116 H128 0.960 . S
C116 H129 0.962 . S
C116 H130 0.960 . S
C117 C114 1.511 . S
C117 H131 0.961 . S
C117 H132 0.961 . S
C117 H133 0.961 . S
C118 C119 1.370 . S
C118 C120 1.363 . S
C118 H134 0.931 . S
C119 C118 1.370 . S
C119 C123 1.408 . S
C120 C118 1.363 . S
C120 C121 1.370 . S
C120 C124 1.524 . S
C121 C113 1.503 . S
C121 C120 1.370 . S
C121 C122 1.403 . S
C122 C121 1.403 . S
C122 C123 1.404 . S
C122 C125 1.539 . S
C123 C119 1.408 . S
C123 C122 1.404 . S
C123 H135 0.930 . S
C124 C120 1.524 . S
C124 H136 0.956 . S
C124 H137 0.961 . S
C124 H138 0.961 . S
C125 C122 1.539 . S
C125 H139 0.958 . S
C125 H140 0.961 . S
C125 H141 0.960 . S
H126 C110 0.931 . S
H127 C115 0.929 . S
H128 C116 0.960 . S
H129 C116 0.962 . S
H130 C116 0.960 . S
H131 C117 0.961 . S
H132 C117 0.961 . S
H133 C117 0.961 . S
H134 C118 0.931 . S
H135 C123 0.930 . S
H136 C124 0.956 . S
H137 C124 0.961 . S
H138 C124 0.961 . S
H139 C125 0.958 . S
H140 C125 0.961 . S
H141 C125 0.960 . S
C142 C143 1.391 . S
C142 C144 1.394 . S
C142 H158 0.931 . S
C143 C142 1.391 . S
C143 C147 1.376 . S
C144 C142 1.394 . S
C144 C145 1.369 . S
C144 C148 1.531 1_655 S
C145 C144 1.369 . S
C145 C146 1.410 . S
C145 C153 1.503 1_655 S
C146 C145 1.410 . S
C146 C147 1.392 . S
C146 C149 1.511 . S
C147 C143 1.376 . S
C147 C146 1.392 . S
C147 H159 0.929 . S
C148 C144 1.531 1_455 S
C148 H160 0.960 . S
C148 H161 0.962 . S
C148 H162 0.960 1_455 S
C149 C146 1.511 . S
C149 H163 0.961 . S
C149 H164 0.961 . S
C149 H165 0.961 . S
C150 C151 1.370 . S
C150 C152 1.363 . S
C150 H166 0.931 . S
C151 C150 1.370 . S
C151 C155 1.408 . S
C152 C150 1.363 . S
C152 C153 1.370 . S
C152 C156 1.524 . S
C153 C145 1.503 1_455 S
C153 C152 1.370 . S
C153 C154 1.403 . S
C154 C153 1.403 . S
C154 C155 1.404 . S
C154 C157 1.539 . S
C155 C151 1.408 . S
C155 C154 1.404 . S
C155 H167 0.930 . S
C156 C152 1.524 . S
C156 H168 0.956 . S
C156 H169 0.961 . S
C156 H170 0.961 . S
C157 C154 1.539 . S
C157 H171 0.958 . S
C157 H172 0.961 . S
C157 H173 0.960 1_455 S
H158 C142 0.931 . S
H159 C147 0.929 . S
H160 C148 0.960 . S
H161 C148 0.962 . S
H162 C148 0.960 1_655 S
H163 C149 0.961 . S
H164 C149 0.961 . S
H165 C149 0.961 . S
H166 C150 0.931 . S
H167 C155 0.930 . S
H168 C156 0.956 . S
H169 C156 0.961 . S
H170 C156 0.961 . S
H171 C157 0.958 . S
H172 C157 0.961 . S
H173 C157 0.960 1_655 S
C174 C175 1.391 . S
C174 C176 1.394 . S
C174 H190 0.931 . S
C175 C174 1.391 . S
C175 C179 1.376 . S
C176 C174 1.394 . S
C176 C177 1.369 . S
C176 C180 1.531 . S
C177 C176 1.369 . S
C177 C178 1.410 . S
C177 C185 1.503 1_455 S
C178 C177 1.410 . S
C178 C179 1.392 . S
C178 C181 1.511 . S
C179 C175 1.376 . S
C179 C178 1.392 . S
C179 H191 0.929 . S
C180 C176 1.531 . S
C180 H192 0.960 1_455 S
C180 H193 0.962 . S
C180 H194 0.960 . S
C181 C178 1.511 . S
C181 H195 0.961 . S
C181 H196 0.961 1_455 S
C181 H197 0.961 . S
C182 C183 1.370 . S
C182 C184 1.363 . S
C182 H198 0.931 . S
C183 C182 1.370 . S
C183 C187 1.408 . S
C184 C182 1.363 . S
C184 C185 1.370 . S
C184 C188 1.524 1_655 S
C185 C177 1.503 1_655 S
C185 C184 1.370 . S
C185 C186 1.403 . S
C186 C185 1.403 . S
C186 C187 1.404 . S
C186 C189 1.539 . S
C187 C183 1.408 . S
C187 C186 1.404 . S
C187 H199 0.930 . S
C188 C184 1.524 1_455 S
C188 H200 0.956 . S
C188 H201 0.961 . S
C188 H202 0.961 . S
C189 C186 1.539 . S
C189 H203 0.958 . S
C189 H204 0.961 . S
C189 H205 0.960 . S
H190 C174 0.931 . S
H191 C179 0.929 . S
H192 C180 0.960 1_655 S
H193 C180 0.962 . S
H194 C180 0.960 . S
H195 C181 0.961 . S
H196 C181 0.961 1_655 S
H197 C181 0.961 . S
H198 C182 0.931 . S
H199 C187 0.930 . S
H200 C188 0.956 . S
H201 C188 0.961 . S
H202 C188 0.961 . S
H203 C189 0.958 . S
H204 C189 0.961 . S
H205 C189 0.960 . S
C206 C207 1.391 . S
C206 C208 1.394 . S
C206 H222 0.931 . S
C207 C206 1.391 . S
C207 C211 1.376 . S
C208 C206 1.394 . S
C208 C209 1.369 . S
C208 C212 1.531 . S
C209 C208 1.369 . S
C209 C210 1.410 . S
C209 C217 1.503 1_565 S
C210 C209 1.410 . S
C210 C211 1.392 . S
C210 C213 1.511 1_565 S
C211 C207 1.376 . S
C211 C210 1.392 . S
C211 H223 0.929 . S
C212 C208 1.531 . S
C212 H224 0.960 . S
C212 H225 0.962 . S
C212 H226 0.960 . S
C213 C210 1.511 1_545 S
C213 H227 0.961 1_545 S
C213 H228 0.961 . S
C213 H229 0.961 . S
C214 C215 1.370 . S
C214 C216 1.363 . S
C214 H230 0.931 . S
C215 C214 1.370 . S
C215 C219 1.408 . S
C216 C214 1.363 . S
C216 C217 1.370 . S
C216 C220 1.524 1_545 S
C217 C209 1.503 1_545 S
C217 C216 1.370 . S
C217 C218 1.403 . S
C218 C217 1.403 . S
C218 C219 1.404 . S
C218 C221 1.539 . S
C219 C215 1.408 . S
C219 C218 1.404 . S
C219 H231 0.930 . S
C220 C216 1.524 1_565 S
C220 H232 0.956 . S
C220 H233 0.961 . S
C220 H234 0.961 1_565 S
C221 C218 1.539 . S
C221 H235 0.958 . S
C221 H236 0.961 . S
C221 H237 0.960 . S
H222 C206 0.931 . S
H223 C211 0.929 . S
H224 C212 0.960 . S
H225 C212 0.962 . S
H226 C212 0.960 . S
H227 C213 0.961 1_565 S
H228 C213 0.961 . S
H229 C213 0.961 . S
H230 C214 0.931 . S
H231 C219 0.930 . S
H232 C220 0.956 . S
H233 C220 0.961 . S
H234 C220 0.961 1_545 S
H235 C221 0.958 . S
H236 C221 0.961 . S
H237 C221 0.960 . S
C238 C239 1.391 . S
C238 C240 1.394 . S
C238 H254 0.931 . S
C239 C238 1.391 . S
C239 C243 1.376 . S
C240 C238 1.394 . S
C240 C241 1.369 . S
C240 C244 1.531 . S
C241 C240 1.369 . S
C241 C242 1.410 . S
C241 C249 1.503 . S
C242 C241 1.410 . S
C242 C243 1.392 . S
C242 C245 1.511 . S
C243 C239 1.376 . S
C243 C242 1.392 . S
C243 H255 0.929 . S
C244 C240 1.531 . S
C244 H256 0.960 . S
C244 H257 0.962 . S
C244 H258 0.960 . S
C245 C242 1.511 . S
C245 H259 0.961 . S
C245 H260 0.961 . S
C245 H261 0.961 . S
C246 C247 1.370 . S
C246 C248 1.363 . S
C246 H262 0.931 . S
C247 C246 1.370 . S
C247 C251 1.408 . S
C248 C246 1.363 . S
C248 C249 1.370 . S
C248 C252 1.524 . S
C249 C241 1.503 . S
C249 C248 1.370 . S
C249 C250 1.403 . S
C250 C249 1.403 . S
C250 C251 1.404 . S
C250 C253 1.539 . S
C251 C247 1.408 . S
C251 C250 1.404 . S
C251 H263 0.930 . S
C252 C248 1.524 . S
C252 H264 0.956 . S
C252 H265 0.961 . S
C252 H266 0.961 . S
C253 C250 1.539 . S
C253 H267 0.958 . S
C253 H268 0.961 . S
C253 H269 0.960 . S
H254 C238 0.931 . S
H255 C243 0.929 . S
H256 C244 0.960 . S
H257 C244 0.962 . S
H258 C244 0.960 . S
H259 C245 0.961 . S
H260 C245 0.961 . S
H261 C245 0.961 . S
H262 C246 0.931 . S
H263 C251 0.930 . S
H264 C252 0.956 . S
H265 C252 0.961 . S
H266 C252 0.961 . S
H267 C253 0.958 . S
H268 C253 0.961 . S
H269 C253 0.960 . S
C270 C271 1.391 . S
C270 C272 1.394 . S
C270 H286 0.931 . S
C271 C270 1.391 . S
C271 C275 1.376 . S
C272 C270 1.394 . S
C272 C273 1.369 . S
C272 C276 1.531 . S
C273 C272 1.369 . S
C273 C274 1.410 . S
C273 C281 1.503 1_556 S
C274 C273 1.410 . S
C274 C275 1.392 . S
C274 C277 1.511 . S
C275 C271 1.376 . S
C275 C274 1.392 . S
C275 H287 0.929 . S
C276 C272 1.531 . S
C276 H288 0.960 . S
C276 H289 0.962 . S
C276 H290 0.960 . S
C277 C274 1.511 . S
C277 H291 0.961 . S
C277 H292 0.961 1_556 S
C277 H293 0.961 1_556 S
C278 C279 1.370 . S
C278 C280 1.363 . S
C278 H294 0.931 . S
C279 C278 1.370 . S
C279 C283 1.408 . S
C280 C278 1.363 . S
C280 C281 1.370 . S
C280 C284 1.524 . S
C281 C273 1.503 1_554 S
C281 C280 1.370 . S
C281 C282 1.403 . S
C282 C281 1.403 . S
C282 C283 1.404 . S
C282 C285 1.539 . S
C283 C279 1.408 . S
C283 C282 1.404 . S
C283 H295 0.930 . S
C284 C280 1.524 . S
C284 H296 0.956 1_554 S
C284 H297 0.961 1_554 S
C284 H298 0.961 . S
C285 C282 1.539 . S
C285 H299 0.958 . S
C285 H300 0.961 . S
C285 H301 0.960 . S
H286 C270 0.931 . S
H287 C275 0.929 . S
H288 C276 0.960 . S
H289 C276 0.962 . S
H290 C276 0.960 . S
H291 C277 0.961 . S
H292 C277 0.961 1_554 S
H293 C277 0.961 1_554 S
H294 C278 0.931 . S
H295 C283 0.930 . S
H296 C284 0.956 1_556 S
H297 C284 0.961 1_556 S
H298 C284 0.961 . S
H299 C285 0.958 . S
H300 C285 0.961 . S
H301 C285 0.960 . S
C302 C303 1.391 . S
C302 C304 1.394 . S
C302 H318 0.931 . S
C303 C302 1.391 . S
C303 C307 1.376 . S
C304 C302 1.394 . S
C304 C305 1.369 . S
C304 C308 1.531 . S
C305 C304 1.369 . S
C305 C306 1.410 . S
C305 C313 1.503 . S
C306 C305 1.410 . S
C306 C307 1.392 . S
C306 C309 1.511 . S
C307 C303 1.376 . S
C307 C306 1.392 . S
C307 H319 0.929 . S
C308 C304 1.531 . S
C308 H320 0.960 . S
C308 H321 0.962 . S
C308 H322 0.960 . S
C309 C306 1.511 . S
C309 H323 0.961 . S
C309 H324 0.961 . S
C309 H325 0.961 . S
C310 C311 1.370 . S
C310 C312 1.363 . S
C310 H326 0.931 . S
C311 C310 1.370 . S
C311 C315 1.408 . S
C312 C310 1.363 . S
C312 C313 1.370 . S
C312 C316 1.524 . S
C313 C305 1.503 . S
C313 C312 1.370 . S
C313 C314 1.403 . S
C314 C313 1.403 . S
C314 C315 1.404 . S
C314 C317 1.539 . S
C315 C311 1.408 . S
C315 C314 1.404 . S
C315 H327 0.930 . S
C316 C312 1.524 . S
C316 H328 0.956 . S
C316 H329 0.961 . S
C316 H330 0.961 . S
C317 C314 1.539 . S
C317 H331 0.958 . S
C317 H332 0.961 . S
C317 H333 0.960 . S
H318 C302 0.931 . S
H319 C307 0.929 . S
H320 C308 0.960 . S
H321 C308 0.962 . S
H322 C308 0.960 . S
H323 C309 0.961 . S
H324 C309 0.961 . S
H325 C309 0.961 . S
H326 C310 0.931 . S
H327 C315 0.930 . S
H328 C316 0.956 . S
H329 C316 0.961 . S
H330 C316 0.961 . S
H331 C317 0.958 . S
H332 C317 0.961 . S
H333 C317 0.960 . S
C334 C335 1.391 . S
C334 C336 1.394 . S
C334 H350 0.931 . S
C335 C334 1.391 . S
C335 C339 1.376 . S
C336 C334 1.394 . S
C336 C337 1.369 . S
C336 C340 1.531 . S
C337 C336 1.369 . S
C337 C338 1.410 . S
C337 C345 1.503 . S
C338 C337 1.410 . S
C338 C339 1.392 . S
C338 C341 1.511 . S
C339 C335 1.376 . S
C339 C338 1.392 . S
C339 H351 0.929 . S
C340 C336 1.531 . S
C340 H352 0.960 . S
C340 H353 0.962 . S
C340 H354 0.960 . S
C341 C338 1.511 . S
C341 H355 0.961 . S
C341 H356 0.961 . S
C341 H357 0.961 . S
C342 C343 1.370 . S
C342 C344 1.363 . S
C342 H358 0.931 . S
C343 C342 1.370 . S
C343 C347 1.408 . S
C344 C342 1.363 . S
C344 C345 1.370 . S
C344 C348 1.524 . S
C345 C337 1.503 . S
C345 C344 1.370 . S
C345 C346 1.403 . S
C346 C345 1.403 . S
C346 C347 1.404 . S
C346 C349 1.539 . S
C347 C343 1.408 . S
C347 C346 1.404 . S
C347 H359 0.930 . S
C348 C344 1.524 . S
C348 H360 0.956 . S
C348 H361 0.961 . S
C348 H362 0.961 . S
C349 C346 1.539 . S
C349 H363 0.958 . S
C349 H364 0.961 . S
C349 H365 0.960 . S
H350 C334 0.931 . S
H351 C339 0.929 . S
H352 C340 0.960 . S
H353 C340 0.962 . S
H354 C340 0.960 . S
H355 C341 0.961 . S
H356 C341 0.961 . S
H357 C341 0.961 . S
H358 C342 0.931 . S
H359 C347 0.930 . S
H360 C348 0.956 . S
H361 C348 0.961 . S
H362 C348 0.961 . S
H363 C349 0.958 . S
H364 C349 0.961 . S
H365 C349 0.960 . S
C366 C367 1.391 . S
C366 C368 1.394 . S
C366 H382 0.931 . S
C367 C366 1.391 . S
C367 C371 1.376 . S
C368 C366 1.394 . S
C368 C369 1.369 . S
C368 C372 1.531 . S
C369 C368 1.369 . S
C369 C370 1.410 . S
C369 C377 1.503 1_556 S
C370 C369 1.410 . S
C370 C371 1.392 . S
C370 C373 1.511 . S
C371 C367 1.376 . S
C371 C370 1.392 . S
C371 H383 0.929 . S
C372 C368 1.531 . S
C372 H384 0.960 1_556 S
C372 H385 0.950 1_556 S
C372 H386 0.960 . S
C373 C370 1.511 . S
C373 H387 0.961 . S
C373 H388 0.961 . S
C373 H389 0.961 . S
C374 C375 1.370 . S
C374 C376 1.363 . S
C374 H390 0.931 . S
C375 C374 1.370 . S
C375 C379 1.408 . S
C376 C374 1.363 . S
C376 C377 1.370 . S
C376 C380 1.524 . S
C377 C369 1.503 1_554 S
C377 C376 1.370 . S
C377 C378 1.403 . S
C378 C377 1.403 . S
C378 C379 1.404 . S
C378 C381 1.539 . S
C379 C375 1.408 . S
C379 C378 1.404 . S
C379 H391 0.930 . S
C380 C376 1.524 . S
C380 H392 0.956 . S
C380 H393 0.961 . S
C380 H394 0.961 . S
C381 C378 1.539 . S
C381 H395 0.958 . S
C381 H396 0.961 . S
C381 H397 0.960 1_554 S
H382 C366 0.931 . S
H383 C371 0.929 . S
H384 C372 0.960 1_554 S
H385 C372 0.950 1_554 S
H386 C372 0.960 . S
H387 C373 0.961 . S
H388 C373 0.961 . S
H389 C373 0.961 . S
H390 C374 0.931 . S
H391 C379 0.930 . S
H392 C380 0.956 . S
H393 C380 0.961 . S
H394 C380 0.961 . S
H395 C381 0.958 . S
H396 C381 0.961 . S
H397 C381 0.960 1_556 S
C398 C399 1.391 . S
C398 C400 1.394 . S
C398 H414 0.931 . S
C399 C398 1.391 . S
C399 C403 1.376 . S
C400 C398 1.394 . S
C400 C401 1.369 . S
C400 C404 1.531 . S
C401 C400 1.369 . S
C401 C402 1.410 . S
C401 C409 1.503 . S
C402 C401 1.410 . S
C402 C403 1.392 . S
C402 C405 1.511 . S
C403 C399 1.376 . S
C403 C402 1.392 . S
C403 H415 0.929 . S
C404 C400 1.531 . S
C404 H416 0.960 . S
C404 H417 0.962 . S
C404 H418 0.960 . S
C405 C402 1.511 . S
C405 H419 0.961 . S
C405 H420 0.961 . S
C405 H421 0.961 . S
C406 C407 1.370 . S
C406 C408 1.363 . S
C406 H422 0.931 . S
C407 C406 1.370 . S
C407 C411 1.408 . S
C408 C406 1.363 . S
C408 C409 1.370 . S
C408 C412 1.524 . S
C409 C401 1.503 . S
C409 C408 1.370 . S
C409 C410 1.403 . S
C410 C409 1.403 . S
C410 C411 1.404 . S
C410 C413 1.539 . S
C411 C407 1.408 . S
C411 C410 1.404 . S
C411 H423 0.930 . S
C412 C408 1.524 . S
C412 H424 0.956 . S
C412 H425 0.961 . S
C412 H426 0.961 . S
C413 C410 1.539 . S
C413 H427 0.958 . S
C413 H428 0.961 . S
C413 H429 0.960 . S
H414 C398 0.931 . S
H415 C403 0.929 . S
H416 C404 0.960 . S
H417 C404 0.962 . S
H418 C404 0.960 . S
H419 C405 0.961 . S
H420 C405 0.961 . S
H421 C405 0.961 . S
H422 C406 0.931 . S
H423 C411 0.930 . S
H424 C412 0.956 . S
H425 C412 0.961 . S
H426 C412 0.961 . S
H427 C413 0.958 . S
H428 C413 0.961 . S
H429 C413 0.960 . S
C430 C431 1.391 . S
C430 C432 1.394 . S
C430 H446 0.931 . S
C431 C430 1.391 . S
C431 C435 1.376 . S
C432 C430 1.394 . S
C432 C433 1.369 . S
C432 C436 1.531 . S
C433 C432 1.369 . S
C433 C434 1.410 . S
C433 C441 1.503 . S
C434 C433 1.410 . S
C434 C435 1.392 . S
C434 C437 1.511 . S
C435 C431 1.376 . S
C435 C434 1.392 . S
C435 H447 0.929 . S
C436 C432 1.531 . S
C436 H448 0.960 . S
C436 H449 0.962 . S
C436 H450 0.960 . S
C437 C434 1.511 . S
C437 H451 0.961 . S
C437 H452 0.961 . S
C437 H453 0.961 . S
C438 C439 1.370 . S
C438 C440 1.363 . S
C438 H454 0.931 . S
C439 C438 1.370 . S
C439 C443 1.408 . S
C440 C438 1.363 . S
C440 C441 1.370 . S
C440 C444 1.524 . S
C441 C433 1.503 . S
C441 C440 1.370 . S
C441 C442 1.403 . S
C442 C441 1.403 . S
C442 C443 1.404 . S
C442 C445 1.539 . S
C443 C439 1.408 . S
C443 C442 1.404 . S
C443 H455 0.930 . S
C444 C440 1.524 . S
C444 H456 0.956 . S
C444 H457 0.961 . S
C444 H458 0.961 . S
C445 C442 1.539 . S
C445 H459 0.958 . S
C445 H460 0.961 . S
C445 H461 0.960 . S
H446 C430 0.931 . S
H447 C435 0.929 . S
H448 C436 0.960 . S
H449 C436 0.962 . S
H450 C436 0.960 . S
H451 C437 0.961 . S
H452 C437 0.961 . S
H453 C437 0.961 . S
H454 C438 0.931 . S
H455 C443 0.930 . S
H456 C444 0.956 . S
H457 C444 0.961 . S
H458 C444 0.961 . S
H459 C445 0.958 . S
H460 C445 0.961 . S
H461 C445 0.960 . S
C79 C3 1.419 . S
C87 C42 1.410 . S
C111 C18 1.432 . S
C119 C55 1.406 . S
C143 C31 1.403 . S
C151 C68 1.420 . S
C175 C17 1.412 . S
C183 C62 1.387 . S
C207 C75 1.409 . S
C215 C30 1.389 . S
C239 C49 1.395 . S
C247 C10 1.394 . S
C271 C36 1.327 . S
C279 C5 1.343 . S
C303 C43 1.340 . S
C311 C16 1.344 . S
C335 C29 1.334 . S
C343 C56 1.347 . S
C367 C69 1.353 . S
C375 C44 1.336 . S
C399 C57 1.325 . S
C407 C4 1.348 . S
C431 C70 1.343 . S
C439 C23 1.337 . S
