# Generated by pormake.
# Topology dei, (4)-cn, num edge types: 1
# Building blocks:
#     Node 0, Type 0, BuildingBlock: GALJAG_clean_sbu_0, # of connection points: 4
#     Node 1, Type 0, BuildingBlock: GALJAG_clean_sbu_0, # of connection points: 4
#     Node 2, Type 0, BuildingBlock: GALJAG_clean_sbu_0, # of connection points: 4
#     Node 3, Type 0, BuildingBlock: GALJAG_clean_sbu_0, # of connection points: 4
#     Node 4, Type 0, BuildingBlock: GALJAG_clean_sbu_0, # of connection points: 4
#     Node 5, Type 0, BuildingBlock: GALJAG_clean_sbu_0, # of connection points: 4
#     Node 6, Type 0, BuildingBlock: GALJAG_clean_sbu_0, # of connection points: 4
#     Node 7, Type 0, BuildingBlock: GALJAG_clean_sbu_0, # of connection points: 4
#     Node 8, Type 0, BuildingBlock: GALJAG_clean_sbu_0, # of connection points: 4
#     Node 9, Type 0, BuildingBlock: GALJAG_clean_sbu_0, # of connection points: 4
#     Node 10, Type 0, BuildingBlock: GALJAG_clean_sbu_0, # of connection points: 4
#     Node 11, Type 0, BuildingBlock: GALJAG_clean_sbu_0, # of connection points: 4
#     Node 12, Type 0, BuildingBlock: GALJAG_clean_sbu_0, # of connection points: 4
#     Node 13, Type 0, BuildingBlock: GALJAG_clean_sbu_0, # of connection points: 4
#     Node 14, Type 0, BuildingBlock: GALJAG_clean_sbu_0, # of connection points: 4
#     Node 15, Type 0, BuildingBlock: GALJAG_clean_sbu_0, # of connection points: 4
#     Node 16, Type 0, BuildingBlock: GALJAG_clean_sbu_0, # of connection points: 4
#     Node 17, Type 0, BuildingBlock: GALJAG_clean_sbu_0, # of connection points: 4
#     Node 18, Type 0, BuildingBlock: GALJAG_clean_sbu_0, # of connection points: 4
#     Node 19, Type 0, BuildingBlock: GALJAG_clean_sbu_0, # of connection points: 4
#     Node 20, Type 0, BuildingBlock: GALJAG_clean_sbu_0, # of connection points: 4
#     Node 21, Type 0, BuildingBlock: GALJAG_clean_sbu_0, # of connection points: 4
#     Node 22, Type 0, BuildingBlock: GALJAG_clean_sbu_0, # of connection points: 4
#     Node 23, Type 0, BuildingBlock: GALJAG_clean_sbu_0, # of connection points: 4
#     Node 24, Type 0, BuildingBlock: GALJAG_clean_sbu_0, # of connection points: 4
#     Node 25, Type 0, BuildingBlock: GALJAG_clean_sbu_0, # of connection points: 4
#     Node 26, Type 0, BuildingBlock: GALJAG_clean_sbu_0, # of connection points: 4
#     Node 27, Type 0, BuildingBlock: GALJAG_clean_sbu_0, # of connection points: 4
#     Node 28, Type 0, BuildingBlock: GALJAG_clean_sbu_0, # of connection points: 4
#     Node 29, Type 0, BuildingBlock: GALJAG_clean_sbu_0, # of connection points: 4
#     Node 30, Type 0, BuildingBlock: GALJAG_clean_sbu_0, # of connection points: 4
#     Node 31, Type 0, BuildingBlock: GALJAG_clean_sbu_0, # of connection points: 4
#     Edge 32, Type (0, 0), BuildingBlock: ZUJKAS_clean_linker_0, # of connection points: 2
#     Edge 33, Type (0, 0), BuildingBlock: ZUJKAS_clean_linker_0, # of connection points: 2
#     Edge 34, Type (0, 0), BuildingBlock: ZUJKAS_clean_linker_0, # of connection points: 2
#     Edge 35, Type (0, 0), BuildingBlock: ZUJKAS_clean_linker_0, # of connection points: 2
#     Edge 36, Type (0, 0), BuildingBlock: ZUJKAS_clean_linker_0, # of connection points: 2
#     Edge 37, Type (0, 0), BuildingBlock: ZUJKAS_clean_linker_0, # of connection points: 2
#     Edge 38, Type (0, 0), BuildingBlock: ZUJKAS_clean_linker_0, # of connection points: 2
#     Edge 39, Type (0, 0), BuildingBlock: ZUJKAS_clean_linker_0, # of connection points: 2
#     Edge 40, Type (0, 0), BuildingBlock: ZUJKAS_clean_linker_0, # of connection points: 2
#     Edge 41, Type (0, 0), BuildingBlock: ZUJKAS_clean_linker_0, # of connection points: 2
#     Edge 42, Type (0, 0), BuildingBlock: ZUJKAS_clean_linker_0, # of connection points: 2
#     Edge 43, Type (0, 0), BuildingBlock: ZUJKAS_clean_linker_0, # of connection points: 2
#     Edge 44, Type (0, 0), BuildingBlock: ZUJKAS_clean_linker_0, # of connection points: 2
#     Edge 45, Type (0, 0), BuildingBlock: ZUJKAS_clean_linker_0, # of connection points: 2
#     Edge 46, Type (0, 0), BuildingBlock: ZUJKAS_clean_linker_0, # of connection points: 2
#     Edge 47, Type (0, 0), BuildingBlock: ZUJKAS_clean_linker_0, # of connection points: 2
#     Edge 48, Type (0, 0), BuildingBlock: ZUJKAS_clean_linker_0, # of connection points: 2
#     Edge 49, Type (0, 0), BuildingBlock: ZUJKAS_clean_linker_0, # of connection points: 2
#     Edge 50, Type (0, 0), BuildingBlock: ZUJKAS_clean_linker_0, # of connection points: 2
#     Edge 51, Type (0, 0), BuildingBlock: ZUJKAS_clean_linker_0, # of connection points: 2
#     Edge 52, Type (0, 0), BuildingBlock: ZUJKAS_clean_linker_0, # of connection points: 2
#     Edge 53, Type (0, 0), BuildingBlock: ZUJKAS_clean_linker_0, # of connection points: 2
#     Edge 54, Type (0, 0), BuildingBlock: ZUJKAS_clean_linker_0, # of connection points: 2
#     Edge 55, Type (0, 0), BuildingBlock: ZUJKAS_clean_linker_0, # of connection points: 2
#     Edge 56, Type (0, 0), BuildingBlock: ZUJKAS_clean_linker_0, # of connection points: 2
#     Edge 57, Type (0, 0), BuildingBlock: ZUJKAS_clean_linker_0, # of connection points: 2
#     Edge 58, Type (0, 0), BuildingBlock: ZUJKAS_clean_linker_0, # of connection points: 2
#     Edge 59, Type (0, 0), BuildingBlock: ZUJKAS_clean_linker_0, # of connection points: 2
#     Edge 60, Type (0, 0), BuildingBlock: ZUJKAS_clean_linker_0, # of connection points: 2
#     Edge 61, Type (0, 0), BuildingBlock: ZUJKAS_clean_linker_0, # of connection points: 2
#     Edge 62, Type (0, 0), BuildingBlock: ZUJKAS_clean_linker_0, # of connection points: 2
#     Edge 63, Type (0, 0), BuildingBlock: ZUJKAS_clean_linker_0, # of connection points: 2
#     Edge 64, Type (0, 0), BuildingBlock: ZUJKAS_clean_linker_0, # of connection points: 2
#     Edge 65, Type (0, 0), BuildingBlock: ZUJKAS_clean_linker_0, # of connection points: 2
#     Edge 66, Type (0, 0), BuildingBlock: ZUJKAS_clean_linker_0, # of connection points: 2
#     Edge 67, Type (0, 0), BuildingBlock: ZUJKAS_clean_linker_0, # of connection points: 2
#     Edge 68, Type (0, 0), BuildingBlock: ZUJKAS_clean_linker_0, # of connection points: 2
#     Edge 69, Type (0, 0), BuildingBlock: ZUJKAS_clean_linker_0, # of connection points: 2
#     Edge 70, Type (0, 0), BuildingBlock: ZUJKAS_clean_linker_0, # of connection points: 2
#     Edge 71, Type (0, 0), BuildingBlock: ZUJKAS_clean_linker_0, # of connection points: 2
#     Edge 72, Type (0, 0), BuildingBlock: ZUJKAS_clean_linker_0, # of connection points: 2
#     Edge 73, Type (0, 0), BuildingBlock: ZUJKAS_clean_linker_0, # of connection points: 2
#     Edge 74, Type (0, 0), BuildingBlock: ZUJKAS_clean_linker_0, # of connection points: 2
#     Edge 75, Type (0, 0), BuildingBlock: ZUJKAS_clean_linker_0, # of connection points: 2
#     Edge 76, Type (0, 0), BuildingBlock: ZUJKAS_clean_linker_0, # of connection points: 2
#     Edge 77, Type (0, 0), BuildingBlock: ZUJKAS_clean_linker_0, # of connection points: 2
#     Edge 78, Type (0, 0), BuildingBlock: ZUJKAS_clean_linker_0, # of connection points: 2
#     Edge 79, Type (0, 0), BuildingBlock: ZUJKAS_clean_linker_0, # of connection points: 2
#     Edge 80, Type (0, 0), BuildingBlock: ZUJKAS_clean_linker_0, # of connection points: 2
#     Edge 81, Type (0, 0), BuildingBlock: ZUJKAS_clean_linker_0, # of connection points: 2
#     Edge 82, Type (0, 0), BuildingBlock: ZUJKAS_clean_linker_0, # of connection points: 2
#     Edge 83, Type (0, 0), BuildingBlock: ZUJKAS_clean_linker_0, # of connection points: 2
#     Edge 84, Type (0, 0), BuildingBlock: ZUJKAS_clean_linker_0, # of connection points: 2
#     Edge 85, Type (0, 0), BuildingBlock: ZUJKAS_clean_linker_0, # of connection points: 2
#     Edge 86, Type (0, 0), BuildingBlock: ZUJKAS_clean_linker_0, # of connection points: 2
#     Edge 87, Type (0, 0), BuildingBlock: ZUJKAS_clean_linker_0, # of connection points: 2
#     Edge 88, Type (0, 0), BuildingBlock: ZUJKAS_clean_linker_0, # of connection points: 2
#     Edge 89, Type (0, 0), BuildingBlock: ZUJKAS_clean_linker_0, # of connection points: 2
#     Edge 90, Type (0, 0), BuildingBlock: ZUJKAS_clean_linker_0, # of connection points: 2
#     Edge 91, Type (0, 0), BuildingBlock: ZUJKAS_clean_linker_0, # of connection points: 2
#     Edge 92, Type (0, 0), BuildingBlock: ZUJKAS_clean_linker_0, # of connection points: 2
#     Edge 93, Type (0, 0), BuildingBlock: ZUJKAS_clean_linker_0, # of connection points: 2
#     Edge 94, Type (0, 0), BuildingBlock: ZUJKAS_clean_linker_0, # of connection points: 2
#     Edge 95, Type (0, 0), BuildingBlock: ZUJKAS_clean_linker_0, # of connection points: 2
# Relax obj value: 0.293
# Max RMSD: 0.107
# Mean RMSD: 0.107
data_MOF--net-dei--node1-GALJAG_clean_sbu_0--edge1-ZUJKAS_clean_linker_0
_symmetry_space_group_name_H-M    P1
_symmetry_Int_Tables_number       1
_symmetry_cell_setting            triclinic
loop_
_symmetry_equiv_pos_as_xyz
'x, y, z'
_cell_length_a     74.266593
_cell_length_b     74.296365
_cell_length_c     105.81579
_cell_angle_alpha  90.028208
_cell_angle_beta   90.018887
_cell_angle_gamma 89.977289
loop_
_atom_site_label
_atom_site_type_symbol
_atom_site_fract_x
_atom_site_fract_y
_atom_site_fract_z
_atom_type_partial_charge
In0 In 0.13169 0.6233 0.03041 0.0
O1 O 0.15009 0.60524 0.01792 0.0
O2 O 0.1308 0.59282 0.02976 0.0
C3 C 0.14748 0.65487 0.02355 0.0
C4 C 0.09695 0.62931 0.02411 0.0
C5 C 0.13361 0.61883 0.05568 0.0
O6 O 0.13807 0.64565 0.01603 0.0
O7 O 0.14991 0.64758 0.03417 0.0
O8 O 0.11894 0.61982 0.04972 0.0
O9 O 0.14755 0.6202 0.04889 0.0
C10 C 0.14313 0.59071 0.02177 0.0
O11 O 0.10472 0.63727 0.0331 0.0
O12 O 0.1068 0.61845 0.01806 0.0
In13 In 0.63359 0.88414 0.28282 0.0
O14 O 0.64388 0.87535 0.30202 0.0
O15 O 0.62713 0.89854 0.30149 0.0
C16 C 0.63664 0.84866 0.27776 0.0
C17 C 0.59936 0.89342 0.27617 0.0
C18 C 0.66322 0.90023 0.27269 0.0
O19 O 0.63046 0.85472 0.28801 0.0
O20 O 0.64127 0.86055 0.26987 0.0
O21 O 0.64983 0.89578 0.26603 0.0
O22 O 0.66117 0.89743 0.28431 0.0
C23 C 0.63621 0.88772 0.30815 0.0
O24 O 0.61092 0.90508 0.27928 0.0
O25 O 0.6053 0.87757 0.276 0.0
In26 In 0.37421 0.38717 0.53025 0.0
O27 O 0.4021 0.39834 0.5344 0.0
O28 O 0.39803 0.38579 0.51658 0.0
C29 C 0.36901 0.38787 0.55546 0.0
C30 C 0.35859 0.41661 0.51952 0.0
C31 C 0.36629 0.35209 0.52527 0.0
O32 O 0.38441 0.38819 0.55044 0.0
O33 O 0.35605 0.38689 0.54774 0.0
O34 O 0.35473 0.36442 0.52387 0.0
O35 O 0.38142 0.35755 0.52896 0.0
C36 C 0.40887 0.39352 0.524 0.0
O37 O 0.36472 0.40377 0.513 0.0
O38 O 0.35958 0.41414 0.53125 0.0
In39 In 0.87681 0.12256 0.78264 0.0
O40 O 0.88622 0.12823 0.80265 0.0
O41 O 0.86735 0.107 0.80013 0.0
C42 C 0.87819 0.15857 0.77928 0.0
C43 C 0.90857 0.10884 0.77398 0.0
C44 C 0.84398 0.11312 0.77324 0.0
O45 O 0.87764 0.15125 0.79002 0.0
O46 O 0.87819 0.14769 0.7701 0.0
O47 O 0.85796 0.10401 0.77084 0.0
O48 O 0.84674 0.12655 0.78019 0.0
C49 C 0.87666 0.11623 0.80775 0.0
O50 O 0.90013 0.10211 0.78316 0.0
O51 O 0.90045 0.12166 0.76868 0.0
In52 In 0.13713 0.38123 0.96469 0.0
O53 O 0.10915 0.39282 0.9615 0.0
O54 O 0.11171 0.37181 0.975 0.0
C55 C 0.14197 0.3872 0.93977 0.0
C56 C 0.15055 0.41022 0.97738 0.0
C57 C 0.14882 0.34686 0.96863 0.0
O58 O 0.12669 0.38477 0.94469 0.0
O59 O 0.15501 0.38663 0.94744 0.0
O60 O 0.15215 0.35937 0.97638 0.0
O61 O 0.14014 0.35185 0.95905 0.0
C62 C 0.1014 0.38267 0.96934 0.0
O63 O 0.13759 0.40093 0.9814 0.0
O64 O 0.15752 0.40428 0.96736 0.0
In65 In 0.87256 0.88348 0.2153 0.0
O66 O 0.89499 0.90379 0.22096 0.0
O67 O 0.90165 0.87619 0.21944 0.0
C68 C 0.84256 0.89901 0.22527 0.0
C69 C 0.87448 0.88809 0.19005 0.0
C70 C 0.86448 0.84893 0.22075 0.0
O71 O 0.85574 0.89434 0.23208 0.0
O72 O 0.845 0.89662 0.21363 0.0
O73 O 0.86052 0.85629 0.21038 0.0
O74 O 0.87228 0.85912 0.22858 0.0
C75 C 0.90714 0.8919 0.22158 0.0
O76 O 0.87663 0.87305 0.19535 0.0
O77 O 0.87172 0.90107 0.19753 0.0
In78 In 0.37223 0.62733 0.46603 0.0
O79 O 0.36805 0.6088 0.48316 0.0
O80 O 0.35222 0.60373 0.46698 0.0
C81 C 0.36385 0.66226 0.47103 0.0
C82 C 0.40783 0.62423 0.47074 0.0
C83 C 0.36707 0.62353 0.44092 0.0
O84 O 0.35341 0.64952 0.47404 0.0
O85 O 0.37815 0.65727 0.46569 0.0
O86 O 0.37906 0.61512 0.44696 0.0
O87 O 0.35733 0.63374 0.44759 0.0
C88 C 0.35669 0.5987 0.47789 0.0
O89 O 0.40085 0.62059 0.46019 0.0
O90 O 0.39681 0.62942 0.47907 0.0
In91 In 0.63025 0.12188 0.7185 0.0
O92 O 0.60875 0.09951 0.71781 0.0
O93 O 0.6065 0.11909 0.7322 0.0
C94 C 0.66344 0.11278 0.72728 0.0
C95 C 0.63148 0.11852 0.69307 0.0
C96 C 0.62721 0.15728 0.72388 0.0
O97 O 0.64977 0.1031 0.72944 0.0
O98 O 0.66022 0.12664 0.72083 0.0
O99 O 0.62407 0.15081 0.71309 0.0
O100 O 0.63182 0.14584 0.7321 0.0
C101 C 0.59956 0.10563 0.72686 0.0
O102 O 0.6206 0.12878 0.69869 0.0
O103 O 0.6416 0.10952 0.70028 0.0
In104 In 0.87295 0.38495 0.96627 0.0
O105 O 0.87881 0.39822 0.94732 0.0
O106 O 0.85515 0.38228 0.94869 0.0
C107 C 0.90889 0.38545 0.96996 0.0
C108 C 0.86497 0.34965 0.97015 0.0
C109 C 0.85882 0.41284 0.97982 0.0
O110 O 0.90142 0.39273 0.96055 0.0
O111 O 0.89821 0.37794 0.9776 0.0
O112 O 0.85031 0.40519 0.97103 0.0
O113 O 0.87379 0.40572 0.98225 0.0
C114 C 0.86512 0.39194 0.94181 0.0
O115 O 0.85805 0.36197 0.97683 0.0
O116 O 0.87544 0.35525 0.96167 0.0
In117 In 0.37695 0.11852 0.72234 0.0
O118 O 0.36511 0.13079 0.7044 0.0
O119 O 0.38266 0.10841 0.7023 0.0
C120 C 0.37882 0.15401 0.72767 0.0
C121 C 0.4091 0.10401 0.72962 0.0
C122 C 0.34697 0.10261 0.73222 0.0
O123 O 0.38876 0.14654 0.71954 0.0
O124 O 0.36787 0.14358 0.7331 0.0
O125 O 0.35881 0.11001 0.739 0.0
O126 O 0.35082 0.10222 0.72065 0.0
C127 C 0.37284 0.12002 0.69696 0.0
O128 O 0.39884 0.09641 0.72177 0.0
O129 O 0.40268 0.11821 0.73429 0.0
In130 In 0.63566 0.62359 0.46753 0.0
O131 O 0.63032 0.6088 0.44909 0.0
O132 O 0.64933 0.6302 0.44869 0.0
C133 C 0.59996 0.62068 0.47194 0.0
C134 C 0.64363 0.65883 0.47172 0.0
C135 C 0.65189 0.59609 0.48021 0.0
O136 O 0.60711 0.61683 0.46148 0.0
O137 O 0.61086 0.62586 0.48035 0.0
O138 O 0.63989 0.60586 0.48508 0.0
O139 O 0.65658 0.60094 0.4693 0.0
C140 C 0.64099 0.6182 0.44257 0.0
O141 O 0.65432 0.64638 0.47494 0.0
O142 O 0.62934 0.65339 0.46661 0.0
In143 In 0.13378 0.88301 0.21641 0.0
O144 O 0.13544 0.87145 0.19663 0.0
O145 O 0.13226 0.89982 0.19826 0.0
C146 C 0.13989 0.84911 0.22456 0.0
C147 C 0.0986 0.89111 0.22075 0.0
C148 C 0.16333 0.89941 0.22638 0.0
O149 O 0.14508 0.85482 0.21396 0.0
O150 O 0.13175 0.8606 0.23124 0.0
O151 O 0.14965 0.89572 0.23297 0.0
O152 O 0.16162 0.89574 0.21485 0.0
C153 C 0.13397 0.88636 0.19103 0.0
O154 O 0.11094 0.90263 0.22234 0.0
O155 O 0.10412 0.8759 0.21723 0.0
In156 In 0.86928 0.62482 0.02974 0.0
O157 O 0.85767 0.64642 0.01624 0.0
O158 O 0.85747 0.65183 0.03584 0.0
C159 C 0.85528 0.5957 0.01753 0.0
C160 C 0.86933 0.6189 0.05498 0.0
C161 C 0.90478 0.62597 0.02431 0.0
O162 O 0.86902 0.60403 0.01375 0.0
O163 O 0.84785 0.60268 0.02705 0.0
O164 O 0.89727 0.61237 0.02913 0.0
O165 O 0.89435 0.63904 0.02215 0.0
C166 C 0.85415 0.65756 0.0249 0.0
O167 O 0.88295 0.62433 0.049 0.0
O168 O 0.8555 0.61644 0.04824 0.0
In169 In 0.1322 0.12246 0.78247 0.0
O170 O 0.10881 0.10204 0.78293 0.0
O171 O 0.10803 0.12226 0.76894 0.0
C172 C 0.16498 0.1109 0.77429 0.0
C173 C 0.13155 0.11743 0.8077 0.0
C174 C 0.13262 0.15823 0.77783 0.0
O175 O 0.1505 0.10511 0.76951 0.0
O176 O 0.16278 0.12215 0.78304 0.0
O177 O 0.12967 0.15164 0.7886 0.0
O178 O 0.13539 0.14675 0.76925 0.0
C179 C 0.10007 0.1092 0.77405 0.0
O180 O 0.12423 0.13071 0.80233 0.0
O181 O 0.13894 0.10629 0.8003 0.0
In182 In 0.63476 0.38398 0.53384 0.0
O183 O 0.62395 0.38283 0.55393 0.0
O184 O 0.65225 0.38551 0.55168 0.0
C185 C 0.59949 0.3851 0.52788 0.0
C186 C 0.64691 0.35123 0.52574 0.0
C187 C 0.64723 0.4163 0.52552 0.0
O188 O 0.60532 0.3782 0.53799 0.0
O189 O 0.61151 0.39133 0.52065 0.0
O190 O 0.6511 0.40175 0.51995 0.0
O191 O 0.63756 0.41435 0.53518 0.0
C192 C 0.6391 0.38439 0.55921 0.0
O193 O 0.65597 0.3612 0.53297 0.0
O194 O 0.63233 0.35814 0.52212 0.0
In195 In 0.37292 0.88446 0.28411 0.0
O196 O 0.39565 0.90483 0.27932 0.0
O197 O 0.40176 0.87701 0.27922 0.0
C198 C 0.34219 0.89967 0.27497 0.0
C199 C 0.3746 0.88871 0.30941 0.0
C200 C 0.36641 0.85002 0.27745 0.0
O201 O 0.35595 0.89744 0.26814 0.0
O202 O 0.34431 0.895 0.28629 0.0
O203 O 0.36447 0.85583 0.28857 0.0
O204 O 0.37143 0.8617 0.26952 0.0
C205 C 0.40751 0.89281 0.27786 0.0
O206 O 0.37473 0.87354 0.30406 0.0
O207 O 0.37394 0.902 0.30196 0.0
In208 In 0.63464 0.12727 0.53272 0.0
O209 O 0.6054 0.12202 0.53767 0.0
O210 O 0.61195 0.12436 0.51818 0.0
C211 C 0.63897 0.13023 0.55797 0.0
C212 C 0.64811 0.0952 0.52469 0.0
C213 C 0.64566 0.16051 0.52506 0.0
O214 O 0.62473 0.1349 0.55234 0.0
O215 O 0.65131 0.12447 0.55081 0.0
O216 O 0.65652 0.14901 0.52944 0.0
O217 O 0.62973 0.15495 0.5241 0.0
C218 C 0.59988 0.12183 0.5264 0.0
O219 O 0.64959 0.10934 0.51813 0.0
O220 O 0.64045 0.09752 0.53516 0.0
In221 In 0.13371 0.38582 0.78044 0.0
O222 O 0.13837 0.37489 0.80019 0.0
O223 O 0.13946 0.4033 0.79786 0.0
C224 C 0.13501 0.3503 0.77517 0.0
C225 C 0.09903 0.39702 0.77724 0.0
C226 C 0.16204 0.39969 0.76732 0.0
O227 O 0.14556 0.35782 0.7829 0.0
O228 O 0.12385 0.36075 0.76995 0.0
O229 O 0.15307 0.38632 0.7636 0.0
O230 O 0.15605 0.40686 0.77726 0.0
C231 C 0.14062 0.39006 0.80531 0.0
O232 O 0.11123 0.40094 0.76939 0.0
O233 O 0.10449 0.38805 0.78655 0.0
In234 In 0.87221 0.88227 0.02941 0.0
O235 O 0.86688 0.90059 0.0123 0.0
O236 O 0.85284 0.90629 0.02923 0.0
C237 C 0.86209 0.8475 0.02537 0.0
C238 C 0.90695 0.88654 0.02256 0.0
C239 C 0.86984 0.8858 0.05475 0.0
O240 O 0.854 0.86048 0.02013 0.0
O241 O 0.87477 0.85219 0.03252 0.0
O242 O 0.8846 0.88559 0.04887 0.0
O243 O 0.85605 0.88415 0.04784 0.0
C244 C 0.85632 0.91105 0.01807 0.0
O245 O 0.8994 0.89612 0.03085 0.0
O246 O 0.89685 0.87494 0.01747 0.0
In247 In 0.37599 0.62412 0.27992 0.0
O248 O 0.39887 0.60302 0.27854 0.0
O249 O 0.40253 0.62798 0.26934 0.0
C250 C 0.34657 0.60702 0.27024 0.0
C251 C 0.37334 0.62304 0.30539 0.0
C252 C 0.37389 0.65969 0.2749 0.0
O253 O 0.35893 0.6132 0.26331 0.0
O254 O 0.34964 0.60851 0.28188 0.0
O255 O 0.38364 0.65332 0.28359 0.0
O256 O 0.3652 0.64809 0.26867 0.0
C257 C 0.40927 0.61301 0.27225 0.0
O258 O 0.36515 0.63445 0.29869 0.0
O259 O 0.38298 0.61209 0.29925 0.0
In260 In 0.63549 0.88514 0.46877 0.0
O261 O 0.60627 0.88961 0.46335 0.0
O262 O 0.61198 0.88608 0.48285 0.0
C263 C 0.64027 0.88882 0.44366 0.0
C264 C 0.65161 0.91404 0.47994 0.0
C265 C 0.64361 0.85 0.47325 0.0
O266 O 0.62786 0.89665 0.44968 0.0
O267 O 0.6506 0.87921 0.45036 0.0
O268 O 0.65492 0.86241 0.47524 0.0
O269 O 0.62861 0.85544 0.46926 0.0
C270 C 0.6002 0.88868 0.47445 0.0
O271 O 0.64373 0.90194 0.48619 0.0
O272 O 0.65234 0.91094 0.46827 0.0
In273 In 0.37469 0.37919 0.71487 0.0
O274 O 0.3964 0.391 0.72831 0.0
O275 O 0.403 0.38739 0.70903 0.0
C276 C 0.34231 0.39021 0.72401 0.0
C277 C 0.37003 0.38514 0.68998 0.0
C278 C 0.3771 0.34423 0.72173 0.0
O279 O 0.35631 0.39976 0.72519 0.0
O280 O 0.34488 0.37543 0.7185 0.0
O281 O 0.37426 0.34935 0.71057 0.0
O282 O 0.37896 0.35682 0.72964 0.0
C283 C 0.4083 0.39213 0.71982 0.0
O284 O 0.37502 0.37024 0.69449 0.0
O285 O 0.36751 0.39744 0.69807 0.0
In286 In 0.87487 0.12269 0.96835 0.0
O287 O 0.90234 0.10939 0.96647 0.0
O288 O 0.89891 0.12838 0.98129 0.0
C289 C 0.87182 0.11886 0.9431 0.0
C290 C 0.85779 0.09458 0.97974 0.0
C291 C 0.86665 0.15809 0.97171 0.0
O292 O 0.88643 0.11661 0.94898 0.0
O293 O 0.85855 0.12309 0.94998 0.0
O294 O 0.85756 0.14576 0.97692 0.0
O295 O 0.87941 0.15247 0.96497 0.0
C296 C 0.90936 0.11765 0.97565 0.0
O297 O 0.86804 0.10516 0.98564 0.0
O298 O 0.85519 0.0989 0.96838 0.0
In299 In 0.13494 0.62456 0.21645 0.0
O300 O 0.1128 0.60372 0.22156 0.0
O301 O 0.10606 0.63138 0.22172 0.0
C302 C 0.16605 0.60987 0.22538 0.0
C303 C 0.13537 0.61968 0.19117 0.0
C304 C 0.13804 0.65954 0.22293 0.0
O305 O 0.15208 0.61111 0.23213 0.0
O306 O 0.16402 0.61538 0.21424 0.0
O307 O 0.13414 0.65431 0.21193 0.0
O308 O 0.14046 0.64705 0.23086 0.0
C309 C 0.1007 0.61547 0.22316 0.0
O310 O 0.14042 0.63401 0.19648 0.0
O311 O 0.13004 0.60753 0.19864 0.0
In312 In 0.37407 0.88466 0.47011 0.0
O313 O 0.38196 0.87662 0.45016 0.0
O314 O 0.36042 0.89524 0.45211 0.0
C315 C 0.40955 0.883 0.47525 0.0
C316 C 0.35932 0.85272 0.4775 0.0
C317 C 0.36446 0.91711 0.47997 0.0
O318 O 0.40331 0.88285 0.46416 0.0
O319 O 0.39782 0.8837 0.48389 0.0
O320 O 0.35428 0.90353 0.48087 0.0
O321 O 0.37897 0.91416 0.47423 0.0
C322 C 0.37048 0.88644 0.44472 0.0
O323 O 0.35254 0.86237 0.46894 0.0
O324 O 0.37276 0.8597 0.48284 0.0
In325 In 0.87556 0.62259 0.21528 0.0
O326 O 0.87946 0.63273 0.19523 0.0
O327 O 0.87562 0.60459 0.19768 0.0
C328 C 0.86727 0.65722 0.22038 0.0
C329 C 0.90993 0.61435 0.22221 0.0
C330 C 0.84545 0.60726 0.22525 0.0
O331 O 0.86379 0.64977 0.20995 0.0
O332 O 0.87476 0.64711 0.2284 0.0
O333 O 0.85849 0.61224 0.23206 0.0
O334 O 0.84804 0.60922 0.21359 0.0
C335 C 0.87795 0.61749 0.19008 0.0
O336 O 0.89791 0.60241 0.22121 0.0
O337 O 0.90447 0.63006 0.22002 0.0
In338 In 0.13408 0.12129 0.9687 0.0
O339 O 0.15359 0.14354 0.97588 0.0
O340 O 0.12834 0.15127 0.96834 0.0
C341 C 0.15052 0.09206 0.97915 0.0
C342 C 0.13641 0.11988 0.94327 0.0
C343 C 0.0998 0.11573 0.97621 0.0
O344 O 0.14235 0.10367 0.98569 0.0
O345 O 0.15133 0.0958 0.96757 0.0
O346 O 0.10635 0.10878 0.96635 0.0
O347 O 0.11066 0.1253 0.98248 0.0
C348 C 0.143 0.15629 0.97313 0.0
O349 O 0.12176 0.11832 0.94919 0.0
O350 O 0.15009 0.12229 0.95018 0.0
In351 In 0.63374 0.38409 0.71918 0.0
O352 O 0.64711 0.37555 0.70082 0.0
O353 O 0.63284 0.40037 0.70081 0.0
C354 C 0.63188 0.34841 0.72388 0.0
C355 C 0.59893 0.39447 0.72254 0.0
C356 C 0.66228 0.39846 0.7319 0.0
O357 O 0.63912 0.35487 0.71411 0.0
O358 O 0.62547 0.35997 0.73138 0.0
O359 O 0.65561 0.38333 0.73439 0.0
O360 O 0.65395 0.40699 0.72342 0.0
C361 C 0.64189 0.38903 0.69456 0.0
O362 O 0.61105 0.39825 0.7305 0.0
O363 O 0.60448 0.38589 0.71305 0.0
In364 In 0.37715 0.1275 0.53647 0.0
O365 O 0.38725 0.1318 0.55648 0.0
O366 O 0.35922 0.12728 0.55418 0.0
C367 C 0.4112 0.12143 0.52874 0.0
C368 C 0.3684 0.16159 0.52938 0.0
C369 C 0.36306 0.09592 0.52807 0.0
O370 O 0.40625 0.1201 0.5401 0.0
O371 O 0.39888 0.12586 0.5211 0.0
O372 O 0.36065 0.11053 0.52218 0.0
O373 O 0.37187 0.09753 0.53816 0.0
C374 C 0.37212 0.13008 0.56172 0.0
O375 O 0.35661 0.14941 0.53045 0.0
O376 O 0.38422 0.15639 0.53158 0.0
In377 In 0.635 0.62214 0.28187 0.0
O378 O 0.61135 0.60191 0.28096 0.0
O379 O 0.60894 0.62611 0.27065 0.0
C380 C 0.66609 0.60747 0.27283 0.0
C381 C 0.63599 0.61827 0.30723 0.0
C382 C 0.63673 0.65771 0.27694 0.0
O383 O 0.65175 0.60758 0.26642 0.0
O384 O 0.66445 0.61406 0.2837 0.0
O385 O 0.62903 0.65133 0.28658 0.0
O386 O 0.64345 0.64609 0.2696 0.0
C387 C 0.60154 0.61169 0.27407 0.0
O388 O 0.6397 0.63282 0.30169 0.0
O389 O 0.6316 0.60549 0.29997 0.0
In390 In 0.13379 0.88096 0.03018 0.0
O391 O 0.1505 0.85838 0.02054 0.0
O392 O 0.13126 0.85112 0.03441 0.0
C393 C 0.15048 0.90884 0.01826 0.0
C394 C 0.13633 0.88574 0.05541 0.0
C395 C 0.09887 0.88465 0.02351 0.0
O396 O 0.13903 0.89893 0.01291 0.0
O397 O 0.1545 0.90391 0.02929 0.0
O398 O 0.10649 0.89461 0.03154 0.0
O399 O 0.10893 0.87285 0.01863 0.0
C400 C 0.14297 0.84584 0.02665 0.0
O401 O 0.12212 0.88866 0.04923 0.0
O402 O 0.14952 0.88039 0.04886 0.0
In403 In 0.87302 0.38698 0.78289 0.0
O404 O 0.89542 0.40199 0.77174 0.0
O405 O 0.90274 0.38636 0.78766 0.0
C406 C 0.84464 0.40043 0.76958 0.0
C407 C 0.86427 0.39443 0.8071 0.0
C408 C 0.87449 0.35099 0.77955 0.0
O409 O 0.85292 0.4096 0.77776 0.0
O410 O 0.85132 0.38511 0.76765 0.0
O411 O 0.87031 0.35822 0.78993 0.0
O412 O 0.87793 0.36193 0.77075 0.0
C413 C 0.90797 0.39626 0.77875 0.0
O414 O 0.85721 0.38173 0.80093 0.0
O415 O 0.87548 0.40375 0.80096 0.0
H416 H 0.1471 0.64405 0.1739 0.0
H417 H 0.14673 0.64145 0.15092 0.0
H418 H 0.12376 0.58832 0.1539 0.0
H419 H 0.12426 0.59074 0.17706 0.0
H420 H 0.15234 0.59141 0.13586 0.0
H421 H 0.10043 0.64436 0.12959 0.0
H422 H 0.11933 0.65142 0.13894 0.0
H423 H 0.10484 0.63383 0.14465 0.0
C424 C 0.14198 0.63178 0.16969 0.0
C425 C 0.13557 0.61764 0.17728 0.0
C426 C 0.14173 0.63035 0.15655 0.0
C427 C 0.13495 0.61482 0.15072 0.0
C428 C 0.12895 0.60046 0.15824 0.0
H429 H 0.10538 0.61245 0.0714 0.0
H430 H 0.10587 0.60959 0.09438 0.0
C431 C 0.12921 0.60188 0.17144 0.0
C432 C 0.13399 0.61382 0.13676 0.0
H433 H 0.11602 0.63497 0.11109 0.0
C434 C 0.14431 0.60083 0.13041 0.0
C435 C 0.12332 0.62597 0.12972 0.0
C436 C 0.11121 0.63958 0.13606 0.0
C437 C 0.14462 0.60001 0.11714 0.0
C438 C 0.13455 0.6127 0.1101 0.0
C439 C 0.12388 0.62536 0.11649 0.0
C440 C 0.13469 0.61313 0.09608 0.0
C441 C 0.15555 0.58547 0.1108 0.0
C442 C 0.15075 0.61605 0.08938 0.0
C443 C 0.15053 0.6176 0.0762 0.0
C444 C 0.1342 0.61647 0.06954 0.0
C445 C 0.11818 0.61342 0.07627 0.0
C446 C 0.11843 0.61177 0.0894 0.0
H447 H 0.15821 0.57403 0.1173 0.0
H448 H 0.1486 0.58028 0.10225 0.0
H449 H 0.16873 0.59112 0.10786 0.0
H450 H 0.1634 0.61756 0.09436 0.0
H451 H 0.16306 0.62004 0.07126 0.0
H452 H 0.66273 0.86999 0.42798 0.0
H453 H 0.66375 0.87123 0.40481 0.0
H454 H 0.62241 0.912 0.40494 0.0
H455 H 0.6213 0.91086 0.42801 0.0
H456 H 0.63309 0.86447 0.3887 0.0
H457 H 0.66192 0.93265 0.38127 0.0
H458 H 0.66408 0.92064 0.39603 0.0
H459 H 0.64327 0.93158 0.39206 0.0
C460 C 0.65403 0.87937 0.42306 0.0
C461 C 0.64195 0.89033 0.42979 0.0
C462 C 0.65461 0.88005 0.40986 0.0
C463 C 0.6433 0.89186 0.4032 0.0
C464 C 0.63146 0.90302 0.40991 0.0
H465 H 0.61896 0.91129 0.32398 0.0
H466 H 0.62076 0.91235 0.34714 0.0
C467 C 0.63079 0.90228 0.42309 0.0
C468 C 0.64296 0.89169 0.38922 0.0
H469 H 0.65023 0.91779 0.36317 0.0
C470 C 0.63696 0.87607 0.38309 0.0
C471 C 0.64784 0.90692 0.38199 0.0
C472 C 0.65478 0.92388 0.38813 0.0
C473 C 0.63541 0.87534 0.36989 0.0
C474 C 0.6404 0.89053 0.36263 0.0
C475 C 0.64641 0.90618 0.36876 0.0
C476 C 0.63971 0.89031 0.34863 0.0
C477 C 0.62799 0.85848 0.36387 0.0
C478 C 0.65003 0.87783 0.34182 0.0
C479 C 0.64895 0.87714 0.32866 0.0
C480 C 0.63767 0.88906 0.32204 0.0
C481 C 0.62771 0.9019 0.32884 0.0
C482 C 0.62874 0.90253 0.34205 0.0
H483 H 0.62019 0.85029 0.37074 0.0
H484 H 0.61915 0.86176 0.35573 0.0
H485 H 0.63932 0.8501 0.36038 0.0
H486 H 0.65889 0.86856 0.34669 0.0
H487 H 0.65692 0.86719 0.32368 0.0
H488 H 0.35723 0.41496 0.67753 0.0
H489 H 0.35251 0.41832 0.65465 0.0
H490 H 0.37251 0.36445 0.64875 0.0
H491 H 0.37689 0.3609 0.67141 0.0
H492 H 0.37686 0.41657 0.63536 0.0
H493 H 0.32581 0.36328 0.62909 0.0
H494 H 0.33183 0.37203 0.64444 0.0
H495 H 0.34535 0.35483 0.63707 0.0
C496 C 0.36051 0.40384 0.67133 0.0
C497 C 0.36732 0.38764 0.67626 0.0
C498 C 0.35779 0.40575 0.65829 0.0
C499 C 0.36177 0.39147 0.65003 0.0
C500 C 0.36884 0.37544 0.65496 0.0
H501 H 0.39505 0.38745 0.57352 0.0
H502 H 0.3913 0.39027 0.59634 0.0
C503 C 0.37148 0.3735 0.66793 0.0
C504 C 0.35946 0.3934 0.63618 0.0
H505 H 0.34238 0.37177 0.61036 0.0
C506 C 0.36907 0.40697 0.6299 0.0
C507 C 0.349 0.38112 0.62906 0.0
C508 C 0.33726 0.36713 0.63529 0.0
C509 C 0.3694 0.40787 0.61665 0.0
C510 C 0.36023 0.3946 0.60953 0.0
C511 C 0.34968 0.38175 0.61582 0.0
C512 C 0.3623 0.3931 0.59563 0.0
C513 C 0.37976 0.42292 0.61044 0.0
C514 C 0.34718 0.39304 0.58765 0.0
C515 C 0.34927 0.39114 0.57457 0.0
C516 C 0.36652 0.38923 0.56928 0.0
C517 C 0.38159 0.38904 0.57731 0.0
C518 C 0.37949 0.39083 0.59035 0.0
H519 H 0.38055 0.43492 0.61669 0.0
H520 H 0.39373 0.41835 0.60855 0.0
H521 H 0.37351 0.42696 0.60134 0.0
H522 H 0.33377 0.39457 0.59154 0.0
H523 H 0.33742 0.39132 0.5686 0.0
H524 H 0.89884 0.11034 0.9268 0.0
H525 H 0.89728 0.10801 0.9038 0.0
H526 H 0.84051 0.12017 0.90497 0.0
H527 H 0.84202 0.12279 0.92807 0.0
H528 H 0.8765 0.08561 0.88827 0.0
H529 H 0.86083 0.15799 0.88056 0.0
H530 H 0.86874 0.14947 0.89553 0.0
H531 H 0.8457 0.14621 0.8909 0.0
C532 C 0.88601 0.11251 0.92218 0.0
C533 C 0.87057 0.11689 0.92923 0.0
C534 C 0.88513 0.11111 0.90904 0.0
C535 C 0.86884 0.11412 0.90268 0.0
C536 C 0.85329 0.11809 0.90969 0.0
H537 H 0.85492 0.0936 0.82136 0.0
H538 H 0.85207 0.09195 0.84444 0.0
C539 C 0.85415 0.11952 0.92287 0.0
C540 C 0.8684 0.11343 0.88868 0.0
H541 H 0.86239 0.13954 0.86249 0.0
C542 C 0.8733 0.09735 0.88261 0.0
C543 C 0.8644 0.12884 0.88136 0.0
C544 C 0.85976 0.14667 0.88738 0.0
C545 C 0.87452 0.09632 0.86938 0.0
C546 C 0.87052 0.11173 0.86206 0.0
C547 C 0.86537 0.12773 0.86814 0.0
C548 C 0.87259 0.11195 0.84813 0.0
C549 C 0.8807 0.07897 0.86336 0.0
C550 C 0.88496 0.12381 0.84258 0.0
C551 C 0.88655 0.12484 0.82947 0.0
C552 C 0.87574 0.11406 0.82162 0.0
C553 C 0.8635 0.10198 0.82718 0.0
C554 C 0.8619 0.10099 0.84035 0.0
H555 H 0.88685 0.06968 0.87037 0.0
H556 H 0.86896 0.07207 0.85905 0.0
H557 H 0.89066 0.08165 0.85576 0.0
H558 H 0.89332 0.13239 0.84843 0.0
H559 H 0.89608 0.13429 0.82547 0.0
H560 H 0.17284 0.39576 0.92691 0.0
H561 H 0.17616 0.40047 0.90407 0.0
H562 H 0.11959 0.38944 0.89892 0.0
H563 H 0.11612 0.38524 0.92163 0.0
H564 H 0.17087 0.37757 0.88498 0.0
H565 H 0.12464 0.4351 0.87899 0.0
H566 H 0.13232 0.42776 0.89433 0.0
H567 H 0.11352 0.41681 0.88678 0.0
C568 C 0.16111 0.39451 0.9209 0.0
C569 C 0.14421 0.39024 0.92606 0.0
C570 C 0.16301 0.39722 0.90787 0.0
C571 C 0.14804 0.39571 0.89981 0.0
C572 C 0.13122 0.39124 0.90497 0.0
H573 H 0.13956 0.3637 0.8231 0.0
H574 H 0.14375 0.36673 0.84585 0.0
C575 C 0.12929 0.38868 0.91796 0.0
C576 C 0.15003 0.39771 0.88592 0.0
H577 H 0.1307 0.41758 0.86019 0.0
C578 C 0.16229 0.38654 0.87957 0.0
C579 C 0.13916 0.4097 0.87885 0.0
C580 C 0.12683 0.42316 0.88511 0.0
C581 C 0.1632 0.38624 0.86632 0.0
C582 C 0.15117 0.39706 0.85924 0.0
C583 C 0.1397 0.40904 0.8656 0.0
C584 C 0.14941 0.39531 0.84531 0.0
C585 C 0.17695 0.37422 0.86007 0.0
C586 C 0.15061 0.41048 0.83743 0.0
C587 C 0.1479 0.40883 0.82438 0.0
C588 C 0.14392 0.39198 0.81902 0.0
C589 C 0.14277 0.37684 0.82693 0.0
C590 C 0.14533 0.37852 0.83994 0.0
H591 H 0.18885 0.37216 0.86627 0.0
H592 H 0.17085 0.36083 0.85828 0.0
H593 H 0.18159 0.3799 0.85093 0.0
H594 H 0.15358 0.4236 0.84138 0.0
H595 H 0.14884 0.42073 0.81851 0.0
H596 H 0.83991 0.89024 0.06956 0.0
H597 H 0.83892 0.89388 0.0926 0.0
H598 H 0.89677 0.8891 0.0942 0.0
H599 H 0.89788 0.88596 0.07127 0.0
H600 H 0.84922 0.87108 0.1108 0.0
H601 H 0.88899 0.93364 0.11514 0.0
H602 H 0.88037 0.92573 0.10018 0.0
H603 H 0.90101 0.9167 0.1065 0.0
C604 C 0.85241 0.8901 0.07484 0.0
C605 C 0.86898 0.88791 0.06862 0.0
C606 C 0.85183 0.8922 0.08798 0.0
C607 C 0.86781 0.89216 0.0951 0.0
C608 C 0.88432 0.88974 0.08889 0.0
H609 H 0.88327 0.86272 0.17258 0.0
H610 H 0.88071 0.86488 0.14963 0.0
C611 C 0.88492 0.88778 0.07578 0.0
C612 C 0.86726 0.89364 0.10908 0.0
H613 H 0.88601 0.91592 0.13407 0.0
C614 C 0.85708 0.88103 0.11588 0.0
C615 C 0.87725 0.90684 0.11573 0.0
C616 C 0.88736 0.92161 0.109 0.0
C617 C 0.85727 0.88074 0.12914 0.0
C618 C 0.8683 0.89309 0.13576 0.0
C619 C 0.87781 0.90625 0.12898 0.0
C620 C 0.87056 0.8922 0.14967 0.0
C621 C 0.84563 0.86717 0.13591 0.0
C622 C 0.86652 0.90714 0.1573 0.0
C623 C 0.86825 0.90603 0.17045 0.0
C624 C 0.87405 0.88996 0.17616 0.0
C625 C 0.87861 0.87523 0.16846 0.0
C626 C 0.87701 0.87639 0.15535 0.0
H627 H 0.83404 0.86293 0.12997 0.0
H628 H 0.85375 0.85501 0.13804 0.0
H629 H 0.84038 0.87269 0.14494 0.0
H630 H 0.8617 0.91953 0.1531 0.0
H631 H 0.86465 0.91759 0.17616 0.0
H632 H 0.34469 0.64262 0.42533 0.0
H633 H 0.34362 0.64159 0.40216 0.0
H634 H 0.38481 0.60066 0.40207 0.0
H635 H 0.38589 0.60152 0.42514 0.0
H636 H 0.37318 0.6487 0.38596 0.0
H637 H 0.34614 0.57993 0.37832 0.0
H638 H 0.3443 0.59152 0.39327 0.0
H639 H 0.36511 0.58093 0.38883 0.0
C640 C 0.35334 0.63324 0.42036 0.0
C641 C 0.36535 0.62213 0.42704 0.0
C642 C 0.35273 0.63269 0.40715 0.0
C643 C 0.36397 0.62089 0.40042 0.0
C644 C 0.37577 0.60961 0.40708 0.0
H645 H 0.39096 0.60106 0.32204 0.0
H646 H 0.38833 0.60086 0.34513 0.0
C647 C 0.37643 0.61019 0.42027 0.0
C648 C 0.36427 0.62115 0.38643 0.0
H649 H 0.35834 0.59478 0.36032 0.0
C650 C 0.36977 0.63698 0.38033 0.0
C651 C 0.35995 0.60578 0.37915 0.0
C652 C 0.35339 0.58861 0.3852 0.0
C653 C 0.37152 0.63773 0.36714 0.0
C654 C 0.36727 0.62234 0.35984 0.0
C655 C 0.36162 0.60654 0.36594 0.0
C656 C 0.36867 0.62235 0.34587 0.0
C657 C 0.37843 0.65484 0.36117 0.0
C658 C 0.3583 0.63431 0.33863 0.0
C659 C 0.35985 0.63451 0.32548 0.0
C660 C 0.37167 0.62262 0.3193 0.0
C661 C 0.38179 0.61041 0.32654 0.0
C662 C 0.38028 0.61027 0.33972 0.0
H663 H 0.38556 0.66347 0.36813 0.0
H664 H 0.38775 0.65184 0.35324 0.0
H665 H 0.36689 0.66264 0.35737 0.0
H666 H 0.34896 0.64346 0.34316 0.0
H667 H 0.35176 0.64397 0.32014 0.0
H668 H 0.60932 0.13472 0.67605 0.0
H669 H 0.61262 0.13582 0.6531 0.0
H670 H 0.6605 0.10313 0.65564 0.0
H671 H 0.65703 0.10164 0.67865 0.0
H672 H 0.64085 0.15004 0.63987 0.0
H673 H 0.63235 0.07768 0.62798 0.0
H674 H 0.62641 0.08677 0.64324 0.0
H675 H 0.64957 0.08225 0.63946 0.0
C676 C 0.62043 0.12757 0.67172 0.0
C677 C 0.63288 0.11804 0.67914 0.0
C678 C 0.62232 0.12825 0.6586 0.0
C679 C 0.6367 0.11942 0.65264 0.0
C680 C 0.64909 0.10974 0.66001 0.0
H681 H 0.66618 0.11644 0.57247 0.0
H682 H 0.66726 0.11447 0.59561 0.0
C683 C 0.64714 0.10895 0.67316 0.0
C684 C 0.63905 0.12114 0.63877 0.0
H685 H 0.64035 0.09717 0.61122 0.0
C686 C 0.64076 0.13847 0.63361 0.0
C687 C 0.63903 0.10602 0.63062 0.0
C688 C 0.63659 0.08713 0.63556 0.0
C689 C 0.64228 0.14112 0.62053 0.0
C690 C 0.64192 0.12605 0.61238 0.0
C691 C 0.64066 0.10869 0.61752 0.0
C692 C 0.64183 0.12809 0.59847 0.0
C693 C 0.64428 0.16002 0.61551 0.0
C694 C 0.62719 0.13641 0.59246 0.0
C695 C 0.62652 0.13751 0.57929 0.0
C696 C 0.64048 0.13029 0.57189 0.0
C697 C 0.65528 0.12221 0.57793 0.0
C698 C 0.65589 0.12102 0.59113 0.0
H699 H 0.64896 0.16948 0.62295 0.0
H700 H 0.65391 0.16042 0.6075 0.0
H701 H 0.63102 0.16482 0.61204 0.0
H702 H 0.61608 0.14169 0.59795 0.0
H703 H 0.61489 0.14373 0.57491 0.0
H704 H 0.88189 0.41692 0.82339 0.0
H705 H 0.87857 0.41836 0.8464 0.0
H706 H 0.83544 0.37959 0.84456 0.0
H707 H 0.83896 0.37776 0.82161 0.0
H708 H 0.85012 0.4266 0.86257 0.0
H709 H 0.87139 0.35534 0.86805 0.0
H710 H 0.87377 0.36741 0.85337 0.0
H711 H 0.85225 0.35841 0.85793 0.0
C712 C 0.87158 0.40885 0.82788 0.0
C713 C 0.86082 0.39707 0.82073 0.0
C714 C 0.86969 0.40968 0.84102 0.0
C715 C 0.85702 0.39879 0.84721 0.0
C716 C 0.8456 0.38778 0.84 0.0
H717 H 0.83883 0.37678 0.92718 0.0
H718 H 0.83496 0.37972 0.90427 0.0
C719 C 0.84756 0.38683 0.82689 0.0
C720 C 0.85633 0.39835 0.86121 0.0
H721 H 0.86212 0.37049 0.88655 0.0
C722 C 0.85272 0.41434 0.86782 0.0
C723 C 0.85979 0.38233 0.86804 0.0
C724 C 0.86468 0.36493 0.86152 0.0
C725 C 0.85236 0.4147 0.8811 0.0
C726 C 0.8559 0.39871 0.8879 0.0
C727 C 0.85929 0.3827 0.88129 0.0
C728 C 0.85708 0.39836 0.90187 0.0
C729 C 0.84812 0.43215 0.88775 0.0
C730 C 0.87076 0.4079 0.90809 0.0
C731 C 0.87305 0.40618 0.92114 0.0
C732 C 0.86171 0.39486 0.9282 0.0
C733 C 0.84774 0.38564 0.922 0.0
C734 C 0.84551 0.3873 0.90892 0.0
H735 H 0.84119 0.44183 0.88139 0.0
H736 H 0.83951 0.42977 0.89617 0.0
H737 H 0.86085 0.43844 0.891 0.0
H738 H 0.88004 0.41623 0.90279 0.0
H739 H 0.88396 0.41341 0.92565 0.0
H740 H 0.35214 0.14364 0.68359 0.0
H741 H 0.34895 0.14576 0.66061 0.0
H742 H 0.38574 0.10131 0.65602 0.0
H743 H 0.38879 0.09893 0.67899 0.0
H744 H 0.37516 0.15265 0.64309 0.0
H745 H 0.34363 0.08642 0.63363 0.0
H746 H 0.34501 0.09597 0.6493 0.0
H747 H 0.36418 0.08476 0.6425 0.0
C748 C 0.35945 0.13422 0.67768 0.0
C749 C 0.37067 0.12107 0.68309 0.0
C750 C 0.35761 0.13546 0.66456 0.0
C751 C 0.36688 0.12352 0.65661 0.0
C752 C 0.37813 0.11039 0.66198 0.0
H753 H 0.39838 0.13546 0.57922 0.0
H754 H 0.39556 0.13485 0.60219 0.0
C755 C 0.37996 0.10913 0.67511 0.0
C756 C 0.36547 0.12534 0.64268 0.0
H757 H 0.35539 0.10215 0.61572 0.0
C758 C 0.37068 0.14167 0.63711 0.0
C759 C 0.35933 0.1111 0.6349 0.0
C760 C 0.35254 0.09364 0.64038 0.0
C761 C 0.37056 0.14392 0.62394 0.0
C762 C 0.36538 0.12934 0.61614 0.0
C763 C 0.35952 0.11325 0.62172 0.0
C764 C 0.36679 0.13025 0.60217 0.0
C765 C 0.376 0.16189 0.61851 0.0
C766 C 0.35159 0.1275 0.5945 0.0
C767 C 0.35318 0.12773 0.58131 0.0
C768 C 0.37003 0.13059 0.57561 0.0
C769 C 0.38519 0.13335 0.58333 0.0
C770 C 0.38359 0.13311 0.59647 0.0
H771 H 0.3742 0.17291 0.6255 0.0
H772 H 0.39045 0.16144 0.61588 0.0
H773 H 0.36806 0.16514 0.60992 0.0
H774 H 0.33852 0.12514 0.59873 0.0
H775 H 0.34129 0.12548 0.5756 0.0
H776 H 0.6266 0.59159 0.42801 0.0
H777 H 0.62748 0.58896 0.40497 0.0
H778 H 0.6592 0.63749 0.40284 0.0
H779 H 0.65878 0.63993 0.4259 0.0
H780 H 0.61384 0.61225 0.38809 0.0
H781 H 0.68703 0.60474 0.37958 0.0
H782 H 0.67718 0.60232 0.39508 0.0
H783 H 0.68177 0.62434 0.38877 0.0
C784 C 0.634 0.60155 0.42264 0.0
C785 C 0.64268 0.61593 0.42875 0.0
C786 C 0.63446 0.60004 0.40948 0.0
C787 C 0.64361 0.61288 0.40218 0.0
C788 C 0.65245 0.62717 0.40828 0.0
H789 H 0.64811 0.64317 0.32406 0.0
H790 H 0.64987 0.64049 0.34705 0.0
C791 C 0.65211 0.62861 0.42146 0.0
C792 C 0.64285 0.61199 0.38817 0.0
H793 H 0.6689 0.61203 0.36157 0.0
C794 C 0.62588 0.61197 0.3823 0.0
C795 C 0.65858 0.61161 0.38062 0.0
C796 C 0.67716 0.61057 0.38633 0.0
C797 C 0.62422 0.61217 0.36909 0.0
C798 C 0.63993 0.61227 0.36157 0.0
C799 C 0.65689 0.61199 0.3674 0.0
C800 C 0.63901 0.61351 0.34763 0.0
C801 C 0.6057 0.61284 0.36324 0.0
C802 C 0.63243 0.59913 0.34037 0.0
C803 C 0.63145 0.60059 0.32719 0.0
C804 C 0.637 0.61647 0.32113 0.0
C805 C 0.64367 0.63078 0.32846 0.0
C806 C 0.64474 0.62927 0.34159 0.0
H807 H 0.59504 0.61551 0.37036 0.0
H808 H 0.60509 0.62344 0.35585 0.0
H809 H 0.60276 0.59975 0.35863 0.0
H810 H 0.62809 0.5868 0.34489 0.0
H811 H 0.6263 0.58934 0.32178 0.0
H812 H 0.13065 0.91667 0.17644 0.0
H813 H 0.13117 0.91844 0.15326 0.0
H814 H 0.13926 0.86104 0.15114 0.0
H815 H 0.13853 0.85912 0.17416 0.0
H816 H 0.15831 0.9079 0.13601 0.0
H817 H 0.0952 0.86943 0.12857 0.0
H818 H 0.10147 0.87859 0.14375 0.0
H819 H 0.11135 0.85791 0.13826 0.0
C820 C 0.13249 0.90444 0.17101 0.0
C821 C 0.13441 0.88774 0.1771 0.0
C822 C 0.13282 0.90548 0.1578 0.0
C823 C 0.13498 0.88983 0.1505 0.0
C824 C 0.13722 0.87322 0.15659 0.0
H825 H 0.16397 0.87709 0.07147 0.0
H826 H 0.1641 0.87938 0.0946 0.0
C827 C 0.13687 0.87217 0.16975 0.0
C828 C 0.13495 0.89075 0.13651 0.0
H829 H 0.11341 0.87447 0.11042 0.0
C830 C 0.14844 0.9007 0.13039 0.0
C831 C 0.12193 0.88152 0.12923 0.0
C832 C 0.10656 0.8714 0.13527 0.0
C833 C 0.14949 0.90131 0.11714 0.0
C834 C 0.13689 0.89147 0.10986 0.0
C835 C 0.12318 0.88186 0.11601 0.0
C836 C 0.13743 0.89104 0.09585 0.0
C837 C 0.16394 0.91263 0.11105 0.0
C838 C 0.12234 0.89659 0.08891 0.0
C839 C 0.12216 0.89511 0.07576 0.0
C840 C 0.13709 0.88802 0.06928 0.0
C841 C 0.15232 0.8827 0.07621 0.0
C842 C 0.15245 0.8841 0.08941 0.0
H843 H 0.16921 0.923 0.11766 0.0
H844 H 0.17534 0.90383 0.10825 0.0
H845 H 0.15878 0.91944 0.10244 0.0
H846 H 0.11058 0.90192 0.09368 0.0
H847 H 0.11022 0.89936 0.07068 0.0
H848 H 0.89747 0.62421 0.07103 0.0
H849 H 0.89789 0.62045 0.09395 0.0
H850 H 0.84248 0.60313 0.09315 0.0
H851 H 0.84186 0.60717 0.07014 0.0
H852 H 0.8487 0.62872 0.11114 0.0
H853 H 0.89986 0.57483 0.115 0.0
H854 H 0.90771 0.59365 0.10594 0.0
H855 H 0.88905 0.58049 0.10024 0.0
C856 C 0.8854 0.61947 0.07571 0.0
C857 C 0.86962 0.61596 0.06879 0.0
C858 C 0.88571 0.61718 0.0888 0.0
C859 C 0.87033 0.61118 0.09523 0.0
C860 C 0.85455 0.60763 0.08835 0.0
H861 H 0.87179 0.58671 0.17647 0.0
H862 H 0.86907 0.58395 0.15342 0.0
C863 C 0.85421 0.60994 0.07522 0.0
C864 C 0.87047 0.60976 0.10921 0.0
H865 H 0.89359 0.59144 0.13399 0.0
C866 C 0.85837 0.6204 0.11613 0.0
C867 C 0.88292 0.5987 0.11573 0.0
C868 C 0.89549 0.58613 0.10884 0.0
C869 C 0.85889 0.62088 0.12938 0.0
C870 C 0.87208 0.6107 0.13587 0.0
C871 C 0.88366 0.59944 0.12899 0.0
C872 C 0.87443 0.61209 0.14974 0.0
C873 C 0.84532 0.63235 0.13632 0.0
C874 C 0.87883 0.6287 0.15525 0.0
C875 C 0.88037 0.63031 0.16835 0.0
C876 C 0.8777 0.61529 0.1762 0.0
C877 C 0.8739 0.59852 0.17065 0.0
C878 C 0.87232 0.59692 0.15751 0.0
H879 H 0.83318 0.63492 0.13045 0.0
H880 H 0.84107 0.62587 0.14529 0.0
H881 H 0.8515 0.64554 0.13862 0.0
H882 H 0.88093 0.64048 0.1494 0.0
H883 H 0.88343 0.64339 0.17233 0.0
H884 H 0.14937 0.09214 0.82181 0.0
H885 H 0.15186 0.0909 0.84491 0.0
H886 H 0.11775 0.13769 0.848 0.0
H887 H 0.11544 0.13919 0.82501 0.0
H888 H 0.14875 0.14024 0.86237 0.0
H889 H 0.11393 0.0751 0.87069 0.0
H890 H 0.13231 0.07423 0.85966 0.0
H891 H 0.11249 0.087 0.85586 0.0
C892 C 0.14226 0.10204 0.82744 0.0
C893 C 0.13217 0.11573 0.82161 0.0
C894 C 0.14365 0.10128 0.84062 0.0
C895 C 0.13485 0.11411 0.84817 0.0
C896 C 0.12463 0.12766 0.84235 0.0
H897 H 0.1084 0.11597 0.92693 0.0
H898 H 0.10952 0.11417 0.90391 0.0
C899 C 0.12329 0.12846 0.82921 0.0
C900 C 0.13665 0.11391 0.86212 0.0
H901 H 0.12675 0.0894 0.8885 0.0
C902 C 0.14402 0.1291 0.8681 0.0
C903 C 0.13035 0.09941 0.86955 0.0
C904 C 0.12168 0.08306 0.86366 0.0
C905 C 0.14503 0.13029 0.88132 0.0
C906 C 0.13881 0.11575 0.88875 0.0
C907 C 0.13164 0.10046 0.88277 0.0
C908 C 0.1385 0.11661 0.90274 0.0
C909 C 0.15216 0.14736 0.88722 0.0
C910 C 0.15446 0.11845 0.90975 0.0
C911 C 0.15386 0.11959 0.92295 0.0
C912 C 0.13729 0.11877 0.92934 0.0
C913 C 0.12138 0.11669 0.92229 0.0
C914 C 0.12199 0.11561 0.90913 0.0
H915 H 0.15257 0.15866 0.88034 0.0
H916 H 0.14377 0.15147 0.89541 0.0
H917 H 0.16608 0.145 0.89066 0.0
H918 H 0.16738 0.11894 0.90501 0.0
H919 H 0.16634 0.12106 0.92814 0.0
H920 H 0.61238 0.38354 0.57678 0.0
H921 H 0.61533 0.38555 0.59973 0.0
H922 H 0.67307 0.38893 0.59606 0.0
H923 H 0.6702 0.38722 0.573 0.0
H924 H 0.63324 0.36267 0.6158 0.0
H925 H 0.66125 0.43187 0.6189 0.0
H926 H 0.65102 0.42315 0.60468 0.0
H927 H 0.6736 0.41678 0.60885 0.0
C928 C 0.62572 0.38475 0.58085 0.0
C929 C 0.64107 0.38526 0.57309 0.0
C930 C 0.62737 0.38591 0.59396 0.0
C931 C 0.64439 0.38765 0.59959 0.0
C932 C 0.65978 0.38797 0.5919 0.0
H933 H 0.66224 0.36706 0.67969 0.0
H934 H 0.66445 0.36734 0.65663 0.0
C935 C 0.65814 0.38686 0.57874 0.0
C936 C 0.64587 0.38855 0.61355 0.0
H937 H 0.65934 0.41538 0.63803 0.0
C938 C 0.63899 0.37418 0.62066 0.0
C939 C 0.65319 0.40367 0.61986 0.0
C940 C 0.66005 0.41984 0.61272 0.0
C941 C 0.63919 0.3745 0.63391 0.0
C942 C 0.64682 0.38945 0.64023 0.0
C943 C 0.65367 0.40386 0.63314 0.0
C944 C 0.64718 0.39054 0.65421 0.0
C945 C 0.63078 0.35902 0.64102 0.0
C946 C 0.63741 0.404 0.66051 0.0
C947 C 0.63625 0.40399 0.67371 0.0
C948 C 0.64486 0.39049 0.68079 0.0
C949 C 0.65533 0.37755 0.67448 0.0
C950 C 0.65655 0.37763 0.66131 0.0
H951 H 0.62174 0.35091 0.63489 0.0
H952 H 0.64157 0.35002 0.64458 0.0
H953 H 0.62293 0.36395 0.64926 0.0
H954 H 0.63016 0.41414 0.6552 0.0
H955 H 0.62811 0.41415 0.67832 0.0
H956 H 0.3733 0.91968 0.32351 0.0
H957 H 0.37151 0.9221 0.34663 0.0
H958 H 0.37338 0.86425 0.34969 0.0
H959 H 0.37506 0.86171 0.32672 0.0
H960 H 0.34533 0.8812 0.36394 0.0
H961 H 0.41267 0.91187 0.37236 0.0
H962 H 0.39846 0.9228 0.36093 0.0
H963 H 0.40699 0.90066 0.35775 0.0
C964 C 0.37346 0.9075 0.32913 0.0
C965 C 0.37437 0.89051 0.32331 0.0
C966 C 0.37247 0.90891 0.34232 0.0
C967 C 0.37242 0.89335 0.34984 0.0
C968 C 0.3734 0.87641 0.34404 0.0
H969 H 0.39233 0.87031 0.42749 0.0
H970 H 0.39165 0.87344 0.40451 0.0
C971 C 0.37441 0.875 0.33091 0.0
C972 C 0.37108 0.89448 0.36378 0.0
H973 H 0.39452 0.9065 0.39022 0.0
C974 C 0.35598 0.88688 0.36971 0.0
C975 C 0.38509 0.90179 0.37122 0.0
C976 C 0.40181 0.90965 0.36531 0.0
C977 C 0.35466 0.88611 0.38293 0.0
C978 C 0.36875 0.89326 0.39037 0.0
C979 C 0.3837 0.90114 0.38445 0.0
C980 C 0.36883 0.89153 0.40431 0.0
C981 C 0.33855 0.87706 0.38884 0.0
C982 C 0.35621 0.90071 0.41179 0.0
C983 C 0.35656 0.89895 0.42496 0.0
C984 C 0.36954 0.88798 0.43082 0.0
C985 C 0.38212 0.8788 0.42326 0.0
C986 C 0.3818 0.88062 0.41014 0.0
H987 H 0.33037 0.8696 0.38178 0.0
H988 H 0.34289 0.86754 0.39634 0.0
H989 H 0.32984 0.8874 0.39331 0.0
H990 H 0.34621 0.90934 0.40745 0.0
H991 H 0.34676 0.90625 0.43056 0.0
H992 H 0.07589 0.61003 0.00778 0.0
H993 H 0.04307 0.61145 0.00569 0.0
H994 H 0.0414 0.65493 0.0327 0.0
H995 H 0.07409 0.65336 0.03501 0.0
H996 H 0.01886 0.62759 0.03886 0.0
H997 H 0.00877 0.6468 0.98871 0.0
H998 H 0.02326 0.62767 0.9908 0.0
H999 H 0.03013 0.64931 0.99669 0.0
C1000 C 0.06854 0.6201 0.01309 0.0
C1001 C 0.07752 0.63154 0.02159 0.0
C1002 C 0.0498 0.62097 0.01184 0.0
C1003 C 0.03981 0.63342 0.01895 0.0
C1004 C 0.04886 0.64526 0.0271 0.0
H1005 H 0.92451 0.65468 0.01597 0.0
H1006 H 0.95736 0.65661 0.01408 0.0
C1007 C 0.06754 0.64435 0.0284 0.0
C1008 C 0.01987 0.63298 0.01887 0.0
H1009 H 0.98285 0.63626 -0.00016 0.0
C1010 C 0.011 0.6296 0.03034 0.0
C1011 C 0.00963 0.63574 0.00776 0.0
C1012 C 0.0184 0.64026 0.99531 0.0
C1013 C 0.99218 0.62862 0.03098 0.0
C1014 C 0.98196 0.63071 0.0198 0.0
C1015 C 0.99077 0.63445 0.00836 0.0
C1016 C 0.96211 0.62911 0.01991 0.0
C1017 C 0.9834 0.62555 0.04366 0.0
C1018 C 0.95394 0.61287 0.02349 0.0
C1019 C 0.93525 0.61175 0.02463 0.0
C1020 C 0.92439 0.62682 0.02211 0.0
C1021 C 0.93255 0.64287 0.01802 0.0
C1022 C 0.95128 0.64399 0.01691 0.0
H1023 H 0.99264 0.62886 0.05159 0.0
H1024 H 0.97099 0.63377 0.04465 0.0
H1025 H 0.97961 0.61116 0.04453 0.0
H1026 H 0.96206 0.60114 0.02562 0.0
H1027 H 0.92933 0.59917 0.0277 0.0
H1028 H 0.65047 0.67506 0.25621 0.0
H1029 H 0.6536 0.70774 0.25318 0.0
H1030 H 0.62958 0.71693 0.2897 0.0
H1031 H 0.62631 0.68453 0.29277 0.0
H1032 H 0.62391 0.7359 0.25535 0.0
H1033 H 0.68007 0.74369 0.28953 0.0
H1034 H 0.67475 0.72249 0.28203 0.0
H1035 H 0.66152 0.73035 0.29513 0.0
C1036 C 0.64582 0.68409 0.26356 0.0
C1037 C 0.6382 0.67727 0.27475 0.0
C1038 C 0.64761 0.70269 0.26181 0.0
C1039 C 0.642 0.71464 0.27129 0.0
C1040 C 0.63416 0.70786 0.28235 0.0
H1041 H 0.62837 0.82152 0.29388 0.0
H1042 H 0.63134 0.78922 0.29034 0.0
C1043 C 0.63225 0.68936 0.28407 0.0
C1044 C 0.6442 0.73428 0.26983 0.0
H1045 H 0.66411 0.77044 0.28391 0.0
C1046 C 0.63294 0.74351 0.26138 0.0
C1047 C 0.65606 0.74404 0.27769 0.0
C1048 C 0.66893 0.73467 0.28655 0.0
C1049 C 0.63241 0.76242 0.26121 0.0
C1050 C 0.64357 0.77217 0.2696 0.0
C1051 C 0.65553 0.76289 0.27753 0.0
C1052 C 0.64171 0.79184 0.27133 0.0
C1053 C 0.6192 0.77183 0.25263 0.0
C1054 C 0.64663 0.80401 0.26179 0.0
C1055 C 0.64495 0.82257 0.2638 0.0
C1056 C 0.63835 0.82915 0.27537 0.0
C1057 C 0.63346 0.81688 0.28486 0.0
C1058 C 0.63518 0.79842 0.28286 0.0
H1059 H 0.60993 0.76223 0.24787 0.0
H1060 H 0.61107 0.7817 0.25808 0.0
H1061 H 0.62667 0.77935 0.24525 0.0
H1062 H 0.6519 0.79916 0.25288 0.0
H1063 H 0.64886 0.83175 0.25634 0.0
H1064 H 0.43429 0.40969 0.53866 0.0
H1065 H 0.46682 0.40995 0.53538 0.0
H1066 H 0.45999 0.38184 0.50002 0.0
H1067 H 0.42731 0.38135 0.50332 0.0
H1068 H 0.48459 0.36566 0.51563 0.0
H1069 H 0.49956 0.43838 0.51192 0.0
H1070 H 0.4863 0.43323 0.52562 0.0
H1071 H 0.47708 0.42944 0.51011 0.0
C1072 C 0.43967 0.40383 0.53007 0.0
C1073 C 0.42826 0.39548 0.52125 0.0
C1074 C 0.45827 0.4041 0.52817 0.0
C1075 C 0.46581 0.39614 0.51737 0.0
C1076 C 0.45442 0.38818 0.50837 0.0
H1077 H 0.58338 0.4005 0.50727 0.0
H1078 H 0.551 0.40263 0.50284 0.0
C1079 C 0.43577 0.38793 0.51026 0.0
C1080 C 0.48564 0.39463 0.51618 0.0
H1081 H 0.52444 0.41916 0.51764 0.0
C1082 C 0.49331 0.37737 0.51585 0.0
C1083 C 0.49701 0.4099 0.5163 0.0
C1084 C 0.48956 0.42879 0.51587 0.0
C1085 C 0.51202 0.37495 0.51635 0.0
C1086 C 0.52333 0.39019 0.5174 0.0
C1087 C 0.51573 0.40748 0.517 0.0
C1088 C 0.54291 0.38842 0.51975 0.0
C1089 C 0.51952 0.35607 0.51593 0.0
C1090 C 0.54903 0.37989 0.53077 0.0
C1091 C 0.56743 0.37867 0.53332 0.0
C1092 C 0.58007 0.38605 0.52492 0.0
C1093 C 0.57394 0.39462 0.51388 0.0
C1094 C 0.55548 0.39587 0.51135 0.0
H1095 H 0.50999 0.34662 0.51129 0.0
H1096 H 0.53256 0.35565 0.51081 0.0
H1097 H 0.52179 0.35127 0.52573 0.0
H1098 H 0.53954 0.3744 0.53752 0.0
H1099 H 0.57173 0.37208 0.54194 0.0
H1100 H 0.86902 0.32546 0.79755 0.0
H1101 H 0.87 0.2928 0.79503 0.0
H1102 H 0.88204 0.29915 0.75541 0.0
H1103 H 0.8814 0.33197 0.75791 0.0
H1104 H 0.84873 0.27158 0.77946 0.0
H1105 H 0.92129 0.26434 0.76736 0.0
H1106 H 0.91211 0.28476 0.77401 0.0
H1107 H 0.90865 0.27959 0.75761 0.0
C1108 C 0.87197 0.31992 0.7883 0.0
C1109 C 0.87519 0.33126 0.77793 0.0
C1110 C 0.8725 0.30126 0.78688 0.0
C1111 C 0.8763 0.29356 0.77507 0.0
C1112 C 0.87943 0.30483 0.76465 0.0
H1113 H 0.88098 0.17787 0.7573 0.0
H1114 H 0.88018 0.21077 0.75495 0.0
C1115 C 0.87896 0.32355 0.76608 0.0
C1116 C 0.87648 0.27371 0.77376 0.0
H1117 H 0.9039 0.23776 0.76778 0.0
C1118 C 0.86076 0.2642 0.77683 0.0
C1119 C 0.89218 0.26413 0.77026 0.0
C1120 C 0.90958 0.27366 0.76721 0.0
C1121 C 0.86042 0.24534 0.77677 0.0
C1122 C 0.87625 0.23577 0.77367 0.0
C1123 C 0.8918 0.24522 0.77015 0.0
C1124 C 0.87721 0.21598 0.77496 0.0
C1125 C 0.84318 0.23575 0.78017 0.0
C1126 C 0.87611 0.20816 0.78698 0.0
C1127 C 0.87665 0.18951 0.78835 0.0
C1128 C 0.87828 0.17831 0.77771 0.0
C1129 C 0.87966 0.18618 0.76566 0.0
C1130 C 0.87922 0.20492 0.7643 0.0
H1131 H 0.83128 0.24474 0.77928 0.0
H1132 H 0.84113 0.22376 0.77407 0.0
H1133 H 0.84398 0.2311 0.79012 0.0
H1134 H 0.87479 0.21653 0.79532 0.0
H1135 H 0.87562 0.18385 0.79776 0.0
H1136 H 0.92846 0.36786 0.98805 0.0
H1137 H 0.96133 0.36753 0.99051 0.0
H1138 H 0.96659 0.4027 0.95833 0.0
H1139 H 0.93387 0.4031 0.95579 0.0
H1140 H 0.98705 0.3564 0.97138 0.0
H1141 H 0.99689 0.4272 0.98661 0.0
H1142 H 0.97542 0.41588 0.98764 0.0
H1143 H 0.98315 0.42454 0.97275 0.0
C1144 C 0.93664 0.37561 0.98156 0.0
C1145 C 0.92862 0.38555 0.97175 0.0
C1146 C 0.95537 0.3754 0.98297 0.0
C1147 C 0.96632 0.38528 0.9747 0.0
C1148 C 0.95833 0.39524 0.96493 0.0
H1149 H 0.07679 0.40315 0.95684 0.0
H1150 H 0.04411 0.40311 0.95942 0.0
C1151 C 0.93965 0.39537 0.96347 0.0
C1152 C 0.98616 0.38463 0.97585 0.0
H1153 H 0.02312 0.41122 0.98009 0.0
C1154 C 0.99499 0.3683 0.97345 0.0
C1155 C 0.99638 0.40021 0.97854 0.0
C1156 C 0.98751 0.41794 0.98165 0.0
C1157 C 0.01386 0.3673 0.97308 0.0
C1158 C 0.02411 0.383 0.97546 0.0
C1159 C 0.01524 0.39921 0.97825 0.0
C1160 C 0.04401 0.38318 0.97433 0.0
C1161 C 0.02262 0.34965 0.96956 0.0
C1162 C 0.05483 0.37219 0.982 0.0
C1163 C 0.07355 0.37209 0.98049 0.0
C1164 C 0.08173 0.38315 0.97137 0.0
C1165 C 0.07088 0.39446 0.96393 0.0
C1166 C 0.05221 0.39448 0.9654 0.0
H1167 H 0.01288 0.34014 0.96521 0.0
H1168 H 0.03391 0.35182 0.96286 0.0
H1169 H 0.02813 0.34323 0.9782 0.0
H1170 H 0.0488 0.36366 0.98913 0.0
H1171 H 0.08159 0.36333 0.98641 0.0
H1172 H 0.87573 0.82873 0.24092 0.0
H1173 H 0.87415 0.79586 0.24304 0.0
H1174 H 0.8452 0.79259 0.20779 0.0
H1175 H 0.84685 0.82527 0.20554 0.0
H1176 H 0.84386 0.77017 0.24235 0.0
H1177 H 0.89194 0.76249 0.20252 0.0
H1178 H 0.88874 0.78355 0.21073 0.0
H1179 H 0.87272 0.77631 0.19905 0.0
C1180 C 0.86882 0.82101 0.23372 0.0
C1181 C 0.86159 0.82952 0.22299 0.0
C1182 C 0.86791 0.80227 0.23496 0.0
C1183 C 0.85981 0.79185 0.22547 0.0
C1184 C 0.85174 0.80042 0.21511 0.0
H1185 H 0.85062 0.68082 0.20458 0.0
H1186 H 0.84775 0.71337 0.20714 0.0
C1187 C 0.85267 0.81908 0.21386 0.0
C1188 C 0.86076 0.77197 0.22588 0.0
H1189 H 0.87773 0.73593 0.20984 0.0
C1190 C 0.85134 0.76263 0.23532 0.0
C1191 C 0.87066 0.76225 0.21673 0.0
C1192 C 0.88174 0.77163 0.20674 0.0
C1193 C 0.85103 0.7437 0.23554 0.0
C1194 C 0.86057 0.73402 0.22618 0.0
C1195 C 0.8703 0.74341 0.21694 0.0
C1196 C 0.8605 0.71411 0.22552 0.0
C1197 C 0.8401 0.73421 0.24552 0.0
C1198 C 0.86844 0.70371 0.23509 0.0
C1199 C 0.87009 0.68505 0.23366 0.0
C1200 C 0.86393 0.67657 0.22259 0.0
C1201 C 0.85552 0.68697 0.21321 0.0
C1202 C 0.85386 0.70556 0.21465 0.0
H1203 H 0.83052 0.74348 0.25029 0.0
H1204 H 0.83242 0.72284 0.24135 0.0
H1205 H 0.84931 0.72862 0.25279 0.0
H1206 H 0.87394 0.71009 0.24345 0.0
H1207 H 0.87669 0.67737 0.24102 0.0
H1208 H 0.43332 0.61306 0.45409 0.0
H1209 H 0.46591 0.61249 0.45707 0.0
H1210 H 0.45943 0.63242 0.49508 0.0
H1211 H 0.42661 0.63289 0.4922 0.0
H1212 H 0.48695 0.6434 0.46322 0.0
H1213 H 0.49412 0.58869 0.49885 0.0
H1214 H 0.47411 0.59127 0.4893 0.0
H1215 H 0.47819 0.60629 0.50227 0.0
C1216 C 0.43879 0.61717 0.46313 0.0
C1217 C 0.42743 0.62305 0.47291 0.0
C1218 C 0.4574 0.61684 0.46481 0.0
C1219 C 0.46503 0.62228 0.47632 0.0
C1220 C 0.45376 0.62791 0.4862 0.0
H1221 H 0.58083 0.63023 0.49306 0.0
H1222 H 0.54791 0.63122 0.49534 0.0
C1223 C 0.43506 0.62826 0.48452 0.0
C1224 C 0.48486 0.62295 0.47755 0.0
H1225 H 0.5208 0.60279 0.49189 0.0
C1226 C 0.49435 0.63461 0.46954 0.0
C1227 C 0.49442 0.61157 0.4859 0.0
C1228 C 0.48478 0.59863 0.49454 0.0
C1229 C 0.5132 0.6349 0.46944 0.0
C1230 C 0.5228 0.623 0.47739 0.0
C1231 C 0.51335 0.61182 0.48577 0.0
C1232 C 0.54258 0.62129 0.47649 0.0
C1233 C 0.52273 0.64784 0.46071 0.0
C1234 C 0.55037 0.61494 0.46527 0.0
C1235 C 0.56903 0.61436 0.46394 0.0
C1236 C 0.58028 0.62006 0.47385 0.0
C1237 C 0.57248 0.62581 0.48526 0.0
C1238 C 0.55372 0.62638 0.48658 0.0
H1239 H 0.51383 0.65916 0.45786 0.0
H1240 H 0.535 0.65343 0.46524 0.0
H1241 H 0.52688 0.64058 0.45201 0.0
H1242 H 0.54196 0.61068 0.45745 0.0
H1243 H 0.57464 0.60974 0.45507 0.0
H1244 H 0.63733 0.17518 0.74536 0.0
H1245 H 0.63675 0.20783 0.749 0.0
H1246 H 0.61417 0.21582 0.71187 0.0
H1247 H 0.61469 0.18338 0.70817 0.0
H1248 H 0.65481 0.2339 0.73391 0.0
H1249 H 0.58119 0.24596 0.73518 0.0
H1250 H 0.591 0.22395 0.73753 0.0
H1251 H 0.58832 0.23283 0.72183 0.0
C1252 C 0.63206 0.18391 0.73804 0.0
C1253 C 0.62603 0.17676 0.72649 0.0
C1254 C 0.63175 0.20251 0.74013 0.0
C1255 C 0.62517 0.21417 0.73077 0.0
C1256 C 0.61896 0.20702 0.71931 0.0
H1257 H 0.64579 0.32176 0.70922 0.0
H1258 H 0.64445 0.28935 0.71285 0.0
C1259 C 0.61938 0.18849 0.71718 0.0
C1260 C 0.62588 0.23392 0.73252 0.0
H1261 H 0.59986 0.27175 0.7313 0.0
C1262 C 0.64279 0.24219 0.73355 0.0
C1263 C 0.61017 0.24466 0.7322 0.0
C1264 C 0.59162 0.23641 0.73175 0.0
C1265 C 0.64446 0.26099 0.73356 0.0
C1266 C 0.62882 0.27173 0.73238 0.0
C1267 C 0.61184 0.26347 0.73208 0.0
C1268 C 0.6299 0.29143 0.7305 0.0
C1269 C 0.66298 0.26921 0.73461 0.0
C1270 C 0.6218 0.30333 0.7391 0.0
C1271 C 0.62249 0.32193 0.73703 0.0
C1272 C 0.63114 0.32884 0.72626 0.0
C1273 C 0.63911 0.31685 0.71764 0.0
C1274 C 0.63845 0.29833 0.71973 0.0
H1275 H 0.67266 0.2598 0.73913 0.0
H1276 H 0.66806 0.27234 0.72499 0.0
H1277 H 0.66262 0.28191 0.74014 0.0
H1278 H 0.615 0.29823 0.74741 0.0
H1279 H 0.6162 0.33086 0.74381 0.0
H1280 H 0.3716 0.31586 0.70607 0.0
H1281 H 0.37161 0.28395 0.71138 0.0
H1282 H 0.38369 0.29679 0.75022 0.0
H1283 H 0.38374 0.32905 0.74495 0.0
H1284 H 0.40523 0.26833 0.7392 0.0
H1285 H 0.33218 0.25758 0.73195 0.0
H1286 H 0.34269 0.26908 0.71899 0.0
H1287 H 0.34186 0.27964 0.73429 0.0
C1288 C 0.37425 0.31195 0.71576 0.0
C1289 C 0.3776 0.32496 0.72512 0.0
C1290 C 0.37415 0.29371 0.71878 0.0
C1291 C 0.37734 0.28807 0.73122 0.0
C1292 C 0.38104 0.30094 0.74058 0.0
H1293 H 0.35887 0.17307 0.74476 0.0
H1294 H 0.35923 0.20567 0.74832 0.0
C1295 C 0.38107 0.31931 0.73756 0.0
C1296 C 0.37714 0.26862 0.73416 0.0
H1297 H 0.3509 0.23122 0.73108 0.0
C1298 C 0.3933 0.26021 0.73766 0.0
C1299 C 0.36148 0.25812 0.73236 0.0
C1300 C 0.34352 0.26658 0.72932 0.0
C1301 C 0.39446 0.24139 0.7386 0.0
C1302 C 0.37914 0.23081 0.73577 0.0
C1303 C 0.36271 0.23932 0.73309 0.0
C1304 C 0.3801 0.21096 0.73455 0.0
C1305 C 0.41216 0.23303 0.7424 0.0
C1306 C 0.39166 0.20315 0.7256 0.0
C1307 C 0.39148 0.18459 0.72355 0.0
C1308 C 0.37961 0.1735 0.73033 0.0
C1309 C 0.36818 0.18129 0.7394 0.0
C1310 C 0.36838 0.19989 0.74146 0.0
H1311 H 0.4203 0.24244 0.74823 0.0
H1312 H 0.41008 0.22039 0.7478 0.0
H1313 H 0.42003 0.22982 0.73377 0.0
H1314 H 0.40046 0.21148 0.71991 0.0
H1315 H 0.40039 0.17898 0.71646 0.0
H1316 H 0.13261 0.68784 0.2072 0.0
H1317 H 0.134 0.71983 0.21224 0.0
H1318 H 0.14733 0.70719 0.2509 0.0
H1319 H 0.14605 0.67488 0.24589 0.0
H1320 H 0.11285 0.73808 0.23143 0.0
H1321 H 0.18699 0.74369 0.2387 0.0
H1322 H 0.17708 0.72509 0.23019 0.0
H1323 H 0.17497 0.72632 0.24705 0.0
C1324 C 0.1359 0.69181 0.21677 0.0
C1325 C 0.13925 0.67885 0.22615 0.0
C1326 C 0.13665 0.7101 0.21964 0.0
C1327 C 0.14084 0.71583 0.23191 0.0
C1328 C 0.14424 0.70299 0.24134 0.0
H1329 H 0.1262 0.83223 0.24547 0.0
H1330 H 0.12716 0.79989 0.25021 0.0
C1331 C 0.14346 0.68458 0.23847 0.0
C1332 C 0.14133 0.73536 0.23462 0.0
H1333 H 0.17028 0.77056 0.23869 0.0
C1334 C 0.12533 0.74521 0.23327 0.0
C1335 C 0.15768 0.74451 0.23694 0.0
C1336 C 0.17523 0.73447 0.23826 0.0
C1337 C 0.12535 0.76408 0.23358 0.0
C1338 C 0.14181 0.77328 0.23544 0.0
C1339 C 0.1577 0.76341 0.23735 0.0
C1340 C 0.14306 0.79301 0.23376 0.0
C1341 C 0.10797 0.77403 0.23114 0.0
C1342 C 0.15221 0.79986 0.22322 0.0
C1343 C 0.15169 0.81822 0.22051 0.0
C1344 C 0.14207 0.8301 0.22834 0.0
C1345 C 0.13365 0.82336 0.23925 0.0
C1346 C 0.13414 0.80492 0.24195 0.0
H1347 H 0.09698 0.76488 0.22805 0.0
H1348 H 0.10359 0.78088 0.23994 0.0
H1349 H 0.10994 0.78449 0.22378 0.0
H1350 H 0.15917 0.79087 0.2168 0.0
H1351 H 0.15839 0.82302 0.21207 0.0
H1352 H 0.13745 0.17608 0.75541 0.0
H1353 H 0.13746 0.20877 0.75203 0.0
H1354 H 0.1283 0.21716 0.79185 0.0
H1355 H 0.12799 0.18469 0.79526 0.0
H1356 H 0.10589 0.23765 0.77652 0.0
H1357 H 0.17765 0.24396 0.76211 0.0
H1358 H 0.16434 0.22828 0.75316 0.0
H1359 H 0.16886 0.22396 0.76955 0.0
C1360 C 0.13547 0.18493 0.76343 0.0
C1361 C 0.13277 0.17785 0.7756 0.0
C1362 C 0.13557 0.20357 0.7615 0.0
C1363 C 0.13308 0.21537 0.77172 0.0
C1364 C 0.13027 0.20829 0.78384 0.0
H1365 H 0.15682 0.32544 0.78626 0.0
H1366 H 0.15593 0.29276 0.78372 0.0
C1367 C 0.13013 0.18972 0.78577 0.0
C1368 C 0.1332 0.23514 0.76995 0.0
H1369 H 0.16047 0.27062 0.76264 0.0
C1370 C 0.11776 0.24489 0.77337 0.0
C1371 C 0.14876 0.24448 0.76593 0.0
C1372 C 0.16592 0.23471 0.76256 0.0
C1373 C 0.11758 0.26376 0.7732 0.0
C1374 C 0.13319 0.27312 0.76927 0.0
C1375 C 0.1485 0.26338 0.76556 0.0
C1376 C 0.13436 0.293 0.76997 0.0
C1377 C 0.10098 0.27352 0.77779 0.0
C1378 C 0.12276 0.30399 0.76288 0.0
C1379 C 0.12317 0.3227 0.76437 0.0
C1380 C 0.13528 0.33068 0.7729 0.0
C1381 C 0.1473 0.31967 0.77964 0.0
C1382 C 0.14684 0.30101 0.77818 0.0
H1383 H 0.09167 0.26442 0.78295 0.0
H1384 H 0.10469 0.28485 0.78412 0.0
H1385 H 0.09364 0.27914 0.76955 0.0
H1386 H 0.11325 0.29808 0.75632 0.0
H1387 H 0.11383 0.33087 0.75899 0.0
H1388 H 0.35309 0.67676 0.25724 0.0
H1389 H 0.35045 0.70928 0.25367 0.0
H1390 H 0.3887 0.71904 0.28358 0.0
H1391 H 0.39155 0.68669 0.2871 0.0
H1392 H 0.33909 0.73523 0.27072 0.0
H1393 H 0.40852 0.7496 0.25471 0.0
H1394 H 0.39937 0.72709 0.25516 0.0
H1395 H 0.40809 0.73733 0.26931 0.0
C1396 C 0.36105 0.68586 0.26297 0.0
C1397 C 0.37257 0.6792 0.27242 0.0
C1398 C 0.35952 0.7044 0.26092 0.0
C1399 C 0.36961 0.71654 0.26821 0.0
C1400 C 0.38112 0.70989 0.27764 0.0
H1401 H 0.35503 0.82329 0.29305 0.0
H1402 H 0.35389 0.7911 0.28862 0.0
C1403 C 0.38263 0.6914 0.2797 0.0
C1404 C 0.36746 0.73622 0.26654 0.0
H1405 H 0.3915 0.7749 0.26246 0.0
C1406 C 0.35048 0.7439 0.26871 0.0
C1407 C 0.38225 0.74749 0.26368 0.0
C1408 C 0.40054 0.73995 0.26045 0.0
C1409 C 0.34814 0.76265 0.26885 0.0
C1410 C 0.36323 0.77394 0.26698 0.0
C1411 C 0.37997 0.76623 0.26403 0.0
C1412 C 0.36236 0.79362 0.26913 0.0
C1413 C 0.32958 0.77018 0.27123 0.0
C1414 C 0.3677 0.80576 0.25967 0.0
C1415 C 0.36847 0.82423 0.26221 0.0
C1416 C 0.36408 0.83081 0.27428 0.0
C1417 C 0.35842 0.81865 0.28364 0.0
C1418 C 0.35763 0.80024 0.28109 0.0
H1419 H 0.31895 0.76053 0.26827 0.0
H1420 H 0.3279 0.7727 0.2815 0.0
H1421 H 0.32753 0.78308 0.26613 0.0
H1422 H 0.37156 0.80089 0.25041 0.0
H1423 H 0.37295 0.8333 0.25484 0.0
H1424 H 0.42667 0.12757 0.50558 0.0
H1425 H 0.45865 0.12432 0.5 0.0
H1426 H 0.47014 0.10592 0.53781 0.0
H1427 H 0.43847 0.10901 0.54339 0.0
H1428 H 0.4873 0.14235 0.51168 0.0
H1429 H 0.49617 0.06878 0.51597 0.0
H1430 H 0.47429 0.07917 0.51432 0.0
H1431 H 0.48506 0.07806 0.52955 0.0
C1432 C 0.43602 0.1226 0.51263 0.0
C1433 C 0.4301 0.11853 0.52492 0.0
C1434 C 0.45424 0.12076 0.50943 0.0
C1435 C 0.46669 0.11458 0.51843 0.0
C1436 C 0.4607 0.11029 0.53063 0.0
H1437 H 0.57271 0.11344 0.54251 0.0
H1438 H 0.54068 0.11067 0.53771 0.0
C1439 C 0.4426 0.11221 0.53384 0.0
C1440 C 0.48621 0.11394 0.51562 0.0
H1441 H 0.52302 0.08688 0.519 0.0
C1442 C 0.49513 0.13015 0.51293 0.0
C1443 C 0.49634 0.09798 0.51719 0.0
C1444 C 0.48744 0.07999 0.51928 0.0
C1445 C 0.51401 0.13108 0.51281 0.0
C1446 C 0.52412 0.11536 0.51533 0.0
C1447 C 0.5152 0.09893 0.51716 0.0
C1448 C 0.54371 0.11615 0.51775 0.0
C1449 C 0.52304 0.14905 0.51086 0.0
C1450 C 0.55603 0.11991 0.50805 0.0
C1451 C 0.57443 0.12146 0.51077 0.0
C1452 C 0.58068 0.11933 0.52323 0.0
C1453 C 0.5683 0.11522 0.53284 0.0
C1454 C 0.55001 0.11359 0.53011 0.0
H1455 H 0.51318 0.16027 0.51021 0.0
H1456 H 0.53249 0.15187 0.51875 0.0
H1457 H 0.53099 0.14871 0.50198 0.0
H1458 H 0.5514 0.12178 0.49843 0.0
H1459 H 0.58369 0.1246 0.50318 0.0
H1460 H 0.92727 0.86488 0.00724 0.0
H1461 H 0.96017 0.86506 0.00502 0.0
H1462 H 0.96331 0.91128 0.02958 0.0
H1463 H 0.93059 0.9111 0.03195 0.0
H1464 H 0.98573 0.89279 0.99731 0.0
H1465 H 0.99359 0.87176 0.04736 0.0
H1466 H 0.97244 0.87017 0.03903 0.0
H1467 H 0.9799 0.89145 0.04518 0.0
C1468 C 0.93498 0.87521 0.01203 0.0
C1469 C 0.92641 0.88786 0.01988 0.0
C1470 C 0.95373 0.8753 0.01074 0.0
C1471 C 0.96412 0.88799 0.01731 0.0
C1472 C 0.95551 0.9012 0.02461 0.0
H1473 H 0.07524 0.90913 0.03299 0.0
H1474 H 0.04263 0.91 0.03004 0.0
C1475 C 0.93682 0.9011 0.02592 0.0
C1476 C 0.98401 0.8869 0.01719 0.0
H1477 H 0.02014 0.88062 0.0366 0.0
C1478 C 0.9933 0.89001 0.00585 0.0
C1479 C 0.99377 0.88312 0.02835 0.0
C1480 C 0.98445 0.87876 0.04066 0.0
C1481 C 0.01223 0.8901 0.00551 0.0
C1482 C 0.02195 0.88679 0.01677 0.0
C1483 C 0.01261 0.88329 0.02801 0.0
C1484 C 0.04185 0.88726 0.01729 0.0
C1485 C 0.0217 0.89424 0.99325 0.0
C1486 C 0.05222 0.87426 0.01097 0.0
C1487 C 0.07091 0.87372 0.01265 0.0
C1488 C 0.07944 0.88611 0.02071 0.0
C1489 C 0.06905 0.89939 0.02673 0.0
C1490 C 0.05043 0.89992 0.02505 0.0
H1491 H 0.01237 0.89996 0.98609 0.0
H1492 H 0.03291 0.90388 0.99483 0.0
H1493 H 0.02753 0.88166 0.98936 0.0
H1494 H 0.0458 0.86418 0.00511 0.0
H1495 H 0.07858 0.8633 0.00793 0.0
H1496 H 0.43652 0.88314 0.45792 0.0
H1497 H 0.46885 0.8853 0.4618 0.0
H1498 H 0.45933 0.88584 0.50198 0.0
H1499 H 0.42674 0.8837 0.49819 0.0
H1500 H 0.48562 0.91507 0.47739 0.0
H1501 H 0.499 0.84534 0.49453 0.0
H1502 H 0.47978 0.85042 0.48468 0.0
H1503 H 0.48012 0.85771 0.50082 0.0
C1504 C 0.44127 0.88358 0.4676 0.0
C1505 C 0.42911 0.88325 0.47776 0.0
C1506 C 0.45973 0.88484 0.46978 0.0
C1507 C 0.4664 0.88567 0.48216 0.0
C1508 C 0.45438 0.88508 0.49237 0.0
H1509 H 0.58318 0.88528 0.49733 0.0
H1510 H 0.55061 0.88635 0.50136 0.0
C1511 C 0.43582 0.88388 0.49019 0.0
C1512 C 0.48597 0.88775 0.48415 0.0
H1513 H 0.52406 0.86396 0.49095 0.0
C1514 C 0.49404 0.904 0.48054 0.0
C1515 C 0.49681 0.87334 0.48838 0.0
C1516 C 0.48862 0.85564 0.49232 0.0
C1517 C 0.5128 0.906 0.48055 0.0
C1518 C 0.52373 0.89119 0.48397 0.0
C1519 C 0.51563 0.87526 0.48827 0.0
C1520 C 0.54343 0.89135 0.48185 0.0
C1521 C 0.52075 0.92382 0.47662 0.0
C1522 C 0.5501 0.89363 0.46956 0.0
C1523 C 0.56857 0.89303 0.46725 0.0
C1524 C 0.58075 0.88999 0.47718 0.0
C1525 C 0.57409 0.88772 0.48951 0.0
C1526 C 0.55553 0.88831 0.49182 0.0
H1527 H 0.51122 0.93506 0.47842 0.0
H1528 H 0.53354 0.92659 0.48171 0.0
H1529 H 0.5236 0.92353 0.46633 0.0
H1530 H 0.54098 0.89556 0.46168 0.0
H1531 H 0.57327 0.89472 0.45763 0.0
H1532 H 0.07441 0.09585 0.964 0.0
H1533 H 0.04204 0.09513 0.9681 0.0
H1534 H 0.04929 0.13053 1e-05 0.0
H1535 H 0.08178 0.13149 0.99588 0.0
H1536 H 0.02168 0.08546 0.99008 0.0
H1537 H 0.01354 0.15755 0.9768 0.0
H1538 H 0.03371 0.14499 0.97322 0.0
H1539 H 0.02961 0.15269 0.98904 0.0
C1540 C 0.06915 0.10336 0.97197 0.0
C1541 C 0.08059 0.11386 0.97955 0.0
C1542 C 0.05067 0.1029 0.97431 0.0
C1543 C 0.04327 0.11297 0.98425 0.0
C1544 C 0.05473 0.12288 0.99218 0.0
H1545 H 0.9281 0.1352 0.99419 0.0
H1546 H 0.96046 0.13319 0.9986 0.0
C1547 C 0.07327 0.12335 0.98984 0.0
C1548 C 0.02348 0.11372 0.98578 0.0
H1549 H 0.98731 0.14149 0.98177 0.0
C1550 C 0.01415 0.09774 0.9884 0.0
C1551 C 0.01373 0.12979 0.98362 0.0
C1552 C 0.02307 0.14724 0.98042 0.0
C1553 C 0.99525 0.0973 0.98865 0.0
C1554 C 0.98549 0.1132 0.98595 0.0
C1555 C 0.99484 0.12933 0.98384 0.0
C1556 C 0.9657 0.11315 0.98421 0.0
C1557 C 0.98593 0.0798 0.99168 0.0
C1558 C 0.95794 0.10257 0.97467 0.0
C1559 C 0.93953 0.1037 0.97213 0.0
C1560 C 0.92854 0.11554 0.97904 0.0
C1561 C 0.93624 0.12592 0.98874 0.0
C1562 C 0.9547 0.12478 0.99127 0.0
H1563 H 0.99468 0.07086 0.99744 0.0
H1564 H 0.97314 0.08213 0.99687 0.0
H1565 H 0.98277 0.07265 0.98274 0.0
H1566 H 0.96624 0.09385 0.96889 0.0
H1567 H 0.934 0.0956 0.96456 0.0
H1568 H 0.13641 0.42604 0.99845 0.0
H1569 H 0.14089 0.45697 0.00573 0.0
H1570 H 0.17978 0.4656 0.9761 0.0
H1571 H 0.17522 0.43466 0.96867 0.0
H1572 H 0.17181 0.47657 0.01355 0.0
H1573 H 0.14167 0.50485 0.96966 0.0
H1574 H 0.13968 0.48137 0.9738 0.0
H1575 H 0.16047 0.4899 0.96756 0.0
C1576 C 0.14612 0.43442 0.99359 0.0
C1577 C 0.15538 0.42792 0.98293 0.0
C1578 C 0.14865 0.45211 0.99775 0.0
C1579 C 0.16042 0.46371 0.99132 0.0
C1580 C 0.17038 0.457 0.98106 0.0
H1581 H 0.16699 0.58154 0.00284 0.0
H1582 H 0.17428 0.55102 0.99529 0.0
C1583 C 0.16786 0.43926 0.97689 0.0
C1584 C 0.16152 0.48298 0.99508 0.0
H1585 H 0.15033 0.52544 0.98538 0.0
C1586 C 0.16728 0.48727 0.00735 0.0
C1587 C 0.1557 0.49697 0.98695 0.0
C1588 C 0.14889 0.49314 0.97378 0.0
C1589 C 0.16699 0.5051 0.01181 0.0
C1590 C 0.16043 0.51898 0.00388 0.0
C1591 C 0.15537 0.5148 0.99144 0.0
C1592 C 0.15698 0.53747 0.00872 0.0
C1593 C 0.17355 0.50887 0.02504 0.0
C1594 C 0.14473 0.54 0.01864 0.0
C1595 C 0.14055 0.55728 0.02291 0.0
C1596 C 0.14843 0.57253 0.01731 0.0
C1597 C 0.16077 0.57006 0.00738 0.0
C1598 C 0.16492 0.55265 0.00306 0.0
H1599 H 0.18337 0.49852 0.02822 0.0
H1600 H 0.17998 0.52232 0.0257 0.0
H1601 H 0.16194 0.50855 0.03163 0.0
H1602 H 0.13808 0.52857 0.02296 0.0
H1603 H 0.13092 0.55867 0.03053 0.0
H1604 H 0.83164 0.90048 0.25007 0.0
H1605 H 0.80082 0.90529 0.25786 0.0
H1606 H 0.78262 0.91459 0.21974 0.0
H1607 H 0.81319 0.90982 0.2119 0.0
H1608 H 0.77408 0.93574 0.25357 0.0
H1609 H 0.75383 0.86962 0.23336 0.0
H1610 H 0.77707 0.87551 0.23621 0.0
H1611 H 0.76537 0.88474 0.22286 0.0
C1612 C 0.82113 0.90389 0.24339 0.0
C1613 C 0.82483 0.90464 0.23037 0.0
C1614 C 0.80354 0.90661 0.24785 0.0
C1615 C 0.78942 0.91006 0.23934 0.0
C1616 C 0.79329 0.91175 0.22643 0.0
H1617 H 0.6726 0.90416 0.24774 0.0
H1618 H 0.7029 0.90923 0.23922 0.0
C1619 C 0.8108 0.90907 0.22199 0.0
C1620 C 0.77047 0.91062 0.24378 0.0
H1621 H 0.731 0.88713 0.24265 0.0
C1622 C 0.76463 0.92514 0.2512 0.0
C1623 C 0.75816 0.89682 0.2406 0.0
C1624 C 0.76386 0.88069 0.2329 0.0
C1625 C 0.7467 0.92629 0.25546 0.0
C1626 C 0.73443 0.91232 0.25244 0.0
C1627 C 0.74032 0.8979 0.24491 0.0
C1628 C 0.71573 0.91173 0.25752 0.0
C1629 C 0.74103 0.94261 0.26296 0.0
C1630 C 0.71276 0.9117 0.27062 0.0
C1631 C 0.69548 0.90896 0.27548 0.0
C1632 C 0.68078 0.90594 0.26736 0.0
C1633 C 0.68362 0.90654 0.25424 0.0
C1634 C 0.70094 0.90938 0.24937 0.0
H1635 H 0.74972 0.95439 0.26083 0.0
H1636 H 0.72681 0.94629 0.261 0.0
H1637 H 0.74236 0.93963 0.27319 0.0
H1638 H 0.72394 0.91301 0.27713 0.0
H1639 H 0.6938 0.90844 0.28564 0.0
H1640 H 0.36181 0.42823 0.49503 0.0
H1641 H 0.35714 0.45896 0.48717 0.0
H1642 H 0.33857 0.4754 0.524 0.0
H1643 H 0.34312 0.4448 0.5319 0.0
H1644 H 0.31867 0.49073 0.50285 0.0
H1645 H 0.39294 0.49884 0.49901 0.0
H1646 H 0.38347 0.47994 0.49073 0.0
H1647 H 0.38272 0.48061 0.50769 0.0
C1648 C 0.35638 0.4383 0.50137 0.0
C1649 C 0.35296 0.43413 0.51411 0.0
C1650 C 0.35381 0.45587 0.49689 0.0
C1651 C 0.34776 0.46951 0.50506 0.0
C1652 C 0.3433 0.4651 0.51755 0.0
H1653 H 0.36721 0.58385 0.5003 0.0
H1654 H 0.363 0.55272 0.50721 0.0
C1655 C 0.34593 0.4476 0.52205 0.0
C1656 C 0.34745 0.48863 0.50097 0.0
H1657 H 0.37508 0.52347 0.49281 0.0
C1658 C 0.33097 0.4979 0.50059 0.0
C1659 C 0.36356 0.49801 0.49823 0.0
C1660 C 0.38172 0.48895 0.49901 0.0
C1661 C 0.33018 0.5163 0.49745 0.0
C1662 C 0.34629 0.52561 0.49458 0.0
C1663 C 0.36274 0.51632 0.495 0.0
C1664 C 0.34659 0.54503 0.4912 0.0
C1665 C 0.31221 0.52574 0.4975 0.0
C1666 C 0.33842 0.55118 0.48004 0.0
C1667 C 0.34078 0.56901 0.47607 0.0
C1668 C 0.35143 0.58099 0.48318 0.0
C1669 C 0.35889 0.575 0.49464 0.0
C1670 C 0.35655 0.55718 0.49858 0.0
H1671 H 0.30182 0.5179 0.50267 0.0
H1672 H 0.31335 0.53928 0.50187 0.0
H1673 H 0.30754 0.52753 0.48761 0.0
H1674 H 0.33092 0.54199 0.47409 0.0
H1675 H 0.33497 0.57317 0.46715 0.0
H1676 H 0.83314 0.08448 0.75843 0.0
H1677 H 0.80256 0.07836 0.75053 0.0
H1678 H 0.78326 0.12629 0.76914 0.0
H1679 H 0.81338 0.13223 0.77718 0.0
H1680 H 0.76068 0.09762 0.77276 0.0
H1681 H 0.77764 0.10526 0.72183 0.0
H1682 H 0.79024 0.08858 0.73038 0.0
H1683 H 0.7929 0.11198 0.73422 0.0
C1684 C 0.82234 0.09366 0.76082 0.0
C1685 C 0.82571 0.10887 0.76838 0.0
C1686 C 0.8049 0.09021 0.75627 0.0
C1687 C 0.79061 0.10198 0.75913 0.0
C1688 C 0.79401 0.11699 0.7668 0.0
H1689 H 0.69335 0.13335 0.72445 0.0
H1690 H 0.7237 0.12755 0.73214 0.0
C1691 C 0.8113 0.1204 0.77136 0.0
C1692 C 0.77208 0.09916 0.7541 0.0
H1693 H 0.74728 0.10039 0.72691 0.0
C1694 C 0.75774 0.09798 0.76273 0.0
C1695 C 0.76826 0.09973 0.741 0.0
C1696 C 0.78301 0.10159 0.73128 0.0
C1697 C 0.7397 0.09814 0.75867 0.0
C1698 C 0.73586 0.09915 0.74558 0.0
C1699 C 0.75023 0.09954 0.73693 0.0
C1700 C 0.71723 0.10194 0.74073 0.0
C1701 C 0.72493 0.09827 0.76846 0.0
C1702 C 0.70337 0.08941 0.74291 0.0
C1703 C 0.6858 0.09279 0.73858 0.0
C1704 C 0.68187 0.10868 0.7319 0.0
C1705 C 0.69587 0.12099 0.72957 0.0
C1706 C 0.71329 0.11766 0.73393 0.0
H1707 H 0.7302 0.10101 0.7781 0.0
H1708 H 0.71462 0.10858 0.76615 0.0
H1709 H 0.71824 0.08493 0.7686 0.0
H1710 H 0.70613 0.07703 0.74794 0.0
H1711 H 0.67534 0.08299 0.74043 0.0
H1712 H 0.8719 0.57681 0.99878 0.0
H1713 H 0.8664 0.54572 0.99249 0.0
H1714 H 0.82156 0.54289 0.01831 0.0
H1715 H 0.82734 0.57401 0.02493 0.0
H1716 H 0.84319 0.51483 0.02142 0.0
H1717 H 0.82982 0.52185 0.97037 0.0
H1718 H 0.85064 0.5325 0.97452 0.0
H1719 H 0.8298 0.54091 0.98095 0.0
C1720 C 0.86061 0.56972 0.00294 0.0
C1721 C 0.85002 0.57791 0.01233 0.0
C1722 C 0.85741 0.55193 0.99927 0.0
C1723 C 0.84338 0.54196 0.00477 0.0
C1724 C 0.83241 0.55031 0.01387 0.0
H1725 H 0.82816 0.4323 0.97502 0.0
H1726 H 0.82127 0.46294 0.98219 0.0
C1727 C 0.83567 0.56812 0.01761 0.0
C1728 C 0.84132 0.52245 0.00181 0.0
H1729 H 0.83997 0.49253 0.9773 0.0
C1730 C 0.84218 0.50998 0.01177 0.0
C1731 C 0.83966 0.51599 0.98927 0.0
C1732 C 0.83722 0.52854 0.97819 0.0
C1733 C 0.84241 0.49133 0.0095 0.0
C1734 C 0.84225 0.48493 0.99689 0.0
C1735 C 0.84037 0.49736 0.98697 0.0
C1736 C 0.84522 0.4656 0.99371 0.0
C1737 C 0.84294 0.47872 0.02066 0.0
C1738 C 0.86083 0.45675 0.9979 0.0
C1739 C 0.86469 0.43922 0.99393 0.0
C1740 C 0.85314 0.43019 0.98551 0.0
C1741 C 0.83726 0.43884 0.98157 0.0
C1742 C 0.83335 0.45639 0.98562 0.0
H1743 H 0.83652 0.4849 0.02909 0.0
H1744 H 0.83604 0.46581 0.01855 0.0
H1745 H 0.85718 0.47581 0.02312 0.0
H1746 H 0.87047 0.46366 0.00385 0.0
H1747 H 0.87713 0.43304 0.99704 0.0
H1748 H 0.17442 0.09181 0.75299 0.0
H1749 H 0.20507 0.08506 0.7455 0.0
H1750 H 0.22718 0.11148 0.77829 0.0
H1751 H 0.19686 0.11826 0.78577 0.0
H1752 H 0.23234 0.11159 0.74043 0.0
H1753 H 0.25471 0.06316 0.77703 0.0
H1754 H 0.23124 0.06815 0.77415 0.0
H1755 H 0.24484 0.08335 0.78331 0.0
C1756 C 0.18584 0.09596 0.75866 0.0
C1757 C 0.18322 0.10556 0.76997 0.0
C1758 C 0.20331 0.09212 0.75437 0.0
C1759 C 0.21841 0.09755 0.76143 0.0
C1760 C 0.21576 0.10686 0.77281 0.0
H1761 H 0.33304 0.10845 0.75581 0.0
H1762 H 0.30164 0.10496 0.76242 0.0
C1763 C 0.19839 0.11083 0.77703 0.0
C1764 C 0.237 0.09472 0.7566 0.0
H1765 H 0.27781 0.07657 0.76443 0.0
C1766 C 0.24224 0.10369 0.74554 0.0
C1767 C 0.24991 0.08453 0.76336 0.0
C1768 C 0.2449 0.0741 0.77507 0.0
C1769 C 0.26021 0.10344 0.74135 0.0
C1770 C 0.27324 0.09353 0.74825 0.0
C1771 C 0.26787 0.08415 0.75914 0.0
C1772 C 0.29264 0.09359 0.74467 0.0
C1773 C 0.26521 0.11453 0.72993 0.0
C1774 C 0.29822 0.08766 0.73269 0.0
C1775 C 0.31615 0.08972 0.72888 0.0
C1776 C 0.32891 0.09753 0.73703 0.0
C1777 C 0.32355 0.10237 0.74931 0.0
C1778 C 0.30558 0.10042 0.75309 0.0
H1779 H 0.25474 0.12472 0.72766 0.0
H1780 H 0.27822 0.12158 0.73142 0.0
H1781 H 0.26666 0.10553 0.72162 0.0
H1782 H 0.28859 0.08191 0.72615 0.0
H1783 H 0.31987 0.08576 0.71937 0.0
H1784 H 0.63938 0.44853 0.53633 0.0
H1785 H 0.64566 0.47858 0.52822 0.0
H1786 H 0.67347 0.45544 0.49634 0.0
H1787 H 0.66684 0.42509 0.50432 0.0
H1788 H 0.67702 0.4965 0.52296 0.0
H1789 H 0.63629 0.48744 0.47929 0.0
H1790 H 0.63545 0.47172 0.49226 0.0
H1791 H 0.65412 0.47141 0.48146 0.0
C1792 C 0.6469 0.44978 0.52761 0.0
C1793 C 0.65248 0.4344 0.52091 0.0
C1794 C 0.65053 0.46701 0.523 0.0
C1795 C 0.6598 0.46931 0.51157 0.0
C1796 C 0.66597 0.454 0.50505 0.0
H1797 H 0.67337 0.57026 0.46966 0.0
H1798 H 0.67846 0.53962 0.47743 0.0
C1799 C 0.66228 0.43667 0.50965 0.0
C1800 C 0.66239 0.4878 0.50647 0.0
H1801 H 0.65017 0.51556 0.48219 0.0
C1802 C 0.67127 0.50063 0.51399 0.0
C1803 C 0.65487 0.49323 0.49477 0.0
C1804 C 0.64451 0.48031 0.4865 0.0
C1805 C 0.67258 0.51874 0.51024 0.0
C1806 C 0.66464 0.52423 0.49872 0.0
C1807 C 0.65629 0.51131 0.491 0.0
C1808 C 0.66371 0.54345 0.49485 0.0
C1809 C 0.68236 0.53187 0.51867 0.0
C1810 C 0.65398 0.55589 0.50215 0.0
C1811 C 0.65102 0.57339 0.49773 0.0
C1812 C 0.65771 0.57879 0.48589 0.0
C1813 C 0.66813 0.56656 0.47885 0.0
C1814 C 0.671 0.54902 0.48325 0.0
H1815 H 0.69195 0.5249 0.52507 0.0
H1816 H 0.68987 0.54197 0.51301 0.0
H1817 H 0.67241 0.53913 0.52461 0.0
H1818 H 0.64795 0.55181 0.51102 0.0
H1819 H 0.64283 0.58244 0.50334 0.0
H1820 H 0.19449 0.90634 0.21371 0.0
H1821 H 0.22448 0.91084 0.22265 0.0
H1822 H 0.20199 0.91003 0.26021 0.0
H1823 H 0.17188 0.9051 0.25131 0.0
H1824 H 0.2405 0.93598 0.23836 0.0
H1825 H 0.23804 0.86877 0.26127 0.0
H1826 H 0.22156 0.87591 0.2498 0.0
H1827 H 0.22018 0.88367 0.26588 0.0
C1828 C 0.19586 0.90736 0.22388 0.0
C1829 C 0.18082 0.90517 0.23181 0.0
C1830 C 0.21304 0.90995 0.22897 0.0
C1831 C 0.21556 0.91038 0.24211 0.0
C1832 C 0.20042 0.90933 0.25005 0.0
H1833 H 0.31179 0.90619 0.28856 0.0
H1834 H 0.28134 0.9111 0.28057 0.0
C1835 C 0.1832 0.90666 0.24495 0.0
C1836 C 0.23413 0.91081 0.2474 0.0
H1837 H 0.26384 0.88639 0.26512 0.0
C1838 C 0.2456 0.92517 0.24424 0.0
C1839 C 0.24086 0.8966 0.25497 0.0
C1840 C 0.22961 0.88027 0.2581 0.0
C1841 C 0.26351 0.92581 0.24859 0.0
C1842 C 0.27018 0.91161 0.25617 0.0
C1843 C 0.25869 0.89732 0.25936 0.0
C1844 C 0.28905 0.91104 0.26087 0.0
C1845 C 0.27509 0.94175 0.24519 0.0
C1846 C 0.30363 0.90968 0.25244 0.0
C1847 C 0.32116 0.90689 0.257 0.0
C1848 C 0.32435 0.90529 0.27005 0.0
C1849 C 0.30981 0.90735 0.27845 0.0
C1850 C 0.29237 0.91014 0.2739 0.0
H1851 H 0.26686 0.95342 0.24206 0.0
H1852 H 0.28352 0.94595 0.25334 0.0
H1853 H 0.28421 0.93796 0.23732 0.0
H1854 H 0.30137 0.91001 0.24234 0.0
H1855 H 0.33205 0.90522 0.2503 0.0
H1856 H 0.64768 0.06427 0.53833 0.0
H1857 H 0.65271 0.03363 0.53085 0.0
H1858 H 0.66496 0.05384 0.49365 0.0
H1859 H 0.66003 0.0848 0.50114 0.0
H1860 H 0.63216 0.01817 0.51132 0.0
H1861 H 0.70531 0.01632 0.50025 0.0
H1862 H 0.69549 0.03322 0.51042 0.0
H1863 H 0.69282 0.03477 0.4936 0.0
C1864 C 0.65173 0.06228 0.52859 0.0
C1865 C 0.65341 0.07698 0.52031 0.0
C1866 C 0.6546 0.04472 0.52434 0.0
C1867 C 0.65931 0.04142 0.51172 0.0
C1868 C 0.66161 0.05609 0.50348 0.0
H1869 H 0.66528 0.94316 0.4675 0.0
H1870 H 0.66856 0.97381 0.47561 0.0
C1871 C 0.65874 0.07376 0.50776 0.0
C1872 C 0.66015 0.02255 0.50707 0.0
H1873 H 0.68819 0.99058 0.4947 0.0
C1874 C 0.64443 0.01211 0.50774 0.0
C1875 C 0.67613 0.01473 0.50231 0.0
C1876 C 0.69347 0.02524 0.50166 0.0
C1877 C 0.64418 0.99413 0.50368 0.0
C1878 C 0.66023 0.98615 0.49911 0.0
C1879 C 0.67595 0.99664 0.49832 0.0
C1880 C 0.66065 0.96712 0.49471 0.0
C1881 C 0.62657 0.984 0.50402 0.0
C1882 C 0.65588 0.95298 0.50287 0.0
C1883 C 0.6539 0.93543 0.49825 0.0
C1884 C 0.65686 0.93166 0.4854 0.0
C1885 C 0.66285 0.94561 0.47745 0.0
C1886 C 0.66473 0.96317 0.48207 0.0
H1887 H 0.61485 0.99326 0.50459 0.0
H1888 H 0.62498 0.97538 0.49551 0.0
H1889 H 0.62629 0.9752 0.51249 0.0
H1890 H 0.65306 0.95565 0.51274 0.0
H1891 H 0.64935 0.92497 0.50462 0.0
H1892 H 0.17848 0.38412 0.74705 0.0
H1893 H 0.20932 0.38882 0.73975 0.0
H1894 H 0.21624 0.43113 0.76724 0.0
H1895 H 0.18541 0.42621 0.7748 0.0
H1896 H 0.22807 0.4177 0.73011 0.0
H1897 H 0.25672 0.39665 0.77642 0.0
H1898 H 0.23326 0.39366 0.77255 0.0
H1899 H 0.24159 0.4155 0.77692 0.0
C1900 C 0.18646 0.39461 0.75143 0.0
C1901 C 0.17954 0.4047 0.76157 0.0
C1902 C 0.20411 0.39727 0.74725 0.0
C1903 C 0.21525 0.41006 0.75312 0.0
C1904 C 0.20805 0.42089 0.76276 0.0
H1905 H 0.33272 0.41909 0.73897 0.0
H1906 H 0.30218 0.42715 0.74614 0.0
C1907 C 0.19037 0.41818 0.767 0.0
C1908 C 0.23456 0.41127 0.74943 0.0
H1909 H 0.27725 0.40316 0.76018 0.0
C1910 C 0.23883 0.41474 0.73673 0.0
C1911 C 0.24864 0.40742 0.75807 0.0
C1912 C 0.24491 0.40295 0.77173 0.0
C1913 C 0.25668 0.41391 0.73237 0.0
C1914 C 0.27062 0.40935 0.74089 0.0
C1915 C 0.26652 0.40672 0.75369 0.0
C1916 C 0.28909 0.40513 0.7364 0.0
C1917 C 0.26045 0.4175 0.71859 0.0
C1918 C 0.29183 0.39 0.72873 0.0
C1919 C 0.30912 0.3853 0.72477 0.0
C1920 C 0.32413 0.39567 0.72835 0.0
C1921 C 0.32142 0.41089 0.73603 0.0
C1922 C 0.30401 0.4155 0.74012 0.0
H1923 H 0.24953 0.42554 0.71416 0.0
H1924 H 0.27342 0.42474 0.71739 0.0
H1925 H 0.26141 0.40449 0.71349 0.0
H1926 H 0.28056 0.38164 0.72593 0.0
H1927 H 0.31071 0.37349 0.71887 0.0
H1928 H 0.86521 0.92587 0.99524 0.0
H1929 H 0.86113 0.95722 0.98869 0.0
H1930 H 0.83204 0.96822 0.02308 0.0
H1931 H 0.83589 0.93685 0.02965 0.0
H1932 H 0.81762 0.98588 0.00113 0.0
H1933 H 0.89124 0.99642 0.00673 0.0
H1934 H 0.88519 0.97841 0.99622 0.0
H1935 H 0.87987 0.97675 0.01275 0.0
C1936 C 0.85761 0.93485 0.00129 0.0
C1937 C 0.85099 0.9289 0.01302 0.0
C1938 C 0.8554 0.9528 0.99757 0.0
C1939 C 0.84659 0.96514 0.00551 0.0
C1940 C 0.83896 0.95896 0.01684 0.0
H1941 H 0.86481 0.0807 0.00316 0.0
H1942 H 0.8598 0.04974 0.01026 0.0
C1943 C 0.84116 0.94101 0.02057 0.0
C1944 C 0.84652 0.98467 0.00248 0.0
H1945 H 0.87449 0.02065 0.99829 0.0
C1946 C 0.83003 0.99352 0.00051 0.0
C1947 C 0.86271 0.99469 0.00193 0.0
C1948 C 0.88076 0.98617 0.00463 0.0
C1949 C 0.82936 0.01204 0.99771 0.0
C1950 C 0.84561 0.0219 0.99676 0.0
C1951 C 0.86204 0.01309 0.99898 0.0
C1952 C 0.84611 0.04128 0.99321 0.0
C1953 C 0.81127 0.02092 0.99596 0.0
C1954 C 0.83973 0.04697 0.98137 0.0
C1955 C 0.84251 0.06469 0.97731 0.0
C1956 C 0.85186 0.07704 0.98497 0.0
C1957 C 0.8575 0.07155 0.99706 0.0
C1958 C 0.8547 0.05383 0.00111 0.0
H1959 H 0.80032 0.013 0.00046 0.0
H1960 H 0.81122 0.03472 -1e-05 0.0
H1961 H 0.80827 0.02192 0.98572 0.0
H1962 H 0.83338 0.03749 0.975 0.0
H1963 H 0.83811 0.06845 0.96792 0.0
H1964 H 0.33427 0.60786 0.2458 0.0
H1965 H 0.30315 0.60338 0.23865 0.0
H1966 H 0.28747 0.58899 0.27653 0.0
H1967 H 0.31841 0.59353 0.28376 0.0
H1968 H 0.27758 0.57336 0.24067 0.0
H1969 H 0.25664 0.63402 0.26778 0.0
H1970 H 0.27993 0.62904 0.26437 0.0
H1971 H 0.26836 0.61705 0.27666 0.0
C1972 C 0.32427 0.60339 0.25255 0.0
C1973 C 0.32878 0.60119 0.26537 0.0
C1974 C 0.30649 0.60087 0.24845 0.0
C1975 C 0.29294 0.59617 0.25711 0.0
C1976 C 0.29765 0.5929 0.26974 0.0
H1977 H 0.17544 0.60083 0.2497 0.0
H1978 H 0.20585 0.5948 0.25779 0.0
C1979 C 0.31538 0.59541 0.27384 0.0
C1980 C 0.27375 0.59592 0.25314 0.0
H1981 H 0.23386 0.61815 0.25709 0.0
C1982 C 0.26798 0.5831 0.24427 0.0
C1983 C 0.26124 0.60861 0.2579 0.0
C1984 C 0.2668 0.62307 0.26713 0.0
C1985 C 0.25001 0.58262 0.24005 0.0
C1986 C 0.23758 0.59556 0.24462 0.0
C1987 C 0.24333 0.60817 0.25364 0.0
C1988 C 0.21892 0.59713 0.23958 0.0
C1989 C 0.24449 0.56814 0.23084 0.0
C1990 C 0.2161 0.60034 0.22666 0.0
C1991 C 0.1988 0.60371 0.22203 0.0
C1992 C 0.1839 0.60413 0.23024 0.0
C1993 C 0.18662 0.6005 0.24313 0.0
C1994 C 0.204 0.59709 0.24776 0.0
H1995 H 0.25339 0.55615 0.23158 0.0
H1996 H 0.23035 0.56384 0.23243 0.0
H1997 H 0.24564 0.57343 0.22107 0.0
H1998 H 0.22738 0.60091 0.22019 0.0
H1999 H 0.1972 0.60657 0.21206 0.0
H2000 H 0.37203 0.06331 0.53775 0.0
H2001 H 0.36625 0.03369 0.52882 0.0
H2002 H 0.33555 0.05793 0.49867 0.0
H2003 H 0.34203 0.08793 0.50734 0.0
H2004 H 0.33743 0.01409 0.52413 0.0
H2005 H 0.37139 0.02976 0.47863 0.0
H2006 H 0.37212 0.04487 0.49194 0.0
H2007 H 0.35232 0.0437 0.48216 0.0
C2008 C 0.36396 0.0624 0.52924 0.0
C2009 C 0.35765 0.07801 0.52317 0.0
C2010 C 0.36061 0.04539 0.52416 0.0
C2011 C 0.35074 0.0435 0.51292 0.0
C2012 C 0.34361 0.05902 0.50716 0.0
H2013 H 0.33178 0.93037 0.48821 0.0
H2014 H 0.32535 0.96112 0.49561 0.0
C2015 C 0.3472 0.07616 0.51217 0.0
C2016 C 0.34883 0.02527 0.50715 0.0
H2017 H 0.36048 1.00042 0.48123 0.0
C2018 C 0.34232 0.01111 0.5147 0.0
C2019 C 0.3553 0.02134 0.49486 0.0
C2020 C 0.36332 0.03565 0.48645 0.0
C2021 C 0.34286 0.99312 0.51055 0.0
C2022 C 0.34961 0.98918 0.49835 0.0
C2023 C 0.35528 1.00343 0.49058 0.0
C2024 C 0.35291 0.97041 0.49393 0.0
C2025 C 0.33718 0.97844 0.51956 0.0
C2026 C 0.37038 0.96544 0.49029 0.0
C2027 C 0.37397 0.94811 0.48589 0.0
C2028 C 0.3602 0.93519 0.48509 0.0
C2029 C 0.34268 0.94001 0.48883 0.0
C2030 C 0.33903 0.95755 0.49311 0.0
H2031 H 0.33617 0.9834 0.52945 0.0
H2032 H 0.32376 0.9733 0.51672 0.0
H2033 H 0.34684 0.96704 0.51933 0.0
H2034 H 0.38135 0.97502 0.49086 0.0
H2035 H 0.38763 0.94484 0.48312 0.0
H2036 H 0.67488 0.59768 0.24854 0.0
H2037 H 0.7052 0.59233 0.24004 0.0
H2038 H 0.72776 0.6003 0.27718 0.0
H2039 H 0.6977 0.60535 0.28571 0.0
H2040 H 0.73252 0.61705 0.24026 0.0
H2041 H 0.75475 0.55589 0.26571 0.0
H2042 H 0.73144 0.56275 0.26503 0.0
H2043 H 0.74659 0.57306 0.27617 0.0
C2044 C 0.68629 0.59788 0.25493 0.0
C2045 C 0.68388 0.6019 0.2678 0.0
C2046 C 0.7036 0.59488 0.25006 0.0
C2047 C 0.71878 0.59567 0.258 0.0
C2048 C 0.71629 0.59918 0.27091 0.0
H2049 H 0.83402 0.60773 0.24992 0.0
H2050 H 0.80316 0.60315 0.2576 0.0
C2051 C 0.69906 0.60219 0.27576 0.0
C2052 C 0.73731 0.59462 0.25268 0.0
H2053 H 0.77802 0.57358 0.25602 0.0
C2054 C 0.74239 0.60737 0.24357 0.0
C2055 C 0.75025 0.58209 0.25709 0.0
C2056 C 0.74545 0.56756 0.26645 0.0
C2057 C 0.76014 0.60832 0.23905 0.0
C2058 C 0.77316 0.59598 0.24359 0.0
C2059 C 0.76805 0.58305 0.25257 0.0
C2060 C 0.79217 0.59661 0.23923 0.0
C2061 C 0.76497 0.62297 0.22976 0.0
C2062 C 0.79635 0.59378 0.22645 0.0
C2063 C 0.81391 0.5964 0.22205 0.0
C2064 C 0.82769 0.60177 0.23036 0.0
C2065 C 0.82371 0.60358 0.24329 0.0
C2066 C 0.80608 0.601 0.24769 0.0
H2067 H 0.75466 0.6338 0.22952 0.0
H2068 H 0.7782 0.62906 0.23215 0.0
H2069 H 0.76595 0.6171 0.22015 0.0
H2070 H 0.78591 0.59005 0.2198 0.0
H2071 H 0.81654 0.59478 0.21205 0.0
H2072 H 0.141 0.92357 0.99557 0.0
H2073 H 0.14569 0.95462 0.98864 0.0
H2074 H 0.17665 0.96532 0.02229 0.0
H2075 H 0.17215 0.93422 0.02923 0.0
H2076 H 0.13312 0.98373 0.0024 0.0
H2077 H 0.20678 0.9897 0.99464 0.0
H2078 H 0.19538 0.96825 0.99534 0.0
H2079 H 0.20053 0.98025 0.00964 0.0
C2080 C 0.14921 0.93238 0.00134 0.0
C2081 C 0.1562 0.92641 0.01295 0.0
C2082 C 0.15182 0.95016 0.99738 0.0
C2083 C 0.16159 0.96231 0.0049 0.0
C2084 C 0.16932 0.95615 0.01622 0.0
H2085 H 0.14553 0.07867 0.003 0.0
H2086 H 0.14993 0.04751 0.00997 0.0
C2087 C 0.1667 0.93835 0.02019 0.0
C2088 C 0.16201 0.98176 0.00156 0.0
H2089 H 0.18996 0.01699 0.99467 0.0
C2090 C 0.14555 0.99098 0.00069 0.0
C2091 C 0.17823 0.9912 0.99928 0.0
C2092 C 0.19625 0.98185 0.99965 0.0
C2093 C 0.14486 0.00937 0.99768 0.0
C2094 C 0.16108 0.01893 0.99566 0.0
C2095 C 0.17756 0.0097 0.99639 0.0
C2096 C 0.16096 0.03832 0.99218 0.0
C2097 C 0.1267 0.01835 0.99644 0.0
C2098 C 0.16649 0.04367 0.98008 0.0
C2099 C 0.16406 0.06147 0.97609 0.0
C2100 C 0.15613 0.07427 0.98416 0.0
C2101 C 0.15165 0.06914 0.99656 0.0
C2102 C 0.15406 0.05131 0.00053 0.0
H2103 H 0.11562 0.00838 0.9956 0.0
H2104 H 0.12414 0.0267 0.00495 0.0
H2105 H 0.12635 0.02732 0.98805 0.0
H2106 H 0.17191 0.03389 0.9735 0.0
H2107 H 0.16768 0.065 0.96649 0.0
H2108 H 0.82471 0.38215 0.75221 0.0
H2109 H 0.79395 0.38844 0.74549 0.0
H2110 H 0.79383 0.43711 0.76772 0.0
H2111 H 0.82469 0.43067 0.77472 0.0
H2112 H 0.76458 0.41675 0.77252 0.0
H2113 H 0.77195 0.42334 0.72082 0.0
H2114 H 0.78196 0.40286 0.72638 0.0
H2115 H 0.79099 0.4242 0.73142 0.0
C2116 C 0.81831 0.39441 0.75547 0.0
C2117 C 0.82717 0.40594 0.76398 0.0
C2118 C 0.80071 0.39805 0.75155 0.0
C2119 C 0.79159 0.41339 0.75594 0.0
C2120 C 0.80061 0.42525 0.76414 0.0
H2121 H 0.68197 0.42849 0.72582 0.0
H2122 H 0.71279 0.43561 0.73257 0.0
C2123 C 0.81828 0.4216 0.76808 0.0
C2124 C 0.77218 0.41598 0.75288 0.0
H2125 H 0.74227 0.4153 0.72835 0.0
C2126 C 0.75973 0.41676 0.76285 0.0
C2127 C 0.76577 0.41631 0.74028 0.0
C2128 C 0.7784 0.41683 0.72912 0.0
C2129 C 0.74107 0.41677 0.76058 0.0
C2130 C 0.73466 0.41561 0.748 0.0
C2131 C 0.74712 0.41594 0.73801 0.0
C2132 C 0.71529 0.41264 0.74501 0.0
C2133 C 0.72843 0.41781 0.77171 0.0
C2134 C 0.70634 0.39748 0.74985 0.0
C2135 C 0.68876 0.39346 0.74607 0.0
C2136 C 0.67976 0.4044 0.73726 0.0
C2137 C 0.6885 0.41987 0.73269 0.0
C2138 C 0.70613 0.42391 0.7365 0.0
H2139 H 0.7348 0.42488 0.77982 0.0
H2140 H 0.71575 0.4249 0.76921 0.0
H2141 H 0.72503 0.40398 0.77485 0.0
H2142 H 0.71321 0.38831 0.75618 0.0
H2143 H 0.68248 0.38136 0.7497 0.0
H2144 H 0.16562 0.82984 0.00929 0.0
H2145 H 0.17 0.79736 0.00573 0.0
H2146 H 0.13334 0.7857 0.03623 0.0
H2147 H 0.1288 0.8178 0.03974 0.0
H2148 H 0.18194 0.76932 0.02225 0.0
H2149 H 0.1119 0.75785 0.0063 0.0
H2150 H 0.12171 0.78004 0.00727 0.0
H2151 H 0.11303 0.76926 0.02123 0.0
C2152 C 0.15856 0.82032 0.01525 0.0
C2153 C 0.14675 0.8264 0.02473 0.0
C2154 C 0.16107 0.80179 0.01321 0.0
C2155 C 0.15172 0.7891 0.02056 0.0
C2156 C 0.14039 0.79521 0.03026 0.0
H2157 H 0.16433 0.67831 0.03952 0.0
H2158 H 0.16779 0.71075 0.03688 0.0
C2159 C 0.13788 0.81361 0.03229 0.0
C2160 C 0.15353 0.76943 0.01821 0.0
H2161 H 0.12845 0.73173 0.01268 0.0
C2162 C 0.17032 0.7611 0.01997 0.0
C2163 C 0.13845 0.75871 0.01501 0.0
C2164 C 0.12029 0.76693 0.01221 0.0
C2165 C 0.1722 0.74225 0.01929 0.0
C2166 C 0.15682 0.73144 0.01699 0.0
C2167 C 0.14025 0.7399 0.01457 0.0
C2168 C 0.15717 0.7114 0.01782 0.0
C2169 C 0.19063 0.73413 0.0211 0.0
C2170 C 0.15006 0.70079 0.00801 0.0
C2171 C 0.14789 0.68218 0.00955 0.0
C2172 C 0.15273 0.6738 0.02098 0.0
C2173 C 0.16061 0.6843 0.03056 0.0
C2174 C 0.1627 0.7029 0.02903 0.0
H2175 H 0.20138 0.74374 0.01832 0.0
H2176 H 0.19258 0.73089 0.03125 0.0
H2177 H 0.19224 0.72157 0.01553 0.0
H2178 H 0.14562 0.70701 0.99929 0.0
H2179 H 0.14171 0.6745 0.00201 0.0
H2180 H 0.57334 0.86987 0.26898 0.0
H2181 H 0.54089 0.87483 0.26819 0.0
H2182 H 0.54863 0.93053 0.2782 0.0
H2183 H 0.58141 0.92566 0.27904 0.0
H2184 H 0.52145 0.88867 0.29077 0.0
H2185 H 0.51143 0.92989 0.24734 0.0
H2186 H 0.53076 0.91534 0.24923 0.0
H2187 H 0.52927 0.93581 0.25813 0.0
C2188 C 0.56823 0.88328 0.27082 0.0
C2189 C 0.57998 0.89737 0.27411 0.0
C2190 C 0.54965 0.88607 0.27037 0.0
C2191 C 0.54235 0.90304 0.27309 0.0
C2192 C 0.55402 0.91737 0.27593 0.0
H2193 H 0.4254 0.92531 0.27885 0.0
H2194 H 0.45819 0.9301 0.27774 0.0
C2195 C 0.57272 0.91457 0.27642 0.0
C2196 C 0.52248 0.905 0.274 0.0
H2197 H 0.48538 0.92086 0.2584 0.0
C2198 C 0.51358 0.89587 0.28377 0.0
C2199 C 0.51226 0.91454 0.26493 0.0
C2200 C 0.52129 0.92445 0.25425 0.0
C2201 C 0.49472 0.89555 0.28451 0.0
C2202 C 0.48442 0.90428 0.27506 0.0
C2203 C 0.4933 0.9141 0.26559 0.0
C2204 C 0.46454 0.90206 0.27448 0.0
C2205 C 0.48596 0.88563 0.29532 0.0
C2206 C 0.45724 0.88485 0.27261 0.0
C2207 C 0.43867 0.8821 0.27326 0.0
C2208 C 0.42691 0.89652 0.27571 0.0
C2209 C 0.43412 0.91394 0.27696 0.0
C2210 C 0.45283 0.91669 0.27634 0.0
H2211 H 0.49526 0.88422 0.30349 0.0
H2212 H 0.47357 0.89265 0.29853 0.0
H2213 H 0.48216 0.87191 0.29214 0.0
H2214 H 0.46599 0.87342 0.27094 0.0
H2215 H 0.43358 0.86853 0.27214 0.0
H2216 H 0.39239 0.18875 0.52611 0.0
H2217 H 0.38629 0.22062 0.52283 0.0
H2218 H 0.32922 0.20993 0.52267 0.0
H2219 H 0.33527 0.17775 0.52617 0.0
H2220 H 0.36818 0.23834 0.50345 0.0
H2221 H 0.3343 0.24913 0.5498 0.0
H2222 H 0.34708 0.22904 0.5464 0.0
H2223 H 0.32505 0.23199 0.53972 0.0
C2224 C 0.37851 0.1931 0.52533 0.0
C2225 C 0.36431 0.1807 0.52647 0.0
C2226 C 0.37505 0.21137 0.52344 0.0
C2227 C 0.35731 0.21775 0.52267 0.0
C2228 C 0.34303 0.20537 0.52346 0.0
H2229 H 0.33373 0.335 0.52159 0.0
H2230 H 0.32856 0.30238 0.51936 0.0
C2231 C 0.3465 0.18698 0.52537 0.0
C2232 C 0.35416 0.23744 0.52125 0.0
H2233 H 0.33973 0.27469 0.53734 0.0
C2234 C 0.3617 0.24625 0.51077 0.0
C2235 C 0.34563 0.24779 0.53077 0.0
C2236 C 0.33763 0.23911 0.54237 0.0
C2237 C 0.36164 0.26511 0.50983 0.0
C2238 C 0.35403 0.27548 0.51968 0.0
C2239 C 0.34555 0.26669 0.5298 0.0
C2240 C 0.35678 0.29527 0.52041 0.0
C2241 C 0.3702 0.27381 0.49844 0.0
C2242 C 0.37429 0.30204 0.52183 0.0
C2243 C 0.37723 0.32049 0.52318 0.0
C2244 C 0.36274 0.33267 0.52313 0.0
C2245 C 0.34517 0.32595 0.52158 0.0
C2246 C 0.3422 0.30735 0.52034 0.0
H2247 H 0.37041 0.26453 0.49021 0.0
H2248 H 0.36296 0.28631 0.49574 0.0
H2249 H 0.38434 0.27741 0.50073 0.0
H2250 H 0.38571 0.29298 0.52214 0.0
H2251 H 0.39093 0.32519 0.52439 0.0
H2252 H 0.92987 0.12298 0.75543 0.0
H2253 H 0.96237 0.11908 0.75282 0.0
H2254 H 0.96292 0.08095 0.78352 0.0
H2255 H 0.93037 0.08461 0.78608 0.0
H2256 H 0.98658 0.12782 0.77143 0.0
H2257 H 0.99554 0.05633 0.75776 0.0
H2258 H 0.97413 0.06776 0.75659 0.0
H2259 H 0.98193 0.05953 0.7716 0.0
C2260 C 0.93682 0.11341 0.76142 0.0
C2261 C 0.92752 0.1041 0.77096 0.0
C2262 C 0.95542 0.11124 0.75994 0.0
C2263 C 0.96512 0.09962 0.7679 0.0
C2264 C 0.95573 0.08971 0.77709 0.0
H2265 H 0.07804 0.08566 0.78658 0.0
H2266 H 0.04539 0.0823 0.78408 0.0
C2267 C 0.9371 0.09187 0.77857 0.0
C2268 C 0.98517 0.09943 0.76751 0.0
H2269 H 0.022 0.07216 0.76416 0.0
C2270 C 0.99431 0.11568 0.7697 0.0
C2271 C 0.99528 0.08355 0.76539 0.0
C2272 C 0.98625 0.06582 0.76259 0.0
C2273 C 0.0132 0.11645 0.7701 0.0
C2274 C 0.02334 0.10059 0.76796 0.0
C2275 C 0.01423 0.08432 0.76574 0.0
C2276 C 0.04338 0.10074 0.76833 0.0
C2277 C 0.0221 0.13417 0.77321 0.0
C2278 C 0.05323 0.11163 0.75997 0.0
C2279 C 0.07186 0.11362 0.76141 0.0
C2280 C 0.08106 0.10461 0.77115 0.0
C2281 C 0.07136 0.09278 0.77899 0.0
C2282 C 0.05268 0.09086 0.77758 0.0
H2283 H 0.01255 0.14375 0.77771 0.0
H2284 H 0.03373 0.13219 0.77966 0.0
H2285 H 0.02712 0.14043 0.76437 0.0
H2286 H 0.04641 0.11908 0.75259 0.0
H2287 H 0.07895 0.12275 0.75517 0.0
H2288 H 0.1205 0.18453 0.96928 0.0
H2289 H 0.12691 0.21653 0.97141 0.0
H2290 H 0.18101 0.20432 0.98348 0.0
H2291 H 0.17468 0.17192 0.98127 0.0
H2292 H 0.1382 0.23639 0.99277 0.0
H2293 H 0.1879 0.23944 0.95342 0.0
H2294 H 0.17294 0.22053 0.95551 0.0
H2295 H 0.19198 0.2233 0.96577 0.0
C2296 C 0.13379 0.18857 0.97242 0.0
C2297 C 0.14712 0.17565 0.97504 0.0
C2298 C 0.1374 0.20691 0.97367 0.0
C2299 C 0.15447 0.21286 0.9775 0.0
C2300 C 0.1678 0.20004 0.98036 0.0
H2301 H 0.16302 0.33091 0.98994 0.0
H2302 H 0.16767 0.29853 0.9936 0.0
C2303 C 0.16415 0.18155 0.97914 0.0
C2304 C 0.15801 0.23256 0.97819 0.0
H2305 H 0.17943 0.26681 0.96275 0.0
C2306 C 0.14746 0.24306 0.98637 0.0
C2307 C 0.16999 0.24122 0.96976 0.0
C2308 C 0.18131 0.23064 0.96054 0.0
C2309 C 0.14798 0.26198 0.986 0.0
C2310 C 0.15955 0.27066 0.97729 0.0
C2311 C 0.17066 0.26014 0.96947 0.0
C2312 C 0.15857 0.29041 0.97501 0.0
C2313 C 0.13535 0.27251 0.99438 0.0
C2314 C 0.15252 0.29665 0.96325 0.0
C2315 C 0.14993 0.31502 0.96114 0.0
C2316 C 0.15342 0.32765 0.97073 0.0
C2317 C 0.16018 0.32151 0.98238 0.0
C2318 C 0.16273 0.30301 0.9845 0.0
H2319 H 0.12524 0.26373 0.99906 0.0
H2320 H 0.14323 0.27942 0.00185 0.0
H2321 H 0.12812 0.28294 0.98884 0.0
H2322 H 0.14923 0.28722 0.95578 0.0
H2323 H 0.14479 0.31928 0.95204 0.0
H2324 H 0.92411 0.92484 0.22352 0.0
H2325 H 0.95681 0.93036 0.22462 0.0
H2326 H 0.96646 0.87317 0.2251 0.0
H2327 H 0.93415 0.86755 0.22406 0.0
H2328 H 0.98599 0.91138 0.24398 0.0
H2329 H 0.99254 0.89889 0.19236 0.0
H2330 H 0.97198 0.90713 0.19944 0.0
H2331 H 0.97807 0.88387 0.20102 0.0
C2332 C 0.93321 0.91348 0.22406 0.0
C2333 C 0.92653 0.89576 0.22365 0.0
C2334 C 0.95186 0.91665 0.22468 0.0
C2335 C 0.964 0.90215 0.22488 0.0
C2336 C 0.9573 0.88453 0.22493 0.0
H2337 H 0.07103 0.86747 0.21807 0.0
H2338 H 0.03882 0.87325 0.21953 0.0
C2339 C 0.9388 0.88136 0.22433 0.0
C2340 C 0.98376 0.90499 0.22422 0.0
H2341 H 0.01944 0.89837 0.20443 0.0
C2342 C 0.99336 0.90894 0.2353 0.0
C2343 C 0.99327 0.90173 0.21289 0.0
C2344 C 0.98351 0.89778 0.20069 0.0
C2345 C 0.01235 0.90874 0.23547 0.0
C2346 C 0.02185 0.90461 0.22423 0.0
C2347 C 0.01216 0.90152 0.21304 0.0
C2348 C 0.04164 0.90149 0.22407 0.0
C2349 C 0.0221 0.9119 0.24777 0.0
C2350 C 0.05404 0.91546 0.22621 0.0
C2351 C 0.07265 0.91218 0.22537 0.0
C2352 C 0.07909 0.89488 0.22236 0.0
C2353 C 0.06658 0.88095 0.2204 0.0
C2354 C 0.04812 0.88423 0.22122 0.0
H2355 H 0.01273 0.91257 0.25594 0.0
H2356 H 0.03207 0.90102 0.24948 0.0
H2357 H 0.02957 0.92481 0.24723 0.0
H2358 H 0.04934 0.92895 0.22827 0.0
H2359 H 0.08195 0.9232 0.22688 0.0
H2360 H 0.33322 0.67766 0.48107 0.0
H2361 H 0.32681 0.71001 0.48351 0.0
H2362 H 0.37918 0.72262 0.46834 0.0
H2363 H 0.38556 0.69067 0.46579 0.0
H2364 H 0.34541 0.73742 0.49707 0.0
H2365 H 0.34498 0.75155 0.44575 0.0
H2366 H 0.34345 0.729 0.45203 0.0
H2367 H 0.36498 0.73995 0.45066 0.0
C2368 C 0.34334 0.68737 0.47828 0.0
C2369 C 0.35983 0.6816 0.47314 0.0
C2370 C 0.33967 0.70582 0.47968 0.0
C2371 C 0.35239 0.71875 0.47588 0.0
C2372 C 0.369 0.71294 0.47107 0.0
H2373 H 0.37525 0.82821 0.49311 0.0
H2374 H 0.37006 0.7958 0.49374 0.0
C2375 C 0.37265 0.69462 0.46968 0.0
C2376 C 0.3486 0.73836 0.47686 0.0
H2377 H 0.34903 0.77699 0.45941 0.0
C2378 C 0.34591 0.74608 0.48883 0.0
C2379 C 0.3489 0.74964 0.46609 0.0
C2380 C 0.35054 0.7421 0.45289 0.0
C2381 C 0.34455 0.76486 0.49037 0.0
C2382 C 0.34624 0.77622 0.47968 0.0
C2383 C 0.34791 0.76838 0.46765 0.0
C2384 C 0.34758 0.7962 0.48071 0.0
C2385 C 0.34142 0.77231 0.50344 0.0
C2386 C 0.33671 0.80739 0.47317 0.0
C2387 C 0.33981 0.82598 0.47267 0.0
C2388 C 0.35389 0.83376 0.47969 0.0
C2389 C 0.3642 0.82268 0.48767 0.0
C2390 C 0.36116 0.8041 0.48811 0.0
H2391 H 0.33413 0.76247 0.50947 0.0
H2392 H 0.35461 0.77505 0.50798 0.0
H2393 H 0.33359 0.78503 0.50314 0.0
H2394 H 0.3262 0.80164 0.46733 0.0
H2395 H 0.33168 0.83412 0.46639 0.0
H2396 H 0.42809 0.07739 0.71762 0.0
H2397 H 0.46056 0.07165 0.71896 0.0
H2398 H 0.46548 0.11287 0.74745 0.0
H2399 H 0.43313 0.11854 0.74624 0.0
H2400 H 0.48631 0.09716 0.71329 0.0
H2401 H 0.49646 0.0728 0.7622 0.0
H2402 H 0.47462 0.07304 0.75467 0.0
H2403 H 0.48371 0.09331 0.76146 0.0
C2404 C 0.43602 0.0849 0.7244 0.0
C2405 C 0.42802 0.0984 0.73184 0.0
C2406 C 0.45459 0.08165 0.72512 0.0
C2407 C 0.46548 0.09168 0.7334 0.0
C2408 C 0.45736 0.10467 0.74119 0.0
H2409 H 0.57616 0.11955 0.74419 0.0
H2410 H 0.54391 0.11349 0.746 0.0
C2411 C 0.43884 0.10797 0.74044 0.0
C2412 C 0.48546 0.09001 0.73298 0.0
H2413 H 0.52274 0.08366 0.75143 0.0
C2414 C 0.49428 0.0939 0.72157 0.0
C2415 C 0.49586 0.08589 0.74381 0.0
C2416 C 0.48718 0.08085 0.7562 0.0
C2417 C 0.51316 0.09459 0.72082 0.0
C2418 C 0.5236 0.09085 0.73173 0.0
C2419 C 0.51477 0.08649 0.74307 0.0
C2420 C 0.54358 0.09266 0.73171 0.0
C2421 C 0.52173 0.10019 0.7085 0.0
C2422 C 0.55432 0.08245 0.72344 0.0
C2423 C 0.57281 0.08594 0.72235 0.0
C2424 C 0.58092 0.09959 0.7296 0.0
C2425 C 0.57034 0.10895 0.73846 0.0
C2426 C 0.55187 0.10551 0.7395 0.0
H2427 H 0.51186 0.10657 0.702 0.0
H2428 H 0.53294 0.10979 0.71015 0.0
H2429 H 0.5273 0.08813 0.7037 0.0
H2430 H 0.54831 0.07217 0.71754 0.0
H2431 H 0.58058 0.07844 0.71548 0.0
H2432 H 0.84283 0.33299 0.98755 0.0
H2433 H 0.83932 0.30035 0.99099 0.0
H2434 H 0.87677 0.28983 0.96078 0.0
H2435 H 0.88028 0.32205 0.95725 0.0
H2436 H 0.82997 0.27111 0.97085 0.0
H2437 H 0.89669 0.26387 0.99396 0.0
H2438 H 0.88465 0.28501 0.99339 0.0
H2439 H 0.89664 0.2771 0.97973 0.0
C2440 C 0.85022 0.32368 0.98162 0.0
C2441 C 0.86189 0.33012 0.97216 0.0
C2442 C 0.84819 0.30508 0.98358 0.0
C2443 C 0.85792 0.29272 0.97621 0.0
C2444 C 0.86927 0.29915 0.96664 0.0
H2445 H 0.88453 0.18557 0.96048 0.0
H2446 H 0.88015 0.21779 0.9633 0.0
C2447 C 0.87122 0.3176 0.96464 0.0
C2448 C 0.85678 0.27302 0.97844 0.0
H2449 H 0.88313 0.237 0.98613 0.0
C2450 C 0.8414 0.2636 0.97445 0.0
C2451 C 0.87172 0.26331 0.98313 0.0
C2452 C 0.88834 0.2728 0.98791 0.0
C2453 C 0.84106 0.24463 0.97428 0.0
C2454 C 0.85642 0.23493 0.97835 0.0
C2455 C 0.87138 0.24443 0.98297 0.0
C2456 C 0.85818 0.21513 0.97658 0.0
C2457 C 0.82474 0.23512 0.96906 0.0
C2458 C 0.84722 0.20279 0.9831 0.0
C2459 C 0.8497 0.18417 0.98147 0.0
C2460 C 0.86321 0.17764 0.97335 0.0
C2461 C 0.87401 0.19009 0.96682 0.0
C2462 C 0.87154 0.20856 0.96843 0.0
H2463 H 0.81506 0.24461 0.96461 0.0
H2464 H 0.82882 0.22493 0.96193 0.0
H2465 H 0.81772 0.22798 0.97683 0.0
H2466 H 0.83698 0.20755 0.98957 0.0
H2467 H 0.84121 0.17491 0.98667 0.0
H2468 H 0.62056 0.82231 0.46917 0.0
H2469 H 0.62658 0.79013 0.47043 0.0
H2470 H 0.68116 0.80093 0.48201 0.0
H2471 H 0.67522 0.83354 0.48075 0.0
H2472 H 0.65661 0.77236 0.45594 0.0
H2473 H 0.65912 0.76246 0.50814 0.0
H2474 H 0.64699 0.78111 0.50123 0.0
H2475 H 0.6711 0.781 0.50105 0.0
C2476 C 0.63384 0.81793 0.47208 0.0
C2477 C 0.64743 0.83052 0.47484 0.0
C2478 C 0.63725 0.7995 0.47279 0.0
C2479 C 0.65427 0.79314 0.47635 0.0
C2480 C 0.66787 0.80559 0.47934 0.0
H2481 H 0.67403 0.67528 0.48139 0.0
H2482 H 0.67991 0.70789 0.48282 0.0
C2483 C 0.66447 0.82418 0.4786 0.0
C2484 C 0.65763 0.77344 0.47625 0.0
H2485 H 0.65893 0.73643 0.49542 0.0
C2486 C 0.65746 0.76452 0.46456 0.0
C2487 C 0.65884 0.76326 0.4875 0.0
C2488 C 0.659 0.77232 0.50025 0.0
C2489 C 0.65765 0.74566 0.46384 0.0
C2490 C 0.65764 0.73541 0.47511 0.0
C2491 C 0.65888 0.74431 0.4868 0.0
C2492 C 0.65423 0.7157 0.47486 0.0
C2493 C 0.65732 0.73684 0.451 0.0
C2494 C 0.63774 0.70934 0.47021 0.0
C2495 C 0.63437 0.69091 0.46941 0.0
C2496 C 0.64738 0.67832 0.4733 0.0
C2497 C 0.66377 0.68466 0.47828 0.0
C2498 C 0.66714 0.70325 0.47911 0.0
H2499 H 0.66283 0.7459 0.4436 0.0
H2500 H 0.66516 0.72411 0.45099 0.0
H2501 H 0.64319 0.73364 0.44843 0.0
H2502 H 0.62746 0.7187 0.4671 0.0
H2503 H 0.62155 0.68654 0.46561 0.0
H2504 H 0.8453 0.68293 0.04239 0.0
H2505 H 0.84129 0.71516 0.03908 0.0
H2506 H 0.8474 0.70768 0.99889 0.0
H2507 H 0.85171 0.67525 0.00219 0.0
H2508 H 0.86969 0.73339 0.00784 0.0
H2509 H 0.80127 0.74683 0.02594 0.0
H2510 H 0.8144 0.73443 0.03718 0.0
H2511 H 0.80898 0.72441 0.02215 0.0
C2512 C 0.84539 0.68805 0.03281 0.0
C2513 C 0.84882 0.67651 0.02255 0.0
C2514 C 0.84297 0.70652 0.03092 0.0
C2515 C 0.84378 0.71389 0.01872 0.0
C2516 C 0.84657 0.7023 0.00839 0.0
H2517 H 0.83495 0.83269 0.01086 0.0
H2518 H 0.82895 0.80043 0.00734 0.0
C2519 C 0.84898 0.68376 0.01027 0.0
C2520 C 0.84381 0.7338 0.01703 0.0
H2521 H 0.82179 0.77225 0.02587 0.0
C2522 C 0.85902 0.74185 0.01155 0.0
C2523 C 0.82983 0.74494 0.02172 0.0
C2524 C 0.81262 0.73719 0.02695 0.0
C2525 C 0.86116 0.76063 0.01138 0.0
C2526 C 0.84786 0.7717 0.01698 0.0
C2527 C 0.8321 0.76376 0.02171 0.0
C2528 C 0.85097 0.79124 0.01908 0.0
C2529 C 0.87792 0.76847 0.0055 0.0
C2530 C 0.86506 0.79671 0.02701 0.0
C2531 C 0.86843 0.81495 0.02906 0.0
C2532 C 0.85776 0.82823 0.02325 0.0
C2533 C 0.84343 0.82278 0.01544 0.0
C2534 C 0.83999 0.80439 0.01342 0.0
H2535 H 0.88392 0.75913 0.99846 0.0
H2536 H 0.87499 0.78151 0.0008 0.0
H2537 H 0.88808 0.77088 0.013 0.0
H2538 H 0.87349 0.78682 0.03166 0.0
H2539 H 0.87952 0.81864 0.03519 0.0
H2540 H 0.67637 0.33219 0.5339 0.0
H2541 H 0.68192 0.29982 0.53147 0.0
H2542 H 0.63319 0.29485 0.50956 0.0
H2543 H 0.62782 0.32709 0.51171 0.0
H2544 H 0.66088 0.27323 0.54023 0.0
H2545 H 0.66701 0.26516 0.48853 0.0
H2546 H 0.66829 0.28688 0.49613 0.0
H2547 H 0.64675 0.27687 0.49267 0.0
C2548 C 0.66708 0.32425 0.52832 0.0
C2549 C 0.6517 0.33223 0.52295 0.0
C2550 C 0.67023 0.30574 0.52697 0.0
C2551 C 0.65813 0.29486 0.52017 0.0
C2552 C 0.64301 0.30294 0.51456 0.0
H2553 H 0.62476 0.18607 0.51392 0.0
H2554 H 0.63074 0.2183 0.51217 0.0
C2555 C 0.63989 0.32142 0.51586 0.0
C2556 C 0.66025 0.27491 0.51992 0.0
H2557 H 0.65925 0.23837 0.50026 0.0
C2558 C 0.6609 0.26562 0.53148 0.0
C2559 C 0.66027 0.26492 0.50851 0.0
C2560 C 0.66073 0.274 0.49577 0.0
C2561 C 0.66057 0.24671 0.53196 0.0
C2562 C 0.65978 0.23676 0.52056 0.0
C2563 C 0.65981 0.246 0.50899 0.0
C2564 C 0.65728 0.21689 0.52053 0.0
C2565 C 0.66012 0.23752 0.54467 0.0
C2566 C 0.67046 0.20526 0.52546 0.0
C2567 C 0.66709 0.18672 0.52643 0.0
C2568 C 0.65048 0.17955 0.5225 0.0
C2569 C 0.63768 0.19115 0.51707 0.0
C2570 C 0.64107 0.2096 0.51605 0.0
H2571 H 0.65775 0.24718 0.55252 0.0
H2572 H 0.64942 0.22709 0.5449 0.0
H2573 H 0.67322 0.23074 0.54637 0.0
H2574 H 0.68317 0.21057 0.52882 0.0
H2575 H 0.67722 0.17813 0.53067 0.0
H2576 H 0.92417 0.41457 0.75908 0.0
H2577 H 0.95675 0.41811 0.75534 0.0
H2578 H 0.96791 0.38958 0.78993 0.0
H2579 H 0.93577 0.38597 0.79369 0.0
H2580 H 0.98557 0.43345 0.77213 0.0
H2581 H 0.99469 0.36096 0.76156 0.0
H2582 H 0.97299 0.37192 0.76087 0.0
H2583 H 0.98226 0.36512 0.77582 0.0
C2584 C 0.93361 0.40919 0.76591 0.0
C2585 C 0.92739 0.39986 0.77663 0.0
C2586 C 0.95218 0.41122 0.76376 0.0
C2587 C 0.96473 0.40386 0.77226 0.0
C2588 C 0.95847 0.39512 0.78315 0.0
H2589 H 0.07191 0.39018 0.7937 0.0
H2590 H 0.03964 0.39396 0.79043 0.0
C2591 C 0.94006 0.39311 0.78529 0.0
C2592 C 0.98442 0.40468 0.76986 0.0
H2593 H 0.02124 0.37738 0.76731 0.0
C2594 C 0.99339 0.42128 0.77077 0.0
C2595 C 0.99458 0.38878 0.76804 0.0
C2596 C 0.98565 0.37069 0.76639 0.0
C2597 C 0.01235 0.42218 0.77075 0.0
C2598 C 0.02246 0.40611 0.76975 0.0
C2599 C 0.01345 0.38968 0.76813 0.0
C2600 C 0.04221 0.40564 0.77182 0.0
C2601 C 0.02153 0.44008 0.77252 0.0
C2602 C 0.05443 0.41118 0.76246 0.0
C2603 C 0.07305 0.40899 0.76429 0.0
C2604 C 0.07965 0.4012 0.7755 0.0
C2605 C 0.06732 0.3962 0.78495 0.0
C2606 C 0.04884 0.39834 0.78311 0.0
H2607 H 0.01175 0.45132 0.77351 0.0
H2608 H 0.03019 0.43966 0.78107 0.0
H2609 H 0.03039 0.44285 0.7643 0.0
H2610 H 0.04955 0.41672 0.75364 0.0
H2611 H 0.08222 0.41292 0.75683 0.0
H2612 H 0.43315 0.63244 0.25831 0.0
H2613 H 0.46572 0.62835 0.25695 0.0
H2614 H 0.46184 0.58056 0.27989 0.0
H2615 H 0.42907 0.58448 0.28117 0.0
H2616 H 0.48781 0.62901 0.27808 0.0
H2617 H 0.49671 0.56487 0.25178 0.0
H2618 H 0.47586 0.57742 0.25154 0.0
H2619 H 0.48159 0.5639 0.26503 0.0
C2620 C 0.43915 0.62083 0.26284 0.0
C2621 C 0.42851 0.60878 0.26985 0.0
C2622 C 0.4578 0.61853 0.26208 0.0
C2623 C 0.46627 0.6041 0.26825 0.0
C2624 C 0.45561 0.59162 0.27486 0.0
H2625 H 0.58064 0.58436 0.28356 0.0
H2626 H 0.54781 0.58123 0.28177 0.0
C2627 C 0.43688 0.5939 0.27561 0.0
C2628 C 0.48629 0.60331 0.26875 0.0
H2629 H 0.52302 0.57804 0.26055 0.0
C2630 C 0.49548 0.61788 0.2742 0.0
C2631 C 0.49632 0.58868 0.26383 0.0
C2632 C 0.48718 0.57287 0.25762 0.0
C2633 C 0.51435 0.61829 0.27485 0.0
C2634 C 0.52443 0.60389 0.26968 0.0
C2635 C 0.51528 0.58911 0.26443 0.0
C2636 C 0.54446 0.60429 0.26951 0.0
C2637 C 0.52336 0.6341 0.28121 0.0
C2638 C 0.55354 0.61785 0.26284 0.0
C2639 C 0.57222 0.61968 0.26386 0.0
C2640 C 0.58226 0.60789 0.2715 0.0
C2641 C 0.57329 0.59365 0.2776 0.0
C2642 C 0.55453 0.59186 0.27659 0.0
H2643 H 0.51391 0.6415 0.28749 0.0
H2644 H 0.53512 0.62966 0.2869 0.0
H2645 H 0.52822 0.64362 0.27389 0.0
H2646 H 0.54608 0.62741 0.25715 0.0
H2647 H 0.57871 0.63073 0.25898 0.0
H2648 H 0.43521 0.39472 0.70255 0.0
H2649 H 0.46715 0.39984 0.70632 0.0
H2650 H 0.45681 0.40611 0.74619 0.0
H2651 H 0.42459 0.40054 0.74248 0.0
H2652 H 0.48586 0.42812 0.71637 0.0
H2653 H 0.49498 0.36685 0.74598 0.0
H2654 H 0.47477 0.37082 0.73694 0.0
H2655 H 0.47854 0.38278 0.75146 0.0
C2656 C 0.43966 0.39729 0.71213 0.0
C2657 C 0.42735 0.3971 0.72223 0.0
C2658 C 0.45797 0.40025 0.71427 0.0
C2659 C 0.46449 0.40308 0.72656 0.0
C2660 C 0.45217 0.40358 0.73665 0.0
H2661 H 0.58135 0.4057 0.74406 0.0
H2662 H 0.54874 0.41051 0.74669 0.0
C2663 C 0.43374 0.40054 0.73451 0.0
C2664 C 0.48426 0.40498 0.72857 0.0
H2665 H 0.52091 0.38349 0.74108 0.0
C2666 C 0.49348 0.4185 0.72192 0.0
C2667 C 0.49426 0.39246 0.73585 0.0
C2668 C 0.48522 0.37731 0.74291 0.0
C2669 C 0.51238 0.41941 0.72194 0.0
C2670 C 0.52238 0.40639 0.7287 0.0
C2671 C 0.5132 0.39347 0.73592 0.0
C2672 C 0.5422 0.40467 0.72719 0.0
C2673 C 0.52154 0.43403 0.71444 0.0
C2674 C 0.54928 0.39974 0.7154 0.0
C2675 C 0.56774 0.39686 0.71392 0.0
C2676 C 0.57959 0.3989 0.72418 0.0
C2677 C 0.57256 0.40415 0.73597 0.0
C2678 C 0.55396 0.40685 0.73748 0.0
H2679 H 0.51245 0.44568 0.71284 0.0
H2680 H 0.5339 0.4388 0.71931 0.0
H2681 H 0.5255 0.42859 0.70507 0.0
H2682 H 0.54045 0.3977 0.70738 0.0
H2683 H 0.5727 0.39279 0.70472 0.0
H2684 H 0.92727 0.58158 0.22299 0.0
H2685 H 0.95973 0.57624 0.22594 0.0
H2686 H 0.96827 0.6333 0.23028 0.0
H2687 H 0.93616 0.63869 0.22741 0.0
H2688 H 0.98787 0.59043 0.21072 0.0
H2689 H 0.99575 0.61216 0.2604 0.0
H2690 H 0.97414 0.60646 0.25366 0.0
H2691 H 0.98381 0.62835 0.25102 0.0
C2692 C 0.93607 0.59293 0.22477 0.0
C2693 C 0.92914 0.61055 0.22501 0.0
C2694 C 0.9546 0.58987 0.22641 0.0
C2695 C 0.96641 0.60435 0.22851 0.0
C2696 C 0.95941 0.62188 0.22894 0.0
H2697 H 0.07387 0.6393 0.22806 0.0
H2698 H 0.04177 0.63336 0.23029 0.0
C2699 C 0.94102 0.62495 0.22722 0.0
C2700 C 0.98621 0.60158 0.22945 0.0
H2701 H 0.02263 0.6124 0.24767 0.0
C2702 C 0.99549 0.59484 0.2189 0.0
C2703 C 0.99614 0.60733 0.24013 0.0
C2704 C 0.98694 0.61381 0.252 0.0
C2705 C 0.01444 0.59486 0.2184 0.0
C2706 C 0.02436 0.60153 0.22884 0.0
C2707 C 0.01505 0.60735 0.23965 0.0
C2708 C 0.04417 0.60449 0.22821 0.0
C2709 C 0.02366 0.5888 0.20643 0.0
C2710 C 0.05635 0.59018 0.22656 0.0
C2711 C 0.07488 0.59356 0.22527 0.0
C2712 C 0.08148 0.6113 0.22564 0.0
C2713 C 0.06927 0.62548 0.22769 0.0
C2714 C 0.05087 0.6221 0.22899 0.0
H2715 H 0.01401 0.58695 0.19851 0.0
H2716 H 0.03404 0.59872 0.20351 0.0
H2717 H 0.03051 0.57576 0.20815 0.0
H2718 H 0.05153 0.57644 0.22614 0.0
H2719 H 0.08395 0.58236 0.22372 0.0
loop_
_geom_bond_atom_site_label_1
_geom_bond_atom_site_label_2
_geom_bond_distance
_geom_bond_site_symmetry_2
_ccdc_geom_bond_type
In0 O1 2.294 . S
In0 O2 2.326 . S
In0 O6 2.266 . S
In0 O7 2.326 . S
In0 O8 2.266 . S
In0 O9 2.326 . S
In0 O11 2.294 . S
In0 O12 2.326 . S
O1 In0 2.294 . S
O1 C10 1.240 . S
O2 In0 2.326 . S
O2 C10 1.252 . S
C3 O6 1.252 . S
C3 O7 1.260 . S
C4 O11 1.240 . S
C4 O12 1.252 . S
C5 O8 1.252 . S
C5 O9 1.260 . S
O6 In0 2.266 . S
O6 C3 1.252 . S
O7 In0 2.326 . S
O7 C3 1.260 . S
O8 In0 2.266 . S
O8 C5 1.252 . S
O9 In0 2.326 . S
O9 C5 1.260 . S
C10 O1 1.240 . S
C10 O2 1.252 . S
O11 In0 2.294 . S
O11 C4 1.240 . S
O12 In0 2.326 . S
O12 C4 1.252 . S
In13 O14 2.294 . S
In13 O15 2.326 . S
In13 O19 2.266 . S
In13 O20 2.326 . S
In13 O21 2.266 . S
In13 O22 2.326 . S
In13 O24 2.294 . S
In13 O25 2.326 . S
O14 In13 2.294 . S
O14 C23 1.240 . S
O15 In13 2.326 . S
O15 C23 1.252 . S
C16 O19 1.252 . S
C16 O20 1.260 . S
C17 O24 1.240 . S
C17 O25 1.252 . S
C18 O21 1.252 . S
C18 O22 1.260 . S
O19 In13 2.266 . S
O19 C16 1.252 . S
O20 In13 2.326 . S
O20 C16 1.260 . S
O21 In13 2.266 . S
O21 C18 1.252 . S
O22 In13 2.326 . S
O22 C18 1.260 . S
C23 O14 1.240 . S
C23 O15 1.252 . S
O24 In13 2.294 . S
O24 C17 1.240 . S
O25 In13 2.326 . S
O25 C17 1.252 . S
In26 O27 2.294 . S
In26 O28 2.326 . S
In26 O32 2.266 . S
In26 O33 2.326 . S
In26 O34 2.266 . S
In26 O35 2.326 . S
In26 O37 2.294 . S
In26 O38 2.326 . S
O27 In26 2.294 . S
O27 C36 1.240 . S
O28 In26 2.326 . S
O28 C36 1.252 . S
C29 O32 1.252 . S
C29 O33 1.260 . S
C30 O37 1.240 . S
C30 O38 1.252 . S
C31 O34 1.252 . S
C31 O35 1.260 . S
O32 In26 2.266 . S
O32 C29 1.252 . S
O33 In26 2.326 . S
O33 C29 1.260 . S
O34 In26 2.266 . S
O34 C31 1.252 . S
O35 In26 2.326 . S
O35 C31 1.260 . S
C36 O27 1.240 . S
C36 O28 1.252 . S
O37 In26 2.294 . S
O37 C30 1.240 . S
O38 In26 2.326 . S
O38 C30 1.252 . S
In39 O40 2.294 . S
In39 O41 2.326 . S
In39 O45 2.266 . S
In39 O46 2.326 . S
In39 O47 2.266 . S
In39 O48 2.326 . S
In39 O50 2.294 . S
In39 O51 2.326 . S
O40 In39 2.294 . S
O40 C49 1.240 . S
O41 In39 2.326 . S
O41 C49 1.252 . S
C42 O45 1.252 . S
C42 O46 1.260 . S
C43 O50 1.240 . S
C43 O51 1.252 . S
C44 O47 1.252 . S
C44 O48 1.260 . S
O45 In39 2.266 . S
O45 C42 1.252 . S
O46 In39 2.326 . S
O46 C42 1.260 . S
O47 In39 2.266 . S
O47 C44 1.252 . S
O48 In39 2.326 . S
O48 C44 1.260 . S
C49 O40 1.240 . S
C49 O41 1.252 . S
O50 In39 2.294 . S
O50 C43 1.240 . S
O51 In39 2.326 . S
O51 C43 1.252 . S
In52 O53 2.294 . S
In52 O54 2.326 . S
In52 O58 2.266 . S
In52 O59 2.326 . S
In52 O60 2.266 . S
In52 O61 2.326 . S
In52 O63 2.294 . S
In52 O64 2.326 . S
O53 In52 2.294 . S
O53 C62 1.240 . S
O54 In52 2.326 . S
O54 C62 1.252 . S
C55 O58 1.252 . S
C55 O59 1.260 . S
C56 O63 1.240 . S
C56 O64 1.252 . S
C57 O60 1.252 . S
C57 O61 1.260 . S
O58 In52 2.266 . S
O58 C55 1.252 . S
O59 In52 2.326 . S
O59 C55 1.260 . S
O60 In52 2.266 . S
O60 C57 1.252 . S
O61 In52 2.326 . S
O61 C57 1.260 . S
C62 O53 1.240 . S
C62 O54 1.252 . S
O63 In52 2.294 . S
O63 C56 1.240 . S
O64 In52 2.326 . S
O64 C56 1.252 . S
In65 O66 2.294 . S
In65 O67 2.326 . S
In65 O71 2.266 . S
In65 O72 2.326 . S
In65 O73 2.266 . S
In65 O74 2.326 . S
In65 O76 2.294 . S
In65 O77 2.326 . S
O66 In65 2.294 . S
O66 C75 1.240 . S
O67 In65 2.326 . S
O67 C75 1.252 . S
C68 O71 1.252 . S
C68 O72 1.260 . S
C69 O76 1.240 . S
C69 O77 1.252 . S
C70 O73 1.252 . S
C70 O74 1.260 . S
O71 In65 2.266 . S
O71 C68 1.252 . S
O72 In65 2.326 . S
O72 C68 1.260 . S
O73 In65 2.266 . S
O73 C70 1.252 . S
O74 In65 2.326 . S
O74 C70 1.260 . S
C75 O66 1.240 . S
C75 O67 1.252 . S
O76 In65 2.294 . S
O76 C69 1.240 . S
O77 In65 2.326 . S
O77 C69 1.252 . S
In78 O79 2.294 . S
In78 O80 2.326 . S
In78 O84 2.266 . S
In78 O85 2.326 . S
In78 O86 2.266 . S
In78 O87 2.326 . S
In78 O89 2.294 . S
In78 O90 2.326 . S
O79 In78 2.294 . S
O79 C88 1.240 . S
O80 In78 2.326 . S
O80 C88 1.252 . S
C81 O84 1.252 . S
C81 O85 1.260 . S
C82 O89 1.240 . S
C82 O90 1.252 . S
C83 O86 1.252 . S
C83 O87 1.260 . S
O84 In78 2.266 . S
O84 C81 1.252 . S
O85 In78 2.326 . S
O85 C81 1.260 . S
O86 In78 2.266 . S
O86 C83 1.252 . S
O87 In78 2.326 . S
O87 C83 1.260 . S
C88 O79 1.240 . S
C88 O80 1.252 . S
O89 In78 2.294 . S
O89 C82 1.240 . S
O90 In78 2.326 . S
O90 C82 1.252 . S
In91 O92 2.294 . S
In91 O93 2.326 . S
In91 O97 2.266 . S
In91 O98 2.326 . S
In91 O99 2.266 . S
In91 O100 2.326 . S
In91 O102 2.294 . S
In91 O103 2.326 . S
O92 In91 2.294 . S
O92 C101 1.240 . S
O93 In91 2.326 . S
O93 C101 1.252 . S
C94 O97 1.252 . S
C94 O98 1.260 . S
C95 O102 1.240 . S
C95 O103 1.252 . S
C96 O99 1.252 . S
C96 O100 1.260 . S
O97 In91 2.266 . S
O97 C94 1.252 . S
O98 In91 2.326 . S
O98 C94 1.260 . S
O99 In91 2.266 . S
O99 C96 1.252 . S
O100 In91 2.326 . S
O100 C96 1.260 . S
C101 O92 1.240 . S
C101 O93 1.252 . S
O102 In91 2.294 . S
O102 C95 1.240 . S
O103 In91 2.326 . S
O103 C95 1.252 . S
In104 O105 2.294 . S
In104 O106 2.326 . S
In104 O110 2.266 . S
In104 O111 2.326 . S
In104 O112 2.266 . S
In104 O113 2.326 . S
In104 O115 2.294 . S
In104 O116 2.326 . S
O105 In104 2.294 . S
O105 C114 1.240 . S
O106 In104 2.326 . S
O106 C114 1.252 . S
C107 O110 1.252 . S
C107 O111 1.260 . S
C108 O115 1.240 . S
C108 O116 1.252 . S
C109 O112 1.252 . S
C109 O113 1.260 . S
O110 In104 2.266 . S
O110 C107 1.252 . S
O111 In104 2.326 . S
O111 C107 1.260 . S
O112 In104 2.266 . S
O112 C109 1.252 . S
O113 In104 2.326 . S
O113 C109 1.260 . S
C114 O105 1.240 . S
C114 O106 1.252 . S
O115 In104 2.294 . S
O115 C108 1.240 . S
O116 In104 2.326 . S
O116 C108 1.252 . S
In117 O118 2.294 . S
In117 O119 2.326 . S
In117 O123 2.266 . S
In117 O124 2.326 . S
In117 O125 2.266 . S
In117 O126 2.326 . S
In117 O128 2.294 . S
In117 O129 2.326 . S
O118 In117 2.294 . S
O118 C127 1.240 . S
O119 In117 2.326 . S
O119 C127 1.252 . S
C120 O123 1.252 . S
C120 O124 1.260 . S
C121 O128 1.240 . S
C121 O129 1.252 . S
C122 O125 1.252 . S
C122 O126 1.260 . S
O123 In117 2.266 . S
O123 C120 1.252 . S
O124 In117 2.326 . S
O124 C120 1.260 . S
O125 In117 2.266 . S
O125 C122 1.252 . S
O126 In117 2.326 . S
O126 C122 1.260 . S
C127 O118 1.240 . S
C127 O119 1.252 . S
O128 In117 2.294 . S
O128 C121 1.240 . S
O129 In117 2.326 . S
O129 C121 1.252 . S
In130 O131 2.294 . S
In130 O132 2.326 . S
In130 O136 2.266 . S
In130 O137 2.326 . S
In130 O138 2.266 . S
In130 O139 2.326 . S
In130 O141 2.294 . S
In130 O142 2.326 . S
O131 In130 2.294 . S
O131 C140 1.240 . S
O132 In130 2.326 . S
O132 C140 1.252 . S
C133 O136 1.252 . S
C133 O137 1.260 . S
C134 O141 1.240 . S
C134 O142 1.252 . S
C135 O138 1.252 . S
C135 O139 1.260 . S
O136 In130 2.266 . S
O136 C133 1.252 . S
O137 In130 2.326 . S
O137 C133 1.260 . S
O138 In130 2.266 . S
O138 C135 1.252 . S
O139 In130 2.326 . S
O139 C135 1.260 . S
C140 O131 1.240 . S
C140 O132 1.252 . S
O141 In130 2.294 . S
O141 C134 1.240 . S
O142 In130 2.326 . S
O142 C134 1.252 . S
In143 O144 2.294 . S
In143 O145 2.326 . S
In143 O149 2.266 . S
In143 O150 2.326 . S
In143 O151 2.266 . S
In143 O152 2.326 . S
In143 O154 2.294 . S
In143 O155 2.326 . S
O144 In143 2.294 . S
O144 C153 1.240 . S
O145 In143 2.326 . S
O145 C153 1.252 . S
C146 O149 1.252 . S
C146 O150 1.260 . S
C147 O154 1.240 . S
C147 O155 1.252 . S
C148 O151 1.252 . S
C148 O152 1.260 . S
O149 In143 2.266 . S
O149 C146 1.252 . S
O150 In143 2.326 . S
O150 C146 1.260 . S
O151 In143 2.266 . S
O151 C148 1.252 . S
O152 In143 2.326 . S
O152 C148 1.260 . S
C153 O144 1.240 . S
C153 O145 1.252 . S
O154 In143 2.294 . S
O154 C147 1.240 . S
O155 In143 2.326 . S
O155 C147 1.252 . S
In156 O157 2.294 . S
In156 O158 2.326 . S
In156 O162 2.266 . S
In156 O163 2.326 . S
In156 O164 2.266 . S
In156 O165 2.326 . S
In156 O167 2.294 . S
In156 O168 2.326 . S
O157 In156 2.294 . S
O157 C166 1.240 . S
O158 In156 2.326 . S
O158 C166 1.252 . S
C159 O162 1.252 . S
C159 O163 1.260 . S
C160 O167 1.240 . S
C160 O168 1.252 . S
C161 O164 1.252 . S
C161 O165 1.260 . S
O162 In156 2.266 . S
O162 C159 1.252 . S
O163 In156 2.326 . S
O163 C159 1.260 . S
O164 In156 2.266 . S
O164 C161 1.252 . S
O165 In156 2.326 . S
O165 C161 1.260 . S
C166 O157 1.240 . S
C166 O158 1.252 . S
O167 In156 2.294 . S
O167 C160 1.240 . S
O168 In156 2.326 . S
O168 C160 1.252 . S
In169 O170 2.294 . S
In169 O171 2.326 . S
In169 O175 2.266 . S
In169 O176 2.326 . S
In169 O177 2.266 . S
In169 O178 2.326 . S
In169 O180 2.294 . S
In169 O181 2.326 . S
O170 In169 2.294 . S
O170 C179 1.240 . S
O171 In169 2.326 . S
O171 C179 1.252 . S
C172 O175 1.252 . S
C172 O176 1.260 . S
C173 O180 1.240 . S
C173 O181 1.252 . S
C174 O177 1.252 . S
C174 O178 1.260 . S
O175 In169 2.266 . S
O175 C172 1.252 . S
O176 In169 2.326 . S
O176 C172 1.260 . S
O177 In169 2.266 . S
O177 C174 1.252 . S
O178 In169 2.326 . S
O178 C174 1.260 . S
C179 O170 1.240 . S
C179 O171 1.252 . S
O180 In169 2.294 . S
O180 C173 1.240 . S
O181 In169 2.326 . S
O181 C173 1.252 . S
In182 O183 2.294 . S
In182 O184 2.326 . S
In182 O188 2.266 . S
In182 O189 2.326 . S
In182 O190 2.266 . S
In182 O191 2.326 . S
In182 O193 2.294 . S
In182 O194 2.326 . S
O183 In182 2.294 . S
O183 C192 1.240 . S
O184 In182 2.326 . S
O184 C192 1.252 . S
C185 O188 1.252 . S
C185 O189 1.260 . S
C186 O193 1.240 . S
C186 O194 1.252 . S
C187 O190 1.252 . S
C187 O191 1.260 . S
O188 In182 2.266 . S
O188 C185 1.252 . S
O189 In182 2.326 . S
O189 C185 1.260 . S
O190 In182 2.266 . S
O190 C187 1.252 . S
O191 In182 2.326 . S
O191 C187 1.260 . S
C192 O183 1.240 . S
C192 O184 1.252 . S
O193 In182 2.294 . S
O193 C186 1.240 . S
O194 In182 2.326 . S
O194 C186 1.252 . S
In195 O196 2.294 . S
In195 O197 2.326 . S
In195 O201 2.266 . S
In195 O202 2.326 . S
In195 O203 2.266 . S
In195 O204 2.326 . S
In195 O206 2.294 . S
In195 O207 2.326 . S
O196 In195 2.294 . S
O196 C205 1.240 . S
O197 In195 2.326 . S
O197 C205 1.252 . S
C198 O201 1.252 . S
C198 O202 1.260 . S
C199 O206 1.240 . S
C199 O207 1.252 . S
C200 O203 1.252 . S
C200 O204 1.260 . S
O201 In195 2.266 . S
O201 C198 1.252 . S
O202 In195 2.326 . S
O202 C198 1.260 . S
O203 In195 2.266 . S
O203 C200 1.252 . S
O204 In195 2.326 . S
O204 C200 1.260 . S
C205 O196 1.240 . S
C205 O197 1.252 . S
O206 In195 2.294 . S
O206 C199 1.240 . S
O207 In195 2.326 . S
O207 C199 1.252 . S
In208 O209 2.294 . S
In208 O210 2.326 . S
In208 O214 2.266 . S
In208 O215 2.326 . S
In208 O216 2.266 . S
In208 O217 2.326 . S
In208 O219 2.294 . S
In208 O220 2.326 . S
O209 In208 2.294 . S
O209 C218 1.240 . S
O210 In208 2.326 . S
O210 C218 1.252 . S
C211 O214 1.252 . S
C211 O215 1.260 . S
C212 O219 1.240 . S
C212 O220 1.252 . S
C213 O216 1.252 . S
C213 O217 1.260 . S
O214 In208 2.266 . S
O214 C211 1.252 . S
O215 In208 2.326 . S
O215 C211 1.260 . S
O216 In208 2.266 . S
O216 C213 1.252 . S
O217 In208 2.326 . S
O217 C213 1.260 . S
C218 O209 1.240 . S
C218 O210 1.252 . S
O219 In208 2.294 . S
O219 C212 1.240 . S
O220 In208 2.326 . S
O220 C212 1.252 . S
In221 O222 2.294 . S
In221 O223 2.326 . S
In221 O227 2.266 . S
In221 O228 2.326 . S
In221 O229 2.266 . S
In221 O230 2.326 . S
In221 O232 2.294 . S
In221 O233 2.326 . S
O222 In221 2.294 . S
O222 C231 1.240 . S
O223 In221 2.326 . S
O223 C231 1.252 . S
C224 O227 1.252 . S
C224 O228 1.260 . S
C225 O232 1.240 . S
C225 O233 1.252 . S
C226 O229 1.252 . S
C226 O230 1.260 . S
O227 In221 2.266 . S
O227 C224 1.252 . S
O228 In221 2.326 . S
O228 C224 1.260 . S
O229 In221 2.266 . S
O229 C226 1.252 . S
O230 In221 2.326 . S
O230 C226 1.260 . S
C231 O222 1.240 . S
C231 O223 1.252 . S
O232 In221 2.294 . S
O232 C225 1.240 . S
O233 In221 2.326 . S
O233 C225 1.252 . S
In234 O235 2.294 . S
In234 O236 2.326 . S
In234 O240 2.266 . S
In234 O241 2.326 . S
In234 O242 2.266 . S
In234 O243 2.326 . S
In234 O245 2.294 . S
In234 O246 2.326 . S
O235 In234 2.294 . S
O235 C244 1.240 . S
O236 In234 2.326 . S
O236 C244 1.252 . S
C237 O240 1.252 . S
C237 O241 1.260 . S
C238 O245 1.240 . S
C238 O246 1.252 . S
C239 O242 1.252 . S
C239 O243 1.260 . S
O240 In234 2.266 . S
O240 C237 1.252 . S
O241 In234 2.326 . S
O241 C237 1.260 . S
O242 In234 2.266 . S
O242 C239 1.252 . S
O243 In234 2.326 . S
O243 C239 1.260 . S
C244 O235 1.240 . S
C244 O236 1.252 . S
O245 In234 2.294 . S
O245 C238 1.240 . S
O246 In234 2.326 . S
O246 C238 1.252 . S
In247 O248 2.294 . S
In247 O249 2.326 . S
In247 O253 2.266 . S
In247 O254 2.326 . S
In247 O255 2.266 . S
In247 O256 2.326 . S
In247 O258 2.294 . S
In247 O259 2.326 . S
O248 In247 2.294 . S
O248 C257 1.240 . S
O249 In247 2.326 . S
O249 C257 1.252 . S
C250 O253 1.252 . S
C250 O254 1.260 . S
C251 O258 1.240 . S
C251 O259 1.252 . S
C252 O255 1.252 . S
C252 O256 1.260 . S
O253 In247 2.266 . S
O253 C250 1.252 . S
O254 In247 2.326 . S
O254 C250 1.260 . S
O255 In247 2.266 . S
O255 C252 1.252 . S
O256 In247 2.326 . S
O256 C252 1.260 . S
C257 O248 1.240 . S
C257 O249 1.252 . S
O258 In247 2.294 . S
O258 C251 1.240 . S
O259 In247 2.326 . S
O259 C251 1.252 . S
In260 O261 2.294 . S
In260 O262 2.326 . S
In260 O266 2.266 . S
In260 O267 2.326 . S
In260 O268 2.266 . S
In260 O269 2.326 . S
In260 O271 2.294 . S
In260 O272 2.326 . S
O261 In260 2.294 . S
O261 C270 1.240 . S
O262 In260 2.326 . S
O262 C270 1.252 . S
C263 O266 1.252 . S
C263 O267 1.260 . S
C264 O271 1.240 . S
C264 O272 1.252 . S
C265 O268 1.252 . S
C265 O269 1.260 . S
O266 In260 2.266 . S
O266 C263 1.252 . S
O267 In260 2.326 . S
O267 C263 1.260 . S
O268 In260 2.266 . S
O268 C265 1.252 . S
O269 In260 2.326 . S
O269 C265 1.260 . S
C270 O261 1.240 . S
C270 O262 1.252 . S
O271 In260 2.294 . S
O271 C264 1.240 . S
O272 In260 2.326 . S
O272 C264 1.252 . S
In273 O274 2.294 . S
In273 O275 2.326 . S
In273 O279 2.266 . S
In273 O280 2.326 . S
In273 O281 2.266 . S
In273 O282 2.326 . S
In273 O284 2.294 . S
In273 O285 2.326 . S
O274 In273 2.294 . S
O274 C283 1.240 . S
O275 In273 2.326 . S
O275 C283 1.252 . S
C276 O279 1.252 . S
C276 O280 1.260 . S
C277 O284 1.240 . S
C277 O285 1.252 . S
C278 O281 1.252 . S
C278 O282 1.260 . S
O279 In273 2.266 . S
O279 C276 1.252 . S
O280 In273 2.326 . S
O280 C276 1.260 . S
O281 In273 2.266 . S
O281 C278 1.252 . S
O282 In273 2.326 . S
O282 C278 1.260 . S
C283 O274 1.240 . S
C283 O275 1.252 . S
O284 In273 2.294 . S
O284 C277 1.240 . S
O285 In273 2.326 . S
O285 C277 1.252 . S
In286 O287 2.294 . S
In286 O288 2.326 . S
In286 O292 2.266 . S
In286 O293 2.326 . S
In286 O294 2.266 . S
In286 O295 2.326 . S
In286 O297 2.294 . S
In286 O298 2.326 . S
O287 In286 2.294 . S
O287 C296 1.240 . S
O288 In286 2.326 . S
O288 C296 1.252 . S
C289 O292 1.252 . S
C289 O293 1.260 . S
C290 O297 1.240 . S
C290 O298 1.252 . S
C291 O294 1.252 . S
C291 O295 1.260 . S
O292 In286 2.266 . S
O292 C289 1.252 . S
O293 In286 2.326 . S
O293 C289 1.260 . S
O294 In286 2.266 . S
O294 C291 1.252 . S
O295 In286 2.326 . S
O295 C291 1.260 . S
C296 O287 1.240 . S
C296 O288 1.252 . S
O297 In286 2.294 . S
O297 C290 1.240 . S
O298 In286 2.326 . S
O298 C290 1.252 . S
In299 O300 2.294 . S
In299 O301 2.326 . S
In299 O305 2.266 . S
In299 O306 2.326 . S
In299 O307 2.266 . S
In299 O308 2.326 . S
In299 O310 2.294 . S
In299 O311 2.326 . S
O300 In299 2.294 . S
O300 C309 1.240 . S
O301 In299 2.326 . S
O301 C309 1.252 . S
C302 O305 1.252 . S
C302 O306 1.260 . S
C303 O310 1.240 . S
C303 O311 1.252 . S
C304 O307 1.252 . S
C304 O308 1.260 . S
O305 In299 2.266 . S
O305 C302 1.252 . S
O306 In299 2.326 . S
O306 C302 1.260 . S
O307 In299 2.266 . S
O307 C304 1.252 . S
O308 In299 2.326 . S
O308 C304 1.260 . S
C309 O300 1.240 . S
C309 O301 1.252 . S
O310 In299 2.294 . S
O310 C303 1.240 . S
O311 In299 2.326 . S
O311 C303 1.252 . S
In312 O313 2.294 . S
In312 O314 2.326 . S
In312 O318 2.266 . S
In312 O319 2.326 . S
In312 O320 2.266 . S
In312 O321 2.326 . S
In312 O323 2.294 . S
In312 O324 2.326 . S
O313 In312 2.294 . S
O313 C322 1.240 . S
O314 In312 2.326 . S
O314 C322 1.252 . S
C315 O318 1.252 . S
C315 O319 1.260 . S
C316 O323 1.240 . S
C316 O324 1.252 . S
C317 O320 1.252 . S
C317 O321 1.260 . S
O318 In312 2.266 . S
O318 C315 1.252 . S
O319 In312 2.326 . S
O319 C315 1.260 . S
O320 In312 2.266 . S
O320 C317 1.252 . S
O321 In312 2.326 . S
O321 C317 1.260 . S
C322 O313 1.240 . S
C322 O314 1.252 . S
O323 In312 2.294 . S
O323 C316 1.240 . S
O324 In312 2.326 . S
O324 C316 1.252 . S
In325 O326 2.294 . S
In325 O327 2.326 . S
In325 O331 2.266 . S
In325 O332 2.326 . S
In325 O333 2.266 . S
In325 O334 2.326 . S
In325 O336 2.294 . S
In325 O337 2.326 . S
O326 In325 2.294 . S
O326 C335 1.240 . S
O327 In325 2.326 . S
O327 C335 1.252 . S
C328 O331 1.252 . S
C328 O332 1.260 . S
C329 O336 1.240 . S
C329 O337 1.252 . S
C330 O333 1.252 . S
C330 O334 1.260 . S
O331 In325 2.266 . S
O331 C328 1.252 . S
O332 In325 2.326 . S
O332 C328 1.260 . S
O333 In325 2.266 . S
O333 C330 1.252 . S
O334 In325 2.326 . S
O334 C330 1.260 . S
C335 O326 1.240 . S
C335 O327 1.252 . S
O336 In325 2.294 . S
O336 C329 1.240 . S
O337 In325 2.326 . S
O337 C329 1.252 . S
In338 O339 2.294 . S
In338 O340 2.326 . S
In338 O344 2.266 . S
In338 O345 2.326 . S
In338 O346 2.266 . S
In338 O347 2.326 . S
In338 O349 2.294 . S
In338 O350 2.326 . S
O339 In338 2.294 . S
O339 C348 1.240 . S
O340 In338 2.326 . S
O340 C348 1.252 . S
C341 O344 1.252 . S
C341 O345 1.260 . S
C342 O349 1.240 . S
C342 O350 1.252 . S
C343 O346 1.252 . S
C343 O347 1.260 . S
O344 In338 2.266 . S
O344 C341 1.252 . S
O345 In338 2.326 . S
O345 C341 1.260 . S
O346 In338 2.266 . S
O346 C343 1.252 . S
O347 In338 2.326 . S
O347 C343 1.260 . S
C348 O339 1.240 . S
C348 O340 1.252 . S
O349 In338 2.294 . S
O349 C342 1.240 . S
O350 In338 2.326 . S
O350 C342 1.252 . S
In351 O352 2.294 . S
In351 O353 2.326 . S
In351 O357 2.266 . S
In351 O358 2.326 . S
In351 O359 2.266 . S
In351 O360 2.326 . S
In351 O362 2.294 . S
In351 O363 2.326 . S
O352 In351 2.294 . S
O352 C361 1.240 . S
O353 In351 2.326 . S
O353 C361 1.252 . S
C354 O357 1.252 . S
C354 O358 1.260 . S
C355 O362 1.240 . S
C355 O363 1.252 . S
C356 O359 1.252 . S
C356 O360 1.260 . S
O357 In351 2.266 . S
O357 C354 1.252 . S
O358 In351 2.326 . S
O358 C354 1.260 . S
O359 In351 2.266 . S
O359 C356 1.252 . S
O360 In351 2.326 . S
O360 C356 1.260 . S
C361 O352 1.240 . S
C361 O353 1.252 . S
O362 In351 2.294 . S
O362 C355 1.240 . S
O363 In351 2.326 . S
O363 C355 1.252 . S
In364 O365 2.294 . S
In364 O366 2.326 . S
In364 O370 2.266 . S
In364 O371 2.326 . S
In364 O372 2.266 . S
In364 O373 2.326 . S
In364 O375 2.294 . S
In364 O376 2.326 . S
O365 In364 2.294 . S
O365 C374 1.240 . S
O366 In364 2.326 . S
O366 C374 1.252 . S
C367 O370 1.252 . S
C367 O371 1.260 . S
C368 O375 1.240 . S
C368 O376 1.252 . S
C369 O372 1.252 . S
C369 O373 1.260 . S
O370 In364 2.266 . S
O370 C367 1.252 . S
O371 In364 2.326 . S
O371 C367 1.260 . S
O372 In364 2.266 . S
O372 C369 1.252 . S
O373 In364 2.326 . S
O373 C369 1.260 . S
C374 O365 1.240 . S
C374 O366 1.252 . S
O375 In364 2.294 . S
O375 C368 1.240 . S
O376 In364 2.326 . S
O376 C368 1.252 . S
In377 O378 2.294 . S
In377 O379 2.326 . S
In377 O383 2.266 . S
In377 O384 2.326 . S
In377 O385 2.266 . S
In377 O386 2.326 . S
In377 O388 2.294 . S
In377 O389 2.326 . S
O378 In377 2.294 . S
O378 C387 1.240 . S
O379 In377 2.326 . S
O379 C387 1.252 . S
C380 O383 1.252 . S
C380 O384 1.260 . S
C381 O388 1.240 . S
C381 O389 1.252 . S
C382 O385 1.252 . S
C382 O386 1.260 . S
O383 In377 2.266 . S
O383 C380 1.252 . S
O384 In377 2.326 . S
O384 C380 1.260 . S
O385 In377 2.266 . S
O385 C382 1.252 . S
O386 In377 2.326 . S
O386 C382 1.260 . S
C387 O378 1.240 . S
C387 O379 1.252 . S
O388 In377 2.294 . S
O388 C381 1.240 . S
O389 In377 2.326 . S
O389 C381 1.252 . S
In390 O391 2.294 . S
In390 O392 2.326 . S
In390 O396 2.266 . S
In390 O397 2.326 . S
In390 O398 2.266 . S
In390 O399 2.326 . S
In390 O401 2.294 . S
In390 O402 2.326 . S
O391 In390 2.294 . S
O391 C400 1.240 . S
O392 In390 2.326 . S
O392 C400 1.252 . S
C393 O396 1.252 . S
C393 O397 1.260 . S
C394 O401 1.240 . S
C394 O402 1.252 . S
C395 O398 1.252 . S
C395 O399 1.260 . S
O396 In390 2.266 . S
O396 C393 1.252 . S
O397 In390 2.326 . S
O397 C393 1.260 . S
O398 In390 2.266 . S
O398 C395 1.252 . S
O399 In390 2.326 . S
O399 C395 1.260 . S
C400 O391 1.240 . S
C400 O392 1.252 . S
O401 In390 2.294 . S
O401 C394 1.240 . S
O402 In390 2.326 . S
O402 C394 1.252 . S
In403 O404 2.294 . S
In403 O405 2.326 . S
In403 O409 2.266 . S
In403 O410 2.326 . S
In403 O411 2.266 . S
In403 O412 2.326 . S
In403 O414 2.294 . S
In403 O415 2.326 . S
O404 In403 2.294 . S
O404 C413 1.240 . S
O405 In403 2.326 . S
O405 C413 1.252 . S
C406 O409 1.252 . S
C406 O410 1.260 . S
C407 O414 1.240 . S
C407 O415 1.252 . S
C408 O411 1.252 . S
C408 O412 1.260 . S
O409 In403 2.266 . S
O409 C406 1.252 . S
O410 In403 2.326 . S
O410 C406 1.260 . S
O411 In403 2.266 . S
O411 C408 1.252 . S
O412 In403 2.326 . S
O412 C408 1.260 . S
C413 O404 1.240 . S
C413 O405 1.252 . S
O414 In403 2.294 . S
O414 C407 1.240 . S
O415 In403 2.326 . S
O415 C407 1.252 . S
H416 C424 0.929 . S
H417 C426 0.930 . S
H418 C428 0.930 . S
H419 C431 0.929 . S
H420 C434 0.930 . S
H421 C436 0.960 . S
H422 C436 0.960 . S
H423 C436 0.960 . S
C424 H416 0.929 . S
C424 C425 1.377 . S
C424 C426 1.384 . S
C425 C424 1.377 . S
C425 C431 1.390 . S
C426 H417 0.930 . S
C426 C424 1.384 . S
C426 C427 1.372 . S
C427 C426 1.372 . S
C427 C428 1.400 . S
C427 C432 1.490 . S
C428 H418 0.930 . S
C428 C427 1.400 . S
C428 C431 1.386 . S
H429 C445 0.930 . S
H430 C446 0.931 . S
C431 H419 0.929 . S
C431 C425 1.390 . S
C431 C428 1.386 . S
C432 C427 1.490 . S
C432 C434 1.395 . S
C432 C435 1.403 . S
H433 C439 0.930 . S
C434 H420 0.930 . S
C434 C432 1.395 . S
C434 C437 1.403 . S
C435 C432 1.403 . S
C435 C436 1.524 . S
C435 C439 1.400 . S
C436 H421 0.960 . S
C436 H422 0.960 . S
C436 H423 0.960 . S
C436 C435 1.524 . S
C437 C434 1.403 . S
C437 C438 1.392 . S
C437 C441 1.495 . S
C438 C437 1.392 . S
C438 C439 1.385 . S
C438 C440 1.478 . S
C439 H433 0.930 . S
C439 C435 1.400 . S
C439 C438 1.385 . S
C440 C438 1.478 . S
C440 C442 1.381 . S
C440 C446 1.383 . S
C441 C437 1.495 . S
C441 H447 0.959 . S
C441 H448 0.961 . S
C441 H449 0.960 . S
C442 C440 1.381 . S
C442 C443 1.394 . S
C442 H450 0.930 . S
C443 C442 1.394 . S
C443 C444 1.383 . S
C443 H451 0.929 . S
C444 C443 1.383 . S
C444 C445 1.377 . S
C445 H429 0.930 . S
C445 C444 1.377 . S
C445 C446 1.379 . S
C446 H430 0.931 . S
C446 C440 1.383 . S
C446 C445 1.379 . S
H447 C441 0.959 . S
H448 C441 0.961 . S
H449 C441 0.960 . S
H450 C442 0.930 . S
H451 C443 0.929 . S
H452 C460 0.929 . S
H453 C462 0.930 . S
H454 C464 0.930 . S
H455 C467 0.929 . S
H456 C470 0.930 . S
H457 C472 0.960 . S
H458 C472 0.960 . S
H459 C472 0.960 . S
C460 H452 0.929 . S
C460 C461 1.377 . S
C460 C462 1.384 . S
C461 C460 1.377 . S
C461 C467 1.390 . S
C462 H453 0.930 . S
C462 C460 1.384 . S
C462 C463 1.372 . S
C463 C462 1.372 . S
C463 C464 1.400 . S
C463 C468 1.490 . S
C464 H454 0.930 . S
C464 C463 1.400 . S
C464 C467 1.386 . S
H465 C481 0.930 . S
H466 C482 0.931 . S
C467 H455 0.929 . S
C467 C461 1.390 . S
C467 C464 1.386 . S
C468 C463 1.490 . S
C468 C470 1.395 . S
C468 C471 1.403 . S
H469 C475 0.930 . S
C470 H456 0.930 . S
C470 C468 1.395 . S
C470 C473 1.403 . S
C471 C468 1.403 . S
C471 C472 1.524 . S
C471 C475 1.400 . S
C472 H457 0.960 . S
C472 H458 0.960 . S
C472 H459 0.960 . S
C472 C471 1.524 . S
C473 C470 1.403 . S
C473 C474 1.392 . S
C473 C477 1.495 . S
C474 C473 1.392 . S
C474 C475 1.385 . S
C474 C476 1.478 . S
C475 H469 0.930 . S
C475 C471 1.400 . S
C475 C474 1.385 . S
C476 C474 1.478 . S
C476 C478 1.381 . S
C476 C482 1.383 . S
C477 C473 1.495 . S
C477 H483 0.959 . S
C477 H484 0.961 . S
C477 H485 0.960 . S
C478 C476 1.381 . S
C478 C479 1.394 . S
C478 H486 0.930 . S
C479 C478 1.394 . S
C479 C480 1.383 . S
C479 H487 0.929 . S
C480 C479 1.383 . S
C480 C481 1.377 . S
C481 H465 0.930 . S
C481 C480 1.377 . S
C481 C482 1.379 . S
C482 H466 0.931 . S
C482 C476 1.383 . S
C482 C481 1.379 . S
H483 C477 0.959 . S
H484 C477 0.961 . S
H485 C477 0.960 . S
H486 C478 0.930 . S
H487 C479 0.929 . S
H488 C496 0.929 . S
H489 C498 0.930 . S
H490 C500 0.930 . S
H491 C503 0.929 . S
H492 C506 0.930 . S
H493 C508 0.960 . S
H494 C508 0.960 . S
H495 C508 0.960 . S
C496 H488 0.929 . S
C496 C497 1.377 . S
C496 C498 1.384 . S
C497 C496 1.377 . S
C497 C503 1.390 . S
C498 H489 0.930 . S
C498 C496 1.384 . S
C498 C499 1.372 . S
C499 C498 1.372 . S
C499 C500 1.400 . S
C499 C504 1.490 . S
C500 H490 0.930 . S
C500 C499 1.400 . S
C500 C503 1.386 . S
H501 C517 0.930 . S
H502 C518 0.931 . S
C503 H491 0.929 . S
C503 C497 1.390 . S
C503 C500 1.386 . S
C504 C499 1.490 . S
C504 C506 1.395 . S
C504 C507 1.403 . S
H505 C511 0.930 . S
C506 H492 0.930 . S
C506 C504 1.395 . S
C506 C509 1.403 . S
C507 C504 1.403 . S
C507 C508 1.524 . S
C507 C511 1.400 . S
C508 H493 0.960 . S
C508 H494 0.960 . S
C508 H495 0.960 . S
C508 C507 1.524 . S
C509 C506 1.403 . S
C509 C510 1.392 . S
C509 C513 1.495 . S
C510 C509 1.392 . S
C510 C511 1.385 . S
C510 C512 1.478 . S
C511 H505 0.930 . S
C511 C507 1.400 . S
C511 C510 1.385 . S
C512 C510 1.478 . S
C512 C514 1.381 . S
C512 C518 1.383 . S
C513 C509 1.495 . S
C513 H519 0.959 . S
C513 H520 0.961 . S
C513 H521 0.960 . S
C514 C512 1.381 . S
C514 C515 1.394 . S
C514 H522 0.930 . S
C515 C514 1.394 . S
C515 C516 1.383 . S
C515 H523 0.929 . S
C516 C515 1.383 . S
C516 C517 1.377 . S
C517 H501 0.930 . S
C517 C516 1.377 . S
C517 C518 1.379 . S
C518 H502 0.931 . S
C518 C512 1.383 . S
C518 C517 1.379 . S
H519 C513 0.959 . S
H520 C513 0.961 . S
H521 C513 0.960 . S
H522 C514 0.930 . S
H523 C515 0.929 . S
H524 C532 0.929 . S
H525 C534 0.930 . S
H526 C536 0.930 . S
H527 C539 0.929 . S
H528 C542 0.930 . S
H529 C544 0.960 . S
H530 C544 0.960 . S
H531 C544 0.960 . S
C532 H524 0.929 . S
C532 C533 1.377 . S
C532 C534 1.384 . S
C533 C532 1.377 . S
C533 C539 1.390 . S
C534 H525 0.930 . S
C534 C532 1.384 . S
C534 C535 1.372 . S
C535 C534 1.372 . S
C535 C536 1.400 . S
C535 C540 1.490 . S
C536 H526 0.930 . S
C536 C535 1.400 . S
C536 C539 1.386 . S
H537 C553 0.930 . S
H538 C554 0.931 . S
C539 H527 0.929 . S
C539 C533 1.390 . S
C539 C536 1.386 . S
C540 C535 1.490 . S
C540 C542 1.395 . S
C540 C543 1.403 . S
H541 C547 0.930 . S
C542 H528 0.930 . S
C542 C540 1.395 . S
C542 C545 1.403 . S
C543 C540 1.403 . S
C543 C544 1.524 . S
C543 C547 1.400 . S
C544 H529 0.960 . S
C544 H530 0.960 . S
C544 H531 0.960 . S
C544 C543 1.524 . S
C545 C542 1.403 . S
C545 C546 1.392 . S
C545 C549 1.495 . S
C546 C545 1.392 . S
C546 C547 1.385 . S
C546 C548 1.478 . S
C547 H541 0.930 . S
C547 C543 1.400 . S
C547 C546 1.385 . S
C548 C546 1.478 . S
C548 C550 1.381 . S
C548 C554 1.383 . S
C549 C545 1.495 . S
C549 H555 0.959 . S
C549 H556 0.961 . S
C549 H557 0.960 . S
C550 C548 1.381 . S
C550 C551 1.394 . S
C550 H558 0.930 . S
C551 C550 1.394 . S
C551 C552 1.383 . S
C551 H559 0.929 . S
C552 C551 1.383 . S
C552 C553 1.377 . S
C553 H537 0.930 . S
C553 C552 1.377 . S
C553 C554 1.379 . S
C554 H538 0.931 . S
C554 C548 1.383 . S
C554 C553 1.379 . S
H555 C549 0.959 . S
H556 C549 0.961 . S
H557 C549 0.960 . S
H558 C550 0.930 . S
H559 C551 0.929 . S
H560 C568 0.929 . S
H561 C570 0.930 . S
H562 C572 0.930 . S
H563 C575 0.929 . S
H564 C578 0.930 . S
H565 C580 0.960 . S
H566 C580 0.960 . S
H567 C580 0.960 . S
C568 H560 0.929 . S
C568 C569 1.377 . S
C568 C570 1.384 . S
C569 C568 1.377 . S
C569 C575 1.390 . S
C570 H561 0.930 . S
C570 C568 1.384 . S
C570 C571 1.372 . S
C571 C570 1.372 . S
C571 C572 1.400 . S
C571 C576 1.490 . S
C572 H562 0.930 . S
C572 C571 1.400 . S
C572 C575 1.386 . S
H573 C589 0.930 . S
H574 C590 0.931 . S
C575 H563 0.929 . S
C575 C569 1.390 . S
C575 C572 1.386 . S
C576 C571 1.490 . S
C576 C578 1.395 . S
C576 C579 1.403 . S
H577 C583 0.930 . S
C578 H564 0.930 . S
C578 C576 1.395 . S
C578 C581 1.403 . S
C579 C576 1.403 . S
C579 C580 1.524 . S
C579 C583 1.400 . S
C580 H565 0.960 . S
C580 H566 0.960 . S
C580 H567 0.960 . S
C580 C579 1.524 . S
C581 C578 1.403 . S
C581 C582 1.392 . S
C581 C585 1.495 . S
C582 C581 1.392 . S
C582 C583 1.385 . S
C582 C584 1.478 . S
C583 H577 0.930 . S
C583 C579 1.400 . S
C583 C582 1.385 . S
C584 C582 1.478 . S
C584 C586 1.381 . S
C584 C590 1.383 . S
C585 C581 1.495 . S
C585 H591 0.959 . S
C585 H592 0.961 . S
C585 H593 0.960 . S
C586 C584 1.381 . S
C586 C587 1.394 . S
C586 H594 0.930 . S
C587 C586 1.394 . S
C587 C588 1.383 . S
C587 H595 0.929 . S
C588 C587 1.383 . S
C588 C589 1.377 . S
C589 H573 0.930 . S
C589 C588 1.377 . S
C589 C590 1.379 . S
C590 H574 0.931 . S
C590 C584 1.383 . S
C590 C589 1.379 . S
H591 C585 0.959 . S
H592 C585 0.961 . S
H593 C585 0.960 . S
H594 C586 0.930 . S
H595 C587 0.929 . S
H596 C604 0.929 . S
H597 C606 0.930 . S
H598 C608 0.930 . S
H599 C611 0.929 . S
H600 C614 0.930 . S
H601 C616 0.960 . S
H602 C616 0.960 . S
H603 C616 0.960 . S
C604 H596 0.929 . S
C604 C605 1.377 . S
C604 C606 1.384 . S
C605 C604 1.377 . S
C605 C611 1.390 . S
C606 H597 0.930 . S
C606 C604 1.384 . S
C606 C607 1.372 . S
C607 C606 1.372 . S
C607 C608 1.400 . S
C607 C612 1.490 . S
C608 H598 0.930 . S
C608 C607 1.400 . S
C608 C611 1.386 . S
H609 C625 0.930 . S
H610 C626 0.931 . S
C611 H599 0.929 . S
C611 C605 1.390 . S
C611 C608 1.386 . S
C612 C607 1.490 . S
C612 C614 1.395 . S
C612 C615 1.403 . S
H613 C619 0.930 . S
C614 H600 0.930 . S
C614 C612 1.395 . S
C614 C617 1.403 . S
C615 C612 1.403 . S
C615 C616 1.524 . S
C615 C619 1.400 . S
C616 H601 0.960 . S
C616 H602 0.960 . S
C616 H603 0.960 . S
C616 C615 1.524 . S
C617 C614 1.403 . S
C617 C618 1.392 . S
C617 C621 1.495 . S
C618 C617 1.392 . S
C618 C619 1.385 . S
C618 C620 1.478 . S
C619 H613 0.930 . S
C619 C615 1.400 . S
C619 C618 1.385 . S
C620 C618 1.478 . S
C620 C622 1.381 . S
C620 C626 1.383 . S
C621 C617 1.495 . S
C621 H627 0.959 . S
C621 H628 0.961 . S
C621 H629 0.960 . S
C622 C620 1.381 . S
C622 C623 1.394 . S
C622 H630 0.930 . S
C623 C622 1.394 . S
C623 C624 1.383 . S
C623 H631 0.929 . S
C624 C623 1.383 . S
C624 C625 1.377 . S
C625 H609 0.930 . S
C625 C624 1.377 . S
C625 C626 1.379 . S
C626 H610 0.931 . S
C626 C620 1.383 . S
C626 C625 1.379 . S
H627 C621 0.959 . S
H628 C621 0.961 . S
H629 C621 0.960 . S
H630 C622 0.930 . S
H631 C623 0.929 . S
H632 C640 0.929 . S
H633 C642 0.930 . S
H634 C644 0.930 . S
H635 C647 0.929 . S
H636 C650 0.930 . S
H637 C652 0.960 . S
H638 C652 0.960 . S
H639 C652 0.960 . S
C640 H632 0.929 . S
C640 C641 1.377 . S
C640 C642 1.384 . S
C641 C640 1.377 . S
C641 C647 1.390 . S
C642 H633 0.930 . S
C642 C640 1.384 . S
C642 C643 1.372 . S
C643 C642 1.372 . S
C643 C644 1.400 . S
C643 C648 1.490 . S
C644 H634 0.930 . S
C644 C643 1.400 . S
C644 C647 1.386 . S
H645 C661 0.930 . S
H646 C662 0.931 . S
C647 H635 0.929 . S
C647 C641 1.390 . S
C647 C644 1.386 . S
C648 C643 1.490 . S
C648 C650 1.395 . S
C648 C651 1.403 . S
H649 C655 0.930 . S
C650 H636 0.930 . S
C650 C648 1.395 . S
C650 C653 1.403 . S
C651 C648 1.403 . S
C651 C652 1.524 . S
C651 C655 1.400 . S
C652 H637 0.960 . S
C652 H638 0.960 . S
C652 H639 0.960 . S
C652 C651 1.524 . S
C653 C650 1.403 . S
C653 C654 1.392 . S
C653 C657 1.495 . S
C654 C653 1.392 . S
C654 C655 1.385 . S
C654 C656 1.478 . S
C655 H649 0.930 . S
C655 C651 1.400 . S
C655 C654 1.385 . S
C656 C654 1.478 . S
C656 C658 1.381 . S
C656 C662 1.383 . S
C657 C653 1.495 . S
C657 H663 0.959 . S
C657 H664 0.961 . S
C657 H665 0.960 . S
C658 C656 1.381 . S
C658 C659 1.394 . S
C658 H666 0.930 . S
C659 C658 1.394 . S
C659 C660 1.383 . S
C659 H667 0.929 . S
C660 C659 1.383 . S
C660 C661 1.377 . S
C661 H645 0.930 . S
C661 C660 1.377 . S
C661 C662 1.379 . S
C662 H646 0.931 . S
C662 C656 1.383 . S
C662 C661 1.379 . S
H663 C657 0.959 . S
H664 C657 0.961 . S
H665 C657 0.960 . S
H666 C658 0.930 . S
H667 C659 0.929 . S
H668 C676 0.929 . S
H669 C678 0.930 . S
H670 C680 0.930 . S
H671 C683 0.929 . S
H672 C686 0.930 . S
H673 C688 0.960 . S
H674 C688 0.960 . S
H675 C688 0.960 . S
C676 H668 0.929 . S
C676 C677 1.377 . S
C676 C678 1.384 . S
C677 C676 1.377 . S
C677 C683 1.390 . S
C678 H669 0.930 . S
C678 C676 1.384 . S
C678 C679 1.372 . S
C679 C678 1.372 . S
C679 C680 1.400 . S
C679 C684 1.490 . S
C680 H670 0.930 . S
C680 C679 1.400 . S
C680 C683 1.386 . S
H681 C697 0.930 . S
H682 C698 0.931 . S
C683 H671 0.929 . S
C683 C677 1.390 . S
C683 C680 1.386 . S
C684 C679 1.490 . S
C684 C686 1.395 . S
C684 C687 1.403 . S
H685 C691 0.930 . S
C686 H672 0.930 . S
C686 C684 1.395 . S
C686 C689 1.403 . S
C687 C684 1.403 . S
C687 C688 1.524 . S
C687 C691 1.400 . S
C688 H673 0.960 . S
C688 H674 0.960 . S
C688 H675 0.960 . S
C688 C687 1.524 . S
C689 C686 1.403 . S
C689 C690 1.392 . S
C689 C693 1.495 . S
C690 C689 1.392 . S
C690 C691 1.385 . S
C690 C692 1.478 . S
C691 H685 0.930 . S
C691 C687 1.400 . S
C691 C690 1.385 . S
C692 C690 1.478 . S
C692 C694 1.381 . S
C692 C698 1.383 . S
C693 C689 1.495 . S
C693 H699 0.959 . S
C693 H700 0.961 . S
C693 H701 0.960 . S
C694 C692 1.381 . S
C694 C695 1.394 . S
C694 H702 0.930 . S
C695 C694 1.394 . S
C695 C696 1.383 . S
C695 H703 0.929 . S
C696 C695 1.383 . S
C696 C697 1.377 . S
C697 H681 0.930 . S
C697 C696 1.377 . S
C697 C698 1.379 . S
C698 H682 0.931 . S
C698 C692 1.383 . S
C698 C697 1.379 . S
H699 C693 0.959 . S
H700 C693 0.961 . S
H701 C693 0.960 . S
H702 C694 0.930 . S
H703 C695 0.929 . S
H704 C712 0.929 . S
H705 C714 0.930 . S
H706 C716 0.930 . S
H707 C719 0.929 . S
H708 C722 0.930 . S
H709 C724 0.960 . S
H710 C724 0.960 . S
H711 C724 0.960 . S
C712 H704 0.929 . S
C712 C713 1.377 . S
C712 C714 1.384 . S
C713 C712 1.377 . S
C713 C719 1.390 . S
C714 H705 0.930 . S
C714 C712 1.384 . S
C714 C715 1.372 . S
C715 C714 1.372 . S
C715 C716 1.400 . S
C715 C720 1.490 . S
C716 H706 0.930 . S
C716 C715 1.400 . S
C716 C719 1.386 . S
H717 C733 0.930 . S
H718 C734 0.931 . S
C719 H707 0.929 . S
C719 C713 1.390 . S
C719 C716 1.386 . S
C720 C715 1.490 . S
C720 C722 1.395 . S
C720 C723 1.403 . S
H721 C727 0.930 . S
C722 H708 0.930 . S
C722 C720 1.395 . S
C722 C725 1.403 . S
C723 C720 1.403 . S
C723 C724 1.524 . S
C723 C727 1.400 . S
C724 H709 0.960 . S
C724 H710 0.960 . S
C724 H711 0.960 . S
C724 C723 1.524 . S
C725 C722 1.403 . S
C725 C726 1.392 . S
C725 C729 1.495 . S
C726 C725 1.392 . S
C726 C727 1.385 . S
C726 C728 1.478 . S
C727 H721 0.930 . S
C727 C723 1.400 . S
C727 C726 1.385 . S
C728 C726 1.478 . S
C728 C730 1.381 . S
C728 C734 1.383 . S
C729 C725 1.495 . S
C729 H735 0.959 . S
C729 H736 0.961 . S
C729 H737 0.960 . S
C730 C728 1.381 . S
C730 C731 1.394 . S
C730 H738 0.930 . S
C731 C730 1.394 . S
C731 C732 1.383 . S
C731 H739 0.929 . S
C732 C731 1.383 . S
C732 C733 1.377 . S
C733 H717 0.930 . S
C733 C732 1.377 . S
C733 C734 1.379 . S
C734 H718 0.931 . S
C734 C728 1.383 . S
C734 C733 1.379 . S
H735 C729 0.959 . S
H736 C729 0.961 . S
H737 C729 0.960 . S
H738 C730 0.930 . S
H739 C731 0.929 . S
H740 C748 0.929 . S
H741 C750 0.930 . S
H742 C752 0.930 . S
H743 C755 0.929 . S
H744 C758 0.930 . S
H745 C760 0.960 . S
H746 C760 0.960 . S
H747 C760 0.960 . S
C748 H740 0.929 . S
C748 C749 1.377 . S
C748 C750 1.384 . S
C749 C748 1.377 . S
C749 C755 1.390 . S
C750 H741 0.930 . S
C750 C748 1.384 . S
C750 C751 1.372 . S
C751 C750 1.372 . S
C751 C752 1.400 . S
C751 C756 1.490 . S
C752 H742 0.930 . S
C752 C751 1.400 . S
C752 C755 1.386 . S
H753 C769 0.930 . S
H754 C770 0.931 . S
C755 H743 0.929 . S
C755 C749 1.390 . S
C755 C752 1.386 . S
C756 C751 1.490 . S
C756 C758 1.395 . S
C756 C759 1.403 . S
H757 C763 0.930 . S
C758 H744 0.930 . S
C758 C756 1.395 . S
C758 C761 1.403 . S
C759 C756 1.403 . S
C759 C760 1.524 . S
C759 C763 1.400 . S
C760 H745 0.960 . S
C760 H746 0.960 . S
C760 H747 0.960 . S
C760 C759 1.524 . S
C761 C758 1.403 . S
C761 C762 1.392 . S
C761 C765 1.495 . S
C762 C761 1.392 . S
C762 C763 1.385 . S
C762 C764 1.478 . S
C763 H757 0.930 . S
C763 C759 1.400 . S
C763 C762 1.385 . S
C764 C762 1.478 . S
C764 C766 1.381 . S
C764 C770 1.383 . S
C765 C761 1.495 . S
C765 H771 0.959 . S
C765 H772 0.961 . S
C765 H773 0.960 . S
C766 C764 1.381 . S
C766 C767 1.394 . S
C766 H774 0.930 . S
C767 C766 1.394 . S
C767 C768 1.383 . S
C767 H775 0.929 . S
C768 C767 1.383 . S
C768 C769 1.377 . S
C769 H753 0.930 . S
C769 C768 1.377 . S
C769 C770 1.379 . S
C770 H754 0.931 . S
C770 C764 1.383 . S
C770 C769 1.379 . S
H771 C765 0.959 . S
H772 C765 0.961 . S
H773 C765 0.960 . S
H774 C766 0.930 . S
H775 C767 0.929 . S
H776 C784 0.929 . S
H777 C786 0.930 . S
H778 C788 0.930 . S
H779 C791 0.929 . S
H780 C794 0.930 . S
H781 C796 0.960 . S
H782 C796 0.960 . S
H783 C796 0.960 . S
C784 H776 0.929 . S
C784 C785 1.377 . S
C784 C786 1.384 . S
C785 C784 1.377 . S
C785 C791 1.390 . S
C786 H777 0.930 . S
C786 C784 1.384 . S
C786 C787 1.372 . S
C787 C786 1.372 . S
C787 C788 1.400 . S
C787 C792 1.490 . S
C788 H778 0.930 . S
C788 C787 1.400 . S
C788 C791 1.386 . S
H789 C805 0.930 . S
H790 C806 0.931 . S
C791 H779 0.929 . S
C791 C785 1.390 . S
C791 C788 1.386 . S
C792 C787 1.490 . S
C792 C794 1.395 . S
C792 C795 1.403 . S
H793 C799 0.930 . S
C794 H780 0.930 . S
C794 C792 1.395 . S
C794 C797 1.403 . S
C795 C792 1.403 . S
C795 C796 1.524 . S
C795 C799 1.400 . S
C796 H781 0.960 . S
C796 H782 0.960 . S
C796 H783 0.960 . S
C796 C795 1.524 . S
C797 C794 1.403 . S
C797 C798 1.392 . S
C797 C801 1.495 . S
C798 C797 1.392 . S
C798 C799 1.385 . S
C798 C800 1.478 . S
C799 H793 0.930 . S
C799 C795 1.400 . S
C799 C798 1.385 . S
C800 C798 1.478 . S
C800 C802 1.381 . S
C800 C806 1.383 . S
C801 C797 1.495 . S
C801 H807 0.959 . S
C801 H808 0.961 . S
C801 H809 0.960 . S
C802 C800 1.381 . S
C802 C803 1.394 . S
C802 H810 0.930 . S
C803 C802 1.394 . S
C803 C804 1.383 . S
C803 H811 0.929 . S
C804 C803 1.383 . S
C804 C805 1.377 . S
C805 H789 0.930 . S
C805 C804 1.377 . S
C805 C806 1.379 . S
C806 H790 0.931 . S
C806 C800 1.383 . S
C806 C805 1.379 . S
H807 C801 0.959 . S
H808 C801 0.961 . S
H809 C801 0.960 . S
H810 C802 0.930 . S
H811 C803 0.929 . S
H812 C820 0.929 . S
H813 C822 0.930 . S
H814 C824 0.930 . S
H815 C827 0.929 . S
H816 C830 0.930 . S
H817 C832 0.960 . S
H818 C832 0.960 . S
H819 C832 0.960 . S
C820 H812 0.929 . S
C820 C821 1.377 . S
C820 C822 1.384 . S
C821 C820 1.377 . S
C821 C827 1.390 . S
C822 H813 0.930 . S
C822 C820 1.384 . S
C822 C823 1.372 . S
C823 C822 1.372 . S
C823 C824 1.400 . S
C823 C828 1.490 . S
C824 H814 0.930 . S
C824 C823 1.400 . S
C824 C827 1.386 . S
H825 C841 0.930 . S
H826 C842 0.931 . S
C827 H815 0.929 . S
C827 C821 1.390 . S
C827 C824 1.386 . S
C828 C823 1.490 . S
C828 C830 1.395 . S
C828 C831 1.403 . S
H829 C835 0.930 . S
C830 H816 0.930 . S
C830 C828 1.395 . S
C830 C833 1.403 . S
C831 C828 1.403 . S
C831 C832 1.524 . S
C831 C835 1.400 . S
C832 H817 0.960 . S
C832 H818 0.960 . S
C832 H819 0.960 . S
C832 C831 1.524 . S
C833 C830 1.403 . S
C833 C834 1.392 . S
C833 C837 1.495 . S
C834 C833 1.392 . S
C834 C835 1.385 . S
C834 C836 1.478 . S
C835 H829 0.930 . S
C835 C831 1.400 . S
C835 C834 1.385 . S
C836 C834 1.478 . S
C836 C838 1.381 . S
C836 C842 1.383 . S
C837 C833 1.495 . S
C837 H843 0.959 . S
C837 H844 0.961 . S
C837 H845 0.960 . S
C838 C836 1.381 . S
C838 C839 1.394 . S
C838 H846 0.930 . S
C839 C838 1.394 . S
C839 C840 1.383 . S
C839 H847 0.929 . S
C840 C839 1.383 . S
C840 C841 1.377 . S
C841 H825 0.930 . S
C841 C840 1.377 . S
C841 C842 1.379 . S
C842 H826 0.931 . S
C842 C836 1.383 . S
C842 C841 1.379 . S
H843 C837 0.959 . S
H844 C837 0.961 . S
H845 C837 0.960 . S
H846 C838 0.930 . S
H847 C839 0.929 . S
H848 C856 0.929 . S
H849 C858 0.930 . S
H850 C860 0.930 . S
H851 C863 0.929 . S
H852 C866 0.930 . S
H853 C868 0.960 . S
H854 C868 0.960 . S
H855 C868 0.960 . S
C856 H848 0.929 . S
C856 C857 1.377 . S
C856 C858 1.384 . S
C857 C856 1.377 . S
C857 C863 1.390 . S
C858 H849 0.930 . S
C858 C856 1.384 . S
C858 C859 1.372 . S
C859 C858 1.372 . S
C859 C860 1.400 . S
C859 C864 1.490 . S
C860 H850 0.930 . S
C860 C859 1.400 . S
C860 C863 1.386 . S
H861 C877 0.930 . S
H862 C878 0.931 . S
C863 H851 0.929 . S
C863 C857 1.390 . S
C863 C860 1.386 . S
C864 C859 1.490 . S
C864 C866 1.395 . S
C864 C867 1.403 . S
H865 C871 0.930 . S
C866 H852 0.930 . S
C866 C864 1.395 . S
C866 C869 1.403 . S
C867 C864 1.403 . S
C867 C868 1.524 . S
C867 C871 1.400 . S
C868 H853 0.960 . S
C868 H854 0.960 . S
C868 H855 0.960 . S
C868 C867 1.524 . S
C869 C866 1.403 . S
C869 C870 1.392 . S
C869 C873 1.495 . S
C870 C869 1.392 . S
C870 C871 1.385 . S
C870 C872 1.478 . S
C871 H865 0.930 . S
C871 C867 1.400 . S
C871 C870 1.385 . S
C872 C870 1.478 . S
C872 C874 1.381 . S
C872 C878 1.383 . S
C873 C869 1.495 . S
C873 H879 0.959 . S
C873 H880 0.961 . S
C873 H881 0.960 . S
C874 C872 1.381 . S
C874 C875 1.394 . S
C874 H882 0.930 . S
C875 C874 1.394 . S
C875 C876 1.383 . S
C875 H883 0.929 . S
C876 C875 1.383 . S
C876 C877 1.377 . S
C877 H861 0.930 . S
C877 C876 1.377 . S
C877 C878 1.379 . S
C878 H862 0.931 . S
C878 C872 1.383 . S
C878 C877 1.379 . S
H879 C873 0.959 . S
H880 C873 0.961 . S
H881 C873 0.960 . S
H882 C874 0.930 . S
H883 C875 0.929 . S
H884 C892 0.929 . S
H885 C894 0.930 . S
H886 C896 0.930 . S
H887 C899 0.929 . S
H888 C902 0.930 . S
H889 C904 0.960 . S
H890 C904 0.960 . S
H891 C904 0.960 . S
C892 H884 0.929 . S
C892 C893 1.377 . S
C892 C894 1.384 . S
C893 C892 1.377 . S
C893 C899 1.390 . S
C894 H885 0.930 . S
C894 C892 1.384 . S
C894 C895 1.372 . S
C895 C894 1.372 . S
C895 C896 1.400 . S
C895 C900 1.490 . S
C896 H886 0.930 . S
C896 C895 1.400 . S
C896 C899 1.386 . S
H897 C913 0.930 . S
H898 C914 0.931 . S
C899 H887 0.929 . S
C899 C893 1.390 . S
C899 C896 1.386 . S
C900 C895 1.490 . S
C900 C902 1.395 . S
C900 C903 1.403 . S
H901 C907 0.930 . S
C902 H888 0.930 . S
C902 C900 1.395 . S
C902 C905 1.403 . S
C903 C900 1.403 . S
C903 C904 1.524 . S
C903 C907 1.400 . S
C904 H889 0.960 . S
C904 H890 0.960 . S
C904 H891 0.960 . S
C904 C903 1.524 . S
C905 C902 1.403 . S
C905 C906 1.392 . S
C905 C909 1.495 . S
C906 C905 1.392 . S
C906 C907 1.385 . S
C906 C908 1.478 . S
C907 H901 0.930 . S
C907 C903 1.400 . S
C907 C906 1.385 . S
C908 C906 1.478 . S
C908 C910 1.381 . S
C908 C914 1.383 . S
C909 C905 1.495 . S
C909 H915 0.959 . S
C909 H916 0.961 . S
C909 H917 0.960 . S
C910 C908 1.381 . S
C910 C911 1.394 . S
C910 H918 0.930 . S
C911 C910 1.394 . S
C911 C912 1.383 . S
C911 H919 0.929 . S
C912 C911 1.383 . S
C912 C913 1.377 . S
C913 H897 0.930 . S
C913 C912 1.377 . S
C913 C914 1.379 . S
C914 H898 0.931 . S
C914 C908 1.383 . S
C914 C913 1.379 . S
H915 C909 0.959 . S
H916 C909 0.961 . S
H917 C909 0.960 . S
H918 C910 0.930 . S
H919 C911 0.929 . S
H920 C928 0.929 . S
H921 C930 0.930 . S
H922 C932 0.930 . S
H923 C935 0.929 . S
H924 C938 0.930 . S
H925 C940 0.960 . S
H926 C940 0.960 . S
H927 C940 0.960 . S
C928 H920 0.929 . S
C928 C929 1.377 . S
C928 C930 1.384 . S
C929 C928 1.377 . S
C929 C935 1.390 . S
C930 H921 0.930 . S
C930 C928 1.384 . S
C930 C931 1.372 . S
C931 C930 1.372 . S
C931 C932 1.400 . S
C931 C936 1.490 . S
C932 H922 0.930 . S
C932 C931 1.400 . S
C932 C935 1.386 . S
H933 C949 0.930 . S
H934 C950 0.931 . S
C935 H923 0.929 . S
C935 C929 1.390 . S
C935 C932 1.386 . S
C936 C931 1.490 . S
C936 C938 1.395 . S
C936 C939 1.403 . S
H937 C943 0.930 . S
C938 H924 0.930 . S
C938 C936 1.395 . S
C938 C941 1.403 . S
C939 C936 1.403 . S
C939 C940 1.524 . S
C939 C943 1.400 . S
C940 H925 0.960 . S
C940 H926 0.960 . S
C940 H927 0.960 . S
C940 C939 1.524 . S
C941 C938 1.403 . S
C941 C942 1.392 . S
C941 C945 1.495 . S
C942 C941 1.392 . S
C942 C943 1.385 . S
C942 C944 1.478 . S
C943 H937 0.930 . S
C943 C939 1.400 . S
C943 C942 1.385 . S
C944 C942 1.478 . S
C944 C946 1.381 . S
C944 C950 1.383 . S
C945 C941 1.495 . S
C945 H951 0.959 . S
C945 H952 0.961 . S
C945 H953 0.960 . S
C946 C944 1.381 . S
C946 C947 1.394 . S
C946 H954 0.930 . S
C947 C946 1.394 . S
C947 C948 1.383 . S
C947 H955 0.929 . S
C948 C947 1.383 . S
C948 C949 1.377 . S
C949 H933 0.930 . S
C949 C948 1.377 . S
C949 C950 1.379 . S
C950 H934 0.931 . S
C950 C944 1.383 . S
C950 C949 1.379 . S
H951 C945 0.959 . S
H952 C945 0.961 . S
H953 C945 0.960 . S
H954 C946 0.930 . S
H955 C947 0.929 . S
H956 C964 0.929 . S
H957 C966 0.930 . S
H958 C968 0.930 . S
H959 C971 0.929 . S
H960 C974 0.930 . S
H961 C976 0.960 . S
H962 C976 0.960 . S
H963 C976 0.960 . S
C964 H956 0.929 . S
C964 C965 1.377 . S
C964 C966 1.384 . S
C965 C964 1.377 . S
C965 C971 1.390 . S
C966 H957 0.930 . S
C966 C964 1.384 . S
C966 C967 1.372 . S
C967 C966 1.372 . S
C967 C968 1.400 . S
C967 C972 1.490 . S
C968 H958 0.930 . S
C968 C967 1.400 . S
C968 C971 1.386 . S
H969 C985 0.930 . S
H970 C986 0.931 . S
C971 H959 0.929 . S
C971 C965 1.390 . S
C971 C968 1.386 . S
C972 C967 1.490 . S
C972 C974 1.395 . S
C972 C975 1.403 . S
H973 C979 0.930 . S
C974 H960 0.930 . S
C974 C972 1.395 . S
C974 C977 1.403 . S
C975 C972 1.403 . S
C975 C976 1.524 . S
C975 C979 1.400 . S
C976 H961 0.960 . S
C976 H962 0.960 . S
C976 H963 0.960 . S
C976 C975 1.524 . S
C977 C974 1.403 . S
C977 C978 1.392 . S
C977 C981 1.495 . S
C978 C977 1.392 . S
C978 C979 1.385 . S
C978 C980 1.478 . S
C979 H973 0.930 . S
C979 C975 1.400 . S
C979 C978 1.385 . S
C980 C978 1.478 . S
C980 C982 1.381 . S
C980 C986 1.383 . S
C981 C977 1.495 . S
C981 H987 0.959 . S
C981 H988 0.961 . S
C981 H989 0.960 . S
C982 C980 1.381 . S
C982 C983 1.394 . S
C982 H990 0.930 . S
C983 C982 1.394 . S
C983 C984 1.383 . S
C983 H991 0.929 . S
C984 C983 1.383 . S
C984 C985 1.377 . S
C985 H969 0.930 . S
C985 C984 1.377 . S
C985 C986 1.379 . S
C986 H970 0.931 . S
C986 C980 1.383 . S
C986 C985 1.379 . S
H987 C981 0.959 . S
H988 C981 0.961 . S
H989 C981 0.960 . S
H990 C982 0.930 . S
H991 C983 0.929 . S
H992 C1000 0.929 . S
H993 C1002 0.930 . S
H994 C1004 0.930 . S
H995 C1007 0.929 . S
H996 C1010 0.930 . S
H997 C1012 0.960 1_556 S
H998 C1012 0.960 1_556 S
H999 C1012 0.960 . S
C1000 H992 0.929 . S
C1000 C1001 1.377 . S
C1000 C1002 1.384 . S
C1001 C1000 1.377 . S
C1001 C1007 1.390 . S
C1002 H993 0.930 . S
C1002 C1000 1.384 . S
C1002 C1003 1.372 . S
C1003 C1002 1.372 . S
C1003 C1004 1.400 . S
C1003 C1008 1.490 . S
C1004 H994 0.930 . S
C1004 C1003 1.400 . S
C1004 C1007 1.386 . S
H1005 C1021 0.930 . S
H1006 C1022 0.931 . S
C1007 H995 0.929 . S
C1007 C1001 1.390 . S
C1007 C1004 1.386 . S
C1008 C1003 1.490 . S
C1008 C1010 1.395 . S
C1008 C1011 1.403 . S
H1009 C1015 0.930 . S
C1010 H996 0.930 . S
C1010 C1008 1.395 . S
C1010 C1013 1.403 1_455 S
C1011 C1008 1.403 . S
C1011 C1012 1.524 . S
C1011 C1015 1.400 1_455 S
C1012 H997 0.960 1_554 S
C1012 H998 0.960 1_554 S
C1012 H999 0.960 . S
C1012 C1011 1.524 . S
C1013 C1010 1.403 1_655 S
C1013 C1014 1.392 . S
C1013 C1017 1.495 . S
C1014 C1013 1.392 . S
C1014 C1015 1.385 . S
C1014 C1016 1.478 . S
C1015 H1009 0.930 . S
C1015 C1011 1.400 1_655 S
C1015 C1014 1.385 . S
C1016 C1014 1.478 . S
C1016 C1018 1.381 . S
C1016 C1022 1.383 . S
C1017 C1013 1.495 . S
C1017 H1023 0.959 . S
C1017 H1024 0.961 . S
C1017 H1025 0.960 . S
C1018 C1016 1.381 . S
C1018 C1019 1.394 . S
C1018 H1026 0.930 . S
C1019 C1018 1.394 . S
C1019 C1020 1.383 . S
C1019 H1027 0.929 . S
C1020 C1019 1.383 . S
C1020 C1021 1.377 . S
C1021 H1005 0.930 . S
C1021 C1020 1.377 . S
C1021 C1022 1.379 . S
C1022 H1006 0.931 . S
C1022 C1016 1.383 . S
C1022 C1021 1.379 . S
H1023 C1017 0.959 . S
H1024 C1017 0.961 . S
H1025 C1017 0.960 . S
H1026 C1018 0.930 . S
H1027 C1019 0.929 . S
H1028 C1036 0.929 . S
H1029 C1038 0.930 . S
H1030 C1040 0.930 . S
H1031 C1043 0.929 . S
H1032 C1046 0.930 . S
H1033 C1048 0.960 . S
H1034 C1048 0.960 . S
H1035 C1048 0.960 . S
C1036 H1028 0.929 . S
C1036 C1037 1.377 . S
C1036 C1038 1.384 . S
C1037 C1036 1.377 . S
C1037 C1043 1.390 . S
C1038 H1029 0.930 . S
C1038 C1036 1.384 . S
C1038 C1039 1.372 . S
C1039 C1038 1.372 . S
C1039 C1040 1.400 . S
C1039 C1044 1.490 . S
C1040 H1030 0.930 . S
C1040 C1039 1.400 . S
C1040 C1043 1.386 . S
H1041 C1057 0.930 . S
H1042 C1058 0.931 . S
C1043 H1031 0.929 . S
C1043 C1037 1.390 . S
C1043 C1040 1.386 . S
C1044 C1039 1.490 . S
C1044 C1046 1.395 . S
C1044 C1047 1.403 . S
H1045 C1051 0.930 . S
C1046 H1032 0.930 . S
C1046 C1044 1.395 . S
C1046 C1049 1.403 . S
C1047 C1044 1.403 . S
C1047 C1048 1.524 . S
C1047 C1051 1.400 . S
C1048 H1033 0.960 . S
C1048 H1034 0.960 . S
C1048 H1035 0.960 . S
C1048 C1047 1.524 . S
C1049 C1046 1.403 . S
C1049 C1050 1.392 . S
C1049 C1053 1.495 . S
C1050 C1049 1.392 . S
C1050 C1051 1.385 . S
C1050 C1052 1.478 . S
C1051 H1045 0.930 . S
C1051 C1047 1.400 . S
C1051 C1050 1.385 . S
C1052 C1050 1.478 . S
C1052 C1054 1.381 . S
C1052 C1058 1.383 . S
C1053 C1049 1.495 . S
C1053 H1059 0.959 . S
C1053 H1060 0.961 . S
C1053 H1061 0.960 . S
C1054 C1052 1.381 . S
C1054 C1055 1.394 . S
C1054 H1062 0.930 . S
C1055 C1054 1.394 . S
C1055 C1056 1.383 . S
C1055 H1063 0.929 . S
C1056 C1055 1.383 . S
C1056 C1057 1.377 . S
C1057 H1041 0.930 . S
C1057 C1056 1.377 . S
C1057 C1058 1.379 . S
C1058 H1042 0.931 . S
C1058 C1052 1.383 . S
C1058 C1057 1.379 . S
H1059 C1053 0.959 . S
H1060 C1053 0.961 . S
H1061 C1053 0.960 . S
H1062 C1054 0.930 . S
H1063 C1055 0.929 . S
H1064 C1072 0.929 . S
H1065 C1074 0.930 . S
H1066 C1076 0.930 . S
H1067 C1079 0.929 . S
H1068 C1082 0.930 . S
H1069 C1084 0.960 . S
H1070 C1084 0.960 . S
H1071 C1084 0.960 . S
C1072 H1064 0.929 . S
C1072 C1073 1.377 . S
C1072 C1074 1.384 . S
C1073 C1072 1.377 . S
C1073 C1079 1.390 . S
C1074 H1065 0.930 . S
C1074 C1072 1.384 . S
C1074 C1075 1.372 . S
C1075 C1074 1.372 . S
C1075 C1076 1.400 . S
C1075 C1080 1.490 . S
C1076 H1066 0.930 . S
C1076 C1075 1.400 . S
C1076 C1079 1.386 . S
H1077 C1093 0.930 . S
H1078 C1094 0.931 . S
C1079 H1067 0.929 . S
C1079 C1073 1.390 . S
C1079 C1076 1.386 . S
C1080 C1075 1.490 . S
C1080 C1082 1.395 . S
C1080 C1083 1.403 . S
H1081 C1087 0.930 . S
C1082 H1068 0.930 . S
C1082 C1080 1.395 . S
C1082 C1085 1.403 . S
C1083 C1080 1.403 . S
C1083 C1084 1.524 . S
C1083 C1087 1.400 . S
C1084 H1069 0.960 . S
C1084 H1070 0.960 . S
C1084 H1071 0.960 . S
C1084 C1083 1.524 . S
C1085 C1082 1.403 . S
C1085 C1086 1.392 . S
C1085 C1089 1.495 . S
C1086 C1085 1.392 . S
C1086 C1087 1.385 . S
C1086 C1088 1.478 . S
C1087 H1081 0.930 . S
C1087 C1083 1.400 . S
C1087 C1086 1.385 . S
C1088 C1086 1.478 . S
C1088 C1090 1.381 . S
C1088 C1094 1.383 . S
C1089 C1085 1.495 . S
C1089 H1095 0.959 . S
C1089 H1096 0.961 . S
C1089 H1097 0.960 . S
C1090 C1088 1.381 . S
C1090 C1091 1.394 . S
C1090 H1098 0.930 . S
C1091 C1090 1.394 . S
C1091 C1092 1.383 . S
C1091 H1099 0.929 . S
C1092 C1091 1.383 . S
C1092 C1093 1.377 . S
C1093 H1077 0.930 . S
C1093 C1092 1.377 . S
C1093 C1094 1.379 . S
C1094 H1078 0.931 . S
C1094 C1088 1.383 . S
C1094 C1093 1.379 . S
H1095 C1089 0.959 . S
H1096 C1089 0.961 . S
H1097 C1089 0.960 . S
H1098 C1090 0.930 . S
H1099 C1091 0.929 . S
H1100 C1108 0.929 . S
H1101 C1110 0.930 . S
H1102 C1112 0.930 . S
H1103 C1115 0.929 . S
H1104 C1118 0.930 . S
H1105 C1120 0.960 . S
H1106 C1120 0.960 . S
H1107 C1120 0.960 . S
C1108 H1100 0.929 . S
C1108 C1109 1.377 . S
C1108 C1110 1.384 . S
C1109 C1108 1.377 . S
C1109 C1115 1.390 . S
C1110 H1101 0.930 . S
C1110 C1108 1.384 . S
C1110 C1111 1.372 . S
C1111 C1110 1.372 . S
C1111 C1112 1.400 . S
C1111 C1116 1.490 . S
C1112 H1102 0.930 . S
C1112 C1111 1.400 . S
C1112 C1115 1.386 . S
H1113 C1129 0.930 . S
H1114 C1130 0.931 . S
C1115 H1103 0.929 . S
C1115 C1109 1.390 . S
C1115 C1112 1.386 . S
C1116 C1111 1.490 . S
C1116 C1118 1.395 . S
C1116 C1119 1.403 . S
H1117 C1123 0.930 . S
C1118 H1104 0.930 . S
C1118 C1116 1.395 . S
C1118 C1121 1.403 . S
C1119 C1116 1.403 . S
C1119 C1120 1.524 . S
C1119 C1123 1.400 . S
C1120 H1105 0.960 . S
C1120 H1106 0.960 . S
C1120 H1107 0.960 . S
C1120 C1119 1.524 . S
C1121 C1118 1.403 . S
C1121 C1122 1.392 . S
C1121 C1125 1.495 . S
C1122 C1121 1.392 . S
C1122 C1123 1.385 . S
C1122 C1124 1.478 . S
C1123 H1117 0.930 . S
C1123 C1119 1.400 . S
C1123 C1122 1.385 . S
C1124 C1122 1.478 . S
C1124 C1126 1.381 . S
C1124 C1130 1.383 . S
C1125 C1121 1.495 . S
C1125 H1131 0.959 . S
C1125 H1132 0.961 . S
C1125 H1133 0.960 . S
C1126 C1124 1.381 . S
C1126 C1127 1.394 . S
C1126 H1134 0.930 . S
C1127 C1126 1.394 . S
C1127 C1128 1.383 . S
C1127 H1135 0.929 . S
C1128 C1127 1.383 . S
C1128 C1129 1.377 . S
C1129 H1113 0.930 . S
C1129 C1128 1.377 . S
C1129 C1130 1.379 . S
C1130 H1114 0.931 . S
C1130 C1124 1.383 . S
C1130 C1129 1.379 . S
H1131 C1125 0.959 . S
H1132 C1125 0.961 . S
H1133 C1125 0.960 . S
H1134 C1126 0.930 . S
H1135 C1127 0.929 . S
H1136 C1144 0.929 . S
H1137 C1146 0.930 . S
H1138 C1148 0.930 . S
H1139 C1151 0.929 . S
H1140 C1154 0.930 . S
H1141 C1156 0.960 . S
H1142 C1156 0.960 . S
H1143 C1156 0.960 . S
C1144 H1136 0.929 . S
C1144 C1145 1.377 . S
C1144 C1146 1.384 . S
C1145 C1144 1.377 . S
C1145 C1151 1.390 . S
C1146 H1137 0.930 . S
C1146 C1144 1.384 . S
C1146 C1147 1.372 . S
C1147 C1146 1.372 . S
C1147 C1148 1.400 . S
C1147 C1152 1.490 . S
C1148 H1138 0.930 . S
C1148 C1147 1.400 . S
C1148 C1151 1.386 . S
H1149 C1165 0.930 . S
H1150 C1166 0.931 . S
C1151 H1139 0.929 . S
C1151 C1145 1.390 . S
C1151 C1148 1.386 . S
C1152 C1147 1.490 . S
C1152 C1154 1.395 . S
C1152 C1155 1.403 . S
H1153 C1159 0.930 . S
C1154 H1140 0.930 . S
C1154 C1152 1.395 . S
C1154 C1157 1.403 1_655 S
C1155 C1152 1.403 . S
C1155 C1156 1.524 . S
C1155 C1159 1.400 1_655 S
C1156 H1141 0.960 . S
C1156 H1142 0.960 . S
C1156 H1143 0.960 . S
C1156 C1155 1.524 . S
C1157 C1154 1.403 1_455 S
C1157 C1158 1.392 . S
C1157 C1161 1.495 . S
C1158 C1157 1.392 . S
C1158 C1159 1.385 . S
C1158 C1160 1.478 . S
C1159 H1153 0.930 . S
C1159 C1155 1.400 1_455 S
C1159 C1158 1.385 . S
C1160 C1158 1.478 . S
C1160 C1162 1.381 . S
C1160 C1166 1.383 . S
C1161 C1157 1.495 . S
C1161 H1167 0.959 . S
C1161 H1168 0.961 . S
C1161 H1169 0.960 . S
C1162 C1160 1.381 . S
C1162 C1163 1.394 . S
C1162 H1170 0.930 . S
C1163 C1162 1.394 . S
C1163 C1164 1.383 . S
C1163 H1171 0.929 . S
C1164 C1163 1.383 . S
C1164 C1165 1.377 . S
C1165 H1149 0.930 . S
C1165 C1164 1.377 . S
C1165 C1166 1.379 . S
C1166 H1150 0.931 . S
C1166 C1160 1.383 . S
C1166 C1165 1.379 . S
H1167 C1161 0.959 . S
H1168 C1161 0.961 . S
H1169 C1161 0.960 . S
H1170 C1162 0.930 . S
H1171 C1163 0.929 . S
H1172 C1180 0.929 . S
H1173 C1182 0.930 . S
H1174 C1184 0.930 . S
H1175 C1187 0.929 . S
H1176 C1190 0.930 . S
H1177 C1192 0.960 . S
H1178 C1192 0.960 . S
H1179 C1192 0.960 . S
C1180 H1172 0.929 . S
C1180 C1181 1.377 . S
C1180 C1182 1.384 . S
C1181 C1180 1.377 . S
C1181 C1187 1.390 . S
C1182 H1173 0.930 . S
C1182 C1180 1.384 . S
C1182 C1183 1.372 . S
C1183 C1182 1.372 . S
C1183 C1184 1.400 . S
C1183 C1188 1.490 . S
C1184 H1174 0.930 . S
C1184 C1183 1.400 . S
C1184 C1187 1.386 . S
H1185 C1201 0.930 . S
H1186 C1202 0.931 . S
C1187 H1175 0.929 . S
C1187 C1181 1.390 . S
C1187 C1184 1.386 . S
C1188 C1183 1.490 . S
C1188 C1190 1.395 . S
C1188 C1191 1.403 . S
H1189 C1195 0.930 . S
C1190 H1176 0.930 . S
C1190 C1188 1.395 . S
C1190 C1193 1.403 . S
C1191 C1188 1.403 . S
C1191 C1192 1.524 . S
C1191 C1195 1.400 . S
C1192 H1177 0.960 . S
C1192 H1178 0.960 . S
C1192 H1179 0.960 . S
C1192 C1191 1.524 . S
C1193 C1190 1.403 . S
C1193 C1194 1.392 . S
C1193 C1197 1.495 . S
C1194 C1193 1.392 . S
C1194 C1195 1.385 . S
C1194 C1196 1.478 . S
C1195 H1189 0.930 . S
C1195 C1191 1.400 . S
C1195 C1194 1.385 . S
C1196 C1194 1.478 . S
C1196 C1198 1.381 . S
C1196 C1202 1.383 . S
C1197 C1193 1.495 . S
C1197 H1203 0.959 . S
C1197 H1204 0.961 . S
C1197 H1205 0.960 . S
C1198 C1196 1.381 . S
C1198 C1199 1.394 . S
C1198 H1206 0.930 . S
C1199 C1198 1.394 . S
C1199 C1200 1.383 . S
C1199 H1207 0.929 . S
C1200 C1199 1.383 . S
C1200 C1201 1.377 . S
C1201 H1185 0.930 . S
C1201 C1200 1.377 . S
C1201 C1202 1.379 . S
C1202 H1186 0.931 . S
C1202 C1196 1.383 . S
C1202 C1201 1.379 . S
H1203 C1197 0.959 . S
H1204 C1197 0.961 . S
H1205 C1197 0.960 . S
H1206 C1198 0.930 . S
H1207 C1199 0.929 . S
H1208 C1216 0.929 . S
H1209 C1218 0.930 . S
H1210 C1220 0.930 . S
H1211 C1223 0.929 . S
H1212 C1226 0.930 . S
H1213 C1228 0.960 . S
H1214 C1228 0.960 . S
H1215 C1228 0.960 . S
C1216 H1208 0.929 . S
C1216 C1217 1.377 . S
C1216 C1218 1.384 . S
C1217 C1216 1.377 . S
C1217 C1223 1.390 . S
C1218 H1209 0.930 . S
C1218 C1216 1.384 . S
C1218 C1219 1.372 . S
C1219 C1218 1.372 . S
C1219 C1220 1.400 . S
C1219 C1224 1.490 . S
C1220 H1210 0.930 . S
C1220 C1219 1.400 . S
C1220 C1223 1.386 . S
H1221 C1237 0.930 . S
H1222 C1238 0.931 . S
C1223 H1211 0.929 . S
C1223 C1217 1.390 . S
C1223 C1220 1.386 . S
C1224 C1219 1.490 . S
C1224 C1226 1.395 . S
C1224 C1227 1.403 . S
H1225 C1231 0.930 . S
C1226 H1212 0.930 . S
C1226 C1224 1.395 . S
C1226 C1229 1.403 . S
C1227 C1224 1.403 . S
C1227 C1228 1.524 . S
C1227 C1231 1.400 . S
C1228 H1213 0.960 . S
C1228 H1214 0.960 . S
C1228 H1215 0.960 . S
C1228 C1227 1.524 . S
C1229 C1226 1.403 . S
C1229 C1230 1.392 . S
C1229 C1233 1.495 . S
C1230 C1229 1.392 . S
C1230 C1231 1.385 . S
C1230 C1232 1.478 . S
C1231 H1225 0.930 . S
C1231 C1227 1.400 . S
C1231 C1230 1.385 . S
C1232 C1230 1.478 . S
C1232 C1234 1.381 . S
C1232 C1238 1.383 . S
C1233 C1229 1.495 . S
C1233 H1239 0.959 . S
C1233 H1240 0.961 . S
C1233 H1241 0.960 . S
C1234 C1232 1.381 . S
C1234 C1235 1.394 . S
C1234 H1242 0.930 . S
C1235 C1234 1.394 . S
C1235 C1236 1.383 . S
C1235 H1243 0.929 . S
C1236 C1235 1.383 . S
C1236 C1237 1.377 . S
C1237 H1221 0.930 . S
C1237 C1236 1.377 . S
C1237 C1238 1.379 . S
C1238 H1222 0.931 . S
C1238 C1232 1.383 . S
C1238 C1237 1.379 . S
H1239 C1233 0.959 . S
H1240 C1233 0.961 . S
H1241 C1233 0.960 . S
H1242 C1234 0.930 . S
H1243 C1235 0.929 . S
H1244 C1252 0.929 . S
H1245 C1254 0.930 . S
H1246 C1256 0.930 . S
H1247 C1259 0.929 . S
H1248 C1262 0.930 . S
H1249 C1264 0.960 . S
H1250 C1264 0.960 . S
H1251 C1264 0.960 . S
C1252 H1244 0.929 . S
C1252 C1253 1.377 . S
C1252 C1254 1.384 . S
C1253 C1252 1.377 . S
C1253 C1259 1.390 . S
C1254 H1245 0.930 . S
C1254 C1252 1.384 . S
C1254 C1255 1.372 . S
C1255 C1254 1.372 . S
C1255 C1256 1.400 . S
C1255 C1260 1.490 . S
C1256 H1246 0.930 . S
C1256 C1255 1.400 . S
C1256 C1259 1.386 . S
H1257 C1273 0.930 . S
H1258 C1274 0.931 . S
C1259 H1247 0.929 . S
C1259 C1253 1.390 . S
C1259 C1256 1.386 . S
C1260 C1255 1.490 . S
C1260 C1262 1.395 . S
C1260 C1263 1.403 . S
H1261 C1267 0.930 . S
C1262 H1248 0.930 . S
C1262 C1260 1.395 . S
C1262 C1265 1.403 . S
C1263 C1260 1.403 . S
C1263 C1264 1.524 . S
C1263 C1267 1.400 . S
C1264 H1249 0.960 . S
C1264 H1250 0.960 . S
C1264 H1251 0.960 . S
C1264 C1263 1.524 . S
C1265 C1262 1.403 . S
C1265 C1266 1.392 . S
C1265 C1269 1.495 . S
C1266 C1265 1.392 . S
C1266 C1267 1.385 . S
C1266 C1268 1.478 . S
C1267 H1261 0.930 . S
C1267 C1263 1.400 . S
C1267 C1266 1.385 . S
C1268 C1266 1.478 . S
C1268 C1270 1.381 . S
C1268 C1274 1.383 . S
C1269 C1265 1.495 . S
C1269 H1275 0.959 . S
C1269 H1276 0.961 . S
C1269 H1277 0.960 . S
C1270 C1268 1.381 . S
C1270 C1271 1.394 . S
C1270 H1278 0.930 . S
C1271 C1270 1.394 . S
C1271 C1272 1.383 . S
C1271 H1279 0.929 . S
C1272 C1271 1.383 . S
C1272 C1273 1.377 . S
C1273 H1257 0.930 . S
C1273 C1272 1.377 . S
C1273 C1274 1.379 . S
C1274 H1258 0.931 . S
C1274 C1268 1.383 . S
C1274 C1273 1.379 . S
H1275 C1269 0.959 . S
H1276 C1269 0.961 . S
H1277 C1269 0.960 . S
H1278 C1270 0.930 . S
H1279 C1271 0.929 . S
H1280 C1288 0.929 . S
H1281 C1290 0.930 . S
H1282 C1292 0.930 . S
H1283 C1295 0.929 . S
H1284 C1298 0.930 . S
H1285 C1300 0.960 . S
H1286 C1300 0.960 . S
H1287 C1300 0.960 . S
C1288 H1280 0.929 . S
C1288 C1289 1.377 . S
C1288 C1290 1.384 . S
C1289 C1288 1.377 . S
C1289 C1295 1.390 . S
C1290 H1281 0.930 . S
C1290 C1288 1.384 . S
C1290 C1291 1.372 . S
C1291 C1290 1.372 . S
C1291 C1292 1.400 . S
C1291 C1296 1.490 . S
C1292 H1282 0.930 . S
C1292 C1291 1.400 . S
C1292 C1295 1.386 . S
H1293 C1309 0.930 . S
H1294 C1310 0.931 . S
C1295 H1283 0.929 . S
C1295 C1289 1.390 . S
C1295 C1292 1.386 . S
C1296 C1291 1.490 . S
C1296 C1298 1.395 . S
C1296 C1299 1.403 . S
H1297 C1303 0.930 . S
C1298 H1284 0.930 . S
C1298 C1296 1.395 . S
C1298 C1301 1.403 . S
C1299 C1296 1.403 . S
C1299 C1300 1.524 . S
C1299 C1303 1.400 . S
C1300 H1285 0.960 . S
C1300 H1286 0.960 . S
C1300 H1287 0.960 . S
C1300 C1299 1.524 . S
C1301 C1298 1.403 . S
C1301 C1302 1.392 . S
C1301 C1305 1.495 . S
C1302 C1301 1.392 . S
C1302 C1303 1.385 . S
C1302 C1304 1.478 . S
C1303 H1297 0.930 . S
C1303 C1299 1.400 . S
C1303 C1302 1.385 . S
C1304 C1302 1.478 . S
C1304 C1306 1.381 . S
C1304 C1310 1.383 . S
C1305 C1301 1.495 . S
C1305 H1311 0.959 . S
C1305 H1312 0.961 . S
C1305 H1313 0.960 . S
C1306 C1304 1.381 . S
C1306 C1307 1.394 . S
C1306 H1314 0.930 . S
C1307 C1306 1.394 . S
C1307 C1308 1.383 . S
C1307 H1315 0.929 . S
C1308 C1307 1.383 . S
C1308 C1309 1.377 . S
C1309 H1293 0.930 . S
C1309 C1308 1.377 . S
C1309 C1310 1.379 . S
C1310 H1294 0.931 . S
C1310 C1304 1.383 . S
C1310 C1309 1.379 . S
H1311 C1305 0.959 . S
H1312 C1305 0.961 . S
H1313 C1305 0.960 . S
H1314 C1306 0.930 . S
H1315 C1307 0.929 . S
H1316 C1324 0.929 . S
H1317 C1326 0.930 . S
H1318 C1328 0.930 . S
H1319 C1331 0.929 . S
H1320 C1334 0.930 . S
H1321 C1336 0.960 . S
H1322 C1336 0.960 . S
H1323 C1336 0.960 . S
C1324 H1316 0.929 . S
C1324 C1325 1.377 . S
C1324 C1326 1.384 . S
C1325 C1324 1.377 . S
C1325 C1331 1.390 . S
C1326 H1317 0.930 . S
C1326 C1324 1.384 . S
C1326 C1327 1.372 . S
C1327 C1326 1.372 . S
C1327 C1328 1.400 . S
C1327 C1332 1.490 . S
C1328 H1318 0.930 . S
C1328 C1327 1.400 . S
C1328 C1331 1.386 . S
H1329 C1345 0.930 . S
H1330 C1346 0.931 . S
C1331 H1319 0.929 . S
C1331 C1325 1.390 . S
C1331 C1328 1.386 . S
C1332 C1327 1.490 . S
C1332 C1334 1.395 . S
C1332 C1335 1.403 . S
H1333 C1339 0.930 . S
C1334 H1320 0.930 . S
C1334 C1332 1.395 . S
C1334 C1337 1.403 . S
C1335 C1332 1.403 . S
C1335 C1336 1.524 . S
C1335 C1339 1.400 . S
C1336 H1321 0.960 . S
C1336 H1322 0.960 . S
C1336 H1323 0.960 . S
C1336 C1335 1.524 . S
C1337 C1334 1.403 . S
C1337 C1338 1.392 . S
C1337 C1341 1.495 . S
C1338 C1337 1.392 . S
C1338 C1339 1.385 . S
C1338 C1340 1.478 . S
C1339 H1333 0.930 . S
C1339 C1335 1.400 . S
C1339 C1338 1.385 . S
C1340 C1338 1.478 . S
C1340 C1342 1.381 . S
C1340 C1346 1.383 . S
C1341 C1337 1.495 . S
C1341 H1347 0.959 . S
C1341 H1348 0.961 . S
C1341 H1349 0.960 . S
C1342 C1340 1.381 . S
C1342 C1343 1.394 . S
C1342 H1350 0.930 . S
C1343 C1342 1.394 . S
C1343 C1344 1.383 . S
C1343 H1351 0.929 . S
C1344 C1343 1.383 . S
C1344 C1345 1.377 . S
C1345 H1329 0.930 . S
C1345 C1344 1.377 . S
C1345 C1346 1.379 . S
C1346 H1330 0.931 . S
C1346 C1340 1.383 . S
C1346 C1345 1.379 . S
H1347 C1341 0.959 . S
H1348 C1341 0.961 . S
H1349 C1341 0.960 . S
H1350 C1342 0.930 . S
H1351 C1343 0.929 . S
H1352 C1360 0.929 . S
H1353 C1362 0.930 . S
H1354 C1364 0.930 . S
H1355 C1367 0.929 . S
H1356 C1370 0.930 . S
H1357 C1372 0.960 . S
H1358 C1372 0.960 . S
H1359 C1372 0.960 . S
C1360 H1352 0.929 . S
C1360 C1361 1.377 . S
C1360 C1362 1.384 . S
C1361 C1360 1.377 . S
C1361 C1367 1.390 . S
C1362 H1353 0.930 . S
C1362 C1360 1.384 . S
C1362 C1363 1.372 . S
C1363 C1362 1.372 . S
C1363 C1364 1.400 . S
C1363 C1368 1.490 . S
C1364 H1354 0.930 . S
C1364 C1363 1.400 . S
C1364 C1367 1.386 . S
H1365 C1381 0.930 . S
H1366 C1382 0.931 . S
C1367 H1355 0.929 . S
C1367 C1361 1.390 . S
C1367 C1364 1.386 . S
C1368 C1363 1.490 . S
C1368 C1370 1.395 . S
C1368 C1371 1.403 . S
H1369 C1375 0.930 . S
C1370 H1356 0.930 . S
C1370 C1368 1.395 . S
C1370 C1373 1.403 . S
C1371 C1368 1.403 . S
C1371 C1372 1.524 . S
C1371 C1375 1.400 . S
C1372 H1357 0.960 . S
C1372 H1358 0.960 . S
C1372 H1359 0.960 . S
C1372 C1371 1.524 . S
C1373 C1370 1.403 . S
C1373 C1374 1.392 . S
C1373 C1377 1.495 . S
C1374 C1373 1.392 . S
C1374 C1375 1.385 . S
C1374 C1376 1.478 . S
C1375 H1369 0.930 . S
C1375 C1371 1.400 . S
C1375 C1374 1.385 . S
C1376 C1374 1.478 . S
C1376 C1378 1.381 . S
C1376 C1382 1.383 . S
C1377 C1373 1.495 . S
C1377 H1383 0.959 . S
C1377 H1384 0.961 . S
C1377 H1385 0.960 . S
C1378 C1376 1.381 . S
C1378 C1379 1.394 . S
C1378 H1386 0.930 . S
C1379 C1378 1.394 . S
C1379 C1380 1.383 . S
C1379 H1387 0.929 . S
C1380 C1379 1.383 . S
C1380 C1381 1.377 . S
C1381 H1365 0.930 . S
C1381 C1380 1.377 . S
C1381 C1382 1.379 . S
C1382 H1366 0.931 . S
C1382 C1376 1.383 . S
C1382 C1381 1.379 . S
H1383 C1377 0.959 . S
H1384 C1377 0.961 . S
H1385 C1377 0.960 . S
H1386 C1378 0.930 . S
H1387 C1379 0.929 . S
H1388 C1396 0.929 . S
H1389 C1398 0.930 . S
H1390 C1400 0.930 . S
H1391 C1403 0.929 . S
H1392 C1406 0.930 . S
H1393 C1408 0.960 . S
H1394 C1408 0.960 . S
H1395 C1408 0.960 . S
C1396 H1388 0.929 . S
C1396 C1397 1.377 . S
C1396 C1398 1.384 . S
C1397 C1396 1.377 . S
C1397 C1403 1.390 . S
C1398 H1389 0.930 . S
C1398 C1396 1.384 . S
C1398 C1399 1.372 . S
C1399 C1398 1.372 . S
C1399 C1400 1.400 . S
C1399 C1404 1.490 . S
C1400 H1390 0.930 . S
C1400 C1399 1.400 . S
C1400 C1403 1.386 . S
H1401 C1417 0.930 . S
H1402 C1418 0.931 . S
C1403 H1391 0.929 . S
C1403 C1397 1.390 . S
C1403 C1400 1.386 . S
C1404 C1399 1.490 . S
C1404 C1406 1.395 . S
C1404 C1407 1.403 . S
H1405 C1411 0.930 . S
C1406 H1392 0.930 . S
C1406 C1404 1.395 . S
C1406 C1409 1.403 . S
C1407 C1404 1.403 . S
C1407 C1408 1.524 . S
C1407 C1411 1.400 . S
C1408 H1393 0.960 . S
C1408 H1394 0.960 . S
C1408 H1395 0.960 . S
C1408 C1407 1.524 . S
C1409 C1406 1.403 . S
C1409 C1410 1.392 . S
C1409 C1413 1.495 . S
C1410 C1409 1.392 . S
C1410 C1411 1.385 . S
C1410 C1412 1.478 . S
C1411 H1405 0.930 . S
C1411 C1407 1.400 . S
C1411 C1410 1.385 . S
C1412 C1410 1.478 . S
C1412 C1414 1.381 . S
C1412 C1418 1.383 . S
C1413 C1409 1.495 . S
C1413 H1419 0.959 . S
C1413 H1420 0.961 . S
C1413 H1421 0.960 . S
C1414 C1412 1.381 . S
C1414 C1415 1.394 . S
C1414 H1422 0.930 . S
C1415 C1414 1.394 . S
C1415 C1416 1.383 . S
C1415 H1423 0.929 . S
C1416 C1415 1.383 . S
C1416 C1417 1.377 . S
C1417 H1401 0.930 . S
C1417 C1416 1.377 . S
C1417 C1418 1.379 . S
C1418 H1402 0.931 . S
C1418 C1412 1.383 . S
C1418 C1417 1.379 . S
H1419 C1413 0.959 . S
H1420 C1413 0.961 . S
H1421 C1413 0.960 . S
H1422 C1414 0.930 . S
H1423 C1415 0.929 . S
H1424 C1432 0.929 . S
H1425 C1434 0.930 . S
H1426 C1436 0.930 . S
H1427 C1439 0.929 . S
H1428 C1442 0.930 . S
H1429 C1444 0.960 . S
H1430 C1444 0.960 . S
H1431 C1444 0.960 . S
C1432 H1424 0.929 . S
C1432 C1433 1.377 . S
C1432 C1434 1.384 . S
C1433 C1432 1.377 . S
C1433 C1439 1.390 . S
C1434 H1425 0.930 . S
C1434 C1432 1.384 . S
C1434 C1435 1.372 . S
C1435 C1434 1.372 . S
C1435 C1436 1.400 . S
C1435 C1440 1.490 . S
C1436 H1426 0.930 . S
C1436 C1435 1.400 . S
C1436 C1439 1.386 . S
H1437 C1453 0.930 . S
H1438 C1454 0.931 . S
C1439 H1427 0.929 . S
C1439 C1433 1.390 . S
C1439 C1436 1.386 . S
C1440 C1435 1.490 . S
C1440 C1442 1.395 . S
C1440 C1443 1.403 . S
H1441 C1447 0.930 . S
C1442 H1428 0.930 . S
C1442 C1440 1.395 . S
C1442 C1445 1.403 . S
C1443 C1440 1.403 . S
C1443 C1444 1.524 . S
C1443 C1447 1.400 . S
C1444 H1429 0.960 . S
C1444 H1430 0.960 . S
C1444 H1431 0.960 . S
C1444 C1443 1.524 . S
C1445 C1442 1.403 . S
C1445 C1446 1.392 . S
C1445 C1449 1.495 . S
C1446 C1445 1.392 . S
C1446 C1447 1.385 . S
C1446 C1448 1.478 . S
C1447 H1441 0.930 . S
C1447 C1443 1.400 . S
C1447 C1446 1.385 . S
C1448 C1446 1.478 . S
C1448 C1450 1.381 . S
C1448 C1454 1.383 . S
C1449 C1445 1.495 . S
C1449 H1455 0.959 . S
C1449 H1456 0.961 . S
C1449 H1457 0.960 . S
C1450 C1448 1.381 . S
C1450 C1451 1.394 . S
C1450 H1458 0.930 . S
C1451 C1450 1.394 . S
C1451 C1452 1.383 . S
C1451 H1459 0.929 . S
C1452 C1451 1.383 . S
C1452 C1453 1.377 . S
C1453 H1437 0.930 . S
C1453 C1452 1.377 . S
C1453 C1454 1.379 . S
C1454 H1438 0.931 . S
C1454 C1448 1.383 . S
C1454 C1453 1.379 . S
H1455 C1449 0.959 . S
H1456 C1449 0.961 . S
H1457 C1449 0.960 . S
H1458 C1450 0.930 . S
H1459 C1451 0.929 . S
H1460 C1468 0.929 . S
H1461 C1470 0.930 . S
H1462 C1472 0.930 . S
H1463 C1475 0.929 . S
H1464 C1478 0.930 . S
H1465 C1480 0.960 . S
H1466 C1480 0.960 . S
H1467 C1480 0.960 . S
C1468 H1460 0.929 . S
C1468 C1469 1.377 . S
C1468 C1470 1.384 . S
C1469 C1468 1.377 . S
C1469 C1475 1.390 . S
C1470 H1461 0.930 . S
C1470 C1468 1.384 . S
C1470 C1471 1.372 . S
C1471 C1470 1.372 . S
C1471 C1472 1.400 . S
C1471 C1476 1.490 . S
C1472 H1462 0.930 . S
C1472 C1471 1.400 . S
C1472 C1475 1.386 . S
H1473 C1489 0.930 . S
H1474 C1490 0.931 . S
C1475 H1463 0.929 . S
C1475 C1469 1.390 . S
C1475 C1472 1.386 . S
C1476 C1471 1.490 . S
C1476 C1478 1.395 . S
C1476 C1479 1.403 . S
H1477 C1483 0.930 . S
C1478 H1464 0.930 . S
C1478 C1476 1.395 . S
C1478 C1481 1.403 1_655 S
C1479 C1476 1.403 . S
C1479 C1480 1.524 . S
C1479 C1483 1.400 1_655 S
C1480 H1465 0.960 . S
C1480 H1466 0.960 . S
C1480 H1467 0.960 . S
C1480 C1479 1.524 . S
C1481 C1478 1.403 1_455 S
C1481 C1482 1.392 . S
C1481 C1485 1.495 1_554 S
C1482 C1481 1.392 . S
C1482 C1483 1.385 . S
C1482 C1484 1.478 . S
C1483 H1477 0.930 . S
C1483 C1479 1.400 1_455 S
C1483 C1482 1.385 . S
C1484 C1482 1.478 . S
C1484 C1486 1.381 . S
C1484 C1490 1.383 . S
C1485 C1481 1.495 1_556 S
C1485 H1491 0.959 . S
C1485 H1492 0.961 . S
C1485 H1493 0.960 . S
C1486 C1484 1.381 . S
C1486 C1487 1.394 . S
C1486 H1494 0.930 . S
C1487 C1486 1.394 . S
C1487 C1488 1.383 . S
C1487 H1495 0.929 . S
C1488 C1487 1.383 . S
C1488 C1489 1.377 . S
C1489 H1473 0.930 . S
C1489 C1488 1.377 . S
C1489 C1490 1.379 . S
C1490 H1474 0.931 . S
C1490 C1484 1.383 . S
C1490 C1489 1.379 . S
H1491 C1485 0.959 . S
H1492 C1485 0.961 . S
H1493 C1485 0.960 . S
H1494 C1486 0.930 . S
H1495 C1487 0.929 . S
H1496 C1504 0.929 . S
H1497 C1506 0.930 . S
H1498 C1508 0.930 . S
H1499 C1511 0.929 . S
H1500 C1514 0.930 . S
H1501 C1516 0.960 . S
H1502 C1516 0.960 . S
H1503 C1516 0.960 . S
C1504 H1496 0.929 . S
C1504 C1505 1.377 . S
C1504 C1506 1.384 . S
C1505 C1504 1.377 . S
C1505 C1511 1.390 . S
C1506 H1497 0.930 . S
C1506 C1504 1.384 . S
C1506 C1507 1.372 . S
C1507 C1506 1.372 . S
C1507 C1508 1.400 . S
C1507 C1512 1.490 . S
C1508 H1498 0.930 . S
C1508 C1507 1.400 . S
C1508 C1511 1.386 . S
H1509 C1525 0.930 . S
H1510 C1526 0.931 . S
C1511 H1499 0.929 . S
C1511 C1505 1.390 . S
C1511 C1508 1.386 . S
C1512 C1507 1.490 . S
C1512 C1514 1.395 . S
C1512 C1515 1.403 . S
H1513 C1519 0.930 . S
C1514 H1500 0.930 . S
C1514 C1512 1.395 . S
C1514 C1517 1.403 . S
C1515 C1512 1.403 . S
C1515 C1516 1.524 . S
C1515 C1519 1.400 . S
C1516 H1501 0.960 . S
C1516 H1502 0.960 . S
C1516 H1503 0.960 . S
C1516 C1515 1.524 . S
C1517 C1514 1.403 . S
C1517 C1518 1.392 . S
C1517 C1521 1.495 . S
C1518 C1517 1.392 . S
C1518 C1519 1.385 . S
C1518 C1520 1.478 . S
C1519 H1513 0.930 . S
C1519 C1515 1.400 . S
C1519 C1518 1.385 . S
C1520 C1518 1.478 . S
C1520 C1522 1.381 . S
C1520 C1526 1.383 . S
C1521 C1517 1.495 . S
C1521 H1527 0.959 . S
C1521 H1528 0.961 . S
C1521 H1529 0.960 . S
C1522 C1520 1.381 . S
C1522 C1523 1.394 . S
C1522 H1530 0.930 . S
C1523 C1522 1.394 . S
C1523 C1524 1.383 . S
C1523 H1531 0.929 . S
C1524 C1523 1.383 . S
C1524 C1525 1.377 . S
C1525 H1509 0.930 . S
C1525 C1524 1.377 . S
C1525 C1526 1.379 . S
C1526 H1510 0.931 . S
C1526 C1520 1.383 . S
C1526 C1525 1.379 . S
H1527 C1521 0.959 . S
H1528 C1521 0.961 . S
H1529 C1521 0.960 . S
H1530 C1522 0.930 . S
H1531 C1523 0.929 . S
H1532 C1540 0.929 . S
H1533 C1542 0.930 . S
H1534 C1544 0.930 . S
H1535 C1547 0.929 . S
H1536 C1550 0.930 . S
H1537 C1552 0.960 1_554 S
H1538 C1552 0.960 . S
H1539 C1552 0.960 1_554 S
C1540 H1532 0.929 . S
C1540 C1541 1.377 . S
C1540 C1542 1.384 . S
C1541 C1540 1.377 . S
C1541 C1547 1.390 . S
C1542 H1533 0.930 . S
C1542 C1540 1.384 . S
C1542 C1543 1.372 . S
C1543 C1542 1.372 . S
C1543 C1544 1.400 . S
C1543 C1548 1.490 . S
C1544 H1534 0.930 . S
C1544 C1543 1.400 . S
C1544 C1547 1.386 . S
H1545 C1561 0.930 . S
H1546 C1562 0.931 . S
C1547 H1535 0.929 . S
C1547 C1541 1.390 . S
C1547 C1544 1.386 . S
C1548 C1543 1.490 . S
C1548 C1550 1.395 . S
C1548 C1551 1.403 . S
H1549 C1555 0.930 . S
C1550 H1536 0.930 . S
C1550 C1548 1.395 . S
C1550 C1553 1.403 1_455 S
C1551 C1548 1.403 . S
C1551 C1552 1.524 . S
C1551 C1555 1.400 1_455 S
C1552 H1537 0.960 1_556 S
C1552 H1538 0.960 . S
C1552 H1539 0.960 1_556 S
C1552 C1551 1.524 . S
C1553 C1550 1.403 1_655 S
C1553 C1554 1.392 . S
C1553 C1557 1.495 . S
C1554 C1553 1.392 . S
C1554 C1555 1.385 . S
C1554 C1556 1.478 . S
C1555 H1549 0.930 . S
C1555 C1551 1.400 1_655 S
C1555 C1554 1.385 . S
C1556 C1554 1.478 . S
C1556 C1558 1.381 . S
C1556 C1562 1.383 . S
C1557 C1553 1.495 . S
C1557 H1563 0.959 . S
C1557 H1564 0.961 . S
C1557 H1565 0.960 . S
C1558 C1556 1.381 . S
C1558 C1559 1.394 . S
C1558 H1566 0.930 . S
C1559 C1558 1.394 . S
C1559 C1560 1.383 . S
C1559 H1567 0.929 . S
C1560 C1559 1.383 . S
C1560 C1561 1.377 . S
C1561 H1545 0.930 . S
C1561 C1560 1.377 . S
C1561 C1562 1.379 . S
C1562 H1546 0.931 . S
C1562 C1556 1.383 . S
C1562 C1561 1.379 . S
H1563 C1557 0.959 . S
H1564 C1557 0.961 . S
H1565 C1557 0.960 . S
H1566 C1558 0.930 . S
H1567 C1559 0.929 . S
H1568 C1576 0.929 . S
H1569 C1578 0.930 . S
H1570 C1580 0.930 . S
H1571 C1583 0.929 . S
H1572 C1586 0.930 . S
H1573 C1588 0.960 . S
H1574 C1588 0.960 . S
H1575 C1588 0.960 . S
C1576 H1568 0.929 . S
C1576 C1577 1.377 . S
C1576 C1578 1.384 . S
C1577 C1576 1.377 . S
C1577 C1583 1.390 . S
C1578 H1569 0.930 . S
C1578 C1576 1.384 . S
C1578 C1579 1.372 . S
C1579 C1578 1.372 . S
C1579 C1580 1.400 . S
C1579 C1584 1.490 . S
C1580 H1570 0.930 . S
C1580 C1579 1.400 . S
C1580 C1583 1.386 . S
H1581 C1597 0.930 . S
H1582 C1598 0.931 . S
C1583 H1571 0.929 . S
C1583 C1577 1.390 . S
C1583 C1580 1.386 . S
C1584 C1579 1.490 . S
C1584 C1586 1.395 1_556 S
C1584 C1587 1.403 . S
H1585 C1591 0.930 . S
C1586 H1572 0.930 . S
C1586 C1584 1.395 1_554 S
C1586 C1589 1.403 . S
C1587 C1584 1.403 . S
C1587 C1588 1.524 . S
C1587 C1591 1.400 . S
C1588 H1573 0.960 . S
C1588 H1574 0.960 . S
C1588 H1575 0.960 . S
C1588 C1587 1.524 . S
C1589 C1586 1.403 . S
C1589 C1590 1.392 . S
C1589 C1593 1.495 . S
C1590 C1589 1.392 . S
C1590 C1591 1.385 1_554 S
C1590 C1592 1.478 . S
C1591 H1585 0.930 . S
C1591 C1587 1.400 . S
C1591 C1590 1.385 1_556 S
C1592 C1590 1.478 . S
C1592 C1594 1.381 . S
C1592 C1598 1.383 . S
C1593 C1589 1.495 . S
C1593 H1599 0.959 . S
C1593 H1600 0.961 . S
C1593 H1601 0.960 . S
C1594 C1592 1.381 . S
C1594 C1595 1.394 . S
C1594 H1602 0.930 . S
C1595 C1594 1.394 . S
C1595 C1596 1.383 . S
C1595 H1603 0.929 . S
C1596 C1595 1.383 . S
C1596 C1597 1.377 . S
C1597 H1581 0.930 . S
C1597 C1596 1.377 . S
C1597 C1598 1.379 . S
C1598 H1582 0.931 . S
C1598 C1592 1.383 . S
C1598 C1597 1.379 . S
H1599 C1593 0.959 . S
H1600 C1593 0.961 . S
H1601 C1593 0.960 . S
H1602 C1594 0.930 . S
H1603 C1595 0.929 . S
H1604 C1612 0.929 . S
H1605 C1614 0.930 . S
H1606 C1616 0.930 . S
H1607 C1619 0.929 . S
H1608 C1622 0.930 . S
H1609 C1624 0.960 . S
H1610 C1624 0.960 . S
H1611 C1624 0.960 . S
C1612 H1604 0.929 . S
C1612 C1613 1.377 . S
C1612 C1614 1.384 . S
C1613 C1612 1.377 . S
C1613 C1619 1.390 . S
C1614 H1605 0.930 . S
C1614 C1612 1.384 . S
C1614 C1615 1.372 . S
C1615 C1614 1.372 . S
C1615 C1616 1.400 . S
C1615 C1620 1.490 . S
C1616 H1606 0.930 . S
C1616 C1615 1.400 . S
C1616 C1619 1.386 . S
H1617 C1633 0.930 . S
H1618 C1634 0.931 . S
C1619 H1607 0.929 . S
C1619 C1613 1.390 . S
C1619 C1616 1.386 . S
C1620 C1615 1.490 . S
C1620 C1622 1.395 . S
C1620 C1623 1.403 . S
H1621 C1627 0.930 . S
C1622 H1608 0.930 . S
C1622 C1620 1.395 . S
C1622 C1625 1.403 . S
C1623 C1620 1.403 . S
C1623 C1624 1.524 . S
C1623 C1627 1.400 . S
C1624 H1609 0.960 . S
C1624 H1610 0.960 . S
C1624 H1611 0.960 . S
C1624 C1623 1.524 . S
C1625 C1622 1.403 . S
C1625 C1626 1.392 . S
C1625 C1629 1.495 . S
C1626 C1625 1.392 . S
C1626 C1627 1.385 . S
C1626 C1628 1.478 . S
C1627 H1621 0.930 . S
C1627 C1623 1.400 . S
C1627 C1626 1.385 . S
C1628 C1626 1.478 . S
C1628 C1630 1.381 . S
C1628 C1634 1.383 . S
C1629 C1625 1.495 . S
C1629 H1635 0.959 . S
C1629 H1636 0.961 . S
C1629 H1637 0.960 . S
C1630 C1628 1.381 . S
C1630 C1631 1.394 . S
C1630 H1638 0.930 . S
C1631 C1630 1.394 . S
C1631 C1632 1.383 . S
C1631 H1639 0.929 . S
C1632 C1631 1.383 . S
C1632 C1633 1.377 . S
C1633 H1617 0.930 . S
C1633 C1632 1.377 . S
C1633 C1634 1.379 . S
C1634 H1618 0.931 . S
C1634 C1628 1.383 . S
C1634 C1633 1.379 . S
H1635 C1629 0.959 . S
H1636 C1629 0.961 . S
H1637 C1629 0.960 . S
H1638 C1630 0.930 . S
H1639 C1631 0.929 . S
H1640 C1648 0.929 . S
H1641 C1650 0.930 . S
H1642 C1652 0.930 . S
H1643 C1655 0.929 . S
H1644 C1658 0.930 . S
H1645 C1660 0.960 . S
H1646 C1660 0.960 . S
H1647 C1660 0.960 . S
C1648 H1640 0.929 . S
C1648 C1649 1.377 . S
C1648 C1650 1.384 . S
C1649 C1648 1.377 . S
C1649 C1655 1.390 . S
C1650 H1641 0.930 . S
C1650 C1648 1.384 . S
C1650 C1651 1.372 . S
C1651 C1650 1.372 . S
C1651 C1652 1.400 . S
C1651 C1656 1.490 . S
C1652 H1642 0.930 . S
C1652 C1651 1.400 . S
C1652 C1655 1.386 . S
H1653 C1669 0.930 . S
H1654 C1670 0.931 . S
C1655 H1643 0.929 . S
C1655 C1649 1.390 . S
C1655 C1652 1.386 . S
C1656 C1651 1.490 . S
C1656 C1658 1.395 . S
C1656 C1659 1.403 . S
H1657 C1663 0.930 . S
C1658 H1644 0.930 . S
C1658 C1656 1.395 . S
C1658 C1661 1.403 . S
C1659 C1656 1.403 . S
C1659 C1660 1.524 . S
C1659 C1663 1.400 . S
C1660 H1645 0.960 . S
C1660 H1646 0.960 . S
C1660 H1647 0.960 . S
C1660 C1659 1.524 . S
C1661 C1658 1.403 . S
C1661 C1662 1.392 . S
C1661 C1665 1.495 . S
C1662 C1661 1.392 . S
C1662 C1663 1.385 . S
C1662 C1664 1.478 . S
C1663 H1657 0.930 . S
C1663 C1659 1.400 . S
C1663 C1662 1.385 . S
C1664 C1662 1.478 . S
C1664 C1666 1.381 . S
C1664 C1670 1.383 . S
C1665 C1661 1.495 . S
C1665 H1671 0.959 . S
C1665 H1672 0.961 . S
C1665 H1673 0.960 . S
C1666 C1664 1.381 . S
C1666 C1667 1.394 . S
C1666 H1674 0.930 . S
C1667 C1666 1.394 . S
C1667 C1668 1.383 . S
C1667 H1675 0.929 . S
C1668 C1667 1.383 . S
C1668 C1669 1.377 . S
C1669 H1653 0.930 . S
C1669 C1668 1.377 . S
C1669 C1670 1.379 . S
C1670 H1654 0.931 . S
C1670 C1664 1.383 . S
C1670 C1669 1.379 . S
H1671 C1665 0.959 . S
H1672 C1665 0.961 . S
H1673 C1665 0.960 . S
H1674 C1666 0.930 . S
H1675 C1667 0.929 . S
H1676 C1684 0.929 . S
H1677 C1686 0.930 . S
H1678 C1688 0.930 . S
H1679 C1691 0.929 . S
H1680 C1694 0.930 . S
H1681 C1696 0.960 . S
H1682 C1696 0.960 . S
H1683 C1696 0.960 . S
C1684 H1676 0.929 . S
C1684 C1685 1.377 . S
C1684 C1686 1.384 . S
C1685 C1684 1.377 . S
C1685 C1691 1.390 . S
C1686 H1677 0.930 . S
C1686 C1684 1.384 . S
C1686 C1687 1.372 . S
C1687 C1686 1.372 . S
C1687 C1688 1.400 . S
C1687 C1692 1.490 . S
C1688 H1678 0.930 . S
C1688 C1687 1.400 . S
C1688 C1691 1.386 . S
H1689 C1705 0.930 . S
H1690 C1706 0.931 . S
C1691 H1679 0.929 . S
C1691 C1685 1.390 . S
C1691 C1688 1.386 . S
C1692 C1687 1.490 . S
C1692 C1694 1.395 . S
C1692 C1695 1.403 . S
H1693 C1699 0.930 . S
C1694 H1680 0.930 . S
C1694 C1692 1.395 . S
C1694 C1697 1.403 . S
C1695 C1692 1.403 . S
C1695 C1696 1.524 . S
C1695 C1699 1.400 . S
C1696 H1681 0.960 . S
C1696 H1682 0.960 . S
C1696 H1683 0.960 . S
C1696 C1695 1.524 . S
C1697 C1694 1.403 . S
C1697 C1698 1.392 . S
C1697 C1701 1.495 . S
C1698 C1697 1.392 . S
C1698 C1699 1.385 . S
C1698 C1700 1.478 . S
C1699 H1693 0.930 . S
C1699 C1695 1.400 . S
C1699 C1698 1.385 . S
C1700 C1698 1.478 . S
C1700 C1702 1.381 . S
C1700 C1706 1.383 . S
C1701 C1697 1.495 . S
C1701 H1707 0.959 . S
C1701 H1708 0.961 . S
C1701 H1709 0.960 . S
C1702 C1700 1.381 . S
C1702 C1703 1.394 . S
C1702 H1710 0.930 . S
C1703 C1702 1.394 . S
C1703 C1704 1.383 . S
C1703 H1711 0.929 . S
C1704 C1703 1.383 . S
C1704 C1705 1.377 . S
C1705 H1689 0.930 . S
C1705 C1704 1.377 . S
C1705 C1706 1.379 . S
C1706 H1690 0.931 . S
C1706 C1700 1.383 . S
C1706 C1705 1.379 . S
H1707 C1701 0.959 . S
H1708 C1701 0.961 . S
H1709 C1701 0.960 . S
H1710 C1702 0.930 . S
H1711 C1703 0.929 . S
H1712 C1720 0.929 . S
H1713 C1722 0.930 . S
H1714 C1724 0.930 . S
H1715 C1727 0.929 . S
H1716 C1730 0.930 . S
H1717 C1732 0.960 . S
H1718 C1732 0.960 . S
H1719 C1732 0.960 . S
C1720 H1712 0.929 . S
C1720 C1721 1.377 . S
C1720 C1722 1.384 . S
C1721 C1720 1.377 . S
C1721 C1727 1.390 . S
C1722 H1713 0.930 . S
C1722 C1720 1.384 . S
C1722 C1723 1.372 . S
C1723 C1722 1.372 . S
C1723 C1724 1.400 . S
C1723 C1728 1.490 . S
C1724 H1714 0.930 . S
C1724 C1723 1.400 . S
C1724 C1727 1.386 . S
H1725 C1741 0.930 . S
H1726 C1742 0.959 . S
C1727 H1715 0.929 . S
C1727 C1721 1.390 . S
C1727 C1724 1.386 . S
C1728 C1723 1.490 . S
C1728 C1730 1.395 . S
C1728 C1731 1.403 1_554 S
H1729 C1735 0.930 . S
C1730 H1716 0.930 . S
C1730 C1728 1.395 . S
C1730 C1733 1.403 . S
C1731 C1728 1.403 1_556 S
C1731 C1732 1.524 . S
C1731 C1735 1.400 . S
C1732 H1717 0.960 . S
C1732 H1718 0.960 . S
C1732 H1719 0.960 . S
C1732 C1731 1.524 . S
C1733 C1730 1.403 . S
C1733 C1734 1.392 1_554 S
C1733 C1737 1.495 . S
C1734 C1733 1.392 1_556 S
C1734 C1735 1.385 . S
C1734 C1736 1.478 . S
C1735 H1729 0.930 . S
C1735 C1731 1.400 . S
C1735 C1734 1.385 . S
C1736 C1734 1.478 . S
C1736 C1738 1.381 . S
C1736 C1742 1.383 . S
C1737 C1733 1.495 . S
C1737 H1743 0.959 . S
C1737 H1744 0.961 . S
C1737 H1745 0.960 . S
C1738 C1736 1.381 . S
C1738 C1739 1.394 . S
C1738 H1746 0.930 . S
C1739 C1738 1.394 . S
C1739 C1740 1.383 . S
C1739 H1747 0.929 . S
C1740 C1739 1.383 . S
C1740 C1741 1.377 . S
C1741 H1725 0.930 . S
C1741 C1740 1.377 . S
C1741 C1742 1.379 . S
C1742 H1726 0.959 . S
C1742 C1736 1.383 . S
C1742 C1741 1.379 . S
H1743 C1737 0.959 . S
H1744 C1737 0.961 . S
H1745 C1737 0.960 . S
H1746 C1738 0.930 . S
H1747 C1739 0.929 . S
H1748 C1756 0.929 . S
H1749 C1758 0.930 . S
H1750 C1760 0.930 . S
H1751 C1763 0.929 . S
H1752 C1766 0.930 . S
H1753 C1768 0.960 . S
H1754 C1768 0.960 . S
H1755 C1768 0.960 . S
C1756 H1748 0.929 . S
C1756 C1757 1.377 . S
C1756 C1758 1.384 . S
C1757 C1756 1.377 . S
C1757 C1763 1.390 . S
C1758 H1749 0.930 . S
C1758 C1756 1.384 . S
C1758 C1759 1.372 . S
C1759 C1758 1.372 . S
C1759 C1760 1.400 . S
C1759 C1764 1.490 . S
C1760 H1750 0.930 . S
C1760 C1759 1.400 . S
C1760 C1763 1.386 . S
H1761 C1777 0.930 . S
H1762 C1778 0.931 . S
C1763 H1751 0.929 . S
C1763 C1757 1.390 . S
C1763 C1760 1.386 . S
C1764 C1759 1.490 . S
C1764 C1766 1.395 . S
C1764 C1767 1.403 . S
H1765 C1771 0.930 . S
C1766 H1752 0.930 . S
C1766 C1764 1.395 . S
C1766 C1769 1.403 . S
C1767 C1764 1.403 . S
C1767 C1768 1.524 . S
C1767 C1771 1.400 . S
C1768 H1753 0.960 . S
C1768 H1754 0.960 . S
C1768 H1755 0.960 . S
C1768 C1767 1.524 . S
C1769 C1766 1.403 . S
C1769 C1770 1.392 . S
C1769 C1773 1.495 . S
C1770 C1769 1.392 . S
C1770 C1771 1.385 . S
C1770 C1772 1.478 . S
C1771 H1765 0.930 . S
C1771 C1767 1.400 . S
C1771 C1770 1.385 . S
C1772 C1770 1.478 . S
C1772 C1774 1.381 . S
C1772 C1778 1.383 . S
C1773 C1769 1.495 . S
C1773 H1779 0.959 . S
C1773 H1780 0.961 . S
C1773 H1781 0.960 . S
C1774 C1772 1.381 . S
C1774 C1775 1.394 . S
C1774 H1782 0.930 . S
C1775 C1774 1.394 . S
C1775 C1776 1.383 . S
C1775 H1783 0.929 . S
C1776 C1775 1.383 . S
C1776 C1777 1.377 . S
C1777 H1761 0.930 . S
C1777 C1776 1.377 . S
C1777 C1778 1.379 . S
C1778 H1762 0.931 . S
C1778 C1772 1.383 . S
C1778 C1777 1.379 . S
H1779 C1773 0.959 . S
H1780 C1773 0.961 . S
H1781 C1773 0.960 . S
H1782 C1774 0.930 . S
H1783 C1775 0.929 . S
H1784 C1792 0.929 . S
H1785 C1794 0.930 . S
H1786 C1796 0.930 . S
H1787 C1799 0.929 . S
H1788 C1802 0.930 . S
H1789 C1804 0.960 . S
H1790 C1804 0.960 . S
H1791 C1804 0.960 . S
C1792 H1784 0.929 . S
C1792 C1793 1.377 . S
C1792 C1794 1.384 . S
C1793 C1792 1.377 . S
C1793 C1799 1.390 . S
C1794 H1785 0.930 . S
C1794 C1792 1.384 . S
C1794 C1795 1.372 . S
C1795 C1794 1.372 . S
C1795 C1796 1.400 . S
C1795 C1800 1.490 . S
C1796 H1786 0.930 . S
C1796 C1795 1.400 . S
C1796 C1799 1.386 . S
H1797 C1813 0.930 . S
H1798 C1814 0.931 . S
C1799 H1787 0.929 . S
C1799 C1793 1.390 . S
C1799 C1796 1.386 . S
C1800 C1795 1.490 . S
C1800 C1802 1.395 . S
C1800 C1803 1.403 . S
H1801 C1807 0.930 . S
C1802 H1788 0.930 . S
C1802 C1800 1.395 . S
C1802 C1805 1.403 . S
C1803 C1800 1.403 . S
C1803 C1804 1.524 . S
C1803 C1807 1.400 . S
C1804 H1789 0.960 . S
C1804 H1790 0.960 . S
C1804 H1791 0.960 . S
C1804 C1803 1.524 . S
C1805 C1802 1.403 . S
C1805 C1806 1.392 . S
C1805 C1809 1.495 . S
C1806 C1805 1.392 . S
C1806 C1807 1.385 . S
C1806 C1808 1.478 . S
C1807 H1801 0.930 . S
C1807 C1803 1.400 . S
C1807 C1806 1.385 . S
C1808 C1806 1.478 . S
C1808 C1810 1.381 . S
C1808 C1814 1.383 . S
C1809 C1805 1.495 . S
C1809 H1815 0.959 . S
C1809 H1816 0.961 . S
C1809 H1817 0.960 . S
C1810 C1808 1.381 . S
C1810 C1811 1.394 . S
C1810 H1818 0.930 . S
C1811 C1810 1.394 . S
C1811 C1812 1.383 . S
C1811 H1819 0.929 . S
C1812 C1811 1.383 . S
C1812 C1813 1.377 . S
C1813 H1797 0.930 . S
C1813 C1812 1.377 . S
C1813 C1814 1.379 . S
C1814 H1798 0.931 . S
C1814 C1808 1.383 . S
C1814 C1813 1.379 . S
H1815 C1809 0.959 . S
H1816 C1809 0.961 . S
H1817 C1809 0.960 . S
H1818 C1810 0.930 . S
H1819 C1811 0.929 . S
H1820 C1828 0.929 . S
H1821 C1830 0.930 . S
H1822 C1832 0.930 . S
H1823 C1835 0.929 . S
H1824 C1838 0.930 . S
H1825 C1840 0.960 . S
H1826 C1840 0.960 . S
H1827 C1840 0.960 . S
C1828 H1820 0.929 . S
C1828 C1829 1.377 . S
C1828 C1830 1.384 . S
C1829 C1828 1.377 . S
C1829 C1835 1.390 . S
C1830 H1821 0.930 . S
C1830 C1828 1.384 . S
C1830 C1831 1.372 . S
C1831 C1830 1.372 . S
C1831 C1832 1.400 . S
C1831 C1836 1.490 . S
C1832 H1822 0.930 . S
C1832 C1831 1.400 . S
C1832 C1835 1.386 . S
H1833 C1849 0.930 . S
H1834 C1850 0.931 . S
C1835 H1823 0.929 . S
C1835 C1829 1.390 . S
C1835 C1832 1.386 . S
C1836 C1831 1.490 . S
C1836 C1838 1.395 . S
C1836 C1839 1.403 . S
H1837 C1843 0.930 . S
C1838 H1824 0.930 . S
C1838 C1836 1.395 . S
C1838 C1841 1.403 . S
C1839 C1836 1.403 . S
C1839 C1840 1.524 . S
C1839 C1843 1.400 . S
C1840 H1825 0.960 . S
C1840 H1826 0.960 . S
C1840 H1827 0.960 . S
C1840 C1839 1.524 . S
C1841 C1838 1.403 . S
C1841 C1842 1.392 . S
C1841 C1845 1.495 . S
C1842 C1841 1.392 . S
C1842 C1843 1.385 . S
C1842 C1844 1.478 . S
C1843 H1837 0.930 . S
C1843 C1839 1.400 . S
C1843 C1842 1.385 . S
C1844 C1842 1.478 . S
C1844 C1846 1.381 . S
C1844 C1850 1.383 . S
C1845 C1841 1.495 . S
C1845 H1851 0.959 . S
C1845 H1852 0.961 . S
C1845 H1853 0.960 . S
C1846 C1844 1.381 . S
C1846 C1847 1.394 . S
C1846 H1854 0.930 . S
C1847 C1846 1.394 . S
C1847 C1848 1.383 . S
C1847 H1855 0.929 . S
C1848 C1847 1.383 . S
C1848 C1849 1.377 . S
C1849 H1833 0.930 . S
C1849 C1848 1.377 . S
C1849 C1850 1.379 . S
C1850 H1834 0.931 . S
C1850 C1844 1.383 . S
C1850 C1849 1.379 . S
H1851 C1845 0.959 . S
H1852 C1845 0.961 . S
H1853 C1845 0.960 . S
H1854 C1846 0.930 . S
H1855 C1847 0.929 . S
H1856 C1864 0.929 . S
H1857 C1866 0.930 . S
H1858 C1868 0.930 . S
H1859 C1871 0.929 . S
H1860 C1874 0.930 . S
H1861 C1876 0.960 . S
H1862 C1876 0.960 . S
H1863 C1876 0.960 . S
C1864 H1856 0.929 . S
C1864 C1865 1.377 . S
C1864 C1866 1.384 . S
C1865 C1864 1.377 . S
C1865 C1871 1.390 . S
C1866 H1857 0.930 . S
C1866 C1864 1.384 . S
C1866 C1867 1.372 . S
C1867 C1866 1.372 . S
C1867 C1868 1.400 . S
C1867 C1872 1.490 . S
C1868 H1858 0.930 . S
C1868 C1867 1.400 . S
C1868 C1871 1.386 . S
H1869 C1885 0.930 . S
H1870 C1886 0.931 . S
C1871 H1859 0.929 . S
C1871 C1865 1.390 . S
C1871 C1868 1.386 . S
C1872 C1867 1.490 . S
C1872 C1874 1.395 . S
C1872 C1875 1.403 . S
H1873 C1879 0.930 . S
C1874 H1860 0.930 . S
C1874 C1872 1.395 . S
C1874 C1877 1.403 1_545 S
C1875 C1872 1.403 . S
C1875 C1876 1.524 . S
C1875 C1879 1.400 1_545 S
C1876 H1861 0.960 . S
C1876 H1862 0.960 . S
C1876 H1863 0.960 . S
C1876 C1875 1.524 . S
C1877 C1874 1.403 1_565 S
C1877 C1878 1.392 . S
C1877 C1881 1.495 . S
C1878 C1877 1.392 . S
C1878 C1879 1.385 . S
C1878 C1880 1.478 . S
C1879 H1873 0.930 . S
C1879 C1875 1.400 1_565 S
C1879 C1878 1.385 . S
C1880 C1878 1.478 . S
C1880 C1882 1.381 . S
C1880 C1886 1.383 . S
C1881 C1877 1.495 . S
C1881 H1887 0.959 . S
C1881 H1888 0.961 . S
C1881 H1889 0.960 . S
C1882 C1880 1.381 . S
C1882 C1883 1.394 . S
C1882 H1890 0.930 . S
C1883 C1882 1.394 . S
C1883 C1884 1.383 . S
C1883 H1891 0.929 . S
C1884 C1883 1.383 . S
C1884 C1885 1.377 . S
C1885 H1869 0.930 . S
C1885 C1884 1.377 . S
C1885 C1886 1.379 . S
C1886 H1870 0.931 . S
C1886 C1880 1.383 . S
C1886 C1885 1.379 . S
H1887 C1881 0.959 . S
H1888 C1881 0.961 . S
H1889 C1881 0.960 . S
H1890 C1882 0.930 . S
H1891 C1883 0.929 . S
H1892 C1900 0.929 . S
H1893 C1902 0.930 . S
H1894 C1904 0.930 . S
H1895 C1907 0.929 . S
H1896 C1910 0.930 . S
H1897 C1912 0.960 . S
H1898 C1912 0.960 . S
H1899 C1912 0.960 . S
C1900 H1892 0.929 . S
C1900 C1901 1.377 . S
C1900 C1902 1.384 . S
C1901 C1900 1.377 . S
C1901 C1907 1.390 . S
C1902 H1893 0.930 . S
C1902 C1900 1.384 . S
C1902 C1903 1.372 . S
C1903 C1902 1.372 . S
C1903 C1904 1.400 . S
C1903 C1908 1.490 . S
C1904 H1894 0.930 . S
C1904 C1903 1.400 . S
C1904 C1907 1.386 . S
H1905 C1921 0.930 . S
H1906 C1922 0.931 . S
C1907 H1895 0.929 . S
C1907 C1901 1.390 . S
C1907 C1904 1.386 . S
C1908 C1903 1.490 . S
C1908 C1910 1.395 . S
C1908 C1911 1.403 . S
H1909 C1915 0.930 . S
C1910 H1896 0.930 . S
C1910 C1908 1.395 . S
C1910 C1913 1.403 . S
C1911 C1908 1.403 . S
C1911 C1912 1.524 . S
C1911 C1915 1.400 . S
C1912 H1897 0.960 . S
C1912 H1898 0.960 . S
C1912 H1899 0.960 . S
C1912 C1911 1.524 . S
C1913 C1910 1.403 . S
C1913 C1914 1.392 . S
C1913 C1917 1.495 . S
C1914 C1913 1.392 . S
C1914 C1915 1.385 . S
C1914 C1916 1.478 . S
C1915 H1909 0.930 . S
C1915 C1911 1.400 . S
C1915 C1914 1.385 . S
C1916 C1914 1.478 . S
C1916 C1918 1.381 . S
C1916 C1922 1.383 . S
C1917 C1913 1.495 . S
C1917 H1923 0.959 . S
C1917 H1924 0.961 . S
C1917 H1925 0.960 . S
C1918 C1916 1.381 . S
C1918 C1919 1.394 . S
C1918 H1926 0.930 . S
C1919 C1918 1.394 . S
C1919 C1920 1.383 . S
C1919 H1927 0.929 . S
C1920 C1919 1.383 . S
C1920 C1921 1.377 . S
C1921 H1905 0.930 . S
C1921 C1920 1.377 . S
C1921 C1922 1.379 . S
C1922 H1906 0.931 . S
C1922 C1916 1.383 . S
C1922 C1921 1.379 . S
H1923 C1917 0.959 . S
H1924 C1917 0.961 . S
H1925 C1917 0.960 . S
H1926 C1918 0.930 . S
H1927 C1919 0.929 . S
H1928 C1936 0.929 . S
H1929 C1938 0.930 1_556 S
H1930 C1940 0.930 . S
H1931 C1943 0.929 . S
H1932 C1946 0.930 . S
H1933 C1948 0.960 . S
H1934 C1948 0.960 . S
H1935 C1948 0.960 1_554 S
C1936 H1928 0.929 . S
C1936 C1937 1.377 . S
C1936 C1938 1.384 . S
C1937 C1936 1.377 . S
C1937 C1943 1.390 . S
C1938 H1929 0.930 1_554 S
C1938 C1936 1.384 . S
C1938 C1939 1.372 . S
C1939 C1938 1.372 . S
C1939 C1940 1.400 . S
C1939 C1944 1.490 . S
C1940 H1930 0.930 . S
C1940 C1939 1.400 . S
C1940 C1943 1.386 . S
H1941 C1957 0.930 . S
H1942 C1958 0.931 1_554 S
C1943 H1931 0.929 . S
C1943 C1937 1.390 . S
C1943 C1940 1.386 . S
C1944 C1939 1.490 . S
C1944 C1946 1.395 . S
C1944 C1947 1.403 1_554 S
H1945 C1951 0.930 . S
C1946 H1932 0.930 . S
C1946 C1944 1.395 . S
C1946 C1949 1.403 1_565 S
C1947 C1944 1.403 1_556 S
C1947 C1948 1.524 . S
C1947 C1951 1.400 1_565 S
C1948 H1933 0.960 . S
C1948 H1934 0.960 . S
C1948 H1935 0.960 1_556 S
C1948 C1947 1.524 . S
C1949 C1946 1.403 1_545 S
C1949 C1950 1.392 1_554 S
C1949 C1953 1.495 . S
C1950 C1949 1.392 1_556 S
C1950 C1951 1.385 . S
C1950 C1952 1.478 . S
C1951 H1945 0.930 . S
C1951 C1947 1.400 1_545 S
C1951 C1950 1.385 . S
C1952 C1950 1.478 . S
C1952 C1954 1.381 . S
C1952 C1958 1.383 . S
C1953 C1949 1.495 . S
C1953 H1959 0.959 . S
C1953 H1960 0.961 . S
C1953 H1961 0.960 1_554 S
C1954 C1952 1.381 . S
C1954 C1955 1.394 . S
C1954 H1962 0.930 . S
C1955 C1954 1.394 . S
C1955 C1956 1.383 . S
C1955 H1963 0.929 . S
C1956 C1955 1.383 . S
C1956 C1957 1.377 . S
C1957 H1941 0.930 . S
C1957 C1956 1.377 . S
C1957 C1958 1.379 . S
C1958 H1942 0.931 1_556 S
C1958 C1952 1.383 . S
C1958 C1957 1.379 . S
H1959 C1953 0.959 . S
H1960 C1953 0.961 . S
H1961 C1953 0.960 1_556 S
H1962 C1954 0.930 . S
H1963 C1955 0.929 . S
H1964 C1972 0.929 . S
H1965 C1974 0.930 . S
H1966 C1976 0.930 . S
H1967 C1979 0.929 . S
H1968 C1982 0.930 . S
H1969 C1984 0.960 . S
H1970 C1984 0.960 . S
H1971 C1984 0.960 . S
C1972 H1964 0.929 . S
C1972 C1973 1.377 . S
C1972 C1974 1.384 . S
C1973 C1972 1.377 . S
C1973 C1979 1.390 . S
C1974 H1965 0.930 . S
C1974 C1972 1.384 . S
C1974 C1975 1.372 . S
C1975 C1974 1.372 . S
C1975 C1976 1.400 . S
C1975 C1980 1.490 . S
C1976 H1966 0.930 . S
C1976 C1975 1.400 . S
C1976 C1979 1.386 . S
H1977 C1993 0.930 . S
H1978 C1994 0.931 . S
C1979 H1967 0.929 . S
C1979 C1973 1.390 . S
C1979 C1976 1.386 . S
C1980 C1975 1.490 . S
C1980 C1982 1.395 . S
C1980 C1983 1.403 . S
H1981 C1987 0.930 . S
C1982 H1968 0.930 . S
C1982 C1980 1.395 . S
C1982 C1985 1.403 . S
C1983 C1980 1.403 . S
C1983 C1984 1.524 . S
C1983 C1987 1.400 . S
C1984 H1969 0.960 . S
C1984 H1970 0.960 . S
C1984 H1971 0.960 . S
C1984 C1983 1.524 . S
C1985 C1982 1.403 . S
C1985 C1986 1.392 . S
C1985 C1989 1.495 . S
C1986 C1985 1.392 . S
C1986 C1987 1.385 . S
C1986 C1988 1.478 . S
C1987 H1981 0.930 . S
C1987 C1983 1.400 . S
C1987 C1986 1.385 . S
C1988 C1986 1.478 . S
C1988 C1990 1.381 . S
C1988 C1994 1.383 . S
C1989 C1985 1.495 . S
C1989 H1995 0.959 . S
C1989 H1996 0.961 . S
C1989 H1997 0.960 . S
C1990 C1988 1.381 . S
C1990 C1991 1.394 . S
C1990 H1998 0.930 . S
C1991 C1990 1.394 . S
C1991 C1992 1.383 . S
C1991 H1999 0.929 . S
C1992 C1991 1.383 . S
C1992 C1993 1.377 . S
C1993 H1977 0.930 . S
C1993 C1992 1.377 . S
C1993 C1994 1.379 . S
C1994 H1978 0.931 . S
C1994 C1988 1.383 . S
C1994 C1993 1.379 . S
H1995 C1989 0.959 . S
H1996 C1989 0.961 . S
H1997 C1989 0.960 . S
H1998 C1990 0.930 . S
H1999 C1991 0.929 . S
H2000 C2008 0.929 . S
H2001 C2010 0.930 . S
H2002 C2012 0.930 . S
H2003 C2015 0.929 . S
H2004 C2018 0.930 . S
H2005 C2020 0.960 . S
H2006 C2020 0.960 . S
H2007 C2020 0.960 . S
C2008 H2000 0.929 . S
C2008 C2009 1.377 . S
C2008 C2010 1.384 . S
C2009 C2008 1.377 . S
C2009 C2015 1.390 . S
C2010 H2001 0.930 . S
C2010 C2008 1.384 . S
C2010 C2011 1.372 . S
C2011 C2010 1.372 . S
C2011 C2012 1.400 . S
C2011 C2016 1.490 . S
C2012 H2002 0.930 . S
C2012 C2011 1.400 . S
C2012 C2015 1.386 . S
H2013 C2029 0.930 . S
H2014 C2030 0.931 . S
C2015 H2003 0.929 . S
C2015 C2009 1.390 . S
C2015 C2012 1.386 . S
C2016 C2011 1.490 . S
C2016 C2018 1.395 . S
C2016 C2019 1.403 . S
H2017 C2023 0.930 . S
C2018 H2004 0.930 . S
C2018 C2016 1.395 . S
C2018 C2021 1.403 1_545 S
C2019 C2016 1.403 . S
C2019 C2020 1.524 . S
C2019 C2023 1.400 1_545 S
C2020 H2005 0.960 . S
C2020 H2006 0.960 . S
C2020 H2007 0.960 . S
C2020 C2019 1.524 . S
C2021 C2018 1.403 1_565 S
C2021 C2022 1.392 . S
C2021 C2025 1.495 . S
C2022 C2021 1.392 . S
C2022 C2023 1.385 . S
C2022 C2024 1.478 . S
C2023 H2017 0.930 . S
C2023 C2019 1.400 1_565 S
C2023 C2022 1.385 . S
C2024 C2022 1.478 . S
C2024 C2026 1.381 . S
C2024 C2030 1.383 . S
C2025 C2021 1.495 . S
C2025 H2031 0.959 . S
C2025 H2032 0.961 . S
C2025 H2033 0.960 . S
C2026 C2024 1.381 . S
C2026 C2027 1.394 . S
C2026 H2034 0.930 . S
C2027 C2026 1.394 . S
C2027 C2028 1.383 . S
C2027 H2035 0.929 . S
C2028 C2027 1.383 . S
C2028 C2029 1.377 . S
C2029 H2013 0.930 . S
C2029 C2028 1.377 . S
C2029 C2030 1.379 . S
C2030 H2014 0.931 . S
C2030 C2024 1.383 . S
C2030 C2029 1.379 . S
H2031 C2025 0.959 . S
H2032 C2025 0.961 . S
H2033 C2025 0.960 . S
H2034 C2026 0.930 . S
H2035 C2027 0.929 . S
H2036 C2044 0.929 . S
H2037 C2046 0.930 . S
H2038 C2048 0.930 . S
H2039 C2051 0.929 . S
H2040 C2054 0.930 . S
H2041 C2056 0.960 . S
H2042 C2056 0.960 . S
H2043 C2056 0.960 . S
C2044 H2036 0.929 . S
C2044 C2045 1.377 . S
C2044 C2046 1.384 . S
C2045 C2044 1.377 . S
C2045 C2051 1.390 . S
C2046 H2037 0.930 . S
C2046 C2044 1.384 . S
C2046 C2047 1.372 . S
C2047 C2046 1.372 . S
C2047 C2048 1.400 . S
C2047 C2052 1.490 . S
C2048 H2038 0.930 . S
C2048 C2047 1.400 . S
C2048 C2051 1.386 . S
H2049 C2065 0.930 . S
H2050 C2066 0.931 . S
C2051 H2039 0.929 . S
C2051 C2045 1.390 . S
C2051 C2048 1.386 . S
C2052 C2047 1.490 . S
C2052 C2054 1.395 . S
C2052 C2055 1.403 . S
H2053 C2059 0.930 . S
C2054 H2040 0.930 . S
C2054 C2052 1.395 . S
C2054 C2057 1.403 . S
C2055 C2052 1.403 . S
C2055 C2056 1.524 . S
C2055 C2059 1.400 . S
C2056 H2041 0.960 . S
C2056 H2042 0.960 . S
C2056 H2043 0.960 . S
C2056 C2055 1.524 . S
C2057 C2054 1.403 . S
C2057 C2058 1.392 . S
C2057 C2061 1.495 . S
C2058 C2057 1.392 . S
C2058 C2059 1.385 . S
C2058 C2060 1.478 . S
C2059 H2053 0.930 . S
C2059 C2055 1.400 . S
C2059 C2058 1.385 . S
C2060 C2058 1.478 . S
C2060 C2062 1.381 . S
C2060 C2066 1.383 . S
C2061 C2057 1.495 . S
C2061 H2067 0.959 . S
C2061 H2068 0.961 . S
C2061 H2069 0.960 . S
C2062 C2060 1.381 . S
C2062 C2063 1.394 . S
C2062 H2070 0.930 . S
C2063 C2062 1.394 . S
C2063 C2064 1.383 . S
C2063 H2071 0.929 . S
C2064 C2063 1.383 . S
C2064 C2065 1.377 . S
C2065 H2049 0.930 . S
C2065 C2064 1.377 . S
C2065 C2066 1.379 . S
C2066 H2050 0.931 . S
C2066 C2060 1.383 . S
C2066 C2065 1.379 . S
H2067 C2061 0.959 . S
H2068 C2061 0.961 . S
H2069 C2061 0.960 . S
H2070 C2062 0.930 . S
H2071 C2063 0.929 . S
H2072 C2080 0.929 . S
H2073 C2082 0.930 1_556 S
H2074 C2084 0.930 . S
H2075 C2087 0.929 . S
H2076 C2090 0.930 . S
H2077 C2092 0.960 . S
H2078 C2092 0.960 . S
H2079 C2092 0.960 1_554 S
C2080 H2072 0.929 . S
C2080 C2081 1.377 . S
C2080 C2082 1.384 . S
C2081 C2080 1.377 . S
C2081 C2087 1.390 . S
C2082 H2073 0.930 1_554 S
C2082 C2080 1.384 . S
C2082 C2083 1.372 . S
C2083 C2082 1.372 . S
C2083 C2084 1.400 . S
C2083 C2088 1.490 . S
C2084 H2074 0.930 . S
C2084 C2083 1.400 . S
C2084 C2087 1.386 . S
H2085 C2101 0.930 . S
H2086 C2102 0.931 1_554 S
C2087 H2075 0.929 . S
C2087 C2081 1.390 . S
C2087 C2084 1.386 . S
C2088 C2083 1.490 . S
C2088 C2090 1.395 . S
C2088 C2091 1.377 1_554 S
H2089 C2095 0.930 . S
C2090 H2076 0.930 . S
C2090 C2088 1.395 . S
C2090 C2093 1.407 1_565 S
C2091 C2088 1.377 1_556 S
C2091 C2092 1.533 . S
C2091 C2095 1.425 1_565 S
C2092 H2077 0.960 . S
C2092 H2078 0.960 . S
C2092 H2079 0.960 1_556 S
C2092 C2091 1.533 . S
C2093 C2090 1.407 1_545 S
C2093 C2094 1.389 1_554 S
C2093 C2097 1.496 . S
C2094 C2093 1.389 1_556 S
C2094 C2095 1.385 . S
C2094 C2096 1.478 . S
C2095 H2089 0.930 . S
C2095 C2091 1.425 1_545 S
C2095 C2094 1.385 . S
C2096 C2094 1.478 . S
C2096 C2098 1.381 . S
C2096 C2102 1.383 . S
C2097 C2093 1.496 . S
C2097 H2103 0.959 . S
C2097 H2104 0.961 . S
C2097 H2105 0.960 1_554 S
C2098 C2096 1.381 . S
C2098 C2099 1.394 . S
C2098 H2106 0.930 . S
C2099 C2098 1.394 . S
C2099 C2100 1.383 . S
C2099 H2107 0.929 . S
C2100 C2099 1.383 . S
C2100 C2101 1.377 . S
C2101 H2085 0.930 . S
C2101 C2100 1.377 . S
C2101 C2102 1.379 . S
C2102 H2086 0.931 1_556 S
C2102 C2096 1.383 . S
C2102 C2101 1.379 . S
H2103 C2097 0.959 . S
H2104 C2097 0.961 . S
H2105 C2097 0.960 1_556 S
H2106 C2098 0.930 . S
H2107 C2099 0.929 . S
H2108 C2116 0.929 . S
H2109 C2118 0.930 . S
H2110 C2120 0.930 . S
H2111 C2123 0.929 . S
H2112 C2126 0.930 . S
H2113 C2128 0.960 . S
H2114 C2128 0.960 . S
H2115 C2128 0.960 . S
C2116 H2108 0.929 . S
C2116 C2117 1.377 . S
C2116 C2118 1.384 . S
C2117 C2116 1.377 . S
C2117 C2123 1.390 . S
C2118 H2109 0.930 . S
C2118 C2116 1.384 . S
C2118 C2119 1.372 . S
C2119 C2118 1.372 . S
C2119 C2120 1.400 . S
C2119 C2124 1.490 . S
C2120 H2110 0.930 . S
C2120 C2119 1.400 . S
C2120 C2123 1.386 . S
H2121 C2137 0.930 . S
H2122 C2138 0.931 . S
C2123 H2111 0.929 . S
C2123 C2117 1.390 . S
C2123 C2120 1.386 . S
C2124 C2119 1.490 . S
C2124 C2126 1.395 . S
C2124 C2127 1.403 . S
H2125 C2131 0.930 . S
C2126 H2112 0.930 . S
C2126 C2124 1.395 . S
C2126 C2129 1.403 . S
C2127 C2124 1.403 . S
C2127 C2128 1.524 . S
C2127 C2131 1.400 . S
C2128 H2113 0.960 . S
C2128 H2114 0.960 . S
C2128 H2115 0.960 . S
C2128 C2127 1.524 . S
C2129 C2126 1.403 . S
C2129 C2130 1.392 . S
C2129 C2133 1.495 . S
C2130 C2129 1.392 . S
C2130 C2131 1.385 . S
C2130 C2132 1.478 . S
C2131 H2125 0.930 . S
C2131 C2127 1.400 . S
C2131 C2130 1.385 . S
C2132 C2130 1.478 . S
C2132 C2134 1.381 . S
C2132 C2138 1.383 . S
C2133 C2129 1.495 . S
C2133 H2139 0.959 . S
C2133 H2140 0.961 . S
C2133 H2141 0.960 . S
C2134 C2132 1.381 . S
C2134 C2135 1.394 . S
C2134 H2142 0.930 . S
C2135 C2134 1.394 . S
C2135 C2136 1.383 . S
C2135 H2143 0.929 . S
C2136 C2135 1.383 . S
C2136 C2137 1.377 . S
C2137 H2121 0.930 . S
C2137 C2136 1.377 . S
C2137 C2138 1.379 . S
C2138 H2122 0.931 . S
C2138 C2132 1.383 . S
C2138 C2137 1.379 . S
H2139 C2133 0.959 . S
H2140 C2133 0.961 . S
H2141 C2133 0.960 . S
H2142 C2134 0.930 . S
H2143 C2135 0.929 . S
H2144 C2152 0.929 . S
H2145 C2154 0.930 . S
H2146 C2156 0.930 . S
H2147 C2159 0.929 . S
H2148 C2162 0.930 . S
H2149 C2164 0.960 . S
H2150 C2164 0.960 . S
H2151 C2164 0.960 . S
C2152 H2144 0.929 . S
C2152 C2153 1.377 . S
C2152 C2154 1.384 . S
C2153 C2152 1.377 . S
C2153 C2159 1.390 . S
C2154 H2145 0.930 . S
C2154 C2152 1.384 . S
C2154 C2155 1.372 . S
C2155 C2154 1.372 . S
C2155 C2156 1.400 . S
C2155 C2160 1.490 . S
C2156 H2146 0.930 . S
C2156 C2155 1.400 . S
C2156 C2159 1.386 . S
H2157 C2173 0.930 . S
H2158 C2174 0.931 . S
C2159 H2147 0.929 . S
C2159 C2153 1.390 . S
C2159 C2156 1.386 . S
C2160 C2155 1.490 . S
C2160 C2162 1.395 . S
C2160 C2163 1.403 . S
H2161 C2167 0.930 . S
C2162 H2148 0.930 . S
C2162 C2160 1.395 . S
C2162 C2165 1.403 . S
C2163 C2160 1.403 . S
C2163 C2164 1.524 . S
C2163 C2167 1.400 . S
C2164 H2149 0.960 . S
C2164 H2150 0.960 . S
C2164 H2151 0.960 . S
C2164 C2163 1.524 . S
C2165 C2162 1.403 . S
C2165 C2166 1.392 . S
C2165 C2169 1.495 . S
C2166 C2165 1.392 . S
C2166 C2167 1.385 . S
C2166 C2168 1.478 . S
C2167 H2161 0.930 . S
C2167 C2163 1.400 . S
C2167 C2166 1.385 . S
C2168 C2166 1.478 . S
C2168 C2170 1.381 . S
C2168 C2174 1.383 . S
C2169 C2165 1.495 . S
C2169 H2175 0.959 . S
C2169 H2176 0.961 . S
C2169 H2177 0.960 . S
C2170 C2168 1.381 . S
C2170 C2171 1.394 . S
C2170 H2178 0.930 . S
C2171 C2170 1.394 . S
C2171 C2172 1.383 . S
C2171 H2179 0.929 . S
C2172 C2171 1.383 . S
C2172 C2173 1.377 . S
C2173 H2157 0.930 . S
C2173 C2172 1.377 . S
C2173 C2174 1.379 . S
C2174 H2158 0.931 . S
C2174 C2168 1.383 . S
C2174 C2173 1.379 . S
H2175 C2169 0.959 . S
H2176 C2169 0.961 . S
H2177 C2169 0.960 . S
H2178 C2170 0.930 . S
H2179 C2171 0.929 . S
H2180 C2188 0.929 . S
H2181 C2190 0.930 . S
H2182 C2192 0.930 . S
H2183 C2195 0.929 . S
H2184 C2198 0.930 . S
H2185 C2200 0.960 . S
H2186 C2200 0.960 . S
H2187 C2200 0.960 . S
C2188 H2180 0.929 . S
C2188 C2189 1.377 . S
C2188 C2190 1.384 . S
C2189 C2188 1.377 . S
C2189 C2195 1.390 . S
C2190 H2181 0.930 . S
C2190 C2188 1.384 . S
C2190 C2191 1.372 . S
C2191 C2190 1.372 . S
C2191 C2192 1.400 . S
C2191 C2196 1.490 . S
C2192 H2182 0.930 . S
C2192 C2191 1.400 . S
C2192 C2195 1.386 . S
H2193 C2209 0.930 . S
H2194 C2210 0.931 . S
C2195 H2183 0.929 . S
C2195 C2189 1.390 . S
C2195 C2192 1.386 . S
C2196 C2191 1.490 . S
C2196 C2198 1.395 . S
C2196 C2199 1.403 . S
H2197 C2203 0.930 . S
C2198 H2184 0.930 . S
C2198 C2196 1.395 . S
C2198 C2201 1.403 . S
C2199 C2196 1.403 . S
C2199 C2200 1.524 . S
C2199 C2203 1.400 . S
C2200 H2185 0.960 . S
C2200 H2186 0.960 . S
C2200 H2187 0.960 . S
C2200 C2199 1.524 . S
C2201 C2198 1.403 . S
C2201 C2202 1.392 . S
C2201 C2205 1.495 . S
C2202 C2201 1.392 . S
C2202 C2203 1.385 . S
C2202 C2204 1.478 . S
C2203 H2197 0.930 . S
C2203 C2199 1.400 . S
C2203 C2202 1.385 . S
C2204 C2202 1.478 . S
C2204 C2206 1.381 . S
C2204 C2210 1.383 . S
C2205 C2201 1.495 . S
C2205 H2211 0.959 . S
C2205 H2212 0.961 . S
C2205 H2213 0.960 . S
C2206 C2204 1.381 . S
C2206 C2207 1.394 . S
C2206 H2214 0.930 . S
C2207 C2206 1.394 . S
C2207 C2208 1.383 . S
C2207 H2215 0.929 . S
C2208 C2207 1.383 . S
C2208 C2209 1.377 . S
C2209 H2193 0.930 . S
C2209 C2208 1.377 . S
C2209 C2210 1.379 . S
C2210 H2194 0.931 . S
C2210 C2204 1.383 . S
C2210 C2209 1.379 . S
H2211 C2205 0.959 . S
H2212 C2205 0.961 . S
H2213 C2205 0.960 . S
H2214 C2206 0.930 . S
H2215 C2207 0.929 . S
H2216 C2224 0.929 . S
H2217 C2226 0.930 . S
H2218 C2228 0.930 . S
H2219 C2231 0.929 . S
H2220 C2234 0.930 . S
H2221 C2236 0.960 . S
H2222 C2236 0.960 . S
H2223 C2236 0.960 . S
C2224 H2216 0.929 . S
C2224 C2225 1.377 . S
C2224 C2226 1.384 . S
C2225 C2224 1.377 . S
C2225 C2231 1.390 . S
C2226 H2217 0.930 . S
C2226 C2224 1.384 . S
C2226 C2227 1.372 . S
C2227 C2226 1.372 . S
C2227 C2228 1.400 . S
C2227 C2232 1.490 . S
C2228 H2218 0.930 . S
C2228 C2227 1.400 . S
C2228 C2231 1.386 . S
H2229 C2245 0.930 . S
H2230 C2246 0.931 . S
C2231 H2219 0.929 . S
C2231 C2225 1.390 . S
C2231 C2228 1.386 . S
C2232 C2227 1.490 . S
C2232 C2234 1.395 . S
C2232 C2235 1.403 . S
H2233 C2239 0.930 . S
C2234 H2220 0.930 . S
C2234 C2232 1.395 . S
C2234 C2237 1.403 . S
C2235 C2232 1.403 . S
C2235 C2236 1.524 . S
C2235 C2239 1.400 . S
C2236 H2221 0.960 . S
C2236 H2222 0.960 . S
C2236 H2223 0.960 . S
C2236 C2235 1.524 . S
C2237 C2234 1.403 . S
C2237 C2238 1.392 . S
C2237 C2241 1.495 . S
C2238 C2237 1.392 . S
C2238 C2239 1.385 . S
C2238 C2240 1.478 . S
C2239 H2233 0.930 . S
C2239 C2235 1.400 . S
C2239 C2238 1.385 . S
C2240 C2238 1.478 . S
C2240 C2242 1.381 . S
C2240 C2246 1.383 . S
C2241 C2237 1.495 . S
C2241 H2247 0.959 . S
C2241 H2248 0.961 . S
C2241 H2249 0.960 . S
C2242 C2240 1.381 . S
C2242 C2243 1.394 . S
C2242 H2250 0.930 . S
C2243 C2242 1.394 . S
C2243 C2244 1.383 . S
C2243 H2251 0.929 . S
C2244 C2243 1.383 . S
C2244 C2245 1.377 . S
C2245 H2229 0.930 . S
C2245 C2244 1.377 . S
C2245 C2246 1.379 . S
C2246 H2230 0.931 . S
C2246 C2240 1.383 . S
C2246 C2245 1.379 . S
H2247 C2241 0.959 . S
H2248 C2241 0.961 . S
H2249 C2241 0.960 . S
H2250 C2242 0.930 . S
H2251 C2243 0.929 . S
H2252 C2260 0.929 . S
H2253 C2262 0.930 . S
H2254 C2264 0.930 . S
H2255 C2267 0.929 . S
H2256 C2270 0.930 . S
H2257 C2272 0.960 . S
H2258 C2272 0.960 . S
H2259 C2272 0.960 . S
C2260 H2252 0.929 . S
C2260 C2261 1.377 . S
C2260 C2262 1.384 . S
C2261 C2260 1.377 . S
C2261 C2267 1.390 . S
C2262 H2253 0.930 . S
C2262 C2260 1.384 . S
C2262 C2263 1.372 . S
C2263 C2262 1.372 . S
C2263 C2264 1.400 . S
C2263 C2268 1.490 . S
C2264 H2254 0.930 . S
C2264 C2263 1.400 . S
C2264 C2267 1.386 . S
H2265 C2281 0.930 . S
H2266 C2282 0.931 . S
C2267 H2255 0.929 . S
C2267 C2261 1.390 . S
C2267 C2264 1.386 . S
C2268 C2263 1.490 . S
C2268 C2270 1.395 . S
C2268 C2271 1.403 . S
H2269 C2275 0.930 . S
C2270 H2256 0.930 . S
C2270 C2268 1.395 . S
C2270 C2273 1.403 1_655 S
C2271 C2268 1.403 . S
C2271 C2272 1.524 . S
C2271 C2275 1.400 1_655 S
C2272 H2257 0.960 . S
C2272 H2258 0.960 . S
C2272 H2259 0.960 . S
C2272 C2271 1.524 . S
C2273 C2270 1.403 1_455 S
C2273 C2274 1.392 . S
C2273 C2277 1.495 . S
C2274 C2273 1.392 . S
C2274 C2275 1.385 . S
C2274 C2276 1.478 . S
C2275 H2269 0.930 . S
C2275 C2271 1.400 1_455 S
C2275 C2274 1.385 . S
C2276 C2274 1.478 . S
C2276 C2278 1.381 . S
C2276 C2282 1.383 . S
C2277 C2273 1.495 . S
C2277 H2283 0.959 . S
C2277 H2284 0.961 . S
C2277 H2285 0.960 . S
C2278 C2276 1.381 . S
C2278 C2279 1.394 . S
C2278 H2286 0.930 . S
C2279 C2278 1.394 . S
C2279 C2280 1.383 . S
C2279 H2287 0.929 . S
C2280 C2279 1.383 . S
C2280 C2281 1.377 . S
C2281 H2265 0.930 . S
C2281 C2280 1.377 . S
C2281 C2282 1.379 . S
C2282 H2266 0.931 . S
C2282 C2276 1.383 . S
C2282 C2281 1.379 . S
H2283 C2277 0.959 . S
H2284 C2277 0.961 . S
H2285 C2277 0.960 . S
H2286 C2278 0.930 . S
H2287 C2279 0.929 . S
H2288 C2296 0.929 . S
H2289 C2298 0.930 . S
H2290 C2300 0.930 . S
H2291 C2303 0.929 . S
H2292 C2306 0.930 . S
H2293 C2308 0.960 . S
H2294 C2308 0.960 . S
H2295 C2308 0.960 . S
C2296 H2288 0.929 . S
C2296 C2297 1.377 . S
C2296 C2298 1.384 . S
C2297 C2296 1.377 . S
C2297 C2303 1.390 . S
C2298 H2289 0.930 . S
C2298 C2296 1.384 . S
C2298 C2299 1.372 . S
C2299 C2298 1.372 . S
C2299 C2300 1.400 . S
C2299 C2304 1.490 . S
C2300 H2290 0.930 . S
C2300 C2299 1.400 . S
C2300 C2303 1.386 . S
H2301 C2317 0.930 . S
H2302 C2318 0.931 . S
C2303 H2291 0.929 . S
C2303 C2297 1.390 . S
C2303 C2300 1.386 . S
C2304 C2299 1.490 . S
C2304 C2306 1.395 . S
C2304 C2307 1.403 . S
H2305 C2311 0.930 . S
C2306 H2292 0.930 . S
C2306 C2304 1.395 . S
C2306 C2309 1.403 . S
C2307 C2304 1.403 . S
C2307 C2308 1.524 . S
C2307 C2311 1.400 . S
C2308 H2293 0.960 . S
C2308 H2294 0.960 . S
C2308 H2295 0.960 . S
C2308 C2307 1.524 . S
C2309 C2306 1.403 . S
C2309 C2310 1.392 . S
C2309 C2313 1.495 . S
C2310 C2309 1.392 . S
C2310 C2311 1.385 . S
C2310 C2312 1.478 . S
C2311 H2305 0.930 . S
C2311 C2307 1.400 . S
C2311 C2310 1.385 . S
C2312 C2310 1.478 . S
C2312 C2314 1.381 . S
C2312 C2318 1.383 . S
C2313 C2309 1.495 . S
C2313 H2319 0.959 . S
C2313 H2320 0.961 . S
C2313 H2321 0.960 . S
C2314 C2312 1.381 . S
C2314 C2315 1.394 . S
C2314 H2322 0.930 . S
C2315 C2314 1.394 . S
C2315 C2316 1.383 . S
C2315 H2323 0.929 . S
C2316 C2315 1.383 . S
C2316 C2317 1.377 . S
C2317 H2301 0.930 . S
C2317 C2316 1.377 . S
C2317 C2318 1.379 . S
C2318 H2302 0.931 . S
C2318 C2312 1.383 . S
C2318 C2317 1.379 . S
H2319 C2313 0.959 . S
H2320 C2313 0.961 . S
H2321 C2313 0.960 . S
H2322 C2314 0.930 . S
H2323 C2315 0.929 . S
H2324 C2332 0.929 . S
H2325 C2334 0.930 . S
H2326 C2336 0.930 . S
H2327 C2339 0.929 . S
H2328 C2342 0.930 . S
H2329 C2344 0.960 . S
H2330 C2344 0.960 . S
H2331 C2344 0.960 . S
C2332 H2324 0.929 . S
C2332 C2333 1.377 . S
C2332 C2334 1.384 . S
C2333 C2332 1.377 . S
C2333 C2339 1.390 . S
C2334 H2325 0.930 . S
C2334 C2332 1.384 . S
C2334 C2335 1.372 . S
C2335 C2334 1.372 . S
C2335 C2336 1.400 . S
C2335 C2340 1.490 . S
C2336 H2326 0.930 . S
C2336 C2335 1.400 . S
C2336 C2339 1.386 . S
H2337 C2353 0.930 . S
H2338 C2354 0.931 . S
C2339 H2327 0.929 . S
C2339 C2333 1.390 . S
C2339 C2336 1.386 . S
C2340 C2335 1.490 . S
C2340 C2342 1.395 . S
C2340 C2343 1.403 . S
H2341 C2347 0.930 . S
C2342 H2328 0.930 . S
C2342 C2340 1.395 . S
C2342 C2345 1.403 1_655 S
C2343 C2340 1.403 . S
C2343 C2344 1.524 . S
C2343 C2347 1.400 1_655 S
C2344 H2329 0.960 . S
C2344 H2330 0.960 . S
C2344 H2331 0.960 . S
C2344 C2343 1.524 . S
C2345 C2342 1.403 1_455 S
C2345 C2346 1.392 . S
C2345 C2349 1.495 . S
C2346 C2345 1.392 . S
C2346 C2347 1.385 . S
C2346 C2348 1.478 . S
C2347 H2341 0.930 . S
C2347 C2343 1.400 1_455 S
C2347 C2346 1.385 . S
C2348 C2346 1.478 . S
C2348 C2350 1.381 . S
C2348 C2354 1.383 . S
C2349 C2345 1.495 . S
C2349 H2355 0.959 . S
C2349 H2356 0.961 . S
C2349 H2357 0.960 . S
C2350 C2348 1.381 . S
C2350 C2351 1.394 . S
C2350 H2358 0.930 . S
C2351 C2350 1.394 . S
C2351 C2352 1.383 . S
C2351 H2359 0.929 . S
C2352 C2351 1.383 . S
C2352 C2353 1.377 . S
C2353 H2337 0.930 . S
C2353 C2352 1.377 . S
C2353 C2354 1.379 . S
C2354 H2338 0.931 . S
C2354 C2348 1.383 . S
C2354 C2353 1.379 . S
H2355 C2349 0.959 . S
H2356 C2349 0.961 . S
H2357 C2349 0.960 . S
H2358 C2350 0.930 . S
H2359 C2351 0.929 . S
H2360 C2368 0.929 . S
H2361 C2370 0.930 . S
H2362 C2372 0.930 . S
H2363 C2375 0.929 . S
H2364 C2378 0.930 . S
H2365 C2380 0.960 . S
H2366 C2380 0.960 . S
H2367 C2380 0.960 . S
C2368 H2360 0.929 . S
C2368 C2369 1.377 . S
C2368 C2370 1.384 . S
C2369 C2368 1.377 . S
C2369 C2375 1.390 . S
C2370 H2361 0.930 . S
C2370 C2368 1.384 . S
C2370 C2371 1.372 . S
C2371 C2370 1.372 . S
C2371 C2372 1.400 . S
C2371 C2376 1.490 . S
C2372 H2362 0.930 . S
C2372 C2371 1.400 . S
C2372 C2375 1.386 . S
H2373 C2389 0.930 . S
H2374 C2390 0.931 . S
C2375 H2363 0.929 . S
C2375 C2369 1.390 . S
C2375 C2372 1.386 . S
C2376 C2371 1.490 . S
C2376 C2378 1.395 . S
C2376 C2379 1.403 . S
H2377 C2383 0.930 . S
C2378 H2364 0.930 . S
C2378 C2376 1.395 . S
C2378 C2381 1.403 . S
C2379 C2376 1.403 . S
C2379 C2380 1.524 . S
C2379 C2383 1.400 . S
C2380 H2365 0.960 . S
C2380 H2366 0.960 . S
C2380 H2367 0.960 . S
C2380 C2379 1.524 . S
C2381 C2378 1.403 . S
C2381 C2382 1.392 . S
C2381 C2385 1.495 . S
C2382 C2381 1.392 . S
C2382 C2383 1.385 . S
C2382 C2384 1.478 . S
C2383 H2377 0.930 . S
C2383 C2379 1.400 . S
C2383 C2382 1.385 . S
C2384 C2382 1.478 . S
C2384 C2386 1.381 . S
C2384 C2390 1.383 . S
C2385 C2381 1.495 . S
C2385 H2391 0.959 . S
C2385 H2392 0.961 . S
C2385 H2393 0.960 . S
C2386 C2384 1.381 . S
C2386 C2387 1.394 . S
C2386 H2394 0.930 . S
C2387 C2386 1.394 . S
C2387 C2388 1.383 . S
C2387 H2395 0.929 . S
C2388 C2387 1.383 . S
C2388 C2389 1.377 . S
C2389 H2373 0.930 . S
C2389 C2388 1.377 . S
C2389 C2390 1.379 . S
C2390 H2374 0.931 . S
C2390 C2384 1.383 . S
C2390 C2389 1.379 . S
H2391 C2385 0.959 . S
H2392 C2385 0.961 . S
H2393 C2385 0.960 . S
H2394 C2386 0.930 . S
H2395 C2387 0.929 . S
H2396 C2404 0.929 . S
H2397 C2406 0.930 . S
H2398 C2408 0.930 . S
H2399 C2411 0.929 . S
H2400 C2414 0.930 . S
H2401 C2416 0.960 . S
H2402 C2416 0.960 . S
H2403 C2416 0.960 . S
C2404 H2396 0.929 . S
C2404 C2405 1.377 . S
C2404 C2406 1.384 . S
C2405 C2404 1.377 . S
C2405 C2411 1.390 . S
C2406 H2397 0.930 . S
C2406 C2404 1.384 . S
C2406 C2407 1.372 . S
C2407 C2406 1.372 . S
C2407 C2408 1.400 . S
C2407 C2412 1.490 . S
C2408 H2398 0.930 . S
C2408 C2407 1.400 . S
C2408 C2411 1.386 . S
H2409 C2425 0.930 . S
H2410 C2426 0.931 . S
C2411 H2399 0.929 . S
C2411 C2405 1.390 . S
C2411 C2408 1.386 . S
C2412 C2407 1.490 . S
C2412 C2414 1.395 . S
C2412 C2415 1.403 . S
H2413 C2419 0.930 . S
C2414 H2400 0.930 . S
C2414 C2412 1.395 . S
C2414 C2417 1.403 . S
C2415 C2412 1.403 . S
C2415 C2416 1.524 . S
C2415 C2419 1.400 . S
C2416 H2401 0.960 . S
C2416 H2402 0.960 . S
C2416 H2403 0.960 . S
C2416 C2415 1.524 . S
C2417 C2414 1.403 . S
C2417 C2418 1.392 . S
C2417 C2421 1.495 . S
C2418 C2417 1.392 . S
C2418 C2419 1.385 . S
C2418 C2420 1.478 . S
C2419 H2413 0.930 . S
C2419 C2415 1.400 . S
C2419 C2418 1.385 . S
C2420 C2418 1.478 . S
C2420 C2422 1.381 . S
C2420 C2426 1.383 . S
C2421 C2417 1.495 . S
C2421 H2427 0.959 . S
C2421 H2428 0.961 . S
C2421 H2429 0.960 . S
C2422 C2420 1.381 . S
C2422 C2423 1.394 . S
C2422 H2430 0.930 . S
C2423 C2422 1.394 . S
C2423 C2424 1.383 . S
C2423 H2431 0.929 . S
C2424 C2423 1.383 . S
C2424 C2425 1.377 . S
C2425 H2409 0.930 . S
C2425 C2424 1.377 . S
C2425 C2426 1.379 . S
C2426 H2410 0.931 . S
C2426 C2420 1.383 . S
C2426 C2425 1.379 . S
H2427 C2421 0.959 . S
H2428 C2421 0.961 . S
H2429 C2421 0.960 . S
H2430 C2422 0.930 . S
H2431 C2423 0.929 . S
H2432 C2440 0.929 . S
H2433 C2442 0.930 . S
H2434 C2444 0.930 . S
H2435 C2447 0.929 . S
H2436 C2450 0.930 . S
H2437 C2452 0.960 . S
H2438 C2452 0.960 . S
H2439 C2452 0.960 . S
C2440 H2432 0.929 . S
C2440 C2441 1.377 . S
C2440 C2442 1.384 . S
C2441 C2440 1.377 . S
C2441 C2447 1.390 . S
C2442 H2433 0.930 . S
C2442 C2440 1.384 . S
C2442 C2443 1.372 . S
C2443 C2442 1.372 . S
C2443 C2444 1.400 . S
C2443 C2448 1.490 . S
C2444 H2434 0.930 . S
C2444 C2443 1.400 . S
C2444 C2447 1.386 . S
H2445 C2461 0.930 . S
H2446 C2462 0.931 . S
C2447 H2435 0.929 . S
C2447 C2441 1.390 . S
C2447 C2444 1.386 . S
C2448 C2443 1.490 . S
C2448 C2450 1.395 . S
C2448 C2451 1.403 . S
H2449 C2455 0.930 . S
C2450 H2436 0.930 . S
C2450 C2448 1.395 . S
C2450 C2453 1.403 . S
C2451 C2448 1.403 . S
C2451 C2452 1.524 . S
C2451 C2455 1.400 . S
C2452 H2437 0.960 . S
C2452 H2438 0.960 . S
C2452 H2439 0.960 . S
C2452 C2451 1.524 . S
C2453 C2450 1.403 . S
C2453 C2454 1.392 . S
C2453 C2457 1.495 . S
C2454 C2453 1.392 . S
C2454 C2455 1.385 . S
C2454 C2456 1.478 . S
C2455 H2449 0.930 . S
C2455 C2451 1.400 . S
C2455 C2454 1.385 . S
C2456 C2454 1.478 . S
C2456 C2458 1.381 . S
C2456 C2462 1.383 . S
C2457 C2453 1.495 . S
C2457 H2463 0.959 . S
C2457 H2464 0.961 . S
C2457 H2465 0.960 . S
C2458 C2456 1.381 . S
C2458 C2459 1.394 . S
C2458 H2466 0.930 . S
C2459 C2458 1.394 . S
C2459 C2460 1.383 . S
C2459 H2467 0.929 . S
C2460 C2459 1.383 . S
C2460 C2461 1.377 . S
C2461 H2445 0.930 . S
C2461 C2460 1.377 . S
C2461 C2462 1.379 . S
C2462 H2446 0.931 . S
C2462 C2456 1.383 . S
C2462 C2461 1.379 . S
H2463 C2457 0.959 . S
H2464 C2457 0.961 . S
H2465 C2457 0.960 . S
H2466 C2458 0.930 . S
H2467 C2459 0.929 . S
H2468 C2476 0.929 . S
H2469 C2478 0.930 . S
H2470 C2480 0.930 . S
H2471 C2483 0.929 . S
H2472 C2486 0.930 . S
H2473 C2488 0.960 . S
H2474 C2488 0.960 . S
H2475 C2488 0.960 . S
C2476 H2468 0.929 . S
C2476 C2477 1.377 . S
C2476 C2478 1.384 . S
C2477 C2476 1.377 . S
C2477 C2483 1.390 . S
C2478 H2469 0.930 . S
C2478 C2476 1.384 . S
C2478 C2479 1.372 . S
C2479 C2478 1.372 . S
C2479 C2480 1.400 . S
C2479 C2484 1.490 . S
C2480 H2470 0.930 . S
C2480 C2479 1.400 . S
C2480 C2483 1.386 . S
H2481 C2497 0.930 . S
H2482 C2498 0.931 . S
C2483 H2471 0.929 . S
C2483 C2477 1.390 . S
C2483 C2480 1.386 . S
C2484 C2479 1.490 . S
C2484 C2486 1.395 . S
C2484 C2487 1.403 . S
H2485 C2491 0.930 . S
C2486 H2472 0.930 . S
C2486 C2484 1.395 . S
C2486 C2489 1.403 . S
C2487 C2484 1.403 . S
C2487 C2488 1.524 . S
C2487 C2491 1.400 . S
C2488 H2473 0.960 . S
C2488 H2474 0.960 . S
C2488 H2475 0.960 . S
C2488 C2487 1.524 . S
C2489 C2486 1.403 . S
C2489 C2490 1.392 . S
C2489 C2493 1.495 . S
C2490 C2489 1.392 . S
C2490 C2491 1.385 . S
C2490 C2492 1.478 . S
C2491 H2485 0.930 . S
C2491 C2487 1.400 . S
C2491 C2490 1.385 . S
C2492 C2490 1.478 . S
C2492 C2494 1.381 . S
C2492 C2498 1.383 . S
C2493 C2489 1.495 . S
C2493 H2499 0.959 . S
C2493 H2500 0.961 . S
C2493 H2501 0.960 . S
C2494 C2492 1.381 . S
C2494 C2495 1.394 . S
C2494 H2502 0.930 . S
C2495 C2494 1.394 . S
C2495 C2496 1.383 . S
C2495 H2503 0.929 . S
C2496 C2495 1.383 . S
C2496 C2497 1.377 . S
C2497 H2481 0.930 . S
C2497 C2496 1.377 . S
C2497 C2498 1.379 . S
C2498 H2482 0.931 . S
C2498 C2492 1.383 . S
C2498 C2497 1.379 . S
H2499 C2493 0.959 . S
H2500 C2493 0.961 . S
H2501 C2493 0.960 . S
H2502 C2494 0.930 . S
H2503 C2495 0.929 . S
H2504 C2512 0.929 . S
H2505 C2514 0.930 . S
H2506 C2516 0.930 . S
H2507 C2519 0.929 . S
H2508 C2522 0.930 . S
H2509 C2524 0.960 . S
H2510 C2524 0.960 . S
H2511 C2524 0.960 . S
C2512 H2504 0.929 . S
C2512 C2513 1.377 . S
C2512 C2514 1.384 . S
C2513 C2512 1.377 . S
C2513 C2519 1.390 . S
C2514 H2505 0.930 . S
C2514 C2512 1.384 . S
C2514 C2515 1.372 . S
C2515 C2514 1.372 . S
C2515 C2516 1.400 . S
C2515 C2520 1.490 . S
C2516 H2506 0.930 . S
C2516 C2515 1.400 . S
C2516 C2519 1.386 . S
H2517 C2533 0.930 . S
H2518 C2534 0.931 . S
C2519 H2507 0.929 . S
C2519 C2513 1.390 . S
C2519 C2516 1.386 . S
C2520 C2515 1.490 . S
C2520 C2522 1.395 . S
C2520 C2523 1.403 . S
H2521 C2527 0.930 . S
C2522 H2508 0.930 . S
C2522 C2520 1.395 . S
C2522 C2525 1.403 . S
C2523 C2520 1.403 . S
C2523 C2524 1.524 . S
C2523 C2527 1.400 . S
C2524 H2509 0.960 . S
C2524 H2510 0.960 . S
C2524 H2511 0.960 . S
C2524 C2523 1.524 . S
C2525 C2522 1.403 . S
C2525 C2526 1.392 . S
C2525 C2529 1.495 . S
C2526 C2525 1.392 . S
C2526 C2527 1.385 . S
C2526 C2528 1.478 . S
C2527 H2521 0.930 . S
C2527 C2523 1.400 . S
C2527 C2526 1.385 . S
C2528 C2526 1.478 . S
C2528 C2530 1.381 . S
C2528 C2534 1.383 . S
C2529 C2525 1.495 . S
C2529 H2535 0.959 . S
C2529 H2536 0.961 . S
C2529 H2537 0.960 . S
C2530 C2528 1.381 . S
C2530 C2531 1.394 . S
C2530 H2538 0.930 . S
C2531 C2530 1.394 . S
C2531 C2532 1.383 . S
C2531 H2539 0.929 . S
C2532 C2531 1.383 . S
C2532 C2533 1.377 . S
C2533 H2517 0.930 . S
C2533 C2532 1.377 . S
C2533 C2534 1.379 . S
C2534 H2518 0.931 . S
C2534 C2528 1.383 . S
C2534 C2533 1.379 . S
H2535 C2529 0.959 . S
H2536 C2529 0.961 . S
H2537 C2529 0.960 . S
H2538 C2530 0.930 . S
H2539 C2531 0.929 . S
H2540 C2548 0.929 . S
H2541 C2550 0.930 . S
H2542 C2552 0.930 . S
H2543 C2555 0.929 . S
H2544 C2558 0.930 . S
H2545 C2560 0.960 . S
H2546 C2560 0.960 . S
H2547 C2560 0.960 . S
C2548 H2540 0.929 . S
C2548 C2549 1.377 . S
C2548 C2550 1.384 . S
C2549 C2548 1.377 . S
C2549 C2555 1.390 . S
C2550 H2541 0.930 . S
C2550 C2548 1.384 . S
C2550 C2551 1.372 . S
C2551 C2550 1.372 . S
C2551 C2552 1.400 . S
C2551 C2556 1.490 . S
C2552 H2542 0.930 . S
C2552 C2551 1.400 . S
C2552 C2555 1.386 . S
H2553 C2569 0.930 . S
H2554 C2570 0.931 . S
C2555 H2543 0.929 . S
C2555 C2549 1.390 . S
C2555 C2552 1.386 . S
C2556 C2551 1.490 . S
C2556 C2558 1.395 . S
C2556 C2559 1.403 . S
H2557 C2563 0.930 . S
C2558 H2544 0.930 . S
C2558 C2556 1.395 . S
C2558 C2561 1.403 . S
C2559 C2556 1.403 . S
C2559 C2560 1.524 . S
C2559 C2563 1.400 . S
C2560 H2545 0.960 . S
C2560 H2546 0.960 . S
C2560 H2547 0.960 . S
C2560 C2559 1.524 . S
C2561 C2558 1.403 . S
C2561 C2562 1.392 . S
C2561 C2565 1.495 . S
C2562 C2561 1.392 . S
C2562 C2563 1.385 . S
C2562 C2564 1.478 . S
C2563 H2557 0.930 . S
C2563 C2559 1.400 . S
C2563 C2562 1.385 . S
C2564 C2562 1.478 . S
C2564 C2566 1.381 . S
C2564 C2570 1.383 . S
C2565 C2561 1.495 . S
C2565 H2571 0.959 . S
C2565 H2572 0.961 . S
C2565 H2573 0.960 . S
C2566 C2564 1.381 . S
C2566 C2567 1.394 . S
C2566 H2574 0.930 . S
C2567 C2566 1.394 . S
C2567 C2568 1.383 . S
C2567 H2575 0.929 . S
C2568 C2567 1.383 . S
C2568 C2569 1.377 . S
C2569 H2553 0.930 . S
C2569 C2568 1.377 . S
C2569 C2570 1.379 . S
C2570 H2554 0.931 . S
C2570 C2564 1.383 . S
C2570 C2569 1.379 . S
H2571 C2565 0.959 . S
H2572 C2565 0.961 . S
H2573 C2565 0.960 . S
H2574 C2566 0.930 . S
H2575 C2567 0.929 . S
H2576 C2584 0.929 . S
H2577 C2586 0.930 . S
H2578 C2588 0.930 . S
H2579 C2591 0.929 . S
H2580 C2594 0.930 . S
H2581 C2596 0.960 . S
H2582 C2596 0.960 . S
H2583 C2596 0.960 . S
C2584 H2576 0.929 . S
C2584 C2585 1.377 . S
C2584 C2586 1.384 . S
C2585 C2584 1.377 . S
C2585 C2591 1.390 . S
C2586 H2577 0.930 . S
C2586 C2584 1.384 . S
C2586 C2587 1.372 . S
C2587 C2586 1.372 . S
C2587 C2588 1.400 . S
C2587 C2592 1.490 . S
C2588 H2578 0.930 . S
C2588 C2587 1.400 . S
C2588 C2591 1.386 . S
H2589 C2605 0.930 . S
H2590 C2606 0.931 . S
C2591 H2579 0.929 . S
C2591 C2585 1.390 . S
C2591 C2588 1.386 . S
C2592 C2587 1.490 . S
C2592 C2594 1.395 . S
C2592 C2595 1.403 . S
H2593 C2599 0.930 . S
C2594 H2580 0.930 . S
C2594 C2592 1.395 . S
C2594 C2597 1.403 1_655 S
C2595 C2592 1.403 . S
C2595 C2596 1.524 . S
C2595 C2599 1.400 1_655 S
C2596 H2581 0.960 . S
C2596 H2582 0.960 . S
C2596 H2583 0.960 . S
C2596 C2595 1.524 . S
C2597 C2594 1.403 1_455 S
C2597 C2598 1.392 . S
C2597 C2601 1.495 . S
C2598 C2597 1.392 . S
C2598 C2599 1.385 . S
C2598 C2600 1.478 . S
C2599 H2593 0.930 . S
C2599 C2595 1.400 1_455 S
C2599 C2598 1.385 . S
C2600 C2598 1.478 . S
C2600 C2602 1.381 . S
C2600 C2606 1.383 . S
C2601 C2597 1.495 . S
C2601 H2607 0.959 . S
C2601 H2608 0.961 . S
C2601 H2609 0.960 . S
C2602 C2600 1.381 . S
C2602 C2603 1.394 . S
C2602 H2610 0.930 . S
C2603 C2602 1.394 . S
C2603 C2604 1.383 . S
C2603 H2611 0.929 . S
C2604 C2603 1.383 . S
C2604 C2605 1.377 . S
C2605 H2589 0.930 . S
C2605 C2604 1.377 . S
C2605 C2606 1.379 . S
C2606 H2590 0.931 . S
C2606 C2600 1.383 . S
C2606 C2605 1.379 . S
H2607 C2601 0.959 . S
H2608 C2601 0.961 . S
H2609 C2601 0.960 . S
H2610 C2602 0.930 . S
H2611 C2603 0.929 . S
H2612 C2620 0.929 . S
H2613 C2622 0.930 . S
H2614 C2624 0.930 . S
H2615 C2627 0.929 . S
H2616 C2630 0.930 . S
H2617 C2632 0.960 . S
H2618 C2632 0.960 . S
H2619 C2632 0.960 . S
C2620 H2612 0.929 . S
C2620 C2621 1.377 . S
C2620 C2622 1.384 . S
C2621 C2620 1.377 . S
C2621 C2627 1.390 . S
C2622 H2613 0.930 . S
C2622 C2620 1.384 . S
C2622 C2623 1.372 . S
C2623 C2622 1.372 . S
C2623 C2624 1.400 . S
C2623 C2628 1.490 . S
C2624 H2614 0.930 . S
C2624 C2623 1.400 . S
C2624 C2627 1.386 . S
H2625 C2641 0.930 . S
H2626 C2642 0.931 . S
C2627 H2615 0.929 . S
C2627 C2621 1.390 . S
C2627 C2624 1.386 . S
C2628 C2623 1.490 . S
C2628 C2630 1.395 . S
C2628 C2631 1.403 . S
H2629 C2635 0.930 . S
C2630 H2616 0.930 . S
C2630 C2628 1.395 . S
C2630 C2633 1.403 . S
C2631 C2628 1.403 . S
C2631 C2632 1.524 . S
C2631 C2635 1.400 . S
C2632 H2617 0.960 . S
C2632 H2618 0.960 . S
C2632 H2619 0.960 . S
C2632 C2631 1.524 . S
C2633 C2630 1.403 . S
C2633 C2634 1.392 . S
C2633 C2637 1.495 . S
C2634 C2633 1.392 . S
C2634 C2635 1.385 . S
C2634 C2636 1.478 . S
C2635 H2629 0.930 . S
C2635 C2631 1.400 . S
C2635 C2634 1.385 . S
C2636 C2634 1.478 . S
C2636 C2638 1.381 . S
C2636 C2642 1.383 . S
C2637 C2633 1.495 . S
C2637 H2643 0.959 . S
C2637 H2644 0.961 . S
C2637 H2645 0.960 . S
C2638 C2636 1.381 . S
C2638 C2639 1.394 . S
C2638 H2646 0.930 . S
C2639 C2638 1.394 . S
C2639 C2640 1.383 . S
C2639 H2647 0.929 . S
C2640 C2639 1.383 . S
C2640 C2641 1.377 . S
C2641 H2625 0.930 . S
C2641 C2640 1.377 . S
C2641 C2642 1.379 . S
C2642 H2626 0.931 . S
C2642 C2636 1.383 . S
C2642 C2641 1.379 . S
H2643 C2637 0.959 . S
H2644 C2637 0.961 . S
H2645 C2637 0.960 . S
H2646 C2638 0.930 . S
H2647 C2639 0.929 . S
H2648 C2656 0.929 . S
H2649 C2658 0.930 . S
H2650 C2660 0.930 . S
H2651 C2663 0.929 . S
H2652 C2666 0.930 . S
H2653 C2668 0.960 . S
H2654 C2668 0.960 . S
H2655 C2668 0.960 . S
C2656 H2648 0.929 . S
C2656 C2657 1.377 . S
C2656 C2658 1.384 . S
C2657 C2656 1.377 . S
C2657 C2663 1.390 . S
C2658 H2649 0.930 . S
C2658 C2656 1.384 . S
C2658 C2659 1.372 . S
C2659 C2658 1.372 . S
C2659 C2660 1.400 . S
C2659 C2664 1.490 . S
C2660 H2650 0.930 . S
C2660 C2659 1.400 . S
C2660 C2663 1.386 . S
H2661 C2677 0.930 . S
H2662 C2678 0.931 . S
C2663 H2651 0.929 . S
C2663 C2657 1.390 . S
C2663 C2660 1.386 . S
C2664 C2659 1.490 . S
C2664 C2666 1.395 . S
C2664 C2667 1.403 . S
H2665 C2671 0.930 . S
C2666 H2652 0.930 . S
C2666 C2664 1.395 . S
C2666 C2669 1.403 . S
C2667 C2664 1.403 . S
C2667 C2668 1.524 . S
C2667 C2671 1.400 . S
C2668 H2653 0.960 . S
C2668 H2654 0.960 . S
C2668 H2655 0.960 . S
C2668 C2667 1.524 . S
C2669 C2666 1.403 . S
C2669 C2670 1.392 . S
C2669 C2673 1.495 . S
C2670 C2669 1.392 . S
C2670 C2671 1.385 . S
C2670 C2672 1.478 . S
C2671 H2665 0.930 . S
C2671 C2667 1.400 . S
C2671 C2670 1.385 . S
C2672 C2670 1.478 . S
C2672 C2674 1.381 . S
C2672 C2678 1.383 . S
C2673 C2669 1.495 . S
C2673 H2679 0.959 . S
C2673 H2680 0.961 . S
C2673 H2681 0.960 . S
C2674 C2672 1.381 . S
C2674 C2675 1.394 . S
C2674 H2682 0.930 . S
C2675 C2674 1.394 . S
C2675 C2676 1.383 . S
C2675 H2683 0.929 . S
C2676 C2675 1.383 . S
C2676 C2677 1.377 . S
C2677 H2661 0.930 . S
C2677 C2676 1.377 . S
C2677 C2678 1.379 . S
C2678 H2662 0.931 . S
C2678 C2672 1.383 . S
C2678 C2677 1.379 . S
H2679 C2673 0.959 . S
H2680 C2673 0.961 . S
H2681 C2673 0.960 . S
H2682 C2674 0.930 . S
H2683 C2675 0.929 . S
H2684 C2692 0.929 . S
H2685 C2694 0.930 . S
H2686 C2696 0.930 . S
H2687 C2699 0.929 . S
H2688 C2702 0.930 . S
H2689 C2704 0.960 . S
H2690 C2704 0.960 . S
H2691 C2704 0.960 . S
C2692 H2684 0.929 . S
C2692 C2693 1.377 . S
C2692 C2694 1.384 . S
C2693 C2692 1.377 . S
C2693 C2699 1.390 . S
C2694 H2685 0.930 . S
C2694 C2692 1.384 . S
C2694 C2695 1.372 . S
C2695 C2694 1.372 . S
C2695 C2696 1.400 . S
C2695 C2700 1.490 . S
C2696 H2686 0.930 . S
C2696 C2695 1.400 . S
C2696 C2699 1.386 . S
H2697 C2713 0.930 . S
H2698 C2714 0.931 . S
C2699 H2687 0.929 . S
C2699 C2693 1.390 . S
C2699 C2696 1.386 . S
C2700 C2695 1.490 . S
C2700 C2702 1.395 . S
C2700 C2703 1.403 . S
H2701 C2707 0.930 . S
C2702 H2688 0.930 . S
C2702 C2700 1.395 . S
C2702 C2705 1.403 1_655 S
C2703 C2700 1.403 . S
C2703 C2704 1.524 . S
C2703 C2707 1.400 1_655 S
C2704 H2689 0.960 . S
C2704 H2690 0.960 . S
C2704 H2691 0.960 . S
C2704 C2703 1.524 . S
C2705 C2702 1.403 1_455 S
C2705 C2706 1.392 . S
C2705 C2709 1.495 . S
C2706 C2705 1.392 . S
C2706 C2707 1.385 . S
C2706 C2708 1.478 . S
C2707 H2701 0.930 . S
C2707 C2703 1.400 1_455 S
C2707 C2706 1.385 . S
C2708 C2706 1.478 . S
C2708 C2710 1.381 . S
C2708 C2714 1.383 . S
C2709 C2705 1.495 . S
C2709 H2715 0.959 . S
C2709 H2716 0.961 . S
C2709 H2717 0.960 . S
C2710 C2708 1.381 . S
C2710 C2711 1.394 . S
C2710 H2718 0.930 . S
C2711 C2710 1.394 . S
C2711 C2712 1.383 . S
C2711 H2719 0.929 . S
C2712 C2711 1.383 . S
C2712 C2713 1.377 . S
C2713 H2697 0.930 . S
C2713 C2712 1.377 . S
C2713 C2714 1.379 . S
C2714 H2698 0.931 . S
C2714 C2708 1.383 . S
C2714 C2713 1.379 . S
H2715 C2709 0.959 . S
H2716 C2709 0.961 . S
H2717 C2709 0.960 . S
H2718 C2710 0.930 . S
H2719 C2711 0.929 . S
C425 C303 1.736 . S
C444 C5 1.755 . S
C461 C263 1.748 . S
C480 C23 1.724 . S
C497 C277 1.739 . S
C516 C29 1.736 . S
C533 C289 1.742 . S
C552 C49 1.756 . S
C569 C55 1.745 . S
C588 C231 1.722 . S
C605 C239 1.743 . S
C624 C69 1.730 . S
C641 C83 1.748 . S
C660 C251 1.716 . S
C677 C95 1.742 . S
C696 C211 1.740 . S
C713 C407 1.724 . S
C732 C114 1.722 . S
C749 C127 1.723 . S
C768 C374 1.704 . S
C785 C140 1.729 . S
C804 C381 1.728 . S
C821 C153 1.726 . S
C840 C394 1.735 . S
C857 C160 1.722 . S
C876 C335 1.705 . S
C893 C173 1.730 . S
C912 C342 1.733 . S
C929 C192 1.725 . S
C948 C361 1.709 . S
C965 C199 1.730 . S
C984 C322 1.741 . S
C1001 C4 1.052 . S
C1020 C161 1.032 . S
C1037 C382 1.047 . S
C1056 C16 1.049 . S
C1073 C36 1.046 . S
C1092 C185 1.028 . S
C1109 C408 1.039 . S
C1128 C42 1.046 . S
C1145 C107 1.053 . S
C1164 C62 1.036 . S
C1181 C70 1.040 . S
C1200 C328 1.058 . S
C1217 C82 1.051 . S
C1236 C133 1.028 . S
C1253 C96 1.048 . S
C1272 C354 1.044 . S
C1289 C278 1.040 . S
C1308 C120 1.038 . S
C1325 C304 1.044 . S
C1344 C146 1.022 . S
C1361 C174 1.047 . S
C1380 C224 1.020 . S
C1397 C252 1.048 . S
C1416 C200 1.040 . S
C1433 C367 1.052 . S
C1452 C218 1.051 . S
C1469 C238 1.045 . S
C1488 C395 1.068 . S
C1505 C315 1.047 . S
C1524 C270 1.026 . S
C1541 C343 1.046 . S
C1560 C296 1.031 . S
C1577 C56 1.033 . S
C1596 C10 1.027 . S
C1613 C68 1.046 . S
C1632 C18 1.060 . S
C1649 C30 1.036 . S
C1668 C88 1.052 . S
C1685 C44 1.051 . S
C1704 C94 1.059 . S
C1721 C159 1.062 . S
C1740 C109 1.056 . S
C1757 C172 1.053 . S
C1776 C122 1.031 . S
C1793 C187 1.059 . S
C1812 C135 1.074 . S
C1829 C148 1.046 . S
C1848 C198 1.066 . S
C1865 C212 1.037 . S
C1884 C264 1.014 . S
C1901 C226 1.042 . S
C1920 C276 1.037 . S
C1937 C244 1.039 . S
C1956 C290 1.058 . S
C1973 C250 1.042 . S
C1992 C302 1.040 . S
C2009 C369 1.059 . S
C2028 C317 1.071 . S
C2045 C380 1.054 . S
C2064 C330 1.027 . S
C2081 C393 1.064 . S
C2100 C341 1.046 . S
C2117 C406 1.048 . S
C2136 C356 1.058 . S
C2153 C400 1.904 . S
C2172 C3 1.908 . S
C2189 C17 1.902 . S
C2208 C205 1.887 . S
C2225 C368 1.903 . S
C2244 C31 1.893 . S
C2261 C43 1.903 . S
C2280 C179 1.886 . S
C2297 C348 1.903 . S
C2316 C57 1.889 . S
C2333 C75 1.901 . S
C2352 C147 1.909 . S
C2369 C81 1.902 . S
C2388 C316 1.904 . S
C2405 C121 1.904 . S
C2424 C101 1.888 . S
C2441 C108 1.905 . S
C2460 C291 1.908 . S
C2477 C265 1.901 . S
C2496 C134 1.889 . S
C2513 C166 1.904 . S
C2532 C237 1.885 . S
C2549 C186 1.907 . S
C2568 C213 1.898 . S
C2585 C413 1.901 . S
C2604 C225 1.909 . S
C2621 C257 1.904 . S
C2640 C387 1.887 . S
C2657 C283 1.900 . S
C2676 C355 1.899 . S
C2693 C329 1.904 . S
C2712 C309 1.895 . S
