# Generated by pormake.
# Topology ofo, (3)-cn, num edge types: 1
# Building blocks:
#     Node 0, Type 0, BuildingBlock: WUSLED_clean_sbu_0, # of connection points: 3
#     Node 1, Type 0, BuildingBlock: WUSLED_clean_sbu_0, # of connection points: 3
#     Node 2, Type 0, BuildingBlock: WUSLED_clean_sbu_0, # of connection points: 3
#     Node 3, Type 0, BuildingBlock: WUSLED_clean_sbu_0, # of connection points: 3
#     Node 4, Type 0, BuildingBlock: WUSLED_clean_sbu_0, # of connection points: 3
#     Node 5, Type 0, BuildingBlock: WUSLED_clean_sbu_0, # of connection points: 3
#     Node 6, Type 0, BuildingBlock: WUSLED_clean_sbu_0, # of connection points: 3
#     Node 7, Type 0, BuildingBlock: WUSLED_clean_sbu_0, # of connection points: 3
#     Node 8, Type 0, BuildingBlock: WUSLED_clean_sbu_0, # of connection points: 3
#     Node 9, Type 0, BuildingBlock: WUSLED_clean_sbu_0, # of connection points: 3
#     Node 10, Type 0, BuildingBlock: WUSLED_clean_sbu_0, # of connection points: 3
#     Node 11, Type 0, BuildingBlock: WUSLED_clean_sbu_0, # of connection points: 3
#     Edge 12, Type (0, 0), BuildingBlock: XIVTED_clean_linker_0, # of connection points: 2
#     Edge 13, Type (0, 0), BuildingBlock: XIVTED_clean_linker_0, # of connection points: 2
#     Edge 14, Type (0, 0), BuildingBlock: XIVTED_clean_linker_0, # of connection points: 2
#     Edge 15, Type (0, 0), BuildingBlock: XIVTED_clean_linker_0, # of connection points: 2
#     Edge 16, Type (0, 0), BuildingBlock: XIVTED_clean_linker_0, # of connection points: 2
#     Edge 17, Type (0, 0), BuildingBlock: XIVTED_clean_linker_0, # of connection points: 2
#     Edge 18, Type (0, 0), BuildingBlock: XIVTED_clean_linker_0, # of connection points: 2
#     Edge 19, Type (0, 0), BuildingBlock: XIVTED_clean_linker_0, # of connection points: 2
#     Edge 20, Type (0, 0), BuildingBlock: XIVTED_clean_linker_0, # of connection points: 2
#     Edge 21, Type (0, 0), BuildingBlock: XIVTED_clean_linker_0, # of connection points: 2
#     Edge 22, Type (0, 0), BuildingBlock: XIVTED_clean_linker_0, # of connection points: 2
#     Edge 23, Type (0, 0), BuildingBlock: XIVTED_clean_linker_0, # of connection points: 2
#     Edge 24, Type (0, 0), BuildingBlock: XIVTED_clean_linker_0, # of connection points: 2
#     Edge 25, Type (0, 0), BuildingBlock: XIVTED_clean_linker_0, # of connection points: 2
#     Edge 26, Type (0, 0), BuildingBlock: XIVTED_clean_linker_0, # of connection points: 2
#     Edge 27, Type (0, 0), BuildingBlock: XIVTED_clean_linker_0, # of connection points: 2
#     Edge 28, Type (0, 0), BuildingBlock: XIVTED_clean_linker_0, # of connection points: 2
#     Edge 29, Type (0, 0), BuildingBlock: XIVTED_clean_linker_0, # of connection points: 2
# Relax obj value: 0.053
# Max RMSD: 0.062
# Mean RMSD: 0.062
data_MOF--net-ofo--node1-WUSLED_clean_sbu_0--edge1-XIVTED_clean_linker_0
_symmetry_space_group_name_H-M    P1
_symmetry_Int_Tables_number       1
_symmetry_cell_setting            triclinic
loop_
_symmetry_equiv_pos_as_xyz
'x, y, z'
_cell_length_a     36.169806
_cell_length_b     36.199589
_cell_length_c     90.855267
_cell_angle_alpha  90.002658
_cell_angle_beta   90.002482
_cell_angle_gamma 119.92302
loop_
_atom_site_label
_atom_site_type_symbol
_atom_site_fract_x
_atom_site_fract_y
_atom_site_fract_z
_atom_type_partial_charge
C0 C 0.42062 0.34332 0.10909 0.0
C1 C 0.43688 0.32718 0.11977 0.0
C2 C 0.4642 0.39282 0.13392 0.0
C3 C 0.45825 0.35161 0.13211 0.0
C4 C 0.4485 0.40916 0.12307 0.0
C5 C 0.42674 0.38451 0.11079 0.0
U6 U 0.39771 0.25437 0.08205 0.0
O7 O 0.33709 0.20369 0.07302 0.0
O8 O 0.38617 0.24989 0.05814 0.0
C9 C 0.34676 0.21831 0.05949 0.0
C10 C 0.39747 0.31751 0.09618 0.0
C11 C 0.31407 0.22387 0.05179 0.0
C12 C 0.26809 0.2549 0.05015 0.0
C13 C 0.30004 0.25087 0.05743 0.0
C14 C 0.26435 0.20546 0.03144 0.0
C15 C 0.24974 0.23212 0.03709 0.0
C16 C 0.29617 0.20138 0.03874 0.0
C17 C 0.46214 0.19588 0.08766 0.0
C18 C 0.44467 0.12266 0.08303 0.0
C19 C 0.51813 0.17738 0.08701 0.0
C20 C 0.50535 0.20776 0.08858 0.0
C21 C 0.48789 0.13426 0.08454 0.0
C22 C 0.43188 0.1532 0.08459 0.0
C23 C 0.44968 0.22806 0.09109 0.0
O24 O 0.42091 0.32312 0.08443 0.0
O25 O 0.37021 0.27717 0.09888 0.0
O26 O 0.41125 0.21396 0.09653 0.0
O27 O 0.46084 0.25897 0.08147 0.0
H28 H 0.43295 0.29564 0.11858 0.0
H29 H 0.47055 0.33841 0.14016 0.0
H30 H 0.45241 0.44071 0.12422 0.0
H31 H 0.41453 0.39754 0.10263 0.0
H32 H 0.25798 0.27608 0.05471 0.0
H33 H 0.31367 0.26863 0.06748 0.0
H34 H 0.25057 0.18701 0.02153 0.0
H35 H 0.30656 0.18031 0.03426 0.0
H36 H 0.42051 0.08973 0.08122 0.0
H37 H 0.55174 0.18762 0.08794 0.0
H38 H 0.52923 0.24051 0.0909 0.0
H39 H 0.3983 0.14321 0.0838 0.0
C40 C 0.08521 0.41167 0.77588 0.0
C41 C 0.11089 0.42019 0.78844 0.0
C42 C 0.07511 0.45416 0.80031 0.0
C43 C 0.10571 0.44099 0.80056 0.0
C44 C 0.04977 0.44601 0.78766 0.0
C45 C 0.05468 0.42478 0.77559 0.0
U46 U 0.15478 0.39063 0.74953 0.0
O47 O 0.14638 0.3305 0.74057 0.0
O48 O 0.14957 0.37956 0.7256 0.0
C49 C 0.14264 0.34045 0.72696 0.0
C50 C 0.09 0.38939 0.76304 0.0
C51 C 0.10596 0.30739 0.71875 0.0
C52 C 0.02952 0.26369 0.71475 0.0
C53 C 0.06399 0.29642 0.72238 0.0
C54 C 0.07877 0.25301 0.69974 0.0
C55 C 0.03651 0.2413 0.70342 0.0
C56 C 0.1131 0.2857 0.70734 0.0
C57 C 0.27635 0.4534 0.75562 0.0
C58 C 0.32727 0.43963 0.7428 0.0
C59 C 0.35233 0.49848 0.75997 0.0
C60 C 0.31022 0.48812 0.76272 0.0
C61 C 0.36146 0.47426 0.75004 0.0
C62 C 0.28505 0.42932 0.74555 0.0
C63 C 0.23236 0.44247 0.75919 0.0
O64 O 0.10857 0.4133 0.75146 0.0
O65 O 0.10325 0.36227 0.76588 0.0
O66 O 0.20779 0.40401 0.76451 0.0
O67 O 0.21303 0.4537 0.74941 0.0
H68 H 0.13505 0.41086 0.78889 0.0
H69 H 0.12618 0.44742 0.81005 0.0
H70 H 0.02582 0.45561 0.78717 0.0
H71 H 0.0346 0.4186 0.766 0.0
H72 H 0.99742 0.25525 0.71796 0.0
H73 H 0.05792 0.31281 0.73121 0.0
H74 H 0.08537 0.23696 0.69094 0.0
H75 H 0.14531 0.29384 0.70438 0.0
H76 H 0.33315 0.42058 0.73497 0.0
H77 H 0.37768 0.52488 0.76593 0.0
H78 H 0.30407 0.50697 0.77057 0.0
H79 H 0.25921 0.40243 0.73993 0.0
C80 C 0.67986 0.08992 0.44237 0.0
C81 C 0.69769 0.12328 0.45265 0.0
C82 C 0.63138 0.09046 0.46668 0.0
C83 C 0.67378 0.12346 0.46471 0.0
C84 C 0.61355 0.05734 0.45621 0.0
C85 C 0.63763 0.05708 0.44418 0.0
U86 U 0.77333 0.14915 0.41652 0.0
O87 O 0.82052 0.13319 0.40803 0.0
O88 O 0.77957 0.14319 0.39262 0.0
C89 C 0.80828 0.13136 0.39429 0.0
C90 C 0.70503 0.08947 0.4297 0.0
C91 C 0.80072 0.09322 0.38604 0.0
C92 C 0.76827 0.0163 0.38373 0.0
C93 C 0.77324 0.05205 0.39142 0.0
C94 C 0.81748 0.06254 0.36508 0.0
C95 C 0.79057 0.02113 0.3705 0.0
C96 C 0.8225 0.09818 0.37279 0.0
C97 C 0.84389 0.27023 0.4234 0.0
C98 C 0.88991 0.32752 0.40671 0.0
C99 C 0.90046 0.33734 0.43306 0.0
C100 C 0.8665 0.29614 0.43535 0.0
C101 C 0.91248 0.35364 0.41873 0.0
C102 C 0.85599 0.28606 0.40902 0.0
C103 C 0.80716 0.22759 0.42638 0.0
O104 O 0.70335 0.10976 0.41795 0.0
O105 O 0.74388 0.0976 0.43282 0.0
O106 O 0.8163 0.19948 0.43185 0.0
O107 O 0.77678 0.21153 0.4164 0.0
H108 H 0.73024 0.14908 0.45139 0.0
H109 H 0.68882 0.14916 0.47262 0.0
H110 H 0.58083 0.03178 0.45721 0.0
H111 H 0.62324 0.03126 0.43629 0.0
H112 H 0.74692 0.98489 0.38813 0.0
H113 H 0.75602 0.04762 0.40163 0.0
H114 H 0.83559 0.06752 0.35506 0.0
H115 H 0.84396 0.12974 0.36851 0.0
H116 H 0.89867 0.33902 0.39554 0.0
H117 H 0.91672 0.35679 0.44256 0.0
H118 H 0.85753 0.28463 0.44653 0.0
H119 H 0.83912 0.26658 0.3996 0.0
C120 C 0.61152 0.67668 0.11013 0.0
C121 C 0.60193 0.69402 0.12239 0.0
C122 C 0.56695 0.62458 0.13438 0.0
C123 C 0.58009 0.66828 0.13443 0.0
C124 C 0.57613 0.60719 0.122 0.0
C125 C 0.59837 0.63309 0.11001 0.0
U126 U 0.63855 0.77063 0.08488 0.0
O127 O 0.70025 0.82052 0.07628 0.0
O128 O 0.64983 0.77829 0.06097 0.0
C129 C 0.68981 0.80851 0.06254 0.0
C130 C 0.63494 0.7036 0.09742 0.0
C131 C 0.72156 0.80333 0.05405 0.0
C132 C 0.75992 0.76559 0.04869 0.0
C133 C 0.72806 0.76868 0.05645 0.0
C134 C 0.77866 0.8315 0.03599 0.0
C135 C 0.78592 0.79726 0.03848 0.0
C136 C 0.74682 0.83447 0.04371 0.0
C137 C 0.58304 0.83612 0.09297 0.0
C138 C 0.57448 0.88502 0.07682 0.0
C139 C 0.56559 0.8876 0.10316 0.0
C140 C 0.57416 0.85433 0.1051 0.0
C141 C 0.5656 0.90338 0.08901 0.0
C142 C 0.58333 0.85177 0.07879 0.0
C143 C 0.59116 0.80056 0.09554 0.0
O144 O 0.61144 0.70095 0.086 0.0
O145 O 0.66424 0.74298 0.10056 0.0
O146 O 0.62906 0.81116 0.10075 0.0
O147 O 0.57784 0.77084 0.08535 0.0
H148 H 0.61129 0.72749 0.12267 0.0
H149 H 0.57293 0.68246 0.14371 0.0
H150 H 0.56662 0.57369 0.12168 0.0
H151 H 0.60537 0.61909 0.10064 0.0
H152 H 0.76489 0.73902 0.05096 0.0
H153 H 0.70893 0.74442 0.06447 0.0
H154 H 0.79759 0.85607 0.02805 0.0
H155 H 0.74219 0.8614 0.0417 0.0
H156 H 0.57511 0.8967 0.0658 0.0
H157 H 0.55828 0.90054 0.11275 0.0
H158 H 0.5736 0.84259 0.11611 0.0
H159 H 0.59031 0.83829 0.06926 0.0
C160 C 0.94245 0.60636 0.77606 0.0
C161 C 0.90903 0.5653 0.77942 0.0
C162 C 0.94935 0.56104 0.8002 0.0
C163 C 0.91256 0.54276 0.79133 0.0
C164 C 0.98263 0.60229 0.79684 0.0
C165 C 0.97923 0.62468 0.78484 0.0
U166 U 0.87528 0.63087 0.74988 0.0
O167 O 0.88521 0.69218 0.74151 0.0
O168 O 0.88191 0.64401 0.72608 0.0
C169 C 0.8898 0.68333 0.72783 0.0
C170 C 0.939 0.63063 0.76364 0.0
C171 C 0.92779 0.71627 0.72013 0.0
C172 C 1.00475 0.76115 0.71802 0.0
C173 C 0.96898 0.72942 0.72542 0.0
C174 C 0.95846 0.76651 0.69992 0.0
C175 C 0.99992 0.78013 0.70517 0.0
C176 C 0.92278 0.73491 0.70734 0.0
C177 C 0.75314 0.56724 0.75497 0.0
C178 C 0.70251 0.58254 0.7427 0.0
C179 C 0.67704 0.52124 0.75878 0.0
C180 C 0.71908 0.53138 0.76151 0.0
C181 C 0.66814 0.54682 0.74942 0.0
C182 C 0.74469 0.59263 0.74543 0.0
C183 C 0.79702 0.57811 0.75869 0.0
O184 O 0.92171 0.6087 0.75156 0.0
O185 O 0.92496 0.65676 0.76703 0.0
O186 O 0.82111 0.6161 0.76444 0.0
O187 O 0.81705 0.56784 0.74887 0.0
H188 H 0.88012 0.55075 0.77288 0.0
H189 H 0.88612 0.51131 0.79376 0.0
H190 H 1.01146 0.61709 0.80342 0.0
H191 H 1.0053 0.65638 0.78244 0.0
H192 H 0.03618 0.7705 0.72227 0.0
H193 H 0.97343 0.71518 0.73526 0.0
H194 H 0.95349 0.7808 0.6902 0.0
H195 H 0.8912 0.72517 0.70312 0.0
H196 H 0.69682 0.60266 0.73531 0.0
H197 H 0.65154 0.49394 0.76434 0.0
H198 H 0.72505 0.51153 0.76895 0.0
H199 H 0.77067 0.62044 0.74025 0.0
C200 C 0.35054 0.93251 0.4405 0.0
C201 C 0.33538 0.89615 0.44943 0.0
C202 C 0.39874 0.93191 0.46484 0.0
C203 C 0.35914 0.89593 0.46152 0.0
C204 C 0.41417 0.96805 0.45571 0.0
C205 C 0.39016 0.96835 0.44366 0.0
U206 U 0.2617 0.87115 0.41338 0.0
O207 O 0.20987 0.881 0.4054 0.0
O208 O 0.25569 0.88029 0.38973 0.0
C209 C 0.22337 0.88679 0.39171 0.0
C210 C 0.32513 0.93284 0.4279 0.0
C211 C 0.22644 0.92435 0.38431 0.0
C212 C 0.2587 1.00111 0.38141 0.0
C213 C 0.25735 0.96589 0.38838 0.0
C214 C 0.19851 0.95347 0.36623 0.0
C215 C 0.22902 0.99529 0.37033 0.0
C216 C 0.19726 0.91842 0.37316 0.0
C217 C 0.20443 0.74814 0.41756 0.0
C218 C 0.13076 0.69227 0.41388 0.0
C219 C 0.18684 0.67431 0.41502 0.0
C220 C 0.21705 0.71733 0.41691 0.0
C221 C 0.14319 0.66108 0.41382 0.0
C222 C 0.1611 0.73543 0.41573 0.0
C223 C 0.23664 0.79238 0.42133 0.0
O224 O 0.33046 0.91682 0.41563 0.0
O225 O 0.28483 0.91962 0.43083 0.0
O226 O 0.22264 0.81593 0.42751 0.0
O227 O 0.26696 0.81318 0.4116 0.0
H228 H 0.30504 0.86796 0.44706 0.0
H229 H 0.34668 0.8674 0.46819 0.0
H230 H 0.44442 0.99635 0.45805 0.0
H231 H 0.40242 0.99663 0.43685 0.0
H232 H 0.28236 0.03284 0.38492 0.0
H233 H 0.28009 0.97102 0.39701 0.0
H234 H 0.17564 0.94778 0.35759 0.0
H235 H 0.17328 0.88656 0.36986 0.0
H236 H 0.09742 0.68321 0.41308 0.0
H237 H 0.19766 0.6513 0.41473 0.0
H238 H 0.2503 0.72643 0.41826 0.0
H239 H 0.1505 0.7586 0.41616 0.0
C240 C 0.68136 0.60706 0.24643 0.0
C241 C 0.67281 0.56556 0.24327 0.0
C242 C 0.63004 0.56229 0.22207 0.0
C243 C 0.64718 0.54329 0.23125 0.0
C244 C 0.63889 0.60396 0.22522 0.0
C245 C 0.66423 0.62607 0.23734 0.0
U246 U 0.77204 0.6306 0.27292 0.0
O247 O 0.82331 0.6916 0.28152 0.0
O248 O 0.77789 0.6432 0.29675 0.0
C249 C 0.80941 0.6825 0.29514 0.0
C250 C 0.70874 0.63108 0.25895 0.0
C251 C 0.80413 0.71533 0.30285 0.0
C252 C 0.7717 0.75995 0.30496 0.0
C253 C 0.77621 0.72857 0.29749 0.0
C254 C 0.8227 0.76484 0.32325 0.0
C255 C 0.79491 0.77849 0.31795 0.0
C256 C 0.82725 0.73358 0.31576 0.0
C257 C 0.82935 0.56504 0.26773 0.0
C258 C 0.90255 0.58272 0.27267 0.0
C259 C 0.8481 0.50927 0.26857 0.0
C260 C 0.81763 0.52191 0.26682 0.0
C261 C 0.89115 0.53957 0.27119 0.0
C262 C 0.87193 0.59535 0.27095 0.0
C263 C 0.79718 0.57744 0.26419 0.0
O264 O 0.70363 0.60898 0.27102 0.0
O265 O 0.74901 0.65706 0.2557 0.0
O266 O 0.81142 0.61555 0.25847 0.0
O267 O 0.76658 0.56715 0.27388 0.0
H268 H 0.68614 0.55044 0.25005 0.0
H269 H 0.64145 0.51149 0.22898 0.0
H270 H 0.6259 0.6193 0.2184 0.0
H271 H 0.67059 0.65812 0.23958 0.0
H272 H 0.74968 0.76934 0.30066 0.0
H273 H 0.75792 0.71461 0.28756 0.0
H274 H 0.84151 0.7788 0.33308 0.0
H275 H 0.84898 0.72375 0.32004 0.0
H276 H 0.93541 0.60695 0.27459 0.0
H277 H 0.83798 0.47571 0.26766 0.0
H278 H 0.78495 0.49799 0.2644 0.0
H279 H 0.88178 0.62888 0.27174 0.0
C280 C 0.08282 0.67865 0.91129 0.0
C281 C 0.11133 0.69616 0.89944 0.0
C282 C 0.0759 0.62784 0.88669 0.0
C283 C 0.10774 0.67106 0.88722 0.0
C284 C 0.04767 0.61031 0.89865 0.0
C285 C 0.05104 0.63556 0.91081 0.0
U286 U 0.14963 0.7674 0.93846 0.0
O287 O 0.14001 0.81802 0.94777 0.0
O288 O 0.14288 0.77131 0.96242 0.0
C289 C 0.13569 0.80338 0.96127 0.0
C290 C 0.08614 0.7047 0.92425 0.0
C291 C 0.09865 0.79912 0.96946 0.0
C292 C 0.02243 0.77232 0.97179 0.0
C293 C 0.05693 0.77427 0.96408 0.0
C294 C 0.07103 0.81937 0.99043 0.0
C295 C 0.02914 0.79528 0.98499 0.0
C296 C 0.10538 0.82126 0.98273 0.0
C297 C 0.27232 0.82647 0.93329 0.0
C298 C 0.32852 0.90029 0.93646 0.0
C299 C 0.34582 0.84376 0.9371 0.0
C300 C 0.30284 0.81365 0.93491 0.0
C301 C 0.3594 0.88756 0.93761 0.0
C302 C 0.28542 0.87007 0.93432 0.0
C303 C 0.228 0.79409 0.92947 0.0
O304 O 0.10393 0.69874 0.93595 0.0
O305 O 0.0993 0.74513 0.92166 0.0
O306 O 0.20354 0.80803 0.92401 0.0
O307 O 0.20804 0.76257 0.93886 0.0
H308 H 0.13648 0.72922 0.89962 0.0
H309 H 0.13034 0.68531 0.87828 0.0
H310 H 0.02266 0.5772 0.89852 0.0
H311 H 0.02881 0.62143 0.91986 0.0
H312 H 0.99067 0.75375 0.96723 0.0
H313 H 0.05116 0.75691 0.95383 0.0
H314 H 0.07732 0.83681 1.00067 0.0
H315 H 0.13735 0.84042 0.98708 0.0
H316 H 0.3378 0.93372 0.93668 0.0
H317 H 0.3685 0.83268 0.93822 0.0
H318 H 0.29354 0.78024 0.93416 0.0
H319 H 0.26261 0.88097 0.93312 0.0
C320 C 0.41742 0.09208 0.58011 0.0
C321 C 0.43248 0.12553 0.56987 0.0
C322 C 0.46482 0.09247 0.55531 0.0
C323 C 0.4557 0.1256 0.55756 0.0
C324 C 0.44982 0.05915 0.56569 0.0
C325 C 0.42629 0.05896 0.57795 0.0
U326 U 0.39219 0.15346 0.60817 0.0
O327 O 0.33138 0.14196 0.61761 0.0
O328 O 0.38139 0.14501 0.63209 0.0
C329 C 0.34177 0.13685 0.63101 0.0
C330 C 0.39344 0.09215 0.59321 0.0
C331 C 0.30967 0.09852 0.63878 0.0
C332 C 0.26395 0.02163 0.64043 0.0
C333 C 0.29541 0.05761 0.63304 0.0
C334 C 0.26121 0.06714 0.65944 0.0
C335 C 0.24636 0.02597 0.6537 0.0
C336 C 0.29254 0.10302 0.65203 0.0
C337 C 0.45369 0.27582 0.60368 0.0
C338 C 0.43886 0.32557 0.61677 0.0
C339 C 0.4997 0.35202 0.60039 0.0
C340 C 0.48938 0.31022 0.59721 0.0
C341 C 0.47446 0.36029 0.61014 0.0
C342 C 0.42859 0.28362 0.61358 0.0
C343 C 0.44287 0.23231 0.59955 0.0
O344 O 0.41654 0.10902 0.60509 0.0
O345 O 0.36526 0.10441 0.59093 0.0
O346 O 0.40433 0.208 0.59424 0.0
O347 O 0.45467 0.21236 0.60886 0.0
H348 H 0.42624 0.15161 0.57138 0.0
H349 H 0.4661 0.15146 0.54973 0.0
H350 H 0.45678 0.03348 0.56448 0.0
H351 H 0.41527 0.03309 0.58582 0.0
H352 H 0.25361 0.99041 0.63579 0.0
H353 H 0.30845 0.05356 0.62283 0.0
H354 H 0.248 0.07175 0.66951 0.0
H355 H 0.3031 0.13438 0.6566 0.0
H356 H 0.41899 0.33081 0.62443 0.0
H357 H 0.52687 0.37784 0.59489 0.0
H358 H 0.509 0.30473 0.5895 0.0
H359 H 0.40094 0.25733 0.61871 0.0
C360 C 0.34712 0.41196 0.24654 0.0
C361 C 0.33071 0.42464 0.23481 0.0
C362 C 0.39896 0.45498 0.22207 0.0
C363 C 0.35631 0.44573 0.22266 0.0
C364 C 0.41545 0.44271 0.23393 0.0
C365 C 0.38966 0.42124 0.24604 0.0
U366 U 0.25304 0.3861 0.27162 0.0
O367 O 0.20337 0.32487 0.28054 0.0
O368 O 0.24562 0.37604 0.2956 0.0
C369 C 0.21559 0.33594 0.29423 0.0
C370 C 0.32022 0.38922 0.25931 0.0
C371 C 0.22144 0.30486 0.30286 0.0
C372 C 0.25491 0.26167 0.30663 0.0
C373 C 0.2516 0.29317 0.29874 0.0
C374 C 0.19853 0.25393 0.32296 0.0
C375 C 0.22802 0.24127 0.31873 0.0
C376 C 0.19529 0.28537 0.31509 0.0
C377 C 0.18692 0.44062 0.2629 0.0
C378 C 0.13889 0.45135 0.27881 0.0
C379 C 0.13409 0.45563 0.25234 0.0
C380 C 0.16751 0.44716 0.2506 0.0
C381 C 0.11935 0.45789 0.26645 0.0
C382 C 0.1723 0.44259 0.27705 0.0
C383 C 0.22267 0.43262 0.26052 0.0
O384 O 0.32278 0.41331 0.27053 0.0
O385 O 0.28083 0.35986 0.2562 0.0
O386 O 0.21226 0.39455 0.25555 0.0
O387 O 0.25251 0.44657 0.27069 0.0
H388 H 0.29807 0.41821 0.23504 0.0
H389 H 0.34289 0.45539 0.21381 0.0
H390 H 0.4481 0.4492 0.23376 0.0
H391 H 0.4029 0.41179 0.25501 0.0
H392 H 0.27768 0.25247 0.30298 0.0
H393 H 0.27202 0.30788 0.28929 0.0
H394 H 0.17784 0.23946 0.33236 0.0
H395 H 0.17191 0.29411 0.31844 0.0
H396 H 0.12803 0.45249 0.28982 0.0
H397 H 0.12023 0.46112 0.2426 0.0
H398 H 0.17844 0.44597 0.2396 0.0
H399 H 0.18668 0.43746 0.28672 0.0
C400 C 0.94051 0.34079 0.91274 0.0
C401 C 0.90732 0.32528 0.90239 0.0
C402 C 0.94609 0.39036 0.88797 0.0
C403 C 0.91016 0.34976 0.89009 0.0
C404 C 0.97896 0.40605 0.89851 0.0
C405 C 0.97622 0.38137 0.91077 0.0
U406 U 0.87651 0.24728 0.93846 0.0
O407 O 0.89075 0.19914 0.94719 0.0
O408 O 0.88167 0.24103 0.96239 0.0
C409 C 0.89292 0.21186 0.96087 0.0
C410 C 0.9383 0.31471 0.9255 0.0
C411 C 0.93126 0.21945 0.96901 0.0
C412 C 1.00838 0.25415 0.97144 0.0
C413 C 0.97223 0.24887 0.96393 0.0
C414 C 0.9629 0.20128 0.98933 0.0
C415 C 1.00416 0.2302 0.98419 0.0
C416 C 0.92684 0.19596 0.98179 0.0
C417 C 0.75517 0.17836 0.93104 0.0
C418 C 0.69375 0.13702 0.94691 0.0
C419 C 0.69031 0.11886 0.92111 0.0
C420 C 0.73207 0.15221 0.91917 0.0
C421 C 0.67049 0.11095 0.93498 0.0
C422 C 0.73576 0.17035 0.94498 0.0
C423 C 0.79842 0.21469 0.92827 0.0
O424 O 0.91738 0.31706 0.93696 0.0
O425 O 0.92888 0.27549 0.92241 0.0
O426 O 0.82633 0.20504 0.92294 0.0
O427 O 0.81463 0.24511 0.93823 0.0
H428 H 0.8793 0.29413 0.9038 0.0
H429 H 0.88402 0.33706 0.88229 0.0
H430 H 1.00715 0.43706 0.89714 0.0
H431 H 1.00212 0.39384 0.91867 0.0
H432 H 0.03963 0.27706 0.96728 0.0
H433 H 0.97622 0.26738 0.95408 0.0
H434 H 0.95842 0.18191 0.99897 0.0
H435 H 0.89544 0.173 0.98584 0.0
H436 H 0.67954 0.13153 0.95776 0.0
H437 H 0.67317 0.09989 0.91163 0.0
H438 H 0.74619 0.15799 0.9083 0.0
H439 H 0.75281 0.18998 0.95435 0.0
C440 C 0.61423 0.93567 0.57837 0.0
C441 C 0.57519 0.89941 0.57484 0.0
C442 C 0.56797 0.9354 0.55331 0.0
C443 C 0.55218 0.89934 0.56247 0.0
C444 C 0.60724 0.9716 0.55686 0.0
C445 C 0.63012 0.97173 0.56931 0.0
U446 U 0.63759 0.87335 0.60653 0.0
O447 O 0.69816 0.88216 0.6153 0.0
O448 O 0.65099 0.88301 0.63028 0.0
C449 C 0.68964 0.88867 0.6288 0.0
C450 C 0.63903 0.93541 0.59118 0.0
C451 C 0.72383 0.92622 0.63629 0.0
C452 C 0.76927 1.00294 0.63885 0.0
C453 C 0.7361 0.96775 0.63165 0.0
C454 C 0.77789 0.9553 0.65541 0.0
C455 C 0.79077 0.99711 0.65077 0.0
C456 C 0.74478 0.92026 0.64823 0.0
C457 C 0.57079 0.75104 0.60327 0.0
C458 C 0.5843 0.70097 0.61675 0.0
C459 C 0.52398 0.6749 0.60014 0.0
C460 C 0.53496 0.7168 0.5968 0.0
C461 C 0.54871 0.66639 0.61005 0.0
C462 C 0.59524 0.743 0.61339 0.0
C463 C 0.58287 0.79464 0.5988 0.0
O464 O 0.61731 0.92089 0.60347 0.0
O465 O 0.66476 0.92032 0.58858 0.0
O466 O 0.62099 0.81699 0.59294 0.0
O467 O 0.57361 0.81658 0.60813 0.0
H468 H 0.56265 0.87102 0.58161 0.0
H469 H 0.52237 0.87077 0.55993 0.0
H470 H 0.62007 0.99998 0.55009 0.0
H471 H 0.66029 0.99992 0.57183 0.0
H472 H 0.77861 0.03465 0.63491 0.0
H473 H 0.72023 0.9729 0.62242 0.0
H474 H 0.79321 0.9496 0.66468 0.0
H475 H 0.73557 0.88841 0.65199 0.0
H476 H 0.60376 0.69556 0.62454 0.0
H477 H 0.49683 0.64919 0.59459 0.0
H478 H 0.51586 0.72249 0.58891 0.0
H479 H 0.62302 0.76916 0.61851 0.0
H480 H 0.45322 0.36672 0.16263 0.0
H481 H 0.6345 0.59201 0.19397 0.0
H482 H 0.52612 0.47726 0.13529 0.0
H483 H 0.56557 0.4792 0.22065 0.0
H484 H 0.59293 0.55171 0.17254 0.0
H485 H 0.49175 0.4086 0.1842 0.0
C486 C 0.47749 0.3998 0.16117 0.0
C487 C 0.48663 0.41845 0.14713 0.0
C488 C 0.58679 0.53581 0.18309 0.0
C489 C 0.53101 0.46666 0.17179 0.0
C490 C 0.61035 0.55885 0.19535 0.0
C491 C 0.60366 0.53885 0.20911 0.0
C492 C 0.55593 0.49255 0.18463 0.0
C493 C 0.57219 0.49572 0.21021 0.0
C494 C 0.4994 0.42374 0.17349 0.0
C495 C 0.51793 0.46163 0.14591 0.0
N496 N 0.54952 0.47405 0.19815 0.0
N497 N 0.5392 0.48419 0.15807 0.0
H498 H 0.07218 0.43452 0.82956 0.0
H499 H 0.08043 0.64808 0.85743 0.0
H500 H 0.06724 0.52576 0.80027 0.0
H501 H 0.0639 0.5468 0.88655 0.0
H502 H 0.07697 0.6044 0.83635 0.0
H503 H 0.0693 0.47521 0.85059 0.0
C504 C 0.07053 0.46316 0.82756 0.0
C505 C 0.07042 0.47701 0.81314 0.0
C506 C 0.07406 0.5917 0.84734 0.0
C507 C 0.06743 0.52395 0.83717 0.0
C508 C 0.0762 0.61669 0.85938 0.0
C509 C 0.07257 0.60112 0.87378 0.0
C510 C 0.06851 0.55088 0.84969 0.0
C511 C 0.06653 0.55996 0.87565 0.0
C512 C 0.06874 0.4863 0.83957 0.0
C513 C 0.06738 0.5139 0.8112 0.0
N514 N 0.06499 0.53641 0.86376 0.0
N515 N 0.06643 0.53631 0.82307 0.0
H516 H 0.57391 0.02202 0.48313 0.0
H517 H 0.53279 0.16129 0.54211 0.0
H518 H 0.63124 0.15878 0.48 0.0
H519 H 0.45443 0.02447 0.53857 0.0
H520 H 0.57261 0.16122 0.52042 0.0
H521 H 0.53334 0.02291 0.50451 0.0
C522 C 0.57775 0.05218 0.48682 0.0
C523 C 0.6061 0.09039 0.47966 0.0
C524 C 0.54664 0.13125 0.52439 0.0
C525 C 0.56002 0.09132 0.50435 0.0
C526 C 0.52367 0.13123 0.53675 0.0
C527 C 0.48991 0.09282 0.54222 0.0
C528 C 0.53614 0.09258 0.51746 0.0
C529 C 0.48045 0.05483 0.53494 0.0
C530 C 0.5547 0.05257 0.49908 0.0
C531 C 0.6103 0.12856 0.48524 0.0
N532 N 0.50344 0.05569 0.52297 0.0
N533 N 0.5876 0.12806 0.49725 0.0
H534 H 0.48173 0.52103 0.22193 0.0
H535 H 0.49571 0.54508 0.13415 0.0
H536 H 0.37805 0.44086 0.19283 0.0
H537 H 0.58468 0.64198 0.16372 0.0
H538 H 0.45621 0.50181 0.15541 0.0
H539 H 0.5242 0.56074 0.20056 0.0
C540 C 0.46802 0.51157 0.21104 0.0
C541 C 0.4261 0.47784 0.20917 0.0
C542 C 0.48433 0.53259 0.15724 0.0
C543 C 0.47447 0.5232 0.18468 0.0
C544 C 0.50706 0.55715 0.14511 0.0
C545 C 0.54343 0.59731 0.14716 0.0
C546 C 0.49839 0.54799 0.17154 0.0
C547 C 0.55652 0.61145 0.16163 0.0
C548 C 0.49216 0.53443 0.19885 0.0
C549 C 0.40995 0.46709 0.19479 0.0
N550 N 0.53405 0.58683 0.17326 0.0
N551 N 0.43413 0.48969 0.18311 0.0
H552 H 0.97724 0.59083 0.82811 0.0
H553 H 0.92685 0.36335 0.85941 0.0
H554 H 0.92856 0.47725 0.80153 0.0
H555 H 0.97262 0.47583 0.88642 0.0
H556 H 0.93026 0.40542 0.83789 0.0
H557 H 0.97856 0.55011 0.8494 0.0
C558 C 0.96726 0.55742 0.82672 0.0
C559 C 0.95251 0.53733 0.81304 0.0
C560 C 0.93956 0.42095 0.84852 0.0
C561 C 0.95424 0.49059 0.83735 0.0
C562 C 0.93745 0.39689 0.86082 0.0
C563 C 0.94921 0.41602 0.87476 0.0
C564 C 0.95322 0.46449 0.85013 0.0
C565 C 0.96342 0.45979 0.87588 0.0
C566 C 0.96787 0.53415 0.83889 0.0
C567 C 0.93961 0.49387 0.81192 0.0
N568 N 0.96474 0.48246 0.86376 0.0
N569 N 0.9408 0.47199 0.8239 0.0
H570 H 0.5985 0.9652 0.5256 0.0
H571 H 0.36894 0.90218 0.49253 0.0
H572 H 0.48193 0.90453 0.55082 0.0
H573 H 0.48481 0.9613 0.4669 0.0
H574 H 0.40982 0.90194 0.5139 0.0
H575 H 0.55756 0.96336 0.5039 0.0
C576 C 0.56433 0.95175 0.5266 0.0
C577 C 0.54363 0.93501 0.54006 0.0
C578 C 0.42634 0.91483 0.5036 0.0
C579 C 0.49649 0.93279 0.51525 0.0
C580 C 0.40297 0.91485 0.49137 0.0
C581 C 0.42346 0.93176 0.47789 0.0
C582 C 0.47058 0.93164 0.50236 0.0
C583 C 0.46774 0.94831 0.4771 0.0
C584 C 0.54092 0.95049 0.51418 0.0
C585 C 0.49917 0.91742 0.54064 0.0
N586 N 0.48976 0.94764 0.48914 0.0
N587 N 0.47716 0.9169 0.52845 0.0
H588 H 0.54631 0.12954 0.1024 0.0
H589 H 0.51531 0.91187 0.06806 0.0
H590 H 0.45975 0.06372 0.06658 0.0
H591 H 0.59451 0.97557 0.10569 0.0
H592 H 0.49777 0.96898 0.06612 0.0
H593 H 0.56733 0.0753 0.10257 0.0
C594 C 0.53199 0.1039 0.09445 0.0
C595 C 0.5013 0.10143 0.08441 0.0
C596 C 0.51906 0.97047 0.07478 0.0
C597 C 0.5249 0.03842 0.0847 0.0
C598 C 0.5293 0.93802 0.07583 0.0
C599 C 0.55622 0.93875 0.08712 0.0
C600 C 0.53605 1.00402 0.08503 0.0
C601 C 0.57308 0.97326 0.09696 0.0
C602 C 0.54382 0.07267 0.09462 0.0
C603 C 0.48324 0.06678 0.07459 0.0
N604 N 0.56268 1.00436 0.0957 0.0
N605 N 0.49531 0.03665 0.07498 0.0
H606 H 0.39211 0.41876 0.74706 0.0
H607 H 0.63753 0.60263 0.74786 0.0
H608 H 0.43353 0.55311 0.74775 0.0
H609 H 0.59613 0.46836 0.74605 0.0
H610 H 0.56317 0.58528 0.74606 0.0
H611 H 0.4665 0.43637 0.74494 0.0
C612 C 0.41675 0.45198 0.74659 0.0
C613 C 0.40639 0.48447 0.74769 0.0
C614 C 0.57035 0.5596 0.74597 0.0
C615 C 0.49195 0.50492 0.74547 0.0
C616 C 0.6129 0.56951 0.7469 0.0
C617 C 0.62326 0.53692 0.74721 0.0
C618 C 0.53772 0.51675 0.74537 0.0
C619 C 0.58973 0.49455 0.74612 0.0
C620 C 0.45932 0.46202 0.74548 0.0
C621 C 0.43993 0.52695 0.74721 0.0
N622 N 0.54856 0.48572 0.74533 0.0
N623 N 0.4811 0.53591 0.74621 0.0
H624 H 0.1429 0.59643 0.42953 0.0
H625 H 0.91645 0.4141 0.39945 0.0
H626 H 0.06918 0.62021 0.39745 0.0
H627 H 0.98947 0.39436 0.43293 0.0
H628 H 0.97379 0.48833 0.39715 0.0
H629 H 0.08887 0.52122 0.42952 0.0
C630 C 0.11558 0.5858 0.42233 0.0
C631 C 0.11078 0.61485 0.41343 0.0
C632 C 0.9773 0.46769 0.40495 0.0
C633 C 0.04803 0.52836 0.41357 0.0
C634 C 0.94471 0.42523 0.40621 0.0
C635 C 0.94802 0.398 0.41647 0.0
C636 C 1.01356 0.48299 0.41399 0.0
C637 C 0.9852 0.41434 0.42505 0.0
C638 C 0.08449 0.54277 0.42242 0.0
C639 C 0.07407 0.59911 0.4046 0.0
N640 N 0.01637 0.45569 0.42363 0.0
N641 N 0.04409 0.55696 0.4049 0.0
H642 H 0.96131 0.56836 0.2894 0.0
H643 H 0.04581 0.42583 0.25031 0.0
H644 H 0.89663 0.4809 0.25369 0.0
H645 H 0.1119 0.51122 0.28635 0.0
H646 H 0.98981 0.44443 0.2521 0.0
H647 H 0.01594 0.54712 0.28906 0.0
C648 C 0.95855 0.54473 0.28149 0.0
C649 C 0.92413 0.52634 0.27158 0.0
C650 C 0.01645 0.45908 0.25966 0.0
C651 C 0.98647 0.50171 0.2712 0.0
C652 C 0.04859 0.44858 0.2586 0.0
C653 C 0.08385 0.46722 0.26812 0.0
C654 C 0.01943 0.48863 0.2703 0.0
C655 C 0.08521 0.49588 0.27884 0.0
C656 C 0.98965 0.53246 0.28136 0.0
C657 C 0.92208 0.49551 0.2617 0.0
N658 N 0.05361 0.5059 0.27958 0.0
N659 N 0.95277 0.48432 0.26174 0.0
H660 H 0.63225 0.03049 0.92326 0.0
H661 H 0.39838 0.96322 0.95312 0.0
H662 H 0.60598 0.11197 0.95071 0.0
H663 H 0.42633 0.88575 0.92415 0.0
H664 H 0.47443 0.01661 0.95355 0.0
H665 H 0.5573 0.97547 0.9248 0.0
C666 C 0.6107 0.03684 0.92962 0.0
C667 C 0.62547 0.07612 0.93676 0.0
C668 C 0.46389 0.98781 0.94716 0.0
C669 C 0.53926 0.01292 0.93865 0.0
C670 C 0.42041 0.95737 0.94685 0.0
C671 C 0.40573 0.91977 0.93859 0.0
C672 C 0.49299 0.98072 0.93914 0.0
C673 C 0.43602 0.91382 0.93086 0.0
C674 C 0.56786 1.0053 0.93054 0.0
C675 C 0.59612 0.08211 0.94509 0.0
N676 N 0.47802 0.94393 0.93129 0.0
N677 N 0.55439 0.05098 0.94573 0.0
H678 H 0.60393 0.63542 0.61283 0.0
H679 H 0.4189 0.39102 0.61248 0.0
H680 H 0.4697 0.59508 0.61335 0.0
H681 H 0.55314 0.43161 0.61382 0.0
H682 H 0.4367 0.46535 0.61478 0.0
H683 H 0.58591 0.56108 0.61519 0.0
C684 C 0.57067 0.61104 0.61365 0.0
C685 C 0.5383 0.62164 0.61278 0.0
C686 C 0.46227 0.45799 0.61467 0.0
C687 C 0.51737 0.53614 0.61524 0.0
C688 C 0.4521 0.41546 0.61345 0.0
C689 C 0.48457 0.40495 0.61283 0.0
C690 C 0.50524 0.49038 0.61524 0.0
C691 C 0.52706 0.43819 0.61397 0.0
C692 C 0.56038 0.56849 0.61489 0.0
C693 C 0.49573 0.58843 0.61369 0.0
N694 N 0.53615 0.47934 0.61502 0.0
N695 N 0.48652 0.54724 0.61477 0.0
H696 H 0.07727 0.23821 0.97198 0.0
H697 H 0.18184 0.23494 0.04944 0.0
H698 H 0.01835 0.23134 0.01396 0.0
H699 H 0.23815 0.23664 1.00738 0.0
H700 H 0.12381 0.23784 0.0367 0.0
H701 H 0.13845 0.24196 0.98479 0.0
C702 C 0.07734 0.23791 0.9839 0.0
C703 C 0.04244 0.23434 0.99188 0.0
C704 C 0.14891 0.23769 0.03025 0.0
C705 C 0.11238 0.2381 1.00666 0.0
C706 C 0.18225 0.23631 0.03753 0.0
C707 C 0.21497 0.23541 0.02949 0.0
C708 C 0.14819 0.23827 0.01479 0.0
C709 C 0.21335 0.23664 0.01405 0.0
C710 C 0.1122 0.23976 0.99121 0.0
C711 C 0.04418 0.23345 1.00733 0.0
N712 N 0.18055 0.23794 1.00722 0.0
N713 N 0.07846 0.23524 0.0142 0.0
H714 H 0.79794 0.07423 0.65817 0.0
H715 H 0.0285 0.16484 0.69517 0.0
H716 H 0.86606 1.00473 0.66045 0.0
H717 H 0.96127 0.23533 0.69401 0.0
H718 H 0.9693 0.10641 0.68214 0.0
H719 H 0.85746 0.13412 0.67084 0.0
C720 C 0.82547 0.07161 0.66125 0.0
C721 C 0.82683 0.03422 0.65827 0.0
C722 C 0.96741 0.13463 0.68471 0.0
C723 C 0.89497 0.10259 0.67289 0.0
C724 C 1.00139 0.16819 0.69209 0.0
C725 C 1.00008 0.20528 0.69564 0.0
C726 C 0.9316 0.13793 0.68079 0.0
C727 C 0.96358 0.20726 0.69162 0.0
C728 C 0.85934 0.10574 0.66857 0.0
C729 C 0.86319 0.03255 0.6627 0.0
N730 N 0.93086 0.17413 0.68438 0.0
N731 N 0.89569 0.06615 0.66976 0.0
H732 H 0.78551 1.00652 0.34069 0.0
H733 H 0.79115 0.78868 0.34777 0.0
H734 H 0.7877 0.94976 0.38221 0.0
H735 H 0.78901 0.84537 0.30622 0.0
H736 H 0.78721 0.84598 0.36056 0.0
H737 H 0.78393 0.94638 0.32788 0.0
C738 C 0.78568 0.98143 0.34713 0.0
C739 C 0.78696 0.98341 0.36258 0.0
C740 C 0.78746 0.84585 0.34864 0.0
C741 C 0.78489 0.91413 0.34794 0.0
C742 C 0.78995 0.81323 0.34132 0.0
C743 C 0.79066 0.81223 0.32587 0.0
C744 C 0.78576 0.87795 0.34049 0.0
C745 C 0.78818 0.84454 0.31813 0.0
C746 C 0.78458 0.94696 0.3398 0.0
C747 C 0.78634 0.94949 0.37031 0.0
N748 N 0.78606 0.87613 0.32551 0.0
N749 N 0.78558 0.91643 0.36292 0.0
H750 H 0.78596 0.72748 0.02635 0.0
H751 H 0.0278 0.86265 0.99817 0.0
H752 H 0.86661 0.86289 0.0329 0.0
H753 H 0.94791 0.72804 0.98976 0.0
H754 H 0.96901 0.8624 0.01134 0.0
H755 H 0.84471 0.72606 0.0134 0.0
C756 C 0.81604 0.75687 0.02513 0.0
C757 C 0.82121 0.79541 0.03068 0.0
C758 C 0.96423 0.83285 1.00663 0.0
C759 C 0.88853 0.79405 0.01579 0.0
C760 C 0.99796 0.83291 0.99917 0.0
C761 C 0.993 0.79524 0.99289 0.0
C762 C 0.92497 0.79485 1.00788 0.0
C763 C 0.95315 0.75791 0.99431 0.0
C764 C 0.84949 0.75607 0.01766 0.0
C765 C 0.86082 0.83255 0.02862 0.0
N766 N 0.92072 0.75863 1.00168 0.0
N767 N 0.89283 0.83091 0.02138 0.0
H768 H 0.23653 0.00986 0.68342 0.0
H769 H 1.0139 0.79188 0.67538 0.0
H770 H 0.17777 0.95542 0.64164 0.0
H771 H 0.07234 0.84671 0.71716 0.0
H772 H 0.07486 0.8501 0.66282 0.0
H773 H 0.17804 0.94903 0.69593 0.0
C774 C 0.2113 0.98515 0.67686 0.0
C775 C 0.21206 0.98798 0.66143 0.0
C776 C 0.07444 0.84935 0.67474 0.0
C777 C 0.14494 0.91787 0.67573 0.0
C778 C 0.03949 0.8162 0.68193 0.0
C779 C 0.03777 0.81441 0.69738 0.0
C780 C 0.10804 0.88118 0.68302 0.0
C781 C 0.07237 0.84648 0.70524 0.0
C782 C 0.17799 0.95028 0.68403 0.0
C783 C 0.17882 0.9545 0.65354 0.0
N784 N 0.10592 0.87858 0.69799 0.0
N785 N 0.14657 0.92102 0.66077 0.0
H786 H 0.16035 1.00417 0.36309 0.0
H787 H 0.2985 0.23515 0.32642 0.0
H788 H 0.29791 0.07119 0.36134 0.0
H789 H 0.16102 0.16665 0.32901 0.0
H790 H 0.29958 0.1761 0.33921 0.0
H791 H 0.16061 0.06407 0.35074 0.0
C792 C 0.19067 0.03142 0.36004 0.0
C793 C 0.22917 0.03241 0.36318 0.0
C794 C 0.26921 0.17409 0.33701 0.0
C795 C 0.22972 0.10167 0.34911 0.0
C796 C 0.26854 0.2077 0.32963 0.0
C797 C 0.22961 0.20603 0.32665 0.0
C798 C 0.23065 0.1384 0.3414 0.0
C799 C 0.19184 0.16978 0.33125 0.0
C800 C 0.1908 0.06579 0.35305 0.0
C801 C 0.26747 0.0691 0.35923 0.0
N802 N 0.19333 0.1375 0.33835 0.0
N803 N 0.26678 0.10218 0.35235 0.0
loop_
_geom_bond_atom_site_label_1
_geom_bond_atom_site_label_2
_geom_bond_distance
_geom_bond_site_symmetry_2
_ccdc_geom_bond_type
C0 C1 1.264 . S
C0 C5 1.479 . S
C0 C10 1.465 . S
C1 C0 1.264 . S
C1 C3 1.339 . S
C1 H28 0.931 . S
C2 C3 1.395 . S
C2 C4 1.320 . S
C3 C1 1.339 . S
C3 C2 1.395 . S
C3 H29 0.929 . S
C4 C2 1.320 . S
C4 C5 1.405 . S
C4 H30 0.930 . S
C5 C0 1.479 . S
C5 C4 1.405 . S
C5 H31 0.931 . S
U6 O7 2.454 . S
U6 O8 2.458 . S
U6 C9 2.984 . S
U6 C10 2.847 . S
U6 C23 2.882 . S
U6 O24 2.441 . S
U6 O25 2.420 . S
U6 O26 2.455 . S
U6 O27 2.449 . S
O7 U6 2.454 . S
O7 C9 1.353 . S
O8 U6 2.458 . S
O8 C9 1.286 . S
C9 U6 2.984 . S
C9 O7 1.353 . S
C9 O8 1.286 . S
C9 C11 1.363 . S
C10 C0 1.465 . S
C10 U6 2.847 . S
C10 O24 1.249 . S
C10 O25 1.202 . S
C11 C9 1.363 . S
C11 C13 1.408 . S
C11 C16 1.342 . S
C12 C13 1.310 . S
C12 C15 1.461 . S
C12 H32 0.932 . S
C13 C11 1.408 . S
C13 C12 1.310 . S
C13 H33 0.930 . S
C14 C15 1.474 . S
C14 C16 1.285 . S
C14 H34 0.929 1_554 S
C15 C12 1.461 . S
C15 C14 1.474 . S
C16 C11 1.342 . S
C16 C14 1.285 . S
C16 H35 0.930 . S
C17 C20 1.424 . S
C17 C22 1.245 . S
C17 C23 1.428 . S
C18 C21 1.260 . S
C18 C22 1.477 . S
C18 H36 0.932 . S
C19 C20 1.384 . S
C19 C21 1.479 . S
C19 H37 0.929 . S
C20 C17 1.424 . S
C20 C19 1.384 . S
C20 H38 0.928 . S
C21 C18 1.260 . S
C21 C19 1.479 . S
C22 C17 1.245 . S
C22 C18 1.477 . S
C22 H39 0.932 . S
C23 U6 2.882 . S
C23 C17 1.428 . S
C23 O26 1.301 . S
C23 O27 1.282 . S
O24 U6 2.441 . S
O24 C10 1.249 . S
O25 U6 2.420 . S
O25 C10 1.202 . S
O26 U6 2.455 . S
O26 C23 1.301 . S
O27 U6 2.449 . S
O27 C23 1.282 . S
H28 C1 0.931 . S
H29 C3 0.929 . S
H30 C4 0.930 . S
H31 C5 0.931 . S
H32 C12 0.932 . S
H33 C13 0.930 . S
H34 C14 0.929 1_556 S
H35 C16 0.930 . S
H36 C18 0.932 . S
H37 C19 0.929 . S
H38 C20 0.928 . S
H39 C22 0.932 . S
C40 C41 1.264 . S
C40 C45 1.479 . S
C40 C50 1.465 . S
C41 C40 1.264 . S
C41 C43 1.339 . S
C41 H68 0.931 . S
C42 C43 1.395 . S
C42 C44 1.320 . S
C43 C41 1.339 . S
C43 C42 1.395 . S
C43 H69 0.929 . S
C44 C42 1.320 . S
C44 C45 1.405 . S
C44 H70 0.930 . S
C45 C40 1.479 . S
C45 C44 1.405 . S
C45 H71 0.931 . S
U46 O47 2.454 . S
U46 O48 2.458 . S
U46 C49 2.984 . S
U46 C50 2.847 . S
U46 C63 2.882 . S
U46 O64 2.441 . S
U46 O65 2.420 . S
U46 O66 2.455 . S
U46 O67 2.449 . S
O47 U46 2.454 . S
O47 C49 1.353 . S
O48 U46 2.458 . S
O48 C49 1.286 . S
C49 U46 2.984 . S
C49 O47 1.353 . S
C49 O48 1.286 . S
C49 C51 1.363 . S
C50 C40 1.465 . S
C50 U46 2.847 . S
C50 O64 1.249 . S
C50 O65 1.202 . S
C51 C49 1.363 . S
C51 C53 1.408 . S
C51 C56 1.342 . S
C52 C53 1.310 1_655 S
C52 C55 1.461 . S
C52 H72 0.932 . S
C53 C51 1.408 . S
C53 C52 1.310 1_455 S
C53 H73 0.930 . S
C54 C55 1.474 1_455 S
C54 C56 1.285 . S
C54 H74 0.929 . S
C55 C52 1.461 . S
C55 C54 1.474 1_655 S
C56 C51 1.342 . S
C56 C54 1.285 . S
C56 H75 0.930 . S
C57 C60 1.424 . S
C57 C62 1.245 . S
C57 C63 1.428 . S
C58 C61 1.260 . S
C58 C62 1.477 . S
C58 H76 0.932 . S
C59 C60 1.384 . S
C59 C61 1.479 . S
C59 H77 0.929 . S
C60 C57 1.424 . S
C60 C59 1.384 . S
C60 H78 0.928 . S
C61 C58 1.260 . S
C61 C59 1.479 . S
C62 C57 1.245 . S
C62 C58 1.477 . S
C62 H79 0.932 . S
C63 U46 2.882 . S
C63 C57 1.428 . S
C63 O66 1.301 . S
C63 O67 1.282 . S
O64 U46 2.441 . S
O64 C50 1.249 . S
O65 U46 2.420 . S
O65 C50 1.202 . S
O66 U46 2.455 . S
O66 C63 1.301 . S
O67 U46 2.449 . S
O67 C63 1.282 . S
H68 C41 0.931 . S
H69 C43 0.929 . S
H70 C44 0.930 . S
H71 C45 0.931 . S
H72 C52 0.932 . S
H73 C53 0.930 . S
H74 C54 0.929 . S
H75 C56 0.930 . S
H76 C58 0.932 . S
H77 C59 0.929 . S
H78 C60 0.928 . S
H79 C62 0.932 . S
C80 C81 1.264 . S
C80 C85 1.479 . S
C80 C90 1.465 . S
C81 C80 1.264 . S
C81 C83 1.339 . S
C81 H108 0.931 . S
C82 C83 1.395 . S
C82 C84 1.320 . S
C83 C81 1.339 . S
C83 C82 1.395 . S
C83 H109 0.929 . S
C84 C82 1.320 . S
C84 C85 1.405 . S
C84 H110 0.930 . S
C85 C80 1.479 . S
C85 C84 1.405 . S
C85 H111 0.931 . S
U86 O87 2.454 . S
U86 O88 2.458 . S
U86 C89 2.984 . S
U86 C90 2.847 . S
U86 C103 2.882 . S
U86 O104 2.441 . S
U86 O105 2.420 . S
U86 O106 2.455 . S
U86 O107 2.449 . S
O87 U86 2.454 . S
O87 C89 1.353 . S
O88 U86 2.458 . S
O88 C89 1.286 . S
C89 U86 2.984 . S
C89 O87 1.353 . S
C89 O88 1.286 . S
C89 C91 1.363 . S
C90 C80 1.465 . S
C90 U86 2.847 . S
C90 O104 1.249 . S
C90 O105 1.202 . S
C91 C89 1.363 . S
C91 C93 1.408 . S
C91 C96 1.342 . S
C92 C93 1.310 1_565 S
C92 C95 1.461 . S
C92 H112 0.932 . S
C93 C91 1.408 . S
C93 C92 1.310 1_545 S
C93 H113 0.930 . S
C94 C95 1.474 1_545 S
C94 C96 1.285 . S
C94 H114 0.929 . S
C95 C92 1.461 . S
C95 C94 1.474 1_565 S
C96 C91 1.342 . S
C96 C94 1.285 . S
C96 H115 0.930 . S
C97 C100 1.424 . S
C97 C102 1.245 . S
C97 C103 1.428 . S
C98 C101 1.260 . S
C98 C102 1.477 . S
C98 H116 0.932 . S
C99 C100 1.384 . S
C99 C101 1.479 . S
C99 H117 0.929 . S
C100 C97 1.424 . S
C100 C99 1.384 . S
C100 H118 0.928 . S
C101 C98 1.260 . S
C101 C99 1.479 . S
C102 C97 1.245 . S
C102 C98 1.477 . S
C102 H119 0.932 . S
C103 U86 2.882 . S
C103 C97 1.428 . S
C103 O106 1.301 . S
C103 O107 1.282 . S
O104 U86 2.441 . S
O104 C90 1.249 . S
O105 U86 2.420 . S
O105 C90 1.202 . S
O106 U86 2.455 . S
O106 C103 1.301 . S
O107 U86 2.449 . S
O107 C103 1.282 . S
H108 C81 0.931 . S
H109 C83 0.929 . S
H110 C84 0.930 . S
H111 C85 0.931 . S
H112 C92 0.932 . S
H113 C93 0.930 . S
H114 C94 0.929 . S
H115 C96 0.930 . S
H116 C98 0.932 . S
H117 C99 0.929 . S
H118 C100 0.928 . S
H119 C102 0.932 . S
C120 C121 1.264 . S
C120 C125 1.479 . S
C120 C130 1.465 . S
C121 C120 1.264 . S
C121 C123 1.339 . S
C121 H148 0.931 . S
C122 C123 1.395 . S
C122 C124 1.320 . S
C123 C121 1.339 . S
C123 C122 1.395 . S
C123 H149 0.929 . S
C124 C122 1.320 . S
C124 C125 1.405 . S
C124 H150 0.930 . S
C125 C120 1.479 . S
C125 C124 1.405 . S
C125 H151 0.931 . S
U126 O127 2.454 . S
U126 O128 2.458 . S
U126 C129 2.984 . S
U126 C130 2.847 . S
U126 C143 2.882 . S
U126 O144 2.441 . S
U126 O145 2.420 . S
U126 O146 2.455 . S
U126 O147 2.449 . S
O127 U126 2.454 . S
O127 C129 1.353 . S
O128 U126 2.458 . S
O128 C129 1.286 . S
C129 U126 2.984 . S
C129 O127 1.353 . S
C129 O128 1.286 . S
C129 C131 1.363 . S
C130 C120 1.465 . S
C130 U126 2.847 . S
C130 O144 1.249 . S
C130 O145 1.202 . S
C131 C129 1.363 . S
C131 C133 1.408 . S
C131 C136 1.342 . S
C132 C133 1.310 . S
C132 C135 1.461 . S
C132 H152 0.932 . S
C133 C131 1.408 . S
C133 C132 1.310 . S
C133 H153 0.930 . S
C134 C135 1.474 . S
C134 C136 1.285 . S
C134 H154 0.929 1_554 S
C135 C132 1.461 . S
C135 C134 1.474 . S
C136 C131 1.342 . S
C136 C134 1.285 . S
C136 H155 0.930 . S
C137 C140 1.424 . S
C137 C142 1.245 . S
C137 C143 1.428 . S
C138 C141 1.260 . S
C138 C142 1.477 . S
C138 H156 0.932 . S
C139 C140 1.384 . S
C139 C141 1.479 . S
C139 H157 0.929 . S
C140 C137 1.424 . S
C140 C139 1.384 . S
C140 H158 0.928 . S
C141 C138 1.260 . S
C141 C139 1.479 . S
C142 C137 1.245 . S
C142 C138 1.477 . S
C142 H159 0.932 . S
C143 U126 2.882 . S
C143 C137 1.428 . S
C143 O146 1.301 . S
C143 O147 1.282 . S
O144 U126 2.441 . S
O144 C130 1.249 . S
O145 U126 2.420 . S
O145 C130 1.202 . S
O146 U126 2.455 . S
O146 C143 1.301 . S
O147 U126 2.449 . S
O147 C143 1.282 . S
H148 C121 0.931 . S
H149 C123 0.929 . S
H150 C124 0.930 . S
H151 C125 0.931 . S
H152 C132 0.932 . S
H153 C133 0.930 . S
H154 C134 0.929 1_556 S
H155 C136 0.930 . S
H156 C138 0.932 . S
H157 C139 0.929 . S
H158 C140 0.928 . S
H159 C142 0.932 . S
C160 C161 1.264 . S
C160 C165 1.479 . S
C160 C170 1.465 . S
C161 C160 1.264 . S
C161 C163 1.339 . S
C161 H188 0.931 . S
C162 C163 1.395 . S
C162 C164 1.320 . S
C163 C161 1.339 . S
C163 C162 1.395 . S
C163 H189 0.929 . S
C164 C162 1.320 . S
C164 C165 1.405 . S
C164 H190 0.930 . S
C165 C160 1.479 . S
C165 C164 1.405 . S
C165 H191 0.931 . S
U166 O167 2.454 . S
U166 O168 2.458 . S
U166 C169 2.984 . S
U166 C170 2.847 . S
U166 C183 2.882 . S
U166 O184 2.441 . S
U166 O185 2.420 . S
U166 O186 2.455 . S
U166 O187 2.449 . S
O167 U166 2.454 . S
O167 C169 1.353 . S
O168 U166 2.458 . S
O168 C169 1.286 . S
C169 U166 2.984 . S
C169 O167 1.353 . S
C169 O168 1.286 . S
C169 C171 1.363 . S
C170 C160 1.465 . S
C170 U166 2.847 . S
C170 O184 1.249 . S
C170 O185 1.202 . S
C171 C169 1.363 . S
C171 C173 1.408 . S
C171 C176 1.342 . S
C172 C173 1.310 1_455 S
C172 C175 1.461 . S
C172 H192 0.932 . S
C173 C171 1.408 . S
C173 C172 1.310 1_655 S
C173 H193 0.930 . S
C174 C175 1.474 1_655 S
C174 C176 1.285 . S
C174 H194 0.929 . S
C175 C172 1.461 . S
C175 C174 1.474 1_455 S
C176 C171 1.342 . S
C176 C174 1.285 . S
C176 H195 0.930 . S
C177 C180 1.424 . S
C177 C182 1.245 . S
C177 C183 1.428 . S
C178 C181 1.260 . S
C178 C182 1.477 . S
C178 H196 0.932 . S
C179 C180 1.384 . S
C179 C181 1.479 . S
C179 H197 0.929 . S
C180 C177 1.424 . S
C180 C179 1.384 . S
C180 H198 0.928 . S
C181 C178 1.260 . S
C181 C179 1.479 . S
C182 C177 1.245 . S
C182 C178 1.477 . S
C182 H199 0.932 . S
C183 U166 2.882 . S
C183 C177 1.428 . S
C183 O186 1.301 . S
C183 O187 1.282 . S
O184 U166 2.441 . S
O184 C170 1.249 . S
O185 U166 2.420 . S
O185 C170 1.202 . S
O186 U166 2.455 . S
O186 C183 1.301 . S
O187 U166 2.449 . S
O187 C183 1.282 . S
H188 C161 0.931 . S
H189 C163 0.929 . S
H190 C164 0.930 . S
H191 C165 0.931 . S
H192 C172 0.932 . S
H193 C173 0.930 . S
H194 C174 0.929 . S
H195 C176 0.930 . S
H196 C178 0.932 . S
H197 C179 0.929 . S
H198 C180 0.928 . S
H199 C182 0.932 . S
C200 C201 1.264 . S
C200 C205 1.479 . S
C200 C210 1.465 . S
C201 C200 1.264 . S
C201 C203 1.339 . S
C201 H228 0.931 . S
C202 C203 1.395 . S
C202 C204 1.320 . S
C203 C201 1.339 . S
C203 C202 1.395 . S
C203 H229 0.929 . S
C204 C202 1.320 . S
C204 C205 1.405 . S
C204 H230 0.930 . S
C205 C200 1.479 . S
C205 C204 1.405 . S
C205 H231 0.931 . S
U206 O207 2.454 . S
U206 O208 2.458 . S
U206 C209 2.984 . S
U206 C210 2.847 . S
U206 C223 2.882 . S
U206 O224 2.441 . S
U206 O225 2.420 . S
U206 O226 2.455 . S
U206 O227 2.449 . S
O207 U206 2.454 . S
O207 C209 1.353 . S
O208 U206 2.458 . S
O208 C209 1.286 . S
C209 U206 2.984 . S
C209 O207 1.353 . S
C209 O208 1.286 . S
C209 C211 1.363 . S
C210 C200 1.465 . S
C210 U206 2.847 . S
C210 O224 1.249 . S
C210 O225 1.202 . S
C211 C209 1.363 . S
C211 C213 1.408 . S
C211 C216 1.342 . S
C212 C213 1.310 1_545 S
C212 C215 1.461 . S
C212 H232 0.932 . S
C213 C211 1.408 . S
C213 C212 1.310 1_565 S
C213 H233 0.930 . S
C214 C215 1.474 1_565 S
C214 C216 1.285 . S
C214 H234 0.929 . S
C215 C212 1.461 . S
C215 C214 1.474 1_545 S
C216 C211 1.342 . S
C216 C214 1.285 . S
C216 H235 0.930 . S
C217 C220 1.424 . S
C217 C222 1.245 . S
C217 C223 1.428 . S
C218 C221 1.260 . S
C218 C222 1.477 . S
C218 H236 0.932 . S
C219 C220 1.384 . S
C219 C221 1.479 . S
C219 H237 0.929 . S
C220 C217 1.424 . S
C220 C219 1.384 . S
C220 H238 0.928 . S
C221 C218 1.260 . S
C221 C219 1.479 . S
C222 C217 1.245 . S
C222 C218 1.477 . S
C222 H239 0.932 . S
C223 U206 2.882 . S
C223 C217 1.428 . S
C223 O226 1.301 . S
C223 O227 1.282 . S
O224 U206 2.441 . S
O224 C210 1.249 . S
O225 U206 2.420 . S
O225 C210 1.202 . S
O226 U206 2.455 . S
O226 C223 1.301 . S
O227 U206 2.449 . S
O227 C223 1.282 . S
H228 C201 0.931 . S
H229 C203 0.929 . S
H230 C204 0.930 . S
H231 C205 0.931 . S
H232 C212 0.932 . S
H233 C213 0.930 . S
H234 C214 0.929 . S
H235 C216 0.930 . S
H236 C218 0.932 . S
H237 C219 0.929 . S
H238 C220 0.928 . S
H239 C222 0.932 . S
C240 C241 1.264 . S
C240 C245 1.479 . S
C240 C250 1.465 . S
C241 C240 1.264 . S
C241 C243 1.339 . S
C241 H268 0.931 . S
C242 C243 1.395 . S
C242 C244 1.320 . S
C243 C241 1.339 . S
C243 C242 1.395 . S
C243 H269 0.929 . S
C244 C242 1.320 . S
C244 C245 1.405 . S
C244 H270 0.930 . S
C245 C240 1.479 . S
C245 C244 1.405 . S
C245 H271 0.931 . S
U246 O247 2.454 . S
U246 O248 2.458 . S
U246 C249 2.984 . S
U246 C250 2.847 . S
U246 C263 2.882 . S
U246 O264 2.441 . S
U246 O265 2.420 . S
U246 O266 2.455 . S
U246 O267 2.449 . S
O247 U246 2.454 . S
O247 C249 1.353 . S
O248 U246 2.458 . S
O248 C249 1.286 . S
C249 U246 2.984 . S
C249 O247 1.353 . S
C249 O248 1.286 . S
C249 C251 1.363 . S
C250 C240 1.465 . S
C250 U246 2.847 . S
C250 O264 1.249 . S
C250 O265 1.202 . S
C251 C249 1.363 . S
C251 C253 1.408 . S
C251 C256 1.342 . S
C252 C253 1.310 . S
C252 C255 1.461 . S
C252 H272 0.932 . S
C253 C251 1.408 . S
C253 C252 1.310 . S
C253 H273 0.930 . S
C254 C255 1.474 . S
C254 C256 1.285 . S
C254 H274 0.929 . S
C255 C252 1.461 . S
C255 C254 1.474 . S
C256 C251 1.342 . S
C256 C254 1.285 . S
C256 H275 0.930 . S
C257 C260 1.424 . S
C257 C262 1.245 . S
C257 C263 1.428 . S
C258 C261 1.260 . S
C258 C262 1.477 . S
C258 H276 0.932 . S
C259 C260 1.384 . S
C259 C261 1.479 . S
C259 H277 0.929 . S
C260 C257 1.424 . S
C260 C259 1.384 . S
C260 H278 0.928 . S
C261 C258 1.260 . S
C261 C259 1.479 . S
C262 C257 1.245 . S
C262 C258 1.477 . S
C262 H279 0.932 . S
C263 U246 2.882 . S
C263 C257 1.428 . S
C263 O266 1.301 . S
C263 O267 1.282 . S
O264 U246 2.441 . S
O264 C250 1.249 . S
O265 U246 2.420 . S
O265 C250 1.202 . S
O266 U246 2.455 . S
O266 C263 1.301 . S
O267 U246 2.449 . S
O267 C263 1.282 . S
H268 C241 0.931 . S
H269 C243 0.929 . S
H270 C244 0.930 . S
H271 C245 0.931 . S
H272 C252 0.932 . S
H273 C253 0.930 . S
H274 C254 0.929 . S
H275 C256 0.930 . S
H276 C258 0.932 . S
H277 C259 0.929 . S
H278 C260 0.928 . S
H279 C262 0.932 . S
C280 C281 1.264 . S
C280 C285 1.479 . S
C280 C290 1.465 . S
C281 C280 1.264 . S
C281 C283 1.339 . S
C281 H308 0.931 . S
C282 C283 1.395 . S
C282 C284 1.320 . S
C283 C281 1.339 . S
C283 C282 1.395 . S
C283 H309 0.929 . S
C284 C282 1.320 . S
C284 C285 1.405 . S
C284 H310 0.930 . S
C285 C280 1.479 . S
C285 C284 1.405 . S
C285 H311 0.931 . S
U286 O287 2.454 . S
U286 O288 2.458 . S
U286 C289 2.984 . S
U286 C290 2.847 . S
U286 C303 2.882 . S
U286 O304 2.441 . S
U286 O305 2.420 . S
U286 O306 2.455 . S
U286 O307 2.449 . S
O287 U286 2.454 . S
O287 C289 1.353 . S
O288 U286 2.458 . S
O288 C289 1.286 . S
C289 U286 2.984 . S
C289 O287 1.353 . S
C289 O288 1.286 . S
C289 C291 1.363 . S
C290 C280 1.465 . S
C290 U286 2.847 . S
C290 O304 1.249 . S
C290 O305 1.202 . S
C291 C289 1.363 . S
C291 C293 1.408 . S
C291 C296 1.342 . S
C292 C293 1.310 1_655 S
C292 C295 1.461 . S
C292 H312 0.932 . S
C293 C291 1.408 . S
C293 C292 1.310 1_455 S
C293 H313 0.930 . S
C294 C295 1.474 1_455 S
C294 C296 1.285 . S
C294 H314 0.929 1_556 S
C295 C292 1.461 . S
C295 C294 1.474 1_655 S
C296 C291 1.342 . S
C296 C294 1.285 . S
C296 H315 0.930 . S
C297 C300 1.424 . S
C297 C302 1.245 . S
C297 C303 1.428 . S
C298 C301 1.260 . S
C298 C302 1.477 . S
C298 H316 0.932 . S
C299 C300 1.384 . S
C299 C301 1.479 . S
C299 H317 0.929 . S
C300 C297 1.424 . S
C300 C299 1.384 . S
C300 H318 0.928 . S
C301 C298 1.260 . S
C301 C299 1.479 . S
C302 C297 1.245 . S
C302 C298 1.477 . S
C302 H319 0.932 . S
C303 U286 2.882 . S
C303 C297 1.428 . S
C303 O306 1.301 . S
C303 O307 1.282 . S
O304 U286 2.441 . S
O304 C290 1.249 . S
O305 U286 2.420 . S
O305 C290 1.202 . S
O306 U286 2.455 . S
O306 C303 1.301 . S
O307 U286 2.449 . S
O307 C303 1.282 . S
H308 C281 0.931 . S
H309 C283 0.929 . S
H310 C284 0.930 . S
H311 C285 0.931 . S
H312 C292 0.932 . S
H313 C293 0.930 . S
H314 C294 0.929 1_554 S
H315 C296 0.930 . S
H316 C298 0.932 . S
H317 C299 0.929 . S
H318 C300 0.928 . S
H319 C302 0.932 . S
C320 C321 1.264 . S
C320 C325 1.479 . S
C320 C330 1.465 . S
C321 C320 1.264 . S
C321 C323 1.339 . S
C321 H348 0.931 . S
C322 C323 1.395 . S
C322 C324 1.320 . S
C323 C321 1.339 . S
C323 C322 1.395 . S
C323 H349 0.929 . S
C324 C322 1.320 . S
C324 C325 1.405 . S
C324 H350 0.930 . S
C325 C320 1.479 . S
C325 C324 1.405 . S
C325 H351 0.931 . S
U326 O327 2.454 . S
U326 O328 2.458 . S
U326 C329 2.984 . S
U326 C330 2.847 . S
U326 C343 2.882 . S
U326 O344 2.441 . S
U326 O345 2.420 . S
U326 O346 2.455 . S
U326 O347 2.449 . S
O327 U326 2.454 . S
O327 C329 1.353 . S
O328 U326 2.458 . S
O328 C329 1.286 . S
C329 U326 2.984 . S
C329 O327 1.353 . S
C329 O328 1.286 . S
C329 C331 1.363 . S
C330 C320 1.465 . S
C330 U326 2.847 . S
C330 O344 1.249 . S
C330 O345 1.202 . S
C331 C329 1.363 . S
C331 C333 1.408 . S
C331 C336 1.342 . S
C332 C333 1.310 1_565 S
C332 C335 1.461 . S
C332 H352 0.932 . S
C333 C331 1.408 . S
C333 C332 1.310 1_545 S
C333 H353 0.930 . S
C334 C335 1.474 1_545 S
C334 C336 1.285 . S
C334 H354 0.929 . S
C335 C332 1.461 . S
C335 C334 1.474 1_565 S
C336 C331 1.342 . S
C336 C334 1.285 . S
C336 H355 0.930 . S
C337 C340 1.424 . S
C337 C342 1.245 . S
C337 C343 1.428 . S
C338 C341 1.260 . S
C338 C342 1.477 . S
C338 H356 0.932 . S
C339 C340 1.384 . S
C339 C341 1.479 . S
C339 H357 0.929 . S
C340 C337 1.424 . S
C340 C339 1.384 . S
C340 H358 0.928 . S
C341 C338 1.260 . S
C341 C339 1.479 . S
C342 C337 1.245 . S
C342 C338 1.477 . S
C342 H359 0.932 . S
C343 U326 2.882 . S
C343 C337 1.428 . S
C343 O346 1.301 . S
C343 O347 1.282 . S
O344 U326 2.441 . S
O344 C330 1.249 . S
O345 U326 2.420 . S
O345 C330 1.202 . S
O346 U326 2.455 . S
O346 C343 1.301 . S
O347 U326 2.449 . S
O347 C343 1.282 . S
H348 C321 0.931 . S
H349 C323 0.929 . S
H350 C324 0.930 . S
H351 C325 0.931 . S
H352 C332 0.932 . S
H353 C333 0.930 . S
H354 C334 0.929 . S
H355 C336 0.930 . S
H356 C338 0.932 . S
H357 C339 0.929 . S
H358 C340 0.928 . S
H359 C342 0.932 . S
C360 C361 1.264 . S
C360 C365 1.479 . S
C360 C370 1.465 . S
C361 C360 1.264 . S
C361 C363 1.339 . S
C361 H388 0.931 . S
C362 C363 1.395 . S
C362 C364 1.320 . S
C363 C361 1.339 . S
C363 C362 1.395 . S
C363 H389 0.929 . S
C364 C362 1.320 . S
C364 C365 1.405 . S
C364 H390 0.930 . S
C365 C360 1.479 . S
C365 C364 1.405 . S
C365 H391 0.931 . S
U366 O367 2.454 . S
U366 O368 2.458 . S
U366 C369 2.984 . S
U366 C370 2.847 . S
U366 C383 2.882 . S
U366 O384 2.441 . S
U366 O385 2.420 . S
U366 O386 2.455 . S
U366 O387 2.449 . S
O367 U366 2.454 . S
O367 C369 1.353 . S
O368 U366 2.458 . S
O368 C369 1.286 . S
C369 U366 2.984 . S
C369 O367 1.353 . S
C369 O368 1.286 . S
C369 C371 1.363 . S
C370 C360 1.465 . S
C370 U366 2.847 . S
C370 O384 1.249 . S
C370 O385 1.202 . S
C371 C369 1.363 . S
C371 C373 1.408 . S
C371 C376 1.342 . S
C372 C373 1.310 . S
C372 C375 1.461 . S
C372 H392 0.932 . S
C373 C371 1.408 . S
C373 C372 1.310 . S
C373 H393 0.930 . S
C374 C375 1.474 . S
C374 C376 1.285 . S
C374 H394 0.929 . S
C375 C372 1.461 . S
C375 C374 1.474 . S
C376 C371 1.342 . S
C376 C374 1.285 . S
C376 H395 0.930 . S
C377 C380 1.424 . S
C377 C382 1.245 . S
C377 C383 1.428 . S
C378 C381 1.260 . S
C378 C382 1.477 . S
C378 H396 0.932 . S
C379 C380 1.384 . S
C379 C381 1.479 . S
C379 H397 0.929 . S
C380 C377 1.424 . S
C380 C379 1.384 . S
C380 H398 0.928 . S
C381 C378 1.260 . S
C381 C379 1.479 . S
C382 C377 1.245 . S
C382 C378 1.477 . S
C382 H399 0.932 . S
C383 U366 2.882 . S
C383 C377 1.428 . S
C383 O386 1.301 . S
C383 O387 1.282 . S
O384 U366 2.441 . S
O384 C370 1.249 . S
O385 U366 2.420 . S
O385 C370 1.202 . S
O386 U366 2.455 . S
O386 C383 1.301 . S
O387 U366 2.449 . S
O387 C383 1.282 . S
H388 C361 0.931 . S
H389 C363 0.929 . S
H390 C364 0.930 . S
H391 C365 0.931 . S
H392 C372 0.932 . S
H393 C373 0.930 . S
H394 C374 0.929 . S
H395 C376 0.930 . S
H396 C378 0.932 . S
H397 C379 0.929 . S
H398 C380 0.928 . S
H399 C382 0.932 . S
C400 C401 1.264 . S
C400 C405 1.479 . S
C400 C410 1.465 . S
C401 C400 1.264 . S
C401 C403 1.339 . S
C401 H428 0.931 . S
C402 C403 1.395 . S
C402 C404 1.320 . S
C403 C401 1.339 . S
C403 C402 1.395 . S
C403 H429 0.929 . S
C404 C402 1.320 . S
C404 C405 1.405 . S
C404 H430 0.930 . S
C405 C400 1.479 . S
C405 C404 1.405 . S
C405 H431 0.931 . S
U406 O407 2.454 . S
U406 O408 2.458 . S
U406 C409 2.984 . S
U406 C410 2.847 . S
U406 C423 2.882 . S
U406 O424 2.441 . S
U406 O425 2.420 . S
U406 O426 2.455 . S
U406 O427 2.449 . S
O407 U406 2.454 . S
O407 C409 1.353 . S
O408 U406 2.458 . S
O408 C409 1.286 . S
C409 U406 2.984 . S
C409 O407 1.353 . S
C409 O408 1.286 . S
C409 C411 1.363 . S
C410 C400 1.465 . S
C410 U406 2.847 . S
C410 O424 1.249 . S
C410 O425 1.202 . S
C411 C409 1.363 . S
C411 C413 1.408 . S
C411 C416 1.342 . S
C412 C413 1.310 1_455 S
C412 C415 1.461 . S
C412 H432 0.932 . S
C413 C411 1.408 . S
C413 C412 1.310 1_655 S
C413 H433 0.930 . S
C414 C415 1.474 1_655 S
C414 C416 1.285 . S
C414 H434 0.929 1_556 S
C415 C412 1.461 . S
C415 C414 1.474 1_455 S
C416 C411 1.342 . S
C416 C414 1.285 . S
C416 H435 0.930 . S
C417 C420 1.424 . S
C417 C422 1.245 . S
C417 C423 1.428 . S
C418 C421 1.260 . S
C418 C422 1.477 . S
C418 H436 0.932 . S
C419 C420 1.384 . S
C419 C421 1.479 . S
C419 H437 0.929 . S
C420 C417 1.424 . S
C420 C419 1.384 . S
C420 H438 0.928 . S
C421 C418 1.260 . S
C421 C419 1.479 . S
C422 C417 1.245 . S
C422 C418 1.477 . S
C422 H439 0.932 . S
C423 U406 2.882 . S
C423 C417 1.428 . S
C423 O426 1.301 . S
C423 O427 1.282 . S
O424 U406 2.441 . S
O424 C410 1.249 . S
O425 U406 2.420 . S
O425 C410 1.202 . S
O426 U406 2.455 . S
O426 C423 1.301 . S
O427 U406 2.449 . S
O427 C423 1.282 . S
H428 C401 0.931 . S
H429 C403 0.929 . S
H430 C404 0.930 . S
H431 C405 0.931 . S
H432 C412 0.932 . S
H433 C413 0.930 . S
H434 C414 0.929 1_554 S
H435 C416 0.930 . S
H436 C418 0.932 . S
H437 C419 0.929 . S
H438 C420 0.928 . S
H439 C422 0.932 . S
C440 C441 1.264 . S
C440 C445 1.479 . S
C440 C450 1.465 . S
C441 C440 1.264 . S
C441 C443 1.339 . S
C441 H468 0.931 . S
C442 C443 1.395 . S
C442 C444 1.320 . S
C443 C441 1.339 . S
C443 C442 1.395 . S
C443 H469 0.929 . S
C444 C442 1.320 . S
C444 C445 1.405 . S
C444 H470 0.930 . S
C445 C440 1.479 . S
C445 C444 1.405 . S
C445 H471 0.931 . S
U446 O447 2.454 . S
U446 O448 2.458 . S
U446 C449 2.984 . S
U446 C450 2.847 . S
U446 C463 2.882 . S
U446 O464 2.441 . S
U446 O465 2.420 . S
U446 O466 2.455 . S
U446 O467 2.449 . S
O447 U446 2.454 . S
O447 C449 1.353 . S
O448 U446 2.458 . S
O448 C449 1.286 . S
C449 U446 2.984 . S
C449 O447 1.353 . S
C449 O448 1.286 . S
C449 C451 1.363 . S
C450 C440 1.465 . S
C450 U446 2.847 . S
C450 O464 1.249 . S
C450 O465 1.202 . S
C451 C449 1.363 . S
C451 C453 1.408 . S
C451 C456 1.342 . S
C452 C453 1.310 1_545 S
C452 C455 1.461 . S
C452 H472 0.932 . S
C453 C451 1.408 . S
C453 C452 1.310 1_565 S
C453 H473 0.930 . S
C454 C455 1.474 1_565 S
C454 C456 1.285 . S
C454 H474 0.929 . S
C455 C452 1.461 . S
C455 C454 1.474 1_545 S
C456 C451 1.342 . S
C456 C454 1.285 . S
C456 H475 0.930 . S
C457 C460 1.424 . S
C457 C462 1.245 . S
C457 C463 1.428 . S
C458 C461 1.260 . S
C458 C462 1.477 . S
C458 H476 0.932 . S
C459 C460 1.384 . S
C459 C461 1.479 . S
C459 H477 0.929 . S
C460 C457 1.424 . S
C460 C459 1.384 . S
C460 H478 0.928 . S
C461 C458 1.260 . S
C461 C459 1.479 . S
C462 C457 1.245 . S
C462 C458 1.477 . S
C462 H479 0.932 . S
C463 U446 2.882 . S
C463 C457 1.428 . S
C463 O466 1.301 . S
C463 O467 1.282 . S
O464 U446 2.441 . S
O464 C450 1.249 . S
O465 U446 2.420 . S
O465 C450 1.202 . S
O466 U446 2.455 . S
O466 C463 1.301 . S
O467 U446 2.449 . S
O467 C463 1.282 . S
H468 C441 0.931 . S
H469 C443 0.929 . S
H470 C444 0.930 . S
H471 C445 0.931 . S
H472 C452 0.932 . S
H473 C453 0.930 . S
H474 C454 0.929 . S
H475 C456 0.930 . S
H476 C458 0.932 . S
H477 C459 0.929 . S
H478 C460 0.928 . S
H479 C462 0.932 . S
H480 C486 0.930 . S
H481 C490 0.930 . S
H482 C495 0.929 . S
H483 C493 0.929 . S
H484 C488 0.929 . S
H485 C494 0.929 . S
C486 H480 0.930 . S
C486 C487 1.367 . S
C486 C494 1.378 . S
C487 C486 1.367 . S
C487 C495 1.433 . S
C488 H484 0.929 . S
C488 C490 1.378 . S
C488 C492 1.350 . S
C489 C492 1.463 . S
C489 C494 1.350 . S
C489 N497 1.427 . S
C490 H481 0.930 . S
C490 C488 1.378 . S
C490 C491 1.367 . S
C491 C490 1.367 . S
C491 C493 1.433 . S
C492 C488 1.350 . S
C492 C489 1.463 . S
C492 N496 1.427 . S
C493 H483 0.929 . S
C493 C491 1.433 . S
C493 N496 1.384 . S
C494 H485 0.929 . S
C494 C486 1.378 . S
C494 C489 1.350 . S
C495 H482 0.929 . S
C495 C487 1.433 . S
C495 N497 1.384 . S
N496 C492 1.427 . S
N496 C493 1.384 . S
N497 C489 1.427 . S
N497 C495 1.384 . S
H498 C504 0.930 . S
H499 C508 0.930 . S
H500 C513 0.929 . S
H501 C511 0.929 . S
H502 C506 0.929 . S
H503 C512 0.929 . S
C504 H498 0.930 . S
C504 C505 1.367 . S
C504 C512 1.378 . S
C505 C504 1.367 . S
C505 C513 1.433 . S
C506 H502 0.929 . S
C506 C508 1.378 . S
C506 C510 1.350 . S
C507 C510 1.463 . S
C507 C512 1.350 . S
C507 N515 1.427 . S
C508 H499 0.930 . S
C508 C506 1.378 . S
C508 C509 1.367 . S
C509 C508 1.367 . S
C509 C511 1.433 . S
C510 C506 1.350 . S
C510 C507 1.463 . S
C510 N514 1.427 . S
C511 H501 0.929 . S
C511 C509 1.433 . S
C511 N514 1.384 . S
C512 H503 0.929 . S
C512 C504 1.378 . S
C512 C507 1.350 . S
C513 H500 0.929 . S
C513 C505 1.433 . S
C513 N515 1.384 . S
N514 C510 1.427 . S
N514 C511 1.384 . S
N515 C507 1.427 . S
N515 C513 1.384 . S
H516 C522 0.930 . S
H517 C526 0.930 . S
H518 C531 0.929 . S
H519 C529 0.929 . S
H520 C524 0.929 . S
H521 C530 0.929 . S
C522 H516 0.930 . S
C522 C523 1.367 . S
C522 C530 1.378 . S
C523 C522 1.367 . S
C523 C531 1.433 . S
C524 H520 0.929 . S
C524 C526 1.378 . S
C524 C528 1.350 . S
C525 C528 1.463 . S
C525 C530 1.350 . S
C525 N533 1.427 . S
C526 H517 0.930 . S
C526 C524 1.378 . S
C526 C527 1.367 . S
C527 C526 1.367 . S
C527 C529 1.433 . S
C528 C524 1.350 . S
C528 C525 1.463 . S
C528 N532 1.427 . S
C529 H519 0.929 . S
C529 C527 1.433 . S
C529 N532 1.384 . S
C530 H521 0.929 . S
C530 C522 1.378 . S
C530 C525 1.350 . S
C531 H518 0.929 . S
C531 C523 1.433 . S
C531 N533 1.384 . S
N532 C528 1.427 . S
N532 C529 1.384 . S
N533 C525 1.427 . S
N533 C531 1.384 . S
H534 C540 0.930 . S
H535 C544 0.930 . S
H536 C549 0.929 . S
H537 C547 0.929 . S
H538 C542 0.929 . S
H539 C548 0.929 . S
C540 H534 0.930 . S
C540 C541 1.367 . S
C540 C548 1.378 . S
C541 C540 1.367 . S
C541 C549 1.433 . S
C542 H538 0.929 . S
C542 C544 1.378 . S
C542 C546 1.350 . S
C543 C546 1.463 . S
C543 C548 1.350 . S
C543 N551 1.427 . S
C544 H535 0.930 . S
C544 C542 1.378 . S
C544 C545 1.367 . S
C545 C544 1.367 . S
C545 C547 1.433 . S
C546 C542 1.350 . S
C546 C543 1.463 . S
C546 N550 1.427 . S
C547 H537 0.929 . S
C547 C545 1.433 . S
C547 N550 1.384 . S
C548 H539 0.929 . S
C548 C540 1.378 . S
C548 C543 1.350 . S
C549 H536 0.929 . S
C549 C541 1.433 . S
C549 N551 1.384 . S
N550 C546 1.427 . S
N550 C547 1.384 . S
N551 C543 1.427 . S
N551 C549 1.384 . S
H552 C558 0.930 . S
H553 C562 0.930 . S
H554 C567 0.929 . S
H555 C565 0.929 . S
H556 C560 0.929 . S
H557 C566 0.929 . S
C558 H552 0.930 . S
C558 C559 1.367 . S
C558 C566 1.378 . S
C559 C558 1.367 . S
C559 C567 1.433 . S
C560 H556 0.929 . S
C560 C562 1.378 . S
C560 C564 1.350 . S
C561 C564 1.463 . S
C561 C566 1.350 . S
C561 N569 1.427 . S
C562 H553 0.930 . S
C562 C560 1.378 . S
C562 C563 1.367 . S
C563 C562 1.367 . S
C563 C565 1.433 . S
C564 C560 1.350 . S
C564 C561 1.463 . S
C564 N568 1.427 . S
C565 H555 0.929 . S
C565 C563 1.433 . S
C565 N568 1.384 . S
C566 H557 0.929 . S
C566 C558 1.378 . S
C566 C561 1.350 . S
C567 H554 0.929 . S
C567 C559 1.433 . S
C567 N569 1.384 . S
N568 C564 1.427 . S
N568 C565 1.384 . S
N569 C561 1.427 . S
N569 C567 1.384 . S
H570 C576 0.930 . S
H571 C580 0.930 . S
H572 C585 0.929 . S
H573 C583 0.929 . S
H574 C578 0.929 . S
H575 C584 0.929 . S
C576 H570 0.930 . S
C576 C577 1.367 . S
C576 C584 1.378 . S
C577 C576 1.367 . S
C577 C585 1.433 . S
C578 H574 0.929 . S
C578 C580 1.378 . S
C578 C582 1.350 . S
C579 C582 1.463 . S
C579 C584 1.350 . S
C579 N587 1.427 . S
C580 H571 0.930 . S
C580 C578 1.378 . S
C580 C581 1.367 . S
C581 C580 1.367 . S
C581 C583 1.433 . S
C582 C578 1.350 . S
C582 C579 1.463 . S
C582 N586 1.427 . S
C583 H573 0.929 . S
C583 C581 1.433 . S
C583 N586 1.384 . S
C584 H575 0.929 . S
C584 C576 1.378 . S
C584 C579 1.350 . S
C585 H572 0.929 . S
C585 C577 1.433 . S
C585 N587 1.384 . S
N586 C582 1.427 . S
N586 C583 1.384 . S
N587 C579 1.427 . S
N587 C585 1.384 . S
H588 C594 0.930 . S
H589 C598 0.930 . S
H590 C603 0.929 . S
H591 C601 0.929 . S
H592 C596 0.929 . S
H593 C602 0.929 . S
C594 H588 0.930 . S
C594 C595 1.367 . S
C594 C602 1.378 . S
C595 C594 1.367 . S
C595 C603 1.433 . S
C596 H592 0.929 . S
C596 C598 1.378 . S
C596 C600 1.350 . S
C597 C600 1.463 1_545 S
C597 C602 1.350 . S
C597 N605 1.427 . S
C598 H589 0.930 . S
C598 C596 1.378 . S
C598 C599 1.367 . S
C599 C598 1.367 . S
C599 C601 1.433 . S
C600 C596 1.350 . S
C600 C597 1.463 1_565 S
C600 N604 1.427 . S
C601 H591 0.929 . S
C601 C599 1.433 . S
C601 N604 1.384 . S
C602 H593 0.929 . S
C602 C594 1.378 . S
C602 C597 1.350 . S
C603 H590 0.929 . S
C603 C595 1.433 . S
C603 N605 1.384 . S
N604 C600 1.427 . S
N604 C601 1.384 . S
N605 C597 1.427 . S
N605 C603 1.384 . S
H606 C612 0.930 . S
H607 C616 0.930 . S
H608 C621 0.929 . S
H609 C619 0.929 . S
H610 C614 0.929 . S
H611 C620 0.929 . S
C612 H606 0.930 . S
C612 C613 1.367 . S
C612 C620 1.378 . S
C613 C612 1.367 . S
C613 C621 1.433 . S
C614 H610 0.929 . S
C614 C616 1.378 . S
C614 C618 1.350 . S
C615 C618 1.463 . S
C615 C620 1.350 . S
C615 N623 1.427 . S
C616 H607 0.930 . S
C616 C614 1.378 . S
C616 C617 1.367 . S
C617 C616 1.367 . S
C617 C619 1.433 . S
C618 C614 1.350 . S
C618 C615 1.463 . S
C618 N622 1.427 . S
C619 H609 0.929 . S
C619 C617 1.433 . S
C619 N622 1.384 . S
C620 H611 0.929 . S
C620 C612 1.378 . S
C620 C615 1.350 . S
C621 H608 0.929 . S
C621 C613 1.433 . S
C621 N623 1.384 . S
N622 C618 1.427 . S
N622 C619 1.384 . S
N623 C615 1.427 . S
N623 C621 1.384 . S
H624 C630 0.930 . S
H625 C634 0.930 . S
H626 C639 0.929 . S
H627 C637 0.929 . S
H628 C632 0.929 . S
H629 C638 0.929 . S
C630 H624 0.930 . S
C630 C631 1.367 . S
C630 C638 1.378 . S
C631 C630 1.367 . S
C631 C639 1.433 . S
C632 H628 0.929 . S
C632 C634 1.378 . S
C632 C636 1.350 . S
C633 C636 1.463 1_455 S
C633 C638 1.350 . S
C633 N641 1.427 . S
C634 H625 0.930 . S
C634 C632 1.378 . S
C634 C635 1.367 . S
C635 C634 1.367 . S
C635 C637 1.433 . S
C636 C632 1.350 . S
C636 C633 1.463 1_655 S
C636 N640 1.427 . S
C637 H627 0.929 . S
C637 C635 1.433 . S
C637 N640 1.384 . S
C638 H629 0.929 . S
C638 C630 1.378 . S
C638 C633 1.350 . S
C639 H626 0.929 . S
C639 C631 1.433 . S
C639 N641 1.384 . S
N640 C636 1.427 . S
N640 C637 1.384 . S
N641 C633 1.427 . S
N641 C639 1.384 . S
H642 C648 0.930 . S
H643 C652 0.930 . S
H644 C657 0.929 . S
H645 C655 0.929 . S
H646 C650 0.929 . S
H647 C656 0.929 . S
C648 H642 0.930 . S
C648 C649 1.367 . S
C648 C656 1.378 . S
C649 C648 1.367 . S
C649 C657 1.433 . S
C650 H646 0.929 . S
C650 C652 1.378 . S
C650 C654 1.350 . S
C651 C654 1.463 1_655 S
C651 C656 1.350 . S
C651 N659 1.427 . S
C652 H643 0.930 . S
C652 C650 1.378 . S
C652 C653 1.367 . S
C653 C652 1.367 . S
C653 C655 1.433 . S
C654 C650 1.350 . S
C654 C651 1.463 1_455 S
C654 N658 1.427 . S
C655 H645 0.929 . S
C655 C653 1.433 . S
C655 N658 1.384 . S
C656 H647 0.929 . S
C656 C648 1.378 . S
C656 C651 1.350 . S
C657 H644 0.929 . S
C657 C649 1.433 . S
C657 N659 1.384 . S
N658 C654 1.427 . S
N658 C655 1.384 . S
N659 C651 1.427 . S
N659 C657 1.384 . S
H660 C666 0.930 . S
H661 C670 0.930 . S
H662 C675 0.929 . S
H663 C673 0.929 . S
H664 C668 0.929 . S
H665 C674 0.929 . S
C666 H660 0.930 . S
C666 C667 1.367 . S
C666 C674 1.378 . S
C667 C666 1.367 . S
C667 C675 1.433 . S
C668 H664 0.929 . S
C668 C670 1.378 . S
C668 C672 1.350 . S
C669 C672 1.463 1_545 S
C669 C674 1.350 . S
C669 N677 1.427 . S
C670 H661 0.930 . S
C670 C668 1.378 . S
C670 C671 1.367 . S
C671 C670 1.367 . S
C671 C673 1.433 . S
C672 C668 1.350 . S
C672 C669 1.463 1_565 S
C672 N676 1.427 . S
C673 H663 0.929 . S
C673 C671 1.433 . S
C673 N676 1.384 . S
C674 H665 0.929 . S
C674 C666 1.378 . S
C674 C669 1.350 . S
C675 H662 0.929 . S
C675 C667 1.433 . S
C675 N677 1.384 . S
N676 C672 1.427 . S
N676 C673 1.384 . S
N677 C669 1.427 . S
N677 C675 1.384 . S
H678 C684 0.930 . S
H679 C688 0.930 . S
H680 C693 0.929 . S
H681 C691 0.929 . S
H682 C686 0.929 . S
H683 C692 0.929 . S
C684 H678 0.930 . S
C684 C685 1.367 . S
C684 C692 1.378 . S
C685 C684 1.367 . S
C685 C693 1.433 . S
C686 H682 0.929 . S
C686 C688 1.378 . S
C686 C690 1.350 . S
C687 C690 1.463 . S
C687 C692 1.350 . S
C687 N695 1.427 . S
C688 H679 0.930 . S
C688 C686 1.378 . S
C688 C689 1.367 . S
C689 C688 1.367 . S
C689 C691 1.433 . S
C690 C686 1.350 . S
C690 C687 1.463 . S
C690 N694 1.427 . S
C691 H681 0.929 . S
C691 C689 1.433 . S
C691 N694 1.384 . S
C692 H683 0.929 . S
C692 C684 1.378 . S
C692 C687 1.350 . S
C693 H680 0.929 . S
C693 C685 1.433 . S
C693 N695 1.384 . S
N694 C690 1.427 . S
N694 C691 1.384 . S
N695 C687 1.427 . S
N695 C693 1.384 . S
H696 C702 0.930 . S
H697 C706 0.930 . S
H698 C711 0.929 . S
H699 C709 0.929 . S
H700 C704 0.929 . S
H701 C710 0.929 . S
C702 H696 0.930 . S
C702 C703 1.367 . S
C702 C710 1.378 . S
C703 C702 1.367 . S
C703 C711 1.433 1_556 S
C704 H700 0.929 . S
C704 C706 1.378 . S
C704 C708 1.399 . S
C705 C708 1.456 1_556 S
C705 C710 1.399 . S
C705 N713 1.382 1_556 S
C706 H697 0.930 . S
C706 C704 1.378 . S
C706 C707 1.367 . S
C707 C706 1.367 . S
C707 C709 1.433 1_554 S
C708 C704 1.399 . S
C708 C705 1.456 1_554 S
C708 N712 1.382 1_554 S
C709 H699 0.929 . S
C709 C707 1.433 1_556 S
C709 N712 1.384 . S
C710 H701 0.929 . S
C710 C702 1.378 . S
C710 C705 1.399 . S
C711 H698 0.929 . S
C711 C703 1.433 1_554 S
C711 N713 1.384 . S
N712 C708 1.382 1_556 S
N712 C709 1.384 . S
N713 C705 1.382 1_554 S
N713 C711 1.384 . S
H714 C720 0.930 . S
H715 C724 0.930 . S
H716 C729 0.929 . S
H717 C727 0.929 . S
H718 C722 0.929 . S
H719 C728 0.929 . S
C720 H714 0.930 . S
C720 C721 1.367 . S
C720 C728 1.378 . S
C721 C720 1.367 . S
C721 C729 1.433 . S
C722 H718 0.929 . S
C722 C724 1.378 . S
C722 C726 1.350 . S
C723 C726 1.463 . S
C723 C728 1.350 . S
C723 N731 1.427 . S
C724 H715 0.930 . S
C724 C722 1.378 . S
C724 C725 1.367 . S
C725 C724 1.367 . S
C725 C727 1.433 . S
C726 C722 1.350 . S
C726 C723 1.463 . S
C726 N730 1.427 . S
C727 H717 0.929 . S
C727 C725 1.433 . S
C727 N730 1.384 . S
C728 H719 0.929 . S
C728 C720 1.378 . S
C728 C723 1.350 . S
C729 H716 0.929 . S
C729 C721 1.433 . S
C729 N731 1.384 . S
N730 C726 1.427 . S
N730 C727 1.384 . S
N731 C723 1.427 . S
N731 C729 1.384 . S
H732 C738 0.930 . S
H733 C742 0.930 . S
H734 C747 0.929 . S
H735 C745 0.929 . S
H736 C740 0.929 . S
H737 C746 0.929 . S
C738 H732 0.930 . S
C738 C739 1.367 . S
C738 C746 1.378 . S
C739 C738 1.367 . S
C739 C747 1.433 . S
C740 H736 0.929 . S
C740 C742 1.378 . S
C740 C744 1.350 . S
C741 C744 1.463 . S
C741 C746 1.350 . S
C741 N749 1.427 . S
C742 H733 0.930 . S
C742 C740 1.378 . S
C742 C743 1.367 . S
C743 C742 1.367 . S
C743 C745 1.433 . S
C744 C740 1.350 . S
C744 C741 1.463 . S
C744 N748 1.427 . S
C745 H735 0.929 . S
C745 C743 1.433 . S
C745 N748 1.384 . S
C746 H737 0.929 . S
C746 C738 1.378 . S
C746 C741 1.350 . S
C747 H734 0.929 . S
C747 C739 1.433 . S
C747 N749 1.384 . S
N748 C744 1.427 . S
N748 C745 1.384 . S
N749 C741 1.427 . S
N749 C747 1.384 . S
H750 C756 0.941 . S
H751 C760 0.941 . S
H752 C765 0.929 . S
H753 C763 0.929 . S
H754 C758 0.929 . S
H755 C764 0.929 . S
C756 H750 0.941 . S
C756 C757 1.357 1_556 S
C756 C764 1.382 . S
C757 C756 1.357 1_554 S
C757 C765 1.433 . S
C758 H754 0.929 . S
C758 C760 1.382 . S
C758 C762 1.348 1_554 S
C759 C762 1.462 1_554 S
C759 C764 1.348 1_554 S
C759 N767 1.431 . S
C760 H751 0.941 . S
C760 C758 1.382 . S
C760 C761 1.357 1_554 S
C761 C760 1.357 1_556 S
C761 C763 1.433 . S
C762 C758 1.348 1_556 S
C762 C759 1.462 1_556 S
C762 N766 1.431 . S
C763 H753 0.929 . S
C763 C761 1.433 . S
C763 N766 1.384 . S
C764 H755 0.929 . S
C764 C756 1.382 . S
C764 C759 1.348 1_556 S
C765 H752 0.929 . S
C765 C757 1.433 . S
C765 N767 1.384 . S
N766 C762 1.431 . S
N766 C763 1.384 . S
N767 C759 1.431 . S
N767 C765 1.384 . S
H768 C774 0.930 . S
H769 C778 0.930 . S
H770 C783 0.929 . S
H771 C781 0.929 . S
H772 C776 0.929 . S
H773 C782 0.929 . S
C774 H768 0.930 . S
C774 C775 1.367 . S
C774 C782 1.378 . S
C775 C774 1.367 . S
C775 C783 1.433 . S
C776 H772 0.929 . S
C776 C778 1.378 . S
C776 C780 1.350 . S
C777 C780 1.463 . S
C777 C782 1.350 . S
C777 N785 1.427 . S
C778 H769 0.930 . S
C778 C776 1.378 . S
C778 C779 1.367 . S
C779 C778 1.367 . S
C779 C781 1.433 . S
C780 C776 1.350 . S
C780 C777 1.463 . S
C780 N784 1.427 . S
C781 H771 0.929 . S
C781 C779 1.433 . S
C781 N784 1.384 . S
C782 H773 0.929 . S
C782 C774 1.378 . S
C782 C777 1.350 . S
C783 H770 0.929 . S
C783 C775 1.433 . S
C783 N785 1.384 . S
N784 C780 1.427 . S
N784 C781 1.384 . S
N785 C777 1.427 . S
N785 C783 1.384 . S
H786 C792 0.930 . S
H787 C796 0.930 . S
H788 C801 0.929 . S
H789 C799 0.929 . S
H790 C794 0.929 . S
H791 C800 0.929 . S
C792 H786 0.930 . S
C792 C793 1.367 . S
C792 C800 1.378 . S
C793 C792 1.367 . S
C793 C801 1.433 . S
C794 H790 0.929 . S
C794 C796 1.378 . S
C794 C798 1.350 . S
C795 C798 1.463 . S
C795 C800 1.350 . S
C795 N803 1.427 . S
C796 H787 0.930 . S
C796 C794 1.378 . S
C796 C797 1.367 . S
C797 C796 1.367 . S
C797 C799 1.433 . S
C798 C794 1.350 . S
C798 C795 1.463 . S
C798 N802 1.427 . S
C799 H789 0.929 . S
C799 C797 1.433 . S
C799 N802 1.384 . S
C800 H791 0.929 . S
C800 C792 1.378 . S
C800 C795 1.350 . S
C801 H788 0.929 . S
C801 C793 1.433 . S
C801 N803 1.384 . S
N802 C798 1.427 . S
N802 C799 1.384 . S
N803 C795 1.427 . S
N803 C801 1.384 . S
C487 C2 1.971 . S
C491 C242 1.970 . S
C505 C42 1.965 . S
C509 C282 1.965 . S
C523 C82 1.972 . S
C527 C322 1.974 . S
C541 C362 1.981 . S
C545 C122 1.981 . S
C559 C162 1.966 . S
C563 C402 1.966 . S
C577 C442 1.970 . S
C581 C202 1.971 . S
C595 C21 1.763 . S
C599 C141 1.773 . S
C613 C61 1.764 . S
C617 C181 1.762 . S
C631 C221 1.763 . S
C635 C101 1.773 . S
C649 C261 1.772 . S
C653 C381 1.762 . S
C667 C421 1.761 . S
C671 C301 1.770 . S
C685 C461 1.760 . S
C689 C341 1.768 . S
C703 C415 1.957 . S
C707 C15 1.956 . S
C721 C455 1.962 . S
C725 C55 1.959 . S
C739 C95 1.967 . S
C743 C255 1.967 . S
C757 C135 1.964 . S
C761 C295 1.961 . S
C775 C335 1.966 . S
C779 C175 1.967 . S
C793 C215 1.960 . S
C797 C375 1.963 . S
