# Generated by pormake.
# Topology vby, (6)-cn, num edge types: 1
# Building blocks:
#     Node 0, Type 0, BuildingBlock: GEDQOX_clean_sbu_0, # of connection points: 6
#     Node 1, Type 0, BuildingBlock: GEDQOX_clean_sbu_0, # of connection points: 6
#     Node 2, Type 0, BuildingBlock: GEDQOX_clean_sbu_0, # of connection points: 6
#     Node 3, Type 0, BuildingBlock: GEDQOX_clean_sbu_0, # of connection points: 6
#     Node 4, Type 0, BuildingBlock: GEDQOX_clean_sbu_0, # of connection points: 6
#     Node 5, Type 0, BuildingBlock: GEDQOX_clean_sbu_0, # of connection points: 6
#     Node 6, Type 0, BuildingBlock: GEDQOX_clean_sbu_0, # of connection points: 6
#     Node 7, Type 0, BuildingBlock: GEDQOX_clean_sbu_0, # of connection points: 6
#     Edge 8, Type (0, 0), BuildingBlock: CIFDUS_clean_linker_0, # of connection points: 2
#     Edge 9, Type (0, 0), BuildingBlock: CIFDUS_clean_linker_0, # of connection points: 2
#     Edge 10, Type (0, 0), BuildingBlock: CIFDUS_clean_linker_0, # of connection points: 2
#     Edge 11, Type (0, 0), BuildingBlock: CIFDUS_clean_linker_0, # of connection points: 2
#     Edge 12, Type (0, 0), BuildingBlock: CIFDUS_clean_linker_0, # of connection points: 2
#     Edge 13, Type (0, 0), BuildingBlock: CIFDUS_clean_linker_0, # of connection points: 2
#     Edge 14, Type (0, 0), BuildingBlock: CIFDUS_clean_linker_0, # of connection points: 2
#     Edge 15, Type (0, 0), BuildingBlock: CIFDUS_clean_linker_0, # of connection points: 2
#     Edge 16, Type (0, 0), BuildingBlock: CIFDUS_clean_linker_0, # of connection points: 2
#     Edge 17, Type (0, 0), BuildingBlock: CIFDUS_clean_linker_0, # of connection points: 2
#     Edge 18, Type (0, 0), BuildingBlock: CIFDUS_clean_linker_0, # of connection points: 2
#     Edge 19, Type (0, 0), BuildingBlock: CIFDUS_clean_linker_0, # of connection points: 2
#     Edge 20, Type (0, 0), BuildingBlock: CIFDUS_clean_linker_0, # of connection points: 2
#     Edge 21, Type (0, 0), BuildingBlock: CIFDUS_clean_linker_0, # of connection points: 2
#     Edge 22, Type (0, 0), BuildingBlock: CIFDUS_clean_linker_0, # of connection points: 2
#     Edge 23, Type (0, 0), BuildingBlock: CIFDUS_clean_linker_0, # of connection points: 2
#     Edge 24, Type (0, 0), BuildingBlock: CIFDUS_clean_linker_0, # of connection points: 2
#     Edge 25, Type (0, 0), BuildingBlock: CIFDUS_clean_linker_0, # of connection points: 2
#     Edge 26, Type (0, 0), BuildingBlock: CIFDUS_clean_linker_0, # of connection points: 2
#     Edge 27, Type (0, 0), BuildingBlock: CIFDUS_clean_linker_0, # of connection points: 2
#     Edge 28, Type (0, 0), BuildingBlock: CIFDUS_clean_linker_0, # of connection points: 2
#     Edge 29, Type (0, 0), BuildingBlock: CIFDUS_clean_linker_0, # of connection points: 2
#     Edge 30, Type (0, 0), BuildingBlock: CIFDUS_clean_linker_0, # of connection points: 2
#     Edge 31, Type (0, 0), BuildingBlock: CIFDUS_clean_linker_0, # of connection points: 2
# Relax obj value: 0.129
# Max RMSD: 0.216
# Mean RMSD: 0.212
data_MOF--net-vby--node1-GEDQOX_clean_sbu_0--edge1-CIFDUS_clean_linker_0
_symmetry_space_group_name_H-M    P1
_symmetry_Int_Tables_number       1
_symmetry_cell_setting            triclinic
loop_
_symmetry_equiv_pos_as_xyz
'x, y, z'
_cell_length_a     23.791935
_cell_length_b     47.138564
_cell_length_c     25.351535
_cell_angle_alpha  93.262403
_cell_angle_beta   92.665793
_cell_angle_gamma 90.321083
loop_
_atom_site_label
_atom_site_type_symbol
_atom_site_fract_x
_atom_site_fract_y
_atom_site_fract_z
_atom_type_partial_charge
Nd0 Nd 0.14743 0.37258 0.01973 0.0
Nd1 Nd 0.04125 0.34517 0.01249 0.0
C2 C 0.25479 0.38816 0.01756 0.0
C3 C 0.31228 0.37599 0.01889 0.0
C4 C 0.33172 0.35874 0.97639 0.0
C5 C 0.38809 0.35018 0.97618 0.0
C6 C 0.426 0.35893 0.01812 0.0
C7 C 0.40625 0.37521 0.06134 0.0
C8 C 0.34993 0.38357 0.06181 0.0
C9 C 0.10068 0.36594 0.11761 0.0
C10 C 0.15084 0.30513 0.00996 0.0
C11 C 0.9354 0.33022 0.02739 0.0
C12 C 0.87657 0.34033 0.01922 0.0
C13 C 0.85108 0.35705 0.05916 0.0
C14 C 0.79405 0.36412 0.05409 0.0
C15 C 0.76105 0.35429 1.00941 0.0
C16 C 0.78643 0.33821 0.96887 0.0
C17 C 0.84368 0.33138 0.97361 0.0
C18 C 0.07414 0.35332 0.9115 0.0
C19 C 0.05222 0.41654 0.01366 0.0
O20 O 0.2223 0.38284 0.97513 0.0
O21 O 0.22725 0.38818 0.06091 0.0
O22 O 0.12055 0.38971 0.10271 0.0
O23 O 0.10413 0.34691 0.08081 0.0
O24 O 0.17305 0.32813 0.99335 0.0
O25 O 0.09874 0.30582 0.02634 0.0
O26 O 0.96779 0.34415 0.06312 0.0
O27 O 0.96263 0.32156 0.98593 0.0
O28 O 0.05516 0.32949 0.92704 0.0
O29 O 0.08012 0.37141 0.95073 0.0
O30 O 1.02026 0.39427 0.0231 0.0
O31 O 0.10475 0.41302 1.00243 0.0
H32 H 0.30389 0.35249 0.94267 0.0
H33 H 0.40259 0.33763 0.94241 0.0
H34 H 0.43478 0.382 0.09425 0.0
H35 H 0.3362 0.39676 0.09509 0.0
H36 H 0.8748 0.36409 0.09507 0.0
H37 H 0.77519 0.37645 0.08593 0.0
H38 H 0.7617 0.33056 0.93393 0.0
H39 H 0.86176 0.31842 0.94217 0.0
Nd40 Nd 0.9064 0.62722 1.0054 0.0
Nd41 Nd 1.0103 0.65404 0.01583 0.0
C42 C 0.79874 0.6122 0.98928 0.0
C43 C 0.74103 0.62283 0.99785 0.0
C44 C 0.70261 0.62428 0.95432 0.0
C45 C 0.6458 0.63026 0.96167 0.0
C46 C 0.62595 0.63478 0.01287 0.0
C47 C 0.66524 0.63515 0.05626 0.0
C48 C 0.72211 0.62923 0.04887 0.0
C49 C 0.94879 0.63527 0.1106 0.0
C50 C 0.90192 0.69416 0.01049 0.0
C51 C 0.11536 0.66919 0.0457 0.0
C52 C 0.17437 0.66185 0.03488 0.0
C53 C 0.21377 0.65994 0.07745 0.0
C54 C 0.27076 0.65537 0.06859 0.0
C55 C 0.28981 0.65261 0.01679 0.0
C56 C 0.24968 0.65327 0.97415 0.0
C57 C 0.19261 0.65783 0.98308 0.0
C58 C 0.9828 0.64478 0.90861 0.0
C59 C 0.99953 0.5831 1.00404 0.0
O60 O 0.82769 0.6243 0.95417 0.0
O61 O 0.82982 0.60555 0.03048 0.0
O62 O 0.9301 0.61125 0.08936 0.0
O63 O 0.94576 0.65381 0.07673 0.0
O64 O 0.88307 0.67172 0.9827 0.0
O65 O 0.95117 0.69234 0.03653 0.0
O66 O 0.08635 0.65057 0.0695 0.0
O67 O 0.08545 0.68155 1.00915 0.0
O68 O 1.00134 0.66861 0.93107 0.0
O69 O 0.97509 0.62698 0.94364 0.0
O70 O 0.02907 0.60531 0.02499 0.0
O71 O 0.94985 0.58701 0.98179 0.0
H72 H 0.71608 0.61957 0.91455 0.0
H73 H 0.61693 0.62977 0.92731 0.0
H74 H 0.6517 0.63922 0.09617 0.0
H75 H 0.75076 0.62873 0.08328 0.0
H76 H 0.20066 0.66277 0.11777 0.0
H77 H 0.30015 0.65518 0.10248 0.0
H78 H 0.26246 0.65059 0.93374 0.0
H79 H 0.16298 0.65874 0.94947 0.0
Nd80 Nd 0.04643 0.65637 0.51584 0.0
Nd81 Nd 0.15052 0.62707 0.5151 0.0
C82 C 0.94209 0.67242 0.53501 0.0
C83 C 0.88264 0.66297 0.52567 0.0
C84 C 0.84993 0.65864 0.56925 0.0
C85 C 0.79201 0.65345 0.56236 0.0
C86 C 0.76524 0.65259 0.51161 0.0
C87 C 0.79866 0.65522 0.46767 0.0
C88 C 0.85671 0.66039 0.47459 0.0
C89 C 0.07769 0.64953 0.41253 0.0
C90 C 0.05134 0.58489 0.50278 0.0
C91 C 0.25505 0.61173 0.49739 0.0
C92 C 0.31331 0.62287 0.50664 0.0
C93 C 0.34519 0.62878 0.4632 0.0
C94 C 0.40254 0.63545 0.47023 0.0
C95 C 0.42942 0.63626 0.52093 0.0
C96 C 0.39635 0.63257 0.56476 0.0
C97 C 0.33899 0.62587 0.5577 0.0
C98 C 0.1055 0.63422 0.61534 0.0
C99 C 0.16107 0.69528 0.52953 0.0
O100 O 0.9736 0.65833 0.56778 0.0
O101 O 0.96937 0.68043 0.4948 0.0
O102 O 0.06015 0.67301 0.43496 0.0
O103 O 0.08318 0.6306 0.44654 0.0
O104 O 1.02204 0.60758 0.51838 0.0
O105 O 0.10301 0.58773 0.48887 0.0
O106 O 0.22287 0.62462 0.46321 0.0
O107 O 0.228 0.60386 0.53805 0.0
O108 O 0.12738 0.61062 0.59724 0.0
O109 O 0.10985 0.65279 0.58182 0.0
O110 O 0.18521 0.6717 0.5143 0.0
O111 O 0.10639 0.69567 0.53815 0.0
H112 H 0.86882 0.66042 0.60904 0.0
H113 H 0.76784 0.65163 0.59717 0.0
H114 H 0.7797 0.654 0.42792 0.0
H115 H 0.88081 0.66324 0.44004 0.0
H116 H 0.32633 0.62698 0.42341 0.0
H117 H 0.42637 0.63824 0.43551 0.0
H118 H 0.41523 0.63388 0.60453 0.0
H119 H 0.31536 0.62207 0.59214 0.0
Nd120 Nd 0.90483 0.3721 0.49828 0.0
Nd121 Nd 1.01223 0.34869 0.50239 0.0
C122 C 0.79856 0.38625 0.51254 0.0
C123 C 0.7404 0.37482 0.51321 0.0
C124 C 0.71942 0.36446 0.55946 0.0
C125 C 0.66192 0.35849 0.5624 0.0
C126 C 0.6241 0.3629 0.5193 0.0
C127 C 0.64586 0.37169 0.47214 0.0
C128 C 0.7032 0.37759 0.46918 0.0
C129 C 0.95584 0.37418 0.40174 0.0
C130 C 0.90079 0.30615 0.49608 0.0
C131 C 0.11118 0.32452 0.48812 0.0
C132 C 0.1711 0.33392 0.49166 0.0
C133 C 0.1944 0.34774 0.44991 0.0
C134 C 0.25187 0.35422 0.45108 0.0
C135 C 0.28766 0.34697 0.49386 0.0
C136 C 0.26395 0.33463 0.53698 0.0
C137 C 0.20634 0.32804 0.53577 0.0
C138 C 0.98767 0.36769 0.60313 0.0
C139 C 1.00094 0.41779 0.51017 0.0
O140 O 0.83433 0.38067 0.55121 0.0
O141 O 0.82192 0.38652 0.46701 0.0
O142 O 0.92935 0.39514 0.42469 0.0
O143 O 0.95547 0.35279 0.42994 0.0
O144 O 0.87588 0.32755 0.47527 0.0
O145 O 0.95368 0.30911 0.51482 0.0
O146 O 0.07917 0.33391 0.44973 0.0
O147 O 0.0851 0.32374 0.53218 0.0
O148 O 0.03244 0.3747 0.57947 0.0
O149 O 0.95399 0.35383 0.57008 0.0
O150 O 0.03239 0.39658 0.49212 0.0
O151 O 0.95042 0.41271 0.52571 0.0
H152 H 0.74694 0.36198 0.59411 0.0
H153 H 0.64691 0.35113 0.59895 0.0
H154 H 0.61825 0.37555 0.43819 0.0
H155 H 0.7179 0.38564 0.43305 0.0
H156 H 0.1686 0.35289 0.41549 0.0
H157 H 0.26865 0.36421 0.41767 0.0
H158 H 0.29038 0.32872 0.57048 0.0
H159 H 0.18972 0.31754 0.56869 0.0
Nd160 Nd 0.65142 0.87409 0.0226 0.0
Nd161 Nd 0.53521 0.84518 0.01886 0.0
C162 C 0.75529 0.88765 0.99984 0.0
C163 C 0.81308 0.8763 1.00546 0.0
C164 C 0.83424 0.8577 0.96582 0.0
C165 C 0.89021 0.84885 0.96908 0.0
C166 C 0.92635 0.85878 0.01154 0.0
C167 C 0.9048 0.87652 0.05207 0.0
C168 C 0.84878 0.88524 0.04901 0.0
C169 C 0.60689 0.86783 0.12104 0.0
C170 C 0.64937 0.80493 0.02101 0.0
C171 C 0.43482 0.83087 0.04975 0.0
C172 C 0.37561 0.83947 0.03807 0.0
C173 C 0.34882 0.85804 0.07415 0.0
C174 C 0.2928 0.86583 0.0649 0.0
C175 C 0.26176 0.85491 0.01973 0.0
C176 C 0.28855 0.83676 0.98299 0.0
C177 C 0.34496 0.82917 0.99196 0.0
C178 C 0.55262 0.85526 0.91547 0.0
C179 C 0.54852 0.91592 0.01216 0.0
O180 O 0.72006 0.87364 0.96669 0.0
O181 O 0.73164 0.89747 0.04272 0.0
O182 O 0.63932 0.88892 0.11068 0.0
O183 O 0.60388 0.84996 0.08187 0.0
O184 O 0.67918 0.82847 0.02333 0.0
O185 O 0.59321 0.8049 0.01914 0.0
O186 O 0.46745 0.84998 0.07547 0.0
O187 O 0.46077 0.81616 0.01282 0.0
O188 O 0.51008 0.84157 0.9317 0.0
O189 O 0.588 0.862 0.95389 0.0
O190 O 0.51541 0.89401 0.02069 0.0
O191 O 0.60261 0.9133 1.00671 0.0
H192 H 0.80805 0.85056 0.93148 0.0
H193 H 0.90591 0.83535 0.93711 0.0
H194 H 0.93174 0.88422 0.08553 0.0
H195 H 0.83389 0.89959 0.08013 0.0
H196 H 0.371 0.86627 0.11014 0.0
H197 H 0.2731 0.8796 0.09421 0.0
H198 H 0.26565 0.82822 0.94761 0.0
H199 H 0.36423 0.81494 0.96313 0.0
Nd200 Nd 0.4097 0.12608 1.00458 0.0
Nd201 Nd 0.51278 0.15357 0.0145 0.0
C202 C 0.30216 0.11108 0.98769 0.0
C203 C 0.24461 0.1216 0.99786 0.0
C204 C 0.2079 0.12777 0.95502 0.0
C205 C 0.1511 0.13373 0.96266 0.0
C206 C 0.12955 0.1334 0.01335 0.0
C207 C 0.16718 0.12913 0.05667 0.0
C208 C 0.22404 0.1233 0.04906 0.0
C209 C 0.45225 0.13405 0.10982 0.0
C210 C 0.40371 0.19335 0.01102 0.0
C211 C 0.61876 0.16886 0.04065 0.0
C212 C 0.67761 0.16085 0.02987 0.0
C213 C 0.71517 0.15526 0.07236 0.0
C214 C 0.77241 0.15085 0.06438 0.0
C215 C 0.79361 0.15215 0.01367 0.0
C216 C 0.75543 0.15632 0.9707 0.0
C217 C 0.69806 0.16058 0.97866 0.0
C218 C 0.48086 0.14648 0.90804 0.0
C219 C 0.5034 0.08267 1.00172 0.0
O220 O 0.33081 0.12436 0.95388 0.0
O221 O 0.33369 0.10299 0.02756 0.0
O222 O 0.43319 0.11012 0.08837 0.0
O223 O 0.44916 0.15277 0.07625 0.0
O224 O 0.38376 0.17055 0.98517 0.0
O225 O 0.45457 0.19237 0.03442 0.0
O226 O 0.58979 0.15162 0.06756 0.0
O227 O 0.58832 0.18006 1.00314 0.0
O228 O 0.49998 0.16986 0.93156 0.0
O229 O 0.47662 0.12749 0.94148 0.0
O230 O 0.53107 0.10485 0.02521 0.0
O231 O 0.45468 0.0867 0.97771 0.0
H232 H 0.22257 0.12678 0.91514 0.0
H233 H 0.12345 0.13693 0.9284 0.0
H234 H 0.15222 0.12937 0.0964 0.0
H235 H 0.25127 0.1191 0.0831 0.0
H236 H 0.70054 0.15525 0.1122 0.0
H237 H 0.80047 0.14779 0.09842 0.0
H238 H 0.77011 0.15685 0.93096 0.0
H239 H 0.67011 0.16443 0.94492 0.0
Nd240 Nd 0.54292 0.15109 0.51674 0.0
Nd241 Nd 0.65081 0.12876 0.51771 0.0
C242 C 0.44402 0.17435 0.53518 0.0
C243 C 0.38392 0.16621 0.52581 0.0
C244 C 0.35089 0.16188 0.56918 0.0
C245 C 0.2933 0.15601 0.56178 0.0
C246 C 0.26722 0.15449 0.51074 0.0
C247 C 0.30087 0.15748 0.4671 0.0
C248 C 0.35858 0.1633 0.47452 0.0
C249 C 0.56122 0.1313 0.41508 0.0
C250 C 0.55886 0.08243 0.50881 0.0
C251 C 0.75684 0.11687 0.49828 0.0
C252 C 0.81553 0.12688 0.5078 0.0
C253 C 0.84779 0.13126 0.46404 0.0
C254 C 0.90562 0.13631 0.4706 0.0
C255 C 0.93258 0.13707 0.52122 0.0
C256 C 0.89954 0.13455 0.56543 0.0
C257 C 0.8415 0.12945 0.55881 0.0
C258 C 0.60527 0.12789 0.6171 0.0
C259 C 0.65319 0.1944 0.52496 0.0
O260 O 0.47276 0.16003 0.56959 0.0
O261 O 0.473 0.17981 0.49437 0.0
O262 O 0.51599 0.12661 0.43986 0.0
O263 O 0.5978 0.14473 0.44585 0.0
O264 O 0.52882 0.10295 0.53127 0.0
O265 O 0.60578 0.08873 0.48749 0.0
O266 O 0.72418 0.13147 0.46733 0.0
O267 O 0.73067 0.10687 0.5375 0.0
O268 O 0.63347 0.10725 0.59515 0.0
O269 O 0.60271 0.14862 0.58724 0.0
O270 O 0.67807 0.17295 0.54559 0.0
O271 O 0.60072 0.19112 0.50525 0.0
H272 H 0.36938 0.16376 0.60912 0.0
H273 H 0.26881 0.15398 0.59634 0.0
H274 H 0.28238 0.15586 0.42718 0.0
H275 H 0.38299 0.16604 0.44013 0.0
H276 H 0.82867 0.12945 0.42434 0.0
H277 H 0.92956 0.13801 0.43561 0.0
H278 H 0.91879 0.1357 0.60507 0.0
H279 H 0.8175 0.12653 0.59339 0.0
Nd280 Nd 0.40477 0.87084 0.499 0.0
Nd281 Nd 0.51719 0.8472 0.50346 0.0
C282 C 0.3019 0.87676 0.53193 0.0
C283 C 0.24242 0.86929 0.51907 0.0
C284 C 0.2127 0.85432 0.55543 0.0
C285 C 0.15439 0.85093 0.54902 0.0
C286 C 0.12509 0.86268 0.5064 0.0
C287 C 0.15505 0.87587 0.46805 0.0
C288 C 0.21349 0.879 0.47411 0.0
C289 C 0.44215 0.87039 0.3949 0.0
C290 C 0.40348 0.80618 0.47846 0.0
C291 C 0.61654 0.82397 0.48966 0.0
C292 C 0.67573 0.8341 0.4944 0.0
C293 C 0.70187 0.84451 0.45061 0.0
C294 C 0.75947 0.85083 0.45356 0.0
C295 C 0.79165 0.8468 0.50021 0.0
C296 C 0.76519 0.8382 0.54491 0.0
C297 C 0.70767 0.83192 0.54209 0.0
C298 C 0.49141 0.86659 0.60247 0.0
C299 C 0.49841 0.91662 0.5066 0.0
O300 O 0.33491 0.85587 0.54475 0.0
O301 O 0.32637 0.8958 0.50455 0.0
O302 O 0.39437 0.88104 0.40931 0.0
O303 O 0.4684 0.86209 0.43535 0.0
O304 O 0.38367 0.82893 0.45849 0.0
O305 O 0.45386 0.80751 0.50375 0.0
O306 O 0.58471 0.83303 0.45084 0.0
O307 O 0.59002 0.82278 0.53344 0.0
O308 O 0.53764 0.87299 0.58053 0.0
O309 O 0.45791 0.85265 0.56908 0.0
O310 O 0.53132 0.89562 0.4894 0.0
O311 O 0.44923 0.91133 0.52479 0.0
H312 H 0.23422 0.84647 0.59023 0.0
H313 H 0.13186 0.84067 0.57897 0.0
H314 H 0.13292 0.88478 0.43462 0.0
H315 H 0.23552 0.89015 0.44501 0.0
H316 H 0.67844 0.84663 0.41339 0.0
H317 H 0.77951 0.85723 0.41855 0.0
H318 H 0.78965 0.8348 0.5811 0.0
H319 H 0.68883 0.82416 0.57665 0.0
H320 H 0.5091 0.39651 1.00428 0.0
H321 H 0.47843 0.30794 0.02624 0.0
H322 H 0.57982 0.29849 0.02432 0.0
H323 H 0.6775 0.31583 0.01736 0.0
H324 H 0.70782 0.40453 0.99624 0.0
H325 H 0.60632 0.41364 0.99564 0.0
C326 C 0.52488 0.37516 1.00846 0.0
C327 C 0.48684 0.35291 0.0154 0.0
C328 C 0.58296 0.36998 1.00698 0.0
C329 C 0.50722 0.32528 0.0206 0.0
C330 C 0.56504 0.31994 0.01956 0.0
C331 C 0.66158 0.33707 0.0123 0.0
C332 C 0.69965 0.35951 1.00669 0.0
C333 C 0.60332 0.34213 0.0128 0.0
C334 C 0.67904 0.38703 1.00067 0.0
C335 C 0.62115 0.3922 1.0004 0.0
H336 H 0.37111 0.62381 0.07193 0.0
H337 H 0.34791 0.6779 0.941 0.0
H338 H 0.4489 0.67752 0.9284 0.0
H339 H 0.5448 0.66293 0.95596 0.0
H340 H 0.56764 0.60945 0.08781 0.0
H341 H 0.46656 0.60936 0.09952 0.0
C342 C 0.38805 0.63569 0.04081 0.0
C343 C 0.35144 0.65084 1.00751 0.0
C344 C 0.44654 0.63584 0.03431 0.0
C345 C 0.37454 0.66564 0.9668 0.0
C346 C 0.43257 0.66569 0.95985 0.0
C347 C 0.52767 0.65121 0.9872 0.0
C348 C 0.5642 0.6364 0.02116 0.0
C349 C 0.46909 0.65101 0.99355 0.0
C350 C 0.54099 0.62154 0.06169 0.0
C351 C 0.48295 0.62122 0.06814 0.0
H352 H 0.69143 0.62111 0.56476 0.0
H353 H 0.69739 0.6823 0.44477 0.0
H354 H 0.59488 0.68362 0.43828 0.0
H355 H 0.50301 0.66825 0.46797 0.0
H356 H 0.4975 0.60674 0.58753 0.0
H357 H 0.59981 0.60569 0.59425 0.0
C358 C 0.67038 0.63483 0.5373 0.0
C359 C 0.70248 0.65151 0.50523 0.0
C360 C 0.6112 0.63585 0.53426 0.0
C361 C 0.6741 0.66882 0.46934 0.0
C362 C 0.61531 0.66985 0.46598 0.0
C363 C 0.52412 0.65455 0.49541 0.0
C364 C 0.49213 0.63774 0.52739 0.0
C365 C 0.58336 0.65357 0.49843 0.0
C366 C 0.52062 0.62041 0.56316 0.0
C367 C 0.57935 0.6195 0.56663 0.0
H368 H 0.54531 0.34239 0.44475 0.0
H369 H 0.56259 0.37856 0.605 0.0
H370 H 0.46057 0.3773 0.61158 0.0
H371 H 0.36555 0.36657 0.57105 0.0
H372 H 0.3497 0.33227 0.4095 0.0
H373 H 0.45154 0.33315 0.40379 0.0
C374 C 0.52691 0.35021 0.48107 0.0
C375 C 0.56199 0.36042 0.52432 0.0
C376 C 0.4681 0.35011 0.48419 0.0
C377 C 0.53699 0.37001 0.57131 0.0
C378 C 0.47846 0.3696 0.57497 0.0
C379 C 0.38448 0.35929 0.53466 0.0
C380 C 0.34986 0.34945 0.49072 0.0
C381 C 0.4435 0.35976 0.53158 0.0
C382 C 0.37512 0.34036 0.44368 0.0
C383 C 0.43349 0.3406 0.44048 0.0
H384 H 1.011 0.89706 0.02671 0.0
H385 H 0.97818 0.80764 0.99335 0.0
H386 H 0.07937 0.79891 0.98866 0.0
H387 H 0.17717 0.81672 0.99671 0.0
H388 H 0.20926 0.90621 0.0306 0.0
H389 H 0.10808 0.91503 0.03182 0.0
C390 C 1.02612 0.87562 0.01894 0.0
C391 C 0.98744 0.85298 0.0109 0.0
C392 C 0.08402 0.87087 0.01589 0.0
C393 C 1.00732 0.82538 0.9997 0.0
C394 C 0.06505 0.82042 0.99696 0.0
C395 C 0.16192 0.8382 1.00351 0.0
C396 C 0.20058 0.86076 0.01374 0.0
C397 C 0.10378 0.84302 1.00501 0.0
C398 C 0.1803 0.88847 0.02308 0.0
C399 C 0.12255 0.8935 0.02389 0.0
H400 H 0.0516 0.16849 0.96791 0.0
H401 H 0.06765 0.09995 0.07322 0.0
H402 H 0.966 0.09901 0.08156 0.0
H403 H 0.87182 0.1172 0.05843 0.0
H404 H 0.85526 0.18582 0.95339 0.0
H405 H 0.95703 0.18677 0.94478 0.0
C406 C 0.03282 0.15336 0.99268 0.0
C407 C 0.06755 0.13449 0.02024 0.0
C408 C 0.97392 0.15275 0.99704 0.0
C409 C 0.04231 0.11513 0.05239 0.0
C410 C 0.98398 0.11438 0.05682 0.0
C411 C 0.89046 0.13241 0.03373 0.0
C412 C 0.85561 0.15131 1.00642 0.0
C413 C 0.94929 0.13305 0.02932 0.0
C414 C 0.88072 0.17066 0.97417 0.0
C415 C 0.93911 0.17141 0.96956 0.0
H416 H 0.19477 0.12187 0.56316 0.0
H417 H 0.19875 0.1831 0.44302 0.0
H418 H 0.09631 0.18363 0.43651 0.0
H419 H 1.00539 0.16842 0.4674 0.0
H420 H 1.00079 0.10705 0.58718 0.0
H421 H 0.10338 0.10582 0.5928 0.0
C422 C 0.17325 0.13538 0.53563 0.0
C423 C 0.20472 0.15245 0.5037 0.0
C424 C 0.11407 0.13601 0.5327 0.0
C425 C 0.1759 0.16942 0.46757 0.0
C426 C 0.11717 0.17 0.46421 0.0
C427 C 1.02676 0.15467 0.49459 0.0
C428 C 0.99518 0.13801 0.52703 0.0
C429 C 0.08583 0.15365 0.49698 0.0
C430 C 1.02383 0.12058 0.56249 0.0
C431 C 0.0826 0.11959 0.56531 0.0
H432 H 0.86668 0.89069 0.51775 0.0
H433 H 0.85335 0.80059 0.48021 0.0
H434 H 0.9558 0.797 0.47854 0.0
H435 H 0.0496 0.81954 0.4886 0.0
H436 H 0.06363 0.90977 0.52408 0.0
H437 H 0.96106 0.91348 0.52646 0.0
C438 C 0.88659 0.87041 0.50917 0.0
C439 C 0.85333 0.84588 0.49915 0.0
C440 C 0.94554 0.86857 0.50813 0.0
C441 C 0.87884 0.81962 0.4881 0.0
C442 C 0.93719 0.81758 0.48716 0.0
C443 C 0.02984 0.83994 0.49652 0.0
C444 C 0.06333 0.8644 0.50568 0.0
C445 C 0.97101 0.84188 0.4972 0.0
C446 C 0.03798 0.89079 0.51625 0.0
C447 C 0.97955 0.89288 0.51777 0.0
H448 H 0.93521 0.53539 0.99347 0.0
H449 H 0.1065 0.56439 0.02597 0.0
H450 H 0.13671 0.51511 0.03361 0.0
H451 H 0.11448 0.46431 0.02986 0.0
H452 H 0.9432 0.43502 0.99939 0.0
H453 H 0.91241 0.48443 0.99295 0.0
C454 C 0.97929 0.53099 1.00201 0.0
C455 C 1.01883 0.55353 1.00863 0.0
C456 C 0.996 0.50275 1.00712 0.0
C457 C 0.07544 0.54745 0.02055 0.0
C458 C 0.0926 0.51931 0.02495 0.0
C459 C 0.07026 0.46865 0.02189 0.0
C460 C 0.03107 0.44601 0.0147 0.0
C461 C 0.05323 0.49688 0.01822 0.0
C462 C 0.974 0.45206 1.00525 0.0
C463 C 0.95659 0.48025 1.00125 0.0
H464 H 0.93557 0.46344 0.49364 0.0
H465 H 0.10751 0.43915 0.52732 0.0
H466 H 0.13673 0.48921 0.5309 0.0
H467 H 0.11356 0.53925 0.52324 0.0
H468 H 0.94252 0.56426 0.48729 0.0
H469 H 0.91227 0.51417 0.48577 0.0
C470 C 0.97947 0.46916 0.50179 0.0
C471 C 1.01957 0.44772 0.51023 0.0
C472 C 0.99582 0.4979 0.50322 0.0
C473 C 0.07623 0.45527 0.5202 0.0
C474 C 0.09274 0.48385 0.52249 0.0
C475 C 0.06953 0.53382 0.51495 0.0
C476 C 0.03021 0.5554 0.50508 0.0
C477 C 0.05294 0.50523 0.51383 0.0
C478 C 0.97335 0.54806 0.49534 0.0
C479 C 0.95628 0.51945 0.4942 0.0
H480 H 0.57808 0.96195 0.07458 0.0
H481 H 0.47484 0.93472 0.9368 0.0
H482 H 0.45564 0.98448 0.91873 0.0
H483 H 0.47 0.03562 0.9416 0.0
H484 H 0.5731 0.06281 0.07999 0.0
H485 H 0.59089 0.01313 0.09849 0.0
C486 C 0.55014 0.96702 0.04144 0.0
C487 C 0.52634 0.94486 1.00794 0.0
C488 C 0.5402 0.99559 0.03105 0.0
C489 C 0.49168 0.95148 0.96418 0.0
C490 C 0.48156 0.97989 0.95346 0.0
C491 C 0.49683 0.03069 0.97558 0.0
C492 C 0.52087 0.05294 1.00902 0.0
C493 C 0.50603 0.0021 0.98639 0.0
C494 C 0.55523 0.04616 0.05297 0.0
C495 C 0.56478 0.01775 0.06391 0.0
H496 H 0.47736 0.04642 0.46524 0.0
H497 H 0.62491 0.0509 0.5704 0.0
H498 H 0.62372 0.99937 0.57591 0.0
H499 H 0.58088 0.95242 0.55001 0.0
H500 H 0.43415 0.94795 0.44376 0.0
H501 H 0.43504 0.99952 0.43877 0.0
C502 C 0.50828 0.03603 0.49018 0.0
C503 C 0.55017 0.05231 0.51847 0.0
C504 C 0.50835 0.00621 0.4919 0.0
C505 C 0.59135 0.03871 0.54936 0.0
C506 C 0.59117 0.00922 0.55201 0.0
C507 C 0.55029 0.9628 0.52472 0.0
C508 C 0.50854 0.94653 0.49616 0.0
C509 C 0.55031 0.99264 0.52291 0.0
C510 C 0.4676 0.96018 0.46501 0.0
C511 C 0.4676 0.98966 0.46265 0.0
H512 H 0.26288 0.30702 0.03186 0.0
H513 H 0.12547 0.24776 0.99688 0.0
H514 H 0.19268 0.20828 0.99477 0.0
H515 H 0.2901 0.19125 0.99928 0.0
H516 H 0.42761 0.25024 0.03693 0.0
H517 H 0.36018 0.28958 0.0417 0.0
C518 C 0.24743 0.28542 0.024 0.0
C519 C 0.18901 0.28033 0.01411 0.0
C520 C 0.28629 0.26301 0.02314 0.0
C521 C 0.16985 0.25224 1.00483 0.0
C522 C 0.20841 0.22975 1.00332 0.0
C523 C 0.30572 0.2127 1.00851 0.0
C524 C 0.36435 0.21779 0.01702 0.0
C525 C 0.26669 0.23498 0.01179 0.0
C526 C 0.38313 0.24569 0.03 0.0
C527 C 0.34447 0.26814 0.03265 0.0
H528 H 0.73998 0.79394 0.0841 0.0
H529 H 0.63923 0.75901 0.95009 0.0
H530 H 0.71169 0.72324 0.93248 0.0
H531 H 0.80511 0.7034 0.95304 0.0
H532 H 0.90612 0.73805 0.08756 0.0
H533 H 0.8325 0.77295 0.1066 0.0
C534 C 0.7332 0.77792 0.05193 0.0
C535 C 0.6835 0.77865 0.01918 0.0
C536 C 0.77572 0.75795 0.04145 0.0
C537 C 0.67589 0.75826 0.97695 0.0
C538 C 0.71793 0.7382 0.96635 0.0
C539 C 0.81146 0.71868 0.98644 0.0
C540 C 0.86177 0.71817 0.01855 0.0
C541 C 0.76835 0.73816 0.99783 0.0
C542 C 0.86867 0.73818 0.0616 0.0
C543 C 0.82616 0.75791 0.07286 0.0
H544 H 0.17536 0.73691 0.46263 0.0
H545 H 0.24014 0.70557 0.60903 0.0
H546 H 0.32581 0.73446 0.60504 0.0
H547 H 0.38492 0.76801 0.55685 0.0
H548 H 0.32087 0.79396 0.40507 0.0
H549 H 0.23376 0.76839 0.41437 0.0
C550 C 0.20714 0.73741 0.49478 0.0
C551 C 0.1998 0.72019 0.53732 0.0
C552 C 0.2579 0.75266 0.49044 0.0
C553 C 0.24321 0.71979 0.57714 0.0
C554 C 0.293 0.73581 0.57419 0.0
C555 C 0.35279 0.7672 0.52504 0.0
C556 C 0.36061 0.7828 0.47991 0.0
C557 C 0.30163 0.75191 0.53024 0.0
C558 C 0.3171 0.78195 0.43995 0.0
C559 C 0.2665 0.76758 0.44544 0.0
H560 H 0.86591 0.25595 0.44417 0.0
H561 H 0.84089 0.31064 0.58267 0.0
H562 H 0.75585 0.28417 0.60047 0.0
H563 H 0.68822 0.24453 0.57738 0.0
H564 H 0.71265 0.19031 0.43813 0.0
H565 H 0.79792 0.21663 0.42069 0.0
C566 C 0.84302 0.26128 0.47934 0.0
C567 C 0.86152 0.28435 0.51357 0.0
C568 C 0.79303 0.24624 0.48871 0.0
C569 C 0.82943 0.29198 0.55738 0.0
C570 C 0.78 0.2772 0.56699 0.0
C571 C 0.71106 0.23927 0.54216 0.0
C572 C 0.69246 0.21627 0.50775 0.0
C573 C 0.76097 0.25437 0.53274 0.0
C574 C 0.72435 0.20881 0.46373 0.0
C575 C 0.77387 0.22353 0.45429 0.0
H576 H 0.04885 0.40569 0.18053 0.0
H577 H 0.09545 0.31751 0.1729 0.0
H578 H 0.05667 0.31177 0.25991 0.0
H579 H 1.00881 0.33222 0.3396 0.0
H580 H 0.95821 0.42002 0.34235 0.0
H581 H 0.99799 0.42525 0.2567 0.0
C582 C 0.05058 0.3852 0.1979 0.0
C583 C 0.07558 0.36214 0.17011 0.0
C584 C 1.0269 0.3819 0.2475 0.0
C585 C 0.07651 0.33565 0.19314 0.0
C586 C 0.05432 0.33238 0.24311 0.0
C587 C 1.00646 0.35246 0.32141 0.0
C588 C 0.98045 0.37575 0.3482 0.0
C589 C 0.02928 0.35538 0.27093 0.0
C590 C 0.97787 0.40172 0.32337 0.0
C591 C 1.00078 0.40479 0.27407 0.0
H592 H 0.03007 0.60741 0.16922 0.0
H593 H 0.9108 0.67572 0.17988 0.0
H594 H 0.93972 0.68572 0.27303 0.0
H595 H 0.99909 0.67577 0.35132 0.0
H596 H 0.12069 0.60844 0.34313 0.0
H597 H 0.09229 0.59795 0.24927 0.0
C598 C 1.01046 0.62444 0.19211 0.0
C599 C 0.96791 0.64077 0.16748 0.0
C600 C 0.02846 0.63054 0.24596 0.0
C601 C 0.94358 0.66296 0.19757 0.0
C602 C 0.96019 0.66868 0.25094 0.0
C603 C 1.01982 0.65883 0.32917 0.0
C604 C 0.06229 0.64294 0.35477 0.0
C605 C 1.00275 0.65278 0.27551 0.0
C606 C 0.08781 0.62092 0.32494 0.0
C607 C 0.07144 0.61493 0.27113 0.0
H608 H 0.99244 0.67949 0.82683 0.0
H609 H 1.0089 0.59187 0.8644 0.0
H610 H 0.04746 0.58038 0.77765 0.0
H611 H 0.08275 0.59604 0.69203 0.0
H612 H 0.06266 0.68375 0.65534 0.0
H613 H 1.01931 0.6941 0.73948 0.0
C614 C 1.00371 0.65776 0.81582 0.0
C615 C 0.99768 0.63665 0.85264 0.0
C616 C 1.02604 0.6513 0.76568 0.0
C617 C 1.01252 0.60861 0.83717 0.0
C618 C 0.03512 0.60206 0.78747 0.0
C619 C 0.06895 0.61742 0.70249 0.0
C620 C 0.0774 0.63921 0.66722 0.0
C621 C 0.04322 0.62334 0.75159 0.0
C622 C 0.05792 0.6666 0.68151 0.0
C623 C 0.03284 0.67258 0.72986 0.0
H624 H 0.97221 0.39974 0.69573 0.0
H625 H 0.03193 0.31877 0.63522 0.0
H626 H 0.06786 0.30795 0.72373 0.0
H627 H 0.08319 0.32143 0.81911 0.0
H628 H 1.0243 0.40241 0.88058 0.0
H629 H 0.98637 0.41296 0.79233 0.0
C630 C 0.99165 0.37942 0.70235 0.0
C631 C 0.99754 0.35966 0.65898 0.0
C632 C 1.01294 0.37341 0.75382 0.0
C633 C 1.02483 0.33387 0.66805 0.0
C634 C 0.04611 0.32783 0.71867 0.0
C635 C 0.06279 0.34157 0.81299 0.0
C636 C 0.05793 0.36133 0.85647 0.0
C637 C 0.04078 0.34747 0.7619 0.0
C638 C 0.03037 0.38713 0.84781 0.0
C639 C 1.008 0.39305 0.79727 0.0
H640 H 0.50545 0.88573 0.15552 0.0
H641 H 0.65471 0.84184 0.20635 0.0
H642 H 0.61744 0.83815 0.29467 0.0
H643 H 0.54254 0.84874 0.35881 0.0
H644 H 0.39348 0.89268 0.30666 0.0
H645 H 0.42975 0.89461 0.21816 0.0
C646 C 0.52945 0.875 0.18572 0.0
C647 C 0.58266 0.86389 0.17391 0.0
C648 C 0.50762 0.87303 0.23661 0.0
C649 C 0.61355 0.85044 0.21399 0.0
C650 C 0.59219 0.8484 0.26467 0.0
C651 C 0.5179 0.85872 0.32817 0.0
C652 C 0.46504 0.87069 0.34019 0.0
C653 C 0.53933 0.85983 0.27674 0.0
C654 C 0.43404 0.88335 0.29925 0.0
C655 C 0.45489 0.88448 0.24837 0.0
H656 H 0.54248 0.11137 0.16426 0.0
H657 H 0.40329 0.16842 0.18402 0.0
H658 H 0.42681 0.17411 0.27929 0.0
H659 H 0.48287 0.16016 0.35836 0.0
H660 H 0.62665 0.10614 0.33911 0.0
H661 H 0.60661 0.10246 0.24281 0.0
C662 C 0.51762 0.12519 0.1895 0.0
C663 C 0.47045 0.13911 0.16704 0.0
C664 C 0.53249 0.12897 0.24447 0.0
C665 C 0.43938 0.15734 0.20015 0.0
C666 C 0.45288 0.16057 0.25474 0.0
C667 C 0.51045 0.14796 0.33297 0.0
C668 C 0.55625 0.13333 0.35618 0.0
C669 C 0.49875 0.14615 0.27755 0.0
C670 C 0.59148 0.11772 0.32254 0.0
C671 C 0.57961 0.11544 0.2674 0.0
H672 H 0.56515 0.11574 0.86228 0.0
H673 H 0.42131 0.16709 0.82496 0.0
H674 H 0.44659 0.16662 0.7322 0.0
H675 H 0.51386 0.15434 0.66233 0.0
H676 H 0.6562 0.10177 0.6992 0.0
H677 H 0.62876 0.10077 0.79089 0.0
C678 C 0.53857 0.12617 0.83348 0.0
C679 C 0.49053 0.14091 0.85048 0.0
C680 C 0.55425 0.12633 0.7801 0.0
C681 C 0.45777 0.15515 0.81288 0.0
C682 C 0.47266 0.15514 0.75982 0.0
C683 C 0.53874 0.14257 0.69023 0.0
C684 C 0.58743 0.12828 0.67336 0.0
C685 C 0.52155 0.14133 0.74304 0.0
C686 C 0.61867 0.113 0.71064 0.0
C687 C 0.60284 0.11233 0.76328 0.0
H688 H 0.55109 0.89804 0.68114 0.0
H689 H 0.44374 0.82404 0.65451 0.0
H690 H 0.46078 0.81247 0.74658 0.0
H691 H 0.50343 0.82358 0.83488 0.0
H692 H 0.60689 0.8985 0.86609 0.0
H693 H 0.59501 0.90933 0.7721 0.0
C694 C 0.53063 0.87965 0.69581 0.0
C695 C 0.49498 0.86226 0.66073 0.0
C696 C 0.54057 0.87313 0.74947 0.0
C697 C 0.46986 0.83825 0.68042 0.0
C698 C 0.48024 0.83143 0.73307 0.0
C699 C 0.52391 0.84224 0.82124 0.0
C700 C 0.5561 0.86019 0.85782 0.0
C701 C 0.51524 0.8487 0.7679 0.0
C702 C 0.5826 0.88408 0.83899 0.0
C703 C 0.57509 0.89043 0.78527 0.0
loop_
_geom_bond_atom_site_label_1
_geom_bond_atom_site_label_2
_geom_bond_distance
_geom_bond_site_symmetry_2
_ccdc_geom_bond_type
Nd0 C2 2.836 . S
Nd0 O20 2.500 1_554 S
Nd0 O21 2.492 . S
Nd0 O22 2.487 . S
Nd0 O23 2.682 . S
Nd0 O24 2.410 . S
Nd0 O29 2.414 1_554 S
Nd0 O31 2.424 . S
Nd1 C11 2.836 . S
Nd1 O23 2.414 1_656 S
Nd1 O25 2.424 1_655 S
Nd1 O26 2.500 1_556 S
Nd1 O27 2.492 . S
Nd1 O28 2.487 1_655 S
Nd1 O29 2.682 1_655 S
Nd1 O30 2.410 . S
C2 Nd0 2.836 . S
C2 C3 1.498 . S
C2 O20 1.258 1_554 S
C2 O21 1.239 . S
C3 C2 1.498 . S
C3 C4 1.366 1_554 S
C3 C8 1.407 . S
C4 C3 1.366 1_556 S
C4 C5 1.392 . S
C4 H32 0.930 . S
C5 C4 1.392 . S
C5 C6 1.406 . S
C5 H33 0.929 . S
C6 C5 1.406 . S
C6 C7 1.344 1_556 S
C7 C6 1.344 1_554 S
C7 C8 1.384 . S
C7 H34 0.930 . S
C8 C3 1.407 . S
C8 C7 1.384 . S
C8 H35 0.929 . S
C9 O22 1.241 . S
C9 O23 1.273 . S
C10 O24 1.251 1_556 S
C10 O25 1.268 . S
C11 Nd1 2.836 . S
C11 C12 1.498 . S
C11 O26 1.258 1_556 S
C11 O27 1.239 . S
C12 C11 1.498 . S
C12 C13 1.366 1_556 S
C12 C17 1.407 . S
C13 C12 1.366 1_554 S
C13 C14 1.392 . S
C13 H36 0.930 . S
C14 C13 1.392 . S
C14 C15 1.398 . S
C14 H37 0.929 . S
C15 C14 1.398 . S
C15 C16 1.352 1_554 S
C16 C15 1.352 1_556 S
C16 C17 1.384 . S
C16 H38 0.930 . S
C17 C12 1.407 . S
C17 C16 1.384 . S
C17 H39 0.929 . S
C18 O28 1.241 . S
C18 O29 1.273 . S
C19 O30 1.251 1_454 S
C19 O31 1.268 . S
O20 Nd0 2.500 1_556 S
O20 C2 1.258 1_556 S
O21 Nd0 2.492 . S
O21 C2 1.239 . S
O22 Nd0 2.487 . S
O22 C9 1.241 . S
O23 Nd0 2.682 . S
O23 Nd1 2.414 1_454 S
O23 C9 1.273 . S
O24 Nd0 2.410 . S
O24 C10 1.251 1_554 S
O25 Nd1 2.424 1_455 S
O25 C10 1.268 . S
O26 Nd1 2.500 1_554 S
O26 C11 1.258 1_554 S
O27 Nd1 2.492 . S
O27 C11 1.239 . S
O28 Nd1 2.487 1_455 S
O28 C18 1.241 . S
O29 Nd0 2.414 1_556 S
O29 Nd1 2.682 1_455 S
O29 C18 1.273 . S
O30 Nd1 2.410 . S
O30 C19 1.251 1_656 S
O31 Nd0 2.424 . S
O31 C19 1.268 . S
H32 C4 0.930 . S
H33 C5 0.929 . S
H34 C7 0.930 . S
H35 C8 0.929 . S
H36 C13 0.930 . S
H37 C14 0.929 . S
H38 C16 0.930 . S
H39 C17 0.929 . S
Nd40 C42 2.836 1_554 S
Nd40 O60 2.500 1_554 S
Nd40 O61 2.492 . S
Nd40 O62 2.487 . S
Nd40 O63 2.682 . S
Nd40 O64 2.410 . S
Nd40 O69 2.414 1_554 S
Nd40 O71 2.424 . S
Nd41 C51 2.836 1_556 S
Nd41 O63 2.414 1_456 S
Nd41 O65 2.424 1_455 S
Nd41 O66 2.500 1_556 S
Nd41 O67 2.492 . S
Nd41 O68 2.487 1_455 S
Nd41 O69 2.682 1_455 S
Nd41 O70 2.410 . S
C42 Nd40 2.836 1_556 S
C42 C43 1.498 . S
C42 O60 1.258 . S
C42 O61 1.239 1_556 S
C43 C42 1.498 . S
C43 C44 1.366 . S
C43 C48 1.407 1_556 S
C44 C43 1.366 . S
C44 C45 1.392 . S
C44 H72 0.930 . S
C45 C44 1.392 . S
C45 C46 1.398 . S
C45 H73 0.929 . S
C46 C45 1.398 . S
C46 C47 1.352 1_556 S
C47 C46 1.352 1_554 S
C47 C48 1.384 . S
C47 H74 0.930 . S
C48 C43 1.407 1_554 S
C48 C47 1.384 . S
C48 H75 0.929 . S
C49 O62 1.241 . S
C49 O63 1.273 . S
C50 O64 1.251 . S
C50 O65 1.264 1_554 S
C51 Nd41 2.836 1_554 S
C51 C52 1.498 . S
C51 O66 1.258 . S
C51 O67 1.239 1_554 S
C52 C51 1.498 . S
C52 C53 1.366 . S
C52 C57 1.407 1_554 S
C53 C52 1.366 . S
C53 C54 1.392 . S
C53 H76 0.930 . S
C54 C53 1.392 . S
C54 C55 1.398 . S
C54 H77 0.929 . S
C55 C54 1.398 . S
C55 C56 1.352 1_554 S
C56 C55 1.352 1_556 S
C56 C57 1.384 . S
C56 H78 0.930 . S
C57 C52 1.407 1_556 S
C57 C56 1.384 . S
C57 H79 0.929 . S
C58 O68 1.241 . S
C58 O69 1.273 . S
C59 O70 1.248 1_654 S
C59 O71 1.269 . S
O60 Nd40 2.500 1_556 S
O60 C42 1.258 . S
O61 Nd40 2.492 . S
O61 C42 1.239 1_554 S
O62 Nd40 2.487 . S
O62 C49 1.241 . S
O63 Nd40 2.682 . S
O63 Nd41 2.414 1_654 S
O63 C49 1.273 . S
O64 Nd40 2.410 . S
O64 C50 1.251 . S
O65 Nd41 2.424 1_655 S
O65 C50 1.264 1_556 S
O66 Nd41 2.500 1_554 S
O66 C51 1.258 . S
O67 Nd41 2.492 . S
O67 C51 1.239 1_556 S
O68 Nd41 2.487 1_655 S
O68 C58 1.241 . S
O69 Nd40 2.414 1_556 S
O69 Nd41 2.682 1_655 S
O69 C58 1.273 . S
O70 Nd41 2.410 . S
O70 C59 1.248 1_456 S
O71 Nd40 2.424 . S
O71 C59 1.269 . S
H72 C44 0.930 . S
H73 C45 0.929 . S
H74 C47 0.930 . S
H75 C48 0.929 . S
H76 C53 0.930 . S
H77 C54 0.929 . S
H78 C56 0.930 . S
H79 C57 0.929 . S
Nd80 C82 2.836 . S
Nd80 O100 2.500 . S
Nd80 O101 2.492 . S
Nd80 O102 2.487 1_655 S
Nd80 O103 2.682 1_655 S
Nd80 O104 2.410 . S
Nd80 O109 2.414 1_655 S
Nd80 O111 2.424 1_655 S
Nd81 C91 2.836 . S
Nd81 O103 2.414 . S
Nd81 O105 2.424 . S
Nd81 O106 2.500 . S
Nd81 O107 2.492 . S
Nd81 O108 2.487 . S
Nd81 O109 2.682 . S
Nd81 O110 2.410 . S
C82 Nd80 2.836 . S
C82 C83 1.498 . S
C82 O100 1.258 . S
C82 O101 1.239 . S
C83 C82 1.498 . S
C83 C84 1.366 . S
C83 C88 1.407 . S
C84 C83 1.366 . S
C84 C85 1.392 . S
C84 H112 0.930 . S
C85 C84 1.392 . S
C85 C86 1.398 . S
C85 H113 0.929 . S
C86 C85 1.398 . S
C86 C87 1.352 . S
C87 C86 1.352 . S
C87 C88 1.384 . S
C87 H114 0.930 . S
C88 C83 1.407 . S
C88 C87 1.384 . S
C88 H115 0.929 . S
C89 O102 1.241 . S
C89 O103 1.273 . S
C90 O104 1.251 1_455 S
C90 O105 1.268 . S
C91 Nd81 2.836 . S
C91 C92 1.498 . S
C91 O106 1.258 . S
C91 O107 1.239 . S
C92 C91 1.498 . S
C92 C93 1.366 . S
C92 C97 1.407 . S
C93 C92 1.366 . S
C93 C94 1.392 . S
C93 H116 0.930 . S
C94 C93 1.392 . S
C94 C95 1.398 . S
C94 H117 0.929 . S
C95 C94 1.398 . S
C95 C96 1.352 . S
C96 C95 1.352 . S
C96 C97 1.384 . S
C96 H118 0.930 . S
C97 C92 1.407 . S
C97 C96 1.384 . S
C97 H119 0.929 . S
C98 O108 1.241 . S
C98 O109 1.273 . S
C99 O110 1.251 . S
C99 O111 1.268 . S
O100 Nd80 2.500 . S
O100 C82 1.258 . S
O101 Nd80 2.492 . S
O101 C82 1.239 . S
O102 Nd80 2.487 1_455 S
O102 C89 1.241 . S
O103 Nd80 2.682 1_455 S
O103 Nd81 2.414 . S
O103 C89 1.273 . S
O104 Nd80 2.410 . S
O104 C90 1.251 1_655 S
O105 Nd81 2.424 . S
O105 C90 1.268 . S
O106 Nd81 2.500 . S
O106 C91 1.258 . S
O107 Nd81 2.492 . S
O107 C91 1.239 . S
O108 Nd81 2.487 . S
O108 C98 1.241 . S
O109 Nd80 2.414 1_455 S
O109 Nd81 2.682 . S
O109 C98 1.273 . S
O110 Nd81 2.410 . S
O110 C99 1.251 . S
O111 Nd80 2.424 1_455 S
O111 C99 1.268 . S
H112 C84 0.930 . S
H113 C85 0.929 . S
H114 C87 0.930 . S
H115 C88 0.929 . S
H116 C93 0.930 . S
H117 C94 0.929 . S
H118 C96 0.930 . S
H119 C97 0.929 . S
Nd120 C122 2.836 . S
Nd120 O140 2.500 . S
Nd120 O141 2.492 . S
Nd120 O142 2.487 . S
Nd120 O143 2.682 . S
Nd120 O144 2.410 . S
Nd120 O149 2.414 . S
Nd120 O151 2.424 . S
Nd121 C131 2.836 . S
Nd121 O143 2.414 1_455 S
Nd121 O145 2.424 1_455 S
Nd121 O146 2.500 . S
Nd121 O147 2.492 . S
Nd121 O148 2.487 1_455 S
Nd121 O149 2.682 1_455 S
Nd121 O150 2.410 . S
C122 Nd120 2.836 . S
C122 C123 1.498 . S
C122 O140 1.258 . S
C122 O141 1.239 . S
C123 C122 1.498 . S
C123 C124 1.366 . S
C123 C128 1.407 . S
C124 C123 1.366 . S
C124 C125 1.392 . S
C124 H152 0.930 . S
C125 C124 1.392 . S
C125 C126 1.398 . S
C125 H153 0.929 . S
C126 C125 1.398 . S
C126 C127 1.352 . S
C127 C126 1.352 . S
C127 C128 1.384 . S
C127 H154 0.930 . S
C128 C123 1.407 . S
C128 C127 1.384 . S
C128 H155 0.929 . S
C129 O142 1.241 . S
C129 O143 1.273 . S
C130 O144 1.251 . S
C130 O145 1.268 . S
C131 Nd121 2.836 . S
C131 C132 1.498 . S
C131 O146 1.258 . S
C131 O147 1.239 . S
C132 C131 1.498 . S
C132 C133 1.366 . S
C132 C137 1.407 . S
C133 C132 1.366 . S
C133 C134 1.392 . S
C133 H156 0.930 . S
C134 C133 1.392 . S
C134 C135 1.398 . S
C134 H157 0.929 . S
C135 C134 1.398 . S
C135 C136 1.352 . S
C136 C135 1.352 . S
C136 C137 1.384 . S
C136 H158 0.930 . S
C137 C132 1.407 . S
C137 C136 1.384 . S
C137 H159 0.929 . S
C138 O148 1.241 . S
C138 O149 1.273 . S
C139 O150 1.251 1_655 S
C139 O151 1.268 . S
O140 Nd120 2.500 . S
O140 C122 1.258 . S
O141 Nd120 2.492 . S
O141 C122 1.239 . S
O142 Nd120 2.487 . S
O142 C129 1.241 . S
O143 Nd120 2.682 . S
O143 Nd121 2.414 1_655 S
O143 C129 1.273 . S
O144 Nd120 2.410 . S
O144 C130 1.251 . S
O145 Nd121 2.424 1_655 S
O145 C130 1.268 . S
O146 Nd121 2.500 . S
O146 C131 1.258 . S
O147 Nd121 2.492 . S
O147 C131 1.239 . S
O148 Nd121 2.487 1_655 S
O148 C138 1.241 . S
O149 Nd120 2.414 . S
O149 Nd121 2.682 1_655 S
O149 C138 1.273 . S
O150 Nd121 2.410 . S
O150 C139 1.251 1_455 S
O151 Nd120 2.424 . S
O151 C139 1.268 . S
H152 C124 0.930 . S
H153 C125 0.929 . S
H154 C127 0.930 . S
H155 C128 0.929 . S
H156 C133 0.930 . S
H157 C134 0.929 . S
H158 C136 0.930 . S
H159 C137 0.929 . S
Nd160 C162 2.836 . S
Nd160 O180 2.500 1_554 S
Nd160 O181 2.492 . S
Nd160 O182 2.487 . S
Nd160 O183 2.682 . S
Nd160 O184 2.410 . S
Nd160 O189 2.414 1_554 S
Nd160 O191 2.424 . S
Nd161 C171 2.836 . S
Nd161 O183 2.414 1_556 S
Nd161 O185 2.424 . S
Nd161 O186 2.500 1_556 S
Nd161 O187 2.492 . S
Nd161 O188 2.487 . S
Nd161 O189 2.682 . S
Nd161 O190 2.410 . S
C162 Nd160 2.836 . S
C162 C163 1.498 . S
C162 O180 1.258 1_554 S
C162 O181 1.239 . S
C163 C162 1.498 . S
C163 C164 1.366 1_554 S
C163 C168 1.407 . S
C164 C163 1.366 1_556 S
C164 C165 1.392 . S
C164 H192 0.930 . S
C165 C164 1.392 . S
C165 C166 1.406 . S
C165 H193 0.929 . S
C166 C165 1.406 . S
C166 C167 1.344 1_556 S
C167 C166 1.344 1_554 S
C167 C168 1.384 . S
C167 H194 0.930 . S
C168 C163 1.407 . S
C168 C167 1.384 . S
C168 H195 0.929 . S
C169 O182 1.241 . S
C169 O183 1.273 . S
C170 O184 1.251 1_556 S
C170 O185 1.268 . S
C171 Nd161 2.836 . S
C171 C172 1.498 . S
C171 O186 1.258 1_556 S
C171 O187 1.239 . S
C172 C171 1.498 . S
C172 C173 1.366 1_556 S
C172 C177 1.407 . S
C173 C172 1.366 1_554 S
C173 C174 1.392 . S
C173 H196 0.930 . S
C174 C173 1.392 . S
C174 C175 1.398 . S
C174 H197 0.929 . S
C175 C174 1.398 . S
C175 C176 1.352 1_554 S
C176 C175 1.352 1_556 S
C176 C177 1.384 . S
C176 H198 0.930 . S
C177 C172 1.407 . S
C177 C176 1.384 . S
C177 H199 0.929 . S
C178 O188 1.241 . S
C178 O189 1.273 . S
C179 O190 1.251 1_554 S
C179 O191 1.268 . S
O180 Nd160 2.500 1_556 S
O180 C162 1.258 1_556 S
O181 Nd160 2.492 . S
O181 C162 1.239 . S
O182 Nd160 2.487 . S
O182 C169 1.241 . S
O183 Nd160 2.682 . S
O183 Nd161 2.414 1_554 S
O183 C169 1.273 . S
O184 Nd160 2.410 . S
O184 C170 1.251 1_554 S
O185 Nd161 2.424 . S
O185 C170 1.268 . S
O186 Nd161 2.500 1_554 S
O186 C171 1.258 1_554 S
O187 Nd161 2.492 . S
O187 C171 1.239 . S
O188 Nd161 2.487 . S
O188 C178 1.241 . S
O189 Nd160 2.414 1_556 S
O189 Nd161 2.682 . S
O189 C178 1.273 . S
O190 Nd161 2.410 . S
O190 C179 1.251 1_556 S
O191 Nd160 2.424 . S
O191 C179 1.268 . S
H192 C164 0.930 . S
H193 C165 0.929 . S
H194 C167 0.930 . S
H195 C168 0.929 . S
H196 C173 0.930 . S
H197 C174 0.929 . S
H198 C176 0.930 . S
H199 C177 0.929 . S
Nd200 C202 2.836 1_554 S
Nd200 O220 2.500 1_554 S
Nd200 O221 2.492 . S
Nd200 O222 2.487 . S
Nd200 O223 2.682 . S
Nd200 O224 2.410 . S
Nd200 O229 2.414 1_554 S
Nd200 O231 2.424 . S
Nd201 C211 2.836 1_556 S
Nd201 O223 2.414 1_556 S
Nd201 O225 2.424 . S
Nd201 O226 2.500 1_556 S
Nd201 O227 2.492 . S
Nd201 O228 2.487 . S
Nd201 O229 2.682 . S
Nd201 O230 2.410 . S
C202 Nd200 2.836 1_556 S
C202 C203 1.498 . S
C202 O220 1.258 . S
C202 O221 1.239 1_556 S
C203 C202 1.498 . S
C203 C204 1.366 . S
C203 C208 1.407 1_556 S
C204 C203 1.366 . S
C204 C205 1.392 . S
C204 H232 0.930 . S
C205 C204 1.392 . S
C205 C206 1.398 . S
C205 H233 0.929 . S
C206 C205 1.398 . S
C206 C207 1.352 1_556 S
C207 C206 1.352 1_554 S
C207 C208 1.384 . S
C207 H234 0.930 . S
C208 C203 1.407 1_554 S
C208 C207 1.384 . S
C208 H235 0.929 . S
C209 O222 1.241 . S
C209 O223 1.273 . S
C210 O224 1.251 . S
C210 O225 1.264 1_554 S
C211 Nd201 2.836 1_554 S
C211 C212 1.498 . S
C211 O226 1.258 . S
C211 O227 1.239 1_554 S
C212 C211 1.498 . S
C212 C213 1.366 . S
C212 C217 1.407 1_554 S
C213 C212 1.366 . S
C213 C214 1.392 . S
C213 H236 0.930 . S
C214 C213 1.392 . S
C214 C215 1.398 . S
C214 H237 0.929 . S
C215 C214 1.398 . S
C215 C216 1.352 1_554 S
C216 C215 1.352 1_556 S
C216 C217 1.384 . S
C216 H238 0.930 . S
C217 C212 1.407 1_556 S
C217 C216 1.384 . S
C217 H239 0.929 . S
C218 O228 1.241 . S
C218 O229 1.273 . S
C219 O230 1.248 1_554 S
C219 O231 1.269 . S
O220 Nd200 2.500 1_556 S
O220 C202 1.258 . S
O221 Nd200 2.492 . S
O221 C202 1.239 1_554 S
O222 Nd200 2.487 . S
O222 C209 1.241 . S
O223 Nd200 2.682 . S
O223 Nd201 2.414 1_554 S
O223 C209 1.273 . S
O224 Nd200 2.410 . S
O224 C210 1.251 . S
O225 Nd201 2.424 . S
O225 C210 1.264 1_556 S
O226 Nd201 2.500 1_554 S
O226 C211 1.258 . S
O227 Nd201 2.492 . S
O227 C211 1.239 1_556 S
O228 Nd201 2.487 . S
O228 C218 1.241 . S
O229 Nd200 2.414 1_556 S
O229 Nd201 2.682 . S
O229 C218 1.273 . S
O230 Nd201 2.410 . S
O230 C219 1.248 1_556 S
O231 Nd200 2.424 . S
O231 C219 1.269 . S
H232 C204 0.930 . S
H233 C205 0.929 . S
H234 C207 0.930 . S
H235 C208 0.929 . S
H236 C213 0.930 . S
H237 C214 0.929 . S
H238 C216 0.930 . S
H239 C217 0.929 . S
Nd240 C242 2.836 . S
Nd240 O260 2.500 . S
Nd240 O261 2.492 . S
Nd240 O262 2.487 . S
Nd240 O263 2.682 . S
Nd240 O264 2.410 . S
Nd240 O269 2.414 . S
Nd240 O271 2.424 . S
Nd241 C251 2.836 . S
Nd241 O263 2.414 . S
Nd241 O265 2.424 . S
Nd241 O266 2.500 . S
Nd241 O267 2.492 . S
Nd241 O268 2.487 . S
Nd241 O269 2.682 . S
Nd241 O270 2.410 . S
C242 Nd240 2.836 . S
C242 C243 1.498 . S
C242 O260 1.258 . S
C242 O261 1.239 . S
C243 C242 1.498 . S
C243 C244 1.366 . S
C243 C248 1.407 . S
C244 C243 1.366 . S
C244 C245 1.392 . S
C244 H272 0.930 . S
C245 C244 1.392 . S
C245 C246 1.398 . S
C245 H273 0.929 . S
C246 C245 1.398 . S
C246 C247 1.352 . S
C247 C246 1.352 . S
C247 C248 1.384 . S
C247 H274 0.930 . S
C248 C243 1.407 . S
C248 C247 1.384 . S
C248 H275 0.929 . S
C249 O262 1.241 . S
C249 O263 1.273 . S
C250 O264 1.251 . S
C250 O265 1.268 . S
C251 Nd241 2.836 . S
C251 C252 1.498 . S
C251 O266 1.258 . S
C251 O267 1.239 . S
C252 C251 1.498 . S
C252 C253 1.366 . S
C252 C257 1.407 . S
C253 C252 1.366 . S
C253 C254 1.392 . S
C253 H276 0.930 . S
C254 C253 1.392 . S
C254 C255 1.398 . S
C254 H277 0.929 . S
C255 C254 1.398 . S
C255 C256 1.352 . S
C256 C255 1.352 . S
C256 C257 1.384 . S
C256 H278 0.930 . S
C257 C252 1.407 . S
C257 C256 1.384 . S
C257 H279 0.929 . S
C258 O268 1.241 . S
C258 O269 1.273 . S
C259 O270 1.251 . S
C259 O271 1.268 . S
O260 Nd240 2.500 . S
O260 C242 1.258 . S
O261 Nd240 2.492 . S
O261 C242 1.239 . S
O262 Nd240 2.487 . S
O262 C249 1.241 . S
O263 Nd240 2.682 . S
O263 Nd241 2.414 . S
O263 C249 1.273 . S
O264 Nd240 2.410 . S
O264 C250 1.251 . S
O265 Nd241 2.424 . S
O265 C250 1.268 . S
O266 Nd241 2.500 . S
O266 C251 1.258 . S
O267 Nd241 2.492 . S
O267 C251 1.239 . S
O268 Nd241 2.487 . S
O268 C258 1.241 . S
O269 Nd240 2.414 . S
O269 Nd241 2.682 . S
O269 C258 1.273 . S
O270 Nd241 2.410 . S
O270 C259 1.251 . S
O271 Nd240 2.424 . S
O271 C259 1.268 . S
H272 C244 0.930 . S
H273 C245 0.929 . S
H274 C247 0.930 . S
H275 C248 0.929 . S
H276 C253 0.930 . S
H277 C254 0.929 . S
H278 C256 0.930 . S
H279 C257 0.929 . S
Nd280 C282 2.836 . S
Nd280 O300 2.500 . S
Nd280 O301 2.492 . S
Nd280 O302 2.487 . S
Nd280 O303 2.682 . S
Nd280 O304 2.410 . S
Nd280 O309 2.414 . S
Nd280 O311 2.424 . S
Nd281 C291 2.836 . S
Nd281 O303 2.414 . S
Nd281 O305 2.424 . S
Nd281 O306 2.500 . S
Nd281 O307 2.492 . S
Nd281 O308 2.487 . S
Nd281 O309 2.682 . S
Nd281 O310 2.410 . S
C282 Nd280 2.836 . S
C282 C283 1.498 . S
C282 O300 1.258 . S
C282 O301 1.239 . S
C283 C282 1.498 . S
C283 C284 1.366 . S
C283 C288 1.407 . S
C284 C283 1.366 . S
C284 C285 1.392 . S
C284 H312 0.930 . S
C285 C284 1.392 . S
C285 C286 1.398 . S
C285 H313 0.929 . S
C286 C285 1.398 . S
C286 C287 1.352 . S
C287 C286 1.352 . S
C287 C288 1.384 . S
C287 H314 0.930 . S
C288 C283 1.407 . S
C288 C287 1.384 . S
C288 H315 0.929 . S
C289 O302 1.241 . S
C289 O303 1.273 . S
C290 O304 1.251 . S
C290 O305 1.268 . S
C291 Nd281 2.836 . S
C291 C292 1.498 . S
C291 O306 1.258 . S
C291 O307 1.239 . S
C292 C291 1.498 . S
C292 C293 1.366 . S
C292 C297 1.407 . S
C293 C292 1.366 . S
C293 C294 1.392 . S
C293 H316 0.930 . S
C294 C293 1.392 . S
C294 C295 1.398 . S
C294 H317 0.929 . S
C295 C294 1.398 . S
C295 C296 1.352 . S
C296 C295 1.352 . S
C296 C297 1.384 . S
C296 H318 0.930 . S
C297 C292 1.407 . S
C297 C296 1.384 . S
C297 H319 0.929 . S
C298 O308 1.241 . S
C298 O309 1.273 . S
C299 O310 1.251 . S
C299 O311 1.268 . S
O300 Nd280 2.500 . S
O300 C282 1.258 . S
O301 Nd280 2.492 . S
O301 C282 1.239 . S
O302 Nd280 2.487 . S
O302 C289 1.241 . S
O303 Nd280 2.682 . S
O303 Nd281 2.414 . S
O303 C289 1.273 . S
O304 Nd280 2.410 . S
O304 C290 1.251 . S
O305 Nd281 2.424 . S
O305 C290 1.268 . S
O306 Nd281 2.500 . S
O306 C291 1.258 . S
O307 Nd281 2.492 . S
O307 C291 1.239 . S
O308 Nd281 2.487 . S
O308 C298 1.241 . S
O309 Nd280 2.414 . S
O309 Nd281 2.682 . S
O309 C298 1.273 . S
O310 Nd281 2.410 . S
O310 C299 1.251 . S
O311 Nd280 2.424 . S
O311 C299 1.268 . S
H312 C284 0.930 . S
H313 C285 0.929 . S
H314 C287 0.930 . S
H315 C288 0.929 . S
H316 C293 0.930 . S
H317 C294 0.929 . S
H318 C296 0.930 . S
H319 C297 0.929 . S
H320 C326 0.930 . S
H321 C329 0.930 . S
H322 C330 0.930 . S
H323 C331 0.930 . S
H324 C334 0.930 . S
H325 C335 0.930 . S
C326 H320 0.930 . S
C326 C327 1.355 . S
C326 C328 1.415 . S
C327 C326 1.355 . S
C327 C329 1.419 1_556 S
C328 C326 1.415 . S
C328 C333 1.425 1_556 S
C328 C335 1.409 . S
C329 H321 0.930 . S
C329 C327 1.419 1_554 S
C329 C330 1.362 . S
C330 H322 0.930 . S
C330 C329 1.362 . S
C330 C333 1.409 . S
C331 H323 0.930 . S
C331 C332 1.355 . S
C331 C333 1.415 . S
C332 C331 1.355 . S
C332 C334 1.419 1_554 S
C333 C328 1.425 1_554 S
C333 C330 1.409 . S
C333 C331 1.415 . S
C334 H324 0.930 . S
C334 C332 1.419 1_556 S
C334 C335 1.362 . S
C335 H325 0.930 . S
C335 C328 1.409 . S
C335 C334 1.362 . S
H336 C342 0.930 . S
H337 C345 0.930 . S
H338 C346 0.930 . S
H339 C347 0.930 . S
H340 C350 0.930 . S
H341 C351 0.930 . S
C342 H336 0.930 . S
C342 C343 1.355 . S
C342 C344 1.415 . S
C343 C342 1.355 . S
C343 C345 1.419 1_554 S
C344 C342 1.415 . S
C344 C349 1.425 1_554 S
C344 C351 1.409 . S
C345 H337 0.930 . S
C345 C343 1.419 1_556 S
C345 C346 1.362 . S
C346 H338 0.930 . S
C346 C345 1.362 . S
C346 C349 1.409 . S
C347 H339 0.930 . S
C347 C348 1.355 . S
C347 C349 1.415 . S
C348 C347 1.355 . S
C348 C350 1.419 1_556 S
C349 C344 1.425 1_556 S
C349 C346 1.409 . S
C349 C347 1.415 . S
C350 H340 0.930 . S
C350 C348 1.419 1_554 S
C350 C351 1.362 . S
C351 H341 0.930 . S
C351 C344 1.409 . S
C351 C350 1.362 . S
H352 C358 0.930 . S
H353 C361 0.930 . S
H354 C362 0.930 . S
H355 C363 0.930 . S
H356 C366 0.930 . S
H357 C367 0.930 . S
C358 H352 0.930 . S
C358 C359 1.355 . S
C358 C360 1.415 . S
C359 C358 1.355 . S
C359 C361 1.419 . S
C360 C358 1.415 . S
C360 C365 1.425 . S
C360 C367 1.409 . S
C361 H353 0.930 . S
C361 C359 1.419 . S
C361 C362 1.362 . S
C362 H354 0.930 . S
C362 C361 1.362 . S
C362 C365 1.409 . S
C363 H355 0.930 . S
C363 C364 1.355 . S
C363 C365 1.415 . S
C364 C363 1.355 . S
C364 C366 1.419 . S
C365 C360 1.425 . S
C365 C362 1.409 . S
C365 C363 1.415 . S
C366 H356 0.930 . S
C366 C364 1.419 . S
C366 C367 1.362 . S
C367 H357 0.930 . S
C367 C360 1.409 . S
C367 C366 1.362 . S
H368 C374 0.930 . S
H369 C377 0.930 . S
H370 C378 0.930 . S
H371 C379 0.930 . S
H372 C382 0.930 . S
H373 C383 0.930 . S
C374 H368 0.930 . S
C374 C375 1.355 . S
C374 C376 1.415 . S
C375 C374 1.355 . S
C375 C377 1.419 . S
C376 C374 1.415 . S
C376 C381 1.425 . S
C376 C383 1.409 . S
C377 H369 0.930 . S
C377 C375 1.419 . S
C377 C378 1.362 . S
C378 H370 0.930 . S
C378 C377 1.362 . S
C378 C381 1.409 . S
C379 H371 0.930 . S
C379 C380 1.355 . S
C379 C381 1.415 . S
C380 C379 1.355 . S
C380 C382 1.419 . S
C381 C376 1.425 . S
C381 C378 1.409 . S
C381 C379 1.415 . S
C382 H372 0.930 . S
C382 C380 1.419 . S
C382 C383 1.362 . S
C383 H373 0.930 . S
C383 C376 1.409 . S
C383 C382 1.362 . S
H384 C390 0.930 . S
H385 C393 0.930 . S
H386 C394 0.930 . S
H387 C395 0.930 . S
H388 C398 0.930 . S
H389 C399 0.930 . S
C390 H384 0.930 . S
C390 C391 1.354 . S
C390 C392 1.415 1_656 S
C391 C390 1.354 . S
C391 C393 1.419 . S
C392 C390 1.415 1_454 S
C392 C397 1.425 1_554 S
C392 C399 1.409 . S
C393 H385 0.930 . S
C393 C391 1.419 . S
C393 C394 1.362 1_655 S
C394 H386 0.930 . S
C394 C393 1.362 1_455 S
C394 C397 1.409 . S
C395 H387 0.930 . S
C395 C396 1.355 . S
C395 C397 1.415 1_554 S
C396 C395 1.355 . S
C396 C398 1.419 . S
C397 C392 1.425 1_556 S
C397 C394 1.409 . S
C397 C395 1.415 1_556 S
C398 H388 0.930 . S
C398 C396 1.419 . S
C398 C399 1.362 . S
C399 H389 0.930 . S
C399 C392 1.409 . S
C399 C398 1.362 . S
H400 C406 0.930 . S
H401 C409 0.930 . S
H402 C410 0.930 . S
H403 C411 0.930 . S
H404 C414 0.930 . S
H405 C415 0.930 . S
C406 H400 0.930 . S
C406 C407 1.355 1_655 S
C406 C408 1.415 . S
C407 C406 1.355 1_455 S
C407 C409 1.419 1_556 S
C408 C406 1.415 . S
C408 C413 1.425 1_556 S
C408 C415 1.409 . S
C409 H401 0.930 . S
C409 C407 1.419 1_554 S
C409 C410 1.362 1_455 S
C410 H402 0.930 . S
C410 C409 1.362 1_655 S
C410 C413 1.409 . S
C411 H403 0.930 . S
C411 C412 1.355 . S
C411 C413 1.415 . S
C412 C411 1.355 . S
C412 C414 1.419 1_554 S
C413 C408 1.425 1_554 S
C413 C410 1.409 . S
C413 C411 1.415 . S
C414 H404 0.930 . S
C414 C412 1.419 1_556 S
C414 C415 1.362 . S
C415 H405 0.930 . S
C415 C408 1.409 . S
C415 C414 1.362 . S
H416 C422 0.930 . S
H417 C425 0.930 . S
H418 C426 0.930 . S
H419 C427 0.930 1_655 S
H420 C430 0.930 . S
H421 C431 0.930 . S
C422 H416 0.930 . S
C422 C423 1.355 . S
C422 C424 1.415 . S
C423 C422 1.355 . S
C423 C425 1.419 . S
C424 C422 1.415 . S
C424 C429 1.425 . S
C424 C431 1.409 . S
C425 H417 0.930 . S
C425 C423 1.419 . S
C425 C426 1.362 . S
C426 H418 0.930 . S
C426 C425 1.362 . S
C426 C429 1.409 . S
C427 H419 0.930 1_455 S
C427 C428 1.355 1_455 S
C427 C429 1.415 . S
C428 C427 1.355 1_655 S
C428 C430 1.419 . S
C429 C424 1.425 . S
C429 C426 1.409 . S
C429 C427 1.415 . S
C430 H420 0.930 . S
C430 C428 1.419 . S
C430 C431 1.362 1_655 S
C431 H421 0.930 . S
C431 C424 1.409 . S
C431 C430 1.362 1_455 S
H432 C438 0.930 . S
H433 C441 0.930 . S
H434 C442 0.930 . S
H435 C443 0.930 . S
H436 C446 0.930 . S
H437 C447 0.930 . S
C438 H432 0.930 . S
C438 C439 1.355 . S
C438 C440 1.415 . S
C439 C438 1.355 . S
C439 C441 1.419 . S
C440 C438 1.415 . S
C440 C445 1.425 . S
C440 C447 1.409 . S
C441 H433 0.930 . S
C441 C439 1.419 . S
C441 C442 1.362 . S
C442 H434 0.930 . S
C442 C441 1.362 . S
C442 C445 1.409 . S
C443 H435 0.930 . S
C443 C444 1.355 1_655 S
C443 C445 1.415 . S
C444 C443 1.355 1_455 S
C444 C446 1.419 . S
C445 C440 1.425 . S
C445 C442 1.409 . S
C445 C443 1.415 . S
C446 H436 0.930 . S
C446 C444 1.419 . S
C446 C447 1.362 1_455 S
C447 H437 0.930 . S
C447 C440 1.409 . S
C447 C446 1.362 1_655 S
H448 C454 0.930 1_556 S
H449 C457 0.930 . S
H450 C458 0.930 . S
H451 C459 0.930 . S
H452 C462 0.930 . S
H453 C463 0.930 . S
C454 H448 0.930 1_554 S
C454 C455 1.355 1_655 S
C454 C456 1.415 . S
C455 C454 1.355 1_455 S
C455 C457 1.419 . S
C456 C454 1.415 . S
C456 C461 1.425 1_655 S
C456 C463 1.409 1_554 S
C457 H449 0.930 . S
C457 C455 1.419 . S
C457 C458 1.362 . S
C458 H450 0.930 . S
C458 C457 1.362 . S
C458 C461 1.409 . S
C459 H451 0.930 . S
C459 C460 1.355 1_455 S
C459 C461 1.415 . S
C460 C459 1.355 1_655 S
C460 C462 1.419 1_554 S
C461 C456 1.425 1_455 S
C461 C458 1.409 . S
C461 C459 1.415 . S
C462 H452 0.930 . S
C462 C460 1.419 1_556 S
C462 C463 1.362 . S
C463 H453 0.930 . S
C463 C456 1.409 1_556 S
C463 C462 1.362 . S
H464 C470 0.930 . S
H465 C473 0.930 . S
H466 C474 0.930 . S
H467 C475 0.930 . S
H468 C478 0.930 . S
H469 C479 0.930 . S
C470 H464 0.930 . S
C470 C471 1.355 1_655 S
C470 C472 1.415 . S
C471 C470 1.355 1_455 S
C471 C473 1.419 . S
C472 C470 1.415 . S
C472 C477 1.425 1_655 S
C472 C479 1.409 . S
C473 H465 0.930 . S
C473 C471 1.419 . S
C473 C474 1.362 . S
C474 H466 0.930 . S
C474 C473 1.362 . S
C474 C477 1.409 . S
C475 H467 0.930 . S
C475 C476 1.355 1_455 S
C475 C477 1.415 . S
C476 C475 1.355 1_655 S
C476 C478 1.419 . S
C477 C472 1.425 1_455 S
C477 C474 1.409 . S
C477 C475 1.415 . S
C478 H468 0.930 . S
C478 C476 1.419 . S
C478 C479 1.362 . S
C479 H469 0.930 . S
C479 C472 1.409 . S
C479 C478 1.362 . S
H480 C486 0.930 . S
H481 C489 0.930 . S
H482 C490 0.930 . S
H483 C491 0.930 . S
H484 C494 0.930 . S
H485 C495 0.930 . S
C486 H480 0.930 . S
C486 C487 1.355 . S
C486 C488 1.415 . S
C487 C486 1.355 . S
C487 C489 1.419 1_554 S
C488 C486 1.415 . S
C488 C493 1.425 1_564 S
C488 C495 1.409 1_565 S
C489 H481 0.930 . S
C489 C487 1.419 1_556 S
C489 C490 1.362 . S
C490 H482 0.930 . S
C490 C489 1.362 . S
C490 C493 1.409 1_565 S
C491 H483 0.930 . S
C491 C492 1.355 1_556 S
C491 C493 1.415 . S
C492 C491 1.355 1_554 S
C492 C494 1.419 . S
C493 C488 1.425 1_546 S
C493 C490 1.409 1_545 S
C493 C491 1.415 . S
C494 H484 0.930 . S
C494 C492 1.419 . S
C494 C495 1.362 . S
C495 H485 0.930 . S
C495 C488 1.409 1_545 S
C495 C494 1.362 . S
H496 C502 0.930 . S
H497 C505 0.930 . S
H498 C506 0.930 . S
H499 C507 0.930 . S
H500 C510 0.930 . S
H501 C511 0.930 . S
C502 H496 0.930 . S
C502 C503 1.355 . S
C502 C504 1.415 . S
C503 C502 1.355 . S
C503 C505 1.419 . S
C504 C502 1.415 . S
C504 C509 1.425 1_545 S
C504 C511 1.409 1_545 S
C505 H497 0.930 . S
C505 C503 1.419 . S
C505 C506 1.362 . S
C506 H498 0.930 . S
C506 C505 1.362 . S
C506 C509 1.409 1_545 S
C507 H499 0.930 . S
C507 C508 1.355 . S
C507 C509 1.415 . S
C508 C507 1.355 . S
C508 C510 1.419 . S
C509 C504 1.425 1_565 S
C509 C506 1.409 1_565 S
C509 C507 1.415 . S
C510 H500 0.930 . S
C510 C508 1.419 . S
C510 C511 1.362 . S
C511 H501 0.930 . S
C511 C504 1.409 1_565 S
C511 C510 1.362 . S
H512 C518 0.932 . S
H513 C521 0.930 . S
H514 C522 0.930 . S
H515 C523 0.930 . S
H516 C526 0.930 . S
H517 C527 0.930 . S
C518 H512 0.932 . S
C518 C519 1.352 1_554 S
C518 C520 1.415 . S
C519 C518 1.352 1_556 S
C519 C521 1.419 . S
C520 C518 1.415 . S
C520 C525 1.425 1_554 S
C520 C527 1.409 . S
C521 H513 0.930 . S
C521 C519 1.419 . S
C521 C522 1.362 . S
C522 H514 0.930 . S
C522 C521 1.362 . S
C522 C525 1.409 . S
C523 H515 0.930 . S
C523 C524 1.352 1_556 S
C523 C525 1.415 . S
C524 C523 1.352 1_554 S
C524 C526 1.423 . S
C525 C520 1.425 1_556 S
C525 C522 1.409 . S
C525 C523 1.415 . S
C526 H516 0.930 . S
C526 C524 1.423 . S
C526 C527 1.362 . S
C527 H517 0.930 . S
C527 C520 1.409 . S
C527 C526 1.362 . S
H528 C534 0.930 . S
H529 C537 0.930 . S
H530 C538 0.930 . S
H531 C539 0.930 . S
H532 C542 0.930 . S
H533 C543 0.930 . S
C534 H528 0.930 . S
C534 C535 1.355 1_554 S
C534 C536 1.415 . S
C535 C534 1.355 1_556 S
C535 C537 1.419 . S
C536 C534 1.415 . S
C536 C541 1.425 1_554 S
C536 C543 1.409 . S
C537 H529 0.930 . S
C537 C535 1.419 . S
C537 C538 1.362 . S
C538 H530 0.930 . S
C538 C537 1.362 . S
C538 C541 1.409 . S
C539 H531 0.930 . S
C539 C540 1.355 1_556 S
C539 C541 1.415 . S
C540 C539 1.355 1_554 S
C540 C542 1.419 . S
C541 C536 1.425 1_556 S
C541 C538 1.409 . S
C541 C539 1.415 . S
C542 H532 0.930 . S
C542 C540 1.419 . S
C542 C543 1.362 . S
C543 H533 0.930 . S
C543 C536 1.409 . S
C543 C542 1.362 . S
H544 C550 0.930 . S
H545 C553 0.930 . S
H546 C554 0.930 . S
H547 C555 0.930 . S
H548 C558 0.930 . S
H549 C559 0.930 . S
C550 H544 0.930 . S
C550 C551 1.355 . S
C550 C552 1.415 . S
C551 C550 1.355 . S
C551 C553 1.419 . S
C552 C550 1.415 . S
C552 C557 1.425 . S
C552 C559 1.409 . S
C553 H545 0.930 . S
C553 C551 1.419 . S
C553 C554 1.362 . S
C554 H546 0.930 . S
C554 C553 1.362 . S
C554 C557 1.409 . S
C555 H547 0.930 . S
C555 C556 1.355 . S
C555 C557 1.415 . S
C556 C555 1.355 . S
C556 C558 1.419 . S
C557 C552 1.425 . S
C557 C554 1.409 . S
C557 C555 1.415 . S
C558 H548 0.930 . S
C558 C556 1.419 . S
C558 C559 1.362 . S
C559 H549 0.930 . S
C559 C552 1.409 . S
C559 C558 1.362 . S
H560 C566 0.930 . S
H561 C569 0.930 . S
H562 C570 0.930 . S
H563 C571 0.930 . S
H564 C574 0.930 . S
H565 C575 0.930 . S
C566 H560 0.930 . S
C566 C567 1.355 . S
C566 C568 1.415 . S
C567 C566 1.355 . S
C567 C569 1.419 . S
C568 C566 1.415 . S
C568 C573 1.425 . S
C568 C575 1.409 . S
C569 H561 0.930 . S
C569 C567 1.419 . S
C569 C570 1.362 . S
C570 H562 0.930 . S
C570 C569 1.362 . S
C570 C573 1.409 . S
C571 H563 0.930 . S
C571 C572 1.355 . S
C571 C573 1.415 . S
C572 C571 1.355 . S
C572 C574 1.419 . S
C573 C568 1.425 . S
C573 C570 1.409 . S
C573 C571 1.415 . S
C574 H564 0.930 . S
C574 C572 1.419 . S
C574 C575 1.362 . S
C575 H565 0.930 . S
C575 C568 1.409 . S
C575 C574 1.362 . S
H576 C582 0.930 . S
H577 C585 0.930 . S
H578 C586 0.930 . S
H579 C587 0.930 . S
H580 C590 0.930 . S
H581 C591 0.930 . S
C582 H576 0.930 . S
C582 C583 1.355 . S
C582 C584 1.415 1_455 S
C583 C582 1.355 . S
C583 C585 1.419 . S
C584 C582 1.415 1_655 S
C584 C589 1.425 1_655 S
C584 C591 1.409 . S
C585 H577 0.930 . S
C585 C583 1.419 . S
C585 C586 1.362 . S
C586 H578 0.930 . S
C586 C585 1.362 . S
C586 C589 1.409 . S
C587 H579 0.930 . S
C587 C588 1.355 . S
C587 C589 1.415 1_655 S
C588 C587 1.355 . S
C588 C590 1.419 . S
C589 C584 1.425 1_455 S
C589 C586 1.409 . S
C589 C587 1.415 1_455 S
C590 H580 0.930 . S
C590 C588 1.419 . S
C590 C591 1.362 . S
C591 H581 0.930 . S
C591 C584 1.409 . S
C591 C590 1.362 . S
H592 C598 0.930 . S
H593 C601 0.930 . S
H594 C602 0.930 . S
H595 C603 0.930 1_655 S
H596 C606 0.930 . S
H597 C607 0.930 . S
C598 H592 0.930 . S
C598 C599 1.355 1_455 S
C598 C600 1.415 . S
C599 C598 1.355 1_655 S
C599 C601 1.419 . S
C600 C598 1.415 . S
C600 C605 1.425 1_455 S
C600 C607 1.409 . S
C601 H593 0.930 . S
C601 C599 1.419 . S
C601 C602 1.362 . S
C602 H594 0.930 . S
C602 C601 1.362 . S
C602 C605 1.409 . S
C603 H595 0.930 1_455 S
C603 C604 1.355 . S
C603 C605 1.415 1_455 S
C604 C603 1.355 . S
C604 C606 1.419 . S
C605 C600 1.425 1_655 S
C605 C602 1.409 . S
C605 C603 1.415 1_655 S
C606 H596 0.930 . S
C606 C604 1.419 . S
C606 C607 1.362 . S
C607 H597 0.930 . S
C607 C600 1.409 . S
C607 C606 1.362 . S
H608 C614 0.930 . S
H609 C617 0.930 . S
H610 C618 0.930 . S
H611 C619 0.930 . S
H612 C622 0.930 . S
H613 C623 0.930 . S
C614 H608 0.930 . S
C614 C615 1.355 . S
C614 C616 1.415 . S
C615 C614 1.355 . S
C615 C617 1.419 . S
C616 C614 1.415 . S
C616 C621 1.425 1_655 S
C616 C623 1.409 . S
C617 H609 0.930 . S
C617 C615 1.419 . S
C617 C618 1.362 1_655 S
C618 H610 0.930 . S
C618 C617 1.362 1_455 S
C618 C621 1.409 . S
C619 H611 0.930 . S
C619 C620 1.355 . S
C619 C621 1.415 . S
C620 C619 1.355 . S
C620 C622 1.419 . S
C621 C616 1.425 1_455 S
C621 C618 1.409 . S
C621 C619 1.415 . S
C622 H612 0.930 . S
C622 C620 1.419 . S
C622 C623 1.362 1_455 S
C623 H613 0.930 . S
C623 C616 1.409 . S
C623 C622 1.362 1_655 S
H624 C630 0.930 . S
H625 C633 0.930 . S
H626 C634 0.930 . S
H627 C635 0.930 . S
H628 C638 0.930 . S
H629 C639 0.930 . S
C630 H624 0.930 . S
C630 C631 1.355 . S
C630 C632 1.415 . S
C631 C630 1.355 . S
C631 C633 1.419 1_655 S
C632 C630 1.415 . S
C632 C637 1.425 1_655 S
C632 C639 1.409 . S
C633 H625 0.930 . S
C633 C631 1.419 1_455 S
C633 C634 1.362 . S
C634 H626 0.930 . S
C634 C633 1.362 . S
C634 C637 1.409 . S
C635 H627 0.930 . S
C635 C636 1.355 . S
C635 C637 1.415 . S
C636 C635 1.355 . S
C636 C638 1.419 1_455 S
C637 C632 1.425 1_455 S
C637 C634 1.409 . S
C637 C635 1.415 . S
C638 H628 0.930 . S
C638 C636 1.419 1_655 S
C638 C639 1.362 . S
C639 H629 0.930 . S
C639 C632 1.409 . S
C639 C638 1.362 . S
H640 C646 0.930 . S
H641 C649 0.930 . S
H642 C650 0.930 . S
H643 C651 0.930 . S
H644 C654 0.930 . S
H645 C655 0.930 . S
C646 H640 0.930 . S
C646 C647 1.355 . S
C646 C648 1.415 . S
C647 C646 1.355 . S
C647 C649 1.419 . S
C648 C646 1.415 . S
C648 C653 1.425 . S
C648 C655 1.409 . S
C649 H641 0.930 . S
C649 C647 1.419 . S
C649 C650 1.362 . S
C650 H642 0.930 . S
C650 C649 1.362 . S
C650 C653 1.409 . S
C651 H643 0.930 . S
C651 C652 1.355 . S
C651 C653 1.415 . S
C652 C651 1.355 . S
C652 C654 1.419 . S
C653 C648 1.425 . S
C653 C650 1.409 . S
C653 C651 1.415 . S
C654 H644 0.930 . S
C654 C652 1.419 . S
C654 C655 1.362 . S
C655 H645 0.930 . S
C655 C648 1.409 . S
C655 C654 1.362 . S
H656 C662 0.930 . S
H657 C665 0.930 . S
H658 C666 0.930 . S
H659 C667 0.930 . S
H660 C670 0.930 . S
H661 C671 0.930 . S
C662 H656 0.930 . S
C662 C663 1.355 . S
C662 C664 1.415 . S
C663 C662 1.355 . S
C663 C665 1.419 . S
C664 C662 1.415 . S
C664 C669 1.425 . S
C664 C671 1.409 . S
C665 H657 0.930 . S
C665 C663 1.419 . S
C665 C666 1.362 . S
C666 H658 0.930 . S
C666 C665 1.362 . S
C666 C669 1.409 . S
C667 H659 0.930 . S
C667 C668 1.355 . S
C667 C669 1.415 . S
C668 C667 1.355 . S
C668 C670 1.419 . S
C669 C664 1.425 . S
C669 C666 1.409 . S
C669 C667 1.415 . S
C670 H660 0.930 . S
C670 C668 1.419 . S
C670 C671 1.362 . S
C671 H661 0.930 . S
C671 C664 1.409 . S
C671 C670 1.362 . S
H672 C678 0.930 . S
H673 C681 0.930 . S
H674 C682 0.930 . S
H675 C683 0.930 . S
H676 C686 0.930 . S
H677 C687 0.930 . S
C678 H672 0.930 . S
C678 C679 1.355 . S
C678 C680 1.415 . S
C679 C678 1.355 . S
C679 C681 1.419 . S
C680 C678 1.415 . S
C680 C685 1.425 . S
C680 C687 1.409 . S
C681 H673 0.930 . S
C681 C679 1.419 . S
C681 C682 1.362 . S
C682 H674 0.930 . S
C682 C681 1.362 . S
C682 C685 1.409 . S
C683 H675 0.930 . S
C683 C684 1.355 . S
C683 C685 1.415 . S
C684 C683 1.355 . S
C684 C686 1.419 . S
C685 C680 1.425 . S
C685 C682 1.409 . S
C685 C683 1.415 . S
C686 H676 0.930 . S
C686 C684 1.419 . S
C686 C687 1.362 . S
C687 H677 0.930 . S
C687 C680 1.409 . S
C687 C686 1.362 . S
H688 C694 0.930 . S
H689 C697 0.930 . S
H690 C698 0.930 . S
H691 C699 0.930 . S
H692 C702 0.930 . S
H693 C703 0.930 . S
C694 H688 0.930 . S
C694 C695 1.355 . S
C694 C696 1.415 . S
C695 C694 1.355 . S
C695 C697 1.419 . S
C696 C694 1.415 . S
C696 C701 1.425 . S
C696 C703 1.409 . S
C697 H689 0.930 . S
C697 C695 1.419 . S
C697 C698 1.362 . S
C698 H690 0.930 . S
C698 C697 1.362 . S
C698 C701 1.409 . S
C699 H691 0.930 . S
C699 C700 1.355 . S
C699 C701 1.415 . S
C700 C699 1.355 . S
C700 C702 1.419 . S
C701 C696 1.425 . S
C701 C698 1.409 . S
C701 C699 1.415 . S
C702 H692 0.930 . S
C702 C700 1.419 . S
C702 C703 1.362 . S
C703 H693 0.930 . S
C703 C696 1.409 . S
C703 C702 1.362 . S
C327 C6 1.482 . S
C332 C15 1.482 . S
C343 C55 1.492 . S
C348 C46 1.492 . S
C359 C86 1.447 . S
C364 C95 1.447 . S
C375 C126 1.449 . S
C380 C135 1.449 . S
C391 C166 1.482 . S
C396 C175 1.481 . S
C407 C206 1.494 . S
C412 C215 1.494 . S
C423 C246 1.446 . S
C428 C255 1.446 . S
C439 C295 1.445 . S
C444 C286 1.445 . S
C455 C59 1.896 1_455 S
C460 C19 1.867 1_655 S
C471 C139 1.881 1_455 S
C476 C90 1.881 1_655 S
C487 C179 1.845 . S
C492 C219 1.884 . S
C503 C250 1.828 . S
C508 C299 1.828 . S
C519 C10 1.814 . S
C524 C210 1.809 . S
C535 C170 1.807 . S
C540 C50 1.788 . S
C551 C99 1.779 . S
C556 C290 1.779 . S
C567 C130 1.780 . S
C572 C259 1.780 . S
C583 C9 1.792 . S
C588 C129 1.772 . S
C599 C49 1.680 . S
C604 C89 1.573 . S
C615 C58 1.657 . S
C620 C98 1.881 . S
C631 C138 1.522 . S
C636 C18 1.525 . S
C647 C169 1.788 . S
C652 C289 1.776 . S
C663 C209 1.681 . S
C668 C249 1.573 . S
C679 C218 1.687 . S
C684 C258 1.865 . S
C695 C298 1.559 . S
C700 C178 1.583 . S
