# Generated by pormake.
# Topology upc, (4)-cn, num edge types: 1
# Building blocks:
#     Node 0, Type 0, BuildingBlock: KOZSID_clean_sbu_0, # of connection points: 4
#     Node 1, Type 0, BuildingBlock: KOZSID_clean_sbu_0, # of connection points: 4
#     Node 2, Type 0, BuildingBlock: KOZSID_clean_sbu_0, # of connection points: 4
#     Node 3, Type 0, BuildingBlock: KOZSID_clean_sbu_0, # of connection points: 4
#     Node 4, Type 0, BuildingBlock: KOZSID_clean_sbu_0, # of connection points: 4
#     Node 5, Type 0, BuildingBlock: KOZSID_clean_sbu_0, # of connection points: 4
#     Node 6, Type 0, BuildingBlock: KOZSID_clean_sbu_0, # of connection points: 4
#     Node 7, Type 0, BuildingBlock: KOZSID_clean_sbu_0, # of connection points: 4
#     Node 8, Type 0, BuildingBlock: KOZSID_clean_sbu_0, # of connection points: 4
#     Node 9, Type 0, BuildingBlock: KOZSID_clean_sbu_0, # of connection points: 4
#     Node 10, Type 0, BuildingBlock: KOZSID_clean_sbu_0, # of connection points: 4
#     Node 11, Type 0, BuildingBlock: KOZSID_clean_sbu_0, # of connection points: 4
#     Node 12, Type 0, BuildingBlock: KOZSID_clean_sbu_0, # of connection points: 4
#     Node 13, Type 0, BuildingBlock: KOZSID_clean_sbu_0, # of connection points: 4
#     Node 14, Type 0, BuildingBlock: KOZSID_clean_sbu_0, # of connection points: 4
#     Node 15, Type 0, BuildingBlock: KOZSID_clean_sbu_0, # of connection points: 4
#     Edge 16, Type (0, 0), BuildingBlock: TEMPAE_clean_linker_10, # of connection points: 2
#     Edge 17, Type (0, 0), BuildingBlock: TEMPAE_clean_linker_10, # of connection points: 2
#     Edge 18, Type (0, 0), BuildingBlock: TEMPAE_clean_linker_10, # of connection points: 2
#     Edge 19, Type (0, 0), BuildingBlock: TEMPAE_clean_linker_10, # of connection points: 2
#     Edge 20, Type (0, 0), BuildingBlock: TEMPAE_clean_linker_10, # of connection points: 2
#     Edge 21, Type (0, 0), BuildingBlock: TEMPAE_clean_linker_10, # of connection points: 2
#     Edge 22, Type (0, 0), BuildingBlock: TEMPAE_clean_linker_10, # of connection points: 2
#     Edge 23, Type (0, 0), BuildingBlock: TEMPAE_clean_linker_10, # of connection points: 2
#     Edge 24, Type (0, 0), BuildingBlock: TEMPAE_clean_linker_10, # of connection points: 2
#     Edge 25, Type (0, 0), BuildingBlock: TEMPAE_clean_linker_10, # of connection points: 2
#     Edge 26, Type (0, 0), BuildingBlock: TEMPAE_clean_linker_10, # of connection points: 2
#     Edge 27, Type (0, 0), BuildingBlock: TEMPAE_clean_linker_10, # of connection points: 2
#     Edge 28, Type (0, 0), BuildingBlock: TEMPAE_clean_linker_10, # of connection points: 2
#     Edge 29, Type (0, 0), BuildingBlock: TEMPAE_clean_linker_10, # of connection points: 2
#     Edge 30, Type (0, 0), BuildingBlock: TEMPAE_clean_linker_10, # of connection points: 2
#     Edge 31, Type (0, 0), BuildingBlock: TEMPAE_clean_linker_10, # of connection points: 2
#     Edge 32, Type (0, 0), BuildingBlock: TEMPAE_clean_linker_10, # of connection points: 2
#     Edge 33, Type (0, 0), BuildingBlock: TEMPAE_clean_linker_10, # of connection points: 2
#     Edge 34, Type (0, 0), BuildingBlock: TEMPAE_clean_linker_10, # of connection points: 2
#     Edge 35, Type (0, 0), BuildingBlock: TEMPAE_clean_linker_10, # of connection points: 2
#     Edge 36, Type (0, 0), BuildingBlock: TEMPAE_clean_linker_10, # of connection points: 2
#     Edge 37, Type (0, 0), BuildingBlock: TEMPAE_clean_linker_10, # of connection points: 2
#     Edge 38, Type (0, 0), BuildingBlock: TEMPAE_clean_linker_10, # of connection points: 2
#     Edge 39, Type (0, 0), BuildingBlock: TEMPAE_clean_linker_10, # of connection points: 2
#     Edge 40, Type (0, 0), BuildingBlock: TEMPAE_clean_linker_10, # of connection points: 2
#     Edge 41, Type (0, 0), BuildingBlock: TEMPAE_clean_linker_10, # of connection points: 2
#     Edge 42, Type (0, 0), BuildingBlock: TEMPAE_clean_linker_10, # of connection points: 2
#     Edge 43, Type (0, 0), BuildingBlock: TEMPAE_clean_linker_10, # of connection points: 2
#     Edge 44, Type (0, 0), BuildingBlock: TEMPAE_clean_linker_10, # of connection points: 2
#     Edge 45, Type (0, 0), BuildingBlock: TEMPAE_clean_linker_10, # of connection points: 2
#     Edge 46, Type (0, 0), BuildingBlock: TEMPAE_clean_linker_10, # of connection points: 2
#     Edge 47, Type (0, 0), BuildingBlock: TEMPAE_clean_linker_10, # of connection points: 2
# Relax obj value: 0.176
# Max RMSD: 0.237
# Mean RMSD: 0.232
data_MOF--net-upc--node1-KOZSID_clean_sbu_0--edge1-TEMPAE_clean_linker_10
_symmetry_space_group_name_H-M    P1
_symmetry_Int_Tables_number       1
_symmetry_cell_setting            triclinic
loop_
_symmetry_equiv_pos_as_xyz
'x, y, z'
_cell_length_a     45.562011
_cell_length_b     45.568278
_cell_length_c     46.294521
_cell_angle_alpha  89.968474
_cell_angle_beta   90.009797
_cell_angle_gamma 90.032084
loop_
_atom_site_label
_atom_site_type_symbol
_atom_site_fract_x
_atom_site_fract_y
_atom_site_fract_z
_atom_type_partial_charge
C0 C 0.1744 0.64592 0.12095 0.0
C1 C 0.20022 0.63661 0.10799 0.0
C2 C 0.19966 0.60641 0.10792 0.0
C3 C 0.17341 0.59866 0.12042 0.0
N4 N 0.15733 0.6221 0.12804 0.0
Co5 Co 0.11822 0.61965 0.14724 0.0
N6 N 0.12451 0.57898 0.16185 0.0
C7 C 0.14486 0.56061 0.15106 0.0
C8 C 0.14348 0.53309 0.16303 0.0
C9 C 0.12053 0.53403 0.18224 0.0
C10 C 0.10905 0.56226 0.1812 0.0
N11 N 0.07907 0.61813 0.16655 0.0
C12 C 0.06774 0.59924 0.1866 0.0
C13 C 0.03988 0.60838 0.19491 0.0
C14 C 0.03306 0.63245 0.17845 0.0
C15 C 0.05718 0.63724 0.16138 0.0
N16 N 0.11303 0.66081 0.13287 0.0
C17 C 0.08707 0.67483 0.13171 0.0
C18 C 0.09014 0.70429 0.1265 0.0
C19 C 0.11974 0.70926 0.12444 0.0
C20 C 0.13365 0.68232 0.12757 0.0
N21 N 0.09989 0.60267 0.11187 0.0
C22 C 0.0741 0.5736 0.06402 0.0
C23 C 0.09399 0.59698 0.05998 0.0
C24 C 0.10665 0.61129 0.08427 0.0
C25 C 0.06727 0.56564 0.09223 0.0
C26 C 0.08014 0.5802 0.11547 0.0
N27 N 0.13554 0.63517 0.18237 0.0
C28 C 0.13533 0.67224 0.2189 0.0
C29 C 0.16455 0.66575 0.22568 0.0
C30 C 0.17781 0.6414 0.21269 0.0
C31 C 0.16267 0.62607 0.19127 0.0
C32 C 0.12136 0.65688 0.19705 0.0
H33 H 0.17367 0.60821 0.18053 0.0
H34 H 0.0999 0.66416 0.1907 0.0
H35 H 0.12208 0.62899 0.0808 0.0
H36 H 0.0741 0.57251 0.13648 0.0
C37 C 0.1661 0.57078 0.13133 0.0
C38 C 0.16623 0.67754 0.12479 0.0
C39 C 0.0811 0.57086 0.19565 0.0
C40 C 0.06216 0.66222 0.14442 0.0
H41 H 0.21781 0.65015 0.0997 0.0
H42 H 0.21712 0.5919 0.10108 0.0
H43 H 0.15741 0.51448 0.15831 0.0
H44 H 0.11252 0.5156 0.19467 0.0
H45 H 0.02568 0.59865 0.21099 0.0
H46 H 0.01331 0.64557 0.17967 0.0
H47 H 0.07311 0.72083 0.12729 0.0
H48 H 0.12939 0.73076 0.12272 0.0
H49 H 0.09992 0.60389 0.03838 0.0
H50 H 0.05209 0.5478 0.09643 0.0
H51 H 0.12431 0.69113 0.22807 0.0
H52 H 0.20038 0.6357 0.21747 0.0
C53 C 0.88005 0.19615 0.13683 0.0
C54 C 0.88826 0.22543 0.13506 0.0
C55 C 0.91795 0.22657 0.13919 0.0
C56 C 0.9266 0.19813 0.14376 0.0
N57 N 0.90422 0.17876 0.14227 0.0
Co58 Co 0.9077 0.13571 0.15201 0.0
N59 N 0.94782 0.13972 0.16975 0.0
C60 C 0.9635 0.16483 0.17066 0.0
C61 C 0.989 0.16248 0.18616 0.0
C62 C 0.98954 0.13415 0.19596 0.0
C63 C 0.96447 0.12045 0.18543 0.0
N64 N 0.91074 0.09278 0.1611 0.0
C65 C 0.93136 0.07704 0.17597 0.0
C66 C 0.92504 0.04725 0.17504 0.0
C67 C 0.89957 0.0442 0.15963 0.0
C68 C 0.89178 0.07213 0.15168 0.0
N69 N 0.86637 0.1326 0.13648 0.0
C70 C 0.85173 0.10717 0.13242 0.0
C71 C 0.82311 0.11107 0.12404 0.0
C72 C 0.8189 0.14081 0.12352 0.0
C73 C 0.84519 0.15367 0.13181 0.0
N74 N 0.92593 0.12664 0.11316 0.0
C75 C 0.95911 0.0961 0.07023 0.0
C76 C 0.9286 0.09249 0.07272 0.0
C77 C 0.91255 0.1082 0.09369 0.0
C78 C 0.97172 0.11811 0.08735 0.0
C79 C 0.95484 0.13336 0.10782 0.0
N80 N 0.89096 0.14323 0.19016 0.0
C81 C 0.85487 0.1313 0.22593 0.0
C82 C 0.85955 0.15834 0.23941 0.0
C83 C 0.88308 0.17567 0.2303 0.0
C84 C 0.89849 0.16772 0.20556 0.0
C85 C 0.87071 0.12426 0.20133 0.0
H86 H 0.91509 0.18253 0.1982 0.0
H87 H 0.86487 0.10438 0.19047 0.0
H88 H 0.88947 0.10442 0.09406 0.0
H89 H 0.96622 0.14976 0.11974 0.0
C90 C 0.95301 0.19033 0.15724 0.0
C91 C 0.84889 0.18607 0.13445 0.0
C92 C 0.95752 0.08914 0.19071 0.0
C93 C 0.86501 0.08017 0.13895 0.0
H94 H 0.8743 0.24443 0.1328 0.0
H95 H 0.93116 0.24619 0.14145 0.0
H96 H 1.00502 0.1795 0.19038 0.0
H97 H 1.00643 0.12491 0.20959 0.0
H98 H 0.93747 0.02949 0.18457 0.0
H99 H 0.88769 0.02406 0.15548 0.0
H100 H 0.80689 0.09425 0.11978 0.0
H101 H 0.79859 0.15175 0.11801 0.0
H102 H 0.91702 0.07727 0.05885 0.0
H103 H 0.99495 0.12289 0.08611 0.0
H104 H 0.83682 0.11715 0.23213 0.0
H105 H 0.8876 0.19662 0.24043 0.0
C106 C 0.3134 0.88196 0.12616 0.0
C107 C 0.28539 0.89117 0.11877 0.0
C108 C 0.28457 0.92091 0.12297 0.0
C109 C 0.31214 0.92856 0.1323 0.0
N110 N 0.33073 0.90557 0.13358 0.0
Co111 Co 0.37254 0.90792 0.14766 0.0
N112 N 0.36798 0.94833 0.16444 0.0
C113 C 0.34308 0.96432 0.1633 0.0
C114 C 0.34481 0.99013 0.17842 0.0
C115 C 0.37242 0.99051 0.19011 0.0
C116 C 0.38641 0.96506 0.18107 0.0
N117 N 0.41456 0.91006 0.16058 0.0
C118 C 0.42975 0.93099 0.17557 0.0
C119 C 0.45936 0.92392 0.17711 0.0
C120 C 0.4628 0.89759 0.16338 0.0
C121 C 0.43533 0.89013 0.15379 0.0
N122 N 0.37581 0.86616 0.13319 0.0
C123 C 0.40087 0.85035 0.13319 0.0
C124 C 0.39662 0.82108 0.12791 0.0
C125 C 0.36696 0.81768 0.125 0.0
C126 C 0.35445 0.84527 0.12808 0.0
N127 N 0.38598 0.92531 0.10966 0.0
C128 C 0.41947 0.95752 0.06792 0.0
C129 C 0.42378 0.92728 0.07237 0.0
C130 C 0.40673 0.91172 0.09278 0.0
C131 C 0.39582 0.97021 0.08274 0.0
C132 C 0.37928 0.95383 0.10266 0.0
N133 N 0.36045 0.89186 0.18515 0.0
C134 C 0.36842 0.85604 0.22228 0.0
C135 C 0.33857 0.85655 0.22899 0.0
C136 C 0.32098 0.87841 0.217 0.0
C137 C 0.33269 0.89649 0.19561 0.0
C138 C 0.3788 0.87349 0.19995 0.0
H139 H 0.31826 0.91232 0.18613 0.0
H140 H 0.40102 0.86989 0.19339 0.0
H141 H 0.41134 0.88886 0.09504 0.0
H142 H 0.36185 0.96535 0.11291 0.0
C143 C 0.31885 0.95457 0.14715 0.0
C144 C 0.32209 0.85043 0.12668 0.0
C145 C 0.41726 0.95786 0.18853 0.0
C146 C 0.42746 0.86299 0.14196 0.0
H147 H 0.26704 0.87764 0.11224 0.0
H148 H 0.2654 0.93487 0.12167 0.0
H149 H 0.32794 1.00666 0.18082 0.0
H150 H 0.38111 1.00766 0.20379 0.0
H151 H 0.47676 0.93637 0.18726 0.0
H152 H 0.48283 0.88499 0.16135 0.0
H153 H 0.41298 0.80386 0.12804 0.0
H154 H 0.35599 0.79687 0.12224 0.0
H155 H 0.44053 0.91557 0.0605 0.0
H156 H 0.39062 0.99322 0.08014 0.0
H157 H 0.38271 0.83926 0.23113 0.0
H158 H 0.29774 0.87947 0.22187 0.0
C159 C 0.63879 0.32493 0.13103 0.0
C160 C 0.63006 0.29589 0.12826 0.0
C161 C 0.60021 0.29531 0.13119 0.0
C162 C 0.59199 0.32382 0.13601 0.0
N163 N 0.61479 0.3428 0.13568 0.0
Co164 Co 0.61216 0.38558 0.14689 0.0
N165 N 0.57096 0.38223 0.16211 0.0
C166 C 0.55417 0.35784 0.16072 0.0
C167 C 0.52799 0.36046 0.17504 0.0
C168 C 0.52815 0.38813 0.18648 0.0
C169 C 0.55437 0.40122 0.17817 0.0
N170 N 0.61036 0.42807 0.15816 0.0
C171 C 0.58988 0.44355 0.1734 0.0
C172 C 0.5976 0.47297 0.17518 0.0
C173 C 0.62398 0.47597 0.16136 0.0
C174 C 0.63087 0.44842 0.1516 0.0
N175 N 0.65416 0.3881 0.13315 0.0
C176 C 0.66981 0.41317 0.13069 0.0
C177 C 0.69862 0.40863 0.12333 0.0
C178 C 0.70189 0.37882 0.12183 0.0
C179 C 0.67488 0.36657 0.12862 0.0
N180 N 0.59588 0.397 0.10768 0.0
C181 C 0.56149 0.42782 0.06572 0.0
C182 C 0.59051 0.43604 0.07195 0.0
C183 C 0.60728 0.42014 0.09225 0.0
C184 C 0.55171 0.40156 0.07827 0.0
C185 C 0.56924 0.38643 0.09844 0.0
N186 N 0.62668 0.37566 0.18548 0.0
C187 C 0.66105 0.38431 0.22376 0.0
C188 C 0.65322 0.35769 0.23668 0.0
C189 C 0.62932 0.34221 0.2256 0.0
C190 C 0.61638 0.35157 0.19997 0.0
C191 C 0.64764 0.39275 0.19819 0.0
H192 H 0.59927 0.33815 0.19139 0.0
H193 H 0.65576 0.41221 0.18807 0.0
H194 H 0.62909 0.42767 0.09565 0.0
H195 H 0.56023 0.36668 0.10685 0.0
C196 C 0.56495 0.33205 0.14802 0.0
C197 C 0.67025 0.33427 0.13051 0.0
C198 C 0.56279 0.4315 0.18638 0.0
C199 C 0.6578 0.44017 0.1393 0.0
H200 H 0.64373 0.27667 0.12609 0.0
H201 H 0.58648 0.27595 0.13239 0.0
H202 H 0.51126 0.34383 0.17783 0.0
H203 H 0.51108 0.39717 0.20001 0.0
H204 H 0.58559 0.49047 0.18561 0.0
H205 H 0.63701 0.49575 0.15945 0.0
H206 H 0.71565 0.425 0.12081 0.0
H207 H 0.72211 0.3674 0.117 0.0
H208 H 0.60003 0.45543 0.06221 0.0
H209 H 0.53028 0.39279 0.07297 0.0
H210 H 0.67964 0.39696 0.2314 0.0
H211 H 0.62253 0.32156 0.23511 0.0
C212 C 0.19646 0.87741 0.37332 0.0
C213 C 0.22459 0.88642 0.38058 0.0
C214 C 0.22537 0.91627 0.37735 0.0
C215 C 0.19766 0.92417 0.36874 0.0
N216 N 0.17897 0.90124 0.36701 0.0
Co217 Co 0.13685 0.90396 0.35375 0.0
N218 N 0.14077 0.94556 0.33967 0.0
C219 C 0.16522 0.96213 0.34215 0.0
C220 C 0.16298 0.98885 0.32872 0.0
C221 C 0.13551 0.98931 0.31678 0.0
C222 C 0.12213 0.96289 0.32389 0.0
N223 N 0.09482 0.90612 0.34073 0.0
C224 C 0.07958 0.92743 0.32634 0.0
C225 C 0.0502 0.91981 0.32357 0.0
C226 C 0.04696 0.8927 0.33581 0.0
C227 C 0.07432 0.88533 0.34576 0.0
N228 N 0.13393 0.86148 0.36626 0.0
C229 C 0.10893 0.84548 0.36588 0.0
C230 C 0.1134 0.81606 0.36993 0.0
C231 C 0.14307 0.81277 0.37249 0.0
C232 C 0.15544 0.84057 0.37055 0.0
N233 N 0.1236 0.91903 0.39275 0.0
C234 C 0.09151 0.95161 0.43504 0.0
C235 C 0.08352 0.92285 0.42752 0.0
C236 C 0.10001 0.90695 0.40698 0.0
C237 C 0.11799 0.96201 0.42354 0.0
C238 C 0.1337 0.9454 0.40316 0.0
N239 N 0.14879 0.89041 0.31529 0.0
C240 C 0.14229 0.85658 0.27611 0.0
C241 C 0.17051 0.86289 0.266 0.0
C242 C 0.18588 0.88614 0.27852 0.0
C243 C 0.17454 0.89971 0.30306 0.0
C244 C 0.13196 0.87046 0.30077 0.0
H245 H 0.18776 0.9163 0.31287 0.0
H246 H 0.11121 0.86329 0.30887 0.0
H247 H 0.09261 0.88529 0.4023 0.0
H248 H 0.15347 0.95498 0.39548 0.0
C249 C 0.19028 0.95131 0.3563 0.0
C250 C 0.18781 0.84586 0.3721 0.0
C251 C 0.09179 0.9552 0.31506 0.0
C252 C 0.08233 0.85789 0.35682 0.0
H253 H 0.24301 0.87276 0.38661 0.0
H254 H 0.24447 0.93029 0.37918 0.0
H255 H 0.17961 1.00576 0.3272 0.0
H256 H 0.12664 1.00703 0.30393 0.0
H257 H 0.03284 0.9324 0.31354 0.0
H258 H 0.02716 0.87959 0.33667 0.0
H259 H 0.09719 0.79871 0.36893 0.0
H260 H 0.15409 0.79187 0.37405 0.0
H261 H 0.0639 0.91295 0.43641 0.0
H262 H 0.12646 0.98329 0.42981 0.0
H263 H 0.12954 0.83865 0.26721 0.0
H264 H 0.20771 0.89186 0.27113 0.0
C265 C 0.63505 0.18964 0.37441 0.0
C266 C 0.62656 0.21762 0.38276 0.0
C267 C 0.59683 0.21931 0.3789 0.0
C268 C 0.58844 0.1922 0.36901 0.0
N269 N 0.61091 0.17304 0.36704 0.0
Co270 Co 0.60698 0.13119 0.35338 0.0
N271 N 0.56588 0.13664 0.33846 0.0
C272 C 0.55042 0.16183 0.34031 0.0
C273 C 0.52401 0.16073 0.32617 0.0
C274 C 0.52261 0.13323 0.31438 0.0
C275 C 0.54813 0.11868 0.32235 0.0
N276 N 0.60331 0.08922 0.34058 0.0
C277 C 0.58155 0.07467 0.32612 0.0
C278 C 0.58798 0.04497 0.32389 0.0
C279 C 0.61477 0.04083 0.33659 0.0
C280 C 0.62313 0.068 0.34627 0.0
N281 N 0.64924 0.12695 0.36624 0.0
C282 C 0.66448 0.10152 0.36542 0.0
C283 C 0.69408 0.10514 0.36906 0.0
C284 C 0.69828 0.13468 0.37184 0.0
C285 C 0.67083 0.14785 0.37053 0.0
N286 N 0.59103 0.1184 0.39214 0.0
C287 C 0.55879 0.08656 0.43488 0.0
C288 C 0.58805 0.07955 0.42829 0.0
C289 C 0.60375 0.09593 0.40751 0.0
C290 C 0.54753 0.11205 0.42206 0.0
C291 C 0.5639 0.1276 0.40136 0.0
N292 N 0.62166 0.14261 0.31517 0.0
C293 C 0.65657 0.13423 0.27731 0.0
C294 C 0.65498 0.16377 0.26941 0.0
C295 C 0.63258 0.18097 0.28118 0.0
C296 C 0.61592 0.16981 0.30394 0.0
C297 C 0.63993 0.1242 0.30036 0.0
H298 H 0.60023 0.18423 0.31366 0.0
H299 H 0.6441 0.10227 0.30735 0.0
H300 H 0.62582 0.08929 0.40355 0.0
H301 H 0.55354 0.14646 0.39248 0.0
C302 C 0.56157 0.18608 0.35547 0.0
C303 C 0.66641 0.18034 0.37293 0.0
C304 C 0.5545 0.08787 0.31418 0.0
C305 C 0.65096 0.07525 0.35694 0.0
H306 H 0.64049 0.23541 0.38991 0.0
H307 H 0.58327 0.23867 0.38119 0.0
H308 H 0.50784 0.17802 0.32429 0.0
H309 H 0.50482 0.12507 0.30117 0.0
H310 H 0.57486 0.028 0.31388 0.0
H311 H 0.6271 0.02057 0.33776 0.0
H312 H 0.71092 0.08845 0.36776 0.0
H313 H 0.71952 0.14509 0.37317 0.0
H314 H 0.59856 0.06073 0.4381 0.0
H315 H 0.52577 0.11983 0.42749 0.0
H316 H 0.6734 0.11993 0.26864 0.0
H317 H 0.63026 0.20384 0.27517 0.0
C318 C 0.33073 0.63985 0.37629 0.0
C319 C 0.30187 0.63183 0.38168 0.0
C320 C 0.30021 0.60207 0.37804 0.0
C321 C 0.32812 0.59324 0.37105 0.0
N322 N 0.34768 0.61549 0.37078 0.0
Co323 Co 0.39035 0.61153 0.36007 0.0
N324 N 0.38562 0.57065 0.34439 0.0
C325 C 0.36056 0.55482 0.3453 0.0
C326 C 0.36231 0.52882 0.33054 0.0
C327 C 0.39007 0.52813 0.31929 0.0
C328 C 0.4041 0.55365 0.32817 0.0
N329 N 0.4329 0.60814 0.34945 0.0
C330 C 0.4478 0.58721 0.33425 0.0
C331 C 0.47757 0.59364 0.33324 0.0
C332 C 0.4814 0.61967 0.34747 0.0
C333 C 0.45395 0.62762 0.35674 0.0
N334 N 0.39415 0.6534 0.3741 0.0
C335 C 0.41976 0.66826 0.37614 0.0
C336 C 0.41616 0.6977 0.38094 0.0
C337 C 0.38651 0.70218 0.38138 0.0
C338 C 0.37322 0.67504 0.37742 0.0
N339 N 0.40063 0.59472 0.39927 0.0
C340 C 0.43049 0.5599 0.44137 0.0
C341 C 0.43872 0.58906 0.43584 0.0
C342 C 0.42321 0.60608 0.41548 0.0
C343 C 0.40455 0.55021 0.42816 0.0
C344 C 0.38993 0.56791 0.40785 0.0
N345 N 0.38157 0.62673 0.32157 0.0
C346 C 0.39178 0.66177 0.28433 0.0
C347 C 0.36487 0.65549 0.27117 0.0
C348 C 0.34855 0.63167 0.28141 0.0
C349 C 0.35715 0.61777 0.30681 0.0
C350 C 0.39968 0.64711 0.30934 0.0
H351 H 0.34299 0.60103 0.31504 0.0
H352 H 0.4196 0.65389 0.31949 0.0
H353 H 0.43061 0.62803 0.41261 0.0
H354 H 0.37052 0.55885 0.39878 0.0
C355 C 0.33519 0.56613 0.35848 0.0
C356 C 0.34067 0.67101 0.37609 0.0
C357 C 0.43481 0.561 0.32048 0.0
C358 C 0.44645 0.65497 0.36847 0.0
H359 H 0.28362 0.64611 0.3867 0.0
H360 H 0.28052 0.58877 0.37844 0.0
H361 H 0.34511 0.51274 0.32744 0.0
H362 H 0.39859 0.51096 0.30557 0.0
H363 H 0.49476 0.58104 0.32294 0.0
H364 H 0.50165 0.63187 0.34982 0.0
H365 H 0.43308 0.71435 0.3818 0.0
H366 H 0.37622 0.72344 0.38293 0.0
H367 H 0.45784 0.59852 0.44613 0.0
H368 H 0.39571 0.5287 0.43296 0.0
H369 H 0.40536 0.67996 0.27736 0.0
H370 H 0.32793 0.62556 0.27142 0.0
C371 C 0.8731 0.32526 0.3758 0.0
C372 C 0.88228 0.29722 0.38322 0.0
C373 C 0.91199 0.29631 0.37911 0.0
C374 C 0.91968 0.3239 0.37 0.0
N375 N 0.89681 0.34269 0.36885 0.0
Co376 Co 0.89956 0.38498 0.35596 0.0
N377 N 0.94096 0.38111 0.34143 0.0
C378 C 0.95758 0.3567 0.34378 0.0
C379 C 0.9851 0.3598 0.3322 0.0
C380 C 0.98601 0.38778 0.32149 0.0
C381 C 0.9588 0.40034 0.3269 0.0
N382 N 0.90186 0.42729 0.34348 0.0
C383 C 0.92283 0.44255 0.32854 0.0
C384 C 0.91366 0.47117 0.32335 0.0
C385 C 0.88682 0.47431 0.33605 0.0
C386 C 0.88066 0.4475 0.34794 0.0
N387 N 0.85719 0.38778 0.36895 0.0
C388 C 0.84117 0.41274 0.36858 0.0
C389 C 0.81171 0.4082 0.37229 0.0
C390 C 0.8084 0.37855 0.37464 0.0
C391 C 0.83623 0.36621 0.37305 0.0
N392 N 0.91511 0.39766 0.39488 0.0
C393 C 0.94929 0.42873 0.43657 0.0
C394 C 0.92099 0.43808 0.42888 0.0
C395 C 0.90425 0.42206 0.40864 0.0
C396 C 0.95825 0.4015 0.42567 0.0
C397 C 0.94084 0.38632 0.40555 0.0
N398 N 0.88539 0.37358 0.31749 0.0
C399 C 0.85035 0.38103 0.27954 0.0
C400 C 0.85344 0.3518 0.27102 0.0
C401 C 0.87652 0.33543 0.28268 0.0
C402 C 0.89254 0.34696 0.30572 0.0
C403 C 0.86627 0.39131 0.30292 0.0
H404 H 0.90901 0.33321 0.31511 0.0
H405 H 0.8609 0.41281 0.31021 0.0
H406 H 0.88305 0.43053 0.40363 0.0
H407 H 0.94935 0.36596 0.39823 0.0
C408 C 0.94671 0.3314 0.35743 0.0
C409 C 0.84149 0.33382 0.37476 0.0
C410 C 0.95135 0.43083 0.31845 0.0
C411 C 0.85339 0.43922 0.35913 0.0
H412 H 0.86883 0.27891 0.39 0.0
H413 H 0.92605 0.27725 0.38092 0.0
H414 H 1.00252 0.34367 0.3317 0.0
H415 H 1.00476 0.39781 0.31112 0.0
H416 H 0.92461 0.48801 0.31094 0.0
H417 H 0.87277 0.49345 0.33535 0.0
H418 H 0.79435 0.42435 0.37096 0.0
H419 H 0.78745 0.36756 0.37562 0.0
H420 H 0.91219 0.4584 0.43732 0.0
H421 H 0.97905 0.39205 0.43214 0.0
H422 H 0.83297 0.39475 0.27101 0.0
H423 H 0.88003 0.31286 0.27619 0.0
C424 C 0.91769 0.35318 0.83809 0.0
C425 C 0.89564 0.3595 0.81834 0.0
C426 C 0.87816 0.38058 0.83078 0.0
C427 C 0.89039 0.38599 0.85738 0.0
N428 N 0.91464 0.36982 0.86218 0.0
Co429 Co 0.93782 0.36991 0.89828 0.0
N430 N 0.92139 0.4081 0.91078 0.0
C431 C 0.89641 0.42031 0.9011 0.0
C432 C 0.89178 0.44775 0.91266 0.0
C433 C 0.9154 0.45298 0.93053 0.0
C434 C 0.93325 0.42844 0.92882 0.0
N435 N 0.96083 0.37032 0.9346 0.0
C436 C 0.96924 0.39351 0.95104 0.0
C437 C 0.98681 0.38431 0.97379 0.0
C438 C 0.98927 0.35437 0.97141 0.0
C439 C 0.97328 0.34691 0.94733 0.0
N440 N 0.95505 0.33191 0.88626 0.0
C441 C 0.96861 0.31263 0.90381 0.0
C442 C 0.97838 0.28816 0.88947 0.0
C443 C 0.97011 0.29217 0.86126 0.0
C444 C 0.95557 0.31895 0.85995 0.0
N445 N 0.96948 0.39072 0.878 0.0
C446 C 0.01099 0.41458 0.83981 0.0
C447 C 0.01843 0.39116 0.85807 0.0
C448 C 0.9975 0.3799 0.87743 0.0
C449 C 0.98293 0.42675 0.84225 0.0
C450 C 0.96254 0.41441 0.86117 0.0
N451 N 0.90498 0.34846 0.91722 0.0
C452 C 0.86849 0.30995 0.91323 0.0
C453 C 0.85338 0.32039 0.93729 0.0
C454 C 0.86505 0.34492 0.9518 0.0
C455 C 0.89118 0.35836 0.94168 0.0
C456 C 0.89367 0.32429 0.90345 0.0
H457 H 0.89969 0.37721 0.9531 0.0
H458 H 0.90315 0.31616 0.88382 0.0
H459 H 1.00359 0.36164 0.89099 0.0
H460 H 0.94066 0.42326 0.86103 0.0
C461 C 0.88237 0.40856 0.87662 0.0
C462 C 0.93938 0.32947 0.83447 0.0
C463 C 0.96043 0.42415 0.9456 0.0
C464 C 0.97559 0.32033 0.93231 0.0
H465 H 0.89229 0.34957 0.79736 0.0
H466 H 0.85922 0.39115 0.82126 0.0
H467 H 0.87432 0.46294 0.90739 0.0
H468 H 0.91926 0.47263 0.9431 0.0
H469 H 0.99736 0.39771 0.99002 0.0
H470 H 1.00286 0.3401 0.98446 0.0
H471 H 0.99074 0.26995 0.89827 0.0
H472 H 0.9738 0.27682 0.8438 0.0
H473 H 0.04005 0.38134 0.85705 0.0
H474 H 0.97619 0.44473 0.82845 0.0
H475 H 0.86019 0.29131 0.90121 0.0
H476 H 0.85403 0.3537 0.97062 0.0
C477 C 0.16359 0.90759 0.84571 0.0
C478 C 0.1523 0.88758 0.82607 0.0
C479 C 0.12621 0.87793 0.83722 0.0
C480 C 0.12301 0.89258 0.86292 0.0
N481 N 0.14564 0.91077 0.86895 0.0
Co482 Co 0.14922 0.93729 0.90328 0.0
N483 N 0.1091 0.92634 0.91788 0.0
C484 C 0.09128 0.90529 0.907 0.0
C485 C 0.06433 0.90417 0.92019 0.0
C486 C 0.06469 0.92624 0.94019 0.0
C487 C 0.09187 0.93976 0.93798 0.0
N488 N 0.1522 0.96455 0.93724 0.0
C489 C 0.13093 0.97469 0.95538 0.0
C490 C 0.14187 0.99597 0.97396 0.0
C491 C 0.17079 0.99954 0.96728 0.0
C492 C 0.17592 0.98058 0.9449 0.0
N493 N 0.18928 0.94847 0.88911 0.0
C494 C 0.2088 0.96606 0.90266 0.0
C495 C 0.23448 0.96992 0.88775 0.0
C496 C 0.2311 0.95397 0.86306 0.0
C497 C 0.20339 0.9413 0.86436 0.0
N498 N 0.13161 0.96937 0.8798 0.0
C499 C 0.11085 0.00948 0.83799 0.0
C500 C 0.13673 0.01507 0.8534 0.0
C501 C 0.14636 0.9951 0.87457 0.0
C502 C 0.09489 0.98435 0.84505 0.0
C503 C 0.10559 0.96475 0.86564 0.0
N504 N 0.16769 0.90396 0.92567 0.0
C505 C 0.21149 0.88245 0.94742 0.0
C506 C 0.20184 0.85394 0.94115 0.0
C507 C 0.17349 0.85106 0.93003 0.0
C508 C 0.15685 0.87595 0.92312 0.0
C509 C 0.1941 0.90693 0.93979 0.0
H510 H 0.13565 0.87169 0.91474 0.0
H511 H 0.20295 0.928 0.94468 0.0
H512 H 0.16619 1.00034 0.88592 0.0
H513 H 0.09291 0.9454 0.86888 0.0
C514 C 0.09855 0.89076 0.88124 0.0
C515 C 0.19123 0.92328 0.84127 0.0
C516 C 0.09987 0.96601 0.95459 0.0
C517 C 0.20135 0.98045 0.92818 0.0
H518 H 0.16184 0.8809 0.8057 0.0
H519 H 0.11111 0.86249 0.82747 0.0
H520 H 0.04593 0.89022 0.91467 0.0
H521 H 0.04661 0.93244 0.95407 0.0
H522 H 0.1301 1.00864 0.98991 0.0
H523 H 0.18582 0.0154 0.97645 0.0
H524 H 0.2531 0.98337 0.89375 0.0
H525 H 0.24706 0.95226 0.84582 0.0
H526 H 0.14956 0.03458 0.84897 0.0
H527 H 0.07477 0.97903 0.83371 0.0
H528 H 0.23294 0.88598 0.95691 0.0
H529 H 0.1643 0.82951 0.926 0.0
C530 C 0.61657 0.15696 0.84472 0.0
C531 C 0.637 0.14481 0.82602 0.0
C532 C 0.64559 0.11874 0.83799 0.0
C533 C 0.62992 0.11639 0.86319 0.0
N534 N 0.612 0.13949 0.86811 0.0
Co535 Co 0.58456 0.14437 0.90162 0.0
N536 N 0.59463 0.10464 0.91775 0.0
C537 C 0.61586 0.08638 0.90806 0.0
C538 C 0.61636 0.05986 0.92212 0.0
C539 C 0.59367 0.06095 0.94141 0.0
C540 C 0.5804 0.0881 0.93793 0.0
N541 N 0.55633 0.14857 0.93473 0.0
C542 C 0.54526 0.12787 0.95305 0.0
C543 C 0.52341 0.13952 0.97053 0.0
C544 C 0.52045 0.16829 0.96296 0.0
C545 C 0.54029 0.17263 0.94116 0.0
N546 N 0.57429 0.18408 0.88593 0.0
C547 C 0.55658 0.20417 0.89845 0.0
C548 C 0.5538 0.22962 0.88293 0.0
C549 C 0.57069 0.22553 0.85895 0.0
C550 C 0.58276 0.19762 0.86122 0.0
N551 N 0.5529 0.12637 0.87791 0.0
C552 C 0.51294 0.10461 0.83647 0.0
C553 C 0.50739 0.13091 0.85113 0.0
C554 C 0.52729 0.14107 0.87208 0.0
C555 C 0.53801 0.08878 0.84405 0.0
C556 C 0.55754 0.09999 0.86447 0.0
N557 N 0.61746 0.16331 0.92425 0.0
C558 C 0.63825 0.20778 0.94534 0.0
C559 C 0.66691 0.1986 0.93906 0.0
C560 C 0.67027 0.17014 0.92837 0.0
C561 C 0.64563 0.15289 0.92187 0.0
C562 C 0.61405 0.18984 0.93802 0.0
H563 H 0.65018 0.13159 0.91388 0.0
H564 H 0.59283 0.19837 0.94281 0.0
H565 H 0.52206 0.16123 0.88282 0.0
H566 H 0.57681 0.08734 0.86829 0.0
C567 C 0.63104 0.09262 0.88242 0.0
C568 C 0.60187 0.18495 0.83924 0.0
C569 C 0.5536 0.09668 0.95342 0.0
C570 C 0.54129 0.19758 0.92373 0.0
H571 H 0.64475 0.15381 0.80577 0.0
H572 H 0.66117 0.10321 0.8292 0.0
H573 H 0.6303 0.04121 0.91755 0.0
H574 H 0.58689 0.04333 0.95561 0.0
H575 H 0.50998 0.12831 0.98629 0.0
H576 H 0.5044 0.1837 0.97114 0.0
H577 H 0.5406 0.24864 0.88814 0.0
H578 H 0.57358 0.24122 0.84161 0.0
H579 H 0.48794 0.14366 0.84631 0.0
H580 H 0.54329 0.06834 0.8333 0.0
H581 H 0.63438 0.22929 0.95453 0.0
H582 H 0.69197 0.16133 0.92438 0.0
C583 C 0.35495 0.60682 0.83934 0.0
C584 C 0.36274 0.62998 0.82141 0.0
C585 C 0.38369 0.64595 0.83588 0.0
C586 C 0.38756 0.63176 0.86179 0.0
N587 N 0.37058 0.6077 0.86427 0.0
Co588 Co 0.36843 0.58214 0.89879 0.0
N589 N 0.40628 0.59695 0.91433 0.0
C590 C 0.41955 0.62211 0.90661 0.0
C591 C 0.44649 0.62543 0.91962 0.0
C592 C 0.4503 0.6008 0.93643 0.0
C593 C 0.42532 0.58376 0.93292 0.0
N594 N 0.36651 0.55676 0.93346 0.0
C595 C 0.38855 0.54704 0.9507 0.0
C596 C 0.37776 0.52896 0.97233 0.0
C597 C 0.34797 0.52709 0.96815 0.0
C598 C 0.3422 0.54418 0.94432 0.0
N599 N 0.33076 0.56652 0.88378 0.0
C600 C 0.31038 0.55219 0.89946 0.0
C601 C 0.28639 0.54406 0.88341 0.0
C602 C 0.29187 0.55428 0.85606 0.0
C603 C 0.31899 0.56823 0.85695 0.0
N604 N 0.38964 0.55147 0.87753 0.0
C605 C 0.41401 0.5124 0.83704 0.0
C606 C 0.39023 0.50392 0.85452 0.0
C607 C 0.37856 0.52368 0.87482 0.0
C608 C 0.42659 0.54 0.84212 0.0
C609 C 0.41405 0.55912 0.8621 0.0
N610 N 0.34668 0.6141 0.91873 0.0
C611 C 0.30964 0.65203 0.91488 0.0
C612 C 0.31943 0.66547 0.94012 0.0
C613 C 0.34269 0.65214 0.95523 0.0
C614 C 0.35574 0.62616 0.94438 0.0
C615 C 0.32354 0.62688 0.90452 0.0
H616 H 0.37372 0.61642 0.9562 0.0
H617 H 0.31605 0.61876 0.88407 0.0
H618 H 0.35971 0.51699 0.88731 0.0
H619 H 0.42342 0.58071 0.86397 0.0
C620 C 0.40935 0.63788 0.8825 0.0
C621 C 0.33084 0.58617 0.83321 0.0
C622 C 0.41953 0.55562 0.94782 0.0
C623 C 0.31641 0.54332 0.92786 0.0
H624 H 0.35386 0.63506 0.80031 0.0
H625 H 0.39515 0.66522 0.82813 0.0
H626 H 0.46237 0.64269 0.91586 0.0
H627 H 0.46948 0.59582 0.94926 0.0
H628 H 0.39018 0.51802 0.98911 0.0
H629 H 0.33268 0.51343 0.97998 0.0
H630 H 0.26747 0.53166 0.89054 0.0
H631 H 0.2772 0.55235 0.83776 0.0
H632 H 0.37982 0.48275 0.85173 0.0
H633 H 0.44565 0.5473 0.83012 0.0
H634 H 0.29193 0.66165 0.90243 0.0
H635 H 0.35091 0.66185 0.97497 0.0
C636 C 0.92364 0.1612 0.66477 0.0
C637 C 0.9014 0.15451 0.6842 0.0
C638 C 0.88408 0.13359 0.67129 0.0
C639 C 0.89661 0.12862 0.64476 0.0
N640 N 0.92093 0.14486 0.64044 0.0
Co641 Co 0.94422 0.14559 0.6044 0.0
N642 N 0.92738 0.10789 0.59065 0.0
C643 C 0.90251 0.09538 0.60024 0.0
C644 C 0.89777 0.06825 0.58806 0.0
C645 C 0.92119 0.06351 0.56984 0.0
C646 C 0.93897 0.08812 0.57181 0.0
N647 N 0.96716 0.14621 0.56811 0.0
C648 C 0.97519 0.12357 0.55087 0.0
C649 C 0.99209 0.13335 0.52789 0.0
C650 C 0.99499 0.16316 0.53124 0.0
C651 C 0.97967 0.16992 0.55595 0.0
N652 N 0.96221 0.1829 0.61769 0.0
C653 C 0.97619 0.20249 0.60078 0.0
C654 C 0.98626 0.22639 0.61585 0.0
C655 C 0.97767 0.22173 0.64388 0.0
C656 C 0.96272 0.19513 0.64436 0.0
N657 N 0.97565 0.12378 0.62404 0.0
C658 C 0.01662 0.09921 0.66244 0.0
C659 C 0.02452 0.12249 0.64415 0.0
C660 C 1.00385 0.13413 0.62473 0.0
C661 C 0.98839 0.08742 0.65972 0.0
C662 C 0.96832 0.10003 0.64064 0.0
N663 N 0.91142 0.16801 0.58628 0.0
C664 C 0.8756 0.20672 0.59257 0.0
C665 C 0.85736 0.19521 0.57106 0.0
C666 C 0.86822 0.17086 0.55551 0.0
C667 C 0.89544 0.15784 0.56321 0.0
C668 C 0.90163 0.19271 0.60016 0.0
H669 H 0.90279 0.13881 0.55136 0.0
H670 H 0.91272 0.20147 0.61863 0.0
H671 H 0.01027 0.15239 0.61131 0.0
H672 H 0.94633 0.09144 0.64057 0.0
C673 C 0.88861 0.10651 0.62503 0.0
C674 C 0.94535 0.18477 0.66914 0.0
C675 C 0.9663 0.0929 0.55526 0.0
C676 C 0.98268 0.19585 0.57191 0.0
H677 H 0.89783 0.16406 0.70531 0.0
H678 H 0.86501 0.12289 0.68043 0.0
H679 H 0.88043 0.05286 0.59321 0.0
H680 H 0.92494 0.04399 0.55709 0.0
H681 H 1.00168 0.12023 0.51085 0.0
H682 H 1.00836 0.17776 0.51831 0.0
H683 H 0.99873 0.24479 0.60759 0.0
H684 H 0.98115 0.2367 0.6617 0.0
H685 H 0.04628 0.13201 0.64525 0.0
H686 H 0.98122 0.06956 0.67346 0.0
H687 H 0.86948 0.22618 0.60454 0.0
H688 H 0.85539 0.16116 0.5383 0.0
C689 C 0.35443 0.91457 0.66731 0.0
C690 C 0.36155 0.89183 0.68602 0.0
C691 C 0.38234 0.87504 0.67232 0.0
C692 C 0.38679 0.88836 0.64607 0.0
N693 N 0.37038 0.91269 0.64264 0.0
Co694 Co 0.36881 0.93683 0.60711 0.0
N695 N 0.40618 0.92033 0.59212 0.0
C696 C 0.41895 0.89532 0.60094 0.0
C697 C 0.44583 0.89091 0.58814 0.0
C698 C 0.45015 0.91471 0.5703 0.0
C699 C 0.42553 0.93235 0.57308 0.0
N700 N 0.36736 0.9606 0.57133 0.0
C701 C 0.38957 0.96892 0.55365 0.0
C702 C 0.37927 0.98632 0.53126 0.0
C703 C 0.34958 0.98928 0.53547 0.0
C704 C 0.34342 0.97347 0.56004 0.0
N705 N 0.33181 0.95446 0.62167 0.0
C706 C 0.312 0.96916 0.60561 0.0
C707 C 0.28857 0.97902 0.62147 0.0
C708 C 0.2937 0.9695 0.64911 0.0
C709 C 0.32004 0.95413 0.64856 0.0
N710 N 0.39112 0.96783 0.62687 0.0
C711 C 0.41729 1.00842 0.66462 0.0
C712 C 0.39349 0.01658 0.64712 0.0
C713 C 0.38102 0.99609 0.62804 0.0
C714 C 0.42865 0.98007 0.66152 0.0
C715 C 0.41524 0.9602 0.64277 0.0
N716 N 0.34596 0.9045 0.58875 0.0
C717 C 0.30737 0.86852 0.59491 0.0
C718 C 0.31818 0.85111 0.57243 0.0
C719 C 0.34212 0.86249 0.55659 0.0
C720 C 0.35545 0.88937 0.56489 0.0
C721 C 0.32164 0.89425 0.60297 0.0
H722 H 0.37416 0.89714 0.55277 0.0
H723 H 0.31341 0.90473 0.62199 0.0
H724 H 0.36243 1.00274 0.61518 0.0
H725 H 0.42365 0.93815 0.6423 0.0
C726 C 0.40843 0.88087 0.62568 0.0
C727 C 0.33047 0.93562 0.67252 0.0
C728 C 0.42034 0.95997 0.55711 0.0
C729 C 0.31797 0.97632 0.57675 0.0
H730 H 0.35226 0.88749 0.70711 0.0
H731 H 0.39322 0.85574 0.68073 0.0
H732 H 0.46137 0.87354 0.59266 0.0
H733 H 0.46945 0.91879 0.55732 0.0
H734 H 0.39197 0.99623 0.51407 0.0
H735 H 0.33471 1.00298 0.5232 0.0
H736 H 0.27016 0.99195 0.61397 0.0
H737 H 0.27918 0.97263 0.66735 0.0
H738 H 0.38426 0.03843 0.64855 0.0
H739 H 0.44688 0.9727 0.67467 0.0
H740 H 0.28824 0.86195 0.6072 0.0
H741 H 0.35126 0.8503 0.53867 0.0
C742 C 0.61872 0.34711 0.66227 0.0
C743 C 0.64114 0.35647 0.68033 0.0
C744 C 0.65125 0.38239 0.66923 0.0
C745 C 0.63456 0.38737 0.64506 0.0
N746 N 0.61443 0.36616 0.64006 0.0
Co747 Co 0.58582 0.36477 0.6072 0.0
N748 N 0.59787 0.40476 0.59282 0.0
C749 C 0.6198 0.42162 0.60349 0.0
C750 C 0.62099 0.44909 0.59144 0.0
C751 C 0.59806 0.45015 0.57243 0.0
C752 C 0.58418 0.42307 0.57376 0.0
N753 N 0.5571 0.36365 0.57438 0.0
C754 C 0.54768 0.38548 0.55658 0.0
C755 C 0.5266 0.37548 0.53733 0.0
C756 C 0.52176 0.34667 0.54384 0.0
C757 C 0.54022 0.34065 0.56647 0.0
N758 N 0.57295 0.32525 0.62157 0.0
C759 C 0.55284 0.30745 0.60912 0.0
C760 C 0.54767 0.28213 0.62424 0.0
C761 C 0.56551 0.28384 0.64783 0.0
C762 C 0.5808 0.31015 0.64561 0.0
N763 N 0.55581 0.38357 0.63227 0.0
C764 C 0.51765 0.40567 0.67525 0.0
C765 C 0.50905 0.38238 0.6573 0.0
C766 C 0.5283 0.37186 0.63587 0.0
C767 C 0.5448 0.41881 0.66971 0.0
C768 C 0.56331 0.40751 0.64853 0.0
N769 N 0.61707 0.34508 0.58306 0.0
C770 C 0.63684 0.30009 0.56222 0.0
C771 C 0.66586 0.31029 0.56458 0.0
C772 C 0.66932 0.33941 0.57373 0.0
C773 C 0.64501 0.35627 0.58205 0.0
C774 C 0.61307 0.3177 0.57124 0.0
H775 H 0.64981 0.37801 0.58864 0.0
H776 H 0.59176 0.30831 0.56913 0.0
H777 H 0.52098 0.35379 0.62291 0.0
H778 H 0.58402 0.41806 0.64628 0.0
C779 C 0.63606 0.41247 0.6276 0.0
C780 C 0.60246 0.31979 0.66688 0.0
C781 C 0.55709 0.4162 0.55787 0.0
C782 C 0.53877 0.31548 0.58354 0.0
H783 H 0.64929 0.34569 0.69956 0.0
H784 H 0.66844 0.39617 0.67798 0.0
H785 H 0.63567 0.46687 0.59709 0.0
H786 H 0.59166 0.46916 0.55996 0.0
H787 H 0.51515 0.38801 0.52096 0.0
H788 H 0.50547 0.33232 0.53432 0.0
H789 H 0.53249 0.26467 0.61891 0.0
H790 H 0.56692 0.26756 0.66479 0.0
H791 H 0.48806 0.37166 0.66033 0.0
H792 H 0.55213 0.43765 0.68202 0.0
H793 H 0.63228 0.27837 0.55391 0.0
H794 H 0.69086 0.34917 0.57586 0.0
C795 C 0.16512 0.60893 0.65947 0.0
C796 C 0.15564 0.62975 0.6792 0.0
C797 C 0.12954 0.64037 0.66901 0.0
C798 C 0.12455 0.62548 0.64373 0.0
N799 N 0.146 0.60613 0.6371 0.0
Co800 Co 0.14713 0.57946 0.60272 0.0
N801 N 0.10694 0.59209 0.58949 0.0
C802 C 0.09026 0.61353 0.60129 0.0
C803 C 0.06272 0.61539 0.58946 0.0
C804 C 0.06145 0.59342 0.56941 0.0
C805 C 0.08844 0.57936 0.57 0.0
N806 N 0.14782 0.55234 0.56862 0.0
C807 C 0.1256 0.54342 0.55103 0.0
C808 C 0.13517 0.52294 0.53097 0.0
C809 C 0.16415 0.51802 0.53666 0.0
C810 C 0.17067 0.5358 0.55969 0.0
N811 N 0.18705 0.56634 0.61566 0.0
C812 C 0.20511 0.54761 0.60163 0.0
C813 C 0.23098 0.54238 0.61581 0.0
C814 C 0.22932 0.55864 0.64049 0.0
C815 C 0.2024 0.57294 0.63989 0.0
N816 N 0.12892 0.54804 0.62655 0.0
C817 C 0.10704 0.50742 0.66726 0.0
C818 C 0.13163 0.50072 0.65037 0.0
C819 C 0.14184 0.52105 0.6298 0.0
C820 C 0.09297 0.53415 0.66247 0.0
C821 C 0.10423 0.55398 0.6424 0.0
N822 N 0.16624 0.61205 0.57981 0.0
C823 C 0.21019 0.63237 0.55729 0.0
C824 C 0.20088 0.66132 0.56224 0.0
C825 C 0.17262 0.66472 0.57367 0.0
C826 C 0.1558 0.64023 0.58159 0.0
C827 C 0.19261 0.60837 0.56586 0.0
H828 H 0.13479 0.64501 0.59013 0.0
H829 H 0.20123 0.58709 0.56159 0.0
H830 H 0.16058 0.51493 0.61718 0.0
H831 H 0.09306 0.57442 0.64077 0.0
C832 C 0.09935 0.62805 0.6265 0.0
C833 C 0.19235 0.59228 0.66296 0.0
C834 C 0.09495 0.55283 0.55317 0.0
C835 C 0.19645 0.53422 0.57588 0.0
H836 H 0.1664 0.63639 0.699 0.0
H837 H 0.11561 0.65664 0.6791 0.0
H838 H 0.04499 0.62973 0.59599 0.0
H839 H 0.04235 0.58763 0.55675 0.0
H840 H 0.12226 0.51198 0.51457 0.0
H841 H 0.17833 0.50216 0.52628 0.0
H842 H 0.2487 0.52806 0.60923 0.0
H843 H 0.24595 0.55966 0.65716 0.0
H844 H 0.14297 0.48001 0.65309 0.0
H845 H 0.07393 0.54037 0.6751 0.0
H846 H 0.23118 0.62803 0.54723 0.0
H847 H 0.16364 0.68627 0.5779 0.0
C848 C 0.21773 0.70027 0.13501 0.0
C849 C 0.1896 0.7028 0.12229 0.0
C850 C 0.23979 0.72262 0.13272 0.0
C851 C 0.23357 0.75051 0.1198 0.0
C852 C 0.20584 0.75265 0.10562 0.0
C853 C 0.18514 0.72889 0.10613 0.0
C854 C 0.27021 0.71483 0.14283 0.0
C855 C 0.19835 0.77993 0.08873 0.0
C856 C 0.27387 0.82395 0.142 0.0
C857 C 0.29894 0.8251 0.12407 0.0
C858 C 0.25242 0.80098 0.14034 0.0
C859 C 0.25563 0.77693 0.12061 0.0
C860 C 0.28015 0.77881 0.10139 0.0
C861 C 0.30097 0.80241 0.10326 0.0
C862 C 0.22632 0.80349 0.1602 0.0
C863 C 0.28444 0.75596 0.07824 0.0
H864 H 0.223 0.68022 0.14648 0.0
H865 H 0.16573 0.73068 0.09287 0.0
H866 H 0.28006 0.69946 0.12696 0.0
H867 H 0.28489 0.73402 0.14457 0.0
H868 H 0.26943 0.7029 0.16369 0.0
H869 H 0.17742 0.77769 0.07663 0.0
H870 H 0.19639 0.79884 0.1037 0.0
H871 H 0.21623 0.78506 0.07323 0.0
H872 H 0.27088 0.84125 0.15779 0.0
H873 H 0.31886 0.8032 0.08789 0.0
H874 H 0.23396 0.80448 0.18295 0.0
H875 H 0.21028 0.78541 0.15785 0.0
H876 H 0.2148 0.8245 0.15586 0.0
H877 H 0.29444 0.7361 0.08796 0.0
H878 H 0.29924 0.76386 0.06082 0.0
H879 H 0.26314 0.74951 0.06847 0.0
C880 C 0.7968 0.2043 0.14953 0.0
C881 C 0.82221 0.20763 0.13219 0.0
C882 C 0.77209 0.22373 0.14762 0.0
C883 C 0.77216 0.24842 0.12866 0.0
C884 C 0.79754 0.25175 0.1109 0.0
C885 C 0.82141 0.23128 0.11232 0.0
C886 C 0.74524 0.21744 0.16556 0.0
C887 C 0.79957 0.27705 0.09 0.0
C888 C 0.69841 0.28911 0.10915 0.0
C889 C 0.69655 0.31217 0.12958 0.0
C890 C 0.72215 0.26843 0.10867 0.0
C891 C 0.74625 0.27085 0.12824 0.0
C892 C 0.74518 0.29482 0.14801 0.0
C893 C 0.72067 0.31456 0.14873 0.0
C894 C 0.72142 0.24399 0.08676 0.0
C895 C 0.77066 0.30006 0.16807 0.0
H896 H 0.79614 0.18623 0.16473 0.0
H897 H 0.83963 0.23389 0.09753 0.0
H898 H 0.73868 0.23722 0.17792 0.0
H899 H 0.72666 0.21175 0.1511 0.0
H900 H 0.74876 0.19905 0.18077 0.0
H901 H 0.82193 0.27933 0.08071 0.0
H902 H 0.78384 0.2736 0.07204 0.0
H903 H 0.79356 0.29792 0.10084 0.0
H904 H 0.68119 0.28719 0.09313 0.0
H905 H 0.72049 0.33218 0.16443 0.0
H906 H 0.72693 0.2227 0.09707 0.0
H907 H 0.73809 0.24824 0.06981 0.0
H908 H 0.69963 0.24204 0.07617 0.0
H909 H 0.77641 0.27965 0.17983 0.0
H910 H 0.76597 0.31753 0.18394 0.0
H911 H 0.79019 0.30658 0.15526 0.0
C912 C 0.20808 0.79678 0.39394 0.0
C913 C 0.21097 0.82049 0.37433 0.0
C914 C 0.22827 0.77265 0.3949 0.0
C915 C 0.25378 0.77206 0.37701 0.0
C916 C 0.25787 0.79677 0.35848 0.0
C917 C 0.2366 0.81997 0.35703 0.0
C918 C 0.22212 0.74764 0.41534 0.0
C919 C 0.28495 0.79864 0.33983 0.0
C920 C 0.31983 0.72018 0.39708 0.0
C921 C 0.31828 0.69707 0.37667 0.0
C922 C 0.29981 0.74446 0.39712 0.0
C923 C 0.27582 0.74582 0.37732 0.0
C924 C 0.27317 0.72175 0.35772 0.0
C925 C 0.29435 0.6985 0.35722 0.0
C926 C 0.30436 0.76878 0.41873 0.0
C927 C 0.247 0.71972 0.33793 0.0
H928 H 0.1898 0.79696 0.40887 0.0
H929 H 0.24003 0.83781 0.34192 0.0
H930 H 0.22414 0.72631 0.40395 0.0
H931 H 0.23849 0.74775 0.43306 0.0
H932 H 0.19986 0.74912 0.42502 0.0
H933 H 0.28489 0.81834 0.32568 0.0
H934 H 0.30478 0.79931 0.35373 0.0
H935 H 0.28672 0.77876 0.3261 0.0
H936 H 0.33674 0.71929 0.41347 0.0
H937 H 0.29188 0.68101 0.34155 0.0
H938 H 0.28564 0.76944 0.434 0.0
H939 H 0.3051 0.79029 0.40751 0.0
H940 H 0.32493 0.76596 0.43131 0.0
H941 H 0.22756 0.7129 0.35072 0.0
H942 H 0.25033 0.70343 0.32041 0.0
H943 H 0.24189 0.74135 0.32833 0.0
C944 C 0.79169 0.31387 0.39571 0.0
C945 C 0.81612 0.31053 0.37704 0.0
C946 C 0.76775 0.29341 0.39671 0.0
C947 C 0.76781 0.26729 0.37966 0.0
C948 C 0.79396 0.26217 0.36324 0.0
C949 C 0.81666 0.28392 0.36127 0.0
C950 C 0.74253 0.2996 0.41687 0.0
C951 C 0.79959 0.23309 0.34874 0.0
C952 C 0.71658 0.19899 0.39421 0.0
C953 C 0.69226 0.20304 0.37553 0.0
C954 C 0.74066 0.21928 0.39586 0.0
C955 C 0.74101 0.24572 0.37923 0.0
C956 C 0.71514 0.2513 0.3625 0.0
C957 C 0.69216 0.2299 0.36015 0.0
C958 C 0.76556 0.21252 0.41626 0.0
C959 C 0.7102 0.28046 0.34784 0.0
H960 H 0.79126 0.33257 0.4101 0.0
H961 H 0.83527 0.2797 0.34732 0.0
H962 H 0.72333 0.3071 0.40414 0.0
H963 H 0.736 0.2794 0.42866 0.0
H964 H 0.748 0.31692 0.43286 0.0
H965 H 0.81578 0.22072 0.36188 0.0
H966 H 0.77973 0.21936 0.34669 0.0
H967 H 0.80974 0.23616 0.32716 0.0
H968 H 0.71676 0.17994 0.40818 0.0
H969 H 0.67367 0.23458 0.34617 0.0
H970 H 0.77252 0.23254 0.42809 0.0
H971 H 0.78465 0.20448 0.40371 0.0
H972 H 0.75951 0.19536 0.43224 0.0
H973 H 0.69373 0.29298 0.36047 0.0
H974 H 0.7007 0.27744 0.32596 0.0
H975 H 0.73024 0.29402 0.34628 0.0
C976 C 0.79812 0.31927 0.93904 0.0
C977 C 0.82506 0.30588 0.9455 0.0
C978 C 0.77143 0.30347 0.94067 0.0
C979 C 0.77148 0.27353 0.9493 0.0
C980 C 0.79856 0.26049 0.95741 0.0
C981 C 0.82493 0.27663 0.95502 0.0
C982 C 0.74339 0.31832 0.9314 0.0
C983 C 0.79991 0.22895 0.96726 0.0
C984 C 0.69851 0.23465 0.9674 0.0
C985 C 0.6931 0.21855 0.94205 0.0
C986 C 0.72383 0.25251 0.97023 0.0
C987 C 0.74399 0.25503 0.94692 0.0
C988 C 0.73817 0.23928 0.92111 0.0
C989 C 0.71314 0.22116 0.91913 0.0
C990 C 0.72931 0.26825 0.99839 0.0
C991 C 0.75848 0.24149 0.89543 0.0
H992 H 0.79811 0.34166 0.9311 0.0
H993 H 0.8457 0.26602 0.95968 0.0
H994 H 0.73551 0.30834 0.91095 0.0
H995 H 0.72598 0.31499 0.94782 0.0
H996 H 0.74641 0.34225 0.9279 0.0
H997 H 0.82179 0.22315 0.97618 0.0
H998 H 0.783 0.2247 0.98399 0.0
H999 H 0.79519 0.21424 0.94875 0.0
H1000 H 0.68331 0.2327 0.9853 0.0
H1001 H 0.70904 0.20916 0.89932 0.0
H1002 H 0.73149 0.29218 0.99454 0.0
H1003 H 0.7503 0.26061 0.00795 0.0
H1004 H 0.71144 0.26452 0.01431 0.0
H1005 H 0.76114 0.2648 0.88897 0.0
H1006 H 0.75031 0.22888 0.87653 0.0
H1007 H 0.78054 0.23308 0.9013 0.0
C1008 C 0.27686 0.69471 0.95918 0.0
C1009 C 0.3058 0.69399 0.94883 0.0
C1010 C 0.26127 0.72139 0.96164 0.0
C1011 C 0.27456 0.74812 0.95281 0.0
C1012 C 0.30426 0.74757 0.94347 0.0
C1013 C 0.31949 0.72061 0.9417 0.0
C1014 C 0.22995 0.72069 0.97219 0.0
C1015 C 0.31939 0.77524 0.93352 0.0
C1016 C 0.22308 0.80679 0.92204 0.0
C1017 C 0.22118 0.82738 0.94456 0.0
C1018 C 0.24057 0.78139 0.92441 0.0
C1019 C 0.25647 0.7758 0.95018 0.0
C1020 C 0.25469 0.79648 0.97309 0.0
C1021 C 0.23739 0.82212 0.96989 0.0
C1022 C 0.24194 0.76045 0.89917 0.0
C1023 C 0.27068 0.79126 1.00116 0.0
H1024 H 0.266 0.67418 0.96428 0.0
H1025 H 0.34162 0.72013 0.9331 0.0
H1026 H 0.22633 0.73798 0.98868 0.0
H1027 H 0.21488 0.72526 0.95391 0.0
H1028 H 0.22402 0.69908 0.98166 0.0
H1029 H 0.34321 0.77181 0.92969 0.0
H1030 H 0.30919 0.78294 0.91311 0.0
H1031 H 0.31662 0.79295 0.94972 0.0
H1032 H 0.21103 0.81075 0.90223 0.0
H1033 H 0.23599 0.83773 0.98749 0.0
H1034 H 0.23341 0.73864 0.90573 0.0
H1035 H 0.26507 0.75738 0.8923 0.0
H1036 H 0.22902 0.76831 0.88035 0.0
H1037 H 0.26293 0.7705 0.01111 0.0
H1038 H 0.26735 0.8094 0.01685 0.0
H1039 H 0.29455 0.78878 0.9971 0.0
C1040 C 0.71947 0.30281 0.5505 0.0
C1041 C 0.69227 0.2908 0.55899 0.0
C1042 C 0.74524 0.28566 0.54923 0.0
C1043 C 0.74408 0.25524 0.55558 0.0
C1044 C 0.71643 0.24247 0.56202 0.0
C1045 C 0.69112 0.26031 0.56406 0.0
C1046 C 0.77408 0.30054 0.54263 0.0
C1047 C 0.71372 0.21003 0.56801 0.0
C1048 C 0.81363 0.20983 0.5392 0.0
C1049 C 0.82717 0.20841 0.56652 0.0
C1050 C 0.78618 0.22404 0.53531 0.0
C1051 C 0.77208 0.23784 0.55911 0.0
C1052 C 0.7853 0.23582 0.58672 0.0
C1053 C 0.812 0.22072 0.59013 0.0
C1054 C 0.77253 0.22465 0.50562 0.0
C1055 C 0.7716 0.25032 0.61279 0.0
H1056 H 0.72096 0.32594 0.5454 0.0
H1057 H 0.67067 0.25033 0.57078 0.0
H1058 H 0.78858 0.29934 0.56187 0.0
H1059 H 0.78547 0.2891 0.52473 0.0
H1060 H 0.77124 0.32397 0.53662 0.0
H1061 H 0.6905 0.20257 0.56759 0.0
H1062 H 0.72639 0.19719 0.55192 0.0
H1063 H 0.72294 0.20505 0.58964 0.0
H1064 H 0.82469 0.20042 0.5207 0.0
H1065 H 0.82112 0.21885 0.61165 0.0
H1066 H 0.77371 0.24719 0.49667 0.0
H1067 H 0.74898 0.21851 0.50682 0.0
H1068 H 0.7838 0.20954 0.49041 0.0
H1069 H 0.76876 0.27415 0.60869 0.0
H1070 H 0.78505 0.24754 0.63262 0.0
H1071 H 0.74951 0.24098 0.61687 0.0
C1072 C 0.25116 0.68587 0.56051 0.0
C1073 C 0.22049 0.68768 0.55696 0.0
C1074 C 0.26927 0.71104 0.55894 0.0
C1075 C 0.25662 0.73912 0.55442 0.0
C1076 C 0.22597 0.74097 0.54949 0.0
C1077 C 0.20849 0.71539 0.55038 0.0
C1078 C 0.3019 0.70768 0.56337 0.0
C1079 C 0.21127 0.77027 0.54482 0.0
C1080 C 0.29324 0.80504 0.59054 0.0
C1081 C 0.30471 0.8212 0.56714 0.0
C1082 C 0.27782 0.77859 0.58657 0.0
C1083 C 0.27456 0.7667 0.5585 0.0
C1084 C 0.28754 0.78179 0.53482 0.0
C1085 C 0.30212 0.80893 0.53935 0.0
C1086 C 0.26428 0.76378 0.61257 0.0
C1087 C 0.28556 0.76961 0.50459 0.0
H1088 H 0.26109 0.66495 0.56572 0.0
H1089 H 0.18515 0.71739 0.54651 0.0
H1090 H 0.31418 0.72076 0.54714 0.0
H1091 H 0.30802 0.71608 0.58504 0.0
H1092 H 0.30897 0.6844 0.56184 0.0
H1093 H 0.18754 0.76801 0.53975 0.0
H1094 H 0.21359 0.78387 0.56457 0.0
H1095 H 0.22207 0.7823 0.52691 0.0
H1096 H 0.296 0.81321 0.61233 0.0
H1097 H 0.31085 0.82081 0.52098 0.0
H1098 H 0.27334 0.74135 0.61512 0.0
H1099 H 0.24022 0.76156 0.60943 0.0
H1100 H 0.26823 0.77612 0.63289 0.0
H1101 H 0.2903 0.74572 0.5045 0.0
H1102 H 0.30103 0.78077 0.48962 0.0
H1103 H 0.26297 0.77262 0.49619 0.0
C1104 C 0.98159 0.47784 0.31095 0.0
C1105 C 0.97275 0.44997 0.30105 0.0
C1106 C 0.99931 0.49686 0.294 0.0
C1107 C 0.01069 0.48743 0.26689 0.0
C1108 C 1.0033 0.45851 0.25762 0.0
C1109 C 0.98401 0.4407 0.27425 0.0
C1110 C 1.00536 0.52734 0.30525 0.0
C1111 C 0.01547 0.44582 0.23002 0.0
C1112 C 0.03454 0.54088 0.20601 0.0
C1113 C 0.0635 0.5486 0.21355 0.0
C1114 C 0.01717 0.52192 0.22333 0.0
C1115 C 0.02934 0.50802 0.24814 0.0
C1116 C 0.05925 0.51434 0.25488 0.0
C1117 C 0.0755 0.53488 0.23811 0.0
C1118 C 0.98553 0.5172 0.21488 0.0
C1119 C 0.07469 0.49962 0.27979 0.0
H1120 H 0.97397 0.48521 0.3319 0.0
H1121 H 0.97774 0.41929 0.26612 0.0
H1122 H 0.02723 0.5277 0.31573 0.0
H1123 H 1.0054 0.54374 0.28751 0.0
H1124 H 0.98887 0.53411 0.32161 0.0
H1125 H 0.9987 0.44768 0.21275 0.0
H1126 H 0.03581 0.45701 0.2228 0.0
H1127 H 0.02028 0.42208 0.2328 0.0
H1128 H 0.02506 0.55016 0.18657 0.0
H1129 H 0.09787 0.54009 0.24423 0.0
H1130 H 0.97119 0.51498 0.23414 0.0
H1131 H 0.98375 0.49679 0.20198 0.0
H1132 H 0.97716 0.53556 0.2014 0.0
H1133 H 0.07521 0.51485 0.29847 0.0
H1134 H 0.09784 0.49473 0.27401 0.0
H1135 H 0.0639 0.47889 0.28654 0.0
C1136 C 0.9666 0.05339 0.23254 0.0
C1137 C 0.9776 0.06943 0.20888 0.0
C1138 C 0.98482 0.03479 0.24947 0.0
C1139 C 0.01533 0.03225 0.24332 0.0
C1140 C 0.02655 0.04845 0.21948 0.0
C1141 C 1.00765 0.06625 0.20244 0.0
C1142 C 0.97128 0.01763 0.27394 0.0
C1143 C 0.05874 0.04719 0.212 0.0
C1144 C 0.06698 1.00468 0.30428 0.0
C1145 C 0.07294 0.97548 0.29624 0.0
C1146 C 0.04893 0.02334 0.28721 0.0
C1147 C 0.03534 0.01263 0.26161 0.0
C1148 C 0.04094 0.98301 0.25364 0.0
C1149 C 0.05975 0.96512 0.27067 0.0
C1150 C 0.04441 0.05468 0.29666 0.0
C1151 C 0.02669 0.96996 0.22718 0.0
H1152 H 0.9435 0.05536 0.2378 0.0
H1153 H 0.01652 0.07785 0.18396 0.0
H1154 H 0.97577 0.99388 0.2711 0.0
H1155 H 0.98132 0.02435 0.29474 0.0
H1156 H 0.94716 0.02091 0.27536 0.0
H1157 H 0.06446 0.06197 0.19376 0.0
H1158 H 0.07209 0.05344 0.23109 0.0
H1159 H 0.06493 0.02444 0.2061 0.0
H1160 H 0.07635 0.01299 0.32418 0.0
H1161 H 0.06389 0.94267 0.26412 0.0
H1162 H 0.0209 0.05846 0.3016 0.0
H1163 H 0.05051 0.06986 0.27889 0.0
H1164 H 0.05759 0.06028 0.31609 0.0
H1165 H 1.00248 0.97203 0.22879 0.0
H1166 H 0.03234 0.94644 0.22427 0.0
H1167 H 0.03365 0.9822 0.20764 0.0
C1168 C 0.5435 0.05543 0.27025 0.0
C1169 C 0.53353 0.06965 0.29542 0.0
C1170 C 0.52478 0.03747 0.25317 0.0
C1171 C 0.49471 0.03378 0.26066 0.0
C1172 C 0.48443 0.04839 0.28588 0.0
C1173 C 0.50386 0.06555 0.30301 0.0
C1174 C 0.53741 0.02204 0.22717 0.0
C1175 C 0.4527 0.04593 0.29483 0.0
C1176 C 0.44092 1.00763 0.20081 0.0
C1177 C 0.43627 0.97784 0.20759 0.0
C1178 C 0.45915 0.02601 0.218 0.0
C1179 C 0.47426 0.0145 0.24243 0.0
C1180 C 0.46992 0.98433 0.24915 0.0
C1181 C 0.45092 0.96669 0.23206 0.0
C1182 C 0.46227 0.05793 0.20992 0.0
C1183 C 0.48579 0.97044 0.27426 0.0
H1184 H 0.56627 0.05815 0.26401 0.0
H1185 H 0.49576 0.07574 0.32259 0.0
H1186 H 0.53385 0.99802 0.22912 0.0
H1187 H 0.52596 0.0294 0.20731 0.0
H1188 H 0.56129 0.02623 0.22459 0.0
H1189 H 0.44754 0.05981 0.31388 0.0
H1190 H 0.43823 0.05254 0.27667 0.0
H1191 H 0.4474 0.0228 0.30015 0.0
H1192 H 0.43039 0.01662 0.18177 0.0
H1193 H 0.44778 0.94381 0.23767 0.0
H1194 H 0.48535 0.06269 0.20395 0.0
H1195 H 0.45677 0.07199 0.22873 0.0
H1196 H 0.44788 0.0641 0.19153 0.0
H1197 H 0.50984 0.97328 0.27162 0.0
H1198 H 0.4809 0.94665 0.27633 0.0
H1199 H 0.4795 0.98152 0.29467 0.0
C1200 C 0.55536 0.46346 0.23118 0.0
C1201 C 0.54364 0.4504 0.20615 0.0
C1202 C 0.53818 0.48163 0.2495 0.0
C1203 C 0.50799 0.48662 0.24338 0.0
C1204 C 0.49602 0.47336 0.21818 0.0
C1205 C 0.51396 0.45607 0.19977 0.0
C1206 C 0.55252 0.49574 0.27537 0.0
C1207 C 0.46403 0.47726 0.2107 0.0
C1208 C 0.45768 0.51159 0.30623 0.0
C1209 C 0.45324 0.54162 0.3005 0.0
C1210 C 0.47477 0.49353 0.28774 0.0
C1211 C 0.48907 0.50567 0.26317 0.0
C1212 C 0.48525 0.53616 0.2577 0.0
C1213 C 0.46728 0.55349 0.27604 0.0
C1214 C 0.47739 0.46126 0.2945 0.0
C1215 C 0.50048 0.55066 0.23252 0.0
H1216 H 0.57822 0.45958 0.2364 0.0
H1217 H 0.50464 0.44686 0.18023 0.0
H1218 H 0.54946 0.51988 0.27452 0.0
H1219 H 0.54195 0.48783 0.29549 0.0
H1220 H 0.57639 0.49093 0.27657 0.0
H1221 H 0.45757 0.46444 0.19132 0.0
H1222 H 0.45014 0.47029 0.22917 0.0
H1223 H 0.45932 0.50077 0.20661 0.0
H1224 H 0.44773 0.50212 0.32534 0.0
H1225 H 0.46435 0.57661 0.27135 0.0
H1226 H 0.5006 0.45566 0.29913 0.0
H1227 H 0.47053 0.44809 0.2755 0.0
H1228 H 0.46379 0.45473 0.31336 0.0
H1229 H 0.52449 0.54683 0.2339 0.0
H1230 H 0.49642 0.57468 0.23174 0.0
H1231 H 0.4928 0.5408 0.21196 0.0
C1232 C 0.11557 0.47837 0.71267 0.0
C1233 C 0.09644 0.4878 0.69081 0.0
C1234 C 0.10484 0.464 0.73749 0.0
C1235 C 0.07431 0.45862 0.74033 0.0
C1236 C 0.05519 0.46669 0.71752 0.0
C1237 C 0.06644 0.48132 0.6932 0.0
C1238 C 0.12596 0.45599 0.76133 0.0
C1239 C 0.02258 0.46103 0.71933 0.0
C1240 C 0.0426 0.40578 0.79628 0.0
C1241 C 0.03116 0.4253 0.81681 0.0
C1242 C 0.05771 0.41616 0.77175 0.0
C1243 C 0.06181 0.44676 0.76789 0.0
C1244 C 0.05167 0.46638 0.78944 0.0
C1245 C 0.03626 0.45545 0.81345 0.0
C1246 C 0.06781 0.39449 0.74922 0.0
C1247 C 0.05594 0.49911 0.78652 0.0
H1248 H 0.13872 0.48361 0.71107 0.0
H1249 H 0.05161 0.48842 0.67626 0.0
H1250 H 0.12169 0.47002 0.78046 0.0
H1251 H 0.12264 0.43288 0.76812 0.0
H1252 H 0.14921 0.45895 0.75471 0.0
H1253 H 0.01111 0.46626 0.69878 0.0
H1254 H 0.01835 0.43771 0.72485 0.0
H1255 H 0.01291 0.47463 0.73677 0.0
H1256 H 0.03838 0.38248 0.79862 0.0
H1257 H 0.02753 0.47058 0.82934 0.0
H1258 H 0.09104 0.39864 0.74332 0.0
H1259 H 0.0545 0.39726 0.72932 0.0
H1260 H 0.06563 0.37142 0.7567 0.0
H1261 H 0.07927 0.50421 0.78181 0.0
H1262 H 0.0493 0.51112 0.80635 0.0
H1263 H 0.0427 0.50742 0.76815 0.0
C1264 C 0.11988 0.03521 0.79073 0.0
C1265 C 0.10085 0.0284 0.8136 0.0
C1266 C 0.1094 0.04889 0.76542 0.0
C1267 C 0.07924 0.05622 0.76306 0.0
C1268 C 0.06033 0.05078 0.78678 0.0
C1269 C 0.07131 0.03681 0.81161 0.0
C1270 C 0.13029 0.05411 0.74066 0.0
C1271 C 0.02815 0.05855 0.78548 0.0
C1272 C 0.04961 0.1081 0.70512 0.0
C1273 C 0.03645 0.08837 0.68577 0.0
C1274 C 0.06461 0.09802 0.72984 0.0
C1275 C 0.06677 0.06746 0.73521 0.0
C1276 C 0.05483 0.04747 0.7149 0.0
C1277 C 0.03971 0.05814 0.69059 0.0
C1278 C 0.07678 0.1201 0.75096 0.0
C1279 C 0.05691 0.01472 0.71947 0.0
H1280 H 0.14266 0.02846 0.792 0.0
H1281 H 0.05655 0.03177 0.8293 0.0
H1282 H 0.1244 0.03952 0.72237 0.0
H1283 H 0.12847 0.07704 0.73282 0.0
H1284 H 0.15346 0.04976 0.74679 0.0
H1285 H 0.01694 0.05515 0.80653 0.0
H1286 H 0.02535 0.0818 0.7789 0.0
H1287 H 0.01708 0.04479 0.76897 0.0
H1288 H 0.04689 0.13148 0.70172 0.0
H1289 H 0.02978 0.04279 0.67561 0.0
H1290 H 0.09983 0.11469 0.75653 0.0
H1291 H 0.06388 0.1193 0.77127 0.0
H1292 H 0.07597 0.14284 0.74233 0.0
H1293 H 0.07997 1.00828 0.72379 0.0
H1294 H 0.04879 1.00215 0.70053 0.0
H1295 H 0.04374 1.00836 0.73864 0.0
C1296 C 0.48544 0.06443 0.81113 0.0
C1297 C 0.49389 0.09401 0.81243 0.0
C1298 C 0.47078 0.05306 0.78687 0.0
C1299 C 0.46467 0.07159 0.76301 0.0
C1300 C 0.4722 0.10175 0.76462 0.0
C1301 C 0.48656 0.11263 0.78938 0.0
C1302 C 0.46279 0.0209 0.78636 0.0
C1303 C 0.46634 0.12222 0.73965 0.0
C1304 C 0.45966 0.03111 0.69121 0.0
C1305 C 0.42923 0.02819 0.68747 0.0
C1306 C 0.47139 0.04636 0.71496 0.0
C1307 C 0.4523 0.05876 0.73581 0.0
C1308 C 0.42153 0.05688 0.73155 0.0
C1309 C 0.41038 0.04176 0.70737 0.0
C1310 C 0.50431 0.04816 0.71832 0.0
C1311 C 0.40037 0.06955 0.75329 0.0
H1312 H 0.49085 0.04999 0.82898 0.0
H1313 H 0.4933 0.13544 0.79011 0.0
H1314 H 0.43929 0.01813 0.78072 0.0
H1315 H 0.47583 0.00952 0.76952 0.0
H1316 H 0.46694 0.00999 0.80744 0.0
H1317 H 0.47119 0.14545 0.74517 0.0
H1318 H 0.48015 0.1158 0.72096 0.0
H1319 H 0.4431 0.12054 0.7327 0.0
H1320 H 0.47434 0.02088 0.67579 0.0
H1321 H 0.38685 0.03932 0.7048 0.0
H1322 H 0.51122 0.03523 0.73746 0.0
H1323 H 0.51116 0.07122 0.72204 0.0
H1324 H 0.5161 0.03962 0.69908 0.0
H1325 H 0.40193 0.05704 0.7738 0.0
H1326 H 0.3773 0.06872 0.74558 0.0
H1327 H 0.40614 0.09267 0.7582 0.0
C1328 C 0.51295 0.42528 0.72575 0.0
C1329 C 0.49931 0.41629 0.69999 0.0
C1330 C 0.49694 0.43825 0.74828 0.0
C1331 C 0.46622 0.44188 0.74549 0.0
C1332 C 0.45195 0.43128 0.72032 0.0
C1333 C 0.46865 0.41876 0.69781 0.0
C1334 C 0.5132 0.44931 0.77455 0.0
C1335 C 0.41917 0.43417 0.71671 0.0
C1336 C 0.4267 0.46286 0.81536 0.0
C1337 C 0.42519 0.49356 0.81287 0.0
C1338 C 0.4387 0.44551 0.79305 0.0
C1339 C 0.44983 0.45915 0.76778 0.0
C1340 C 0.44746 0.48997 0.76477 0.0
C1341 C 0.43493 0.50665 0.78708 0.0
C1342 C 0.44026 0.41267 0.7969 0.0
C1343 C 0.45916 0.50558 0.73837 0.0
H1344 H 0.53646 0.42267 0.72817 0.0
H1345 H 0.4578 0.4119 0.67811 0.0
H1346 H 0.5112 0.47355 0.77585 0.0
H1347 H 0.5034 0.4401 0.79451 0.0
H1348 H 0.53689 0.44354 0.77406 0.0
H1349 H 0.41093 0.42148 0.69789 0.0
H1350 H 0.40766 0.4265 0.73645 0.0
H1351 H 0.41336 0.45758 0.71354 0.0
H1352 H 0.41929 0.45239 0.83507 0.0
H1353 H 0.43303 0.53018 0.78433 0.0
H1354 H 0.46345 0.40589 0.79975 0.0
H1355 H 0.4318 0.40137 0.77737 0.0
H1356 H 0.42753 0.4051 0.81597 0.0
H1357 H 0.48324 0.50226 0.73684 0.0
H1358 H 0.45469 0.52954 0.73884 0.0
H1359 H 0.44923 0.49625 0.71852 0.0
C1360 C 0.17036 0.70532 0.26216 0.0
C1361 C 0.18224 0.689 0.23933 0.0
C1362 C 0.17808 0.73483 0.26579 0.0
C1363 C 0.19811 0.74778 0.2462 0.0
C1364 C 0.21384 0.72993 0.22682 0.0
C1365 C 0.20581 0.70054 0.22359 0.0
C1366 C 0.16251 0.75287 0.28843 0.0
C1367 C 0.23668 0.74227 0.207 0.0
C1368 C 0.17172 0.82364 0.22876 0.0
C1369 C 0.18625 0.83964 0.25026 0.0
C1370 C 0.17788 0.7938 0.22484 0.0
C1371 C 0.19873 0.7801 0.24311 0.0
C1372 C 0.21654 0.79739 0.26133 0.0
C1373 C 0.21071 0.82731 0.26396 0.0
C1374 C 0.15936 0.77631 0.20398 0.0
C1375 C 0.23923 0.78441 0.28104 0.0
H1376 H 0.15264 0.69606 0.27489 0.0
H1377 H 0.2155 0.68794 0.20615 0.0
H1378 H 0.17867 0.76576 0.30112 0.0
H1379 H 0.14744 0.76866 0.27776 0.0
H1380 H 0.14954 0.73901 0.3035 0.0
H1381 H 0.25499 0.72645 0.20494 0.0
H1382 H 0.22681 0.74537 0.18543 0.0
H1383 H 0.24548 0.76354 0.21471 0.0
H1384 H 0.15323 0.83347 0.21763 0.0
H1385 H 0.22249 0.83972 0.28026 0.0
H1386 H 0.14314 0.76307 0.21627 0.0
H1387 H 0.17318 0.76089 0.1914 0.0
H1388 H 0.14728 0.7907 0.18868 0.0
H1389 H 0.23594 0.7931 0.30307 0.0
H1390 H 0.26143 0.79119 0.27371 0.0
H1391 H 0.23801 0.76028 0.28231 0.0
C1392 C 0.82337 0.19786 0.24408 0.0
C1393 C 0.83479 0.1716 0.25505 0.0
C1394 C 0.79351 0.20398 0.24641 0.0
C1395 C 0.77515 0.18393 0.26109 0.0
C1396 C 0.78765 0.16046 0.27688 0.0
C1397 C 0.81754 0.15435 0.27348 0.0
C1398 C 0.78191 0.23104 0.23173 0.0
C1399 C 0.76903 0.14031 0.29515 0.0
C1400 C 0.69532 0.19858 0.27615 0.0
C1401 C 0.682 0.17757 0.25842 0.0
C1402 C 0.72572 0.20202 0.27626 0.0
C1403 C 0.74299 0.18516 0.2573 0.0
C1404 C 0.7293 0.16695 0.23646 0.0
C1405 C 0.69876 0.16337 0.23726 0.0
C1406 C 0.73895 0.22046 0.29964 0.0
C1407 C 0.74686 0.14838 0.21571 0.0
H1408 H 0.8368 0.21182 0.23045 0.0
H1409 H 0.82668 0.13447 0.28271 0.0
H1410 H 0.75862 0.22872 0.22547 0.0
H1411 H 0.7839 0.24969 0.24697 0.0
H1412 H 0.79492 0.23656 0.21217 0.0
H1413 H 0.78261 0.12616 0.30942 0.0
H1414 H 0.75367 0.15324 0.30873 0.0
H1415 H 0.75567 0.12595 0.28093 0.0
H1416 H 0.68264 0.20945 0.29284 0.0
H1417 H 0.68845 0.1471 0.22348 0.0
H1418 H 0.76196 0.22663 0.29519 0.0
H1419 H 0.7381 0.20787 0.32013 0.0
H1420 H 0.72571 0.24053 0.3025 0.0
H1421 H 0.76769 0.15921 0.20929 0.0
H1422 H 0.73398 0.14332 0.19594 0.0
H1423 H 0.75247 0.12728 0.22634 0.0
C1424 C 0.32238 0.68729 0.26079 0.0
C1425 C 0.35089 0.6785 0.25347 0.0
C1426 C 0.31289 0.71573 0.255 0.0
C1427 C 0.33236 0.73574 0.24184 0.0
C1428 C 0.35951 0.72579 0.23071 0.0
C1429 C 0.36821 0.69687 0.23615 0.0
C1430 C 0.28336 0.72498 0.26599 0.0
C1431 C 0.38055 0.74635 0.21566 0.0
C1432 C 0.31313 0.81168 0.21608 0.0
C1433 C 0.32557 0.82866 0.23806 0.0
C1434 C 0.31407 0.78115 0.21738 0.0
C1435 C 0.32583 0.76747 0.24216 0.0
C1436 C 0.33466 0.78466 0.26619 0.0
C1437 C 0.33484 0.8153 0.26365 0.0
C1438 C 0.30612 0.76438 0.1905 0.0
C1439 C 0.34735 0.7708 0.29306 0.0
H1440 H 0.30854 0.67334 0.274 0.0
H1441 H 0.38989 0.68969 0.22958 0.0
H1442 H 0.27446 0.74289 0.25259 0.0
H1443 H 0.26759 0.70637 0.26606 0.0
H1444 H 0.28571 0.7331 0.28844 0.0
H1445 H 0.40079 0.73502 0.20831 0.0
H1446 H 0.36978 0.75646 0.19663 0.0
H1447 H 0.38689 0.76439 0.23053 0.0
H1448 H 0.30663 0.82208 0.196 0.0
H1449 H 0.34485 0.82861 0.28039 0.0
H1450 H 0.30428 0.74041 0.19406 0.0
H1451 H 0.32298 0.76843 0.17365 0.0
H1452 H 0.28512 0.77271 0.18178 0.0
H1453 H 0.33262 0.75333 0.3013 0.0
H1454 H 0.35091 0.78711 0.31055 0.0
H1455 H 0.36871 0.76041 0.28776 0.0
C1456 C 0.68653 0.31614 0.24324 0.0
C1457 C 0.67554 0.34259 0.25416 0.0
C1458 C 0.71614 0.30922 0.24642 0.0
C1459 C 0.73441 0.32849 0.26218 0.0
C1460 C 0.72181 0.35149 0.27852 0.0
C1461 C 0.69228 0.35856 0.27408 0.0
C1462 C 0.72772 0.28251 0.23113 0.0
C1463 C 0.7402 0.37058 0.29807 0.0
C1464 C 0.8147 0.31485 0.27586 0.0
C1465 C 0.82728 0.33713 0.25909 0.0
C1466 C 0.7844 0.31053 0.27592 0.0
C1467 C 0.76654 0.32793 0.25797 0.0
C1468 C 0.77959 0.34747 0.23788 0.0
C1469 C 0.81004 0.35163 0.23849 0.0
C1470 C 0.77179 0.29051 0.29836 0.0
C1471 C 0.76137 0.3668 0.21833 0.0
H1472 H 0.6733 0.30302 0.22865 0.0
H1473 H 0.68337 0.37851 0.28336 0.0
H1474 H 0.7512 0.28464 0.2256 0.0
H1475 H 0.72497 0.26335 0.24567 0.0
H1476 H 0.71521 0.27795 0.21102 0.0
H1477 H 0.72638 0.38374 0.313 0.0
H1478 H 0.75555 0.35696 0.311 0.0
H1479 H 0.75352 0.38589 0.28481 0.0
H1480 H 0.82778 0.30362 0.29203 0.0
H1481 H 0.81981 0.36876 0.22536 0.0
H1482 H 0.78569 0.27077 0.30033 0.0
H1483 H 0.74901 0.28386 0.2935 0.0
H1484 H 0.77214 0.30214 0.31937 0.0
H1485 H 0.74094 0.35568 0.21122 0.0
H1486 H 0.77402 0.37363 0.19893 0.0
H1487 H 0.75502 0.38693 0.23027 0.0
C1488 C 0.96161 0.20291 0.71772 0.0
C1489 C 0.94225 0.20478 0.69436 0.0
C1490 C 0.96035 0.22342 0.74042 0.0
C1491 C 0.93943 0.24648 0.73945 0.0
C1492 C 0.9197 0.2482 0.71585 0.0
C1493 C 0.92132 0.22728 0.69361 0.0
C1494 C 0.98161 0.22063 0.76527 0.0
C1495 C 0.89723 0.27244 0.71382 0.0
C1496 C 0.91968 0.28482 0.80992 0.0
C1497 C 0.93755 0.30982 0.80887 0.0
C1498 C 0.91988 0.26418 0.78739 0.0
C1499 C 0.93823 0.2688 0.7631 0.0
C1500 C 0.95574 0.29454 0.76166 0.0
C1501 C 0.95529 0.31471 0.78469 0.0
C1502 C 0.90102 0.23705 0.78992 0.0
C1503 C 0.97534 0.30049 0.73604 0.0
H1504 H 0.97796 0.18564 0.71799 0.0
H1505 H 0.90663 0.2288 0.67524 0.0
H1506 H 0.99568 0.24047 0.76642 0.0
H1507 H 0.96941 0.21916 0.78597 0.0
H1508 H 0.99594 0.20103 0.76321 0.0
H1509 H 0.88329 0.27048 0.69422 0.0
H1510 H 0.88284 0.27216 0.73314 0.0
H1511 H 0.90844 0.29406 0.71339 0.0
H1512 H 0.90613 0.28109 0.82883 0.0
H1513 H 0.96919 0.33402 0.7841 0.0
H1514 H 0.91513 0.21721 0.79002 0.0
H1515 H 0.88621 0.23529 0.77098 0.0
H1516 H 0.88749 0.23707 0.80989 0.0
H1517 H 0.99217 0.283 0.73429 0.0
H1518 H 0.98664 0.32203 0.73767 0.0
H1519 H 0.96228 0.30007 0.71581 0.0
C1520 C 0.31576 0.94402 0.72411 0.0
C1521 C 0.31038 0.93071 0.69743 0.0
C1522 C 0.29571 0.94098 0.74707 0.0
C1523 C 0.26967 0.92433 0.74308 0.0
C1524 C 0.26455 0.9104 0.7162 0.0
C1525 C 0.28503 0.91368 0.69374 0.0
C1526 C 0.30211 0.95601 0.77542 0.0
C1527 C 0.23713 0.89258 0.71095 0.0
C1528 C 0.22937 0.89884 0.81081 0.0
C1529 C 0.208 0.92066 0.81383 0.0
C1530 C 0.24915 0.89929 0.78747 0.0
C1531 C 0.24747 0.92218 0.76677 0.0
C1532 C 0.22511 0.94368 0.76931 0.0
C1533 C 0.20573 0.94273 0.79293 0.0
C1534 C 0.27261 0.876 0.78564 0.0
C1535 C 0.22236 0.96833 0.74769 0.0
H1536 H 0.3354 0.95718 0.72682 0.0
H1537 H 0.28101 0.90342 0.67298 0.0
H1538 H 0.28485 0.97253 0.78001 0.0
H1539 H 0.30169 0.93979 0.7933 0.0
H1540 H 0.32379 0.96719 0.7754 0.0
H1541 H 0.2369 0.88236 0.68917 0.0
H1542 H 0.23517 0.875 0.72743 0.0
H1543 H 0.21751 0.90683 0.71308 0.0
H1544 H 0.23134 0.88212 0.82737 0.0
H1545 H 0.18944 0.95985 0.79568 0.0
H1546 H 0.29453 0.88624 0.78839 0.0
H1547 H 0.27229 0.86546 0.76405 0.0
H1548 H 0.26985 0.85875 0.80239 0.0
H1549 H 0.24217 0.98247 0.74869 0.0
H1550 H 0.20272 0.98218 0.75171 0.0
H1551 H 0.22102 0.95936 0.72545 0.0
C1552 C 0.63122 0.21961 0.80862 0.0
C1553 C 0.60663 0.20145 0.81185 0.0
C1554 C 0.63365 0.2388 0.78489 0.0
C1555 C 0.61089 0.23985 0.76401 0.0
C1556 C 0.58647 0.22074 0.76683 0.0
C1557 C 0.58459 0.20187 0.7908 0.0
C1558 C 0.66001 0.25875 0.78276 0.0
C1559 C 0.56177 0.22098 0.74509 0.0
C1560 C 0.59674 0.30896 0.71966 0.0
C1561 C 0.60819 0.30107 0.69272 0.0
C1562 C 0.59843 0.28966 0.74334 0.0
C1563 C 0.61179 0.26175 0.73991 0.0
C1564 C 0.6244 0.25424 0.71292 0.0
C1565 C 0.62249 0.27403 0.68966 0.0
C1566 C 0.58487 0.29866 0.77173 0.0
C1567 C 0.63879 0.2248 0.70825 0.0
H1568 H 0.648 0.21951 0.82522 0.0
H1569 H 0.56543 0.18804 0.79363 0.0
H1570 H 0.67039 0.25666 0.76119 0.0
H1571 H 0.65294 0.28192 0.78517 0.0
H1572 H 0.67669 0.25386 0.79958 0.0
H1573 H 0.54525 0.20359 0.74944 0.0
H1574 H 0.55057 0.2426 0.74555 0.0
H1575 H 0.57056 0.21788 0.72296 0.0
H1576 H 0.58557 0.32984 0.72188 0.0
H1577 H 0.63122 0.26798 0.66871 0.0
H1578 H 0.60098 0.29602 0.78952 0.0
H1579 H 0.56592 0.2842 0.77667 0.0
H1580 H 0.57714 0.32178 0.77146 0.0
H1581 H 0.6555 0.22068 0.72521 0.0
H1582 H 0.64948 0.2232 0.68674 0.0
H1583 H 0.62207 0.20717 0.71 0.0
C1584 C 0.28831 0.61 0.80841 0.0
C1585 C 0.31216 0.59065 0.80716 0.0
C1586 C 0.26845 0.61233 0.78527 0.0
C1587 C 0.27264 0.59497 0.76021 0.0
C1588 C 0.29728 0.57598 0.75863 0.0
C1589 C 0.31669 0.57395 0.78223 0.0
C1590 C 0.2425 0.63271 0.78799 0.0
C1591 C 0.30272 0.55727 0.73229 0.0
C1592 C 0.20704 0.57603 0.7125 0.0
C1593 C 0.21076 0.59544 0.68937 0.0
C1594 C 0.22668 0.57605 0.73596 0.0
C1595 C 0.25072 0.59585 0.73613 0.0
C1596 C 0.25408 0.61597 0.71298 0.0
C1597 C 0.23405 0.61549 0.68984 0.0
C1598 C 0.22214 0.55433 0.76019 0.0
C1599 C 0.27934 0.6374 0.71225 0.0
H1600 H 0.2848 0.62271 0.8279 0.0
H1601 H 0.33508 0.55888 0.78148 0.0
H1602 H 0.24188 0.64813 0.76945 0.0
H1603 H 0.22184 0.61981 0.78747 0.0
H1604 H 0.24307 0.64563 0.80833 0.0
H1605 H 0.32363 0.54482 0.7338 0.0
H1606 H 0.28443 0.54143 0.72953 0.0
H1607 H 0.30336 0.57119 0.71263 0.0
H1608 H 0.18919 0.56029 0.71181 0.0
H1609 H 0.23703 0.63019 0.67165 0.0
H1610 H 0.22112 0.56597 0.78121 0.0
H1611 H 0.24103 0.53901 0.7612 0.0
H1612 H 0.20171 0.54131 0.75743 0.0
H1613 H 0.27964 0.65072 0.7323 0.0
H1614 H 0.27815 0.65243 0.69338 0.0
H1615 H 0.3004 0.62522 0.71131 0.0
C1616 C 0.0718 0.52879 0.03252 0.0
C1617 C 0.06037 0.55636 0.03997 0.0
C1618 C 0.05583 0.50892 0.01507 0.0
C1619 C 0.0274 0.5165 0.0049 0.0
C1620 C 0.01626 0.54484 0.01151 0.0
C1621 C 0.03274 0.56427 0.02903 0.0
C1622 C 0.06882 0.47916 0.00878 0.0
C1623 C 0.98623 0.55412 1.00128 0.0
C1624 C 0.99338 0.46884 0.94477 0.0
C1625 C 0.97572 0.4493 0.9605 0.0
C1626 C 0.0098 0.49111 0.95871 0.0
C1627 C 1.00867 0.49405 0.98926 0.0
C1628 C 0.99013 0.47478 0.00507 0.0
C1629 C 0.97383 0.4529 0.99055 0.0
C1630 C 0.02889 0.51111 0.94079 0.0
C1631 C 0.98801 0.47682 0.03754 0.0
H1632 H 0.09277 0.5222 0.04149 0.0
H1633 H 0.0234 0.58519 0.03532 0.0
H1634 H 0.05567 0.46194 0.01975 0.0
H1635 H 0.06802 0.47457 0.98526 0.0
H1636 H 0.09194 0.47738 0.01621 0.0
H1637 H 0.98186 0.57769 0.00565 0.0
H1638 H 0.9839 0.55007 0.97776 0.0
H1639 H 0.96924 0.54082 0.01241 0.0
H1640 H 0.99486 0.46625 0.92153 0.0
H1641 H 0.95998 0.43808 0.0028 0.0
H1642 H 0.05227 0.50782 0.94666 0.0
H1643 H 0.02347 0.53438 0.94537 0.0
H1644 H 0.0263 0.50709 0.91726 0.0
H1645 H 0.97213 0.46079 0.04667 0.0
H1646 H 0.98118 0.49924 0.04398 0.0
H1647 H 0.00987 0.47273 0.04731 0.0
C1648 C 0.0777 0.985 1.00124 0.0
C1649 C 0.07695 0.98319 0.97098 0.0
C1650 C 0.05772 1.00282 0.01663 0.0
C1651 C 0.03574 0.01876 1.00157 0.0
C1652 C 0.03412 0.01594 0.97105 0.0
C1653 C 0.05476 0.99836 0.95618 0.0
C1654 C 0.06064 1.00513 0.04901 0.0
C1655 C 0.01082 0.03186 0.95401 0.0
C1656 C 0.97033 0.04713 0.04608 0.0
C1657 C 0.97769 0.07679 0.05082 0.0
C1658 C 0.98849 0.02831 0.02963 0.0
C1659 C 0.01513 0.03897 0.01771 0.0
C1660 C 0.02251 0.06891 0.02197 0.0
C1661 C 1.00374 0.08736 0.03811 0.0
C1662 C 0.97936 0.99675 0.02546 0.0
C1663 C 0.05065 0.0814 0.0099 0.0
H1664 H 0.09444 0.97292 0.01287 0.0
H1665 H 0.05386 0.99684 0.93282 0.0
H1666 H 0.06504 0.02826 0.05515 0.0
H1667 H 0.03979 0.99859 0.05957 0.0
H1668 H 0.07861 0.99117 0.0576 0.0
H1669 H 0.01133 0.02608 0.93071 0.0
H1670 H 0.98876 0.02658 0.96275 0.0
H1671 H 0.01394 0.0559 0.95616 0.0
H1672 H 0.95068 0.03824 0.05592 0.0
H1673 H 0.00969 0.1102 0.04078 0.0
H1674 H 0.99525 0.98205 0.03641 0.0
H1675 H 0.97959 0.99107 1.00215 0.0
H1676 H 0.95711 0.99227 0.03423 0.0
H1677 H 0.0697 0.06931 0.01893 0.0
H1678 H 0.05329 0.10509 0.01491 0.0
H1679 H 0.05121 0.07853 0.98612 0.0
C1680 C 0.46965 0.96905 0.046 0.0
C1681 C 0.4396 0.97583 0.04887 0.0
C1682 C 0.48901 0.98701 0.02982 0.0
C1683 C 0.47854 0.01295 0.01632 0.0
C1684 C 0.44825 0.01975 0.01874 0.0
C1685 C 0.42929 1.00114 0.03456 0.0
C1686 C 0.52091 0.97842 0.02759 0.0
C1687 C 0.43588 0.04714 0.00501 0.0
C1688 C 0.53229 0.07602 0.99997 0.0
C1689 C 0.53565 0.07422 0.96986 0.0
C1690 C 0.51402 0.05629 0.01525 0.0
C1691 C 0.4992 0.03341 1.00035 0.0
C1692 C 0.50359 0.03075 0.97007 0.0
C1693 C 0.52154 0.05119 0.95525 0.0
C1694 C 0.51003 0.06039 0.04735 0.0
C1695 C 0.489 1.00648 0.95319 0.0
H1696 H 0.4784 0.95001 0.05703 0.0
H1697 H 0.40621 1.00664 0.03567 0.0
H1698 H 0.52783 0.97793 0.00461 0.0
H1699 H 0.53473 0.995 0.03868 0.0
H1700 H 0.52532 0.9566 0.03738 0.0
H1701 H 0.41193 0.04951 0.00882 0.0
H1702 H 0.44721 0.06677 0.0138 0.0
H1703 H 0.43988 0.04681 0.98138 0.0
H1704 H 0.54359 0.09333 0.01155 0.0
H1705 H 0.52425 0.04941 0.93205 0.0
H1706 H 0.51656 0.04015 0.059 0.0
H1707 H 0.48652 0.06438 0.05224 0.0
H1708 H 0.52312 0.07905 0.05586 0.0
H1709 H 0.49425 0.98489 0.96301 0.0
H1710 H 0.49594 1.00624 0.93019 0.0
H1711 H 0.46481 0.00915 0.95406 0.0
C1712 C 0.45791 0.54953 0.98734 0.0
C1713 C 0.44292 0.53816 0.9633 0.0
C1714 C 0.47799 0.53221 0.0033 0.0
C1715 C 0.48313 0.5025 0.99542 0.0
C1716 C 0.46804 0.49102 0.97106 0.0
C1717 C 0.44816 0.50886 0.95549 0.0
C1718 C 0.49327 0.54557 0.02904 0.0
C1719 C 0.47246 0.45961 0.96174 0.0
C1720 C 0.5523 0.46291 0.02354 0.0
C1721 C 0.54148 0.44653 0.04707 0.0
C1722 C 0.53374 0.48105 0.00667 0.0
C1723 C 0.50336 0.48318 0.0132 0.0
C1724 C 0.49228 0.46669 0.03682 0.0
C1725 C 0.51129 0.44877 0.05333 0.0
C1726 C 0.54671 0.49802 0.98175 0.0
C1727 C 0.4602 0.46812 0.04486 0.0
H1728 H 0.45334 0.57181 0.99416 0.0
H1729 H 0.43632 0.49975 0.93726 0.0
H1730 H 0.48656 0.53388 0.049 0.0
H1731 H 0.51739 0.54301 0.0269 0.0
H1732 H 0.48813 0.56926 0.03159 0.0
H1733 H 0.46008 0.45426 0.94174 0.0
H1734 H 0.4961 0.45532 0.95791 0.0
H1735 H 0.46519 0.44457 0.97918 0.0
H1736 H 0.57534 0.46135 0.01801 0.0
H1737 H 0.50246 0.4369 0.07165 0.0
H1738 H 0.54286 0.52186 0.98486 0.0
H1739 H 0.5357 0.49163 0.96133 0.0
H1740 H 0.57068 0.49425 0.97941 0.0
H1741 H 0.45411 0.49102 0.05033 0.0
H1742 H 0.45481 0.45379 0.06354 0.0
H1743 H 0.44648 0.4614 0.02619 0.0
C1744 C 0.06986 1.00118 0.44812 0.0
C1745 C 0.07238 0.97093 0.45388 0.0
C1746 C 0.05196 0.01975 0.46507 0.0
C1747 C 0.03585 1.00812 0.48868 0.0
C1748 C 0.03814 0.97762 0.49461 0.0
C1749 C 0.05619 0.95949 0.47722 0.0
C1750 C 0.05026 0.05195 0.45759 0.0
C1751 C 0.02159 0.96412 0.51952 0.0
C1752 C 0.01209 0.06307 0.54721 0.0
C1753 C 0.98272 0.06875 0.53997 0.0
C1754 C 0.02925 0.04288 0.53135 0.0
C1755 C 0.01701 0.02804 0.50721 0.0
C1756 C 0.98717 0.03349 0.50003 0.0
C1757 C 0.97049 0.05378 0.51636 0.0
C1758 C 0.0608 0.03802 0.54002 0.0
C1759 C 0.97306 0.01854 0.47449 0.0
H1760 H 0.08159 0.01044 0.42991 0.0
H1761 H 0.05793 0.93633 0.48225 0.0
H1762 H 0.02718 0.05815 0.453 0.0
H1763 H 0.05766 0.06534 0.47623 0.0
H1764 H 0.06393 0.05767 0.43853 0.0
H1765 H 0.02528 0.94009 0.52122 0.0
H1766 H 0.02848 0.97459 0.54007 0.0
H1767 H 0.99772 0.96818 0.51699 0.0
H1768 H 0.02183 0.0749 0.56514 0.0
H1769 H 0.9481 0.05864 0.51007 0.0
H1770 H 0.07555 0.04573 0.52252 0.0
H1771 H 0.06505 0.01425 0.54313 0.0
H1772 H 0.06659 0.0498 0.56024 0.0
H1773 H 0.98411 0.02562 0.4543 0.0
H1774 H 0.94929 0.02365 0.47271 0.0
H1775 H 0.97576 0.99441 0.4762 0.0
C1776 C 0.5097 0.06388 0.4483 0.0
C1777 C 0.53987 0.06737 0.4541 0.0
C1778 C 0.49153 0.04592 0.4656 0.0
C1779 C 0.50349 0.03057 0.48952 0.0
C1780 C 0.5339 0.03376 0.49548 0.0
C1781 C 0.55161 0.052 0.47784 0.0
C1782 C 0.45936 0.04334 0.45817 0.0
C1783 C 0.54776 0.01794 0.52065 0.0
C1784 C 0.44926 1.00626 0.5485 0.0
C1785 C 0.44409 0.97673 0.54152 0.0
C1786 C 0.46901 0.02369 0.53236 0.0
C1787 C 0.48402 0.01153 0.5083 0.0
C1788 C 0.47914 0.98152 0.50143 0.0
C1789 C 0.45915 0.96462 0.51792 0.0
C1790 C 0.47317 0.05545 0.54061 0.0
C1791 C 0.4944 0.96745 0.47606 0.0
H1792 H 0.5002 0.07489 0.42978 0.0
H1793 H 0.57468 0.05448 0.48296 0.0
H1794 H 0.45373 0.02009 0.45374 0.0
H1795 H 0.4458 0.0505 0.47678 0.0
H1796 H 0.45329 0.05673 0.43902 0.0
H1797 H 0.57172 0.02219 0.52227 0.0
H1798 H 0.53716 0.02492 0.5411 0.0
H1799 H 0.5442 0.99394 0.51851 0.0
H1800 H 0.43734 0.01591 0.5664 0.0
H1801 H 0.45462 0.94213 0.51175 0.0
H1802 H 0.46521 0.06979 0.52289 0.0
H1803 H 0.49682 0.06028 0.54372 0.0
H1804 H 0.4612 0.06125 0.56072 0.0
H1805 H 0.487 0.97799 0.45572 0.0
H1806 H 0.48991 0.94353 0.47465 0.0
H1807 H 0.51847 0.97083 0.47766 0.0
C1808 C 0.5509 0.45443 0.51835 0.0
C1809 C 0.5395 0.43947 0.54238 0.0
C1810 C 0.53376 0.47485 0.5027 0.0
C1811 C 0.5042 0.4803 0.51087 0.0
C1812 C 0.49267 0.46524 0.53522 0.0
C1813 C 0.51038 0.44513 0.55059 0.0
C1814 C 0.54718 0.49026 0.47705 0.0
C1815 C 0.46135 0.46993 0.54473 0.0
C1816 C 0.46525 0.55001 0.48359 0.0
C1817 C 0.44892 0.53958 0.45988 0.0
C1818 C 0.48323 0.53114 0.50025 0.0
C1819 C 0.48508 0.50084 0.49338 0.0
C1820 C 0.46855 0.49012 0.46965 0.0
C1821 C 0.45094 0.50946 0.45327 0.0
C1822 C 0.50037 0.5437 0.52525 0.0
C1823 C 0.46962 0.4581 0.46137 0.0
H1824 H 0.57316 0.44976 0.5115 0.0
H1825 H 0.50132 0.43342 0.56893 0.0
H1826 H 0.53527 0.48399 0.45708 0.0
H1827 H 0.54499 0.51438 0.47951 0.0
H1828 H 0.57078 0.48481 0.47428 0.0
H1829 H 0.45589 0.45732 0.56457 0.0
H1830 H 0.45739 0.49357 0.54892 0.0
H1831 H 0.44615 0.46315 0.52724 0.0
H1832 H 0.46385 0.57298 0.4894 0.0
H1833 H 0.43914 0.50093 0.43478 0.0
H1834 H 0.52416 0.53957 0.52209 0.0
H1835 H 0.49385 0.53262 0.5456 0.0
H1836 H 0.4969 0.56769 0.52776 0.0
H1837 H 0.49241 0.45186 0.45561 0.0
H1838 H 0.45505 0.45297 0.4428 0.0
H1839 H 0.46298 0.44428 0.48 0.0
C1840 C 0.95918 0.46464 0.47777 0.0
C1841 C 0.96967 0.44727 0.45486 0.0
C1842 C 0.97829 0.48231 0.49452 0.0
C1843 C 0.00882 0.48295 0.48835 0.0
C1844 C 0.01951 0.46556 0.46524 0.0
C1845 C 0.99997 0.4481 0.44891 0.0
C1846 C 0.96577 0.50028 0.51894 0.0
C1847 C 0.05171 0.46549 0.45757 0.0
C1848 C 0.05693 0.54756 0.5134 0.0
C1849 C 0.0713 0.53584 0.53761 0.0
C1850 C 0.0362 0.53092 0.4976 0.0
C1851 C 0.02966 0.50163 0.50598 0.0
C1852 C 0.04402 0.48985 0.53063 0.0
C1853 C 0.06464 0.50699 0.54599 0.0
C1854 C 0.02171 0.54452 0.47154 0.0
C1855 C 0.03801 0.45886 0.5405 0.0
H1856 H 0.936 0.46418 0.48294 0.0
H1857 H 1.00852 0.43542 0.431 0.0
H1858 H 0.9762 0.49376 0.53963 0.0
H1859 H 0.97076 0.52386 0.51548 0.0
H1860 H 0.94163 0.49762 0.521 0.0
H1861 H 0.05669 0.45072 0.43913 0.0
H1862 H 0.0589 0.48803 0.4519 0.0
H1863 H 0.06489 0.4584 0.47648 0.0
H1864 H 0.06233 0.56965 0.5065 0.0
H1865 H 0.07588 0.49771 0.56451 0.0
H1866 H 0.99749 0.54325 0.47365 0.0
H1867 H 0.02784 0.5321 0.45184 0.0
H1868 H 0.02809 0.56785 0.46852 0.0
H1869 H 0.01415 0.45575 0.54416 0.0
H1870 H 0.04992 0.45331 0.56072 0.0
H1871 H 0.04473 0.44317 0.52342 0.0
loop_
_geom_bond_atom_site_label_1
_geom_bond_atom_site_label_2
_geom_bond_distance
_geom_bond_site_symmetry_2
_ccdc_geom_bond_type
C0 C1 1.443 . S
C0 N4 1.376 . S
C0 C38 1.389 . S
C1 C0 1.443 . S
C1 C2 1.340 . S
C1 H41 0.951 . S
C2 C1 1.340 . S
C2 C3 1.439 . S
C2 H42 0.950 . S
C3 C2 1.439 . S
C3 N4 1.374 . S
C3 C37 1.395 . S
N4 C0 1.376 . S
N4 C3 1.374 . S
N4 Co5 2.008 . S
Co5 N4 2.008 . S
Co5 N6 1.995 . S
Co5 N11 2.008 . S
Co5 N16 1.995 . S
Co5 N21 2.282 . S
Co5 N27 2.282 . S
N6 Co5 1.995 . S
N6 C7 1.376 . S
N6 C10 1.383 . S
C7 N6 1.376 . S
C7 C8 1.446 . S
C7 C37 1.391 . S
C8 C7 1.446 . S
C8 C9 1.339 . S
C8 H43 0.949 . S
C9 C8 1.339 . S
C9 C10 1.439 . S
C9 H44 0.950 . S
C10 N6 1.383 . S
C10 C9 1.439 . S
C10 C39 1.392 . S
N11 Co5 2.008 . S
N11 C12 1.376 . S
N11 C15 1.374 . S
C12 N11 1.376 . S
C12 C13 1.443 . S
C12 C39 1.389 . S
C13 C12 1.443 . S
C13 C14 1.340 . S
C13 H45 0.951 . S
C14 C13 1.340 . S
C14 C15 1.439 . S
C14 H46 0.950 . S
C15 N11 1.374 . S
C15 C14 1.439 . S
C15 C40 1.395 . S
N16 Co5 1.995 . S
N16 C17 1.376 . S
N16 C20 1.383 . S
C17 N16 1.376 . S
C17 C18 1.446 . S
C17 C40 1.391 . S
C18 C17 1.446 . S
C18 C19 1.339 . S
C18 H47 0.949 . S
C19 C18 1.339 . S
C19 C20 1.439 . S
C19 H48 0.950 . S
C20 N16 1.383 . S
C20 C19 1.439 . S
C20 C38 1.392 . S
N21 Co5 2.282 . S
N21 C24 1.332 . S
N21 C26 1.332 . S
C22 C23 1.386 . S
C22 C25 1.388 . S
C23 C22 1.386 . S
C23 C24 1.382 . S
C23 H49 0.950 . S
C24 N21 1.332 . S
C24 C23 1.382 . S
C24 H35 0.952 . S
C25 C22 1.388 . S
C25 C26 1.382 . S
C25 H50 0.950 . S
C26 N21 1.332 . S
C26 C25 1.382 . S
C26 H36 0.948 . S
N27 Co5 2.282 . S
N27 C31 1.332 . S
N27 C32 1.332 . S
C28 C29 1.388 . S
C28 C32 1.382 . S
C28 H51 0.950 . S
C29 C28 1.388 . S
C29 C30 1.386 . S
C30 C29 1.386 . S
C30 C31 1.382 . S
C30 H52 0.950 . S
C31 N27 1.332 . S
C31 C30 1.382 . S
C31 H33 0.952 . S
C32 N27 1.332 . S
C32 C28 1.382 . S
C32 H34 0.948 . S
H33 C31 0.952 . S
H34 C32 0.948 . S
H35 C24 0.952 . S
H36 C26 0.948 . S
C37 C3 1.395 . S
C37 C7 1.391 . S
C38 C0 1.389 . S
C38 C20 1.392 . S
C39 C10 1.392 . S
C39 C12 1.389 . S
C40 C15 1.395 . S
C40 C17 1.391 . S
H41 C1 0.951 . S
H42 C2 0.950 . S
H43 C8 0.949 . S
H44 C9 0.950 . S
H45 C13 0.951 . S
H46 C14 0.950 . S
H47 C18 0.949 . S
H48 C19 0.950 . S
H49 C23 0.950 . S
H50 C25 0.950 . S
H51 C28 0.950 . S
H52 C30 0.950 . S
C53 C54 1.443 . S
C53 N57 1.376 . S
C53 C91 1.389 . S
C54 C53 1.443 . S
C54 C55 1.340 . S
C54 H94 0.951 . S
C55 C54 1.340 . S
C55 C56 1.439 . S
C55 H95 0.950 . S
C56 C55 1.439 . S
C56 N57 1.374 . S
C56 C90 1.395 . S
N57 C53 1.376 . S
N57 C56 1.374 . S
N57 Co58 2.008 . S
Co58 N57 2.008 . S
Co58 N59 1.995 . S
Co58 N64 2.008 . S
Co58 N69 1.995 . S
Co58 N74 2.282 . S
Co58 N80 2.282 . S
N59 Co58 1.995 . S
N59 C60 1.376 . S
N59 C63 1.383 . S
C60 N59 1.376 . S
C60 C61 1.446 . S
C60 C90 1.391 . S
C61 C60 1.446 . S
C61 C62 1.339 . S
C61 H96 0.949 . S
C62 C61 1.339 . S
C62 C63 1.439 . S
C62 H97 0.950 . S
C63 N59 1.383 . S
C63 C62 1.439 . S
C63 C92 1.392 . S
N64 Co58 2.008 . S
N64 C65 1.376 . S
N64 C68 1.374 . S
C65 N64 1.376 . S
C65 C66 1.443 . S
C65 C92 1.389 . S
C66 C65 1.443 . S
C66 C67 1.340 . S
C66 H98 0.951 . S
C67 C66 1.340 . S
C67 C68 1.439 . S
C67 H99 0.950 . S
C68 N64 1.374 . S
C68 C67 1.439 . S
C68 C93 1.395 . S
N69 Co58 1.995 . S
N69 C70 1.376 . S
N69 C73 1.383 . S
C70 N69 1.376 . S
C70 C71 1.446 . S
C70 C93 1.391 . S
C71 C70 1.446 . S
C71 C72 1.339 . S
C71 H100 0.949 . S
C72 C71 1.339 . S
C72 C73 1.439 . S
C72 H101 0.950 . S
C73 N69 1.383 . S
C73 C72 1.439 . S
C73 C91 1.392 . S
N74 Co58 2.282 . S
N74 C77 1.332 . S
N74 C79 1.332 . S
C75 C76 1.386 . S
C75 C78 1.388 . S
C76 C75 1.386 . S
C76 C77 1.382 . S
C76 H102 0.950 . S
C77 N74 1.332 . S
C77 C76 1.382 . S
C77 H88 0.952 . S
C78 C75 1.388 . S
C78 C79 1.382 . S
C78 H103 0.950 1_655 S
C79 N74 1.332 . S
C79 C78 1.382 . S
C79 H89 0.948 . S
N80 Co58 2.282 . S
N80 C84 1.332 . S
N80 C85 1.332 . S
C81 C82 1.388 . S
C81 C85 1.382 . S
C81 H104 0.950 . S
C82 C81 1.388 . S
C82 C83 1.386 . S
C83 C82 1.386 . S
C83 C84 1.382 . S
C83 H105 0.950 . S
C84 N80 1.332 . S
C84 C83 1.382 . S
C84 H86 0.952 . S
C85 N80 1.332 . S
C85 C81 1.382 . S
C85 H87 0.948 . S
H86 C84 0.952 . S
H87 C85 0.948 . S
H88 C77 0.952 . S
H89 C79 0.948 . S
C90 C56 1.395 . S
C90 C60 1.391 . S
C91 C53 1.389 . S
C91 C73 1.392 . S
C92 C63 1.392 . S
C92 C65 1.389 . S
C93 C68 1.395 . S
C93 C70 1.391 . S
H94 C54 0.951 . S
H95 C55 0.950 . S
H96 C61 0.949 . S
H97 C62 0.950 . S
H98 C66 0.951 . S
H99 C67 0.950 . S
H100 C71 0.949 . S
H101 C72 0.950 . S
H102 C76 0.950 . S
H103 C78 0.950 1_455 S
H104 C81 0.950 . S
H105 C83 0.950 . S
C106 C107 1.443 . S
C106 N110 1.376 . S
C106 C144 1.389 . S
C107 C106 1.443 . S
C107 C108 1.340 . S
C107 H147 0.951 . S
C108 C107 1.340 . S
C108 C109 1.439 . S
C108 H148 0.950 . S
C109 C108 1.439 . S
C109 N110 1.374 . S
C109 C143 1.395 . S
N110 C106 1.376 . S
N110 C109 1.374 . S
N110 Co111 2.008 . S
Co111 N110 2.008 . S
Co111 N112 1.995 . S
Co111 N117 2.008 . S
Co111 N122 1.995 . S
Co111 N127 2.282 . S
Co111 N133 2.282 . S
N112 Co111 1.995 . S
N112 C113 1.376 . S
N112 C116 1.383 . S
C113 N112 1.376 . S
C113 C114 1.446 . S
C113 C143 1.391 . S
C114 C113 1.446 . S
C114 C115 1.339 . S
C114 H149 0.949 . S
C115 C114 1.339 . S
C115 C116 1.439 . S
C115 H150 0.950 . S
C116 N112 1.383 . S
C116 C115 1.439 . S
C116 C145 1.392 . S
N117 Co111 2.008 . S
N117 C118 1.376 . S
N117 C121 1.374 . S
C118 N117 1.376 . S
C118 C119 1.443 . S
C118 C145 1.389 . S
C119 C118 1.443 . S
C119 C120 1.340 . S
C119 H151 0.951 . S
C120 C119 1.340 . S
C120 C121 1.439 . S
C120 H152 0.950 . S
C121 N117 1.374 . S
C121 C120 1.439 . S
C121 C146 1.395 . S
N122 Co111 1.995 . S
N122 C123 1.376 . S
N122 C126 1.383 . S
C123 N122 1.376 . S
C123 C124 1.446 . S
C123 C146 1.391 . S
C124 C123 1.446 . S
C124 C125 1.339 . S
C124 H153 0.949 . S
C125 C124 1.339 . S
C125 C126 1.439 . S
C125 H154 0.950 . S
C126 N122 1.383 . S
C126 C125 1.439 . S
C126 C144 1.392 . S
N127 Co111 2.282 . S
N127 C130 1.332 . S
N127 C132 1.332 . S
C128 C129 1.386 . S
C128 C131 1.388 . S
C129 C128 1.386 . S
C129 C130 1.382 . S
C129 H155 0.950 . S
C130 N127 1.332 . S
C130 C129 1.382 . S
C130 H141 0.952 . S
C131 C128 1.388 . S
C131 C132 1.382 . S
C131 H156 0.950 1_565 S
C132 N127 1.332 . S
C132 C131 1.382 . S
C132 H142 0.948 . S
N133 Co111 2.282 . S
N133 C137 1.332 . S
N133 C138 1.332 . S
C134 C135 1.388 . S
C134 C138 1.382 . S
C134 H157 0.950 . S
C135 C134 1.388 . S
C135 C136 1.386 . S
C136 C135 1.386 . S
C136 C137 1.382 . S
C136 H158 0.950 . S
C137 N133 1.332 . S
C137 C136 1.382 . S
C137 H139 0.952 . S
C138 N133 1.332 . S
C138 C134 1.382 . S
C138 H140 0.948 . S
H139 C137 0.952 . S
H140 C138 0.948 . S
H141 C130 0.952 . S
H142 C132 0.948 . S
C143 C109 1.395 . S
C143 C113 1.391 . S
C144 C106 1.389 . S
C144 C126 1.392 . S
C145 C116 1.392 . S
C145 C118 1.389 . S
C146 C121 1.395 . S
C146 C123 1.391 . S
H147 C107 0.951 . S
H148 C108 0.950 . S
H149 C114 0.949 . S
H150 C115 0.950 . S
H151 C119 0.951 . S
H152 C120 0.950 . S
H153 C124 0.949 . S
H154 C125 0.950 . S
H155 C129 0.950 . S
H156 C131 0.950 1_545 S
H157 C134 0.950 . S
H158 C136 0.950 . S
C159 C160 1.443 . S
C159 N163 1.376 . S
C159 C197 1.389 . S
C160 C159 1.443 . S
C160 C161 1.340 . S
C160 H200 0.951 . S
C161 C160 1.340 . S
C161 C162 1.439 . S
C161 H201 0.950 . S
C162 C161 1.439 . S
C162 N163 1.374 . S
C162 C196 1.395 . S
N163 C159 1.376 . S
N163 C162 1.374 . S
N163 Co164 2.008 . S
Co164 N163 2.008 . S
Co164 N165 1.995 . S
Co164 N170 2.008 . S
Co164 N175 1.995 . S
Co164 N180 2.282 . S
Co164 N186 2.282 . S
N165 Co164 1.995 . S
N165 C166 1.376 . S
N165 C169 1.383 . S
C166 N165 1.376 . S
C166 C167 1.446 . S
C166 C196 1.391 . S
C167 C166 1.446 . S
C167 C168 1.339 . S
C167 H202 0.949 . S
C168 C167 1.339 . S
C168 C169 1.439 . S
C168 H203 0.950 . S
C169 N165 1.383 . S
C169 C168 1.439 . S
C169 C198 1.392 . S
N170 Co164 2.008 . S
N170 C171 1.376 . S
N170 C174 1.374 . S
C171 N170 1.376 . S
C171 C172 1.443 . S
C171 C198 1.389 . S
C172 C171 1.443 . S
C172 C173 1.340 . S
C172 H204 0.951 . S
C173 C172 1.340 . S
C173 C174 1.439 . S
C173 H205 0.950 . S
C174 N170 1.374 . S
C174 C173 1.439 . S
C174 C199 1.395 . S
N175 Co164 1.995 . S
N175 C176 1.376 . S
N175 C179 1.383 . S
C176 N175 1.376 . S
C176 C177 1.446 . S
C176 C199 1.391 . S
C177 C176 1.446 . S
C177 C178 1.339 . S
C177 H206 0.949 . S
C178 C177 1.339 . S
C178 C179 1.439 . S
C178 H207 0.950 . S
C179 N175 1.383 . S
C179 C178 1.439 . S
C179 C197 1.392 . S
N180 Co164 2.282 . S
N180 C183 1.332 . S
N180 C185 1.332 . S
C181 C182 1.386 . S
C181 C184 1.388 . S
C182 C181 1.386 . S
C182 C183 1.382 . S
C182 H208 0.950 . S
C183 N180 1.332 . S
C183 C182 1.382 . S
C183 H194 0.952 . S
C184 C181 1.388 . S
C184 C185 1.382 . S
C184 H209 0.950 . S
C185 N180 1.332 . S
C185 C184 1.382 . S
C185 H195 0.948 . S
N186 Co164 2.282 . S
N186 C190 1.332 . S
N186 C191 1.332 . S
C187 C188 1.388 . S
C187 C191 1.382 . S
C187 H210 0.950 . S
C188 C187 1.388 . S
C188 C189 1.386 . S
C189 C188 1.386 . S
C189 C190 1.382 . S
C189 H211 0.950 . S
C190 N186 1.332 . S
C190 C189 1.382 . S
C190 H192 0.952 . S
C191 N186 1.332 . S
C191 C187 1.382 . S
C191 H193 0.948 . S
H192 C190 0.952 . S
H193 C191 0.948 . S
H194 C183 0.952 . S
H195 C185 0.948 . S
C196 C162 1.395 . S
C196 C166 1.391 . S
C197 C159 1.389 . S
C197 C179 1.392 . S
C198 C169 1.392 . S
C198 C171 1.389 . S
C199 C174 1.395 . S
C199 C176 1.391 . S
H200 C160 0.951 . S
H201 C161 0.950 . S
H202 C167 0.949 . S
H203 C168 0.950 . S
H204 C172 0.951 . S
H205 C173 0.950 . S
H206 C177 0.949 . S
H207 C178 0.950 . S
H208 C182 0.950 . S
H209 C184 0.950 . S
H210 C187 0.950 . S
H211 C189 0.950 . S
C212 C213 1.443 . S
C212 N216 1.376 . S
C212 C250 1.389 . S
C213 C212 1.443 . S
C213 C214 1.340 . S
C213 H253 0.951 . S
C214 C213 1.340 . S
C214 C215 1.439 . S
C214 H254 0.950 . S
C215 C214 1.439 . S
C215 N216 1.374 . S
C215 C249 1.395 . S
N216 C212 1.376 . S
N216 C215 1.374 . S
N216 Co217 2.008 . S
Co217 N216 2.008 . S
Co217 N218 1.995 . S
Co217 N223 2.008 . S
Co217 N228 1.995 . S
Co217 N233 2.282 . S
Co217 N239 2.282 . S
N218 Co217 1.995 . S
N218 C219 1.376 . S
N218 C222 1.383 . S
C219 N218 1.376 . S
C219 C220 1.446 . S
C219 C249 1.391 . S
C220 C219 1.446 . S
C220 C221 1.339 . S
C220 H255 0.949 . S
C221 C220 1.339 . S
C221 C222 1.439 . S
C221 H256 0.950 . S
C222 N218 1.383 . S
C222 C221 1.439 . S
C222 C251 1.392 . S
N223 Co217 2.008 . S
N223 C224 1.376 . S
N223 C227 1.374 . S
C224 N223 1.376 . S
C224 C225 1.443 . S
C224 C251 1.389 . S
C225 C224 1.443 . S
C225 C226 1.340 . S
C225 H257 0.951 . S
C226 C225 1.340 . S
C226 C227 1.439 . S
C226 H258 0.950 . S
C227 N223 1.374 . S
C227 C226 1.439 . S
C227 C252 1.395 . S
N228 Co217 1.995 . S
N228 C229 1.376 . S
N228 C232 1.383 . S
C229 N228 1.376 . S
C229 C230 1.446 . S
C229 C252 1.391 . S
C230 C229 1.446 . S
C230 C231 1.339 . S
C230 H259 0.949 . S
C231 C230 1.339 . S
C231 C232 1.439 . S
C231 H260 0.950 . S
C232 N228 1.383 . S
C232 C231 1.439 . S
C232 C250 1.392 . S
N233 Co217 2.282 . S
N233 C236 1.332 . S
N233 C238 1.332 . S
C234 C235 1.386 . S
C234 C237 1.388 . S
C235 C234 1.386 . S
C235 C236 1.382 . S
C235 H261 0.950 . S
C236 N233 1.332 . S
C236 C235 1.382 . S
C236 H247 0.952 . S
C237 C234 1.388 . S
C237 C238 1.382 . S
C237 H262 0.950 1_565 S
C238 N233 1.332 . S
C238 C237 1.382 . S
C238 H248 0.948 . S
N239 Co217 2.282 . S
N239 C243 1.332 . S
N239 C244 1.332 . S
C240 C241 1.388 . S
C240 C244 1.382 . S
C240 H263 0.950 . S
C241 C240 1.388 . S
C241 C242 1.386 . S
C242 C241 1.386 . S
C242 C243 1.382 . S
C242 H264 0.950 . S
C243 N239 1.332 . S
C243 C242 1.382 . S
C243 H245 0.952 . S
C244 N239 1.332 . S
C244 C240 1.382 . S
C244 H246 0.948 . S
H245 C243 0.952 . S
H246 C244 0.948 . S
H247 C236 0.952 . S
H248 C238 0.948 . S
C249 C215 1.395 . S
C249 C219 1.391 . S
C250 C212 1.389 . S
C250 C232 1.392 . S
C251 C222 1.392 . S
C251 C224 1.389 . S
C252 C227 1.395 . S
C252 C229 1.391 . S
H253 C213 0.951 . S
H254 C214 0.950 . S
H255 C220 0.949 . S
H256 C221 0.950 . S
H257 C225 0.951 . S
H258 C226 0.950 . S
H259 C230 0.949 . S
H260 C231 0.950 . S
H261 C235 0.950 . S
H262 C237 0.950 1_545 S
H263 C240 0.950 . S
H264 C242 0.950 . S
C265 C266 1.443 . S
C265 N269 1.376 . S
C265 C303 1.389 . S
C266 C265 1.443 . S
C266 C267 1.340 . S
C266 H306 0.951 . S
C267 C266 1.340 . S
C267 C268 1.439 . S
C267 H307 0.950 . S
C268 C267 1.439 . S
C268 N269 1.374 . S
C268 C302 1.395 . S
N269 C265 1.376 . S
N269 C268 1.374 . S
N269 Co270 2.008 . S
Co270 N269 2.008 . S
Co270 N271 1.995 . S
Co270 N276 2.008 . S
Co270 N281 1.995 . S
Co270 N286 2.282 . S
Co270 N292 2.282 . S
N271 Co270 1.995 . S
N271 C272 1.376 . S
N271 C275 1.383 . S
C272 N271 1.376 . S
C272 C273 1.446 . S
C272 C302 1.391 . S
C273 C272 1.446 . S
C273 C274 1.339 . S
C273 H308 0.949 . S
C274 C273 1.339 . S
C274 C275 1.439 . S
C274 H309 0.950 . S
C275 N271 1.383 . S
C275 C274 1.439 . S
C275 C304 1.392 . S
N276 Co270 2.008 . S
N276 C277 1.376 . S
N276 C280 1.374 . S
C277 N276 1.376 . S
C277 C278 1.443 . S
C277 C304 1.389 . S
C278 C277 1.443 . S
C278 C279 1.340 . S
C278 H310 0.951 . S
C279 C278 1.340 . S
C279 C280 1.439 . S
C279 H311 0.950 . S
C280 N276 1.374 . S
C280 C279 1.439 . S
C280 C305 1.395 . S
N281 Co270 1.995 . S
N281 C282 1.376 . S
N281 C285 1.383 . S
C282 N281 1.376 . S
C282 C283 1.446 . S
C282 C305 1.391 . S
C283 C282 1.446 . S
C283 C284 1.339 . S
C283 H312 0.949 . S
C284 C283 1.339 . S
C284 C285 1.439 . S
C284 H313 0.950 . S
C285 N281 1.383 . S
C285 C284 1.439 . S
C285 C303 1.392 . S
N286 Co270 2.282 . S
N286 C289 1.332 . S
N286 C291 1.332 . S
C287 C288 1.386 . S
C287 C290 1.388 . S
C288 C287 1.386 . S
C288 C289 1.382 . S
C288 H314 0.950 . S
C289 N286 1.332 . S
C289 C288 1.382 . S
C289 H300 0.952 . S
C290 C287 1.388 . S
C290 C291 1.382 . S
C290 H315 0.950 . S
C291 N286 1.332 . S
C291 C290 1.382 . S
C291 H301 0.948 . S
N292 Co270 2.282 . S
N292 C296 1.332 . S
N292 C297 1.332 . S
C293 C294 1.388 . S
C293 C297 1.382 . S
C293 H316 0.950 . S
C294 C293 1.388 . S
C294 C295 1.386 . S
C295 C294 1.386 . S
C295 C296 1.382 . S
C295 H317 0.950 . S
C296 N292 1.332 . S
C296 C295 1.382 . S
C296 H298 0.952 . S
C297 N292 1.332 . S
C297 C293 1.382 . S
C297 H299 0.948 . S
H298 C296 0.952 . S
H299 C297 0.948 . S
H300 C289 0.952 . S
H301 C291 0.948 . S
C302 C268 1.395 . S
C302 C272 1.391 . S
C303 C265 1.389 . S
C303 C285 1.392 . S
C304 C275 1.392 . S
C304 C277 1.389 . S
C305 C280 1.395 . S
C305 C282 1.391 . S
H306 C266 0.951 . S
H307 C267 0.950 . S
H308 C273 0.949 . S
H309 C274 0.950 . S
H310 C278 0.951 . S
H311 C279 0.950 . S
H312 C283 0.949 . S
H313 C284 0.950 . S
H314 C288 0.950 . S
H315 C290 0.950 . S
H316 C293 0.950 . S
H317 C295 0.950 . S
C318 C319 1.443 . S
C318 N322 1.376 . S
C318 C356 1.389 . S
C319 C318 1.443 . S
C319 C320 1.340 . S
C319 H359 0.951 . S
C320 C319 1.340 . S
C320 C321 1.439 . S
C320 H360 0.950 . S
C321 C320 1.439 . S
C321 N322 1.374 . S
C321 C355 1.395 . S
N322 C318 1.376 . S
N322 C321 1.374 . S
N322 Co323 2.008 . S
Co323 N322 2.008 . S
Co323 N324 1.995 . S
Co323 N329 2.008 . S
Co323 N334 1.995 . S
Co323 N339 2.282 . S
Co323 N345 2.282 . S
N324 Co323 1.995 . S
N324 C325 1.376 . S
N324 C328 1.383 . S
C325 N324 1.376 . S
C325 C326 1.446 . S
C325 C355 1.391 . S
C326 C325 1.446 . S
C326 C327 1.339 . S
C326 H361 0.949 . S
C327 C326 1.339 . S
C327 C328 1.439 . S
C327 H362 0.950 . S
C328 N324 1.383 . S
C328 C327 1.439 . S
C328 C357 1.392 . S
N329 Co323 2.008 . S
N329 C330 1.376 . S
N329 C333 1.374 . S
C330 N329 1.376 . S
C330 C331 1.443 . S
C330 C357 1.389 . S
C331 C330 1.443 . S
C331 C332 1.340 . S
C331 H363 0.951 . S
C332 C331 1.340 . S
C332 C333 1.439 . S
C332 H364 0.950 . S
C333 N329 1.374 . S
C333 C332 1.439 . S
C333 C358 1.395 . S
N334 Co323 1.995 . S
N334 C335 1.376 . S
N334 C338 1.383 . S
C335 N334 1.376 . S
C335 C336 1.446 . S
C335 C358 1.391 . S
C336 C335 1.446 . S
C336 C337 1.339 . S
C336 H365 0.949 . S
C337 C336 1.339 . S
C337 C338 1.439 . S
C337 H366 0.950 . S
C338 N334 1.383 . S
C338 C337 1.439 . S
C338 C356 1.392 . S
N339 Co323 2.282 . S
N339 C342 1.332 . S
N339 C344 1.332 . S
C340 C341 1.386 . S
C340 C343 1.388 . S
C341 C340 1.386 . S
C341 C342 1.382 . S
C341 H367 0.950 . S
C342 N339 1.332 . S
C342 C341 1.382 . S
C342 H353 0.952 . S
C343 C340 1.388 . S
C343 C344 1.382 . S
C343 H368 0.950 . S
C344 N339 1.332 . S
C344 C343 1.382 . S
C344 H354 0.948 . S
N345 Co323 2.282 . S
N345 C349 1.332 . S
N345 C350 1.332 . S
C346 C347 1.388 . S
C346 C350 1.382 . S
C346 H369 0.950 . S
C347 C346 1.388 . S
C347 C348 1.386 . S
C348 C347 1.386 . S
C348 C349 1.382 . S
C348 H370 0.950 . S
C349 N345 1.332 . S
C349 C348 1.382 . S
C349 H351 0.952 . S
C350 N345 1.332 . S
C350 C346 1.382 . S
C350 H352 0.948 . S
H351 C349 0.952 . S
H352 C350 0.948 . S
H353 C342 0.952 . S
H354 C344 0.948 . S
C355 C321 1.395 . S
C355 C325 1.391 . S
C356 C318 1.389 . S
C356 C338 1.392 . S
C357 C328 1.392 . S
C357 C330 1.389 . S
C358 C333 1.395 . S
C358 C335 1.391 . S
H359 C319 0.951 . S
H360 C320 0.950 . S
H361 C326 0.949 . S
H362 C327 0.950 . S
H363 C331 0.951 . S
H364 C332 0.950 . S
H365 C336 0.949 . S
H366 C337 0.950 . S
H367 C341 0.950 . S
H368 C343 0.950 . S
H369 C346 0.950 . S
H370 C348 0.950 . S
C371 C372 1.443 . S
C371 N375 1.376 . S
C371 C409 1.389 . S
C372 C371 1.443 . S
C372 C373 1.340 . S
C372 H412 0.951 . S
C373 C372 1.340 . S
C373 C374 1.439 . S
C373 H413 0.950 . S
C374 C373 1.439 . S
C374 N375 1.374 . S
C374 C408 1.395 . S
N375 C371 1.376 . S
N375 C374 1.374 . S
N375 Co376 2.008 . S
Co376 N375 2.008 . S
Co376 N377 1.995 . S
Co376 N382 2.008 . S
Co376 N387 1.995 . S
Co376 N392 2.282 . S
Co376 N398 2.282 . S
N377 Co376 1.995 . S
N377 C378 1.376 . S
N377 C381 1.383 . S
C378 N377 1.376 . S
C378 C379 1.446 . S
C378 C408 1.391 . S
C379 C378 1.446 . S
C379 C380 1.339 . S
C379 H414 0.949 . S
C380 C379 1.339 . S
C380 C381 1.439 . S
C380 H415 0.950 . S
C381 N377 1.383 . S
C381 C380 1.439 . S
C381 C410 1.392 . S
N382 Co376 2.008 . S
N382 C383 1.376 . S
N382 C386 1.374 . S
C383 N382 1.376 . S
C383 C384 1.443 . S
C383 C410 1.389 . S
C384 C383 1.443 . S
C384 C385 1.340 . S
C384 H416 0.951 . S
C385 C384 1.340 . S
C385 C386 1.439 . S
C385 H417 0.950 . S
C386 N382 1.374 . S
C386 C385 1.439 . S
C386 C411 1.395 . S
N387 Co376 1.995 . S
N387 C388 1.376 . S
N387 C391 1.383 . S
C388 N387 1.376 . S
C388 C389 1.446 . S
C388 C411 1.391 . S
C389 C388 1.446 . S
C389 C390 1.339 . S
C389 H418 0.949 . S
C390 C389 1.339 . S
C390 C391 1.439 . S
C390 H419 0.950 . S
C391 N387 1.383 . S
C391 C390 1.439 . S
C391 C409 1.392 . S
N392 Co376 2.282 . S
N392 C395 1.332 . S
N392 C397 1.332 . S
C393 C394 1.386 . S
C393 C396 1.388 . S
C394 C393 1.386 . S
C394 C395 1.382 . S
C394 H420 0.950 . S
C395 N392 1.332 . S
C395 C394 1.382 . S
C395 H406 0.952 . S
C396 C393 1.388 . S
C396 C397 1.382 . S
C396 H421 0.950 1_655 S
C397 N392 1.332 . S
C397 C396 1.382 . S
C397 H407 0.948 . S
N398 Co376 2.282 . S
N398 C402 1.332 . S
N398 C403 1.332 . S
C399 C400 1.388 . S
C399 C403 1.382 . S
C399 H422 0.950 . S
C400 C399 1.388 . S
C400 C401 1.386 . S
C401 C400 1.386 . S
C401 C402 1.382 . S
C401 H423 0.950 . S
C402 N398 1.332 . S
C402 C401 1.382 . S
C402 H404 0.952 . S
C403 N398 1.332 . S
C403 C399 1.382 . S
C403 H405 0.948 . S
H404 C402 0.952 . S
H405 C403 0.948 . S
H406 C395 0.952 . S
H407 C397 0.948 . S
C408 C374 1.395 . S
C408 C378 1.391 . S
C409 C371 1.389 . S
C409 C391 1.392 . S
C410 C381 1.392 . S
C410 C383 1.389 . S
C411 C386 1.395 . S
C411 C388 1.391 . S
H412 C372 0.951 . S
H413 C373 0.950 . S
H414 C379 0.949 . S
H415 C380 0.950 . S
H416 C384 0.951 . S
H417 C385 0.950 . S
H418 C389 0.949 . S
H419 C390 0.950 . S
H420 C394 0.950 . S
H421 C396 0.950 1_455 S
H422 C399 0.950 . S
H423 C401 0.950 . S
C424 C425 1.443 . S
C424 N428 1.376 . S
C424 C462 1.389 . S
C425 C424 1.443 . S
C425 C426 1.340 . S
C425 H465 0.951 . S
C426 C425 1.340 . S
C426 C427 1.439 . S
C426 H466 0.950 . S
C427 C426 1.439 . S
C427 N428 1.374 . S
C427 C461 1.395 . S
N428 C424 1.376 . S
N428 C427 1.374 . S
N428 Co429 2.008 . S
Co429 N428 2.008 . S
Co429 N430 1.995 . S
Co429 N435 2.008 . S
Co429 N440 1.995 . S
Co429 N445 2.282 . S
Co429 N451 2.282 . S
N430 Co429 1.995 . S
N430 C431 1.376 . S
N430 C434 1.383 . S
C431 N430 1.376 . S
C431 C432 1.446 . S
C431 C461 1.391 . S
C432 C431 1.446 . S
C432 C433 1.339 . S
C432 H467 0.949 . S
C433 C432 1.339 . S
C433 C434 1.439 . S
C433 H468 0.950 . S
C434 N430 1.383 . S
C434 C433 1.439 . S
C434 C463 1.392 . S
N435 Co429 2.008 . S
N435 C436 1.376 . S
N435 C439 1.374 . S
C436 N435 1.376 . S
C436 C437 1.443 . S
C436 C463 1.389 . S
C437 C436 1.443 . S
C437 C438 1.340 . S
C437 H469 0.951 . S
C438 C437 1.340 . S
C438 C439 1.439 . S
C438 H470 0.950 . S
C439 N435 1.374 . S
C439 C438 1.439 . S
C439 C464 1.395 . S
N440 Co429 1.995 . S
N440 C441 1.376 . S
N440 C444 1.383 . S
C441 N440 1.376 . S
C441 C442 1.446 . S
C441 C464 1.391 . S
C442 C441 1.446 . S
C442 C443 1.339 . S
C442 H471 0.949 . S
C443 C442 1.339 . S
C443 C444 1.439 . S
C443 H472 0.950 . S
C444 N440 1.383 . S
C444 C443 1.439 . S
C444 C462 1.392 . S
N445 Co429 2.282 . S
N445 C448 1.332 . S
N445 C450 1.332 . S
C446 C447 1.386 . S
C446 C449 1.388 . S
C447 C446 1.386 . S
C447 C448 1.382 . S
C447 H473 0.936 1_655 S
C448 N445 1.332 . S
C448 C447 1.382 . S
C448 H459 0.952 . S
C449 C446 1.388 . S
C449 C450 1.382 . S
C449 H474 0.950 . S
C450 N445 1.332 . S
C450 C449 1.382 . S
C450 H460 0.948 . S
N451 Co429 2.282 . S
N451 C455 1.332 . S
N451 C456 1.332 . S
C452 C453 1.388 . S
C452 C456 1.382 . S
C452 H475 0.950 . S
C453 C452 1.388 . S
C453 C454 1.386 . S
C454 C453 1.386 . S
C454 C455 1.382 . S
C454 H476 0.950 . S
C455 N451 1.332 . S
C455 C454 1.382 . S
C455 H457 0.952 . S
C456 N451 1.332 . S
C456 C452 1.382 . S
C456 H458 0.948 . S
H457 C455 0.952 . S
H458 C456 0.948 . S
H459 C448 0.952 . S
H460 C450 0.948 . S
C461 C427 1.395 . S
C461 C431 1.391 . S
C462 C424 1.389 . S
C462 C444 1.392 . S
C463 C434 1.392 . S
C463 C436 1.389 . S
C464 C439 1.395 . S
C464 C441 1.391 . S
H465 C425 0.951 . S
H466 C426 0.950 . S
H467 C432 0.949 . S
H468 C433 0.950 . S
H469 C437 0.951 . S
H470 C438 0.950 . S
H471 C442 0.949 . S
H472 C443 0.950 . S
H473 C447 0.936 1_455 S
H474 C449 0.950 . S
H475 C452 0.950 . S
H476 C454 0.950 . S
C477 C478 1.443 . S
C477 N481 1.376 . S
C477 C515 1.389 . S
C478 C477 1.443 . S
C478 C479 1.340 . S
C478 H518 0.951 . S
C479 C478 1.340 . S
C479 C480 1.439 . S
C479 H519 0.950 . S
C480 C479 1.439 . S
C480 N481 1.374 . S
C480 C514 1.395 . S
N481 C477 1.376 . S
N481 C480 1.374 . S
N481 Co482 2.008 . S
Co482 N481 2.008 . S
Co482 N483 1.995 . S
Co482 N488 2.008 . S
Co482 N493 1.995 . S
Co482 N498 2.282 . S
Co482 N504 2.282 . S
N483 Co482 1.995 . S
N483 C484 1.376 . S
N483 C487 1.383 . S
C484 N483 1.376 . S
C484 C485 1.446 . S
C484 C514 1.391 . S
C485 C484 1.446 . S
C485 C486 1.339 . S
C485 H520 0.949 . S
C486 C485 1.339 . S
C486 C487 1.439 . S
C486 H521 0.950 . S
C487 N483 1.383 . S
C487 C486 1.439 . S
C487 C516 1.392 . S
N488 Co482 2.008 . S
N488 C489 1.376 . S
N488 C492 1.374 . S
C489 N488 1.376 . S
C489 C490 1.443 . S
C489 C516 1.389 . S
C490 C489 1.443 . S
C490 C491 1.340 . S
C490 H522 0.951 . S
C491 C490 1.340 . S
C491 C492 1.439 . S
C491 H523 0.950 . S
C492 N488 1.374 . S
C492 C491 1.439 . S
C492 C517 1.395 . S
N493 Co482 1.995 . S
N493 C494 1.376 . S
N493 C497 1.383 . S
C494 N493 1.376 . S
C494 C495 1.446 . S
C494 C517 1.391 . S
C495 C494 1.446 . S
C495 C496 1.339 . S
C495 H524 0.949 . S
C496 C495 1.339 . S
C496 C497 1.439 . S
C496 H525 0.950 . S
C497 N493 1.383 . S
C497 C496 1.439 . S
C497 C515 1.392 . S
N498 Co482 2.282 . S
N498 C501 1.332 . S
N498 C503 1.332 . S
C499 C500 1.386 . S
C499 C502 1.388 . S
C500 C499 1.386 . S
C500 C501 1.382 . S
C500 H526 0.936 1_565 S
C501 N498 1.332 . S
C501 C500 1.382 . S
C501 H512 0.952 . S
C502 C499 1.388 . S
C502 C503 1.382 . S
C502 H527 0.950 . S
C503 N498 1.332 . S
C503 C502 1.382 . S
C503 H513 0.948 . S
N504 Co482 2.282 . S
N504 C508 1.332 . S
N504 C509 1.332 . S
C505 C506 1.388 . S
C505 C509 1.382 . S
C505 H528 0.950 . S
C506 C505 1.388 . S
C506 C507 1.386 . S
C507 C506 1.386 . S
C507 C508 1.382 . S
C507 H529 0.950 . S
C508 N504 1.332 . S
C508 C507 1.382 . S
C508 H510 0.952 . S
C509 N504 1.332 . S
C509 C505 1.382 . S
C509 H511 0.948 . S
H510 C508 0.952 . S
H511 C509 0.948 . S
H512 C501 0.952 . S
H513 C503 0.948 . S
C514 C480 1.395 . S
C514 C484 1.391 . S
C515 C477 1.389 . S
C515 C497 1.392 . S
C516 C487 1.392 . S
C516 C489 1.389 . S
C517 C492 1.395 . S
C517 C494 1.391 . S
H518 C478 0.951 . S
H519 C479 0.950 . S
H520 C485 0.949 . S
H521 C486 0.950 . S
H522 C490 0.951 . S
H523 C491 0.950 . S
H524 C495 0.949 . S
H525 C496 0.950 . S
H526 C500 0.936 1_545 S
H527 C502 0.950 . S
H528 C505 0.950 . S
H529 C507 0.950 . S
C530 C531 1.443 . S
C530 N534 1.376 . S
C530 C568 1.389 . S
C531 C530 1.443 . S
C531 C532 1.340 . S
C531 H571 0.951 . S
C532 C531 1.340 . S
C532 C533 1.439 . S
C532 H572 0.950 . S
C533 C532 1.439 . S
C533 N534 1.374 . S
C533 C567 1.395 . S
N534 C530 1.376 . S
N534 C533 1.374 . S
N534 Co535 2.008 . S
Co535 N534 2.008 . S
Co535 N536 1.995 . S
Co535 N541 2.008 . S
Co535 N546 1.995 . S
Co535 N551 2.282 . S
Co535 N557 2.282 . S
N536 Co535 1.995 . S
N536 C537 1.376 . S
N536 C540 1.383 . S
C537 N536 1.376 . S
C537 C538 1.446 . S
C537 C567 1.391 . S
C538 C537 1.446 . S
C538 C539 1.339 . S
C538 H573 0.949 . S
C539 C538 1.339 . S
C539 C540 1.439 . S
C539 H574 0.950 . S
C540 N536 1.383 . S
C540 C539 1.439 . S
C540 C569 1.392 . S
N541 Co535 2.008 . S
N541 C542 1.376 . S
N541 C545 1.374 . S
C542 N541 1.376 . S
C542 C543 1.443 . S
C542 C569 1.389 . S
C543 C542 1.443 . S
C543 C544 1.340 . S
C543 H575 0.951 . S
C544 C543 1.340 . S
C544 C545 1.439 . S
C544 H576 0.950 . S
C545 N541 1.374 . S
C545 C544 1.439 . S
C545 C570 1.395 . S
N546 Co535 1.995 . S
N546 C547 1.376 . S
N546 C550 1.383 . S
C547 N546 1.376 . S
C547 C548 1.446 . S
C547 C570 1.391 . S
C548 C547 1.446 . S
C548 C549 1.339 . S
C548 H577 0.949 . S
C549 C548 1.339 . S
C549 C550 1.439 . S
C549 H578 0.950 . S
C550 N546 1.383 . S
C550 C549 1.439 . S
C550 C568 1.392 . S
N551 Co535 2.282 . S
N551 C554 1.332 . S
N551 C556 1.332 . S
C552 C553 1.386 . S
C552 C555 1.388 . S
C553 C552 1.386 . S
C553 C554 1.382 . S
C553 H579 0.950 . S
C554 N551 1.332 . S
C554 C553 1.382 . S
C554 H565 0.952 . S
C555 C552 1.388 . S
C555 C556 1.382 . S
C555 H580 0.950 . S
C556 N551 1.332 . S
C556 C555 1.382 . S
C556 H566 0.948 . S
N557 Co535 2.282 . S
N557 C561 1.332 . S
N557 C562 1.332 . S
C558 C559 1.388 . S
C558 C562 1.382 . S
C558 H581 0.950 . S
C559 C558 1.388 . S
C559 C560 1.386 . S
C560 C559 1.386 . S
C560 C561 1.382 . S
C560 H582 0.950 . S
C561 N557 1.332 . S
C561 C560 1.382 . S
C561 H563 0.952 . S
C562 N557 1.332 . S
C562 C558 1.382 . S
C562 H564 0.948 . S
H563 C561 0.952 . S
H564 C562 0.948 . S
H565 C554 0.952 . S
H566 C556 0.948 . S
C567 C533 1.395 . S
C567 C537 1.391 . S
C568 C530 1.389 . S
C568 C550 1.392 . S
C569 C540 1.392 . S
C569 C542 1.389 . S
C570 C545 1.395 . S
C570 C547 1.391 . S
H571 C531 0.951 . S
H572 C532 0.950 . S
H573 C538 0.949 . S
H574 C539 0.950 . S
H575 C543 0.951 . S
H576 C544 0.950 . S
H577 C548 0.949 . S
H578 C549 0.950 . S
H579 C553 0.950 . S
H580 C555 0.950 . S
H581 C558 0.950 . S
H582 C560 0.950 . S
C583 C584 1.443 . S
C583 N587 1.376 . S
C583 C621 1.389 . S
C584 C583 1.443 . S
C584 C585 1.340 . S
C584 H624 0.951 . S
C585 C584 1.340 . S
C585 C586 1.439 . S
C585 H625 0.950 . S
C586 C585 1.439 . S
C586 N587 1.374 . S
C586 C620 1.395 . S
N587 C583 1.376 . S
N587 C586 1.374 . S
N587 Co588 2.008 . S
Co588 N587 2.008 . S
Co588 N589 1.995 . S
Co588 N594 2.008 . S
Co588 N599 1.995 . S
Co588 N604 2.282 . S
Co588 N610 2.282 . S
N589 Co588 1.995 . S
N589 C590 1.376 . S
N589 C593 1.383 . S
C590 N589 1.376 . S
C590 C591 1.446 . S
C590 C620 1.391 . S
C591 C590 1.446 . S
C591 C592 1.339 . S
C591 H626 0.949 . S
C592 C591 1.339 . S
C592 C593 1.439 . S
C592 H627 0.950 . S
C593 N589 1.383 . S
C593 C592 1.439 . S
C593 C622 1.392 . S
N594 Co588 2.008 . S
N594 C595 1.376 . S
N594 C598 1.374 . S
C595 N594 1.376 . S
C595 C596 1.443 . S
C595 C622 1.389 . S
C596 C595 1.443 . S
C596 C597 1.340 . S
C596 H628 0.951 . S
C597 C596 1.340 . S
C597 C598 1.439 . S
C597 H629 0.950 . S
C598 N594 1.374 . S
C598 C597 1.439 . S
C598 C623 1.395 . S
N599 Co588 1.995 . S
N599 C600 1.376 . S
N599 C603 1.383 . S
C600 N599 1.376 . S
C600 C601 1.446 . S
C600 C623 1.391 . S
C601 C600 1.446 . S
C601 C602 1.339 . S
C601 H630 0.949 . S
C602 C601 1.339 . S
C602 C603 1.439 . S
C602 H631 0.950 . S
C603 N599 1.383 . S
C603 C602 1.439 . S
C603 C621 1.392 . S
N604 Co588 2.282 . S
N604 C607 1.332 . S
N604 C609 1.332 . S
C605 C606 1.386 . S
C605 C608 1.388 . S
C606 C605 1.386 . S
C606 C607 1.382 . S
C606 H632 0.950 . S
C607 N604 1.332 . S
C607 C606 1.382 . S
C607 H618 0.952 . S
C608 C605 1.388 . S
C608 C609 1.382 . S
C608 H633 0.950 . S
C609 N604 1.332 . S
C609 C608 1.382 . S
C609 H619 0.948 . S
N610 Co588 2.282 . S
N610 C614 1.332 . S
N610 C615 1.332 . S
C611 C612 1.388 . S
C611 C615 1.382 . S
C611 H634 0.950 . S
C612 C611 1.388 . S
C612 C613 1.386 . S
C613 C612 1.386 . S
C613 C614 1.382 . S
C613 H635 0.950 . S
C614 N610 1.332 . S
C614 C613 1.382 . S
C614 H616 0.952 . S
C615 N610 1.332 . S
C615 C611 1.382 . S
C615 H617 0.948 . S
H616 C614 0.952 . S
H617 C615 0.948 . S
H618 C607 0.952 . S
H619 C609 0.948 . S
C620 C586 1.395 . S
C620 C590 1.391 . S
C621 C583 1.389 . S
C621 C603 1.392 . S
C622 C593 1.392 . S
C622 C595 1.389 . S
C623 C598 1.395 . S
C623 C600 1.391 . S
H624 C584 0.951 . S
H625 C585 0.950 . S
H626 C591 0.949 . S
H627 C592 0.950 . S
H628 C596 0.951 . S
H629 C597 0.950 . S
H630 C601 0.949 . S
H631 C602 0.950 . S
H632 C606 0.950 . S
H633 C608 0.950 . S
H634 C611 0.950 . S
H635 C613 0.950 . S
C636 C637 1.443 . S
C636 N640 1.376 . S
C636 C674 1.389 . S
C637 C636 1.443 . S
C637 C638 1.340 . S
C637 H677 0.951 . S
C638 C637 1.340 . S
C638 C639 1.439 . S
C638 H678 0.950 . S
C639 C638 1.439 . S
C639 N640 1.374 . S
C639 C673 1.395 . S
N640 C636 1.376 . S
N640 C639 1.374 . S
N640 Co641 2.008 . S
Co641 N640 2.008 . S
Co641 N642 1.995 . S
Co641 N647 2.008 . S
Co641 N652 1.995 . S
Co641 N657 2.282 . S
Co641 N663 2.282 . S
N642 Co641 1.995 . S
N642 C643 1.376 . S
N642 C646 1.383 . S
C643 N642 1.376 . S
C643 C644 1.446 . S
C643 C673 1.391 . S
C644 C643 1.446 . S
C644 C645 1.339 . S
C644 H679 0.949 . S
C645 C644 1.339 . S
C645 C646 1.439 . S
C645 H680 0.950 . S
C646 N642 1.383 . S
C646 C645 1.439 . S
C646 C675 1.392 . S
N647 Co641 2.008 . S
N647 C648 1.376 . S
N647 C651 1.374 . S
C648 N647 1.376 . S
C648 C649 1.443 . S
C648 C675 1.389 . S
C649 C648 1.443 . S
C649 C650 1.340 . S
C649 H681 0.951 . S
C650 C649 1.340 . S
C650 C651 1.439 . S
C650 H682 0.950 . S
C651 N647 1.374 . S
C651 C650 1.439 . S
C651 C676 1.395 . S
N652 Co641 1.995 . S
N652 C653 1.376 . S
N652 C656 1.383 . S
C653 N652 1.376 . S
C653 C654 1.446 . S
C653 C676 1.391 . S
C654 C653 1.446 . S
C654 C655 1.339 . S
C654 H683 0.949 . S
C655 C654 1.339 . S
C655 C656 1.439 . S
C655 H684 0.950 . S
C656 N652 1.383 . S
C656 C655 1.439 . S
C656 C674 1.392 . S
N657 Co641 2.282 . S
N657 C660 1.332 . S
N657 C662 1.332 . S
C658 C659 1.386 . S
C658 C661 1.388 . S
C659 C658 1.386 . S
C659 C660 1.382 . S
C659 H685 0.936 1_655 S
C660 N657 1.332 . S
C660 C659 1.382 . S
C660 H671 0.952 . S
C661 C658 1.388 . S
C661 C662 1.382 . S
C661 H686 0.950 . S
C662 N657 1.332 . S
C662 C661 1.382 . S
C662 H672 0.948 . S
N663 Co641 2.282 . S
N663 C667 1.332 . S
N663 C668 1.332 . S
C664 C665 1.388 . S
C664 C668 1.382 . S
C664 H687 0.950 . S
C665 C664 1.388 . S
C665 C666 1.386 . S
C666 C665 1.386 . S
C666 C667 1.382 . S
C666 H688 0.950 . S
C667 N663 1.332 . S
C667 C666 1.382 . S
C667 H669 0.952 . S
C668 N663 1.332 . S
C668 C664 1.382 . S
C668 H670 0.948 . S
H669 C667 0.952 . S
H670 C668 0.948 . S
H671 C660 0.952 . S
H672 C662 0.948 . S
C673 C639 1.395 . S
C673 C643 1.391 . S
C674 C636 1.389 . S
C674 C656 1.392 . S
C675 C646 1.392 . S
C675 C648 1.389 . S
C676 C651 1.395 . S
C676 C653 1.391 . S
H677 C637 0.951 . S
H678 C638 0.950 . S
H679 C644 0.949 . S
H680 C645 0.950 . S
H681 C649 0.951 . S
H682 C650 0.950 . S
H683 C654 0.949 . S
H684 C655 0.950 . S
H685 C659 0.936 1_455 S
H686 C661 0.950 . S
H687 C664 0.950 . S
H688 C666 0.950 . S
C689 C690 1.443 . S
C689 N693 1.376 . S
C689 C727 1.389 . S
C690 C689 1.443 . S
C690 C691 1.340 . S
C690 H730 0.951 . S
C691 C690 1.340 . S
C691 C692 1.439 . S
C691 H731 0.950 . S
C692 C691 1.439 . S
C692 N693 1.374 . S
C692 C726 1.395 . S
N693 C689 1.376 . S
N693 C692 1.374 . S
N693 Co694 2.008 . S
Co694 N693 2.008 . S
Co694 N695 1.995 . S
Co694 N700 2.008 . S
Co694 N705 1.995 . S
Co694 N710 2.282 . S
Co694 N716 2.282 . S
N695 Co694 1.995 . S
N695 C696 1.376 . S
N695 C699 1.383 . S
C696 N695 1.376 . S
C696 C697 1.446 . S
C696 C726 1.391 . S
C697 C696 1.446 . S
C697 C698 1.339 . S
C697 H732 0.949 . S
C698 C697 1.339 . S
C698 C699 1.439 . S
C698 H733 0.950 . S
C699 N695 1.383 . S
C699 C698 1.439 . S
C699 C728 1.392 . S
N700 Co694 2.008 . S
N700 C701 1.376 . S
N700 C704 1.374 . S
C701 N700 1.376 . S
C701 C702 1.443 . S
C701 C728 1.389 . S
C702 C701 1.443 . S
C702 C703 1.340 . S
C702 H734 0.951 . S
C703 C702 1.340 . S
C703 C704 1.439 . S
C703 H735 0.950 . S
C704 N700 1.374 . S
C704 C703 1.439 . S
C704 C729 1.395 . S
N705 Co694 1.995 . S
N705 C706 1.376 . S
N705 C709 1.383 . S
C706 N705 1.376 . S
C706 C707 1.446 . S
C706 C729 1.391 . S
C707 C706 1.446 . S
C707 C708 1.339 . S
C707 H736 0.949 . S
C708 C707 1.339 . S
C708 C709 1.439 . S
C708 H737 0.950 . S
C709 N705 1.383 . S
C709 C708 1.439 . S
C709 C727 1.392 . S
N710 Co694 2.282 . S
N710 C713 1.332 . S
N710 C715 1.332 . S
C711 C712 1.386 . S
C711 C714 1.388 . S
C712 C711 1.386 . S
C712 C713 1.382 . S
C712 H738 0.936 1_565 S
C713 N710 1.332 . S
C713 C712 1.382 . S
C713 H724 0.952 . S
C714 C711 1.388 . S
C714 C715 1.382 . S
C714 H739 0.950 . S
C715 N710 1.332 . S
C715 C714 1.382 . S
C715 H725 0.948 . S
N716 Co694 2.282 . S
N716 C720 1.332 . S
N716 C721 1.332 . S
C717 C718 1.388 . S
C717 C721 1.382 . S
C717 H740 0.950 . S
C718 C717 1.388 . S
C718 C719 1.386 . S
C719 C718 1.386 . S
C719 C720 1.382 . S
C719 H741 0.950 . S
C720 N716 1.332 . S
C720 C719 1.382 . S
C720 H722 0.952 . S
C721 N716 1.332 . S
C721 C717 1.382 . S
C721 H723 0.948 . S
H722 C720 0.952 . S
H723 C721 0.948 . S
H724 C713 0.952 . S
H725 C715 0.948 . S
C726 C692 1.395 . S
C726 C696 1.391 . S
C727 C689 1.389 . S
C727 C709 1.392 . S
C728 C699 1.392 . S
C728 C701 1.389 . S
C729 C704 1.395 . S
C729 C706 1.391 . S
H730 C690 0.951 . S
H731 C691 0.950 . S
H732 C697 0.949 . S
H733 C698 0.950 . S
H734 C702 0.951 . S
H735 C703 0.950 . S
H736 C707 0.949 . S
H737 C708 0.950 . S
H738 C712 0.936 1_545 S
H739 C714 0.950 . S
H740 C717 0.950 . S
H741 C719 0.950 . S
C742 C743 1.443 . S
C742 N746 1.376 . S
C742 C780 1.389 . S
C743 C742 1.443 . S
C743 C744 1.340 . S
C743 H783 0.951 . S
C744 C743 1.340 . S
C744 C745 1.439 . S
C744 H784 0.950 . S
C745 C744 1.439 . S
C745 N746 1.374 . S
C745 C779 1.395 . S
N746 C742 1.376 . S
N746 C745 1.374 . S
N746 Co747 2.008 . S
Co747 N746 2.008 . S
Co747 N748 1.995 . S
Co747 N753 2.008 . S
Co747 N758 1.995 . S
Co747 N763 2.282 . S
Co747 N769 2.282 . S
N748 Co747 1.995 . S
N748 C749 1.376 . S
N748 C752 1.383 . S
C749 N748 1.376 . S
C749 C750 1.446 . S
C749 C779 1.391 . S
C750 C749 1.446 . S
C750 C751 1.339 . S
C750 H785 0.949 . S
C751 C750 1.339 . S
C751 C752 1.439 . S
C751 H786 0.950 . S
C752 N748 1.383 . S
C752 C751 1.439 . S
C752 C781 1.392 . S
N753 Co747 2.008 . S
N753 C754 1.376 . S
N753 C757 1.374 . S
C754 N753 1.376 . S
C754 C755 1.443 . S
C754 C781 1.389 . S
C755 C754 1.443 . S
C755 C756 1.340 . S
C755 H787 0.951 . S
C756 C755 1.340 . S
C756 C757 1.439 . S
C756 H788 0.950 . S
C757 N753 1.374 . S
C757 C756 1.439 . S
C757 C782 1.395 . S
N758 Co747 1.995 . S
N758 C759 1.376 . S
N758 C762 1.383 . S
C759 N758 1.376 . S
C759 C760 1.446 . S
C759 C782 1.391 . S
C760 C759 1.446 . S
C760 C761 1.339 . S
C760 H789 0.949 . S
C761 C760 1.339 . S
C761 C762 1.439 . S
C761 H790 0.950 . S
C762 N758 1.383 . S
C762 C761 1.439 . S
C762 C780 1.392 . S
N763 Co747 2.282 . S
N763 C766 1.332 . S
N763 C768 1.332 . S
C764 C765 1.386 . S
C764 C767 1.388 . S
C765 C764 1.386 . S
C765 C766 1.382 . S
C765 H791 0.950 . S
C766 N763 1.332 . S
C766 C765 1.382 . S
C766 H777 0.952 . S
C767 C764 1.388 . S
C767 C768 1.382 . S
C767 H792 0.950 . S
C768 N763 1.332 . S
C768 C767 1.382 . S
C768 H778 0.948 . S
N769 Co747 2.282 . S
N769 C773 1.332 . S
N769 C774 1.332 . S
C770 C771 1.388 . S
C770 C774 1.382 . S
C770 H793 0.950 . S
C771 C770 1.388 . S
C771 C772 1.386 . S
C772 C771 1.386 . S
C772 C773 1.382 . S
C772 H794 0.950 . S
C773 N769 1.332 . S
C773 C772 1.382 . S
C773 H775 0.952 . S
C774 N769 1.332 . S
C774 C770 1.382 . S
C774 H776 0.948 . S
H775 C773 0.952 . S
H776 C774 0.948 . S
H777 C766 0.952 . S
H778 C768 0.948 . S
C779 C745 1.395 . S
C779 C749 1.391 . S
C780 C742 1.389 . S
C780 C762 1.392 . S
C781 C752 1.392 . S
C781 C754 1.389 . S
C782 C757 1.395 . S
C782 C759 1.391 . S
H783 C743 0.951 . S
H784 C744 0.950 . S
H785 C750 0.949 . S
H786 C751 0.950 . S
H787 C755 0.951 . S
H788 C756 0.950 . S
H789 C760 0.949 . S
H790 C761 0.950 . S
H791 C765 0.950 . S
H792 C767 0.950 . S
H793 C770 0.950 . S
H794 C772 0.950 . S
C795 C796 1.443 . S
C795 N799 1.376 . S
C795 C833 1.389 . S
C796 C795 1.443 . S
C796 C797 1.340 . S
C796 H836 0.951 . S
C797 C796 1.340 . S
C797 C798 1.439 . S
C797 H837 0.950 . S
C798 C797 1.439 . S
C798 N799 1.374 . S
C798 C832 1.395 . S
N799 C795 1.376 . S
N799 C798 1.374 . S
N799 Co800 2.008 . S
Co800 N799 2.008 . S
Co800 N801 1.995 . S
Co800 N806 2.008 . S
Co800 N811 1.995 . S
Co800 N816 2.282 . S
Co800 N822 2.282 . S
N801 Co800 1.995 . S
N801 C802 1.376 . S
N801 C805 1.383 . S
C802 N801 1.376 . S
C802 C803 1.446 . S
C802 C832 1.391 . S
C803 C802 1.446 . S
C803 C804 1.339 . S
C803 H838 0.949 . S
C804 C803 1.339 . S
C804 C805 1.439 . S
C804 H839 0.950 . S
C805 N801 1.383 . S
C805 C804 1.439 . S
C805 C834 1.392 . S
N806 Co800 2.008 . S
N806 C807 1.376 . S
N806 C810 1.374 . S
C807 N806 1.376 . S
C807 C808 1.443 . S
C807 C834 1.389 . S
C808 C807 1.443 . S
C808 C809 1.340 . S
C808 H840 0.951 . S
C809 C808 1.340 . S
C809 C810 1.439 . S
C809 H841 0.950 . S
C810 N806 1.374 . S
C810 C809 1.439 . S
C810 C835 1.395 . S
N811 Co800 1.995 . S
N811 C812 1.376 . S
N811 C815 1.383 . S
C812 N811 1.376 . S
C812 C813 1.446 . S
C812 C835 1.391 . S
C813 C812 1.446 . S
C813 C814 1.339 . S
C813 H842 0.949 . S
C814 C813 1.339 . S
C814 C815 1.439 . S
C814 H843 0.950 . S
C815 N811 1.383 . S
C815 C814 1.439 . S
C815 C833 1.392 . S
N816 Co800 2.282 . S
N816 C819 1.332 . S
N816 C821 1.332 . S
C817 C818 1.386 . S
C817 C820 1.388 . S
C818 C817 1.386 . S
C818 C819 1.382 . S
C818 H844 0.950 . S
C819 N816 1.332 . S
C819 C818 1.382 . S
C819 H830 0.952 . S
C820 C817 1.388 . S
C820 C821 1.382 . S
C820 H845 0.950 . S
C821 N816 1.332 . S
C821 C820 1.382 . S
C821 H831 0.948 . S
N822 Co800 2.282 . S
N822 C826 1.332 . S
N822 C827 1.332 . S
C823 C824 1.388 . S
C823 C827 1.382 . S
C823 H846 0.950 . S
C824 C823 1.388 . S
C824 C825 1.386 . S
C825 C824 1.386 . S
C825 C826 1.382 . S
C825 H847 0.950 . S
C826 N822 1.332 . S
C826 C825 1.382 . S
C826 H828 0.952 . S
C827 N822 1.332 . S
C827 C823 1.382 . S
C827 H829 0.948 . S
H828 C826 0.952 . S
H829 C827 0.948 . S
H830 C819 0.952 . S
H831 C821 0.948 . S
C832 C798 1.395 . S
C832 C802 1.391 . S
C833 C795 1.389 . S
C833 C815 1.392 . S
C834 C805 1.392 . S
C834 C807 1.389 . S
C835 C810 1.395 . S
C835 C812 1.391 . S
H836 C796 0.951 . S
H837 C797 0.950 . S
H838 C803 0.949 . S
H839 C804 0.950 . S
H840 C808 0.951 . S
H841 C809 0.950 . S
H842 C813 0.949 . S
H843 C814 0.950 . S
H844 C818 0.950 . S
H845 C820 0.950 . S
H846 C823 0.950 . S
H847 C825 0.950 . S
C848 C849 1.391 . S
C848 C850 1.394 . S
C848 H864 0.931 . S
C849 C848 1.391 . S
C849 C853 1.376 . S
C850 C848 1.394 . S
C850 C851 1.369 . S
C850 C854 1.531 . S
C851 C850 1.369 . S
C851 C852 1.410 . S
C851 C859 1.503 . S
C852 C851 1.410 . S
C852 C853 1.392 . S
C852 C855 1.511 . S
C853 C849 1.376 . S
C853 C852 1.392 . S
C853 H865 0.929 . S
C854 C850 1.531 . S
C854 H866 0.960 . S
C854 H867 0.962 . S
C854 H868 0.960 . S
C855 C852 1.511 . S
C855 H869 0.961 . S
C855 H870 0.961 . S
C855 H871 0.961 . S
C856 C857 1.370 . S
C856 C858 1.363 . S
C856 H872 0.931 . S
C857 C856 1.370 . S
C857 C861 1.408 . S
C858 C856 1.363 . S
C858 C859 1.370 . S
C858 C862 1.524 . S
C859 C851 1.503 . S
C859 C858 1.370 . S
C859 C860 1.403 . S
C860 C859 1.403 . S
C860 C861 1.404 . S
C860 C863 1.539 . S
C861 C857 1.408 . S
C861 C860 1.404 . S
C861 H873 0.930 . S
C862 C858 1.524 . S
C862 H874 0.956 . S
C862 H875 0.961 . S
C862 H876 0.961 . S
C863 C860 1.539 . S
C863 H877 0.958 . S
C863 H878 0.961 . S
C863 H879 0.960 . S
H864 C848 0.931 . S
H865 C853 0.929 . S
H866 C854 0.960 . S
H867 C854 0.962 . S
H868 C854 0.960 . S
H869 C855 0.961 . S
H870 C855 0.961 . S
H871 C855 0.961 . S
H872 C856 0.931 . S
H873 C861 0.930 . S
H874 C862 0.956 . S
H875 C862 0.961 . S
H876 C862 0.961 . S
H877 C863 0.958 . S
H878 C863 0.961 . S
H879 C863 0.960 . S
C880 C881 1.391 . S
C880 C882 1.394 . S
C880 H896 0.931 . S
C881 C880 1.391 . S
C881 C885 1.376 . S
C882 C880 1.394 . S
C882 C883 1.369 . S
C882 C886 1.531 . S
C883 C882 1.369 . S
C883 C884 1.410 . S
C883 C891 1.503 . S
C884 C883 1.410 . S
C884 C885 1.392 . S
C884 C887 1.511 . S
C885 C881 1.376 . S
C885 C884 1.392 . S
C885 H897 0.929 . S
C886 C882 1.531 . S
C886 H898 0.960 . S
C886 H899 0.962 . S
C886 H900 0.960 . S
C887 C884 1.511 . S
C887 H901 0.961 . S
C887 H902 0.961 . S
C887 H903 0.961 . S
C888 C889 1.370 . S
C888 C890 1.363 . S
C888 H904 0.931 . S
C889 C888 1.370 . S
C889 C893 1.408 . S
C890 C888 1.363 . S
C890 C891 1.370 . S
C890 C894 1.524 . S
C891 C883 1.503 . S
C891 C890 1.370 . S
C891 C892 1.403 . S
C892 C891 1.403 . S
C892 C893 1.404 . S
C892 C895 1.539 . S
C893 C889 1.408 . S
C893 C892 1.404 . S
C893 H905 0.930 . S
C894 C890 1.524 . S
C894 H906 0.956 . S
C894 H907 0.961 . S
C894 H908 0.961 . S
C895 C892 1.539 . S
C895 H909 0.958 . S
C895 H910 0.961 . S
C895 H911 0.960 . S
H896 C880 0.931 . S
H897 C885 0.929 . S
H898 C886 0.960 . S
H899 C886 0.962 . S
H900 C886 0.960 . S
H901 C887 0.961 . S
H902 C887 0.961 . S
H903 C887 0.961 . S
H904 C888 0.931 . S
H905 C893 0.930 . S
H906 C894 0.956 . S
H907 C894 0.961 . S
H908 C894 0.961 . S
H909 C895 0.958 . S
H910 C895 0.961 . S
H911 C895 0.960 . S
C912 C913 1.391 . S
C912 C914 1.394 . S
C912 H928 0.931 . S
C913 C912 1.391 . S
C913 C917 1.376 . S
C914 C912 1.394 . S
C914 C915 1.369 . S
C914 C918 1.531 . S
C915 C914 1.369 . S
C915 C916 1.410 . S
C915 C923 1.503 . S
C916 C915 1.410 . S
C916 C917 1.392 . S
C916 C919 1.511 . S
C917 C913 1.376 . S
C917 C916 1.392 . S
C917 H929 0.929 . S
C918 C914 1.531 . S
C918 H930 0.960 . S
C918 H931 0.962 . S
C918 H932 0.960 . S
C919 C916 1.511 . S
C919 H933 0.961 . S
C919 H934 0.961 . S
C919 H935 0.961 . S
C920 C921 1.370 . S
C920 C922 1.363 . S
C920 H936 0.931 . S
C921 C920 1.370 . S
C921 C925 1.408 . S
C922 C920 1.363 . S
C922 C923 1.370 . S
C922 C926 1.524 . S
C923 C915 1.503 . S
C923 C922 1.370 . S
C923 C924 1.403 . S
C924 C923 1.403 . S
C924 C925 1.404 . S
C924 C927 1.539 . S
C925 C921 1.408 . S
C925 C924 1.404 . S
C925 H937 0.930 . S
C926 C922 1.524 . S
C926 H938 0.956 . S
C926 H939 0.961 . S
C926 H940 0.961 . S
C927 C924 1.539 . S
C927 H941 0.958 . S
C927 H942 0.961 . S
C927 H943 0.960 . S
H928 C912 0.931 . S
H929 C917 0.929 . S
H930 C918 0.960 . S
H931 C918 0.962 . S
H932 C918 0.960 . S
H933 C919 0.961 . S
H934 C919 0.961 . S
H935 C919 0.961 . S
H936 C920 0.931 . S
H937 C925 0.930 . S
H938 C926 0.956 . S
H939 C926 0.961 . S
H940 C926 0.961 . S
H941 C927 0.958 . S
H942 C927 0.961 . S
H943 C927 0.960 . S
C944 C945 1.391 . S
C944 C946 1.394 . S
C944 H960 0.931 . S
C945 C944 1.391 . S
C945 C949 1.376 . S
C946 C944 1.394 . S
C946 C947 1.369 . S
C946 C950 1.531 . S
C947 C946 1.369 . S
C947 C948 1.410 . S
C947 C955 1.503 . S
C948 C947 1.410 . S
C948 C949 1.392 . S
C948 C951 1.511 . S
C949 C945 1.376 . S
C949 C948 1.392 . S
C949 H961 0.929 . S
C950 C946 1.531 . S
C950 H962 0.960 . S
C950 H963 0.962 . S
C950 H964 0.960 . S
C951 C948 1.511 . S
C951 H965 0.961 . S
C951 H966 0.961 . S
C951 H967 0.961 . S
C952 C953 1.370 . S
C952 C954 1.363 . S
C952 H968 0.931 . S
C953 C952 1.370 . S
C953 C957 1.408 . S
C954 C952 1.363 . S
C954 C955 1.370 . S
C954 C958 1.524 . S
C955 C947 1.503 . S
C955 C954 1.370 . S
C955 C956 1.403 . S
C956 C955 1.403 . S
C956 C957 1.404 . S
C956 C959 1.539 . S
C957 C953 1.408 . S
C957 C956 1.404 . S
C957 H969 0.930 . S
C958 C954 1.524 . S
C958 H970 0.956 . S
C958 H971 0.961 . S
C958 H972 0.961 . S
C959 C956 1.539 . S
C959 H973 0.958 . S
C959 H974 0.961 . S
C959 H975 0.960 . S
H960 C944 0.931 . S
H961 C949 0.929 . S
H962 C950 0.960 . S
H963 C950 0.962 . S
H964 C950 0.960 . S
H965 C951 0.961 . S
H966 C951 0.961 . S
H967 C951 0.961 . S
H968 C952 0.931 . S
H969 C957 0.930 . S
H970 C958 0.956 . S
H971 C958 0.961 . S
H972 C958 0.961 . S
H973 C959 0.958 . S
H974 C959 0.961 . S
H975 C959 0.960 . S
C976 C977 1.391 . S
C976 C978 1.394 . S
C976 H992 0.931 . S
C977 C976 1.391 . S
C977 C981 1.376 . S
C978 C976 1.394 . S
C978 C979 1.369 . S
C978 C982 1.531 . S
C979 C978 1.369 . S
C979 C980 1.410 . S
C979 C987 1.503 . S
C980 C979 1.410 . S
C980 C981 1.392 . S
C980 C983 1.511 . S
C981 C977 1.376 . S
C981 C980 1.392 . S
C981 H993 0.929 . S
C982 C978 1.531 . S
C982 H994 0.960 . S
C982 H995 0.962 . S
C982 H996 0.960 . S
C983 C980 1.511 . S
C983 H997 0.961 . S
C983 H998 0.961 . S
C983 H999 0.961 . S
C984 C985 1.370 . S
C984 C986 1.363 . S
C984 H1000 0.931 . S
C985 C984 1.370 . S
C985 C989 1.408 . S
C986 C984 1.363 . S
C986 C987 1.370 . S
C986 C990 1.524 . S
C987 C979 1.503 . S
C987 C986 1.370 . S
C987 C988 1.403 . S
C988 C987 1.403 . S
C988 C989 1.404 . S
C988 C991 1.539 . S
C989 C985 1.408 . S
C989 C988 1.404 . S
C989 H1001 0.930 . S
C990 C986 1.524 . S
C990 H1002 0.956 . S
C990 H1003 0.961 . S
C990 H1004 0.961 . S
C991 C988 1.539 . S
C991 H1005 0.958 . S
C991 H1006 0.961 . S
C991 H1007 0.960 . S
H992 C976 0.931 . S
H993 C981 0.929 . S
H994 C982 0.960 . S
H995 C982 0.962 . S
H996 C982 0.960 . S
H997 C983 0.961 . S
H998 C983 0.961 . S
H999 C983 0.961 . S
H1000 C984 0.931 . S
H1001 C989 0.930 . S
H1002 C990 0.956 . S
H1003 C990 0.961 . S
H1004 C990 0.961 . S
H1005 C991 0.958 . S
H1006 C991 0.961 . S
H1007 C991 0.960 . S
C1008 C1009 1.391 . S
C1008 C1010 1.394 . S
C1008 H1024 0.931 . S
C1009 C1008 1.391 . S
C1009 C1013 1.376 . S
C1010 C1008 1.394 . S
C1010 C1011 1.369 . S
C1010 C1014 1.531 . S
C1011 C1010 1.369 . S
C1011 C1012 1.410 . S
C1011 C1019 1.503 . S
C1012 C1011 1.410 . S
C1012 C1013 1.392 . S
C1012 C1015 1.511 . S
C1013 C1009 1.376 . S
C1013 C1012 1.392 . S
C1013 H1025 0.929 . S
C1014 C1010 1.531 . S
C1014 H1026 0.960 . S
C1014 H1027 0.962 . S
C1014 H1028 0.960 . S
C1015 C1012 1.511 . S
C1015 H1029 0.961 . S
C1015 H1030 0.961 . S
C1015 H1031 0.961 . S
C1016 C1017 1.370 . S
C1016 C1018 1.363 . S
C1016 H1032 0.931 . S
C1017 C1016 1.370 . S
C1017 C1021 1.408 . S
C1018 C1016 1.363 . S
C1018 C1019 1.370 . S
C1018 C1022 1.524 . S
C1019 C1011 1.503 . S
C1019 C1018 1.370 . S
C1019 C1020 1.403 . S
C1020 C1019 1.403 . S
C1020 C1021 1.404 . S
C1020 C1023 1.539 . S
C1021 C1017 1.408 . S
C1021 C1020 1.404 . S
C1021 H1033 0.930 . S
C1022 C1018 1.524 . S
C1022 H1034 0.956 . S
C1022 H1035 0.961 . S
C1022 H1036 0.961 . S
C1023 C1020 1.539 . S
C1023 H1037 0.958 . S
C1023 H1038 0.961 . S
C1023 H1039 0.960 . S
H1024 C1008 0.931 . S
H1025 C1013 0.929 . S
H1026 C1014 0.960 . S
H1027 C1014 0.962 . S
H1028 C1014 0.960 . S
H1029 C1015 0.961 . S
H1030 C1015 0.961 . S
H1031 C1015 0.961 . S
H1032 C1016 0.931 . S
H1033 C1021 0.930 . S
H1034 C1022 0.956 . S
H1035 C1022 0.961 . S
H1036 C1022 0.961 . S
H1037 C1023 0.958 . S
H1038 C1023 0.961 . S
H1039 C1023 0.960 . S
C1040 C1041 1.391 . S
C1040 C1042 1.394 . S
C1040 H1056 0.931 . S
C1041 C1040 1.391 . S
C1041 C1045 1.376 . S
C1042 C1040 1.394 . S
C1042 C1043 1.369 . S
C1042 C1046 1.531 . S
C1043 C1042 1.369 . S
C1043 C1044 1.410 . S
C1043 C1051 1.503 . S
C1044 C1043 1.410 . S
C1044 C1045 1.392 . S
C1044 C1047 1.511 . S
C1045 C1041 1.376 . S
C1045 C1044 1.392 . S
C1045 H1057 0.929 . S
C1046 C1042 1.531 . S
C1046 H1058 0.960 . S
C1046 H1059 0.962 . S
C1046 H1060 0.960 . S
C1047 C1044 1.511 . S
C1047 H1061 0.961 . S
C1047 H1062 0.961 . S
C1047 H1063 0.961 . S
C1048 C1049 1.370 . S
C1048 C1050 1.363 . S
C1048 H1064 0.931 . S
C1049 C1048 1.370 . S
C1049 C1053 1.408 . S
C1050 C1048 1.363 . S
C1050 C1051 1.370 . S
C1050 C1054 1.524 . S
C1051 C1043 1.503 . S
C1051 C1050 1.370 . S
C1051 C1052 1.403 . S
C1052 C1051 1.403 . S
C1052 C1053 1.404 . S
C1052 C1055 1.539 . S
C1053 C1049 1.408 . S
C1053 C1052 1.404 . S
C1053 H1065 0.930 . S
C1054 C1050 1.524 . S
C1054 H1066 0.956 . S
C1054 H1067 0.961 . S
C1054 H1068 0.961 . S
C1055 C1052 1.539 . S
C1055 H1069 0.958 . S
C1055 H1070 0.961 . S
C1055 H1071 0.960 . S
H1056 C1040 0.931 . S
H1057 C1045 0.929 . S
H1058 C1046 0.960 . S
H1059 C1046 0.962 . S
H1060 C1046 0.960 . S
H1061 C1047 0.961 . S
H1062 C1047 0.961 . S
H1063 C1047 0.961 . S
H1064 C1048 0.931 . S
H1065 C1053 0.930 . S
H1066 C1054 0.956 . S
H1067 C1054 0.961 . S
H1068 C1054 0.961 . S
H1069 C1055 0.958 . S
H1070 C1055 0.961 . S
H1071 C1055 0.960 . S
C1072 C1073 1.391 . S
C1072 C1074 1.394 . S
C1072 H1088 0.931 . S
C1073 C1072 1.391 . S
C1073 C1077 1.376 . S
C1074 C1072 1.394 . S
C1074 C1075 1.369 . S
C1074 C1078 1.531 . S
C1075 C1074 1.369 . S
C1075 C1076 1.410 . S
C1075 C1083 1.503 . S
C1076 C1075 1.410 . S
C1076 C1077 1.392 . S
C1076 C1079 1.511 . S
C1077 C1073 1.376 . S
C1077 C1076 1.392 . S
C1077 H1089 0.929 . S
C1078 C1074 1.531 . S
C1078 H1090 0.960 . S
C1078 H1091 0.962 . S
C1078 H1092 0.960 . S
C1079 C1076 1.511 . S
C1079 H1093 0.961 . S
C1079 H1094 0.961 . S
C1079 H1095 0.961 . S
C1080 C1081 1.370 . S
C1080 C1082 1.363 . S
C1080 H1096 0.931 . S
C1081 C1080 1.370 . S
C1081 C1085 1.408 . S
C1082 C1080 1.363 . S
C1082 C1083 1.370 . S
C1082 C1086 1.524 . S
C1083 C1075 1.503 . S
C1083 C1082 1.370 . S
C1083 C1084 1.403 . S
C1084 C1083 1.403 . S
C1084 C1085 1.404 . S
C1084 C1087 1.539 . S
C1085 C1081 1.408 . S
C1085 C1084 1.404 . S
C1085 H1097 0.930 . S
C1086 C1082 1.524 . S
C1086 H1098 0.956 . S
C1086 H1099 0.961 . S
C1086 H1100 0.961 . S
C1087 C1084 1.539 . S
C1087 H1101 0.958 . S
C1087 H1102 0.961 . S
C1087 H1103 0.960 . S
H1088 C1072 0.931 . S
H1089 C1077 0.929 . S
H1090 C1078 0.960 . S
H1091 C1078 0.962 . S
H1092 C1078 0.960 . S
H1093 C1079 0.961 . S
H1094 C1079 0.961 . S
H1095 C1079 0.961 . S
H1096 C1080 0.931 . S
H1097 C1085 0.930 . S
H1098 C1086 0.956 . S
H1099 C1086 0.961 . S
H1100 C1086 0.961 . S
H1101 C1087 0.958 . S
H1102 C1087 0.961 . S
H1103 C1087 0.960 . S
C1104 C1105 1.391 . S
C1104 C1106 1.394 1_655 S
C1104 H1120 0.931 . S
C1105 C1104 1.391 . S
C1105 C1109 1.376 . S
C1106 C1104 1.394 1_455 S
C1106 C1107 1.369 . S
C1106 C1110 1.531 . S
C1107 C1106 1.369 . S
C1107 C1108 1.410 . S
C1107 C1115 1.503 . S
C1108 C1107 1.410 . S
C1108 C1109 1.392 1_455 S
C1108 C1111 1.511 . S
C1109 C1105 1.376 . S
C1109 C1108 1.392 1_655 S
C1109 H1121 0.929 . S
C1110 C1106 1.531 . S
C1110 H1122 0.960 . S
C1110 H1123 0.962 . S
C1110 H1124 0.960 . S
C1111 C1108 1.511 . S
C1111 H1125 0.942 1_455 S
C1111 H1126 0.961 . S
C1111 H1127 0.961 . S
C1112 C1113 1.370 . S
C1112 C1114 1.363 . S
C1112 H1128 0.931 . S
C1113 C1112 1.370 . S
C1113 C1117 1.408 . S
C1114 C1112 1.363 . S
C1114 C1115 1.370 . S
C1114 C1118 1.524 1_455 S
C1115 C1107 1.503 . S
C1115 C1114 1.370 . S
C1115 C1116 1.403 . S
C1116 C1115 1.403 . S
C1116 C1117 1.404 . S
C1116 C1119 1.539 . S
C1117 C1113 1.408 . S
C1117 C1116 1.404 . S
C1117 H1129 0.930 . S
C1118 C1114 1.524 1_655 S
C1118 H1130 0.956 . S
C1118 H1131 0.961 . S
C1118 H1132 0.961 . S
C1119 C1116 1.539 . S
C1119 H1133 0.958 . S
C1119 H1134 0.961 . S
C1119 H1135 0.960 . S
H1120 C1104 0.931 . S
H1121 C1109 0.929 . S
H1122 C1110 0.960 . S
H1123 C1110 0.962 . S
H1124 C1110 0.960 . S
H1125 C1111 0.942 1_655 S
H1126 C1111 0.961 . S
H1127 C1111 0.961 . S
H1128 C1112 0.931 . S
H1129 C1117 0.930 . S
H1130 C1118 0.956 . S
H1131 C1118 0.961 . S
H1132 C1118 0.961 . S
H1133 C1119 0.958 . S
H1134 C1119 0.961 . S
H1135 C1119 0.960 . S
C1136 C1137 1.391 . S
C1136 C1138 1.394 . S
C1136 H1152 0.931 . S
C1137 C1136 1.391 . S
C1137 C1141 1.376 1_655 S
C1138 C1136 1.394 . S
C1138 C1139 1.369 1_655 S
C1138 C1142 1.531 1_545 S
C1139 C1138 1.369 1_455 S
C1139 C1140 1.410 . S
C1139 C1147 1.503 . S
C1140 C1139 1.410 . S
C1140 C1141 1.392 . S
C1140 C1143 1.511 . S
C1141 C1137 1.376 1_455 S
C1141 C1140 1.392 . S
C1141 H1153 0.929 . S
C1142 C1138 1.531 1_565 S
C1142 H1154 0.960 . S
C1142 H1155 0.962 . S
C1142 H1156 0.960 . S
C1143 C1140 1.511 . S
C1143 H1157 0.961 . S
C1143 H1158 0.961 . S
C1143 H1159 0.961 . S
C1144 C1145 1.370 1_545 S
C1144 C1146 1.363 . S
C1144 H1160 0.931 . S
C1145 C1144 1.370 1_565 S
C1145 C1149 1.408 . S
C1146 C1144 1.363 . S
C1146 C1147 1.370 . S
C1146 C1150 1.524 . S
C1147 C1139 1.503 . S
C1147 C1146 1.370 . S
C1147 C1148 1.403 1_545 S
C1148 C1147 1.403 1_565 S
C1148 C1149 1.404 . S
C1148 C1151 1.539 . S
C1149 C1145 1.408 . S
C1149 C1148 1.404 . S
C1149 H1161 0.930 . S
C1150 C1146 1.524 . S
C1150 H1162 0.956 1_455 S
C1150 H1163 0.961 . S
C1150 H1164 0.961 . S
C1151 C1148 1.539 . S
C1151 H1165 0.958 . S
C1151 H1166 0.961 . S
C1151 H1167 0.960 . S
H1152 C1136 0.931 . S
H1153 C1141 0.929 . S
H1154 C1142 0.960 . S
H1155 C1142 0.962 . S
H1156 C1142 0.960 . S
H1157 C1143 0.961 . S
H1158 C1143 0.961 . S
H1159 C1143 0.961 . S
H1160 C1144 0.931 . S
H1161 C1149 0.930 . S
H1162 C1150 0.956 1_655 S
H1163 C1150 0.961 . S
H1164 C1150 0.961 . S
H1165 C1151 0.958 . S
H1166 C1151 0.961 . S
H1167 C1151 0.960 . S
C1168 C1169 1.391 . S
C1168 C1170 1.394 . S
C1168 H1184 0.931 . S
C1169 C1168 1.391 . S
C1169 C1173 1.376 . S
C1170 C1168 1.394 . S
C1170 C1171 1.369 . S
C1170 C1174 1.531 . S
C1171 C1170 1.369 . S
C1171 C1172 1.410 . S
C1171 C1179 1.503 . S
C1172 C1171 1.410 . S
C1172 C1173 1.392 . S
C1172 C1175 1.511 . S
C1173 C1169 1.376 . S
C1173 C1172 1.392 . S
C1173 H1185 0.929 . S
C1174 C1170 1.531 . S
C1174 H1186 0.960 . S
C1174 H1187 0.962 . S
C1174 H1188 0.960 . S
C1175 C1172 1.511 . S
C1175 H1189 0.961 . S
C1175 H1190 0.961 . S
C1175 H1191 0.961 1_545 S
C1176 C1177 1.370 1_545 S
C1176 C1178 1.363 . S
C1176 H1192 0.931 . S
C1177 C1176 1.370 1_565 S
C1177 C1181 1.408 . S
C1178 C1176 1.363 . S
C1178 C1179 1.370 . S
C1178 C1182 1.524 . S
C1179 C1171 1.503 . S
C1179 C1178 1.370 . S
C1179 C1180 1.403 1_545 S
C1180 C1179 1.403 1_565 S
C1180 C1181 1.404 . S
C1180 C1183 1.539 . S
C1181 C1177 1.408 . S
C1181 C1180 1.404 . S
C1181 H1193 0.930 . S
C1182 C1178 1.524 . S
C1182 H1194 0.956 . S
C1182 H1195 0.961 . S
C1182 H1196 0.961 . S
C1183 C1180 1.539 . S
C1183 H1197 0.958 . S
C1183 H1198 0.961 . S
C1183 H1199 0.960 . S
H1184 C1168 0.931 . S
H1185 C1173 0.929 . S
H1186 C1174 0.960 . S
H1187 C1174 0.962 . S
H1188 C1174 0.960 . S
H1189 C1175 0.961 . S
H1190 C1175 0.961 . S
H1191 C1175 0.961 1_565 S
H1192 C1176 0.931 . S
H1193 C1181 0.930 . S
H1194 C1182 0.956 . S
H1195 C1182 0.961 . S
H1196 C1182 0.961 . S
H1197 C1183 0.958 . S
H1198 C1183 0.961 . S
H1199 C1183 0.960 . S
C1200 C1201 1.391 . S
C1200 C1202 1.394 . S
C1200 H1216 0.931 . S
C1201 C1200 1.391 . S
C1201 C1205 1.376 . S
C1202 C1200 1.394 . S
C1202 C1203 1.369 . S
C1202 C1206 1.531 . S
C1203 C1202 1.369 . S
C1203 C1204 1.410 . S
C1203 C1211 1.503 . S
C1204 C1203 1.410 . S
C1204 C1205 1.392 . S
C1204 C1207 1.511 . S
C1205 C1201 1.376 . S
C1205 C1204 1.392 . S
C1205 H1217 0.929 . S
C1206 C1202 1.531 . S
C1206 H1218 0.960 . S
C1206 H1219 0.962 . S
C1206 H1220 0.960 . S
C1207 C1204 1.511 . S
C1207 H1221 0.961 . S
C1207 H1222 0.961 . S
C1207 H1223 0.961 . S
C1208 C1209 1.370 . S
C1208 C1210 1.363 . S
C1208 H1224 0.931 . S
C1209 C1208 1.370 . S
C1209 C1213 1.408 . S
C1210 C1208 1.363 . S
C1210 C1211 1.370 . S
C1210 C1214 1.524 . S
C1211 C1203 1.503 . S
C1211 C1210 1.370 . S
C1211 C1212 1.403 . S
C1212 C1211 1.403 . S
C1212 C1213 1.404 . S
C1212 C1215 1.539 . S
C1213 C1209 1.408 . S
C1213 C1212 1.404 . S
C1213 H1225 0.930 . S
C1214 C1210 1.524 . S
C1214 H1226 0.956 . S
C1214 H1227 0.961 . S
C1214 H1228 0.961 . S
C1215 C1212 1.539 . S
C1215 H1229 0.958 . S
C1215 H1230 0.961 . S
C1215 H1231 0.960 . S
H1216 C1200 0.931 . S
H1217 C1205 0.929 . S
H1218 C1206 0.960 . S
H1219 C1206 0.962 . S
H1220 C1206 0.960 . S
H1221 C1207 0.961 . S
H1222 C1207 0.961 . S
H1223 C1207 0.961 . S
H1224 C1208 0.931 . S
H1225 C1213 0.930 . S
H1226 C1214 0.956 . S
H1227 C1214 0.961 . S
H1228 C1214 0.961 . S
H1229 C1215 0.958 . S
H1230 C1215 0.961 . S
H1231 C1215 0.960 . S
C1232 C1233 1.391 . S
C1232 C1234 1.394 . S
C1232 H1248 0.931 . S
C1233 C1232 1.391 . S
C1233 C1237 1.376 . S
C1234 C1232 1.394 . S
C1234 C1235 1.369 . S
C1234 C1238 1.531 . S
C1235 C1234 1.369 . S
C1235 C1236 1.410 . S
C1235 C1243 1.503 . S
C1236 C1235 1.410 . S
C1236 C1237 1.392 . S
C1236 C1239 1.511 1_455 S
C1237 C1233 1.376 . S
C1237 C1236 1.392 . S
C1237 H1249 0.929 . S
C1238 C1234 1.531 . S
C1238 H1250 0.960 . S
C1238 H1251 0.962 . S
C1238 H1252 0.960 . S
C1239 C1236 1.511 1_655 S
C1239 H1253 0.961 . S
C1239 H1254 0.961 . S
C1239 H1255 0.961 1_655 S
C1240 C1241 1.370 . S
C1240 C1242 1.363 . S
C1240 H1256 0.931 . S
C1241 C1240 1.370 . S
C1241 C1245 1.408 1_655 S
C1242 C1240 1.363 . S
C1242 C1243 1.370 1_655 S
C1242 C1246 1.524 . S
C1243 C1235 1.503 . S
C1243 C1242 1.370 1_455 S
C1243 C1244 1.403 . S
C1244 C1243 1.403 . S
C1244 C1245 1.404 . S
C1244 C1247 1.539 . S
C1245 C1241 1.408 1_455 S
C1245 C1244 1.404 . S
C1245 H1257 0.930 . S
C1246 C1242 1.524 . S
C1246 H1258 0.956 . S
C1246 H1259 0.961 . S
C1246 H1260 0.961 . S
C1247 C1244 1.539 . S
C1247 H1261 0.958 . S
C1247 H1262 0.961 . S
C1247 H1263 0.960 . S
H1248 C1232 0.931 . S
H1249 C1237 0.929 . S
H1250 C1238 0.960 . S
H1251 C1238 0.962 . S
H1252 C1238 0.960 . S
H1253 C1239 0.961 . S
H1254 C1239 0.961 . S
H1255 C1239 0.961 1_455 S
H1256 C1240 0.931 . S
H1257 C1245 0.930 . S
H1258 C1246 0.956 . S
H1259 C1246 0.961 . S
H1260 C1246 0.961 . S
H1261 C1247 0.958 . S
H1262 C1247 0.961 . S
H1263 C1247 0.960 . S
C1264 C1265 1.391 1_545 S
C1264 C1266 1.394 . S
C1264 H1280 0.931 . S
C1265 C1264 1.391 1_565 S
C1265 C1269 1.376 . S
C1266 C1264 1.394 . S
C1266 C1267 1.369 . S
C1266 C1270 1.531 . S
C1267 C1266 1.369 . S
C1267 C1268 1.410 1_545 S
C1267 C1275 1.503 . S
C1268 C1267 1.410 1_565 S
C1268 C1269 1.392 . S
C1268 C1271 1.511 1_455 S
C1269 C1265 1.376 . S
C1269 C1268 1.392 . S
C1269 H1281 0.929 . S
C1270 C1266 1.531 . S
C1270 H1282 0.960 . S
C1270 H1283 0.962 . S
C1270 H1284 0.960 . S
C1271 C1268 1.511 1_655 S
C1271 H1285 0.961 . S
C1271 H1286 0.961 . S
C1271 H1287 0.961 . S
C1272 C1273 1.370 . S
C1272 C1274 1.363 . S
C1272 H1288 0.931 . S
C1273 C1272 1.370 . S
C1273 C1277 1.408 1_655 S
C1274 C1272 1.363 . S
C1274 C1275 1.370 1_655 S
C1274 C1278 1.524 . S
C1275 C1267 1.503 . S
C1275 C1274 1.370 1_455 S
C1275 C1276 1.403 . S
C1276 C1275 1.403 . S
C1276 C1277 1.404 . S
C1276 C1279 1.539 1_545 S
C1277 C1273 1.408 1_455 S
C1277 C1276 1.404 . S
C1277 H1289 0.930 . S
C1278 C1274 1.524 . S
C1278 H1290 0.956 1_655 S
C1278 H1291 0.961 . S
C1278 H1292 0.961 . S
C1279 C1276 1.539 1_565 S
C1279 H1293 0.958 . S
C1279 H1294 0.961 . S
C1279 H1295 0.960 . S
H1280 C1264 0.931 . S
H1281 C1269 0.929 . S
H1282 C1270 0.960 . S
H1283 C1270 0.962 . S
H1284 C1270 0.960 . S
H1285 C1271 0.961 . S
H1286 C1271 0.961 . S
H1287 C1271 0.961 . S
H1288 C1272 0.931 . S
H1289 C1277 0.930 . S
H1290 C1278 0.956 1_455 S
H1291 C1278 0.961 . S
H1292 C1278 0.961 . S
H1293 C1279 0.958 . S
H1294 C1279 0.961 . S
H1295 C1279 0.960 . S
C1296 C1297 1.391 . S
C1296 C1298 1.394 . S
C1296 H1312 0.931 . S
C1297 C1296 1.391 . S
C1297 C1301 1.376 . S
C1298 C1296 1.394 . S
C1298 C1299 1.369 . S
C1298 C1302 1.531 1_545 S
C1299 C1298 1.369 . S
C1299 C1300 1.410 . S
C1299 C1307 1.503 . S
C1300 C1299 1.410 . S
C1300 C1301 1.392 . S
C1300 C1303 1.511 . S
C1301 C1297 1.376 . S
C1301 C1300 1.392 . S
C1301 H1313 0.929 . S
C1302 C1298 1.531 1_565 S
C1302 H1314 0.960 . S
C1302 H1315 0.962 . S
C1302 H1316 0.960 . S
C1303 C1300 1.511 . S
C1303 H1317 0.961 . S
C1303 H1318 0.961 . S
C1303 H1319 0.961 . S
C1304 C1305 1.370 . S
C1304 C1306 1.363 1_565 S
C1304 H1320 0.931 . S
C1305 C1304 1.370 . S
C1305 C1309 1.408 . S
C1306 C1304 1.363 1_545 S
C1306 C1307 1.370 . S
C1306 C1310 1.524 . S
C1307 C1299 1.503 . S
C1307 C1306 1.370 . S
C1307 C1308 1.403 . S
C1308 C1307 1.403 . S
C1308 C1309 1.404 1_545 S
C1308 C1311 1.539 . S
C1309 C1305 1.408 . S
C1309 C1308 1.404 1_565 S
C1309 H1321 0.930 . S
C1310 C1306 1.524 . S
C1310 H1322 0.956 1_545 S
C1310 H1323 0.961 . S
C1310 H1324 0.961 . S
C1311 C1308 1.539 . S
C1311 H1325 0.958 1_545 S
C1311 H1326 0.961 . S
C1311 H1327 0.960 . S
H1312 C1296 0.931 . S
H1313 C1301 0.929 . S
H1314 C1302 0.960 . S
H1315 C1302 0.962 . S
H1316 C1302 0.960 . S
H1317 C1303 0.961 . S
H1318 C1303 0.961 . S
H1319 C1303 0.961 . S
H1320 C1304 0.931 . S
H1321 C1309 0.930 . S
H1322 C1310 0.956 1_565 S
H1323 C1310 0.961 . S
H1324 C1310 0.961 . S
H1325 C1311 0.958 1_565 S
H1326 C1311 0.961 . S
H1327 C1311 0.960 . S
C1328 C1329 1.391 . S
C1328 C1330 1.394 . S
C1328 H1344 0.931 . S
C1329 C1328 1.391 . S
C1329 C1333 1.376 . S
C1330 C1328 1.394 . S
C1330 C1331 1.369 . S
C1330 C1334 1.531 . S
C1331 C1330 1.369 . S
C1331 C1332 1.410 . S
C1331 C1339 1.503 . S
C1332 C1331 1.410 . S
C1332 C1333 1.392 . S
C1332 C1335 1.511 . S
C1333 C1329 1.376 . S
C1333 C1332 1.392 . S
C1333 H1345 0.929 . S
C1334 C1330 1.531 . S
C1334 H1346 0.960 . S
C1334 H1347 0.962 . S
C1334 H1348 0.960 . S
C1335 C1332 1.511 . S
C1335 H1349 0.961 . S
C1335 H1350 0.961 . S
C1335 H1351 0.961 . S
C1336 C1337 1.370 . S
C1336 C1338 1.363 . S
C1336 H1352 0.931 . S
C1337 C1336 1.370 . S
C1337 C1341 1.408 . S
C1338 C1336 1.363 . S
C1338 C1339 1.370 . S
C1338 C1342 1.524 . S
C1339 C1331 1.503 . S
C1339 C1338 1.370 . S
C1339 C1340 1.403 . S
C1340 C1339 1.403 . S
C1340 C1341 1.404 . S
C1340 C1343 1.539 . S
C1341 C1337 1.408 . S
C1341 C1340 1.404 . S
C1341 H1353 0.930 . S
C1342 C1338 1.524 . S
C1342 H1354 0.956 . S
C1342 H1355 0.961 . S
C1342 H1356 0.961 . S
C1343 C1340 1.539 . S
C1343 H1357 0.958 . S
C1343 H1358 0.961 . S
C1343 H1359 0.960 . S
H1344 C1328 0.931 . S
H1345 C1333 0.929 . S
H1346 C1334 0.960 . S
H1347 C1334 0.962 . S
H1348 C1334 0.960 . S
H1349 C1335 0.961 . S
H1350 C1335 0.961 . S
H1351 C1335 0.961 . S
H1352 C1336 0.931 . S
H1353 C1341 0.930 . S
H1354 C1342 0.956 . S
H1355 C1342 0.961 . S
H1356 C1342 0.961 . S
H1357 C1343 0.958 . S
H1358 C1343 0.961 . S
H1359 C1343 0.960 . S
C1360 C1361 1.391 . S
C1360 C1362 1.394 . S
C1360 H1376 0.931 . S
C1361 C1360 1.391 . S
C1361 C1365 1.376 . S
C1362 C1360 1.394 . S
C1362 C1363 1.369 . S
C1362 C1366 1.531 . S
C1363 C1362 1.369 . S
C1363 C1364 1.410 . S
C1363 C1371 1.503 . S
C1364 C1363 1.410 . S
C1364 C1365 1.392 . S
C1364 C1367 1.511 . S
C1365 C1361 1.376 . S
C1365 C1364 1.392 . S
C1365 H1377 0.929 . S
C1366 C1362 1.531 . S
C1366 H1378 0.960 . S
C1366 H1379 0.962 . S
C1366 H1380 0.960 . S
C1367 C1364 1.511 . S
C1367 H1381 0.961 . S
C1367 H1382 0.961 . S
C1367 H1383 0.961 . S
C1368 C1369 1.370 . S
C1368 C1370 1.363 . S
C1368 H1384 0.931 . S
C1369 C1368 1.370 . S
C1369 C1373 1.408 . S
C1370 C1368 1.363 . S
C1370 C1371 1.370 . S
C1370 C1374 1.524 . S
C1371 C1363 1.503 . S
C1371 C1370 1.370 . S
C1371 C1372 1.403 . S
C1372 C1371 1.403 . S
C1372 C1373 1.404 . S
C1372 C1375 1.539 . S
C1373 C1369 1.408 . S
C1373 C1372 1.404 . S
C1373 H1385 0.930 . S
C1374 C1370 1.524 . S
C1374 H1386 0.956 . S
C1374 H1387 0.961 . S
C1374 H1388 0.961 . S
C1375 C1372 1.539 . S
C1375 H1389 0.958 . S
C1375 H1390 0.961 . S
C1375 H1391 0.960 . S
H1376 C1360 0.931 . S
H1377 C1365 0.929 . S
H1378 C1366 0.960 . S
H1379 C1366 0.962 . S
H1380 C1366 0.960 . S
H1381 C1367 0.961 . S
H1382 C1367 0.961 . S
H1383 C1367 0.961 . S
H1384 C1368 0.931 . S
H1385 C1373 0.930 . S
H1386 C1374 0.956 . S
H1387 C1374 0.961 . S
H1388 C1374 0.961 . S
H1389 C1375 0.958 . S
H1390 C1375 0.961 . S
H1391 C1375 0.960 . S
C1392 C1393 1.391 . S
C1392 C1394 1.394 . S
C1392 H1408 0.931 . S
C1393 C1392 1.391 . S
C1393 C1397 1.376 . S
C1394 C1392 1.394 . S
C1394 C1395 1.369 . S
C1394 C1398 1.531 . S
C1395 C1394 1.369 . S
C1395 C1396 1.410 . S
C1395 C1403 1.503 . S
C1396 C1395 1.410 . S
C1396 C1397 1.392 . S
C1396 C1399 1.511 . S
C1397 C1393 1.376 . S
C1397 C1396 1.392 . S
C1397 H1409 0.929 . S
C1398 C1394 1.531 . S
C1398 H1410 0.960 . S
C1398 H1411 0.962 . S
C1398 H1412 0.960 . S
C1399 C1396 1.511 . S
C1399 H1413 0.961 . S
C1399 H1414 0.961 . S
C1399 H1415 0.961 . S
C1400 C1401 1.370 . S
C1400 C1402 1.363 . S
C1400 H1416 0.931 . S
C1401 C1400 1.370 . S
C1401 C1405 1.408 . S
C1402 C1400 1.363 . S
C1402 C1403 1.370 . S
C1402 C1406 1.524 . S
C1403 C1395 1.503 . S
C1403 C1402 1.370 . S
C1403 C1404 1.403 . S
C1404 C1403 1.403 . S
C1404 C1405 1.404 . S
C1404 C1407 1.539 . S
C1405 C1401 1.408 . S
C1405 C1404 1.404 . S
C1405 H1417 0.930 . S
C1406 C1402 1.524 . S
C1406 H1418 0.956 . S
C1406 H1419 0.961 . S
C1406 H1420 0.961 . S
C1407 C1404 1.539 . S
C1407 H1421 0.958 . S
C1407 H1422 0.961 . S
C1407 H1423 0.960 . S
H1408 C1392 0.931 . S
H1409 C1397 0.929 . S
H1410 C1398 0.960 . S
H1411 C1398 0.962 . S
H1412 C1398 0.960 . S
H1413 C1399 0.961 . S
H1414 C1399 0.961 . S
H1415 C1399 0.961 . S
H1416 C1400 0.931 . S
H1417 C1405 0.930 . S
H1418 C1406 0.956 . S
H1419 C1406 0.961 . S
H1420 C1406 0.961 . S
H1421 C1407 0.958 . S
H1422 C1407 0.961 . S
H1423 C1407 0.960 . S
C1424 C1425 1.391 . S
C1424 C1426 1.394 . S
C1424 H1440 0.931 . S
C1425 C1424 1.391 . S
C1425 C1429 1.376 . S
C1426 C1424 1.394 . S
C1426 C1427 1.369 . S
C1426 C1430 1.531 . S
C1427 C1426 1.369 . S
C1427 C1428 1.410 . S
C1427 C1435 1.503 . S
C1428 C1427 1.410 . S
C1428 C1429 1.392 . S
C1428 C1431 1.511 . S
C1429 C1425 1.376 . S
C1429 C1428 1.392 . S
C1429 H1441 0.929 . S
C1430 C1426 1.531 . S
C1430 H1442 0.960 . S
C1430 H1443 0.962 . S
C1430 H1444 0.960 . S
C1431 C1428 1.511 . S
C1431 H1445 0.961 . S
C1431 H1446 0.961 . S
C1431 H1447 0.961 . S
C1432 C1433 1.370 . S
C1432 C1434 1.363 . S
C1432 H1448 0.931 . S
C1433 C1432 1.370 . S
C1433 C1437 1.408 . S
C1434 C1432 1.363 . S
C1434 C1435 1.370 . S
C1434 C1438 1.524 . S
C1435 C1427 1.503 . S
C1435 C1434 1.370 . S
C1435 C1436 1.403 . S
C1436 C1435 1.403 . S
C1436 C1437 1.404 . S
C1436 C1439 1.539 . S
C1437 C1433 1.408 . S
C1437 C1436 1.404 . S
C1437 H1449 0.930 . S
C1438 C1434 1.524 . S
C1438 H1450 0.956 . S
C1438 H1451 0.961 . S
C1438 H1452 0.961 . S
C1439 C1436 1.539 . S
C1439 H1453 0.958 . S
C1439 H1454 0.961 . S
C1439 H1455 0.960 . S
H1440 C1424 0.931 . S
H1441 C1429 0.929 . S
H1442 C1430 0.960 . S
H1443 C1430 0.962 . S
H1444 C1430 0.960 . S
H1445 C1431 0.961 . S
H1446 C1431 0.961 . S
H1447 C1431 0.961 . S
H1448 C1432 0.931 . S
H1449 C1437 0.930 . S
H1450 C1438 0.956 . S
H1451 C1438 0.961 . S
H1452 C1438 0.961 . S
H1453 C1439 0.958 . S
H1454 C1439 0.961 . S
H1455 C1439 0.960 . S
C1456 C1457 1.391 . S
C1456 C1458 1.394 . S
C1456 H1472 0.931 . S
C1457 C1456 1.391 . S
C1457 C1461 1.376 . S
C1458 C1456 1.394 . S
C1458 C1459 1.369 . S
C1458 C1462 1.531 . S
C1459 C1458 1.369 . S
C1459 C1460 1.410 . S
C1459 C1467 1.503 . S
C1460 C1459 1.410 . S
C1460 C1461 1.392 . S
C1460 C1463 1.511 . S
C1461 C1457 1.376 . S
C1461 C1460 1.392 . S
C1461 H1473 0.929 . S
C1462 C1458 1.531 . S
C1462 H1474 0.960 . S
C1462 H1475 0.962 . S
C1462 H1476 0.960 . S
C1463 C1460 1.511 . S
C1463 H1477 0.961 . S
C1463 H1478 0.961 . S
C1463 H1479 0.961 . S
C1464 C1465 1.370 . S
C1464 C1466 1.363 . S
C1464 H1480 0.931 . S
C1465 C1464 1.370 . S
C1465 C1469 1.408 . S
C1466 C1464 1.363 . S
C1466 C1467 1.370 . S
C1466 C1470 1.524 . S
C1467 C1459 1.503 . S
C1467 C1466 1.370 . S
C1467 C1468 1.403 . S
C1468 C1467 1.403 . S
C1468 C1469 1.404 . S
C1468 C1471 1.539 . S
C1469 C1465 1.408 . S
C1469 C1468 1.404 . S
C1469 H1481 0.930 . S
C1470 C1466 1.524 . S
C1470 H1482 0.956 . S
C1470 H1483 0.961 . S
C1470 H1484 0.961 . S
C1471 C1468 1.539 . S
C1471 H1485 0.958 . S
C1471 H1486 0.961 . S
C1471 H1487 0.960 . S
H1472 C1456 0.931 . S
H1473 C1461 0.929 . S
H1474 C1462 0.960 . S
H1475 C1462 0.962 . S
H1476 C1462 0.960 . S
H1477 C1463 0.961 . S
H1478 C1463 0.961 . S
H1479 C1463 0.961 . S
H1480 C1464 0.931 . S
H1481 C1469 0.930 . S
H1482 C1470 0.956 . S
H1483 C1470 0.961 . S
H1484 C1470 0.961 . S
H1485 C1471 0.958 . S
H1486 C1471 0.961 . S
H1487 C1471 0.960 . S
C1488 C1489 1.391 . S
C1488 C1490 1.394 . S
C1488 H1504 0.931 . S
C1489 C1488 1.391 . S
C1489 C1493 1.376 . S
C1490 C1488 1.394 . S
C1490 C1491 1.369 . S
C1490 C1494 1.531 . S
C1491 C1490 1.369 . S
C1491 C1492 1.410 . S
C1491 C1499 1.503 . S
C1492 C1491 1.410 . S
C1492 C1493 1.392 . S
C1492 C1495 1.511 . S
C1493 C1489 1.376 . S
C1493 C1492 1.392 . S
C1493 H1505 0.929 . S
C1494 C1490 1.531 . S
C1494 H1506 0.960 . S
C1494 H1507 0.962 . S
C1494 H1508 0.960 . S
C1495 C1492 1.511 . S
C1495 H1509 0.961 . S
C1495 H1510 0.961 . S
C1495 H1511 0.961 . S
C1496 C1497 1.370 . S
C1496 C1498 1.363 . S
C1496 H1512 0.931 . S
C1497 C1496 1.370 . S
C1497 C1501 1.408 . S
C1498 C1496 1.363 . S
C1498 C1499 1.370 . S
C1498 C1502 1.524 . S
C1499 C1491 1.503 . S
C1499 C1498 1.370 . S
C1499 C1500 1.403 . S
C1500 C1499 1.403 . S
C1500 C1501 1.404 . S
C1500 C1503 1.539 . S
C1501 C1497 1.408 . S
C1501 C1500 1.404 . S
C1501 H1513 0.930 . S
C1502 C1498 1.524 . S
C1502 H1514 0.956 . S
C1502 H1515 0.961 . S
C1502 H1516 0.961 . S
C1503 C1500 1.539 . S
C1503 H1517 0.958 . S
C1503 H1518 0.961 . S
C1503 H1519 0.960 . S
H1504 C1488 0.931 . S
H1505 C1493 0.929 . S
H1506 C1494 0.960 . S
H1507 C1494 0.962 . S
H1508 C1494 0.960 . S
H1509 C1495 0.961 . S
H1510 C1495 0.961 . S
H1511 C1495 0.961 . S
H1512 C1496 0.931 . S
H1513 C1501 0.930 . S
H1514 C1502 0.956 . S
H1515 C1502 0.961 . S
H1516 C1502 0.961 . S
H1517 C1503 0.958 . S
H1518 C1503 0.961 . S
H1519 C1503 0.960 . S
C1520 C1521 1.391 . S
C1520 C1522 1.394 . S
C1520 H1536 0.931 . S
C1521 C1520 1.391 . S
C1521 C1525 1.376 . S
C1522 C1520 1.394 . S
C1522 C1523 1.369 . S
C1522 C1526 1.531 . S
C1523 C1522 1.369 . S
C1523 C1524 1.410 . S
C1523 C1531 1.503 . S
C1524 C1523 1.410 . S
C1524 C1525 1.392 . S
C1524 C1527 1.511 . S
C1525 C1521 1.376 . S
C1525 C1524 1.392 . S
C1525 H1537 0.929 . S
C1526 C1522 1.531 . S
C1526 H1538 0.960 . S
C1526 H1539 0.962 . S
C1526 H1540 0.960 . S
C1527 C1524 1.511 . S
C1527 H1541 0.961 . S
C1527 H1542 0.961 . S
C1527 H1543 0.961 . S
C1528 C1529 1.370 . S
C1528 C1530 1.363 . S
C1528 H1544 0.931 . S
C1529 C1528 1.370 . S
C1529 C1533 1.408 . S
C1530 C1528 1.363 . S
C1530 C1531 1.370 . S
C1530 C1534 1.524 . S
C1531 C1523 1.503 . S
C1531 C1530 1.370 . S
C1531 C1532 1.403 . S
C1532 C1531 1.403 . S
C1532 C1533 1.404 . S
C1532 C1535 1.539 . S
C1533 C1529 1.408 . S
C1533 C1532 1.404 . S
C1533 H1545 0.930 . S
C1534 C1530 1.524 . S
C1534 H1546 0.956 . S
C1534 H1547 0.961 . S
C1534 H1548 0.961 . S
C1535 C1532 1.539 . S
C1535 H1549 0.958 . S
C1535 H1550 0.961 . S
C1535 H1551 0.960 . S
H1536 C1520 0.931 . S
H1537 C1525 0.929 . S
H1538 C1526 0.960 . S
H1539 C1526 0.962 . S
H1540 C1526 0.960 . S
H1541 C1527 0.961 . S
H1542 C1527 0.961 . S
H1543 C1527 0.961 . S
H1544 C1528 0.931 . S
H1545 C1533 0.930 . S
H1546 C1534 0.956 . S
H1547 C1534 0.961 . S
H1548 C1534 0.961 . S
H1549 C1535 0.958 . S
H1550 C1535 0.961 . S
H1551 C1535 0.960 . S
C1552 C1553 1.391 . S
C1552 C1554 1.394 . S
C1552 H1568 0.931 . S
C1553 C1552 1.391 . S
C1553 C1557 1.376 . S
C1554 C1552 1.394 . S
C1554 C1555 1.369 . S
C1554 C1558 1.531 . S
C1555 C1554 1.369 . S
C1555 C1556 1.410 . S
C1555 C1563 1.503 . S
C1556 C1555 1.410 . S
C1556 C1557 1.392 . S
C1556 C1559 1.511 . S
C1557 C1553 1.376 . S
C1557 C1556 1.392 . S
C1557 H1569 0.929 . S
C1558 C1554 1.531 . S
C1558 H1570 0.960 . S
C1558 H1571 0.962 . S
C1558 H1572 0.960 . S
C1559 C1556 1.511 . S
C1559 H1573 0.961 . S
C1559 H1574 0.961 . S
C1559 H1575 0.961 . S
C1560 C1561 1.370 . S
C1560 C1562 1.363 . S
C1560 H1576 0.931 . S
C1561 C1560 1.370 . S
C1561 C1565 1.408 . S
C1562 C1560 1.363 . S
C1562 C1563 1.370 . S
C1562 C1566 1.524 . S
C1563 C1555 1.503 . S
C1563 C1562 1.370 . S
C1563 C1564 1.403 . S
C1564 C1563 1.403 . S
C1564 C1565 1.404 . S
C1564 C1567 1.539 . S
C1565 C1561 1.408 . S
C1565 C1564 1.404 . S
C1565 H1577 0.930 . S
C1566 C1562 1.524 . S
C1566 H1578 0.956 . S
C1566 H1579 0.961 . S
C1566 H1580 0.961 . S
C1567 C1564 1.539 . S
C1567 H1581 0.958 . S
C1567 H1582 0.961 . S
C1567 H1583 0.960 . S
H1568 C1552 0.931 . S
H1569 C1557 0.929 . S
H1570 C1558 0.960 . S
H1571 C1558 0.962 . S
H1572 C1558 0.960 . S
H1573 C1559 0.961 . S
H1574 C1559 0.961 . S
H1575 C1559 0.961 . S
H1576 C1560 0.931 . S
H1577 C1565 0.930 . S
H1578 C1566 0.956 . S
H1579 C1566 0.961 . S
H1580 C1566 0.961 . S
H1581 C1567 0.958 . S
H1582 C1567 0.961 . S
H1583 C1567 0.960 . S
C1584 C1585 1.391 . S
C1584 C1586 1.394 . S
C1584 H1600 0.931 . S
C1585 C1584 1.391 . S
C1585 C1589 1.376 . S
C1586 C1584 1.394 . S
C1586 C1587 1.369 . S
C1586 C1590 1.531 . S
C1587 C1586 1.369 . S
C1587 C1588 1.410 . S
C1587 C1595 1.503 . S
C1588 C1587 1.410 . S
C1588 C1589 1.392 . S
C1588 C1591 1.511 . S
C1589 C1585 1.376 . S
C1589 C1588 1.392 . S
C1589 H1601 0.929 . S
C1590 C1586 1.531 . S
C1590 H1602 0.960 . S
C1590 H1603 0.962 . S
C1590 H1604 0.960 . S
C1591 C1588 1.511 . S
C1591 H1605 0.961 . S
C1591 H1606 0.961 . S
C1591 H1607 0.961 . S
C1592 C1593 1.370 . S
C1592 C1594 1.363 . S
C1592 H1608 0.931 . S
C1593 C1592 1.370 . S
C1593 C1597 1.408 . S
C1594 C1592 1.363 . S
C1594 C1595 1.370 . S
C1594 C1598 1.524 . S
C1595 C1587 1.503 . S
C1595 C1594 1.370 . S
C1595 C1596 1.403 . S
C1596 C1595 1.403 . S
C1596 C1597 1.404 . S
C1596 C1599 1.539 . S
C1597 C1593 1.408 . S
C1597 C1596 1.404 . S
C1597 H1609 0.930 . S
C1598 C1594 1.524 . S
C1598 H1610 0.956 . S
C1598 H1611 0.961 . S
C1598 H1612 0.961 . S
C1599 C1596 1.539 . S
C1599 H1613 0.958 . S
C1599 H1614 0.961 . S
C1599 H1615 0.960 . S
H1600 C1584 0.931 . S
H1601 C1589 0.929 . S
H1602 C1590 0.960 . S
H1603 C1590 0.962 . S
H1604 C1590 0.960 . S
H1605 C1591 0.961 . S
H1606 C1591 0.961 . S
H1607 C1591 0.961 . S
H1608 C1592 0.931 . S
H1609 C1597 0.930 . S
H1610 C1598 0.956 . S
H1611 C1598 0.961 . S
H1612 C1598 0.961 . S
H1613 C1599 0.958 . S
H1614 C1599 0.961 . S
H1615 C1599 0.960 . S
C1616 C1617 1.391 1_556 S
C1616 C1618 1.394 . S
C1616 H1632 0.931 . S
C1617 C1616 1.391 1_554 S
C1617 C1621 1.376 . S
C1618 C1616 1.394 . S
C1618 C1619 1.369 . S
C1618 C1622 1.531 . S
C1619 C1618 1.369 . S
C1619 C1620 1.410 1_556 S
C1619 C1627 1.504 1_455 S
C1620 C1619 1.410 1_554 S
C1620 C1621 1.392 . S
C1620 C1623 1.511 1_455 S
C1621 C1617 1.376 . S
C1621 C1620 1.392 . S
C1621 H1633 0.929 . S
C1622 C1618 1.531 . S
C1622 H1634 0.960 . S
C1622 H1635 0.962 . S
C1622 H1636 0.960 . S
C1623 C1620 1.511 1_655 S
C1623 H1637 0.961 . S
C1623 H1638 0.961 . S
C1623 H1639 0.961 . S
C1624 C1625 1.370 . S
C1624 C1626 1.363 . S
C1624 H1640 0.931 . S
C1625 C1624 1.370 . S
C1625 C1629 1.408 . S
C1626 C1624 1.363 . S
C1626 C1627 1.370 . S
C1626 C1630 1.524 . S
C1627 C1619 1.504 1_655 S
C1627 C1626 1.370 . S
C1627 C1628 1.402 . S
C1628 C1627 1.402 . S
C1628 C1629 1.404 . S
C1628 C1631 1.539 1_655 S
C1629 C1625 1.408 . S
C1629 C1628 1.404 . S
C1629 H1641 0.930 . S
C1630 C1626 1.524 . S
C1630 H1642 0.956 1_655 S
C1630 H1643 0.961 . S
C1630 H1644 0.961 . S
C1631 C1628 1.539 1_455 S
C1631 H1645 0.958 . S
C1631 H1646 0.961 . S
C1631 H1647 0.960 1_556 S
H1632 C1616 0.931 . S
H1633 C1621 0.929 . S
H1634 C1622 0.960 . S
H1635 C1622 0.962 . S
H1636 C1622 0.960 . S
H1637 C1623 0.961 . S
H1638 C1623 0.961 . S
H1639 C1623 0.961 . S
H1640 C1624 0.931 . S
H1641 C1629 0.930 . S
H1642 C1630 0.956 1_455 S
H1643 C1630 0.961 . S
H1644 C1630 0.961 . S
H1645 C1631 0.958 . S
H1646 C1631 0.961 . S
H1647 C1631 0.960 1_554 S
C1648 C1649 1.391 . S
C1648 C1650 1.394 . S
C1648 H1664 0.931 . S
C1649 C1648 1.391 . S
C1649 C1653 1.376 . S
C1650 C1648 1.394 . S
C1650 C1651 1.369 1_565 S
C1650 C1654 1.531 1_556 S
C1651 C1650 1.369 1_545 S
C1651 C1652 1.410 1_545 S
C1651 C1659 1.503 . S
C1652 C1651 1.410 1_565 S
C1652 C1653 1.392 . S
C1652 C1655 1.511 1_565 S
C1653 C1649 1.376 . S
C1653 C1652 1.392 . S
C1653 H1665 0.929 . S
C1654 C1650 1.531 1_554 S
C1654 H1666 0.960 1_565 S
C1654 H1667 0.962 . S
C1654 H1668 0.960 . S
C1655 C1652 1.511 1_545 S
C1655 H1669 0.977 . S
C1655 H1670 0.961 1_455 S
C1655 H1671 0.961 . S
C1656 C1657 1.370 1_655 S
C1656 C1658 1.363 . S
C1656 H1672 0.931 . S
C1657 C1656 1.370 1_455 S
C1657 C1661 1.408 . S
C1658 C1656 1.363 . S
C1658 C1659 1.370 1_654 S
C1658 C1662 1.524 1_545 S
C1659 C1651 1.503 . S
C1659 C1658 1.370 1_456 S
C1659 C1660 1.403 . S
C1660 C1659 1.403 . S
C1660 C1661 1.404 1_556 S
C1660 C1663 1.539 . S
C1661 C1657 1.408 . S
C1661 C1660 1.404 1_554 S
C1661 H1673 0.930 . S
C1662 C1658 1.524 1_565 S
C1662 H1674 0.956 . S
C1662 H1675 0.961 1_554 S
C1662 H1676 0.961 . S
C1663 C1660 1.539 . S
C1663 H1677 0.958 . S
C1663 H1678 0.961 . S
C1663 H1679 0.960 . S
H1664 C1648 0.931 . S
H1665 C1653 0.929 . S
H1666 C1654 0.960 1_545 S
H1667 C1654 0.962 . S
H1668 C1654 0.960 . S
H1669 C1655 0.977 . S
H1670 C1655 0.961 1_655 S
H1671 C1655 0.961 . S
H1672 C1656 0.931 . S
H1673 C1661 0.930 . S
H1674 C1662 0.956 . S
H1675 C1662 0.961 1_556 S
H1676 C1662 0.961 . S
H1677 C1663 0.958 . S
H1678 C1663 0.961 . S
H1679 C1663 0.960 . S
C1680 C1681 1.391 . S
C1680 C1682 1.394 . S
C1680 H1696 0.931 . S
C1681 C1680 1.391 . S
C1681 C1685 1.376 1_565 S
C1682 C1680 1.394 . S
C1682 C1683 1.369 1_564 S
C1682 C1686 1.531 . S
C1683 C1682 1.369 1_546 S
C1683 C1684 1.410 . S
C1683 C1691 1.503 . S
C1684 C1683 1.410 . S
C1684 C1685 1.392 1_556 S
C1684 C1687 1.511 . S
C1685 C1681 1.376 1_545 S
C1685 C1684 1.392 1_554 S
C1685 H1697 0.929 1_554 S
C1686 C1682 1.531 . S
C1686 H1698 0.960 . S
C1686 H1699 0.962 . S
C1686 H1700 0.960 . S
C1687 C1684 1.511 . S
C1687 H1701 0.961 . S
C1687 H1702 0.961 . S
C1687 H1703 0.961 . S
C1688 C1689 1.370 . S
C1688 C1690 1.363 . S
C1688 H1704 0.931 . S
C1689 C1688 1.370 . S
C1689 C1693 1.408 . S
C1690 C1688 1.363 . S
C1690 C1691 1.370 . S
C1690 C1694 1.524 1_556 S
C1691 C1683 1.503 . S
C1691 C1690 1.370 . S
C1691 C1692 1.403 . S
C1692 C1691 1.403 . S
C1692 C1693 1.404 . S
C1692 C1695 1.539 1_545 S
C1693 C1689 1.408 . S
C1693 C1692 1.404 . S
C1693 H1705 0.930 . S
C1694 C1690 1.524 1_554 S
C1694 H1706 0.956 . S
C1694 H1707 0.961 . S
C1694 H1708 0.961 . S
C1695 C1692 1.539 1_565 S
C1695 H1709 0.958 . S
C1695 H1710 0.961 . S
C1695 H1711 0.960 . S
H1696 C1680 0.931 . S
H1697 C1685 0.929 1_556 S
H1698 C1686 0.960 . S
H1699 C1686 0.962 . S
H1700 C1686 0.960 . S
H1701 C1687 0.961 . S
H1702 C1687 0.961 . S
H1703 C1687 0.961 . S
H1704 C1688 0.931 . S
H1705 C1693 0.930 . S
H1706 C1694 0.956 . S
H1707 C1694 0.961 . S
H1708 C1694 0.961 . S
H1709 C1695 0.958 . S
H1710 C1695 0.961 . S
H1711 C1695 0.960 . S
C1712 C1713 1.391 . S
C1712 C1714 1.394 . S
C1712 H1728 0.931 . S
C1713 C1712 1.391 . S
C1713 C1717 1.376 . S
C1714 C1712 1.394 . S
C1714 C1715 1.369 . S
C1714 C1718 1.531 1_556 S
C1715 C1714 1.369 . S
C1715 C1716 1.410 . S
C1715 C1723 1.503 . S
C1716 C1715 1.410 . S
C1716 C1717 1.392 . S
C1716 C1719 1.511 . S
C1717 C1713 1.376 . S
C1717 C1716 1.392 . S
C1717 H1729 0.929 . S
C1718 C1714 1.531 1_554 S
C1718 H1730 0.960 . S
C1718 H1731 0.962 . S
C1718 H1732 0.960 . S
C1719 C1716 1.511 . S
C1719 H1733 0.961 . S
C1719 H1734 0.961 . S
C1719 H1735 0.961 . S
C1720 C1721 1.377 . S
C1720 C1722 1.359 1_554 S
C1720 H1736 0.927 1_554 S
C1721 C1720 1.377 . S
C1721 C1725 1.408 . S
C1722 C1720 1.359 1_556 S
C1722 C1723 1.370 . S
C1722 C1726 1.524 . S
C1723 C1715 1.503 . S
C1723 C1722 1.370 . S
C1723 C1724 1.404 1_556 S
C1724 C1723 1.404 1_554 S
C1724 C1725 1.404 . S
C1724 C1727 1.539 . S
C1725 C1721 1.408 . S
C1725 C1724 1.404 . S
C1725 H1737 0.930 . S
C1726 C1722 1.524 . S
C1726 H1738 0.956 . S
C1726 H1739 0.961 . S
C1726 H1740 0.961 . S
C1727 C1724 1.539 . S
C1727 H1741 0.958 . S
C1727 H1742 0.961 . S
C1727 H1743 0.960 . S
H1728 C1712 0.931 . S
H1729 C1717 0.929 . S
H1730 C1718 0.960 . S
H1731 C1718 0.962 . S
H1732 C1718 0.960 . S
H1733 C1719 0.961 . S
H1734 C1719 0.961 . S
H1735 C1719 0.961 . S
H1736 C1720 0.927 1_556 S
H1737 C1725 0.930 . S
H1738 C1726 0.956 . S
H1739 C1726 0.961 . S
H1740 C1726 0.961 . S
H1741 C1727 0.958 . S
H1742 C1727 0.961 . S
H1743 C1727 0.960 . S
C1744 C1745 1.391 1_545 S
C1744 C1746 1.394 . S
C1744 H1760 0.931 . S
C1745 C1744 1.391 1_565 S
C1745 C1749 1.376 . S
C1746 C1744 1.394 . S
C1746 C1747 1.369 . S
C1746 C1750 1.531 . S
C1747 C1746 1.369 . S
C1747 C1748 1.410 1_545 S
C1747 C1755 1.503 1_455 S
C1748 C1747 1.410 1_565 S
C1748 C1749 1.392 . S
C1748 C1751 1.511 . S
C1749 C1745 1.376 . S
C1749 C1748 1.392 . S
C1749 H1761 0.929 . S
C1750 C1746 1.531 . S
C1750 H1762 0.960 1_455 S
C1750 H1763 0.962 . S
C1750 H1764 0.960 . S
C1751 C1748 1.511 . S
C1751 H1765 0.961 . S
C1751 H1766 0.961 . S
C1751 H1767 0.961 . S
C1752 C1753 1.370 . S
C1752 C1754 1.344 1_655 S
C1752 H1768 0.931 . S
C1753 C1752 1.370 . S
C1753 C1757 1.408 . S
C1754 C1752 1.344 1_455 S
C1754 C1755 1.366 1_455 S
C1754 C1758 1.548 . S
C1755 C1747 1.503 1_655 S
C1755 C1754 1.366 1_655 S
C1755 C1756 1.403 . S
C1756 C1755 1.403 . S
C1756 C1757 1.404 . S
C1756 C1759 1.539 1_545 S
C1757 C1753 1.408 . S
C1757 C1756 1.404 . S
C1757 H1769 0.930 . S
C1758 C1754 1.548 . S
C1758 H1770 0.956 . S
C1758 H1771 0.961 . S
C1758 H1772 0.961 . S
C1759 C1756 1.539 1_565 S
C1759 H1773 0.958 1_565 S
C1759 H1774 0.961 . S
C1759 H1775 0.960 . S
H1760 C1744 0.931 . S
H1761 C1749 0.929 . S
H1762 C1750 0.960 1_655 S
H1763 C1750 0.962 . S
H1764 C1750 0.960 . S
H1765 C1751 0.961 . S
H1766 C1751 0.961 . S
H1767 C1751 0.961 . S
H1768 C1752 0.931 . S
H1769 C1757 0.930 . S
H1770 C1758 0.956 . S
H1771 C1758 0.961 . S
H1772 C1758 0.961 . S
H1773 C1759 0.958 1_545 S
H1774 C1759 0.961 . S
H1775 C1759 0.960 . S
C1776 C1777 1.391 . S
C1776 C1778 1.394 . S
C1776 H1792 0.931 . S
C1777 C1776 1.391 . S
C1777 C1781 1.376 . S
C1778 C1776 1.394 . S
C1778 C1779 1.369 . S
C1778 C1782 1.531 . S
C1779 C1778 1.369 . S
C1779 C1780 1.410 . S
C1779 C1787 1.503 1_545 S
C1780 C1779 1.410 . S
C1780 C1781 1.392 . S
C1780 C1783 1.511 . S
C1781 C1777 1.376 . S
C1781 C1780 1.392 . S
C1781 H1793 0.929 . S
C1782 C1778 1.531 . S
C1782 H1794 0.960 1_545 S
C1782 H1795 0.962 . S
C1782 H1796 0.960 . S
C1783 C1780 1.511 . S
C1783 H1797 0.961 . S
C1783 H1798 0.961 . S
C1783 H1799 0.961 . S
C1784 C1785 1.370 . S
C1784 C1786 1.336 1_565 S
C1784 H1800 0.931 . S
C1785 C1784 1.370 . S
C1785 C1789 1.408 . S
C1786 C1784 1.336 1_545 S
C1786 C1787 1.364 1_545 S
C1786 C1790 1.558 . S
C1787 C1779 1.503 1_565 S
C1787 C1786 1.364 1_565 S
C1787 C1788 1.403 . S
C1788 C1787 1.403 . S
C1788 C1789 1.404 . S
C1788 C1791 1.539 . S
C1789 C1785 1.408 . S
C1789 C1788 1.404 . S
C1789 H1801 0.930 . S
C1790 C1786 1.558 . S
C1790 H1802 0.956 . S
C1790 H1803 0.961 . S
C1790 H1804 0.961 . S
C1791 C1788 1.539 . S
C1791 H1805 0.958 . S
C1791 H1806 0.961 . S
C1791 H1807 0.960 . S
H1792 C1776 0.931 . S
H1793 C1781 0.929 . S
H1794 C1782 0.960 1_565 S
H1795 C1782 0.962 . S
H1796 C1782 0.960 . S
H1797 C1783 0.961 . S
H1798 C1783 0.961 . S
H1799 C1783 0.961 . S
H1800 C1784 0.931 . S
H1801 C1789 0.930 . S
H1802 C1790 0.956 . S
H1803 C1790 0.961 . S
H1804 C1790 0.961 . S
H1805 C1791 0.958 . S
H1806 C1791 0.961 . S
H1807 C1791 0.960 . S
C1808 C1809 1.391 . S
C1808 C1810 1.394 . S
C1808 H1824 0.931 . S
C1809 C1808 1.391 . S
C1809 C1813 1.376 . S
C1810 C1808 1.394 . S
C1810 C1811 1.369 . S
C1810 C1814 1.531 . S
C1811 C1810 1.369 . S
C1811 C1812 1.410 . S
C1811 C1819 1.503 . S
C1812 C1811 1.410 . S
C1812 C1813 1.392 . S
C1812 C1815 1.511 . S
C1813 C1809 1.376 . S
C1813 C1812 1.392 . S
C1813 H1825 0.929 . S
C1814 C1810 1.531 . S
C1814 H1826 0.960 . S
C1814 H1827 0.962 . S
C1814 H1828 0.960 . S
C1815 C1812 1.511 . S
C1815 H1829 0.961 . S
C1815 H1830 0.961 . S
C1815 H1831 0.961 . S
C1816 C1817 1.370 . S
C1816 C1818 1.363 . S
C1816 H1832 0.931 . S
C1817 C1816 1.370 . S
C1817 C1821 1.408 . S
C1818 C1816 1.363 . S
C1818 C1819 1.370 . S
C1818 C1822 1.524 . S
C1819 C1811 1.503 . S
C1819 C1818 1.370 . S
C1819 C1820 1.403 . S
C1820 C1819 1.403 . S
C1820 C1821 1.404 . S
C1820 C1823 1.539 . S
C1821 C1817 1.408 . S
C1821 C1820 1.404 . S
C1821 H1833 0.930 . S
C1822 C1818 1.524 . S
C1822 H1834 0.956 . S
C1822 H1835 0.961 . S
C1822 H1836 0.961 . S
C1823 C1820 1.539 . S
C1823 H1837 0.958 . S
C1823 H1838 0.961 . S
C1823 H1839 0.960 . S
H1824 C1808 0.931 . S
H1825 C1813 0.929 . S
H1826 C1814 0.960 . S
H1827 C1814 0.962 . S
H1828 C1814 0.960 . S
H1829 C1815 0.961 . S
H1830 C1815 0.961 . S
H1831 C1815 0.961 . S
H1832 C1816 0.931 . S
H1833 C1821 0.930 . S
H1834 C1822 0.956 . S
H1835 C1822 0.961 . S
H1836 C1822 0.961 . S
H1837 C1823 0.958 . S
H1838 C1823 0.961 . S
H1839 C1823 0.960 . S
C1840 C1841 1.391 1_655 S
C1840 C1842 1.394 1_655 S
C1840 H1856 0.931 . S
C1841 C1840 1.391 1_455 S
C1841 C1845 1.376 . S
C1842 C1840 1.394 1_455 S
C1842 C1843 1.369 . S
C1842 C1846 1.531 . S
C1843 C1842 1.369 . S
C1843 C1844 1.410 . S
C1843 C1851 1.503 . S
C1844 C1843 1.410 . S
C1844 C1845 1.392 . S
C1844 C1847 1.511 . S
C1845 C1841 1.376 . S
C1845 C1844 1.392 . S
C1845 H1857 0.929 . S
C1846 C1842 1.531 . S
C1846 H1858 0.960 . S
C1846 H1859 0.962 1_455 S
C1846 H1860 0.960 . S
C1847 C1844 1.511 . S
C1847 H1861 0.961 . S
C1847 H1862 0.961 . S
C1847 H1863 0.961 . S
C1848 C1849 1.370 . S
C1848 C1850 1.363 . S
C1848 H1864 0.931 . S
C1849 C1848 1.370 . S
C1849 C1853 1.408 . S
C1850 C1848 1.363 . S
C1850 C1851 1.370 . S
C1850 C1854 1.524 1_455 S
C1851 C1843 1.503 . S
C1851 C1850 1.370 . S
C1851 C1852 1.403 . S
C1852 C1851 1.403 . S
C1852 C1853 1.404 . S
C1852 C1855 1.539 . S
C1853 C1849 1.408 . S
C1853 C1852 1.404 . S
C1853 H1865 0.930 . S
C1854 C1850 1.524 1_655 S
C1854 H1866 0.956 . S
C1854 H1867 0.961 . S
C1854 H1868 0.961 . S
C1855 C1852 1.539 . S
C1855 H1869 0.958 . S
C1855 H1870 0.961 . S
C1855 H1871 0.960 . S
H1856 C1840 0.931 . S
H1857 C1845 0.929 . S
H1858 C1846 0.960 . S
H1859 C1846 0.962 1_655 S
H1860 C1846 0.960 . S
H1861 C1847 0.961 . S
H1862 C1847 0.961 . S
H1863 C1847 0.961 . S
H1864 C1848 0.931 . S
H1865 C1853 0.930 . S
H1866 C1854 0.956 . S
H1867 C1854 0.961 . S
H1868 C1854 0.961 . S
H1869 C1855 0.958 . S
H1870 C1855 0.961 . S
H1871 C1855 0.960 . S
C849 C38 2.521 . S
C857 C144 2.518 . S
C881 C91 2.496 . S
C889 C197 2.508 . S
C913 C250 2.495 . S
C921 C356 2.508 . S
C945 C409 2.500 . S
C953 C303 2.511 . S
C977 C453 0.970 . S
C985 C559 0.989 . S
C1009 C612 1.029 . S
C1017 C506 1.014 . S
C1041 C771 0.968 . S
C1049 C665 0.989 . S
C1073 C824 1.030 . S
C1081 C718 1.014 . S
C1105 C410 2.427 . S
C1113 C39 2.421 . S
C1137 C92 2.432 . S
C1145 C251 2.416 . S
C1169 C304 2.420 . S
C1177 C145 2.417 . S
C1201 C198 2.412 . S
C1209 C357 2.420 . S
C1233 C817 0.972 . S
C1241 C446 1.051 . S
C1265 C499 0.971 . S
C1273 C658 1.049 . S
C1297 C552 1.070 . S
C1305 C711 1.017 . S
C1329 C764 1.073 . S
C1337 C605 1.006 . S
C1361 C29 0.815 . S
C1369 C241 0.769 . S
C1393 C82 0.715 . S
C1401 C294 0.761 . S
C1425 C347 0.711 . S
C1433 C135 0.769 . S
C1457 C188 0.712 . S
C1465 C400 0.773 . S
C1489 C674 1.331 . S
C1497 C462 1.343 . S
C1521 C727 1.318 . S
C1529 C515 1.330 . S
C1553 C568 1.329 . S
C1561 C780 1.331 . S
C1585 C621 1.353 . S
C1593 C833 1.344 . S
C1617 C22 2.310 . S
C1625 C463 2.294 . S
C1649 C516 2.271 . S
C1657 C75 2.310 1_455 S
C1681 C128 2.291 . S
C1689 C569 2.299 . S
C1713 C622 2.295 . S
C1721 C181 2.301 . S
C1745 C234 2.270 . S
C1753 C675 2.309 . S
C1777 C287 2.271 . S
C1785 C728 2.309 . S
C1809 C781 2.285 . S
C1817 C340 2.305 . S
C1841 C393 2.316 1_455 S
C1849 C834 2.291 . S
