# Generated by pormake.
# Topology nfc, (4)-cn, num edge types: 1
# Building blocks:
#     Node 0, Type 0, BuildingBlock: ESEHIV_clean_sbu_0, # of connection points: 4
#     Node 1, Type 0, BuildingBlock: ESEHIV_clean_sbu_0, # of connection points: 4
#     Node 2, Type 0, BuildingBlock: ESEHIV_clean_sbu_0, # of connection points: 4
#     Node 3, Type 0, BuildingBlock: ESEHIV_clean_sbu_0, # of connection points: 4
#     Node 4, Type 0, BuildingBlock: ESEHIV_clean_sbu_0, # of connection points: 4
#     Node 5, Type 0, BuildingBlock: ESEHIV_clean_sbu_0, # of connection points: 4
#     Node 6, Type 0, BuildingBlock: ESEHIV_clean_sbu_0, # of connection points: 4
#     Node 7, Type 0, BuildingBlock: ESEHIV_clean_sbu_0, # of connection points: 4
#     Node 8, Type 0, BuildingBlock: ESEHIV_clean_sbu_0, # of connection points: 4
#     Node 9, Type 0, BuildingBlock: ESEHIV_clean_sbu_0, # of connection points: 4
#     Node 10, Type 0, BuildingBlock: ESEHIV_clean_sbu_0, # of connection points: 4
#     Node 11, Type 0, BuildingBlock: ESEHIV_clean_sbu_0, # of connection points: 4
#     Node 12, Type 0, BuildingBlock: ESEHIV_clean_sbu_0, # of connection points: 4
#     Node 13, Type 0, BuildingBlock: ESEHIV_clean_sbu_0, # of connection points: 4
#     Node 14, Type 0, BuildingBlock: ESEHIV_clean_sbu_0, # of connection points: 4
#     Node 15, Type 0, BuildingBlock: ESEHIV_clean_sbu_0, # of connection points: 4
#     Edge 16, Type (0, 0), BuildingBlock: CIFDUS_clean_linker_0, # of connection points: 2
#     Edge 17, Type (0, 0), BuildingBlock: CIFDUS_clean_linker_0, # of connection points: 2
#     Edge 18, Type (0, 0), BuildingBlock: CIFDUS_clean_linker_0, # of connection points: 2
#     Edge 19, Type (0, 0), BuildingBlock: CIFDUS_clean_linker_0, # of connection points: 2
#     Edge 20, Type (0, 0), BuildingBlock: CIFDUS_clean_linker_0, # of connection points: 2
#     Edge 21, Type (0, 0), BuildingBlock: CIFDUS_clean_linker_0, # of connection points: 2
#     Edge 22, Type (0, 0), BuildingBlock: CIFDUS_clean_linker_0, # of connection points: 2
#     Edge 23, Type (0, 0), BuildingBlock: CIFDUS_clean_linker_0, # of connection points: 2
#     Edge 24, Type (0, 0), BuildingBlock: CIFDUS_clean_linker_0, # of connection points: 2
#     Edge 25, Type (0, 0), BuildingBlock: CIFDUS_clean_linker_0, # of connection points: 2
#     Edge 26, Type (0, 0), BuildingBlock: CIFDUS_clean_linker_0, # of connection points: 2
#     Edge 27, Type (0, 0), BuildingBlock: CIFDUS_clean_linker_0, # of connection points: 2
#     Edge 28, Type (0, 0), BuildingBlock: CIFDUS_clean_linker_0, # of connection points: 2
#     Edge 29, Type (0, 0), BuildingBlock: CIFDUS_clean_linker_0, # of connection points: 2
#     Edge 30, Type (0, 0), BuildingBlock: CIFDUS_clean_linker_0, # of connection points: 2
#     Edge 31, Type (0, 0), BuildingBlock: CIFDUS_clean_linker_0, # of connection points: 2
#     Edge 32, Type (0, 0), BuildingBlock: CIFDUS_clean_linker_0, # of connection points: 2
#     Edge 33, Type (0, 0), BuildingBlock: CIFDUS_clean_linker_0, # of connection points: 2
#     Edge 34, Type (0, 0), BuildingBlock: CIFDUS_clean_linker_0, # of connection points: 2
#     Edge 35, Type (0, 0), BuildingBlock: CIFDUS_clean_linker_0, # of connection points: 2
#     Edge 36, Type (0, 0), BuildingBlock: CIFDUS_clean_linker_0, # of connection points: 2
#     Edge 37, Type (0, 0), BuildingBlock: CIFDUS_clean_linker_0, # of connection points: 2
#     Edge 38, Type (0, 0), BuildingBlock: CIFDUS_clean_linker_0, # of connection points: 2
#     Edge 39, Type (0, 0), BuildingBlock: CIFDUS_clean_linker_0, # of connection points: 2
#     Edge 40, Type (0, 0), BuildingBlock: CIFDUS_clean_linker_0, # of connection points: 2
#     Edge 41, Type (0, 0), BuildingBlock: CIFDUS_clean_linker_0, # of connection points: 2
#     Edge 42, Type (0, 0), BuildingBlock: CIFDUS_clean_linker_0, # of connection points: 2
#     Edge 43, Type (0, 0), BuildingBlock: CIFDUS_clean_linker_0, # of connection points: 2
#     Edge 44, Type (0, 0), BuildingBlock: CIFDUS_clean_linker_0, # of connection points: 2
#     Edge 45, Type (0, 0), BuildingBlock: CIFDUS_clean_linker_0, # of connection points: 2
#     Edge 46, Type (0, 0), BuildingBlock: CIFDUS_clean_linker_0, # of connection points: 2
#     Edge 47, Type (0, 0), BuildingBlock: CIFDUS_clean_linker_0, # of connection points: 2
# Relax obj value: 0.070
# Max RMSD: 0.208
# Mean RMSD: 0.160
data_MOF--net-nfc--node1-ESEHIV_clean_sbu_0--edge1-CIFDUS_clean_linker_0
_symmetry_space_group_name_H-M    P1
_symmetry_Int_Tables_number       1
_symmetry_cell_setting            triclinic
loop_
_symmetry_equiv_pos_as_xyz
'x, y, z'
_cell_length_a     34.317966
_cell_length_b     34.066873
_cell_length_c     27.011759
_cell_angle_alpha  87.802235
_cell_angle_beta   88.806535
_cell_angle_gamma 78.876741
loop_
_atom_site_label
_atom_site_type_symbol
_atom_site_fract_x
_atom_site_fract_y
_atom_site_fract_z
_atom_type_partial_charge
Cu0 Cu 0.9913 1.01981 0.04518 0.0
N1 N 0.94211 1.01368 0.02104 0.0
N2 N 0.89794 0.98522 0.98263 0.0
C3 C 0.93361 0.97936 1.00491 0.0
C4 C 0.8833 0.02486 0.9853 0.0
C5 C 0.91069 0.04233 1.00863 0.0
O6 O 0.02878 1.0069 0.99083 0.0
C7 C 0.0348 0.98792 0.12882 0.0
O8 O 0.06358 1.00177 0.10551 0.0
H9 H 0.9537 0.9508 1.00832 0.0
H10 H 0.90865 0.07398 0.01376 0.0
N11 N 0.99016 0.07226 0.06363 0.0
N12 N 1.01215 0.12421 0.09379 0.0
C13 C 1.02143 0.09059 0.06742 0.0
C14 C 0.96037 0.09471 0.08881 0.0
C15 C 0.97362 0.12692 0.10695 0.0
C16 C 0.03925 0.9716 0.97528 0.0
O17 O 0.03112 0.94138 1.00258 0.0
H18 H 0.05095 0.07806 0.05395 0.0
H19 H 0.93225 0.08608 0.09724 0.0
O20 O 1.00265 0.98818 0.10614 0.0
H21 H 0.85574 0.04053 0.96925 0.0
H22 H 0.95726 0.14867 0.13157 0.0
Cu23 Cu 0.38176 0.80821 0.31549 0.0
N24 N 0.40078 0.84379 0.27152 0.0
N25 N 0.40585 0.86336 0.19214 0.0
C26 C 0.38139 0.85497 0.22899 0.0
C27 C 0.44215 0.85804 0.21238 0.0
C28 C 0.4389 0.84622 0.26158 0.0
O29 O 0.38679 0.7601 0.27706 0.0
C30 C 0.32068 0.86444 0.35654 0.0
O31 O 0.35062 0.88256 0.3629 0.0
H32 H 0.35138 0.8507 0.22311 0.0
H33 H 0.46343 0.83473 0.28588 0.0
N34 N 0.40983 0.7967 0.37441 0.0
N35 N 0.41695 0.77599 0.45412 0.0
C36 C 0.39908 0.77267 0.4107 0.0
C37 C 0.43597 0.81575 0.39495 0.0
C38 C 0.4406 0.80289 0.44401 0.0
C39 C 0.42176 0.74434 0.2625 0.0
O40 O 0.45211 0.75711 0.28057 0.0
H41 H 0.37641 0.75519 0.40567 0.0
H42 H 0.44826 0.83959 0.37688 0.0
O43 O 0.32713 0.83121 0.33458 0.0
H44 H 0.4695 0.85866 0.19193 0.0
H45 H 0.45754 0.81502 0.4709 0.0
Cu46 Cu 0.58053 0.10512 0.56592 0.0
N47 N 0.63254 0.09742 0.54087 0.0
N48 N 0.68057 0.11116 0.48958 0.0
C49 C 0.6427 0.10569 0.49366 0.0
C50 C 0.69512 0.10527 0.53587 0.0
C51 C 0.66543 0.09682 0.5674 0.0
O52 O 0.54849 0.13594 0.51421 0.0
C53 C 0.55063 0.14891 0.65195 0.0
O54 O 0.51536 0.15256 0.6323 0.0
H55 H 0.62163 0.11167 0.46377 0.0
H56 H 0.66661 0.09419 0.6074 0.0
N57 N 0.56333 0.05664 0.57932 0.0
N58 N 0.52711 1.01298 0.61079 0.0
C59 C 0.53028 0.05193 0.605 0.0
C60 C 0.58178 1.01945 0.56824 0.0
C61 C 0.55958 0.99252 0.58748 0.0
C62 C 0.55575 0.16951 0.49834 0.0
O63 O 0.57863 0.1873 0.5246 0.0
H64 H 0.50907 0.07672 0.61924 0.0
H65 H 0.60983 1.01237 0.54842 0.0
O66 O 0.58104 0.13182 0.62799 0.0
H67 H 0.72432 0.10915 0.5466 0.0
H68 H 0.56752 0.96029 0.5856 0.0
Cu69 Cu 0.26187 0.29804 0.76845 0.0
N70 N 0.26589 0.26206 0.71709 0.0
N71 N 0.2642 0.23826 0.64117 0.0
C72 C 0.2528 0.26997 0.67035 0.0
C73 C 0.28518 0.20931 0.67082 0.0
C74 C 0.2861 0.22405 0.71759 0.0
O75 O 0.23831 0.35116 0.74012 0.0
C76 C 0.32134 0.30501 0.8384 0.0
O77 O 0.29151 0.32526 0.86367 0.0
H78 H 0.23666 0.29894 0.65752 0.0
H79 H 0.30135 0.20856 0.74945 0.0
N80 N 0.22964 0.28238 0.81988 0.0
N81 N 0.21261 0.26162 0.89556 0.0
C82 C 0.24256 0.26338 0.86292 0.0
C83 C 0.18985 0.29192 0.82501 0.0
C84 C 0.17924 0.27907 0.8717 0.0
C85 C 0.22143 0.38066 0.7654 0.0
O86 O 0.22159 0.37681 0.81398 0.0
H87 H 0.27351 0.25223 0.87099 0.0
H88 H 0.17017 0.30888 0.79775 0.0
O89 O 0.31537 0.29395 0.7951 0.0
H90 H 0.29917 0.17972 0.65944 0.0
H91 H 0.14966 0.28436 0.88792 0.0
Cu92 Cu 0.06112 0.02491 0.54249 0.0
N93 N 0.02694 1.01265 0.49481 0.0
N94 N 1.00544 1.00002 0.42049 0.0
C95 C 0.03465 1.01152 0.44574 0.0
C96 C 0.97802 0.99412 0.45519 0.0
C97 C 0.99144 1.00183 0.50103 0.0
O98 O 0.11499 1.01167 0.51425 0.0
C99 C 1.0154 0.10531 0.54366 0.0
O100 O 1.00248 0.09767 0.50031 0.0
H101 H 0.06126 1.01912 0.429 0.0
H102 H 0.97665 0.99924 0.53642 0.0
N103 N 0.05901 0.99362 0.60036 0.0
N104 N 0.05832 0.9789 0.68182 0.0
C105 C 0.06398 1.00612 0.64603 0.0
C106 C 0.05 0.95706 0.60713 0.0
C107 C 0.04966 0.94783 0.65739 0.0
C108 C 0.12531 0.9762 0.4985 0.0
O109 O 0.1003 0.95159 0.50435 0.0
H110 H 0.07112 0.03502 0.65267 0.0
H111 H 0.04308 0.93891 0.57776 0.0
O112 O 0.04315 0.07996 0.56413 0.0
H113 H 0.95064 0.98412 0.44818 0.0
H114 H 0.04206 0.92103 0.67455 0.0
Cu115 Cu 0.35143 0.79402 0.82152 0.0
N116 N 0.35202 0.84437 0.79072 0.0
N117 N 0.37764 0.89038 0.74585 0.0
C118 C 0.38152 0.85134 0.75983 0.0
C119 C 0.3442 0.90884 0.76898 0.0
C120 C 0.32844 0.8804 0.79658 0.0
O121 O 0.38203 0.75767 0.77484 0.0
C122 C 0.35836 0.81824 0.91644 0.0
O123 O 0.32406 0.84036 0.90376 0.0
H124 H 0.40638 0.8283 0.74951 0.0
H125 H 0.30226 0.8859 0.82018 0.0
N126 N 0.29994 0.78291 0.83176 0.0
N127 N 0.25016 0.75153 0.85521 0.0
C128 C 0.28999 0.75 0.85437 0.0
C129 C 0.26532 0.80607 0.818 0.0
C130 C 0.23476 0.78697 0.83235 0.0
C131 C 0.36427 0.74955 0.7367 0.0
O132 O 0.32527 0.75745 0.73677 0.0
H133 H 0.31168 0.72523 0.86918 0.0
H134 H 0.26244 0.83483 0.79866 0.0
O135 O 0.37658 0.79356 0.88554 0.0
H136 H 0.33214 0.94063 0.76653 0.0
H137 H 0.20351 0.79874 0.82671 0.0
Cu138 Cu 0.55404 0.144 0.06622 0.0
N139 N 0.58838 0.15203 0.01372 0.0
N140 N 0.6057 0.15928 0.93414 0.0
C141 C 0.57857 0.149 0.96629 0.0
C142 C 0.63448 0.16831 0.9625 0.0
C143 C 0.62356 0.16403 1.01181 0.0
O144 O 0.50067 0.16284 0.03997 0.0
C145 C 0.60085 0.07568 0.10659 0.0
O146 O 0.62519 0.10108 0.1071 0.0
H147 H 0.55147 0.13994 0.95562 0.0
H148 H 0.63966 0.17006 0.04376 0.0
N149 N 0.55924 0.1724 0.12273 0.0
N150 N 0.55665 0.18343 0.20413 0.0
C151 C 0.54615 0.16172 0.16757 0.0
C152 C 0.57843 0.20242 0.13059 0.0
C153 C 0.57684 0.20935 0.18083 0.0
C154 C 0.49502 0.19695 0.01706 0.0
O155 O 0.52349 0.21781 0.01611 0.0
H156 H 0.52996 0.13761 0.17298 0.0
H157 H 0.59362 0.21725 0.10222 0.0
O158 O 0.5665 0.08757 0.08793 0.0
H159 H 0.66081 0.17845 0.94866 0.0
H160 H 0.591 0.23062 0.19883 0.0
Cu161 Cu 0.2315 0.27927 0.27032 0.0
N162 N 0.17836 0.29148 0.25121 0.0
N163 N 0.12414 0.27798 0.2162 0.0
C164 C 0.15583 0.26381 0.24489 0.0
C165 C 0.12603 0.31657 0.20532 0.0
C166 C 0.15974 0.32468 0.22653 0.0
O167 O 0.26047 0.26019 0.21023 0.0
C168 C 0.26876 0.22722 0.3478 0.0
O169 O 0.30163 0.22592 0.3216 0.0
H170 H 0.16421 0.23296 0.2579 0.0
H171 H 0.17175 0.35158 0.22031 0.0
N172 N 0.24927 0.32436 0.29148 0.0
N173 N 0.2889 0.35795 0.33061 0.0
C174 C 0.28649 0.3245 0.30639 0.0
C175 C 0.22729 0.35904 0.30644 0.0
C176 C 0.25165 0.37993 0.33021 0.0
C177 C 0.24971 0.23327 0.18512 0.0
O178 O 0.22744 0.21013 0.20662 0.0
H179 H 0.31089 0.2996 0.30155 0.0
H180 H 0.19536 0.3673 0.30357 0.0
O181 O 0.23577 0.24357 0.32865 0.0
H182 H 0.10654 0.33633 0.18016 0.0
H183 H 0.24198 0.40781 0.34874 0.0
Cu184 Cu 0.78834 0.25553 0.74452 0.0
N185 N 0.76458 0.23582 0.69246 0.0
N186 N 0.76798 0.20894 0.6182 0.0
C187 C 0.78535 0.20873 0.6624 0.0
C188 C 0.73438 0.23693 0.62097 0.0
C189 C 0.73216 0.25333 0.66713 0.0
O190 O 0.84284 0.25432 0.71855 0.0
C191 C 0.75951 0.33062 0.79543 0.0
O192 O 0.79209 0.32326 0.82161 0.0
H193 H 0.81572 0.19406 0.66966 0.0
H194 H 0.71144 0.2796 0.67868 0.0
N195 N 0.78871 0.21906 0.7976 0.0
N196 N 0.80539 0.18848 0.87056 0.0
C197 C 0.80179 0.2229 0.84325 0.0
C198 C 0.78242 0.18129 0.79641 0.0
C199 C 0.79262 0.16229 0.84162 0.0
C200 C 0.87403 0.23434 0.73915 0.0
O201 O 0.872 0.22258 0.78576 0.0
H202 H 0.81112 0.24958 0.855 0.0
H203 H 0.77338 0.16781 0.76402 0.0
O204 O 0.75519 0.30725 0.76096 0.0
H205 H 0.71581 0.2485 0.58975 0.0
H206 H 0.79322 0.13104 0.85121 0.0
Cu207 Cu 0.74388 0.80713 0.30335 0.0
N208 N 0.73553 0.77079 0.25631 0.0
N209 N 0.73026 0.74245 0.18396 0.0
C210 C 0.73169 0.77678 0.20682 0.0
C211 C 0.73333 0.71395 0.22058 0.0
C212 C 0.73686 0.73142 0.2649 0.0
O213 O 0.73133 0.86079 0.27232 0.0
C214 C 0.81431 0.79167 0.36591 0.0
O215 O 0.79216 0.81196 0.39994 0.0
H216 H 0.73202 0.80525 0.18778 0.0
H217 H 0.74144 0.71623 0.30081 0.0
N218 N 0.70926 0.80397 0.35769 0.0
N219 N 0.68239 0.81077 0.43419 0.0
C220 C 0.70597 0.82475 0.39959 0.0
C221 C 0.68544 0.7772 0.36501 0.0
C222 C 0.66911 0.78109 0.4119 0.0
C223 C 0.69639 0.87268 0.25542 0.0
O224 O 0.67057 0.84889 0.26105 0.0
H225 H 0.72169 0.8488 0.40496 0.0
H226 H 0.68135 0.75515 0.33894 0.0
O227 O 0.79981 0.78915 0.32321 0.0
H228 H 0.73392 0.68246 0.21567 0.0
H229 H 0.65082 0.76167 0.42895 0.0
Cu230 Cu 0.88401 0.21543 0.25662 0.0
N231 N 0.88507 0.17317 0.21502 0.0
N232 N 0.87317 0.14474 0.14556 0.0
C233 C 0.87879 0.17849 0.16628 0.0
C234 C 0.87606 0.11683 0.18276 0.0
C235 C 0.8835 0.13454 0.22585 0.0
O236 O 0.89819 0.26054 0.21771 0.0
C237 C 0.80414 0.20817 0.28269 0.0
O238 O 0.80413 0.18866 0.24172 0.0
H239 H 0.87556 0.20741 0.1471 0.0
H240 H 0.88481 0.121 0.26279 0.0
N241 N 0.91768 0.20016 0.30955 0.0
N242 N 0.91627 0.19455 0.39208 0.0
C243 C 0.90708 0.21882 0.35188 0.0
C244 C 0.93636 0.16298 0.32324 0.0
C245 C 0.93546 0.15939 0.37438 0.0
C246 C 0.92021 0.28366 0.23289 0.0
O247 O 0.93248 0.27953 0.27884 0.0
H248 H 0.88601 0.24692 0.35265 0.0
H249 H 0.94455 0.13856 0.29832 0.0
O250 O 0.83211 0.22701 0.28983 0.0
H251 H 0.87175 0.08641 0.17936 0.0
H252 H 0.94374 0.13183 0.39622 0.0
Cu253 Cu 0.74309 0.76503 0.79193 0.0
N254 N 0.74707 0.7125 0.77096 0.0
N255 N 0.72844 0.66025 0.73647 0.0
C256 C 0.71742 0.69878 0.7496 0.0
C257 C 0.7668 0.64941 0.75013 0.0
C258 C 0.77819 0.68168 0.77133 0.0
O259 O 0.71438 0.79851 0.73918 0.0
C260 C 0.73324 0.74503 0.88988 0.0
O261 O 0.76278 0.71657 0.87673 0.0
H262 H 0.68852 0.71726 0.74287 0.0
H263 H 0.80712 0.68261 0.78585 0.0
N264 N 0.79269 0.77878 0.80066 0.0
N265 N 0.83725 0.81193 0.8299 0.0
C266 C 0.79965 0.80544 0.83335 0.0
C267 C 0.82708 0.76769 0.77561 0.0
C268 C 0.85467 0.788 0.79366 0.0
C269 C 0.72726 0.82697 0.7164 0.0
O270 O 0.75728 0.84014 0.73471 0.0
H271 H 0.77721 0.82006 0.85882 0.0
H272 H 0.83147 0.74713 0.74557 0.0
O273 O 0.71715 0.77027 0.85676 0.0
H274 H 0.78533 0.62022 0.74558 0.0
H275 H 0.8848 0.78619 0.77997 0.0
Cu276 Cu 0.52276 0.51653 0.51009 0.0
N277 N 0.49789 0.47241 0.50619 0.0
N278 N 0.45392 0.43807 0.47816 0.0
C279 C 0.46755 0.47267 0.47536 0.0
C280 C 0.47708 0.41473 0.51195 0.0
C281 C 0.50422 0.43609 0.52931 0.0
O282 O 0.52656 0.53492 0.44124 0.0
C283 C 0.4638 0.5479 0.58122 0.0
O284 O 0.44479 0.52042 0.56702 0.0
H285 H 0.4559 0.49801 0.45104 0.0
H286 H 0.52669 0.42596 0.55687 0.0
N287 N 0.57332 0.50471 0.53801 0.0
N288 N 0.62493 0.51654 0.58068 0.0
C289 C 0.5886 0.53182 0.5625 0.0
C290 C 0.60089 0.47079 0.54071 0.0
C291 C 0.63292 0.47807 0.56681 0.0
C292 C 0.54467 0.50761 0.4134 0.0
O293 O 0.56247 0.47362 0.43438 0.0
H294 H 0.57328 0.56245 0.56648 0.0
H295 H 0.59785 0.44274 0.52522 0.0
O296 O 0.49312 0.55519 0.55519 0.0
H297 H 0.47417 0.38475 0.52398 0.0
H298 H 0.65963 0.45653 0.57561 0.0
Cu299 Cu 0.05503 0.54195 0.0375 0.0
N300 N 0.10639 0.54995 0.02021 0.0
N301 N 0.15653 0.57915 0.99269 0.0
C302 C 0.11664 0.58292 0.99823 0.0
C303 C 0.17172 0.54225 1.0118 0.0
C304 C 0.14086 0.52441 0.0286 0.0
O305 O 1.0202 0.56365 0.98286 0.0
C306 C 1.00589 0.57281 0.12067 0.0
O307 O 0.97516 0.57511 0.09181 0.0
H308 H 0.09526 0.60946 0.98757 0.0
H309 H 0.14335 0.49494 0.04607 0.0
N310 N 0.05338 0.48735 0.04598 0.0
N311 N 0.03348 0.43307 0.07912 0.0
C312 C 0.03891 0.47057 0.08666 0.0
C313 C 0.05762 0.45927 1.01149 0.0
C314 C 0.04529 0.42575 0.03183 0.0
C315 C 0.98981 0.54943 0.97214 0.0
O316 O 0.97732 0.524 1.00356 0.0
H317 H 0.02987 0.48652 0.12009 0.0
H318 H 0.06674 0.46375 0.97345 0.0
O319 O 0.04086 0.56376 0.10247 0.0
H320 H 0.20297 0.52887 1.01332 0.0
H321 H 0.04398 0.39862 1.01286 0.0
Cu322 Cu 0.53321 0.53336 0.98974 0.0
N323 N 0.49227 0.53367 0.94462 0.0
N324 N 0.45865 0.53946 0.87358 0.0
C325 C 0.49224 0.54434 0.89602 0.0
C326 C 0.43677 0.52543 0.90994 0.0
C327 C 0.4576 0.52169 0.9534 0.0
O328 O 0.58467 0.51307 0.95707 0.0
C329 C 0.49222 0.5978 0.0396 0.0
O330 O 0.46451 0.57677 0.03353 0.0
H331 H 0.51718 0.55386 0.87731 0.0
H332 H 0.44831 0.51055 0.98887 0.0
N333 N 0.52853 0.49935 0.04439 0.0
N334 N 0.52907 0.47867 0.12394 0.0
C335 C 0.53397 0.50843 0.09152 0.0
C336 C 0.52002 0.4624 0.04684 0.0
C337 C 0.52045 0.44947 0.09601 0.0
C338 C 0.58658 0.4831 0.92939 0.0
O339 O 0.5544 0.46828 0.92377 0.0
H340 H 0.54224 0.53608 0.10175 0.0
H341 H 0.51403 0.44607 0.01522 0.0
O342 O 0.52625 0.58601 0.01925 0.0
H343 H 0.40786 0.51786 0.90568 0.0
H344 H 0.51463 0.42096 0.11007 0.0
Cu345 Cu 1.01107 0.56787 0.54436 0.0
N346 N 1.00216 0.53801 0.4901 0.0
N347 N 1.00209 0.52157 0.41053 0.0
C348 C 0.99388 0.55134 0.44298 0.0
C349 C 1.01473 0.48801 0.43849 0.0
C350 C 1.01472 0.49823 0.48734 0.0
O351 O 0.99206 0.62493 0.52864 0.0
C352 C 0.08127 0.55205 0.60446 0.0
O353 O 0.06163 0.57872 0.63418 0.0
H354 H 0.98541 0.58253 0.43187 0.0
H355 H 0.02665 0.47861 0.51808 0.0
N356 N 0.98188 0.55552 0.60016 0.0
N357 N 0.96588 0.55629 0.68104 0.0
C358 C 0.97701 0.5771 0.64135 0.0
C359 C 0.9721 0.52022 0.61361 0.0
C360 C 0.96206 0.52066 0.6634 0.0
C361 C 0.99877 0.64447 0.48919 0.0
O362 O 0.02723 0.62872 0.45854 0.0
H363 H 0.98493 0.60625 0.64298 0.0
H364 H 0.97562 0.49468 0.59023 0.0
O365 O 0.06702 0.54838 0.56196 0.0
H366 H 0.02604 0.45864 0.42428 0.0
H367 H 0.95635 0.49528 0.68577 0.0
H368 H 0.97233 0.99207 0.1935 0.0
H369 H 0.10037 0.9717 0.18693 0.0
H370 H 0.1026 0.97183 0.27733 0.0
H371 H 0.06813 0.98197 0.35768 0.0
H372 H 0.94003 1.00621 0.36392 0.0
H373 H 0.9379 0.99998 0.27429 0.0
C374 C 1.00077 0.98685 0.21185 0.0
C375 C 0.03618 0.98166 0.18344 0.0
C376 C 1.00179 0.98812 0.2638 0.0
C377 C 0.07271 0.97564 0.20789 0.0
C378 C 0.07399 0.97592 0.25958 0.0
C379 C 0.03971 0.98613 0.33951 0.0
C380 C 1.00427 0.99486 0.3677 0.0
C381 C 0.03871 0.98301 0.28782 0.0
C382 C 0.96776 0.9992 0.3434 0.0
C383 C 0.96652 0.9958 0.29203 0.0
H384 H 0.45862 0.77196 0.53944 0.0
H385 H 0.35107 0.74548 0.47947 0.0
H386 H 0.32926 0.72801 0.56148 0.0
H387 H 0.33569 0.72867 0.65108 0.0
H388 H 0.44056 0.75855 0.71328 0.0
H389 H 0.46828 0.76573 0.63001 0.0
C390 C 0.43047 0.76228 0.54412 0.0
C391 C 0.40653 0.76086 0.50256 0.0
C392 C 0.41733 0.75293 0.59216 0.0
C393 C 0.37056 0.74709 0.50987 0.0
C394 C 0.35773 0.73718 0.5572 0.0
C395 C 0.365 0.73596 0.64657 0.0
C396 C 0.38568 0.7436 0.68843 0.0
C397 C 0.38024 0.74115 0.59867 0.0
C398 C 0.42385 0.75256 0.6818 0.0
C399 C 0.43959 0.75705 0.63407 0.0
H400 H 0.53895 0.17905 0.88099 0.0
H401 H 0.6662 0.14431 0.86729 0.0
H402 H 0.66066 0.14144 0.77723 0.0
H403 H 0.61906 0.14339 0.70363 0.0
H404 H 0.49153 0.17728 0.71827 0.0
H405 H 0.49779 0.18605 0.80684 0.0
C406 C 0.56547 0.17078 0.85831 0.0
C407 C 0.60291 0.16121 0.88086 0.0
C408 C 0.56196 0.16894 0.80681 0.0
C409 C 0.63709 0.15173 0.85082 0.0
C410 C 0.63387 0.1499 0.7994 0.0
C411 C 0.59261 0.15309 0.72603 0.0
C412 C 0.55481 0.15924 0.70425 0.0
C413 C 0.59638 0.15766 0.77713 0.0
C414 C 0.52096 0.17214 0.73392 0.0
C415 C 0.52449 0.17702 0.78468 0.0
H416 H 0.2652 0.27997 0.95835 0.0
H417 H 0.16661 0.21965 0.94986 0.0
H418 H 0.17184 0.20192 0.03883 0.0
H419 H 0.20313 0.20602 0.11919 0.0
H420 H 0.30115 0.268 0.12751 0.0
H421 H 0.29898 0.28099 0.03777 0.0
C422 C 0.24592 0.26171 0.97571 0.0
C423 C 0.21632 0.25015 0.94746 0.0
C424 C 0.24922 0.2518 0.02665 0.0
C425 C 0.18974 0.22862 0.97091 0.0
C426 C 0.19288 0.2184 0.02162 0.0
C427 C 0.22458 0.22167 0.10134 0.0
C428 C 0.2525 0.23579 0.13015 0.0
C429 C 0.2224 0.23003 0.04992 0.0
C430 C 0.27951 0.25668 0.1063 0.0
C431 C 0.27811 0.26433 0.05502 0.0
H432 H 0.07066 0.92034 0.75372 0.0
H433 H 0.04511 0.04877 0.73005 0.0
H434 H 0.04202 0.05753 0.81895 0.0
H435 H 0.04159 0.02924 0.90339 0.0
H436 H 0.06336 0.90099 0.92822 0.0
H437 H 0.07312 0.89179 0.83919 0.0
C438 C 0.06435 0.95023 0.76796 0.0
C439 C 0.05813 0.98375 0.7348 0.0
C440 C 0.06195 0.95518 0.81953 0.0
C441 C 0.05059 1.0223 0.75423 0.0
C442 C 0.04855 0.02742 0.8053 0.0
C443 C 0.04911 0.9992 0.88956 0.0
C444 C 0.05162 0.96587 0.92262 0.0
C445 C 0.05367 0.99412 0.83827 0.0
C446 C 0.06121 0.92723 0.90373 0.0
C447 C 0.06659 0.92193 0.85273 0.0
H448 H 0.88331 0.14089 0.44667 0.0
H449 H 0.89839 0.26377 0.43872 0.0
H450 H 0.84897 0.28025 0.50474 0.0
H451 H 0.80164 0.25977 0.56456 0.0
H452 H 0.78842 0.13694 0.57706 0.0
H453 H 0.8371 0.11983 0.50918 0.0
C454 C 0.8767 0.17093 0.46047 0.0
C455 C 0.89463 0.20111 0.43809 0.0
C456 C 0.84822 0.18015 0.49848 0.0
C457 C 0.88497 0.24015 0.45557 0.0
C458 C 0.85645 0.24967 0.4928 0.0
C459 C 0.80897 0.22952 0.55138 0.0
C460 C 0.79108 0.19974 0.5741 0.0
C461 C 0.83768 0.22001 0.5141 0.0
C462 C 0.80144 0.16024 0.55876 0.0
C463 C 0.82951 0.15053 0.52063 0.0
H464 H 0.56079 0.23526 0.27713 0.0
H465 H 0.53976 0.11666 0.25158 0.0
H466 H 0.53207 0.10458 0.33977 0.0
H467 H 0.53621 0.12495 0.42477 0.0
H468 H 0.56205 0.24111 0.45235 0.0
H469 H 0.56268 0.25674 0.36318 0.0
C470 C 0.5546 0.20674 0.2907 0.0
C471 C 0.55082 0.17713 0.25695 0.0
C472 C 0.55098 0.19942 0.34218 0.0
C473 C 0.54227 0.14052 0.27582 0.0
C474 C 0.53808 0.13333 0.32666 0.0
C475 C 0.54119 0.15405 0.41147 0.0
C476 C 0.54896 0.18184 0.44538 0.0
C477 C 0.54282 0.16232 0.36019 0.0
C478 C 0.55587 0.21917 0.42716 0.0
C479 C 0.5565 0.22803 0.3761 0.0
H480 H 0.69822 0.79571 0.11177 0.0
H481 H 0.76321 0.67512 0.13722 0.0
H482 H 0.76635 0.66457 0.04869 0.0
H483 H 0.75439 0.69026 0.96396 0.0
H484 H 0.69075 0.81091 0.93591 0.0
H485 H 0.68302 0.82064 0.02536 0.0
C486 C 0.71305 0.76718 0.09785 0.0
C487 C 0.73046 0.73629 0.13134 0.0
C488 C 0.71498 0.76127 0.04641 0.0
C489 C 0.7491 0.69928 0.11265 0.0
C490 C 0.75115 0.69324 0.06186 0.0
C491 C 0.73849 0.71864 0.97728 0.0
C492 C 0.72339 0.74988 0.94328 0.0
C493 C 0.73461 0.72411 0.02844 0.0
C494 C 0.70256 0.7863 0.96128 0.0
C495 C 0.69839 0.79196 1.01244 0.0
H496 H 0.41438 0.52557 0.65204 0.0
H497 H 0.50511 0.59654 0.62893 0.0
H498 H 0.50907 0.60319 0.71836 0.0
H499 H 0.49227 0.58215 0.80322 0.0
H500 H 0.40488 0.50687 0.82451 0.0
H501 H 0.394 0.50916 0.73605 0.0
C502 C 0.43453 0.54319 0.66633 0.0
C503 C 0.45969 0.56012 0.6336 0.0
C504 C 0.43769 0.54571 0.7178 0.0
C505 C 0.48542 0.58303 0.6531 0.0
C506 C 0.48795 0.58658 0.70437 0.0
C507 C 0.47085 0.56619 0.7887 0.0
C508 C 0.4499 0.54396 0.82118 0.0
C509 C 0.46525 0.5668 0.73714 0.0
C510 C 0.42151 0.52441 0.80117 0.0
C511 C 0.41531 0.52548 0.75021 0.0
H512 H 0.79046 0.13652 0.9431 0.0
H513 H 0.86584 0.22066 0.90213 0.0
H514 H 0.89633 0.21105 0.98312 0.0
H515 H 0.89805 0.18314 0.06721 0.0
H516 H 0.82295 0.09979 0.11101 0.0
H517 H 0.79681 0.10339 0.02674 0.0
C518 C 0.81383 0.15234 0.95192 0.0
C519 C 0.82506 0.1801 0.91725 0.0
C520 C 0.83134 0.1467 0.99884 0.0
C521 C 0.85565 0.20022 0.92879 0.0
C522 C 0.87341 0.19447 0.97491 0.0
C523 C 0.87602 0.16571 0.05821 0.0
C524 C 0.8618 0.14194 0.09519 0.0
C525 C 0.86078 0.16861 1.0105 0.0
C526 C 0.83418 0.11844 0.08299 0.0
C527 C 0.81905 0.12077 0.03501 0.0
H528 H 0.05389 0.52669 0.18681 0.0
H529 H 0.94449 0.61326 0.17662 0.0
H530 H 0.9336 0.60566 0.26638 0.0
H531 H 0.95491 0.57265 0.34782 0.0
H532 H 0.06162 0.48203 0.35427 0.0
H533 H 0.07342 0.49227 0.26591 0.0
C534 C 0.02784 0.54427 0.20425 0.0
C535 C 1.00034 0.57101 0.17525 0.0
C536 C 1.02099 0.53842 0.25517 0.0
C537 C 0.96627 0.59278 0.19827 0.0
C538 C 0.95998 0.58828 0.24951 0.0
C539 C 0.9806 0.55515 0.32966 0.0
C540 C 1.00717 0.52641 0.35759 0.0
C541 C 0.987 0.56088 0.27833 0.0
C542 C 0.04033 0.5038 0.33361 0.0
C543 C 0.04733 0.50991 0.28311 0.0
H544 H 0.66749 0.8048 0.66547 0.0
H545 H 0.76143 0.87256 0.64941 0.0
H546 H 0.75282 0.87733 0.55996 0.0
H547 H 0.72551 0.85407 0.48622 0.0
H548 H 0.63015 0.78789 0.50184 0.0
H549 H 0.63262 0.79093 0.59136 0.0
C550 C 0.68555 0.82133 0.64254 0.0
C551 C 0.71557 0.83761 0.66424 0.0
C552 C 0.68078 0.82365 0.59084 0.0
C553 C 0.73831 0.85937 0.63389 0.0
C554 C 0.73358 0.86195 0.58254 0.0
C555 C 0.70461 0.84088 0.50866 0.0
C556 C 0.67866 0.81947 0.48645 0.0
C557 C 0.70594 0.84289 0.56049 0.0
C558 C 0.65157 0.8033 0.51724 0.0
C559 C 0.65275 0.8052 0.56877 0.0
H560 H 0.5133 0.54176 0.18389 0.0
H561 H 0.55548 0.41399 0.18342 0.0
H562 H 0.56526 0.41243 0.27275 0.0
H563 H 0.56197 0.44689 0.35045 0.0
H564 H 0.51773 0.57428 0.35341 0.0
H565 H 0.50916 0.57664 0.26324 0.0
C566 C 0.52486 0.51365 0.20336 0.0
C567 C 0.53373 0.47798 0.17695 0.0
C568 C 0.53024 0.51297 0.25495 0.0
C569 C 0.54803 0.44171 0.20285 0.0
C570 C 0.55388 0.44086 0.25388 0.0
C571 C 0.55073 0.47536 0.33153 0.0
C572 C 0.54086 0.51048 0.35869 0.0
C573 C 0.54515 0.47627 0.28021 0.0
C574 C 0.52576 0.54687 0.3334 0.0
C575 C 0.52077 0.54817 0.28189 0.0
H576 H 0.4446 0.81594 0.12219 0.0
H577 H 0.34446 0.91088 0.14763 0.0
H578 H 0.3216 0.90618 0.06315 0.0
H579 H 0.32789 0.87239 0.98457 0.0
H580 H 0.42641 0.77523 0.95891 0.0
H581 H 0.45222 0.78322 0.04111 0.0
C582 C 0.41838 0.83617 0.10857 0.0
C583 C 0.39644 0.86425 0.14048 0.0
C584 C 0.40488 0.83238 0.06043 0.0
C585 C 0.36184 0.88951 0.12325 0.0
C586 C 0.34873 0.88658 0.07522 0.0
C587 C 0.35511 0.85295 0.99671 0.0
C588 C 0.37505 0.82309 0.96561 0.0
C589 C 0.3696 0.85765 0.04386 0.0
C590 C 0.41038 0.79838 0.9821 0.0
C591 C 0.42518 0.80299 0.02908 0.0
H592 H 1.01469 0.59233 0.89437 0.0
H593 H 0.93028 0.51711 0.9341 0.0
H594 H 0.91281 0.51532 0.84722 0.0
H595 H 0.92647 0.52943 0.75893 0.0
H596 H 1.01237 0.60315 0.72005 0.0
H597 H 0.02364 0.61158 0.80712 0.0
C598 C 0.99197 0.57609 0.88423 0.0
C599 C 0.97421 0.55454 0.92088 0.0
C600 C 0.98244 0.57463 0.83401 0.0
C601 C 0.94467 0.53383 0.90682 0.0
C602 C 0.93475 0.53261 0.857 0.0
C603 C 0.94738 0.5476 0.76956 0.0
C604 C 0.96856 0.56537 0.73262 0.0
C605 C 0.95428 0.55193 0.8201 0.0
C606 C 0.99521 0.58934 0.7472 0.0
C607 C 1.002 0.59397 0.79725 0.0
H608 H 0.21425 0.25722 0.41791 0.0
H609 H 0.32915 0.18081 0.40015 0.0
H610 H 0.33693 0.17551 0.49018 0.0
H611 H 0.31319 0.1968 0.57362 0.0
H612 H 0.20013 0.27648 0.59038 0.0
H613 H 0.18966 0.27661 0.50112 0.0
C614 C 0.24069 0.23875 0.43369 0.0
C615 C 0.27096 0.21915 0.40222 0.0
C616 C 0.24554 0.23697 0.48537 0.0
C617 C 0.30533 0.19602 0.42345 0.0
C618 C 0.30987 0.19316 0.47495 0.0
C619 C 0.28603 0.21373 0.5578 0.0
C620 C 0.25749 0.23667 0.5887 0.0
C621 C 0.28051 0.21413 0.50624 0.0
C622 C 0.22274 0.25897 0.56742 0.0
C623 C 0.21666 0.25889 0.5164 0.0
H624 H 0.99361 0.20173 0.11753 0.0
H625 H 0.0908 0.10053 0.11252 0.0
H626 H 0.13437 0.13946 0.15015 0.0
H627 H 0.14428 0.20164 0.18724 0.0
H628 H 0.04747 0.30276 0.19225 0.0
H629 H 1.00433 0.2644 0.15187 0.0
C630 C 0.02432 0.18818 0.12471 0.0
C631 C 0.03877 0.14818 0.11226 0.0
C632 C 0.04917 0.21063 0.14681 0.0
C633 C 0.07888 0.13132 0.12109 0.0
C634 C 0.10377 0.15348 0.1431 0.0
C635 C 0.11356 0.21512 0.18015 0.0
C636 C 0.09875 0.25487 0.19347 0.0
C637 C 0.08909 0.19299 0.1567 0.0
C638 C 0.05928 0.27226 0.18252 0.0
C639 C 0.03468 0.25035 0.1596 0.0
H640 H 0.14713 0.90824 0.44747 0.0
H641 H 0.1901 1.01287 0.49015 0.0
H642 H 0.25384 0.98801 0.44867 0.0
H643 H 0.29786 0.93554 0.40227 0.0
H644 H 0.25391 0.83144 0.35937 0.0
H645 H 0.1899 0.85734 0.39883 0.0
C646 C 0.17038 0.92572 0.44785 0.0
C647 C 0.16385 0.96231 0.47238 0.0
C648 C 0.20677 0.91133 0.42379 0.0
C649 C 0.19428 0.98463 0.47177 0.0
C650 C 0.23075 0.97037 0.44806 0.0
C651 C 0.27425 0.91853 0.40131 0.0
C652 C 0.2809 0.88139 0.37791 0.0
C653 C 0.23742 0.93362 0.42422 0.0
C654 C 0.24978 0.86 0.37699 0.0
C655 C 0.21315 0.87478 0.3997 0.0
H656 H 0.39272 0.96532 0.75038 0.0
H657 H 0.42481 0.85568 0.67174 0.0
H658 H 0.47359 0.88414 0.62227 0.0
H659 H 0.50793 0.93984 0.60196 0.0
H660 H 0.47699 0.04892 0.68229 0.0
H661 H 0.42666 1.02137 0.72933 0.0
C662 C 0.41005 0.94781 0.72206 0.0
C663 C 0.40506 0.90829 0.71507 0.0
C664 C 0.43835 0.96432 0.6938 0.0
C665 C 0.42828 0.88592 0.6785 0.0
C666 C 0.45614 0.90227 0.64999 0.0
C667 C 0.49047 0.95761 0.62992 0.0
C668 C 0.49664 0.99662 0.63814 0.0
C669 C 0.46171 0.94133 0.65758 0.0
C670 C 0.47292 1.01914 0.67427 0.0
C671 C 0.44413 1.00326 0.70161 0.0
H672 H 0.3266 0.26358 0.92566 0.0
H673 H 0.39843 0.30343 0.80886 0.0
H674 H 0.45887 0.27293 0.85406 0.0
H675 H 0.49065 0.23655 0.92821 0.0
H676 H 0.41838 0.19165 0.04117 0.0
H677 H 0.35818 0.22247 0.99605 0.0
C678 C 0.35541 0.26592 0.91039 0.0
C679 C 0.35811 0.28658 0.86471 0.0
C680 C 0.38969 0.2473 0.93584 0.0
C681 C 0.39571 0.28812 0.8443 0.0
C682 C 0.43014 0.27068 0.87012 0.0
C683 C 0.46167 0.23343 0.9428 0.0
C684 C 0.45875 0.21229 0.98821 0.0
C685 C 0.42743 0.25044 0.9161 0.0
C686 C 0.42123 0.20777 1.00634 0.0
C687 C 0.38691 0.22555 0.98068 0.0
H688 H 0.93706 0.91793 0.93992 0.0
H689 H 0.81989 0.98701 0.96732 0.0
H690 H 0.79061 0.93931 0.92226 0.0
H691 H 0.79828 0.87859 0.87412 0.0
H692 H 0.91534 0.8087 0.84803 0.0
H693 H 0.94459 0.85618 0.89345 0.0
C694 C 0.90509 0.92234 0.9367 0.0
C695 C 0.88076 0.95614 0.95724 0.0
C696 C 0.88841 0.89472 0.91068 0.0
C697 C 0.83939 0.9616 0.95158 0.0
C698 C 0.8226 0.9342 0.92595 0.0
C699 C 0.83014 0.87332 0.8788 0.0
C700 C 0.85445 0.83984 0.85752 0.0
C701 C 0.84681 0.90071 0.90521 0.0
C702 C 0.89582 0.83428 0.86336 0.0
C703 C 0.91261 0.86136 0.88963 0.0
H704 H 0.88408 0.23803 0.63784 0.0
H705 H 0.94315 0.1878 0.7719 0.0
H706 H 0.99462 0.14622 0.72326 0.0
H707 H 1.01868 0.11804 0.64304 0.0
H708 H 0.95976 0.16821 0.509 0.0
H709 H 0.91402 0.21655 0.55736 0.0
C710 C 0.90869 0.21874 0.65649 0.0
C711 C 0.90922 0.21595 0.7087 0.0
C712 C 0.93833 0.19439 0.62823 0.0
C713 C 0.94153 0.19056 0.73188 0.0
C714 C 0.97107 0.16652 0.70404 0.0
C715 C 0.99622 0.13994 0.62416 0.0
C716 C 0.99247 0.13895 0.57233 0.0
C717 C 0.96912 0.16722 0.65221 0.0
C718 C 0.96311 0.16775 0.5488 0.0
C719 C 0.93664 0.1953 0.57641 0.0
H720 H 0.74732 0.1622 0.28391 0.0
H721 H 0.80426 0.23338 0.37795 0.0
H722 H 0.77037 0.20994 0.45033 0.0
H723 H 0.7289 0.16501 0.48805 0.0
H724 H 0.67175 0.09425 0.39428 0.0
H725 H 0.70198 0.12119 0.32086 0.0
C726 C 0.75205 0.17301 0.32012 0.0
C727 C 0.77851 0.19946 0.32521 0.0
C728 C 0.73323 0.15867 0.36191 0.0
C729 C 0.78407 0.21312 0.37263 0.0
C730 C 0.76507 0.19934 0.41426 0.0
C731 C 0.72337 0.15526 0.45156 0.0
C732 C 0.6987 0.12709 0.44661 0.0
C733 C 0.74046 0.17129 0.40952 0.0
C734 C 0.69083 0.11568 0.39897 0.0
C735 C 0.70807 0.13111 0.35705 0.0
H736 H 0.62625 0.90257 0.2097 0.0
H737 H 0.74037 0.93134 0.23996 0.0
H738 H 0.72103 0.99586 0.19557 0.0
H739 H 0.67166 0.04434 0.1492 0.0
H740 H 0.55742 1.01598 0.11879 0.0
H741 H 0.57707 0.95085 0.16202 0.0
C742 C 0.64697 0.92291 0.20669 0.0
C743 C 0.68477 0.91202 0.22844 0.0
C744 C 0.63566 0.95998 0.18095 0.0
C745 C 0.71114 0.93883 0.22379 0.0
C746 C 0.70009 0.97577 0.19834 0.0
C747 C 0.65098 1.02394 0.15177 0.0
C748 C 0.613 0.03521 0.13065 0.0
C749 C 0.66242 0.98668 0.17689 0.0
C750 C 0.58679 1.00819 0.13452 0.0
C751 C 0.59801 0.97095 0.15938 0.0
H752 H 0.60029 0.57863 0.64022 0.0
H753 H 0.70544 0.50147 0.58472 0.0
H754 H 0.74717 0.53856 0.62932 0.0
H755 H 0.75375 0.59478 0.68146 0.0
H756 H 0.64798 0.67121 0.73715 0.0
H757 H 0.60677 0.63312 0.69425 0.0
C758 C 0.63233 0.57004 0.63751 0.0
C759 C 0.64961 0.53741 0.60869 0.0
C760 C 0.65614 0.59164 0.66304 0.0
C761 C 0.69126 0.52623 0.60677 0.0
C762 C 0.71517 0.54762 0.63208 0.0
C763 C 0.72173 0.60293 0.68472 0.0
C764 C 0.70425 0.63631 0.71235 0.0
C765 C 0.69795 0.58059 0.66007 0.0
C766 C 0.66252 0.64636 0.71553 0.0
C767 C 0.63879 0.62436 0.69119 0.0
H768 H 0.59421 0.43969 0.84697 0.0
H769 H 0.66358 0.48035 0.95863 0.0
H770 H 0.72411 0.43859 0.92517 0.0
H771 H 0.7562 0.38589 0.8681 0.0
H772 H 0.68537 0.34722 0.75598 0.0
H773 H 0.62684 0.39295 0.78549 0.0
C774 C 0.62264 0.43978 0.86377 0.0
C775 C 0.62427 0.46282 0.90561 0.0
C776 C 0.65712 0.41577 0.84435 0.0
C777 C 0.66145 0.46297 0.9264 0.0
C778 C 0.69603 0.43887 0.9074 0.0
C779 C 0.72808 0.3878 0.84972 0.0
C780 C 0.72539 0.36257 0.81006 0.0
C781 C 0.69411 0.41443 0.86698 0.0
C782 C 0.68859 0.36588 0.78664 0.0
C783 C 0.65491 0.39204 0.8036 0.0
H784 H 0.96595 0.33783 0.25397 0.0
H785 H 0.90895 0.29355 0.1326 0.0
H786 H 0.93955 0.33541 0.07404 0.0
H787 H 0.98454 0.38304 0.05687 0.0
H788 H 0.04033 0.4279 0.17854 0.0
H789 H 1.00823 0.38744 0.23729 0.0
C790 C 0.95983 0.33757 0.21478 0.0
C791 C 0.9353 0.31227 0.19786 0.0
C792 C 0.97754 0.36173 0.18123 0.0
C793 C 0.92765 0.31264 0.14684 0.0
C794 C 0.94534 0.33645 0.11321 0.0
C795 C 0.98987 0.38367 0.09621 0.0
C796 C 1.01507 0.40824 0.11327 0.0
C797 C 0.97084 0.36066 0.12989 0.0
C798 C 1.02101 0.40937 0.16449 0.0
C799 C 1.00262 0.38626 0.19809 0.0
H800 H 0.9769 0.66881 0.39465 0.0
H801 H 0.95068 0.69761 0.54737 0.0
H802 H 0.89341 0.74837 0.522 0.0
H803 H 0.84733 0.78013 0.45749 0.0
H804 H 0.87054 0.74829 0.30511 0.0
H805 H 0.93235 0.70344 0.32921 0.0
C806 C 0.9592 0.68686 0.42228 0.0
C807 C 0.96831 0.67959 0.47291 0.0
C808 C 0.92538 0.71513 0.4075 0.0
C809 C 0.94447 0.70267 0.50824 0.0
C810 C 0.91157 0.73159 0.49373 0.0
C811 C 0.86609 0.76385 0.42931 0.0
C812 C 0.85404 0.76767 0.37945 0.0
C813 C 0.90118 0.73741 0.44361 0.0
C814 C 0.87887 0.74601 0.34372 0.0
C815 C 0.91427 0.72025 0.35753 0.0
H816 H 0.30192 0.43015 0.35616 0.0
H817 H 0.35217 0.30385 0.36593 0.0
H818 H 0.40786 0.31739 0.41255 0.0
H819 H 0.44239 0.36525 0.45168 0.0
H820 H 0.3903 0.49112 0.44399 0.0
H821 H 0.33542 0.4775 0.39616 0.0
C822 C 0.32484 0.40549 0.3687 0.0
C823 C 0.32259 0.36606 0.35712 0.0
C824 C 0.35666 0.4134 0.39618 0.0
C825 C 0.35314 0.33462 0.3733 0.0
C826 C 0.38499 0.34229 0.40048 0.0
C827 C 0.41887 0.38962 0.43989 0.0
C828 C 0.42083 0.4292 0.45126 0.0
C829 C 0.38703 0.38157 0.41232 0.0
C830 C 0.39015 0.46045 0.43515 0.0
C831 C 0.35851 0.45268 0.40793 0.0
H832 H 0.42277 0.62712 0.08662 0.0
H833 H 0.54573 0.63902 0.07769 0.0
H834 H 0.53461 0.68493 0.14647 0.0
H835 H 0.49057 0.71942 0.21102 0.0
H836 H 0.36776 0.7069 0.21969 0.0
H837 H 0.3785 0.66284 0.14929 0.0
C838 C 0.44721 0.63992 0.09932 0.0
C839 C 0.48514 0.6295 0.07688 0.0
C840 C 0.44074 0.66569 0.13928 0.0
C841 C 0.51625 0.6466 0.09397 0.0
C842 C 0.50994 0.67263 0.13356 0.0
C843 C 0.46613 0.70689 0.1978 0.0
C844 C 0.42842 0.71618 0.22112 0.0
C845 C 0.47245 0.6819 0.15694 0.0
C846 C 0.39709 0.70008 0.20282 0.0
C847 C 0.4032 0.67499 0.16242 0.0
H848 H 0.27451 0.69254 0.92503 0.0
H849 H 0.17579 0.74284 0.83108 0.0
H850 H 0.13785 0.69486 0.86609 0.0
H851 H 0.13225 0.63786 0.92309 0.0
H852 H 0.23122 0.58667 0.01589 0.0
H853 H 0.26929 0.63492 0.98113 0.0
C854 C 0.24487 0.69291 0.91179 0.0
C855 C 0.22827 0.72189 0.87547 0.0
C856 C 0.22301 0.66475 0.93188 0.0
C857 C 0.18945 0.7217 0.85948 0.0
C858 C 0.16762 0.69395 0.87934 0.0
C859 C 0.16201 0.63742 0.93601 0.0
C860 C 0.17866 0.6084 0.97216 0.0
C861 C 0.18397 0.66539 0.91571 0.0
C862 C 0.21763 0.60814 0.98777 0.0
C863 C 0.23946 0.63596 0.96802 0.0
H864 H 0.10954 0.54338 0.69868 0.0
H865 H 0.12665 0.48915 0.5561 0.0
H866 H 0.17341 0.43253 0.59244 0.0
H867 H 0.20546 0.39565 0.66631 0.0
H868 H 0.18611 0.44976 0.80891 0.0
H869 H 0.14447 0.50883 0.77093 0.0
C870 C 0.12392 0.51956 0.67521 0.0
C871 C 0.11436 0.52077 0.62455 0.0
C872 C 0.1502 0.48662 0.69657 0.0
C873 C 0.13334 0.48927 0.5951 0.0
C874 C 0.16 0.45667 0.61597 0.0
C875 C 0.1925 0.42053 0.68903 0.0
C876 C 0.19891 0.41791 0.74064 0.0
C877 C 0.16803 0.45457 0.66692 0.0
C878 C 0.18169 0.4506 0.76927 0.0
C879 C 0.15778 0.48454 0.74754 0.0
loop_
_geom_bond_atom_site_label_1
_geom_bond_atom_site_label_2
_geom_bond_distance
_geom_bond_site_symmetry_2
_ccdc_geom_bond_type
Cu0 N1 1.999 1_455 S
Cu0 O6 1.974 1_554 S
Cu0 N11 1.985 . S
Cu0 O20 1.959 1_455 S
N1 Cu0 1.999 1_655 S
N1 C3 1.263 1_554 S
N1 C5 1.389 . S
N2 C3 1.358 1_565 S
N2 C4 1.400 1_566 S
C3 N1 1.263 1_556 S
C3 N2 1.358 1_545 S
C3 H9 0.930 1_545 S
C4 N2 1.400 1_544 S
C4 C5 1.351 . S
C4 H21 0.930 1_545 S
C5 N1 1.389 . S
C5 C4 1.351 . S
C5 H10 0.930 . S
O6 Cu0 1.974 1_556 S
O6 C16 1.282 . S
C7 O8 1.261 . S
C7 O20 1.251 1_455 S
O8 C7 1.261 . S
H9 C3 0.930 1_565 S
H10 C5 0.930 . S
N11 Cu0 1.985 . S
N11 C13 1.335 . S
N11 C14 1.380 1_554 S
N12 C13 1.345 . S
N12 C15 1.336 . S
C13 N11 1.335 . S
C13 N12 1.345 . S
C13 H18 0.930 . S
C14 N11 1.380 1_556 S
C14 C15 1.339 1_556 S
C14 H19 0.945 . S
C15 N12 1.336 . S
C15 C14 1.339 1_554 S
C15 H22 0.929 . S
C16 O6 1.282 . S
C16 O17 1.216 . S
O17 C16 1.216 . S
H18 C13 0.930 . S
H19 C14 0.945 . S
O20 Cu0 1.959 1_655 S
O20 C7 1.251 1_655 S
H21 C4 0.930 1_565 S
H22 C15 0.929 . S
Cu23 N24 1.999 . S
Cu23 O29 1.974 . S
Cu23 N34 1.985 . S
Cu23 O43 1.959 . S
N24 Cu23 1.999 . S
N24 C26 1.263 . S
N24 C28 1.389 . S
N25 C26 1.358 . S
N25 C27 1.400 . S
C26 N24 1.263 . S
C26 N25 1.358 . S
C26 H32 0.930 . S
C27 N25 1.400 . S
C27 C28 1.351 . S
C27 H44 0.930 . S
C28 N24 1.389 . S
C28 C27 1.351 . S
C28 H33 0.930 . S
O29 Cu23 1.974 . S
O29 C39 1.282 . S
C30 O31 1.261 . S
C30 O43 1.251 . S
O31 C30 1.261 . S
H32 C26 0.930 . S
H33 C28 0.930 . S
N34 Cu23 1.985 . S
N34 C36 1.335 . S
N34 C37 1.390 . S
N35 C36 1.345 . S
N35 C38 1.336 . S
C36 N34 1.335 . S
C36 N35 1.345 . S
C36 H41 0.930 . S
C37 N34 1.390 . S
C37 C38 1.346 . S
C37 H42 0.930 . S
C38 N35 1.336 . S
C38 C37 1.346 . S
C38 H45 0.929 . S
C39 O29 1.282 . S
C39 O40 1.216 . S
O40 C39 1.216 . S
H41 C36 0.930 . S
H42 C37 0.930 . S
O43 Cu23 1.959 . S
O43 C30 1.251 . S
H44 C27 0.930 . S
H45 C38 0.929 . S
Cu46 N47 1.999 1_565 S
Cu46 O52 1.974 . S
Cu46 N57 1.985 . S
Cu46 O66 1.959 . S
N47 Cu46 1.999 1_545 S
N47 C49 1.263 . S
N47 C51 1.389 . S
N48 C49 1.358 . S
N48 C50 1.400 . S
C49 N47 1.263 . S
C49 N48 1.358 . S
C49 H55 0.930 . S
C50 N48 1.400 . S
C50 C51 1.351 . S
C50 H67 0.930 . S
C51 N47 1.389 . S
C51 C50 1.351 . S
C51 H56 0.930 . S
O52 Cu46 1.974 . S
O52 C62 1.282 1_565 S
C53 O54 1.261 . S
C53 O66 1.251 1_545 S
O54 C53 1.261 . S
H55 C49 0.930 . S
H56 C51 0.930 . S
N57 Cu46 1.985 . S
N57 C59 1.335 . S
N57 C60 1.390 . S
N58 C59 1.345 . S
N58 C61 1.336 . S
C59 N57 1.335 . S
C59 N58 1.345 . S
C59 H64 0.930 . S
C60 N57 1.390 . S
C60 C61 1.346 . S
C60 H65 0.930 . S
C61 N58 1.336 . S
C61 C60 1.346 . S
C61 H68 0.929 . S
C62 O52 1.282 1_545 S
C62 O63 1.216 . S
O63 C62 1.216 . S
H64 C59 0.930 . S
H65 C60 0.930 . S
O66 Cu46 1.959 . S
O66 C53 1.251 1_565 S
H67 C50 0.930 . S
H68 C61 0.929 . S
Cu69 N70 1.999 . S
Cu69 O75 1.974 . S
Cu69 N80 1.985 . S
Cu69 O89 1.959 . S
N70 Cu69 1.999 . S
N70 C72 1.263 . S
N70 C74 1.389 . S
N71 C72 1.358 . S
N71 C73 1.400 . S
C72 N70 1.263 . S
C72 N71 1.358 . S
C72 H78 0.930 . S
C73 N71 1.400 . S
C73 C74 1.351 . S
C73 H90 0.930 . S
C74 N70 1.389 . S
C74 C73 1.351 . S
C74 H79 0.930 . S
O75 Cu69 1.974 . S
O75 C85 1.282 . S
C76 O77 1.261 . S
C76 O89 1.251 . S
O77 C76 1.261 . S
H78 C72 0.930 . S
H79 C74 0.930 . S
N80 Cu69 1.985 . S
N80 C82 1.335 . S
N80 C83 1.390 . S
N81 C82 1.345 . S
N81 C84 1.336 . S
C82 N80 1.335 . S
C82 N81 1.345 . S
C82 H87 0.930 . S
C83 N80 1.390 . S
C83 C84 1.346 . S
C83 H88 0.930 . S
C84 N81 1.336 . S
C84 C83 1.346 . S
C84 H91 0.929 . S
C85 O75 1.282 . S
C85 O86 1.216 . S
O86 C85 1.216 . S
H87 C82 0.930 . S
H88 C83 0.930 . S
O89 Cu69 1.959 . S
O89 C76 1.251 . S
H90 C73 0.930 . S
H91 C84 0.929 . S
Cu92 N93 1.999 . S
Cu92 O98 1.974 . S
Cu92 N103 1.985 . S
Cu92 O112 1.959 1_455 S
N93 Cu92 1.999 . S
N93 C95 1.263 . S
N93 C97 1.389 . S
N94 C95 1.358 . S
N94 C96 1.400 1_455 S
C95 N93 1.263 . S
C95 N94 1.358 . S
C95 H101 0.930 . S
C96 N94 1.400 1_655 S
C96 C97 1.350 1_655 S
C96 H113 0.931 . S
C97 N93 1.389 . S
C97 C96 1.350 1_455 S
C97 H102 0.930 1_455 S
O98 Cu92 1.974 . S
O98 C108 1.282 1_545 S
C99 O100 1.261 . S
C99 O112 1.251 . S
O100 C99 1.261 . S
H101 C95 0.930 . S
H102 C97 0.930 1_655 S
N103 Cu92 1.985 . S
N103 C105 1.335 . S
N103 C106 1.390 1_545 S
N104 C105 1.345 . S
N104 C107 1.336 1_545 S
C105 N103 1.335 . S
C105 N104 1.345 . S
C105 H110 0.930 . S
C106 N103 1.390 1_565 S
C106 C107 1.346 . S
C106 H111 0.930 . S
C107 N104 1.336 1_565 S
C107 C106 1.346 . S
C107 H114 0.929 . S
C108 O98 1.282 1_565 S
C108 O109 1.216 . S
O109 C108 1.216 . S
H110 C105 0.930 . S
H111 C106 0.930 . S
O112 Cu92 1.959 1_655 S
O112 C99 1.251 . S
H113 C96 0.931 . S
H114 C107 0.929 . S
Cu115 N116 1.999 . S
Cu115 O121 1.974 . S
Cu115 N126 1.985 . S
Cu115 O135 1.959 . S
N116 Cu115 1.999 . S
N116 C118 1.263 . S
N116 C120 1.389 . S
N117 C118 1.358 . S
N117 C119 1.400 . S
C118 N116 1.263 . S
C118 N117 1.358 . S
C118 H124 0.930 . S
C119 N117 1.400 . S
C119 C120 1.351 . S
C119 H136 0.930 . S
C120 N116 1.389 . S
C120 C119 1.351 . S
C120 H125 0.930 . S
O121 Cu115 1.974 . S
O121 C131 1.282 . S
C122 O123 1.261 . S
C122 O135 1.251 . S
O123 C122 1.261 . S
H124 C118 0.930 . S
H125 C120 0.930 . S
N126 Cu115 1.985 . S
N126 C128 1.335 . S
N126 C129 1.390 . S
N127 C128 1.345 . S
N127 C130 1.336 . S
C128 N126 1.335 . S
C128 N127 1.345 . S
C128 H133 0.930 . S
C129 N126 1.390 . S
C129 C130 1.346 . S
C129 H134 0.930 . S
C130 N127 1.336 . S
C130 C129 1.346 . S
C130 H137 0.929 . S
C131 O121 1.282 . S
C131 O132 1.216 . S
O132 C131 1.216 . S
H133 C128 0.930 . S
H134 C129 0.930 . S
O135 Cu115 1.959 . S
O135 C122 1.251 . S
H136 C119 0.930 . S
H137 C130 0.929 . S
Cu138 N139 1.999 1_554 S
Cu138 O144 1.974 1_564 S
Cu138 N149 1.985 1_565 S
Cu138 O158 1.959 . S
N139 Cu138 1.999 1_556 S
N139 C141 1.263 . S
N139 C143 1.389 . S
N140 C141 1.358 . S
N140 C142 1.400 . S
C141 N139 1.263 . S
C141 N140 1.358 . S
C141 H147 0.930 1_565 S
C142 N140 1.400 . S
C142 C143 1.351 . S
C142 H159 0.930 . S
C143 N139 1.389 . S
C143 C142 1.351 . S
C143 H148 0.930 . S
O144 Cu138 1.974 1_546 S
O144 C154 1.282 . S
C145 O146 1.261 . S
C145 O158 1.251 . S
O146 C145 1.261 . S
H147 C141 0.930 1_545 S
H148 C143 0.930 . S
N149 Cu138 1.985 1_545 S
N149 C151 1.335 1_545 S
N149 C152 1.390 . S
N150 C151 1.345 1_545 S
N150 C153 1.336 . S
C151 N149 1.335 1_565 S
C151 N150 1.345 1_565 S
C151 H156 0.930 . S
C152 N149 1.390 . S
C152 C153 1.346 . S
C152 H157 0.930 . S
C153 N150 1.336 . S
C153 C152 1.346 . S
C153 H160 0.929 . S
C154 O144 1.282 . S
C154 O155 1.216 . S
O155 C154 1.216 . S
H156 C151 0.930 . S
H157 C152 0.930 . S
O158 Cu138 1.959 . S
O158 C145 1.251 . S
H159 C142 0.930 . S
H160 C153 0.929 . S
Cu161 N162 1.999 . S
Cu161 O167 1.974 . S
Cu161 N172 1.985 . S
Cu161 O181 1.959 . S
N162 Cu161 1.999 . S
N162 C164 1.263 . S
N162 C166 1.389 . S
N163 C164 1.358 . S
N163 C165 1.400 . S
C164 N162 1.263 . S
C164 N163 1.358 . S
C164 H170 0.930 . S
C165 N163 1.400 . S
C165 C166 1.351 . S
C165 H182 0.930 . S
C166 N162 1.389 . S
C166 C165 1.351 . S
C166 H171 0.930 . S
O167 Cu161 1.974 . S
O167 C177 1.282 . S
C168 O169 1.261 . S
C168 O181 1.251 . S
O169 C168 1.261 . S
H170 C164 0.930 . S
H171 C166 0.930 . S
N172 Cu161 1.985 . S
N172 C174 1.335 . S
N172 C175 1.390 . S
N173 C174 1.345 . S
N173 C176 1.336 . S
C174 N172 1.335 . S
C174 N173 1.345 . S
C174 H179 0.930 . S
C175 N172 1.390 . S
C175 C176 1.346 . S
C175 H180 0.930 . S
C176 N173 1.336 . S
C176 C175 1.346 . S
C176 H183 0.929 . S
C177 O167 1.282 . S
C177 O178 1.216 . S
O178 C177 1.216 . S
H179 C174 0.930 . S
H180 C175 0.930 . S
O181 Cu161 1.959 . S
O181 C168 1.251 . S
H182 C165 0.930 . S
H183 C176 0.929 . S
Cu184 N185 1.999 . S
Cu184 O190 1.974 . S
Cu184 N195 1.985 . S
Cu184 O204 1.959 . S
N185 Cu184 1.999 . S
N185 C187 1.263 . S
N185 C189 1.389 . S
N186 C187 1.358 . S
N186 C188 1.400 . S
C187 N185 1.263 . S
C187 N186 1.358 . S
C187 H193 0.930 . S
C188 N186 1.400 . S
C188 C189 1.351 . S
C188 H205 0.930 . S
C189 N185 1.389 . S
C189 C188 1.351 . S
C189 H194 0.930 . S
O190 Cu184 1.974 . S
O190 C200 1.282 . S
C191 O192 1.261 . S
C191 O204 1.251 . S
O192 C191 1.261 . S
H193 C187 0.930 . S
H194 C189 0.930 . S
N195 Cu184 1.985 . S
N195 C197 1.335 . S
N195 C198 1.390 . S
N196 C197 1.345 . S
N196 C199 1.336 . S
C197 N195 1.335 . S
C197 N196 1.345 . S
C197 H202 0.930 . S
C198 N195 1.390 . S
C198 C199 1.346 . S
C198 H203 0.930 . S
C199 N196 1.336 . S
C199 C198 1.346 . S
C199 H206 0.929 . S
C200 O190 1.282 . S
C200 O201 1.216 . S
O201 C200 1.216 . S
H202 C197 0.930 . S
H203 C198 0.930 . S
O204 Cu184 1.959 . S
O204 C191 1.251 . S
H205 C188 0.930 . S
H206 C199 0.929 . S
Cu207 N208 1.999 . S
Cu207 O213 1.974 . S
Cu207 N218 1.985 . S
Cu207 O227 1.959 . S
N208 Cu207 1.999 . S
N208 C210 1.263 . S
N208 C212 1.389 . S
N209 C210 1.358 . S
N209 C211 1.400 . S
C210 N208 1.263 . S
C210 N209 1.358 . S
C210 H216 0.930 . S
C211 N209 1.400 . S
C211 C212 1.351 . S
C211 H228 0.930 . S
C212 N208 1.389 . S
C212 C211 1.351 . S
C212 H217 0.930 . S
O213 Cu207 1.974 . S
O213 C223 1.282 . S
C214 O215 1.261 . S
C214 O227 1.251 . S
O215 C214 1.261 . S
H216 C210 0.930 . S
H217 C212 0.930 . S
N218 Cu207 1.985 . S
N218 C220 1.335 . S
N218 C221 1.390 . S
N219 C220 1.345 . S
N219 C222 1.336 . S
C220 N218 1.335 . S
C220 N219 1.345 . S
C220 H225 0.930 . S
C221 N218 1.390 . S
C221 C222 1.346 . S
C221 H226 0.930 . S
C222 N219 1.336 . S
C222 C221 1.346 . S
C222 H229 0.929 . S
C223 O213 1.282 . S
C223 O224 1.216 . S
O224 C223 1.216 . S
H225 C220 0.930 . S
H226 C221 0.930 . S
O227 Cu207 1.959 . S
O227 C214 1.251 . S
H228 C211 0.930 . S
H229 C222 0.929 . S
Cu230 N231 1.999 . S
Cu230 O236 1.974 . S
Cu230 N241 1.985 . S
Cu230 O250 1.959 . S
N231 Cu230 1.999 . S
N231 C233 1.263 . S
N231 C235 1.389 . S
N232 C233 1.358 . S
N232 C234 1.400 . S
C233 N231 1.263 . S
C233 N232 1.358 . S
C233 H239 0.930 . S
C234 N232 1.400 . S
C234 C235 1.351 . S
C234 H251 0.930 . S
C235 N231 1.389 . S
C235 C234 1.351 . S
C235 H240 0.930 . S
O236 Cu230 1.974 . S
O236 C246 1.282 . S
C237 O238 1.261 . S
C237 O250 1.251 . S
O238 C237 1.261 . S
H239 C233 0.930 . S
H240 C235 0.930 . S
N241 Cu230 1.985 . S
N241 C243 1.335 . S
N241 C244 1.390 . S
N242 C243 1.345 . S
N242 C245 1.336 . S
C243 N241 1.335 . S
C243 N242 1.345 . S
C243 H248 0.930 . S
C244 N241 1.390 . S
C244 C245 1.346 . S
C244 H249 0.930 . S
C245 N242 1.336 . S
C245 C244 1.346 . S
C245 H252 0.929 . S
C246 O236 1.282 . S
C246 O247 1.216 . S
O247 C246 1.216 . S
H248 C243 0.930 . S
H249 C244 0.930 . S
O250 Cu230 1.959 . S
O250 C237 1.251 . S
H251 C234 0.930 . S
H252 C245 0.929 . S
Cu253 N254 1.999 . S
Cu253 O259 1.974 . S
Cu253 N264 1.985 . S
Cu253 O273 1.959 . S
N254 Cu253 1.999 . S
N254 C256 1.263 . S
N254 C258 1.389 . S
N255 C256 1.358 . S
N255 C257 1.400 . S
C256 N254 1.263 . S
C256 N255 1.358 . S
C256 H262 0.930 . S
C257 N255 1.400 . S
C257 C258 1.351 . S
C257 H274 0.930 . S
C258 N254 1.389 . S
C258 C257 1.351 . S
C258 H263 0.930 . S
O259 Cu253 1.974 . S
O259 C269 1.282 . S
C260 O261 1.261 . S
C260 O273 1.251 . S
O261 C260 1.261 . S
H262 C256 0.930 . S
H263 C258 0.930 . S
N264 Cu253 1.985 . S
N264 C266 1.335 . S
N264 C267 1.390 . S
N265 C266 1.345 . S
N265 C268 1.336 . S
C266 N264 1.335 . S
C266 N265 1.345 . S
C266 H271 0.930 . S
C267 N264 1.390 . S
C267 C268 1.346 . S
C267 H272 0.930 . S
C268 N265 1.336 . S
C268 C267 1.346 . S
C268 H275 0.929 . S
C269 O259 1.282 . S
C269 O270 1.216 . S
O270 C269 1.216 . S
H271 C266 0.930 . S
H272 C267 0.930 . S
O273 Cu253 1.959 . S
O273 C260 1.251 . S
H274 C257 0.930 . S
H275 C268 0.929 . S
Cu276 N277 1.999 . S
Cu276 O282 1.974 . S
Cu276 N287 1.985 . S
Cu276 O296 1.959 . S
N277 Cu276 1.999 . S
N277 C279 1.263 . S
N277 C281 1.389 . S
N278 C279 1.358 . S
N278 C280 1.400 . S
C279 N277 1.263 . S
C279 N278 1.358 . S
C279 H285 0.930 . S
C280 N278 1.400 . S
C280 C281 1.351 . S
C280 H297 0.930 . S
C281 N277 1.389 . S
C281 C280 1.351 . S
C281 H286 0.930 . S
O282 Cu276 1.974 . S
O282 C292 1.282 . S
C283 O284 1.261 . S
C283 O296 1.251 . S
O284 C283 1.261 . S
H285 C279 0.930 . S
H286 C281 0.930 . S
N287 Cu276 1.985 . S
N287 C289 1.335 . S
N287 C290 1.390 . S
N288 C289 1.345 . S
N288 C291 1.336 . S
C289 N287 1.335 . S
C289 N288 1.345 . S
C289 H294 0.930 . S
C290 N287 1.390 . S
C290 C291 1.346 . S
C290 H295 0.930 . S
C291 N288 1.336 . S
C291 C290 1.346 . S
C291 H298 0.929 . S
C292 O282 1.282 . S
C292 O293 1.216 . S
O293 C292 1.216 . S
H294 C289 0.930 . S
H295 C290 0.930 . S
O296 Cu276 1.959 . S
O296 C283 1.251 . S
H297 C280 0.930 . S
H298 C291 0.929 . S
Cu299 N300 1.999 . S
Cu299 O305 1.974 1_554 S
Cu299 N310 1.985 1_455 S
Cu299 O319 1.959 . S
N300 Cu299 1.999 . S
N300 C302 1.263 1_554 S
N300 C304 1.389 . S
N301 C302 1.358 . S
N301 C303 1.400 1_556 S
C302 N300 1.263 1_556 S
C302 N301 1.358 . S
C302 H308 0.930 . S
C303 N301 1.400 1_554 S
C303 C304 1.351 . S
C303 H320 0.930 . S
C304 N300 1.389 . S
C304 C303 1.351 . S
C304 H309 0.930 . S
O305 Cu299 1.974 1_556 S
O305 C315 1.282 1_455 S
C306 O307 1.261 1_455 S
C306 O319 1.251 . S
O307 C306 1.261 1_655 S
H308 C302 0.930 . S
H309 C304 0.930 . S
N310 Cu299 1.985 1_655 S
N310 C312 1.335 . S
N310 C313 1.390 . S
N311 C312 1.345 . S
N311 C314 1.336 . S
C312 N310 1.335 . S
C312 N311 1.345 . S
C312 H317 0.930 . S
C313 N310 1.390 . S
C313 C314 1.346 . S
C313 H318 0.930 1_554 S
C314 N311 1.336 . S
C314 C313 1.346 . S
C314 H321 0.929 . S
C315 O305 1.282 1_655 S
C315 O316 1.216 . S
O316 C315 1.216 . S
H317 C312 0.930 . S
H318 C313 0.930 1_556 S
O319 Cu299 1.959 . S
O319 C306 1.251 . S
H320 C303 0.930 . S
H321 C314 0.929 . S
Cu322 N323 1.999 1_554 S
Cu322 O328 1.967 1_554 S
Cu322 N333 1.985 . S
Cu322 O342 1.959 . S
N323 Cu322 1.999 1_556 S
N323 C325 1.263 . S
N323 C327 1.389 . S
N324 C325 1.358 . S
N324 C326 1.400 . S
C325 N323 1.263 . S
C325 N324 1.358 . S
C325 H331 0.930 . S
C326 N324 1.400 . S
C326 C327 1.351 . S
C326 H343 0.930 . S
C327 N323 1.389 . S
C327 C326 1.351 . S
C327 H332 0.930 . S
O328 Cu322 1.967 1_556 S
O328 C338 1.286 . S
C329 O330 1.261 . S
C329 O342 1.251 . S
O330 C329 1.261 . S
H331 C325 0.930 . S
H332 C327 0.930 . S
N333 Cu322 1.985 . S
N333 C335 1.335 . S
N333 C336 1.390 . S
N334 C335 1.345 . S
N334 C337 1.336 . S
C335 N333 1.335 . S
C335 N334 1.345 . S
C335 H340 0.930 . S
C336 N333 1.390 . S
C336 C337 1.346 . S
C336 H341 0.930 . S
C337 N334 1.336 . S
C337 C336 1.346 . S
C337 H344 0.929 . S
C338 O328 1.286 . S
C338 O339 1.216 . S
O339 C338 1.216 . S
H340 C335 0.930 . S
H341 C336 0.930 . S
O342 Cu322 1.959 . S
O342 C329 1.251 . S
H343 C326 0.930 . S
H344 C337 0.929 . S
Cu345 N346 1.999 1_655 S
Cu345 O351 1.974 . S
Cu345 N356 1.985 . S
Cu345 O365 1.959 1_655 S
N346 Cu345 1.999 1_455 S
N346 C348 1.263 . S
N346 C350 1.389 . S
N347 C348 1.358 . S
N347 C349 1.400 . S
C348 N346 1.263 . S
C348 N347 1.358 . S
C348 H354 0.930 . S
C349 N347 1.400 . S
C349 C350 1.351 . S
C349 H366 0.930 . S
C350 N346 1.389 . S
C350 C349 1.351 . S
C350 H355 0.930 . S
O351 Cu345 1.974 . S
O351 C361 1.282 . S
C352 O353 1.261 . S
C352 O365 1.251 . S
O353 C352 1.261 . S
H354 C348 0.930 . S
H355 C350 0.930 . S
N356 Cu345 1.985 . S
N356 C358 1.335 . S
N356 C359 1.390 . S
N357 C358 1.345 . S
N357 C360 1.336 . S
C358 N356 1.335 . S
C358 N357 1.345 . S
C358 H363 0.930 1_655 S
C359 N356 1.390 . S
C359 C360 1.346 . S
C359 H364 0.930 . S
C360 N357 1.336 . S
C360 C359 1.346 . S
C360 H367 0.929 . S
C361 O351 1.282 . S
C361 O362 1.216 . S
O362 C361 1.216 . S
H363 C358 0.930 1_455 S
H364 C359 0.930 . S
O365 Cu345 1.959 1_455 S
O365 C352 1.251 . S
H366 C349 0.930 . S
H367 C360 0.929 . S
H368 C374 0.930 1_665 S
H369 C377 0.930 . S
H370 C378 0.930 . S
H371 C379 0.930 . S
H372 C382 0.930 . S
H373 C383 0.930 1_565 S
C374 H368 0.930 1_445 S
C374 C375 1.355 . S
C374 C376 1.415 . S
C375 C374 1.355 . S
C375 C377 1.419 . S
C376 C374 1.415 . S
C376 C381 1.425 . S
C376 C383 1.409 1_455 S
C377 H369 0.930 . S
C377 C375 1.419 . S
C377 C378 1.362 . S
C378 H370 0.930 . S
C378 C377 1.362 . S
C378 C381 1.409 . S
C379 H371 0.930 . S
C379 C380 1.355 . S
C379 C381 1.415 . S
C380 C379 1.355 . S
C380 C382 1.419 1_455 S
C381 C376 1.425 . S
C381 C378 1.409 . S
C381 C379 1.415 . S
C382 H372 0.930 . S
C382 C380 1.419 1_655 S
C382 C383 1.362 . S
C383 H373 0.930 1_545 S
C383 C376 1.409 1_655 S
C383 C382 1.362 . S
H384 C390 0.930 . S
H385 C393 0.930 . S
H386 C394 0.930 . S
H387 C395 0.930 . S
H388 C398 0.930 . S
H389 C399 0.930 . S
C390 H384 0.930 . S
C390 C391 1.355 . S
C390 C392 1.415 . S
C391 C390 1.355 . S
C391 C393 1.419 . S
C392 C390 1.415 . S
C392 C397 1.425 . S
C392 C399 1.409 . S
C393 H385 0.930 . S
C393 C391 1.419 . S
C393 C394 1.362 . S
C394 H386 0.930 . S
C394 C393 1.362 . S
C394 C397 1.409 . S
C395 H387 0.930 . S
C395 C396 1.355 . S
C395 C397 1.415 . S
C396 C395 1.355 . S
C396 C398 1.419 . S
C397 C392 1.425 . S
C397 C394 1.409 . S
C397 C395 1.415 . S
C398 H388 0.930 . S
C398 C396 1.419 . S
C398 C399 1.362 . S
C399 H389 0.930 . S
C399 C392 1.409 . S
C399 C398 1.362 . S
H400 C406 0.930 . S
H401 C409 0.930 . S
H402 C410 0.930 . S
H403 C411 0.930 . S
H404 C414 0.930 . S
H405 C415 0.930 . S
C406 H400 0.930 . S
C406 C407 1.355 . S
C406 C408 1.415 . S
C407 C406 1.355 . S
C407 C409 1.419 . S
C408 C406 1.415 . S
C408 C413 1.425 . S
C408 C415 1.409 1_565 S
C409 H401 0.930 . S
C409 C407 1.419 . S
C409 C410 1.362 . S
C410 H402 0.930 . S
C410 C409 1.362 . S
C410 C413 1.409 . S
C411 H403 0.930 . S
C411 C412 1.355 . S
C411 C413 1.415 1_545 S
C412 C411 1.355 . S
C412 C414 1.419 . S
C413 C408 1.425 . S
C413 C410 1.409 . S
C413 C411 1.415 1_565 S
C414 H404 0.930 . S
C414 C412 1.419 . S
C414 C415 1.362 . S
C415 H405 0.930 . S
C415 C408 1.409 1_545 S
C415 C414 1.362 . S
H416 C422 0.930 . S
H417 C425 0.930 . S
H418 C426 0.930 . S
H419 C427 0.930 . S
H420 C430 0.930 . S
H421 C431 0.930 . S
C422 H416 0.930 . S
C422 C423 1.355 . S
C422 C424 1.415 1_556 S
C423 C422 1.355 . S
C423 C425 1.419 . S
C424 C422 1.415 1_554 S
C424 C429 1.425 . S
C424 C431 1.409 . S
C425 H417 0.930 . S
C425 C423 1.419 . S
C425 C426 1.362 1_556 S
C426 H418 0.930 . S
C426 C425 1.362 1_554 S
C426 C429 1.409 . S
C427 H419 0.930 . S
C427 C428 1.355 . S
C427 C429 1.415 . S
C428 C427 1.355 . S
C428 C430 1.419 . S
C429 C424 1.425 . S
C429 C426 1.409 . S
C429 C427 1.415 . S
C430 H420 0.930 . S
C430 C428 1.419 . S
C430 C431 1.362 . S
C431 H421 0.930 . S
C431 C424 1.409 . S
C431 C430 1.362 . S
H432 C438 0.930 1_565 S
H433 C441 0.930 . S
H434 C442 0.930 . S
H435 C443 0.930 . S
H436 C446 0.930 . S
H437 C447 0.930 . S
C438 H432 0.930 1_545 S
C438 C439 1.355 . S
C438 C440 1.415 . S
C439 C438 1.355 . S
C439 C441 1.419 . S
C440 C438 1.415 . S
C440 C445 1.425 . S
C440 C447 1.409 1_545 S
C441 H433 0.930 . S
C441 C439 1.419 . S
C441 C442 1.362 . S
C442 H434 0.930 . S
C442 C441 1.362 . S
C442 C445 1.409 . S
C443 H435 0.930 . S
C443 C444 1.355 . S
C443 C445 1.415 . S
C444 C443 1.355 . S
C444 C446 1.419 1_545 S
C445 C440 1.425 . S
C445 C442 1.409 . S
C445 C443 1.415 . S
C446 H436 0.930 . S
C446 C444 1.419 1_565 S
C446 C447 1.362 . S
C447 H437 0.930 . S
C447 C440 1.409 1_565 S
C447 C446 1.362 . S
H448 C454 0.930 . S
H449 C457 0.930 . S
H450 C458 0.930 . S
H451 C459 0.930 . S
H452 C462 0.930 . S
H453 C463 0.930 . S
C454 H448 0.930 . S
C454 C455 1.355 . S
C454 C456 1.415 . S
C455 C454 1.355 . S
C455 C457 1.419 . S
C456 C454 1.415 . S
C456 C461 1.425 . S
C456 C463 1.409 . S
C457 H449 0.930 . S
C457 C455 1.419 . S
C457 C458 1.362 . S
C458 H450 0.930 . S
C458 C457 1.362 . S
C458 C461 1.409 . S
C459 H451 0.930 . S
C459 C460 1.355 . S
C459 C461 1.415 . S
C460 C459 1.355 . S
C460 C462 1.419 . S
C461 C456 1.425 . S
C461 C458 1.409 . S
C461 C459 1.415 . S
C462 H452 0.930 . S
C462 C460 1.419 . S
C462 C463 1.362 . S
C463 H453 0.930 . S
C463 C456 1.409 . S
C463 C462 1.362 . S
H464 C470 0.930 . S
H465 C473 0.930 . S
H466 C474 0.930 . S
H467 C475 0.930 . S
H468 C478 0.930 . S
H469 C479 0.930 . S
C470 H464 0.930 . S
C470 C471 1.355 . S
C470 C472 1.415 . S
C471 C470 1.355 . S
C471 C473 1.419 1_545 S
C472 C470 1.415 . S
C472 C477 1.425 1_545 S
C472 C479 1.409 . S
C473 H465 0.930 . S
C473 C471 1.419 1_565 S
C473 C474 1.362 . S
C474 H466 0.930 . S
C474 C473 1.362 . S
C474 C477 1.409 . S
C475 H467 0.930 . S
C475 C476 1.355 1_565 S
C475 C477 1.415 . S
C476 C475 1.355 1_545 S
C476 C478 1.419 . S
C477 C472 1.425 1_565 S
C477 C474 1.409 . S
C477 C475 1.415 . S
C478 H468 0.930 . S
C478 C476 1.419 . S
C478 C479 1.362 . S
C479 H469 0.930 . S
C479 C472 1.409 . S
C479 C478 1.362 . S
H480 C486 0.930 . S
H481 C489 0.930 . S
H482 C490 0.930 . S
H483 C491 0.930 . S
H484 C494 0.930 . S
H485 C495 0.930 . S
C486 H480 0.930 . S
C486 C487 1.355 . S
C486 C488 1.415 . S
C487 C486 1.355 . S
C487 C489 1.419 . S
C488 C486 1.415 . S
C488 C493 1.425 1_554 S
C488 C495 1.409 1_554 S
C489 H481 0.930 . S
C489 C487 1.419 . S
C489 C490 1.362 . S
C490 H482 0.930 . S
C490 C489 1.362 . S
C490 C493 1.409 1_554 S
C491 H483 0.930 . S
C491 C492 1.355 . S
C491 C493 1.415 . S
C492 C491 1.355 . S
C492 C494 1.419 . S
C493 C488 1.425 1_556 S
C493 C490 1.409 1_556 S
C493 C491 1.415 . S
C494 H484 0.930 . S
C494 C492 1.419 . S
C494 C495 1.362 . S
C495 H485 0.930 . S
C495 C488 1.409 1_556 S
C495 C494 1.362 . S
H496 C502 0.930 . S
H497 C505 0.930 . S
H498 C506 0.930 . S
H499 C507 0.930 . S
H500 C510 0.930 . S
H501 C511 0.930 . S
C502 H496 0.930 . S
C502 C503 1.355 . S
C502 C504 1.415 . S
C503 C502 1.355 . S
C503 C505 1.419 . S
C504 C502 1.415 . S
C504 C509 1.425 . S
C504 C511 1.409 . S
C505 H497 0.930 . S
C505 C503 1.419 . S
C505 C506 1.362 . S
C506 H498 0.930 . S
C506 C505 1.362 . S
C506 C509 1.409 . S
C507 H499 0.930 . S
C507 C508 1.355 . S
C507 C509 1.415 . S
C508 C507 1.355 . S
C508 C510 1.419 . S
C509 C504 1.425 . S
C509 C506 1.409 . S
C509 C507 1.415 . S
C510 H500 0.930 . S
C510 C508 1.419 . S
C510 C511 1.362 . S
C511 H501 0.930 . S
C511 C504 1.409 . S
C511 C510 1.362 . S
H512 C518 0.930 . S
H513 C521 0.930 . S
H514 C522 0.930 . S
H515 C523 0.930 . S
H516 C526 0.930 . S
H517 C527 0.930 . S
C518 H512 0.930 . S
C518 C519 1.355 . S
C518 C520 1.415 1_556 S
C519 C518 1.355 . S
C519 C521 1.419 . S
C520 C518 1.415 1_554 S
C520 C525 1.425 . S
C520 C527 1.409 . S
C521 H513 0.930 . S
C521 C519 1.419 . S
C521 C522 1.362 . S
C522 H514 0.930 . S
C522 C521 1.362 . S
C522 C525 1.409 1_556 S
C523 H515 0.930 . S
C523 C524 1.355 . S
C523 C525 1.415 . S
C524 C523 1.355 . S
C524 C526 1.419 . S
C525 C520 1.425 . S
C525 C522 1.409 1_554 S
C525 C523 1.415 . S
C526 H516 0.930 . S
C526 C524 1.419 . S
C526 C527 1.362 . S
C527 H517 0.930 . S
C527 C520 1.409 . S
C527 C526 1.362 . S
H528 C534 0.930 . S
H529 C537 0.930 . S
H530 C538 0.930 . S
H531 C539 0.930 . S
H532 C542 0.930 . S
H533 C543 0.930 . S
C534 H528 0.930 . S
C534 C535 1.355 . S
C534 C536 1.415 . S
C535 C534 1.355 . S
C535 C537 1.419 1_455 S
C536 C534 1.415 . S
C536 C541 1.425 1_455 S
C536 C543 1.409 . S
C537 H529 0.930 . S
C537 C535 1.419 1_655 S
C537 C538 1.362 . S
C538 H530 0.930 . S
C538 C537 1.362 . S
C538 C541 1.409 . S
C539 H531 0.930 . S
C539 C540 1.355 1_655 S
C539 C541 1.415 . S
C540 C539 1.355 1_455 S
C540 C542 1.419 . S
C541 C536 1.425 1_655 S
C541 C538 1.409 . S
C541 C539 1.415 . S
C542 H532 0.930 . S
C542 C540 1.419 . S
C542 C543 1.362 . S
C543 H533 0.930 . S
C543 C536 1.409 . S
C543 C542 1.362 . S
H544 C550 0.930 . S
H545 C553 0.930 . S
H546 C554 0.930 . S
H547 C555 0.930 . S
H548 C558 0.930 . S
H549 C559 0.930 . S
C550 H544 0.930 . S
C550 C551 1.355 . S
C550 C552 1.415 . S
C551 C550 1.355 . S
C551 C553 1.419 . S
C552 C550 1.415 . S
C552 C557 1.425 . S
C552 C559 1.409 . S
C553 H545 0.930 . S
C553 C551 1.419 . S
C553 C554 1.362 . S
C554 H546 0.930 . S
C554 C553 1.362 . S
C554 C557 1.409 . S
C555 H547 0.930 . S
C555 C556 1.355 . S
C555 C557 1.415 . S
C556 C555 1.355 . S
C556 C558 1.419 . S
C557 C552 1.425 . S
C557 C554 1.409 . S
C557 C555 1.415 . S
C558 H548 0.930 . S
C558 C556 1.419 . S
C558 C559 1.362 . S
C559 H549 0.930 . S
C559 C552 1.409 . S
C559 C558 1.362 . S
H560 C566 0.930 . S
H561 C569 0.930 . S
H562 C570 0.930 . S
H563 C571 0.930 . S
H564 C574 0.930 . S
H565 C575 0.930 . S
C566 H560 0.930 . S
C566 C567 1.355 . S
C566 C568 1.415 . S
C567 C566 1.355 . S
C567 C569 1.419 . S
C568 C566 1.415 . S
C568 C573 1.425 . S
C568 C575 1.409 . S
C569 H561 0.930 . S
C569 C567 1.419 . S
C569 C570 1.362 . S
C570 H562 0.930 . S
C570 C569 1.362 . S
C570 C573 1.409 . S
C571 H563 0.930 . S
C571 C572 1.355 . S
C571 C573 1.415 . S
C572 C571 1.355 . S
C572 C574 1.419 . S
C573 C568 1.425 . S
C573 C570 1.409 . S
C573 C571 1.415 . S
C574 H564 0.930 . S
C574 C572 1.419 . S
C574 C575 1.362 . S
C575 H565 0.930 . S
C575 C568 1.409 . S
C575 C574 1.362 . S
H576 C582 0.930 . S
H577 C585 0.930 . S
H578 C586 0.930 . S
H579 C587 0.930 . S
H580 C590 0.930 . S
H581 C591 0.930 . S
C582 H576 0.930 . S
C582 C583 1.355 . S
C582 C584 1.415 . S
C583 C582 1.355 . S
C583 C585 1.419 . S
C584 C582 1.415 . S
C584 C589 1.425 1_554 S
C584 C591 1.409 1_554 S
C585 H577 0.930 . S
C585 C583 1.419 . S
C585 C586 1.362 . S
C586 H578 0.930 . S
C586 C585 1.362 . S
C586 C589 1.409 1_554 S
C587 H579 0.930 . S
C587 C588 1.355 . S
C587 C589 1.415 . S
C588 C587 1.355 . S
C588 C590 1.419 . S
C589 C584 1.425 1_556 S
C589 C586 1.409 1_556 S
C589 C587 1.415 . S
C590 H580 0.930 . S
C590 C588 1.419 . S
C590 C591 1.362 . S
C591 H581 0.930 . S
C591 C584 1.409 1_556 S
C591 C590 1.362 . S
H592 C598 0.930 . S
H593 C601 0.930 . S
H594 C602 0.930 . S
H595 C603 0.930 . S
H596 C606 0.930 . S
H597 C607 0.930 . S
C598 H592 0.930 . S
C598 C599 1.355 1_455 S
C598 C600 1.415 . S
C599 C598 1.355 1_655 S
C599 C601 1.419 . S
C600 C598 1.415 . S
C600 C605 1.425 1_455 S
C600 C607 1.409 . S
C601 H593 0.930 . S
C601 C599 1.419 . S
C601 C602 1.362 . S
C602 H594 0.930 . S
C602 C601 1.362 . S
C602 C605 1.409 . S
C603 H595 0.930 . S
C603 C604 1.355 . S
C603 C605 1.415 . S
C604 C603 1.355 . S
C604 C606 1.419 1_655 S
C605 C600 1.425 1_655 S
C605 C602 1.409 . S
C605 C603 1.415 . S
C606 H596 0.930 . S
C606 C604 1.419 1_455 S
C606 C607 1.362 . S
C607 H597 0.930 . S
C607 C600 1.409 . S
C607 C606 1.362 . S
H608 C614 0.930 . S
H609 C617 0.930 . S
H610 C618 0.930 . S
H611 C619 0.930 . S
H612 C622 0.930 . S
H613 C623 0.930 . S
C614 H608 0.930 . S
C614 C615 1.355 . S
C614 C616 1.415 . S
C615 C614 1.355 . S
C615 C617 1.419 . S
C616 C614 1.415 . S
C616 C621 1.425 . S
C616 C623 1.409 . S
C617 H609 0.930 . S
C617 C615 1.419 . S
C617 C618 1.362 . S
C618 H610 0.930 . S
C618 C617 1.362 . S
C618 C621 1.409 . S
C619 H611 0.930 . S
C619 C620 1.355 . S
C619 C621 1.415 . S
C620 C619 1.355 . S
C620 C622 1.419 . S
C621 C616 1.425 . S
C621 C618 1.409 . S
C621 C619 1.415 . S
C622 H612 0.930 . S
C622 C620 1.419 . S
C622 C623 1.362 . S
C623 H613 0.930 . S
C623 C616 1.409 . S
C623 C622 1.362 . S
H624 C630 0.930 . S
H625 C633 0.930 . S
H626 C634 0.930 . S
H627 C635 0.930 . S
H628 C638 0.930 . S
H629 C639 0.930 . S
C630 H624 0.930 . S
C630 C631 1.355 . S
C630 C632 1.415 . S
C631 C630 1.355 . S
C631 C633 1.419 . S
C632 C630 1.415 . S
C632 C637 1.425 . S
C632 C639 1.409 . S
C633 H625 0.930 . S
C633 C631 1.419 . S
C633 C634 1.362 . S
C634 H626 0.930 . S
C634 C633 1.362 . S
C634 C637 1.409 . S
C635 H627 0.930 . S
C635 C636 1.355 . S
C635 C637 1.415 . S
C636 C635 1.355 . S
C636 C638 1.419 . S
C637 C632 1.425 . S
C637 C634 1.409 . S
C637 C635 1.415 . S
C638 H628 0.930 . S
C638 C636 1.419 . S
C638 C639 1.362 . S
C639 H629 0.930 . S
C639 C632 1.409 . S
C639 C638 1.362 . S
H640 C646 0.930 . S
H641 C649 0.930 . S
H642 C650 0.930 . S
H643 C651 0.930 . S
H644 C654 0.930 . S
H645 C655 0.930 . S
C646 H640 0.930 . S
C646 C647 1.355 . S
C646 C648 1.415 . S
C647 C646 1.355 . S
C647 C649 1.419 . S
C648 C646 1.415 . S
C648 C653 1.425 . S
C648 C655 1.409 . S
C649 H641 0.930 . S
C649 C647 1.419 . S
C649 C650 1.362 . S
C650 H642 0.930 . S
C650 C649 1.362 . S
C650 C653 1.409 . S
C651 H643 0.930 . S
C651 C652 1.355 . S
C651 C653 1.415 . S
C652 C651 1.355 . S
C652 C654 1.419 . S
C653 C648 1.425 . S
C653 C650 1.409 . S
C653 C651 1.415 . S
C654 H644 0.930 . S
C654 C652 1.419 . S
C654 C655 1.362 . S
C655 H645 0.930 . S
C655 C648 1.409 . S
C655 C654 1.362 . S
H656 C662 0.930 . S
H657 C665 0.930 . S
H658 C666 0.930 . S
H659 C667 0.930 . S
H660 C670 0.930 . S
H661 C671 0.930 . S
C662 H656 0.930 . S
C662 C663 1.355 . S
C662 C664 1.415 . S
C663 C662 1.355 . S
C663 C665 1.419 . S
C664 C662 1.415 . S
C664 C669 1.425 . S
C664 C671 1.409 . S
C665 H657 0.930 . S
C665 C663 1.419 . S
C665 C666 1.362 . S
C666 H658 0.930 . S
C666 C665 1.362 . S
C666 C669 1.409 . S
C667 H659 0.930 . S
C667 C668 1.355 . S
C667 C669 1.415 . S
C668 C667 1.355 . S
C668 C670 1.419 . S
C669 C664 1.425 . S
C669 C666 1.409 . S
C669 C667 1.415 . S
C670 H660 0.930 . S
C670 C668 1.419 . S
C670 C671 1.362 . S
C671 H661 0.930 . S
C671 C664 1.409 . S
C671 C670 1.362 . S
H672 C678 0.930 . S
H673 C681 0.930 . S
H674 C682 0.930 . S
H675 C683 0.930 . S
H676 C686 0.930 . S
H677 C687 0.930 . S
C678 H672 0.930 . S
C678 C679 1.355 . S
C678 C680 1.415 . S
C679 C678 1.355 . S
C679 C681 1.419 . S
C680 C678 1.415 . S
C680 C685 1.425 . S
C680 C687 1.409 . S
C681 H673 0.930 . S
C681 C679 1.419 . S
C681 C682 1.362 . S
C682 H674 0.930 . S
C682 C681 1.362 . S
C682 C685 1.409 . S
C683 H675 0.930 . S
C683 C684 1.355 . S
C683 C685 1.415 . S
C684 C683 1.355 . S
C684 C686 1.419 . S
C685 C680 1.425 . S
C685 C682 1.409 . S
C685 C683 1.415 . S
C686 H676 0.930 . S
C686 C684 1.419 . S
C686 C687 1.362 . S
C687 H677 0.930 . S
C687 C680 1.409 . S
C687 C686 1.362 . S
H688 C694 0.930 . S
H689 C697 0.930 1_554 S
H690 C698 0.930 . S
H691 C699 0.930 . S
H692 C702 0.930 . S
H693 C703 0.930 . S
C694 H688 0.930 . S
C694 C695 1.355 . S
C694 C696 1.415 . S
C695 C694 1.355 . S
C695 C697 1.419 . S
C696 C694 1.415 . S
C696 C701 1.425 . S
C696 C703 1.409 . S
C697 H689 0.930 1_556 S
C697 C695 1.419 . S
C697 C698 1.362 . S
C698 H690 0.930 . S
C698 C697 1.362 . S
C698 C701 1.409 . S
C699 H691 0.930 . S
C699 C700 1.355 . S
C699 C701 1.415 . S
C700 C699 1.355 . S
C700 C702 1.419 . S
C701 C696 1.425 . S
C701 C698 1.409 . S
C701 C699 1.415 . S
C702 H692 0.930 . S
C702 C700 1.419 . S
C702 C703 1.362 . S
C703 H693 0.930 . S
C703 C696 1.409 . S
C703 C702 1.362 . S
H704 C710 0.930 . S
H705 C713 0.930 . S
H706 C714 0.930 . S
H707 C715 0.930 . S
H708 C718 0.930 . S
H709 C719 0.930 . S
C710 H704 0.930 . S
C710 C711 1.355 . S
C710 C712 1.415 . S
C711 C710 1.355 . S
C711 C713 1.419 . S
C712 C710 1.415 . S
C712 C717 1.425 . S
C712 C719 1.409 . S
C713 H705 0.930 . S
C713 C711 1.419 . S
C713 C714 1.362 . S
C714 H706 0.930 . S
C714 C713 1.362 . S
C714 C717 1.409 . S
C715 H707 0.930 . S
C715 C716 1.355 . S
C715 C717 1.415 . S
C716 C715 1.355 . S
C716 C718 1.419 . S
C717 C712 1.425 . S
C717 C714 1.409 . S
C717 C715 1.415 . S
C718 H708 0.930 . S
C718 C716 1.419 . S
C718 C719 1.362 . S
C719 H709 0.930 . S
C719 C712 1.409 . S
C719 C718 1.362 . S
H720 C726 0.930 . S
H721 C729 0.930 . S
H722 C730 0.930 . S
H723 C731 0.930 . S
H724 C734 0.930 . S
H725 C735 0.930 . S
C726 H720 0.930 . S
C726 C727 1.355 . S
C726 C728 1.415 . S
C727 C726 1.355 . S
C727 C729 1.419 . S
C728 C726 1.415 . S
C728 C733 1.425 . S
C728 C735 1.409 . S
C729 H721 0.930 . S
C729 C727 1.419 . S
C729 C730 1.362 . S
C730 H722 0.930 . S
C730 C729 1.362 . S
C730 C733 1.409 . S
C731 H723 0.930 . S
C731 C732 1.355 . S
C731 C733 1.415 . S
C732 C731 1.355 . S
C732 C734 1.419 . S
C733 C728 1.425 . S
C733 C730 1.409 . S
C733 C731 1.415 . S
C734 H724 0.930 . S
C734 C732 1.419 . S
C734 C735 1.362 . S
C735 H725 0.930 . S
C735 C728 1.409 . S
C735 C734 1.362 . S
H736 C742 0.930 . S
H737 C745 0.930 . S
H738 C746 0.930 . S
H739 C747 0.930 . S
H740 C750 0.930 . S
H741 C751 0.930 . S
C742 H736 0.930 . S
C742 C743 1.355 . S
C742 C744 1.415 . S
C743 C742 1.355 . S
C743 C745 1.419 . S
C744 C742 1.415 . S
C744 C749 1.425 . S
C744 C751 1.409 . S
C745 H737 0.930 . S
C745 C743 1.419 . S
C745 C746 1.362 . S
C746 H738 0.930 . S
C746 C745 1.362 . S
C746 C749 1.409 . S
C747 H739 0.930 . S
C747 C748 1.355 . S
C747 C749 1.415 . S
C748 C747 1.355 . S
C748 C750 1.419 . S
C749 C744 1.425 . S
C749 C746 1.409 . S
C749 C747 1.415 . S
C750 H740 0.930 . S
C750 C748 1.419 . S
C750 C751 1.362 . S
C751 H741 0.930 . S
C751 C744 1.409 . S
C751 C750 1.362 . S
H752 C758 0.930 . S
H753 C761 0.930 . S
H754 C762 0.930 . S
H755 C763 0.930 . S
H756 C766 0.930 . S
H757 C767 0.930 . S
C758 H752 0.930 . S
C758 C759 1.355 . S
C758 C760 1.415 . S
C759 C758 1.355 . S
C759 C761 1.419 . S
C760 C758 1.415 . S
C760 C765 1.425 . S
C760 C767 1.409 . S
C761 H753 0.930 . S
C761 C759 1.419 . S
C761 C762 1.362 . S
C762 H754 0.930 . S
C762 C761 1.362 . S
C762 C765 1.409 . S
C763 H755 0.930 . S
C763 C764 1.355 . S
C763 C765 1.415 . S
C764 C763 1.355 . S
C764 C766 1.419 . S
C765 C760 1.425 . S
C765 C762 1.409 . S
C765 C763 1.415 . S
C766 H756 0.930 . S
C766 C764 1.419 . S
C766 C767 1.362 . S
C767 H757 0.930 . S
C767 C760 1.409 . S
C767 C766 1.362 . S
H768 C774 0.930 . S
H769 C777 0.930 1_554 S
H770 C778 0.930 . S
H771 C779 0.930 . S
H772 C782 0.930 . S
H773 C783 0.930 . S
C774 H768 0.930 . S
C774 C775 1.355 . S
C774 C776 1.415 . S
C775 C774 1.355 . S
C775 C777 1.419 . S
C776 C774 1.415 . S
C776 C781 1.425 . S
C776 C783 1.409 . S
C777 H769 0.930 1_556 S
C777 C775 1.419 . S
C777 C778 1.362 . S
C778 H770 0.930 . S
C778 C777 1.362 . S
C778 C781 1.409 . S
C779 H771 0.930 . S
C779 C780 1.355 . S
C779 C781 1.415 . S
C780 C779 1.355 . S
C780 C782 1.419 . S
C781 C776 1.425 . S
C781 C778 1.409 . S
C781 C779 1.415 . S
C782 H772 0.930 . S
C782 C780 1.419 . S
C782 C783 1.362 . S
C783 H773 0.930 . S
C783 C776 1.409 . S
C783 C782 1.362 . S
H784 C790 0.930 . S
H785 C793 0.930 . S
H786 C794 0.930 . S
H787 C795 0.930 . S
H788 C798 0.930 . S
H789 C799 0.930 . S
C790 H784 0.930 . S
C790 C791 1.355 . S
C790 C792 1.415 . S
C791 C790 1.355 . S
C791 C793 1.419 . S
C792 C790 1.415 . S
C792 C797 1.425 . S
C792 C799 1.409 . S
C793 H785 0.930 . S
C793 C791 1.419 . S
C793 C794 1.362 . S
C794 H786 0.930 . S
C794 C793 1.362 . S
C794 C797 1.409 . S
C795 H787 0.930 . S
C795 C796 1.355 . S
C795 C797 1.415 . S
C796 C795 1.355 . S
C796 C798 1.419 . S
C797 C792 1.425 . S
C797 C794 1.409 . S
C797 C795 1.415 . S
C798 H788 0.930 . S
C798 C796 1.419 . S
C798 C799 1.362 . S
C799 H789 0.930 . S
C799 C792 1.409 . S
C799 C798 1.362 . S
H800 C806 0.930 . S
H801 C809 0.930 . S
H802 C810 0.930 . S
H803 C811 0.930 . S
H804 C814 0.930 . S
H805 C815 0.930 . S
C806 H800 0.930 . S
C806 C807 1.355 . S
C806 C808 1.415 . S
C807 C806 1.355 . S
C807 C809 1.419 . S
C808 C806 1.415 . S
C808 C813 1.425 . S
C808 C815 1.409 . S
C809 H801 0.930 . S
C809 C807 1.419 . S
C809 C810 1.362 . S
C810 H802 0.930 . S
C810 C809 1.362 . S
C810 C813 1.409 . S
C811 H803 0.930 . S
C811 C812 1.355 . S
C811 C813 1.415 . S
C812 C811 1.355 . S
C812 C814 1.419 . S
C813 C808 1.425 . S
C813 C810 1.409 . S
C813 C811 1.415 . S
C814 H804 0.930 . S
C814 C812 1.419 . S
C814 C815 1.362 . S
C815 H805 0.930 . S
C815 C808 1.409 . S
C815 C814 1.362 . S
H816 C822 0.930 . S
H817 C825 0.930 . S
H818 C826 0.930 . S
H819 C827 0.930 . S
H820 C830 0.930 . S
H821 C831 0.930 . S
C822 H816 0.930 . S
C822 C823 1.355 . S
C822 C824 1.415 . S
C823 C822 1.355 . S
C823 C825 1.419 . S
C824 C822 1.415 . S
C824 C829 1.425 . S
C824 C831 1.409 . S
C825 H817 0.930 . S
C825 C823 1.419 . S
C825 C826 1.362 . S
C826 H818 0.930 . S
C826 C825 1.362 . S
C826 C829 1.409 . S
C827 H819 0.930 . S
C827 C828 1.355 . S
C827 C829 1.415 . S
C828 C827 1.355 . S
C828 C830 1.419 . S
C829 C824 1.425 . S
C829 C826 1.409 . S
C829 C827 1.415 . S
C830 H820 0.930 . S
C830 C828 1.419 . S
C830 C831 1.362 . S
C831 H821 0.930 . S
C831 C824 1.409 . S
C831 C830 1.362 . S
H832 C838 0.930 . S
H833 C841 0.930 . S
H834 C842 0.930 . S
H835 C843 0.930 . S
H836 C846 0.930 . S
H837 C847 0.930 . S
C838 H832 0.930 . S
C838 C839 1.355 . S
C838 C840 1.415 . S
C839 C838 1.355 . S
C839 C841 1.419 . S
C840 C838 1.415 . S
C840 C845 1.425 . S
C840 C847 1.409 . S
C841 H833 0.930 . S
C841 C839 1.419 . S
C841 C842 1.362 . S
C842 H834 0.930 . S
C842 C841 1.362 . S
C842 C845 1.409 . S
C843 H835 0.930 . S
C843 C844 1.355 . S
C843 C845 1.415 . S
C844 C843 1.355 . S
C844 C846 1.419 . S
C845 C840 1.425 . S
C845 C842 1.409 . S
C845 C843 1.415 . S
C846 H836 0.930 . S
C846 C844 1.419 . S
C846 C847 1.362 . S
C847 H837 0.930 . S
C847 C840 1.409 . S
C847 C846 1.362 . S
H848 C854 0.930 . S
H849 C857 0.930 . S
H850 C858 0.930 . S
H851 C859 0.930 . S
H852 C862 0.930 1_554 S
H853 C863 0.930 . S
C854 H848 0.930 . S
C854 C855 1.355 . S
C854 C856 1.415 . S
C855 C854 1.355 . S
C855 C857 1.419 . S
C856 C854 1.415 . S
C856 C861 1.425 . S
C856 C863 1.409 . S
C857 H849 0.930 . S
C857 C855 1.419 . S
C857 C858 1.362 . S
C858 H850 0.930 . S
C858 C857 1.362 . S
C858 C861 1.409 . S
C859 H851 0.930 . S
C859 C860 1.355 . S
C859 C861 1.415 . S
C860 C859 1.355 . S
C860 C862 1.419 . S
C861 C856 1.425 . S
C861 C858 1.409 . S
C861 C859 1.415 . S
C862 H852 0.930 1_556 S
C862 C860 1.419 . S
C862 C863 1.362 . S
C863 H853 0.930 . S
C863 C856 1.409 . S
C863 C862 1.362 . S
H864 C870 0.930 . S
H865 C873 0.930 . S
H866 C874 0.930 . S
H867 C875 0.930 . S
H868 C878 0.930 . S
H869 C879 0.930 . S
C870 H864 0.930 . S
C870 C871 1.355 . S
C870 C872 1.415 . S
C871 C870 1.355 . S
C871 C873 1.419 . S
C872 C870 1.415 . S
C872 C877 1.425 . S
C872 C879 1.409 . S
C873 H865 0.930 . S
C873 C871 1.419 . S
C873 C874 1.362 . S
C874 H866 0.930 . S
C874 C873 1.362 . S
C874 C877 1.409 . S
C875 H867 0.930 . S
C875 C876 1.355 . S
C875 C877 1.415 . S
C876 C875 1.355 . S
C876 C878 1.419 . S
C877 C872 1.425 . S
C877 C874 1.409 . S
C877 C875 1.415 . S
C878 H868 0.930 . S
C878 C876 1.419 . S
C878 C879 1.362 . S
C879 H869 0.930 . S
C879 C872 1.409 . S
C879 C878 1.362 . S
C375 C7 1.166 . S
C380 N94 1.200 . S
C391 N35 1.168 . S
C396 C131 1.189 . S
C407 N140 1.201 . S
C412 C53 1.202 . S
C423 N81 1.238 . S
C428 C177 1.234 . S
C439 N104 1.157 . S
C444 C16 1.114 . S
C455 N242 0.491 . S
C460 N186 0.449 . S
C471 N150 1.137 . S
C476 C62 1.098 . S
C487 N209 1.094 . S
C492 C260 1.136 . S
C503 C283 1.207 . S
C508 N324 1.195 . S
C519 N196 0.571 . S
C524 N232 0.571 . S
C535 C306 1.174 . S
C540 N347 1.196 . S
C551 C269 1.236 . S
C556 N219 1.231 . S
C567 N334 1.112 . S
C572 C292 1.137 . S
C583 N25 1.142 . S
C588 C122 1.140 . S
C599 C315 1.116 . S
C604 N357 1.144 . S
C615 C168 1.131 . S
C620 N71 1.109 . S
C631 N12 1.488 . S
C636 N163 1.460 . S
C647 C108 1.603 . S
C652 C30 1.617 . S
C663 N117 1.579 . S
C668 N58 1.612 . S
C679 C76 1.561 . S
C684 C154 1.547 . S
C695 N2 1.530 . S
C700 N265 1.528 . S
C711 C200 1.646 . S
C716 C99 1.630 . S
C727 C237 1.669 . S
C732 N48 1.696 . S
C743 C223 1.579 . S
C748 C145 1.569 . S
C759 N288 1.482 . S
C764 N255 1.453 . S
C775 C338 1.592 . S
C780 C191 1.617 . S
C791 C246 1.671 . S
C796 N311 1.660 . S
C807 C361 1.547 . S
C812 C214 1.584 . S
C823 N173 1.530 . S
C828 N278 1.523 . S
C839 C329 1.607 . S
C844 C39 1.608 . S
C855 N127 1.628 . S
C860 N301 1.632 . S
C871 C352 1.617 . S
C876 C85 1.632 . S
