# Generated by pormake.
# Topology snl, (6)-cn, num edge types: 1
# Building blocks:
#     Node 0, Type 0, BuildingBlock: PAMTUU_clean_sbu_0, # of connection points: 6
#     Node 1, Type 0, BuildingBlock: PAMTUU_clean_sbu_0, # of connection points: 6
#     Node 2, Type 0, BuildingBlock: PAMTUU_clean_sbu_0, # of connection points: 6
#     Node 3, Type 0, BuildingBlock: PAMTUU_clean_sbu_0, # of connection points: 6
#     Node 4, Type 0, BuildingBlock: PAMTUU_clean_sbu_0, # of connection points: 6
#     Node 5, Type 0, BuildingBlock: PAMTUU_clean_sbu_0, # of connection points: 6
#     Node 6, Type 0, BuildingBlock: PAMTUU_clean_sbu_0, # of connection points: 6
#     Node 7, Type 0, BuildingBlock: PAMTUU_clean_sbu_0, # of connection points: 6
#     Node 8, Type 0, BuildingBlock: PAMTUU_clean_sbu_0, # of connection points: 6
#     Node 9, Type 0, BuildingBlock: PAMTUU_clean_sbu_0, # of connection points: 6
#     Node 10, Type 0, BuildingBlock: PAMTUU_clean_sbu_0, # of connection points: 6
#     Node 11, Type 0, BuildingBlock: PAMTUU_clean_sbu_0, # of connection points: 6
#     Node 12, Type 0, BuildingBlock: PAMTUU_clean_sbu_0, # of connection points: 6
#     Node 13, Type 0, BuildingBlock: PAMTUU_clean_sbu_0, # of connection points: 6
#     Node 14, Type 0, BuildingBlock: PAMTUU_clean_sbu_0, # of connection points: 6
#     Node 15, Type 0, BuildingBlock: PAMTUU_clean_sbu_0, # of connection points: 6
#     Edge 16, Type (0, 0), BuildingBlock: AJUNOK_clean_linker_0, # of connection points: 2
#     Edge 17, Type (0, 0), BuildingBlock: AJUNOK_clean_linker_0, # of connection points: 2
#     Edge 18, Type (0, 0), BuildingBlock: AJUNOK_clean_linker_0, # of connection points: 2
#     Edge 19, Type (0, 0), BuildingBlock: AJUNOK_clean_linker_0, # of connection points: 2
#     Edge 20, Type (0, 0), BuildingBlock: AJUNOK_clean_linker_0, # of connection points: 2
#     Edge 21, Type (0, 0), BuildingBlock: AJUNOK_clean_linker_0, # of connection points: 2
#     Edge 22, Type (0, 0), BuildingBlock: AJUNOK_clean_linker_0, # of connection points: 2
#     Edge 23, Type (0, 0), BuildingBlock: AJUNOK_clean_linker_0, # of connection points: 2
#     Edge 24, Type (0, 0), BuildingBlock: AJUNOK_clean_linker_0, # of connection points: 2
#     Edge 25, Type (0, 0), BuildingBlock: AJUNOK_clean_linker_0, # of connection points: 2
#     Edge 26, Type (0, 0), BuildingBlock: AJUNOK_clean_linker_0, # of connection points: 2
#     Edge 27, Type (0, 0), BuildingBlock: AJUNOK_clean_linker_0, # of connection points: 2
#     Edge 28, Type (0, 0), BuildingBlock: AJUNOK_clean_linker_0, # of connection points: 2
#     Edge 29, Type (0, 0), BuildingBlock: AJUNOK_clean_linker_0, # of connection points: 2
#     Edge 30, Type (0, 0), BuildingBlock: AJUNOK_clean_linker_0, # of connection points: 2
#     Edge 31, Type (0, 0), BuildingBlock: AJUNOK_clean_linker_0, # of connection points: 2
#     Edge 32, Type (0, 0), BuildingBlock: AJUNOK_clean_linker_0, # of connection points: 2
#     Edge 33, Type (0, 0), BuildingBlock: AJUNOK_clean_linker_0, # of connection points: 2
#     Edge 34, Type (0, 0), BuildingBlock: AJUNOK_clean_linker_0, # of connection points: 2
#     Edge 35, Type (0, 0), BuildingBlock: AJUNOK_clean_linker_0, # of connection points: 2
#     Edge 36, Type (0, 0), BuildingBlock: AJUNOK_clean_linker_0, # of connection points: 2
#     Edge 37, Type (0, 0), BuildingBlock: AJUNOK_clean_linker_0, # of connection points: 2
#     Edge 38, Type (0, 0), BuildingBlock: AJUNOK_clean_linker_0, # of connection points: 2
#     Edge 39, Type (0, 0), BuildingBlock: AJUNOK_clean_linker_0, # of connection points: 2
#     Edge 40, Type (0, 0), BuildingBlock: AJUNOK_clean_linker_0, # of connection points: 2
#     Edge 41, Type (0, 0), BuildingBlock: AJUNOK_clean_linker_0, # of connection points: 2
#     Edge 42, Type (0, 0), BuildingBlock: AJUNOK_clean_linker_0, # of connection points: 2
#     Edge 43, Type (0, 0), BuildingBlock: AJUNOK_clean_linker_0, # of connection points: 2
#     Edge 44, Type (0, 0), BuildingBlock: AJUNOK_clean_linker_0, # of connection points: 2
#     Edge 45, Type (0, 0), BuildingBlock: AJUNOK_clean_linker_0, # of connection points: 2
#     Edge 46, Type (0, 0), BuildingBlock: AJUNOK_clean_linker_0, # of connection points: 2
#     Edge 47, Type (0, 0), BuildingBlock: AJUNOK_clean_linker_0, # of connection points: 2
#     Edge 48, Type (0, 0), BuildingBlock: AJUNOK_clean_linker_0, # of connection points: 2
#     Edge 49, Type (0, 0), BuildingBlock: AJUNOK_clean_linker_0, # of connection points: 2
#     Edge 50, Type (0, 0), BuildingBlock: AJUNOK_clean_linker_0, # of connection points: 2
#     Edge 51, Type (0, 0), BuildingBlock: AJUNOK_clean_linker_0, # of connection points: 2
#     Edge 52, Type (0, 0), BuildingBlock: AJUNOK_clean_linker_0, # of connection points: 2
#     Edge 53, Type (0, 0), BuildingBlock: AJUNOK_clean_linker_0, # of connection points: 2
#     Edge 54, Type (0, 0), BuildingBlock: AJUNOK_clean_linker_0, # of connection points: 2
#     Edge 55, Type (0, 0), BuildingBlock: AJUNOK_clean_linker_0, # of connection points: 2
#     Edge 56, Type (0, 0), BuildingBlock: AJUNOK_clean_linker_0, # of connection points: 2
#     Edge 57, Type (0, 0), BuildingBlock: AJUNOK_clean_linker_0, # of connection points: 2
#     Edge 58, Type (0, 0), BuildingBlock: AJUNOK_clean_linker_0, # of connection points: 2
#     Edge 59, Type (0, 0), BuildingBlock: AJUNOK_clean_linker_0, # of connection points: 2
#     Edge 60, Type (0, 0), BuildingBlock: AJUNOK_clean_linker_0, # of connection points: 2
#     Edge 61, Type (0, 0), BuildingBlock: AJUNOK_clean_linker_0, # of connection points: 2
#     Edge 62, Type (0, 0), BuildingBlock: AJUNOK_clean_linker_0, # of connection points: 2
#     Edge 63, Type (0, 0), BuildingBlock: AJUNOK_clean_linker_0, # of connection points: 2
# Relax obj value: 0.164
# Max RMSD: 0.250
# Mean RMSD: 0.230
data_MOF--net-snl--node1-PAMTUU_clean_sbu_0--edge1-AJUNOK_clean_linker_0
_symmetry_space_group_name_H-M    P1
_symmetry_Int_Tables_number       1
_symmetry_cell_setting            triclinic
loop_
_symmetry_equiv_pos_as_xyz
'x, y, z'
_cell_length_a     40.601137
_cell_length_b     41.002301
_cell_length_c     21.287435
_cell_angle_alpha  95.699254
_cell_angle_beta   91.58514
_cell_angle_gamma 90.127626
loop_
_atom_site_label
_atom_site_type_symbol
_atom_site_fract_x
_atom_site_fract_y
_atom_site_fract_z
_atom_type_partial_charge
Tb0 Tb 0.12592 0.63605 0.23418 0.0
Tb1 Tb 0.16192 0.64837 0.10228 0.0
C2 C 0.14616 0.58092 0.13297 0.0
C3 C 0.10784 0.63126 0.40336 0.0
C4 C 0.12457 0.64322 0.53293 0.0
C5 C 0.10152 0.61871 0.51146 0.0
C6 C 0.09332 0.61272 0.44711 0.0
C7 C 0.13042 0.65618 0.42469 0.0
C8 C 0.13872 0.66212 0.48904 0.0
C9 C 0.09968 0.62402 0.3357 0.0
O10 O 0.17823 0.63428 0.25722 0.0
O11 O 0.20101 0.65858 0.17492 0.0
O12 O 0.13973 0.69413 0.13739 0.0
O13 O 0.14088 0.6879 0.24348 0.0
O14 O 0.18037 0.62516 1.0188 0.0
O15 O 0.18352 0.67779 0.03834 0.0
O16 O 0.10954 0.63844 0.07606 0.0
O17 O 0.08706 0.65193 0.17344 0.0
O18 O 0.12076 0.59247 0.16472 0.0
O19 O 0.17137 0.60028 0.13056 0.0
C20 C 0.20307 0.64823 0.23177 0.0
O21 O 0.09218 0.64913 0.30511 0.0
O22 O 0.11953 0.60397 0.30407 0.0
C23 C 0.13942 0.70661 0.19658 0.0
C24 C 0.17598 0.65597 0.93119 0.0
C25 C 0.15872 0.65717 0.802 0.0
C26 C 0.18489 0.67659 0.82976 0.0
C27 C 0.19356 0.6758 0.8937 0.0
C28 C 0.14886 0.63772 0.90431 0.0
C29 C 0.14042 0.63823 0.84034 0.0
C30 C 0.18756 0.65272 0.99658 0.0
C31 C 0.08415 0.64641 0.11186 0.0
H32 H 0.09032 0.60379 0.54437 0.0
H33 H 0.07582 0.59341 0.43144 0.0
H34 H 0.14164 0.67094 0.39154 0.0
H35 H 0.15609 0.68153 0.50458 0.0
H36 H 0.19889 0.69215 0.80195 0.0
H37 H 0.21443 0.6902 0.91358 0.0
H38 H 0.13473 0.62232 0.93226 0.0
H39 H 0.12015 0.62298 0.82045 0.0
Tb40 Tb 0.62999 0.90214 0.34085 0.0
Tb41 Tb 0.66878 0.89417 0.47639 0.0
C42 C 0.65128 0.95994 0.43892 0.0
C43 C 0.61236 0.90549 0.1694 0.0
C44 C 0.63168 0.89662 0.04236 0.0
C45 C 0.60232 0.91311 0.05872 0.0
C46 C 0.59282 0.91759 0.12171 0.0
C47 C 0.64139 0.8885 0.15328 0.0
C48 C 0.65098 0.88408 0.0903 0.0
C49 C 0.60282 0.91157 0.23581 0.0
O50 O 0.68172 0.90556 0.31952 0.0
O51 O 0.70743 0.88554 0.40612 0.0
O52 O 0.64855 0.84666 0.44369 0.0
O53 O 0.64623 0.85076 0.33677 0.0
O54 O 0.68517 0.91976 0.56143 0.0
O55 O 0.69387 0.86778 0.54328 0.0
O56 O 0.61642 0.90266 0.49819 0.0
O57 O 0.59221 0.88652 0.40068 0.0
O58 O 0.62531 0.94688 0.40774 0.0
O59 O 0.67688 0.94135 0.4438 0.0
C60 C 0.70788 0.89442 0.34797 0.0
O61 O 0.59772 0.8857 0.26531 0.0
O62 O 0.6203 0.93359 0.27052 0.0
C63 C 0.64801 0.83302 0.38524 0.0
C64 C 0.68494 0.88915 0.64955 0.0
C65 C 0.66821 0.88714 0.77731 0.0
C66 C 0.69824 0.87407 0.75502 0.0
C67 C 0.70657 0.87526 0.69185 0.0
C68 C 0.65433 0.90095 0.67094 0.0
C69 C 0.6461 0.9 0.73416 0.0
C70 C 0.69556 0.89335 0.58498 0.0
C71 C 0.59049 0.89327 0.46197 0.0
H72 H 0.58702 0.92313 1.0229 0.0
H73 H 0.57036 0.93081 0.13328 0.0
H74 H 0.65669 0.87883 0.18949 0.0
H75 H 0.67341 0.87077 0.07907 0.0
H76 H 0.71544 0.86317 0.78652 0.0
H77 H 0.73024 0.8659 0.6763 0.0
H78 H 0.63713 0.91172 0.63919 0.0
H79 H 0.6228 0.91028 0.7497 0.0
Tb80 Tb 0.36762 0.38888 0.58431 0.0
Tb81 Tb 0.39676 0.41998 0.72696 0.0
C82 C 0.3226 0.40359 0.70271 0.0
C83 C 0.35181 0.37845 0.4093 0.0
C84 C 0.36288 0.39349 0.28437 0.0
C85 C 0.33671 0.37278 0.29717 0.0
C86 C 0.33128 0.36532 0.35894 0.0
C87 C 0.37756 0.39968 0.39709 0.0
C88 C 0.38297 0.40723 0.33528 0.0
C89 C 0.34656 0.36914 0.47373 0.0
O90 O 0.36453 0.44161 0.58848 0.0
O91 O 0.40566 0.45731 0.66178 0.0
O92 O 0.43838 0.39925 0.67634 0.0
O93 O 0.42006 0.39919 0.57276 0.0
O94 O 0.39343 0.45647 0.80354 0.0
O95 O 0.42905 0.41787 0.8054 0.0
O96 O 0.3836 0.36904 0.73804 0.0
O97 O 0.38107 0.3468 0.63354 0.0
O98 O 0.32836 0.38337 0.65206 0.0
O99 O 0.34399 0.42636 0.72319 0.0
C100 C 0.38696 0.46264 0.61212 0.0
O101 O 0.37189 0.35675 0.50175 0.0
O102 O 0.33115 0.39026 0.51219 0.0
C103 C 0.44377 0.39701 0.61556 0.0
C104 C 0.4055 0.4365 0.90236 0.0
C105 C 0.38977 0.42287 1.02615 0.0
C106 C 0.41557 0.44463 1.01622 0.0
C107 C 0.42335 0.45132 0.95498 0.0
C108 C 0.37932 0.41527 0.91192 0.0
C109 C 0.37142 0.40866 0.97318 0.0
C110 C 0.41517 0.44239 0.83792 0.0
C111 C 0.3827 0.34377 0.69453 0.0
H112 H 0.32033 0.36237 0.25936 0.0
H113 H 0.31116 0.34904 0.3673 0.0
H114 H 0.39375 0.41003 0.43524 0.0
H115 H 0.40333 0.42325 0.3271 0.0
H116 H 0.43025 0.45595 0.05577 0.0
H117 H 0.44368 0.46774 0.94866 0.0
H118 H 0.36518 0.40357 0.87196 0.0
H119 H 0.3509 0.39242 0.97903 0.0
Tb120 Tb 0.87919 0.14773 0.99339 0.0
Tb121 Tb 0.90662 0.12013 0.85267 0.0
C122 C 0.83202 0.13941 0.87046 0.0
C123 C 0.86556 0.15578 0.16727 0.0
C124 C 0.87615 0.13773 0.29099 0.0
C125 C 0.84694 0.1536 0.27442 0.0
C126 C 0.8417 0.16246 0.21309 0.0
C127 C 0.89468 0.13979 0.18343 0.0
C128 C 0.89996 0.13093 0.24474 0.0
C129 C 0.85998 0.16617 0.10344 0.0
O130 O 0.8723 0.09543 0.98363 0.0
O131 O 0.91458 0.08179 0.91773 0.0
O132 O 0.94845 0.14179 0.90614 0.0
O133 O 0.93187 0.13603 1.00679 0.0
O134 O 0.90464 0.08275 0.77743 0.0
O135 O 0.93908 0.12278 0.7781 0.0
O136 O 0.89622 0.17217 0.84419 0.0
O137 O 0.89488 0.19028 0.95038 0.0
O138 O 0.83866 0.15586 0.92594 0.0
O139 O 0.85338 0.11947 0.84198 0.0
C140 C 0.89464 0.07476 0.96243 0.0
O141 O 0.88529 0.17854 0.07773 0.0
O142 O 0.84359 0.14585 0.06316 0.0
C143 C 0.95506 0.14106 0.9665 0.0
C144 C 0.91765 0.10092 0.67898 0.0
C145 C 0.90256 0.11006 0.55161 0.0
C146 C 0.93205 0.09475 0.56834 0.0
C147 C 0.93945 0.09013 0.63145 0.0
C148 C 0.88823 0.11625 0.66258 0.0
C149 C 0.88066 0.12069 0.59942 0.0
C150 C 0.92644 0.09703 0.74545 0.0
C151 C 0.89754 0.19583 0.89103 0.0
H152 H 0.82845 0.15985 0.30923 0.0
H153 H 0.81913 0.17492 0.20163 0.0
H154 H 0.91347 0.13447 0.1488 0.0
H155 H 0.92268 0.11873 0.25606 0.0
H156 H 0.94936 0.08633 0.53251 0.0
H157 H 0.96238 0.0784 0.64324 0.0
H158 H 0.87139 0.12513 0.69878 0.0
H159 H 0.85806 0.13312 0.58814 0.0
Tb160 Tb 0.12852 0.40884 0.84617 0.0
Tb161 Tb 0.16617 0.39998 0.98274 0.0
C162 C 0.14797 0.46584 0.94679 0.0
C163 C 0.10953 0.413 0.67465 0.0
C164 C 0.12537 0.40264 0.54601 0.0
C165 C 0.09647 0.4194 0.56451 0.0
C166 C 0.08862 0.42449 0.62832 0.0
C167 C 0.13837 0.39627 0.65653 0.0
C168 C 0.14629 0.39119 0.59273 0.0
C169 C 0.10134 0.41919 0.74165 0.0
O170 O 0.18044 0.41148 0.8268 0.0
O171 O 0.20488 0.39004 0.91322 0.0
O172 O 0.14487 0.35293 0.94964 0.0
O173 O 0.14332 0.35702 0.8426 0.0
O174 O 0.18285 0.42522 0.06793 0.0
O175 O 0.1905 0.37308 0.04964 0.0
O176 O 0.1136 0.40784 1.00437 0.0
O177 O 0.09028 0.39391 0.90516 0.0
O178 O 0.12271 0.45285 0.91351 0.0
O179 O 0.17391 0.44768 0.95179 0.0
C180 C 0.20582 0.39893 0.85524 0.0
O181 O 0.09573 0.39337 0.77097 0.0
O182 O 0.12008 0.44043 0.77563 0.0
C183 C 0.14307 0.33933 0.89116 0.0
C184 C 0.18066 0.39438 0.15525 0.0
C185 C 0.16106 0.39156 0.28097 0.0
C186 C 0.19195 0.37949 0.26146 0.0
C187 C 0.20165 0.38093 0.19917 0.0
C188 C 0.14946 0.40569 0.17407 0.0
C189 C 0.13985 0.4045 0.23639 0.0
C190 C 0.19238 0.39855 0.09154 0.0
C191 C 0.08795 0.39945 0.9666 0.0
H192 H 0.08024 0.42911 0.52975 0.0
H193 H 0.06636 0.43767 0.64154 0.0
H194 H 0.15474 0.38731 0.69183 0.0
H195 H 0.16868 0.3782 0.57982 0.0
H196 H 0.20877 0.36926 0.29459 0.0
H197 H 0.22584 0.37213 0.18563 0.0
H198 H 0.13285 0.41631 0.14106 0.0
H199 H 0.11624 0.41471 0.25009 0.0
Tb200 Tb 0.90215 0.91898 0.22222 0.0
Tb201 Tb 0.87157 0.89018 0.08075 0.0
C202 C 0.88953 0.96287 0.11053 0.0
C203 C 0.91419 0.93531 0.39747 0.0
C204 C 0.90013 0.92444 0.52336 0.0
C205 C 0.91632 0.95325 0.51013 0.0
C206 C 0.92321 0.95863 0.44778 0.0
C207 C 0.89784 0.90658 0.41046 0.0
C208 C 0.89072 0.90129 0.47276 0.0
C209 C 0.92258 0.94091 0.33215 0.0
O210 O 0.84911 0.92413 0.22381 0.0
O211 O 0.83212 0.88354 0.14791 0.0
O212 O 0.88488 0.84725 0.12692 0.0
O213 O 0.88843 0.86795 0.23217 0.0
O214 O 0.83617 0.89374 1.00752 0.0
O215 O 0.87533 0.8585 0.99736 0.0
O216 O 0.924 0.90164 0.06914 0.0
O217 O 0.94263 0.89658 0.17059 0.0
O218 O 0.91046 0.95645 0.15626 0.0
O219 O 0.86536 0.94256 0.09355 0.0
C220 C 0.82723 0.9022 0.20115 0.0
O221 O 0.93563 0.91627 0.29847 0.0
O222 O 0.90042 0.95541 0.29942 0.0
C223 C 0.88654 0.84326 0.18742 0.0
C224 C 0.85748 0.8816 0.90523 0.0
C225 C 0.87149 0.89754 0.782 0.0
C226 C 0.85073 0.87091 0.791 0.0
C227 C 0.84377 0.8631 0.85191 0.0
C228 C 0.87805 0.90828 0.89678 0.0
C229 C 0.88467 0.91642 0.83588 0.0
C230 C 0.85093 0.87215 0.96901 0.0
C231 C 0.94796 0.89692 0.11026 0.0
H232 H 0.92351 0.97169 0.54804 0.0
H233 H 0.9358 0.98098 0.43888 0.0
H234 H 0.89064 0.8882 0.37243 0.0
H235 H 0.87825 0.87887 0.48151 0.0
H236 H 0.84029 0.85568 0.75085 0.0
H237 H 0.82798 0.84229 0.85734 0.0
H238 H 0.8892 0.92266 0.93727 0.0
H239 H 0.90003 0.9376 0.83113 0.0
Tb240 Tb 0.3773 0.65138 0.49009 0.0
Tb241 Tb 0.39878 0.61503 0.34923 0.0
C242 C 0.32712 0.64053 0.37344 0.0
C243 C 0.36659 0.66367 0.66472 0.0
C244 C 0.37504 0.64366 0.78803 0.0
C245 C 0.3441 0.65403 0.76637 0.0
C246 C 0.33993 0.66385 0.7054 0.0
C247 C 0.39761 0.65346 0.68631 0.0
C248 C 0.40179 0.6437 0.74733 0.0
C249 C 0.3615 0.674 0.60022 0.0
O250 O 0.3661 0.59967 0.48621 0.0
O251 O 0.40406 0.5779 0.41695 0.0
O252 O 0.44403 0.63011 0.40019 0.0
O253 O 0.4278 0.6343 0.5037 0.0
O254 O 0.3905 0.57867 0.27315 0.0
O255 O 0.43083 0.61294 0.27307 0.0
O256 O 0.38981 0.66657 0.33569 0.0
O257 O 0.39738 0.68966 0.43858 0.0
O258 O 0.33681 0.66027 0.42334 0.0
O259 O 0.34547 0.61625 0.34989 0.0
C260 C 0.3861 0.576 0.46721 0.0
O261 O 0.38746 0.68331 0.57186 0.0
O262 O 0.34226 0.65545 0.56174 0.0
C263 C 0.45077 0.63173 0.46109 0.0
C264 C 0.4065 0.59515 0.17356 0.0
C265 C 0.39452 0.60783 0.04632 0.0
C266 C 0.42626 0.59963 0.06765 0.0
C267 C 0.43213 0.59334 0.13046 0.0
C268 C 0.3747 0.60315 0.15246 0.0
C269 C 0.3688 0.60956 0.08956 0.0
C270 C 0.41403 0.58975 0.24032 0.0
C271 C 0.3956 0.69199 0.37739 0.0
H272 H 0.32299 0.65421 0.79642 0.0
H273 H 0.31577 0.67153 0.68991 0.0
H274 H 0.41866 0.65294 0.65606 0.0
H275 H 0.42607 0.63642 0.76284 0.0
H276 H 0.44678 0.59877 1.03608 0.0
H277 H 0.45692 0.58746 0.14565 0.0
H278 H 0.35448 0.60461 0.1846 0.0
H279 H 0.34406 0.61575 0.07463 0.0
Tb280 Tb 0.63015 0.1283 0.73067 0.0
Tb281 Tb 0.66502 0.14421 0.59977 0.0
C282 C 0.6519 0.07526 0.62611 0.0
C283 C 0.6122 0.12097 0.89973 0.0
C284 C 0.62571 0.13363 1.03048 0.0
C285 C 0.60446 0.10786 1.0071 0.0
C286 C 0.59779 0.10158 0.94223 0.0
C287 C 0.63345 0.14673 0.92279 0.0
C288 C 0.64028 0.15292 0.98769 0.0
C289 C 0.60483 0.11402 0.83169 0.0
O290 O 0.68261 0.12748 0.75243 0.0
O291 O 0.7038 0.15529 0.67332 0.0
O292 O 0.64054 0.18839 0.63612 0.0
O293 O 0.64193 0.18114 0.74171 0.0
O294 O 0.68613 0.12293 0.51718 0.0
O295 O 0.68332 0.17552 0.53558 0.0
O296 O 0.61315 0.13156 0.57271 0.0
O297 O 0.58995 0.14154 0.67036 0.0
O298 O 0.62642 0.08504 0.65961 0.0
O299 O 0.67617 0.09585 0.62479 0.0
C300 C 0.70671 0.14337 0.72878 0.0
O301 O 0.59605 0.13904 0.80192 0.0
O302 O 0.62582 0.0954 0.79982 0.0
C303 C 0.63917 0.20024 0.6955 0.0
C304 C 0.67743 0.15248 0.42895 0.0
C305 C 0.6576 0.15135 0.30046 0.0
C306 C 0.68349 0.17196 0.32565 0.0
C307 C 0.69333 0.17245 0.3893 0.0
C308 C 0.65101 0.1325 0.40438 0.0
C309 C 0.64139 0.13174 0.34071 0.0
C310 C 0.69 0.15094 0.49428 0.0
C311 C 0.58723 0.13641 0.60874 0.0
H312 H 0.59334 0.09228 0.03898 0.0
H313 H 0.58142 0.08153 0.9252 0.0
H314 H 0.64466 0.16206 0.8906 0.0
H315 H 0.65668 0.17296 1.00456 0.0
H316 H 0.69636 0.18744 0.29593 0.0
H317 H 0.7138 0.18798 0.40727 0.0
H318 H 0.63836 0.11675 0.43394 0.0
H319 H 0.62195 0.11498 0.32263 0.0
Tb320 Tb 0.87209 0.39578 0.97708 0.0
Tb321 Tb 0.90757 0.40736 0.84479 0.0
C322 C 0.8975 0.33659 0.88787 0.0
C323 C 0.8588 0.39066 0.14836 0.0
C324 C 0.87805 0.39005 0.27634 0.0
C325 C 0.85089 0.37132 0.25122 0.0
C326 C 0.84126 0.37175 0.18766 0.0
C327 C 0.88674 0.40837 0.17298 0.0
C328 C 0.8961 0.40826 0.23654 0.0
C329 C 0.84657 0.39346 0.08331 0.0
O330 O 0.92476 0.40553 1.0031 0.0
O331 O 0.94718 0.39381 0.9051 0.0
O332 O 0.91197 0.45136 0.91366 0.0
O333 O 0.86128 0.44254 0.94442 0.0
O334 O 0.94122 0.3948 0.7735 0.0
O335 O 0.91338 0.4397 0.77523 0.0
O336 O 0.85536 0.40661 0.82057 0.0
O337 O 0.83334 0.38317 0.90457 0.0
O338 O 0.89476 0.34986 0.9461 0.0
O339 O 0.89625 0.35439 0.83934 0.0
C340 C 0.9502 0.39864 0.96663 0.0
O341 O 0.85427 0.42052 0.05966 0.0
O342 O 0.84969 0.36783 0.04243 0.0
C343 C 0.88592 0.46263 0.94352 0.0
C344 C 0.92642 0.41363 0.67571 0.0
C345 C 0.91173 0.40304 0.54516 0.0
C346 C 0.93431 0.42755 0.56905 0.0
C347 C 0.94156 0.43281 0.63379 0.0
C348 C 0.90412 0.38891 0.65225 0.0
C349 C 0.89674 0.38371 0.58745 0.0
C350 C 0.93373 0.42017 0.7437 0.0
C351 C 0.83099 0.39234 0.84677 0.0
H352 H 0.83647 0.35731 0.28124 0.0
H353 H 0.81963 0.35797 0.16959 0.0
H354 H 0.90087 0.423 0.14357 0.0
H355 H 0.91722 0.42274 0.2549 0.0
H356 H 0.94639 0.4427 0.5376 0.0
H357 H 0.95887 0.45198 0.65118 0.0
H358 H 0.89229 0.37384 0.68412 0.0
H359 H 0.87882 0.36504 0.57064 0.0
Tb360 Tb 0.37237 0.15423 0.59551 0.0
Tb361 Tb 0.40447 0.13244 0.72919 0.0
C362 C 0.39221 0.20575 0.70502 0.0
C363 C 0.3514 0.16254 0.42586 0.0
C364 C 0.36255 0.14945 0.29538 0.0
C365 C 0.33868 0.17238 0.31707 0.0
C366 C 0.33315 0.17882 0.38173 0.0
C367 C 0.37497 0.13934 0.40455 0.0
C368 C 0.38052 0.13287 0.33987 0.0
C369 C 0.34675 0.17116 0.49384 0.0
O370 O 0.42341 0.14086 0.57261 0.0
O371 O 0.44637 0.14354 0.67385 0.0
O372 O 0.41125 0.08981 0.65988 0.0
O373 O 0.37206 0.1012 0.58475 0.0
O374 O 0.43431 0.14409 0.81064 0.0
O375 O 0.40739 0.09845 0.79679 0.0
O376 O 0.35259 0.12083 0.72679 0.0
O377 O 0.33477 0.16158 0.66921 0.0
O378 O 0.39586 0.1967 0.64517 0.0
O379 O 0.38839 0.18388 0.74554 0.0
C380 C 0.44912 0.14133 0.61212 0.0
O381 O 0.33475 0.14832 0.52517 0.0
O382 O 0.37136 0.18633 0.52457 0.0
C383 C 0.39322 0.0812 0.60831 0.0
C384 C 0.41488 0.12227 0.90152 0.0
C385 C 0.39519 0.13019 1.02842 0.0
C386 C 0.42103 0.10887 1.00986 0.0
C387 C 0.43074 0.10495 0.94704 0.0
C388 C 0.3889 0.14344 0.91945 0.0
C389 C 0.37921 0.14746 0.98245 0.0
C390 C 0.42567 0.11773 0.83573 0.0
C391 C 0.32972 0.14139 0.71262 0.0
H392 H 0.32493 0.18605 0.28421 0.0
H393 H 0.31503 0.19699 0.39738 0.0
H394 H 0.3894 0.12661 0.438 0.0
H395 H 0.39901 0.11502 0.32462 0.0
H396 H 0.43369 0.09508 0.04398 0.0
H397 H 0.45071 0.08837 0.934 0.0
H398 H 0.37631 0.15699 0.88484 0.0
H399 H 0.35963 0.16451 0.99537 0.0
Tb400 Tb 0.63583 0.61649 0.35059 0.0
Tb401 Tb 0.66727 0.64298 0.49178 0.0
C402 C 0.59058 0.63305 0.46576 0.0
C403 C 0.62439 0.60244 0.17536 0.0
C404 C 0.64022 0.61445 0.05084 0.0
C405 C 0.62136 0.58683 0.06193 0.0
C406 C 0.61355 0.58091 0.12356 0.0
C407 C 0.64352 0.62982 0.16471 0.0
C408 C 0.65155 0.63563 0.10319 0.0
C409 C 0.61516 0.59644 0.23993 0.0
O410 O 0.64933 0.66812 0.34431 0.0
O411 O 0.65001 0.68597 0.45043 0.0
O412 O 0.7056 0.65128 0.42339 0.0
O413 O 0.68871 0.61039 0.34862 0.0
O414 O 0.66551 0.67461 0.57554 0.0
O415 O 0.70331 0.63803 0.56329 0.0
O416 O 0.67383 0.5906 0.47574 0.0
O417 O 0.62812 0.57756 0.41399 0.0
O418 O 0.59482 0.63492 0.40544 0.0
O419 O 0.61548 0.63004 0.50592 0.0
C420 C 0.64968 0.69189 0.39095 0.0
O421 O 0.63647 0.58069 0.27232 0.0
O422 O 0.60297 0.62136 0.27423 0.0
C423 C 0.71053 0.63251 0.37038 0.0
C424 C 0.68426 0.65154 0.66695 0.0
C425 C 0.67093 0.63854 0.79188 0.0
C426 C 0.69239 0.66414 0.78044 0.0
C427 C 0.69893 0.67059 0.71862 0.0
C428 C 0.66339 0.62545 0.67791 0.0
C429 C 0.65691 0.6189 0.73989 0.0
C430 C 0.68991 0.66026 0.60244 0.0
C431 C 0.64985 0.57022 0.45765 0.0
H432 H 0.61214 0.57007 1.02284 0.0
H433 H 0.59873 0.55966 0.13071 0.0
H434 H 0.65235 0.64667 0.20404 0.0
H435 H 0.66692 0.65659 0.09674 0.0
H436 H 0.70408 0.67928 0.81941 0.0
H437 H 0.71517 0.69077 0.71117 0.0
H438 H 0.65175 0.61049 0.6386 0.0
H439 H 0.64028 0.59902 0.74722 0.0
Tb440 Tb 0.13872 0.92255 0.22181 0.0
Tb441 Tb 0.16331 0.89033 0.08203 0.0
C442 C 0.08806 0.90142 0.11027 0.0
C443 C 0.1326 0.94181 0.39725 0.0
C444 C 0.14771 0.9306 0.52405 0.0
C445 C 0.12249 0.95239 0.50962 0.0
C446 C 0.1151 0.95796 0.44691 0.0
C447 C 0.15793 0.92017 0.41118 0.0
C448 C 0.16539 0.91461 0.47399 0.0
C449 C 0.12304 0.94667 0.33137 0.0
O450 O 0.14925 0.87068 0.23256 0.0
O451 O 0.14386 0.8502 0.12788 0.0
O452 O 0.20263 0.88136 0.15208 0.0
O453 O 0.19179 0.92655 0.21956 0.0
O454 O 0.15595 0.85938 0.998 0.0
O455 O 0.19975 0.88907 1.01326 0.0
O456 O 0.17059 0.94264 0.08784 0.0
O457 O 0.12984 0.95974 0.15504 0.0
O458 O 0.09486 0.90345 0.17112 0.0
O459 O 0.11108 0.90309 0.06812 0.0
C460 C 0.14425 0.84611 0.18828 0.0
O461 O 0.14517 0.95933 0.29769 0.0
O462 O 0.10783 0.92219 0.29934 0.0
C463 C 0.21149 0.90268 0.20014 0.0
C464 C 0.17813 0.88031 0.90856 0.0
C465 C 0.16996 0.8991 0.78455 0.0
C466 C 0.19409 0.87613 0.79864 0.0
C467 C 0.19817 0.86692 0.86004 0.0
C468 C 0.15403 0.9033 0.8949 0.0
C469 C 0.14998 0.91262 0.8335 0.0
C470 C 0.18236 0.86977 0.97272 0.0
C471 C 0.14867 0.9644 0.10707 0.0
H472 H 0.10784 0.96452 0.54667 0.0
H473 H 0.09526 0.97451 0.43711 0.0
H474 H 0.17165 0.90733 0.37346 0.0
H475 H 0.18497 0.89771 0.48343 0.0
H476 H 0.20993 0.86535 0.76214 0.0
H477 H 0.21692 0.84916 0.86956 0.0
H478 H 0.13812 0.91378 0.93157 0.0
H479 H 0.13075 0.92988 0.82407 0.0
Tb480 Tb 0.86886 0.64405 0.09606 0.0
Tb481 Tb 0.90747 0.63371 0.23169 0.0
C482 C 0.88841 0.70381 0.19277 0.0
C483 C 0.85363 0.64974 0.92308 0.0
C484 C 0.87289 0.6508 0.79665 0.0
C485 C 0.8402 0.65773 0.81357 0.0
C486 C 0.83068 0.65716 0.87621 0.0
C487 C 0.88649 0.64362 0.90673 0.0
C488 C 0.89599 0.64403 0.84406 0.0
C489 C 0.84243 0.64573 0.98725 0.0
O490 O 0.9212 0.636 0.07463 0.0
O491 O 0.94485 0.65107 0.17301 0.0
O492 O 0.91211 0.58993 0.16281 0.0
O493 O 0.86066 0.59652 0.12707 0.0
O494 O 0.94053 0.64857 0.30703 0.0
O495 O 0.91626 0.60146 0.30094 0.0
O496 O 0.85558 0.63097 0.25235 0.0
O497 O 0.82981 0.6511 0.16564 0.0
O498 O 0.88687 0.6919 0.13318 0.0
O499 O 0.89123 0.68497 0.23938 0.0
C500 C 0.94684 0.64526 0.11157 0.0
O501 O 0.85217 0.61906 1.01056 0.0
O502 O 0.84477 0.67116 1.02917 0.0
C503 C 0.88609 0.5776 0.13087 0.0
C504 C 0.92584 0.62862 0.40273 0.0
C505 C 0.90907 0.63863 0.53127 0.0
C506 C 0.94078 0.62795 0.51401 0.0
C507 C 0.94907 0.62303 0.45034 0.0
C508 C 0.8942 0.63942 0.41958 0.0
C509 C 0.88584 0.64427 0.48324 0.0
C510 C 0.93465 0.62264 0.33584 0.0
C511 C 0.82944 0.64205 0.22365 0.0
H512 H 0.82171 0.66248 0.77799 0.0
H513 H 0.80515 0.66164 0.88774 0.0
H514 H 0.90461 0.63772 0.94212 0.0
H515 H 0.92136 0.63871 0.83248 0.0
H516 H 0.95924 0.62349 0.54983 0.0
H517 H 0.97362 0.61471 0.43828 0.0
H518 H 0.87588 0.64376 0.38346 0.0
H519 H 0.86101 0.65183 0.49475 0.0
Tb520 Tb 0.17227 0.15126 0.99423 0.0
Tb521 Tb 0.14271 0.12295 0.85225 0.0
C522 C 0.14994 0.19867 0.89366 0.0
C523 C 0.19261 0.16067 0.1684 0.0
C524 C 0.18337 0.1449 0.29348 0.0
C525 C 0.18896 0.1775 0.28094 0.0
C526 C 0.19351 0.18525 0.21917 0.0
C527 C 0.18754 0.12799 0.18058 0.0
C528 C 0.1829 0.1202 0.24247 0.0
C529 C 0.19595 0.16994 0.10339 0.0
O530 O 0.11973 0.14099 1.00767 0.0
O531 O 0.1 0.1401 0.90439 0.0
O532 O 0.13258 0.0846 0.91481 0.0
O533 O 0.17377 0.09839 0.98899 0.0
O534 O 0.11202 0.12654 0.77221 0.0
O535 O 0.14637 0.08679 0.77497 0.0
O536 O 0.19534 0.11542 0.85747 0.0
O537 O 0.20953 0.16019 0.92398 0.0
O538 O 0.15198 0.19284 0.95308 0.0
O539 O 0.15367 0.17532 0.84706 0.0
C540 C 0.09534 0.14227 0.96552 0.0
O541 O 0.21035 0.14909 0.0628 0.0
O542 O 0.16994 0.18265 0.07842 0.0
C543 C 0.15077 0.07822 0.96447 0.0
C544 C 0.13679 0.10744 0.67593 0.0
C545 C 0.15501 0.11791 0.55193 0.0
C546 C 0.14429 0.08684 0.56586 0.0
C547 C 0.13522 0.0817 0.62723 0.0
C548 C 0.14812 0.13835 0.66244 0.0
C549 C 0.15692 0.14356 0.60101 0.0
C550 C 0.12583 0.10188 0.73985 0.0
C551 C 0.21619 0.13896 0.87551 0.0
H552 H 0.18976 0.1971 0.31901 0.0
H553 H 0.19743 0.21061 0.21094 0.0
H554 H 0.18671 0.10856 0.14219 0.0
H555 H 0.17811 0.09494 0.25011 0.0
H556 H 0.14212 0.06671 0.52896 0.0
H557 H 0.12653 0.05768 0.63647 0.0
H558 H 0.14982 0.15858 0.69921 0.0
H559 H 0.16524 0.16771 0.59181 0.0
Tb560 Tb 0.63415 0.41675 0.72222 0.0
Tb561 Tb 0.65903 0.38592 0.5824 0.0
C562 C 0.58387 0.39471 0.61279 0.0
C563 C 0.62619 0.43712 0.89645 0.0
C564 C 0.63897 0.42634 1.02402 0.0
C565 C 0.62064 0.45367 1.00859 0.0
C566 C 0.61424 0.45892 0.9454 0.0
C567 C 0.64534 0.41034 0.91147 0.0
C568 C 0.65173 0.40504 0.9747 0.0
C569 C 0.61735 0.44185 0.83029 0.0
O570 O 0.64366 0.36458 0.7333 0.0
O571 O 0.64316 0.34416 0.62797 0.0
O572 O 0.69916 0.3763 0.64964 0.0
O573 O 0.68735 0.41744 0.72683 0.0
O574 O 0.65092 0.3559 0.4974 0.0
O575 O 0.69446 0.386 0.51213 0.0
O576 O 0.66958 0.43768 0.59463 0.0
O577 O 0.62597 0.45374 0.65412 0.0
O578 O 0.59132 0.39525 0.67301 0.0
O579 O 0.60649 0.39884 0.57083 0.0
C580 C 0.64143 0.33997 0.68819 0.0
O581 O 0.6401 0.45404 0.79736 0.0
O582 O 0.6021 0.41744 0.79804 0.0
C583 C 0.70718 0.3948 0.70221 0.0
C584 C 0.67215 0.37741 0.40807 0.0
C585 C 0.66163 0.396 0.28467 0.0
C586 C 0.67957 0.36759 0.29479 0.0
C587 C 0.68469 0.35837 0.35587 0.0
C588 C 0.65465 0.40609 0.39853 0.0
C589 C 0.64949 0.41534 0.33735 0.0
C590 C 0.67704 0.36667 0.47175 0.0
C591 C 0.64722 0.45942 0.61068 0.0
H592 H 0.61115 0.47097 0.0454 0.0
H593 H 0.59959 0.47984 0.93476 0.0
H594 H 0.65485 0.39325 0.8743 0.0
H595 H 0.66594 0.38379 0.98501 0.0
H596 H 0.68912 0.35212 0.25528 0.0
H597 H 0.69824 0.33615 0.3623 0.0
H598 H 0.6449 0.42122 0.43834 0.0
H599 H 0.63613 0.4377 0.33128 0.0
Tb600 Tb 0.37579 0.88069 0.47366 0.0
Tb601 Tb 0.40793 0.90273 0.34322 0.0
C602 C 0.39738 0.82951 0.36613 0.0
C603 C 0.35688 0.87217 0.64167 0.0
C604 C 0.36908 0.8861 0.77284 0.0
C605 C 0.34088 0.86828 0.74988 0.0
C606 C 0.3348 0.86146 0.68483 0.0
C607 C 0.38501 0.89005 0.66427 0.0
C608 C 0.39108 0.89695 0.72929 0.0
C609 C 0.35081 0.86382 0.57343 0.0
O610 O 0.42726 0.89342 0.50071 0.0
O611 O 0.44944 0.88927 0.40127 0.0
O612 O 0.41509 0.94526 0.41373 0.0
O613 O 0.37595 0.93359 0.48492 0.0
O614 O 0.43797 0.89129 0.26524 0.0
O615 O 0.41174 0.93699 0.27658 0.0
O616 O 0.356 0.91335 0.33832 0.0
O617 O 0.33748 0.87385 0.39732 0.0
O618 O 0.39932 0.83851 0.42664 0.0
O619 O 0.39234 0.85104 0.32497 0.0
C620 C 0.45265 0.89112 0.4631 0.0
O621 O 0.33921 0.88715 0.542 0.0
O622 O 0.37431 0.848 0.54343 0.0
C623 C 0.39707 0.95365 0.46337 0.0
C624 C 0.41982 0.91369 0.17249 0.0
C625 C 0.40107 0.90663 0.0431 0.0
C626 C 0.43068 0.92259 0.06381 0.0
C627 C 0.43991 0.92613 0.12792 0.0
C628 C 0.3903 0.89757 0.15224 0.0
C629 C 0.38105 0.89397 0.08799 0.0
C630 C 0.43004 0.91787 0.23971 0.0
C631 C 0.33249 0.89404 0.35345 0.0
H632 H 0.32348 0.85967 0.78228 0.0
H633 H 0.31299 0.84758 0.66822 0.0
H634 H 0.40251 0.89823 0.63162 0.0
H635 H 0.41335 0.91014 0.7455 0.0
H636 H 0.44699 0.93194 1.0303 0.0
H637 H 0.46286 0.9385 0.1427 0.0
H638 H 0.37446 0.88781 0.18609 0.0
H639 H 0.35811 0.88155 0.07341 0.0
C640 C 0.11786 0.6568 0.71123 0.0
C641 C 0.15088 0.65568 0.733 0.0
C642 C 0.1096 0.65321 0.64651 0.0
C643 C 0.13405 0.64862 0.60101 0.0
H644 H 0.09818 0.66032 0.74453 0.0
H645 H 0.08386 0.65398 0.63191 0.0
S646 S 0.22399 0.64255 0.63259 0.0
N647 N 0.2081 0.64862 0.70335 0.0
N648 N 0.1925 0.64248 0.58181 0.0
C649 C 0.16715 0.64781 0.62187 0.0
C650 C 0.17559 0.65122 0.68779 0.0
C651 C 0.61954 0.88169 0.92668 0.0
C652 C 0.64213 0.89293 0.97545 0.0
C653 C 0.62835 0.87931 0.86307 0.0
C654 C 0.66009 0.88819 0.84549 0.0
H655 H 0.59481 0.87464 0.9378 0.0
H656 H 0.6101 0.87045 0.82731 0.0
S657 S 0.72785 0.92078 0.955 0.0
N658 N 0.69736 0.91387 1.00176 0.0
N659 N 0.71384 0.90975 0.88242 0.0
C660 C 0.68295 0.89943 0.89389 0.0
C661 C 0.674 0.90171 0.9587 0.0
C662 C 0.37463 0.43286 0.20373 0.0
C663 C 0.36945 0.40047 0.21813 0.0
C664 C 0.38094 0.4399 0.14177 0.0
C665 C 0.38243 0.41484 0.09152 0.0
H666 H 0.37346 0.45301 0.24056 0.0
H667 H 0.3844 0.46525 0.13308 0.0
S668 S 0.3736 0.32567 0.10512 0.0
N669 N 0.36809 0.34296 0.17744 0.0
N670 N 0.38011 0.35608 0.06157 0.0
C671 C 0.37775 0.38231 0.10552 0.0
C672 C 0.37125 0.37517 0.16853 0.0
C673 C 0.91922 0.1311 0.45043 0.0
C674 C 0.89537 0.11603 0.48477 0.0
C675 C 0.91287 0.13774 0.38783 0.0
C676 C 0.88244 0.12948 0.35692 0.0
H677 H 0.9428 0.1384 0.47254 0.0
H678 H 0.93177 0.15 0.36384 0.0
S679 S 0.81286 0.08681 0.42407 0.0
N680 N 0.84085 0.09128 0.48212 0.0
N681 N 0.82898 0.10347 0.36433 0.0
C682 C 0.85861 0.11376 0.39032 0.0
C683 C 0.86506 0.10711 0.45419 0.0
C684 C 0.17453 0.40394 0.3967 0.0
C685 C 0.15178 0.39239 0.34838 0.0
C686 C 0.16596 0.40666 0.4604 0.0
C687 C 0.13425 0.39808 0.47836 0.0
H688 H 0.19895 0.41173 0.38515 0.0
H689 H 0.18407 0.41634 0.49577 0.0
S690 S 0.06666 0.36337 0.37104 0.0
N691 N 0.09691 0.36999 0.32352 0.0
N692 N 0.08074 0.37543 0.44315 0.0
C693 C 0.11152 0.38573 0.43077 0.0
C694 C 0.12028 0.38281 0.3659 0.0
C695 C 0.85441 0.90397 0.66889 0.0
C696 C 0.87935 0.90524 0.71659 0.0
C697 C 0.86126 0.91022 0.60676 0.0
C698 C 0.89329 0.91833 0.58976 0.0
H699 H 0.82925 0.89827 0.67966 0.0
H700 H 0.84126 0.90898 0.57184 0.0
S701 S 0.96791 0.92285 0.69484 0.0
N702 N 0.93789 0.91356 0.74081 0.0
N703 N 0.95043 0.92607 0.62478 0.0
C704 C 0.91847 0.91966 0.63668 0.0
C705 C 0.91159 0.91297 0.69979 0.0
C706 C 0.36702 0.65293 0.9054 0.0
C707 C 0.37943 0.63338 0.85323 0.0
C708 C 0.37153 0.64426 0.96734 0.0
C709 C 0.38861 0.61563 0.97979 0.0
H710 H 0.35426 0.67553 0.89845 0.0
H711 H 0.36218 0.66051 1.00595 0.0
S712 S 0.42263 0.55398 0.85943 0.0
N713 N 0.40741 0.58274 0.81805 0.0
N714 N 0.4157 0.5664 0.93407 0.0
C715 C 0.40034 0.59538 0.92793 0.0
C716 C 0.39581 0.60424 0.86488 0.0
C717 C 0.66607 0.14158 0.1219 0.0
C718 C 0.63318 0.1399 0.09929 0.0
C719 C 0.67371 0.14588 0.18688 0.0
C720 C 0.64875 0.14891 0.23175 0.0
H721 H 0.68606 0.13868 0.08914 0.0
H722 H 0.6994 0.14597 0.20208 0.0
S723 S 0.55872 0.14991 0.19627 0.0
N724 N 0.57549 0.14388 0.1263 0.0
N725 N 0.58976 0.15259 0.24835 0.0
C726 C 0.61574 0.14838 0.20951 0.0
C727 C 0.60799 0.14374 0.14337 0.0
C728 C 0.88806 0.42326 0.37968 0.0
C729 C 0.8865 0.39234 0.34471 0.0
C730 C 0.89606 0.42637 0.44439 0.0
C731 C 0.90305 0.3987 0.47654 0.0
H732 H 0.88271 0.44521 0.3569 0.0
H733 H 0.89646 0.45067 0.46956 0.0
S734 S 0.90421 0.31236 0.40517 0.0
N735 N 0.89343 0.33362 0.34597 0.0
N736 N 0.90918 0.3394 0.46763 0.0
C737 C 0.90181 0.36761 0.44189 0.0
C738 C 0.89338 0.36445 0.37597 0.0
C739 C 0.40282 0.14454 0.20774 0.0
C740 C 0.36994 0.144 0.22693 0.0
C741 C 0.41062 0.14014 0.14369 0.0
C742 C 0.38588 0.13498 0.09601 0.0
H743 H 0.42273 0.14892 0.24252 0.0
H744 H 0.43628 0.14122 0.13138 0.0
S745 S 0.29603 0.12915 0.12128 0.0
N746 N 0.31249 0.13646 0.19314 0.0
N747 N 0.32714 0.12811 0.07274 0.0
C748 C 0.35289 0.13406 0.1145 0.0
C749 C 0.34493 0.13857 0.17986 0.0
C750 C 0.65808 0.59555 0.94055 0.0
C751 C 0.64785 0.62112 0.9849 0.0
C752 C 0.6653 0.60126 0.87829 0.0
C753 C 0.66278 0.63281 0.85788 0.0
H754 H 0.66093 0.57095 0.95425 0.0
H755 H 0.67337 0.5809 0.84612 0.0
S756 S 0.63423 0.7076 0.95317 0.0
N757 N 0.6335 0.67882 1.00215 0.0
N758 N 0.64751 0.68954 0.88586 0.0
C759 C 0.65215 0.65847 0.90134 0.0
C760 C 0.64462 0.65265 0.96455 0.0
C761 C 0.15773 0.89081 0.60521 0.0
C762 C 0.15451 0.92346 0.59075 0.0
C763 C 0.16291 0.88326 0.66768 0.0
C764 C 0.16505 0.90801 0.71851 0.0
H765 H 0.15556 0.87081 0.56804 0.0
H766 H 0.16464 0.85772 0.67635 0.0
S767 S 0.16137 0.99759 0.70585 0.0
N768 N 0.156 0.9809 0.63241 0.0
N769 N 0.16556 0.96668 0.74959 0.0
C770 C 0.1625 0.9408 0.70468 0.0
C771 C 0.15729 0.94852 0.641 0.0
C772 C 0.89954 0.62127 0.70248 0.0
C773 C 0.88252 0.64888 0.72931 0.0
C774 C 0.9081 0.61829 0.63873 0.0
C775 C 0.90007 0.64282 0.59911 0.0
H776 H 0.90576 0.60147 0.73072 0.0
H777 H 0.92064 0.59628 0.62005 0.0
S778 S 0.85815 0.7213 0.64764 0.0
N779 N 0.85952 0.70204 0.71221 0.0
N780 N 0.8758 0.69658 0.59258 0.0
C781 C 0.88357 0.67084 0.62565 0.0
C782 C 0.87477 0.67383 0.69059 0.0
C783 C 0.14845 0.15072 0.45889 0.0
C784 C 0.16289 0.12407 0.48601 0.0
C785 C 0.15515 0.15709 0.39689 0.0
C786 C 0.17676 0.13721 0.35929 0.0
H787 H 0.13142 0.16658 0.48556 0.0
H788 H 0.14293 0.1776 0.378 0.0
S789 S 0.22283 0.06566 0.40969 0.0
N790 N 0.20079 0.07835 0.47141 0.0
N791 N 0.21382 0.09055 0.35531 0.0
C792 C 0.19167 0.11064 0.38612 0.0
C793 C 0.18465 0.10404 0.44926 0.0
C794 C 0.68139 0.40459 0.17647 0.0
C795 C 0.65544 0.405 0.21913 0.0
C796 C 0.67595 0.41177 0.11383 0.0
C797 C 0.64433 0.41966 0.09123 0.0
H798 H 0.70618 0.39876 0.19169 0.0
H799 H 0.69673 0.41127 0.0829 0.0
S800 S 0.56761 0.4219 0.18244 0.0
N801 N 0.59667 0.41261 0.23335 0.0
N802 N 0.58645 0.42603 0.11592 0.0
C803 C 0.61815 0.42004 0.13332 0.0
C804 C 0.62369 0.41274 0.19709 0.0
C805 C 0.38208 0.87135 0.9456 0.0
C806 C 0.39162 0.9024 0.97463 0.0
C807 C 0.37447 0.86641 0.8806 0.0
C808 C 0.3761 0.89233 0.84205 0.0
H809 H 0.38121 0.85051 0.97306 0.0
H810 H 0.36795 0.84192 0.86013 0.0
S811 S 0.39634 0.97906 0.89599 0.0
N812 N 0.39994 0.95995 0.96055 0.0
N813 N 0.38569 0.95064 0.83851 0.0
C814 C 0.38478 0.92366 0.87074 0.0
C815 C 0.39251 0.9287 0.93692 0.0
C816 C 0.11667 0.75824 0.16402 0.0
C817 C 0.13606 0.74267 0.20766 0.0
C818 C 0.11782 0.79206 0.16215 0.0
C819 C 0.13859 0.8121 0.20359 0.0
H820 H 0.1018 0.74397 0.12827 0.0
H821 H 0.10364 0.80234 0.1251 0.0
S822 S 0.19267 0.78395 0.33041 0.0
N823 N 0.17508 0.74995 0.2967 0.0
N824 N 0.17746 0.81424 0.29287 0.0
C825 C 0.15656 0.79733 0.25058 0.0
C826 C 0.15526 0.76241 0.25266 0.0
C827 C 0.53918 0.92092 0.50045 0.0
C828 C 0.55718 0.89183 0.48783 0.0
C829 C 0.50445 0.92037 0.50063 0.0
C830 C 0.48682 0.8907 0.48872 0.0
H831 H 0.55173 0.9444 0.50381 0.0
H832 H 0.49134 0.94345 0.50412 0.0
S833 S 0.5227 0.80773 0.46123 0.0
N834 N 0.55499 0.83254 0.46935 0.0
N835 N 0.49006 0.83151 0.47073 0.0
C836 C 0.50473 0.8614 0.48197 0.0
C837 C 0.53988 0.86196 0.48129 0.0
C838 C 0.35714 0.28848 0.68512 0.0
C839 C 0.38155 0.30997 0.71312 0.0
C840 C 0.35908 0.25468 0.68929 0.0
C841 C 0.38565 0.24096 0.72114 0.0
H842 H 0.33732 0.2977 0.65675 0.0
H843 H 0.34087 0.23886 0.66339 0.0
S844 S 0.45477 0.28683 0.80625 0.0
N845 N 0.43185 0.31556 0.77781 0.0
N846 N 0.43587 0.25158 0.78442 0.0
C847 C 0.40912 0.26229 0.75288 0.0
C848 C 0.40696 0.29697 0.74918 0.0
C849 C 1.00765 0.17135 0.96255 0.0
C850 C 0.99022 0.14574 0.98627 0.0
C851 C 0.04215 0.17154 0.96175 0.0
C852 C 0.06073 0.14624 0.98502 0.0
H853 H 0.99441 0.1902 0.94013 0.0
H854 H 0.0543 0.19049 0.93875 0.0
S855 S 0.02734 0.07457 0.05587 0.0
N856 N 0.99431 0.09535 1.03687 0.0
N857 N 0.05933 0.09588 1.03584 0.0
C858 C 0.04385 0.12174 1.0131 0.0
C859 C 1.00851 0.12147 1.0137 0.0
C860 C 0.15711 0.28365 0.83553 0.0
C861 C 0.13996 0.30299 0.88238 0.0
C862 C 0.15877 0.24915 0.83576 0.0
C863 C 0.14288 0.23318 0.88229 0.0
H864 H 0.17099 0.29533 0.80117 0.0
H865 H 0.17407 0.23527 0.80194 0.0
S866 S 0.09036 0.2722 1.00839 0.0
N867 N 0.10458 0.30298 0.97262 0.0
N868 N 0.10566 0.23897 0.97018 0.0
C869 C 0.1234 0.25215 0.92551 0.0
C870 C 0.1225 0.28684 0.92639 0.0
C871 C 0.03406 0.91877 0.06284 0.0
C872 C 0.05305 0.89524 0.0913 0.0
C873 C 0.99923 0.91759 0.06278 0.0
C874 C 0.98266 0.89288 0.09125 0.0
H875 H 0.04606 0.93956 0.04537 0.0
H876 H 0.9854 0.93754 0.04532 0.0
S877 S 0.02124 0.82336 0.16387 0.0
N878 N 0.05263 0.84493 0.14232 0.0
N879 N 0.98783 0.84258 0.1418 0.0
C880 C 1.00149 0.86791 0.1148 0.0
C881 C 0.03655 0.86914 0.11497 0.0
C882 C 0.42648 0.74424 0.38055 0.0
C883 C 0.39944 0.72507 0.35664 0.0
C884 C 0.42732 0.778 0.37575 0.0
C885 C 0.401 0.79404 0.34764 0.0
H886 H 0.44623 0.73339 0.40665 0.0
H887 H 0.44756 0.79211 0.3988 0.0
S888 S 0.3256 0.7544 0.27324 0.0
N889 N 0.34688 0.72383 0.29905 0.0
N890 N 0.34816 0.78781 0.29141 0.0
C891 C 0.37492 0.77482 0.31922 0.0
C892 C 0.3742 0.74014 0.32351 0.0
C893 C 0.53452 0.10673 0.60689 0.0
C894 C 0.553 0.13175 0.58366 0.0
C895 C 0.50013 0.10849 0.60967 0.0
C896 C 0.48278 0.13519 0.58879 0.0
H897 H 0.54698 0.08727 0.62894 0.0
H898 H 0.48725 0.09011 0.63302 0.0
S899 S 0.51881 0.2039 0.51303 0.0
N900 N 0.55103 0.18175 0.53141 0.0
N901 N 0.48601 0.1848 0.53595 0.0
C902 C 0.50047 0.15853 0.55914 0.0
C903 C 0.53575 0.15685 0.55669 0.0
C904 C 0.88754 0.24549 0.83047 0.0
C905 C 0.90324 0.23063 0.88016 0.0
C906 C 0.88753 0.28003 0.83002 0.0
C907 C 0.90268 0.3005 0.87985 0.0
H908 H 0.87363 0.23062 0.79403 0.0
H909 H 0.87382 0.29075 0.79292 0.0
S910 S 0.95108 0.27298 1.01562 0.0
N911 N 0.93851 0.23882 0.97457 0.0
N912 N 0.93589 0.30274 0.97711 0.0
C913 C 0.91996 0.2855 0.9274 0.0
C914 C 0.92097 0.25083 0.92658 0.0
C915 C 0.66946 0.78194 0.42364 0.0
C916 C 0.65142 0.79675 0.37691 0.0
C917 C 0.66996 0.74801 0.42489 0.0
C918 C 0.65241 0.72698 0.37952 0.0
H919 H 0.68273 0.79679 0.46108 0.0
H920 H 0.68357 0.73823 0.46327 0.0
S921 S 0.60391 0.75279 0.24296 0.0
N922 N 0.6176 0.78762 0.28065 0.0
N923 N 0.61853 0.72319 0.28308 0.0
C924 C 0.63592 0.74108 0.32987 0.0
C925 C 0.63541 0.77611 0.32856 0.0
C926 C 0.90905 0.75958 0.23764 0.0
C927 C 0.88438 0.73967 0.20555 0.0
C928 C 0.90852 0.79398 0.23652 0.0
C929 C 0.88328 0.80914 0.20336 0.0
H930 H 0.92992 0.74843 0.25986 0.0
H931 H 0.92902 0.80844 0.2578 0.0
S932 S 0.81074 0.76811 0.1202 0.0
N933 N 0.83243 0.73791 0.1461 0.0
N934 N 0.8314 0.80202 0.14413 0.0
C935 C 0.8574 0.78957 0.17538 0.0
C936 C 0.85797 0.75492 0.17643 0.0
C937 C 0.65353 0.25638 0.75065 0.0
C938 C 0.63374 0.23613 0.70728 0.0
C939 C 0.65429 0.29082 0.74851 0.0
C940 C 0.63558 0.30568 0.70243 0.0
H941 H 0.67018 0.24545 0.78315 0.0
H942 H 0.67131 0.30546 0.77974 0.0
S943 S 0.57654 0.26376 0.58477 0.0
N944 N 0.59187 0.23407 0.6234 0.0
N945 N 0.59464 0.29759 0.61699 0.0
C946 C 0.61415 0.2857 0.66227 0.0
C947 C 0.61286 0.25125 0.66536 0.0
C948 C 1.00228 0.42107 1.02223 0.0
C949 C 0.98412 0.39438 0.99189 0.0
C950 C 0.03718 0.42129 1.02192 0.0
C951 C 0.05455 0.39495 0.99083 0.0
H952 H 0.9896 0.44311 0.0403 0.0
H953 H 0.05027 0.44337 0.04025 0.0
S954 S 1.01843 0.31827 0.91056 0.0
N955 N 0.9865 0.34011 0.93561 0.0
N956 N 0.05097 0.34059 0.93494 0.0
C957 C 0.03658 0.36712 0.96619 0.0
C958 C 1.00162 0.36683 0.96673 0.0
C959 C 0.50371 0.60254 0.44929 0.0
C960 C 0.48582 0.62848 0.47976 0.0
C961 C 0.53816 0.60268 0.45125 0.0
C962 C 0.55612 0.62877 0.48371 0.0
H963 H 0.49097 0.58302 0.42014 0.0
H964 H 0.55084 0.58344 0.42296 0.0
S965 S 0.52101 0.70132 0.57541 0.0
N966 N 0.4884 0.67978 0.5474 0.0
N967 N 0.5536 0.68016 0.55061 0.0
C968 C 0.53866 0.65371 0.51829 0.0
C969 C 0.50332 0.65352 0.51649 0.0
C970 C 0.4957 0.41244 0.5628 0.0
C971 C 0.4782 0.39071 0.59715 0.0
C972 C 0.53053 0.41173 0.56178 0.0
C973 C 0.54851 0.38942 0.59541 0.0
H974 H 0.4827 0.43165 0.5411 0.0
H975 H 0.54339 0.43043 0.53935 0.0
S976 S 0.5135 0.32479 0.68474 0.0
N977 N 0.48105 0.3439 0.65821 0.0
N978 N 0.54573 0.3433 0.65846 0.0
C979 C 0.53083 0.36609 0.62533 0.0
C980 C 0.49584 0.36655 0.62564 0.0
C981 C 0.03241 0.6205 0.06349 0.0
C982 C 0.05034 0.64902 0.08526 0.0
C983 C 0.99764 0.62012 0.06398 0.0
C984 C 0.98005 0.64832 0.08611 0.0
H985 H 0.04524 0.59764 0.05242 0.0
H986 H 0.9848 0.59696 0.05331 0.0
S987 S 1.01535 0.73021 0.13797 0.0
N988 N 0.04769 0.70689 0.12148 0.0
N989 N 0.98282 0.70627 0.12203 0.0
C990 C 0.99764 0.67764 0.1013 0.0
C991 C 0.03272 0.67798 0.10091 0.0
C992 C 0.17448 0.53761 0.06383 0.0
C993 C 0.14479 0.55045 0.08821 0.0
C994 C 0.17487 0.51112 1.01695 0.0
C995 C 0.14557 0.49618 0.9914 0.0
H996 H 0.19791 0.54822 0.08097 0.0
H997 H 0.19857 0.50218 1.00073 0.0
S998 S 0.06091 0.52016 0.03835 0.0
N999 N 0.08503 0.54594 0.08321 0.0
N1000 N 0.08572 0.49621 0.99434 0.0
C1001 C 0.11554 0.50873 1.01493 0.0
C1002 C 0.11516 0.53569 0.0636 0.0
C1003 C 0.73861 0.88499 0.24655 0.0
C1004 C 0.73913 0.89348 0.31257 0.0
C1005 C 0.76719 0.88685 0.21079 0.0
C1006 C 0.79727 0.89824 0.23933 0.0
H1007 H 0.71582 0.877 0.22216 0.0
H1008 H 0.76544 0.88028 0.16025 0.0
S1009 S 0.81178 0.92313 0.41101 0.0
N1010 N 0.77243 0.9128 0.40499 0.0
N1011 N 0.82577 0.91723 0.33868 0.0
C1012 C 0.79811 0.90636 0.3056 0.0
C1013 C 0.76921 0.90374 0.34195 0.0
C1014 C 0.39875 0.48923 0.51443 0.0
C1015 C 0.39116 0.49241 0.57899 0.0
C1016 C 0.39814 0.51639 0.47873 0.0
C1017 C 0.38888 0.54758 0.50589 0.0
H1018 H 0.40467 0.46538 0.49107 0.0
H1019 H 0.40381 0.51267 0.42912 0.0
S1020 S 0.36718 0.56862 0.67383 0.0
N1021 N 0.37509 0.52899 0.66899 0.0
N1022 N 0.37306 0.57998 0.6027 0.0
C1023 C 0.38183 0.55104 0.57099 0.0
C1024 C 0.38318 0.52349 0.60735 0.0
C1025 C 0.79876 0.14231 0.76979 0.0
C1026 C 0.7999 0.14372 0.83638 0.0
C1027 C 0.76879 0.14388 0.7353 0.0
C1028 C 0.73855 0.1462 0.76592 0.0
H1029 H 0.82127 0.13973 0.74387 0.0
H1030 H 0.76928 0.14194 0.68421 0.0
S1031 S 0.72785 0.15259 0.93966 0.0
N1032 N 0.76809 0.14945 0.93158 0.0
N1033 N 0.71179 0.15157 0.86734 0.0
C1034 C 0.73939 0.14854 0.83264 0.0
C1035 C 0.77 0.14759 0.86771 0.0
C1036 C 0.91637 0.53425 0.06115 0.0
C1037 C 0.8868 0.54688 0.08682 0.0
C1038 C 0.91618 0.50769 1.01326 0.0
C1039 C 0.88642 0.4928 0.98932 0.0
H1040 H 0.93974 0.54538 0.07709 0.0
H1041 H 0.9395 0.49854 0.99551 0.0
S1042 S 0.80232 0.51644 0.04134 0.0
N1043 N 0.8271 0.54178 0.08533 0.0
N1044 N 0.82665 0.49307 0.99547 0.0
C1045 C 0.85682 0.50529 1.01494 0.0
C1046 C 0.85704 0.53192 0.06358 0.0
C1047 C 0.26133 0.11231 0.81212 0.0
C1048 C 0.24619 0.14138 0.83731 0.0
C1049 C 0.28755 0.11279 0.77062 0.0
C1050 C 0.29936 0.14229 0.7507 0.0
H1051 H 0.25287 0.08881 0.82478 0.0
H1052 H 0.2987 0.08967 0.75387 0.0
S1053 S 0.26771 0.22536 0.80096 0.0
N1054 N 0.24469 0.20069 0.83855 0.0
N1055 N 0.29369 0.20155 0.75938 0.0
C1056 C 0.28421 0.17163 0.77468 0.0
C1057 C 0.2578 0.17119 0.81832 0.0
C1058 C 0.67637 0.52618 0.51368 0.0
C1059 C 0.64718 0.54044 0.49224 0.0
C1060 C 0.6758 0.5009 0.55339 0.0
C1061 C 0.64605 0.48897 0.575 0.0
H1062 H 0.70009 0.53477 0.49978 0.0
H1063 H 0.6991 0.49058 0.56739 0.0
S1064 S 0.56245 0.51793 0.53361 0.0
N1065 N 0.5874 0.54072 0.49592 0.0
N1066 N 0.58635 0.49323 0.57133 0.0
C1067 C 0.61653 0.50302 0.5544 0.0
C1068 C 0.61709 0.52861 0.51276 0.0
C1069 C 0.28366 0.86727 0.29135 0.0
C1070 C 0.3004 0.89571 0.31815 0.0
C1071 C 0.25566 0.86935 0.2508 0.0
C1072 C 0.24321 0.89994 0.23642 0.0
H1073 H 0.29273 0.84332 0.30046 0.0
H1074 H 0.24329 0.84694 0.23173 0.0
S1075 S 0.27779 0.98153 0.29566 0.0
N1076 N 0.3022 0.95519 0.32757 0.0
N1077 N 0.2499 0.95911 0.25302 0.0
C1078 C 0.25967 0.92838 0.26359 0.0
C1079 C 0.28813 0.92626 0.30393 0.0
C1080 C 0.6212 1.00236 0.51129 0.0
C1081 C 0.65035 0.99106 0.48194 0.0
C1082 C 0.6217 0.02895 0.55922 0.0
C1083 C 0.65137 0.04527 0.57952 0.0
H1084 H 0.59801 0.99005 0.49843 0.0
H1085 H 0.59868 0.03692 0.58004 0.0
S1086 S 0.73432 0.02561 0.51629 0.0
N1087 N 0.70942 0.999 0.4757 0.0
N1088 N 0.71059 0.0479 0.56525 0.0
C1089 C 0.68052 0.03422 0.54985 0.0
C1090 C 0.67994 1.0075 0.50129 0.0
C1091 C 0.26486 0.41369 0.84198 0.0
C1092 C 0.23666 0.39602 0.81945 0.0
C1093 C 0.29229 0.41584 0.80368 0.0
C1094 C 0.29284 0.40009 0.74143 0.0
H1095 H 0.26524 0.42707 0.88853 0.0
H1096 H 0.31317 0.43031 0.82321 0.0
S1097 S 0.22577 0.34808 0.66301 0.0
N1098 N 0.21132 0.36084 0.73295 0.0
N1099 N 0.26297 0.36433 0.66129 0.0
C1100 C 0.26515 0.38117 0.71952 0.0
C1101 C 0.23706 0.37935 0.75838 0.0
C1102 C 0.87843 0.99024 1.01168 0.0
C1103 C 0.89398 0.99115 0.07219 0.0
C1104 C 0.88087 1.01642 0.97412 0.0
C1105 C 0.89867 0.04484 0.99559 0.0
H1106 H 0.8636 0.96931 0.99326 0.0
H1107 H 0.86753 1.01495 0.92912 0.0
S1108 S 0.94305 0.06072 0.15041 0.0
N1109 N 0.92808 0.02327 0.15107 0.0
N1110 N 0.93119 0.07308 0.08181 0.0
C1111 C 0.91439 0.04624 0.05566 0.0
C1112 C 0.91251 0.01925 0.09351 0.0
C1113 C 0.26465 0.64353 0.23764 0.0
C1114 C 0.23492 0.65052 0.26824 0.0
C1115 C 0.29434 0.64116 0.27237 0.0
C1116 C 0.29567 0.64631 0.3389 0.0
H1117 H 0.26478 0.63846 0.18672 0.0
H1118 H 0.31648 0.63492 0.24686 0.0
S1119 S 0.2254 0.66911 0.44115 0.0
N1120 N 0.20904 0.66505 0.36885 0.0
N1121 N 0.26507 0.66133 0.43359 0.0
C1122 C 0.26651 0.65518 0.36984 0.0
C1123 C 0.2361 0.657 0.33464 0.0
C1124 C 0.39527 1.01492 0.46985 0.0
C1125 C 0.40094 0.98627 0.49932 0.0
C1126 C 0.39338 0.04554 0.50567 0.0
C1127 C 0.39775 0.0487 0.57209 0.0
H1128 H 0.39075 1.01349 0.41925 0.0
H1129 H 0.38803 0.06691 0.48109 0.0
S1130 S 0.41582 0.98104 0.67083 0.0
N1131 N 0.41247 0.96291 0.59807 0.0
N1132 N 0.40991 0.0205 0.66504 0.0
C1133 C 0.40505 0.02035 0.6016 0.0
C1134 C 0.40631 0.98913 0.56529 0.0
C1135 C 0.79802 0.65323 0.3236 0.0
C1136 C 0.79816 0.6425 0.25851 0.0
C1137 C 0.76956 0.65076 0.35937 0.0
C1138 C 0.74034 0.63654 0.33186 0.0
H1139 H 0.82022 0.66347 0.34722 0.0
H1140 H 0.77076 0.65923 0.40923 0.0
S1141 S 0.72815 0.60447 0.16274 0.0
N1142 N 0.76663 0.6177 0.16791 0.0
N1143 N 0.71354 0.61203 0.23432 0.0
C1144 C 0.74024 0.62599 0.26642 0.0
C1145 C 0.76898 0.62924 0.22998 0.0
C1146 C 0.15351 1.01762 0.97043 0.0
C1147 C 0.1447 0.04877 0.9977 0.0
C1148 C 0.1539 0.99054 1.00616 0.0
C1149 C 0.14495 0.99338 0.07026 0.0
H1150 H 0.16168 1.01444 0.92219 0.0
H1151 H 0.16196 0.96724 0.98347 0.0
S1152 S 0.11734 0.06951 0.16175 0.0
N1153 N 0.12566 0.08096 0.0916 0.0
N1154 N 0.1249 0.02979 0.15769 0.0
C1155 C 0.13446 0.02415 0.09695 0.0
C1156 C 0.13484 0.0519 0.06099 0.0
C1157 C 0.73961 0.39625 0.80424 0.0
C1158 C 0.73864 0.39011 0.73771 0.0
C1159 C 0.76925 0.3951 0.83968 0.0
C1160 C 0.79928 0.38848 0.80993 0.0
H1161 H 0.71726 0.40252 0.82926 0.0
H1162 H 0.76882 0.40094 0.89042 0.0
S1163 S 0.81003 0.36826 0.63769 0.0
N1164 N 0.77011 0.37492 0.64417 0.0
N1165 N 0.82595 0.37356 0.71028 0.0
C1166 C 0.79852 0.38116 0.74368 0.0
C1167 C 0.7682 0.3817 0.70773 0.0
loop_
_geom_bond_atom_site_label_1
_geom_bond_atom_site_label_2
_geom_bond_distance
_geom_bond_site_symmetry_2
_ccdc_geom_bond_type
Tb0 C9 2.764 . S
Tb0 O10 2.325 . S
Tb0 O13 2.303 . S
Tb0 O17 2.322 . S
Tb0 O18 2.349 . S
Tb0 O21 2.415 . S
Tb0 O22 2.399 . S
Tb1 O11 2.322 . S
Tb1 O12 2.349 . S
Tb1 O14 2.415 1_554 S
Tb1 O15 2.399 1_554 S
Tb1 O16 2.325 . S
Tb1 O19 2.303 . S
Tb1 C30 2.764 1_554 S
C2 O18 1.261 . S
C2 O19 1.257 . S
C3 C6 1.358 . S
C3 C7 1.332 . S
C3 C9 1.504 . S
C4 C5 1.373 . S
C4 C8 1.308 . S
C5 C4 1.373 . S
C5 C6 1.429 . S
C5 H32 0.932 . S
C6 C3 1.358 . S
C6 C5 1.429 . S
C6 H33 0.930 . S
C7 C3 1.332 . S
C7 C8 1.394 . S
C7 H34 0.932 . S
C8 C4 1.308 . S
C8 C7 1.394 . S
C8 H35 0.929 . S
C9 Tb0 2.764 . S
C9 C3 1.504 . S
C9 O21 1.239 . S
C9 O22 1.263 . S
O10 Tb0 2.325 . S
O10 C20 1.236 . S
O11 Tb1 2.322 . S
O11 C20 1.257 . S
O12 Tb1 2.349 . S
O12 C23 1.261 . S
O13 Tb0 2.303 . S
O13 C23 1.257 . S
O14 Tb1 2.415 1_556 S
O14 C30 1.239 . S
O15 Tb1 2.399 1_556 S
O15 C30 1.263 . S
O16 Tb1 2.325 . S
O16 C31 1.236 . S
O17 Tb0 2.322 . S
O17 C31 1.257 . S
O18 Tb0 2.349 . S
O18 C2 1.261 . S
O19 Tb1 2.303 . S
O19 C2 1.257 . S
C20 O10 1.236 . S
C20 O11 1.257 . S
O21 Tb0 2.415 . S
O21 C9 1.239 . S
O22 Tb0 2.399 . S
O22 C9 1.263 . S
C23 O12 1.261 . S
C23 O13 1.257 . S
C24 C27 1.358 . S
C24 C28 1.332 . S
C24 C30 1.504 . S
C25 C26 1.373 . S
C25 C29 1.308 . S
C26 C25 1.373 . S
C26 C27 1.429 . S
C26 H36 0.932 . S
C27 C24 1.358 . S
C27 C26 1.429 . S
C27 H37 0.930 . S
C28 C24 1.332 . S
C28 C29 1.394 . S
C28 H38 0.932 . S
C29 C25 1.308 . S
C29 C28 1.394 . S
C29 H39 0.929 . S
C30 Tb1 2.764 1_556 S
C30 O14 1.239 . S
C30 O15 1.263 . S
C30 C24 1.504 . S
C31 O16 1.236 . S
C31 O17 1.257 . S
H32 C5 0.932 . S
H33 C6 0.930 . S
H34 C7 0.932 . S
H35 C8 0.929 . S
H36 C26 0.932 . S
H37 C27 0.930 . S
H38 C28 0.932 . S
H39 C29 0.929 . S
Tb40 C49 2.764 . S
Tb40 O50 2.325 . S
Tb40 O53 2.303 . S
Tb40 O57 2.322 . S
Tb40 O58 2.349 . S
Tb40 O61 2.415 . S
Tb40 O62 2.399 . S
Tb41 O51 2.322 . S
Tb41 O52 2.349 . S
Tb41 O54 2.415 . S
Tb41 O55 2.399 . S
Tb41 O56 2.325 . S
Tb41 O59 2.303 . S
Tb41 C70 2.764 . S
C42 O58 1.261 . S
C42 O59 1.257 . S
C43 C46 1.358 . S
C43 C47 1.332 . S
C43 C49 1.504 . S
C44 C45 1.373 . S
C44 C48 1.308 . S
C45 C44 1.373 . S
C45 C46 1.429 . S
C45 H72 0.932 . S
C46 C43 1.358 . S
C46 C45 1.429 . S
C46 H73 0.930 . S
C47 C43 1.332 . S
C47 C48 1.394 . S
C47 H74 0.932 . S
C48 C44 1.308 . S
C48 C47 1.394 . S
C48 H75 0.929 . S
C49 Tb40 2.764 . S
C49 C43 1.504 . S
C49 O61 1.239 . S
C49 O62 1.263 . S
O50 Tb40 2.325 . S
O50 C60 1.236 . S
O51 Tb41 2.322 . S
O51 C60 1.257 . S
O52 Tb41 2.349 . S
O52 C63 1.261 . S
O53 Tb40 2.303 . S
O53 C63 1.257 . S
O54 Tb41 2.415 . S
O54 C70 1.239 . S
O55 Tb41 2.399 . S
O55 C70 1.263 . S
O56 Tb41 2.325 . S
O56 C71 1.236 . S
O57 Tb40 2.322 . S
O57 C71 1.257 . S
O58 Tb40 2.349 . S
O58 C42 1.261 . S
O59 Tb41 2.303 . S
O59 C42 1.257 . S
C60 O50 1.236 . S
C60 O51 1.257 . S
O61 Tb40 2.415 . S
O61 C49 1.239 . S
O62 Tb40 2.399 . S
O62 C49 1.263 . S
C63 O52 1.261 . S
C63 O53 1.257 . S
C64 C67 1.358 . S
C64 C68 1.332 . S
C64 C70 1.504 . S
C65 C66 1.373 . S
C65 C69 1.308 . S
C66 C65 1.373 . S
C66 C67 1.429 . S
C66 H76 0.932 . S
C67 C64 1.358 . S
C67 C66 1.429 . S
C67 H77 0.930 . S
C68 C64 1.332 . S
C68 C69 1.394 . S
C68 H78 0.932 . S
C69 C65 1.308 . S
C69 C68 1.394 . S
C69 H79 0.929 . S
C70 Tb41 2.764 . S
C70 O54 1.239 . S
C70 O55 1.263 . S
C70 C64 1.504 . S
C71 O56 1.236 . S
C71 O57 1.257 . S
H72 C45 0.932 . S
H73 C46 0.930 . S
H74 C47 0.932 . S
H75 C48 0.929 . S
H76 C66 0.932 . S
H77 C67 0.930 . S
H78 C68 0.932 . S
H79 C69 0.929 . S
Tb80 C89 2.764 . S
Tb80 O90 2.325 . S
Tb80 O93 2.303 . S
Tb80 O97 2.322 . S
Tb80 O98 2.349 . S
Tb80 O101 2.415 . S
Tb80 O102 2.399 . S
Tb81 O91 2.322 . S
Tb81 O92 2.349 . S
Tb81 O94 2.415 . S
Tb81 O95 2.399 . S
Tb81 O96 2.325 . S
Tb81 O99 2.303 . S
Tb81 C110 2.764 . S
C82 O98 1.261 . S
C82 O99 1.257 . S
C83 C86 1.358 . S
C83 C87 1.332 . S
C83 C89 1.504 . S
C84 C85 1.373 . S
C84 C88 1.308 . S
C85 C84 1.373 . S
C85 C86 1.429 . S
C85 H112 0.932 . S
C86 C83 1.358 . S
C86 C85 1.429 . S
C86 H113 0.930 . S
C87 C83 1.332 . S
C87 C88 1.394 . S
C87 H114 0.932 . S
C88 C84 1.308 . S
C88 C87 1.394 . S
C88 H115 0.929 . S
C89 Tb80 2.764 . S
C89 C83 1.504 . S
C89 O101 1.239 . S
C89 O102 1.263 . S
O90 Tb80 2.325 . S
O90 C100 1.236 . S
O91 Tb81 2.322 . S
O91 C100 1.257 . S
O92 Tb81 2.349 . S
O92 C103 1.261 . S
O93 Tb80 2.303 . S
O93 C103 1.257 . S
O94 Tb81 2.415 . S
O94 C110 1.239 . S
O95 Tb81 2.399 . S
O95 C110 1.263 . S
O96 Tb81 2.325 . S
O96 C111 1.236 . S
O97 Tb80 2.322 . S
O97 C111 1.257 . S
O98 Tb80 2.349 . S
O98 C82 1.261 . S
O99 Tb81 2.303 . S
O99 C82 1.257 . S
C100 O90 1.236 . S
C100 O91 1.257 . S
O101 Tb80 2.415 . S
O101 C89 1.239 . S
O102 Tb80 2.399 . S
O102 C89 1.263 . S
C103 O92 1.261 . S
C103 O93 1.257 . S
C104 C107 1.358 . S
C104 C108 1.332 . S
C104 C110 1.504 . S
C105 C106 1.368 1_554 S
C105 C109 1.301 1_554 S
C106 C105 1.368 1_556 S
C106 C107 1.429 . S
C106 H116 0.932 1_556 S
C107 C104 1.358 . S
C107 C106 1.429 . S
C107 H117 0.930 . S
C108 C104 1.332 . S
C108 C109 1.394 . S
C108 H118 0.932 . S
C109 C105 1.301 1_556 S
C109 C108 1.394 . S
C109 H119 0.929 . S
C110 Tb81 2.764 . S
C110 O94 1.239 . S
C110 O95 1.263 . S
C110 C104 1.504 . S
C111 O96 1.236 . S
C111 O97 1.257 . S
H112 C85 0.932 . S
H113 C86 0.930 . S
H114 C87 0.932 . S
H115 C88 0.929 . S
H116 C106 0.932 1_554 S
H117 C107 0.930 . S
H118 C108 0.932 . S
H119 C109 0.929 . S
Tb120 C129 2.764 . S
Tb120 O130 2.325 1_554 S
Tb120 O133 2.303 1_554 S
Tb120 O137 2.322 1_554 S
Tb120 O138 2.349 1_554 S
Tb120 O141 2.415 . S
Tb120 O142 2.399 . S
Tb121 O131 2.322 . S
Tb121 O132 2.349 . S
Tb121 O134 2.415 . S
Tb121 O135 2.399 . S
Tb121 O136 2.325 . S
Tb121 O139 2.303 . S
Tb121 C150 2.764 . S
C122 O138 1.261 . S
C122 O139 1.257 . S
C123 C126 1.358 . S
C123 C127 1.332 . S
C123 C129 1.504 . S
C124 C125 1.373 . S
C124 C128 1.308 . S
C125 C124 1.373 . S
C125 C126 1.429 . S
C125 H152 0.932 . S
C126 C123 1.358 . S
C126 C125 1.429 . S
C126 H153 0.930 . S
C127 C123 1.332 . S
C127 C128 1.394 . S
C127 H154 0.932 . S
C128 C124 1.308 . S
C128 C127 1.394 . S
C128 H155 0.929 . S
C129 Tb120 2.764 . S
C129 C123 1.504 . S
C129 O141 1.239 . S
C129 O142 1.263 . S
O130 Tb120 2.325 1_556 S
O130 C140 1.236 . S
O131 Tb121 2.322 . S
O131 C140 1.257 . S
O132 Tb121 2.349 . S
O132 C143 1.261 . S
O133 Tb120 2.303 1_556 S
O133 C143 1.257 . S
O134 Tb121 2.415 . S
O134 C150 1.239 . S
O135 Tb121 2.399 . S
O135 C150 1.263 . S
O136 Tb121 2.325 . S
O136 C151 1.236 . S
O137 Tb120 2.322 1_556 S
O137 C151 1.257 . S
O138 Tb120 2.349 1_556 S
O138 C122 1.261 . S
O139 Tb121 2.303 . S
O139 C122 1.257 . S
C140 O130 1.236 . S
C140 O131 1.257 . S
O141 Tb120 2.415 . S
O141 C129 1.239 . S
O142 Tb120 2.399 . S
O142 C129 1.263 . S
C143 O132 1.261 . S
C143 O133 1.257 . S
C144 C147 1.358 . S
C144 C148 1.332 . S
C144 C150 1.504 . S
C145 C146 1.373 . S
C145 C149 1.308 . S
C146 C145 1.373 . S
C146 C147 1.429 . S
C146 H156 0.932 . S
C147 C144 1.358 . S
C147 C146 1.429 . S
C147 H157 0.930 . S
C148 C144 1.332 . S
C148 C149 1.394 . S
C148 H158 0.932 . S
C149 C145 1.308 . S
C149 C148 1.394 . S
C149 H159 0.929 . S
C150 Tb121 2.764 . S
C150 O134 1.239 . S
C150 O135 1.263 . S
C150 C144 1.504 . S
C151 O136 1.236 . S
C151 O137 1.257 . S
H152 C125 0.932 . S
H153 C126 0.930 . S
H154 C127 0.932 . S
H155 C128 0.929 . S
H156 C146 0.932 . S
H157 C147 0.930 . S
H158 C148 0.932 . S
H159 C149 0.929 . S
Tb160 C169 2.764 . S
Tb160 O170 2.325 . S
Tb160 O173 2.303 . S
Tb160 O177 2.322 . S
Tb160 O178 2.349 . S
Tb160 O181 2.415 . S
Tb160 O182 2.399 . S
Tb161 O171 2.322 . S
Tb161 O172 2.349 . S
Tb161 O174 2.415 1_556 S
Tb161 O175 2.399 1_556 S
Tb161 O176 2.325 . S
Tb161 O179 2.303 . S
Tb161 C190 2.764 1_556 S
C162 O178 1.261 . S
C162 O179 1.257 . S
C163 C166 1.358 . S
C163 C167 1.332 . S
C163 C169 1.504 . S
C164 C165 1.373 . S
C164 C168 1.308 . S
C165 C164 1.373 . S
C165 C166 1.429 . S
C165 H192 0.932 . S
C166 C163 1.358 . S
C166 C165 1.429 . S
C166 H193 0.930 . S
C167 C163 1.332 . S
C167 C168 1.394 . S
C167 H194 0.932 . S
C168 C164 1.308 . S
C168 C167 1.394 . S
C168 H195 0.929 . S
C169 Tb160 2.764 . S
C169 C163 1.504 . S
C169 O181 1.239 . S
C169 O182 1.263 . S
O170 Tb160 2.325 . S
O170 C180 1.236 . S
O171 Tb161 2.322 . S
O171 C180 1.257 . S
O172 Tb161 2.349 . S
O172 C183 1.261 . S
O173 Tb160 2.303 . S
O173 C183 1.257 . S
O174 Tb161 2.415 1_554 S
O174 C190 1.239 . S
O175 Tb161 2.399 1_554 S
O175 C190 1.263 . S
O176 Tb161 2.325 . S
O176 C191 1.236 . S
O177 Tb160 2.322 . S
O177 C191 1.257 . S
O178 Tb160 2.349 . S
O178 C162 1.261 . S
O179 Tb161 2.303 . S
O179 C162 1.257 . S
C180 O170 1.236 . S
C180 O171 1.257 . S
O181 Tb160 2.415 . S
O181 C169 1.239 . S
O182 Tb160 2.399 . S
O182 C169 1.263 . S
C183 O172 1.261 . S
C183 O173 1.257 . S
C184 C187 1.358 . S
C184 C188 1.332 . S
C184 C190 1.504 . S
C185 C186 1.373 . S
C185 C189 1.308 . S
C186 C185 1.373 . S
C186 C187 1.429 . S
C186 H196 0.932 . S
C187 C184 1.358 . S
C187 C186 1.429 . S
C187 H197 0.930 . S
C188 C184 1.332 . S
C188 C189 1.394 . S
C188 H198 0.932 . S
C189 C185 1.308 . S
C189 C188 1.394 . S
C189 H199 0.929 . S
C190 Tb161 2.764 1_554 S
C190 O174 1.239 . S
C190 O175 1.263 . S
C190 C184 1.504 . S
C191 O176 1.236 . S
C191 O177 1.257 . S
H192 C165 0.932 . S
H193 C166 0.930 . S
H194 C167 0.932 . S
H195 C168 0.929 . S
H196 C186 0.932 . S
H197 C187 0.930 . S
H198 C188 0.932 . S
H199 C189 0.929 . S
Tb200 C209 2.764 . S
Tb200 O210 2.325 . S
Tb200 O213 2.303 . S
Tb200 O217 2.322 . S
Tb200 O218 2.349 . S
Tb200 O221 2.415 . S
Tb200 O222 2.399 . S
Tb201 O211 2.322 . S
Tb201 O212 2.349 . S
Tb201 O214 2.415 1_554 S
Tb201 O215 2.399 1_554 S
Tb201 O216 2.325 . S
Tb201 O219 2.303 . S
Tb201 C230 2.764 1_554 S
C202 O218 1.261 . S
C202 O219 1.257 . S
C203 C206 1.358 . S
C203 C207 1.332 . S
C203 C209 1.504 . S
C204 C205 1.373 . S
C204 C208 1.308 . S
C205 C204 1.373 . S
C205 C206 1.429 . S
C205 H232 0.932 . S
C206 C203 1.358 . S
C206 C205 1.429 . S
C206 H233 0.930 . S
C207 C203 1.332 . S
C207 C208 1.394 . S
C207 H234 0.932 . S
C208 C204 1.308 . S
C208 C207 1.394 . S
C208 H235 0.929 . S
C209 Tb200 2.764 . S
C209 C203 1.504 . S
C209 O221 1.239 . S
C209 O222 1.263 . S
O210 Tb200 2.325 . S
O210 C220 1.236 . S
O211 Tb201 2.322 . S
O211 C220 1.257 . S
O212 Tb201 2.349 . S
O212 C223 1.261 . S
O213 Tb200 2.303 . S
O213 C223 1.257 . S
O214 Tb201 2.415 1_556 S
O214 C230 1.239 . S
O215 Tb201 2.399 1_556 S
O215 C230 1.263 . S
O216 Tb201 2.325 . S
O216 C231 1.236 . S
O217 Tb200 2.322 . S
O217 C231 1.257 . S
O218 Tb200 2.349 . S
O218 C202 1.261 . S
O219 Tb201 2.303 . S
O219 C202 1.257 . S
C220 O210 1.236 . S
C220 O211 1.257 . S
O221 Tb200 2.415 . S
O221 C209 1.239 . S
O222 Tb200 2.399 . S
O222 C209 1.263 . S
C223 O212 1.261 . S
C223 O213 1.257 . S
C224 C227 1.358 . S
C224 C228 1.332 . S
C224 C230 1.504 . S
C225 C226 1.373 . S
C225 C229 1.308 . S
C226 C225 1.373 . S
C226 C227 1.429 . S
C226 H236 0.932 . S
C227 C224 1.358 . S
C227 C226 1.429 . S
C227 H237 0.930 . S
C228 C224 1.332 . S
C228 C229 1.394 . S
C228 H238 0.932 . S
C229 C225 1.308 . S
C229 C228 1.394 . S
C229 H239 0.929 . S
C230 Tb201 2.764 1_556 S
C230 O214 1.239 . S
C230 O215 1.263 . S
C230 C224 1.504 . S
C231 O216 1.236 . S
C231 O217 1.257 . S
H232 C205 0.932 . S
H233 C206 0.930 . S
H234 C207 0.932 . S
H235 C208 0.929 . S
H236 C226 0.932 . S
H237 C227 0.930 . S
H238 C228 0.932 . S
H239 C229 0.929 . S
Tb240 C249 2.764 . S
Tb240 O250 2.325 . S
Tb240 O253 2.303 . S
Tb240 O257 2.322 . S
Tb240 O258 2.349 . S
Tb240 O261 2.415 . S
Tb240 O262 2.399 . S
Tb241 O251 2.322 . S
Tb241 O252 2.349 . S
Tb241 O254 2.415 . S
Tb241 O255 2.399 . S
Tb241 O256 2.325 . S
Tb241 O259 2.303 . S
Tb241 C270 2.764 . S
C242 O258 1.261 . S
C242 O259 1.257 . S
C243 C246 1.358 . S
C243 C247 1.332 . S
C243 C249 1.504 . S
C244 C245 1.373 . S
C244 C248 1.308 . S
C245 C244 1.373 . S
C245 C246 1.429 . S
C245 H272 0.932 . S
C246 C243 1.358 . S
C246 C245 1.429 . S
C246 H273 0.930 . S
C247 C243 1.332 . S
C247 C248 1.394 . S
C247 H274 0.932 . S
C248 C244 1.308 . S
C248 C247 1.394 . S
C248 H275 0.929 . S
C249 Tb240 2.764 . S
C249 C243 1.504 . S
C249 O261 1.239 . S
C249 O262 1.263 . S
O250 Tb240 2.325 . S
O250 C260 1.236 . S
O251 Tb241 2.322 . S
O251 C260 1.257 . S
O252 Tb241 2.349 . S
O252 C263 1.261 . S
O253 Tb240 2.303 . S
O253 C263 1.257 . S
O254 Tb241 2.415 . S
O254 C270 1.239 . S
O255 Tb241 2.399 . S
O255 C270 1.263 . S
O256 Tb241 2.325 . S
O256 C271 1.236 . S
O257 Tb240 2.322 . S
O257 C271 1.257 . S
O258 Tb240 2.349 . S
O258 C242 1.261 . S
O259 Tb241 2.303 . S
O259 C242 1.257 . S
C260 O250 1.236 . S
C260 O251 1.257 . S
O261 Tb240 2.415 . S
O261 C249 1.239 . S
O262 Tb240 2.399 . S
O262 C249 1.263 . S
C263 O252 1.261 . S
C263 O253 1.257 . S
C264 C267 1.358 . S
C264 C268 1.332 . S
C264 C270 1.504 . S
C265 C266 1.373 1_556 S
C265 C269 1.308 1_556 S
C266 C265 1.373 1_554 S
C266 C267 1.429 . S
C266 H276 0.932 1_554 S
C267 C264 1.358 . S
C267 C266 1.429 . S
C267 H277 0.930 . S
C268 C264 1.332 . S
C268 C269 1.394 . S
C268 H278 0.932 . S
C269 C265 1.308 1_554 S
C269 C268 1.394 . S
C269 H279 0.929 . S
C270 Tb241 2.764 . S
C270 O254 1.239 . S
C270 O255 1.263 . S
C270 C264 1.504 . S
C271 O256 1.236 . S
C271 O257 1.257 . S
H272 C245 0.932 . S
H273 C246 0.930 . S
H274 C247 0.932 . S
H275 C248 0.929 . S
H276 C266 0.932 1_556 S
H277 C267 0.930 . S
H278 C268 0.932 . S
H279 C269 0.929 . S
Tb280 C289 2.764 . S
Tb280 O290 2.325 . S
Tb280 O293 2.303 . S
Tb280 O297 2.322 . S
Tb280 O298 2.349 . S
Tb280 O301 2.415 . S
Tb280 O302 2.399 . S
Tb281 O291 2.322 . S
Tb281 O292 2.349 . S
Tb281 O294 2.415 . S
Tb281 O295 2.399 . S
Tb281 O296 2.325 . S
Tb281 O299 2.303 . S
Tb281 C310 2.764 . S
C282 O298 1.261 . S
C282 O299 1.257 . S
C283 C286 1.358 . S
C283 C287 1.332 . S
C283 C289 1.504 . S
C284 C285 1.373 1_554 S
C284 C288 1.308 1_554 S
C285 C284 1.373 1_556 S
C285 C286 1.429 . S
C285 H312 0.932 1_556 S
C286 C283 1.358 . S
C286 C285 1.429 . S
C286 H313 0.930 . S
C287 C283 1.332 . S
C287 C288 1.394 . S
C287 H314 0.932 . S
C288 C284 1.308 1_556 S
C288 C287 1.394 . S
C288 H315 0.929 1_556 S
C289 Tb280 2.764 . S
C289 C283 1.504 . S
C289 O301 1.239 . S
C289 O302 1.263 . S
O290 Tb280 2.325 . S
O290 C300 1.236 . S
O291 Tb281 2.322 . S
O291 C300 1.257 . S
O292 Tb281 2.349 . S
O292 C303 1.261 . S
O293 Tb280 2.303 . S
O293 C303 1.257 . S
O294 Tb281 2.415 . S
O294 C310 1.239 . S
O295 Tb281 2.399 . S
O295 C310 1.263 . S
O296 Tb281 2.325 . S
O296 C311 1.236 . S
O297 Tb280 2.322 . S
O297 C311 1.257 . S
O298 Tb280 2.349 . S
O298 C282 1.261 . S
O299 Tb281 2.303 . S
O299 C282 1.257 . S
C300 O290 1.236 . S
C300 O291 1.257 . S
O301 Tb280 2.415 . S
O301 C289 1.239 . S
O302 Tb280 2.399 . S
O302 C289 1.263 . S
C303 O292 1.261 . S
C303 O293 1.257 . S
C304 C307 1.358 . S
C304 C308 1.332 . S
C304 C310 1.504 . S
C305 C306 1.373 . S
C305 C309 1.308 . S
C306 C305 1.373 . S
C306 C307 1.429 . S
C306 H316 0.932 . S
C307 C304 1.358 . S
C307 C306 1.429 . S
C307 H317 0.930 . S
C308 C304 1.332 . S
C308 C309 1.394 . S
C308 H318 0.932 . S
C309 C305 1.308 . S
C309 C308 1.394 . S
C309 H319 0.929 . S
C310 Tb281 2.764 . S
C310 O294 1.239 . S
C310 O295 1.263 . S
C310 C304 1.504 . S
C311 O296 1.236 . S
C311 O297 1.257 . S
H312 C285 0.932 1_554 S
H313 C286 0.930 . S
H314 C287 0.932 . S
H315 C288 0.929 1_554 S
H316 C306 0.932 . S
H317 C307 0.930 . S
H318 C308 0.932 . S
H319 C309 0.929 . S
Tb320 C329 2.764 1_556 S
Tb320 O330 2.325 . S
Tb320 O333 2.303 . S
Tb320 O337 2.322 . S
Tb320 O338 2.349 . S
Tb320 O341 2.415 1_556 S
Tb320 O342 2.399 1_556 S
Tb321 O331 2.322 . S
Tb321 O332 2.349 . S
Tb321 O334 2.415 . S
Tb321 O335 2.399 . S
Tb321 O336 2.325 . S
Tb321 O339 2.303 . S
Tb321 C350 2.764 . S
C322 O338 1.261 . S
C322 O339 1.257 . S
C323 C326 1.358 . S
C323 C327 1.332 . S
C323 C329 1.504 . S
C324 C325 1.373 . S
C324 C328 1.308 . S
C325 C324 1.373 . S
C325 C326 1.429 . S
C325 H352 0.932 . S
C326 C323 1.358 . S
C326 C325 1.429 . S
C326 H353 0.930 . S
C327 C323 1.332 . S
C327 C328 1.394 . S
C327 H354 0.932 . S
C328 C324 1.308 . S
C328 C327 1.394 . S
C328 H355 0.929 . S
C329 Tb320 2.764 1_554 S
C329 C323 1.504 . S
C329 O341 1.239 . S
C329 O342 1.263 . S
O330 Tb320 2.325 . S
O330 C340 1.236 . S
O331 Tb321 2.322 . S
O331 C340 1.257 . S
O332 Tb321 2.349 . S
O332 C343 1.261 . S
O333 Tb320 2.303 . S
O333 C343 1.257 . S
O334 Tb321 2.415 . S
O334 C350 1.239 . S
O335 Tb321 2.399 . S
O335 C350 1.263 . S
O336 Tb321 2.325 . S
O336 C351 1.236 . S
O337 Tb320 2.322 . S
O337 C351 1.257 . S
O338 Tb320 2.349 . S
O338 C322 1.261 . S
O339 Tb321 2.303 . S
O339 C322 1.257 . S
C340 O330 1.236 . S
C340 O331 1.257 . S
O341 Tb320 2.415 1_554 S
O341 C329 1.239 . S
O342 Tb320 2.399 1_554 S
O342 C329 1.263 . S
C343 O332 1.261 . S
C343 O333 1.257 . S
C344 C347 1.358 . S
C344 C348 1.332 . S
C344 C350 1.504 . S
C345 C346 1.373 . S
C345 C349 1.308 . S
C346 C345 1.373 . S
C346 C347 1.429 . S
C346 H356 0.932 . S
C347 C344 1.358 . S
C347 C346 1.429 . S
C347 H357 0.930 . S
C348 C344 1.332 . S
C348 C349 1.394 . S
C348 H358 0.932 . S
C349 C345 1.308 . S
C349 C348 1.394 . S
C349 H359 0.929 . S
C350 Tb321 2.764 . S
C350 O334 1.239 . S
C350 O335 1.263 . S
C350 C344 1.504 . S
C351 O336 1.236 . S
C351 O337 1.257 . S
H352 C325 0.932 . S
H353 C326 0.930 . S
H354 C327 0.932 . S
H355 C328 0.929 . S
H356 C346 0.932 . S
H357 C347 0.930 . S
H358 C348 0.932 . S
H359 C349 0.929 . S
Tb360 C369 2.764 . S
Tb360 O370 2.325 . S
Tb360 O373 2.303 . S
Tb360 O377 2.322 . S
Tb360 O378 2.349 . S
Tb360 O381 2.415 . S
Tb360 O382 2.399 . S
Tb361 O371 2.322 . S
Tb361 O372 2.349 . S
Tb361 O374 2.415 . S
Tb361 O375 2.399 . S
Tb361 O376 2.325 . S
Tb361 O379 2.303 . S
Tb361 C390 2.764 . S
C362 O378 1.261 . S
C362 O379 1.257 . S
C363 C366 1.358 . S
C363 C367 1.332 . S
C363 C369 1.504 . S
C364 C365 1.373 . S
C364 C368 1.308 . S
C365 C364 1.373 . S
C365 C366 1.429 . S
C365 H392 0.932 . S
C366 C363 1.358 . S
C366 C365 1.429 . S
C366 H393 0.930 . S
C367 C363 1.332 . S
C367 C368 1.394 . S
C367 H394 0.932 . S
C368 C364 1.308 . S
C368 C367 1.394 . S
C368 H395 0.929 . S
C369 Tb360 2.764 . S
C369 C363 1.504 . S
C369 O381 1.239 . S
C369 O382 1.263 . S
O370 Tb360 2.325 . S
O370 C380 1.236 . S
O371 Tb361 2.322 . S
O371 C380 1.257 . S
O372 Tb361 2.349 . S
O372 C383 1.261 . S
O373 Tb360 2.303 . S
O373 C383 1.257 . S
O374 Tb361 2.415 . S
O374 C390 1.239 . S
O375 Tb361 2.399 . S
O375 C390 1.263 . S
O376 Tb361 2.325 . S
O376 C391 1.236 . S
O377 Tb360 2.322 . S
O377 C391 1.257 . S
O378 Tb360 2.349 . S
O378 C362 1.261 . S
O379 Tb361 2.303 . S
O379 C362 1.257 . S
C380 O370 1.236 . S
C380 O371 1.257 . S
O381 Tb360 2.415 . S
O381 C369 1.239 . S
O382 Tb360 2.399 . S
O382 C369 1.263 . S
C383 O372 1.261 . S
C383 O373 1.257 . S
C384 C387 1.358 . S
C384 C388 1.332 . S
C384 C390 1.504 . S
C385 C386 1.373 . S
C385 C389 1.308 . S
C386 C385 1.373 . S
C386 C387 1.429 . S
C386 H396 0.932 . S
C387 C384 1.358 . S
C387 C386 1.429 . S
C387 H397 0.930 . S
C388 C384 1.332 . S
C388 C389 1.394 . S
C388 H398 0.932 . S
C389 C385 1.308 . S
C389 C388 1.394 . S
C389 H399 0.929 . S
C390 Tb361 2.764 . S
C390 O374 1.239 . S
C390 O375 1.263 . S
C390 C384 1.504 . S
C391 O376 1.236 . S
C391 O377 1.257 . S
H392 C365 0.932 . S
H393 C366 0.930 . S
H394 C367 0.932 . S
H395 C368 0.929 . S
H396 C386 0.932 . S
H397 C387 0.930 . S
H398 C388 0.932 . S
H399 C389 0.929 . S
Tb400 C409 2.764 . S
Tb400 O410 2.325 . S
Tb400 O413 2.303 . S
Tb400 O417 2.322 . S
Tb400 O418 2.349 . S
Tb400 O421 2.415 . S
Tb400 O422 2.399 . S
Tb401 O411 2.322 . S
Tb401 O412 2.349 . S
Tb401 O414 2.415 . S
Tb401 O415 2.399 . S
Tb401 O416 2.325 . S
Tb401 O419 2.303 . S
Tb401 C430 2.764 . S
C402 O418 1.261 . S
C402 O419 1.257 . S
C403 C406 1.358 . S
C403 C407 1.332 . S
C403 C409 1.504 . S
C404 C405 1.368 1_556 S
C404 C408 1.301 1_556 S
C405 C404 1.368 1_554 S
C405 C406 1.429 . S
C405 H432 0.932 1_554 S
C406 C403 1.358 . S
C406 C405 1.429 . S
C406 H433 0.930 . S
C407 C403 1.332 . S
C407 C408 1.394 . S
C407 H434 0.932 . S
C408 C404 1.301 1_554 S
C408 C407 1.394 . S
C408 H435 0.929 . S
C409 Tb400 2.764 . S
C409 C403 1.504 . S
C409 O421 1.239 . S
C409 O422 1.263 . S
O410 Tb400 2.325 . S
O410 C420 1.236 . S
O411 Tb401 2.322 . S
O411 C420 1.257 . S
O412 Tb401 2.349 . S
O412 C423 1.261 . S
O413 Tb400 2.303 . S
O413 C423 1.257 . S
O414 Tb401 2.415 . S
O414 C430 1.239 . S
O415 Tb401 2.399 . S
O415 C430 1.263 . S
O416 Tb401 2.325 . S
O416 C431 1.236 . S
O417 Tb400 2.322 . S
O417 C431 1.257 . S
O418 Tb400 2.349 . S
O418 C402 1.261 . S
O419 Tb401 2.303 . S
O419 C402 1.257 . S
C420 O410 1.236 . S
C420 O411 1.257 . S
O421 Tb400 2.415 . S
O421 C409 1.239 . S
O422 Tb400 2.399 . S
O422 C409 1.263 . S
C423 O412 1.261 . S
C423 O413 1.257 . S
C424 C427 1.358 . S
C424 C428 1.332 . S
C424 C430 1.504 . S
C425 C426 1.373 . S
C425 C429 1.308 . S
C426 C425 1.373 . S
C426 C427 1.429 . S
C426 H436 0.932 . S
C427 C424 1.358 . S
C427 C426 1.429 . S
C427 H437 0.930 . S
C428 C424 1.332 . S
C428 C429 1.394 . S
C428 H438 0.932 . S
C429 C425 1.308 . S
C429 C428 1.394 . S
C429 H439 0.929 . S
C430 Tb401 2.764 . S
C430 O414 1.239 . S
C430 O415 1.263 . S
C430 C424 1.504 . S
C431 O416 1.236 . S
C431 O417 1.257 . S
H432 C405 0.932 1_556 S
H433 C406 0.930 . S
H434 C407 0.932 . S
H435 C408 0.929 . S
H436 C426 0.932 . S
H437 C427 0.930 . S
H438 C428 0.932 . S
H439 C429 0.929 . S
Tb440 C449 2.764 . S
Tb440 O450 2.325 . S
Tb440 O453 2.303 . S
Tb440 O457 2.322 . S
Tb440 O458 2.349 . S
Tb440 O461 2.415 . S
Tb440 O462 2.399 . S
Tb441 O451 2.322 1_556 S
Tb441 O452 2.349 1_556 S
Tb441 O454 2.415 . S
Tb441 O455 2.399 . S
Tb441 O456 2.325 1_556 S
Tb441 O459 2.303 1_556 S
Tb441 C470 2.764 . S
C442 O458 1.261 . S
C442 O459 1.257 . S
C443 C446 1.358 . S
C443 C447 1.332 . S
C443 C449 1.504 . S
C444 C445 1.373 . S
C444 C448 1.308 . S
C445 C444 1.373 . S
C445 C446 1.429 . S
C445 H472 0.932 . S
C446 C443 1.358 . S
C446 C445 1.429 . S
C446 H473 0.930 . S
C447 C443 1.332 . S
C447 C448 1.394 . S
C447 H474 0.932 . S
C448 C444 1.308 . S
C448 C447 1.394 . S
C448 H475 0.929 . S
C449 Tb440 2.764 . S
C449 C443 1.504 . S
C449 O461 1.239 . S
C449 O462 1.263 . S
O450 Tb440 2.325 . S
O450 C460 1.236 . S
O451 Tb441 2.322 1_554 S
O451 C460 1.257 . S
O452 Tb441 2.349 1_554 S
O452 C463 1.261 . S
O453 Tb440 2.303 . S
O453 C463 1.257 . S
O454 Tb441 2.415 . S
O454 C470 1.239 . S
O455 Tb441 2.399 . S
O455 C470 1.263 . S
O456 Tb441 2.325 1_554 S
O456 C471 1.236 . S
O457 Tb440 2.322 . S
O457 C471 1.257 . S
O458 Tb440 2.349 . S
O458 C442 1.261 . S
O459 Tb441 2.303 1_554 S
O459 C442 1.257 . S
C460 O450 1.236 . S
C460 O451 1.257 . S
O461 Tb440 2.415 . S
O461 C449 1.239 . S
O462 Tb440 2.399 . S
O462 C449 1.263 . S
C463 O452 1.261 . S
C463 O453 1.257 . S
C464 C467 1.358 . S
C464 C468 1.332 . S
C464 C470 1.504 . S
C465 C466 1.373 . S
C465 C469 1.308 . S
C466 C465 1.373 . S
C466 C467 1.429 . S
C466 H476 0.932 . S
C467 C464 1.358 . S
C467 C466 1.429 . S
C467 H477 0.930 . S
C468 C464 1.332 . S
C468 C469 1.394 . S
C468 H478 0.932 . S
C469 C465 1.308 . S
C469 C468 1.394 . S
C469 H479 0.929 . S
C470 Tb441 2.764 . S
C470 O454 1.239 . S
C470 O455 1.263 . S
C470 C464 1.504 . S
C471 O456 1.236 . S
C471 O457 1.257 . S
H472 C445 0.932 . S
H473 C446 0.930 . S
H474 C447 0.932 . S
H475 C448 0.929 . S
H476 C466 0.932 . S
H477 C467 0.930 . S
H478 C468 0.932 . S
H479 C469 0.929 . S
Tb480 C489 2.764 1_554 S
Tb480 O490 2.325 . S
Tb480 O493 2.303 . S
Tb480 O497 2.322 . S
Tb480 O498 2.349 . S
Tb480 O501 2.415 1_554 S
Tb480 O502 2.399 1_554 S
Tb481 O491 2.322 . S
Tb481 O492 2.349 . S
Tb481 O494 2.415 . S
Tb481 O495 2.399 . S
Tb481 O496 2.325 . S
Tb481 O499 2.303 . S
Tb481 C510 2.764 . S
C482 O498 1.261 . S
C482 O499 1.257 . S
C483 C486 1.358 . S
C483 C487 1.332 . S
C483 C489 1.504 . S
C484 C485 1.373 . S
C484 C488 1.308 . S
C485 C484 1.373 . S
C485 C486 1.429 . S
C485 H512 0.932 . S
C486 C483 1.358 . S
C486 C485 1.429 . S
C486 H513 0.930 . S
C487 C483 1.332 . S
C487 C488 1.394 . S
C487 H514 0.932 . S
C488 C484 1.308 . S
C488 C487 1.394 . S
C488 H515 0.929 . S
C489 Tb480 2.764 1_556 S
C489 C483 1.504 . S
C489 O501 1.239 . S
C489 O502 1.263 . S
O490 Tb480 2.325 . S
O490 C500 1.236 . S
O491 Tb481 2.322 . S
O491 C500 1.257 . S
O492 Tb481 2.349 . S
O492 C503 1.261 . S
O493 Tb480 2.303 . S
O493 C503 1.257 . S
O494 Tb481 2.415 . S
O494 C510 1.239 . S
O495 Tb481 2.399 . S
O495 C510 1.263 . S
O496 Tb481 2.325 . S
O496 C511 1.236 . S
O497 Tb480 2.322 . S
O497 C511 1.257 . S
O498 Tb480 2.349 . S
O498 C482 1.261 . S
O499 Tb481 2.303 . S
O499 C482 1.257 . S
C500 O490 1.236 . S
C500 O491 1.257 . S
O501 Tb480 2.415 1_556 S
O501 C489 1.239 . S
O502 Tb480 2.399 1_556 S
O502 C489 1.263 . S
C503 O492 1.261 . S
C503 O493 1.257 . S
C504 C507 1.358 . S
C504 C508 1.332 . S
C504 C510 1.504 . S
C505 C506 1.373 . S
C505 C509 1.308 . S
C506 C505 1.373 . S
C506 C507 1.429 . S
C506 H516 0.932 . S
C507 C504 1.358 . S
C507 C506 1.429 . S
C507 H517 0.930 . S
C508 C504 1.332 . S
C508 C509 1.394 . S
C508 H518 0.932 . S
C509 C505 1.308 . S
C509 C508 1.394 . S
C509 H519 0.929 . S
C510 Tb481 2.764 . S
C510 O494 1.239 . S
C510 O495 1.263 . S
C510 C504 1.504 . S
C511 O496 1.236 . S
C511 O497 1.257 . S
H512 C485 0.932 . S
H513 C486 0.930 . S
H514 C487 0.932 . S
H515 C488 0.929 . S
H516 C506 0.932 . S
H517 C507 0.930 . S
H518 C508 0.932 . S
H519 C509 0.929 . S
Tb520 C529 2.764 1_556 S
Tb520 O530 2.325 . S
Tb520 O533 2.303 . S
Tb520 O537 2.322 . S
Tb520 O538 2.349 . S
Tb520 O541 2.415 1_556 S
Tb520 O542 2.399 1_556 S
Tb521 O531 2.322 . S
Tb521 O532 2.349 . S
Tb521 O534 2.415 . S
Tb521 O535 2.399 . S
Tb521 O536 2.325 . S
Tb521 O539 2.303 . S
Tb521 C550 2.764 . S
C522 O538 1.261 . S
C522 O539 1.257 . S
C523 C526 1.358 . S
C523 C527 1.332 . S
C523 C529 1.504 . S
C524 C525 1.373 . S
C524 C528 1.308 . S
C525 C524 1.373 . S
C525 C526 1.429 . S
C525 H552 0.932 . S
C526 C523 1.358 . S
C526 C525 1.429 . S
C526 H553 0.930 . S
C527 C523 1.332 . S
C527 C528 1.394 . S
C527 H554 0.932 . S
C528 C524 1.308 . S
C528 C527 1.394 . S
C528 H555 0.929 . S
C529 Tb520 2.764 1_554 S
C529 C523 1.504 . S
C529 O541 1.239 . S
C529 O542 1.263 . S
O530 Tb520 2.325 . S
O530 C540 1.236 . S
O531 Tb521 2.322 . S
O531 C540 1.257 . S
O532 Tb521 2.349 . S
O532 C543 1.261 . S
O533 Tb520 2.303 . S
O533 C543 1.257 . S
O534 Tb521 2.415 . S
O534 C550 1.239 . S
O535 Tb521 2.399 . S
O535 C550 1.263 . S
O536 Tb521 2.325 . S
O536 C551 1.236 . S
O537 Tb520 2.322 . S
O537 C551 1.257 . S
O538 Tb520 2.349 . S
O538 C522 1.261 . S
O539 Tb521 2.303 . S
O539 C522 1.257 . S
C540 O530 1.236 . S
C540 O531 1.257 . S
O541 Tb520 2.415 1_554 S
O541 C529 1.239 . S
O542 Tb520 2.399 1_554 S
O542 C529 1.263 . S
C543 O532 1.261 . S
C543 O533 1.257 . S
C544 C547 1.358 . S
C544 C548 1.332 . S
C544 C550 1.504 . S
C545 C546 1.373 . S
C545 C549 1.308 . S
C546 C545 1.373 . S
C546 C547 1.429 . S
C546 H556 0.932 . S
C547 C544 1.358 . S
C547 C546 1.429 . S
C547 H557 0.930 . S
C548 C544 1.332 . S
C548 C549 1.394 . S
C548 H558 0.932 . S
C549 C545 1.308 . S
C549 C548 1.394 . S
C549 H559 0.929 . S
C550 Tb521 2.764 . S
C550 O534 1.239 . S
C550 O535 1.263 . S
C550 C544 1.504 . S
C551 O536 1.236 . S
C551 O537 1.257 . S
H552 C525 0.932 . S
H553 C526 0.930 . S
H554 C527 0.932 . S
H555 C528 0.929 . S
H556 C546 0.932 . S
H557 C547 0.930 . S
H558 C548 0.932 . S
H559 C549 0.929 . S
Tb560 C569 2.764 . S
Tb560 O570 2.325 . S
Tb560 O573 2.303 . S
Tb560 O577 2.322 . S
Tb560 O578 2.349 . S
Tb560 O581 2.415 . S
Tb560 O582 2.399 . S
Tb561 O571 2.322 . S
Tb561 O572 2.349 . S
Tb561 O574 2.415 . S
Tb561 O575 2.399 . S
Tb561 O576 2.325 . S
Tb561 O579 2.303 . S
Tb561 C590 2.764 . S
C562 O578 1.261 . S
C562 O579 1.257 . S
C563 C566 1.358 . S
C563 C567 1.332 . S
C563 C569 1.504 . S
C564 C565 1.373 1_554 S
C564 C568 1.308 1_554 S
C565 C564 1.373 1_556 S
C565 C566 1.429 . S
C565 H592 0.932 1_556 S
C566 C563 1.358 . S
C566 C565 1.429 . S
C566 H593 0.930 . S
C567 C563 1.332 . S
C567 C568 1.394 . S
C567 H594 0.932 . S
C568 C564 1.308 1_556 S
C568 C567 1.394 . S
C568 H595 0.929 . S
C569 Tb560 2.764 . S
C569 C563 1.504 . S
C569 O581 1.239 . S
C569 O582 1.263 . S
O570 Tb560 2.325 . S
O570 C580 1.236 . S
O571 Tb561 2.322 . S
O571 C580 1.257 . S
O572 Tb561 2.349 . S
O572 C583 1.261 . S
O573 Tb560 2.303 . S
O573 C583 1.257 . S
O574 Tb561 2.415 . S
O574 C590 1.239 . S
O575 Tb561 2.399 . S
O575 C590 1.263 . S
O576 Tb561 2.325 . S
O576 C591 1.236 . S
O577 Tb560 2.322 . S
O577 C591 1.257 . S
O578 Tb560 2.349 . S
O578 C562 1.261 . S
O579 Tb561 2.303 . S
O579 C562 1.257 . S
C580 O570 1.236 . S
C580 O571 1.257 . S
O581 Tb560 2.415 . S
O581 C569 1.239 . S
O582 Tb560 2.399 . S
O582 C569 1.263 . S
C583 O572 1.261 . S
C583 O573 1.257 . S
C584 C587 1.358 . S
C584 C588 1.332 . S
C584 C590 1.504 . S
C585 C586 1.373 . S
C585 C589 1.308 . S
C586 C585 1.373 . S
C586 C587 1.429 . S
C586 H596 0.932 . S
C587 C584 1.358 . S
C587 C586 1.429 . S
C587 H597 0.930 . S
C588 C584 1.332 . S
C588 C589 1.394 . S
C588 H598 0.932 . S
C589 C585 1.308 . S
C589 C588 1.394 . S
C589 H599 0.929 . S
C590 Tb561 2.764 . S
C590 O574 1.239 . S
C590 O575 1.263 . S
C590 C584 1.504 . S
C591 O576 1.236 . S
C591 O577 1.257 . S
H592 C565 0.932 1_554 S
H593 C566 0.930 . S
H594 C567 0.932 . S
H595 C568 0.929 . S
H596 C586 0.932 . S
H597 C587 0.930 . S
H598 C588 0.932 . S
H599 C589 0.929 . S
Tb600 C609 2.764 . S
Tb600 O610 2.325 . S
Tb600 O613 2.303 . S
Tb600 O617 2.322 . S
Tb600 O618 2.349 . S
Tb600 O621 2.415 . S
Tb600 O622 2.399 . S
Tb601 O611 2.322 . S
Tb601 O612 2.349 . S
Tb601 O614 2.415 . S
Tb601 O615 2.399 . S
Tb601 O616 2.325 . S
Tb601 O619 2.303 . S
Tb601 C630 2.764 . S
C602 O618 1.261 . S
C602 O619 1.257 . S
C603 C606 1.358 . S
C603 C607 1.332 . S
C603 C609 1.504 . S
C604 C605 1.373 . S
C604 C608 1.308 . S
C605 C604 1.373 . S
C605 C606 1.429 . S
C605 H632 0.932 . S
C606 C603 1.358 . S
C606 C605 1.429 . S
C606 H633 0.930 . S
C607 C603 1.332 . S
C607 C608 1.394 . S
C607 H634 0.932 . S
C608 C604 1.308 . S
C608 C607 1.394 . S
C608 H635 0.929 . S
C609 Tb600 2.764 . S
C609 C603 1.504 . S
C609 O621 1.239 . S
C609 O622 1.263 . S
O610 Tb600 2.325 . S
O610 C620 1.236 . S
O611 Tb601 2.322 . S
O611 C620 1.257 . S
O612 Tb601 2.349 . S
O612 C623 1.261 . S
O613 Tb600 2.303 . S
O613 C623 1.257 . S
O614 Tb601 2.415 . S
O614 C630 1.239 . S
O615 Tb601 2.399 . S
O615 C630 1.263 . S
O616 Tb601 2.325 . S
O616 C631 1.236 . S
O617 Tb600 2.322 . S
O617 C631 1.257 . S
O618 Tb600 2.349 . S
O618 C602 1.261 . S
O619 Tb601 2.303 . S
O619 C602 1.257 . S
C620 O610 1.236 . S
C620 O611 1.257 . S
O621 Tb600 2.415 . S
O621 C609 1.239 . S
O622 Tb600 2.399 . S
O622 C609 1.263 . S
C623 O612 1.261 . S
C623 O613 1.257 . S
C624 C627 1.358 . S
C624 C628 1.332 . S
C624 C630 1.504 . S
C625 C626 1.373 1_556 S
C625 C629 1.308 1_556 S
C626 C625 1.373 1_554 S
C626 C627 1.429 . S
C626 H636 0.932 1_554 S
C627 C624 1.358 . S
C627 C626 1.429 . S
C627 H637 0.930 . S
C628 C624 1.332 . S
C628 C629 1.394 . S
C628 H638 0.932 . S
C629 C625 1.308 1_554 S
C629 C628 1.394 . S
C629 H639 0.929 1_554 S
C630 Tb601 2.764 . S
C630 O614 1.239 . S
C630 O615 1.263 . S
C630 C624 1.504 . S
C631 O616 1.236 . S
C631 O617 1.257 . S
H632 C605 0.932 . S
H633 C606 0.930 . S
H634 C607 0.932 . S
H635 C608 0.929 . S
H636 C626 0.932 1_556 S
H637 C627 0.930 . S
H638 C628 0.932 . S
H639 C629 0.929 1_556 S
C640 C641 1.369 . S
C640 C642 1.419 . S
C640 H644 0.930 . S
C641 C640 1.369 . S
C641 C650 1.429 . S
C642 C640 1.419 . S
C642 C643 1.363 . S
C642 H645 0.929 . S
C643 C642 1.363 . S
C643 C649 1.428 . S
H644 C640 0.930 . S
H645 C642 0.929 . S
S646 N647 1.613 . S
S646 N648 1.610 . S
N647 S646 1.613 . S
N647 C650 1.350 . S
N648 S646 1.610 . S
N648 C649 1.351 . S
C649 C643 1.428 . S
C649 N648 1.351 . S
C649 C650 1.434 . S
C650 C641 1.429 . S
C650 N647 1.350 . S
C650 C649 1.434 . S
C651 C652 1.369 . S
C651 C653 1.419 . S
C651 H655 0.930 . S
C652 C651 1.369 . S
C652 C661 1.429 . S
C653 C651 1.419 . S
C653 C654 1.363 . S
C653 H656 0.929 . S
C654 C653 1.363 . S
C654 C660 1.428 . S
H655 C651 0.930 . S
H656 C653 0.929 . S
S657 N658 1.613 . S
S657 N659 1.610 . S
N658 S657 1.613 . S
N658 C661 1.350 . S
N659 S657 1.610 . S
N659 C660 1.351 . S
C660 C654 1.428 . S
C660 N659 1.351 . S
C660 C661 1.434 . S
C661 C652 1.429 . S
C661 N658 1.350 . S
C661 C660 1.434 . S
C662 C663 1.369 . S
C662 C664 1.419 . S
C662 H666 0.930 . S
C663 C662 1.369 . S
C663 C672 1.429 . S
C664 C662 1.419 . S
C664 C665 1.363 . S
C664 H667 0.929 . S
C665 C664 1.363 . S
C665 C671 1.428 . S
H666 C662 0.930 . S
H667 C664 0.929 . S
S668 N669 1.613 . S
S668 N670 1.610 . S
N669 S668 1.613 . S
N669 C672 1.350 . S
N670 S668 1.610 . S
N670 C671 1.351 . S
C671 C665 1.428 . S
C671 N670 1.351 . S
C671 C672 1.434 . S
C672 C663 1.429 . S
C672 N669 1.350 . S
C672 C671 1.434 . S
C673 C674 1.369 . S
C673 C675 1.419 . S
C673 H677 0.930 . S
C674 C673 1.369 . S
C674 C683 1.429 . S
C675 C673 1.419 . S
C675 C676 1.363 . S
C675 H678 0.929 . S
C676 C675 1.363 . S
C676 C682 1.428 . S
H677 C673 0.930 . S
H678 C675 0.929 . S
S679 N680 1.613 . S
S679 N681 1.610 . S
N680 S679 1.613 . S
N680 C683 1.350 . S
N681 S679 1.610 . S
N681 C682 1.351 . S
C682 C676 1.428 . S
C682 N681 1.351 . S
C682 C683 1.434 . S
C683 C674 1.429 . S
C683 N680 1.350 . S
C683 C682 1.434 . S
C684 C685 1.369 . S
C684 C686 1.419 . S
C684 H688 0.930 . S
C685 C684 1.369 . S
C685 C694 1.429 . S
C686 C684 1.419 . S
C686 C687 1.363 . S
C686 H689 0.929 . S
C687 C686 1.363 . S
C687 C693 1.428 . S
H688 C684 0.930 . S
H689 C686 0.929 . S
S690 N691 1.613 . S
S690 N692 1.610 . S
N691 S690 1.613 . S
N691 C694 1.350 . S
N692 S690 1.610 . S
N692 C693 1.351 . S
C693 C687 1.428 . S
C693 N692 1.351 . S
C693 C694 1.434 . S
C694 C685 1.429 . S
C694 N691 1.350 . S
C694 C693 1.434 . S
C695 C696 1.369 . S
C695 C697 1.419 . S
C695 H699 0.930 . S
C696 C695 1.369 . S
C696 C705 1.429 . S
C697 C695 1.419 . S
C697 C698 1.363 . S
C697 H700 0.929 . S
C698 C697 1.363 . S
C698 C704 1.428 . S
H699 C695 0.930 . S
H700 C697 0.929 . S
S701 N702 1.613 . S
S701 N703 1.610 . S
N702 S701 1.613 . S
N702 C705 1.350 . S
N703 S701 1.610 . S
N703 C704 1.351 . S
C704 C698 1.428 . S
C704 N703 1.351 . S
C704 C705 1.434 . S
C705 C696 1.429 . S
C705 N702 1.350 . S
C705 C704 1.434 . S
C706 C707 1.369 . S
C706 C708 1.419 . S
C706 H710 0.930 . S
C707 C706 1.369 . S
C707 C716 1.429 . S
C708 C706 1.419 . S
C708 C709 1.363 . S
C708 H711 0.929 . S
C709 C708 1.363 . S
C709 C715 1.428 . S
H710 C706 0.930 . S
H711 C708 0.929 . S
S712 N713 1.613 . S
S712 N714 1.610 . S
N713 S712 1.613 . S
N713 C716 1.350 . S
N714 S712 1.610 . S
N714 C715 1.351 . S
C715 C709 1.428 . S
C715 N714 1.351 . S
C715 C716 1.434 . S
C716 C707 1.429 . S
C716 N713 1.350 . S
C716 C715 1.434 . S
C717 C718 1.369 . S
C717 C719 1.419 . S
C717 H721 0.930 . S
C718 C717 1.369 . S
C718 C727 1.429 . S
C719 C717 1.419 . S
C719 C720 1.363 . S
C719 H722 0.929 . S
C720 C719 1.363 . S
C720 C726 1.428 . S
H721 C717 0.930 . S
H722 C719 0.929 . S
S723 N724 1.613 . S
S723 N725 1.610 . S
N724 S723 1.613 . S
N724 C727 1.350 . S
N725 S723 1.610 . S
N725 C726 1.351 . S
C726 C720 1.428 . S
C726 N725 1.351 . S
C726 C727 1.434 . S
C727 C718 1.429 . S
C727 N724 1.350 . S
C727 C726 1.434 . S
C728 C729 1.369 . S
C728 C730 1.419 . S
C728 H732 0.930 . S
C729 C728 1.369 . S
C729 C738 1.429 . S
C730 C728 1.419 . S
C730 C731 1.363 . S
C730 H733 0.929 . S
C731 C730 1.363 . S
C731 C737 1.428 . S
H732 C728 0.930 . S
H733 C730 0.929 . S
S734 N735 1.613 . S
S734 N736 1.610 . S
N735 S734 1.613 . S
N735 C738 1.350 . S
N736 S734 1.610 . S
N736 C737 1.351 . S
C737 C731 1.428 . S
C737 N736 1.351 . S
C737 C738 1.434 . S
C738 C729 1.429 . S
C738 N735 1.350 . S
C738 C737 1.434 . S
C739 C740 1.369 . S
C739 C741 1.419 . S
C739 H743 0.930 . S
C740 C739 1.369 . S
C740 C749 1.429 . S
C741 C739 1.419 . S
C741 C742 1.363 . S
C741 H744 0.929 . S
C742 C741 1.363 . S
C742 C748 1.428 . S
H743 C739 0.930 . S
H744 C741 0.929 . S
S745 N746 1.613 . S
S745 N747 1.610 . S
N746 S745 1.613 . S
N746 C749 1.350 . S
N747 S745 1.610 . S
N747 C748 1.351 . S
C748 C742 1.428 . S
C748 N747 1.351 . S
C748 C749 1.434 . S
C749 C740 1.429 . S
C749 N746 1.350 . S
C749 C748 1.434 . S
C750 C751 1.369 . S
C750 C752 1.419 . S
C750 H754 0.930 . S
C751 C750 1.369 . S
C751 C760 1.429 . S
C752 C750 1.419 . S
C752 C753 1.363 . S
C752 H755 0.929 . S
C753 C752 1.363 . S
C753 C759 1.428 . S
H754 C750 0.930 . S
H755 C752 0.929 . S
S756 N757 1.613 . S
S756 N758 1.610 . S
N757 S756 1.613 . S
N757 C760 1.350 . S
N758 S756 1.610 . S
N758 C759 1.351 . S
C759 C753 1.428 . S
C759 N758 1.351 . S
C759 C760 1.434 . S
C760 C751 1.429 . S
C760 N757 1.350 . S
C760 C759 1.434 . S
C761 C762 1.369 . S
C761 C763 1.419 . S
C761 H765 0.930 . S
C762 C761 1.369 . S
C762 C771 1.429 . S
C763 C761 1.419 . S
C763 C764 1.363 . S
C763 H766 0.929 . S
C764 C763 1.363 . S
C764 C770 1.428 . S
H765 C761 0.930 . S
H766 C763 0.929 . S
S767 N768 1.613 . S
S767 N769 1.610 . S
N768 S767 1.613 . S
N768 C771 1.350 . S
N769 S767 1.610 . S
N769 C770 1.351 . S
C770 C764 1.428 . S
C770 N769 1.351 . S
C770 C771 1.434 . S
C771 C762 1.429 . S
C771 N768 1.350 . S
C771 C770 1.434 . S
C772 C773 1.369 . S
C772 C774 1.419 . S
C772 H776 0.930 . S
C773 C772 1.369 . S
C773 C782 1.429 . S
C774 C772 1.419 . S
C774 C775 1.363 . S
C774 H777 0.929 . S
C775 C774 1.363 . S
C775 C781 1.428 . S
H776 C772 0.930 . S
H777 C774 0.929 . S
S778 N779 1.613 . S
S778 N780 1.610 . S
N779 S778 1.613 . S
N779 C782 1.350 . S
N780 S778 1.610 . S
N780 C781 1.351 . S
C781 C775 1.428 . S
C781 N780 1.351 . S
C781 C782 1.434 . S
C782 C773 1.429 . S
C782 N779 1.350 . S
C782 C781 1.434 . S
C783 C784 1.369 . S
C783 C785 1.419 . S
C783 H787 0.930 . S
C784 C783 1.369 . S
C784 C793 1.429 . S
C785 C783 1.419 . S
C785 C786 1.363 . S
C785 H788 0.929 . S
C786 C785 1.363 . S
C786 C792 1.428 . S
H787 C783 0.930 . S
H788 C785 0.929 . S
S789 N790 1.613 . S
S789 N791 1.610 . S
N790 S789 1.613 . S
N790 C793 1.350 . S
N791 S789 1.610 . S
N791 C792 1.351 . S
C792 C786 1.428 . S
C792 N791 1.351 . S
C792 C793 1.434 . S
C793 C784 1.429 . S
C793 N790 1.350 . S
C793 C792 1.434 . S
C794 C795 1.369 . S
C794 C796 1.419 . S
C794 H798 0.930 . S
C795 C794 1.369 . S
C795 C804 1.429 . S
C796 C794 1.419 . S
C796 C797 1.363 . S
C796 H799 0.929 . S
C797 C796 1.363 . S
C797 C803 1.428 . S
H798 C794 0.930 . S
H799 C796 0.929 . S
S800 N801 1.613 . S
S800 N802 1.610 . S
N801 S800 1.613 . S
N801 C804 1.350 . S
N802 S800 1.610 . S
N802 C803 1.351 . S
C803 C797 1.428 . S
C803 N802 1.351 . S
C803 C804 1.434 . S
C804 C795 1.429 . S
C804 N801 1.350 . S
C804 C803 1.434 . S
C805 C806 1.369 . S
C805 C807 1.419 . S
C805 H809 0.930 . S
C806 C805 1.369 . S
C806 C815 1.429 . S
C807 C805 1.419 . S
C807 C808 1.363 . S
C807 H810 0.929 . S
C808 C807 1.363 . S
C808 C814 1.428 . S
H809 C805 0.930 . S
H810 C807 0.929 . S
S811 N812 1.613 . S
S811 N813 1.610 . S
N812 S811 1.613 . S
N812 C815 1.350 . S
N813 S811 1.610 . S
N813 C814 1.351 . S
C814 C808 1.428 . S
C814 N813 1.351 . S
C814 C815 1.434 . S
C815 C806 1.429 . S
C815 N812 1.350 . S
C815 C814 1.434 . S
C816 C817 1.369 . S
C816 C818 1.419 . S
C816 H820 0.930 . S
C817 C816 1.369 . S
C817 C826 1.429 . S
C818 C816 1.419 . S
C818 C819 1.363 . S
C818 H821 0.929 . S
C819 C818 1.363 . S
C819 C825 1.428 . S
H820 C816 0.930 . S
H821 C818 0.929 . S
S822 N823 1.613 . S
S822 N824 1.610 . S
N823 S822 1.613 . S
N823 C826 1.350 . S
N824 S822 1.610 . S
N824 C825 1.351 . S
C825 C819 1.428 . S
C825 N824 1.351 . S
C825 C826 1.434 . S
C826 C817 1.429 . S
C826 N823 1.350 . S
C826 C825 1.434 . S
C827 C828 1.369 . S
C827 C829 1.419 . S
C827 H831 0.930 . S
C828 C827 1.369 . S
C828 C837 1.429 . S
C829 C827 1.419 . S
C829 C830 1.363 . S
C829 H832 0.929 . S
C830 C829 1.363 . S
C830 C836 1.428 . S
H831 C827 0.930 . S
H832 C829 0.929 . S
S833 N834 1.613 . S
S833 N835 1.610 . S
N834 S833 1.613 . S
N834 C837 1.350 . S
N835 S833 1.610 . S
N835 C836 1.351 . S
C836 C830 1.428 . S
C836 N835 1.351 . S
C836 C837 1.434 . S
C837 C828 1.429 . S
C837 N834 1.350 . S
C837 C836 1.434 . S
C838 C839 1.369 . S
C838 C840 1.419 . S
C838 H842 0.930 . S
C839 C838 1.369 . S
C839 C848 1.429 . S
C840 C838 1.419 . S
C840 C841 1.363 . S
C840 H843 0.929 . S
C841 C840 1.363 . S
C841 C847 1.428 . S
H842 C838 0.930 . S
H843 C840 0.929 . S
S844 N845 1.613 . S
S844 N846 1.610 . S
N845 S844 1.613 . S
N845 C848 1.350 . S
N846 S844 1.610 . S
N846 C847 1.351 . S
C847 C841 1.428 . S
C847 N846 1.351 . S
C847 C848 1.434 . S
C848 C839 1.429 . S
C848 N845 1.350 . S
C848 C847 1.434 . S
C849 C850 1.369 . S
C849 C851 1.419 1_655 S
C849 H853 0.930 . S
C850 C849 1.369 . S
C850 C859 1.429 . S
C851 C849 1.419 1_455 S
C851 C852 1.363 . S
C851 H854 0.929 . S
C852 C851 1.363 . S
C852 C858 1.428 . S
H853 C849 0.930 . S
H854 C851 0.929 . S
S855 N856 1.613 1_455 S
S855 N857 1.610 . S
N856 S855 1.613 1_655 S
N856 C859 1.350 1_554 S
N857 S855 1.610 . S
N857 C858 1.351 1_554 S
C858 C852 1.428 . S
C858 N857 1.351 1_556 S
C858 C859 1.434 1_455 S
C859 C850 1.429 . S
C859 N856 1.350 1_556 S
C859 C858 1.434 1_655 S
C860 C861 1.369 . S
C860 C862 1.419 . S
C860 H864 0.930 . S
C861 C860 1.369 . S
C861 C870 1.429 . S
C862 C860 1.419 . S
C862 C863 1.363 . S
C862 H865 0.929 . S
C863 C862 1.363 . S
C863 C869 1.428 . S
H864 C860 0.930 . S
H865 C862 0.929 . S
S866 N867 1.613 . S
S866 N868 1.610 . S
N867 S866 1.613 . S
N867 C870 1.350 . S
N868 S866 1.610 . S
N868 C869 1.351 . S
C869 C863 1.428 . S
C869 N868 1.351 . S
C869 C870 1.434 . S
C870 C861 1.429 . S
C870 N867 1.350 . S
C870 C869 1.434 . S
C871 C872 1.369 . S
C871 C873 1.419 1_455 S
C871 H875 0.930 . S
C872 C871 1.369 . S
C872 C881 1.429 . S
C873 C871 1.419 1_655 S
C873 C874 1.363 . S
C873 H876 0.929 . S
C874 C873 1.363 . S
C874 C880 1.428 . S
H875 C871 0.930 . S
H876 C873 0.929 . S
S877 N878 1.613 1_655 S
S877 N879 1.610 . S
N878 S877 1.613 1_455 S
N878 C881 1.350 . S
N879 S877 1.610 . S
N879 C880 1.351 . S
C880 C874 1.428 . S
C880 N879 1.351 . S
C880 C881 1.434 1_655 S
C881 C872 1.429 . S
C881 N878 1.350 . S
C881 C880 1.434 1_455 S
C882 C883 1.369 . S
C882 C884 1.419 . S
C882 H886 0.930 . S
C883 C882 1.369 . S
C883 C892 1.429 . S
C884 C882 1.419 . S
C884 C885 1.363 . S
C884 H887 0.929 . S
C885 C884 1.363 . S
C885 C891 1.428 . S
H886 C882 0.930 . S
H887 C884 0.929 . S
S888 N889 1.613 . S
S888 N890 1.610 . S
N889 S888 1.613 . S
N889 C892 1.350 . S
N890 S888 1.610 . S
N890 C891 1.351 . S
C891 C885 1.428 . S
C891 N890 1.351 . S
C891 C892 1.434 . S
C892 C883 1.429 . S
C892 N889 1.350 . S
C892 C891 1.434 . S
C893 C894 1.369 . S
C893 C895 1.419 . S
C893 H897 0.930 . S
C894 C893 1.369 . S
C894 C903 1.429 . S
C895 C893 1.419 . S
C895 C896 1.363 . S
C895 H898 0.929 . S
C896 C895 1.363 . S
C896 C902 1.428 . S
H897 C893 0.930 . S
H898 C895 0.929 . S
S899 N900 1.613 . S
S899 N901 1.610 . S
N900 S899 1.613 . S
N900 C903 1.350 . S
N901 S899 1.610 . S
N901 C902 1.351 . S
C902 C896 1.428 . S
C902 N901 1.351 . S
C902 C903 1.434 . S
C903 C894 1.429 . S
C903 N900 1.350 . S
C903 C902 1.434 . S
C904 C905 1.369 . S
C904 C906 1.419 . S
C904 H908 0.930 . S
C905 C904 1.369 . S
C905 C914 1.429 . S
C906 C904 1.419 . S
C906 C907 1.363 . S
C906 H909 0.929 . S
C907 C906 1.363 . S
C907 C913 1.428 . S
H908 C904 0.930 . S
H909 C906 0.929 . S
S910 N911 1.613 . S
S910 N912 1.610 . S
N911 S910 1.613 . S
N911 C914 1.350 . S
N912 S910 1.610 . S
N912 C913 1.351 . S
C913 C907 1.428 . S
C913 N912 1.351 . S
C913 C914 1.434 . S
C914 C905 1.429 . S
C914 N911 1.350 . S
C914 C913 1.434 . S
C915 C916 1.369 . S
C915 C917 1.419 . S
C915 H919 0.930 . S
C916 C915 1.369 . S
C916 C925 1.429 . S
C917 C915 1.419 . S
C917 C918 1.363 . S
C917 H920 0.929 . S
C918 C917 1.363 . S
C918 C924 1.428 . S
H919 C915 0.930 . S
H920 C917 0.929 . S
S921 N922 1.613 . S
S921 N923 1.610 . S
N922 S921 1.613 . S
N922 C925 1.350 . S
N923 S921 1.610 . S
N923 C924 1.351 . S
C924 C918 1.428 . S
C924 N923 1.351 . S
C924 C925 1.434 . S
C925 C916 1.429 . S
C925 N922 1.350 . S
C925 C924 1.434 . S
C926 C927 1.369 . S
C926 C928 1.419 . S
C926 H930 0.930 . S
C927 C926 1.369 . S
C927 C936 1.429 . S
C928 C926 1.419 . S
C928 C929 1.363 . S
C928 H931 0.929 . S
C929 C928 1.363 . S
C929 C935 1.428 . S
H930 C926 0.930 . S
H931 C928 0.929 . S
S932 N933 1.613 . S
S932 N934 1.610 . S
N933 S932 1.613 . S
N933 C936 1.350 . S
N934 S932 1.610 . S
N934 C935 1.351 . S
C935 C929 1.428 . S
C935 N934 1.351 . S
C935 C936 1.434 . S
C936 C927 1.429 . S
C936 N933 1.350 . S
C936 C935 1.434 . S
C937 C938 1.369 . S
C937 C939 1.419 . S
C937 H941 0.930 . S
C938 C937 1.369 . S
C938 C947 1.429 . S
C939 C937 1.419 . S
C939 C940 1.363 . S
C939 H942 0.929 . S
C940 C939 1.363 . S
C940 C946 1.428 . S
H941 C937 0.930 . S
H942 C939 0.929 . S
S943 N944 1.613 . S
S943 N945 1.610 . S
N944 S943 1.613 . S
N944 C947 1.350 . S
N945 S943 1.610 . S
N945 C946 1.351 . S
C946 C940 1.428 . S
C946 N945 1.351 . S
C946 C947 1.434 . S
C947 C938 1.429 . S
C947 N944 1.350 . S
C947 C946 1.434 . S
C948 C949 1.369 . S
C948 C950 1.419 1_655 S
C948 H952 0.930 . S
C949 C948 1.369 . S
C949 C958 1.429 . S
C950 C948 1.419 1_455 S
C950 C951 1.363 . S
C950 H953 0.929 . S
C951 C950 1.363 . S
C951 C957 1.428 . S
H952 C948 0.930 . S
H953 C950 0.929 . S
S954 N955 1.612 . S
S954 N956 1.611 1_655 S
N955 S954 1.612 . S
N955 C958 1.350 . S
N956 S954 1.611 1_455 S
N956 C957 1.351 . S
C957 C951 1.428 . S
C957 N956 1.351 . S
C957 C958 1.434 1_455 S
C958 C949 1.429 . S
C958 N955 1.350 . S
C958 C957 1.434 1_655 S
C959 C960 1.369 . S
C959 C961 1.419 . S
C959 H963 0.930 . S
C960 C959 1.369 . S
C960 C969 1.429 . S
C961 C959 1.419 . S
C961 C962 1.363 . S
C961 H964 0.929 . S
C962 C961 1.363 . S
C962 C968 1.428 . S
H963 C959 0.930 . S
H964 C961 0.929 . S
S965 N966 1.613 . S
S965 N967 1.610 . S
N966 S965 1.613 . S
N966 C969 1.350 . S
N967 S965 1.610 . S
N967 C968 1.351 . S
C968 C962 1.428 . S
C968 N967 1.351 . S
C968 C969 1.434 . S
C969 C960 1.429 . S
C969 N966 1.350 . S
C969 C968 1.434 . S
C970 C971 1.369 . S
C970 C972 1.419 . S
C970 H974 0.930 . S
C971 C970 1.369 . S
C971 C980 1.429 . S
C972 C970 1.419 . S
C972 C973 1.363 . S
C972 H975 0.929 . S
C973 C972 1.363 . S
C973 C979 1.428 . S
H974 C970 0.930 . S
H975 C972 0.929 . S
S976 N977 1.613 . S
S976 N978 1.610 . S
N977 S976 1.613 . S
N977 C980 1.350 . S
N978 S976 1.610 . S
N978 C979 1.351 . S
C979 C973 1.428 . S
C979 N978 1.351 . S
C979 C980 1.434 . S
C980 C971 1.429 . S
C980 N977 1.350 . S
C980 C979 1.434 . S
C981 C982 1.369 . S
C981 C983 1.419 1_455 S
C981 H985 0.930 . S
C982 C981 1.369 . S
C982 C991 1.429 . S
C983 C981 1.419 1_655 S
C983 C984 1.363 . S
C983 H986 0.929 . S
C984 C983 1.363 . S
C984 C990 1.428 . S
H985 C981 0.930 . S
H986 C983 0.929 . S
S987 N988 1.605 1_655 S
S987 N989 1.619 . S
N988 S987 1.605 1_455 S
N988 C991 1.350 . S
N989 S987 1.619 . S
N989 C990 1.351 . S
C990 C984 1.428 . S
C990 N989 1.351 . S
C990 C991 1.434 1_655 S
C991 C982 1.429 . S
C991 N988 1.350 . S
C991 C990 1.434 1_455 S
C992 C993 1.369 . S
C992 C994 1.419 1_554 S
C992 H996 0.930 . S
C993 C992 1.369 . S
C993 C1002 1.429 . S
C994 C992 1.419 1_556 S
C994 C995 1.363 . S
C994 H997 0.929 . S
C995 C994 1.363 . S
C995 C1001 1.428 1_556 S
H996 C992 0.930 . S
H997 C994 0.929 . S
S998 N999 1.613 . S
S998 N1000 1.610 . S
N999 S998 1.613 . S
N999 C1002 1.350 . S
N1000 S998 1.610 . S
N1000 C1001 1.351 . S
C1001 C995 1.428 1_554 S
C1001 N1000 1.351 . S
C1001 C1002 1.434 . S
C1002 C993 1.429 . S
C1002 N999 1.350 . S
C1002 C1001 1.434 . S
C1003 C1004 1.369 . S
C1003 C1005 1.419 . S
C1003 H1007 0.930 . S
C1004 C1003 1.369 . S
C1004 C1013 1.429 . S
C1005 C1003 1.419 . S
C1005 C1006 1.363 . S
C1005 H1008 0.929 . S
C1006 C1005 1.363 . S
C1006 C1012 1.428 . S
H1007 C1003 0.930 . S
H1008 C1005 0.929 . S
S1009 N1010 1.613 . S
S1009 N1011 1.610 . S
N1010 S1009 1.613 . S
N1010 C1013 1.350 . S
N1011 S1009 1.610 . S
N1011 C1012 1.351 . S
C1012 C1006 1.428 . S
C1012 N1011 1.351 . S
C1012 C1013 1.434 . S
C1013 C1004 1.429 . S
C1013 N1010 1.350 . S
C1013 C1012 1.434 . S
C1014 C1015 1.369 . S
C1014 C1016 1.419 . S
C1014 H1018 0.930 . S
C1015 C1014 1.369 . S
C1015 C1024 1.429 . S
C1016 C1014 1.419 . S
C1016 C1017 1.363 . S
C1016 H1019 0.929 . S
C1017 C1016 1.363 . S
C1017 C1023 1.428 . S
H1018 C1014 0.930 . S
H1019 C1016 0.929 . S
S1020 N1021 1.613 . S
S1020 N1022 1.610 . S
N1021 S1020 1.613 . S
N1021 C1024 1.350 . S
N1022 S1020 1.610 . S
N1022 C1023 1.351 . S
C1023 C1017 1.428 . S
C1023 N1022 1.351 . S
C1023 C1024 1.434 . S
C1024 C1015 1.429 . S
C1024 N1021 1.350 . S
C1024 C1023 1.434 . S
C1025 C1026 1.369 . S
C1025 C1027 1.419 . S
C1025 H1029 0.930 . S
C1026 C1025 1.369 . S
C1026 C1035 1.429 . S
C1027 C1025 1.419 . S
C1027 C1028 1.363 . S
C1027 H1030 0.929 . S
C1028 C1027 1.363 . S
C1028 C1034 1.428 . S
H1029 C1025 0.930 . S
H1030 C1027 0.929 . S
S1031 N1032 1.613 . S
S1031 N1033 1.610 . S
N1032 S1031 1.613 . S
N1032 C1035 1.350 . S
N1033 S1031 1.610 . S
N1033 C1034 1.351 . S
C1034 C1028 1.428 . S
C1034 N1033 1.351 . S
C1034 C1035 1.434 . S
C1035 C1026 1.429 . S
C1035 N1032 1.350 . S
C1035 C1034 1.434 . S
C1036 C1037 1.369 . S
C1036 C1038 1.419 1_554 S
C1036 H1040 0.930 . S
C1037 C1036 1.369 . S
C1037 C1046 1.429 . S
C1038 C1036 1.419 1_556 S
C1038 C1039 1.363 . S
C1038 H1041 0.929 . S
C1039 C1038 1.363 . S
C1039 C1045 1.428 . S
H1040 C1036 0.930 . S
H1041 C1038 0.929 . S
S1042 N1043 1.613 1_556 S
S1042 N1044 1.610 . S
N1043 S1042 1.613 1_554 S
N1043 C1046 1.350 . S
N1044 S1042 1.610 . S
N1044 C1045 1.351 . S
C1045 C1039 1.428 . S
C1045 N1044 1.351 . S
C1045 C1046 1.434 1_556 S
C1046 C1037 1.429 . S
C1046 N1043 1.350 . S
C1046 C1045 1.434 1_554 S
C1047 C1048 1.369 . S
C1047 C1049 1.419 . S
C1047 H1051 0.930 . S
C1048 C1047 1.369 . S
C1048 C1057 1.429 . S
C1049 C1047 1.419 . S
C1049 C1050 1.363 . S
C1049 H1052 0.929 . S
C1050 C1049 1.363 . S
C1050 C1056 1.428 . S
H1051 C1047 0.930 . S
H1052 C1049 0.929 . S
S1053 N1054 1.613 . S
S1053 N1055 1.610 . S
N1054 S1053 1.613 . S
N1054 C1057 1.350 . S
N1055 S1053 1.610 . S
N1055 C1056 1.351 . S
C1056 C1050 1.428 . S
C1056 N1055 1.351 . S
C1056 C1057 1.434 . S
C1057 C1048 1.429 . S
C1057 N1054 1.350 . S
C1057 C1056 1.434 . S
C1058 C1059 1.369 . S
C1058 C1060 1.419 . S
C1058 H1062 0.930 . S
C1059 C1058 1.369 . S
C1059 C1068 1.429 . S
C1060 C1058 1.419 . S
C1060 C1061 1.363 . S
C1060 H1063 0.929 . S
C1061 C1060 1.363 . S
C1061 C1067 1.428 . S
H1062 C1058 0.930 . S
H1063 C1060 0.929 . S
S1064 N1065 1.613 . S
S1064 N1066 1.610 . S
N1065 S1064 1.613 . S
N1065 C1068 1.350 . S
N1066 S1064 1.610 . S
N1066 C1067 1.351 . S
C1067 C1061 1.428 . S
C1067 N1066 1.351 . S
C1067 C1068 1.434 . S
C1068 C1059 1.429 . S
C1068 N1065 1.350 . S
C1068 C1067 1.434 . S
C1069 C1070 1.369 . S
C1069 C1071 1.419 . S
C1069 H1073 0.930 . S
C1070 C1069 1.369 . S
C1070 C1079 1.429 . S
C1071 C1069 1.419 . S
C1071 C1072 1.363 . S
C1071 H1074 0.929 . S
C1072 C1071 1.363 . S
C1072 C1078 1.428 . S
H1073 C1069 0.930 . S
H1074 C1071 0.929 . S
S1075 N1076 1.613 . S
S1075 N1077 1.610 . S
N1076 S1075 1.613 . S
N1076 C1079 1.350 . S
N1077 S1075 1.610 . S
N1077 C1078 1.351 . S
C1078 C1072 1.428 . S
C1078 N1077 1.351 . S
C1078 C1079 1.434 . S
C1079 C1070 1.429 . S
C1079 N1076 1.350 . S
C1079 C1078 1.434 . S
C1080 C1081 1.369 . S
C1080 C1082 1.419 1_565 S
C1080 H1084 0.930 . S
C1081 C1080 1.369 . S
C1081 C1090 1.429 . S
C1082 C1080 1.419 1_545 S
C1082 C1083 1.363 . S
C1082 H1085 0.929 . S
C1083 C1082 1.363 . S
C1083 C1089 1.428 . S
H1084 C1080 0.930 . S
H1085 C1082 0.929 . S
S1086 N1087 1.613 . S
S1086 N1088 1.610 1_565 S
N1087 S1086 1.613 . S
N1087 C1090 1.350 . S
N1088 S1086 1.610 1_545 S
N1088 C1089 1.351 . S
C1089 C1083 1.428 . S
C1089 N1088 1.351 . S
C1089 C1090 1.434 1_545 S
C1090 C1081 1.429 . S
C1090 N1087 1.350 . S
C1090 C1089 1.434 1_565 S
C1091 C1092 1.369 . S
C1091 C1093 1.419 . S
C1091 H1095 0.930 . S
C1092 C1091 1.369 . S
C1092 C1101 1.429 . S
C1093 C1091 1.419 . S
C1093 C1094 1.363 . S
C1093 H1096 0.929 . S
C1094 C1093 1.363 . S
C1094 C1100 1.428 . S
H1095 C1091 0.930 . S
H1096 C1093 0.929 . S
S1097 N1098 1.613 . S
S1097 N1099 1.610 . S
N1098 S1097 1.613 . S
N1098 C1101 1.350 . S
N1099 S1097 1.610 . S
N1099 C1100 1.351 . S
C1100 C1094 1.428 . S
C1100 N1099 1.351 . S
C1100 C1101 1.434 . S
C1101 C1092 1.429 . S
C1101 N1098 1.350 . S
C1101 C1100 1.434 . S
C1102 C1103 1.369 . S
C1102 C1104 1.419 1_554 S
C1102 H1106 0.930 . S
C1103 C1102 1.369 . S
C1103 C1112 1.429 1_565 S
C1104 C1102 1.419 1_556 S
C1104 C1105 1.363 1_565 S
C1104 H1107 0.929 . S
C1105 C1104 1.363 1_545 S
C1105 C1111 1.428 1_556 S
H1106 C1102 0.930 . S
H1107 C1104 0.929 . S
S1108 N1109 1.613 . S
S1108 N1110 1.610 . S
N1109 S1108 1.613 . S
N1109 C1112 1.350 . S
N1110 S1108 1.610 . S
N1110 C1111 1.351 . S
C1111 C1105 1.428 1_554 S
C1111 N1110 1.351 . S
C1111 C1112 1.434 . S
C1112 C1103 1.429 1_545 S
C1112 N1109 1.350 . S
C1112 C1111 1.434 . S
C1113 C1114 1.369 . S
C1113 C1115 1.419 . S
C1113 H1117 0.930 . S
C1114 C1113 1.369 . S
C1114 C1123 1.429 . S
C1115 C1113 1.419 . S
C1115 C1116 1.363 . S
C1115 H1118 0.929 . S
C1116 C1115 1.363 . S
C1116 C1122 1.428 . S
H1117 C1113 0.930 . S
H1118 C1115 0.929 . S
S1119 N1120 1.613 . S
S1119 N1121 1.610 . S
N1120 S1119 1.613 . S
N1120 C1123 1.350 . S
N1121 S1119 1.610 . S
N1121 C1122 1.351 . S
C1122 C1116 1.428 . S
C1122 N1121 1.351 . S
C1122 C1123 1.434 . S
C1123 C1114 1.429 . S
C1123 N1120 1.350 . S
C1123 C1122 1.434 . S
C1124 C1125 1.349 1_545 S
C1124 C1126 1.434 . S
C1124 H1128 0.935 . S
C1125 C1124 1.349 1_565 S
C1125 C1134 1.429 . S
C1126 C1124 1.434 . S
C1126 C1127 1.363 . S
C1126 H1129 0.929 . S
C1127 C1126 1.363 . S
C1127 C1133 1.428 1_545 S
H1128 C1124 0.935 . S
H1129 C1126 0.929 . S
S1130 N1131 1.613 . S
S1130 N1132 1.610 . S
N1131 S1130 1.613 . S
N1131 C1134 1.350 . S
N1132 S1130 1.610 . S
N1132 C1133 1.351 . S
C1133 C1127 1.428 1_565 S
C1133 N1132 1.351 . S
C1133 C1134 1.434 . S
C1134 C1125 1.429 . S
C1134 N1131 1.350 . S
C1134 C1133 1.434 . S
C1135 C1136 1.369 . S
C1135 C1137 1.419 . S
C1135 H1139 0.930 . S
C1136 C1135 1.369 . S
C1136 C1145 1.429 . S
C1137 C1135 1.419 . S
C1137 C1138 1.363 . S
C1137 H1140 0.929 . S
C1138 C1137 1.363 . S
C1138 C1144 1.428 . S
H1139 C1135 0.930 . S
H1140 C1137 0.929 . S
S1141 N1142 1.613 . S
S1141 N1143 1.610 . S
N1142 S1141 1.613 . S
N1142 C1145 1.350 . S
N1143 S1141 1.610 . S
N1143 C1144 1.351 . S
C1144 C1138 1.428 . S
C1144 N1143 1.351 . S
C1144 C1145 1.434 . S
C1145 C1136 1.429 . S
C1145 N1142 1.350 . S
C1145 C1144 1.434 . S
C1146 C1147 1.369 1_565 S
C1146 C1148 1.419 . S
C1146 H1150 0.930 . S
C1147 C1146 1.369 1_545 S
C1147 C1156 1.429 . S
C1148 C1146 1.419 . S
C1148 C1149 1.363 1_556 S
C1148 H1151 0.929 . S
C1149 C1148 1.363 1_554 S
C1149 C1155 1.428 1_565 S
H1150 C1146 0.930 . S
H1151 C1148 0.929 . S
S1152 N1153 1.613 . S
S1152 N1154 1.610 . S
N1153 S1152 1.613 . S
N1153 C1156 1.350 1_554 S
N1154 S1152 1.610 . S
N1154 C1155 1.351 . S
C1155 C1149 1.428 1_545 S
C1155 N1154 1.351 . S
C1155 C1156 1.434 1_554 S
C1156 C1147 1.429 . S
C1156 N1153 1.350 1_556 S
C1156 C1155 1.434 1_556 S
C1157 C1158 1.369 . S
C1157 C1159 1.419 . S
C1157 H1161 0.930 . S
C1158 C1157 1.369 . S
C1158 C1167 1.429 . S
C1159 C1157 1.419 . S
C1159 C1160 1.363 . S
C1159 H1162 0.929 . S
C1160 C1159 1.363 . S
C1160 C1166 1.428 . S
H1161 C1157 0.930 . S
H1162 C1159 0.929 . S
S1163 N1164 1.613 . S
S1163 N1165 1.610 . S
N1164 S1163 1.613 . S
N1164 C1167 1.350 . S
N1165 S1163 1.610 . S
N1165 C1166 1.351 . S
C1166 C1160 1.428 . S
C1166 N1165 1.351 . S
C1166 C1167 1.434 . S
C1167 C1158 1.429 . S
C1167 N1164 1.350 . S
C1167 C1166 1.434 . S
C641 C25 1.687 . S
C643 C4 1.694 . S
C652 C44 1.572 1_556 S
C654 C65 1.565 . S
C663 C84 1.552 . S
C665 C105 1.568 . S
C674 C145 1.456 . S
C676 C124 1.462 . S
C685 C185 1.522 . S
C687 C164 1.517 . S
C696 C225 1.541 . S
C698 C204 1.544 . S
C707 C244 1.444 . S
C709 C265 1.441 . S
C718 C284 1.560 . S
C720 C305 1.565 . S
C729 C324 1.694 . S
C731 C345 1.689 . S
C740 C364 1.564 . S
C742 C385 1.571 1_554 S
C751 C404 1.566 . S
C753 C425 1.555 . S
C762 C444 1.456 . S
C764 C465 1.461 . S
C773 C484 1.520 . S
C775 C505 1.519 . S
C784 C545 1.545 . S
C786 C524 1.541 . S
C795 C585 1.439 . S
C797 C564 1.445 . S
C806 C625 1.565 . S
C808 C604 1.562 . S
C817 C23 1.571 . S
C819 C460 1.668 . S
C828 C71 1.780 . S
C830 C620 1.801 . S
C839 C111 1.730 . S
C841 C362 1.713 . S
C850 C143 1.765 . S
C852 C540 1.844 . S
C861 C183 1.591 . S
C863 C522 1.638 . S
C872 C442 1.762 . S
C874 C231 1.841 . S
C883 C271 1.721 . S
C885 C602 1.662 . S
C894 C311 1.805 . S
C896 C380 1.785 . S
C905 C151 1.664 . S
C907 C322 1.562 . S
C916 C63 1.711 . S
C918 C420 1.728 . S
C927 C482 1.591 . S
C929 C223 1.637 . S
C938 C303 1.656 . S
C940 C580 1.717 . S
C949 C340 1.771 . S
C951 C191 1.782 . S
C960 C263 1.686 . S
C962 C402 1.698 . S
C971 C103 1.695 . S
C973 C562 1.684 . S
C982 C31 1.770 . S
C984 C500 1.781 . S
C993 C2 1.592 . S
C995 C162 1.590 . S
C1004 C60 1.808 . S
C1006 C220 1.820 . S
C1015 C100 1.975 . S
C1017 C260 1.974 . S
C1026 C122 1.922 . S
C1028 C300 1.886 . S
C1037 C503 1.592 . S
C1039 C343 1.590 . S
C1048 C551 1.821 . S
C1050 C391 1.809 . S
C1059 C431 1.974 . S
C1061 C591 1.977 . S
C1070 C631 1.888 . S
C1072 C463 1.921 . S
C1081 C42 1.714 . S
C1083 C282 1.715 . S
C1092 C180 1.998 . S
C1094 C82 2.043 . S
C1103 C202 1.900 . S
C1105 C140 1.876 . S
C1114 C20 1.736 . S
C1116 C242 1.770 . S
C1125 C623 1.713 . S
C1127 C383 1.715 . S
C1136 C511 2.000 . S
C1138 C423 2.042 . S
C1147 C543 1.898 . S
C1149 C471 1.879 . S
C1158 C583 1.769 . S
C1160 C351 1.738 . S
