# Generated by pormake.
# Topology unj, (4)-cn, num edge types: 1
# Building blocks:
#     Node 0, Type 0, BuildingBlock: KUFVIS_clean_sbu_0, # of connection points: 4
#     Node 1, Type 0, BuildingBlock: KUFVIS_clean_sbu_0, # of connection points: 4
#     Node 2, Type 0, BuildingBlock: KUFVIS_clean_sbu_0, # of connection points: 4
#     Node 3, Type 0, BuildingBlock: KUFVIS_clean_sbu_0, # of connection points: 4
#     Node 4, Type 0, BuildingBlock: KUFVIS_clean_sbu_0, # of connection points: 4
#     Node 5, Type 0, BuildingBlock: KUFVIS_clean_sbu_0, # of connection points: 4
#     Edge 6, Type (0, 0), BuildingBlock: ZUJKAS_clean_linker_0, # of connection points: 2
#     Edge 7, Type (0, 0), BuildingBlock: ZUJKAS_clean_linker_0, # of connection points: 2
#     Edge 8, Type (0, 0), BuildingBlock: ZUJKAS_clean_linker_0, # of connection points: 2
#     Edge 9, Type (0, 0), BuildingBlock: ZUJKAS_clean_linker_0, # of connection points: 2
#     Edge 10, Type (0, 0), BuildingBlock: ZUJKAS_clean_linker_0, # of connection points: 2
#     Edge 11, Type (0, 0), BuildingBlock: ZUJKAS_clean_linker_0, # of connection points: 2
#     Edge 12, Type (0, 0), BuildingBlock: ZUJKAS_clean_linker_0, # of connection points: 2
#     Edge 13, Type (0, 0), BuildingBlock: ZUJKAS_clean_linker_0, # of connection points: 2
#     Edge 14, Type (0, 0), BuildingBlock: ZUJKAS_clean_linker_0, # of connection points: 2
#     Edge 15, Type (0, 0), BuildingBlock: ZUJKAS_clean_linker_0, # of connection points: 2
#     Edge 16, Type (0, 0), BuildingBlock: ZUJKAS_clean_linker_0, # of connection points: 2
#     Edge 17, Type (0, 0), BuildingBlock: ZUJKAS_clean_linker_0, # of connection points: 2
# Relax obj value: 0.013
# Max RMSD: 0.054
# Mean RMSD: 0.054
data_MOF--net-unj--node1-KUFVIS_clean_sbu_0--edge1-ZUJKAS_clean_linker_0
_symmetry_space_group_name_H-M    P1
_symmetry_Int_Tables_number       1
_symmetry_cell_setting            triclinic
loop_
_symmetry_equiv_pos_as_xyz
'x, y, z'
_cell_length_a     42.608819
_cell_length_b     42.568364
_cell_length_c     45.841666
_cell_angle_alpha  90.043435
_cell_angle_beta   89.999656
_cell_angle_gamma 119.91132
loop_
_atom_site_label
_atom_site_type_symbol
_atom_site_fract_x
_atom_site_fract_y
_atom_site_fract_z
_atom_type_partial_charge
Mn0 Mn 0.50908 0.23944 0.59938 0.0
Mn1 Mn 0.57919 0.22773 0.58055 0.0
C2 C 0.53731 0.22239 0.6342 0.0
C3 C 0.48616 0.27652 0.61454 0.0
C4 C 0.50099 0.17316 0.56624 0.0
O5 O 0.52536 0.26588 0.56033 0.0
O6 O 0.57363 0.25904 0.55136 0.0
C7 C 0.63921 0.30305 0.58835 0.0
N8 N 0.6235 0.26713 0.59487 0.0
C9 C 0.67382 0.27742 0.62522 0.0
C10 C 0.69063 0.31451 0.61875 0.0
C11 C 0.67315 0.32739 0.60035 0.0
C12 C 0.63987 0.25452 0.61282 0.0
H13 H 0.62596 0.313 0.57406 0.0
C14 C 0.55273 0.27162 0.54494 0.0
O15 O 0.46624 0.24659 0.60039 0.0
O16 O 0.51949 0.28517 0.61957 0.0
N17 N 0.58791 0.19828 0.60711 0.0
C18 C 0.56711 0.16211 0.6125 0.0
C19 C 0.58013 0.14515 0.6313 0.0
C20 C 0.61459 0.16542 0.64397 0.0
C21 C 0.63563 0.20252 0.63785 0.0
C22 C 0.6211 0.21801 0.61918 0.0
H23 H 0.54077 0.14633 0.60257 0.0
O24 O 0.50448 0.21597 0.63836 0.0
O25 O 0.55241 0.23844 0.60991 0.0
O26 O 0.48701 0.19008 0.57873 0.0
O27 O 0.53507 0.18531 0.56524 0.0
C28 C 0.67037 0.22479 0.64965 0.0
C29 C 0.68932 0.26228 0.64359 0.0
H30 H 0.71686 0.33335 0.62789 0.0
H31 H 0.6859 0.35599 0.59532 0.0
H32 H 0.56372 0.1165 0.6359 0.0
H33 H 0.62457 0.15224 0.65843 0.0
H34 H 0.68252 0.21347 0.66386 0.0
H35 H 0.71569 0.27925 0.65332 0.0
Mn36 Mn 0.28259 0.49747 0.76738 0.0
Mn37 Mn 0.36415 0.56939 0.75086 0.0
C38 C 0.32656 0.52447 0.8031 0.0
C39 C 0.22224 0.47329 0.7817 0.0
C40 C 0.34216 0.49213 0.73418 0.0
O41 O 0.27317 0.51528 0.72875 0.0
O42 O 0.32791 0.56482 0.72144 0.0
C43 C 0.34713 0.62801 0.76084 0.0
N44 N 0.36763 0.61246 0.76693 0.0
C45 C 0.40392 0.65972 0.80114 0.0
C46 C 0.38335 0.67636 0.7951 0.0
C47 C 0.35478 0.66038 0.77492 0.0
C48 C 0.39511 0.62754 0.78637 0.0
H49 H 0.32509 0.61576 0.7454 0.0
C50 C 0.29476 0.54365 0.71435 0.0
O51 O 0.23303 0.45412 0.76731 0.0
O52 O 0.24639 0.50664 0.78734 0.0
N53 N 0.40156 0.57713 0.77794 0.0
C54 C 0.41746 0.55661 0.78249 0.0
C55 C 0.44594 0.56831 0.80266 0.0
C56 C 0.45793 0.60107 0.81778 0.0
C57 C 0.44132 0.62186 0.81257 0.0
C58 C 0.41321 0.60893 0.79209 0.0
H59 H 0.40837 0.53143 0.77091 0.0
O60 O 0.30038 0.49135 0.80629 0.0
O61 O 0.32607 0.54059 0.7792 0.0
O62 O 0.31124 0.47704 0.74659 0.0
O63 O 0.36358 0.52639 0.73382 0.0
C64 C 0.4512 0.65462 0.82721 0.0
C65 C 0.43242 0.67346 0.82158 0.0
H66 H 0.38906 0.70124 0.80601 0.0
H67 H 0.33867 0.67296 0.77025 0.0
H68 H 0.45859 0.55208 0.8066 0.0
H69 H 0.47974 0.60987 0.83347 0.0
H70 H 0.47291 0.66537 0.8431 0.0
H71 H 0.43989 0.69832 0.83331 0.0
Mn72 Mn 0.79914 0.27735 0.93402 0.0
Mn73 Mn 0.80959 0.35836 0.91413 0.0
C74 C 0.81624 0.32329 0.96836 0.0
C75 C 0.76296 0.21758 0.94986 0.0
C76 C 0.86415 0.33459 0.89967 0.0
O77 O 0.77236 0.26629 0.89498 0.0
O78 O 0.77724 0.32063 0.886 0.0
C79 C 0.73469 0.34353 0.92371 0.0
N80 N 0.77083 0.36392 0.92918 0.0
C81 C 0.76169 0.40446 0.95998 0.0
C82 C 0.72437 0.38398 0.95459 0.0
C83 C 0.71081 0.35332 0.93646 0.0
C84 C 0.78413 0.39331 0.94676 0.0
H85 H 0.72421 0.31999 0.90973 0.0
C86 C 0.76538 0.28722 0.87975 0.0
O87 O 0.79301 0.22785 0.93588 0.0
O88 O 0.7536 0.24194 0.95428 0.0
N89 N 0.84008 0.3973 0.93966 0.0
C90 C 0.8765 0.41299 0.94377 0.0
C91 C 0.89439 0.44402 0.96133 0.0
C92 C 0.8747 0.45871 0.97431 0.0
C93 C 0.83714 0.44181 0.97009 0.0
C94 C 0.82087 0.41118 0.9521 0.0
H95 H 0.89186 0.40211 0.93352 0.0
O96 O 0.82284 0.29702 0.97278 0.0
O97 O 0.79981 0.32176 0.94409 0.0
O98 O 0.84817 0.30448 0.91326 0.0
O99 O 0.85138 0.35602 0.89796 0.0
C100 C 0.81519 0.45406 0.98307 0.0
C101 C 0.77746 0.43523 0.97821 0.0
H102 H 0.70586 0.39143 0.96438 0.0
H103 H 0.68203 0.33731 0.93228 0.0
H104 H 0.92334 0.4568 0.96465 0.0
H105 H 0.88873 0.48291 0.98757 0.0
H106 H 0.82699 0.4777 0.9971 0.0
H107 H 0.76081 0.44458 0.98867 0.0
Mn108 Mn 0.53359 0.79124 0.0988 0.0
Mn109 Mn 0.46399 0.8015 0.07551 0.0
C110 C 0.50255 0.80773 0.13151 0.0
C111 C 0.55734 0.75577 0.11627 0.0
C112 C 0.54249 0.85788 0.06549 0.0
O113 O 0.52052 0.76437 0.05987 0.0
O114 O 0.47428 0.77276 0.04694 0.0
C115 C 0.4057 0.72477 0.07899 0.0
N116 N 0.41902 0.76022 0.08625 0.0
C117 C 0.3633 0.74675 0.1099 0.0
C118 C 0.3489 0.71009 0.10262 0.0
C119 C 0.3703 0.69903 0.08728 0.0
C120 C 0.39893 0.77104 0.10147 0.0
H121 H 0.42189 0.71627 0.06684 0.0
C122 C 0.49531 0.75986 0.04236 0.0
O123 O 0.57725 0.78578 0.1023 0.0
O124 O 0.5235 0.74613 0.11995 0.0
N125 N 0.4503 0.82832 0.10081 0.0
C126 C 0.46904 0.86424 0.10764 0.0
C127 C 0.45184 0.87955 0.12359 0.0
C128 C 0.41541 0.85795 0.13179 0.0
C129 C 0.3967 0.82103 0.12449 0.0
C130 C 0.41539 0.8072 0.10894 0.0
H131 H 0.49681 0.8811 0.10083 0.0
O132 O 0.5354 0.81496 0.13697 0.0
O133 O 0.48869 0.791 0.10705 0.0
O134 O 0.55599 0.84039 0.07773 0.0
O135 O 0.5085 0.84575 0.06361 0.0
C136 C 0.36024 0.79739 0.13198 0.0
C137 C 0.34371 0.76019 0.12508 0.0
H138 H 0.32149 0.69021 0.10875 0.0
H139 H 0.3594 0.67079 0.08162 0.0
H140 H 0.46648 0.90803 0.12922 0.0
H141 H 0.40212 0.86996 0.1438 0.0
H142 H 0.34481 0.80744 0.14347 0.0
H143 H 0.31592 0.74216 0.13156 0.0
Mn144 Mn 0.76321 0.53427 0.26704 0.0
Mn145 Mn 0.68223 0.46406 0.2468 0.0
C146 C 0.718 0.50405 0.30148 0.0
C147 C 0.82334 0.55735 0.2819 0.0
C148 C 0.70522 0.54259 0.23427 0.0
O149 O 0.77374 0.51974 0.22719 0.0
O150 O 0.71953 0.47023 0.21799 0.0
C151 C 0.69727 0.40371 0.25399 0.0
N152 N 0.67707 0.41942 0.26065 0.0
C153 C 0.63683 0.3687 0.2905 0.0
C154 C 0.6571 0.35189 0.28389 0.0
C155 C 0.68755 0.36955 0.26566 0.0
C156 C 0.64796 0.40284 0.27839 0.0
H157 H 0.72056 0.41713 0.23985 0.0
C158 C 0.75276 0.49213 0.21169 0.0
O159 O 0.81269 0.57761 0.2691 0.0
O160 O 0.79913 0.52356 0.28579 0.0
N161 N 0.64378 0.455 0.27313 0.0
C162 C 0.62848 0.47585 0.27875 0.0
C163 C 0.59845 0.46267 0.29745 0.0
C164 C 0.58418 0.42804 0.30984 0.0
C165 C 0.60021 0.40697 0.30352 0.0
C166 C 0.63023 0.42162 0.2849 0.0
H167 H 0.63914 0.50236 0.26908 0.0
O168 O 0.74414 0.53677 0.30652 0.0
O169 O 0.71928 0.49016 0.2766 0.0
O170 O 0.73527 0.55666 0.24796 0.0
O171 O 0.68418 0.50846 0.23173 0.0
C172 C 0.58773 0.37209 0.31511 0.0
C173 C 0.60618 0.35307 0.30879 0.0
H174 H 0.64965 0.32551 0.29281 0.0
H175 H 0.7034 0.3568 0.26053 0.0
H176 H 0.58624 0.47912 0.30222 0.0
H177 H 0.56101 0.41796 0.32425 0.0
H178 H 0.56433 0.35989 0.32934 0.0
H179 H 0.59675 0.32658 0.31834 0.0
Mn180 Mn 0.24614 0.75339 0.43404 0.0
Mn181 Mn 0.23696 0.67215 0.41674 0.0
C182 C 0.2286 0.70856 0.46943 0.0
C183 C 0.28203 0.81363 0.44908 0.0
C184 C 0.18222 0.69485 0.39953 0.0
O185 O 0.27389 0.76342 0.39558 0.0
O186 O 0.27035 0.70931 0.38868 0.0
C187 C 0.31165 0.68763 0.42871 0.0
N188 N 0.27535 0.66724 0.43348 0.0
C189 C 0.28372 0.62764 0.46597 0.0
C190 C 0.32119 0.64811 0.4613 0.0
C191 C 0.33521 0.67831 0.44268 0.0
C192 C 0.2616 0.6383 0.45153 0.0
H193 H 0.32253 0.71084 0.4144 0.0
C194 C 0.28221 0.74251 0.38172 0.0
O195 O 0.25237 0.80306 0.43439 0.0
O196 O 0.29108 0.78931 0.45467 0.0
N197 N 0.2058 0.63389 0.4425 0.0
C198 C 0.16929 0.61833 0.44598 0.0
C199 C 0.15099 0.58785 0.46402 0.0
C200 C 0.17036 0.57359 0.47817 0.0
C201 C 0.20801 0.59037 0.47461 0.0
C202 C 0.22472 0.62046 0.45612 0.0
H203 H 0.15418 0.62891 0.43491 0.0
O204 O 0.22156 0.73473 0.47271 0.0
O205 O 0.24554 0.70952 0.44563 0.0
O206 O 0.19766 0.72543 0.4125 0.0
O207 O 0.19542 0.67371 0.39896 0.0
C208 C 0.22964 0.57857 0.48878 0.0
C209 C 0.2675 0.59736 0.48465 0.0
H210 H 0.33946 0.64103 0.47204 0.0
H211 H 0.36411 0.69433 0.43906 0.0
H212 H 0.12197 0.5752 0.46685 0.0
H213 H 0.15604 0.54985 0.49186 0.0
H214 H 0.2175 0.55534 0.5032 0.0
H215 H 0.28389 0.58839 0.49605 0.0
H216 H 0.42651 0.13334 0.56753 0.0
H217 H 0.38736 0.07314 0.54658 0.0
H218 H 0.48113 0.07119 0.51368 0.0
H219 H 0.52046 0.13116 0.53433 0.0
H220 H 0.42283 0.04861 0.4726 0.0
H221 H 0.37803 0.9776 0.57923 0.0
H222 H 0.37246 0.01648 0.57455 0.0
H223 H 0.41716 0.02228 0.57576 0.0
C224 C 0.43886 0.1202 0.55577 0.0
C225 C 0.47675 0.13719 0.55277 0.0
C226 C 0.41641 0.0857 0.54393 0.0
C227 C 0.43138 0.06756 0.52886 0.0
C228 C 0.46903 0.08468 0.5253 0.0
H229 H 0.3423 0.84177 0.48366 0.0
H230 H 0.37779 0.90383 0.50209 0.0
C231 C 0.49148 0.11901 0.53721 0.0
C232 C 0.40804 0.03058 0.51691 0.0
H233 H 0.35222 0.94245 0.53687 0.0
C234 C 0.40723 0.0254 0.4866 0.0
C235 C 0.38809 1.00032 0.53529 0.0
C236 C 0.38904 1.00417 0.56804 0.0
C237 C 0.38692 0.99073 0.47417 0.0
C238 C 0.36671 0.96052 0.49254 0.0
C239 C 0.36758 0.9657 0.52284 0.0
C240 C 0.34531 0.92313 0.48081 0.0
C241 C 0.38792 0.98653 0.44156 0.0
C242 C 0.31515 0.91335 0.46283 0.0
C243 C 0.29473 0.87785 0.45229 0.0
C244 C 0.30412 0.85148 0.45957 0.0
C245 C 0.3344 0.86143 0.47755 0.0
C246 C 0.35468 0.89686 0.48817 0.0
H247 H 0.41051 1.01098 0.43125 0.0
H248 H 0.39079 0.96266 0.43609 0.0
H249 H 0.36213 0.98213 0.43195 0.0
H250 H 0.30714 0.93307 0.45722 0.0
H251 H 0.27149 0.87104 0.43858 0.0
H252 H 0.42843 0.28031 0.59287 0.0
H253 H 0.40397 0.31813 0.61044 0.0
H254 H 0.48412 0.35962 0.67898 0.0
H255 H 0.50996 0.32365 0.66031 0.0
H256 H 0.37274 0.319 0.6574 0.0
H257 H 0.49719 0.45247 0.65052 0.0
H258 H 0.49454 0.41219 0.63529 0.0
H259 H 0.50436 0.42264 0.67351 0.0
C260 C 0.44104 0.29786 0.61148 0.0
C261 C 0.47134 0.29937 0.62503 0.0
C262 C 0.42701 0.31942 0.62157 0.0
C263 C 0.44261 0.3425 0.64572 0.0
C264 C 0.47236 0.34323 0.65968 0.0
H265 H 0.32799 0.42462 0.75058 0.0
H266 H 0.35153 0.38812 0.72865 0.0
C267 C 0.48696 0.32239 0.64914 0.0
C268 C 0.42698 0.36473 0.65687 0.0
H269 H 0.4494 0.44975 0.67985 0.0
C270 C 0.3895 0.3477 0.662 0.0
C271 C 0.44853 0.4024 0.66239 0.0
C272 C 0.48828 0.42352 0.65481 0.0
C273 C 0.37316 0.36697 0.67292 0.0
C274 C 0.39509 0.40407 0.68029 0.0
C275 C 0.43247 0.42123 0.67466 0.0
C276 C 0.38007 0.42584 0.69357 0.0
C277 C 0.33244 0.34737 0.67564 0.0
C278 C 0.38929 0.45998 0.68203 0.0
C279 C 0.37688 0.48142 0.69519 0.0
C280 C 0.35439 0.46892 0.71987 0.0
C281 C 0.34479 0.43466 0.73128 0.0
C282 C 0.35802 0.41363 0.71857 0.0
H283 H 0.31947 0.32445 0.65996 0.0
H284 H 0.32463 0.33591 0.69792 0.0
H285 H 0.3215 0.36583 0.6717 0.0
H286 H 0.40628 0.4702 0.66285 0.0
H287 H 0.38469 0.50771 0.68591 0.0
H288 H 0.90363 0.39327 0.86434 0.0
H289 H 0.96297 0.41311 0.84274 0.0
H290 H 0.9652 0.32213 0.88171 0.0
H291 H 0.9057 0.30192 0.90355 0.0
H292 H 0.02923 0.39093 0.89057 0.0
H293 H 0.98853 0.36631 0.77403 0.0
H294 H 0.9723 0.39193 0.7937 0.0
H295 H 0.95659 0.34558 0.80353 0.0
C296 C 0.91651 0.37724 0.86822 0.0
C297 C 0.8997 0.34587 0.88568 0.0
C298 C 0.95041 0.38857 0.8557 0.0
C299 C 0.96827 0.36885 0.86033 0.0
C300 C 0.95172 0.33759 0.87772 0.0
H301 H 0.16558 0.40463 0.77272 0.0
H302 H 0.10382 0.37818 0.79186 0.0
C303 C 0.91767 0.32607 0.89015 0.0
C304 C 1.00489 0.38181 0.84799 0.0
H305 H 0.05173 0.40087 0.78386 0.0
C306 C 0.03416 0.3929 0.86725 0.0
C307 C 1.01116 0.38402 0.81756 0.0
C308 C 0.98049 0.37105 0.79593 0.0
C309 C 0.0697 0.40707 0.85687 0.0
C310 C 0.07615 0.41056 0.82644 0.0
C311 C 0.04676 0.39851 0.80717 0.0
C312 C 0.11329 0.42689 0.81426 0.0
C313 C 0.10006 0.41803 0.87856 0.0
C314 C 0.13886 0.46323 0.82005 0.0
C315 C 0.1741 0.47843 0.80912 0.0
C316 C 0.18442 0.45759 0.7921 0.0
C317 C 0.15852 0.42138 0.78583 0.0
C318 C 0.12323 0.40623 0.79672 0.0
H319 H 0.08981 0.40539 0.90024 0.0
H320 H 0.11996 0.41035 0.87068 0.0
H321 H 0.11439 0.44789 0.88142 0.0
H322 H 0.13157 0.47985 0.8331 0.0
H323 H 0.19332 0.50644 0.81425 0.0
H324 H 0.52481 0.90817 0.047 0.0
H325 H 0.56498 0.96854 0.0274 0.0
H326 H 0.65604 0.9515 0.03643 0.0
H327 H 0.61607 0.8908 0.0564 0.0
H328 H 0.6371 0.02646 0.05926 0.0
H329 H 0.64947 0.98425 0.94667 0.0
H330 H 0.61007 0.95705 0.96896 0.0
H331 H 0.65221 0.95938 0.97748 0.0
C332 C 0.55334 0.91704 0.04479 0.0
C333 C 0.56715 0.89445 0.05327 0.0
C334 C 0.57624 0.95163 0.03362 0.0
C335 C 0.61334 0.9643 0.03038 0.0
C336 C 0.62738 0.94202 0.03868 0.0
H337 H 0.7803 0.1638 0.94991 0.0
H338 H 0.74513 0.10274 0.97022 0.0
C339 C 0.60451 0.90741 0.05013 0.0
C340 C 0.63723 1.00114 0.01869 0.0
H341 H 0.67941 0.04682 0.95654 0.0
C342 C 0.64653 0.03103 0.03685 0.0
C343 C 0.64955 1.0068 0.98955 0.0
C344 C 0.63988 0.97532 0.96931 0.0
C345 C 0.66792 0.06665 0.02658 0.0
C346 C 0.67937 0.07247 0.99708 0.0
C347 C 0.67048 0.04241 0.97908 0.0
C348 C 0.70041 0.10948 0.98444 0.0
C349 C 0.67852 0.09763 0.04763 0.0
C350 C 0.68672 0.13344 0.98513 0.0
C351 C 0.7069 0.16848 0.97375 0.0
C352 C 0.74096 0.18008 0.96101 0.0
C353 C 0.75418 0.15573 0.95961 0.0
C354 C 0.73411 0.1208 0.97121 0.0
H355 H 0.67732 0.0888 0.0706 0.0
H356 H 0.70629 0.12022 0.04313 0.0
H357 H 0.65936 0.10799 0.04537 0.0
H358 H 0.66035 0.12503 0.99446 0.0
H359 H 0.6958 0.18646 0.97493 0.0
H360 H 0.66595 0.5307 0.18458 0.0
H361 H 0.64391 0.5687 0.16334 0.0
H362 H 0.6929 0.64518 0.23394 0.0
H363 H 0.71692 0.6082 0.25421 0.0
H364 H 0.59803 0.58519 0.18155 0.0
H365 H 0.72628 0.71463 0.16885 0.0
H366 H 0.72535 0.67312 0.17838 0.0
H367 H 0.71928 0.69978 0.20603 0.0
C368 C 0.67246 0.55591 0.19533 0.0
C369 C 0.6934 0.56665 0.22092 0.0
C370 C 0.65976 0.57761 0.18321 0.0
C371 C 0.66711 0.61027 0.19668 0.0
C372 C 0.6878 0.62085 0.22247 0.0
H373 H 0.53219 0.70755 0.16139 0.0
H374 H 0.55885 0.67284 0.1813 0.0
C375 C 0.70134 0.59956 0.2342 0.0
C376 C 0.65146 0.63199 0.18442 0.0
H377 H 0.67189 0.71749 0.16455 0.0
C378 C 0.61434 0.61409 0.17761 0.0
C379 C 0.67262 0.66966 0.17879 0.0
C380 C 0.71314 0.69031 0.18309 0.0
C381 C 0.59783 0.63259 0.16555 0.0
C382 C 0.61856 0.67059 0.16142 0.0
C383 C 0.65575 0.68848 0.16802 0.0
C384 C 0.60251 0.69222 0.14979 0.0
C385 C 0.55859 0.61078 0.15653 0.0
C386 C 0.61892 0.71608 0.12626 0.0
C387 C 0.60434 0.73683 0.11548 0.0
C388 C 0.5727 0.73378 0.1277 0.0
C389 C 0.55628 0.71002 0.15124 0.0
C390 C 0.57138 0.68993 0.16249 0.0
H391 H 0.55068 0.58217 0.1518 0.0
H392 H 0.54123 0.61057 0.17466 0.0
H393 H 0.55296 0.62239 0.13688 0.0
H394 H 0.643 0.71855 0.11608 0.0
H395 H 0.6176 0.75495 0.09731 0.0
H396 H 0.14743 0.73363 0.38953 0.0
H397 H 0.08727 0.71159 0.3681 0.0
H398 H 0.07558 0.60584 0.35649 0.0
H399 H 0.13558 0.62741 0.37757 0.0
H400 H 0.06005 0.66848 0.3073 0.0
H401 H 0.9856 0.59816 0.40834 0.0
H402 H 0.03094 0.63674 0.40935 0.0
H403 H 0.02375 0.59353 0.39746 0.0
C404 C 0.1322 0.70572 0.3823 0.0
C405 C 0.14647 0.68233 0.38537 0.0
C406 C 0.09785 0.69323 0.37003 0.0
C407 C 0.07703 0.65709 0.36089 0.0
C408 C 0.09125 0.6338 0.36353 0.0
H409 H 0.85493 0.52025 0.30432 0.0
H410 H 0.91705 0.54514 0.32205 0.0
C411 C 0.12563 0.64628 0.37555 0.0
C412 C 0.0401 0.64332 0.34902 0.0
H413 H 0.9507 0.59099 0.36642 0.0
C414 C 0.03606 0.65167 0.32018 0.0
C415 C 1.00904 0.62119 0.36587 0.0
C416 C 1.01221 0.61184 0.39706 0.0
C417 C 1.00157 0.63789 0.30752 0.0
C418 C 0.97032 0.61595 0.32448 0.0
C419 C 0.97455 0.60778 0.35341 0.0
C420 C 0.93296 0.60097 0.3127 0.0
C421 C 0.99905 0.6461 0.27587 0.0
C422 C 0.92105 0.62401 0.30167 0.0
C423 C 0.88562 0.60981 0.29126 0.0
C424 C 0.86119 0.57228 0.29209 0.0
C425 C 0.87307 0.54927 0.30333 0.0
C426 C 0.90858 0.56347 0.31352 0.0
H427 H 0.02456 0.65368 0.26395 0.0
H428 H 0.97642 0.6225 0.26473 0.0
H429 H 0.99413 0.66932 0.27449 0.0
H430 H 0.93896 0.65309 0.3015 0.0
H431 H 0.87724 0.62831 0.283 0.0
H432 H 0.52915 0.31904 0.52954 0.0
H433 H 0.54882 0.3602 0.48735 0.0
H434 H 0.61761 0.31847 0.4594 0.0
H435 H 0.59838 0.2776 0.50099 0.0
H436 H 0.62503 0.41426 0.47284 0.0
H437 H 0.55662 0.31147 0.38614 0.0
H438 H 0.54269 0.30303 0.4239 0.0
H439 H 0.58122 0.3 0.41174 0.0
C440 C 0.54812 0.31835 0.51419 0.0
C441 C 0.5621 0.29493 0.51865 0.0
C442 C 0.55943 0.34198 0.49022 0.0
C443 C 0.58439 0.34207 0.47017 0.0
C444 C 0.59798 0.31848 0.47442 0.0
H445 H 0.71148 0.4411 0.32015 0.0
H446 H 0.67621 0.40397 0.36141 0.0
C447 C 0.587 0.2952 0.49833 0.0
C448 C 0.59763 0.36743 0.44514 0.0
H449 H 0.60624 0.36843 0.37135 0.0
C450 C 0.62029 0.40457 0.4505 0.0
C451 C 0.59153 0.35454 0.41614 0.0
C452 C 0.56642 0.31511 0.40903 0.0
C453 C 0.63874 0.42893 0.42761 0.0
C454 C 0.6337 0.41574 0.39859 0.0
C455 C 0.60986 0.37876 0.39336 0.0
C456 C 0.65485 0.43889 0.37355 0.0
C457 C 0.66513 0.46798 0.43499 0.0
C458 C 0.65454 0.47087 0.3664 0.0
C459 C 0.67513 0.49236 0.34291 0.0
C460 C 0.6952 0.48145 0.32565 0.0
C461 C 0.69546 0.44955 0.33276 0.0
C462 C 0.67541 0.42843 0.35638 0.0
H463 H 0.67254 0.47158 0.45848 0.0
H464 H 0.6903 0.47835 0.4219 0.0
H465 H 0.65256 0.48475 0.43001 0.0
H466 H 0.63829 0.47914 0.37883 0.0
H467 H 0.67489 0.5171 0.33789 0.0
H468 H 0.28357 0.7007 0.48971 0.0
H469 H 0.28481 0.66832 0.53318 0.0
H470 H 0.17449 0.63938 0.55245 0.0
H471 H 0.17282 0.67073 0.50779 0.0
H472 H 0.27671 0.6843 0.5889 0.0
H473 H 0.17051 0.54293 0.56305 0.0
H474 H 0.18585 0.57916 0.53687 0.0
H475 H 0.15534 0.57545 0.56525 0.0
C476 C 0.25923 0.68647 0.50274 0.0
C477 C 0.22766 0.68693 0.49488 0.0
C478 C 0.26007 0.66835 0.52778 0.0
C479 C 0.2296 0.65093 0.54596 0.0
C480 C 0.19805 0.65185 0.53844 0.0
H481 H 0.22569 0.53063 0.70458 0.0
H482 H 0.20597 0.5567 0.66572 0.0
C483 C 0.19715 0.66988 0.51308 0.0
C484 C 0.23236 0.63383 0.57342 0.0
H485 H 0.20219 0.55226 0.60738 0.0
C486 C 0.26022 0.65544 0.59299 0.0
C487 C 0.21014 0.5964 0.57939 0.0
C488 C 0.17884 0.57195 0.56001 0.0
C489 C 0.26769 0.64046 0.61741 0.0
C490 C 0.24756 0.60253 0.62192 0.0
C491 C 0.21814 0.58121 0.60353 0.0
C492 C 0.25825 0.58451 0.64443 0.0
C493 C 0.29724 0.66556 0.63806 0.0
C494 C 0.29364 0.59017 0.64463 0.0
C495 C 0.30498 0.57574 0.66683 0.0
C496 C 0.28093 0.55451 0.68896 0.0
C497 C 0.24479 0.54684 0.68776 0.0
C498 C 0.23356 0.56185 0.66568 0.0
H499 H 0.30042 0.6931 0.63786 0.0
H500 H 0.29164 0.65514 0.66077 0.0
H501 H 0.32337 0.66824 0.63099 0.0
H502 H 0.3128 0.6064 0.62786 0.0
H503 H 0.33285 0.5817 0.66692 0.0
H504 H 0.71867 0.21586 0.86482 0.0
H505 H 0.67729 0.19353 0.8227 0.0
H506 H 0.71698 0.30349 0.79434 0.0
H507 H 0.75797 0.32594 0.8358 0.0
H508 H 0.62218 0.21597 0.80731 0.0
H509 H 0.72591 0.24823 0.72189 0.0
H510 H 0.73353 0.24248 0.75982 0.0
H511 H 0.73736 0.28435 0.74748 0.0
C512 C 0.7188 0.23521 0.84941 0.0
C513 C 0.74172 0.2727 0.85369 0.0
C514 C 0.69505 0.22242 0.8255 0.0
C515 C 0.69436 0.2469 0.80536 0.0
C516 C 0.71739 0.28416 0.80948 0.0
H517 H 0.60001 0.27764 0.6543 0.0
H518 H 0.63557 0.27799 0.69621 0.0
C519 C 0.74076 0.29692 0.83331 0.0
C520 C 0.66928 0.23441 0.78015 0.0
H521 H 0.66951 0.2417 0.7063 0.0
C522 C 0.63216 0.22055 0.78507 0.0
C523 C 0.68256 0.24073 0.75129 0.0
C524 C 0.72199 0.25447 0.74469 0.0
C525 C 0.60828 0.21498 0.76185 0.0
C526 C 0.62194 0.22287 0.73297 0.0
C527 C 0.65883 0.2352 0.7282 0.0
C528 C 0.59955 0.22177 0.70763 0.0
C529 C 0.56928 0.20305 0.76869 0.0
C530 C 0.56744 0.19003 0.69988 0.0
C531 C 0.54685 0.18998 0.67597 0.0
C532 C 0.5588 0.22129 0.65894 0.0
C533 C 0.59078 0.25291 0.66671 0.0
C534 C 0.611 0.25313 0.69071 0.0
H535 H 0.56528 0.20659 0.79215 0.0
H536 H 0.55966 0.21849 0.75555 0.0
H537 H 0.55218 0.17388 0.76331 0.0
H538 H 0.5584 0.16527 0.71214 0.0
H539 H 0.52204 0.1654 0.67045 0.0
H540 H 0.36842 0.50894 0.83895 0.0
H541 H 0.40266 0.5437 0.88223 0.0
H542 H 0.36485 0.61947 0.86804 0.0
H543 H 0.33081 0.58494 0.82528 0.0
H544 H 0.4581 0.62183 0.88563 0.0
H545 H 0.33718 0.58443 0.95382 0.0
H546 H 0.33598 0.55874 0.92202 0.0
H547 H 0.33416 0.59983 0.91802 0.0
C548 C 0.36766 0.5331 0.84521 0.0
C549 C 0.34793 0.54499 0.82857 0.0
C550 C 0.38716 0.55287 0.86977 0.0
C551 C 0.3861 0.58401 0.87833 0.0
C552 C 0.36579 0.59537 0.86191 0.0
H553 H 0.45751 0.75811 0.99403 0.0
H554 H 0.43582 0.71356 0.95486 0.0
C555 C 0.34665 0.57586 0.8374 0.0
C556 C 0.40583 0.60507 0.90445 0.0
H557 H 0.39203 0.6375 0.96831 0.0
C558 C 0.44382 0.62494 0.90397 0.0
C559 C 0.38704 0.60858 0.92848 0.0
C560 C 0.34634 0.58649 0.93085 0.0
C561 C 0.4634 0.65037 0.92596 0.0
C562 C 0.44437 0.65538 0.94907 0.0
C563 C 0.40654 0.63383 0.95039 0.0
C564 C 0.46234 0.6849 0.97079 0.0
C565 C 0.50401 0.67311 0.92355 0.0
C566 C 0.48535 0.68416 0.99237 0.0
C567 C 0.49804 0.70987 0.01496 0.0
C568 C 0.48752 0.73639 0.01634 0.0
C569 C 0.4659 0.73791 0.99382 0.0
C570 C 0.45346 0.71246 0.97136 0.0
H571 H 0.51424 0.66886 0.90248 0.0
H572 H 0.51262 0.70229 0.92577 0.0
H573 H 0.51675 0.66601 0.94156 0.0
H574 H 0.49219 0.66283 0.99247 0.0
H575 H 0.51447 0.70783 0.03206 0.0
H576 H 0.7621 0.33352 0.98726 0.0
H577 H 0.76155 0.36773 0.02983 0.0
H578 H 0.87119 0.395 0.05007 0.0
H579 H 0.87218 0.36181 1.00635 0.0
H580 H 0.76934 0.35239 0.08608 0.0
H581 H 0.87719 0.4928 0.0593 0.0
H582 H 0.8594 0.45668 0.03285 0.0
H583 H 0.89065 0.4589 0.06001 0.0
C584 C 0.78647 0.34781 1.00027 0.0
C585 C 0.81764 0.34628 0.99298 0.0
C586 C 0.78603 0.36699 0.02479 0.0
C587 C 0.8165 0.38444 0.043 0.0
C588 C 0.84767 0.38257 0.03599 0.0
H589 H 0.82174 0.50432 0.20269 0.0
H590 H 0.84153 0.47882 0.16331 0.0
C591 C 0.84816 0.36347 0.01117 0.0
C592 C 0.81405 0.40227 0.07016 0.0
H593 H 0.84571 0.48455 0.10346 0.0
C594 C 0.78623 0.38127 0.08992 0.0
C595 C 0.83673 0.43975 0.07575 0.0
C596 C 0.86765 0.46357 0.05585 0.0
C597 C 0.77933 0.39691 0.11422 0.0
C598 C 0.8001 0.43485 0.11846 0.0
C599 C 0.8294 0.45558 0.09984 0.0
C600 C 0.78996 0.45345 0.14084 0.0
C601 C 0.74959 0.37253 0.135 0.0
C602 C 0.75511 0.44913 0.14046 0.0
C603 C 0.74377 0.46331 0.16285 0.0
C604 C 0.76729 0.48284 0.18584 0.0
C605 C 0.80309 0.48946 0.18519 0.0
C606 C 0.81433 0.47475 0.16283 0.0
H607 H 0.74532 0.34456 0.13472 0.0
H608 H 0.75576 0.383 0.1577 0.0
H609 H 0.72385 0.37092 0.12816 0.0
H610 H 0.73624 0.43387 0.12318 0.0
H611 H 0.71618 0.45818 0.16254 0.0
H612 H 0.31512 0.7101 0.35371 0.0
H613 H 0.35726 0.73315 0.31304 0.0
H614 H 0.35073 0.83099 0.31238 0.0
H615 H 0.30809 0.80806 0.35347 0.0
H616 H 0.34059 0.79672 0.25718 0.0
H617 H 0.46434 0.81409 0.31146 0.0
H618 H 0.42524 0.77053 0.31804 0.0
H619 H 0.42625 0.81072 0.33151 0.0
C620 C 0.32258 0.73662 0.34511 0.0
C621 C 0.308 0.75717 0.35691 0.0
C622 C 0.34706 0.7499 0.32199 0.0
C623 C 0.35766 0.78404 0.31006 0.0
C624 C 0.34318 0.80471 0.32155 0.0
H625 H 0.5222 0.86258 0.17079 0.0
H626 H 0.48787 0.86303 0.2138 0.0
C627 C 0.31876 0.79153 0.34496 0.0
C628 C 0.38176 0.79649 0.2842 0.0
H629 H 0.46299 0.80979 0.25908 0.0
C630 C 0.36763 0.80026 0.25768 0.0
C631 C 0.41712 0.80136 0.28492 0.0
C632 C 0.43432 0.79932 0.31307 0.0
C633 C 0.38709 0.80669 0.23158 0.0
C634 C 0.42146 0.8092 0.23191 0.0
C635 C 0.4365 0.80755 0.25872 0.0
C636 C 0.441 0.81079 0.2046 0.0
C637 C 0.37032 0.80991 0.20374 0.0
C638 C 0.42613 0.78127 0.18525 0.0
C639 C 0.44579 0.78088 0.16097 0.0
C640 C 0.48037 0.81031 0.15518 0.0
C641 C 0.49523 0.83994 0.17444 0.0
C642 C 0.47569 0.84019 0.19896 0.0
H643 H 0.34901 0.81715 0.20787 0.0
H644 H 0.39127 0.83073 0.18936 0.0
H645 H 0.35761 0.7834 0.19233 0.0
H646 H 0.39985 0.75785 0.18955 0.0
H647 H 0.43448 0.75693 0.14732 0.0
loop_
_geom_bond_atom_site_label_1
_geom_bond_atom_site_label_2
_geom_bond_distance
_geom_bond_site_symmetry_2
_ccdc_geom_bond_type
Mn0 O5 2.095 . S
Mn0 O15 2.162 . S
Mn0 O16 2.297 . S
Mn0 O24 2.385 . S
Mn0 O25 2.209 . S
Mn0 O26 2.094 . S
Mn1 O6 2.121 . S
Mn1 N8 2.257 . S
Mn1 N17 2.282 . S
Mn1 O25 2.215 . S
Mn1 O27 2.117 . S
C2 O24 1.234 . S
C2 O25 1.283 . S
C3 O15 1.281 . S
C3 O16 1.236 . S
C4 O26 1.240 . S
C4 O27 1.264 . S
O5 Mn0 2.095 . S
O5 C14 1.250 . S
O6 Mn1 2.121 . S
O6 C14 1.258 . S
C7 N8 1.326 . S
C7 C11 1.460 . S
C7 H13 0.929 . S
N8 Mn1 2.257 . S
N8 C7 1.326 . S
N8 C12 1.362 . S
C9 C10 1.258 . S
C9 C12 1.431 . S
C9 C29 1.449 . S
C10 C9 1.258 . S
C10 C11 1.477 . S
C10 H30 0.931 . S
C11 C7 1.460 . S
C11 C10 1.477 . S
C11 H31 0.930 . S
C12 N8 1.362 . S
C12 C9 1.431 . S
C12 C22 1.476 . S
H13 C7 0.929 . S
C14 O5 1.250 . S
C14 O6 1.258 . S
O15 Mn0 2.162 . S
O15 C3 1.281 . S
O16 Mn0 2.297 . S
O16 C3 1.236 . S
N17 Mn1 2.282 . S
N17 C18 1.328 . S
N17 C22 1.318 . S
C18 N17 1.328 . S
C18 C19 1.457 . S
C18 H23 0.929 . S
C19 C18 1.457 . S
C19 C20 1.291 . S
C19 H32 0.931 . S
C20 C19 1.291 . S
C20 C21 1.373 . S
C20 H33 0.929 . S
C21 C20 1.373 . S
C21 C22 1.396 . S
C21 C28 1.403 . S
C22 C12 1.476 . S
C22 N17 1.318 . S
C22 C21 1.396 . S
H23 C18 0.929 . S
O24 Mn0 2.385 . S
O24 C2 1.234 . S
O25 Mn0 2.209 . S
O25 Mn1 2.215 . S
O25 C2 1.283 . S
O26 Mn0 2.094 . S
O26 C4 1.240 . S
O27 Mn1 2.117 . S
O27 C4 1.264 . S
C28 C21 1.403 . S
C28 C29 1.399 . S
C28 H34 0.929 . S
C29 C9 1.449 . S
C29 C28 1.399 . S
C29 H35 0.930 . S
H30 C10 0.931 . S
H31 C11 0.930 . S
H32 C19 0.931 . S
H33 C20 0.929 . S
H34 C28 0.929 . S
H35 C29 0.930 . S
Mn36 O41 2.095 . S
Mn36 O51 2.162 . S
Mn36 O52 2.297 . S
Mn36 O60 2.385 . S
Mn36 O61 2.209 . S
Mn36 O62 2.094 . S
Mn37 O42 2.121 . S
Mn37 N44 2.257 . S
Mn37 N53 2.282 . S
Mn37 O61 2.215 . S
Mn37 O63 2.117 . S
C38 O60 1.234 . S
C38 O61 1.283 . S
C39 O51 1.281 . S
C39 O52 1.236 . S
C40 O62 1.240 . S
C40 O63 1.264 . S
O41 Mn36 2.095 . S
O41 C50 1.250 . S
O42 Mn37 2.121 . S
O42 C50 1.258 . S
C43 N44 1.326 . S
C43 C47 1.460 . S
C43 H49 0.929 . S
N44 Mn37 2.257 . S
N44 C43 1.326 . S
N44 C48 1.362 . S
C45 C46 1.258 . S
C45 C48 1.431 . S
C45 C65 1.449 . S
C46 C45 1.258 . S
C46 C47 1.477 . S
C46 H66 0.931 . S
C47 C43 1.460 . S
C47 C46 1.477 . S
C47 H67 0.930 . S
C48 N44 1.362 . S
C48 C45 1.431 . S
C48 C58 1.476 . S
H49 C43 0.929 . S
C50 O41 1.250 . S
C50 O42 1.258 . S
O51 Mn36 2.162 . S
O51 C39 1.281 . S
O52 Mn36 2.297 . S
O52 C39 1.236 . S
N53 Mn37 2.282 . S
N53 C54 1.328 . S
N53 C58 1.318 . S
C54 N53 1.328 . S
C54 C55 1.457 . S
C54 H59 0.929 . S
C55 C54 1.457 . S
C55 C56 1.291 . S
C55 H68 0.931 . S
C56 C55 1.291 . S
C56 C57 1.373 . S
C56 H69 0.929 . S
C57 C56 1.373 . S
C57 C58 1.396 . S
C57 C64 1.403 . S
C58 C48 1.476 . S
C58 N53 1.318 . S
C58 C57 1.396 . S
H59 C54 0.929 . S
O60 Mn36 2.385 . S
O60 C38 1.234 . S
O61 Mn36 2.209 . S
O61 Mn37 2.215 . S
O61 C38 1.283 . S
O62 Mn36 2.094 . S
O62 C40 1.240 . S
O63 Mn37 2.117 . S
O63 C40 1.264 . S
C64 C57 1.403 . S
C64 C65 1.399 . S
C64 H70 0.929 . S
C65 C45 1.449 . S
C65 C64 1.399 . S
C65 H71 0.930 . S
H66 C46 0.931 . S
H67 C47 0.930 . S
H68 C55 0.931 . S
H69 C56 0.929 . S
H70 C64 0.929 . S
H71 C65 0.930 . S
Mn72 O77 2.095 . S
Mn72 O87 2.162 . S
Mn72 O88 2.297 . S
Mn72 O96 2.385 . S
Mn72 O97 2.209 . S
Mn72 O98 2.094 . S
Mn73 O78 2.121 . S
Mn73 N80 2.257 . S
Mn73 N89 2.282 . S
Mn73 O97 2.215 . S
Mn73 O99 2.117 . S
C74 O96 1.234 . S
C74 O97 1.283 . S
C75 O87 1.281 . S
C75 O88 1.236 . S
C76 O98 1.240 . S
C76 O99 1.264 . S
O77 Mn72 2.095 . S
O77 C86 1.250 . S
O78 Mn73 2.121 . S
O78 C86 1.258 . S
C79 N80 1.326 . S
C79 C83 1.460 . S
C79 H85 0.929 . S
N80 Mn73 2.257 . S
N80 C79 1.326 . S
N80 C84 1.362 . S
C81 C82 1.258 . S
C81 C84 1.431 . S
C81 C101 1.449 . S
C82 C81 1.258 . S
C82 C83 1.477 . S
C82 H102 0.931 . S
C83 C79 1.460 . S
C83 C82 1.477 . S
C83 H103 0.930 . S
C84 N80 1.362 . S
C84 C81 1.431 . S
C84 C94 1.476 . S
H85 C79 0.929 . S
C86 O77 1.250 . S
C86 O78 1.258 . S
O87 Mn72 2.162 . S
O87 C75 1.281 . S
O88 Mn72 2.297 . S
O88 C75 1.236 . S
N89 Mn73 2.282 . S
N89 C90 1.328 . S
N89 C94 1.318 . S
C90 N89 1.328 . S
C90 C91 1.457 . S
C90 H95 0.929 . S
C91 C90 1.457 . S
C91 C92 1.291 . S
C91 H104 0.931 . S
C92 C91 1.291 . S
C92 C93 1.373 . S
C92 H105 0.929 . S
C93 C92 1.373 . S
C93 C94 1.396 . S
C93 C100 1.403 . S
C94 C84 1.476 . S
C94 N89 1.318 . S
C94 C93 1.396 . S
H95 C90 0.929 . S
O96 Mn72 2.385 . S
O96 C74 1.234 . S
O97 Mn72 2.209 . S
O97 Mn73 2.215 . S
O97 C74 1.283 . S
O98 Mn72 2.094 . S
O98 C76 1.240 . S
O99 Mn73 2.117 . S
O99 C76 1.264 . S
C100 C93 1.403 . S
C100 C101 1.399 . S
C100 H106 0.929 . S
C101 C81 1.449 . S
C101 C100 1.399 . S
C101 H107 0.930 . S
H102 C82 0.931 . S
H103 C83 0.930 . S
H104 C91 0.931 . S
H105 C92 0.929 . S
H106 C100 0.929 . S
H107 C101 0.930 . S
Mn108 O113 2.095 . S
Mn108 O123 2.162 . S
Mn108 O124 2.297 . S
Mn108 O132 2.385 . S
Mn108 O133 2.209 . S
Mn108 O134 2.094 . S
Mn109 O114 2.121 . S
Mn109 N116 2.257 . S
Mn109 N125 2.282 . S
Mn109 O133 2.215 . S
Mn109 O135 2.117 . S
C110 O132 1.234 . S
C110 O133 1.283 . S
C111 O123 1.281 . S
C111 O124 1.236 . S
C112 O134 1.240 . S
C112 O135 1.264 . S
O113 Mn108 2.095 . S
O113 C122 1.250 . S
O114 Mn109 2.121 . S
O114 C122 1.258 . S
C115 N116 1.326 . S
C115 C119 1.460 . S
C115 H121 0.929 . S
N116 Mn109 2.257 . S
N116 C115 1.326 . S
N116 C120 1.362 . S
C117 C118 1.258 . S
C117 C120 1.431 . S
C117 C137 1.449 . S
C118 C117 1.258 . S
C118 C119 1.477 . S
C118 H138 0.931 . S
C119 C115 1.460 . S
C119 C118 1.477 . S
C119 H139 0.930 . S
C120 N116 1.362 . S
C120 C117 1.431 . S
C120 C130 1.476 . S
H121 C115 0.929 . S
C122 O113 1.250 . S
C122 O114 1.258 . S
O123 Mn108 2.162 . S
O123 C111 1.281 . S
O124 Mn108 2.297 . S
O124 C111 1.236 . S
N125 Mn109 2.282 . S
N125 C126 1.328 . S
N125 C130 1.318 . S
C126 N125 1.328 . S
C126 C127 1.457 . S
C126 H131 0.929 . S
C127 C126 1.457 . S
C127 C128 1.291 . S
C127 H140 0.931 . S
C128 C127 1.291 . S
C128 C129 1.373 . S
C128 H141 0.929 . S
C129 C128 1.373 . S
C129 C130 1.396 . S
C129 C136 1.403 . S
C130 C120 1.476 . S
C130 N125 1.318 . S
C130 C129 1.396 . S
H131 C126 0.929 . S
O132 Mn108 2.385 . S
O132 C110 1.234 . S
O133 Mn108 2.209 . S
O133 Mn109 2.215 . S
O133 C110 1.283 . S
O134 Mn108 2.094 . S
O134 C112 1.240 . S
O135 Mn109 2.117 . S
O135 C112 1.264 . S
C136 C129 1.403 . S
C136 C137 1.399 . S
C136 H142 0.929 . S
C137 C117 1.449 . S
C137 C136 1.399 . S
C137 H143 0.930 . S
H138 C118 0.931 . S
H139 C119 0.930 . S
H140 C127 0.931 . S
H141 C128 0.929 . S
H142 C136 0.929 . S
H143 C137 0.930 . S
Mn144 O149 2.095 . S
Mn144 O159 2.162 . S
Mn144 O160 2.297 . S
Mn144 O168 2.385 . S
Mn144 O169 2.209 . S
Mn144 O170 2.094 . S
Mn145 O150 2.121 . S
Mn145 N152 2.257 . S
Mn145 N161 2.282 . S
Mn145 O169 2.215 . S
Mn145 O171 2.117 . S
C146 O168 1.234 . S
C146 O169 1.283 . S
C147 O159 1.281 . S
C147 O160 1.236 . S
C148 O170 1.240 . S
C148 O171 1.264 . S
O149 Mn144 2.095 . S
O149 C158 1.250 . S
O150 Mn145 2.121 . S
O150 C158 1.258 . S
C151 N152 1.326 . S
C151 C155 1.460 . S
C151 H157 0.929 . S
N152 Mn145 2.257 . S
N152 C151 1.326 . S
N152 C156 1.362 . S
C153 C154 1.258 . S
C153 C156 1.431 . S
C153 C173 1.449 . S
C154 C153 1.258 . S
C154 C155 1.477 . S
C154 H174 0.931 . S
C155 C151 1.460 . S
C155 C154 1.477 . S
C155 H175 0.930 . S
C156 N152 1.362 . S
C156 C153 1.431 . S
C156 C166 1.476 . S
H157 C151 0.929 . S
C158 O149 1.250 . S
C158 O150 1.258 . S
O159 Mn144 2.162 . S
O159 C147 1.281 . S
O160 Mn144 2.297 . S
O160 C147 1.236 . S
N161 Mn145 2.282 . S
N161 C162 1.328 . S
N161 C166 1.318 . S
C162 N161 1.328 . S
C162 C163 1.457 . S
C162 H167 0.929 . S
C163 C162 1.457 . S
C163 C164 1.291 . S
C163 H176 0.931 . S
C164 C163 1.291 . S
C164 C165 1.373 . S
C164 H177 0.929 . S
C165 C164 1.373 . S
C165 C166 1.396 . S
C165 C172 1.403 . S
C166 C156 1.476 . S
C166 N161 1.318 . S
C166 C165 1.396 . S
H167 C162 0.929 . S
O168 Mn144 2.385 . S
O168 C146 1.234 . S
O169 Mn144 2.209 . S
O169 Mn145 2.215 . S
O169 C146 1.283 . S
O170 Mn144 2.094 . S
O170 C148 1.240 . S
O171 Mn145 2.117 . S
O171 C148 1.264 . S
C172 C165 1.403 . S
C172 C173 1.399 . S
C172 H178 0.929 . S
C173 C153 1.449 . S
C173 C172 1.399 . S
C173 H179 0.930 . S
H174 C154 0.931 . S
H175 C155 0.930 . S
H176 C163 0.931 . S
H177 C164 0.929 . S
H178 C172 0.929 . S
H179 C173 0.930 . S
Mn180 O185 2.095 . S
Mn180 O195 2.162 . S
Mn180 O196 2.297 . S
Mn180 O204 2.385 . S
Mn180 O205 2.209 . S
Mn180 O206 2.094 . S
Mn181 O186 2.121 . S
Mn181 N188 2.257 . S
Mn181 N197 2.282 . S
Mn181 O205 2.215 . S
Mn181 O207 2.117 . S
C182 O204 1.234 . S
C182 O205 1.283 . S
C183 O195 1.281 . S
C183 O196 1.236 . S
C184 O206 1.240 . S
C184 O207 1.264 . S
O185 Mn180 2.095 . S
O185 C194 1.250 . S
O186 Mn181 2.121 . S
O186 C194 1.258 . S
C187 N188 1.326 . S
C187 C191 1.460 . S
C187 H193 0.929 . S
N188 Mn181 2.257 . S
N188 C187 1.326 . S
N188 C192 1.362 . S
C189 C190 1.258 . S
C189 C192 1.431 . S
C189 C209 1.449 . S
C190 C189 1.258 . S
C190 C191 1.477 . S
C190 H210 0.931 . S
C191 C187 1.460 . S
C191 C190 1.477 . S
C191 H211 0.930 . S
C192 N188 1.362 . S
C192 C189 1.431 . S
C192 C202 1.476 . S
H193 C187 0.929 . S
C194 O185 1.250 . S
C194 O186 1.258 . S
O195 Mn180 2.162 . S
O195 C183 1.281 . S
O196 Mn180 2.297 . S
O196 C183 1.236 . S
N197 Mn181 2.282 . S
N197 C198 1.328 . S
N197 C202 1.318 . S
C198 N197 1.328 . S
C198 C199 1.457 . S
C198 H203 0.929 . S
C199 C198 1.457 . S
C199 C200 1.291 . S
C199 H212 0.931 . S
C200 C199 1.291 . S
C200 C201 1.373 . S
C200 H213 0.929 . S
C201 C200 1.373 . S
C201 C202 1.396 . S
C201 C208 1.403 . S
C202 C192 1.476 . S
C202 N197 1.318 . S
C202 C201 1.396 . S
H203 C198 0.929 . S
O204 Mn180 2.385 . S
O204 C182 1.234 . S
O205 Mn180 2.209 . S
O205 Mn181 2.215 . S
O205 C182 1.283 . S
O206 Mn180 2.094 . S
O206 C184 1.240 . S
O207 Mn181 2.117 . S
O207 C184 1.264 . S
C208 C201 1.403 . S
C208 C209 1.399 . S
C208 H214 0.929 . S
C209 C189 1.449 . S
C209 C208 1.399 . S
C209 H215 0.930 . S
H210 C190 0.931 . S
H211 C191 0.930 . S
H212 C199 0.931 . S
H213 C200 0.929 . S
H214 C208 0.929 . S
H215 C209 0.930 . S
H216 C224 0.929 . S
H217 C226 0.930 . S
H218 C228 0.930 . S
H219 C231 0.929 . S
H220 C234 0.930 . S
H221 C236 0.960 1_565 S
H222 C236 0.960 . S
H223 C236 0.960 . S
C224 H216 0.929 . S
C224 C225 1.377 . S
C224 C226 1.384 . S
C225 C224 1.377 . S
C225 C231 1.390 . S
C226 H217 0.930 . S
C226 C224 1.384 . S
C226 C227 1.372 . S
C227 C226 1.372 . S
C227 C228 1.400 . S
C227 C232 1.490 . S
C228 H218 0.930 . S
C228 C227 1.400 . S
C228 C231 1.386 . S
H229 C245 0.930 . S
H230 C246 0.931 . S
C231 H219 0.929 . S
C231 C225 1.390 . S
C231 C228 1.386 . S
C232 C227 1.490 . S
C232 C234 1.395 . S
C232 C235 1.403 . S
H233 C239 0.930 . S
C234 H220 0.930 . S
C234 C232 1.395 . S
C234 C237 1.403 1_545 S
C235 C232 1.403 . S
C235 C236 1.524 . S
C235 C239 1.400 1_545 S
C236 H221 0.960 1_545 S
C236 H222 0.960 . S
C236 H223 0.960 . S
C236 C235 1.524 . S
C237 C234 1.403 1_565 S
C237 C238 1.392 . S
C237 C241 1.495 . S
C238 C237 1.392 . S
C238 C239 1.385 . S
C238 C240 1.478 . S
C239 H233 0.930 . S
C239 C235 1.400 1_565 S
C239 C238 1.385 . S
C240 C238 1.478 . S
C240 C242 1.381 . S
C240 C246 1.383 . S
C241 C237 1.495 . S
C241 H247 0.959 1_565 S
C241 H248 0.961 . S
C241 H249 0.960 . S
C242 C240 1.381 . S
C242 C243 1.394 . S
C242 H250 0.930 . S
C243 C242 1.394 . S
C243 C244 1.383 . S
C243 H251 0.929 . S
C244 C243 1.383 . S
C244 C245 1.377 . S
C245 H229 0.930 . S
C245 C244 1.377 . S
C245 C246 1.379 . S
C246 H230 0.931 . S
C246 C240 1.383 . S
C246 C245 1.379 . S
H247 C241 0.959 1_545 S
H248 C241 0.961 . S
H249 C241 0.960 . S
H250 C242 0.930 . S
H251 C243 0.929 . S
H252 C260 0.929 . S
H253 C262 0.930 . S
H254 C264 0.930 . S
H255 C267 0.929 . S
H256 C270 0.930 . S
H257 C272 0.960 . S
H258 C272 0.960 . S
H259 C272 0.960 . S
C260 H252 0.929 . S
C260 C261 1.377 . S
C260 C262 1.384 . S
C261 C260 1.377 . S
C261 C267 1.390 . S
C262 H253 0.930 . S
C262 C260 1.384 . S
C262 C263 1.372 . S
C263 C262 1.372 . S
C263 C264 1.400 . S
C263 C268 1.490 . S
C264 H254 0.930 . S
C264 C263 1.400 . S
C264 C267 1.386 . S
H265 C281 0.930 . S
H266 C282 0.931 . S
C267 H255 0.929 . S
C267 C261 1.390 . S
C267 C264 1.386 . S
C268 C263 1.490 . S
C268 C270 1.395 . S
C268 C271 1.403 . S
H269 C275 0.930 . S
C270 H256 0.930 . S
C270 C268 1.395 . S
C270 C273 1.403 . S
C271 C268 1.403 . S
C271 C272 1.524 . S
C271 C275 1.400 . S
C272 H257 0.960 . S
C272 H258 0.960 . S
C272 H259 0.960 . S
C272 C271 1.524 . S
C273 C270 1.403 . S
C273 C274 1.392 . S
C273 C277 1.495 . S
C274 C273 1.392 . S
C274 C275 1.385 . S
C274 C276 1.478 . S
C275 H269 0.930 . S
C275 C271 1.400 . S
C275 C274 1.385 . S
C276 C274 1.478 . S
C276 C278 1.381 . S
C276 C282 1.383 . S
C277 C273 1.495 . S
C277 H283 0.959 . S
C277 H284 0.961 . S
C277 H285 0.960 . S
C278 C276 1.381 . S
C278 C279 1.394 . S
C278 H286 0.930 . S
C279 C278 1.394 . S
C279 C280 1.383 . S
C279 H287 0.929 . S
C280 C279 1.383 . S
C280 C281 1.377 . S
C281 H265 0.930 . S
C281 C280 1.377 . S
C281 C282 1.379 . S
C282 H266 0.931 . S
C282 C276 1.383 . S
C282 C281 1.379 . S
H283 C277 0.959 . S
H284 C277 0.961 . S
H285 C277 0.960 . S
H286 C278 0.930 . S
H287 C279 0.929 . S
H288 C296 0.929 . S
H289 C298 0.930 . S
H290 C300 0.930 . S
H291 C303 0.929 . S
H292 C306 0.930 . S
H293 C308 0.960 . S
H294 C308 0.960 . S
H295 C308 0.960 . S
C296 H288 0.929 . S
C296 C297 1.377 . S
C296 C298 1.384 . S
C297 C296 1.377 . S
C297 C303 1.390 . S
C298 H289 0.930 . S
C298 C296 1.384 . S
C298 C299 1.372 . S
C299 C298 1.372 . S
C299 C300 1.400 . S
C299 C304 1.490 . S
C300 H290 0.930 . S
C300 C299 1.400 . S
C300 C303 1.386 . S
H301 C317 0.930 . S
H302 C318 0.931 . S
C303 H291 0.929 . S
C303 C297 1.390 . S
C303 C300 1.386 . S
C304 C299 1.490 . S
C304 C306 1.395 . S
C304 C307 1.403 . S
H305 C311 0.930 . S
C306 H292 0.930 . S
C306 C304 1.395 . S
C306 C309 1.403 1_655 S
C307 C304 1.403 . S
C307 C308 1.524 . S
C307 C311 1.400 1_655 S
C308 H293 0.960 . S
C308 H294 0.960 . S
C308 H295 0.960 . S
C308 C307 1.524 . S
C309 C306 1.403 1_455 S
C309 C310 1.392 . S
C309 C313 1.495 . S
C310 C309 1.392 . S
C310 C311 1.385 . S
C310 C312 1.478 . S
C311 H305 0.930 . S
C311 C307 1.400 1_455 S
C311 C310 1.385 . S
C312 C310 1.478 . S
C312 C314 1.381 . S
C312 C318 1.383 . S
C313 C309 1.495 . S
C313 H319 0.959 . S
C313 H320 0.961 . S
C313 H321 0.960 . S
C314 C312 1.381 . S
C314 C315 1.394 . S
C314 H322 0.930 . S
C315 C314 1.394 . S
C315 C316 1.383 . S
C315 H323 0.929 . S
C316 C315 1.383 . S
C316 C317 1.377 . S
C317 H301 0.930 . S
C317 C316 1.377 . S
C317 C318 1.379 . S
C318 H302 0.931 . S
C318 C312 1.383 . S
C318 C317 1.379 . S
H319 C313 0.959 . S
H320 C313 0.961 . S
H321 C313 0.960 . S
H322 C314 0.930 . S
H323 C315 0.929 . S
H324 C332 0.929 . S
H325 C334 0.930 . S
H326 C336 0.930 . S
H327 C339 0.929 . S
H328 C342 0.930 . S
H329 C344 0.960 . S
H330 C344 0.960 . S
H331 C344 0.960 . S
C332 H324 0.929 . S
C332 C333 1.377 . S
C332 C334 1.384 . S
C333 C332 1.377 . S
C333 C339 1.390 . S
C334 H325 0.930 . S
C334 C332 1.384 . S
C334 C335 1.372 . S
C335 C334 1.372 . S
C335 C336 1.400 . S
C335 C340 1.490 . S
C336 H326 0.930 . S
C336 C335 1.400 . S
C336 C339 1.386 . S
H337 C353 0.930 . S
H338 C354 0.931 . S
C339 H327 0.929 . S
C339 C333 1.390 . S
C339 C336 1.386 . S
C340 C335 1.490 . S
C340 C342 1.395 . S
C340 C343 1.403 1_554 S
H341 C347 0.930 . S
C342 H328 0.930 . S
C342 C340 1.395 . S
C342 C345 1.403 1_565 S
C343 C340 1.403 1_556 S
C343 C344 1.524 . S
C343 C347 1.400 1_565 S
C344 H329 0.960 . S
C344 H330 0.960 . S
C344 H331 0.960 . S
C344 C343 1.524 . S
C345 C342 1.403 1_545 S
C345 C346 1.392 1_554 S
C345 C349 1.495 . S
C346 C345 1.392 1_556 S
C346 C347 1.385 . S
C346 C348 1.478 . S
C347 H341 0.930 . S
C347 C343 1.400 1_545 S
C347 C346 1.385 . S
C348 C346 1.478 . S
C348 C350 1.381 . S
C348 C354 1.383 . S
C349 C345 1.495 . S
C349 H355 0.959 . S
C349 H356 0.961 . S
C349 H357 0.960 . S
C350 C348 1.381 . S
C350 C351 1.394 . S
C350 H358 0.930 . S
C351 C350 1.394 . S
C351 C352 1.383 . S
C351 H359 0.929 . S
C352 C351 1.383 . S
C352 C353 1.377 . S
C353 H337 0.930 . S
C353 C352 1.377 . S
C353 C354 1.379 . S
C354 H338 0.931 . S
C354 C348 1.383 . S
C354 C353 1.379 . S
H355 C349 0.959 . S
H356 C349 0.961 . S
H357 C349 0.960 . S
H358 C350 0.930 . S
H359 C351 0.929 . S
H360 C368 0.929 . S
H361 C370 0.930 . S
H362 C372 0.930 . S
H363 C375 0.929 . S
H364 C378 0.930 . S
H365 C380 0.960 . S
H366 C380 0.960 . S
H367 C380 0.960 . S
C368 H360 0.929 . S
C368 C369 1.377 . S
C368 C370 1.384 . S
C369 C368 1.377 . S
C369 C375 1.390 . S
C370 H361 0.930 . S
C370 C368 1.384 . S
C370 C371 1.372 . S
C371 C370 1.372 . S
C371 C372 1.400 . S
C371 C376 1.490 . S
C372 H362 0.930 . S
C372 C371 1.400 . S
C372 C375 1.386 . S
H373 C389 0.930 . S
H374 C390 0.931 . S
C375 H363 0.929 . S
C375 C369 1.390 . S
C375 C372 1.386 . S
C376 C371 1.490 . S
C376 C378 1.395 . S
C376 C379 1.403 . S
H377 C383 0.930 . S
C378 H364 0.930 . S
C378 C376 1.395 . S
C378 C381 1.403 . S
C379 C376 1.403 . S
C379 C380 1.524 . S
C379 C383 1.400 . S
C380 H365 0.960 . S
C380 H366 0.960 . S
C380 H367 0.960 . S
C380 C379 1.524 . S
C381 C378 1.403 . S
C381 C382 1.392 . S
C381 C385 1.495 . S
C382 C381 1.392 . S
C382 C383 1.385 . S
C382 C384 1.478 . S
C383 H377 0.930 . S
C383 C379 1.400 . S
C383 C382 1.385 . S
C384 C382 1.478 . S
C384 C386 1.381 . S
C384 C390 1.383 . S
C385 C381 1.495 . S
C385 H391 0.959 . S
C385 H392 0.961 . S
C385 H393 0.960 . S
C386 C384 1.381 . S
C386 C387 1.394 . S
C386 H394 0.930 . S
C387 C386 1.394 . S
C387 C388 1.383 . S
C387 H395 0.929 . S
C388 C387 1.383 . S
C388 C389 1.377 . S
C389 H373 0.930 . S
C389 C388 1.377 . S
C389 C390 1.379 . S
C390 H374 0.931 . S
C390 C384 1.383 . S
C390 C389 1.379 . S
H391 C385 0.959 . S
H392 C385 0.961 . S
H393 C385 0.960 . S
H394 C386 0.930 . S
H395 C387 0.929 . S
H396 C404 0.929 . S
H397 C406 0.930 . S
H398 C408 0.930 . S
H399 C411 0.929 . S
H400 C414 0.930 . S
H401 C416 0.960 1_655 S
H402 C416 0.960 . S
H403 C416 0.960 . S
C404 H396 0.929 . S
C404 C405 1.377 . S
C404 C406 1.384 . S
C405 C404 1.377 . S
C405 C411 1.390 . S
C406 H397 0.930 . S
C406 C404 1.384 . S
C406 C407 1.372 . S
C407 C406 1.372 . S
C407 C408 1.400 . S
C407 C412 1.490 . S
C408 H398 0.930 . S
C408 C407 1.400 . S
C408 C411 1.386 . S
H409 C425 0.930 . S
H410 C426 0.931 . S
C411 H399 0.929 . S
C411 C405 1.390 . S
C411 C408 1.386 . S
C412 C407 1.490 . S
C412 C414 1.395 . S
C412 C415 1.403 . S
H413 C419 0.930 . S
C414 H400 0.930 . S
C414 C412 1.395 . S
C414 C417 1.403 1_455 S
C415 C412 1.403 . S
C415 C416 1.524 . S
C415 C419 1.400 1_455 S
C416 H401 0.960 1_455 S
C416 H402 0.960 . S
C416 H403 0.960 . S
C416 C415 1.524 . S
C417 C414 1.403 1_655 S
C417 C418 1.392 . S
C417 C421 1.495 . S
C418 C417 1.392 . S
C418 C419 1.385 . S
C418 C420 1.478 . S
C419 H413 0.930 . S
C419 C415 1.400 1_655 S
C419 C418 1.385 . S
C420 C418 1.478 . S
C420 C422 1.381 . S
C420 C426 1.383 . S
C421 C417 1.495 . S
C421 H427 0.948 1_655 S
C421 H428 0.961 . S
C421 H429 0.960 . S
C422 C420 1.381 . S
C422 C423 1.394 . S
C422 H430 0.930 . S
C423 C422 1.394 . S
C423 C424 1.383 . S
C423 H431 0.929 . S
C424 C423 1.383 . S
C424 C425 1.377 . S
C425 H409 0.930 . S
C425 C424 1.377 . S
C425 C426 1.379 . S
C426 H410 0.931 . S
C426 C420 1.383 . S
C426 C425 1.379 . S
H427 C421 0.948 1_455 S
H428 C421 0.961 . S
H429 C421 0.960 . S
H430 C422 0.930 . S
H431 C423 0.929 . S
H432 C440 0.929 . S
H433 C442 0.930 . S
H434 C444 0.930 . S
H435 C447 0.929 . S
H436 C450 0.930 . S
H437 C452 0.960 . S
H438 C452 0.960 . S
H439 C452 0.960 . S
C440 H432 0.929 . S
C440 C441 1.377 . S
C440 C442 1.384 . S
C441 C440 1.377 . S
C441 C447 1.390 . S
C442 H433 0.930 . S
C442 C440 1.384 . S
C442 C443 1.372 . S
C443 C442 1.372 . S
C443 C444 1.400 . S
C443 C448 1.490 . S
C444 H434 0.930 . S
C444 C443 1.400 . S
C444 C447 1.386 . S
H445 C461 0.930 . S
H446 C462 0.931 . S
C447 H435 0.929 . S
C447 C441 1.390 . S
C447 C444 1.386 . S
C448 C443 1.490 . S
C448 C450 1.395 . S
C448 C451 1.403 . S
H449 C455 0.930 . S
C450 H436 0.930 . S
C450 C448 1.395 . S
C450 C453 1.403 . S
C451 C448 1.403 . S
C451 C452 1.524 . S
C451 C455 1.400 . S
C452 H437 0.960 . S
C452 H438 0.960 . S
C452 H439 0.960 . S
C452 C451 1.524 . S
C453 C450 1.403 . S
C453 C454 1.392 . S
C453 C457 1.495 . S
C454 C453 1.392 . S
C454 C455 1.385 . S
C454 C456 1.478 . S
C455 H449 0.930 . S
C455 C451 1.400 . S
C455 C454 1.385 . S
C456 C454 1.478 . S
C456 C458 1.381 . S
C456 C462 1.383 . S
C457 C453 1.495 . S
C457 H463 0.959 . S
C457 H464 0.961 . S
C457 H465 0.960 . S
C458 C456 1.381 . S
C458 C459 1.394 . S
C458 H466 0.930 . S
C459 C458 1.394 . S
C459 C460 1.383 . S
C459 H467 0.929 . S
C460 C459 1.383 . S
C460 C461 1.377 . S
C461 H445 0.930 . S
C461 C460 1.377 . S
C461 C462 1.379 . S
C462 H446 0.931 . S
C462 C456 1.383 . S
C462 C461 1.379 . S
H463 C457 0.959 . S
H464 C457 0.961 . S
H465 C457 0.960 . S
H466 C458 0.930 . S
H467 C459 0.929 . S
H468 C476 0.929 . S
H469 C478 0.930 . S
H470 C480 0.930 . S
H471 C483 0.929 . S
H472 C486 0.930 . S
H473 C488 0.960 . S
H474 C488 0.960 . S
H475 C488 0.960 . S
C476 H468 0.929 . S
C476 C477 1.377 . S
C476 C478 1.384 . S
C477 C476 1.377 . S
C477 C483 1.390 . S
C478 H469 0.930 . S
C478 C476 1.384 . S
C478 C479 1.372 . S
C479 C478 1.372 . S
C479 C480 1.400 . S
C479 C484 1.490 . S
C480 H470 0.930 . S
C480 C479 1.400 . S
C480 C483 1.386 . S
H481 C497 0.930 . S
H482 C498 0.931 . S
C483 H471 0.929 . S
C483 C477 1.390 . S
C483 C480 1.386 . S
C484 C479 1.490 . S
C484 C486 1.395 . S
C484 C487 1.403 . S
H485 C491 0.930 . S
C486 H472 0.930 . S
C486 C484 1.395 . S
C486 C489 1.403 . S
C487 C484 1.403 . S
C487 C488 1.524 . S
C487 C491 1.400 . S
C488 H473 0.960 . S
C488 H474 0.960 . S
C488 H475 0.960 . S
C488 C487 1.524 . S
C489 C486 1.403 . S
C489 C490 1.392 . S
C489 C493 1.495 . S
C490 C489 1.392 . S
C490 C491 1.385 . S
C490 C492 1.478 . S
C491 H485 0.930 . S
C491 C487 1.400 . S
C491 C490 1.385 . S
C492 C490 1.478 . S
C492 C494 1.381 . S
C492 C498 1.383 . S
C493 C489 1.495 . S
C493 H499 0.959 . S
C493 H500 0.961 . S
C493 H501 0.960 . S
C494 C492 1.381 . S
C494 C495 1.394 . S
C494 H502 0.930 . S
C495 C494 1.394 . S
C495 C496 1.383 . S
C495 H503 0.929 . S
C496 C495 1.383 . S
C496 C497 1.377 . S
C497 H481 0.930 . S
C497 C496 1.377 . S
C497 C498 1.379 . S
C498 H482 0.931 . S
C498 C492 1.383 . S
C498 C497 1.379 . S
H499 C493 0.959 . S
H500 C493 0.961 . S
H501 C493 0.960 . S
H502 C494 0.930 . S
H503 C495 0.929 . S
H504 C512 0.929 . S
H505 C514 0.930 . S
H506 C516 0.930 . S
H507 C519 0.929 . S
H508 C522 0.930 . S
H509 C524 0.960 . S
H510 C524 0.960 . S
H511 C524 0.960 . S
C512 H504 0.929 . S
C512 C513 1.377 . S
C512 C514 1.384 . S
C513 C512 1.377 . S
C513 C519 1.390 . S
C514 H505 0.930 . S
C514 C512 1.384 . S
C514 C515 1.372 . S
C515 C514 1.372 . S
C515 C516 1.400 . S
C515 C520 1.490 . S
C516 H506 0.930 . S
C516 C515 1.400 . S
C516 C519 1.386 . S
H517 C533 0.930 . S
H518 C534 0.931 . S
C519 H507 0.929 . S
C519 C513 1.390 . S
C519 C516 1.386 . S
C520 C515 1.490 . S
C520 C522 1.395 . S
C520 C523 1.403 . S
H521 C527 0.930 . S
C522 H508 0.930 . S
C522 C520 1.395 . S
C522 C525 1.403 . S
C523 C520 1.403 . S
C523 C524 1.524 . S
C523 C527 1.400 . S
C524 H509 0.960 . S
C524 H510 0.960 . S
C524 H511 0.960 . S
C524 C523 1.524 . S
C525 C522 1.403 . S
C525 C526 1.392 . S
C525 C529 1.495 . S
C526 C525 1.392 . S
C526 C527 1.385 . S
C526 C528 1.478 . S
C527 H521 0.930 . S
C527 C523 1.400 . S
C527 C526 1.385 . S
C528 C526 1.478 . S
C528 C530 1.381 . S
C528 C534 1.383 . S
C529 C525 1.495 . S
C529 H535 0.959 . S
C529 H536 0.961 . S
C529 H537 0.960 . S
C530 C528 1.381 . S
C530 C531 1.394 . S
C530 H538 0.930 . S
C531 C530 1.394 . S
C531 C532 1.383 . S
C531 H539 0.929 . S
C532 C531 1.383 . S
C532 C533 1.377 . S
C533 H517 0.930 . S
C533 C532 1.377 . S
C533 C534 1.379 . S
C534 H518 0.931 . S
C534 C528 1.383 . S
C534 C533 1.379 . S
H535 C529 0.959 . S
H536 C529 0.961 . S
H537 C529 0.960 . S
H538 C530 0.930 . S
H539 C531 0.929 . S
H540 C548 0.929 . S
H541 C550 0.930 . S
H542 C552 0.930 . S
H543 C555 0.929 . S
H544 C558 0.930 . S
H545 C560 0.960 . S
H546 C560 0.960 . S
H547 C560 0.960 . S
C548 H540 0.929 . S
C548 C549 1.377 . S
C548 C550 1.384 . S
C549 C548 1.377 . S
C549 C555 1.390 . S
C550 H541 0.930 . S
C550 C548 1.384 . S
C550 C551 1.372 . S
C551 C550 1.372 . S
C551 C552 1.400 . S
C551 C556 1.490 . S
C552 H542 0.930 . S
C552 C551 1.400 . S
C552 C555 1.386 . S
H553 C569 0.930 . S
H554 C570 0.931 . S
C555 H543 0.929 . S
C555 C549 1.390 . S
C555 C552 1.386 . S
C556 C551 1.490 . S
C556 C558 1.395 . S
C556 C559 1.403 . S
H557 C563 0.930 . S
C558 H544 0.930 . S
C558 C556 1.395 . S
C558 C561 1.403 . S
C559 C556 1.403 . S
C559 C560 1.524 . S
C559 C563 1.400 . S
C560 H545 0.960 . S
C560 H546 0.960 . S
C560 H547 0.960 . S
C560 C559 1.524 . S
C561 C558 1.403 . S
C561 C562 1.392 . S
C561 C565 1.495 . S
C562 C561 1.392 . S
C562 C563 1.385 . S
C562 C564 1.478 . S
C563 H557 0.930 . S
C563 C559 1.400 . S
C563 C562 1.385 . S
C564 C562 1.478 . S
C564 C566 1.381 . S
C564 C570 1.383 . S
C565 C561 1.495 . S
C565 H571 0.959 . S
C565 H572 0.961 . S
C565 H573 0.960 . S
C566 C564 1.381 . S
C566 C567 1.394 . S
C566 H574 0.930 . S
C567 C566 1.394 . S
C567 C568 1.383 1_556 S
C567 H575 0.929 . S
C568 C567 1.383 1_554 S
C568 C569 1.377 . S
C569 H553 0.930 . S
C569 C568 1.377 . S
C569 C570 1.379 1_554 S
C570 H554 0.931 . S
C570 C564 1.383 . S
C570 C569 1.379 1_556 S
H571 C565 0.959 . S
H572 C565 0.961 . S
H573 C565 0.960 . S
H574 C566 0.930 . S
H575 C567 0.929 . S
H576 C584 0.929 . S
H577 C586 0.930 . S
H578 C588 0.930 . S
H579 C591 0.929 . S
H580 C594 0.930 . S
H581 C596 0.960 . S
H582 C596 0.960 . S
H583 C596 0.960 . S
C584 H576 0.929 . S
C584 C585 1.377 . S
C584 C586 1.384 1_556 S
C585 C584 1.377 . S
C585 C591 1.390 1_556 S
C586 H577 0.930 . S
C586 C584 1.384 1_554 S
C586 C587 1.372 . S
C587 C586 1.372 . S
C587 C588 1.400 . S
C587 C592 1.490 . S
C588 H578 0.930 . S
C588 C587 1.400 . S
C588 C591 1.386 . S
H589 C605 0.930 . S
H590 C606 0.931 . S
C591 H579 0.929 . S
C591 C585 1.390 1_554 S
C591 C588 1.386 . S
C592 C587 1.490 . S
C592 C594 1.395 . S
C592 C595 1.403 . S
H593 C599 0.930 . S
C594 H580 0.930 . S
C594 C592 1.395 . S
C594 C597 1.403 . S
C595 C592 1.403 . S
C595 C596 1.524 . S
C595 C599 1.400 . S
C596 H581 0.960 . S
C596 H582 0.960 . S
C596 H583 0.960 . S
C596 C595 1.524 . S
C597 C594 1.403 . S
C597 C598 1.392 . S
C597 C601 1.495 . S
C598 C597 1.392 . S
C598 C599 1.385 . S
C598 C600 1.478 . S
C599 H593 0.930 . S
C599 C595 1.400 . S
C599 C598 1.385 . S
C600 C598 1.478 . S
C600 C602 1.381 . S
C600 C606 1.383 . S
C601 C597 1.495 . S
C601 H607 0.959 . S
C601 H608 0.961 . S
C601 H609 0.960 . S
C602 C600 1.381 . S
C602 C603 1.394 . S
C602 H610 0.930 . S
C603 C602 1.394 . S
C603 C604 1.383 . S
C603 H611 0.929 . S
C604 C603 1.383 . S
C604 C605 1.377 . S
C605 H589 0.930 . S
C605 C604 1.377 . S
C605 C606 1.379 . S
C606 H590 0.931 . S
C606 C600 1.383 . S
C606 C605 1.379 . S
H607 C601 0.959 . S
H608 C601 0.961 . S
H609 C601 0.960 . S
H610 C602 0.930 . S
H611 C603 0.929 . S
H612 C620 0.929 . S
H613 C622 0.930 . S
H614 C624 0.930 . S
H615 C627 0.929 . S
H616 C630 0.930 . S
H617 C632 0.960 . S
H618 C632 0.960 . S
H619 C632 0.960 . S
C620 H612 0.929 . S
C620 C621 1.377 . S
C620 C622 1.384 . S
C621 C620 1.377 . S
C621 C627 1.390 . S
C622 H613 0.930 . S
C622 C620 1.384 . S
C622 C623 1.372 . S
C623 C622 1.372 . S
C623 C624 1.400 . S
C623 C628 1.490 . S
C624 H614 0.930 . S
C624 C623 1.400 . S
C624 C627 1.386 . S
H625 C641 0.930 . S
H626 C642 0.931 . S
C627 H615 0.929 . S
C627 C621 1.390 . S
C627 C624 1.386 . S
C628 C623 1.490 . S
C628 C630 1.395 . S
C628 C631 1.403 . S
H629 C635 0.930 . S
C630 H616 0.930 . S
C630 C628 1.395 . S
C630 C633 1.403 . S
C631 C628 1.403 . S
C631 C632 1.524 . S
C631 C635 1.400 . S
C632 H617 0.960 . S
C632 H618 0.960 . S
C632 H619 0.960 . S
C632 C631 1.524 . S
C633 C630 1.403 . S
C633 C634 1.392 . S
C633 C637 1.495 . S
C634 C633 1.392 . S
C634 C635 1.385 . S
C634 C636 1.478 . S
C635 H629 0.930 . S
C635 C631 1.400 . S
C635 C634 1.385 . S
C636 C634 1.478 . S
C636 C638 1.381 . S
C636 C642 1.383 . S
C637 C633 1.495 . S
C637 H643 0.959 . S
C637 H644 0.961 . S
C637 H645 0.960 . S
C638 C636 1.381 . S
C638 C639 1.394 . S
C638 H646 0.930 . S
C639 C638 1.394 . S
C639 C640 1.383 . S
C639 H647 0.929 . S
C640 C639 1.383 . S
C640 C641 1.377 . S
C641 H625 0.930 . S
C641 C640 1.377 . S
C641 C642 1.379 . S
C642 H626 0.931 . S
C642 C636 1.383 . S
C642 C641 1.379 . S
H643 C637 0.959 . S
H644 C637 0.961 . S
H645 C637 0.960 . S
H646 C638 0.930 . S
H647 C639 0.929 . S
C225 C4 1.591 . S
C244 C183 1.589 . S
C261 C3 1.593 . S
C280 C40 1.590 . S
C297 C76 1.588 . S
C316 C39 1.590 . S
C333 C112 1.588 . S
C352 C75 1.591 . S
C369 C148 1.590 . S
C388 C111 1.591 . S
C405 C184 1.589 . S
C424 C147 1.584 . S
C441 C14 1.404 . S
C460 C146 1.440 . S
C477 C182 1.453 . S
C496 C50 1.370 . S
C513 C86 1.407 . S
C532 C2 1.442 . S
C549 C38 1.451 . S
C568 C122 1.385 . S
C585 C74 1.454 . S
C604 C158 1.377 . S
C621 C194 1.403 . S
C640 C110 1.457 . S
