# Generated by pormake.
# Topology tfs, (6)-cn, num edge types: 1
# Building blocks:
#     Node 0, Type 0, BuildingBlock: JUFBIX_clean_sbu_0, # of connection points: 6
#     Node 1, Type 0, BuildingBlock: JUFBIX_clean_sbu_0, # of connection points: 6
#     Node 2, Type 0, BuildingBlock: JUFBIX_clean_sbu_0, # of connection points: 6
#     Node 3, Type 0, BuildingBlock: JUFBIX_clean_sbu_0, # of connection points: 6
#     Node 4, Type 0, BuildingBlock: JUFBIX_clean_sbu_0, # of connection points: 6
#     Node 5, Type 0, BuildingBlock: JUFBIX_clean_sbu_0, # of connection points: 6
#     Edge 6, Type (0, 0), BuildingBlock: OJICUG_clean_linker_0, # of connection points: 2
#     Edge 7, Type (0, 0), BuildingBlock: OJICUG_clean_linker_0, # of connection points: 2
#     Edge 8, Type (0, 0), BuildingBlock: OJICUG_clean_linker_0, # of connection points: 2
#     Edge 9, Type (0, 0), BuildingBlock: OJICUG_clean_linker_0, # of connection points: 2
#     Edge 10, Type (0, 0), BuildingBlock: OJICUG_clean_linker_0, # of connection points: 2
#     Edge 11, Type (0, 0), BuildingBlock: OJICUG_clean_linker_0, # of connection points: 2
#     Edge 12, Type (0, 0), BuildingBlock: OJICUG_clean_linker_0, # of connection points: 2
#     Edge 13, Type (0, 0), BuildingBlock: OJICUG_clean_linker_0, # of connection points: 2
#     Edge 14, Type (0, 0), BuildingBlock: OJICUG_clean_linker_0, # of connection points: 2
#     Edge 15, Type (0, 0), BuildingBlock: OJICUG_clean_linker_0, # of connection points: 2
#     Edge 16, Type (0, 0), BuildingBlock: OJICUG_clean_linker_0, # of connection points: 2
#     Edge 17, Type (0, 0), BuildingBlock: OJICUG_clean_linker_0, # of connection points: 2
#     Edge 18, Type (0, 0), BuildingBlock: OJICUG_clean_linker_0, # of connection points: 2
#     Edge 19, Type (0, 0), BuildingBlock: OJICUG_clean_linker_0, # of connection points: 2
#     Edge 20, Type (0, 0), BuildingBlock: OJICUG_clean_linker_0, # of connection points: 2
#     Edge 21, Type (0, 0), BuildingBlock: OJICUG_clean_linker_0, # of connection points: 2
#     Edge 22, Type (0, 0), BuildingBlock: OJICUG_clean_linker_0, # of connection points: 2
#     Edge 23, Type (0, 0), BuildingBlock: OJICUG_clean_linker_0, # of connection points: 2
# Relax obj value: 0.314
# Max RMSD: 0.245
# Mean RMSD: 0.184
data_MOF--net-tfs--node1-JUFBIX_clean_sbu_0--edge1-OJICUG_clean_linker_0
_symmetry_space_group_name_H-M    P1
_symmetry_Int_Tables_number       1
_symmetry_cell_setting            triclinic
loop_
_symmetry_equiv_pos_as_xyz
'x, y, z'
_cell_length_a     32.048342
_cell_length_b     35.994234
_cell_length_c     10.861856
_cell_angle_alpha  90.05993
_cell_angle_beta   93.135927
_cell_angle_gamma 111.25457
loop_
_atom_site_label
_atom_site_type_symbol
_atom_site_fract_x
_atom_site_fract_y
_atom_site_fract_z
_atom_type_partial_charge
Co0 Co 0.26124 0.40731 0.02432 0.0
C1 C 0.22091 0.39019 0.25233 0.0
Co2 Co 0.18791 0.37275 0.01399 0.0
C3 C 0.3458 0.47302 1.00104 0.0
C4 C 0.35012 0.43066 0.13464 0.0
N5 N 0.32191 0.43742 0.04822 0.0
N6 N 0.3873 0.48894 0.05669 0.0
C7 C 0.39024 0.46239 0.14049 0.0
H8 H 0.33224 0.48801 0.93235 0.0
H9 H 0.34132 0.40514 0.19388 0.0
C10 C 0.22835 0.39005 0.78594 0.0
N11 N 0.12701 0.34018 0.99058 0.0
C12 C 0.08934 0.33801 0.04612 0.0
C13 C 0.11307 0.30915 0.90908 0.0
N14 N 0.0528 0.30663 1.00238 0.0
C15 C 0.06799 0.28875 0.91587 0.0
C16 C 0.20943 0.45479 0.00599 0.0
O17 O 0.26483 0.4073 0.85006 0.0
O18 O 0.19233 0.37352 0.8403 0.0
O19 O 0.17547 0.42203 0.00535 0.0
O20 O 0.24856 0.45374 0.0157 0.0
O21 O 0.18448 0.37262 0.18831 0.0
H22 H 0.13458 0.30143 0.84873 0.0
H23 H 0.08892 0.35853 0.11851 0.0
O24 O 0.25684 0.40706 0.19787 0.0
O25 O 0.274 0.36089 0.03241 0.0
O26 O 0.20212 0.32483 0.02323 0.0
C27 C 0.24269 0.32714 0.03123 0.0
H28 H 0.41902 0.46612 0.20309 0.0
H29 H 0.04782 0.26306 0.85941 0.0
Co30 Co 0.77383 0.23173 0.04651 0.0
C31 C 0.78665 0.26852 0.28406 0.0
Co32 Co 0.79386 0.2979 0.05316 0.0
C33 C 0.74883 0.14414 0.99218 0.0
C34 C 0.71533 0.15959 0.1377 0.0
N35 N 0.74776 0.17586 0.05815 0.0
N36 N 0.71761 0.10933 0.02697 0.0
C37 C 0.69692 0.11922 0.11874 0.0
H38 H 0.77075 0.1466 0.91778 0.0
H39 H 0.70445 0.17624 0.20349 0.0
C40 C 0.78118 0.26127 0.81563 0.0
N41 N 0.81963 0.35369 0.03963 0.0
C42 C 0.81201 0.3852 0.08828 0.0
C43 C 0.85442 0.37046 0.96768 0.0
N44 N 0.84108 0.42065 0.04974 0.0
C45 C 0.86757 0.41107 0.97383 0.0
C46 C 0.86446 0.26705 0.06051 0.0
O47 O 0.77103 0.22835 0.8715 0.0
O48 O 0.79144 0.29351 0.87816 0.0
O49 O 0.85246 0.29694 0.06284 0.0
O50 O 0.83435 0.23207 0.05189 0.0
O51 O 0.79578 0.30136 0.22799 0.0
H52 H 0.8692 0.35406 0.91208 0.0
H53 H 0.78569 0.38216 0.15021 0.0
O54 O 0.77733 0.23632 0.22177 0.0
O55 O 0.71436 0.23264 0.04097 0.0
O56 O 0.73421 0.29775 0.04564 0.0
C57 C 0.70342 0.26321 0.04289 0.0
H58 H 0.67039 0.09852 0.16935 0.0
H59 H 0.89365 0.43187 0.92224 0.0
Co60 Co 0.59582 0.75649 0.00562 0.0
C61 C 0.60933 0.79285 0.77356 0.0
Co62 Co 0.62341 0.82277 0.009 0.0
C63 C 0.53516 0.67402 0.03179 0.0
C64 C 0.58668 0.68066 0.90674 0.0
N65 N 0.57194 0.70139 0.98631 0.0
N66 N 0.52625 0.6374 0.98165 0.0
C67 C 0.55856 0.64143 0.90325 0.0
H68 H 0.51423 0.68109 0.09579 0.0
H69 H 0.61526 0.69357 0.85127 0.0
C70 C 0.60968 0.78634 0.24115 0.0
N71 N 0.65152 0.87853 0.02803 0.0
C72 C 0.64882 0.91074 0.96782 0.0
C73 C 0.68677 0.89407 0.11079 0.0
N74 N 0.68177 0.94515 0.00904 0.0
C75 C 0.70528 0.93447 0.09914 0.0
C76 C 0.53014 0.79022 1.00362 0.0
O77 O 0.59552 0.75336 0.1806 0.0
O78 O 0.62321 0.81878 0.1832 0.0
O79 O 0.56287 0.82394 0.00665 0.0
O80 O 0.5384 0.75833 1.00016 0.0
O81 O 0.623 0.82584 0.83401 0.0
H82 H 0.69914 0.87688 0.17468 0.0
H83 H 0.62419 0.90894 0.89353 0.0
O84 O 0.59631 0.76042 0.8316 0.0
O85 O 0.65319 0.75455 0.01194 0.0
O86 O 0.68265 0.81973 0.01163 0.0
C87 C 0.68739 0.78623 0.01336 0.0
H88 H 0.56122 0.61774 0.84645 0.0
H89 H 0.73361 0.95469 0.15425 0.0
Co90 Co 0.85816 0.6608 0.06309 0.0
C91 C 0.81778 0.64341 0.29118 0.0
Co92 Co 0.78481 0.62631 0.05282 0.0
C93 C 0.95669 0.69555 0.03034 0.0
C94 C 0.93313 0.72425 0.16822 0.0
N95 N 0.91909 0.69332 0.08639 0.0
N96 N 0.99327 0.72687 0.07408 0.0
C97 C 0.9782 0.74466 0.16113 0.0
H98 H 0.95701 0.67512 0.95755 0.0
H99 H 0.9117 0.73192 0.22897 0.0
C100 C 0.82508 0.64352 0.82477 0.0
N101 N 0.72412 0.59624 0.02904 0.0
C102 C 0.70027 0.56061 0.07611 0.0
C103 C 0.69586 0.60305 0.9429 0.0
N104 N 0.65874 0.54471 0.02065 0.0
C105 C 0.65574 0.57131 0.9371 0.0
C106 C 0.80345 0.7065 0.04673 0.0
O107 O 0.86153 0.66102 0.88878 0.0
O108 O 0.78914 0.62669 0.87923 0.0
O109 O 0.7721 0.67277 0.04534 0.0
O110 O 0.84401 0.70876 0.05437 0.0
O111 O 0.78128 0.62621 0.22707 0.0
H112 H 0.70462 0.6286 0.88381 0.0
H113 H 0.71388 0.54559 0.14457 0.0
O114 O 0.8538 0.65994 0.23681 0.0
O115 O 0.87054 0.6115 0.07124 0.0
O116 O 0.79744 0.57984 0.0609 0.0
C117 C 0.83656 0.57875 0.0704 0.0
H118 H 0.99844 0.77029 0.21774 0.0
H119 H 0.62692 0.56762 0.8747 0.0
Co120 Co 0.25209 0.73562 0.02154 0.0
C121 C 0.26478 0.77225 0.25908 0.0
Co122 Co 0.27215 0.80179 0.02822 0.0
C123 C 0.2339 0.6483 0.9866 0.0
C124 C 0.19145 0.66309 0.10695 0.0
N125 N 0.22627 0.67983 0.03509 0.0
N126 N 0.20479 0.61286 0.02517 0.0
C127 C 0.17828 0.62248 0.10093 0.0
H128 H 0.26024 0.65132 0.9248 0.0
H129 H 0.17667 0.67951 0.16245 0.0
C130 C 0.25931 0.765 0.79065 0.0
N131 N 0.29825 0.85766 0.01659 0.0
C132 C 0.29726 0.88937 0.08275 0.0
C133 C 0.33062 0.87394 0.93688 0.0
N134 N 0.32847 0.92419 0.04792 0.0
C135 C 0.34908 0.9143 0.95593 0.0
C136 C 0.34254 0.77028 0.03191 0.0
O137 O 0.25018 0.73216 0.84671 0.0
O138 O 0.26864 0.7972 0.85294 0.0
O139 O 0.33161 0.80085 0.03373 0.0
O140 O 0.31173 0.73574 0.02914 0.0
O141 O 0.27497 0.80517 0.20322 0.0
H142 H 0.34145 0.85728 0.87095 0.0
H143 H 0.27541 0.88691 0.15733 0.0
O144 O 0.25449 0.74001 0.19654 0.0
O145 O 0.19349 0.73661 0.01179 0.0
O146 O 0.21164 0.80148 0.0229 0.0
C147 C 0.18152 0.76652 0.01423 0.0
H148 H 0.15219 0.6017 0.15252 0.0
H149 H 0.37558 0.935 0.90524 0.0
Co150 Co 0.42264 0.21079 0.06848 0.0
C151 C 0.43623 0.24723 0.83636 0.0
Co152 Co 0.45031 0.27707 0.07196 0.0
C153 C 0.39729 0.12277 0.10901 0.0
C154 C 0.35906 0.13955 0.96705 0.0
N155 N 0.39446 0.15503 0.04938 0.0
N156 N 0.36427 0.08838 0.06788 0.0
C157 C 0.34059 0.09913 0.97842 0.0
H158 H 0.42208 0.1245 0.1828 0.0
H159 H 0.34659 0.15678 0.90359 0.0
C160 C 0.43693 0.24068 0.304 0.0
N161 N 0.47426 0.33217 0.09135 0.0
C162 C 0.51098 0.35955 0.04561 0.0
C163 C 0.45964 0.35288 0.17127 0.0
N164 N 0.51996 0.39616 0.09593 0.0
C165 C 0.48776 0.39211 0.17472 0.0
C166 C 0.35876 0.24741 0.06504 0.0
O167 O 0.42318 0.2077 0.24352 0.0
O168 O 0.44999 0.27312 0.24598 0.0
O169 O 0.39299 0.27906 0.0663 0.0
O170 O 0.36343 0.21389 0.06637 0.0
O171 O 0.45045 0.28021 0.89694 0.0
H172 H 0.43113 0.33996 0.227 0.0
H173 H 0.53182 0.3525 0.9813 0.0
O174 O 0.42271 0.21479 0.89429 0.0
O175 O 0.48316 0.20956 0.07032 0.0
O176 O 0.50768 0.27518 0.07685 0.0
C177 C 0.5159 0.24327 0.07315 0.0
H178 H 0.31217 0.07895 0.9235 0.0
H179 H 0.48518 0.41579 0.23174 0.0
C180 C 0.29333 0.25351 0.94843 0.0
C181 C 0.31479 0.25117 0.06266 0.0
H182 H 0.25128 0.27946 0.84913 0.0
C183 C 0.30251 0.26547 0.16956 0.0
H184 H 0.3034 0.24361 0.86462 0.0
C185 C 0.27276 0.28578 0.16078 0.0
C186 C 0.25514 0.29203 0.04499 0.0
H187 H 0.31965 0.26486 0.25795 0.0
H188 H 0.26756 0.30044 0.24262 0.0
C189 C 0.26357 0.27395 0.93958 0.0
C190 C 0.97597 0.25569 0.01209 0.0
C191 C 1.00649 0.2952 0.03314 0.0
H192 H 0.9072 0.21541 1.00499 0.0
C193 C 0.9901 0.3238 0.07543 0.0
H194 H 0.98751 0.2326 0.98195 0.0
C195 C 0.94423 0.31382 0.08927 0.0
C196 C 0.91336 0.2749 0.0617 0.0
H197 H 1.01238 0.35439 0.09229 0.0
H198 H 0.93282 0.3372 0.11796 0.0
C199 C 0.92991 0.24563 0.02628 0.0
C200 C 0.66387 0.04143 0.97592 0.0
C201 C 0.70844 0.06891 0.98549 0.0
H202 H 0.62024 0.97982 0.97311 0.0
C203 C 0.74346 0.0546 0.97763 0.0
H204 H 0.63624 0.05182 0.98119 0.0
C205 C 0.73424 1.01344 0.97396 0.0
C206 C 0.68984 0.9859 0.97638 0.0
H207 H 0.77799 0.07503 0.98556 0.0
H208 H 0.76201 1.00302 0.97782 0.0
C209 C 0.65462 1.00029 0.97054 0.0
C210 C 0.78163 0.75873 0.14064 0.0
C211 C 0.79107 0.74169 0.03455 0.0
H212 H 0.74103 0.78822 0.21588 0.0
C213 C 0.77444 0.74897 0.91864 0.0
H214 H 0.79314 0.7524 0.23106 0.0
C215 C 0.74468 0.76929 0.90999 0.0
C216 C 0.73141 0.78256 0.01717 0.0
H217 H 0.78041 0.7351 0.83619 0.0
H218 H 0.72829 0.77069 0.82107 0.0
C219 C 0.75188 0.77917 0.13194 0.0
C220 C 0.10171 0.7198 0.98542 0.0
C221 C 0.13262 0.75869 0.01329 0.0
H222 H 0.03357 0.67923 0.98264 0.0
C223 C 0.11612 0.78792 0.04943 0.0
H224 H 0.11309 0.69646 0.95618 0.0
C225 C 0.07009 0.77784 0.0641 0.0
C226 C 0.03954 0.73834 0.04279 0.0
H227 H 0.13886 0.8181 0.07099 0.0
H228 H 0.05859 0.80089 0.09483 0.0
C229 C 0.05587 0.7098 0.99973 0.0
C230 C 0.38229 0.99209 0.0987 0.0
C231 C 0.33772 0.96459 0.08967 0.0
H232 H 0.42588 0.05371 0.10166 0.0
C233 C 0.30272 0.97889 0.0986 0.0
H234 H 0.4099 0.98172 0.09265 0.0
C235 C 0.31193 0.02004 0.10284 0.0
C236 C 0.3563 0.0476 0.09993 0.0
H237 H 0.26818 0.95844 0.09113 0.0
H238 H 0.28415 0.03045 0.09984 0.0
C239 C 0.39153 0.03322 0.10465 0.0
C240 C 0.24353 0.56676 0.97869 0.0
C241 C 0.20412 0.57296 1.00375 0.0
H242 H 0.27585 0.52494 0.95931 0.0
C243 C 0.16476 0.53929 0.01848 0.0
H244 H 0.27439 0.59174 0.96725 0.0
C245 C 0.16549 0.50054 0.01494 0.0
C246 C 0.20564 0.49467 0.99674 0.0
H247 H 0.13347 0.54288 0.03543 0.0
H248 H 0.13512 0.47543 0.03052 0.0
C249 C 0.2443 0.52823 0.97541 0.0
C250 C 0.5764 0.214 0.05594 0.0
C251 C 0.56364 0.2472 0.06706 0.0
H252 H 0.63049 0.19299 0.03887 0.0
C253 C 0.59734 0.28565 0.0684 0.0
H254 H 0.55146 0.18409 0.05405 0.0
C255 C 0.64239 0.29084 0.05887 0.0
C256 C 0.65527 0.25779 0.04796 0.0
H257 H 0.58902 0.31212 0.07651 0.0
H258 H 0.66716 0.32085 0.06085 0.0
C259 C 0.62173 0.21924 0.04666 0.0
C260 C 0.47767 0.58885 0.12086 0.0
C261 C 0.48889 0.60148 1.00104 0.0
H262 H 0.43651 0.54214 0.23238 0.0
C263 C 0.46488 0.57743 0.89977 0.0
H264 H 0.496 0.60696 0.19988 0.0
C265 C 0.43048 0.54099 0.91802 0.0
C266 C 0.42048 0.52757 0.03782 0.0
H267 H 0.473 0.58685 0.8066 0.0
H268 H 0.41267 0.52265 0.83889 0.0
C269 C 0.44409 0.55187 0.13917 0.0
C270 C 0.88044 0.53298 0.06084 0.0
C271 C 0.8403 0.53884 0.07918 0.0
H272 H 0.91243 0.49062 0.03988 0.0
C273 C 0.80162 0.50528 0.10022 0.0
H274 H 0.91082 0.55809 0.04546 0.0
C275 C 0.80236 0.46674 0.09659 0.0
C276 C 0.84177 0.46054 0.07144 0.0
H277 H 0.77008 0.50857 0.11641 0.0
H278 H 0.7715 0.44175 0.10785 0.0
C279 C 0.88115 0.49422 0.05693 0.0
C280 C 0.40359 0.74263 0.01653 0.0
C281 C 0.3907 0.77569 0.02718 0.0
H282 H 0.45701 0.72136 0.99962 0.0
C283 C 0.42424 0.81423 0.0287 0.0
H284 H 0.37882 0.71262 0.01439 0.0
C285 C 0.4696 0.81947 0.01994 0.0
C286 C 0.48238 0.78627 0.00914 0.0
H287 H 0.41548 0.84048 0.0363 0.0
H288 H 0.49454 0.84939 0.02201 0.0
C289 C 0.44867 0.74783 0.00753 0.0
C290 C 0.60179 0.48186 0.93818 0.0
C291 C 0.62558 0.50607 0.03951 0.0
H292 H 0.54978 0.42681 0.87755 0.0
C293 C 0.61582 0.49252 0.1593 0.0
H294 H 0.60918 0.49167 0.84496 0.0
C295 C 0.58148 0.45605 0.17762 0.0
C296 C 0.55728 0.4321 0.07639 0.0
H297 H 0.63378 0.51078 0.23843 0.0
H298 H 0.57353 0.44654 0.27082 0.0
C299 C 0.56826 0.44485 0.95653 0.0
C300 C 0.26555 0.40927 0.58618 0.0
C301 C 0.2268 0.38981 0.64945 0.0
H302 H 0.29401 0.42478 0.41145 0.0
C303 C 0.1859 0.37061 0.58095 0.0
H304 H 0.2975 0.42441 0.63608 0.0
C305 C 0.18378 0.3709 0.45211 0.0
C306 C 0.22252 0.39039 0.38883 0.0
H307 H 0.15533 0.35533 0.6268 0.0
H308 H 0.15182 0.35578 0.40223 0.0
C309 C 0.26344 0.40955 0.45732 0.0
C310 C 0.79377 0.29977 0.62035 0.0
C311 C 0.78218 0.26288 0.67955 0.0
H312 H 0.8044 0.3306 0.44949 0.0
C313 C 0.7724 0.22803 0.60759 0.0
H314 H 0.80162 0.32727 0.67307 0.0
C315 C 0.77415 0.23003 0.47936 0.0
C316 C 0.7857 0.26693 0.42015 0.0
H317 H 0.76349 0.1992 0.6502 0.0
H318 H 0.76631 0.20253 0.42666 0.0
C319 C 0.79548 0.30177 0.49211 0.0
C320 C 0.59379 0.75443 0.57317 0.0
C321 C 0.60919 0.79142 0.6373 0.0
H322 H 0.58191 0.7237 0.3982 0.0
C323 C 0.62495 0.82656 0.57004 0.0
H324 H 0.58148 0.7267 0.62219 0.0
C325 C 0.6253 0.82475 0.44157 0.0
C326 C 0.60985 0.78776 0.37743 0.0
H327 H 0.63713 0.85548 0.61653 0.0
H328 H 0.63767 0.85248 0.39258 0.0
C329 C 0.5941 0.75262 0.44468 0.0
C330 C 0.86228 0.66263 0.62504 0.0
C331 C 0.82349 0.64329 0.68828 0.0
H332 H 0.89081 0.678 0.45036 0.0
C333 C 0.78257 0.62419 0.61975 0.0
H334 H 0.89425 0.67769 0.67494 0.0
C335 C 0.78051 0.62438 0.49089 0.0
C336 C 0.81931 0.64369 0.42766 0.0
H337 H 0.75196 0.60907 0.6656 0.0
H338 H 0.74855 0.6093 0.44096 0.0
C339 C 0.86021 0.66283 0.49619 0.0
C340 C 0.27358 0.80549 0.46712 0.0
C341 C 0.26378 0.77064 0.39516 0.0
H342 H 0.27969 0.83099 0.64806 0.0
C343 C 0.25217 0.73374 0.45435 0.0
H344 H 0.28251 0.83433 0.42451 0.0
C345 C 0.25046 0.73175 0.58259 0.0
C346 C 0.26026 0.76659 0.65455 0.0
H347 H 0.2443 0.70624 0.40162 0.0
H348 H 0.24153 0.70291 0.6252 0.0
C349 C 0.27183 0.80349 0.59535 0.0
C350 C 0.45206 0.28094 0.63285 0.0
C351 C 0.43611 0.24581 0.70009 0.0
H352 H 0.46495 0.30683 0.45538 0.0
C353 C 0.4206 0.20881 0.63594 0.0
H354 H 0.46431 0.30985 0.67933 0.0
C355 C 0.42108 0.20699 0.5075 0.0
C356 C 0.43703 0.24212 0.44027 0.0
H357 H 0.4081 0.18109 0.68493 0.0
H358 H 0.40883 0.17807 0.46102 0.0
C359 C 0.45249 0.27911 0.50439 0.0
loop_
_geom_bond_atom_site_label_1
_geom_bond_atom_site_label_2
_geom_bond_distance
_geom_bond_site_symmetry_2
_ccdc_geom_bond_type
Co0 N5 2.057 . S
Co0 O17 2.021 1_554 S
Co0 O20 2.062 1_554 S
Co0 O24 2.117 . S
Co0 O25 2.020 . S
C1 O21 1.259 . S
C1 O24 1.258 . S
Co2 N11 2.057 1_554 S
Co2 O18 2.117 1_554 S
Co2 O19 2.020 . S
Co2 O21 2.021 . S
Co2 O26 2.062 . S
C3 N5 1.316 1_556 S
C3 N6 1.347 1_556 S
C3 H8 0.931 . S
C4 N5 1.375 . S
C4 C7 1.350 . S
C4 H9 0.930 . S
N5 Co0 2.057 . S
N5 C3 1.316 1_554 S
N5 C4 1.375 . S
N6 C3 1.347 1_554 S
N6 C7 1.373 . S
C7 C4 1.350 . S
C7 N6 1.373 . S
C7 H28 0.931 . S
H8 C3 0.931 . S
H9 C4 0.930 . S
C10 O17 1.259 . S
C10 O18 1.258 . S
N11 Co2 2.057 1_556 S
N11 C12 1.316 1_556 S
N11 C13 1.375 . S
C12 N11 1.316 1_554 S
C12 N14 1.347 1_554 S
C12 H23 0.931 . S
C13 N11 1.375 . S
C13 C15 1.350 . S
C13 H22 0.930 . S
N14 C12 1.347 1_556 S
N14 C15 1.373 . S
C15 C13 1.350 . S
C15 N14 1.373 . S
C15 H29 0.931 . S
C16 O19 1.256 . S
C16 O20 1.255 1_554 S
O17 Co0 2.021 1_556 S
O17 C10 1.259 . S
O18 Co2 2.117 1_556 S
O18 C10 1.258 . S
O19 Co2 2.020 . S
O19 C16 1.256 . S
O20 Co0 2.062 1_556 S
O20 C16 1.255 1_556 S
O21 C1 1.259 . S
O21 Co2 2.021 . S
H22 C13 0.930 . S
H23 C12 0.931 . S
O24 Co0 2.117 . S
O24 C1 1.258 . S
O25 Co0 2.020 . S
O25 C27 1.256 . S
O26 Co2 2.062 . S
O26 C27 1.255 . S
C27 O25 1.256 . S
C27 O26 1.255 . S
H28 C7 0.931 . S
H29 C15 0.931 . S
Co30 N35 2.057 . S
Co30 O47 2.021 1_554 S
Co30 O50 2.062 . S
Co30 O54 2.117 . S
Co30 O55 2.020 . S
C31 O51 1.259 . S
C31 O54 1.258 . S
Co32 N41 2.057 . S
Co32 O48 2.117 1_554 S
Co32 O49 2.020 . S
Co32 O51 2.021 . S
Co32 O56 2.062 . S
C33 N35 1.316 1_556 S
C33 N36 1.347 1_556 S
C33 H38 0.931 . S
C34 N35 1.375 . S
C34 C37 1.350 . S
C34 H39 0.930 . S
N35 Co30 2.057 . S
N35 C33 1.316 1_554 S
N35 C34 1.375 . S
N36 C33 1.347 1_554 S
N36 C37 1.373 . S
C37 C34 1.350 . S
C37 N36 1.373 . S
C37 H58 0.931 . S
H38 C33 0.931 . S
H39 C34 0.930 . S
C40 O47 1.259 . S
C40 O48 1.258 . S
N41 Co32 2.057 . S
N41 C42 1.316 . S
N41 C43 1.375 1_554 S
C42 N41 1.316 . S
C42 N44 1.347 . S
C42 H53 0.931 . S
C43 N41 1.375 1_556 S
C43 C45 1.350 . S
C43 H52 0.930 . S
N44 C42 1.347 . S
N44 C45 1.373 1_554 S
C45 C43 1.350 . S
C45 N44 1.373 1_556 S
C45 H59 0.931 . S
C46 O49 1.256 . S
C46 O50 1.255 . S
O47 Co30 2.021 1_556 S
O47 C40 1.259 . S
O48 Co32 2.117 1_556 S
O48 C40 1.258 . S
O49 Co32 2.020 . S
O49 C46 1.256 . S
O50 Co30 2.062 . S
O50 C46 1.255 . S
O51 C31 1.259 . S
O51 Co32 2.021 . S
H52 C43 0.930 . S
H53 C42 0.931 . S
O54 Co30 2.117 . S
O54 C31 1.258 . S
O55 Co30 2.020 . S
O55 C57 1.256 . S
O56 Co32 2.062 . S
O56 C57 1.255 . S
C57 O55 1.256 . S
C57 O56 1.255 . S
H58 C37 0.931 . S
H59 C45 0.931 . S
Co60 N65 2.057 1_554 S
Co60 O77 2.021 . S
Co60 O80 2.062 . S
Co60 O84 2.117 1_554 S
Co60 O85 2.020 . S
C61 O81 1.259 . S
C61 O84 1.258 . S
Co62 N71 2.057 1_556 S
Co62 O78 2.117 1_556 S
Co62 O79 2.020 . S
Co62 O81 2.021 . S
Co62 O86 2.062 . S
C63 N65 1.316 1_554 S
C63 N66 1.347 1_554 S
C63 H68 0.931 . S
C64 N65 1.375 . S
C64 C67 1.350 . S
C64 H69 0.930 . S
N65 Co60 2.057 1_556 S
N65 C63 1.316 1_556 S
N65 C64 1.375 . S
N66 C63 1.347 1_556 S
N66 C67 1.373 . S
C67 C64 1.350 . S
C67 N66 1.373 . S
C67 H88 0.931 . S
H68 C63 0.931 . S
H69 C64 0.930 . S
C70 O77 1.259 . S
C70 O78 1.258 . S
N71 Co62 2.057 1_554 S
N71 C72 1.316 1_554 S
N71 C73 1.375 . S
C72 N71 1.316 1_556 S
C72 N74 1.347 1_556 S
C72 H83 0.931 . S
C73 N71 1.375 . S
C73 C75 1.350 . S
C73 H82 0.930 . S
N74 C72 1.347 1_554 S
N74 C75 1.373 . S
C75 C73 1.350 . S
C75 N74 1.373 . S
C75 H89 0.931 . S
C76 O79 1.256 1_554 S
C76 O80 1.255 . S
O77 Co60 2.021 . S
O77 C70 1.259 . S
O78 Co62 2.117 1_554 S
O78 C70 1.258 . S
O79 Co62 2.020 . S
O79 C76 1.256 1_556 S
O80 Co60 2.062 . S
O80 C76 1.255 . S
O81 C61 1.259 . S
O81 Co62 2.021 . S
H82 C73 0.930 . S
H83 C72 0.931 . S
O84 Co60 2.117 1_556 S
O84 C61 1.258 . S
O85 Co60 2.020 . S
O85 C87 1.255 1_554 S
O86 Co62 2.062 . S
O86 C87 1.255 . S
C87 O85 1.255 1_556 S
C87 O86 1.255 . S
H88 C67 0.931 . S
H89 C75 0.931 . S
Co90 N95 2.057 . S
Co90 O107 2.021 1_554 S
Co90 O110 2.062 . S
Co90 O114 2.117 . S
Co90 O115 2.020 . S
C91 O111 1.259 . S
C91 O114 1.258 . S
Co92 N101 2.057 . S
Co92 O108 2.117 1_554 S
Co92 O109 2.020 . S
Co92 O111 2.021 . S
Co92 O116 2.062 . S
C93 N95 1.316 . S
C93 N96 1.347 . S
C93 H98 0.931 1_554 S
C94 N95 1.375 . S
C94 C97 1.350 . S
C94 H99 0.930 . S
N95 Co90 2.057 . S
N95 C93 1.316 . S
N95 C94 1.375 . S
N96 C93 1.347 . S
N96 C97 1.373 . S
C97 C94 1.350 . S
C97 N96 1.373 . S
C97 H118 0.931 . S
H98 C93 0.931 1_556 S
H99 C94 0.930 . S
C100 O107 1.259 . S
C100 O108 1.258 . S
N101 Co92 2.057 . S
N101 C102 1.316 . S
N101 C103 1.375 1_554 S
C102 N101 1.316 . S
C102 N104 1.347 . S
C102 H113 0.931 . S
C103 N101 1.375 1_556 S
C103 C105 1.350 . S
C103 H112 0.930 . S
N104 C102 1.347 . S
N104 C105 1.373 1_554 S
C105 C103 1.350 . S
C105 N104 1.373 1_556 S
C105 H119 0.931 . S
C106 O109 1.256 . S
C106 O110 1.255 . S
O107 Co90 2.021 1_556 S
O107 C100 1.259 . S
O108 Co92 2.117 1_556 S
O108 C100 1.258 . S
O109 Co92 2.020 . S
O109 C106 1.256 . S
O110 Co90 2.062 . S
O110 C106 1.255 . S
O111 C91 1.259 . S
O111 Co92 2.021 . S
H112 C103 0.930 . S
H113 C102 0.931 . S
O114 Co90 2.117 . S
O114 C91 1.258 . S
O115 Co90 2.020 . S
O115 C117 1.256 . S
O116 Co92 2.062 . S
O116 C117 1.255 . S
C117 O115 1.256 . S
C117 O116 1.255 . S
H118 C97 0.931 . S
H119 C105 0.931 . S
Co120 N125 2.057 1_556 S
Co120 O137 2.020 . S
Co120 O140 2.062 . S
Co120 O144 2.118 1_556 S
Co120 O145 2.020 1_556 S
C121 O141 1.259 . S
C121 O144 1.258 . S
Co122 N131 2.057 1_554 S
Co122 O138 2.117 1_554 S
Co122 O139 2.020 . S
Co122 O141 2.021 . S
Co122 O146 2.062 . S
C123 N125 1.316 1_556 S
C123 N126 1.347 1_556 S
C123 H128 0.931 . S
C124 N125 1.375 . S
C124 C127 1.350 . S
C124 H129 0.930 . S
N125 Co120 2.057 1_554 S
N125 C123 1.316 1_554 S
N125 C124 1.375 . S
N126 C123 1.347 1_554 S
N126 C127 1.373 . S
C127 C124 1.350 . S
C127 N126 1.373 . S
C127 H148 0.931 . S
H128 C123 0.931 . S
H129 C124 0.930 . S
C130 O137 1.259 . S
C130 O138 1.258 . S
N131 Co122 2.057 1_556 S
N131 C132 1.316 1_556 S
N131 C133 1.375 . S
C132 N131 1.316 1_554 S
C132 N134 1.347 . S
C132 H143 0.931 . S
C133 N131 1.375 . S
C133 C135 1.350 . S
C133 H142 0.930 . S
N134 C132 1.347 . S
N134 C135 1.373 1_554 S
C135 C133 1.350 . S
C135 N134 1.373 1_556 S
C135 H149 0.931 . S
C136 O139 1.256 . S
C136 O140 1.255 1_554 S
O137 Co120 2.020 . S
O137 C130 1.259 . S
O138 Co122 2.117 1_556 S
O138 C130 1.258 . S
O139 Co122 2.020 . S
O139 C136 1.256 . S
O140 Co120 2.062 . S
O140 C136 1.255 1_556 S
O141 C121 1.259 . S
O141 Co122 2.021 . S
H142 C133 0.930 . S
H143 C132 0.931 . S
O144 Co120 2.118 1_554 S
O144 C121 1.258 . S
O145 Co120 2.020 1_554 S
O145 C147 1.256 . S
O146 Co122 2.062 . S
O146 C147 1.255 . S
C147 O145 1.256 . S
C147 O146 1.255 . S
H148 C127 0.931 . S
H149 C135 0.931 . S
Co150 N155 2.057 . S
Co150 O167 2.021 . S
Co150 O170 2.062 . S
Co150 O174 2.117 1_554 S
Co150 O175 2.020 . S
C151 O171 1.259 . S
C151 O174 1.258 . S
Co152 N161 2.057 . S
Co152 O168 2.117 . S
Co152 O169 2.020 . S
Co152 O171 2.021 1_554 S
Co152 O176 2.062 . S
C153 N155 1.316 . S
C153 N156 1.347 . S
C153 H158 0.931 . S
C154 N155 1.375 1_556 S
C154 C157 1.350 . S
C154 H159 0.930 . S
N155 Co150 2.057 . S
N155 C153 1.316 . S
N155 C154 1.375 1_554 S
N156 C153 1.347 . S
N156 C157 1.373 1_554 S
C157 C154 1.350 . S
C157 N156 1.373 1_556 S
C157 H178 0.931 . S
H158 C153 0.931 . S
H159 C154 0.930 . S
C160 O167 1.259 . S
C160 O168 1.258 . S
N161 Co152 2.057 . S
N161 C162 1.316 . S
N161 C163 1.375 . S
C162 N161 1.316 . S
C162 N164 1.347 . S
C162 H173 0.931 1_554 S
C163 N161 1.375 . S
C163 C165 1.350 . S
C163 H172 0.930 . S
N164 C162 1.347 . S
N164 C165 1.373 . S
C165 C163 1.350 . S
C165 N164 1.373 . S
C165 H179 0.931 . S
C166 O169 1.256 . S
C166 O170 1.255 . S
O167 Co150 2.021 . S
O167 C160 1.259 . S
O168 Co152 2.117 . S
O168 C160 1.258 . S
O169 Co152 2.020 . S
O169 C166 1.256 . S
O170 Co150 2.062 . S
O170 C166 1.255 . S
O171 C151 1.259 . S
O171 Co152 2.021 1_556 S
H172 C163 0.930 . S
H173 C162 0.931 1_556 S
O174 Co150 2.117 1_556 S
O174 C151 1.258 . S
O175 Co150 2.020 . S
O175 C177 1.256 . S
O176 Co152 2.062 . S
O176 C177 1.255 . S
C177 O175 1.256 . S
C177 O176 1.255 . S
H178 C157 0.931 . S
H179 C165 0.931 . S
C180 C181 1.387 1_556 S
C180 H184 0.950 . S
C180 C189 1.390 . S
C181 C180 1.387 1_554 S
C181 C183 1.387 . S
H182 C189 0.950 . S
C183 C181 1.387 . S
C183 C185 1.390 . S
C183 H187 0.950 . S
H184 C180 0.950 . S
C185 C183 1.390 . S
C185 C186 1.387 . S
C185 H188 0.950 . S
C186 C185 1.387 . S
C186 C189 1.387 1_554 S
H187 C183 0.950 . S
H188 C185 0.950 . S
C189 C180 1.390 . S
C189 H182 0.950 . S
C189 C186 1.387 1_556 S
C190 C191 1.387 . S
C190 H194 0.950 . S
C190 C199 1.390 . S
C191 C190 1.387 . S
C191 C193 1.387 1_554 S
H192 C199 0.950 . S
C193 C191 1.387 1_556 S
C193 C195 1.391 . S
C193 H197 0.938 1_655 S
H194 C190 0.950 . S
C195 C193 1.391 . S
C195 C196 1.386 1_556 S
C195 H198 0.951 . S
C196 C195 1.386 1_554 S
C196 C199 1.387 . S
H197 C193 0.938 1_455 S
H198 C195 0.951 . S
C199 C190 1.390 . S
C199 H192 0.950 . S
C199 C196 1.387 . S
C200 C201 1.387 1_556 S
C200 H204 0.950 . S
C200 C209 1.390 1_545 S
C201 C200 1.387 1_554 S
C201 C203 1.387 . S
H202 C209 0.950 . S
C203 C201 1.387 . S
C203 C205 1.390 1_545 S
C203 H207 0.950 . S
H204 C200 0.950 . S
C205 C203 1.390 1_565 S
C205 C206 1.387 . S
C205 H208 0.950 . S
C206 C205 1.387 . S
C206 C209 1.387 1_554 S
H207 C203 0.950 . S
H208 C205 0.950 . S
C209 C200 1.390 1_565 S
C209 H202 0.950 . S
C209 C206 1.387 1_556 S
C210 C211 1.387 . S
C210 H214 0.950 . S
C210 C219 1.390 . S
C211 C210 1.387 . S
C211 C213 1.387 1_554 S
H212 C219 0.950 . S
C213 C211 1.387 1_556 S
C213 C215 1.390 . S
C213 H217 0.950 . S
H214 C210 0.950 . S
C215 C213 1.390 . S
C215 C216 1.387 1_556 S
C215 H218 0.950 . S
C216 C215 1.387 1_554 S
C216 C219 1.387 . S
H217 C213 0.950 . S
H218 C215 0.950 . S
C219 C210 1.390 . S
C219 H212 0.950 . S
C219 C216 1.387 . S
C220 C221 1.387 . S
C220 H224 0.950 . S
C220 C229 1.390 . S
C221 C220 1.387 . S
C221 C223 1.387 1_554 S
H222 C229 0.935 1_655 S
C223 C221 1.387 1_556 S
C223 C225 1.390 . S
C223 H227 0.950 . S
H224 C220 0.950 . S
C225 C223 1.390 . S
C225 C226 1.388 1_556 S
C225 H228 0.950 . S
C226 C225 1.388 1_554 S
C226 C229 1.387 . S
H227 C223 0.950 . S
H228 C225 0.950 . S
C229 C220 1.390 . S
C229 H222 0.935 1_455 S
C229 C226 1.387 . S
C230 C231 1.387 . S
C230 H234 0.950 . S
C230 C239 1.390 1_565 S
C231 C230 1.387 . S
C231 C233 1.387 1_554 S
H232 C239 0.950 . S
C233 C231 1.387 1_556 S
C233 C235 1.390 1_565 S
C233 H237 0.950 . S
H234 C230 0.950 . S
C235 C233 1.390 1_545 S
C235 C236 1.387 1_556 S
C235 H238 0.950 . S
C236 C235 1.387 1_554 S
C236 C239 1.387 . S
H237 C233 0.950 . S
H238 C235 0.950 . S
C239 C230 1.390 1_545 S
C239 H232 0.950 . S
C239 C236 1.387 . S
C240 C241 1.387 . S
C240 H244 0.950 . S
C240 C249 1.390 . S
C241 C240 1.387 . S
C241 C243 1.387 1_556 S
H242 C249 0.950 . S
C243 C241 1.387 1_554 S
C243 C245 1.390 . S
C243 H247 0.950 . S
H244 C240 0.950 . S
C245 C243 1.390 . S
C245 C246 1.391 . S
C245 H248 0.950 . S
C246 C245 1.391 . S
C246 C249 1.384 1_554 S
H247 C243 0.950 . S
H248 C245 0.950 . S
C249 C240 1.390 . S
C249 H242 0.950 . S
C249 C246 1.384 1_556 S
C250 C251 1.387 1_556 S
C250 H254 0.950 . S
C250 C259 1.390 . S
C251 C250 1.387 1_554 S
C251 C253 1.387 . S
H252 C259 0.950 . S
C253 C251 1.387 . S
C253 C255 1.390 . S
C253 H257 0.950 . S
H254 C250 0.950 . S
C255 C253 1.390 . S
C255 C256 1.387 . S
C255 H258 0.950 . S
C256 C255 1.387 . S
C256 C259 1.387 1_554 S
H257 C253 0.950 . S
H258 C255 0.950 . S
C259 C250 1.390 . S
C259 H252 0.950 . S
C259 C256 1.387 1_556 S
C260 C261 1.387 . S
C260 H264 0.950 . S
C260 C269 1.390 . S
C261 C260 1.387 . S
C261 C263 1.387 1_554 S
H262 C269 0.950 . S
C263 C261 1.387 1_556 S
C263 C265 1.390 . S
C263 H267 0.950 . S
H264 C260 0.950 . S
C265 C263 1.390 . S
C265 C266 1.387 1_556 S
C265 H268 0.950 . S
C266 C265 1.387 1_554 S
C266 C269 1.387 . S
H267 C263 0.950 . S
H268 C265 0.950 . S
C269 C260 1.390 . S
C269 H262 0.950 . S
C269 C266 1.387 . S
C270 C271 1.387 1_556 S
C270 H274 0.950 . S
C270 C279 1.390 . S
C271 C270 1.387 1_554 S
C271 C273 1.387 . S
H272 C279 0.950 . S
C273 C271 1.387 . S
C273 C275 1.390 . S
C273 H277 0.950 . S
H274 C270 0.950 . S
C275 C273 1.390 . S
C275 C276 1.387 . S
C275 H278 0.950 . S
C276 C275 1.387 . S
C276 C279 1.387 1_554 S
H277 C273 0.950 . S
H278 C275 0.950 . S
C279 C270 1.390 . S
C279 H272 0.950 . S
C279 C276 1.387 1_556 S
C280 C281 1.387 1_556 S
C280 H284 0.950 . S
C280 C289 1.390 . S
C281 C280 1.387 1_554 S
C281 C283 1.387 . S
H282 C289 0.950 . S
C283 C281 1.387 . S
C283 C285 1.390 . S
C283 H287 0.950 . S
H284 C280 0.950 . S
C285 C283 1.390 . S
C285 C286 1.387 . S
C285 H288 0.950 . S
C286 C285 1.387 . S
C286 C289 1.387 1_554 S
H287 C283 0.950 . S
H288 C285 0.950 . S
C289 C280 1.390 . S
C289 H282 0.950 . S
C289 C286 1.387 1_556 S
C290 C291 1.387 1_556 S
C290 H294 0.950 . S
C290 C299 1.390 . S
C291 C290 1.387 1_554 S
C291 C293 1.387 . S
H292 C299 0.950 . S
C293 C291 1.387 . S
C293 C295 1.390 . S
C293 H297 0.950 . S
H294 C290 0.950 . S
C295 C293 1.390 . S
C295 C296 1.387 . S
C295 H298 0.950 . S
C296 C295 1.387 . S
C296 C299 1.387 1_554 S
H297 C293 0.950 . S
H298 C295 0.950 . S
C299 C290 1.390 . S
C299 H292 0.950 . S
C299 C296 1.387 1_556 S
C300 C301 1.387 . S
C300 H304 0.950 . S
C300 C309 1.390 . S
C301 C300 1.387 . S
C301 C303 1.387 . S
H302 C309 0.950 . S
C303 C301 1.387 . S
C303 C305 1.390 . S
C303 H307 0.950 . S
H304 C300 0.950 . S
C305 C303 1.390 . S
C305 C306 1.387 . S
C305 H308 0.950 . S
C306 C305 1.387 . S
C306 C309 1.387 . S
H307 C303 0.950 . S
H308 C305 0.950 . S
C309 C300 1.390 . S
C309 H302 0.950 . S
C309 C306 1.387 . S
C310 C311 1.387 . S
C310 H314 0.950 . S
C310 C319 1.390 . S
C311 C310 1.387 . S
C311 C313 1.387 . S
H312 C319 0.950 . S
C313 C311 1.387 . S
C313 C315 1.390 . S
C313 H317 0.950 . S
H314 C310 0.950 . S
C315 C313 1.390 . S
C315 C316 1.387 . S
C315 H318 0.950 . S
C316 C315 1.387 . S
C316 C319 1.387 . S
H317 C313 0.950 . S
H318 C315 0.950 . S
C319 C310 1.390 . S
C319 H312 0.950 . S
C319 C316 1.387 . S
C320 C321 1.387 . S
C320 H324 0.950 . S
C320 C329 1.390 . S
C321 C320 1.387 . S
C321 C323 1.387 . S
H322 C329 0.950 . S
C323 C321 1.387 . S
C323 C325 1.390 . S
C323 H327 0.950 . S
H324 C320 0.950 . S
C325 C323 1.390 . S
C325 C326 1.387 . S
C325 H328 0.950 . S
C326 C325 1.387 . S
C326 C329 1.387 . S
H327 C323 0.950 . S
H328 C325 0.950 . S
C329 C320 1.390 . S
C329 H322 0.950 . S
C329 C326 1.387 . S
C330 C331 1.387 . S
C330 H334 0.950 . S
C330 C339 1.390 . S
C331 C330 1.387 . S
C331 C333 1.387 . S
H332 C339 0.950 . S
C333 C331 1.387 . S
C333 C335 1.390 . S
C333 H337 0.950 . S
H334 C330 0.950 . S
C335 C333 1.390 . S
C335 C336 1.387 . S
C335 H338 0.950 . S
C336 C335 1.387 . S
C336 C339 1.387 . S
H337 C333 0.950 . S
H338 C335 0.950 . S
C339 C330 1.390 . S
C339 H332 0.950 . S
C339 C336 1.387 . S
C340 C341 1.387 . S
C340 H344 0.950 . S
C340 C349 1.390 . S
C341 C340 1.387 . S
C341 C343 1.387 . S
H342 C349 0.950 . S
C343 C341 1.387 . S
C343 C345 1.390 . S
C343 H347 0.950 . S
H344 C340 0.950 . S
C345 C343 1.390 . S
C345 C346 1.387 . S
C345 H348 0.950 . S
C346 C345 1.387 . S
C346 C349 1.387 . S
H347 C343 0.950 . S
H348 C345 0.950 . S
C349 C340 1.390 . S
C349 H342 0.950 . S
C349 C346 1.387 . S
C350 C351 1.387 . S
C350 H354 0.950 . S
C350 C359 1.390 . S
C351 C350 1.387 . S
C351 C353 1.387 . S
H352 C359 0.950 . S
C353 C351 1.387 . S
C353 C355 1.390 . S
C353 H357 0.950 . S
H354 C350 0.950 . S
C355 C353 1.390 . S
C355 C356 1.387 . S
C355 H358 0.950 . S
C356 C355 1.387 . S
C356 C359 1.387 . S
H357 C353 0.950 . S
H358 C355 0.950 . S
C359 C350 1.390 . S
C359 H352 0.950 . S
C359 C356 1.387 . S
C181 C166 1.050 . S
C186 C27 1.021 . S
C191 N14 1.658 1_654 S
C196 C46 1.906 . S
C201 N36 1.720 . S
C206 N74 1.618 . S
C211 C106 1.016 . S
C216 C87 1.052 1_554 S
C221 C147 1.906 . S
C226 N96 1.658 1_455 S
C231 N134 1.721 . S
C236 N156 1.615 . S
C241 N126 1.509 1_556 S
C246 C16 1.531 . S
C251 C177 1.944 . S
C256 C57 1.961 . S
C261 N66 1.325 1_554 S
C266 N6 1.317 . S
C271 C117 1.530 . S
C276 N44 1.509 . S
C281 C136 1.961 . S
C286 C76 1.945 . S
C291 N104 1.319 . S
C296 N164 1.326 . S
C301 C10 1.493 . S
C306 C1 1.493 . S
C311 C40 1.498 . S
C316 C31 1.498 . S
C321 C61 1.496 . S
C326 C70 1.496 . S
C331 C100 1.493 . S
C336 C91 1.493 . S
C341 C121 1.499 . S
C346 C130 1.499 . S
C351 C151 1.496 . S
C356 C160 1.496 . S
