# Generated by pormake.
# Topology atn, (4)-cn, num edge types: 1
# Building blocks:
#     Node 0, Type 0, BuildingBlock: UXUYUI_clean_sbu_0, # of connection points: 4
#     Node 1, Type 0, BuildingBlock: UXUYUI_clean_sbu_0, # of connection points: 4
#     Node 2, Type 0, BuildingBlock: UXUYUI_clean_sbu_0, # of connection points: 4
#     Node 3, Type 0, BuildingBlock: UXUYUI_clean_sbu_0, # of connection points: 4
#     Node 4, Type 0, BuildingBlock: UXUYUI_clean_sbu_0, # of connection points: 4
#     Node 5, Type 0, BuildingBlock: UXUYUI_clean_sbu_0, # of connection points: 4
#     Node 6, Type 0, BuildingBlock: UXUYUI_clean_sbu_0, # of connection points: 4
#     Node 7, Type 0, BuildingBlock: UXUYUI_clean_sbu_0, # of connection points: 4
#     Node 8, Type 0, BuildingBlock: UXUYUI_clean_sbu_0, # of connection points: 4
#     Node 9, Type 0, BuildingBlock: UXUYUI_clean_sbu_0, # of connection points: 4
#     Node 10, Type 0, BuildingBlock: UXUYUI_clean_sbu_0, # of connection points: 4
#     Node 11, Type 0, BuildingBlock: UXUYUI_clean_sbu_0, # of connection points: 4
#     Node 12, Type 0, BuildingBlock: UXUYUI_clean_sbu_0, # of connection points: 4
#     Node 13, Type 0, BuildingBlock: UXUYUI_clean_sbu_0, # of connection points: 4
#     Node 14, Type 0, BuildingBlock: UXUYUI_clean_sbu_0, # of connection points: 4
#     Node 15, Type 0, BuildingBlock: UXUYUI_clean_sbu_0, # of connection points: 4
#     Edge 16, Type (0, 0), BuildingBlock: AJUNOK_clean_linker_0, # of connection points: 2
#     Edge 17, Type (0, 0), BuildingBlock: AJUNOK_clean_linker_0, # of connection points: 2
#     Edge 18, Type (0, 0), BuildingBlock: AJUNOK_clean_linker_0, # of connection points: 2
#     Edge 19, Type (0, 0), BuildingBlock: AJUNOK_clean_linker_0, # of connection points: 2
#     Edge 20, Type (0, 0), BuildingBlock: AJUNOK_clean_linker_0, # of connection points: 2
#     Edge 21, Type (0, 0), BuildingBlock: AJUNOK_clean_linker_0, # of connection points: 2
#     Edge 22, Type (0, 0), BuildingBlock: AJUNOK_clean_linker_0, # of connection points: 2
#     Edge 23, Type (0, 0), BuildingBlock: AJUNOK_clean_linker_0, # of connection points: 2
#     Edge 24, Type (0, 0), BuildingBlock: AJUNOK_clean_linker_0, # of connection points: 2
#     Edge 25, Type (0, 0), BuildingBlock: AJUNOK_clean_linker_0, # of connection points: 2
#     Edge 26, Type (0, 0), BuildingBlock: AJUNOK_clean_linker_0, # of connection points: 2
#     Edge 27, Type (0, 0), BuildingBlock: AJUNOK_clean_linker_0, # of connection points: 2
#     Edge 28, Type (0, 0), BuildingBlock: AJUNOK_clean_linker_0, # of connection points: 2
#     Edge 29, Type (0, 0), BuildingBlock: AJUNOK_clean_linker_0, # of connection points: 2
#     Edge 30, Type (0, 0), BuildingBlock: AJUNOK_clean_linker_0, # of connection points: 2
#     Edge 31, Type (0, 0), BuildingBlock: AJUNOK_clean_linker_0, # of connection points: 2
#     Edge 32, Type (0, 0), BuildingBlock: AJUNOK_clean_linker_0, # of connection points: 2
#     Edge 33, Type (0, 0), BuildingBlock: AJUNOK_clean_linker_0, # of connection points: 2
#     Edge 34, Type (0, 0), BuildingBlock: AJUNOK_clean_linker_0, # of connection points: 2
#     Edge 35, Type (0, 0), BuildingBlock: AJUNOK_clean_linker_0, # of connection points: 2
#     Edge 36, Type (0, 0), BuildingBlock: AJUNOK_clean_linker_0, # of connection points: 2
#     Edge 37, Type (0, 0), BuildingBlock: AJUNOK_clean_linker_0, # of connection points: 2
#     Edge 38, Type (0, 0), BuildingBlock: AJUNOK_clean_linker_0, # of connection points: 2
#     Edge 39, Type (0, 0), BuildingBlock: AJUNOK_clean_linker_0, # of connection points: 2
#     Edge 40, Type (0, 0), BuildingBlock: AJUNOK_clean_linker_0, # of connection points: 2
#     Edge 41, Type (0, 0), BuildingBlock: AJUNOK_clean_linker_0, # of connection points: 2
#     Edge 42, Type (0, 0), BuildingBlock: AJUNOK_clean_linker_0, # of connection points: 2
#     Edge 43, Type (0, 0), BuildingBlock: AJUNOK_clean_linker_0, # of connection points: 2
#     Edge 44, Type (0, 0), BuildingBlock: AJUNOK_clean_linker_0, # of connection points: 2
#     Edge 45, Type (0, 0), BuildingBlock: AJUNOK_clean_linker_0, # of connection points: 2
#     Edge 46, Type (0, 0), BuildingBlock: AJUNOK_clean_linker_0, # of connection points: 2
#     Edge 47, Type (0, 0), BuildingBlock: AJUNOK_clean_linker_0, # of connection points: 2
# Relax obj value: 0.164
# Max RMSD: 0.140
# Mean RMSD: 0.140
data_MOF--net-atn--node1-UXUYUI_clean_sbu_0--edge1-AJUNOK_clean_linker_0
_symmetry_space_group_name_H-M    P1
_symmetry_Int_Tables_number       1
_symmetry_cell_setting            triclinic
loop_
_symmetry_equiv_pos_as_xyz
'x, y, z'
_cell_length_a     75.081891
_cell_length_b     75.084374
_cell_length_c     30.821738
_cell_angle_alpha  89.993608
_cell_angle_beta   90.013259
_cell_angle_gamma 90.014026
loop_
_atom_site_label
_atom_site_type_symbol
_atom_site_fract_x
_atom_site_fract_y
_atom_site_fract_z
_atom_type_partial_charge
Li0 Li 0.21393 0.39955 0.00425 0.0
Li1 Li 0.20214 0.37471 0.04262 0.0
Li2 Li 0.22877 0.37001 0.00131 0.0
Li3 Li 0.19907 0.37456 0.9646 0.0
C4 C 0.24166 0.3935 0.06266 0.0
N5 N 0.27397 0.40887 0.08365 0.0
C6 C 0.24638 0.39598 0.10609 0.0
C7 C 0.2534 0.39879 0.02989 0.0
C8 C 0.26277 0.4038 0.11605 0.0
C9 C 0.26966 0.40654 0.04116 0.0
C10 C 0.17911 0.40369 0.03115 0.0
C11 C 0.15348 0.42246 0.04253 0.0
N12 N 0.16052 0.428 0.0809 0.0
C13 C 0.18609 0.40955 0.07071 0.0
C14 C 0.16268 0.41018 0.01691 0.0
C15 C 0.17649 0.42185 0.09537 0.0
C16 C 0.21259 0.4338 0.96647 0.0
N17 N 0.2171 0.42491 0.00329 0.0
C18 C 0.22444 0.45232 0.03867 0.0
C19 C 0.22281 0.43379 0.03918 0.0
C20 C 0.22 0.46188 1.001 0.0
C21 C 0.21392 0.45237 0.96461 0.0
H22 H 0.20772 0.42645 0.9387 0.0
H23 H 0.22585 0.42655 0.06853 0.0
C24 C 0.20214 0.3626 0.12859 0.0
N25 N 0.1911 0.36756 0.09581 0.0
C26 C 0.19517 0.35675 0.16807 0.0
C27 C 0.16553 0.36127 0.13947 0.0
C28 C 0.17309 0.36705 0.10046 0.0
C29 C 0.17663 0.3561 0.17394 0.0
H30 H 0.21641 0.36294 0.12375 0.0
H31 H 0.16461 0.37095 0.07373 0.0
C32 C 0.23014 0.3878 0.91321 0.0
N33 N 0.24569 0.39069 0.83227 0.0
C34 C 0.22799 0.37421 0.88264 0.0
C35 C 0.24018 0.40286 0.90259 0.0
C36 C 0.23596 0.37592 0.8419 0.0
C37 C 0.24795 0.40406 0.86152 0.0
C38 C 0.19954 0.34113 0.02401 0.0
C39 C 0.20971 0.33036 0.05145 0.0
C40 C 0.18117 0.33837 0.02085 0.0
C41 C 0.20129 0.31705 0.07561 0.0
C42 C 0.17325 0.32491 0.04552 0.0
N43 N 0.18338 0.31464 0.0722 0.0
C44 C 0.2571 0.35065 0.03709 0.0
C45 C 0.25905 0.35358 0.96072 0.0
C46 C 0.27207 0.33961 0.03766 0.0
N47 N 0.25076 0.35717 0.99893 0.0
C48 C 0.27411 0.34265 0.95979 0.0
C49 C 0.28067 0.33532 0.99855 0.0
H50 H 0.25016 0.35358 0.067 0.0
H51 H 0.2538 0.3588 0.9308 0.0
C52 C 0.17989 0.3808 0.88626 0.0
N53 N 0.1858 0.36807 0.91415 0.0
C54 C 0.17158 0.37592 0.84735 0.0
C55 C 0.17539 0.345 0.86703 0.0
C56 C 0.18371 0.35045 0.90531 0.0
C57 C 0.16927 0.3578 0.83738 0.0
H58 H 0.182 0.39471 0.8938 0.0
H59 H 0.18898 0.34059 0.9274 0.0
O60 O 0.22562 0.38588 0.05269 0.0
O61 O 0.18827 0.39173 0.00617 0.0
O62 O 0.2222 0.38656 0.95305 0.0
O63 O 0.20744 0.35459 1.00111 0.0
H64 H 0.23744 0.39196 0.13184 0.0
H65 H 0.25005 0.39691 0.99614 0.0
H66 H 0.26658 0.40583 0.14953 0.0
H67 H 0.27886 0.4107 0.01613 0.0
H68 H 0.14075 0.4276 0.0319 0.0
H69 H 0.19877 0.40469 0.08233 0.0
H70 H 0.15712 0.40577 0.98633 0.0
H71 H 0.18174 0.42651 0.12603 0.0
H72 H 0.2291 0.45912 0.06752 0.0
H73 H 0.20984 0.45921 0.93532 0.0
H74 H 0.20418 0.35247 0.19344 0.0
H75 H 0.15117 0.3609 0.14273 0.0
H76 H 0.22047 0.36236 0.89047 0.0
H77 H 0.24197 0.41351 0.92585 0.0
H78 H 0.23445 0.36549 0.81798 0.0
H79 H 0.25577 0.41564 0.85289 0.0
H80 H 0.22392 0.33234 0.05435 0.0
H81 H 0.17307 0.34674 1.00015 0.0
H82 H 0.20898 0.30868 0.09717 0.0
H83 H 0.15903 0.32271 0.04365 0.0
H84 H 0.27643 0.33394 0.06817 0.0
H85 H 0.28038 0.33971 0.92896 0.0
H86 H 0.16714 0.38618 0.82512 0.0
H87 H 0.17431 0.33091 0.86002 0.0
Li88 Li 0.60142 0.21257 0.00829 0.0
Li89 Li 0.6263 0.19987 0.04436 0.0
Li90 Li 0.63072 0.22886 0.00868 0.0
Li91 Li 0.62661 0.20042 0.96713 0.0
C92 C 0.61172 0.22212 0.10131 0.0
N93 N 0.60708 0.21887 0.18992 0.0
C94 C 0.59602 0.21478 0.11793 0.0
C95 C 0.62502 0.22788 0.12978 0.0
C96 C 0.59392 0.21328 0.16282 0.0
C97 C 0.62245 0.22607 0.17446 0.0
C98 C 0.60579 0.17217 0.02553 0.0
C99 C 0.6145 0.14286 0.04945 0.0
N100 N 0.59846 0.14093 0.06942 0.0
C101 C 0.58936 0.16988 0.04615 0.0
C102 C 0.61843 0.15853 0.02697 0.0
C103 C 0.58592 0.15399 0.0682 0.0
C104 C 0.56658 0.20456 0.98087 0.0
N105 N 0.57617 0.21581 0.00632 0.0
C106 C 0.54963 0.23088 0.02851 0.0
C107 C 0.56815 0.22895 0.02957 0.0
C108 C 0.53938 0.21936 0.00272 0.0
C109 C 0.54807 0.20611 0.97855 0.0
H110 H 0.57333 0.19427 0.96264 0.0
H111 H 0.57614 0.23784 0.04918 0.0
C112 C 0.65221 0.18833 0.10373 0.0
N113 N 0.63442 0.1875 0.09563 0.0
C114 C 0.65916 0.1816 0.14241 0.0
C115 C 0.62946 0.17294 0.16373 0.0
C116 C 0.62307 0.17981 0.12455 0.0
C117 C 0.64768 0.17412 0.1734 0.0
H118 H 0.66098 0.19467 0.08064 0.0
H119 H 0.60895 0.17955 0.1181 0.0
C120 C 0.60122 0.23066 0.93508 0.0
N121 N 0.5721 0.24372 0.89052 0.0
C122 C 0.59387 0.2209 0.90086 0.0
C123 C 0.59382 0.24707 0.94658 0.0
C124 C 0.57914 0.22774 0.87872 0.0
C125 C 0.57908 0.25343 0.92367 0.0
C126 C 0.66077 0.20274 0.98411 0.0
C127 C 0.66966 0.21536 0.95874 0.0
C128 C 0.66654 0.18505 0.98409 0.0
C129 C 0.68409 0.20998 0.93329 0.0
C130 C 0.68101 0.18021 0.95815 0.0
N131 N 0.6894 0.19266 0.93347 0.0
C132 C 0.65624 0.25273 0.04015 0.0
C133 C 0.64156 0.26274 0.97655 0.0
C134 C 0.6676 0.26745 0.03932 0.0
N135 N 0.64359 0.25065 0.00904 0.0
C136 C 0.65274 0.27762 0.9743 0.0
C137 C 0.66611 0.27995 0.00567 0.0
H138 H 0.65797 0.24259 0.06466 0.0
H139 H 0.63168 0.26053 0.95161 0.0
C140 C 0.6331 0.17159 0.90767 0.0
N141 N 0.634 0.18948 0.91422 0.0
C142 C 0.63978 0.16414 0.86935 0.0
C143 C 0.64783 0.1937 0.84518 0.0
C144 C 0.64088 0.20056 0.88366 0.0
C145 C 0.64755 0.17525 0.83795 0.0
H146 H 0.62744 0.16309 0.93237 0.0
H147 H 0.64128 0.21476 0.88962 0.0
O148 O 0.61412 0.22347 0.05742 0.0
O149 O 0.60935 0.18758 0.00354 0.0
O150 O 0.61522 0.2239 0.95813 0.0
O151 O 0.64622 0.20758 0.00807 0.0
H152 H 0.58571 0.20996 0.09645 0.0
H153 H 0.63726 0.23352 0.11755 0.0
H154 H 0.58189 0.20752 0.1761 0.0
H155 H 0.63269 0.23035 0.19684 0.0
H156 H 0.6242 0.13223 0.05106 0.0
H157 H 0.57944 0.18031 0.04553 0.0
H158 H 0.63121 0.16009 0.01127 0.0
H159 H 0.5733 0.15207 0.08447 0.0
H160 H 0.54338 0.24128 0.04749 0.0
H161 H 0.5406 0.19681 0.95878 0.0
H162 H 0.67336 0.18245 0.14823 0.0
H163 H 0.62015 0.16734 0.18687 0.0
H164 H 0.59938 0.2081 0.89183 0.0
H165 H 0.59924 0.25466 0.97337 0.0
H166 H 0.57325 0.22031 0.8523 0.0
H167 H 0.57314 0.26606 0.93238 0.0
H168 H 0.66532 0.22908 0.95816 0.0
H169 H 0.65982 0.17514 0.00362 0.0
H170 H 0.69102 0.21957 0.91323 0.0
H171 H 0.68554 0.16653 0.95757 0.0
H172 H 0.67791 0.26866 0.06373 0.0
H173 H 0.65115 0.28704 0.94796 0.0
H174 H 0.63929 0.14985 0.86476 0.0
H175 H 0.65343 0.20271 0.82136 0.0
Li176 Li 0.80005 0.62647 0.03884 0.0
Li177 Li 0.78669 0.60163 0.00304 0.0
Li178 Li 0.799 0.62582 0.96057 0.0
Li179 Li 0.77012 0.62972 1.00095 0.0
C180 C 0.82733 0.60682 0.02187 0.0
N181 N 0.85815 0.60248 0.06977 0.0
C182 C 0.82969 0.5916 0.04741 0.0
C183 C 0.84066 0.61981 0.02069 0.0
C184 C 0.84538 0.58965 0.07134 0.0
C185 C 0.85613 0.61738 0.04518 0.0
C186 C 0.76786 0.60389 0.07915 0.0
C187 C 0.74052 0.59289 0.11021 0.0
N188 N 0.74996 0.58062 0.13315 0.0
C189 C 0.7773 0.59123 0.10314 0.0
C190 C 0.74932 0.60478 0.08273 0.0
C191 C 0.768 0.57955 0.1302 0.0
C192 C 0.81529 0.65266 0.09353 0.0
N193 N 0.8124 0.63486 0.08949 0.0
C194 C 0.82483 0.62967 0.15989 0.0
C195 C 0.81696 0.62338 0.12178 0.0
C196 C 0.82792 0.64798 0.16502 0.0
C197 C 0.82307 0.65954 0.13117 0.0
H198 H 0.81115 0.6616 0.06799 0.0
H199 H 0.81431 0.60934 0.1183 0.0
C200 C 0.79743 0.56653 0.98511 0.0
N201 N 0.78373 0.57605 0.00233 0.0
C202 C 0.79656 0.54797 0.98294 0.0
C203 C 0.76732 0.54923 0.01544 0.0
C204 C 0.76864 0.56779 0.01634 0.0
C205 C 0.78142 0.53913 0.99862 0.0
H206 H 0.80907 0.57338 0.97294 0.0
H207 H 0.75752 0.57556 0.02788 0.0
C208 C 0.79586 0.6601 0.97476 0.0
N209 N 0.80475 0.6884 0.92171 0.0
C210 C 0.78275 0.66857 0.95002 0.0
C211 C 0.81346 0.6661 0.97273 0.0
C212 C 0.78752 0.68285 0.92338 0.0
C213 C 0.8177 0.6804 0.94563 0.0
C214 C 0.77025 0.59963 0.92818 0.0
C215 C 0.78197 0.59166 0.89882 0.0
C216 C 0.75331 0.59236 0.9345 0.0
C217 C 0.77657 0.57642 0.87637 0.0
C218 C 0.74841 0.57711 0.91141 0.0
N219 N 0.76005 0.56952 0.8831 0.0
C220 C 0.82785 0.63123 0.90037 0.0
C221 C 0.79897 0.63899 0.87574 0.0
C222 C 0.83529 0.63672 0.86094 0.0
N223 N 0.80999 0.63258 0.90705 0.0
C224 C 0.80582 0.64462 0.83595 0.0
C225 C 0.82421 0.64346 0.82807 0.0
H226 H 0.83631 0.62591 0.92555 0.0
H227 H 0.78481 0.63988 0.88193 0.0
C228 C 0.74614 0.65479 0.03314 0.0
N229 N 0.74825 0.64235 0.00158 0.0
C230 C 0.73149 0.66623 0.03241 0.0
C231 C 0.72112 0.65139 0.96754 0.0
C232 C 0.73606 0.6403 0.96937 0.0
C233 C 0.71894 0.66487 0.99877 0.0
H234 H 0.75622 0.65624 0.05799 0.0
H235 H 0.73822 0.63045 0.94433 0.0
O236 O 0.81199 0.60907 0.99852 0.0
O237 O 0.77666 0.61553 0.05264 0.0
O238 O 0.79155 0.64577 1.00012 0.0
O239 O 0.77553 0.61416 0.95155 0.0
H240 H 0.81944 0.58153 0.04934 0.0
H241 H 0.83899 0.63174 0.00155 0.0
H242 H 0.84734 0.57799 0.09137 0.0
H243 H 0.86651 0.62738 0.04473 0.0
H244 H 0.72617 0.59339 0.11326 0.0
H245 H 0.79159 0.59013 0.10014 0.0
H246 H 0.74182 0.61452 0.06442 0.0
H247 H 0.77512 0.56959 0.14868 0.0
H248 H 0.82836 0.62031 0.18521 0.0
H249 H 0.82478 0.67381 0.13424 0.0
H250 H 0.8077 0.54059 0.9697 0.0
H251 H 0.75533 0.54282 0.02722 0.0
H252 H 0.76908 0.66405 0.95092 0.0
H253 H 0.82378 0.65968 0.99157 0.0
H254 H 0.77753 0.68947 0.90388 0.0
H255 H 0.83129 0.68511 0.94354 0.0
H256 H 0.79519 0.59705 0.89386 0.0
H257 H 0.74418 0.59823 0.95758 0.0
H258 H 0.78554 0.57004 0.85374 0.0
H259 H 0.73539 0.57125 0.91619 0.0
H260 H 0.84953 0.63557 0.85604 0.0
H261 H 0.79685 0.65007 0.81185 0.0
H262 H 0.73038 0.67651 0.05692 0.0
H263 H 0.71158 0.64967 0.94153 0.0
Li264 Li 0.37543 0.79954 0.04558 0.0
Li265 Li 0.40025 0.78747 0.00588 0.0
Li266 Li 0.37496 0.7994 0.96658 0.0
Li267 Li 0.37218 0.77172 0.00571 0.0
C268 C 0.3875 0.83035 0.00418 0.0
N269 N 0.37908 0.86617 0.00176 0.0
C270 C 0.40079 0.84301 0.99664 0.0
C271 C 0.36993 0.83593 0.0106 0.0
C272 C 0.39627 0.86105 0.9955 0.0
C273 C 0.36594 0.85409 0.00923 0.0
C274 C 0.39782 0.77799 0.09317 0.0
C275 C 0.40777 0.7662 0.16179 0.0
N276 N 0.418 0.78095 0.1678 0.0
C277 C 0.40843 0.79304 0.10002 0.0
C278 C 0.39747 0.76446 0.12426 0.0
C279 C 0.41854 0.79428 0.13795 0.0
C280 C 0.35373 0.80388 0.1183 0.0
N281 N 0.36803 0.81109 0.09773 0.0
C282 C 0.37118 0.83305 0.15342 0.0
C283 C 0.37686 0.82533 0.11454 0.0
C284 C 0.35637 0.82594 0.17521 0.0
C285 C 0.34767 0.8111 0.15733 0.0
H286 H 0.34712 0.79241 0.10441 0.0
H287 H 0.38841 0.83061 0.09801 0.0
C288 C 0.43516 0.79849 0.98603 0.0
N289 N 0.42568 0.78529 0.00546 0.0
C290 C 0.45377 0.79805 0.98609 0.0
C291 C 0.45255 0.77028 0.02563 0.0
C292 C 0.43396 0.77132 0.02506 0.0
C293 C 0.46268 0.78378 0.00598 0.0
H294 H 0.42823 0.80943 0.97068 0.0
H295 H 0.42615 0.76107 0.04074 0.0
C296 C 0.34014 0.78778 0.98717 0.0
N297 N 0.30857 0.77776 0.9481 0.0
C298 C 0.34029 0.78001 0.94594 0.0
C299 C 0.32395 0.79041 0.00856 0.0
C300 C 0.32418 0.77507 0.92671 0.0
C301 C 0.30813 0.78525 0.98826 0.0
C302 C 0.39683 0.76171 0.94263 0.0
C303 C 0.40194 0.7594 0.89941 0.0
C304 C 0.40108 0.74865 0.97327 0.0
C305 C 0.41126 0.74405 0.88754 0.0
C306 C 0.41042 0.7335 0.96012 0.0
N307 N 0.41528 0.73153 0.91789 0.0
C308 C 0.37691 0.8097 0.87848 0.0
C309 C 0.35193 0.82133 0.91594 0.0
C310 C 0.37087 0.81707 0.83948 0.0
N311 N 0.36729 0.81173 0.91551 0.0
C312 C 0.34542 0.82894 0.87775 0.0
C313 C 0.35473 0.82652 0.83867 0.0
H314 H 0.38907 0.80199 0.87906 0.0
H315 H 0.34445 0.82272 0.9457 0.0
C316 C 0.34984 0.74681 0.04423 0.0
N317 N 0.35907 0.74991 0.00707 0.0
C318 C 0.33743 0.73298 0.04621 0.0
C319 C 0.34478 0.72528 0.97219 0.0
C320 C 0.35692 0.73941 0.97145 0.0
C321 C 0.33456 0.72226 0.00959 0.0
H322 H 0.35157 0.7556 0.07172 0.0
H323 H 0.36399 0.74247 0.94183 0.0
O324 O 0.39182 0.81264 0.00534 0.0
O325 O 0.38773 0.77643 0.0564 0.0
O326 O 0.35575 0.79232 0.0072 0.0
O327 O 0.38782 0.77677 0.95462 0.0
H328 H 0.41446 0.83894 0.99174 0.0
H329 H 0.35946 0.82639 0.01681 0.0
H330 H 0.40642 0.87099 0.98967 0.0
H331 H 0.3524 0.85857 0.01416 0.0
H332 H 0.40762 0.75582 0.18614 0.0
H333 H 0.40891 0.80365 0.07635 0.0
H334 H 0.3893 0.75274 0.11942 0.0
H335 H 0.42681 0.80584 0.14366 0.0
H336 H 0.37843 0.84427 0.16664 0.0
H337 H 0.33621 0.80525 0.17322 0.0
H338 H 0.46113 0.80868 0.97051 0.0
H339 H 0.45894 0.75921 0.04193 0.0
H340 H 0.35271 0.77769 0.92909 0.0
H341 H 0.32363 0.7963 0.0406 0.0
H342 H 0.3241 0.76902 0.89485 0.0
H343 H 0.29549 0.78718 0.00446 0.0
H344 H 0.39875 0.76937 0.87527 0.0
H345 H 0.3972 0.75012 0.00683 0.0
H346 H 0.41531 0.7421 0.8542 0.0
H347 H 0.41381 0.7233 0.98351 0.0
H348 H 0.37843 0.8149 0.81002 0.0
H349 H 0.33312 0.83645 0.87869 0.0
H350 H 0.32981 0.73097 0.07565 0.0
H351 H 0.34275 0.71737 0.94322 0.0
Li352 Li 0.19943 0.62681 0.04374 0.0
Li353 Li 0.2286 0.63097 0.00408 0.0
Li354 Li 0.20102 0.62671 0.96407 0.0
Li355 Li 0.21429 0.60193 1.00007 0.0
C356 C 0.2006 0.66072 0.98431 0.0
N357 N 0.18691 0.68912 0.9382 0.0
C358 C 0.2112 0.66962 0.95401 0.0
C359 C 0.18309 0.66629 0.9914 0.0
C360 C 0.20402 0.68394 0.93096 0.0
C361 C 0.1764 0.68068 0.96771 0.0
C362 C 0.2368 0.61642 0.08133 0.0
C363 C 0.26737 0.61087 0.10115 0.0
N364 N 0.26521 0.62111 0.13717 0.0
C365 C 0.23482 0.62675 0.11875 0.0
C366 C 0.25315 0.60829 0.07261 0.0
C367 C 0.24936 0.62901 0.14649 0.0
C368 C 0.1788 0.62128 0.12059 0.0
N369 N 0.18705 0.63355 0.0951 0.0
C370 C 0.17982 0.65679 0.14504 0.0
C371 C 0.18768 0.65102 0.10651 0.0
C372 C 0.17134 0.64445 0.17233 0.0
C373 C 0.17075 0.62648 0.15956 0.0
H374 H 0.17862 0.60744 0.11081 0.0
H375 H 0.19462 0.66043 0.08603 0.0
C376 C 0.26198 0.64492 0.97427 0.0
N377 N 0.24983 0.64494 0.00701 0.0
C378 C 0.27628 0.65688 0.97487 0.0
C379 C 0.26547 0.66838 0.04316 0.0
C380 C 0.25131 0.65637 0.04102 0.0
C381 C 0.27796 0.66905 0.00929 0.0
H382 H 0.26022 0.63608 0.94693 0.0
H383 H 0.24119 0.65651 0.06593 0.0
C384 C 0.17207 0.607 0.986 0.0
N385 N 0.13832 0.60234 0.95207 0.0
C386 C 0.16974 0.59782 0.94696 0.0
C387 C 0.15723 0.61377 0.00787 0.0
C388 C 0.15258 0.59563 0.9303 0.0
C389 C 0.14028 0.61127 0.99017 0.0
C390 C 0.23338 0.60382 0.928 0.0
C391 C 0.22539 0.59658 0.89101 0.0
C392 C 0.25031 0.59804 0.94051 0.0
C393 C 0.23441 0.5835 0.86743 0.0
C394 C 0.25889 0.58493 0.91609 0.0
N395 N 0.25083 0.57798 0.88038 0.0
C396 C 0.19968 0.63726 0.87677 0.0
C397 C 0.1715 0.63908 0.91091 0.0
C398 C 0.19252 0.64358 0.8379 0.0
N399 N 0.18913 0.63491 0.91217 0.0
C400 C 0.16374 0.64529 0.87256 0.0
C401 C 0.17431 0.64768 0.8354 0.0
H402 H 0.21378 0.63448 0.87888 0.0
H403 H 0.16344 0.63783 0.93971 0.0
C404 C 0.22541 0.56827 0.03366 0.0
N405 N 0.21766 0.57653 0.9992 0.0
C406 C 0.22704 0.54969 0.03446 0.0
C407 C 0.21285 0.54847 0.96421 0.0
C408 C 0.21131 0.567 0.965 0.0
C409 C 0.22075 0.53959 0.99931 0.0
H410 H 0.23006 0.57606 0.06089 0.0
H411 H 0.2048 0.57372 0.93848 0.0
O412 O 0.2072 0.64631 0.00609 0.0
O413 O 0.22278 0.61424 0.05348 0.0
O414 O 0.18872 0.60918 0.00312 0.0
O415 O 0.22469 0.61653 0.95176 0.0
H416 H 0.22476 0.66537 0.94803 0.0
H417 H 0.17467 0.6594 0.01444 0.0
H418 H 0.21202 0.6909 0.90719 0.0
H419 H 0.16283 0.68507 0.9726 0.0
H420 H 0.28013 0.60472 0.0947 0.0
H421 H 0.22225 0.63308 0.12611 0.0
H422 H 0.25483 0.60004 0.04417 0.0
H423 H 0.24806 0.63707 0.17541 0.0
H424 H 0.18072 0.67072 0.1539 0.0
H425 H 0.16413 0.61659 0.17941 0.0
H426 H 0.28555 0.65705 0.94795 0.0
H427 H 0.26642 0.67728 0.07071 0.0
H428 H 0.18108 0.59276 0.92926 0.0
H429 H 0.15879 0.62094 0.03806 0.0
H430 H 0.15059 0.58867 0.89996 0.0
H431 H 0.12868 0.61647 0.00669 0.0
H432 H 0.21223 0.60078 0.88101 0.0
H433 H 0.25675 0.60362 0.96875 0.0
H434 H 0.22833 0.57769 0.83894 0.0
H435 H 0.27197 0.58029 0.92552 0.0
H436 H 0.20122 0.6455 0.81026 0.0
H437 H 0.1496 0.64811 0.87201 0.0
H438 H 0.23311 0.54328 0.06226 0.0
H439 H 0.20748 0.54113 0.93693 0.0
Li440 Li 0.37042 0.22902 0.99931 0.0
Li441 Li 0.37437 0.20037 0.04049 0.0
Li442 Li 0.39974 0.21467 1.00109 0.0
Li443 Li 0.37567 0.20131 0.96194 0.0
C444 C 0.39386 0.23927 0.06661 0.0
N445 N 0.41035 0.26958 0.09771 0.0
C446 C 0.39767 0.24089 0.1108 0.0
C447 C 0.39844 0.25304 0.0382 0.0
C448 C 0.40601 0.25633 0.1259 0.0
C449 C 0.40677 0.26826 0.05456 0.0
C450 C 0.3411 0.20175 0.97569 0.0
C451 C 0.32327 0.17786 0.9464 0.0
N452 N 0.31358 0.18994 0.92349 0.0
C453 C 0.33087 0.21393 0.95211 0.0
C454 C 0.33718 0.18357 0.9731 0.0
C455 C 0.31705 0.20769 0.92584 0.0
C456 C 0.3547 0.25954 0.96153 0.0
N457 N 0.35752 0.25077 0.99949 0.0
C458 C 0.33916 0.27146 0.03779 0.0
C459 C 0.35019 0.25648 0.03732 0.0
C460 C 0.33561 0.28054 0.99889 0.0
C461 C 0.34367 0.27452 0.96047 0.0
H462 H 0.36054 0.25454 0.93188 0.0
H463 H 0.35252 0.24908 0.0669 0.0
C464 C 0.3792 0.18629 0.12487 0.0
N465 N 0.36735 0.18821 0.09184 0.0
C466 C 0.3739 0.17843 0.16394 0.0
C467 C 0.34443 0.17443 0.13385 0.0
C468 C 0.35026 0.18246 0.09555 0.0
C469 C 0.35627 0.17243 0.16883 0.0
H470 H 0.39265 0.19123 0.12115 0.0
H471 H 0.34106 0.18436 0.06898 0.0
C472 C 0.39751 0.22455 0.91442 0.0
N473 N 0.41917 0.22392 0.84199 0.0
C474 C 0.40739 0.20932 0.90454 0.0
C475 C 0.39863 0.23947 0.88745 0.0
C476 C 0.41827 0.20926 0.86779 0.0
C477 C 0.40966 0.23889 0.85098 0.0
C478 C 0.39541 0.17161 0.99775 0.0
C479 C 0.41121 0.1656 0.9787 0.0
C480 C 0.3829 0.15926 0.01267 0.0
C481 C 0.41405 0.14731 0.97411 0.0
C482 C 0.38624 0.14108 0.00751 0.0
N483 N 0.4016 0.13553 0.98845 0.0
C484 C 0.43453 0.20601 0.02634 0.0
C485 C 0.43298 0.23169 0.98173 0.0
C486 C 0.45311 0.207 0.02721 0.0
N487 N 0.42491 0.21812 0.00343 0.0
C488 C 0.45155 0.23311 0.98151 0.0
C489 C 0.46184 0.22052 0.00404 0.0
H490 H 0.42775 0.19538 0.04335 0.0
H491 H 0.42504 0.24127 0.96413 0.0
C492 C 0.36163 0.20045 0.87853 0.0
N493 N 0.36921 0.18956 0.90856 0.0
C494 C 0.35581 0.19368 0.83885 0.0
C495 C 0.36603 0.16457 0.86098 0.0
C496 C 0.37152 0.17189 0.90049 0.0
C497 C 0.35808 0.17552 0.82951 0.0
H498 H 0.35985 0.21443 0.88578 0.0
H499 H 0.37749 0.16337 0.9245 0.0
O500 O 0.38581 0.22418 0.05135 0.0
O501 O 0.35499 0.20758 1.0007 0.0
O502 O 0.3868 0.22498 0.95031 0.0
O503 O 0.39251 0.18947 0.0029 0.0
H504 H 0.39423 0.23031 0.13315 0.0
H505 H 0.39564 0.252 0.00387 0.0
H506 H 0.40904 0.25777 0.16004 0.0
H507 H 0.4104 0.27902 0.03296 0.0
H508 H 0.32021 0.16383 0.94378 0.0
H509 H 0.33366 0.22803 0.95377 0.0
H510 H 0.34496 0.17394 0.99099 0.0
H511 H 0.3091 0.21697 0.90722 0.0
H512 H 0.33292 0.27547 0.06793 0.0
H513 H 0.34121 0.28116 0.92984 0.0
H514 H 0.38334 0.17757 0.19042 0.0
H515 H 0.33074 0.16998 0.13625 0.0
H516 H 0.40663 0.19766 0.92493 0.0
H517 H 0.39109 0.25139 0.89472 0.0
H518 H 0.42598 0.19754 0.85978 0.0
H519 H 0.41067 0.25035 0.82985 0.0
H520 H 0.42119 0.17495 0.96765 0.0
H521 H 0.37071 0.16362 0.02789 0.0
H522 H 0.42617 0.14248 0.95924 0.0
H523 H 0.37662 0.13138 0.01869 0.0
H524 H 0.46059 0.19704 0.04492 0.0
H525 H 0.4578 0.24392 0.96389 0.0
H526 H 0.34929 0.20252 0.81609 0.0
H527 H 0.36802 0.15049 0.85507 0.0
Li528 Li 0.80039 0.37459 0.03897 0.0
Li529 Li 0.77195 0.37033 0.99791 0.0
Li530 Li 0.79961 0.37522 0.9603 0.0
Li531 Li 0.78611 0.39958 0.9984 0.0
C532 C 0.79852 0.34067 0.97561 0.0
N533 N 0.80914 0.31233 0.9246 0.0
C534 C 0.78599 0.3312 0.95126 0.0
C535 C 0.81643 0.3356 0.9744 0.0
C536 C 0.79163 0.31693 0.92562 0.0
C537 C 0.82154 0.32128 0.94826 0.0
C538 C 0.76125 0.39394 0.06351 0.0
C539 C 0.73247 0.40694 0.04928 0.0
N540 N 0.73041 0.41008 0.09245 0.0
C541 C 0.75887 0.3973 0.1077 0.0
C542 C 0.74796 0.39879 0.034 0.0
C543 C 0.74317 0.40548 0.1217 0.0
C544 C 0.8171 0.38036 0.12038 0.0
N545 N 0.81268 0.36786 0.09034 0.0
C546 C 0.8247 0.34471 0.13476 0.0
C547 C 0.81629 0.35032 0.09674 0.0
C548 C 0.82938 0.35728 0.16651 0.0
C549 C 0.82546 0.37532 0.15903 0.0
H550 H 0.81394 0.39421 0.11445 0.0
H551 H 0.8124 0.34065 0.07255 0.0
C552 C 0.73842 0.35799 0.96642 0.0
N553 N 0.7504 0.35715 0.99944 0.0
C554 C 0.72352 0.34682 0.96636 0.0
C555 C 0.73343 0.33445 0.03467 0.0
C556 C 0.74809 0.34587 0.03345 0.0
C557 C 0.72107 0.33461 1.00044 0.0
H558 H 0.74066 0.36705 0.93973 0.0
H559 H 0.75795 0.34543 0.05903 0.0
C560 C 0.8293 0.395 0.99715 0.0
N561 N 0.86559 0.40059 0.9913 0.0
C562 C 0.83586 0.41096 0.98012 0.0
C563 C 0.84119 0.38198 0.01169 0.0
C564 C 0.85426 0.4135 0.97728 0.0
C565 C 0.85949 0.38503 0.00833 0.0
C566 C 0.77715 0.39681 0.91148 0.0
C567 C 0.79256 0.40668 0.90321 0.0
C568 C 0.76285 0.39772 0.88252 0.0
C569 C 0.7934 0.41735 0.86616 0.0
C570 C 0.7642 0.40855 0.84581 0.0
N571 N 0.77932 0.41807 0.83846 0.0
C572 C 0.80097 0.36038 0.87755 0.0
C573 C 0.82932 0.37062 0.90009 0.0
C574 C 0.80808 0.35402 0.8387 0.0
N575 N 0.81163 0.36826 0.90764 0.0
C576 C 0.83697 0.36462 0.86142 0.0
C577 C 0.82635 0.35594 0.8304 0.0
H578 H 0.7869 0.35879 0.88408 0.0
H579 H 0.83761 0.37708 0.92383 0.0
C580 C 0.79403 0.4343 0.02547 0.0
N581 N 0.7827 0.42478 1.00004 0.0
C582 C 0.79312 0.45289 0.02629 0.0
C583 C 0.76879 0.45153 0.97502 0.0
C584 C 0.77 0.43296 0.97563 0.0
C585 C 0.78057 0.46169 1.00025 0.0
H586 H 0.80397 0.42744 0.04461 0.0
H587 H 0.76097 0.42511 0.95617 0.0
O588 O 0.79332 0.35497 1.00003 0.0
O589 O 0.7766 0.38606 0.04935 0.0
O590 O 0.81132 0.39241 1.00058 0.0
O591 O 0.77594 0.38627 0.94763 0.0
H592 H 0.77208 0.33494 0.95169 0.0
H593 H 0.82631 0.34274 0.99304 0.0
H594 H 0.78209 0.30956 0.90639 0.0
H595 H 0.83538 0.31732 0.94672 0.0
H596 H 0.72208 0.41077 0.02681 0.0
H597 H 0.76906 0.39365 0.13091 0.0
H598 H 0.74959 0.39634 0.99966 0.0
H599 H 0.74114 0.40817 0.15583 0.0
H600 H 0.82711 0.33064 0.13974 0.0
H601 H 0.82882 0.38539 0.18285 0.0
H602 H 0.71413 0.34757 0.93975 0.0
H603 H 0.73209 0.32518 0.06139 0.0
H604 H 0.82685 0.42128 0.96924 0.0
H605 H 0.83638 0.36961 0.02517 0.0
H606 H 0.85953 0.42576 0.96401 0.0
H607 H 0.86884 0.37503 0.01926 0.0
H608 H 0.80376 0.40612 0.92507 0.0
H609 H 0.75081 0.39017 0.8884 0.0
H610 H 0.80525 0.42507 0.85942 0.0
H611 H 0.75322 0.4094 0.82317 0.0
H612 H 0.7994 0.34741 0.81571 0.0
H613 H 0.85103 0.36684 0.85582 0.0
H614 H 0.80242 0.46032 0.04614 0.0
H615 H 0.75878 0.4579 0.95501 0.0
Li616 Li 0.62937 0.80066 0.04063 0.0
Li617 Li 0.63161 0.77366 1.0002 0.0
Li618 Li 0.62766 0.80067 0.96112 0.0
Li619 Li 0.60264 0.78763 0.00308 0.0
C620 C 0.6604 0.80766 0.99638 0.0
N621 N 0.68513 0.83492 0.99257 0.0
C622 C 0.67853 0.8038 0.99196 0.0
C623 C 0.65488 0.82542 0.999 0.0
C624 C 0.69081 0.81776 0.99008 0.0
C625 C 0.66758 0.839 0.99695 0.0
C626 C 0.61955 0.76523 0.08207 0.0
C627 C 0.60926 0.74032 0.12458 0.0
N628 N 0.62577 0.73876 0.14237 0.0
C629 C 0.63639 0.76343 0.10084 0.0
C630 C 0.60584 0.75364 0.09403 0.0
C631 C 0.63928 0.74993 0.13124 0.0
C632 C 0.62593 0.82233 0.11642 0.0
N633 N 0.63734 0.81238 0.0922 0.0
C634 C 0.66064 0.8168 0.14398 0.0
C635 C 0.65443 0.8096 0.1051 0.0
C636 C 0.64907 0.82672 0.17037 0.0
C637 C 0.63158 0.82972 0.15584 0.0
H638 H 0.61236 0.82422 0.10555 0.0
H639 H 0.66322 0.80151 0.08557 0.0
C640 C 0.66058 0.75273 0.9779 0.0
N641 N 0.64444 0.75153 0.99757 0.0
C642 C 0.67173 0.73792 0.97538 0.0
C643 C 0.64923 0.72058 0.0122 0.0
C644 C 0.6385 0.73579 0.0141 0.0
C645 C 0.66612 0.72156 0.99273 0.0
H646 H 0.66489 0.7653 0.96448 0.0
H647 H 0.6255 0.735 0.02894 0.0
C648 C 0.59893 0.82358 0.98362 0.0
N649 N 0.5734 0.8446 0.94435 0.0
C650 C 0.59158 0.81851 0.94381 0.0
C651 C 0.59329 0.83932 0.00348 0.0
C652 C 0.57869 0.82932 0.92448 0.0
C653 C 0.58037 0.84978 0.98309 0.0
C654 C 0.61256 0.76072 0.93716 0.0
C655 C 0.62141 0.75468 0.9001 0.0
C656 C 0.60182 0.74896 0.9607 0.0
C657 C 0.61939 0.73695 0.88722 0.0
C658 C 0.60011 0.73135 0.94671 0.0
N659 N 0.60887 0.72575 0.91059 0.0
C660 C 0.64361 0.80298 0.87995 0.0
C661 C 0.63119 0.83053 0.90211 0.0
C662 C 0.64926 0.81044 0.84085 0.0
N663 N 0.63452 0.81295 0.90931 0.0
C664 C 0.6367 0.83858 0.86341 0.0
C665 C 0.6458 0.82845 0.83216 0.0
H666 H 0.64664 0.78925 0.88722 0.0
H667 H 0.62436 0.83835 0.92636 0.0
C668 C 0.56857 0.78931 0.04277 0.0
N669 N 0.57731 0.78527 0.00541 0.0
C670 C 0.54996 0.78855 0.0444 0.0
C671 C 0.54974 0.77938 0.96924 0.0
C672 C 0.56831 0.78044 0.96895 0.0
C673 C 0.54033 0.78346 0.00732 0.0
H674 H 0.57606 0.79331 0.07112 0.0
H675 H 0.57556 0.77765 0.93942 0.0
O676 O 0.64827 0.79404 0.99807 0.0
O677 O 0.61645 0.77824 0.05203 0.0
O678 O 0.6114 0.81312 0.00353 0.0
O679 O 0.61468 0.77791 0.95105 0.0
H680 H 0.68309 0.79015 0.99012 0.0
H681 H 0.64099 0.82878 0.00264 0.0
H682 H 0.70487 0.81494 0.98666 0.0
H683 H 0.66347 0.85279 0.99888 0.0
H684 H 0.5988 0.73122 0.1341 0.0
H685 H 0.64718 0.77216 0.0915 0.0
H686 H 0.59273 0.75489 0.07971 0.0
H687 H 0.65228 0.7483 0.14585 0.0
H688 H 0.67434 0.81452 0.15339 0.0
H689 H 0.62225 0.83731 0.17524 0.0
H690 H 0.68479 0.73938 0.96089 0.0
H691 H 0.64441 0.70819 0.02583 0.0
H692 H 0.5958 0.80639 0.92791 0.0
H693 H 0.59883 0.84339 0.03436 0.0
H694 H 0.57289 0.82556 0.89368 0.0
H695 H 0.57588 0.86201 0.99808 0.0
H696 H 0.62977 0.76353 0.88142 0.0
H697 H 0.59514 0.75328 0.98994 0.0
H698 H 0.6262 0.73209 0.85865 0.0
H699 H 0.59192 0.7221 0.96476 0.0
H700 H 0.6565 0.80228 0.81786 0.0
H701 H 0.63373 0.85251 0.85782 0.0
H702 H 0.54315 0.79185 0.07432 0.0
H703 H 0.54279 0.77579 0.93971 0.0
Li704 Li 0.71292 0.90157 0.50497 0.0
Li705 Li 0.69921 0.87698 0.54009 0.0
Li706 Li 0.72869 0.87193 0.50735 0.0
Li707 Li 0.70102 0.87642 0.46284 0.0
C708 C 0.72128 0.88961 0.59935 0.0
N709 N 0.71736 0.89097 0.68844 0.0
C710 C 0.7137 0.90459 0.61896 0.0
C711 C 0.72698 0.87538 0.62507 0.0
C712 C 0.71185 0.90502 0.66406 0.0
C713 C 0.72482 0.87629 0.67005 0.0
C714 C 0.67218 0.89822 0.51739 0.0
C715 C 0.6421 0.89063 0.53764 0.0
N716 N 0.6402 0.90695 0.55623 0.0
C717 C 0.66992 0.91494 0.53654 0.0
C718 C 0.65815 0.88599 0.5177 0.0
C719 C 0.65364 0.9191 0.55605 0.0
C720 C 0.70686 0.93642 0.47442 0.0
N721 N 0.71635 0.92682 0.50379 0.0
C722 C 0.72933 0.95343 0.53248 0.0
C723 C 0.72764 0.93488 0.53216 0.0
C724 C 0.71959 0.96375 0.50268 0.0
C725 C 0.70835 0.95496 0.47315 0.0
H726 H 0.69797 0.92966 0.45224 0.0
H727 H 0.73509 0.92691 0.55507 0.0
C728 C 0.68697 0.85169 0.60029 0.0
N729 N 0.68586 0.8693 0.59028 0.0
C730 C 0.67957 0.84521 0.63874 0.0
C731 C 0.66965 0.87499 0.65572 0.0
C732 C 0.67729 0.88092 0.61699 0.0
C733 C 0.67103 0.85697 0.66738 0.0
H734 H 0.69415 0.84275 0.57912 0.0
H735 H 0.67691 0.89491 0.6092 0.0
C736 C 0.73151 0.90132 0.43222 0.0
N737 N 0.74439 0.93002 0.38577 0.0
C738 C 0.72238 0.90739 0.39558 0.0
C739 C 0.74721 0.90979 0.4452 0.0
C740 C 0.72912 0.92192 0.37251 0.0
C741 C 0.75348 0.92431 0.42132 0.0
C742 C 0.70198 0.84222 0.48166 0.0
C743 C 0.71447 0.8327 0.45732 0.0
C744 C 0.68413 0.83695 0.48143 0.0
C745 C 0.70882 0.81814 0.43266 0.0
C746 C 0.67901 0.82233 0.45631 0.0
N747 N 0.69135 0.81332 0.43262 0.0
C748 C 0.74998 0.84392 0.53646 0.0
C749 C 0.76453 0.86248 0.48533 0.0
C750 C 0.76453 0.83236 0.53738 0.0
N751 N 0.75019 0.85856 0.51055 0.0
C752 C 0.77941 0.85125 0.48524 0.0
C753 C 0.7794 0.83582 0.51105 0.0
H754 H 0.73822 0.8409 0.55534 0.0
H755 H 0.76424 0.87405 0.46447 0.0
C756 C 0.67282 0.87127 0.40116 0.0
N757 N 0.69048 0.86906 0.40934 0.0
C758 C 0.66539 0.86479 0.36262 0.0
C759 C 0.69452 0.85419 0.34151 0.0
C760 C 0.7014 0.86101 0.38014 0.0
C761 C 0.67627 0.85585 0.33265 0.0
H762 H 0.66446 0.87788 0.42471 0.0
H763 H 0.71544 0.85965 0.38728 0.0
O764 O 0.72284 0.88876 0.55518 0.0
O765 O 0.68796 0.89397 0.49782 0.0
O766 O 0.72486 0.88745 0.45594 0.0
O767 O 0.70712 0.85686 0.5049 0.0
H768 H 0.70895 0.91561 0.59953 0.0
H769 H 0.73282 0.86368 0.61044 0.0
H770 H 0.70588 0.91647 0.67963 0.0
H771 H 0.72904 0.86531 0.69032 0.0
H772 H 0.63116 0.88126 0.53835 0.0
H773 H 0.68064 0.92456 0.53672 0.0
H774 H 0.65968 0.873 0.50305 0.0
H775 H 0.65172 0.93195 0.57117 0.0
H776 H 0.73781 0.9596 0.55656 0.0
H777 H 0.70068 0.96234 0.44943 0.0
H778 H 0.68103 0.83123 0.64668 0.0
H779 H 0.66297 0.88447 0.6766 0.0
H780 H 0.71013 0.90106 0.38533 0.0
H781 H 0.75428 0.90541 0.47387 0.0
H782 H 0.72216 0.92681 0.34417 0.0
H783 H 0.76554 0.93109 0.43115 0.0
H784 H 0.72831 0.83668 0.45686 0.0
H785 H 0.67433 0.84414 0.50022 0.0
H786 H 0.7183 0.81073 0.41338 0.0
H787 H 0.66522 0.81816 0.45559 0.0
H788 H 0.76391 0.8205 0.55735 0.0
H789 H 0.7907 0.8545 0.46485 0.0
H790 H 0.65125 0.86636 0.35674 0.0
H791 H 0.70338 0.84765 0.31881 0.0
Li792 Li 0.10031 0.71392 0.50606 0.0
Li793 Li 0.12628 0.70059 0.5422 0.0
Li794 Li 0.12959 0.72928 0.5001 0.0
Li795 Li 0.12556 0.70057 0.46383 0.0
C796 C 0.10834 0.73654 0.58122 0.0
N797 N 0.0948 0.76139 0.63866 0.0
C798 C 0.10333 0.73142 0.6231 0.0
C799 C 0.10676 0.7544 0.56892 0.0
C800 C 0.09642 0.74414 0.65155 0.0
C801 C 0.09981 0.76673 0.59831 0.0
C802 C 0.10442 0.67368 0.52681 0.0
C803 C 0.1122 0.64449 0.55342 0.0
N804 N 0.09647 0.64376 0.57526 0.0
C805 C 0.08829 0.67259 0.54927 0.0
C806 C 0.11643 0.65948 0.52862 0.0
C807 C 0.08453 0.65736 0.57366 0.0
C808 C 0.06598 0.71297 0.47036 0.0
N809 N 0.07493 0.71666 0.50764 0.0
C810 C 0.04754 0.72266 0.54456 0.0
C811 C 0.06612 0.7214 0.54444 0.0
C812 C 0.03795 0.71889 0.50653 0.0
C813 C 0.0474 0.71397 0.46909 0.0
H814 H 0.0733 0.70909 0.44166 0.0
H815 H 0.07341 0.72389 0.57393 0.0
C816 C 0.15178 0.68572 0.5994 0.0
N817 N 0.13406 0.68868 0.59378 0.0
C818 C 0.15808 0.6783 0.63805 0.0
C819 C 0.1278 0.67701 0.66439 0.0
C820 C 0.12207 0.68432 0.62512 0.0
C821 C 0.14605 0.67414 0.67138 0.0
H822 H 0.16107 0.68951 0.57429 0.0
H823 H 0.10806 0.68682 0.61997 0.0
C824 C 0.10533 0.73745 0.43132 0.0
N825 N 0.09064 0.76607 0.38764 0.0
C826 C 0.10866 0.73985 0.38707 0.0
C827 C 0.09428 0.74945 0.45312 0.0
C828 C 0.1012 0.75445 0.36563 0.0
C829 C 0.08704 0.76387 0.43054 0.0
C830 C 0.15994 0.70235 0.47932 0.0
C831 C 0.17001 0.71439 0.4549 0.0
C832 C 0.16451 0.68431 0.4794 0.0
C833 C 0.18437 0.70811 0.43048 0.0
C834 C 0.17894 0.67855 0.45448 0.0
N835 N 0.18848 0.69047 0.43071 0.0
C836 C 0.15134 0.75587 0.53502 0.0
C837 C 0.14444 0.76051 0.46083 0.0
C838 C 0.16291 0.77043 0.53486 0.0
N839 N 0.14254 0.7511 0.49826 0.0
C840 C 0.15585 0.77519 0.45924 0.0
C841 C 0.16557 0.78007 0.49634 0.0
H842 H 0.14979 0.74797 0.56414 0.0
H843 H 0.13764 0.75626 0.43178 0.0
C844 C 0.12941 0.67073 0.40574 0.0
N845 N 0.13225 0.68845 0.41175 0.0
C846 C 0.13502 0.66244 0.36739 0.0
C847 C 0.14616 0.69082 0.34225 0.0
C848 C 0.14039 0.69852 0.38094 0.0
C849 C 0.14357 0.67254 0.33512 0.0
H850 H 0.12284 0.66304 0.43069 0.0
H851 H 0.14261 0.71255 0.38676 0.0
O852 O 0.11532 0.72424 0.5531 0.0
O853 O 0.10842 0.68855 0.50314 0.0
O854 O 0.11254 0.72319 0.45273 0.0
O855 O 0.14556 0.70817 0.50258 0.0
H856 H 0.10461 0.71775 0.63349 0.0
H857 H 0.11101 0.75879 0.5372 0.0
H858 H 0.09236 0.74031 0.68391 0.0
H859 H 0.09847 0.78057 0.5891 0.0
H860 H 0.12142 0.63345 0.55535 0.0
H861 H 0.07882 0.68343 0.54815 0.0
H862 H 0.12895 0.66008 0.51136 0.0
H863 H 0.07213 0.65638 0.59138 0.0
H864 H 0.04072 0.72613 0.57434 0.0
H865 H 0.04048 0.71095 0.43915 0.0
H866 H 0.17227 0.67635 0.64237 0.0
H867 H 0.1181 0.67374 0.68916 0.0
H868 H 0.11696 0.73058 0.36944 0.0
H869 H 0.09112 0.74756 0.48694 0.0
H870 H 0.10377 0.75652 0.33147 0.0
H871 H 0.07849 0.77326 0.4471 0.0
H872 H 0.16668 0.7284 0.45446 0.0
H873 H 0.15688 0.67483 0.49817 0.0
H874 H 0.19221 0.71726 0.41123 0.0
H875 H 0.18253 0.6646 0.45396 0.0
H876 H 0.17025 0.77369 0.56407 0.0
H877 H 0.15734 0.78243 0.42906 0.0
H878 H 0.13254 0.64836 0.36285 0.0
H879 H 0.15283 0.69905 0.31838 0.0
Li880 Li 0.30143 0.12606 0.5417 0.0
Li881 Li 0.28895 0.10087 0.50512 0.0
Li882 Li 0.30274 0.12721 0.46359 0.0
Li883 Li 0.27389 0.1303 0.50555 0.0
C884 C 0.32909 0.104 0.52286 0.0
N885 N 0.35955 0.09348 0.566 0.0
C886 C 0.32781 0.09391 0.56082 0.0
C887 C 0.34584 0.10862 0.50657 0.0
C888 C 0.34338 0.08877 0.58225 0.0
C889 C 0.36109 0.10319 0.52892 0.0
C890 C 0.26348 0.10541 0.56844 0.0
C891 C 0.23499 0.09223 0.55173 0.0
N892 N 0.23301 0.08764 0.59414 0.0
C893 C 0.26117 0.10056 0.61186 0.0
C894 C 0.25031 0.10119 0.53812 0.0
C895 C 0.24568 0.09159 0.62422 0.0
C896 C 0.30396 0.13474 0.62984 0.0
N897 N 0.31392 0.13329 0.59318 0.0
C898 C 0.33963 0.14414 0.63062 0.0
C899 C 0.33146 0.13784 0.5929 0.0
C900 C 0.32957 0.14608 0.66876 0.0
C901 C 0.31155 0.14112 0.66814 0.0
H902 H 0.28996 0.13139 0.629 0.0
H903 H 0.33902 0.13701 0.56318 0.0
C904 C 0.28615 0.06685 0.46567 0.0
N905 N 0.28627 0.07561 0.50427 0.0
C906 C 0.28499 0.04826 0.46458 0.0
C907 C 0.28415 0.04807 0.54296 0.0
C908 C 0.28531 0.06664 0.54254 0.0
C909 C 0.28399 0.03864 0.50363 0.0
H910 H 0.28724 0.0743 0.43575 0.0
H911 H 0.28569 0.07388 0.57282 0.0
C912 C 0.30059 0.16024 0.52724 0.0
N913 N 0.31289 0.18771 0.5788 0.0
C914 C 0.2896 0.16757 0.55917 0.0
C915 C 0.31779 0.16694 0.5213 0.0
C916 C 0.29608 0.18144 0.58497 0.0
C917 C 0.32377 0.18082 0.54775 0.0
C918 C 0.26846 0.11441 0.41948 0.0
C919 C 0.26984 0.12784 0.38824 0.0
C920 C 0.2562 0.10061 0.41351 0.0
C921 C 0.25868 0.12744 0.352 0.0
C922 C 0.24527 0.10067 0.37682 0.0
N923 N 0.24672 0.11399 0.3471 0.0
C924 C 0.32111 0.12211 0.38384 0.0
C925 C 0.31575 0.15214 0.40364 0.0
C926 C 0.32874 0.12753 0.34457 0.0
N927 N 0.31476 0.13441 0.41223 0.0
C928 C 0.32335 0.15814 0.365 0.0
C929 C 0.32987 0.14579 0.33471 0.0
H930 H 0.31987 0.10808 0.39127 0.0
H931 H 0.31026 0.16162 0.42638 0.0
C932 C 0.2419 0.14475 0.54213 0.0
N933 N 0.25206 0.14363 0.50565 0.0
C934 C 0.22728 0.15625 0.54365 0.0
C935 C 0.23382 0.16535 0.47021 0.0
C936 C 0.2483 0.15368 0.4701 0.0
C937 C 0.22328 0.16697 0.50761 0.0
H938 H 0.24548 0.13725 0.57071 0.0
H939 H 0.257 0.15325 0.4423 0.0
O940 O 0.31404 0.10927 0.50154 0.0
O941 O 0.27876 0.11391 0.55586 0.0
O942 O 0.29466 0.14629 0.50262 0.0
O943 O 0.27954 0.11438 0.45478 0.0
H944 H 0.31493 0.09033 0.57391 0.0
H945 H 0.347 0.1164 0.47713 0.0
H946 H 0.3426 0.08106 0.61185 0.0
H947 H 0.37415 0.10673 0.51684 0.0
H948 H 0.22467 0.08894 0.52858 0.0
H949 H 0.2713 0.10359 0.63572 0.0
H950 H 0.25178 0.10497 0.50459 0.0
H951 H 0.24373 0.08773 0.6577 0.0
H952 H 0.35364 0.14754 0.62984 0.0
H953 H 0.30328 0.14256 0.69672 0.0
H954 H 0.28531 0.04148 0.43359 0.0
H955 H 0.28342 0.04115 0.57375 0.0
H956 H 0.2763 0.16246 0.56437 0.0
H957 H 0.32655 0.16125 0.49711 0.0
H958 H 0.28778 0.18716 0.61001 0.0
H959 H 0.3371 0.18604 0.54379 0.0
H960 H 0.27932 0.13857 0.39211 0.0
H961 H 0.25516 0.08989 0.43684 0.0
H962 H 0.25953 0.13783 0.32776 0.0
H963 H 0.23569 0.09011 0.3719 0.0
H964 H 0.33321 0.11755 0.32168 0.0
H965 H 0.32395 0.17232 0.35869 0.0
H966 H 0.21942 0.15703 0.57304 0.0
H967 H 0.23136 0.1736 0.44201 0.0
Li968 Li 0.87595 0.30181 0.53877 0.0
Li969 Li 0.9011 0.28983 0.50213 0.0
Li970 Li 0.87551 0.30348 0.45937 0.0
Li971 Li 0.873 0.27411 0.49873 0.0
C972 C 0.89325 0.33197 0.51633 0.0
N973 N 0.89461 0.36619 0.54917 0.0
C974 C 0.90195 0.33535 0.55559 0.0
C975 C 0.88528 0.34601 0.49373 0.0
C976 C 0.90246 0.35274 0.57168 0.0
C977 C 0.88611 0.36321 0.51087 0.0
C978 C 0.90121 0.27147 0.57373 0.0
C979 C 0.92234 0.24777 0.58557 0.0
N980 N 0.9295 0.25709 0.61916 0.0
C981 C 0.90871 0.28077 0.60851 0.0
C982 C 0.908 0.25479 0.56228 0.0
C983 C 0.92302 0.27329 0.63103 0.0
C984 C 0.86629 0.3026 0.62665 0.0
N985 N 0.86732 0.31316 0.59089 0.0
C986 C 0.8554 0.33778 0.63076 0.0
C987 C 0.86161 0.33036 0.59203 0.0
C988 C 0.85474 0.32732 0.66851 0.0
C989 C 0.86 0.30941 0.66587 0.0
H990 H 0.87014 0.28876 0.62458 0.0
H991 H 0.8617 0.33832 0.56289 0.0
C992 C 0.93497 0.27757 0.47174 0.0
N993 N 0.92662 0.28748 0.50258 0.0
C994 C 0.95357 0.27624 0.47133 0.0
C995 C 0.95463 0.29526 0.53445 0.0
C996 C 0.93608 0.29632 0.53342 0.0
C997 C 0.96365 0.28513 0.50311 0.0
H998 H 0.92723 0.27092 0.44704 0.0
H999 H 0.92924 0.30423 0.55735 0.0
C1000 C 0.84177 0.29946 0.52042 0.0
N1001 N 0.81262 0.30952 0.56921 0.0
C1002 C 0.83449 0.2877 0.55076 0.0
C1003 C 0.83421 0.3163 0.51473 0.0
C1004 C 0.81976 0.29305 0.57516 0.0
C1005 C 0.81947 0.32114 0.53974 0.0
C1006 C 0.88681 0.26682 0.42085 0.0
C1007 C 0.87681 0.26908 0.38298 0.0
C1008 C 0.89442 0.25025 0.42992 0.0
C1009 C 0.8744 0.25462 0.35506 0.0
C1010 C 0.89169 0.23611 0.40123 0.0
N1011 N 0.88181 0.23856 0.36472 0.0
C1012 C 0.88051 0.32341 0.38194 0.0
C1013 C 0.85063 0.31559 0.39798 0.0
C1014 C 0.87523 0.33129 0.34288 0.0
N1015 N 0.86822 0.31573 0.40838 0.0
C1016 C 0.84476 0.32335 0.35938 0.0
C1017 C 0.85715 0.33113 0.33102 0.0
H1018 H 0.89444 0.32319 0.39096 0.0
H1019 H 0.8412 0.30908 0.4192 0.0
C1020 C 0.86104 0.24077 0.53138 0.0
N1021 N 0.8603 0.25209 0.49696 0.0
C1022 C 0.84992 0.22584 0.53295 0.0
C1023 C 0.83786 0.23423 0.46316 0.0
C1024 C 0.84901 0.24912 0.46322 0.0
C1025 C 0.838 0.2226 0.49875 0.0
H1026 H 0.86974 0.24371 0.55839 0.0
H1027 H 0.84817 0.25867 0.43708 0.0
O1028 O 0.89273 0.31508 0.4997 0.0
O1029 O 0.88737 0.27869 0.55082 0.0
O1030 O 0.85652 0.29466 0.4972 0.0
O1031 O 0.88915 0.28077 0.44884 0.0
H1032 H 0.90787 0.32464 0.57399 0.0
H1033 H 0.87846 0.34365 0.46337 0.0
H1034 H 0.90903 0.35552 0.60218 0.0
H1035 H 0.87997 0.37419 0.49376 0.0
H1036 H 0.92778 0.23491 0.57693 0.0
H1037 H 0.90374 0.29377 0.61759 0.0
H1038 H 0.9023 0.24737 0.53564 0.0
H1039 H 0.92903 0.2804 0.65782 0.0
H1040 H 0.85122 0.35159 0.63118 0.0
H1041 H 0.85901 0.30064 0.69366 0.0
H1042 H 0.95999 0.26865 0.44589 0.0
H1043 H 0.96185 0.30228 0.55962 0.0
H1044 H 0.84029 0.27467 0.55578 0.0
H1045 H 0.83984 0.32564 0.49174 0.0
H1046 H 0.81403 0.28413 0.59894 0.0
H1047 H 0.81354 0.33418 0.53591 0.0
H1048 H 0.87087 0.28181 0.37532 0.0
H1049 H 0.90229 0.2483 0.4589 0.0
H1050 H 0.86662 0.25615 0.32576 0.0
H1051 H 0.89742 0.22319 0.40798 0.0
H1052 H 0.88515 0.33736 0.32211 0.0
H1053 H 0.83074 0.32283 0.35119 0.0
H1054 H 0.85033 0.21715 0.56099 0.0
H1055 H 0.82864 0.23227 0.43655 0.0
Li1056 Li 0.73176 0.13266 0.50159 0.0
Li1057 Li 0.70274 0.12888 0.54594 0.0
Li1058 Li 0.71592 0.10405 0.50393 0.0
Li1059 Li 0.70291 0.12825 0.46664 0.0
C1060 C 0.73547 0.10379 0.5733 0.0
N1061 N 0.75224 0.07476 0.61012 0.0
C1062 C 0.7274 0.09462 0.60748 0.0
C1063 C 0.7521 0.09829 0.55794 0.0
C1064 C 0.73609 0.07995 0.62564 0.0
C1065 C 0.76035 0.08356 0.57698 0.0
C1066 C 0.70194 0.16227 0.48553 0.0
C1067 C 0.67551 0.17958 0.47135 0.0
N1068 N 0.68477 0.18954 0.4422 0.0
C1069 C 0.71124 0.1728 0.45579 0.0
C1070 C 0.68397 0.16577 0.49368 0.0
C1071 C 0.70231 0.18648 0.43408 0.0
C1072 C 0.75888 0.15331 0.463 0.0
N1073 N 0.7537 0.14522 0.50037 0.0
C1074 C 0.77808 0.15826 0.53885 0.0
C1075 C 0.76311 0.14721 0.53774 0.0
C1076 C 0.78316 0.16766 0.50137 0.0
C1077 C 0.7736 0.16471 0.4628 0.0
H1078 H 0.75116 0.15142 0.43371 0.0
H1079 H 0.75869 0.14058 0.56698 0.0
C1080 C 0.68287 0.12452 0.62431 0.0
N1081 N 0.69142 0.13632 0.59809 0.0
C1082 C 0.67556 0.13019 0.66374 0.0
C1083 C 0.68568 0.16005 0.64781 0.0
C1084 C 0.69284 0.15381 0.60891 0.0
C1085 C 0.67717 0.14813 0.67619 0.0
H1086 H 0.68195 0.11068 0.61483 0.0
H1087 H 0.69973 0.16289 0.58745 0.0
C1088 C 0.72632 0.1066 0.41635 0.0
N1089 N 0.72682 0.08603 0.34207 0.0
C1090 C 0.71106 0.09739 0.40339 0.0
C1091 C 0.74182 0.10543 0.39146 0.0
C1092 C 0.71157 0.08705 0.36576 0.0
C1093 C 0.74182 0.09494 0.35403 0.0
C1094 C 0.67333 0.10807 0.50145 0.0
C1095 C 0.66814 0.09291 0.47832 0.0
C1096 C 0.66035 0.11918 0.51942 0.0
C1097 C 0.65002 0.08943 0.47241 0.0
C1098 C 0.64236 0.11524 0.51282 0.0
N1099 N 0.63762 0.10059 0.48958 0.0
C1100 C 0.70683 0.06931 0.52941 0.0
C1101 C 0.73165 0.0703 0.48205 0.0
C1102 C 0.70758 0.05074 0.53073 0.0
N1103 N 0.71869 0.07867 0.50514 0.0
C1104 C 0.73273 0.05171 0.48191 0.0
C1105 C 0.72058 0.04164 0.50652 0.0
H1106 H 0.69671 0.07632 0.54766 0.0
H1107 H 0.74105 0.07802 0.4633 0.0
C1108 C 0.7016 0.14208 0.3831 0.0
N1109 N 0.69067 0.1357 0.4147 0.0
C1110 C 0.69458 0.14848 0.34423 0.0
C1111 C 0.66509 0.14146 0.37047 0.0
C1112 C 0.67269 0.13529 0.40911 0.0
C1113 C 0.6761 0.14832 0.33768 0.0
H1114 H 0.71583 0.14239 0.38839 0.0
H1115 H 0.66417 0.13042 0.43458 0.0
O1116 O 0.72691 0.11775 0.55399 0.0
O1117 O 0.71025 0.14835 0.50586 0.0
O1118 O 0.72617 0.11678 0.45312 0.0
O1119 O 0.69101 0.11157 0.50807 0.0
H1120 H 0.71448 0.09866 0.6195 0.0
H1121 H 0.75842 0.10518 0.53122 0.0
H1122 H 0.72997 0.07265 0.65196 0.0
H1123 H 0.77316 0.07907 0.56527 0.0
H1124 H 0.66157 0.18235 0.47714 0.0
H1125 H 0.72514 0.17031 0.44909 0.0
H1126 H 0.6766 0.15785 0.51676 0.0
H1127 H 0.7093 0.19462 0.41067 0.0
H1128 H 0.78537 0.1597 0.56896 0.0
H1129 H 0.77703 0.17167 0.43317 0.0
H1130 H 0.66907 0.1206 0.68468 0.0
H1131 H 0.68682 0.17406 0.65562 0.0
H1132 H 0.69894 0.09834 0.42205 0.0
H1133 H 0.75374 0.11254 0.40107 0.0
H1134 H 0.69984 0.07985 0.35535 0.0
H1135 H 0.75374 0.09387 0.33449 0.0
H1136 H 0.67797 0.08383 0.46533 0.0
H1137 H 0.66407 0.13073 0.53824 0.0
H1138 H 0.64582 0.07781 0.45436 0.0
H1139 H 0.63218 0.1238 0.52628 0.0
H1140 H 0.69804 0.04355 0.55042 0.0
H1141 H 0.74271 0.04532 0.46193 0.0
H1142 H 0.70352 0.15346 0.31947 0.0
H1143 H 0.65076 0.1412 0.36657 0.0
Li1144 Li 0.86992 0.72981 0.50249 0.0
Li1145 Li 0.8732 0.70049 0.54065 0.0
Li1146 Li 0.8976 0.71459 0.49961 0.0
Li1147 Li 0.87373 0.7026 0.45857 0.0
C1148 C 0.88231 0.73723 0.57969 0.0
N1149 N 0.87441 0.76589 0.63247 0.0
C1150 C 0.86945 0.73559 0.61221 0.0
C1151 C 0.89129 0.75339 0.57429 0.0
C1152 C 0.86562 0.75025 0.6385 0.0
C1153 C 0.88707 0.76774 0.60122 0.0
C1154 C 0.8396 0.70293 0.47887 0.0
C1155 C 0.81995 0.67916 0.4571 0.0
N1156 N 0.81102 0.69071 0.43098 0.0
C1157 C 0.83023 0.71459 0.45188 0.0
C1158 C 0.83444 0.68508 0.4816 0.0
C1159 C 0.8158 0.70814 0.42792 0.0
C1160 C 0.86044 0.76589 0.48163 0.0
N1161 N 0.85651 0.75135 0.50617 0.0
C1162 C 0.83054 0.76564 0.5344 0.0
C1163 C 0.84196 0.75101 0.53237 0.0
C1164 C 0.83401 0.78072 0.5088 0.0
C1165 C 0.84933 0.78084 0.4826 0.0
H1166 H 0.87194 0.76574 0.46059 0.0
H1167 H 0.83899 0.73915 0.55094 0.0
C1168 C 0.87691 0.68027 0.61885 0.0
N1169 N 0.86516 0.68759 0.59041 0.0
C1170 C 0.87082 0.67199 0.65672 0.0
C1171 C 0.84066 0.67902 0.63543 0.0
C1172 C 0.84733 0.68715 0.59805 0.0
C1173 C 0.85246 0.67128 0.66535 0.0
H1174 H 0.89103 0.68116 0.61264 0.0
H1175 H 0.83828 0.69353 0.57564 0.0
C1176 C 0.89787 0.73389 0.42679 0.0
N1177 N 0.92491 0.74931 0.37895 0.0
C1178 C 0.903 0.72648 0.38709 0.0
C1179 C 0.90639 0.74922 0.44196 0.0
C1180 C 0.91672 0.73447 0.36342 0.0
C1181 C 0.92007 0.75679 0.41738 0.0
C1182 C 0.9051 0.68004 0.49199 0.0
C1183 C 0.91012 0.67401 0.45087 0.0
C1184 C 0.91646 0.67733 0.52731 0.0
C1185 C 0.92649 0.66541 0.44574 0.0
C1186 C 0.93275 0.66873 0.52082 0.0
N1187 N 0.93738 0.66299 0.48052 0.0
C1188 C 0.93131 0.7233 0.53681 0.0
C1189 C 0.93292 0.71245 0.46479 0.0
C1190 C 0.94991 0.72439 0.53902 0.0
N1191 N 0.92321 0.71736 0.50008 0.0
C1192 C 0.95147 0.71341 0.46549 0.0
C1193 C 0.96023 0.71938 0.50299 0.0
H1194 H 0.92336 0.72681 0.56477 0.0
H1195 H 0.9263 0.7074 0.43626 0.0
C1196 C 0.86092 0.70254 0.37325 0.0
N1197 N 0.86579 0.69156 0.40624 0.0
C1198 C 0.85512 0.6955 0.33382 0.0
C1199 C 0.85891 0.66591 0.36338 0.0
C1200 C 0.86471 0.67355 0.4023 0.0
C1201 C 0.85425 0.67696 0.32836 0.0
H1202 H 0.86157 0.71682 0.37765 0.0
H1203 H 0.86841 0.66514 0.42934 0.0
O1204 O 0.88593 0.72319 0.55286 0.0
O1205 O 0.85413 0.70883 0.50141 0.0
O1206 O 0.88448 0.72625 0.45045 0.0
O1207 O 0.88922 0.6887 0.49753 0.0
H1208 H 0.86235 0.7232 0.6168 0.0
H1209 H 0.90138 0.75483 0.54953 0.0
H1210 H 0.8556 0.74921 0.6636 0.0
H1211 H 0.89385 0.78035 0.59727 0.0
H1212 H 0.81586 0.66536 0.45869 0.0
H1213 H 0.83418 0.7284 0.44912 0.0
H1214 H 0.84172 0.67586 0.50196 0.0
H1215 H 0.80846 0.71698 0.40675 0.0
H1216 H 0.81879 0.76495 0.55471 0.0
H1217 H 0.85257 0.7923 0.46275 0.0
H1218 H 0.88035 0.66627 0.67912 0.0
H1219 H 0.82645 0.67923 0.64143 0.0
H1220 H 0.89667 0.71454 0.37497 0.0
H1221 H 0.90259 0.75513 0.47254 0.0
H1222 H 0.9209 0.72881 0.3328 0.0
H1223 H 0.92685 0.76859 0.42887 0.0
H1224 H 0.90162 0.67618 0.42305 0.0
H1225 H 0.91294 0.68215 0.55919 0.0
H1226 H 0.93058 0.66076 0.41406 0.0
H1227 H 0.94174 0.66669 0.54779 0.0
H1228 H 0.95612 0.72866 0.56897 0.0
H1229 H 0.95889 0.70941 0.43699 0.0
H1230 H 0.85121 0.70446 0.30798 0.0
H1231 H 0.85829 0.65155 0.36046 0.0
Li1232 Li 0.27252 0.86972 0.50096 0.0
Li1233 Li 0.30146 0.8716 0.54318 0.0
Li1234 Li 0.28854 0.89864 0.50217 0.0
Li1235 Li 0.30014 0.87327 0.46521 0.0
C1236 C 0.26742 0.88574 0.58722 0.0
N1237 N 0.24533 0.88733 0.6589 0.0
C1238 C 0.26819 0.87248 0.619 0.0
C1239 C 0.25558 0.89996 0.5923 0.0
C1240 C 0.25687 0.87347 0.65487 0.0
C1241 C 0.24447 0.90048 0.62864 0.0
C1242 C 0.29699 0.83862 0.47866 0.0
C1243 C 0.31626 0.81382 0.46236 0.0
N1244 N 0.30588 0.80973 0.42757 0.0
C1245 C 0.28646 0.83413 0.44289 0.0
C1246 C 0.31198 0.82837 0.48861 0.0
C1247 C 0.2912 0.8195 0.4174 0.0
C1248 C 0.24064 0.85571 0.46317 0.0
N1249 N 0.25033 0.85695 0.50039 0.0
C1250 C 0.23098 0.83618 0.5357 0.0
C1251 C 0.24579 0.84744 0.53627 0.0
C1252 C 0.22096 0.83441 0.49752 0.0
C1253 C 0.22576 0.84457 0.46112 0.0
H1254 H 0.24482 0.86284 0.43448 0.0
H1255 H 0.2541 0.84796 0.56477 0.0
C1256 C 0.32196 0.87542 0.62042 0.0
N1257 N 0.3131 0.86372 0.59458 0.0
C1258 C 0.32923 0.86974 0.65991 0.0
C1259 C 0.31838 0.84006 0.64482 0.0
C1260 C 0.31135 0.8463 0.60576 0.0
C1261 C 0.32718 0.85191 0.67283 0.0
H1262 H 0.32305 0.88923 0.61078 0.0
H1263 H 0.30406 0.83733 0.58483 0.0
C1264 C 0.26261 0.89531 0.44 0.0
N1265 N 0.23242 0.91435 0.41775 0.0
C1266 C 0.26041 0.90167 0.39768 0.0
C1267 C 0.24945 0.89871 0.47094 0.0
C1268 C 0.24506 0.91126 0.38708 0.0
C1269 C 0.23428 0.90831 0.4591 0.0
C1270 C 0.32907 0.89179 0.4841 0.0
C1271 C 0.32967 0.90257 0.44718 0.0
C1272 C 0.34454 0.88334 0.49864 0.0
C1273 C 0.34576 0.90451 0.42492 0.0
C1274 C 0.36038 0.88565 0.47553 0.0
N1275 N 0.36065 0.89608 0.43943 0.0
C1276 C 0.28579 0.93273 0.54193 0.0
C1277 C 0.2864 0.93292 0.46506 0.0
C1278 C 0.28464 0.95132 0.54285 0.0
N1279 N 0.28652 0.92396 0.50339 0.0
C1280 C 0.28526 0.95149 0.46446 0.0
C1281 C 0.28429 0.96093 0.50372 0.0
H1282 H 0.28621 0.92529 0.57197 0.0
H1283 H 0.28741 0.92566 0.43489 0.0
C1284 C 0.30485 0.86979 0.37502 0.0
N1285 N 0.31274 0.86604 0.41365 0.0
C1286 C 0.31263 0.86425 0.33619 0.0
C1287 C 0.33655 0.85096 0.3774 0.0
C1288 C 0.32836 0.85687 0.41549 0.0
C1289 C 0.32866 0.85467 0.33711 0.0
H1290 H 0.29232 0.8768 0.37439 0.0
H1291 H 0.33432 0.85387 0.44655 0.0
O1292 O 0.27868 0.88518 0.55225 0.0
O1293 O 0.29276 0.85312 0.50342 0.0
O1294 O 0.27782 0.88627 0.45104 0.0
O1295 O 0.31342 0.88953 0.50599 0.0
H1296 H 0.27728 0.86141 0.6158 0.0
H1297 H 0.25496 0.91054 0.56852 0.0
H1298 H 0.25726 0.86322 0.67952 0.0
H1299 H 0.23521 0.91138 0.63285 0.0
H1300 H 0.32788 0.80582 0.4695 0.0
H1301 H 0.27493 0.84204 0.43449 0.0
H1302 H 0.32038 0.83177 0.51591 0.0
H1303 H 0.28325 0.81595 0.38944 0.0
H1304 H 0.22787 0.82834 0.56422 0.0
H1305 H 0.21831 0.84361 0.43111 0.0
H1306 H 0.33592 0.87926 0.68065 0.0
H1307 H 0.31682 0.82614 0.6532 0.0
H1308 H 0.27052 0.89942 0.37331 0.0
H1309 H 0.25079 0.89378 0.50357 0.0
H1310 H 0.24323 0.91628 0.35449 0.0
H1311 H 0.22398 0.91095 0.48278 0.0
H1312 H 0.31778 0.90917 0.43555 0.0
H1313 H 0.34425 0.87497 0.52725 0.0
H1314 H 0.3464 0.9127 0.39608 0.0
H1315 H 0.37245 0.87912 0.48623 0.0
H1316 H 0.28399 0.95812 0.57381 0.0
H1317 H 0.28552 0.95839 0.43362 0.0
H1318 H 0.30593 0.86703 0.30581 0.0
H1319 H 0.34889 0.84353 0.37938 0.0
Li1320 Li 0.12835 0.30291 0.54132 0.0
Li1321 Li 0.13405 0.27405 0.50538 0.0
Li1322 Li 0.12845 0.30084 0.46433 0.0
Li1323 Li 0.10395 0.2885 0.50354 0.0
C1324 C 0.16161 0.30569 0.48509 0.0
N1325 N 0.18686 0.32583 0.44213 0.0
C1326 C 0.17402 0.29745 0.45791 0.0
C1327 C 0.16212 0.32416 0.49068 0.0
C1328 C 0.18665 0.30787 0.4364 0.0
C1329 C 0.17498 0.33411 0.46864 0.0
C1330 C 0.11892 0.27835 0.59828 0.0
C1331 C 0.10616 0.28007 0.66997 0.0
N1332 N 0.12273 0.27859 0.68747 0.0
C1333 C 0.13581 0.27668 0.617 0.0
C1334 C 0.10396 0.27994 0.62495 0.0
C1335 C 0.13746 0.27689 0.66215 0.0
C1336 C 0.12161 0.32329 0.61764 0.0
N1337 N 0.13459 0.31647 0.59175 0.0
C1338 C 0.1571 0.32568 0.64184 0.0
C1339 C 0.15208 0.31764 0.60288 0.0
C1340 C 0.14399 0.33235 0.66989 0.0
C1341 C 0.12604 0.3313 0.6572 0.0
H1342 H 0.1078 0.322 0.60818 0.0
H1343 H 0.16212 0.31177 0.58221 0.0
C1344 C 0.15686 0.24823 0.47052 0.0
N1345 N 0.14718 0.25232 0.50642 0.0
C1346 C 0.16809 0.2334 0.47043 0.0
C1347 C 0.15848 0.22674 0.54349 0.0
C1348 C 0.1474 0.24168 0.54212 0.0
C1349 C 0.16932 0.22271 0.50768 0.0
H1350 H 0.15612 0.25673 0.44224 0.0
H1351 H 0.13919 0.24491 0.56978 0.0
C1352 C 0.09917 0.32291 0.47575 0.0
N1353 N 0.07469 0.34084 0.42502 0.0
C1354 C 0.09325 0.31546 0.43674 0.0
C1355 C 0.09264 0.33946 0.48894 0.0
C1356 C 0.08087 0.32473 0.41157 0.0
C1357 C 0.08027 0.34832 0.46284 0.0
C1358 C 0.11097 0.26095 0.44342 0.0
C1359 C 0.10943 0.25632 0.39968 0.0
C1360 C 0.10558 0.24888 0.4754 0.0
C1361 C 0.10242 0.23969 0.38859 0.0
C1362 C 0.09865 0.23238 0.46297 0.0
N1363 N 0.09722 0.22817 0.4202 0.0
C1364 C 0.14123 0.30147 0.37884 0.0
C1365 C 0.13518 0.33022 0.40702 0.0
C1366 C 0.1474 0.30883 0.34005 0.0
N1367 N 0.1354 0.3122 0.41139 0.0
C1368 C 0.14127 0.33815 0.36876 0.0
C1369 C 0.14765 0.3274 0.33485 0.0
H1370 H 0.14139 0.28719 0.3834 0.0
H1371 H 0.13055 0.33846 0.43351 0.0
C1372 C 0.06937 0.29367 0.53618 0.0
N1373 N 0.07846 0.28554 0.50355 0.0
C1374 C 0.05076 0.29314 0.53727 0.0
C1375 C 0.0511 0.27616 0.47076 0.0
C1376 C 0.06969 0.2771 0.4708 0.0
C1377 C 0.0414 0.28422 0.50435 0.0
H1378 H 0.07659 0.3009 0.5609 0.0
H1379 H 0.07698 0.27149 0.44396 0.0
O1380 O 0.14873 0.29581 0.50529 0.0
O1381 O 0.11712 0.2788 0.55409 0.0
O1382 O 0.11118 0.31409 0.50134 0.0
O1383 O 0.11795 0.27716 0.45452 0.0
H1384 H 0.17383 0.28319 0.45322 0.0
H1385 H 0.15247 0.33077 0.51118 0.0
H1386 H 0.19627 0.30169 0.41506 0.0
H1387 H 0.17544 0.34843 0.47238 0.0
H1388 H 0.0947 0.28137 0.69099 0.0
H1389 H 0.14756 0.27561 0.59681 0.0
H1390 H 0.09079 0.28107 0.61109 0.0
H1391 H 0.15046 0.27582 0.67703 0.0
H1392 H 0.17106 0.32611 0.6507 0.0
H1393 H 0.11557 0.33642 0.67787 0.0
H1394 H 0.17617 0.23068 0.44209 0.0
H1395 H 0.15874 0.21854 0.57241 0.0
H1396 H 0.0981 0.30266 0.42593 0.0
H1397 H 0.09707 0.34538 0.51911 0.0
H1398 H 0.07617 0.31912 0.38134 0.0
H1399 H 0.0751 0.36115 0.47266 0.0
H1400 H 0.11358 0.2655 0.37456 0.0
H1401 H 0.10667 0.25216 0.50942 0.0
H1402 H 0.10112 0.23595 0.35484 0.0
H1403 H 0.0944 0.22293 0.48735 0.0
H1404 H 0.1523 0.30011 0.31473 0.0
H1405 H 0.14099 0.35252 0.36573 0.0
H1406 H 0.04375 0.2997 0.5635 0.0
H1407 H 0.04436 0.26963 0.44406 0.0
C1408 C 0.21458 0.51032 0.03534 0.0
C1409 C 0.22161 0.51982 0.99995 0.0
C1410 C 0.21426 0.49163 0.03554 0.0
C1411 C 0.22105 0.48171 1.00045 0.0
H1412 H 0.20886 0.5174 0.06262 0.0
H1413 H 0.20828 0.48492 0.06302 0.0
S1414 S 0.24263 0.50033 0.90202 0.0
N1415 N 0.23654 0.51801 0.9302 0.0
N1416 N 0.23624 0.4829 0.93079 0.0
C1417 C 0.22858 0.49109 0.96541 0.0
C1418 C 0.2288 0.51012 0.96512 0.0
C1419 C 0.49141 0.22051 0.04181 0.0
C1420 C 0.4816 0.22119 0.00293 0.0
C1421 C 0.5101 0.22039 0.04148 0.0
C1422 C 0.51966 0.22069 0.00224 0.0
H1423 H 0.48456 0.22002 0.07273 0.0
H1424 H 0.51711 0.21962 0.07214 0.0
S1425 S 0.50033 0.22277 0.89162 0.0
N1426 N 0.48286 0.22238 0.92416 0.0
N1427 N 0.51798 0.22218 0.92359 0.0
C1428 C 0.51003 0.22157 0.96317 0.0
C1429 C 0.49101 0.22185 0.96351 0.0
C1430 C 0.77807 0.49125 0.03742 0.0
C1431 C 0.7801 0.48143 0.99888 0.0
C1432 C 0.77809 0.50995 0.03693 0.0
C1433 C 0.78049 0.51942 0.998 0.0
H1434 H 0.77643 0.48442 0.06813 0.0
H1435 H 0.77659 0.51704 0.06732 0.0
S1436 S 0.78632 0.49997 0.88841 0.0
N1437 N 0.78439 0.48253 0.92078 0.0
N1438 N 0.78468 0.51767 0.91999 0.0
C1439 C 0.78247 0.50976 0.95928 0.0
C1440 C 0.78219 0.49076 0.95968 0.0
C1441 C 0.51088 0.79792 0.0222 0.0
C1442 C 0.52055 0.78299 0.00787 0.0
C1443 C 0.49219 0.79808 0.02138 0.0
C1444 C 0.48247 0.78321 0.00676 0.0
H1445 H 0.51783 0.8097 0.03341 0.0
H1446 H 0.48528 0.80989 0.03251 0.0
S1447 S 0.50144 0.74068 0.96667 0.0
N1448 N 0.51901 0.75286 0.97931 0.0
N1449 N 0.4839 0.75315 0.97774 0.0
C1450 C 0.49196 0.76812 0.99283 0.0
C1451 C 0.51099 0.76802 0.9933 0.0
C1452 C 0.70484 0.01225 0.50149 0.0
C1453 C 0.72089 0.02178 0.50579 0.0
C1454 C 0.7046 0.99359 0.50041 0.0
C1455 C 0.72042 0.9836 0.50344 0.0
H1456 H 0.69229 0.01927 0.49852 0.0
H1457 H 0.69185 0.98694 0.49764 0.0
S1458 S 0.76607 0.00204 0.515 0.0
N1459 N 0.75306 0.01975 0.51392 0.0
N1460 N 0.75269 0.9847 0.51003 0.0
C1461 C 0.73661 0.99294 0.50754 0.0
C1462 C 0.73683 0.01198 0.50901 0.0
C1463 C 0.98981 0.70493 0.48938 0.0
C1464 C 0.98005 0.71966 0.50469 0.0
C1465 C 0.00848 0.70483 0.49001 0.0
C1466 C 0.01816 0.71943 0.50618 0.0
H1467 H 0.98295 0.69326 0.47717 0.0
H1468 H 0.01539 0.69313 0.47822 0.0
S1469 S 0.99914 0.76172 0.54759 0.0
N1470 N 0.98157 0.74957 0.53473 0.0
N1471 N 0.01668 0.74929 0.53635 0.0
C1472 C 0.00863 0.73428 0.52143 0.0
C1473 C 0.98959 0.73442 0.52061 0.0
C1474 C 0.29514 0.00917 0.53056 0.0
C1475 C 0.28349 0.01884 0.5036 0.0
C1476 C 0.29518 0.99049 0.5307 0.0
C1477 C 0.28356 0.98073 0.50388 0.0
H1478 H 0.30454 0.01611 0.5512 0.0
H1479 H 0.30462 0.98364 0.55139 0.0
S1480 S 0.24934 0.99964 0.43022 0.0
N1481 N 0.2593 0.01724 0.45132 0.0
N1482 N 0.25935 0.98213 0.4516 0.0
C1483 C 0.27161 0.99022 0.47737 0.0
C1484 C 0.27158 0.00925 0.47722 0.0
C1485 C 0.01207 0.29997 0.50931 0.0
C1486 C 0.0216 0.28399 0.50411 0.0
C1487 C 0.9934 0.30019 0.50872 0.0
C1488 C 0.98348 0.28443 0.50308 0.0
H1489 H 0.01911 0.31246 0.51328 0.0
H1490 H 0.98667 0.31287 0.51223 0.0
S1491 S 0.00211 0.23891 0.49118 0.0
N1492 N 0.01979 0.25191 0.49489 0.0
N1493 N 0.98468 0.25226 0.49428 0.0
C1494 C 0.99287 0.26832 0.4983 0.0
C1495 C 0.01191 0.26812 0.49871 0.0
C1496 C 0.29524 0.30815 0.96764 0.0
C1497 C 0.29555 0.32225 0.99773 0.0
C1498 C 0.30847 0.29499 0.96766 0.0
C1499 C 0.32252 0.29537 0.99785 0.0
H1500 H 0.2844 0.30697 0.94462 0.0
H1501 H 0.3074 0.28413 0.94465 0.0
S1502 S 0.33051 0.33035 0.08054 0.0
N1503 N 0.31184 0.33649 0.05644 0.0
N1504 N 0.33665 0.31164 0.05667 0.0
C1505 C 0.32328 0.30963 0.02735 0.0
C1506 C 0.30983 0.32308 0.02726 0.0
C1507 C 0.6959 0.31874 0.03744 0.0
C1508 C 0.70617 0.32157 0.99985 0.0
C1509 C 0.68266 0.30556 0.03873 0.0
C1510 C 0.67914 0.29477 0.00242 0.0
H1511 H 0.69823 0.32666 0.06625 0.0
H1512 H 0.67522 0.30369 0.0685 0.0
S1513 S 0.70277 0.2962 0.89684 0.0
N1514 N 0.71222 0.31209 0.92585 0.0
N1515 N 0.68724 0.28746 0.92822 0.0
C1516 C 0.68915 0.29758 0.96449 0.0
C1517 C 0.70267 0.31094 0.96321 0.0
C1518 C 0.69433 0.68281 0.03234 0.0
C1519 C 0.70428 0.67813 0.99534 0.0
C1520 C 0.68152 0.69641 0.03081 0.0
C1521 C 0.67827 0.70593 0.99229 0.0
H1522 H 0.69665 0.67609 0.06292 0.0
H1523 H 0.67458 0.69991 0.06041 0.0
S1524 S 0.70003 0.6983 0.88585 0.0
N1525 N 0.70962 0.68383 0.91873 0.0
N1526 N 0.68524 0.70902 0.91565 0.0
C1527 C 0.68769 0.70099 0.95473 0.0
C1528 C 0.70073 0.68717 0.95628 0.0
C1529 C 0.30998 0.67812 0.99925 0.0
C1530 C 0.29227 0.6828 0.00914 0.0
C1531 C 0.32364 0.69092 0.99927 0.0
C1532 C 0.32007 0.70883 0.00946 0.0
H1533 H 0.31335 0.66442 0.99196 0.0
H1534 H 0.33711 0.68677 0.99181 0.0
S1535 S 0.27579 0.72841 0.03287 0.0
N1536 N 0.27179 0.70698 0.02582 0.0
N1537 N 0.29749 0.73086 0.02665 0.0
C1538 C 0.30242 0.71376 0.01852 0.0
C1539 C 0.28852 0.7008 0.01818 0.0
C1540 C 0.81476 0.80282 0.54776 0.0
C1541 C 0.8212 0.79582 0.50843 0.0
C1542 C 0.80161 0.81609 0.5483 0.0
C1543 C 0.79439 0.82288 0.50953 0.0
H1544 H 0.8198 0.79787 0.57841 0.0
H1545 H 0.79692 0.82096 0.57935 0.0
S1546 S 0.80618 0.80852 0.39799 0.0
N1547 N 0.81911 0.79641 0.42974 0.0
N1548 N 0.7944 0.82132 0.43074 0.0
C1549 C 0.80087 0.81616 0.46996 0.0
C1550 C 0.81427 0.80265 0.46942 0.0
C1551 C 0.19312 0.82064 0.52757 0.0
C1552 C 0.2063 0.82116 0.49514 0.0
C1553 C 0.17977 0.80755 0.52727 0.0
C1554 C 0.17913 0.79448 0.49456 0.0
H1555 H 0.19319 0.83039 0.55349 0.0
H1556 H 0.16992 0.80762 0.55294 0.0
S1557 S 0.21128 0.78929 0.40399 0.0
N1558 N 0.21829 0.80707 0.43045 0.0
N1559 N 0.19331 0.78245 0.42998 0.0
C1560 C 0.19224 0.79487 0.46196 0.0
C1561 C 0.20579 0.8082 0.46223 0.0
C1562 C 0.19653 0.18207 0.47548 0.0
C1563 C 0.20891 0.18055 0.50959 0.0
C1564 C 0.18354 0.1955 0.47547 0.0
C1565 C 0.18243 0.20791 0.50958 0.0
H1566 H 0.19696 0.17284 0.44848 0.0
H1567 H 0.17433 0.19623 0.44846 0.0
S1568 S 0.21241 0.21045 0.60508 0.0
N1569 N 0.21967 0.19306 0.57747 0.0
N1570 N 0.19524 0.21823 0.5775 0.0
C1571 C 0.19469 0.20651 0.54391 0.0
C1572 C 0.20793 0.19287 0.5439 0.0
C1573 C 0.82349 0.19531 0.46796 0.0
C1574 C 0.82479 0.20796 0.50143 0.0
C1575 C 0.8103 0.18206 0.46871 0.0
C1576 C 0.79779 0.18109 0.50271 0.0
H1577 H 0.83271 0.19572 0.44093 0.0
H1578 H 0.80984 0.17256 0.44229 0.0
S1579 S 0.79484 0.21206 0.59645 0.0
N1580 N 0.81225 0.21914 0.56868 0.0
N1581 N 0.78717 0.19463 0.56968 0.0
C1582 C 0.79896 0.19377 0.5363 0.0
C1583 C 0.81252 0.20711 0.53573 0.0
C1584 C 0.14889 0.3292 0.25368 0.0
C1585 C 0.15477 0.33541 0.29432 0.0
C1586 C 0.15577 0.3362 0.21495 0.0
C1587 C 0.16894 0.34954 0.2154 0.0
H1588 H 0.13886 0.31885 0.25181 0.0
H1589 H 0.15102 0.33087 0.18441 0.0
S1590 S 0.18873 0.37045 0.31327 0.0
N1591 N 0.17451 0.35568 0.33266 0.0
N1592 N 0.18728 0.369 0.25992 0.0
C1593 C 0.17482 0.35597 0.25581 0.0
C1594 C 0.16776 0.3489 0.29523 0.0
C1595 C 0.65667 0.14491 0.27199 0.0
C1596 C 0.66842 0.15537 0.29678 0.0
C1597 C 0.64991 0.15109 0.23226 0.0
C1598 C 0.65464 0.16796 0.21599 0.0
H1599 H 0.65297 0.13171 0.28296 0.0
H1600 H 0.64118 0.14247 0.21377 0.0
S1601 S 0.68327 0.20129 0.2712 0.0
N1602 N 0.68341 0.1839 0.30398 0.0
N1603 N 0.67061 0.19559 0.22965 0.0
C1604 C 0.66595 0.17875 0.2412 0.0
C1605 C 0.67286 0.17244 0.2815 0.0
C1606 C 0.83472 0.65631 0.28569 0.0
C1607 C 0.84827 0.66924 0.28645 0.0
C1608 C 0.82838 0.64937 0.24634 0.0
C1609 C 0.83539 0.65505 0.20628 0.0
H1610 H 0.82868 0.65182 0.31569 0.0
H1611 H 0.81762 0.63975 0.24728 0.0
S1612 S 0.87236 0.68724 0.19094 0.0
N1613 N 0.86936 0.68654 0.24399 0.0
N1614 N 0.85753 0.67342 0.17009 0.0
C1615 C 0.84928 0.66762 0.2067 0.0
C1616 C 0.8557 0.67472 0.24674 0.0
C1617 C 0.34073 0.82969 0.29213 0.0
C1618 C 0.33663 0.84789 0.29627 0.0
C1619 C 0.3472 0.82273 0.25296 0.0
C1620 C 0.35004 0.83375 0.21668 0.0
H1621 H 0.3385 0.82068 0.31906 0.0
H1622 H 0.35001 0.8086 0.25103 0.0
S1623 S 0.34193 0.88243 0.21121 0.0
N1624 N 0.33631 0.87688 0.26123 0.0
N1625 N 0.34844 0.8638 0.18756 0.0
C1626 C 0.34631 0.85203 0.22065 0.0
C1627 C 0.33958 0.85909 0.26042 0.0
C1628 C 0.16413 0.65256 0.71497 0.0
C1629 C 0.15263 0.66731 0.71364 0.0
C1630 C 0.1709 0.6462 0.75447 0.0
C1631 C 0.16653 0.65444 0.79413 0.0
H1632 H 0.16786 0.64582 0.68525 0.0
H1633 H 0.17958 0.63468 0.75394 0.0
S1634 S 0.13798 0.6944 0.80768 0.0
N1635 N 0.13769 0.69045 0.75498 0.0
N1636 N 0.15064 0.67873 0.82915 0.0
C1637 C 0.15515 0.66933 0.79312 0.0
C1638 C 0.14815 0.67571 0.75292 0.0
C1639 C 0.33457 0.14512 0.74914 0.0
C1640 C 0.33762 0.1535 0.70897 0.0
C1641 C 0.34147 0.15217 0.78777 0.0
C1642 C 0.35164 0.16792 0.78779 0.0
H1643 H 0.32675 0.13301 0.75077 0.0
H1644 H 0.3385 0.14542 0.81798 0.0
S1645 S 0.36373 0.19484 0.69116 0.0
N1646 N 0.35148 0.17844 0.67159 0.0
N1647 N 0.36493 0.19136 0.74397 0.0
C1648 C 0.35501 0.1763 0.74777 0.0
C1649 C 0.34792 0.16915 0.70844 0.0
C1650 C 0.82557 0.35199 0.74959 0.0
C1651 C 0.83417 0.3489 0.78949 0.0
C1652 C 0.83241 0.34516 0.71067 0.0
C1653 C 0.8481 0.3349 0.71008 0.0
H1654 H 0.81346 0.35982 0.74839 0.0
H1655 H 0.82517 0.34768 0.68089 0.0
S1656 S 0.87583 0.32313 0.8056 0.0
N1657 N 0.85916 0.33476 0.826 0.0
N1658 N 0.87235 0.32246 0.75274 0.0
C1659 C 0.85694 0.33187 0.74968 0.0
C1660 C 0.84993 0.33877 0.78934 0.0
C1661 C 0.64777 0.82793 0.75108 0.0
C1662 C 0.65173 0.83647 0.79055 0.0
C1663 C 0.65382 0.83479 0.71141 0.0
C1664 C 0.66409 0.85045 0.70968 0.0
H1665 H 0.63992 0.81582 0.75086 0.0
H1666 H 0.65042 0.82777 0.68184 0.0
S1667 S 0.67907 0.87724 0.80408 0.0
N1668 N 0.66706 0.86107 0.82563 0.0
N1669 N 0.67857 0.87391 0.75114 0.0
C1670 C 0.66817 0.85912 0.74894 0.0
C1671 C 0.66196 0.85215 0.78933 0.0
C1672 C 0.85327 0.66795 0.74637 0.0
C1673 C 0.84566 0.66323 0.70623 0.0
C1674 C 0.84647 0.66126 0.78554 0.0
C1675 C 0.83178 0.64961 0.78607 0.0
H1676 H 0.8643 0.67724 0.7476 0.0
H1677 H 0.85247 0.66561 0.8157 0.0
S1678 S 0.8083 0.63159 0.68964 0.0
N1679 N 0.82351 0.64512 0.66931 0.0
N1680 N 0.81073 0.63257 0.74284 0.0
C1681 C 0.82439 0.64437 0.74611 0.0
C1682 C 0.83132 0.65117 0.70626 0.0
C1683 C 0.35149 0.84928 0.72847 0.0
C1684 C 0.33385 0.84572 0.71568 0.0
C1685 C 0.35816 0.84306 0.76827 0.0
C1686 C 0.34736 0.83326 0.79698 0.0
H1687 H 0.36029 0.85667 0.70722 0.0
H1688 H 0.37185 0.84602 0.77674 0.0
S1689 S 0.30011 0.82071 0.77915 0.0
N1690 N 0.30559 0.83214 0.73539 0.0
N1691 N 0.31817 0.82023 0.80968 0.0
C1692 C 0.32965 0.82976 0.78472 0.0
C1693 C 0.3229 0.83603 0.74421 0.0
C1694 C 0.16246 0.35282 0.71576 0.0
C1695 C 0.14915 0.33968 0.71285 0.0
C1696 C 0.16844 0.35906 0.75615 0.0
C1697 C 0.16151 0.35219 0.79514 0.0
H1698 H 0.16842 0.3582 0.68655 0.0
H1699 H 0.17897 0.36892 0.75686 0.0
S1700 S 0.1262 0.31786 0.80519 0.0
N1701 N 0.12903 0.3202 0.75236 0.0
N1702 N 0.14021 0.33194 0.82825 0.0
C1703 C 0.14798 0.33926 0.79265 0.0
C1704 C 0.1418 0.33303 0.75153 0.0
C1705 C 0.64559 0.1564 0.77084 0.0
C1706 C 0.65556 0.16771 0.79795 0.0
C1707 C 0.65273 0.14991 0.7318 0.0
C1708 C 0.67011 0.15445 0.7186 0.0
H1709 H 0.63204 0.1529 0.77937 0.0
H1710 H 0.64444 0.14161 0.71132 0.0
S1711 S 0.70237 0.18181 0.78101 0.0
N1712 N 0.6841 0.18199 0.81081 0.0
N1713 N 0.69761 0.16966 0.73788 0.0
C1714 C 0.6804 0.16524 0.74631 0.0
C1715 C 0.6731 0.17189 0.78585 0.0
C1716 C 0.83659 0.35039 0.28738 0.0
C1717 C 0.85113 0.33858 0.28883 0.0
C1718 C 0.82998 0.35679 0.24776 0.0
C1719 C 0.83753 0.35144 0.20807 0.0
H1720 H 0.83019 0.35462 0.31714 0.0
H1721 H 0.81855 0.36559 0.24815 0.0
S1722 S 0.87609 0.3211 0.19409 0.0
N1723 N 0.87305 0.32202 0.24711 0.0
N1724 N 0.86073 0.33416 0.17269 0.0
C1725 C 0.85227 0.33989 0.20908 0.0
C1726 C 0.85906 0.33346 0.24942 0.0
C1727 C 0.65213 0.85158 0.22457 0.0
C1728 C 0.65529 0.83372 0.21296 0.0
C1729 C 0.65866 0.85861 0.26371 0.0
C1730 C 0.66865 0.84804 0.29249 0.0
H1731 H 0.64491 0.86031 0.20278 0.0
H1732 H 0.65626 0.87252 0.27102 0.0
S1733 S 0.67874 0.79999 0.28003 0.0
N1734 N 0.66768 0.80524 0.23552 0.0
N1735 N 0.68014 0.81854 0.30856 0.0
C1736 C 0.67142 0.83006 0.28196 0.0
C1737 C 0.6647 0.82288 0.24235 0.0
C1738 C 0.14583 0.67248 0.25405 0.0
C1739 C 0.1498 0.66429 0.29397 0.0
C1740 C 0.15249 0.66572 0.21489 0.0
C1741 C 0.1634 0.65049 0.21404 0.0
H1742 H 0.13758 0.68431 0.25309 0.0
H1743 H 0.14917 0.67256 0.18502 0.0
S1744 S 0.17825 0.62443 0.30974 0.0
N1745 N 0.16557 0.64029 0.33033 0.0
N1746 N 0.17812 0.62756 0.2567 0.0
C1747 C 0.1673 0.64201 0.25366 0.0
C1748 C 0.1605 0.64891 0.29359 0.0
C1749 C 0.32743 0.16491 0.26845 0.0
C1750 C 0.33695 0.15206 0.29227 0.0
C1751 C 0.33374 0.17127 0.2286 0.0
C1752 C 0.34986 0.16507 0.21086 0.0
H1753 H 0.3149 0.17005 0.28059 0.0
H1754 H 0.32601 0.18132 0.21181 0.0
S1755 S 0.37979 0.13131 0.25999 0.0
N1756 N 0.36338 0.1334 0.2953 0.0
N1757 N 0.37505 0.14505 0.21977 0.0
C1758 C 0.35948 0.15214 0.23416 0.0
C1759 C 0.35305 0.14566 0.27488 0.0
loop_
_geom_bond_atom_site_label_1
_geom_bond_atom_site_label_2
_geom_bond_distance
_geom_bond_site_symmetry_2
_ccdc_geom_bond_type
Li0 N17 1.990 . S
Li0 O60 1.956 . S
Li0 O61 1.970 1_554 S
Li0 O62 1.961 1_554 S
Li1 N25 1.990 . S
Li1 O60 1.970 . S
Li1 O61 1.956 1_554 S
Li1 O63 1.961 . S
Li2 N47 1.990 . S
Li2 O60 1.961 1_556 S
Li2 O62 1.956 . S
Li2 O63 1.970 1_556 S
Li3 N53 1.990 . S
Li3 O61 1.961 . S
Li3 O62 1.970 . S
Li3 O63 1.956 1_556 S
C4 C6 1.348 . S
C4 C7 1.356 . S
C4 O60 1.325 . S
N5 C8 1.314 . S
N5 C9 1.279 . S
C6 C4 1.348 . S
C6 C8 1.353 . S
C6 H64 0.929 . S
C7 C4 1.356 . S
C7 C9 1.358 . S
C7 H65 0.930 . S
C8 N5 1.314 . S
C8 C6 1.353 . S
C8 H66 0.930 . S
C9 N5 1.279 . S
C9 C7 1.358 . S
C9 H67 0.930 . S
C10 C13 1.348 1_556 S
C10 C14 1.356 . S
C10 O61 1.325 . S
C11 N12 1.279 1_556 S
C11 C14 1.358 . S
C11 H68 0.930 . S
N12 C11 1.279 1_554 S
N12 C15 1.314 . S
C13 C10 1.348 1_554 S
C13 C15 1.353 . S
C13 H69 0.929 . S
C14 C10 1.356 . S
C14 C11 1.358 . S
C14 H70 0.930 . S
C15 N12 1.314 . S
C15 C13 1.353 . S
C15 H71 0.930 . S
C16 N17 1.314 1_556 S
C16 C21 1.353 . S
C16 H22 0.930 . S
N17 Li0 1.990 . S
N17 C16 1.314 1_554 S
N17 C19 1.279 . S
C18 C19 1.358 . S
C18 C20 1.359 . S
C18 H72 0.930 . S
C19 N17 1.279 . S
C19 C18 1.358 . S
C19 H23 0.930 . S
C20 C18 1.359 . S
C20 C21 1.345 1_554 S
C21 C16 1.353 . S
C21 C20 1.345 1_556 S
C21 H73 0.929 . S
H22 C16 0.930 . S
H23 C19 0.930 . S
C24 N25 1.314 . S
C24 C26 1.353 . S
C24 H30 0.930 . S
N25 Li1 1.990 . S
N25 C24 1.314 . S
N25 C28 1.279 . S
C26 C24 1.353 . S
C26 C29 1.348 . S
C26 H74 0.929 . S
C27 C28 1.358 . S
C27 C29 1.356 . S
C27 H75 0.930 . S
C28 N25 1.279 . S
C28 C27 1.358 . S
C28 H31 0.930 . S
C29 C26 1.348 . S
C29 C27 1.356 . S
H30 C24 0.930 . S
H31 C28 0.930 . S
C32 C34 1.348 . S
C32 C35 1.356 . S
C32 O62 1.325 . S
N33 C36 1.314 . S
N33 C37 1.279 . S
C34 C32 1.348 . S
C34 C36 1.353 . S
C34 H76 0.929 . S
C35 C32 1.356 . S
C35 C37 1.358 . S
C35 H77 0.930 . S
C36 N33 1.314 . S
C36 C34 1.353 . S
C36 H78 0.930 . S
C37 N33 1.279 . S
C37 C35 1.358 . S
C37 H79 0.930 . S
C38 C39 1.347 1_554 S
C38 C40 1.357 . S
C38 O63 1.325 . S
C39 C38 1.347 1_556 S
C39 C41 1.353 . S
C39 H80 0.929 . S
C40 C38 1.357 . S
C40 C42 1.358 . S
C40 H81 0.930 . S
C41 C39 1.353 . S
C41 N43 1.314 . S
C41 H82 0.930 . S
C42 C40 1.358 . S
C42 N43 1.279 1_554 S
C42 H83 0.930 . S
N43 C41 1.314 . S
N43 C42 1.279 1_556 S
C44 C46 1.353 . S
C44 N47 1.314 1_554 S
C44 H50 0.930 . S
C45 N47 1.279 . S
C45 C48 1.358 . S
C45 H51 0.930 . S
C46 C44 1.353 . S
C46 C49 1.345 . S
C46 H84 0.929 . S
N47 Li2 1.990 . S
N47 C44 1.314 1_556 S
N47 C45 1.279 . S
C48 C45 1.358 . S
C48 C49 1.359 1_556 S
C48 H85 0.930 . S
C49 C46 1.345 . S
C49 C48 1.359 1_554 S
H50 C44 0.930 . S
H51 C45 0.930 . S
C52 N53 1.314 . S
C52 C54 1.353 . S
C52 H58 0.930 . S
N53 Li3 1.990 . S
N53 C52 1.314 . S
N53 C56 1.279 . S
C54 C52 1.353 . S
C54 C57 1.348 . S
C54 H86 0.929 . S
C55 C56 1.358 . S
C55 C57 1.356 . S
C55 H87 0.930 . S
C56 N53 1.279 . S
C56 C55 1.358 . S
C56 H59 0.930 . S
C57 C54 1.348 . S
C57 C55 1.356 . S
H58 C52 0.930 . S
H59 C56 0.930 . S
O60 Li0 1.956 . S
O60 Li1 1.970 . S
O60 Li2 1.961 1_554 S
O60 C4 1.325 . S
O61 Li0 1.970 1_556 S
O61 Li1 1.956 1_556 S
O61 Li3 1.961 . S
O61 C10 1.325 . S
O62 Li0 1.961 1_556 S
O62 Li2 1.956 . S
O62 Li3 1.970 . S
O62 C32 1.325 . S
O63 Li1 1.961 . S
O63 Li2 1.970 1_554 S
O63 Li3 1.956 1_554 S
O63 C38 1.325 . S
H64 C6 0.929 . S
H65 C7 0.930 . S
H66 C8 0.930 . S
H67 C9 0.930 . S
H68 C11 0.930 . S
H69 C13 0.929 . S
H70 C14 0.930 . S
H71 C15 0.930 . S
H72 C18 0.930 . S
H73 C21 0.929 . S
H74 C26 0.929 . S
H75 C27 0.930 . S
H76 C34 0.929 . S
H77 C35 0.930 . S
H78 C36 0.930 . S
H79 C37 0.930 . S
H80 C39 0.929 . S
H81 C40 0.930 . S
H82 C41 0.930 . S
H83 C42 0.930 . S
H84 C46 0.929 . S
H85 C48 0.930 . S
H86 C54 0.929 . S
H87 C55 0.930 . S
Li88 N105 1.990 . S
Li88 O148 1.956 . S
Li88 O149 1.970 1_554 S
Li88 O150 1.961 1_554 S
Li89 N113 1.990 . S
Li89 O148 1.970 . S
Li89 O149 1.956 1_554 S
Li89 O151 1.961 . S
Li90 N135 1.990 . S
Li90 O148 1.961 1_556 S
Li90 O150 1.956 . S
Li90 O151 1.970 1_556 S
Li91 N141 1.990 . S
Li91 O149 1.961 . S
Li91 O150 1.970 . S
Li91 O151 1.956 1_556 S
C92 C94 1.348 . S
C92 C95 1.356 . S
C92 O148 1.325 . S
N93 C96 1.314 . S
N93 C97 1.279 . S
C94 C92 1.348 . S
C94 C96 1.353 . S
C94 H152 0.929 . S
C95 C92 1.356 . S
C95 C97 1.358 . S
C95 H153 0.930 . S
C96 N93 1.314 . S
C96 C94 1.353 . S
C96 H154 0.930 . S
C97 N93 1.279 . S
C97 C95 1.358 . S
C97 H155 0.930 . S
C98 C101 1.348 1_556 S
C98 C102 1.356 . S
C98 O149 1.325 . S
C99 N100 1.279 1_556 S
C99 C102 1.358 . S
C99 H156 0.930 . S
N100 C99 1.279 1_554 S
N100 C103 1.314 . S
C101 C98 1.348 1_554 S
C101 C103 1.353 . S
C101 H157 0.929 . S
C102 C98 1.356 . S
C102 C99 1.358 . S
C102 H158 0.930 . S
C103 N100 1.314 . S
C103 C101 1.353 . S
C103 H159 0.930 . S
C104 N105 1.314 1_556 S
C104 C109 1.353 . S
C104 H110 0.930 . S
N105 Li88 1.990 . S
N105 C104 1.314 1_554 S
N105 C107 1.279 . S
C106 C107 1.358 . S
C106 C108 1.359 . S
C106 H160 0.930 . S
C107 N105 1.279 . S
C107 C106 1.358 . S
C107 H111 0.930 . S
C108 C106 1.359 . S
C108 C109 1.345 1_554 S
C109 C104 1.353 . S
C109 C108 1.345 1_556 S
C109 H161 0.929 . S
H110 C104 0.930 . S
H111 C107 0.930 . S
C112 N113 1.314 . S
C112 C114 1.353 . S
C112 H118 0.930 . S
N113 Li89 1.990 . S
N113 C112 1.314 . S
N113 C116 1.279 . S
C114 C112 1.353 . S
C114 C117 1.348 . S
C114 H162 0.929 . S
C115 C116 1.358 . S
C115 C117 1.356 . S
C115 H163 0.930 . S
C116 N113 1.279 . S
C116 C115 1.358 . S
C116 H119 0.930 . S
C117 C114 1.348 . S
C117 C115 1.356 . S
H118 C112 0.930 . S
H119 C116 0.930 . S
C120 C122 1.348 . S
C120 C123 1.356 . S
C120 O150 1.325 . S
N121 C124 1.314 . S
N121 C125 1.279 . S
C122 C120 1.348 . S
C122 C124 1.353 . S
C122 H164 0.929 . S
C123 C120 1.356 . S
C123 C125 1.358 . S
C123 H165 0.930 . S
C124 N121 1.314 . S
C124 C122 1.353 . S
C124 H166 0.930 . S
C125 N121 1.279 . S
C125 C123 1.358 . S
C125 H167 0.930 . S
C126 C127 1.347 1_554 S
C126 C128 1.357 . S
C126 O151 1.325 . S
C127 C126 1.347 1_556 S
C127 C129 1.353 . S
C127 H168 0.929 . S
C128 C126 1.357 . S
C128 C130 1.358 . S
C128 H169 0.930 . S
C129 C127 1.353 . S
C129 N131 1.314 . S
C129 H170 0.930 . S
C130 C128 1.358 . S
C130 N131 1.279 1_554 S
C130 H171 0.930 . S
N131 C129 1.314 . S
N131 C130 1.279 1_556 S
C132 C134 1.353 . S
C132 N135 1.314 1_554 S
C132 H138 0.930 . S
C133 N135 1.279 . S
C133 C136 1.358 . S
C133 H139 0.930 . S
C134 C132 1.353 . S
C134 C137 1.345 . S
C134 H172 0.929 . S
N135 Li90 1.990 . S
N135 C132 1.314 1_556 S
N135 C133 1.279 . S
C136 C133 1.358 . S
C136 C137 1.359 1_556 S
C136 H173 0.930 . S
C137 C134 1.345 . S
C137 C136 1.359 1_554 S
H138 C132 0.930 . S
H139 C133 0.930 . S
C140 N141 1.314 . S
C140 C142 1.353 . S
C140 H146 0.930 . S
N141 Li91 1.990 . S
N141 C140 1.314 . S
N141 C144 1.279 . S
C142 C140 1.353 . S
C142 C145 1.348 . S
C142 H174 0.929 . S
C143 C144 1.358 . S
C143 C145 1.356 . S
C143 H175 0.930 . S
C144 N141 1.279 . S
C144 C143 1.358 . S
C144 H147 0.930 . S
C145 C142 1.348 . S
C145 C143 1.356 . S
H146 C140 0.930 . S
H147 C144 0.930 . S
O148 Li88 1.956 . S
O148 Li89 1.970 . S
O148 Li90 1.961 1_554 S
O148 C92 1.325 . S
O149 Li88 1.970 1_556 S
O149 Li89 1.956 1_556 S
O149 Li91 1.961 . S
O149 C98 1.325 . S
O150 Li88 1.961 1_556 S
O150 Li90 1.956 . S
O150 Li91 1.970 . S
O150 C120 1.325 . S
O151 Li89 1.961 . S
O151 Li90 1.970 1_554 S
O151 Li91 1.956 1_554 S
O151 C126 1.325 . S
H152 C94 0.929 . S
H153 C95 0.930 . S
H154 C96 0.930 . S
H155 C97 0.930 . S
H156 C99 0.930 . S
H157 C101 0.929 . S
H158 C102 0.930 . S
H159 C103 0.930 . S
H160 C106 0.930 . S
H161 C109 0.929 . S
H162 C114 0.929 . S
H163 C115 0.930 . S
H164 C122 0.929 . S
H165 C123 0.930 . S
H166 C124 0.930 . S
H167 C125 0.930 . S
H168 C127 0.929 . S
H169 C128 0.930 . S
H170 C129 0.930 . S
H171 C130 0.930 . S
H172 C134 0.929 . S
H173 C136 0.930 . S
H174 C142 0.929 . S
H175 C143 0.930 . S
Li176 N193 1.990 . S
Li176 O236 1.956 1_554 S
Li176 O237 1.970 . S
Li176 O238 1.961 . S
Li177 N201 1.990 . S
Li177 O236 1.970 1_554 S
Li177 O237 1.956 . S
Li177 O239 1.961 1_554 S
Li178 N223 1.990 . S
Li178 O236 1.961 . S
Li178 O238 1.956 1_556 S
Li178 O239 1.970 . S
Li179 N229 1.990 . S
Li179 O237 1.961 1_556 S
Li179 O238 1.970 1_556 S
Li179 O239 1.956 . S
C180 C182 1.348 1_556 S
C180 C183 1.356 . S
C180 O236 1.325 . S
N181 C184 1.314 . S
N181 C185 1.279 1_554 S
C182 C180 1.348 1_554 S
C182 C184 1.353 . S
C182 H240 0.929 . S
C183 C180 1.356 . S
C183 C185 1.358 . S
C183 H241 0.930 . S
C184 N181 1.314 . S
C184 C182 1.353 . S
C184 H242 0.930 . S
C185 N181 1.279 1_556 S
C185 C183 1.358 . S
C185 H243 0.930 . S
C186 C189 1.348 . S
C186 C190 1.356 . S
C186 O237 1.325 . S
C187 N188 1.279 . S
C187 C190 1.358 . S
C187 H244 0.930 . S
N188 C187 1.279 . S
N188 C191 1.314 . S
C189 C186 1.348 . S
C189 C191 1.353 . S
C189 H245 0.929 . S
C190 C186 1.356 . S
C190 C187 1.358 . S
C190 H246 0.930 . S
C191 N188 1.314 . S
C191 C189 1.353 . S
C191 H247 0.930 . S
C192 N193 1.314 . S
C192 C197 1.353 . S
C192 H198 0.930 . S
N193 Li176 1.990 . S
N193 C192 1.314 . S
N193 C195 1.279 . S
C194 C195 1.358 . S
C194 C196 1.356 . S
C194 H248 0.930 . S
C195 N193 1.279 . S
C195 C194 1.358 . S
C195 H199 0.930 . S
C196 C194 1.356 . S
C196 C197 1.348 . S
C197 C192 1.353 . S
C197 C196 1.348 . S
C197 H249 0.929 . S
H198 C192 0.930 . S
H199 C195 0.930 . S
C200 N201 1.314 1_556 S
C200 C202 1.353 . S
C200 H206 0.930 . S
N201 Li177 1.990 . S
N201 C200 1.314 1_554 S
N201 C204 1.279 . S
C202 C200 1.353 . S
C202 C205 1.345 1_556 S
C202 H250 0.929 . S
C203 C204 1.358 . S
C203 C205 1.359 . S
C203 H251 0.930 . S
C204 N201 1.279 . S
C204 C203 1.358 . S
C204 H207 0.930 . S
C205 C202 1.345 1_554 S
C205 C203 1.359 . S
H206 C200 0.930 . S
H207 C204 0.930 . S
C208 C210 1.347 1_554 S
C208 C211 1.357 . S
C208 O238 1.325 . S
N209 C212 1.314 . S
N209 C213 1.279 1_556 S
C210 C208 1.347 1_556 S
C210 C212 1.353 . S
C210 H252 0.929 . S
C211 C208 1.357 . S
C211 C213 1.358 . S
C211 H253 0.930 . S
C212 N209 1.314 . S
C212 C210 1.353 . S
C212 H254 0.930 . S
C213 N209 1.279 1_554 S
C213 C211 1.358 . S
C213 H255 0.930 . S
C214 C215 1.348 . S
C214 C216 1.356 . S
C214 O239 1.325 . S
C215 C214 1.348 . S
C215 C217 1.353 . S
C215 H256 0.929 . S
C216 C214 1.356 . S
C216 C218 1.358 . S
C216 H257 0.930 . S
C217 C215 1.353 . S
C217 N219 1.314 . S
C217 H258 0.930 . S
C218 C216 1.358 . S
C218 N219 1.279 . S
C218 H259 0.930 . S
N219 C217 1.314 . S
N219 C218 1.279 . S
C220 C222 1.353 . S
C220 N223 1.314 . S
C220 H226 0.930 . S
C221 N223 1.279 . S
C221 C224 1.358 . S
C221 H227 0.930 . S
C222 C220 1.353 . S
C222 C225 1.348 . S
C222 H260 0.929 . S
N223 Li178 1.990 . S
N223 C220 1.314 . S
N223 C221 1.279 . S
C224 C221 1.358 . S
C224 C225 1.356 . S
C224 H261 0.930 . S
C225 C222 1.348 . S
C225 C224 1.356 . S
H226 C220 0.930 . S
H227 C221 0.930 . S
C228 N229 1.314 1_554 S
C228 C230 1.353 . S
C228 H234 0.930 . S
N229 Li179 1.990 . S
N229 C228 1.314 1_556 S
N229 C232 1.279 . S
C230 C228 1.353 . S
C230 C233 1.345 . S
C230 H262 0.929 . S
C231 C232 1.358 . S
C231 C233 1.359 1_556 S
C231 H263 0.930 . S
C232 N229 1.279 . S
C232 C231 1.358 . S
C232 H235 0.930 . S
C233 C230 1.345 . S
C233 C231 1.359 1_554 S
H234 C228 0.930 . S
H235 C232 0.930 . S
O236 Li176 1.956 1_556 S
O236 Li177 1.970 1_556 S
O236 Li178 1.961 . S
O236 C180 1.325 . S
O237 Li176 1.970 . S
O237 Li177 1.956 . S
O237 Li179 1.961 1_554 S
O237 C186 1.325 . S
O238 Li176 1.961 . S
O238 Li178 1.956 1_554 S
O238 Li179 1.970 1_554 S
O238 C208 1.325 . S
O239 Li177 1.961 1_556 S
O239 Li178 1.970 . S
O239 Li179 1.956 . S
O239 C214 1.325 . S
H240 C182 0.929 . S
H241 C183 0.930 . S
H242 C184 0.930 . S
H243 C185 0.930 . S
H244 C187 0.930 . S
H245 C189 0.929 . S
H246 C190 0.930 . S
H247 C191 0.930 . S
H248 C194 0.930 . S
H249 C197 0.929 . S
H250 C202 0.929 . S
H251 C203 0.930 . S
H252 C210 0.929 . S
H253 C211 0.930 . S
H254 C212 0.930 . S
H255 C213 0.930 . S
H256 C215 0.929 . S
H257 C216 0.930 . S
H258 C217 0.930 . S
H259 C218 0.930 . S
H260 C222 0.929 . S
H261 C224 0.930 . S
H262 C230 0.929 . S
H263 C231 0.930 . S
Li264 N281 1.990 . S
Li264 O324 1.956 1_554 S
Li264 O325 1.970 . S
Li264 O326 1.961 . S
Li265 N289 1.990 . S
Li265 O324 1.970 1_554 S
Li265 O325 1.956 . S
Li265 O327 1.961 1_554 S
Li266 N311 1.990 . S
Li266 O324 1.961 . S
Li266 O326 1.956 1_556 S
Li266 O327 1.970 . S
Li267 N317 1.990 . S
Li267 O325 1.961 1_556 S
Li267 O326 1.970 1_556 S
Li267 O327 1.956 . S
C268 C270 1.348 1_556 S
C268 C271 1.356 . S
C268 O324 1.325 . S
N269 C272 1.314 . S
N269 C273 1.279 1_554 S
C270 C268 1.348 1_554 S
C270 C272 1.353 . S
C270 H328 0.929 . S
C271 C268 1.356 . S
C271 C273 1.358 . S
C271 H329 0.930 . S
C272 N269 1.314 . S
C272 C270 1.353 . S
C272 H330 0.930 . S
C273 N269 1.279 1_556 S
C273 C271 1.358 . S
C273 H331 0.930 . S
C274 C277 1.348 . S
C274 C278 1.356 . S
C274 O325 1.325 . S
C275 N276 1.279 . S
C275 C278 1.358 . S
C275 H332 0.930 . S
N276 C275 1.279 . S
N276 C279 1.314 . S
C277 C274 1.348 . S
C277 C279 1.353 . S
C277 H333 0.929 . S
C278 C274 1.356 . S
C278 C275 1.358 . S
C278 H334 0.930 . S
C279 N276 1.314 . S
C279 C277 1.353 . S
C279 H335 0.930 . S
C280 N281 1.314 . S
C280 C285 1.353 . S
C280 H286 0.930 . S
N281 Li264 1.990 . S
N281 C280 1.314 . S
N281 C283 1.279 . S
C282 C283 1.358 . S
C282 C284 1.356 . S
C282 H336 0.930 . S
C283 N281 1.279 . S
C283 C282 1.358 . S
C283 H287 0.930 . S
C284 C282 1.356 . S
C284 C285 1.348 . S
C285 C280 1.353 . S
C285 C284 1.348 . S
C285 H337 0.929 . S
H286 C280 0.930 . S
H287 C283 0.930 . S
C288 N289 1.314 1_556 S
C288 C290 1.353 . S
C288 H294 0.930 . S
N289 Li265 1.990 . S
N289 C288 1.314 1_554 S
N289 C292 1.279 . S
C290 C288 1.353 . S
C290 C293 1.345 1_556 S
C290 H338 0.929 . S
C291 C292 1.358 . S
C291 C293 1.359 . S
C291 H339 0.930 . S
C292 N289 1.279 . S
C292 C291 1.358 . S
C292 H295 0.930 . S
C293 C290 1.345 1_554 S
C293 C291 1.359 . S
H294 C288 0.930 . S
H295 C292 0.930 . S
C296 C298 1.347 1_554 S
C296 C299 1.357 . S
C296 O326 1.325 . S
N297 C300 1.314 . S
N297 C301 1.279 1_556 S
C298 C296 1.347 1_556 S
C298 C300 1.353 . S
C298 H340 0.929 . S
C299 C296 1.357 . S
C299 C301 1.358 . S
C299 H341 0.930 . S
C300 N297 1.314 . S
C300 C298 1.353 . S
C300 H342 0.930 . S
C301 N297 1.279 1_554 S
C301 C299 1.358 . S
C301 H343 0.930 . S
C302 C303 1.348 . S
C302 C304 1.356 . S
C302 O327 1.325 . S
C303 C302 1.348 . S
C303 C305 1.353 . S
C303 H344 0.929 . S
C304 C302 1.356 . S
C304 C306 1.358 . S
C304 H345 0.930 . S
C305 C303 1.353 . S
C305 N307 1.314 . S
C305 H346 0.930 . S
C306 C304 1.358 . S
C306 N307 1.279 . S
C306 H347 0.930 . S
N307 C305 1.314 . S
N307 C306 1.279 . S
C308 C310 1.353 . S
C308 N311 1.314 . S
C308 H314 0.930 . S
C309 N311 1.279 . S
C309 C312 1.358 . S
C309 H315 0.930 . S
C310 C308 1.353 . S
C310 C313 1.348 . S
C310 H348 0.929 . S
N311 Li266 1.990 . S
N311 C308 1.314 . S
N311 C309 1.279 . S
C312 C309 1.358 . S
C312 C313 1.356 . S
C312 H349 0.930 . S
C313 C310 1.348 . S
C313 C312 1.356 . S
H314 C308 0.930 . S
H315 C309 0.930 . S
C316 N317 1.314 1_554 S
C316 C318 1.353 . S
C316 H322 0.930 . S
N317 Li267 1.990 . S
N317 C316 1.314 1_556 S
N317 C320 1.279 . S
C318 C316 1.353 . S
C318 C321 1.345 . S
C318 H350 0.929 . S
C319 C320 1.358 . S
C319 C321 1.359 1_556 S
C319 H351 0.930 . S
C320 N317 1.279 . S
C320 C319 1.358 . S
C320 H323 0.930 . S
C321 C318 1.345 . S
C321 C319 1.359 1_554 S
H322 C316 0.930 . S
H323 C320 0.930 . S
O324 Li264 1.956 1_556 S
O324 Li265 1.970 1_556 S
O324 Li266 1.961 . S
O324 C268 1.325 . S
O325 Li264 1.970 . S
O325 Li265 1.956 . S
O325 Li267 1.961 1_554 S
O325 C274 1.325 . S
O326 Li264 1.961 . S
O326 Li266 1.956 1_554 S
O326 Li267 1.970 1_554 S
O326 C296 1.325 . S
O327 Li265 1.961 1_556 S
O327 Li266 1.970 . S
O327 Li267 1.956 . S
O327 C302 1.325 . S
H328 C270 0.929 . S
H329 C271 0.930 . S
H330 C272 0.930 . S
H331 C273 0.930 . S
H332 C275 0.930 . S
H333 C277 0.929 . S
H334 C278 0.930 . S
H335 C279 0.930 . S
H336 C282 0.930 . S
H337 C285 0.929 . S
H338 C290 0.929 . S
H339 C291 0.930 . S
H340 C298 0.929 . S
H341 C299 0.930 . S
H342 C300 0.930 . S
H343 C301 0.930 . S
H344 C303 0.929 . S
H345 C304 0.930 . S
H346 C305 0.930 . S
H347 C306 0.930 . S
H348 C310 0.929 . S
H349 C312 0.930 . S
H350 C318 0.929 . S
H351 C319 0.930 . S
Li352 N369 1.990 . S
Li352 O412 1.956 1_554 S
Li352 O413 1.970 . S
Li352 O414 1.961 . S
Li353 N377 1.990 . S
Li353 O412 1.970 1_554 S
Li353 O413 1.956 . S
Li353 O415 1.961 1_554 S
Li354 N399 1.990 . S
Li354 O412 1.961 . S
Li354 O414 1.956 1_556 S
Li354 O415 1.970 . S
Li355 N405 1.990 . S
Li355 O413 1.961 1_556 S
Li355 O414 1.970 1_556 S
Li355 O415 1.956 . S
C356 C358 1.348 1_556 S
C356 C359 1.356 . S
C356 O412 1.325 . S
N357 C360 1.314 . S
N357 C361 1.279 1_554 S
C358 C356 1.348 1_554 S
C358 C360 1.353 . S
C358 H416 0.929 . S
C359 C356 1.356 . S
C359 C361 1.358 . S
C359 H417 0.930 . S
C360 N357 1.314 . S
C360 C358 1.353 . S
C360 H418 0.930 . S
C361 N357 1.279 1_556 S
C361 C359 1.358 . S
C361 H419 0.930 . S
C362 C365 1.348 . S
C362 C366 1.356 . S
C362 O413 1.325 . S
C363 N364 1.279 . S
C363 C366 1.358 . S
C363 H420 0.930 . S
N364 C363 1.279 . S
N364 C367 1.314 . S
C365 C362 1.348 . S
C365 C367 1.353 . S
C365 H421 0.929 . S
C366 C362 1.356 . S
C366 C363 1.358 . S
C366 H422 0.930 . S
C367 N364 1.314 . S
C367 C365 1.353 . S
C367 H423 0.930 . S
C368 N369 1.314 . S
C368 C373 1.353 . S
C368 H374 0.930 . S
N369 Li352 1.990 . S
N369 C368 1.314 . S
N369 C371 1.279 . S
C370 C371 1.358 . S
C370 C372 1.356 . S
C370 H424 0.930 . S
C371 N369 1.279 . S
C371 C370 1.358 . S
C371 H375 0.930 . S
C372 C370 1.356 . S
C372 C373 1.348 . S
C373 C368 1.353 . S
C373 C372 1.348 . S
C373 H425 0.929 . S
H374 C368 0.930 . S
H375 C371 0.930 . S
C376 N377 1.314 1_556 S
C376 C378 1.353 . S
C376 H382 0.930 . S
N377 Li353 1.990 . S
N377 C376 1.314 1_554 S
N377 C380 1.279 . S
C378 C376 1.353 . S
C378 C381 1.345 1_556 S
C378 H426 0.929 . S
C379 C380 1.358 . S
C379 C381 1.359 . S
C379 H427 0.930 . S
C380 N377 1.279 . S
C380 C379 1.358 . S
C380 H383 0.930 . S
C381 C378 1.345 1_554 S
C381 C379 1.359 . S
H382 C376 0.930 . S
H383 C380 0.930 . S
C384 C386 1.346 1_554 S
C384 C387 1.357 . S
C384 O414 1.325 . S
N385 C388 1.314 . S
N385 C389 1.279 1_556 S
C386 C384 1.346 1_556 S
C386 C388 1.353 . S
C386 H428 0.929 . S
C387 C384 1.357 . S
C387 C389 1.358 . S
C387 H429 0.930 . S
C388 N385 1.314 . S
C388 C386 1.353 . S
C388 H430 0.930 . S
C389 N385 1.279 1_554 S
C389 C387 1.358 . S
C389 H431 0.930 . S
C390 C391 1.348 . S
C390 C392 1.356 . S
C390 O415 1.325 . S
C391 C390 1.348 . S
C391 C393 1.353 . S
C391 H432 0.929 . S
C392 C390 1.356 . S
C392 C394 1.358 . S
C392 H433 0.930 . S
C393 C391 1.353 . S
C393 N395 1.314 . S
C393 H434 0.930 . S
C394 C392 1.358 . S
C394 N395 1.279 . S
C394 H435 0.930 . S
N395 C393 1.314 . S
N395 C394 1.279 . S
C396 C398 1.353 . S
C396 N399 1.314 . S
C396 H402 0.930 . S
C397 N399 1.279 . S
C397 C400 1.358 . S
C397 H403 0.930 . S
C398 C396 1.353 . S
C398 C401 1.348 . S
C398 H436 0.929 . S
N399 Li354 1.990 . S
N399 C396 1.314 . S
N399 C397 1.279 . S
C400 C397 1.358 . S
C400 C401 1.356 . S
C400 H437 0.930 . S
C401 C398 1.348 . S
C401 C400 1.356 . S
H402 C396 0.930 . S
H403 C397 0.930 . S
C404 N405 1.314 1_554 S
C404 C406 1.353 . S
C404 H410 0.930 . S
N405 Li355 1.990 . S
N405 C404 1.314 1_556 S
N405 C408 1.279 . S
C406 C404 1.353 . S
C406 C409 1.350 1_554 S
C406 H438 0.929 . S
C407 C408 1.358 . S
C407 C409 1.354 . S
C407 H439 0.930 . S
C408 N405 1.279 . S
C408 C407 1.358 . S
C408 H411 0.930 . S
C409 C406 1.350 1_556 S
C409 C407 1.354 . S
H410 C404 0.930 . S
H411 C408 0.930 . S
O412 Li352 1.956 1_556 S
O412 Li353 1.970 1_556 S
O412 Li354 1.961 . S
O412 C356 1.325 . S
O413 Li352 1.970 . S
O413 Li353 1.956 . S
O413 Li355 1.961 1_554 S
O413 C362 1.325 . S
O414 Li352 1.961 . S
O414 Li354 1.956 1_554 S
O414 Li355 1.970 1_554 S
O414 C384 1.325 . S
O415 Li353 1.961 1_556 S
O415 Li354 1.970 . S
O415 Li355 1.956 . S
O415 C390 1.325 . S
H416 C358 0.929 . S
H417 C359 0.930 . S
H418 C360 0.930 . S
H419 C361 0.930 . S
H420 C363 0.930 . S
H421 C365 0.929 . S
H422 C366 0.930 . S
H423 C367 0.930 . S
H424 C370 0.930 . S
H425 C373 0.929 . S
H426 C378 0.929 . S
H427 C379 0.930 . S
H428 C386 0.929 . S
H429 C387 0.930 . S
H430 C388 0.930 . S
H431 C389 0.930 . S
H432 C391 0.929 . S
H433 C392 0.930 . S
H434 C393 0.930 . S
H435 C394 0.930 . S
H436 C398 0.929 . S
H437 C400 0.930 . S
H438 C406 0.929 . S
H439 C407 0.930 . S
Li440 N457 1.990 . S
Li440 O500 1.956 . S
Li440 O501 1.970 1_554 S
Li440 O502 1.961 1_554 S
Li441 N465 1.990 . S
Li441 O500 1.970 . S
Li441 O501 1.956 1_554 S
Li441 O503 1.961 . S
Li442 N487 1.990 . S
Li442 O500 1.961 1_556 S
Li442 O502 1.956 . S
Li442 O503 1.970 1_556 S
Li443 N493 1.990 . S
Li443 O501 1.961 . S
Li443 O502 1.970 . S
Li443 O503 1.956 1_556 S
C444 C446 1.348 . S
C444 C447 1.356 . S
C444 O500 1.325 . S
N445 C448 1.314 . S
N445 C449 1.279 . S
C446 C444 1.348 . S
C446 C448 1.353 . S
C446 H504 0.929 . S
C447 C444 1.356 . S
C447 C449 1.358 . S
C447 H505 0.930 . S
C448 N445 1.314 . S
C448 C446 1.353 . S
C448 H506 0.930 . S
C449 N445 1.279 . S
C449 C447 1.358 . S
C449 H507 0.930 . S
C450 C453 1.348 1_556 S
C450 C454 1.356 . S
C450 O501 1.325 . S
C451 N452 1.279 1_556 S
C451 C454 1.358 . S
C451 H508 0.930 . S
N452 C451 1.279 1_554 S
N452 C455 1.314 . S
C453 C450 1.348 1_554 S
C453 C455 1.353 . S
C453 H509 0.929 . S
C454 C450 1.356 . S
C454 C451 1.358 . S
C454 H510 0.930 . S
C455 N452 1.314 . S
C455 C453 1.353 . S
C455 H511 0.930 . S
C456 N457 1.314 1_556 S
C456 C461 1.353 . S
C456 H462 0.930 . S
N457 Li440 1.990 . S
N457 C456 1.314 1_554 S
N457 C459 1.279 . S
C458 C459 1.358 . S
C458 C460 1.359 . S
C458 H512 0.930 . S
C459 N457 1.279 . S
C459 C458 1.358 . S
C459 H463 0.930 . S
C460 C458 1.359 . S
C460 C461 1.345 1_554 S
C461 C456 1.353 . S
C461 C460 1.345 1_556 S
C461 H513 0.929 . S
H462 C456 0.930 . S
H463 C459 0.930 . S
C464 N465 1.314 . S
C464 C466 1.353 . S
C464 H470 0.930 . S
N465 Li441 1.990 . S
N465 C464 1.314 . S
N465 C468 1.279 . S
C466 C464 1.353 . S
C466 C469 1.348 . S
C466 H514 0.929 . S
C467 C468 1.358 . S
C467 C469 1.356 . S
C467 H515 0.930 . S
C468 N465 1.279 . S
C468 C467 1.358 . S
C468 H471 0.930 . S
C469 C466 1.348 . S
C469 C467 1.356 . S
H470 C464 0.930 . S
H471 C468 0.930 . S
C472 C474 1.348 . S
C472 C475 1.356 . S
C472 O502 1.325 . S
N473 C476 1.314 . S
N473 C477 1.279 . S
C474 C472 1.348 . S
C474 C476 1.353 . S
C474 H516 0.929 . S
C475 C472 1.356 . S
C475 C477 1.358 . S
C475 H517 0.930 . S
C476 N473 1.314 . S
C476 C474 1.353 . S
C476 H518 0.930 . S
C477 N473 1.279 . S
C477 C475 1.358 . S
C477 H519 0.930 . S
C478 C479 1.346 1_554 S
C478 C480 1.357 . S
C478 O503 1.325 . S
C479 C478 1.346 1_556 S
C479 C481 1.353 . S
C479 H520 0.929 . S
C480 C478 1.357 . S
C480 C482 1.358 . S
C480 H521 0.930 . S
C481 C479 1.353 . S
C481 N483 1.314 . S
C481 H522 0.930 . S
C482 C480 1.358 . S
C482 N483 1.279 1_554 S
C482 H523 0.930 . S
N483 C481 1.314 . S
N483 C482 1.279 1_556 S
C484 C486 1.353 . S
C484 N487 1.314 1_554 S
C484 H490 0.930 . S
C485 N487 1.279 . S
C485 C488 1.358 . S
C485 H491 0.930 . S
C486 C484 1.353 . S
C486 C489 1.350 1_554 S
C486 H524 0.929 . S
N487 Li442 1.990 . S
N487 C484 1.314 1_556 S
N487 C485 1.279 . S
C488 C485 1.358 . S
C488 C489 1.354 . S
C488 H525 0.930 . S
C489 C486 1.350 1_556 S
C489 C488 1.354 . S
H490 C484 0.930 . S
H491 C485 0.930 . S
C492 N493 1.314 . S
C492 C494 1.353 . S
C492 H498 0.930 . S
N493 Li443 1.990 . S
N493 C492 1.314 . S
N493 C496 1.279 . S
C494 C492 1.353 . S
C494 C497 1.348 . S
C494 H526 0.929 . S
C495 C496 1.358 . S
C495 C497 1.356 . S
C495 H527 0.930 . S
C496 N493 1.279 . S
C496 C495 1.358 . S
C496 H499 0.930 . S
C497 C494 1.348 . S
C497 C495 1.356 . S
H498 C492 0.930 . S
H499 C496 0.930 . S
O500 Li440 1.956 . S
O500 Li441 1.970 . S
O500 Li442 1.961 1_554 S
O500 C444 1.325 . S
O501 Li440 1.970 1_556 S
O501 Li441 1.956 1_556 S
O501 Li443 1.961 . S
O501 C450 1.325 . S
O502 Li440 1.961 1_556 S
O502 Li442 1.956 . S
O502 Li443 1.970 . S
O502 C472 1.325 . S
O503 Li441 1.961 . S
O503 Li442 1.970 1_554 S
O503 Li443 1.956 1_554 S
O503 C478 1.325 . S
H504 C446 0.929 . S
H505 C447 0.930 . S
H506 C448 0.930 . S
H507 C449 0.930 . S
H508 C451 0.930 . S
H509 C453 0.929 . S
H510 C454 0.930 . S
H511 C455 0.930 . S
H512 C458 0.930 . S
H513 C461 0.929 . S
H514 C466 0.929 . S
H515 C467 0.930 . S
H516 C474 0.929 . S
H517 C475 0.930 . S
H518 C476 0.930 . S
H519 C477 0.930 . S
H520 C479 0.929 . S
H521 C480 0.930 . S
H522 C481 0.930 . S
H523 C482 0.930 . S
H524 C486 0.929 . S
H525 C488 0.930 . S
H526 C494 0.929 . S
H527 C495 0.930 . S
Li528 N545 1.990 . S
Li528 O588 1.956 1_554 S
Li528 O589 1.970 . S
Li528 O590 1.961 . S
Li529 N553 1.990 . S
Li529 O588 1.970 1_554 S
Li529 O589 1.956 . S
Li529 O591 1.961 1_554 S
Li530 N575 1.990 . S
Li530 O588 1.961 . S
Li530 O590 1.956 1_556 S
Li530 O591 1.970 . S
Li531 N581 1.990 . S
Li531 O589 1.961 1_556 S
Li531 O590 1.970 1_556 S
Li531 O591 1.956 . S
C532 C534 1.348 1_556 S
C532 C535 1.356 . S
C532 O588 1.325 . S
N533 C536 1.314 . S
N533 C537 1.279 1_554 S
C534 C532 1.348 1_554 S
C534 C536 1.353 . S
C534 H592 0.929 . S
C535 C532 1.356 . S
C535 C537 1.358 . S
C535 H593 0.930 . S
C536 N533 1.314 . S
C536 C534 1.353 . S
C536 H594 0.930 . S
C537 N533 1.279 1_556 S
C537 C535 1.358 . S
C537 H595 0.930 . S
C538 C541 1.348 . S
C538 C542 1.356 . S
C538 O589 1.325 . S
C539 N540 1.279 . S
C539 C542 1.358 . S
C539 H596 0.930 . S
N540 C539 1.279 . S
N540 C543 1.314 . S
C541 C538 1.348 . S
C541 C543 1.353 . S
C541 H597 0.929 . S
C542 C538 1.356 . S
C542 C539 1.358 . S
C542 H598 0.930 . S
C543 N540 1.314 . S
C543 C541 1.353 . S
C543 H599 0.930 . S
C544 N545 1.314 . S
C544 C549 1.353 . S
C544 H550 0.930 . S
N545 Li528 1.990 . S
N545 C544 1.314 . S
N545 C547 1.279 . S
C546 C547 1.358 . S
C546 C548 1.356 . S
C546 H600 0.930 . S
C547 N545 1.279 . S
C547 C546 1.358 . S
C547 H551 0.930 . S
C548 C546 1.356 . S
C548 C549 1.348 . S
C549 C544 1.353 . S
C549 C548 1.348 . S
C549 H601 0.929 . S
H550 C544 0.930 . S
H551 C547 0.930 . S
C552 N553 1.314 1_556 S
C552 C554 1.353 . S
C552 H558 0.930 . S
N553 Li529 1.990 . S
N553 C552 1.314 1_554 S
N553 C556 1.279 . S
C554 C552 1.353 . S
C554 C557 1.345 1_556 S
C554 H602 0.929 . S
C555 C556 1.358 . S
C555 C557 1.359 . S
C555 H603 0.930 . S
C556 N553 1.279 . S
C556 C555 1.358 . S
C556 H559 0.930 . S
C557 C554 1.345 1_554 S
C557 C555 1.359 . S
H558 C552 0.930 . S
H559 C556 0.930 . S
C560 C562 1.346 1_554 S
C560 C563 1.357 . S
C560 O590 1.325 . S
N561 C564 1.314 . S
N561 C565 1.279 1_556 S
C562 C560 1.346 1_556 S
C562 C564 1.353 . S
C562 H604 0.929 . S
C563 C560 1.357 . S
C563 C565 1.358 . S
C563 H605 0.930 . S
C564 N561 1.314 . S
C564 C562 1.353 . S
C564 H606 0.930 . S
C565 N561 1.279 1_554 S
C565 C563 1.358 . S
C565 H607 0.930 . S
C566 C567 1.348 . S
C566 C568 1.356 . S
C566 O591 1.325 . S
C567 C566 1.348 . S
C567 C569 1.353 . S
C567 H608 0.929 . S
C568 C566 1.356 . S
C568 C570 1.358 . S
C568 H609 0.930 . S
C569 C567 1.353 . S
C569 N571 1.314 . S
C569 H610 0.930 . S
C570 C568 1.358 . S
C570 N571 1.279 . S
C570 H611 0.930 . S
N571 C569 1.314 . S
N571 C570 1.279 . S
C572 C574 1.353 . S
C572 N575 1.314 . S
C572 H578 0.930 . S
C573 N575 1.279 . S
C573 C576 1.358 . S
C573 H579 0.930 . S
C574 C572 1.353 . S
C574 C577 1.348 . S
C574 H612 0.929 . S
N575 Li530 1.990 . S
N575 C572 1.314 . S
N575 C573 1.279 . S
C576 C573 1.358 . S
C576 C577 1.356 . S
C576 H613 0.930 . S
C577 C574 1.348 . S
C577 C576 1.356 . S
H578 C572 0.930 . S
H579 C573 0.930 . S
C580 N581 1.314 1_554 S
C580 C582 1.353 . S
C580 H586 0.930 . S
N581 Li531 1.990 . S
N581 C580 1.314 1_556 S
N581 C584 1.279 . S
C582 C580 1.353 . S
C582 C585 1.350 1_554 S
C582 H614 0.929 . S
C583 C584 1.358 . S
C583 C585 1.354 . S
C583 H615 0.930 . S
C584 N581 1.279 . S
C584 C583 1.358 . S
C584 H587 0.930 . S
C585 C582 1.350 1_556 S
C585 C583 1.354 . S
H586 C580 0.930 . S
H587 C584 0.930 . S
O588 Li528 1.956 1_556 S
O588 Li529 1.970 1_556 S
O588 Li530 1.961 . S
O588 C532 1.325 . S
O589 Li528 1.970 . S
O589 Li529 1.956 . S
O589 Li531 1.961 1_554 S
O589 C538 1.325 . S
O590 Li528 1.961 . S
O590 Li530 1.956 1_554 S
O590 Li531 1.970 1_554 S
O590 C560 1.325 . S
O591 Li529 1.961 1_556 S
O591 Li530 1.970 . S
O591 Li531 1.956 . S
O591 C566 1.325 . S
H592 C534 0.929 . S
H593 C535 0.930 . S
H594 C536 0.930 . S
H595 C537 0.930 . S
H596 C539 0.930 . S
H597 C541 0.929 . S
H598 C542 0.930 . S
H599 C543 0.930 . S
H600 C546 0.930 . S
H601 C549 0.929 . S
H602 C554 0.929 . S
H603 C555 0.930 . S
H604 C562 0.929 . S
H605 C563 0.930 . S
H606 C564 0.930 . S
H607 C565 0.930 . S
H608 C567 0.929 . S
H609 C568 0.930 . S
H610 C569 0.930 . S
H611 C570 0.930 . S
H612 C574 0.929 . S
H613 C576 0.930 . S
H614 C582 0.929 . S
H615 C583 0.930 . S
Li616 N633 1.990 . S
Li616 O676 1.956 1_554 S
Li616 O677 1.970 . S
Li616 O678 1.961 . S
Li617 N641 1.990 . S
Li617 O676 1.970 1_554 S
Li617 O677 1.956 . S
Li617 O679 1.961 1_554 S
Li618 N663 1.990 . S
Li618 O676 1.961 . S
Li618 O678 1.956 1_556 S
Li618 O679 1.970 . S
Li619 N669 1.990 . S
Li619 O677 1.961 1_556 S
Li619 O678 1.970 1_556 S
Li619 O679 1.956 . S
C620 C622 1.348 1_556 S
C620 C623 1.356 . S
C620 O676 1.325 . S
N621 C624 1.314 . S
N621 C625 1.279 1_554 S
C622 C620 1.348 1_554 S
C622 C624 1.353 . S
C622 H680 0.929 . S
C623 C620 1.356 . S
C623 C625 1.358 . S
C623 H681 0.930 . S
C624 N621 1.314 . S
C624 C622 1.353 . S
C624 H682 0.930 . S
C625 N621 1.279 1_556 S
C625 C623 1.358 . S
C625 H683 0.930 . S
C626 C629 1.348 . S
C626 C630 1.356 . S
C626 O677 1.325 . S
C627 N628 1.279 . S
C627 C630 1.358 . S
C627 H684 0.930 . S
N628 C627 1.279 . S
N628 C631 1.314 . S
C629 C626 1.348 . S
C629 C631 1.353 . S
C629 H685 0.929 . S
C630 C626 1.356 . S
C630 C627 1.358 . S
C630 H686 0.930 . S
C631 N628 1.314 . S
C631 C629 1.353 . S
C631 H687 0.930 . S
C632 N633 1.314 . S
C632 C637 1.353 . S
C632 H638 0.930 . S
N633 Li616 1.990 . S
N633 C632 1.314 . S
N633 C635 1.279 . S
C634 C635 1.358 . S
C634 C636 1.356 . S
C634 H688 0.930 . S
C635 N633 1.279 . S
C635 C634 1.358 . S
C635 H639 0.930 . S
C636 C634 1.356 . S
C636 C637 1.348 . S
C637 C632 1.353 . S
C637 C636 1.348 . S
C637 H689 0.929 . S
H638 C632 0.930 . S
H639 C635 0.930 . S
C640 N641 1.314 1_556 S
C640 C642 1.353 . S
C640 H646 0.930 . S
N641 Li617 1.990 . S
N641 C640 1.314 1_554 S
N641 C644 1.279 . S
C642 C640 1.353 . S
C642 C645 1.345 1_556 S
C642 H690 0.929 . S
C643 C644 1.358 . S
C643 C645 1.359 . S
C643 H691 0.930 . S
C644 N641 1.279 . S
C644 C643 1.358 . S
C644 H647 0.930 . S
C645 C642 1.345 1_554 S
C645 C643 1.359 . S
H646 C640 0.930 . S
H647 C644 0.930 . S
C648 C650 1.346 1_554 S
C648 C651 1.357 . S
C648 O678 1.325 . S
N649 C652 1.314 . S
N649 C653 1.279 1_556 S
C650 C648 1.346 1_556 S
C650 C652 1.353 . S
C650 H692 0.929 . S
C651 C648 1.357 . S
C651 C653 1.358 . S
C651 H693 0.930 . S
C652 N649 1.314 . S
C652 C650 1.353 . S
C652 H694 0.930 . S
C653 N649 1.279 1_554 S
C653 C651 1.358 . S
C653 H695 0.930 . S
C654 C655 1.348 . S
C654 C656 1.356 . S
C654 O679 1.325 . S
C655 C654 1.348 . S
C655 C657 1.353 . S
C655 H696 0.929 . S
C656 C654 1.356 . S
C656 C658 1.358 . S
C656 H697 0.930 . S
C657 C655 1.353 . S
C657 N659 1.314 . S
C657 H698 0.930 . S
C658 C656 1.358 . S
C658 N659 1.279 . S
C658 H699 0.930 . S
N659 C657 1.314 . S
N659 C658 1.279 . S
C660 C662 1.353 . S
C660 N663 1.314 . S
C660 H666 0.930 . S
C661 N663 1.279 . S
C661 C664 1.358 . S
C661 H667 0.930 . S
C662 C660 1.353 . S
C662 C665 1.348 . S
C662 H700 0.929 . S
N663 Li618 1.990 . S
N663 C660 1.314 . S
N663 C661 1.279 . S
C664 C661 1.358 . S
C664 C665 1.356 . S
C664 H701 0.930 . S
C665 C662 1.348 . S
C665 C664 1.356 . S
H666 C660 0.930 . S
H667 C661 0.930 . S
C668 N669 1.314 1_554 S
C668 C670 1.353 . S
C668 H674 0.930 . S
N669 Li619 1.990 . S
N669 C668 1.314 1_556 S
N669 C672 1.279 . S
C670 C668 1.353 . S
C670 C673 1.350 1_554 S
C670 H702 0.929 . S
C671 C672 1.358 . S
C671 C673 1.354 . S
C671 H703 0.930 . S
C672 N669 1.279 . S
C672 C671 1.358 . S
C672 H675 0.930 . S
C673 C670 1.350 1_556 S
C673 C671 1.354 . S
H674 C668 0.930 . S
H675 C672 0.930 . S
O676 Li616 1.956 1_556 S
O676 Li617 1.970 1_556 S
O676 Li618 1.961 . S
O676 C620 1.325 . S
O677 Li616 1.970 . S
O677 Li617 1.956 . S
O677 Li619 1.961 1_554 S
O677 C626 1.325 . S
O678 Li616 1.961 . S
O678 Li618 1.956 1_554 S
O678 Li619 1.970 1_554 S
O678 C648 1.325 . S
O679 Li617 1.961 1_556 S
O679 Li618 1.970 . S
O679 Li619 1.956 . S
O679 C654 1.325 . S
H680 C622 0.929 . S
H681 C623 0.930 . S
H682 C624 0.930 . S
H683 C625 0.930 . S
H684 C627 0.930 . S
H685 C629 0.929 . S
H686 C630 0.930 . S
H687 C631 0.930 . S
H688 C634 0.930 . S
H689 C637 0.929 . S
H690 C642 0.929 . S
H691 C643 0.930 . S
H692 C650 0.929 . S
H693 C651 0.930 . S
H694 C652 0.930 . S
H695 C653 0.930 . S
H696 C655 0.929 . S
H697 C656 0.930 . S
H698 C657 0.930 . S
H699 C658 0.930 . S
H700 C662 0.929 . S
H701 C664 0.930 . S
H702 C670 0.929 . S
H703 C671 0.930 . S
Li704 N721 1.990 . S
Li704 O764 1.956 . S
Li704 O765 1.970 . S
Li704 O766 1.961 . S
Li705 N729 1.990 . S
Li705 O764 1.970 . S
Li705 O765 1.956 . S
Li705 O767 1.961 . S
Li706 N751 1.990 . S
Li706 O764 1.961 . S
Li706 O766 1.956 . S
Li706 O767 1.970 . S
Li707 N757 1.990 . S
Li707 O765 1.961 . S
Li707 O766 1.970 . S
Li707 O767 1.956 . S
C708 C710 1.348 . S
C708 C711 1.356 . S
C708 O764 1.325 . S
N709 C712 1.314 . S
N709 C713 1.279 . S
C710 C708 1.348 . S
C710 C712 1.353 . S
C710 H768 0.929 . S
C711 C708 1.356 . S
C711 C713 1.358 . S
C711 H769 0.930 . S
C712 N709 1.314 . S
C712 C710 1.353 . S
C712 H770 0.930 . S
C713 N709 1.279 . S
C713 C711 1.358 . S
C713 H771 0.930 . S
C714 C717 1.348 . S
C714 C718 1.356 . S
C714 O765 1.325 . S
C715 N716 1.279 . S
C715 C718 1.358 . S
C715 H772 0.930 . S
N716 C715 1.279 . S
N716 C719 1.314 . S
C717 C714 1.348 . S
C717 C719 1.353 . S
C717 H773 0.929 . S
C718 C714 1.356 . S
C718 C715 1.358 . S
C718 H774 0.930 . S
C719 N716 1.314 . S
C719 C717 1.353 . S
C719 H775 0.930 . S
C720 N721 1.314 . S
C720 C725 1.353 . S
C720 H726 0.930 . S
N721 Li704 1.990 . S
N721 C720 1.314 . S
N721 C723 1.279 . S
C722 C723 1.358 . S
C722 C724 1.356 . S
C722 H776 0.930 . S
C723 N721 1.279 . S
C723 C722 1.358 . S
C723 H727 0.930 . S
C724 C722 1.356 . S
C724 C725 1.348 . S
C725 C720 1.353 . S
C725 C724 1.348 . S
C725 H777 0.929 . S
H726 C720 0.930 . S
H727 C723 0.930 . S
C728 N729 1.314 . S
C728 C730 1.353 . S
C728 H734 0.930 . S
N729 Li705 1.990 . S
N729 C728 1.314 . S
N729 C732 1.279 . S
C730 C728 1.353 . S
C730 C733 1.348 . S
C730 H778 0.929 . S
C731 C732 1.358 . S
C731 C733 1.356 . S
C731 H779 0.930 . S
C732 N729 1.279 . S
C732 C731 1.358 . S
C732 H735 0.930 . S
C733 C730 1.348 . S
C733 C731 1.356 . S
H734 C728 0.930 . S
H735 C732 0.930 . S
C736 C738 1.348 . S
C736 C739 1.356 . S
C736 O766 1.325 . S
N737 C740 1.314 . S
N737 C741 1.279 . S
C738 C736 1.348 . S
C738 C740 1.353 . S
C738 H780 0.929 . S
C739 C736 1.356 . S
C739 C741 1.358 . S
C739 H781 0.930 . S
C740 N737 1.314 . S
C740 C738 1.353 . S
C740 H782 0.930 . S
C741 N737 1.279 . S
C741 C739 1.358 . S
C741 H783 0.930 . S
C742 C743 1.348 . S
C742 C744 1.356 . S
C742 O767 1.325 . S
C743 C742 1.348 . S
C743 C745 1.353 . S
C743 H784 0.929 . S
C744 C742 1.356 . S
C744 C746 1.358 . S
C744 H785 0.930 . S
C745 C743 1.353 . S
C745 N747 1.314 . S
C745 H786 0.930 . S
C746 C744 1.358 . S
C746 N747 1.279 . S
C746 H787 0.930 . S
N747 C745 1.314 . S
N747 C746 1.279 . S
C748 C750 1.353 . S
C748 N751 1.314 . S
C748 H754 0.930 . S
C749 N751 1.279 . S
C749 C752 1.358 . S
C749 H755 0.930 . S
C750 C748 1.353 . S
C750 C753 1.348 . S
C750 H788 0.929 . S
N751 Li706 1.990 . S
N751 C748 1.314 . S
N751 C749 1.279 . S
C752 C749 1.358 . S
C752 C753 1.356 . S
C752 H789 0.930 . S
C753 C750 1.348 . S
C753 C752 1.356 . S
H754 C748 0.930 . S
H755 C749 0.930 . S
C756 N757 1.314 . S
C756 C758 1.353 . S
C756 H762 0.930 . S
N757 Li707 1.990 . S
N757 C756 1.314 . S
N757 C760 1.279 . S
C758 C756 1.353 . S
C758 C761 1.348 . S
C758 H790 0.929 . S
C759 C760 1.358 . S
C759 C761 1.356 . S
C759 H791 0.930 . S
C760 N757 1.279 . S
C760 C759 1.358 . S
C760 H763 0.930 . S
C761 C758 1.348 . S
C761 C759 1.356 . S
H762 C756 0.930 . S
H763 C760 0.930 . S
O764 Li704 1.956 . S
O764 Li705 1.970 . S
O764 Li706 1.961 . S
O764 C708 1.325 . S
O765 Li704 1.970 . S
O765 Li705 1.956 . S
O765 Li707 1.961 . S
O765 C714 1.325 . S
O766 Li704 1.961 . S
O766 Li706 1.956 . S
O766 Li707 1.970 . S
O766 C736 1.325 . S
O767 Li705 1.961 . S
O767 Li706 1.970 . S
O767 Li707 1.956 . S
O767 C742 1.325 . S
H768 C710 0.929 . S
H769 C711 0.930 . S
H770 C712 0.930 . S
H771 C713 0.930 . S
H772 C715 0.930 . S
H773 C717 0.929 . S
H774 C718 0.930 . S
H775 C719 0.930 . S
H776 C722 0.930 . S
H777 C725 0.929 . S
H778 C730 0.929 . S
H779 C731 0.930 . S
H780 C738 0.929 . S
H781 C739 0.930 . S
H782 C740 0.930 . S
H783 C741 0.930 . S
H784 C743 0.929 . S
H785 C744 0.930 . S
H786 C745 0.930 . S
H787 C746 0.930 . S
H788 C750 0.929 . S
H789 C752 0.930 . S
H790 C758 0.929 . S
H791 C759 0.930 . S
Li792 N809 1.990 . S
Li792 O852 1.956 . S
Li792 O853 1.970 . S
Li792 O854 1.961 . S
Li793 N817 1.990 . S
Li793 O852 1.970 . S
Li793 O853 1.956 . S
Li793 O855 1.961 . S
Li794 N839 1.990 . S
Li794 O852 1.961 . S
Li794 O854 1.956 . S
Li794 O855 1.970 . S
Li795 N845 1.990 . S
Li795 O853 1.961 . S
Li795 O854 1.970 . S
Li795 O855 1.956 . S
C796 C798 1.348 . S
C796 C799 1.356 . S
C796 O852 1.325 . S
N797 C800 1.314 . S
N797 C801 1.279 . S
C798 C796 1.348 . S
C798 C800 1.353 . S
C798 H856 0.929 . S
C799 C796 1.356 . S
C799 C801 1.358 . S
C799 H857 0.930 . S
C800 N797 1.314 . S
C800 C798 1.353 . S
C800 H858 0.930 . S
C801 N797 1.279 . S
C801 C799 1.358 . S
C801 H859 0.930 . S
C802 C805 1.348 . S
C802 C806 1.356 . S
C802 O853 1.325 . S
C803 N804 1.279 . S
C803 C806 1.358 . S
C803 H860 0.930 . S
N804 C803 1.279 . S
N804 C807 1.314 . S
C805 C802 1.348 . S
C805 C807 1.353 . S
C805 H861 0.929 . S
C806 C802 1.356 . S
C806 C803 1.358 . S
C806 H862 0.930 . S
C807 N804 1.314 . S
C807 C805 1.353 . S
C807 H863 0.930 . S
C808 N809 1.314 . S
C808 C813 1.353 . S
C808 H814 0.930 . S
N809 Li792 1.990 . S
N809 C808 1.314 . S
N809 C811 1.279 . S
C810 C811 1.358 . S
C810 C812 1.356 . S
C810 H864 0.930 . S
C811 N809 1.279 . S
C811 C810 1.358 . S
C811 H815 0.930 . S
C812 C810 1.356 . S
C812 C813 1.348 . S
C813 C808 1.353 . S
C813 C812 1.348 . S
C813 H865 0.929 . S
H814 C808 0.930 . S
H815 C811 0.930 . S
C816 N817 1.314 . S
C816 C818 1.353 . S
C816 H822 0.930 . S
N817 Li793 1.990 . S
N817 C816 1.314 . S
N817 C820 1.279 . S
C818 C816 1.353 . S
C818 C821 1.348 . S
C818 H866 0.929 . S
C819 C820 1.358 . S
C819 C821 1.356 . S
C819 H867 0.930 . S
C820 N817 1.279 . S
C820 C819 1.358 . S
C820 H823 0.930 . S
C821 C818 1.348 . S
C821 C819 1.356 . S
H822 C816 0.930 . S
H823 C820 0.930 . S
C824 C826 1.348 . S
C824 C827 1.356 . S
C824 O854 1.325 . S
N825 C828 1.314 . S
N825 C829 1.279 . S
C826 C824 1.348 . S
C826 C828 1.353 . S
C826 H868 0.929 . S
C827 C824 1.356 . S
C827 C829 1.358 . S
C827 H869 0.930 . S
C828 N825 1.314 . S
C828 C826 1.353 . S
C828 H870 0.930 . S
C829 N825 1.279 . S
C829 C827 1.358 . S
C829 H871 0.930 . S
C830 C831 1.348 . S
C830 C832 1.356 . S
C830 O855 1.325 . S
C831 C830 1.348 . S
C831 C833 1.353 . S
C831 H872 0.929 . S
C832 C830 1.356 . S
C832 C834 1.358 . S
C832 H873 0.930 . S
C833 C831 1.353 . S
C833 N835 1.314 . S
C833 H874 0.930 . S
C834 C832 1.358 . S
C834 N835 1.279 . S
C834 H875 0.930 . S
N835 C833 1.314 . S
N835 C834 1.279 . S
C836 C838 1.353 . S
C836 N839 1.314 . S
C836 H842 0.930 . S
C837 N839 1.279 . S
C837 C840 1.358 . S
C837 H843 0.930 . S
C838 C836 1.353 . S
C838 C841 1.348 . S
C838 H876 0.929 . S
N839 Li794 1.990 . S
N839 C836 1.314 . S
N839 C837 1.279 . S
C840 C837 1.358 . S
C840 C841 1.356 . S
C840 H877 0.930 . S
C841 C838 1.348 . S
C841 C840 1.356 . S
H842 C836 0.930 . S
H843 C837 0.930 . S
C844 N845 1.314 . S
C844 C846 1.353 . S
C844 H850 0.930 . S
N845 Li795 1.990 . S
N845 C844 1.314 . S
N845 C848 1.279 . S
C846 C844 1.353 . S
C846 C849 1.348 . S
C846 H878 0.929 . S
C847 C848 1.358 . S
C847 C849 1.356 . S
C847 H879 0.930 . S
C848 N845 1.279 . S
C848 C847 1.358 . S
C848 H851 0.930 . S
C849 C846 1.348 . S
C849 C847 1.356 . S
H850 C844 0.930 . S
H851 C848 0.930 . S
O852 Li792 1.956 . S
O852 Li793 1.970 . S
O852 Li794 1.961 . S
O852 C796 1.325 . S
O853 Li792 1.970 . S
O853 Li793 1.956 . S
O853 Li795 1.961 . S
O853 C802 1.325 . S
O854 Li792 1.961 . S
O854 Li794 1.956 . S
O854 Li795 1.970 . S
O854 C824 1.325 . S
O855 Li793 1.961 . S
O855 Li794 1.970 . S
O855 Li795 1.956 . S
O855 C830 1.325 . S
H856 C798 0.929 . S
H857 C799 0.930 . S
H858 C800 0.930 . S
H859 C801 0.930 . S
H860 C803 0.930 . S
H861 C805 0.929 . S
H862 C806 0.930 . S
H863 C807 0.930 . S
H864 C810 0.930 . S
H865 C813 0.929 . S
H866 C818 0.929 . S
H867 C819 0.930 . S
H868 C826 0.929 . S
H869 C827 0.930 . S
H870 C828 0.930 . S
H871 C829 0.930 . S
H872 C831 0.929 . S
H873 C832 0.930 . S
H874 C833 0.930 . S
H875 C834 0.930 . S
H876 C838 0.929 . S
H877 C840 0.930 . S
H878 C846 0.929 . S
H879 C847 0.930 . S
Li880 N897 1.990 . S
Li880 O940 1.956 . S
Li880 O941 1.970 . S
Li880 O942 1.961 . S
Li881 N905 1.990 . S
Li881 O940 1.970 . S
Li881 O941 1.956 . S
Li881 O943 1.961 . S
Li882 N927 1.990 . S
Li882 O940 1.961 . S
Li882 O942 1.956 . S
Li882 O943 1.970 . S
Li883 N933 1.990 . S
Li883 O941 1.961 . S
Li883 O942 1.970 . S
Li883 O943 1.956 . S
C884 C886 1.348 . S
C884 C887 1.356 . S
C884 O940 1.325 . S
N885 C888 1.314 . S
N885 C889 1.279 . S
C886 C884 1.348 . S
C886 C888 1.353 . S
C886 H944 0.929 . S
C887 C884 1.356 . S
C887 C889 1.358 . S
C887 H945 0.930 . S
C888 N885 1.314 . S
C888 C886 1.353 . S
C888 H946 0.930 . S
C889 N885 1.279 . S
C889 C887 1.358 . S
C889 H947 0.930 . S
C890 C893 1.348 . S
C890 C894 1.356 . S
C890 O941 1.325 . S
C891 N892 1.279 . S
C891 C894 1.358 . S
C891 H948 0.930 . S
N892 C891 1.279 . S
N892 C895 1.314 . S
C893 C890 1.348 . S
C893 C895 1.353 . S
C893 H949 0.929 . S
C894 C890 1.356 . S
C894 C891 1.358 . S
C894 H950 0.930 . S
C895 N892 1.314 . S
C895 C893 1.353 . S
C895 H951 0.930 . S
C896 N897 1.314 . S
C896 C901 1.353 . S
C896 H902 0.930 . S
N897 Li880 1.990 . S
N897 C896 1.314 . S
N897 C899 1.279 . S
C898 C899 1.358 . S
C898 C900 1.356 . S
C898 H952 0.930 . S
C899 N897 1.279 . S
C899 C898 1.358 . S
C899 H903 0.930 . S
C900 C898 1.356 . S
C900 C901 1.348 . S
C901 C896 1.353 . S
C901 C900 1.348 . S
C901 H953 0.929 . S
H902 C896 0.930 . S
H903 C899 0.930 . S
C904 N905 1.314 . S
C904 C906 1.353 . S
C904 H910 0.930 . S
N905 Li881 1.990 . S
N905 C904 1.314 . S
N905 C908 1.279 . S
C906 C904 1.353 . S
C906 C909 1.348 . S
C906 H954 0.929 . S
C907 C908 1.358 . S
C907 C909 1.356 . S
C907 H955 0.930 . S
C908 N905 1.279 . S
C908 C907 1.358 . S
C908 H911 0.930 . S
C909 C906 1.348 . S
C909 C907 1.356 . S
H910 C904 0.930 . S
H911 C908 0.930 . S
C912 C914 1.348 . S
C912 C915 1.356 . S
C912 O942 1.325 . S
N913 C916 1.314 . S
N913 C917 1.279 . S
C914 C912 1.348 . S
C914 C916 1.353 . S
C914 H956 0.929 . S
C915 C912 1.356 . S
C915 C917 1.358 . S
C915 H957 0.930 . S
C916 N913 1.314 . S
C916 C914 1.353 . S
C916 H958 0.930 . S
C917 N913 1.279 . S
C917 C915 1.358 . S
C917 H959 0.930 . S
C918 C919 1.348 . S
C918 C920 1.356 . S
C918 O943 1.325 . S
C919 C918 1.348 . S
C919 C921 1.353 . S
C919 H960 0.929 . S
C920 C918 1.356 . S
C920 C922 1.358 . S
C920 H961 0.930 . S
C921 C919 1.353 . S
C921 N923 1.314 . S
C921 H962 0.930 . S
C922 C920 1.358 . S
C922 N923 1.279 . S
C922 H963 0.930 . S
N923 C921 1.314 . S
N923 C922 1.279 . S
C924 C926 1.353 . S
C924 N927 1.314 . S
C924 H930 0.930 . S
C925 N927 1.279 . S
C925 C928 1.358 . S
C925 H931 0.930 . S
C926 C924 1.353 . S
C926 C929 1.348 . S
C926 H964 0.929 . S
N927 Li882 1.990 . S
N927 C924 1.314 . S
N927 C925 1.279 . S
C928 C925 1.358 . S
C928 C929 1.356 . S
C928 H965 0.930 . S
C929 C926 1.348 . S
C929 C928 1.356 . S
H930 C924 0.930 . S
H931 C925 0.930 . S
C932 N933 1.314 . S
C932 C934 1.353 . S
C932 H938 0.930 . S
N933 Li883 1.990 . S
N933 C932 1.314 . S
N933 C936 1.279 . S
C934 C932 1.353 . S
C934 C937 1.348 . S
C934 H966 0.929 . S
C935 C936 1.358 . S
C935 C937 1.356 . S
C935 H967 0.930 . S
C936 N933 1.279 . S
C936 C935 1.358 . S
C936 H939 0.930 . S
C937 C934 1.348 . S
C937 C935 1.356 . S
H938 C932 0.930 . S
H939 C936 0.930 . S
O940 Li880 1.956 . S
O940 Li881 1.970 . S
O940 Li882 1.961 . S
O940 C884 1.325 . S
O941 Li880 1.970 . S
O941 Li881 1.956 . S
O941 Li883 1.961 . S
O941 C890 1.325 . S
O942 Li880 1.961 . S
O942 Li882 1.956 . S
O942 Li883 1.970 . S
O942 C912 1.325 . S
O943 Li881 1.961 . S
O943 Li882 1.970 . S
O943 Li883 1.956 . S
O943 C918 1.325 . S
H944 C886 0.929 . S
H945 C887 0.930 . S
H946 C888 0.930 . S
H947 C889 0.930 . S
H948 C891 0.930 . S
H949 C893 0.929 . S
H950 C894 0.930 . S
H951 C895 0.930 . S
H952 C898 0.930 . S
H953 C901 0.929 . S
H954 C906 0.929 . S
H955 C907 0.930 . S
H956 C914 0.929 . S
H957 C915 0.930 . S
H958 C916 0.930 . S
H959 C917 0.930 . S
H960 C919 0.929 . S
H961 C920 0.930 . S
H962 C921 0.930 . S
H963 C922 0.930 . S
H964 C926 0.929 . S
H965 C928 0.930 . S
H966 C934 0.929 . S
H967 C935 0.930 . S
Li968 N985 1.990 . S
Li968 O1028 1.956 . S
Li968 O1029 1.970 . S
Li968 O1030 1.961 . S
Li969 N993 1.990 . S
Li969 O1028 1.970 . S
Li969 O1029 1.956 . S
Li969 O1031 1.961 . S
Li970 N1015 1.990 . S
Li970 O1028 1.961 . S
Li970 O1030 1.956 . S
Li970 O1031 1.970 . S
Li971 N1021 1.990 . S
Li971 O1029 1.961 . S
Li971 O1030 1.970 . S
Li971 O1031 1.956 . S
C972 C974 1.348 . S
C972 C975 1.356 . S
C972 O1028 1.325 . S
N973 C976 1.314 . S
N973 C977 1.279 . S
C974 C972 1.348 . S
C974 C976 1.353 . S
C974 H1032 0.929 . S
C975 C972 1.356 . S
C975 C977 1.358 . S
C975 H1033 0.930 . S
C976 N973 1.314 . S
C976 C974 1.353 . S
C976 H1034 0.930 . S
C977 N973 1.279 . S
C977 C975 1.358 . S
C977 H1035 0.930 . S
C978 C981 1.348 . S
C978 C982 1.356 . S
C978 O1029 1.325 . S
C979 N980 1.279 . S
C979 C982 1.358 . S
C979 H1036 0.930 . S
N980 C979 1.279 . S
N980 C983 1.314 . S
C981 C978 1.348 . S
C981 C983 1.353 . S
C981 H1037 0.929 . S
C982 C978 1.356 . S
C982 C979 1.358 . S
C982 H1038 0.930 . S
C983 N980 1.314 . S
C983 C981 1.353 . S
C983 H1039 0.930 . S
C984 N985 1.314 . S
C984 C989 1.353 . S
C984 H990 0.930 . S
N985 Li968 1.990 . S
N985 C984 1.314 . S
N985 C987 1.279 . S
C986 C987 1.358 . S
C986 C988 1.356 . S
C986 H1040 0.930 . S
C987 N985 1.279 . S
C987 C986 1.358 . S
C987 H991 0.930 . S
C988 C986 1.356 . S
C988 C989 1.348 . S
C989 C984 1.353 . S
C989 C988 1.348 . S
C989 H1041 0.929 . S
H990 C984 0.930 . S
H991 C987 0.930 . S
C992 N993 1.314 . S
C992 C994 1.353 . S
C992 H998 0.930 . S
N993 Li969 1.990 . S
N993 C992 1.314 . S
N993 C996 1.279 . S
C994 C992 1.353 . S
C994 C997 1.348 . S
C994 H1042 0.929 . S
C995 C996 1.358 . S
C995 C997 1.356 . S
C995 H1043 0.930 . S
C996 N993 1.279 . S
C996 C995 1.358 . S
C996 H999 0.930 . S
C997 C994 1.348 . S
C997 C995 1.356 . S
H998 C992 0.930 . S
H999 C996 0.930 . S
C1000 C1002 1.348 . S
C1000 C1003 1.356 . S
C1000 O1030 1.325 . S
N1001 C1004 1.314 . S
N1001 C1005 1.279 . S
C1002 C1000 1.348 . S
C1002 C1004 1.353 . S
C1002 H1044 0.929 . S
C1003 C1000 1.356 . S
C1003 C1005 1.358 . S
C1003 H1045 0.930 . S
C1004 N1001 1.314 . S
C1004 C1002 1.353 . S
C1004 H1046 0.930 . S
C1005 N1001 1.279 . S
C1005 C1003 1.358 . S
C1005 H1047 0.930 . S
C1006 C1007 1.348 . S
C1006 C1008 1.356 . S
C1006 O1031 1.325 . S
C1007 C1006 1.348 . S
C1007 C1009 1.353 . S
C1007 H1048 0.929 . S
C1008 C1006 1.356 . S
C1008 C1010 1.358 . S
C1008 H1049 0.930 . S
C1009 C1007 1.353 . S
C1009 N1011 1.314 . S
C1009 H1050 0.930 . S
C1010 C1008 1.358 . S
C1010 N1011 1.279 . S
C1010 H1051 0.930 . S
N1011 C1009 1.314 . S
N1011 C1010 1.279 . S
C1012 C1014 1.353 . S
C1012 N1015 1.314 . S
C1012 H1018 0.930 . S
C1013 N1015 1.279 . S
C1013 C1016 1.358 . S
C1013 H1019 0.930 . S
C1014 C1012 1.353 . S
C1014 C1017 1.348 . S
C1014 H1052 0.929 . S
N1015 Li970 1.990 . S
N1015 C1012 1.314 . S
N1015 C1013 1.279 . S
C1016 C1013 1.358 . S
C1016 C1017 1.356 . S
C1016 H1053 0.930 . S
C1017 C1014 1.348 . S
C1017 C1016 1.356 . S
H1018 C1012 0.930 . S
H1019 C1013 0.930 . S
C1020 N1021 1.314 . S
C1020 C1022 1.353 . S
C1020 H1026 0.930 . S
N1021 Li971 1.990 . S
N1021 C1020 1.314 . S
N1021 C1024 1.279 . S
C1022 C1020 1.353 . S
C1022 C1025 1.348 . S
C1022 H1054 0.929 . S
C1023 C1024 1.358 . S
C1023 C1025 1.356 . S
C1023 H1055 0.930 . S
C1024 N1021 1.279 . S
C1024 C1023 1.358 . S
C1024 H1027 0.930 . S
C1025 C1022 1.348 . S
C1025 C1023 1.356 . S
H1026 C1020 0.930 . S
H1027 C1024 0.930 . S
O1028 Li968 1.956 . S
O1028 Li969 1.970 . S
O1028 Li970 1.961 . S
O1028 C972 1.325 . S
O1029 Li968 1.970 . S
O1029 Li969 1.956 . S
O1029 Li971 1.961 . S
O1029 C978 1.325 . S
O1030 Li968 1.961 . S
O1030 Li970 1.956 . S
O1030 Li971 1.970 . S
O1030 C1000 1.325 . S
O1031 Li969 1.961 . S
O1031 Li970 1.970 . S
O1031 Li971 1.956 . S
O1031 C1006 1.325 . S
H1032 C974 0.929 . S
H1033 C975 0.930 . S
H1034 C976 0.930 . S
H1035 C977 0.930 . S
H1036 C979 0.930 . S
H1037 C981 0.929 . S
H1038 C982 0.930 . S
H1039 C983 0.930 . S
H1040 C986 0.930 . S
H1041 C989 0.929 . S
H1042 C994 0.929 . S
H1043 C995 0.930 . S
H1044 C1002 0.929 . S
H1045 C1003 0.930 . S
H1046 C1004 0.930 . S
H1047 C1005 0.930 . S
H1048 C1007 0.929 . S
H1049 C1008 0.930 . S
H1050 C1009 0.930 . S
H1051 C1010 0.930 . S
H1052 C1014 0.929 . S
H1053 C1016 0.930 . S
H1054 C1022 0.929 . S
H1055 C1023 0.930 . S
Li1056 N1073 1.990 . S
Li1056 O1116 1.956 . S
Li1056 O1117 1.970 . S
Li1056 O1118 1.961 . S
Li1057 N1081 1.990 . S
Li1057 O1116 1.970 . S
Li1057 O1117 1.956 . S
Li1057 O1119 1.961 . S
Li1058 N1103 1.990 . S
Li1058 O1116 1.961 . S
Li1058 O1118 1.956 . S
Li1058 O1119 1.970 . S
Li1059 N1109 1.990 . S
Li1059 O1117 1.961 . S
Li1059 O1118 1.970 . S
Li1059 O1119 1.956 . S
C1060 C1062 1.348 . S
C1060 C1063 1.356 . S
C1060 O1116 1.325 . S
N1061 C1064 1.314 . S
N1061 C1065 1.279 . S
C1062 C1060 1.348 . S
C1062 C1064 1.353 . S
C1062 H1120 0.929 . S
C1063 C1060 1.356 . S
C1063 C1065 1.358 . S
C1063 H1121 0.930 . S
C1064 N1061 1.314 . S
C1064 C1062 1.353 . S
C1064 H1122 0.930 . S
C1065 N1061 1.279 . S
C1065 C1063 1.358 . S
C1065 H1123 0.930 . S
C1066 C1069 1.348 . S
C1066 C1070 1.356 . S
C1066 O1117 1.325 . S
C1067 N1068 1.279 . S
C1067 C1070 1.358 . S
C1067 H1124 0.930 . S
N1068 C1067 1.279 . S
N1068 C1071 1.314 . S
C1069 C1066 1.348 . S
C1069 C1071 1.353 . S
C1069 H1125 0.929 . S
C1070 C1066 1.356 . S
C1070 C1067 1.358 . S
C1070 H1126 0.930 . S
C1071 N1068 1.314 . S
C1071 C1069 1.353 . S
C1071 H1127 0.930 . S
C1072 N1073 1.314 . S
C1072 C1077 1.353 . S
C1072 H1078 0.930 . S
N1073 Li1056 1.990 . S
N1073 C1072 1.314 . S
N1073 C1075 1.279 . S
C1074 C1075 1.358 . S
C1074 C1076 1.356 . S
C1074 H1128 0.930 . S
C1075 N1073 1.279 . S
C1075 C1074 1.358 . S
C1075 H1079 0.930 . S
C1076 C1074 1.356 . S
C1076 C1077 1.348 . S
C1077 C1072 1.353 . S
C1077 C1076 1.348 . S
C1077 H1129 0.929 . S
H1078 C1072 0.930 . S
H1079 C1075 0.930 . S
C1080 N1081 1.314 . S
C1080 C1082 1.353 . S
C1080 H1086 0.930 . S
N1081 Li1057 1.990 . S
N1081 C1080 1.314 . S
N1081 C1084 1.279 . S
C1082 C1080 1.353 . S
C1082 C1085 1.348 . S
C1082 H1130 0.929 . S
C1083 C1084 1.358 . S
C1083 C1085 1.356 . S
C1083 H1131 0.930 . S
C1084 N1081 1.279 . S
C1084 C1083 1.358 . S
C1084 H1087 0.930 . S
C1085 C1082 1.348 . S
C1085 C1083 1.356 . S
H1086 C1080 0.930 . S
H1087 C1084 0.930 . S
C1088 C1090 1.348 . S
C1088 C1091 1.356 . S
C1088 O1118 1.325 . S
N1089 C1092 1.314 . S
N1089 C1093 1.279 . S
C1090 C1088 1.348 . S
C1090 C1092 1.353 . S
C1090 H1132 0.929 . S
C1091 C1088 1.356 . S
C1091 C1093 1.358 . S
C1091 H1133 0.930 . S
C1092 N1089 1.314 . S
C1092 C1090 1.353 . S
C1092 H1134 0.930 . S
C1093 N1089 1.279 . S
C1093 C1091 1.358 . S
C1093 H1135 0.930 . S
C1094 C1095 1.348 . S
C1094 C1096 1.356 . S
C1094 O1119 1.325 . S
C1095 C1094 1.348 . S
C1095 C1097 1.353 . S
C1095 H1136 0.929 . S
C1096 C1094 1.356 . S
C1096 C1098 1.358 . S
C1096 H1137 0.930 . S
C1097 C1095 1.353 . S
C1097 N1099 1.314 . S
C1097 H1138 0.930 . S
C1098 C1096 1.358 . S
C1098 N1099 1.279 . S
C1098 H1139 0.930 . S
N1099 C1097 1.314 . S
N1099 C1098 1.279 . S
C1100 C1102 1.353 . S
C1100 N1103 1.314 . S
C1100 H1106 0.930 . S
C1101 N1103 1.279 . S
C1101 C1104 1.358 . S
C1101 H1107 0.930 . S
C1102 C1100 1.353 . S
C1102 C1105 1.348 . S
C1102 H1140 0.929 . S
N1103 Li1058 1.990 . S
N1103 C1100 1.314 . S
N1103 C1101 1.279 . S
C1104 C1101 1.358 . S
C1104 C1105 1.356 . S
C1104 H1141 0.930 . S
C1105 C1102 1.348 . S
C1105 C1104 1.356 . S
H1106 C1100 0.930 . S
H1107 C1101 0.930 . S
C1108 N1109 1.314 . S
C1108 C1110 1.353 . S
C1108 H1114 0.930 . S
N1109 Li1059 1.990 . S
N1109 C1108 1.314 . S
N1109 C1112 1.279 . S
C1110 C1108 1.353 . S
C1110 C1113 1.348 . S
C1110 H1142 0.929 . S
C1111 C1112 1.358 . S
C1111 C1113 1.356 . S
C1111 H1143 0.930 . S
C1112 N1109 1.279 . S
C1112 C1111 1.358 . S
C1112 H1115 0.930 . S
C1113 C1110 1.348 . S
C1113 C1111 1.356 . S
H1114 C1108 0.930 . S
H1115 C1112 0.930 . S
O1116 Li1056 1.956 . S
O1116 Li1057 1.970 . S
O1116 Li1058 1.961 . S
O1116 C1060 1.325 . S
O1117 Li1056 1.970 . S
O1117 Li1057 1.956 . S
O1117 Li1059 1.961 . S
O1117 C1066 1.325 . S
O1118 Li1056 1.961 . S
O1118 Li1058 1.956 . S
O1118 Li1059 1.970 . S
O1118 C1088 1.325 . S
O1119 Li1057 1.961 . S
O1119 Li1058 1.970 . S
O1119 Li1059 1.956 . S
O1119 C1094 1.325 . S
H1120 C1062 0.929 . S
H1121 C1063 0.930 . S
H1122 C1064 0.930 . S
H1123 C1065 0.930 . S
H1124 C1067 0.930 . S
H1125 C1069 0.929 . S
H1126 C1070 0.930 . S
H1127 C1071 0.930 . S
H1128 C1074 0.930 . S
H1129 C1077 0.929 . S
H1130 C1082 0.929 . S
H1131 C1083 0.930 . S
H1132 C1090 0.929 . S
H1133 C1091 0.930 . S
H1134 C1092 0.930 . S
H1135 C1093 0.930 . S
H1136 C1095 0.929 . S
H1137 C1096 0.930 . S
H1138 C1097 0.930 . S
H1139 C1098 0.930 . S
H1140 C1102 0.929 . S
H1141 C1104 0.930 . S
H1142 C1110 0.929 . S
H1143 C1111 0.930 . S
Li1144 N1161 1.990 . S
Li1144 O1204 1.956 . S
Li1144 O1205 1.970 . S
Li1144 O1206 1.961 . S
Li1145 N1169 1.990 . S
Li1145 O1204 1.970 . S
Li1145 O1205 1.956 . S
Li1145 O1207 1.961 . S
Li1146 N1191 1.990 . S
Li1146 O1204 1.961 . S
Li1146 O1206 1.956 . S
Li1146 O1207 1.970 . S
Li1147 N1197 1.990 . S
Li1147 O1205 1.961 . S
Li1147 O1206 1.970 . S
Li1147 O1207 1.956 . S
C1148 C1150 1.348 . S
C1148 C1151 1.356 . S
C1148 O1204 1.325 . S
N1149 C1152 1.314 . S
N1149 C1153 1.279 . S
C1150 C1148 1.348 . S
C1150 C1152 1.353 . S
C1150 H1208 0.929 . S
C1151 C1148 1.356 . S
C1151 C1153 1.358 . S
C1151 H1209 0.930 . S
C1152 N1149 1.314 . S
C1152 C1150 1.353 . S
C1152 H1210 0.930 . S
C1153 N1149 1.279 . S
C1153 C1151 1.358 . S
C1153 H1211 0.930 . S
C1154 C1157 1.348 . S
C1154 C1158 1.356 . S
C1154 O1205 1.325 . S
C1155 N1156 1.279 . S
C1155 C1158 1.358 . S
C1155 H1212 0.930 . S
N1156 C1155 1.279 . S
N1156 C1159 1.314 . S
C1157 C1154 1.348 . S
C1157 C1159 1.353 . S
C1157 H1213 0.929 . S
C1158 C1154 1.356 . S
C1158 C1155 1.358 . S
C1158 H1214 0.930 . S
C1159 N1156 1.314 . S
C1159 C1157 1.353 . S
C1159 H1215 0.930 . S
C1160 N1161 1.314 . S
C1160 C1165 1.353 . S
C1160 H1166 0.930 . S
N1161 Li1144 1.990 . S
N1161 C1160 1.314 . S
N1161 C1163 1.279 . S
C1162 C1163 1.358 . S
C1162 C1164 1.356 . S
C1162 H1216 0.930 . S
C1163 N1161 1.279 . S
C1163 C1162 1.358 . S
C1163 H1167 0.930 . S
C1164 C1162 1.356 . S
C1164 C1165 1.348 . S
C1165 C1160 1.353 . S
C1165 C1164 1.348 . S
C1165 H1217 0.929 . S
H1166 C1160 0.930 . S
H1167 C1163 0.930 . S
C1168 N1169 1.314 . S
C1168 C1170 1.353 . S
C1168 H1174 0.930 . S
N1169 Li1145 1.990 . S
N1169 C1168 1.314 . S
N1169 C1172 1.279 . S
C1170 C1168 1.353 . S
C1170 C1173 1.348 . S
C1170 H1218 0.929 . S
C1171 C1172 1.358 . S
C1171 C1173 1.356 . S
C1171 H1219 0.930 . S
C1172 N1169 1.279 . S
C1172 C1171 1.358 . S
C1172 H1175 0.930 . S
C1173 C1170 1.348 . S
C1173 C1171 1.356 . S
H1174 C1168 0.930 . S
H1175 C1172 0.930 . S
C1176 C1178 1.348 . S
C1176 C1179 1.356 . S
C1176 O1206 1.325 . S
N1177 C1180 1.314 . S
N1177 C1181 1.279 . S
C1178 C1176 1.348 . S
C1178 C1180 1.353 . S
C1178 H1220 0.929 . S
C1179 C1176 1.356 . S
C1179 C1181 1.358 . S
C1179 H1221 0.930 . S
C1180 N1177 1.314 . S
C1180 C1178 1.353 . S
C1180 H1222 0.930 . S
C1181 N1177 1.279 . S
C1181 C1179 1.358 . S
C1181 H1223 0.930 . S
C1182 C1183 1.348 . S
C1182 C1184 1.356 . S
C1182 O1207 1.325 . S
C1183 C1182 1.348 . S
C1183 C1185 1.353 . S
C1183 H1224 0.929 . S
C1184 C1182 1.356 . S
C1184 C1186 1.358 . S
C1184 H1225 0.930 . S
C1185 C1183 1.353 . S
C1185 N1187 1.314 . S
C1185 H1226 0.930 . S
C1186 C1184 1.358 . S
C1186 N1187 1.279 . S
C1186 H1227 0.930 . S
N1187 C1185 1.314 . S
N1187 C1186 1.279 . S
C1188 C1190 1.353 . S
C1188 N1191 1.314 . S
C1188 H1194 0.930 . S
C1189 N1191 1.279 . S
C1189 C1192 1.358 . S
C1189 H1195 0.930 . S
C1190 C1188 1.353 . S
C1190 C1193 1.348 . S
C1190 H1228 0.929 . S
N1191 Li1146 1.990 . S
N1191 C1188 1.314 . S
N1191 C1189 1.279 . S
C1192 C1189 1.358 . S
C1192 C1193 1.356 . S
C1192 H1229 0.930 . S
C1193 C1190 1.348 . S
C1193 C1192 1.356 . S
H1194 C1188 0.930 . S
H1195 C1189 0.930 . S
C1196 N1197 1.314 . S
C1196 C1198 1.353 . S
C1196 H1202 0.930 . S
N1197 Li1147 1.990 . S
N1197 C1196 1.314 . S
N1197 C1200 1.279 . S
C1198 C1196 1.353 . S
C1198 C1201 1.348 . S
C1198 H1230 0.929 . S
C1199 C1200 1.358 . S
C1199 C1201 1.356 . S
C1199 H1231 0.930 . S
C1200 N1197 1.279 . S
C1200 C1199 1.358 . S
C1200 H1203 0.930 . S
C1201 C1198 1.348 . S
C1201 C1199 1.356 . S
H1202 C1196 0.930 . S
H1203 C1200 0.930 . S
O1204 Li1144 1.956 . S
O1204 Li1145 1.970 . S
O1204 Li1146 1.961 . S
O1204 C1148 1.325 . S
O1205 Li1144 1.970 . S
O1205 Li1145 1.956 . S
O1205 Li1147 1.961 . S
O1205 C1154 1.325 . S
O1206 Li1144 1.961 . S
O1206 Li1146 1.956 . S
O1206 Li1147 1.970 . S
O1206 C1176 1.325 . S
O1207 Li1145 1.961 . S
O1207 Li1146 1.970 . S
O1207 Li1147 1.956 . S
O1207 C1182 1.325 . S
H1208 C1150 0.929 . S
H1209 C1151 0.930 . S
H1210 C1152 0.930 . S
H1211 C1153 0.930 . S
H1212 C1155 0.930 . S
H1213 C1157 0.929 . S
H1214 C1158 0.930 . S
H1215 C1159 0.930 . S
H1216 C1162 0.930 . S
H1217 C1165 0.929 . S
H1218 C1170 0.929 . S
H1219 C1171 0.930 . S
H1220 C1178 0.929 . S
H1221 C1179 0.930 . S
H1222 C1180 0.930 . S
H1223 C1181 0.930 . S
H1224 C1183 0.929 . S
H1225 C1184 0.930 . S
H1226 C1185 0.930 . S
H1227 C1186 0.930 . S
H1228 C1190 0.929 . S
H1229 C1192 0.930 . S
H1230 C1198 0.929 . S
H1231 C1199 0.930 . S
Li1232 N1249 1.990 . S
Li1232 O1292 1.956 . S
Li1232 O1293 1.970 . S
Li1232 O1294 1.961 . S
Li1233 N1257 1.990 . S
Li1233 O1292 1.970 . S
Li1233 O1293 1.956 . S
Li1233 O1295 1.961 . S
Li1234 N1279 1.990 . S
Li1234 O1292 1.961 . S
Li1234 O1294 1.956 . S
Li1234 O1295 1.970 . S
Li1235 N1285 1.990 . S
Li1235 O1293 1.961 . S
Li1235 O1294 1.970 . S
Li1235 O1295 1.956 . S
C1236 C1238 1.348 . S
C1236 C1239 1.356 . S
C1236 O1292 1.325 . S
N1237 C1240 1.314 . S
N1237 C1241 1.279 . S
C1238 C1236 1.348 . S
C1238 C1240 1.353 . S
C1238 H1296 0.929 . S
C1239 C1236 1.356 . S
C1239 C1241 1.358 . S
C1239 H1297 0.930 . S
C1240 N1237 1.314 . S
C1240 C1238 1.353 . S
C1240 H1298 0.930 . S
C1241 N1237 1.279 . S
C1241 C1239 1.358 . S
C1241 H1299 0.930 . S
C1242 C1245 1.348 . S
C1242 C1246 1.356 . S
C1242 O1293 1.325 . S
C1243 N1244 1.279 . S
C1243 C1246 1.358 . S
C1243 H1300 0.930 . S
N1244 C1243 1.279 . S
N1244 C1247 1.314 . S
C1245 C1242 1.348 . S
C1245 C1247 1.353 . S
C1245 H1301 0.929 . S
C1246 C1242 1.356 . S
C1246 C1243 1.358 . S
C1246 H1302 0.930 . S
C1247 N1244 1.314 . S
C1247 C1245 1.353 . S
C1247 H1303 0.930 . S
C1248 N1249 1.314 . S
C1248 C1253 1.353 . S
C1248 H1254 0.930 . S
N1249 Li1232 1.990 . S
N1249 C1248 1.314 . S
N1249 C1251 1.279 . S
C1250 C1251 1.358 . S
C1250 C1252 1.356 . S
C1250 H1304 0.930 . S
C1251 N1249 1.279 . S
C1251 C1250 1.358 . S
C1251 H1255 0.930 . S
C1252 C1250 1.356 . S
C1252 C1253 1.348 . S
C1253 C1248 1.353 . S
C1253 C1252 1.348 . S
C1253 H1305 0.929 . S
H1254 C1248 0.930 . S
H1255 C1251 0.930 . S
C1256 N1257 1.314 . S
C1256 C1258 1.353 . S
C1256 H1262 0.930 . S
N1257 Li1233 1.990 . S
N1257 C1256 1.314 . S
N1257 C1260 1.279 . S
C1258 C1256 1.353 . S
C1258 C1261 1.348 . S
C1258 H1306 0.929 . S
C1259 C1260 1.358 . S
C1259 C1261 1.356 . S
C1259 H1307 0.930 . S
C1260 N1257 1.279 . S
C1260 C1259 1.358 . S
C1260 H1263 0.930 . S
C1261 C1258 1.348 . S
C1261 C1259 1.356 . S
H1262 C1256 0.930 . S
H1263 C1260 0.930 . S
C1264 C1266 1.348 . S
C1264 C1267 1.356 . S
C1264 O1294 1.325 . S
N1265 C1268 1.314 . S
N1265 C1269 1.279 . S
C1266 C1264 1.348 . S
C1266 C1268 1.353 . S
C1266 H1308 0.929 . S
C1267 C1264 1.356 . S
C1267 C1269 1.358 . S
C1267 H1309 0.930 . S
C1268 N1265 1.314 . S
C1268 C1266 1.353 . S
C1268 H1310 0.930 . S
C1269 N1265 1.279 . S
C1269 C1267 1.358 . S
C1269 H1311 0.930 . S
C1270 C1271 1.348 . S
C1270 C1272 1.356 . S
C1270 O1295 1.325 . S
C1271 C1270 1.348 . S
C1271 C1273 1.353 . S
C1271 H1312 0.929 . S
C1272 C1270 1.356 . S
C1272 C1274 1.358 . S
C1272 H1313 0.930 . S
C1273 C1271 1.353 . S
C1273 N1275 1.314 . S
C1273 H1314 0.930 . S
C1274 C1272 1.358 . S
C1274 N1275 1.279 . S
C1274 H1315 0.930 . S
N1275 C1273 1.314 . S
N1275 C1274 1.279 . S
C1276 C1278 1.353 . S
C1276 N1279 1.314 . S
C1276 H1282 0.930 . S
C1277 N1279 1.279 . S
C1277 C1280 1.358 . S
C1277 H1283 0.930 . S
C1278 C1276 1.353 . S
C1278 C1281 1.348 . S
C1278 H1316 0.929 . S
N1279 Li1234 1.990 . S
N1279 C1276 1.314 . S
N1279 C1277 1.279 . S
C1280 C1277 1.358 . S
C1280 C1281 1.356 . S
C1280 H1317 0.930 . S
C1281 C1278 1.348 . S
C1281 C1280 1.356 . S
H1282 C1276 0.930 . S
H1283 C1277 0.930 . S
C1284 N1285 1.314 . S
C1284 C1286 1.353 . S
C1284 H1290 0.930 . S
N1285 Li1235 1.990 . S
N1285 C1284 1.314 . S
N1285 C1288 1.279 . S
C1286 C1284 1.353 . S
C1286 C1289 1.348 . S
C1286 H1318 0.929 . S
C1287 C1288 1.358 . S
C1287 C1289 1.356 . S
C1287 H1319 0.930 . S
C1288 N1285 1.279 . S
C1288 C1287 1.358 . S
C1288 H1291 0.930 . S
C1289 C1286 1.348 . S
C1289 C1287 1.356 . S
H1290 C1284 0.930 . S
H1291 C1288 0.930 . S
O1292 Li1232 1.956 . S
O1292 Li1233 1.970 . S
O1292 Li1234 1.961 . S
O1292 C1236 1.325 . S
O1293 Li1232 1.970 . S
O1293 Li1233 1.956 . S
O1293 Li1235 1.961 . S
O1293 C1242 1.325 . S
O1294 Li1232 1.961 . S
O1294 Li1234 1.956 . S
O1294 Li1235 1.970 . S
O1294 C1264 1.325 . S
O1295 Li1233 1.961 . S
O1295 Li1234 1.970 . S
O1295 Li1235 1.956 . S
O1295 C1270 1.325 . S
H1296 C1238 0.929 . S
H1297 C1239 0.930 . S
H1298 C1240 0.930 . S
H1299 C1241 0.930 . S
H1300 C1243 0.930 . S
H1301 C1245 0.929 . S
H1302 C1246 0.930 . S
H1303 C1247 0.930 . S
H1304 C1250 0.930 . S
H1305 C1253 0.929 . S
H1306 C1258 0.929 . S
H1307 C1259 0.930 . S
H1308 C1266 0.929 . S
H1309 C1267 0.930 . S
H1310 C1268 0.930 . S
H1311 C1269 0.930 . S
H1312 C1271 0.929 . S
H1313 C1272 0.930 . S
H1314 C1273 0.930 . S
H1315 C1274 0.930 . S
H1316 C1278 0.929 . S
H1317 C1280 0.930 . S
H1318 C1286 0.929 . S
H1319 C1287 0.930 . S
Li1320 N1337 1.990 . S
Li1320 O1380 1.956 . S
Li1320 O1381 1.970 . S
Li1320 O1382 1.961 . S
Li1321 N1345 1.990 . S
Li1321 O1380 1.970 . S
Li1321 O1381 1.956 . S
Li1321 O1383 1.961 . S
Li1322 N1367 1.990 . S
Li1322 O1380 1.961 . S
Li1322 O1382 1.956 . S
Li1322 O1383 1.970 . S
Li1323 N1373 1.990 . S
Li1323 O1381 1.961 . S
Li1323 O1382 1.970 . S
Li1323 O1383 1.956 . S
C1324 C1326 1.348 . S
C1324 C1327 1.356 . S
C1324 O1380 1.325 . S
N1325 C1328 1.314 . S
N1325 C1329 1.279 . S
C1326 C1324 1.348 . S
C1326 C1328 1.353 . S
C1326 H1384 0.929 . S
C1327 C1324 1.356 . S
C1327 C1329 1.358 . S
C1327 H1385 0.930 . S
C1328 N1325 1.314 . S
C1328 C1326 1.353 . S
C1328 H1386 0.930 . S
C1329 N1325 1.279 . S
C1329 C1327 1.358 . S
C1329 H1387 0.930 . S
C1330 C1333 1.348 . S
C1330 C1334 1.356 . S
C1330 O1381 1.325 . S
C1331 N1332 1.279 . S
C1331 C1334 1.358 . S
C1331 H1388 0.930 . S
N1332 C1331 1.279 . S
N1332 C1335 1.314 . S
C1333 C1330 1.348 . S
C1333 C1335 1.353 . S
C1333 H1389 0.929 . S
C1334 C1330 1.356 . S
C1334 C1331 1.358 . S
C1334 H1390 0.930 . S
C1335 N1332 1.314 . S
C1335 C1333 1.353 . S
C1335 H1391 0.930 . S
C1336 N1337 1.314 . S
C1336 C1341 1.353 . S
C1336 H1342 0.930 . S
N1337 Li1320 1.990 . S
N1337 C1336 1.314 . S
N1337 C1339 1.279 . S
C1338 C1339 1.358 . S
C1338 C1340 1.356 . S
C1338 H1392 0.930 . S
C1339 N1337 1.279 . S
C1339 C1338 1.358 . S
C1339 H1343 0.930 . S
C1340 C1338 1.356 . S
C1340 C1341 1.348 . S
C1341 C1336 1.353 . S
C1341 C1340 1.348 . S
C1341 H1393 0.929 . S
H1342 C1336 0.930 . S
H1343 C1339 0.930 . S
C1344 N1345 1.314 . S
C1344 C1346 1.353 . S
C1344 H1350 0.930 . S
N1345 Li1321 1.990 . S
N1345 C1344 1.314 . S
N1345 C1348 1.279 . S
C1346 C1344 1.353 . S
C1346 C1349 1.348 . S
C1346 H1394 0.929 . S
C1347 C1348 1.358 . S
C1347 C1349 1.356 . S
C1347 H1395 0.930 . S
C1348 N1345 1.279 . S
C1348 C1347 1.358 . S
C1348 H1351 0.930 . S
C1349 C1346 1.348 . S
C1349 C1347 1.356 . S
H1350 C1344 0.930 . S
H1351 C1348 0.930 . S
C1352 C1354 1.348 . S
C1352 C1355 1.356 . S
C1352 O1382 1.325 . S
N1353 C1356 1.314 . S
N1353 C1357 1.279 . S
C1354 C1352 1.348 . S
C1354 C1356 1.353 . S
C1354 H1396 0.929 . S
C1355 C1352 1.356 . S
C1355 C1357 1.358 . S
C1355 H1397 0.930 . S
C1356 N1353 1.314 . S
C1356 C1354 1.353 . S
C1356 H1398 0.930 . S
C1357 N1353 1.279 . S
C1357 C1355 1.358 . S
C1357 H1399 0.930 . S
C1358 C1359 1.348 . S
C1358 C1360 1.356 . S
C1358 O1383 1.325 . S
C1359 C1358 1.348 . S
C1359 C1361 1.353 . S
C1359 H1400 0.929 . S
C1360 C1358 1.356 . S
C1360 C1362 1.358 . S
C1360 H1401 0.930 . S
C1361 C1359 1.353 . S
C1361 N1363 1.314 . S
C1361 H1402 0.930 . S
C1362 C1360 1.358 . S
C1362 N1363 1.279 . S
C1362 H1403 0.930 . S
N1363 C1361 1.314 . S
N1363 C1362 1.279 . S
C1364 C1366 1.353 . S
C1364 N1367 1.314 . S
C1364 H1370 0.930 . S
C1365 N1367 1.279 . S
C1365 C1368 1.358 . S
C1365 H1371 0.930 . S
C1366 C1364 1.353 . S
C1366 C1369 1.348 . S
C1366 H1404 0.929 . S
N1367 Li1322 1.990 . S
N1367 C1364 1.314 . S
N1367 C1365 1.279 . S
C1368 C1365 1.358 . S
C1368 C1369 1.356 . S
C1368 H1405 0.930 . S
C1369 C1366 1.348 . S
C1369 C1368 1.356 . S
H1370 C1364 0.930 . S
H1371 C1365 0.930 . S
C1372 N1373 1.314 . S
C1372 C1374 1.353 . S
C1372 H1378 0.930 . S
N1373 Li1323 1.990 . S
N1373 C1372 1.314 . S
N1373 C1376 1.279 . S
C1374 C1372 1.353 . S
C1374 C1377 1.348 . S
C1374 H1406 0.929 . S
C1375 C1376 1.358 . S
C1375 C1377 1.356 . S
C1375 H1407 0.930 . S
C1376 N1373 1.279 . S
C1376 C1375 1.358 . S
C1376 H1379 0.930 . S
C1377 C1374 1.348 . S
C1377 C1375 1.356 . S
H1378 C1372 0.930 . S
H1379 C1376 0.930 . S
O1380 Li1320 1.956 . S
O1380 Li1321 1.970 . S
O1380 Li1322 1.961 . S
O1380 C1324 1.325 . S
O1381 Li1320 1.970 . S
O1381 Li1321 1.956 . S
O1381 Li1323 1.961 . S
O1381 C1330 1.325 . S
O1382 Li1320 1.961 . S
O1382 Li1322 1.956 . S
O1382 Li1323 1.970 . S
O1382 C1352 1.325 . S
O1383 Li1321 1.961 . S
O1383 Li1322 1.970 . S
O1383 Li1323 1.956 . S
O1383 C1358 1.325 . S
H1384 C1326 0.929 . S
H1385 C1327 0.930 . S
H1386 C1328 0.930 . S
H1387 C1329 0.930 . S
H1388 C1331 0.930 . S
H1389 C1333 0.929 . S
H1390 C1334 0.930 . S
H1391 C1335 0.930 . S
H1392 C1338 0.930 . S
H1393 C1341 0.929 . S
H1394 C1346 0.929 . S
H1395 C1347 0.930 . S
H1396 C1354 0.929 . S
H1397 C1355 0.930 . S
H1398 C1356 0.930 . S
H1399 C1357 0.930 . S
H1400 C1359 0.929 . S
H1401 C1360 0.930 . S
H1402 C1361 0.930 . S
H1403 C1362 0.930 . S
H1404 C1366 0.929 . S
H1405 C1368 0.930 . S
H1406 C1374 0.929 . S
H1407 C1375 0.930 . S
C1408 C1409 1.365 1_554 S
C1408 C1410 1.419 . S
C1408 H1412 0.930 . S
C1409 C1408 1.365 1_556 S
C1409 C1418 1.433 . S
C1410 C1408 1.419 . S
C1410 C1411 1.353 1_554 S
C1410 H1413 0.929 . S
C1411 C1410 1.353 1_556 S
C1411 C1417 1.439 . S
H1412 C1408 0.930 . S
H1413 C1410 0.929 . S
S1414 N1415 1.613 . S
S1414 N1416 1.610 . S
N1415 S1414 1.613 . S
N1415 C1418 1.350 . S
N1416 S1414 1.610 . S
N1416 C1417 1.351 . S
C1417 C1411 1.439 . S
C1417 N1416 1.351 . S
C1417 C1418 1.434 . S
C1418 C1409 1.433 . S
C1418 N1415 1.350 . S
C1418 C1417 1.434 . S
C1419 C1420 1.366 1_554 S
C1419 C1421 1.419 . S
C1419 H1423 0.930 . S
C1420 C1419 1.366 1_556 S
C1420 C1429 1.432 . S
C1421 C1419 1.419 . S
C1421 C1422 1.352 1_554 S
C1421 H1424 0.929 . S
C1422 C1421 1.352 1_556 S
C1422 C1428 1.439 . S
H1423 C1419 0.930 . S
H1424 C1421 0.929 . S
S1425 N1426 1.613 . S
S1425 N1427 1.610 . S
N1426 S1425 1.613 . S
N1426 C1429 1.350 . S
N1427 S1425 1.610 . S
N1427 C1428 1.351 . S
C1428 C1422 1.439 . S
C1428 N1427 1.351 . S
C1428 C1429 1.434 . S
C1429 C1420 1.432 . S
C1429 N1426 1.350 . S
C1429 C1428 1.434 . S
C1430 C1431 1.365 1_554 S
C1430 C1432 1.419 . S
C1430 H1434 0.930 . S
C1431 C1430 1.365 1_556 S
C1431 C1440 1.432 . S
C1432 C1430 1.419 . S
C1432 C1433 1.352 1_554 S
C1432 H1435 0.929 . S
C1433 C1432 1.352 1_556 S
C1433 C1439 1.440 . S
H1434 C1430 0.930 . S
H1435 C1432 0.929 . S
S1436 N1437 1.613 . S
S1436 N1438 1.610 . S
N1437 S1436 1.613 . S
N1437 C1440 1.350 . S
N1438 S1436 1.610 . S
N1438 C1439 1.351 . S
C1439 C1433 1.440 . S
C1439 N1438 1.351 . S
C1439 C1440 1.434 . S
C1440 C1431 1.432 . S
C1440 N1437 1.350 . S
C1440 C1439 1.434 . S
C1441 C1442 1.369 1_556 S
C1441 C1443 1.419 . S
C1441 H1445 0.930 . S
C1442 C1441 1.369 1_554 S
C1442 C1451 1.429 1_554 S
C1443 C1441 1.419 . S
C1443 C1444 1.363 . S
C1443 H1446 0.929 . S
C1444 C1443 1.363 . S
C1444 C1450 1.428 . S
H1445 C1441 0.930 . S
H1446 C1443 0.929 . S
S1447 N1448 1.613 . S
S1447 N1449 1.610 . S
N1448 S1447 1.613 . S
N1448 C1451 1.350 . S
N1449 S1447 1.610 . S
N1449 C1450 1.351 . S
C1450 C1444 1.428 . S
C1450 N1449 1.351 . S
C1450 C1451 1.434 . S
C1451 C1442 1.429 1_556 S
C1451 N1448 1.350 . S
C1451 C1450 1.434 . S
C1452 C1453 1.369 . S
C1452 C1454 1.419 1_545 S
C1452 H1456 0.930 . S
C1453 C1452 1.369 . S
C1453 C1462 1.429 . S
C1454 C1452 1.419 1_565 S
C1454 C1455 1.363 . S
C1454 H1457 0.929 . S
C1455 C1454 1.363 . S
C1455 C1461 1.428 . S
H1456 C1452 0.930 . S
H1457 C1454 0.929 . S
S1458 N1459 1.618 1_565 S
S1458 N1460 1.605 . S
N1459 S1458 1.618 1_545 S
N1459 C1462 1.350 . S
N1460 S1458 1.605 . S
N1460 C1461 1.351 . S
C1461 C1455 1.428 . S
C1461 N1460 1.351 . S
C1461 C1462 1.434 1_565 S
C1462 C1453 1.429 . S
C1462 N1459 1.350 . S
C1462 C1461 1.434 1_545 S
C1463 C1464 1.369 . S
C1463 C1465 1.419 1_655 S
C1463 H1467 0.930 . S
C1464 C1463 1.369 . S
C1464 C1473 1.429 . S
C1465 C1463 1.419 1_455 S
C1465 C1466 1.363 . S
C1465 H1468 0.929 . S
C1466 C1465 1.363 . S
C1466 C1472 1.428 . S
H1467 C1463 0.930 . S
H1468 C1465 0.929 . S
S1469 N1470 1.611 1_455 S
S1469 N1471 1.613 . S
N1470 S1469 1.611 1_655 S
N1470 C1473 1.350 . S
N1471 S1469 1.613 . S
N1471 C1472 1.351 . S
C1472 C1466 1.428 . S
C1472 N1471 1.351 . S
C1472 C1473 1.434 1_455 S
C1473 C1464 1.429 . S
C1473 N1470 1.350 . S
C1473 C1472 1.434 1_655 S
C1474 C1475 1.369 . S
C1474 C1476 1.419 1_545 S
C1474 H1478 0.930 . S
C1475 C1474 1.369 . S
C1475 C1484 1.429 . S
C1476 C1474 1.419 1_565 S
C1476 C1477 1.363 . S
C1476 H1479 0.929 . S
C1477 C1476 1.363 . S
C1477 C1483 1.428 . S
H1478 C1474 0.930 . S
H1479 C1476 0.929 . S
S1480 N1481 1.612 1_565 S
S1480 N1482 1.611 . S
N1481 S1480 1.612 1_545 S
N1481 C1484 1.350 . S
N1482 S1480 1.611 . S
N1482 C1483 1.351 . S
C1483 C1477 1.428 . S
C1483 N1482 1.351 . S
C1483 C1484 1.434 1_565 S
C1484 C1475 1.429 . S
C1484 N1481 1.350 . S
C1484 C1483 1.434 1_545 S
C1485 C1486 1.369 . S
C1485 C1487 1.419 1_455 S
C1485 H1489 0.930 . S
C1486 C1485 1.369 . S
C1486 C1495 1.429 . S
C1487 C1485 1.419 1_655 S
C1487 C1488 1.363 . S
C1487 H1490 0.929 . S
C1488 C1487 1.363 . S
C1488 C1494 1.428 . S
H1489 C1485 0.930 . S
H1490 C1487 0.929 . S
S1491 N1492 1.617 . S
S1491 N1493 1.607 1_455 S
N1492 S1491 1.617 . S
N1492 C1495 1.350 . S
N1493 S1491 1.607 1_655 S
N1493 C1494 1.351 . S
C1494 C1488 1.428 . S
C1494 N1493 1.351 . S
C1494 C1495 1.434 1_655 S
C1495 C1486 1.429 . S
C1495 N1492 1.350 . S
C1495 C1494 1.434 1_455 S
C1496 C1497 1.356 1_556 S
C1496 C1498 1.419 . S
C1496 H1500 0.930 . S
C1497 C1496 1.356 1_554 S
C1497 C1506 1.442 . S
C1498 C1496 1.419 . S
C1498 C1499 1.359 1_556 S
C1498 H1501 0.929 . S
C1499 C1498 1.359 1_554 S
C1499 C1505 1.432 . S
H1500 C1496 0.930 . S
H1501 C1498 0.929 . S
S1502 N1503 1.613 . S
S1502 N1504 1.610 . S
N1503 S1502 1.613 . S
N1503 C1506 1.350 . S
N1504 S1502 1.610 . S
N1504 C1505 1.351 . S
C1505 C1499 1.432 . S
C1505 N1504 1.351 . S
C1505 C1506 1.434 . S
C1506 C1497 1.442 . S
C1506 N1503 1.350 . S
C1506 C1505 1.434 . S
C1507 C1508 1.359 1_554 S
C1507 C1509 1.419 . S
C1507 H1511 0.930 . S
C1508 C1507 1.359 1_556 S
C1508 C1517 1.439 . S
C1509 C1507 1.419 . S
C1509 C1510 1.363 1_554 S
C1509 H1512 0.929 . S
C1510 C1509 1.363 1_556 S
C1510 C1516 1.429 . S
H1511 C1507 0.930 . S
H1512 C1509 0.929 . S
S1513 N1514 1.613 . S
S1513 N1515 1.610 . S
N1514 S1513 1.613 . S
N1514 C1517 1.350 . S
N1515 S1513 1.610 . S
N1515 C1516 1.351 . S
C1516 C1510 1.429 . S
C1516 N1515 1.351 . S
C1516 C1517 1.434 . S
C1517 C1508 1.439 . S
C1517 N1514 1.350 . S
C1517 C1516 1.434 . S
C1518 C1519 1.365 1_554 S
C1518 C1520 1.419 . S
C1518 H1522 0.930 . S
C1519 C1518 1.365 1_556 S
C1519 C1528 1.433 . S
C1520 C1518 1.419 . S
C1520 C1521 1.353 1_554 S
C1520 H1523 0.929 . S
C1521 C1520 1.353 1_556 S
C1521 C1527 1.439 . S
H1522 C1518 0.930 . S
H1523 C1520 0.929 . S
S1524 N1525 1.613 . S
S1524 N1526 1.610 . S
N1525 S1524 1.613 . S
N1525 C1528 1.350 . S
N1526 S1524 1.610 . S
N1526 C1527 1.351 . S
C1527 C1521 1.439 . S
C1527 N1526 1.351 . S
C1527 C1528 1.434 . S
C1528 C1519 1.433 . S
C1528 N1525 1.350 . S
C1528 C1527 1.434 . S
C1529 C1530 1.370 . S
C1529 C1531 1.419 . S
C1529 H1533 0.930 . S
C1530 C1529 1.370 . S
C1530 C1539 1.428 1_556 S
C1531 C1529 1.419 . S
C1531 C1532 1.362 1_556 S
C1531 H1534 0.929 . S
C1532 C1531 1.362 1_554 S
C1532 C1538 1.429 . S
H1533 C1529 0.930 . S
H1534 C1531 0.929 . S
S1535 N1536 1.613 . S
S1535 N1537 1.610 . S
N1536 S1535 1.613 . S
N1536 C1539 1.350 . S
N1537 S1535 1.610 . S
N1537 C1538 1.351 . S
C1538 C1532 1.429 . S
C1538 N1537 1.351 . S
C1538 C1539 1.434 . S
C1539 C1530 1.428 1_554 S
C1539 N1536 1.350 . S
C1539 C1538 1.434 . S
C1540 C1541 1.369 . S
C1540 C1542 1.419 . S
C1540 H1544 0.930 . S
C1541 C1540 1.369 . S
C1541 C1550 1.429 . S
C1542 C1540 1.419 . S
C1542 C1543 1.363 . S
C1542 H1545 0.929 . S
C1543 C1542 1.363 . S
C1543 C1549 1.428 . S
H1544 C1540 0.930 . S
H1545 C1542 0.929 . S
S1546 N1547 1.613 . S
S1546 N1548 1.610 . S
N1547 S1546 1.613 . S
N1547 C1550 1.350 . S
N1548 S1546 1.610 . S
N1548 C1549 1.351 . S
C1549 C1543 1.428 . S
C1549 N1548 1.351 . S
C1549 C1550 1.434 . S
C1550 C1541 1.429 . S
C1550 N1547 1.350 . S
C1550 C1549 1.434 . S
C1551 C1552 1.369 . S
C1551 C1553 1.419 . S
C1551 H1555 0.930 . S
C1552 C1551 1.369 . S
C1552 C1561 1.429 . S
C1553 C1551 1.419 . S
C1553 C1554 1.363 . S
C1553 H1556 0.929 . S
C1554 C1553 1.363 . S
C1554 C1560 1.428 . S
H1555 C1551 0.930 . S
H1556 C1553 0.929 . S
S1557 N1558 1.613 . S
S1557 N1559 1.610 . S
N1558 S1557 1.613 . S
N1558 C1561 1.350 . S
N1559 S1557 1.610 . S
N1559 C1560 1.351 . S
C1560 C1554 1.428 . S
C1560 N1559 1.351 . S
C1560 C1561 1.434 . S
C1561 C1552 1.429 . S
C1561 N1558 1.350 . S
C1561 C1560 1.434 . S
C1562 C1563 1.369 . S
C1562 C1564 1.419 . S
C1562 H1566 0.930 . S
C1563 C1562 1.369 . S
C1563 C1572 1.429 . S
C1564 C1562 1.419 . S
C1564 C1565 1.363 . S
C1564 H1567 0.929 . S
C1565 C1564 1.363 . S
C1565 C1571 1.428 . S
H1566 C1562 0.930 . S
H1567 C1564 0.929 . S
S1568 N1569 1.613 . S
S1568 N1570 1.610 . S
N1569 S1568 1.613 . S
N1569 C1572 1.350 . S
N1570 S1568 1.610 . S
N1570 C1571 1.351 . S
C1571 C1565 1.428 . S
C1571 N1570 1.351 . S
C1571 C1572 1.434 . S
C1572 C1563 1.429 . S
C1572 N1569 1.350 . S
C1572 C1571 1.434 . S
C1573 C1574 1.369 . S
C1573 C1575 1.419 . S
C1573 H1577 0.930 . S
C1574 C1573 1.369 . S
C1574 C1583 1.429 . S
C1575 C1573 1.419 . S
C1575 C1576 1.363 . S
C1575 H1578 0.929 . S
C1576 C1575 1.363 . S
C1576 C1582 1.428 . S
H1577 C1573 0.930 . S
H1578 C1575 0.929 . S
S1579 N1580 1.613 . S
S1579 N1581 1.610 . S
N1580 S1579 1.613 . S
N1580 C1583 1.350 . S
N1581 S1579 1.610 . S
N1581 C1582 1.351 . S
C1582 C1576 1.428 . S
C1582 N1581 1.351 . S
C1582 C1583 1.434 . S
C1583 C1574 1.429 . S
C1583 N1580 1.350 . S
C1583 C1582 1.434 . S
C1584 C1585 1.369 . S
C1584 C1586 1.419 . S
C1584 H1588 0.930 . S
C1585 C1584 1.369 . S
C1585 C1594 1.429 . S
C1586 C1584 1.419 . S
C1586 C1587 1.363 . S
C1586 H1589 0.929 . S
C1587 C1586 1.363 . S
C1587 C1593 1.428 . S
H1588 C1584 0.930 . S
H1589 C1586 0.929 . S
S1590 N1591 1.613 . S
S1590 N1592 1.610 . S
N1591 S1590 1.613 . S
N1591 C1594 1.350 . S
N1592 S1590 1.610 . S
N1592 C1593 1.351 . S
C1593 C1587 1.428 . S
C1593 N1592 1.351 . S
C1593 C1594 1.434 . S
C1594 C1585 1.429 . S
C1594 N1591 1.350 . S
C1594 C1593 1.434 . S
C1595 C1596 1.369 . S
C1595 C1597 1.419 . S
C1595 H1599 0.930 . S
C1596 C1595 1.369 . S
C1596 C1605 1.429 . S
C1597 C1595 1.419 . S
C1597 C1598 1.363 . S
C1597 H1600 0.929 . S
C1598 C1597 1.363 . S
C1598 C1604 1.428 . S
H1599 C1595 0.930 . S
H1600 C1597 0.929 . S
S1601 N1602 1.613 . S
S1601 N1603 1.610 . S
N1602 S1601 1.613 . S
N1602 C1605 1.350 . S
N1603 S1601 1.610 . S
N1603 C1604 1.351 . S
C1604 C1598 1.428 . S
C1604 N1603 1.351 . S
C1604 C1605 1.434 . S
C1605 C1596 1.429 . S
C1605 N1602 1.350 . S
C1605 C1604 1.434 . S
C1606 C1607 1.369 . S
C1606 C1608 1.419 . S
C1606 H1610 0.930 . S
C1607 C1606 1.369 . S
C1607 C1616 1.429 . S
C1608 C1606 1.419 . S
C1608 C1609 1.363 . S
C1608 H1611 0.929 . S
C1609 C1608 1.363 . S
C1609 C1615 1.428 . S
H1610 C1606 0.930 . S
H1611 C1608 0.929 . S
S1612 N1613 1.613 . S
S1612 N1614 1.610 . S
N1613 S1612 1.613 . S
N1613 C1616 1.350 . S
N1614 S1612 1.610 . S
N1614 C1615 1.351 . S
C1615 C1609 1.428 . S
C1615 N1614 1.351 . S
C1615 C1616 1.434 . S
C1616 C1607 1.429 . S
C1616 N1613 1.350 . S
C1616 C1615 1.434 . S
C1617 C1618 1.369 . S
C1617 C1619 1.419 . S
C1617 H1621 0.930 . S
C1618 C1617 1.369 . S
C1618 C1627 1.429 . S
C1619 C1617 1.419 . S
C1619 C1620 1.363 . S
C1619 H1622 0.929 . S
C1620 C1619 1.363 . S
C1620 C1626 1.428 . S
H1621 C1617 0.930 . S
H1622 C1619 0.929 . S
S1623 N1624 1.613 . S
S1623 N1625 1.610 . S
N1624 S1623 1.613 . S
N1624 C1627 1.350 . S
N1625 S1623 1.610 . S
N1625 C1626 1.351 . S
C1626 C1620 1.428 . S
C1626 N1625 1.351 . S
C1626 C1627 1.434 . S
C1627 C1618 1.429 . S
C1627 N1624 1.350 . S
C1627 C1626 1.434 . S
C1628 C1629 1.369 . S
C1628 C1630 1.419 . S
C1628 H1632 0.930 . S
C1629 C1628 1.369 . S
C1629 C1638 1.429 . S
C1630 C1628 1.419 . S
C1630 C1631 1.363 . S
C1630 H1633 0.929 . S
C1631 C1630 1.363 . S
C1631 C1637 1.428 . S
H1632 C1628 0.930 . S
H1633 C1630 0.929 . S
S1634 N1635 1.613 . S
S1634 N1636 1.610 . S
N1635 S1634 1.613 . S
N1635 C1638 1.350 . S
N1636 S1634 1.610 . S
N1636 C1637 1.351 . S
C1637 C1631 1.428 . S
C1637 N1636 1.351 . S
C1637 C1638 1.434 . S
C1638 C1629 1.429 . S
C1638 N1635 1.350 . S
C1638 C1637 1.434 . S
C1639 C1640 1.369 . S
C1639 C1641 1.419 . S
C1639 H1643 0.930 . S
C1640 C1639 1.369 . S
C1640 C1649 1.429 . S
C1641 C1639 1.419 . S
C1641 C1642 1.363 . S
C1641 H1644 0.929 . S
C1642 C1641 1.363 . S
C1642 C1648 1.428 . S
H1643 C1639 0.930 . S
H1644 C1641 0.929 . S
S1645 N1646 1.613 . S
S1645 N1647 1.610 . S
N1646 S1645 1.613 . S
N1646 C1649 1.350 . S
N1647 S1645 1.610 . S
N1647 C1648 1.351 . S
C1648 C1642 1.428 . S
C1648 N1647 1.351 . S
C1648 C1649 1.434 . S
C1649 C1640 1.429 . S
C1649 N1646 1.350 . S
C1649 C1648 1.434 . S
C1650 C1651 1.369 . S
C1650 C1652 1.419 . S
C1650 H1654 0.930 . S
C1651 C1650 1.369 . S
C1651 C1660 1.429 . S
C1652 C1650 1.419 . S
C1652 C1653 1.363 . S
C1652 H1655 0.929 . S
C1653 C1652 1.363 . S
C1653 C1659 1.428 . S
H1654 C1650 0.930 . S
H1655 C1652 0.929 . S
S1656 N1657 1.613 . S
S1656 N1658 1.610 . S
N1657 S1656 1.613 . S
N1657 C1660 1.350 . S
N1658 S1656 1.610 . S
N1658 C1659 1.351 . S
C1659 C1653 1.428 . S
C1659 N1658 1.351 . S
C1659 C1660 1.434 . S
C1660 C1651 1.429 . S
C1660 N1657 1.350 . S
C1660 C1659 1.434 . S
C1661 C1662 1.369 . S
C1661 C1663 1.419 . S
C1661 H1665 0.930 . S
C1662 C1661 1.369 . S
C1662 C1671 1.429 . S
C1663 C1661 1.419 . S
C1663 C1664 1.363 . S
C1663 H1666 0.929 . S
C1664 C1663 1.363 . S
C1664 C1670 1.428 . S
H1665 C1661 0.930 . S
H1666 C1663 0.929 . S
S1667 N1668 1.613 . S
S1667 N1669 1.610 . S
N1668 S1667 1.613 . S
N1668 C1671 1.350 . S
N1669 S1667 1.610 . S
N1669 C1670 1.351 . S
C1670 C1664 1.428 . S
C1670 N1669 1.351 . S
C1670 C1671 1.434 . S
C1671 C1662 1.429 . S
C1671 N1668 1.350 . S
C1671 C1670 1.434 . S
C1672 C1673 1.369 . S
C1672 C1674 1.419 . S
C1672 H1676 0.930 . S
C1673 C1672 1.369 . S
C1673 C1682 1.429 . S
C1674 C1672 1.419 . S
C1674 C1675 1.363 . S
C1674 H1677 0.929 . S
C1675 C1674 1.363 . S
C1675 C1681 1.428 . S
H1676 C1672 0.930 . S
H1677 C1674 0.929 . S
S1678 N1679 1.613 . S
S1678 N1680 1.610 . S
N1679 S1678 1.613 . S
N1679 C1682 1.350 . S
N1680 S1678 1.610 . S
N1680 C1681 1.351 . S
C1681 C1675 1.428 . S
C1681 N1680 1.351 . S
C1681 C1682 1.434 . S
C1682 C1673 1.429 . S
C1682 N1679 1.350 . S
C1682 C1681 1.434 . S
C1683 C1684 1.369 . S
C1683 C1685 1.419 . S
C1683 H1687 0.930 . S
C1684 C1683 1.369 . S
C1684 C1693 1.429 . S
C1685 C1683 1.419 . S
C1685 C1686 1.363 . S
C1685 H1688 0.929 . S
C1686 C1685 1.363 . S
C1686 C1692 1.428 . S
H1687 C1683 0.930 . S
H1688 C1685 0.929 . S
S1689 N1690 1.613 . S
S1689 N1691 1.610 . S
N1690 S1689 1.613 . S
N1690 C1693 1.350 . S
N1691 S1689 1.610 . S
N1691 C1692 1.351 . S
C1692 C1686 1.428 . S
C1692 N1691 1.351 . S
C1692 C1693 1.434 . S
C1693 C1684 1.429 . S
C1693 N1690 1.350 . S
C1693 C1692 1.434 . S
C1694 C1695 1.369 . S
C1694 C1696 1.419 . S
C1694 H1698 0.930 . S
C1695 C1694 1.369 . S
C1695 C1704 1.429 . S
C1696 C1694 1.419 . S
C1696 C1697 1.363 . S
C1696 H1699 0.929 . S
C1697 C1696 1.363 . S
C1697 C1703 1.428 . S
H1698 C1694 0.930 . S
H1699 C1696 0.929 . S
S1700 N1701 1.613 . S
S1700 N1702 1.610 . S
N1701 S1700 1.613 . S
N1701 C1704 1.350 . S
N1702 S1700 1.610 . S
N1702 C1703 1.351 . S
C1703 C1697 1.428 . S
C1703 N1702 1.351 . S
C1703 C1704 1.434 . S
C1704 C1695 1.429 . S
C1704 N1701 1.350 . S
C1704 C1703 1.434 . S
C1705 C1706 1.369 . S
C1705 C1707 1.419 . S
C1705 H1709 0.930 . S
C1706 C1705 1.369 . S
C1706 C1715 1.429 . S
C1707 C1705 1.419 . S
C1707 C1708 1.363 . S
C1707 H1710 0.929 . S
C1708 C1707 1.363 . S
C1708 C1714 1.428 . S
H1709 C1705 0.930 . S
H1710 C1707 0.929 . S
S1711 N1712 1.613 . S
S1711 N1713 1.610 . S
N1712 S1711 1.613 . S
N1712 C1715 1.350 . S
N1713 S1711 1.610 . S
N1713 C1714 1.351 . S
C1714 C1708 1.428 . S
C1714 N1713 1.351 . S
C1714 C1715 1.434 . S
C1715 C1706 1.429 . S
C1715 N1712 1.350 . S
C1715 C1714 1.434 . S
C1716 C1717 1.369 . S
C1716 C1718 1.419 . S
C1716 H1720 0.930 . S
C1717 C1716 1.369 . S
C1717 C1726 1.429 . S
C1718 C1716 1.419 . S
C1718 C1719 1.363 . S
C1718 H1721 0.929 . S
C1719 C1718 1.363 . S
C1719 C1725 1.428 . S
H1720 C1716 0.930 . S
H1721 C1718 0.929 . S
S1722 N1723 1.613 . S
S1722 N1724 1.610 . S
N1723 S1722 1.613 . S
N1723 C1726 1.350 . S
N1724 S1722 1.610 . S
N1724 C1725 1.351 . S
C1725 C1719 1.428 . S
C1725 N1724 1.351 . S
C1725 C1726 1.434 . S
C1726 C1717 1.429 . S
C1726 N1723 1.350 . S
C1726 C1725 1.434 . S
C1727 C1728 1.369 . S
C1727 C1729 1.419 . S
C1727 H1731 0.930 . S
C1728 C1727 1.369 . S
C1728 C1737 1.429 . S
C1729 C1727 1.419 . S
C1729 C1730 1.363 . S
C1729 H1732 0.929 . S
C1730 C1729 1.363 . S
C1730 C1736 1.428 . S
H1731 C1727 0.930 . S
H1732 C1729 0.929 . S
S1733 N1734 1.613 . S
S1733 N1735 1.610 . S
N1734 S1733 1.613 . S
N1734 C1737 1.350 . S
N1735 S1733 1.610 . S
N1735 C1736 1.351 . S
C1736 C1730 1.428 . S
C1736 N1735 1.351 . S
C1736 C1737 1.434 . S
C1737 C1728 1.429 . S
C1737 N1734 1.350 . S
C1737 C1736 1.434 . S
C1738 C1739 1.369 . S
C1738 C1740 1.419 . S
C1738 H1742 0.930 . S
C1739 C1738 1.369 . S
C1739 C1748 1.429 . S
C1740 C1738 1.419 . S
C1740 C1741 1.363 . S
C1740 H1743 0.929 . S
C1741 C1740 1.363 . S
C1741 C1747 1.428 . S
H1742 C1738 0.930 . S
H1743 C1740 0.929 . S
S1744 N1745 1.613 . S
S1744 N1746 1.610 . S
N1745 S1744 1.613 . S
N1745 C1748 1.350 . S
N1746 S1744 1.610 . S
N1746 C1747 1.351 . S
C1747 C1741 1.428 . S
C1747 N1746 1.351 . S
C1747 C1748 1.434 . S
C1748 C1739 1.429 . S
C1748 N1745 1.350 . S
C1748 C1747 1.434 . S
C1749 C1750 1.369 . S
C1749 C1751 1.419 . S
C1749 H1753 0.930 . S
C1750 C1749 1.369 . S
C1750 C1759 1.429 . S
C1751 C1749 1.419 . S
C1751 C1752 1.363 . S
C1751 H1754 0.929 . S
C1752 C1751 1.363 . S
C1752 C1758 1.428 . S
H1753 C1749 0.930 . S
H1754 C1751 0.929 . S
S1755 N1756 1.613 . S
S1755 N1757 1.610 . S
N1756 S1755 1.613 . S
N1756 C1759 1.350 . S
N1757 S1755 1.610 . S
N1757 C1758 1.351 . S
C1758 C1752 1.428 . S
C1758 N1757 1.351 . S
C1758 C1759 1.434 . S
C1759 C1750 1.429 . S
C1759 N1756 1.350 . S
C1759 C1758 1.434 . S
C1409 C409 0.977 . S
C1411 C20 0.977 1_556 S
C1420 C489 0.976 . S
C1422 C108 0.977 1_556 S
C1431 C585 0.977 . S
C1433 C205 0.977 1_556 S
C1442 C673 0.978 1_554 S
C1444 C293 0.978 1_556 S
C1453 C1105 0.978 . S
C1455 C724 0.978 . S
C1464 C1193 0.979 . S
C1466 C812 0.978 . S
C1475 C909 0.979 . S
C1477 C1281 0.978 . S
C1486 C1377 0.977 . S
C1488 C997 0.978 . S
C1497 C49 1.344 . S
C1499 C460 1.343 . S
C1508 C557 1.341 1_556 S
C1510 C137 1.341 1_556 S
C1519 C233 1.341 1_556 S
C1521 C645 1.341 1_556 S
C1530 C381 1.339 1_556 S
C1532 C321 1.340 . S
C1541 C1164 1.340 . S
C1543 C753 1.340 . S
C1552 C1252 1.340 . S
C1554 C841 1.340 . S
C1563 C937 1.339 . S
C1565 C1349 1.340 . S
C1574 C1025 1.341 . S
C1576 C1076 1.341 . S
C1585 C1369 1.543 . S
C1587 C29 1.541 . S
C1596 C1113 1.542 . S
C1598 C117 1.540 . S
C1607 C1201 1.543 . S
C1609 C196 1.540 . S
C1618 C1289 1.543 . S
C1620 C284 1.540 . S
C1629 C821 1.544 . S
C1631 C401 1.546 . S
C1640 C900 1.542 . S
C1642 C497 1.545 . S
C1651 C577 1.542 . S
C1653 C988 1.545 . S
C1662 C665 1.543 . S
C1664 C733 1.546 . S
C1673 C1173 1.542 . S
C1675 C225 1.546 . S
C1684 C1261 1.543 . S
C1686 C313 1.545 . S
C1695 C1340 1.544 . S
C1697 C57 1.546 . S
C1706 C145 1.542 . S
C1708 C1085 1.545 . S
C1717 C1017 1.544 . S
C1719 C548 1.541 . S
C1728 C636 1.543 . S
C1730 C761 1.540 . S
C1739 C849 1.543 . S
C1741 C372 1.542 . S
C1750 C929 1.545 . S
C1752 C469 1.542 . S
