# Generated by pormake.
# Topology qdl, (4)-cn, num edge types: 1
# Building blocks:
#     Node 0, Type 0, BuildingBlock: KOZSID_clean_sbu_0, # of connection points: 4
#     Node 1, Type 0, BuildingBlock: KOZSID_clean_sbu_0, # of connection points: 4
#     Node 2, Type 0, BuildingBlock: KOZSID_clean_sbu_0, # of connection points: 4
#     Node 3, Type 0, BuildingBlock: KOZSID_clean_sbu_0, # of connection points: 4
#     Node 4, Type 0, BuildingBlock: KOZSID_clean_sbu_0, # of connection points: 4
#     Node 5, Type 0, BuildingBlock: KOZSID_clean_sbu_0, # of connection points: 4
#     Edge 6, Type (0, 0), BuildingBlock: FUNLAD_clean_linker_0, # of connection points: 2
#     Edge 7, Type (0, 0), BuildingBlock: FUNLAD_clean_linker_0, # of connection points: 2
#     Edge 8, Type (0, 0), BuildingBlock: FUNLAD_clean_linker_0, # of connection points: 2
#     Edge 9, Type (0, 0), BuildingBlock: FUNLAD_clean_linker_0, # of connection points: 2
#     Edge 10, Type (0, 0), BuildingBlock: FUNLAD_clean_linker_0, # of connection points: 2
#     Edge 11, Type (0, 0), BuildingBlock: FUNLAD_clean_linker_0, # of connection points: 2
#     Edge 12, Type (0, 0), BuildingBlock: FUNLAD_clean_linker_0, # of connection points: 2
#     Edge 13, Type (0, 0), BuildingBlock: FUNLAD_clean_linker_0, # of connection points: 2
#     Edge 14, Type (0, 0), BuildingBlock: FUNLAD_clean_linker_0, # of connection points: 2
#     Edge 15, Type (0, 0), BuildingBlock: FUNLAD_clean_linker_0, # of connection points: 2
#     Edge 16, Type (0, 0), BuildingBlock: FUNLAD_clean_linker_0, # of connection points: 2
#     Edge 17, Type (0, 0), BuildingBlock: FUNLAD_clean_linker_0, # of connection points: 2
# Relax obj value: 0.000
# Max RMSD: 0.050
# Mean RMSD: 0.048
data_MOF--net-qdl--node1-KOZSID_clean_sbu_0--edge1-FUNLAD_clean_linker_0
_symmetry_space_group_name_H-M    P1
_symmetry_Int_Tables_number       1
_symmetry_cell_setting            triclinic
loop_
_symmetry_equiv_pos_as_xyz
'x, y, z'
_cell_length_a     19.144237
_cell_length_b     19.138098
_cell_length_c     131.70186
_cell_angle_alpha  101.68888
_cell_angle_beta   101.61181
_cell_angle_gamma 120.02635
loop_
_atom_site_label
_atom_site_type_symbol
_atom_site_fract_x
_atom_site_fract_y
_atom_site_fract_z
_atom_type_partial_charge
C0 C 0.30071 0.52614 0.10032 0.0
C1 C 0.22413 0.5211 0.09868 0.0
C2 C 0.1593 0.43552 0.095 0.0
C3 C 0.19975 0.3934 0.09457 0.0
N4 N 0.28679 0.447 0.09795 0.0
Co5 Co 0.37093 0.41359 0.0981 0.0
N6 N 0.27495 0.28759 0.0917 0.0
C7 C 0.18909 0.25212 0.0887 0.0
C8 C 0.13949 0.16356 0.08489 0.0
C9 C 0.19714 0.14108 0.0857 0.0
C10 C 0.27876 0.21763 0.08999 0.0
N11 N 0.45502 0.38021 0.09819 0.0
C12 C 0.44111 0.30107 0.09575 0.0
C13 C 0.51761 0.3061 0.09724 0.0
C14 C 0.58238 0.39169 0.1009 0.0
C15 C 0.54196 0.43381 0.10145 0.0
N16 N 0.46692 0.53955 0.10455 0.0
C17 C 0.55278 0.57497 0.10765 0.0
C18 C 0.60247 0.66355 0.11153 0.0
C19 C 0.54487 0.6861 0.1107 0.0
C20 C 0.46319 0.60956 0.1063 0.0
N21 N 0.37903 0.41091 0.1133 0.0
C22 C 0.38939 0.40288 0.1347 0.0
C23 C 0.46371 0.44335 0.13204 0.0
C24 C 0.45712 0.44657 0.1214 0.0
C25 C 0.30991 0.36694 0.12646 0.0
C26 C 0.30625 0.37158 0.11593 0.0
N27 N 0.36278 0.41627 0.08289 0.0
C28 C 0.43125 0.46273 0.06977 0.0
C29 C 0.35119 0.42399 0.06146 0.0
C30 C 0.2771 0.38108 0.06409 0.0
C31 C 0.2843 0.37803 0.07473 0.0
C32 C 0.43551 0.45809 0.08031 0.0
H33 H 0.22536 0.34501 0.07618 0.0
H34 H 0.49845 0.48916 0.08625 0.0
H35 H 0.51608 0.47763 0.1199 0.0
H36 H 0.24364 0.34257 0.11006 0.0
C37 C 0.15748 0.30373 0.09028 0.0
C38 C 0.38416 0.6066 0.10328 0.0
C39 C 0.35789 0.22068 0.0929 0.0
C40 C 0.58428 0.52339 0.10591 0.0
H41 H 0.21562 0.57356 0.0997 0.0
H42 H 0.09062 0.40723 0.09254 0.0
H43 H 0.06991 0.1206 0.08221 0.0
H44 H 0.18126 0.07591 0.08366 0.0
H45 H 0.52616 0.25366 0.09616 0.0
H46 H 0.65103 0.42 0.10329 0.0
H47 H 0.67208 0.70648 0.11426 0.0
H48 H 0.56084 0.75131 0.11277 0.0
H49 H 0.52684 0.47134 0.13809 0.0
H50 H 0.25043 0.336 0.12812 0.0
H51 H 0.49061 0.49589 0.06813 0.0
H52 H 0.21352 0.35106 0.05801 0.0
C53 C 0.40743 0.23221 0.42885 0.0
C54 C 0.48514 0.31172 0.43481 0.0
C55 C 0.46555 0.37139 0.43684 0.0
C56 C 0.37739 0.32496 0.43206 0.0
N57 N 0.33932 0.23898 0.42726 0.0
Co58 Co 0.2131 0.14746 0.41907 0.0
N59 N 0.18505 0.23613 0.42092 0.0
C60 C 0.24132 0.32298 0.42578 0.0
C61 C 0.20231 0.36657 0.4261 0.0
C62 C 0.1159 0.30383 0.42133 0.0
C63 C 0.10729 0.22529 0.41835 0.0
N64 N 0.08676 0.05587 0.41101 0.0
C65 C 0.01866 0.06262 0.40955 0.0
C66 C 0.94071 0.98288 0.40384 0.0
C67 C 0.96016 0.92309 0.40183 0.0
C68 C 0.04845 0.96969 0.4064 0.0
N69 N 0.24129 0.0589 0.4171 0.0
C70 C 0.18524 0.97221 0.412 0.0
C71 C 0.22434 0.92876 0.4115 0.0
C72 C 0.31067 0.99148 0.41638 0.0
C73 C 0.31912 0.06984 0.41962 0.0
N74 N 0.19824 0.13598 0.4333 0.0
C75 C 0.17244 0.11998 0.45332 0.0
C76 C 0.13995 0.04708 0.44407 0.0
C77 C 0.15349 0.05646 0.43425 0.0
C78 C 0.21846 0.20098 0.45236 0.0
C79 C 0.23054 0.20742 0.44239 0.0
N80 N 0.22803 0.15907 0.40484 0.0
C81 C 0.20155 0.09482 0.38546 0.0
C82 C 0.25417 0.17615 0.38488 0.0
C83 C 0.29286 0.24871 0.39444 0.0
C84 C 0.27886 0.23882 0.40422 0.0
C85 C 0.18969 0.08781 0.39544 0.0
H86 H 0.31029 0.29679 0.41117 0.0
H87 H 0.1499 0.024 0.39535 0.0
H88 H 0.12672 0.99837 0.42751 0.0
H89 H 0.26547 0.27099 0.44223 0.0
C90 C 0.32951 0.36091 0.43099 0.0
C91 C 0.4021 0.15317 0.42426 0.0
C92 C 0.02435 0.14207 0.41399 0.0
C93 C 0.09674 0.93409 0.40713 0.0
H94 H 0.54943 0.32529 0.43712 0.0
H95 H 0.51046 0.44071 0.44092 0.0
H96 H 0.23286 0.43547 0.42981 0.0
H97 H 0.06507 0.31465 0.42052 0.0
H98 H 0.87643 0.96931 0.40164 0.0
H99 H 0.91518 0.8537 0.39785 0.0
H100 H 0.19385 0.85995 0.40769 0.0
H101 H 0.36159 0.9808 0.41715 0.0
H102 H 0.10471 0.98284 0.44441 0.0
H103 H 0.24387 0.25952 0.45921 0.0
H104 H 0.17081 0.03652 0.3783 0.0
H105 H 0.33326 0.31324 0.39439 0.0
C106 C 0.19643 0.45814 0.7572 0.0
C107 C 0.18959 0.52786 0.75814 0.0
C108 C 0.10457 0.49631 0.7561 0.0
C109 C 0.06452 0.40955 0.75403 0.0
N110 N 0.119 0.38385 0.75476 0.0
Co111 Co 0.08812 0.26329 0.75219 0.0
N112 N 0.96195 0.21556 0.74794 0.0
C113 C 0.92486 0.25951 0.74701 0.0
C114 C 0.83678 0.20907 0.74398 0.0
C115 C 0.8164 0.12822 0.74304 0.0
C116 C 0.89368 0.13431 0.74562 0.0
N117 N 0.05741 0.14304 0.74993 0.0
C118 C 0.9801 0.06915 0.74768 0.0
C119 C 0.98752 1.00032 0.74742 0.0
C120 C 0.07277 0.03201 0.7497 0.0
C121 C 0.11237 0.11801 0.75127 0.0
N122 N 0.2141 0.31071 0.75613 0.0
C123 C 0.25088 0.26612 0.75652 0.0
C124 C 0.33841 0.3158 0.75901 0.0
C125 C 0.35868 0.39676 0.76006 0.0
C126 C 0.2819 0.39153 0.75813 0.0
N127 N 0.0993 0.28159 0.76801 0.0
C128 C 0.11199 0.30394 0.79035 0.0
C129 C 0.15785 0.27666 0.78575 0.0
C130 C 0.15032 0.26563 0.77467 0.0
C131 C 0.05998 0.32021 0.78355 0.0
C132 C 0.055 0.30918 0.77255 0.0
N133 N 0.07708 0.2452 0.73638 0.0
C134 C 0.10468 0.19321 0.72033 0.0
C135 C 0.06955 0.22754 0.7143 0.0
C136 C 0.03687 0.2695 0.71947 0.0
C137 C 0.04099 0.27728 0.73039 0.0
C138 C 0.10785 0.20275 0.73125 0.0
H139 H 1.01514 0.31017 0.73382 0.0
H140 H 0.13655 0.1762 0.73542 0.0
H141 H 0.18632 0.2439 0.77169 0.0
H142 H 1.01425 0.32279 0.76786 0.0
C143 C 0.97519 0.34941 0.75018 0.0
C144 C 0.27635 0.46434 0.75789 0.0
C145 C 0.89929 0.06234 0.74637 0.0
C146 C 0.20113 0.17725 0.75427 0.0
H147 H 0.24024 0.59415 0.75977 0.0
H148 H 0.07494 0.53174 0.7557 0.0
H149 H 0.79299 0.22932 0.74299 0.0
H150 H 0.75226 0.0716 0.74101 0.0
H151 H 0.9369 0.93443 0.74597 0.0
H152 H 0.10262 0.99697 0.75039 0.0
H153 H 0.382 0.29526 0.75975 0.0
H154 H 0.42246 0.45306 0.76185 0.0
H155 H 0.20022 0.26444 0.79067 0.0
H156 H 0.02194 0.34016 0.78661 0.0
H157 H 0.13152 0.16072 0.71673 0.0
H158 H 1.00768 0.29599 0.71509 0.0
C159 C 0.97645 0.2 0.57959 0.0
C160 C 0.98246 0.27714 0.58137 0.0
C161 C 0.06837 0.34166 0.58554 0.0
C162 C 0.10962 0.30035 0.58603 0.0
N163 N 0.05526 0.21317 0.58227 0.0
Co164 Co 0.08719 0.12768 0.58167 0.0
N165 N 0.2135 0.22285 0.58873 0.0
C166 C 0.24954 0.309 0.59226 0.0
C167 C 0.33801 0.35821 0.59648 0.0
C168 C 0.36 0.30016 0.59547 0.0
C169 C 0.28325 0.21854 0.59068 0.0
N170 N 0.11917 0.0422 0.58098 0.0
C171 C 0.19799 0.05538 0.5836 0.0
C172 C 0.19199 0.97818 0.58166 0.0
C173 C 0.1061 0.91363 0.57744 0.0
C174 C 0.06486 0.95499 0.57708 0.0
N175 N 0.96086 0.03254 0.57469 0.0
C176 C 0.92476 0.94641 0.57131 0.0
C177 C 0.83628 0.89721 0.56724 0.0
C178 C 0.81433 0.95528 0.5682 0.0
C179 C 0.89113 0.03688 0.57281 0.0
N180 N 0.09393 0.12557 0.56673 0.0
C181 C 0.11278 0.12365 0.54596 0.0
C182 C 0.06512 0.04671 0.54783 0.0
C183 C 0.05658 0.04914 0.55818 0.0
C184 C 0.14902 0.20138 0.5546 0.0
C185 C 0.13881 0.20086 0.56479 0.0
N186 N 0.08081 0.12991 0.59662 0.0
C187 C 0.03631 0.05563 0.60931 0.0
C188 C 0.07171 0.13364 0.61784 0.0
C189 C 0.1114 0.20966 0.61554 0.0
C190 C 0.11533 0.20636 0.60499 0.0
C191 C 0.04126 0.05521 0.59885 0.0
H192 H 0.14675 0.26666 0.60383 0.0
H193 H 1.01227 0.9936 0.5927 0.0
H194 H 0.0205 0.98835 0.55911 0.0
H195 H 0.16864 0.26235 0.57101 0.0
C196 C 0.19888 0.34165 0.59071 0.0
C197 C 0.89462 0.11639 0.57585 0.0
C198 C 0.27984 0.13915 0.58749 0.0
C199 C 0.97554 0.91379 0.57264 0.0
H200 H 0.93007 0.28581 0.58002 0.0
H201 H 0.0973 0.41055 0.58821 0.0
H202 H 0.38138 0.42797 0.59958 0.0
H203 H 0.42519 0.31618 0.59771 0.0
H204 H 0.24439 0.96951 0.58296 0.0
H205 H 0.07717 0.84473 0.57471 0.0
H206 H 0.79291 0.82747 0.56423 0.0
H207 H 0.74918 0.93932 0.56602 0.0
H208 H 0.03621 0.98472 0.54144 0.0
H209 H 0.18517 0.26278 0.55352 0.0
H210 H 1.00377 0.99479 0.61063 0.0
H211 H 0.14065 0.27188 0.62191 0.0
C212 C 0.04703 0.26044 0.92137 0.0
C213 C 0.97348 0.26069 0.92014 0.0
C214 C 0.99899 0.34405 0.92189 0.0
C215 C 0.0862 0.3895 0.92404 0.0
N216 N 0.11763 0.3399 0.92358 0.0
Co217 Co 0.24065 0.37888 0.92649 0.0
N218 N 0.28025 0.50299 0.9306 0.0
C219 C 0.23132 0.53473 0.93117 0.0
C220 C 0.27667 0.6226 0.93392 0.0
C221 C 0.3592 0.6484 0.93498 0.0
C222 C 0.35924 0.57437 0.93281 0.0
N223 N 0.36352 0.41773 0.92919 0.0
C224 C 0.43385 0.49719 0.9313 0.0
C225 C 0.50683 0.49651 0.93207 0.0
C226 C 0.48125 0.41295 0.93011 0.0
C227 C 0.39453 0.36776 0.92828 0.0
N228 N 0.20124 0.25482 0.92262 0.0
C229 C 0.25054 0.2232 0.92242 0.0
C230 C 0.20563 0.13577 0.92006 0.0
C231 C 0.12309 0.1102 0.91894 0.0
C232 C 0.12257 0.18389 0.92065 0.0
N233 N 0.22407 0.36852 0.91072 0.0
C234 C 0.20829 0.35934 0.8886 0.0
C235 C 0.24071 0.31844 0.89355 0.0
C236 C 0.24828 0.32409 0.90449 0.0
C237 C 0.1825 0.40386 0.8949 0.0
C238 C 0.19062 0.40736 0.90583 0.0
N239 N 0.2572 0.38904 0.94225 0.0
C240 C 0.30807 0.36002 0.95819 0.0
C241 C 0.27077 0.39171 0.9641 0.0
C242 C 0.22846 0.42428 0.95898 0.0
C243 C 0.22247 0.42232 0.94814 0.0
C244 C 0.3008 0.3595 0.94741 0.0
H245 H 0.18822 0.44679 0.94464 0.0
H246 H 0.33019 0.33386 0.94339 0.0
H247 H 0.2745 0.29229 0.90772 0.0
H248 H 0.17029 0.44267 0.9102 0.0
C249 C 0.14159 0.47948 0.92782 0.0
C250 C 0.04789 0.18474 0.92122 0.0
C251 C 0.43341 0.57368 0.93193 0.0
C252 C 0.33971 0.27804 0.9251 0.0
H253 H 0.90882 0.20668 0.91855 0.0
H254 H 0.95947 0.36918 0.92209 0.0
H255 H 0.25184 0.66256 0.93454 0.0
H256 H 0.41247 0.71378 0.93673 0.0
H257 H 0.57127 0.55054 0.93358 0.0
H258 H 0.52057 0.38772 0.92972 0.0
H259 H 0.23059 0.0959 0.91961 0.0
H260 H 0.06997 0.04522 0.9174 0.0
H261 H 0.25987 0.28142 0.88899 0.0
H262 H 0.15755 0.4373 0.89152 0.0
H263 H 0.34304 0.33562 0.96186 0.0
H264 H 0.19808 0.44919 0.96319 0.0
C265 C 0.24536 0.0788 0.24976 0.0
C266 C 0.16526 1.00107 0.2441 0.0
C267 C 0.10581 0.02098 0.24227 0.0
C268 C 0.15274 0.10927 0.24691 0.0
N269 N 0.23886 0.1472 0.25149 0.0
Co270 Co 0.33097 0.27389 0.25941 0.0
N271 N 0.2428 0.30252 0.25743 0.0
C272 C 0.15594 0.24651 0.25262 0.0
C273 C 0.1126 0.2858 0.2524 0.0
C274 C 0.17551 0.37215 0.25723 0.0
C275 C 0.25383 0.3804 0.2601 0.0
N276 N 0.42308 0.40059 0.26725 0.0
C277 C 0.41664 0.46901 0.26894 0.0
C278 C 0.49686 0.54682 0.27447 0.0
C279 C 0.55631 0.52691 0.27626 0.0
C280 C 0.50924 0.43857 0.27172 0.0
N281 N 0.41903 0.24518 0.26145 0.0
C282 C 0.50578 0.3011 0.26639 0.0
C283 C 0.54914 0.26186 0.2667 0.0
C284 C 0.4863 0.17554 0.2618 0.0
C285 C 0.40802 0.16731 0.25881 0.0
N286 N 0.34136 0.2856 0.24502 0.0
C287 C 0.35441 0.30036 0.22446 0.0
C288 C 0.42829 0.33813 0.23381 0.0
C289 C 0.42035 0.32994 0.24392 0.0
C290 C 0.27413 0.25618 0.22564 0.0
C291 C 0.26916 0.24978 0.23587 0.0
N292 N 0.32034 0.26207 0.27379 0.0
C293 C 0.38508 0.29334 0.29335 0.0
C294 C 0.30374 0.24523 0.29417 0.0
C295 C 0.23114 0.20494 0.28456 0.0
C296 C 0.24079 0.21423 0.27459 0.0
C297 C 0.39183 0.30072 0.28317 0.0
H298 H 0.1827 0.1817 0.26765 0.0
H299 H 0.45555 0.33813 0.28309 0.0
H300 H 0.479 0.35983 0.25071 0.0
H301 H 0.206 0.21563 0.23616 0.0
C302 C 0.11738 0.15782 0.24775 0.0
C303 C 0.32499 0.08409 0.25387 0.0
C304 C 0.33687 0.46362 0.26492 0.0
C305 C 0.54433 0.38983 0.27106 0.0
H306 H 0.15099 0.93649 0.24177 0.0
H307 H 0.0364 0.97627 0.23833 0.0
H308 H 0.04364 0.25538 0.24888 0.0
H309 H 0.16516 0.42343 0.25833 0.0
H310 H 0.51116 0.61141 0.27675 0.0
H311 H 0.62575 0.5716 0.28016 0.0
H312 H 0.61808 0.29229 0.27027 0.0
H313 H 0.49667 0.12428 0.26072 0.0
H314 H 0.49205 0.37264 0.23332 0.0
H315 H 0.21496 0.22718 0.21871 0.0
H316 H 0.44349 0.32635 0.30055 0.0
H317 H 0.16661 0.16528 0.28464 0.0
C318 C 0.36624 0.09359 0.08674 0.0
C319 C 0.35459 0.145 0.09447 0.0
C320 C 0.36484 0.02325 0.08843 0.0
C321 C 0.35191 1.00362 0.09792 0.0
C322 C 0.33784 0.0541 0.10546 0.0
C323 C 0.33952 0.12451 0.10378 0.0
C324 C 0.35074 0.93016 0.10013 0.0
C325 C 0.39316 0.89856 0.0963 0.0
C326 C 0.39173 0.82486 0.09846 0.0
C327 C 0.40621 0.77474 0.09094 0.0
C328 C 0.404 0.70394 0.09255 0.0
C329 C 0.38796 0.68266 0.10178 0.0
H330 H 0.3698 0.84338 0.11411 0.0
C331 C 0.37595 0.73371 0.1095 0.0
C332 C 0.37792 0.80447 0.10789 0.0
H333 H 0.3649 0.7186 0.11676 0.0
H334 H 0.37658 0.10809 0.07943 0.0
H335 H 0.37263 0.98401 0.08221 0.0
H336 H 0.32673 0.03978 0.11276 0.0
H337 H 0.32975 0.16348 0.10977 0.0
H338 H 0.31479 0.90269 0.10527 0.0
H339 H 0.42914 0.92611 0.09117 0.0
H340 H 0.41799 0.78964 0.08369 0.0
H341 H 0.4141 0.66527 0.08657 0.0
C342 C 0.52349 0.13546 0.42972 0.0
C343 C 0.47932 0.15889 0.4229 0.0
C344 C 0.5956 0.13978 0.42824 0.0
C345 C 0.6243 0.16745 0.41987 0.0
C346 C 0.58088 0.19294 0.41327 0.0
C347 C 0.50874 0.1884 0.41474 0.0
C348 C 0.70009 0.17248 0.41791 0.0
C349 C 0.72736 0.12373 0.42058 0.0
C350 C 0.80305 0.12876 0.41859 0.0
C351 C 0.84724 0.10425 0.42526 0.0
C352 C 0.91923 0.10869 0.42374 0.0
C353 C 0.94768 0.13708 0.41547 0.0
H354 H 0.79664 0.17162 0.40452 0.0
C355 C 0.90273 0.15951 0.40858 0.0
C356 C 0.83081 0.15534 0.41011 0.0
H357 H 0.92332 0.18014 0.40204 0.0
H358 H 0.50206 0.11384 0.43617 0.0
H359 H 0.62909 0.12266 0.43378 0.0
H360 H 0.60216 0.21539 0.40686 0.0
H361 H 0.47544 0.20733 0.40947 0.0
H362 H 0.73319 0.21705 0.41393 0.0
H363 H 0.69438 0.07918 0.42457 0.0
H364 H 0.82666 0.0826 0.43175 0.0
H365 H 0.95308 0.09043 0.42905 0.0
C366 C 0.80675 0.9909 0.75678 0.0
C367 C 0.82502 0.98567 0.74698 0.0
C368 C 0.73635 0.91925 0.75743 0.0
C369 C 0.68242 0.84124 0.74822 0.0
C370 C 0.70188 0.83638 0.73846 0.0
C371 C 0.77239 0.90815 0.73782 0.0
C372 C 0.60704 0.76302 0.74852 0.0
C373 C 0.56605 0.76541 0.75566 0.0
C374 C 0.49104 0.68699 0.75597 0.0
C375 C 0.4734 0.69066 0.76586 0.0
C376 C 0.40357 0.61838 0.76651 0.0
C377 C 0.3497 0.54165 0.75725 0.0
H378 H 0.44517 0.60499 0.73877 0.0
C379 C 0.36606 0.53774 0.74732 0.0
C380 C 0.43588 0.60985 0.74665 0.0
H381 H 0.32444 0.47888 0.74007 0.0
H382 H 0.84743 0.05039 0.76394 0.0
H383 H 0.72581 0.92525 0.76523 0.0
H384 H 0.66197 0.77704 0.73128 0.0
H385 H 0.78588 0.90333 0.7302 0.0
H386 H 0.58448 0.70144 0.74251 0.0
H387 H 0.58851 0.82683 0.7617 0.0
H388 H 0.51432 0.74936 0.77313 0.0
H389 H 0.3916 0.62218 0.77424 0.0
C390 C 0.36847 0.12355 0.5769 0.0
C391 C 0.35836 0.14296 0.58712 0.0
C392 C 0.44168 0.12566 0.57643 0.0
C393 C 0.50569 0.1465 0.58621 0.0
C394 C 0.49546 0.16696 0.59644 0.0
C395 C 0.42212 0.16475 0.59689 0.0
C396 C 0.58484 0.14989 0.58613 0.0
C397 C 0.58979 0.10597 0.57722 0.0
C398 C 0.66894 0.10935 0.57714 0.0
C399 C 0.67885 0.0883 0.5669 0.0
C400 C 0.75218 0.09049 0.56644 0.0
C401 C 0.81628 0.11292 0.57622 0.0
H402 H 0.72705 0.1445 0.59495 0.0
C403 C 0.80649 0.13295 0.58645 0.0
C404 C 0.73328 0.1308 0.58692 0.0
H405 H 0.8554 0.14975 0.59405 0.0
H406 H 0.3198 0.10718 0.5693 0.0
H407 H 0.44818 0.1124 0.56842 0.0
H408 H 0.54399 0.1839 0.60409 0.0
H409 H 0.41497 0.17984 0.60484 0.0
H410 H 0.64035 0.18942 0.59381 0.0
H411 H 0.53423 0.06642 0.56955 0.0
H412 H 0.63007 0.07085 0.55924 0.0
H413 H 0.75903 0.07484 0.55848 0.0
C414 C 0.5678 0.72238 0.9386 0.0
C415 C 0.50218 0.64526 0.92984 0.0
C416 C 0.63256 0.78971 0.93653 0.0
C417 C 0.6328 0.78025 0.92564 0.0
C418 C 0.56607 0.70292 0.9169 0.0
C419 C 0.5015 0.63575 0.91899 0.0
C420 C 0.69993 0.84979 0.92298 0.0
C421 C 0.77976 0.91201 0.93039 0.0
C422 C 0.84702 0.98099 0.92769 0.0
C423 C 0.91356 0.05883 0.93636 0.0
C424 C 0.97858 0.12516 0.93421 0.0
C425 C 0.97855 0.11421 0.92337 0.0
H426 H 0.79953 0.91024 0.90994 0.0
C427 C 0.91305 0.0366 0.91468 0.0
C428 C 0.84783 0.97016 0.9168 0.0
H429 H 0.91283 0.02734 0.90627 0.0
H430 H 0.56851 0.73056 0.94701 0.0
H431 H 0.68099 0.84916 0.94345 0.0
H432 H 0.56427 0.69417 0.90844 0.0
H433 H 0.4508 0.57639 0.91214 0.0
H434 H 0.6827 0.84814 0.91453 0.0
H435 H 0.79707 0.91388 0.93886 0.0
H436 H 0.91492 0.06859 0.94481 0.0
H437 H 0.02918 0.18493 0.941 0.0
C438 C 0.33117 0.55761 0.25468 0.0
C439 C 0.34061 0.54217 0.26465 0.0
C440 C 0.33428 0.63143 0.25431 0.0
C441 C 0.34605 0.69058 0.26393 0.0
C442 C 0.3566 0.67508 0.27393 0.0
C443 C 0.35347 0.60115 0.27428 0.0
C444 C 0.34988 0.77001 0.26394 0.0
C445 C 0.31305 0.7781 0.25479 0.0
C446 C 0.31661 0.85741 0.25481 0.0
C447 C 0.30611 0.87307 0.24482 0.0
C448 C 0.3088 0.94682 0.24448 0.0
C449 C 0.32113 1.00543 0.25411 0.0
H450 H 0.33317 0.90522 0.2722 0.0
C451 C 0.33055 0.98983 0.26406 0.0
C452 C 0.3279 0.91621 0.26443 0.0
H453 H 0.33946 0.03449 0.27154 0.0
H454 H 0.32201 0.51273 0.2472 0.0
H455 H 0.32899 0.64229 0.24653 0.0
H456 H 0.36652 0.7199 0.28147 0.0
H457 H 0.36106 0.5899 0.28204 0.0
H458 H 0.38339 0.82287 0.27186 0.0
H459 H 0.27957 0.72526 0.24686 0.0
H460 H 0.2966 0.82853 0.23729 0.0
H461 H 0.30139 0.95826 0.23673 0.0
C462 C 0.42368 0.38299 0.21273 0.0
C463 C 0.36029 0.30595 0.21351 0.0
C464 C 0.4274 0.38822 0.20237 0.0
C465 C 0.3675 0.31628 0.19253 0.0
C466 C 0.30542 0.23902 0.19337 0.0
C467 C 0.3016 0.23391 0.2037 0.0
C468 C 0.36752 0.31772 0.18124 0.0
C469 C 0.40593 0.39035 0.17884 0.0
C470 C 0.4016 0.39031 0.16739 0.0
C471 C 0.46401 0.46509 0.1661 0.0
C472 C 0.46078 0.46895 0.15553 0.0
C473 C 0.39443 0.39818 0.14596 0.0
H474 H 0.28403 0.26139 0.15835 0.0
C475 C 0.33187 0.32331 0.14724 0.0
C476 C 0.33508 0.31944 0.15781 0.0
H477 H 0.28019 0.26733 0.14006 0.0
H478 H 0.46977 0.43976 0.22012 0.0
H479 H 0.47784 0.44844 0.20219 0.0
H480 H 0.25896 0.18226 0.18598 0.0
H481 H 0.25291 0.17306 0.20399 0.0
H482 H 0.33226 0.25535 0.17461 0.0
H483 H 0.44216 0.45298 0.18543 0.0
H484 H 0.51547 0.52103 0.17331 0.0
H485 H 0.50934 0.52812 0.15487 0.0
C486 C 0.05904 0.06215 0.52506 0.0
C487 C 0.12624 0.12333 0.5352 0.0
C488 C 0.07211 0.06259 0.51497 0.0
C489 C 0.15292 0.12458 0.51481 0.0
C490 C 0.22018 0.18471 0.52497 0.0
C491 C 0.20707 0.18436 0.53502 0.0
C492 C 0.17105 0.12836 0.50436 0.0
C493 C 0.10972 0.09213 0.49422 0.0
C494 C 0.12903 0.09939 0.4839 0.0
C495 C 0.06386 0.03968 0.47357 0.0
C496 C 0.07811 0.04557 0.46367 0.0
C497 C 0.15792 0.11191 0.46385 0.0
H498 H 0.26033 0.21505 0.49179 0.0
C499 C 0.22318 0.17177 0.47419 0.0
C500 C 0.20894 0.16594 0.48408 0.0
H501 H 0.28564 0.22339 0.47466 0.0
H502 H 0.99592 1.01432 0.52489 0.0
H503 H 0.01896 1.01349 0.5074 0.0
H504 H 0.28334 0.23269 0.52515 0.0
H505 H 0.26079 0.2314 0.54268 0.0
H506 H 0.23856 0.16436 0.50522 0.0
H507 H 0.0421 0.05542 0.49329 0.0
H508 H 1.00138 0.98828 0.47313 0.0
H509 H 0.02586 0.99914 0.45587 0.0
C510 C 0.12551 0.25856 0.80693 0.0
C511 C 0.11808 0.31495 0.80212 0.0
C512 C 0.13175 0.26908 0.81797 0.0
C513 C 0.13058 0.33628 0.82448 0.0
C514 C 0.12148 0.39154 0.81964 0.0
C515 C 0.11603 0.38155 0.80863 0.0
C516 C 0.13631 0.34885 0.83622 0.0
C517 C 0.17978 0.32781 0.84291 0.0
C518 C 0.18713 0.34038 0.8547 0.0
C519 C 0.25762 0.34881 0.86199 0.0
C520 C 0.26534 0.35689 0.87301 0.0
C521 C 0.20182 0.35526 0.87699 0.0
H522 H 0.06752 0.33137 0.85324 0.0
C523 C 0.13135 0.3474 0.8697 0.0
C524 C 0.124 0.34001 0.85868 0.0
H525 H 0.08047 0.34447 0.87241 0.0
H526 H 0.12504 0.20515 0.80212 0.0
H527 H 0.1357 0.22332 0.82128 0.0
H528 H 0.11983 0.44349 0.82444 0.0
H529 H 0.11136 0.42691 0.80528 0.0
H530 H 0.10789 0.38065 0.83956 0.0
H531 H 0.21518 0.3039 0.83982 0.0
H532 H 0.30715 0.34922 0.85916 0.0
H533 H 0.32138 0.36449 0.87841 0.0
C534 C 0.27901 0.35674 0.04067 0.0
C535 C 0.34489 0.42846 0.05018 0.0
C536 C 0.2725 0.36102 0.03008 0.0
C537 C 0.33234 0.43711 0.02872 0.0
C538 C 0.39753 0.50901 0.03822 0.0
C539 C 0.40401 0.50473 0.04882 0.0
C540 C 0.32764 0.44484 0.01759 0.0
C541 C 0.28792 0.37637 0.00807 0.0
C542 C 0.28442 0.38324 0.99694 0.0
C543 C 0.26734 0.31332 0.98838 0.0
C544 C 0.26289 0.31619 0.97777 0.0
C545 C 0.27479 0.38899 0.9754 0.0
H546 H 0.30578 0.51005 1.00079 0.0
C547 C 0.29036 0.45853 0.9839 0.0
C548 C 0.29504 0.45576 0.99455 0.0
H549 H 0.29986 0.51559 0.98235 0.0
H550 H 0.23258 0.29682 0.0414 0.0
H551 H 0.21961 0.30485 0.02304 0.0
H552 H 0.44393 0.5688 0.03746 0.0
H553 H 0.45463 0.56172 0.05596 0.0
H554 H 0.36205 0.5097 0.01739 0.0
H555 H 0.26024 0.31206 0.00842 0.0
H556 H 0.25775 0.25616 0.98991 0.0
H557 H 0.24907 0.26076 0.97137 0.0
C558 C 0.35035 0.22756 0.31228 0.0
C559 C 0.29398 0.23682 0.3049 0.0
C560 C 0.33901 0.21692 0.32218 0.0
C561 C 0.2711 0.21567 0.32493 0.0
C562 C 0.21508 0.22507 0.31756 0.0
C563 C 0.22659 0.23604 0.30772 0.0
C564 C 0.25417 0.20142 0.33514 0.0
C565 C 0.31469 0.21847 0.34436 0.0
C566 C 0.29707 0.20583 0.35459 0.0
C567 C 0.36566 0.25527 0.36486 0.0
C568 C 0.35177 0.24569 0.37466 0.0
C569 C 0.26897 0.18551 0.37442 0.0
H570 H 0.16023 0.10328 0.34655 0.0
C571 C 0.20055 0.13465 0.36412 0.0
C572 C 0.21435 0.14457 0.35431 0.0
H573 H 0.13596 0.0878 0.36364 0.0
H574 H 0.402 0.2263 0.31029 0.0
H575 H 0.38221 0.20745 0.32745 0.0
H576 H 0.16212 0.22419 0.31944 0.0
H577 H 0.18267 0.24431 0.30234 0.0
H578 H 0.18997 0.18007 0.33519 0.0
H579 H 0.38093 0.24743 0.34473 0.0
H580 H 0.43022 0.30215 0.36532 0.0
H581 H 0.4062 0.28485 0.38243 0.0
C582 C 0.04948 0.19073 0.63499 0.0
C583 C 0.06779 0.13594 0.62907 0.0
C584 C 0.04686 0.19379 0.6456 0.0
C585 C 0.06357 0.14269 0.65063 0.0
C586 C 0.08063 0.0871 0.64462 0.0
C587 C 0.0828 0.08375 0.63399 0.0
C588 C 0.06217 0.14363 0.66196 0.0
C589 C 0.06671 0.20658 0.66952 0.0
C590 C 0.0668 0.20894 0.68093 0.0
C591 C 0.08752 0.28542 0.68858 0.0
C592 C 0.08821 0.29136 0.69936 0.0
C593 C 0.06809 0.22077 0.70279 0.0
H594 H 0.02693 0.07663 0.67874 0.0
C595 C 0.0468 0.14394 0.69516 0.0
C596 C 0.04564 0.13777 0.68434 0.0
H597 H 0.02958 0.0879 0.69749 0.0
H598 H 0.03584 0.23046 0.63134 0.0
H599 H 0.03039 0.23539 0.64968 0.0
H600 H 0.09314 0.04646 0.6482 0.0
H601 H 0.0977 0.04125 0.6297 0.0
H602 H 0.06084 0.09161 0.66419 0.0
H603 H 0.07393 0.26145 0.6675 0.0
H604 H 0.10376 0.34128 0.68624 0.0
H605 H 0.10576 0.35183 0.70506 0.0
loop_
_geom_bond_atom_site_label_1
_geom_bond_atom_site_label_2
_geom_bond_distance
_geom_bond_site_symmetry_2
_ccdc_geom_bond_type
C0 C1 1.443 . S
C0 N4 1.376 . S
C0 C38 1.389 . S
C1 C0 1.443 . S
C1 C2 1.340 . S
C1 H41 0.951 . S
C2 C1 1.340 . S
C2 C3 1.439 . S
C2 H42 0.950 . S
C3 C2 1.439 . S
C3 N4 1.374 . S
C3 C37 1.395 . S
N4 C0 1.376 . S
N4 C3 1.374 . S
N4 Co5 2.008 . S
Co5 N4 2.008 . S
Co5 N6 1.995 . S
Co5 N11 2.008 . S
Co5 N16 1.995 . S
Co5 N21 2.282 . S
Co5 N27 2.282 . S
N6 Co5 1.995 . S
N6 C7 1.376 . S
N6 C10 1.383 . S
C7 N6 1.376 . S
C7 C8 1.446 . S
C7 C37 1.391 . S
C8 C7 1.446 . S
C8 C9 1.339 . S
C8 H43 0.949 . S
C9 C8 1.339 . S
C9 C10 1.439 . S
C9 H44 0.950 . S
C10 N6 1.383 . S
C10 C9 1.439 . S
C10 C39 1.392 . S
N11 Co5 2.008 . S
N11 C12 1.376 . S
N11 C15 1.374 . S
C12 N11 1.376 . S
C12 C13 1.443 . S
C12 C39 1.389 . S
C13 C12 1.443 . S
C13 C14 1.340 . S
C13 H45 0.951 . S
C14 C13 1.340 . S
C14 C15 1.439 . S
C14 H46 0.950 . S
C15 N11 1.374 . S
C15 C14 1.439 . S
C15 C40 1.395 . S
N16 Co5 1.995 . S
N16 C17 1.376 . S
N16 C20 1.383 . S
C17 N16 1.376 . S
C17 C18 1.446 . S
C17 C40 1.391 . S
C18 C17 1.446 . S
C18 C19 1.339 . S
C18 H47 0.949 . S
C19 C18 1.339 . S
C19 C20 1.439 . S
C19 H48 0.950 . S
C20 N16 1.383 . S
C20 C19 1.439 . S
C20 C38 1.392 . S
N21 Co5 2.282 . S
N21 C24 1.332 . S
N21 C26 1.332 . S
C22 C23 1.386 . S
C22 C25 1.388 . S
C23 C22 1.386 . S
C23 C24 1.382 . S
C23 H49 0.950 . S
C24 N21 1.332 . S
C24 C23 1.382 . S
C24 H35 0.952 . S
C25 C22 1.388 . S
C25 C26 1.382 . S
C25 H50 0.950 . S
C26 N21 1.332 . S
C26 C25 1.382 . S
C26 H36 0.948 . S
N27 Co5 2.282 . S
N27 C31 1.332 . S
N27 C32 1.332 . S
C28 C29 1.388 . S
C28 C32 1.382 . S
C28 H51 0.950 . S
C29 C28 1.388 . S
C29 C30 1.386 . S
C30 C29 1.386 . S
C30 C31 1.382 . S
C30 H52 0.950 . S
C31 N27 1.332 . S
C31 C30 1.382 . S
C31 H33 0.952 . S
C32 N27 1.332 . S
C32 C28 1.382 . S
C32 H34 0.948 . S
H33 C31 0.952 . S
H34 C32 0.948 . S
H35 C24 0.952 . S
H36 C26 0.948 . S
C37 C3 1.395 . S
C37 C7 1.391 . S
C38 C0 1.389 . S
C38 C20 1.392 . S
C39 C10 1.392 . S
C39 C12 1.389 . S
C40 C15 1.395 . S
C40 C17 1.391 . S
H41 C1 0.951 . S
H42 C2 0.950 . S
H43 C8 0.949 . S
H44 C9 0.950 . S
H45 C13 0.951 . S
H46 C14 0.950 . S
H47 C18 0.949 . S
H48 C19 0.950 . S
H49 C23 0.950 . S
H50 C25 0.950 . S
H51 C28 0.950 . S
H52 C30 0.950 . S
C53 C54 1.443 . S
C53 N57 1.376 . S
C53 C91 1.389 . S
C54 C53 1.443 . S
C54 C55 1.340 . S
C54 H94 0.951 . S
C55 C54 1.340 . S
C55 C56 1.439 . S
C55 H95 0.950 . S
C56 C55 1.439 . S
C56 N57 1.374 . S
C56 C90 1.395 . S
N57 C53 1.376 . S
N57 C56 1.374 . S
N57 Co58 2.008 . S
Co58 N57 2.008 . S
Co58 N59 1.995 . S
Co58 N64 2.008 1_545 S
Co58 N69 1.995 1_545 S
Co58 N74 2.282 . S
Co58 N80 2.282 . S
N59 Co58 1.995 . S
N59 C60 1.376 . S
N59 C63 1.383 . S
C60 N59 1.376 . S
C60 C61 1.446 . S
C60 C90 1.391 . S
C61 C60 1.446 . S
C61 C62 1.339 . S
C61 H96 0.949 . S
C62 C61 1.339 . S
C62 C63 1.439 . S
C62 H97 0.950 . S
C63 N59 1.383 . S
C63 C62 1.439 . S
C63 C92 1.392 1_455 S
N64 Co58 2.008 1_565 S
N64 C65 1.376 1_455 S
N64 C68 1.374 1_455 S
C65 N64 1.376 1_655 S
C65 C66 1.443 . S
C65 C92 1.389 1_565 S
C66 C65 1.443 . S
C66 C67 1.340 . S
C66 H98 0.951 . S
C67 C66 1.340 . S
C67 C68 1.439 . S
C67 H99 0.950 . S
C68 N64 1.374 1_655 S
C68 C67 1.439 . S
C68 C93 1.395 1_655 S
N69 Co58 1.995 1_565 S
N69 C70 1.376 . S
N69 C73 1.383 . S
C70 N69 1.376 . S
C70 C71 1.446 . S
C70 C93 1.391 . S
C71 C70 1.446 . S
C71 C72 1.339 . S
C71 H100 0.949 . S
C72 C71 1.339 . S
C72 C73 1.439 . S
C72 H101 0.950 . S
C73 N69 1.383 . S
C73 C72 1.439 . S
C73 C91 1.392 1_565 S
N74 Co58 2.282 . S
N74 C77 1.332 1_545 S
N74 C79 1.332 . S
C75 C76 1.386 1_545 S
C75 C78 1.388 . S
C76 C75 1.386 1_565 S
C76 C77 1.382 . S
C76 H102 0.950 . S
C77 N74 1.332 1_565 S
C77 C76 1.382 . S
C77 H88 0.952 . S
C78 C75 1.388 . S
C78 C79 1.382 . S
C78 H103 0.950 . S
C79 N74 1.332 . S
C79 C78 1.382 . S
C79 H89 0.948 . S
N80 Co58 2.282 . S
N80 C84 1.332 . S
N80 C85 1.332 1_545 S
C81 C82 1.388 1_565 S
C81 C85 1.382 . S
C81 H104 0.950 . S
C82 C81 1.388 1_545 S
C82 C83 1.386 . S
C83 C82 1.386 . S
C83 C84 1.382 . S
C83 H105 0.950 . S
C84 N80 1.332 . S
C84 C83 1.382 . S
C84 H86 0.952 . S
C85 N80 1.332 1_565 S
C85 C81 1.382 . S
C85 H87 0.948 . S
H86 C84 0.952 . S
H87 C85 0.948 . S
H88 C77 0.952 . S
H89 C79 0.948 . S
C90 C56 1.395 . S
C90 C60 1.391 . S
C91 C53 1.389 . S
C91 C73 1.392 1_545 S
C92 C63 1.392 1_655 S
C92 C65 1.389 1_545 S
C93 C68 1.395 1_455 S
C93 C70 1.391 . S
H94 C54 0.951 . S
H95 C55 0.950 . S
H96 C61 0.949 . S
H97 C62 0.950 . S
H98 C66 0.951 . S
H99 C67 0.950 . S
H100 C71 0.949 . S
H101 C72 0.950 . S
H102 C76 0.950 . S
H103 C78 0.950 . S
H104 C81 0.950 . S
H105 C83 0.950 . S
C106 C107 1.443 . S
C106 N110 1.376 . S
C106 C144 1.389 . S
C107 C106 1.443 . S
C107 C108 1.340 . S
C107 H147 0.951 . S
C108 C107 1.340 . S
C108 C109 1.439 . S
C108 H148 0.950 . S
C109 C108 1.439 . S
C109 N110 1.374 . S
C109 C143 1.395 1_455 S
N110 C106 1.376 . S
N110 C109 1.374 . S
N110 Co111 2.008 . S
Co111 N110 2.008 . S
Co111 N112 1.995 1_455 S
Co111 N117 2.008 . S
Co111 N122 1.995 . S
Co111 N127 2.282 . S
Co111 N133 2.282 . S
N112 Co111 1.995 1_655 S
N112 C113 1.376 . S
N112 C116 1.383 . S
C113 N112 1.376 . S
C113 C114 1.446 . S
C113 C143 1.391 . S
C114 C113 1.446 . S
C114 C115 1.339 . S
C114 H149 0.949 . S
C115 C114 1.339 . S
C115 C116 1.439 . S
C115 H150 0.950 . S
C116 N112 1.383 . S
C116 C115 1.439 . S
C116 C145 1.392 . S
N117 Co111 2.008 . S
N117 C118 1.376 1_455 S
N117 C121 1.374 . S
C118 N117 1.376 1_655 S
C118 C119 1.443 . S
C118 C145 1.389 . S
C119 C118 1.443 . S
C119 C120 1.340 1_655 S
C119 H151 0.951 1_545 S
C120 C119 1.340 1_455 S
C120 C121 1.439 . S
C120 H152 0.950 . S
C121 N117 1.374 . S
C121 C120 1.439 . S
C121 C146 1.395 . S
N122 Co111 1.995 . S
N122 C123 1.376 . S
N122 C126 1.383 . S
C123 N122 1.376 . S
C123 C124 1.446 . S
C123 C146 1.391 . S
C124 C123 1.446 . S
C124 C125 1.339 . S
C124 H153 0.949 . S
C125 C124 1.339 . S
C125 C126 1.439 . S
C125 H154 0.950 . S
C126 N122 1.383 . S
C126 C125 1.439 . S
C126 C144 1.392 . S
N127 Co111 2.282 . S
N127 C130 1.332 . S
N127 C132 1.332 . S
C128 C129 1.386 . S
C128 C131 1.388 . S
C129 C128 1.386 . S
C129 C130 1.382 . S
C129 H155 0.950 . S
C130 N127 1.332 . S
C130 C129 1.382 . S
C130 H141 0.952 . S
C131 C128 1.388 . S
C131 C132 1.382 . S
C131 H156 0.950 1_455 S
C132 N127 1.332 . S
C132 C131 1.382 . S
C132 H142 0.948 1_455 S
N133 Co111 2.282 . S
N133 C137 1.332 1_455 S
N133 C138 1.332 . S
C134 C135 1.388 . S
C134 C138 1.382 . S
C134 H157 0.950 . S
C135 C134 1.388 . S
C135 C136 1.386 1_455 S
C136 C135 1.386 1_655 S
C136 C137 1.382 . S
C136 H158 0.950 . S
C137 N133 1.332 1_655 S
C137 C136 1.382 . S
C137 H139 0.952 . S
C138 N133 1.332 . S
C138 C134 1.382 . S
C138 H140 0.948 . S
H139 C137 0.952 . S
H140 C138 0.948 . S
H141 C130 0.952 . S
H142 C132 0.948 1_655 S
C143 C109 1.395 1_655 S
C143 C113 1.391 . S
C144 C106 1.389 . S
C144 C126 1.392 . S
C145 C116 1.392 . S
C145 C118 1.389 . S
C146 C121 1.395 . S
C146 C123 1.391 . S
H147 C107 0.951 . S
H148 C108 0.950 . S
H149 C114 0.949 . S
H150 C115 0.950 . S
H151 C119 0.951 1_565 S
H152 C120 0.950 . S
H153 C124 0.949 . S
H154 C125 0.950 . S
H155 C129 0.950 . S
H156 C131 0.950 1_655 S
H157 C134 0.950 . S
H158 C136 0.950 . S
C159 C160 1.443 . S
C159 N163 1.376 . S
C159 C197 1.389 . S
C160 C159 1.443 . S
C160 C161 1.340 1_655 S
C160 H200 0.951 . S
C161 C160 1.340 1_455 S
C161 C162 1.439 . S
C161 H201 0.950 . S
C162 C161 1.439 . S
C162 N163 1.374 1_455 S
C162 C196 1.395 . S
N163 C159 1.376 . S
N163 C162 1.374 1_655 S
N163 Co164 2.008 1_655 S
Co164 N163 2.008 1_455 S
Co164 N165 1.995 . S
Co164 N170 2.008 1_545 S
Co164 N175 1.995 1_445 S
Co164 N180 2.282 . S
Co164 N186 2.282 . S
N165 Co164 1.995 . S
N165 C166 1.376 . S
N165 C169 1.383 . S
C166 N165 1.376 . S
C166 C167 1.446 . S
C166 C196 1.391 . S
C167 C166 1.446 . S
C167 C168 1.339 . S
C167 H202 0.949 . S
C168 C167 1.339 . S
C168 C169 1.439 . S
C168 H203 0.950 . S
C169 N165 1.383 . S
C169 C168 1.439 . S
C169 C198 1.392 . S
N170 Co164 2.008 1_565 S
N170 C171 1.376 . S
N170 C174 1.374 1_455 S
C171 N170 1.376 . S
C171 C172 1.443 . S
C171 C198 1.389 1_565 S
C172 C171 1.443 . S
C172 C173 1.340 . S
C172 H204 0.951 . S
C173 C172 1.340 . S
C173 C174 1.439 1_455 S
C173 H205 0.950 1_455 S
C174 N170 1.374 1_655 S
C174 C173 1.439 1_655 S
C174 C199 1.395 . S
N175 Co164 1.995 1_665 S
N175 C176 1.376 . S
N175 C179 1.383 . S
C176 N175 1.376 . S
C176 C177 1.446 . S
C176 C199 1.391 . S
C177 C176 1.446 . S
C177 C178 1.339 . S
C177 H206 0.949 . S
C178 C177 1.339 . S
C178 C179 1.439 . S
C178 H207 0.950 . S
C179 N175 1.383 . S
C179 C178 1.439 . S
C179 C197 1.392 1_565 S
N180 Co164 2.282 . S
N180 C183 1.332 1_445 S
N180 C185 1.332 . S
C181 C182 1.386 1_455 S
C181 C184 1.388 1_565 S
C182 C181 1.386 1_655 S
C182 C183 1.382 . S
C182 H208 0.950 . S
C183 N180 1.332 1_665 S
C183 C182 1.382 . S
C183 H194 0.952 . S
C184 C181 1.388 1_545 S
C184 C185 1.382 . S
C184 H209 0.950 . S
C185 N180 1.332 . S
C185 C184 1.382 . S
C185 H195 0.948 . S
N186 Co164 2.282 . S
N186 C190 1.332 . S
N186 C191 1.332 1_445 S
C187 C188 1.388 1_665 S
C187 C191 1.382 . S
C187 H210 0.950 . S
C188 C187 1.388 1_445 S
C188 C189 1.386 . S
C189 C188 1.386 . S
C189 C190 1.382 . S
C189 H211 0.950 . S
C190 N186 1.332 . S
C190 C189 1.382 . S
C190 H192 0.952 . S
C191 N186 1.332 1_665 S
C191 C187 1.382 . S
C191 H193 0.948 . S
H192 C190 0.952 . S
H193 C191 0.948 . S
H194 C183 0.952 . S
H195 C185 0.948 . S
C196 C162 1.395 . S
C196 C166 1.391 . S
C197 C159 1.389 . S
C197 C179 1.392 1_545 S
C198 C169 1.392 . S
C198 C171 1.389 1_545 S
C199 C174 1.395 . S
C199 C176 1.391 . S
H200 C160 0.951 . S
H201 C161 0.950 . S
H202 C167 0.949 . S
H203 C168 0.950 . S
H204 C172 0.951 . S
H205 C173 0.950 1_655 S
H206 C177 0.949 . S
H207 C178 0.950 . S
H208 C182 0.950 . S
H209 C184 0.950 . S
H210 C187 0.950 . S
H211 C189 0.950 . S
C212 C213 1.443 1_455 S
C212 N216 1.376 . S
C212 C250 1.389 . S
C213 C212 1.443 1_655 S
C213 C214 1.340 . S
C213 H253 0.951 . S
C214 C213 1.340 . S
C214 C215 1.439 1_655 S
C214 H254 0.950 . S
C215 C214 1.439 1_455 S
C215 N216 1.374 . S
C215 C249 1.395 . S
N216 C212 1.376 . S
N216 C215 1.374 . S
N216 Co217 2.008 . S
Co217 N216 2.008 . S
Co217 N218 1.995 . S
Co217 N223 2.008 . S
Co217 N228 1.995 . S
Co217 N233 2.282 . S
Co217 N239 2.282 . S
N218 Co217 1.995 . S
N218 C219 1.376 . S
N218 C222 1.383 . S
C219 N218 1.376 . S
C219 C220 1.446 . S
C219 C249 1.391 . S
C220 C219 1.446 . S
C220 C221 1.339 . S
C220 H255 0.949 . S
C221 C220 1.339 . S
C221 C222 1.439 . S
C221 H256 0.950 . S
C222 N218 1.383 . S
C222 C221 1.439 . S
C222 C251 1.392 . S
N223 Co217 2.008 . S
N223 C224 1.376 . S
N223 C227 1.374 . S
C224 N223 1.376 . S
C224 C225 1.443 . S
C224 C251 1.389 . S
C225 C224 1.443 . S
C225 C226 1.340 . S
C225 H257 0.951 . S
C226 C225 1.340 . S
C226 C227 1.439 . S
C226 H258 0.950 . S
C227 N223 1.374 . S
C227 C226 1.439 . S
C227 C252 1.395 . S
N228 Co217 1.995 . S
N228 C229 1.376 . S
N228 C232 1.383 . S
C229 N228 1.376 . S
C229 C230 1.446 . S
C229 C252 1.391 . S
C230 C229 1.446 . S
C230 C231 1.339 . S
C230 H259 0.949 . S
C231 C230 1.339 . S
C231 C232 1.439 . S
C231 H260 0.950 . S
C232 N228 1.383 . S
C232 C231 1.439 . S
C232 C250 1.392 . S
N233 Co217 2.282 . S
N233 C236 1.332 . S
N233 C238 1.332 . S
C234 C235 1.386 . S
C234 C237 1.388 . S
C235 C234 1.386 . S
C235 C236 1.382 . S
C235 H261 0.950 . S
C236 N233 1.332 . S
C236 C235 1.382 . S
C236 H247 0.952 . S
C237 C234 1.388 . S
C237 C238 1.382 . S
C237 H262 0.950 . S
C238 N233 1.332 . S
C238 C237 1.382 . S
C238 H248 0.948 . S
N239 Co217 2.282 . S
N239 C243 1.332 . S
N239 C244 1.332 . S
C240 C241 1.388 . S
C240 C244 1.382 . S
C240 H263 0.950 . S
C241 C240 1.388 . S
C241 C242 1.386 . S
C242 C241 1.386 . S
C242 C243 1.382 . S
C242 H264 0.950 . S
C243 N239 1.332 . S
C243 C242 1.382 . S
C243 H245 0.952 . S
C244 N239 1.332 . S
C244 C240 1.382 . S
C244 H246 0.948 . S
H245 C243 0.952 . S
H246 C244 0.948 . S
H247 C236 0.952 . S
H248 C238 0.948 . S
C249 C215 1.395 . S
C249 C219 1.391 . S
C250 C212 1.389 . S
C250 C232 1.392 . S
C251 C222 1.392 . S
C251 C224 1.389 . S
C252 C227 1.395 . S
C252 C229 1.391 . S
H253 C213 0.951 . S
H254 C214 0.950 . S
H255 C220 0.949 . S
H256 C221 0.950 . S
H257 C225 0.951 . S
H258 C226 0.950 . S
H259 C230 0.949 . S
H260 C231 0.950 . S
H261 C235 0.950 . S
H262 C237 0.950 . S
H263 C240 0.950 . S
H264 C242 0.950 . S
C265 C266 1.443 . S
C265 N269 1.376 . S
C265 C303 1.389 . S
C266 C265 1.443 . S
C266 C267 1.340 . S
C266 H306 0.951 1_545 S
C267 C266 1.340 . S
C267 C268 1.439 . S
C267 H307 0.950 . S
C268 C267 1.439 . S
C268 N269 1.374 . S
C268 C302 1.395 . S
N269 C265 1.376 . S
N269 C268 1.374 . S
N269 Co270 2.008 . S
Co270 N269 2.008 . S
Co270 N271 1.995 . S
Co270 N276 2.008 . S
Co270 N281 1.995 . S
Co270 N286 2.282 . S
Co270 N292 2.282 . S
N271 Co270 1.995 . S
N271 C272 1.376 . S
N271 C275 1.383 . S
C272 N271 1.376 . S
C272 C273 1.446 . S
C272 C302 1.391 . S
C273 C272 1.446 . S
C273 C274 1.339 . S
C273 H308 0.949 . S
C274 C273 1.339 . S
C274 C275 1.439 . S
C274 H309 0.950 . S
C275 N271 1.383 . S
C275 C274 1.439 . S
C275 C304 1.392 . S
N276 Co270 2.008 . S
N276 C277 1.376 . S
N276 C280 1.374 . S
C277 N276 1.376 . S
C277 C278 1.443 . S
C277 C304 1.389 . S
C278 C277 1.443 . S
C278 C279 1.340 . S
C278 H310 0.951 . S
C279 C278 1.340 . S
C279 C280 1.439 . S
C279 H311 0.950 . S
C280 N276 1.374 . S
C280 C279 1.439 . S
C280 C305 1.395 . S
N281 Co270 1.995 . S
N281 C282 1.376 . S
N281 C285 1.383 . S
C282 N281 1.376 . S
C282 C283 1.446 . S
C282 C305 1.391 . S
C283 C282 1.446 . S
C283 C284 1.339 . S
C283 H312 0.949 . S
C284 C283 1.339 . S
C284 C285 1.439 . S
C284 H313 0.950 . S
C285 N281 1.383 . S
C285 C284 1.439 . S
C285 C303 1.392 . S
N286 Co270 2.282 . S
N286 C289 1.332 . S
N286 C291 1.332 . S
C287 C288 1.386 . S
C287 C290 1.388 . S
C288 C287 1.386 . S
C288 C289 1.382 . S
C288 H314 0.950 . S
C289 N286 1.332 . S
C289 C288 1.382 . S
C289 H300 0.952 . S
C290 C287 1.388 . S
C290 C291 1.382 . S
C290 H315 0.950 . S
C291 N286 1.332 . S
C291 C290 1.382 . S
C291 H301 0.948 . S
N292 Co270 2.282 . S
N292 C296 1.332 . S
N292 C297 1.332 . S
C293 C294 1.388 . S
C293 C297 1.382 . S
C293 H316 0.950 . S
C294 C293 1.388 . S
C294 C295 1.386 . S
C295 C294 1.386 . S
C295 C296 1.382 . S
C295 H317 0.950 . S
C296 N292 1.332 . S
C296 C295 1.382 . S
C296 H298 0.952 . S
C297 N292 1.332 . S
C297 C293 1.382 . S
C297 H299 0.948 . S
H298 C296 0.952 . S
H299 C297 0.948 . S
H300 C289 0.952 . S
H301 C291 0.948 . S
C302 C268 1.395 . S
C302 C272 1.391 . S
C303 C265 1.389 . S
C303 C285 1.392 . S
C304 C275 1.392 . S
C304 C277 1.389 . S
C305 C280 1.395 . S
C305 C282 1.391 . S
H306 C266 0.951 1_565 S
H307 C267 0.950 . S
H308 C273 0.949 . S
H309 C274 0.950 . S
H310 C278 0.951 . S
H311 C279 0.950 . S
H312 C283 0.949 . S
H313 C284 0.950 . S
H314 C288 0.950 . S
H315 C290 0.950 . S
H316 C293 0.950 . S
H317 C295 0.950 . S
C318 C319 1.386 . S
C318 C320 1.383 . S
C318 H334 0.951 . S
C319 C318 1.386 . S
C319 C323 1.383 . S
C320 C318 1.383 . S
C320 C321 1.402 . S
C320 H335 0.951 . S
C321 C320 1.402 . S
C321 C322 1.375 . S
C321 C324 1.481 1_545 S
C322 C321 1.375 . S
C322 C323 1.367 . S
C322 H336 0.951 . S
C323 C319 1.383 . S
C323 C322 1.367 . S
C323 H337 0.950 . S
C324 C321 1.481 1_565 S
C324 C325 1.297 . S
C324 H338 0.950 . S
C325 C324 1.297 . S
C325 C326 1.479 . S
C325 H339 0.950 . S
C326 C325 1.479 . S
C326 C327 1.375 . S
C326 C332 1.404 . S
C327 C326 1.375 . S
C327 C328 1.369 . S
C327 H340 0.950 . S
C328 C327 1.369 . S
C328 C329 1.392 . S
C328 H341 0.951 . S
C329 C328 1.392 . S
C329 C331 1.384 . S
H330 C332 0.949 . S
C331 C329 1.384 . S
C331 C332 1.385 . S
C331 H333 0.950 . S
C332 C326 1.404 . S
C332 H330 0.949 . S
C332 C331 1.385 . S
H333 C331 0.950 . S
H334 C318 0.951 . S
H335 C320 0.951 . S
H336 C322 0.951 . S
H337 C323 0.950 . S
H338 C324 0.950 . S
H339 C325 0.950 . S
H340 C327 0.950 . S
H341 C328 0.951 . S
C342 C343 1.386 1_565 S
C342 C344 1.383 . S
C342 H358 0.951 . S
C343 C342 1.386 1_545 S
C343 C347 1.383 . S
C344 C342 1.383 . S
C344 C345 1.402 1_565 S
C344 H359 0.951 . S
C345 C344 1.402 1_545 S
C345 C346 1.375 . S
C345 C348 1.481 . S
C346 C345 1.375 . S
C346 C347 1.367 . S
C346 H360 0.951 . S
C347 C343 1.383 . S
C347 C346 1.367 . S
C347 H361 0.950 . S
C348 C345 1.481 . S
C348 C349 1.297 1_545 S
C348 H362 0.950 . S
C349 C348 1.297 1_565 S
C349 C350 1.479 1_565 S
C349 H363 0.950 . S
C350 C349 1.479 1_545 S
C350 C351 1.375 1_545 S
C350 C356 1.404 . S
C351 C350 1.375 1_565 S
C351 C352 1.369 . S
C351 H364 0.950 . S
C352 C351 1.369 . S
C352 C353 1.392 1_565 S
C352 H365 0.951 . S
C353 C352 1.392 1_545 S
C353 C355 1.384 . S
H354 C356 0.949 . S
C355 C353 1.384 . S
C355 C356 1.385 . S
C355 H357 0.950 . S
C356 C350 1.404 . S
C356 H354 0.949 . S
C356 C355 1.385 . S
H357 C355 0.950 . S
H358 C342 0.951 . S
H359 C344 0.951 . S
H360 C346 0.951 . S
H361 C347 0.950 . S
H362 C348 0.950 . S
H363 C349 0.950 . S
H364 C351 0.950 . S
H365 C352 0.951 . S
C366 C367 1.386 . S
C366 C368 1.383 1_545 S
C366 H382 0.951 . S
C367 C366 1.386 . S
C367 C371 1.383 1_545 S
C368 C366 1.383 1_565 S
C368 C369 1.402 . S
C368 H383 0.951 . S
C369 C368 1.402 . S
C369 C370 1.375 . S
C369 C372 1.481 . S
C370 C369 1.375 . S
C370 C371 1.367 . S
C370 H384 0.951 . S
C371 C367 1.383 1_565 S
C371 C370 1.367 . S
C371 H385 0.950 . S
C372 C369 1.481 . S
C372 C373 1.297 . S
C372 H386 0.950 . S
C373 C372 1.297 . S
C373 C374 1.479 . S
C373 H387 0.950 . S
C374 C373 1.479 . S
C374 C375 1.375 . S
C374 C380 1.404 . S
C375 C374 1.375 . S
C375 C376 1.369 . S
C375 H388 0.950 . S
C376 C375 1.369 . S
C376 C377 1.392 . S
C376 H389 0.951 . S
C377 C376 1.392 . S
C377 C379 1.384 . S
H378 C380 0.949 . S
C379 C377 1.384 . S
C379 C380 1.385 . S
C379 H381 0.950 . S
C380 C374 1.404 . S
C380 H378 0.949 . S
C380 C379 1.385 . S
H381 C379 0.950 . S
H382 C366 0.951 . S
H383 C368 0.951 . S
H384 C370 0.951 . S
H385 C371 0.950 . S
H386 C372 0.950 . S
H387 C373 0.950 . S
H388 C375 0.950 . S
H389 C376 0.951 . S
C390 C391 1.386 1_565 S
C390 C392 1.383 . S
C390 H406 0.951 . S
C391 C390 1.386 1_545 S
C391 C395 1.383 . S
C392 C390 1.383 . S
C392 C393 1.402 1_565 S
C392 H407 0.951 . S
C393 C392 1.402 1_545 S
C393 C394 1.375 . S
C393 C396 1.481 . S
C394 C393 1.375 . S
C394 C395 1.367 . S
C394 H408 0.951 . S
C395 C391 1.383 . S
C395 C394 1.367 . S
C395 H409 0.950 . S
C396 C393 1.481 . S
C396 C397 1.297 . S
C396 H410 0.950 . S
C397 C396 1.297 . S
C397 C398 1.479 . S
C397 H411 0.950 1_545 S
C398 C397 1.479 . S
C398 C399 1.375 1_545 S
C398 C404 1.404 . S
C399 C398 1.375 1_565 S
C399 C400 1.369 . S
C399 H412 0.950 . S
C400 C399 1.369 . S
C400 C401 1.392 1_565 S
C400 H413 0.951 . S
C401 C400 1.392 1_545 S
C401 C403 1.384 . S
H402 C404 0.949 . S
C403 C401 1.384 . S
C403 C404 1.385 . S
C403 H405 0.950 . S
C404 C398 1.404 . S
C404 H402 0.949 . S
C404 C403 1.385 . S
H405 C403 0.950 . S
H406 C390 0.951 . S
H407 C392 0.951 . S
H408 C394 0.951 . S
H409 C395 0.950 . S
H410 C396 0.950 . S
H411 C397 0.950 1_565 S
H412 C399 0.950 . S
H413 C400 0.951 . S
C414 C415 1.386 . S
C414 C416 1.383 . S
C414 H430 0.951 . S
C415 C414 1.386 . S
C415 C419 1.383 . S
C416 C414 1.383 . S
C416 C417 1.402 . S
C416 H431 0.951 . S
C417 C416 1.402 . S
C417 C418 1.375 . S
C417 C420 1.481 . S
C418 C417 1.375 . S
C418 C419 1.367 . S
C418 H432 0.951 . S
C419 C415 1.383 . S
C419 C418 1.367 . S
C419 H433 0.950 . S
C420 C417 1.481 . S
C420 C421 1.297 . S
C420 H434 0.950 . S
C421 C420 1.297 . S
C421 C422 1.472 1_565 S
C421 H435 0.950 . S
C422 C421 1.472 1_545 S
C422 C423 1.381 . S
C422 C428 1.407 . S
C423 C422 1.381 . S
C423 C424 1.369 . S
C423 H436 0.950 . S
C424 C423 1.369 . S
C424 C425 1.392 . S
C424 H437 0.951 . S
C425 C424 1.392 . S
C425 C427 1.384 . S
H426 C428 0.949 1_565 S
C427 C425 1.384 . S
C427 C428 1.385 . S
C427 H429 0.950 . S
C428 C422 1.407 . S
C428 H426 0.949 1_545 S
C428 C427 1.385 . S
H429 C427 0.950 . S
H430 C414 0.951 . S
H431 C416 0.951 . S
H432 C418 0.951 . S
H433 C419 0.950 . S
H434 C420 0.950 . S
H435 C421 0.950 . S
H436 C423 0.950 . S
H437 C424 0.951 . S
C438 C439 1.386 . S
C438 C440 1.383 . S
C438 H454 0.951 . S
C439 C438 1.386 . S
C439 C443 1.383 . S
C440 C438 1.383 . S
C440 C441 1.402 . S
C440 H455 0.951 . S
C441 C440 1.402 . S
C441 C442 1.375 . S
C441 C444 1.481 . S
C442 C441 1.375 . S
C442 C443 1.367 . S
C442 H456 0.951 . S
C443 C439 1.383 . S
C443 C442 1.367 . S
C443 H457 0.950 . S
C444 C441 1.481 . S
C444 C445 1.297 . S
C444 H458 0.950 . S
C445 C444 1.297 . S
C445 C446 1.479 . S
C445 H459 0.950 . S
C446 C445 1.479 . S
C446 C447 1.375 . S
C446 C452 1.404 . S
C447 C446 1.375 . S
C447 C448 1.369 . S
C447 H460 0.950 . S
C448 C447 1.369 . S
C448 C449 1.392 1_565 S
C448 H461 0.951 . S
C449 C448 1.392 1_545 S
C449 C451 1.384 . S
H450 C452 0.949 . S
C451 C449 1.384 . S
C451 C452 1.385 1_545 S
C451 H453 0.950 . S
C452 C446 1.404 . S
C452 H450 0.949 . S
C452 C451 1.385 1_565 S
H453 C451 0.950 . S
H454 C438 0.951 . S
H455 C440 0.951 . S
H456 C442 0.951 . S
H457 C443 0.950 . S
H458 C444 0.950 . S
H459 C445 0.950 . S
H460 C447 0.950 . S
H461 C448 0.951 . S
C462 C463 1.386 . S
C462 C464 1.383 . S
C462 H478 0.951 . S
C463 C462 1.386 . S
C463 C467 1.383 . S
C464 C462 1.383 . S
C464 C465 1.402 . S
C464 H479 0.951 . S
C465 C464 1.402 . S
C465 C466 1.375 . S
C465 C468 1.481 . S
C466 C465 1.375 . S
C466 C467 1.367 . S
C466 H480 0.951 . S
C467 C463 1.383 . S
C467 C466 1.367 . S
C467 H481 0.950 . S
C468 C465 1.481 . S
C468 C469 1.297 . S
C468 H482 0.950 . S
C469 C468 1.297 . S
C469 C470 1.479 . S
C469 H483 0.950 . S
C470 C469 1.479 . S
C470 C471 1.375 . S
C470 C476 1.404 . S
C471 C470 1.375 . S
C471 C472 1.369 . S
C471 H484 0.950 . S
C472 C471 1.369 . S
C472 C473 1.392 . S
C472 H485 0.951 . S
C473 C472 1.392 . S
C473 C475 1.384 . S
H474 C476 0.949 . S
C475 C473 1.384 . S
C475 C476 1.385 . S
C475 H477 0.950 . S
C476 C470 1.404 . S
C476 H474 0.949 . S
C476 C475 1.385 . S
H477 C475 0.950 . S
H478 C462 0.951 . S
H479 C464 0.951 . S
H480 C466 0.951 . S
H481 C467 0.950 . S
H482 C468 0.950 . S
H483 C469 0.950 . S
H484 C471 0.950 . S
H485 C472 0.951 . S
C486 C487 1.387 1_665 S
C486 C488 1.383 . S
C486 H502 0.951 . S
C487 C486 1.387 1_445 S
C487 C491 1.383 . S
C488 C486 1.383 . S
C488 C489 1.402 1_665 S
C488 H503 0.951 . S
C489 C488 1.402 1_445 S
C489 C490 1.375 . S
C489 C492 1.481 . S
C490 C489 1.375 . S
C490 C491 1.367 . S
C490 H504 0.951 . S
C491 C487 1.383 . S
C491 C490 1.367 . S
C491 H505 0.950 . S
C492 C489 1.481 . S
C492 C493 1.297 . S
C492 H506 0.950 . S
C493 C492 1.297 . S
C493 C494 1.479 . S
C493 H507 0.950 1_445 S
C494 C493 1.479 . S
C494 C495 1.375 1_445 S
C494 C500 1.404 . S
C495 C494 1.375 1_665 S
C495 C496 1.369 1_655 S
C495 H508 0.950 . S
C496 C495 1.369 1_455 S
C496 C497 1.392 1_565 S
C496 H509 0.951 1_455 S
C497 C496 1.392 1_545 S
C497 C499 1.384 . S
H498 C500 0.949 . S
C499 C497 1.384 . S
C499 C500 1.385 . S
C499 H501 0.950 . S
C500 C494 1.404 . S
C500 H498 0.949 . S
C500 C499 1.385 . S
H501 C499 0.950 . S
H502 C486 0.951 . S
H503 C488 0.951 . S
H504 C490 0.951 . S
H505 C491 0.950 . S
H506 C492 0.950 . S
H507 C493 0.950 1_665 S
H508 C495 0.950 . S
H509 C496 0.951 1_655 S
C510 C511 1.386 . S
C510 C512 1.383 . S
C510 H526 0.951 . S
C511 C510 1.386 . S
C511 C515 1.383 . S
C512 C510 1.383 . S
C512 C513 1.402 . S
C512 H527 0.951 . S
C513 C512 1.402 . S
C513 C514 1.375 . S
C513 C516 1.481 . S
C514 C513 1.375 . S
C514 C515 1.367 . S
C514 H528 0.951 . S
C515 C511 1.383 . S
C515 C514 1.367 . S
C515 H529 0.950 . S
C516 C513 1.481 . S
C516 C517 1.297 . S
C516 H530 0.950 . S
C517 C516 1.297 . S
C517 C518 1.479 . S
C517 H531 0.950 . S
C518 C517 1.479 . S
C518 C519 1.375 . S
C518 C524 1.404 . S
C519 C518 1.375 . S
C519 C520 1.369 . S
C519 H532 0.950 . S
C520 C519 1.369 . S
C520 C521 1.392 . S
C520 H533 0.951 . S
C521 C520 1.392 . S
C521 C523 1.384 . S
H522 C524 0.949 . S
C523 C521 1.384 . S
C523 C524 1.385 . S
C523 H525 0.950 . S
C524 C518 1.404 . S
C524 H522 0.949 . S
C524 C523 1.385 . S
H525 C523 0.950 . S
H526 C510 0.951 . S
H527 C512 0.951 . S
H528 C514 0.951 . S
H529 C515 0.950 . S
H530 C516 0.950 . S
H531 C517 0.950 . S
H532 C519 0.950 . S
H533 C520 0.951 . S
C534 C535 1.386 . S
C534 C536 1.383 . S
C534 H550 0.951 . S
C535 C534 1.386 . S
C535 C539 1.383 . S
C536 C534 1.383 . S
C536 C537 1.402 . S
C536 H551 0.951 . S
C537 C536 1.402 . S
C537 C538 1.375 . S
C537 C540 1.481 . S
C538 C537 1.375 . S
C538 C539 1.367 . S
C538 H552 0.951 . S
C539 C535 1.383 . S
C539 C538 1.367 . S
C539 H553 0.950 . S
C540 C537 1.481 . S
C540 C541 1.297 . S
C540 H554 0.950 . S
C541 C540 1.297 . S
C541 C542 1.479 1_554 S
C541 H555 0.950 . S
C542 C541 1.479 1_556 S
C542 C543 1.375 . S
C542 C548 1.404 . S
C543 C542 1.375 . S
C543 C544 1.369 . S
C543 H556 0.950 . S
C544 C543 1.369 . S
C544 C545 1.392 . S
C544 H557 0.951 . S
C545 C544 1.392 . S
C545 C547 1.384 . S
H546 C548 0.949 . S
C547 C545 1.384 . S
C547 C548 1.385 . S
C547 H549 0.950 . S
C548 C542 1.404 . S
C548 H546 0.949 . S
C548 C547 1.385 . S
H549 C547 0.950 . S
H550 C534 0.951 . S
H551 C536 0.951 . S
H552 C538 0.951 . S
H553 C539 0.950 . S
H554 C540 0.950 . S
H555 C541 0.950 . S
H556 C543 0.950 . S
H557 C544 0.951 . S
C558 C559 1.386 . S
C558 C560 1.383 . S
C558 H574 0.951 . S
C559 C558 1.386 . S
C559 C563 1.383 . S
C560 C558 1.383 . S
C560 C561 1.402 . S
C560 H575 0.951 . S
C561 C560 1.402 . S
C561 C562 1.375 . S
C561 C564 1.481 . S
C562 C561 1.375 . S
C562 C563 1.367 . S
C562 H576 0.951 . S
C563 C559 1.383 . S
C563 C562 1.367 . S
C563 H577 0.950 . S
C564 C561 1.481 . S
C564 C565 1.297 . S
C564 H578 0.950 . S
C565 C564 1.297 . S
C565 C566 1.479 . S
C565 H579 0.950 . S
C566 C565 1.479 . S
C566 C567 1.375 . S
C566 C572 1.404 . S
C567 C566 1.375 . S
C567 C568 1.369 . S
C567 H580 0.950 . S
C568 C567 1.369 . S
C568 C569 1.392 . S
C568 H581 0.951 . S
C569 C568 1.392 . S
C569 C571 1.384 . S
H570 C572 0.949 . S
C571 C569 1.384 . S
C571 C572 1.385 . S
C571 H573 0.950 . S
C572 C566 1.404 . S
C572 H570 0.949 . S
C572 C571 1.385 . S
H573 C571 0.950 . S
H574 C558 0.951 . S
H575 C560 0.951 . S
H576 C562 0.951 . S
H577 C563 0.950 . S
H578 C564 0.950 . S
H579 C565 0.950 . S
H580 C567 0.950 . S
H581 C568 0.951 . S
C582 C583 1.385 . S
C582 C584 1.383 . S
C582 H598 0.951 . S
C583 C582 1.385 . S
C583 C587 1.383 1_445 S
C584 C582 1.383 . S
C584 C585 1.402 1_455 S
C584 H599 0.951 . S
C585 C584 1.402 1_655 S
C585 C586 1.375 . S
C585 C588 1.481 . S
C586 C585 1.375 . S
C586 C587 1.367 1_545 S
C586 H600 0.951 1_545 S
C587 C583 1.383 1_665 S
C587 C586 1.367 1_565 S
C587 H601 0.950 . S
C588 C585 1.481 . S
C588 C589 1.297 . S
C588 H602 0.950 . S
C589 C588 1.297 . S
C589 C590 1.479 . S
C589 H603 0.950 . S
C590 C589 1.479 . S
C590 C591 1.375 1_655 S
C590 C596 1.404 . S
C591 C590 1.375 1_455 S
C591 C592 1.369 . S
C591 H604 0.950 . S
C592 C591 1.369 . S
C592 C593 1.392 . S
C592 H605 0.951 . S
C593 C592 1.392 . S
C593 C595 1.384 1_455 S
H594 C596 0.949 . S
C595 C593 1.384 1_655 S
C595 C596 1.385 . S
C595 H597 0.950 . S
C596 C590 1.404 . S
C596 H594 0.949 . S
C596 C595 1.385 . S
H597 C595 0.950 . S
H598 C582 0.951 . S
H599 C584 0.951 . S
H600 C586 0.951 1_565 S
H601 C587 0.950 . S
H602 C588 0.950 . S
H603 C589 0.950 . S
H604 C591 0.950 . S
H605 C592 0.951 . S
C319 C39 1.497 . S
C329 C38 1.489 . S
C343 C91 1.498 . S
C353 C92 1.483 . S
C367 C145 1.494 . S
C377 C144 1.489 . S
C391 C198 1.497 . S
C401 C197 1.481 . S
C415 C251 1.498 . S
C425 C250 1.492 1_655 S
C439 C304 1.492 . S
C449 C303 1.492 . S
C463 C287 1.541 . S
C473 C22 1.546 . S
C487 C181 1.539 1_545 S
C497 C75 1.533 . S
C511 C128 1.540 . S
C521 C234 1.535 . S
C535 C29 1.558 . S
C545 C241 1.561 . S
C559 C294 1.559 . S
C569 C82 1.544 . S
C583 C188 1.568 . S
C593 C135 1.555 . S
