# Generated by pormake.
# Topology uoy, (4)-cn, num edge types: 1
# Building blocks:
#     Node 0, Type 0, BuildingBlock: CEKHIL_clean_sbu_0, # of connection points: 4
#     Node 1, Type 0, BuildingBlock: CEKHIL_clean_sbu_0, # of connection points: 4
#     Node 2, Type 0, BuildingBlock: CEKHIL_clean_sbu_0, # of connection points: 4
#     Node 3, Type 0, BuildingBlock: CEKHIL_clean_sbu_0, # of connection points: 4
#     Node 4, Type 0, BuildingBlock: CEKHIL_clean_sbu_0, # of connection points: 4
#     Node 5, Type 0, BuildingBlock: CEKHIL_clean_sbu_0, # of connection points: 4
#     Node 6, Type 0, BuildingBlock: CEKHIL_clean_sbu_0, # of connection points: 4
#     Node 7, Type 0, BuildingBlock: CEKHIL_clean_sbu_0, # of connection points: 4
#     Node 8, Type 0, BuildingBlock: CEKHIL_clean_sbu_0, # of connection points: 4
#     Node 9, Type 0, BuildingBlock: CEKHIL_clean_sbu_0, # of connection points: 4
#     Node 10, Type 0, BuildingBlock: CEKHIL_clean_sbu_0, # of connection points: 4
#     Node 11, Type 0, BuildingBlock: CEKHIL_clean_sbu_0, # of connection points: 4
#     Node 12, Type 0, BuildingBlock: CEKHIL_clean_sbu_0, # of connection points: 4
#     Node 13, Type 0, BuildingBlock: CEKHIL_clean_sbu_0, # of connection points: 4
#     Node 14, Type 0, BuildingBlock: CEKHIL_clean_sbu_0, # of connection points: 4
#     Node 15, Type 0, BuildingBlock: CEKHIL_clean_sbu_0, # of connection points: 4
#     Edge 16, Type (0, 0), BuildingBlock: EYOCIG_clean_linker_4, # of connection points: 2
#     Edge 17, Type (0, 0), BuildingBlock: EYOCIG_clean_linker_4, # of connection points: 2
#     Edge 18, Type (0, 0), BuildingBlock: EYOCIG_clean_linker_4, # of connection points: 2
#     Edge 19, Type (0, 0), BuildingBlock: EYOCIG_clean_linker_4, # of connection points: 2
#     Edge 20, Type (0, 0), BuildingBlock: EYOCIG_clean_linker_4, # of connection points: 2
#     Edge 21, Type (0, 0), BuildingBlock: EYOCIG_clean_linker_4, # of connection points: 2
#     Edge 22, Type (0, 0), BuildingBlock: EYOCIG_clean_linker_4, # of connection points: 2
#     Edge 23, Type (0, 0), BuildingBlock: EYOCIG_clean_linker_4, # of connection points: 2
#     Edge 24, Type (0, 0), BuildingBlock: EYOCIG_clean_linker_4, # of connection points: 2
#     Edge 25, Type (0, 0), BuildingBlock: EYOCIG_clean_linker_4, # of connection points: 2
#     Edge 26, Type (0, 0), BuildingBlock: EYOCIG_clean_linker_4, # of connection points: 2
#     Edge 27, Type (0, 0), BuildingBlock: EYOCIG_clean_linker_4, # of connection points: 2
#     Edge 28, Type (0, 0), BuildingBlock: EYOCIG_clean_linker_4, # of connection points: 2
#     Edge 29, Type (0, 0), BuildingBlock: EYOCIG_clean_linker_4, # of connection points: 2
#     Edge 30, Type (0, 0), BuildingBlock: EYOCIG_clean_linker_4, # of connection points: 2
#     Edge 31, Type (0, 0), BuildingBlock: EYOCIG_clean_linker_4, # of connection points: 2
#     Edge 32, Type (0, 0), BuildingBlock: EYOCIG_clean_linker_4, # of connection points: 2
#     Edge 33, Type (0, 0), BuildingBlock: EYOCIG_clean_linker_4, # of connection points: 2
#     Edge 34, Type (0, 0), BuildingBlock: EYOCIG_clean_linker_4, # of connection points: 2
#     Edge 35, Type (0, 0), BuildingBlock: EYOCIG_clean_linker_4, # of connection points: 2
#     Edge 36, Type (0, 0), BuildingBlock: EYOCIG_clean_linker_4, # of connection points: 2
#     Edge 37, Type (0, 0), BuildingBlock: EYOCIG_clean_linker_4, # of connection points: 2
#     Edge 38, Type (0, 0), BuildingBlock: EYOCIG_clean_linker_4, # of connection points: 2
#     Edge 39, Type (0, 0), BuildingBlock: EYOCIG_clean_linker_4, # of connection points: 2
#     Edge 40, Type (0, 0), BuildingBlock: EYOCIG_clean_linker_4, # of connection points: 2
#     Edge 41, Type (0, 0), BuildingBlock: EYOCIG_clean_linker_4, # of connection points: 2
#     Edge 42, Type (0, 0), BuildingBlock: EYOCIG_clean_linker_4, # of connection points: 2
#     Edge 43, Type (0, 0), BuildingBlock: EYOCIG_clean_linker_4, # of connection points: 2
#     Edge 44, Type (0, 0), BuildingBlock: EYOCIG_clean_linker_4, # of connection points: 2
#     Edge 45, Type (0, 0), BuildingBlock: EYOCIG_clean_linker_4, # of connection points: 2
#     Edge 46, Type (0, 0), BuildingBlock: EYOCIG_clean_linker_4, # of connection points: 2
#     Edge 47, Type (0, 0), BuildingBlock: EYOCIG_clean_linker_4, # of connection points: 2
# Relax obj value: 0.040
# Max RMSD: 0.061
# Mean RMSD: 0.061
data_MOF--net-uoy--node1-CEKHIL_clean_sbu_0--edge1-EYOCIG_clean_linker_4
_symmetry_space_group_name_H-M    P1
_symmetry_Int_Tables_number       1
_symmetry_cell_setting            triclinic
loop_
_symmetry_equiv_pos_as_xyz
'x, y, z'
_cell_length_a     21.739531
_cell_length_b     21.736093
_cell_length_c     83.451335
_cell_angle_alpha  89.993945
_cell_angle_beta   89.998189
_cell_angle_gamma 89.988681
loop_
_atom_site_label
_atom_site_type_symbol
_atom_site_fract_x
_atom_site_fract_y
_atom_site_fract_z
_atom_type_partial_charge
Co0 Co 0.24027 0.11211 0.1908 0.0
O1 O 0.1528 0.12673 0.19319 0.0
O2 O 0.19412 0.04119 0.18357 0.0
C3 C 0.26667 0.14696 0.2154 0.0
O4 O 0.3267 0.07741 0.1871 0.0
Co5 Co 0.3373 0.21679 0.19204 0.0
O6 O 0.3989 0.1504 0.19067 0.0
C7 C 0.26234 0.19932 0.16298 0.0
C8 C 0.14512 0.07147 0.18766 0.0
C9 C 0.38307 0.09534 0.18774 0.0
O10 O 0.23898 0.14935 0.16859 0.0
O11 O 0.29875 0.2343 0.17079 0.0
O12 O 0.24629 0.0913 0.21355 0.0
O13 O 0.26672 0.18112 0.20275 0.0
Co14 Co 0.89799 0.74022 0.44085 0.0
O15 O 0.88315 0.6528 0.44329 0.0
O16 O 0.96876 0.69382 0.43363 0.0
C17 C 0.86321 0.76694 0.46544 0.0
O18 O 0.93295 0.82651 0.43708 0.0
Co19 Co 0.79365 0.83762 0.44203 0.0
O20 O 0.8602 0.89901 0.4406 0.0
C21 C 0.81071 0.76211 0.41306 0.0
C22 C 0.93836 0.64492 0.43774 0.0
C23 C 0.91521 0.88296 0.43768 0.0
O24 O 0.86071 0.7388 0.41865 0.0
O25 O 0.77583 0.79869 0.42085 0.0
O26 O 0.91881 0.7464 0.4636 0.0
O27 O 0.82907 0.76699 0.45279 0.0
Co28 Co 0.27063 0.39801 0.69077 0.0
O29 O 0.35795 0.38303 0.69317 0.0
O30 O 0.31696 0.46858 0.68342 0.0
C31 C 0.24419 0.36373 0.7154 0.0
O32 O 0.18427 0.4328 0.68702 0.0
Co33 Co 0.17364 0.29341 0.69208 0.0
O34 O 0.11207 0.35981 0.69063 0.0
C35 C 0.2491 0.31017 0.6631 0.0
C36 C 0.36583 0.43808 0.68752 0.0
C37 C 0.12789 0.41486 0.68767 0.0
O38 O 0.27199 0.36043 0.66863 0.0
O39 O 0.21275 0.27518 0.67093 0.0
O40 O 0.26466 0.41932 0.71347 0.0
O41 O 0.24409 0.3293 0.7028 0.0
Co42 Co 0.61117 0.76988 0.94063 0.0
O43 O 0.62499 0.85741 0.94307 0.0
O44 O 0.54033 0.81554 0.93309 0.0
C45 C 0.64487 0.74388 0.96539 0.0
O46 O 0.57749 0.68323 0.93674 0.0
Co47 Co 0.71661 0.67374 0.94233 0.0
O48 O 0.65103 0.61156 0.94035 0.0
C49 C 0.70003 0.74827 0.91316 0.0
C50 C 0.57004 0.86474 0.9373 0.0
C51 C 0.596 0.62702 0.93725 0.0
O52 O 0.64969 0.77144 0.91858 0.0
O53 O 0.73481 0.71205 0.92109 0.0
O54 O 0.58911 0.76366 0.96331 0.0
O55 O 0.67967 0.74404 0.95287 0.0
Co56 Co 0.23965 0.39897 0.06198 0.0
O57 O 0.15215 0.38448 0.0598 0.0
O58 O 0.19391 0.46992 0.06936 0.0
C59 C 0.26521 0.36428 0.03729 0.0
O60 O 0.32627 0.4333 0.06551 0.0
Co61 Co 0.33604 0.29378 0.06053 0.0
O62 O 0.39799 0.35981 0.06191 0.0
C63 C 0.26246 0.31186 0.0898 0.0
C64 C 0.14474 0.43966 0.06541 0.0
C65 C 0.38251 0.41498 0.06484 0.0
O66 O 0.23898 0.36175 0.08419 0.0
O67 O 0.29853 0.27668 0.08193 0.0
O68 O 0.24499 0.41996 0.03922 0.0
O69 O 0.2655 0.32999 0.04991 0.0
Co70 Co 0.61178 0.73931 0.31204 0.0
O71 O 0.62717 0.65196 0.30981 0.0
O72 O 0.54108 0.6929 0.31924 0.0
C73 C 0.64704 0.76532 0.28745 0.0
O74 O 0.5764 0.8255 0.31561 0.0
Co75 Co 0.71575 0.83694 0.31088 0.0
O76 O 0.64913 0.89821 0.31241 0.0
C77 C 0.69796 0.76234 0.33999 0.0
C78 C 0.5719 0.64404 0.31531 0.0
C79 C 0.59407 0.88198 0.31517 0.0
O80 O 0.64833 0.73863 0.3343 0.0
O81 O 0.73295 0.79886 0.33221 0.0
O82 O 0.59146 0.74471 0.28926 0.0
O83 O 0.68091 0.76594 0.30014 0.0
Co84 Co 0.27045 0.11206 0.56204 0.0
O85 O 0.3579 0.1264 0.55976 0.0
O86 O 0.31609 0.04083 0.56925 0.0
C87 C 0.24467 0.14746 0.53746 0.0
O88 O 0.18376 0.07794 0.56566 0.0
Co89 Co 0.17442 0.21754 0.56093 0.0
O90 O 0.11217 0.15181 0.56242 0.0
C91 C 0.24922 0.19884 0.58995 0.0
C92 C 0.36526 0.07111 0.5653 0.0
C93 C 0.12755 0.09648 0.56519 0.0
O94 O 0.27185 0.14869 0.58428 0.0
O95 O 0.21327 0.23446 0.58218 0.0
O96 O 0.26461 0.09163 0.53928 0.0
O97 O 0.24466 0.18147 0.55014 0.0
Co98 Co 0.89851 0.77002 0.81199 0.0
O99 O 0.88468 0.85765 0.80966 0.0
O100 O 0.97005 0.81547 0.81912 0.0
C101 C 0.86273 0.74408 0.78743 0.0
O102 O 0.93229 0.68322 0.81566 0.0
Co103 Co 0.79268 0.67419 0.81093 0.0
O104 O 0.85819 0.61179 0.81259 0.0
C105 C 0.81227 0.74845 0.84002 0.0
C106 C 0.94008 0.86481 0.81514 0.0
C107 C 0.91355 0.62707 0.81532 0.0
O108 O 0.86206 0.77159 0.83427 0.0
O109 O 0.77665 0.7124 0.8323 0.0
O110 O 0.91864 0.76384 0.7892 0.0
O111 O 0.8289 0.74433 0.80013 0.0
Co112 Co 0.73963 0.61138 0.69076 0.0
O113 O 0.65215 0.62562 0.6931 0.0
O114 O 0.694 0.54015 0.68357 0.0
C115 C 0.76563 0.6467 0.71535 0.0
O116 O 0.82626 0.57714 0.6871 0.0
Co117 Co 0.8358 0.71659 0.69184 0.0
O118 O 0.89798 0.65071 0.6905 0.0
C119 C 0.76065 0.6984 0.66286 0.0
C120 C 0.64483 0.57031 0.68757 0.0
C121 C 0.88251 0.59546 0.68767 0.0
O122 O 0.73803 0.64821 0.66851 0.0
O123 O 0.79675 0.73385 0.67062 0.0
O124 O 0.74569 0.59088 0.71352 0.0
O125 O 0.76555 0.68074 0.70268 0.0
Co126 Co 0.39824 0.23975 0.94071 0.0
O127 O 0.38297 0.15239 0.94313 0.0
O128 O 0.46889 0.19306 0.93356 0.0
C129 C 0.36314 0.26671 0.96526 0.0
O130 O 0.43351 0.32583 0.93692 0.0
Co131 Co 0.2941 0.33749 0.94175 0.0
O132 O 0.36071 0.39863 0.93995 0.0
C133 C 0.31203 0.26231 0.91275 0.0
C134 C 0.43814 0.14427 0.93758 0.0
C135 C 0.41576 0.3823 0.93719 0.0
O136 O 0.36152 0.23848 0.91848 0.0
O137 O 0.27709 0.29911 0.92045 0.0
O138 O 0.41868 0.24593 0.96348 0.0
O139 O 0.3292 0.26686 0.95258 0.0
Co140 Co 0.77099 0.89776 0.19087 0.0
O141 O 0.85842 0.88308 0.19328 0.0
O142 O 0.81713 0.96891 0.18381 0.0
C143 C 0.74446 0.86208 0.21537 0.0
O144 O 0.68452 0.93246 0.18718 0.0
Co145 Co 0.67416 0.79295 0.19176 0.0
O146 O 0.61239 0.85918 0.19045 0.0
C147 C 0.74987 0.81132 0.16288 0.0
C148 C 0.86613 0.93846 0.18782 0.0
C149 C 0.62816 0.91439 0.18769 0.0
O150 O 0.77269 0.86132 0.16859 0.0
O151 O 0.71346 0.77594 0.17057 0.0
O152 O 0.76471 0.91783 0.21364 0.0
O153 O 0.74453 0.8283 0.20266 0.0
Co154 Co 0.1124 0.27087 0.44085 0.0
O155 O 0.12683 0.35833 0.44327 0.0
O156 O 0.04115 0.31687 0.43378 0.0
C157 C 0.14805 0.24441 0.46535 0.0
O158 O 0.07797 0.1843 0.43713 0.0
Co159 Co 0.21748 0.17434 0.44175 0.0
O160 O 0.15145 0.11236 0.44041 0.0
C161 C 0.19893 0.24994 0.41285 0.0
C162 C 0.07145 0.36592 0.43782 0.0
C163 C 0.09621 0.12798 0.43764 0.0
O164 O 0.1489 0.2727 0.41857 0.0
O165 O 0.23438 0.2136 0.42055 0.0
O166 O 0.09224 0.2645 0.46361 0.0
O167 O 0.18189 0.24459 0.45265 0.0
Co168 Co 0.73957 0.89913 0.56213 0.0
O169 O 0.65224 0.88431 0.55971 0.0
O170 O 0.69333 0.96971 0.5695 0.0
C171 C 0.7661 0.86494 0.53747 0.0
O172 O 0.82589 0.93389 0.56592 0.0
Co173 Co 0.83656 0.79462 0.56083 0.0
O174 O 0.89816 0.86095 0.56235 0.0
C175 C 0.76094 0.81104 0.58979 0.0
C176 C 0.64443 0.93932 0.56539 0.0
C177 C 0.88227 0.91599 0.56531 0.0
O178 O 0.7381 0.86138 0.58427 0.0
O179 O 0.79733 0.77613 0.58195 0.0
O180 O 0.74567 0.92054 0.53942 0.0
O181 O 0.76615 0.83047 0.55006 0.0
Co182 Co 0.1122 0.23969 0.81201 0.0
O183 O 0.12766 0.15235 0.80961 0.0
O184 O 0.04183 0.19283 0.81929 0.0
C185 C 0.14674 0.26645 0.78742 0.0
O186 O 0.07673 0.32574 0.8158 0.0
Co187 Co 0.21593 0.33788 0.81071 0.0
O188 O 0.14906 0.39879 0.81247 0.0
C189 C 0.19947 0.26239 0.83972 0.0
C190 C 0.07259 0.1441 0.81521 0.0
C191 C 0.09418 0.38229 0.81536 0.0
O192 O 0.1496 0.23869 0.83417 0.0
O193 O 0.23406 0.29914 0.8319 0.0
O194 O 0.09126 0.2456 0.78927 0.0
O195 O 0.18088 0.26687 0.80006 0.0
Co196 Co 0.77046 0.61218 0.06199 0.0
O197 O 0.85786 0.62695 0.05963 0.0
O198 O 0.81659 0.54124 0.06919 0.0
C199 C 0.74376 0.64738 0.03744 0.0
O200 O 0.6841 0.57745 0.06567 0.0
Co201 Co 0.67361 0.71704 0.06098 0.0
O202 O 0.61197 0.65068 0.06227 0.0
C203 C 0.74935 0.69918 0.08987 0.0
C204 C 0.86557 0.57174 0.0652 0.0
C205 C 0.62776 0.5955 0.06508 0.0
O206 O 0.77197 0.64897 0.08422 0.0
O207 O 0.71308 0.73454 0.08213 0.0
O208 O 0.76432 0.59174 0.03922 0.0
O209 O 0.74388 0.68136 0.05011 0.0
Co210 Co 0.3989 0.27009 0.31208 0.0
O211 O 0.38531 0.35766 0.30963 0.0
O212 O 0.47004 0.31534 0.31947 0.0
C213 C 0.36459 0.24383 0.28743 0.0
O214 O 0.43245 0.18333 0.31591 0.0
Co215 Co 0.29305 0.1745 0.31076 0.0
O216 O 0.35855 0.11204 0.31237 0.0
C217 C 0.3107 0.24965 0.33975 0.0
C218 C 0.44038 0.36468 0.31535 0.0
C219 C 0.41376 0.1272 0.31534 0.0
O220 O 0.36114 0.27209 0.3342 0.0
O221 O 0.27535 0.21365 0.33193 0.0
O222 O 0.4204 0.26362 0.28939 0.0
O223 O 0.32999 0.24435 0.29999 0.0
C224 C 0.24278 0.27075 0.11893 0.0
C225 C 0.24867 0.29353 0.10587 0.0
C226 C 0.24258 0.24096 0.13392 0.0
C227 C 0.24837 0.21784 0.14694 0.0
C228 C 0.76883 0.74193 0.38405 0.0
C229 C 0.79206 0.74789 0.39704 0.0
C230 C 0.73898 0.74212 0.36908 0.0
C231 C 0.71622 0.74818 0.35603 0.0
C232 C 0.26995 0.23915 0.61907 0.0
C233 C 0.26358 0.21668 0.60601 0.0
C234 C 0.26993 0.26855 0.6341 0.0
C235 C 0.2635 0.2915 0.6471 0.0
C236 C 0.77212 0.76835 0.8692 0.0
C237 C 0.79464 0.76249 0.85612 0.0
C238 C 0.74241 0.76826 0.88418 0.0
C239 C 0.71912 0.76221 0.89717 0.0
C240 C 0.73995 0.76903 0.61877 0.0
C241 C 0.74644 0.79218 0.60578 0.0
C242 C 0.73985 0.73932 0.63377 0.0
C243 C 0.74618 0.71652 0.64681 0.0
C244 C 0.27125 0.24217 0.88366 0.0
C245 C 0.29393 0.24813 0.89671 0.0
C246 C 0.24151 0.2422 0.86869 0.0
C247 C 0.21833 0.24825 0.8557 0.0
C248 C 0.77081 0.74051 0.11886 0.0
C249 C 0.76419 0.71752 0.10587 0.0
C250 C 0.77099 0.77032 0.13384 0.0
C251 C 0.76461 0.79323 0.14686 0.0
C252 C 0.23962 0.2709 0.38377 0.0
C253 C 0.21688 0.26456 0.39681 0.0
C254 C 0.26925 0.27075 0.36877 0.0
C255 C 0.29221 0.2642 0.35576 0.0
C256 C 0.30385 0.18782 0.2437 0.0
C257 C 0.287 0.1697 0.23073 0.0
C258 C 0.32395 0.20765 0.25902 0.0
C259 C 0.34202 0.22405 0.27203 0.0
C260 C 0.82233 0.80424 0.49374 0.0
C261 C 0.84046 0.78734 0.48077 0.0
C262 C 0.80243 0.82436 0.50905 0.0
C263 C 0.78596 0.84244 0.52207 0.0
C264 C 0.20767 0.32323 0.74379 0.0
C265 C 0.22422 0.34124 0.73078 0.0
C266 C 0.18765 0.3033 0.75909 0.0
C267 C 0.16945 0.28659 0.77207 0.0
C268 C 0.70573 0.68834 0.0092 0.0
C269 C 0.72295 0.67022 0.02215 0.0
C270 C 0.68531 0.70809 0.99389 0.0
C271 C 0.66718 0.72435 0.98085 0.0
C272 C 0.30167 0.32372 0.00887 0.0
C273 C 0.28515 0.34173 0.02189 0.0
C274 C 0.32178 0.30375 0.99356 0.0
C275 C 0.34014 0.28697 0.98059 0.0
C276 C 0.68842 0.80078 0.25904 0.0
C277 C 0.67014 0.78474 0.27207 0.0
C278 C 0.70827 0.82045 0.24369 0.0
C279 C 0.72462 0.83874 0.23069 0.0
C280 C 0.18966 0.2085 0.49369 0.0
C281 C 0.17139 0.22472 0.48067 0.0
C282 C 0.20928 0.18882 0.50906 0.0
C283 C 0.22527 0.17062 0.5221 0.0
C284 C 0.80121 0.68814 0.74375 0.0
C285 C 0.78511 0.66984 0.73072 0.0
C286 C 0.82099 0.708 0.7591 0.0
C287 C 0.83938 0.72432 0.7721 0.0
C288 C 0.03491 0.01933 0.18642 0.0
C289 C 0.08504 0.04341 0.18702 0.0
C290 C 0.97644 0.99031 0.18646 0.0
C291 C 0.92628 0.96633 0.18712 0.0
C292 C 0.01931 0.47613 0.43651 0.0
C293 C 0.0434 0.42601 0.43714 0.0
C294 C 0.99026 0.53459 0.43649 0.0
C295 C 0.96624 0.58475 0.4371 0.0
C296 C 0.47627 0.48937 0.68608 0.0
C297 C 0.42602 0.46569 0.68677 0.0
C298 C 0.53479 0.51817 0.68609 0.0
C299 C 0.58488 0.54218 0.68679 0.0
C300 C 0.48899 0.03351 0.93596 0.0
C301 C 0.46547 0.08388 0.93674 0.0
C302 C 0.51766 0.97484 0.93591 0.0
C303 C 0.54169 0.92469 0.93656 0.0
C304 C 0.03455 0.4916 0.06696 0.0
C305 C 0.08472 0.46769 0.06623 0.0
C306 C 0.97599 0.52037 0.06689 0.0
C307 C 0.92576 0.54409 0.06609 0.0
C308 C 0.52067 0.53356 0.31681 0.0
C309 C 0.54438 0.5838 0.31609 0.0
C310 C 0.49224 0.47487 0.31685 0.0
C311 C 0.46875 0.42451 0.31619 0.0
C312 C 0.53402 0.99066 0.56693 0.0
C313 C 0.58427 0.96698 0.5662 0.0
C314 C 0.47545 0.01933 0.56691 0.0
C315 C 0.42528 0.04316 0.56616 0.0
C316 C 0.02158 0.03336 0.81663 0.0
C317 C 0.04521 0.0837 0.81594 0.0
C318 C 0.99267 0.9748 0.81661 0.0
C319 C 0.96846 0.92474 0.81591 0.0
C320 C 0.53357 0.98846 0.18392 0.0
C321 C 0.57957 0.95812 0.18545 0.0
C322 C 0.47759 0.02123 0.18392 0.0
C323 C 0.43161 0.05159 0.18546 0.0
C324 C 0.98957 0.97725 0.43383 0.0
C325 C 0.95912 0.93134 0.43538 0.0
C326 C 0.02237 0.03323 0.43384 0.0
C327 C 0.05264 0.07926 0.43539 0.0
C328 C 0.03333 0.48892 0.68385 0.0
C329 C 0.07933 0.45859 0.68538 0.0
C330 C 0.97734 0.52169 0.68387 0.0
C331 C 0.93131 0.55197 0.68542 0.0
C332 C 0.49013 0.47623 0.93298 0.0
C333 C 0.45972 0.43042 0.93471 0.0
C334 C 0.52279 0.5322 0.93297 0.0
C335 C 0.55282 0.57824 0.93471 0.0
C336 C 0.53327 0.52133 0.06875 0.0
C337 C 0.57922 0.55174 0.06727 0.0
C338 C 0.47733 0.48858 0.0687 0.0
C339 C 0.43129 0.45838 0.06714 0.0
C340 C 0.48686 0.03198 0.31925 0.0
C341 C 0.45688 0.07817 0.31767 0.0
C342 C 0.51955 0.97598 0.31918 0.0
C343 C 0.55006 0.93017 0.31754 0.0
C344 C 0.97666 0.9902 0.56916 0.0
C345 C 0.93074 0.95978 0.56762 0.0
C346 C 0.03261 0.02298 0.56911 0.0
C347 C 0.07867 0.05316 0.5675 0.0
C348 C 0.98674 0.53204 0.81941 0.0
C349 C 0.9567 0.57813 0.81772 0.0
C350 C 0.01948 0.47607 0.81945 0.0
C351 C 0.05001 0.4303 0.81779 0.0
loop_
_geom_bond_atom_site_label_1
_geom_bond_atom_site_label_2
_geom_bond_distance
_geom_bond_site_symmetry_2
_ccdc_geom_bond_type
Co0 O1 2.216 . S
Co0 O2 2.091 . S
Co0 O4 2.004 . S
Co0 O10 2.021 . S
Co0 O12 2.137 . S
Co0 O13 2.244 . S
O1 Co0 2.216 . S
O1 C8 1.247 . S
O2 Co0 2.091 . S
O2 C8 1.261 . S
C3 O12 1.247 . S
C3 O13 1.272 . S
O4 Co0 2.004 . S
O4 C9 1.259 . S
Co5 O6 2.061 . S
Co5 O11 2.052 . S
Co5 O13 2.135 . S
O6 Co5 2.061 . S
O6 C9 1.235 . S
C7 O10 1.238 . S
C7 O11 1.241 . S
C8 O1 1.247 . S
C8 O2 1.261 . S
C9 O4 1.259 . S
C9 O6 1.235 . S
O10 Co0 2.021 . S
O10 C7 1.238 . S
O11 Co5 2.052 . S
O11 C7 1.241 . S
O12 Co0 2.137 . S
O12 C3 1.247 . S
O13 Co0 2.244 . S
O13 C3 1.272 . S
O13 Co5 2.135 . S
Co14 O15 2.216 . S
Co14 O16 2.091 . S
Co14 O18 2.004 . S
Co14 O24 2.021 . S
Co14 O26 2.137 . S
Co14 O27 2.244 . S
O15 Co14 2.216 . S
O15 C22 1.247 . S
O16 Co14 2.091 . S
O16 C22 1.261 . S
C17 O26 1.247 . S
C17 O27 1.272 . S
O18 Co14 2.004 . S
O18 C23 1.259 . S
Co19 O20 2.061 . S
Co19 O25 2.052 . S
Co19 O27 2.135 . S
O20 Co19 2.061 . S
O20 C23 1.235 . S
C21 O24 1.238 . S
C21 O25 1.241 . S
C22 O15 1.247 . S
C22 O16 1.261 . S
C23 O18 1.259 . S
C23 O20 1.235 . S
O24 Co14 2.021 . S
O24 C21 1.238 . S
O25 Co19 2.052 . S
O25 C21 1.241 . S
O26 Co14 2.137 . S
O26 C17 1.247 . S
O27 Co14 2.244 . S
O27 C17 1.272 . S
O27 Co19 2.135 . S
Co28 O29 2.216 . S
Co28 O30 2.091 . S
Co28 O32 2.004 . S
Co28 O38 2.021 . S
Co28 O40 2.137 . S
Co28 O41 2.244 . S
O29 Co28 2.216 . S
O29 C36 1.247 . S
O30 Co28 2.091 . S
O30 C36 1.261 . S
C31 O40 1.247 . S
C31 O41 1.272 . S
O32 Co28 2.004 . S
O32 C37 1.259 . S
Co33 O34 2.061 . S
Co33 O39 2.052 . S
Co33 O41 2.135 . S
O34 Co33 2.061 . S
O34 C37 1.235 . S
C35 O38 1.238 . S
C35 O39 1.241 . S
C36 O29 1.247 . S
C36 O30 1.261 . S
C37 O32 1.259 . S
C37 O34 1.235 . S
O38 Co28 2.021 . S
O38 C35 1.238 . S
O39 Co33 2.052 . S
O39 C35 1.241 . S
O40 Co28 2.137 . S
O40 C31 1.247 . S
O41 Co28 2.244 . S
O41 C31 1.272 . S
O41 Co33 2.135 . S
Co42 O43 2.216 . S
Co42 O44 2.091 . S
Co42 O46 2.004 . S
Co42 O52 2.021 . S
Co42 O54 2.137 . S
Co42 O55 2.244 . S
O43 Co42 2.216 . S
O43 C50 1.247 . S
O44 Co42 2.091 . S
O44 C50 1.261 . S
C45 O54 1.247 . S
C45 O55 1.272 . S
O46 Co42 2.004 . S
O46 C51 1.259 . S
Co47 O48 2.061 . S
Co47 O53 2.052 . S
Co47 O55 2.135 . S
O48 Co47 2.061 . S
O48 C51 1.235 . S
C49 O52 1.238 . S
C49 O53 1.241 . S
C50 O43 1.247 . S
C50 O44 1.261 . S
C51 O46 1.259 . S
C51 O48 1.235 . S
O52 Co42 2.021 . S
O52 C49 1.238 . S
O53 Co47 2.052 . S
O53 C49 1.241 . S
O54 Co42 2.137 . S
O54 C45 1.247 . S
O55 Co42 2.244 . S
O55 C45 1.272 . S
O55 Co47 2.135 . S
Co56 O57 2.216 . S
Co56 O58 2.091 . S
Co56 O60 2.004 . S
Co56 O66 2.021 . S
Co56 O68 2.137 . S
Co56 O69 2.244 . S
O57 Co56 2.216 . S
O57 C64 1.247 . S
O58 Co56 2.091 . S
O58 C64 1.261 . S
C59 O68 1.247 . S
C59 O69 1.272 . S
O60 Co56 2.004 . S
O60 C65 1.259 . S
Co61 O62 2.061 . S
Co61 O67 2.052 . S
Co61 O69 2.135 . S
O62 Co61 2.061 . S
O62 C65 1.235 . S
C63 O66 1.238 . S
C63 O67 1.241 . S
C64 O57 1.247 . S
C64 O58 1.261 . S
C65 O60 1.259 . S
C65 O62 1.235 . S
O66 Co56 2.021 . S
O66 C63 1.238 . S
O67 Co61 2.052 . S
O67 C63 1.241 . S
O68 Co56 2.137 . S
O68 C59 1.247 . S
O69 Co56 2.244 . S
O69 C59 1.272 . S
O69 Co61 2.135 . S
Co70 O71 2.216 . S
Co70 O72 2.091 . S
Co70 O74 2.004 . S
Co70 O80 2.021 . S
Co70 O82 2.137 . S
Co70 O83 2.244 . S
O71 Co70 2.216 . S
O71 C78 1.247 . S
O72 Co70 2.091 . S
O72 C78 1.261 . S
C73 O82 1.247 . S
C73 O83 1.272 . S
O74 Co70 2.004 . S
O74 C79 1.259 . S
Co75 O76 2.061 . S
Co75 O81 2.052 . S
Co75 O83 2.135 . S
O76 Co75 2.061 . S
O76 C79 1.235 . S
C77 O80 1.238 . S
C77 O81 1.241 . S
C78 O71 1.247 . S
C78 O72 1.261 . S
C79 O74 1.259 . S
C79 O76 1.235 . S
O80 Co70 2.021 . S
O80 C77 1.238 . S
O81 Co75 2.052 . S
O81 C77 1.241 . S
O82 Co70 2.137 . S
O82 C73 1.247 . S
O83 Co70 2.244 . S
O83 C73 1.272 . S
O83 Co75 2.135 . S
Co84 O85 2.216 . S
Co84 O86 2.091 . S
Co84 O88 2.004 . S
Co84 O94 2.021 . S
Co84 O96 2.137 . S
Co84 O97 2.244 . S
O85 Co84 2.216 . S
O85 C92 1.247 . S
O86 Co84 2.091 . S
O86 C92 1.261 . S
C87 O96 1.247 . S
C87 O97 1.272 . S
O88 Co84 2.004 . S
O88 C93 1.259 . S
Co89 O90 2.061 . S
Co89 O95 2.052 . S
Co89 O97 2.135 . S
O90 Co89 2.061 . S
O90 C93 1.235 . S
C91 O94 1.238 . S
C91 O95 1.241 . S
C92 O85 1.247 . S
C92 O86 1.261 . S
C93 O88 1.259 . S
C93 O90 1.235 . S
O94 Co84 2.021 . S
O94 C91 1.238 . S
O95 Co89 2.052 . S
O95 C91 1.241 . S
O96 Co84 2.137 . S
O96 C87 1.247 . S
O97 Co84 2.244 . S
O97 C87 1.272 . S
O97 Co89 2.135 . S
Co98 O99 2.216 . S
Co98 O100 2.091 . S
Co98 O102 2.004 . S
Co98 O108 2.021 . S
Co98 O110 2.137 . S
Co98 O111 2.244 . S
O99 Co98 2.216 . S
O99 C106 1.247 . S
O100 Co98 2.091 . S
O100 C106 1.261 . S
C101 O110 1.247 . S
C101 O111 1.272 . S
O102 Co98 2.004 . S
O102 C107 1.259 . S
Co103 O104 2.061 . S
Co103 O109 2.052 . S
Co103 O111 2.135 . S
O104 Co103 2.061 . S
O104 C107 1.235 . S
C105 O108 1.238 . S
C105 O109 1.241 . S
C106 O99 1.247 . S
C106 O100 1.261 . S
C107 O102 1.259 . S
C107 O104 1.235 . S
O108 Co98 2.021 . S
O108 C105 1.238 . S
O109 Co103 2.052 . S
O109 C105 1.241 . S
O110 Co98 2.137 . S
O110 C101 1.247 . S
O111 Co98 2.244 . S
O111 C101 1.272 . S
O111 Co103 2.135 . S
Co112 O113 2.216 . S
Co112 O114 2.091 . S
Co112 O116 2.004 . S
Co112 O122 2.021 . S
Co112 O124 2.137 . S
Co112 O125 2.244 . S
O113 Co112 2.216 . S
O113 C120 1.247 . S
O114 Co112 2.091 . S
O114 C120 1.261 . S
C115 O124 1.247 . S
C115 O125 1.272 . S
O116 Co112 2.004 . S
O116 C121 1.259 . S
Co117 O118 2.061 . S
Co117 O123 2.052 . S
Co117 O125 2.135 . S
O118 Co117 2.061 . S
O118 C121 1.235 . S
C119 O122 1.238 . S
C119 O123 1.241 . S
C120 O113 1.247 . S
C120 O114 1.261 . S
C121 O116 1.259 . S
C121 O118 1.235 . S
O122 Co112 2.021 . S
O122 C119 1.238 . S
O123 Co117 2.052 . S
O123 C119 1.241 . S
O124 Co112 2.137 . S
O124 C115 1.247 . S
O125 Co112 2.244 . S
O125 C115 1.272 . S
O125 Co117 2.135 . S
Co126 O127 2.216 . S
Co126 O128 2.091 . S
Co126 O130 2.004 . S
Co126 O136 2.021 . S
Co126 O138 2.137 . S
Co126 O139 2.244 . S
O127 Co126 2.216 . S
O127 C134 1.247 . S
O128 Co126 2.091 . S
O128 C134 1.261 . S
C129 O138 1.247 . S
C129 O139 1.272 . S
O130 Co126 2.004 . S
O130 C135 1.259 . S
Co131 O132 2.061 . S
Co131 O137 2.052 . S
Co131 O139 2.135 . S
O132 Co131 2.061 . S
O132 C135 1.235 . S
C133 O136 1.238 . S
C133 O137 1.241 . S
C134 O127 1.247 . S
C134 O128 1.261 . S
C135 O130 1.259 . S
C135 O132 1.235 . S
O136 Co126 2.021 . S
O136 C133 1.238 . S
O137 Co131 2.052 . S
O137 C133 1.241 . S
O138 Co126 2.137 . S
O138 C129 1.247 . S
O139 Co126 2.244 . S
O139 C129 1.272 . S
O139 Co131 2.135 . S
Co140 O141 2.216 . S
Co140 O142 2.091 . S
Co140 O144 2.004 . S
Co140 O150 2.021 . S
Co140 O152 2.137 . S
Co140 O153 2.244 . S
O141 Co140 2.216 . S
O141 C148 1.247 . S
O142 Co140 2.091 . S
O142 C148 1.261 . S
C143 O152 1.247 . S
C143 O153 1.272 . S
O144 Co140 2.004 . S
O144 C149 1.259 . S
Co145 O146 2.061 . S
Co145 O151 2.052 . S
Co145 O153 2.135 . S
O146 Co145 2.061 . S
O146 C149 1.235 . S
C147 O150 1.238 . S
C147 O151 1.241 . S
C148 O141 1.247 . S
C148 O142 1.261 . S
C149 O144 1.259 . S
C149 O146 1.235 . S
O150 Co140 2.021 . S
O150 C147 1.238 . S
O151 Co145 2.052 . S
O151 C147 1.241 . S
O152 Co140 2.137 . S
O152 C143 1.247 . S
O153 Co140 2.244 . S
O153 C143 1.272 . S
O153 Co145 2.135 . S
Co154 O155 2.216 . S
Co154 O156 2.091 . S
Co154 O158 2.004 . S
Co154 O164 2.021 . S
Co154 O166 2.137 . S
Co154 O167 2.244 . S
O155 Co154 2.216 . S
O155 C162 1.247 . S
O156 Co154 2.091 . S
O156 C162 1.261 . S
C157 O166 1.247 . S
C157 O167 1.272 . S
O158 Co154 2.004 . S
O158 C163 1.259 . S
Co159 O160 2.061 . S
Co159 O165 2.052 . S
Co159 O167 2.135 . S
O160 Co159 2.061 . S
O160 C163 1.235 . S
C161 O164 1.238 . S
C161 O165 1.241 . S
C162 O155 1.247 . S
C162 O156 1.261 . S
C163 O158 1.259 . S
C163 O160 1.235 . S
O164 Co154 2.021 . S
O164 C161 1.238 . S
O165 Co159 2.052 . S
O165 C161 1.241 . S
O166 Co154 2.137 . S
O166 C157 1.247 . S
O167 Co154 2.244 . S
O167 C157 1.272 . S
O167 Co159 2.135 . S
Co168 O169 2.216 . S
Co168 O170 2.091 . S
Co168 O172 2.004 . S
Co168 O178 2.021 . S
Co168 O180 2.137 . S
Co168 O181 2.244 . S
O169 Co168 2.216 . S
O169 C176 1.247 . S
O170 Co168 2.091 . S
O170 C176 1.261 . S
C171 O180 1.247 . S
C171 O181 1.272 . S
O172 Co168 2.004 . S
O172 C177 1.259 . S
Co173 O174 2.061 . S
Co173 O179 2.052 . S
Co173 O181 2.135 . S
O174 Co173 2.061 . S
O174 C177 1.235 . S
C175 O178 1.238 . S
C175 O179 1.241 . S
C176 O169 1.247 . S
C176 O170 1.261 . S
C177 O172 1.259 . S
C177 O174 1.235 . S
O178 Co168 2.021 . S
O178 C175 1.238 . S
O179 Co173 2.052 . S
O179 C175 1.241 . S
O180 Co168 2.137 . S
O180 C171 1.247 . S
O181 Co168 2.244 . S
O181 C171 1.272 . S
O181 Co173 2.135 . S
Co182 O183 2.216 . S
Co182 O184 2.091 . S
Co182 O186 2.004 . S
Co182 O192 2.021 . S
Co182 O194 2.137 . S
Co182 O195 2.244 . S
O183 Co182 2.216 . S
O183 C190 1.247 . S
O184 Co182 2.091 . S
O184 C190 1.261 . S
C185 O194 1.247 . S
C185 O195 1.272 . S
O186 Co182 2.004 . S
O186 C191 1.259 . S
Co187 O188 2.061 . S
Co187 O193 2.052 . S
Co187 O195 2.135 . S
O188 Co187 2.061 . S
O188 C191 1.235 . S
C189 O192 1.238 . S
C189 O193 1.241 . S
C190 O183 1.247 . S
C190 O184 1.261 . S
C191 O186 1.259 . S
C191 O188 1.235 . S
O192 Co182 2.021 . S
O192 C189 1.238 . S
O193 Co187 2.052 . S
O193 C189 1.241 . S
O194 Co182 2.137 . S
O194 C185 1.247 . S
O195 Co182 2.244 . S
O195 C185 1.272 . S
O195 Co187 2.135 . S
Co196 O197 2.216 . S
Co196 O198 2.091 . S
Co196 O200 2.004 . S
Co196 O206 2.021 . S
Co196 O208 2.137 . S
Co196 O209 2.244 . S
O197 Co196 2.216 . S
O197 C204 1.247 . S
O198 Co196 2.091 . S
O198 C204 1.261 . S
C199 O208 1.247 . S
C199 O209 1.272 . S
O200 Co196 2.004 . S
O200 C205 1.259 . S
Co201 O202 2.061 . S
Co201 O207 2.052 . S
Co201 O209 2.135 . S
O202 Co201 2.061 . S
O202 C205 1.235 . S
C203 O206 1.238 . S
C203 O207 1.241 . S
C204 O197 1.247 . S
C204 O198 1.261 . S
C205 O200 1.259 . S
C205 O202 1.235 . S
O206 Co196 2.021 . S
O206 C203 1.238 . S
O207 Co201 2.052 . S
O207 C203 1.241 . S
O208 Co196 2.137 . S
O208 C199 1.247 . S
O209 Co196 2.244 . S
O209 C199 1.272 . S
O209 Co201 2.135 . S
Co210 O211 2.216 . S
Co210 O212 2.091 . S
Co210 O214 2.004 . S
Co210 O220 2.021 . S
Co210 O222 2.137 . S
Co210 O223 2.244 . S
O211 Co210 2.216 . S
O211 C218 1.247 . S
O212 Co210 2.091 . S
O212 C218 1.261 . S
C213 O222 1.247 . S
C213 O223 1.272 . S
O214 Co210 2.004 . S
O214 C219 1.259 . S
Co215 O216 2.061 . S
Co215 O221 2.052 . S
Co215 O223 2.135 . S
O216 Co215 2.061 . S
O216 C219 1.235 . S
C217 O220 1.238 . S
C217 O221 1.241 . S
C218 O211 1.247 . S
C218 O212 1.261 . S
C219 O214 1.259 . S
C219 O216 1.235 . S
O220 Co210 2.021 . S
O220 C217 1.238 . S
O221 Co215 2.052 . S
O221 C217 1.241 . S
O222 Co210 2.137 . S
O222 C213 1.247 . S
O223 Co210 2.244 . S
O223 C213 1.272 . S
O223 Co215 2.135 . S
C224 C225 1.170 . S
C224 C226 1.380 . S
C225 C224 1.170 . S
C226 C224 1.380 . S
C226 C227 1.170 . S
C227 C226 1.170 . S
C228 C229 1.170 . S
C228 C230 1.380 . S
C229 C228 1.170 . S
C230 C228 1.380 . S
C230 C231 1.170 . S
C231 C230 1.170 . S
C232 C233 1.170 . S
C232 C234 1.380 . S
C233 C232 1.170 . S
C234 C232 1.380 . S
C234 C235 1.170 . S
C235 C234 1.170 . S
C236 C237 1.170 . S
C236 C238 1.380 . S
C237 C236 1.170 . S
C238 C236 1.380 . S
C238 C239 1.170 . S
C239 C238 1.170 . S
C240 C241 1.170 . S
C240 C242 1.380 . S
C241 C240 1.170 . S
C242 C240 1.380 . S
C242 C243 1.170 . S
C243 C242 1.170 . S
C244 C245 1.170 . S
C244 C246 1.380 . S
C245 C244 1.170 . S
C246 C244 1.380 . S
C246 C247 1.170 . S
C247 C246 1.170 . S
C248 C249 1.170 . S
C248 C250 1.380 . S
C249 C248 1.170 . S
C250 C248 1.380 . S
C250 C251 1.170 . S
C251 C250 1.170 . S
C252 C253 1.170 . S
C252 C254 1.380 . S
C253 C252 1.170 . S
C254 C252 1.380 . S
C254 C255 1.170 . S
C255 C254 1.170 . S
C256 C257 1.170 . S
C256 C258 1.380 . S
C257 C256 1.170 . S
C258 C256 1.380 . S
C258 C259 1.170 . S
C259 C258 1.170 . S
C260 C261 1.170 . S
C260 C262 1.380 . S
C261 C260 1.170 . S
C262 C260 1.380 . S
C262 C263 1.170 . S
C263 C262 1.170 . S
C264 C265 1.170 . S
C264 C266 1.380 . S
C265 C264 1.170 . S
C266 C264 1.380 . S
C266 C267 1.170 . S
C267 C266 1.170 . S
C268 C269 1.170 . S
C268 C270 1.380 1_554 S
C269 C268 1.170 . S
C270 C268 1.380 1_556 S
C270 C271 1.170 . S
C271 C270 1.170 . S
C272 C273 1.170 . S
C272 C274 1.380 1_554 S
C273 C272 1.170 . S
C274 C272 1.380 1_556 S
C274 C275 1.170 . S
C275 C274 1.170 . S
C276 C277 1.170 . S
C276 C278 1.380 . S
C277 C276 1.170 . S
C278 C276 1.380 . S
C278 C279 1.170 . S
C279 C278 1.170 . S
C280 C281 1.170 . S
C280 C282 1.380 . S
C281 C280 1.170 . S
C282 C280 1.380 . S
C282 C283 1.170 . S
C283 C282 1.170 . S
C284 C285 1.170 . S
C284 C286 1.380 . S
C285 C284 1.170 . S
C286 C284 1.380 . S
C286 C287 1.170 . S
C287 C286 1.170 . S
C288 C289 1.170 . S
C288 C290 1.380 1_445 S
C289 C288 1.170 . S
C290 C288 1.380 1_665 S
C290 C291 1.170 . S
C291 C290 1.170 . S
C292 C293 1.170 . S
C292 C294 1.380 1_455 S
C293 C292 1.170 . S
C294 C292 1.380 1_655 S
C294 C295 1.170 . S
C295 C294 1.170 . S
C296 C297 1.170 . S
C296 C298 1.380 . S
C297 C296 1.170 . S
C298 C296 1.380 . S
C298 C299 1.170 . S
C299 C298 1.170 . S
C300 C301 1.170 . S
C300 C302 1.380 1_545 S
C301 C300 1.170 . S
C302 C300 1.380 1_565 S
C302 C303 1.170 . S
C303 C302 1.170 . S
C304 C305 1.170 . S
C304 C306 1.380 1_455 S
C305 C304 1.170 . S
C306 C304 1.380 1_655 S
C306 C307 1.170 . S
C307 C306 1.170 . S
C308 C309 1.170 . S
C308 C310 1.380 . S
C309 C308 1.170 . S
C310 C308 1.380 . S
C310 C311 1.170 . S
C311 C310 1.170 . S
C312 C313 1.170 . S
C312 C314 1.380 1_565 S
C313 C312 1.170 . S
C314 C312 1.380 1_545 S
C314 C315 1.170 . S
C315 C314 1.170 . S
C316 C317 1.170 . S
C316 C318 1.380 1_445 S
C317 C316 1.170 . S
C318 C316 1.380 1_665 S
C318 C319 1.170 . S
C319 C318 1.170 . S
C320 C321 1.170 . S
C320 C322 1.380 1_565 S
C321 C320 1.170 . S
C322 C320 1.380 1_545 S
C322 C323 1.170 . S
C323 C322 1.170 . S
C324 C325 1.170 . S
C324 C326 1.380 1_665 S
C325 C324 1.170 . S
C326 C324 1.380 1_445 S
C326 C327 1.170 . S
C327 C326 1.170 . S
C328 C329 1.170 . S
C328 C330 1.380 1_455 S
C329 C328 1.170 . S
C330 C328 1.380 1_655 S
C330 C331 1.170 . S
C331 C330 1.170 . S
C332 C333 1.170 . S
C332 C334 1.380 . S
C333 C332 1.170 . S
C334 C332 1.380 . S
C334 C335 1.170 . S
C335 C334 1.170 . S
C336 C337 1.170 . S
C336 C338 1.380 . S
C337 C336 1.170 . S
C338 C336 1.380 . S
C338 C339 1.170 . S
C339 C338 1.170 . S
C340 C341 1.170 . S
C340 C342 1.380 1_545 S
C341 C340 1.170 . S
C342 C340 1.380 1_565 S
C342 C343 1.170 . S
C343 C342 1.170 . S
C344 C345 1.170 . S
C344 C346 1.380 1_665 S
C345 C344 1.170 . S
C346 C344 1.380 1_445 S
C346 C347 1.170 . S
C347 C346 1.170 . S
C348 C349 1.170 . S
C348 C350 1.380 1_655 S
C349 C348 1.170 . S
C350 C348 1.380 1_455 S
C350 C351 1.170 . S
C351 C350 1.170 . S
C225 C63 1.377 . S
C227 C7 1.366 . S
C229 C21 1.368 . S
C231 C77 1.382 . S
C233 C91 1.395 . S
C235 C35 1.385 . S
C237 C105 1.382 . S
C239 C49 1.368 . S
C241 C175 1.390 . S
C243 C119 1.394 . S
C245 C133 1.378 . S
C247 C189 1.366 . S
C249 C203 1.392 . S
C251 C147 1.393 . S
C253 C161 1.392 . S
C255 C217 1.392 . S
C257 C3 1.443 . S
C259 C213 1.435 . S
C261 C17 1.444 . S
C263 C171 1.435 . S
C265 C31 1.437 . S
C267 C185 1.447 . S
C269 C199 1.444 . S
C271 C45 1.435 . S
C273 C59 1.436 . S
C275 C129 1.446 . S
C277 C73 1.448 . S
C279 C143 1.450 . S
C281 C157 1.450 . S
C283 C87 1.448 . S
C285 C115 1.443 . S
C287 C101 1.450 . S
C289 C8 1.594 . S
C291 C148 1.604 . S
C293 C162 1.602 . S
C295 C22 1.596 . S
C297 C36 1.607 . S
C299 C120 1.590 . S
C301 C134 1.606 . S
C303 C50 1.590 . S
C305 C64 1.595 . S
C307 C204 1.600 . S
C309 C78 1.604 . S
C311 C218 1.591 . S
C313 C176 1.594 . S
C315 C92 1.601 . S
C317 C190 1.606 . S
C319 C106 1.590 . S
C321 C149 1.401 . S
C323 C9 1.404 . S
C325 C23 1.408 . S
C327 C163 1.398 . S
C329 C37 1.400 . S
C331 C121 1.406 . S
C333 C135 1.416 . S
C335 C51 1.402 . S
C337 C205 1.404 . S
C339 C65 1.402 . S
C341 C219 1.396 . S
C343 C79 1.416 . S
C345 C177 1.416 . S
C347 C93 1.395 . S
C349 C107 1.399 . S
C351 C191 1.417 . S
