# Generated by pormake.
# Topology can, (4)-cn, num edge types: 1
# Building blocks:
#     Node 0, Type 0, BuildingBlock: CEKHIL_clean_sbu_0, # of connection points: 4
#     Node 1, Type 0, BuildingBlock: CEKHIL_clean_sbu_0, # of connection points: 4
#     Node 2, Type 0, BuildingBlock: CEKHIL_clean_sbu_0, # of connection points: 4
#     Node 3, Type 0, BuildingBlock: CEKHIL_clean_sbu_0, # of connection points: 4
#     Node 4, Type 0, BuildingBlock: CEKHIL_clean_sbu_0, # of connection points: 4
#     Node 5, Type 0, BuildingBlock: CEKHIL_clean_sbu_0, # of connection points: 4
#     Node 6, Type 0, BuildingBlock: CEKHIL_clean_sbu_0, # of connection points: 4
#     Node 7, Type 0, BuildingBlock: CEKHIL_clean_sbu_0, # of connection points: 4
#     Node 8, Type 0, BuildingBlock: CEKHIL_clean_sbu_0, # of connection points: 4
#     Node 9, Type 0, BuildingBlock: CEKHIL_clean_sbu_0, # of connection points: 4
#     Node 10, Type 0, BuildingBlock: CEKHIL_clean_sbu_0, # of connection points: 4
#     Node 11, Type 0, BuildingBlock: CEKHIL_clean_sbu_0, # of connection points: 4
#     Edge 12, Type (0, 0), BuildingBlock: KIFKEQ_clean_linker_1, # of connection points: 2
#     Edge 13, Type (0, 0), BuildingBlock: KIFKEQ_clean_linker_1, # of connection points: 2
#     Edge 14, Type (0, 0), BuildingBlock: KIFKEQ_clean_linker_1, # of connection points: 2
#     Edge 15, Type (0, 0), BuildingBlock: KIFKEQ_clean_linker_1, # of connection points: 2
#     Edge 16, Type (0, 0), BuildingBlock: KIFKEQ_clean_linker_1, # of connection points: 2
#     Edge 17, Type (0, 0), BuildingBlock: KIFKEQ_clean_linker_1, # of connection points: 2
#     Edge 18, Type (0, 0), BuildingBlock: KIFKEQ_clean_linker_1, # of connection points: 2
#     Edge 19, Type (0, 0), BuildingBlock: KIFKEQ_clean_linker_1, # of connection points: 2
#     Edge 20, Type (0, 0), BuildingBlock: KIFKEQ_clean_linker_1, # of connection points: 2
#     Edge 21, Type (0, 0), BuildingBlock: KIFKEQ_clean_linker_1, # of connection points: 2
#     Edge 22, Type (0, 0), BuildingBlock: KIFKEQ_clean_linker_1, # of connection points: 2
#     Edge 23, Type (0, 0), BuildingBlock: KIFKEQ_clean_linker_1, # of connection points: 2
#     Edge 24, Type (0, 0), BuildingBlock: KIFKEQ_clean_linker_1, # of connection points: 2
#     Edge 25, Type (0, 0), BuildingBlock: KIFKEQ_clean_linker_1, # of connection points: 2
#     Edge 26, Type (0, 0), BuildingBlock: KIFKEQ_clean_linker_1, # of connection points: 2
#     Edge 27, Type (0, 0), BuildingBlock: KIFKEQ_clean_linker_1, # of connection points: 2
#     Edge 28, Type (0, 0), BuildingBlock: KIFKEQ_clean_linker_1, # of connection points: 2
#     Edge 29, Type (0, 0), BuildingBlock: KIFKEQ_clean_linker_1, # of connection points: 2
#     Edge 30, Type (0, 0), BuildingBlock: KIFKEQ_clean_linker_1, # of connection points: 2
#     Edge 31, Type (0, 0), BuildingBlock: KIFKEQ_clean_linker_1, # of connection points: 2
#     Edge 32, Type (0, 0), BuildingBlock: KIFKEQ_clean_linker_1, # of connection points: 2
#     Edge 33, Type (0, 0), BuildingBlock: KIFKEQ_clean_linker_1, # of connection points: 2
#     Edge 34, Type (0, 0), BuildingBlock: KIFKEQ_clean_linker_1, # of connection points: 2
#     Edge 35, Type (0, 0), BuildingBlock: KIFKEQ_clean_linker_1, # of connection points: 2
# Relax obj value: 0.060
# Max RMSD: 0.044
# Mean RMSD: 0.044
data_MOF--net-can--node1-CEKHIL_clean_sbu_0--edge1-KIFKEQ_clean_linker_1
_symmetry_space_group_name_H-M    P1
_symmetry_Int_Tables_number       1
_symmetry_cell_setting            triclinic
loop_
_symmetry_equiv_pos_as_xyz
'x, y, z'
_cell_length_a     55.370551
_cell_length_b     55.354131
_cell_length_c     27.62036
_cell_angle_alpha  90.025472
_cell_angle_beta   90.018841
_cell_angle_gamma 120.04181
loop_
_atom_site_label
_atom_site_type_symbol
_atom_site_fract_x
_atom_site_fract_y
_atom_site_fract_z
_atom_type_partial_charge
Co0 Co 0.0696 0.39701 0.26079 0.0
O1 O 0.08752 0.37472 0.26198 0.0
O2 O 0.10763 0.41862 0.23752 0.0
C3 C 0.05155 0.38598 0.33633 0.0
O4 O 0.05866 0.42718 0.25641 0.0
Co5 Co 0.00508 0.36946 0.27022 0.0
O6 O 0.01286 0.4085 0.27238 0.0
C7 C 0.02964 0.36548 0.17778 0.0
C8 C 0.10983 0.39675 0.24665 0.0
C9 C 0.03679 0.42938 0.26301 0.0
O10 O 0.05442 0.38301 0.19319 0.0
O11 O 0.00796 0.35559 0.20475 0.0
O12 O 0.07736 0.40523 0.32981 0.0
O13 O 0.03847 0.37249 0.29795 0.0
Co14 Co 0.67805 0.06782 0.76152 0.0
O15 O 0.71804 0.08353 0.76358 0.0
O16 O 0.69672 0.10564 0.73684 0.0
C17 C 0.67011 0.05024 0.83751 0.0
O18 O 0.63797 0.05985 0.75606 0.0
Co19 Co 0.63608 0.00446 0.77343 0.0
O20 O 0.6087 0.01705 0.78524 0.0
C21 C 0.66519 0.02609 0.67969 0.0
C22 C 0.72002 0.10645 0.7472 0.0
C23 C 0.61365 0.04089 0.77039 0.0
O24 O 0.67575 0.05154 0.69462 0.0
O25 O 0.65086 0.00487 0.7069 0.0
O26 O 0.67818 0.0764 0.83036 0.0
O27 O 0.66905 0.03627 0.7994 0.0
Co28 Co 0.61374 0.67582 0.26213 0.0
O29 O 0.63727 0.71591 0.26294 0.0
O30 O 0.59356 0.69351 0.23751 0.0
C31 C 0.62418 0.66876 0.33806 0.0
O32 O 0.58242 0.63507 0.25835 0.0
Co33 Co 0.63871 0.63662 0.27335 0.0
O34 O 0.59913 0.60735 0.28188 0.0
C35 C 0.64362 0.66452 0.17969 0.0
C36 C 0.61588 0.7172 0.24701 0.0
C37 C 0.57892 0.61094 0.26978 0.0
O38 O 0.62736 0.67341 0.19485 0.0
O39 O 0.6524 0.65184 0.20697 0.0
O40 O 0.60584 0.67648 0.33113 0.0
O41 O 0.63721 0.66805 0.29988 0.0
Co42 Co 0.94058 0.61122 0.76483 0.0
O43 O 0.92402 0.63472 0.76439 0.0
O44 O 0.90282 0.59092 0.73945 0.0
C45 C 0.95748 0.62225 0.84114 0.0
O46 O 0.94996 0.57982 0.76227 0.0
Co47 Co 1.00446 0.63546 0.77973 0.0
O48 O 0.99331 0.59592 0.79119 0.0
C49 C 0.98282 0.63856 0.68299 0.0
C50 C 0.9014 0.61326 0.74838 0.0
C51 C 0.96992 0.57594 0.77676 0.0
O52 O 0.95727 0.62475 0.69789 0.0
O53 O 1.00393 0.64599 0.71069 0.0
O54 O 0.93157 0.60347 0.83374 0.0
O55 O 0.97146 0.635 0.80302 0.0
Co56 Co 0.33268 0.93963 0.26308 0.0
O57 O 0.29244 0.92234 0.26107 0.0
O58 O 0.3162 0.90178 0.23905 0.0
C59 C 0.33808 0.95714 0.33873 0.0
O60 O 0.37363 0.94954 0.26193 0.0
Co61 Co 0.37163 0.00382 0.27585 0.0
O62 O 0.40102 0.99392 0.28615 0.0
C63 C 0.34571 0.98096 0.18048 0.0
C64 C 0.29212 0.8999 0.24637 0.0
C65 C 0.39761 0.97018 0.27415 0.0
O66 O 0.33604 0.95565 0.19555 0.0
O67 O 0.35815 1.0023 0.20818 0.0
O68 O 0.33086 0.93115 0.33227 0.0
O69 O 0.33939 0.97081 0.30012 0.0
Co70 Co 0.39336 0.32932 0.76483 0.0
O71 O 0.36938 0.28929 0.76468 0.0
O72 O 0.41312 0.31133 0.73952 0.0
C73 C 0.38273 0.33571 0.84104 0.0
O74 O 0.42513 0.36994 0.76195 0.0
Co75 Co 0.36976 0.36951 0.77909 0.0
O76 O 0.4095 0.39785 0.78943 0.0
C77 C 0.36503 0.34323 0.68332 0.0
C78 C 0.39058 0.28775 0.74858 0.0
C79 C 0.42929 0.39402 0.77561 0.0
O80 O 0.37983 0.3325 0.69793 0.0
O81 O 0.35728 0.35652 0.71132 0.0
O82 O 0.40119 0.32817 0.83376 0.0
O83 O 0.37 0.33695 0.8029 0.0
Co84 Co 0.61317 0.93946 0.24121 0.0
O85 O 0.63647 0.92273 0.23933 0.0
O86 O 0.59288 0.90139 0.2652 0.0
C87 C 0.62353 0.95738 0.16547 0.0
O88 O 0.58212 0.94916 0.24599 0.0
Co89 Co 0.63853 0.00367 0.231 0.0
O90 O 0.59903 0.99348 0.22154 0.0
C91 C 0.64347 0.98014 0.32414 0.0
C92 C 0.61513 0.90002 0.25525 0.0
C93 C 0.57874 0.96979 0.23402 0.0
O94 O 0.62714 0.95506 0.3086 0.0
O95 O 0.65222 1.00179 0.29729 0.0
O96 O 0.60481 0.93138 0.17221 0.0
O97 O 0.63683 0.97078 0.20376 0.0
Co98 Co 0.6761 0.60966 0.74179 0.0
O99 O 0.71615 0.63343 0.74101 0.0
O100 O 0.69409 0.58971 0.7663 0.0
C101 C 0.66901 0.62012 0.6659 0.0
O102 O 0.63541 0.5781 0.74545 0.0
Co103 Co 0.63661 0.63427 0.73058 0.0
O104 O 0.60761 0.59464 0.72144 0.0
C105 C 0.66485 0.63962 0.82411 0.0
C106 C 0.71767 0.61216 0.75683 0.0
C107 C 0.61127 0.57448 0.73362 0.0
O108 O 0.67368 0.62328 0.80909 0.0
O109 O 0.65206 0.64827 0.79678 0.0
O110 O 0.67682 0.60183 0.67275 0.0
O111 O 0.66817 0.63303 0.70414 0.0
Co112 Co 0.06837 0.6766 0.24425 0.0
O113 O 0.08626 0.71688 0.2442 0.0
O114 O 0.10618 0.69294 0.2686 0.0
C115 C 0.05097 0.67027 0.16829 0.0
O116 O 0.05757 0.63547 0.2476 0.0
Co117 Co 1.00395 0.6391 0.23189 0.0
O118 O 0.01217 0.60818 0.2287 0.0
C119 C 0.02725 0.66605 0.32631 0.0
C120 C 0.10847 0.71708 0.25986 0.0
C121 C 0.036 0.61137 0.23937 0.0
O122 O 0.05242 0.67461 0.31148 0.0
O123 O 0.00591 0.65406 0.29854 0.0
O124 O 0.07676 0.67688 0.17531 0.0
O125 O 0.03756 0.67019 0.20647 0.0
Co126 Co 0.39588 0.06735 0.7427 0.0
O127 O 0.37068 0.08205 0.74286 0.0
O128 O 0.41429 0.10486 0.76879 0.0
C129 C 0.38609 0.05067 0.66627 0.0
O130 O 0.42895 0.0606 0.74609 0.0
Co131 Co 0.37665 0.00454 0.72714 0.0
O132 O 0.41671 0.01878 0.71364 0.0
C133 C 0.3698 0.0243 0.82344 0.0
C134 C 0.39141 0.10512 0.7594 0.0
C135 C 0.43507 0.04252 0.72975 0.0
O136 O 0.38261 0.04998 0.80913 0.0
O137 O 0.36413 0.00368 0.7954 0.0
O138 O 0.40349 0.07695 0.67398 0.0
O139 O 0.37389 0.03596 0.70409 0.0
Co140 Co 0.33239 0.39592 0.2439 0.0
O141 O 0.29215 0.37338 0.24639 0.0
O142 O 0.31652 0.41768 0.26859 0.0
C143 C 0.33699 0.38358 0.16793 0.0
O144 O 0.37343 0.42661 0.24457 0.0
Co145 Co 0.37084 0.3704 0.22903 0.0
O146 O 0.40006 0.40958 0.21672 0.0
C147 C 0.34666 0.36828 0.32592 0.0
C148 C 0.29225 0.39567 0.2614 0.0
C149 C 0.39706 0.42995 0.23022 0.0
O150 O 0.33592 0.38303 0.31112 0.0
O151 O 0.35939 0.35986 0.29796 0.0
O152 O 0.3305 0.40285 0.17488 0.0
O153 O 0.33826 0.37107 0.20638 0.0
Co154 Co 0.94217 0.33102 0.74084 0.0
O155 O 0.9258 0.29099 0.73966 0.0
O156 O 0.90441 0.31309 0.7661 0.0
C157 C 0.95924 0.33816 0.66456 0.0
O158 O 0.95143 0.37167 0.74517 0.0
Co159 Co 0.00611 0.37053 0.72827 0.0
O160 O 0.99545 0.39954 0.71973 0.0
C161 C 0.98393 0.34254 0.82229 0.0
C162 C 0.90317 0.2895 0.75627 0.0
C163 C 0.97175 0.39582 0.7329 0.0
O164 O 0.95862 0.33331 0.80766 0.0
O165 O 0.0052 0.35554 0.79466 0.0
O166 O 0.93326 0.33067 0.67209 0.0
O167 O 0.97314 0.33878 0.70245 0.0
H168 H 0.06432 0.39208 0.10064 0.0
H169 H 0.98376 0.3217 0.13668 0.0
H170 H 0.05283 0.38321 0.01472 0.0
H171 H 0.97257 0.31254 0.05117 0.0
H172 H 0.03228 0.3499 0.8623 0.0
H173 H 0.04403 0.35219 0.94757 0.0
H174 H 0.96076 0.33342 0.98582 0.0
H175 H 0.94874 0.33054 0.90016 0.0
C176 C 0.04443 0.37438 0.09029 0.0
C177 C 0.02491 0.3578 0.12567 0.0
C178 C 0.0378 0.36925 0.04096 0.0
C179 C 0.01158 0.34732 0.02592 0.0
C180 C 0.99267 0.32997 0.06135 0.0
C181 C 0.99922 0.33514 0.11049 0.0
C182 C 0.0163 0.34595 0.88882 0.0
C183 C 0.98956 0.34021 0.87422 0.0
C184 C 0.02316 0.34746 0.93783 0.0
C185 C 1.00351 0.34334 0.97372 0.0
C186 C 0.97639 0.33648 0.95921 0.0
C187 C 0.96947 0.33485 0.91002 0.0
H188 H 0.68658 0.02657 0.36528 0.0
H189 H 0.6173 0.94532 0.40121 0.0
H190 H 0.6956 0.03779 0.45083 0.0
H191 H 0.62583 0.95685 0.4871 0.0
H192 H 0.65756 0.97758 0.64001 0.0
H193 H 0.65579 0.96585 0.55479 0.0
H194 H 0.6753 0.04937 0.51625 0.0
H195 H 0.67787 0.06134 0.60184 0.0
C196 C 0.67334 0.01098 0.39148 0.0
C197 C 0.65107 0.98506 0.37627 0.0
C198 C 0.67841 0.01754 0.44066 0.0
C199 C 0.66126 0.99845 0.47611 0.0
C200 C 0.63969 0.97204 0.46095 0.0
C201 C 0.63473 0.96538 0.41162 0.0
C202 C 0.66181 0.99359 0.61341 0.0
C203 C 0.66772 0.02041 0.62788 0.0
C204 C 0.66058 0.98676 0.5644 0.0
C205 C 0.66504 0.00648 0.52839 0.0
C206 C 0.67201 0.03366 0.54287 0.0
C207 C 0.67345 0.04057 0.59204 0.0
H208 H 0.61837 0.67422 0.10225 0.0
H209 H 0.68559 0.65919 0.13884 0.0
H210 H 0.62675 0.67078 0.01642 0.0
H211 H 0.69436 0.65641 0.0534 0.0
H212 H 0.6598 0.68194 0.86425 0.0
H213 H 0.65796 0.69166 0.94952 0.0
H214 H 0.67266 0.6244 0.98764 0.0
H215 H 0.67515 0.61505 0.90192 0.0
C216 C 0.6353 0.67078 0.09203 0.0
C217 C 0.65111 0.66676 0.12755 0.0
C218 C 0.64016 0.66882 0.04275 0.0
C219 C 0.66108 0.66299 0.02785 0.0
C220 C 0.67769 0.66028 0.06343 0.0
C221 C 0.67275 0.66209 0.11254 0.0
C222 C 0.66295 0.66936 0.89074 0.0
C223 C 0.66745 0.64755 0.87609 0.0
C224 C 0.66169 0.67485 0.93977 0.0
C225 C 0.66479 0.65864 0.97564 0.0
C226 C 0.67041 0.63751 0.96107 0.0
C227 C 0.67182 0.63209 0.91186 0.0
H228 H 0.97655 0.64574 0.37011 0.0
H229 H 0.06493 0.68934 0.4015 0.0
H230 H 0.96618 0.64168 0.45547 0.0
H231 H 0.05446 0.68662 0.48783 0.0
H232 H 0.02703 0.64303 0.63355 0.0
H233 H 0.03827 0.65335 0.54877 0.0
H234 H 0.96471 0.66075 0.52937 0.0
H235 H 0.95267 0.64876 0.61468 0.0
C236 C 0.99391 0.65503 0.39519 0.0
C237 C 0.02168 0.66757 0.37861 0.0
C238 C 0.98787 0.65287 0.44455 0.0
C239 C 0.00938 0.66352 0.47907 0.0
C240 C 0.03724 0.67749 0.46248 0.0
C241 C 0.04332 0.67932 0.41287 0.0
C242 C 0.01325 0.64696 0.61128 0.0
C243 C 0.98894 0.64511 0.63087 0.0
C244 C 0.01989 0.65319 0.56251 0.0
C245 C 1.00267 0.65826 0.53181 0.0
C246 C 0.97837 0.65665 0.55157 0.0
C247 C 0.97142 0.64985 0.60049 0.0
H248 H 0.35842 0.97662 0.87056 0.0
H249 H 0.36451 0.05669 0.89383 0.0
H250 H 0.34894 0.96576 0.95555 0.0
H251 H 0.35354 0.04519 0.9794 0.0
H252 H 0.37207 0.03142 0.1351 0.0
H253 H 0.37445 0.04125 0.04968 0.0
H254 H 0.31823 0.95373 0.02063 0.0
H255 H 0.31693 0.9436 0.10701 0.0
C256 C 0.35723 0.99178 0.89372 0.0
C257 C 0.36237 0.01765 0.87527 0.0
C258 C 0.35151 0.98539 0.9427 0.0
C259 C 0.35036 0.00448 0.97477 0.0
C260 C 0.35472 0.0301 0.95607 0.0
C261 C 0.3609 0.03671 0.90695 0.0
C262 C 0.35995 0.01415 0.11077 0.0
C263 C 0.34445 0.98659 0.12818 0.0
C264 C 0.36115 0.01991 0.06143 0.0
C265 C 0.34662 0.99837 0.02779 0.0
C266 C 0.33017 0.97086 0.04528 0.0
C267 C 0.32925 0.96501 0.09488 0.0
H268 H 0.31043 0.36604 0.39669 0.0
H269 H 0.38182 0.35561 0.37337 0.0
H270 H 0.31064 0.35519 0.48248 0.0
H271 H 0.38298 0.34627 0.45849 0.0
H272 H 0.37167 0.31347 0.60934 0.0
H273 H 0.36315 0.31561 0.5231 0.0
H274 H 0.33561 0.37468 0.55326 0.0
H275 H 0.34266 0.37144 0.63862 0.0
C276 C 0.3262 0.36156 0.40988 0.0
C277 C 0.34602 0.36164 0.37811 0.0
C278 C 0.32644 0.35543 0.45912 0.0
C279 C 0.34684 0.34974 0.4778 0.0
C280 C 0.36651 0.34978 0.44567 0.0
C281 C 0.36598 0.35543 0.39663 0.0
C282 C 0.36344 0.32659 0.59751 0.0
C283 C 0.35802 0.34233 0.63111 0.0
C284 C 0.35872 0.32802 0.54796 0.0
C285 C 0.34887 0.34555 0.53078 0.0
C286 C 0.34273 0.36059 0.56473 0.0
C287 C 0.34705 0.35887 0.61404 0.0
H288 H 0.93427 0.59639 0.92714 0.0
H289 H 0.01114 0.6604 0.86362 0.0
H290 H 0.9569 0.60612 0.00645 0.0
H291 H 0.0335 0.67053 0.94262 0.0
H292 H 0.07319 0.66527 0.08301 0.0
H293 H 0.05023 0.65153 0.00417 0.0
H294 H 0.97476 0.64265 0.06714 0.0
H295 H 0.99749 0.65573 0.14591 0.0
C296 C 0.95596 0.61254 0.93015 0.0
C297 C 0.97091 0.62765 0.88922 0.0
C298 C 0.9689 0.61821 0.97556 0.0
C299 C 0.99704 0.63911 0.9809 0.0
C300 C 0.01196 0.65401 0.93974 0.0
C301 C 0.99906 0.64833 0.89447 0.0
C302 C 0.05168 0.66028 0.07996 0.0
C303 C 0.03718 0.66166 0.12057 0.0
C304 C 0.03854 0.65252 0.03479 0.0
C305 C 0.01065 0.64604 0.0293 0.0
C306 C 0.99611 0.64712 0.07017 0.0
C307 C 0.00922 0.65483 0.11528 0.0
H308 H 0.37502 0.01179 0.35769 0.0
H309 H 0.31963 0.93341 0.42717 0.0
H310 H 0.38896 0.03452 0.43598 0.0
H311 H 0.33154 0.95641 0.50571 0.0
H312 H 0.37265 0.99747 0.64483 0.0
H313 H 0.36341 0.97543 0.566 0.0
H314 H 0.37698 0.05218 0.4999 0.0
H315 H 0.38865 0.07474 0.57897 0.0
C316 C 0.36558 0.99948 0.38984 0.0
C317 C 0.34632 0.97083 0.38645 0.0
C318 C 0.37336 0.01259 0.43495 0.0
C319 C 0.3614 0.99753 0.47779 0.0
C320 C 0.34185 0.96876 0.474 0.0
C321 C 0.33475 0.95551 0.4289 0.0
C322 C 0.37395 0.00969 0.61334 0.0
C323 C 0.38141 0.03782 0.61792 0.0
C324 C 0.3683 0.99694 0.56794 0.0
C325 C 0.36902 0.01173 0.52601 0.0
C326 C 0.37666 0.04007 0.53086 0.0
C327 C 0.38319 0.05306 0.57626 0.0
H328 H 0.4089 0.3388 0.92692 0.0
H329 H 0.34483 0.35151 0.86333 0.0
H330 H 0.39956 0.35224 0.00603 0.0
H331 H 0.33506 0.36423 0.94214 0.0
H332 H 0.34106 0.41003 0.08209 0.0
H333 H 0.35419 0.40021 0.00319 0.0
H334 H 0.36339 0.33398 0.067 0.0
H335 H 0.35096 0.34424 0.14576 0.0
C336 C 0.39282 0.34442 0.92987 0.0
C337 C 0.37758 0.34406 0.88899 0.0
C338 C 0.38737 0.352 0.97517 0.0
C339 C 0.36654 0.35932 0.98044 0.0
C340 C 0.35152 0.35915 0.93931 0.0
C341 C 0.357 0.35165 0.89415 0.0
C342 C 0.34596 0.39344 0.07918 0.0
C343 C 0.34491 0.37787 0.12004 0.0
C344 C 0.35338 0.38773 0.034 0.0
C345 C 0.35983 0.36628 0.02875 0.0
C346 C 0.35897 0.3509 0.06983 0.0
C347 C 0.35162 0.35665 0.11494 0.0
H348 H 0.01296 0.35426 0.6412 0.0
H349 H 0.93561 0.34097 0.5792 0.0
H350 H 0.03491 0.36686 0.56187 0.0
H351 H 0.9578 0.35423 0.49965 0.0
H352 H 0.99805 0.34665 0.35855 0.0
H353 H 0.97559 0.33626 0.43768 0.0
H354 H 0.05109 0.40285 0.50094 0.0
H355 H 0.07374 0.41279 0.42188 0.0
C356 C 1.00069 0.35424 0.61063 0.0
C357 C 0.97253 0.34655 0.61641 0.0
C358 C 0.01334 0.36166 0.56516 0.0
C359 C 0.99815 0.36161 0.52434 0.0
C360 C 0.97001 0.35416 0.53023 0.0
C361 C 0.95733 0.3467 0.57582 0.0
C362 C 0.00983 0.35912 0.38934 0.0
C363 C 0.03771 0.38044 0.38406 0.0
C364 C 0.99688 0.35329 0.43466 0.0
C365 C 0.01153 0.36868 0.47573 0.0
C366 C 0.03932 0.39032 0.47021 0.0
C367 C 0.05227 0.39612 0.42487 0.0
H368 H 0.65363 0.99634 0.86029 0.0
H369 H 0.66736 0.07366 0.92324 0.0
H370 H 0.64114 0.97419 0.93944 0.0
H371 H 0.65412 0.05125 0.00261 0.0
H372 H 0.66222 0.01103 0.14303 0.0
H373 H 0.67207 0.03352 0.06404 0.0
H374 H 0.60582 0.95766 1.00107 0.0
H375 H 0.59648 0.93494 0.08008 0.0
C376 C 0.65374 0.00856 0.89103 0.0
C377 C 0.66158 0.03679 0.88556 0.0
C378 C 0.64637 0.99578 0.93641 0.0
C379 C 0.64658 0.01089 0.97749 0.0
C380 C 0.65409 0.03908 0.97187 0.0
C381 C 0.66154 0.05191 0.92638 0.0
C382 C 0.6497 0.99917 0.11234 0.0
C383 C 0.62866 0.97117 0.11771 0.0
C384 C 0.65522 0.01214 0.06708 0.0
C385 C 0.63977 0.99743 0.02609 0.0
C386 C 0.6184 0.9695 0.03171 0.0
C387 C 0.61294 0.9565 0.07701 0.0
H388 H 0.61952 0.68795 0.42621 0.0
H389 H 0.64011 0.63058 0.35769 0.0
H390 H 0.63032 0.67608 0.50499 0.0
H391 H 0.6485 0.61661 0.43628 0.0
H392 H 0.6891 0.61628 0.57815 0.0
H393 H 0.67822 0.62805 0.49937 0.0
H394 H 0.61799 0.6455 0.56693 0.0
H395 H 0.63096 0.63612 0.64568 0.0
C396 C 0.62587 0.67237 0.42824 0.0
C397 C 0.62912 0.66028 0.38597 0.0
C398 C 0.63186 0.6653 0.47352 0.0
C399 C 0.64039 0.64525 0.47771 0.0
C400 C 0.6428 0.63265 0.43502 0.0
C401 C 0.63769 0.64043 0.38973 0.0
C402 C 0.67355 0.62265 0.57586 0.0
C403 C 0.66097 0.62542 0.61789 0.0
C404 C 0.66705 0.62921 0.53058 0.0
C405 C 0.64711 0.63786 0.52608 0.0
C406 C 0.63398 0.63975 0.56847 0.0
C407 C 0.64118 0.63406 0.61383 0.0
H408 H 0.08185 0.60525 0.22468 0.0
H409 H 0.99506 0.55991 0.26606 0.0
H410 H 0.0837 0.56197 0.22886 0.0
H411 H 0.99714 0.51741 0.27297 0.0
H412 H 0.99641 0.43962 0.23183 0.0
H413 H 0.99815 0.48404 0.2247 0.0
H414 H 0.08317 0.52634 0.27733 0.0
H415 H 0.08175 0.48142 0.28169 0.0
C416 C 0.06329 0.5861 0.23517 0.0
C417 C 0.0382 0.58588 0.24427 0.0
C418 C 0.06435 0.56131 0.23783 0.0
C419 C 0.04043 0.5359 0.25045 0.0
C420 C 0.01575 0.53619 0.26143 0.0
C421 C 0.01457 0.56069 0.25781 0.0
C422 C 0.01551 0.45839 0.24186 0.0
C423 C 0.03883 0.45698 0.25785 0.0
C424 C 0.01649 0.48398 0.23812 0.0
C425 C 0.04061 0.50897 0.25145 0.0
C426 C 0.06425 0.50764 0.2665 0.0
C427 C 0.06344 0.4819 0.26927 0.0
H428 H 0.46212 0.02611 0.66739 0.0
H429 H 0.47307 0.07098 0.80105 0.0
H430 H 0.50815 0.03064 0.67802 0.0
H431 H 0.51879 0.07459 0.81238 0.0
H432 H 0.56752 0.02005 0.82789 0.0
H433 H 0.52666 0.02573 0.81788 0.0
H434 H 0.56486 0.07804 0.69324 0.0
H435 H 0.60626 0.07322 0.70402 0.0
C436 C 0.47452 0.0372 0.69871 0.0
C437 C 0.46409 0.04821 0.7334 0.0
C438 C 0.50081 0.03985 0.70466 0.0
C439 C 0.51681 0.05293 0.74597 0.0
C440 C 0.50674 0.0645 0.78018 0.0
C441 C 0.48073 0.06252 0.77359 0.0
C442 C 0.56736 0.03308 0.79878 0.0
C443 C 0.59002 0.04614 0.76667 0.0
C444 C 0.5441 0.03643 0.79326 0.0
C445 C 0.54281 0.05235 0.7549 0.0
C446 C 0.56555 0.06577 0.7232 0.0
C447 C 0.58916 0.06303 0.72945 0.0
H448 H 0.56389 0.55751 0.29435 0.0
H449 H 0.52981 0.60706 0.23781 0.0
H450 H 0.51912 0.51552 0.28349 0.0
H451 H 0.48456 0.56441 0.22671 0.0
H452 H 0.40183 0.47912 0.26378 0.0
H453 H 0.44474 0.5242 0.2737 0.0
H454 H 0.49219 0.48953 0.21104 0.0
H455 H 0.44986 0.44482 0.20137 0.0
C456 C 0.54686 0.55955 0.27968 0.0
C457 C 0.55068 0.58578 0.26644 0.0
C458 C 0.52115 0.53536 0.27326 0.0
C459 C 0.49843 0.53659 0.25351 0.0
C460 C 0.50173 0.56283 0.24198 0.0
C461 C 0.52766 0.58722 0.24824 0.0
C462 C 0.42139 0.4812 0.25173 0.0
C463 C 0.42235 0.45815 0.23233 0.0
C464 C 0.44594 0.50705 0.2573 0.0
C465 C 0.47187 0.51027 0.24384 0.0
C466 C 0.4726 0.48756 0.22271 0.0
C467 C 0.44823 0.4619 0.21699 0.0
H468 H 0.00724 0.56044 0.80602 0.0
H469 H 0.9257 0.52724 0.74065 0.0
H470 H 0.00493 0.51593 0.79472 0.0
H471 H 0.92356 0.48222 0.72926 0.0
H472 H 0.92617 0.39904 0.76493 0.0
H473 H 0.92304 0.44135 0.77646 0.0
H474 H 0.00651 0.49116 0.72023 0.0
H475 H 0.00982 0.44949 0.70887 0.0
C476 C 0.9887 0.54364 0.78942 0.0
C477 C 0.96679 0.54767 0.7737 0.0
C478 C 0.98746 0.51809 0.78278 0.0
C479 C 0.96428 0.49572 0.76039 0.0
C480 C 0.94172 0.49914 0.74658 0.0
C481 C 0.943 0.52494 0.75302 0.0
C482 C 0.94377 0.41901 0.75469 0.0
C483 C 0.96839 0.4208 0.73652 0.0
C484 C 0.9419 0.44319 0.76117 0.0
C485 C 0.96469 0.46958 0.74993 0.0
C486 C 0.98881 0.47118 0.73015 0.0
C487 C 0.99063 0.44718 0.72348 0.0
H488 H 0.45117 0.00933 0.29682 0.0
H489 H 0.40156 0.92448 0.24529 0.0
H490 H 0.4932 0.00664 0.28643 0.0
H491 H 0.44423 0.92198 0.23462 0.0
H492 H 0.53012 0.92578 0.2704 0.0
H493 H 0.48505 0.92352 0.28101 0.0
H494 H 0.51862 0.00459 0.21446 0.0
H495 H 0.56328 0.00707 0.20419 0.0
C496 C 0.44912 0.98999 0.28343 0.0
C497 C 0.42284 0.96721 0.27142 0.0
C498 C 0.47335 0.98854 0.27724 0.0
C499 C 0.4721 0.96426 0.25898 0.0
C500 C 0.44583 0.94099 0.24875 0.0
C501 C 0.42142 0.94247 0.25475 0.0
C502 C 0.52779 0.94301 0.25769 0.0
C503 C 0.55053 0.96678 0.23703 0.0
C504 C 0.50195 0.94165 0.26367 0.0
C505 C 0.49844 0.96407 0.24928 0.0
C506 C 0.52083 0.98724 0.22693 0.0
C507 C 0.54648 0.98859 0.22088 0.0
H508 H 0.5581 0.55927 0.70702 0.0
H509 H 0.60714 0.52539 0.76675 0.0
H510 H 0.51601 0.51461 0.71791 0.0
H511 H 0.56433 0.4802 0.77776 0.0
H512 H 0.47779 0.39743 0.74116 0.0
H513 H 0.52331 0.43982 0.73015 0.0
H514 H 0.49049 0.48899 0.79246 0.0
H515 H 0.4455 0.44729 0.80335 0.0
C516 C 0.56001 0.54229 0.72235 0.0
C517 C 0.58613 0.54618 0.7366 0.0
C518 C 0.53576 0.51665 0.72873 0.0
C519 C 0.53679 0.49403 0.74942 0.0
C520 C 0.56292 0.49732 0.76176 0.0
C521 C 0.58739 0.52321 0.75556 0.0
C522 C 0.48039 0.41727 0.75289 0.0
C523 C 0.45777 0.41889 0.77258 0.0
C524 C 0.50647 0.4415 0.74669 0.0
C525 C 0.51031 0.46775 0.75975 0.0
C526 C 0.48803 0.46914 0.78113 0.0
C527 C 0.46219 0.44511 0.78752 0.0
H528 H 0.11911 0.35367 0.22838 0.0
H529 H 0.16155 0.4414 0.26271 0.0
H530 H 0.16315 0.35398 0.2319 0.0
H531 H 0.20536 0.44158 0.27056 0.0
H532 H 0.28564 0.44045 0.24479 0.0
H533 H 0.24228 0.44114 0.23768 0.0
H534 H 0.19633 0.35404 0.27927 0.0
H535 H 0.2398 0.35316 0.28204 0.0
C536 C 0.13797 0.37305 0.23683 0.0
C537 C 0.13695 0.39754 0.24485 0.0
C538 C 0.16332 0.37322 0.23965 0.0
C539 C 0.18828 0.39774 0.25223 0.0
C540 C 0.18704 0.42232 0.25986 0.0
C541 C 0.1618 0.42228 0.25554 0.0
C542 C 0.26622 0.42155 0.25282 0.0
C543 C 0.2661 0.39677 0.26407 0.0
C544 C 0.24117 0.42189 0.24892 0.0
C545 C 0.21526 0.39759 0.25753 0.0
C546 C 0.21547 0.37306 0.27077 0.0
C547 C 0.2405 0.37256 0.27318 0.0
H548 H 0.89504 0.23795 0.73392 0.0
H549 H 0.85127 0.2796 0.78329 0.0
H550 H 0.85119 0.19397 0.72988 0.0
H551 H 0.80725 0.23528 0.78044 0.0
H552 H 0.77117 0.11453 0.77306 0.0
H553 H 0.81514 0.15843 0.77803 0.0
H554 H 0.77474 0.20223 0.72252 0.0
H555 H 0.73049 0.15826 0.7187 0.0
C556 C 0.87608 0.23766 0.74462 0.0
C557 C 0.87671 0.26234 0.75898 0.0
C558 C 0.85087 0.21235 0.74242 0.0
C559 C 0.82554 0.21098 0.7546 0.0
C560 C 0.82625 0.2356 0.76999 0.0
C561 C 0.85154 0.26098 0.77214 0.0
C562 C 0.77169 0.13347 0.76148 0.0
C563 C 0.74728 0.13283 0.74537 0.0
C564 C 0.79697 0.15871 0.76426 0.0
C565 C 0.79858 0.18401 0.75091 0.0
C566 C 0.77423 0.18327 0.73391 0.0
C567 C 0.7489 0.15799 0.73119 0.0
H568 H 0.65873 0.76881 0.27103 0.0
H569 H 0.57365 0.7267 0.21959 0.0
H570 H 0.65834 0.81247 0.27542 0.0
H571 H 0.57346 0.77075 0.22268 0.0
H572 H 0.57301 0.84801 0.28217 0.0
H573 H 0.57323 0.80395 0.27918 0.0
H574 H 0.65822 0.84785 0.22719 0.0
H575 H 0.6582 0.89169 0.23149 0.0
C576 C 0.64004 0.76894 0.25993 0.0
C577 C 0.61625 0.74421 0.2448 0.0
C578 C 0.63983 0.79408 0.26235 0.0
C579 C 0.61584 0.79528 0.24953 0.0
C580 C 0.59216 0.7706 0.23359 0.0
C581 C 0.59236 0.74537 0.23128 0.0
C582 C 0.59182 0.84825 0.27065 0.0
C583 C 0.61562 0.87343 0.2573 0.0
C584 C 0.59187 0.82294 0.26841 0.0
C585 C 0.61571 0.8222 0.25272 0.0
C586 C 0.63959 0.84752 0.24006 0.0
C587 C 0.63955 0.87275 0.24241 0.0
H588 H 0.84956 0.57081 0.72145 0.0
H589 H 0.89273 0.65628 0.77107 0.0
H590 H 0.80531 0.5706 0.72442 0.0
H591 H 0.84869 0.65586 0.77542 0.0
H592 H 0.76901 0.65531 0.73259 0.0
H593 H 0.81289 0.65542 0.72787 0.0
H594 H 0.77207 0.5706 0.78079 0.0
H595 H 0.72778 0.57028 0.78414 0.0
C596 C 0.84965 0.58961 0.73268 0.0
C597 C 0.87475 0.6136 0.74577 0.0
C598 C 0.82422 0.5894 0.73494 0.0
C599 C 0.82326 0.61317 0.75042 0.0
C600 C 0.84851 0.63726 0.76272 0.0
C601 C 0.87386 0.63749 0.76032 0.0
C602 C 0.76938 0.63673 0.74365 0.0
C603 C 0.74483 0.61281 0.75889 0.0
C604 C 0.79465 0.63681 0.74105 0.0
C605 C 0.79619 0.613 0.75381 0.0
C606 C 0.77167 0.58918 0.7699 0.0
C607 C 0.74631 0.58909 0.77236 0.0
H608 H 0.28465 0.84851 0.26626 0.0
H609 H 0.24004 0.89029 0.22341 0.0
H610 H 0.24096 0.80476 0.27343 0.0
H611 H 0.19624 0.84613 0.22613 0.0
H612 H 0.11789 0.7698 0.2755 0.0
H613 H 0.16215 0.8134 0.27261 0.0
H614 H 0.20435 0.76724 0.24034 0.0
H615 H 0.1603 0.72381 0.24751 0.0
C616 C 0.26543 0.8481 0.25703 0.0
C617 C 0.26575 0.87278 0.24413 0.0
C618 C 0.24018 0.82287 0.26094 0.0
C619 C 0.21451 0.8214 0.25063 0.0
C620 C 0.21517 0.84616 0.2359 0.0
C621 C 0.24039 0.87156 0.23354 0.0
C622 C 0.13679 0.76909 0.26861 0.0
C623 C 0.13566 0.7434 0.26216 0.0
C624 C 0.16228 0.79419 0.26615 0.0
C625 C 0.18732 0.79438 0.25557 0.0
C626 C 0.18598 0.7684 0.24952 0.0
C627 C 0.16058 0.7433 0.25344 0.0
H628 H 0.43265 0.27774 0.72254 0.0
H629 H 0.34691 0.23617 0.77036 0.0
H630 H 0.43231 0.23346 0.72615 0.0
H631 H 0.34675 0.19221 0.77519 0.0
H632 H 0.34792 0.11262 0.73375 0.0
H633 H 0.34751 0.15634 0.72843 0.0
H634 H 0.43163 0.20076 0.78453 0.0
H635 H 0.43224 0.15701 0.78868 0.0
C636 C 0.41367 0.25914 0.73348 0.0
C637 C 0.3898 0.26054 0.74601 0.0
C638 C 0.41355 0.23377 0.7361 0.0
C639 C 0.38956 0.20917 0.75136 0.0
C640 C 0.36552 0.21055 0.7628 0.0
C641 C 0.36564 0.23586 0.76012 0.0
C642 C 0.36623 0.13166 0.74546 0.0
C643 C 0.39009 0.13126 0.76172 0.0
C644 C 0.366 0.15681 0.74245 0.0
C645 C 0.38961 0.18225 0.75571 0.0
C646 C 0.41324 0.18171 0.77311 0.0
C647 C 0.41349 0.15654 0.77604 0.0
loop_
_geom_bond_atom_site_label_1
_geom_bond_atom_site_label_2
_geom_bond_distance
_geom_bond_site_symmetry_2
_ccdc_geom_bond_type
Co0 O1 2.216 . S
Co0 O2 2.091 . S
Co0 O4 2.004 . S
Co0 O10 2.021 . S
Co0 O12 2.137 . S
Co0 O13 2.244 . S
O1 Co0 2.216 . S
O1 C8 1.247 . S
O2 Co0 2.091 . S
O2 C8 1.261 . S
C3 O12 1.247 . S
C3 O13 1.272 . S
O4 Co0 2.004 . S
O4 C9 1.259 . S
Co5 O6 2.061 1_655 S
Co5 O11 2.052 . S
Co5 O13 2.135 1_655 S
O6 Co5 2.061 1_455 S
O6 C9 1.235 . S
C7 O10 1.238 . S
C7 O11 1.241 1_455 S
C8 O1 1.247 . S
C8 O2 1.261 . S
C9 O4 1.259 . S
C9 O6 1.235 . S
O10 Co0 2.021 . S
O10 C7 1.238 . S
O11 Co5 2.052 . S
O11 C7 1.241 1_655 S
O12 Co0 2.137 . S
O12 C3 1.247 . S
O13 Co0 2.244 . S
O13 C3 1.272 . S
O13 Co5 2.135 1_455 S
Co14 O15 2.216 . S
Co14 O16 2.091 . S
Co14 O18 2.004 . S
Co14 O24 2.021 . S
Co14 O26 2.137 . S
Co14 O27 2.244 . S
O15 Co14 2.216 . S
O15 C22 1.247 . S
O16 Co14 2.091 . S
O16 C22 1.261 . S
C17 O26 1.247 . S
C17 O27 1.272 . S
O18 Co14 2.004 . S
O18 C23 1.259 . S
Co19 O20 2.061 1_565 S
Co19 O25 2.052 . S
Co19 O27 2.135 1_565 S
O20 Co19 2.061 1_545 S
O20 C23 1.235 . S
C21 O24 1.238 . S
C21 O25 1.241 1_545 S
C22 O15 1.247 . S
C22 O16 1.261 . S
C23 O18 1.259 . S
C23 O20 1.235 . S
O24 Co14 2.021 . S
O24 C21 1.238 . S
O25 Co19 2.052 . S
O25 C21 1.241 1_565 S
O26 Co14 2.137 . S
O26 C17 1.247 . S
O27 Co14 2.244 . S
O27 C17 1.272 . S
O27 Co19 2.135 1_545 S
Co28 O29 2.216 . S
Co28 O30 2.091 . S
Co28 O32 2.004 . S
Co28 O38 2.021 . S
Co28 O40 2.137 . S
Co28 O41 2.244 . S
O29 Co28 2.216 . S
O29 C36 1.247 . S
O30 Co28 2.091 . S
O30 C36 1.261 . S
C31 O40 1.247 . S
C31 O41 1.272 . S
O32 Co28 2.004 . S
O32 C37 1.259 . S
Co33 O34 2.061 . S
Co33 O39 2.052 . S
Co33 O41 2.135 . S
O34 Co33 2.061 . S
O34 C37 1.235 . S
C35 O38 1.238 . S
C35 O39 1.241 . S
C36 O29 1.247 . S
C36 O30 1.261 . S
C37 O32 1.259 . S
C37 O34 1.235 . S
O38 Co28 2.021 . S
O38 C35 1.238 . S
O39 Co33 2.052 . S
O39 C35 1.241 . S
O40 Co28 2.137 . S
O40 C31 1.247 . S
O41 Co28 2.244 . S
O41 C31 1.272 . S
O41 Co33 2.135 . S
Co42 O43 2.216 . S
Co42 O44 2.091 . S
Co42 O46 2.004 . S
Co42 O52 2.021 . S
Co42 O54 2.137 . S
Co42 O55 2.244 . S
O43 Co42 2.216 . S
O43 C50 1.247 . S
O44 Co42 2.091 . S
O44 C50 1.261 . S
C45 O54 1.247 . S
C45 O55 1.272 . S
O46 Co42 2.004 . S
O46 C51 1.259 . S
Co47 O48 2.061 1_455 S
Co47 O53 2.052 . S
Co47 O55 2.135 1_455 S
O48 Co47 2.061 1_655 S
O48 C51 1.235 . S
C49 O52 1.238 . S
C49 O53 1.241 1_655 S
C50 O43 1.247 . S
C50 O44 1.261 . S
C51 O46 1.259 . S
C51 O48 1.235 . S
O52 Co42 2.021 . S
O52 C49 1.238 . S
O53 Co47 2.052 . S
O53 C49 1.241 1_455 S
O54 Co42 2.137 . S
O54 C45 1.247 . S
O55 Co42 2.244 . S
O55 C45 1.272 . S
O55 Co47 2.135 1_655 S
Co56 O57 2.216 . S
Co56 O58 2.091 . S
Co56 O60 2.004 . S
Co56 O66 2.021 . S
Co56 O68 2.137 . S
Co56 O69 2.244 . S
O57 Co56 2.216 . S
O57 C64 1.247 . S
O58 Co56 2.091 . S
O58 C64 1.261 . S
C59 O68 1.247 . S
C59 O69 1.272 . S
O60 Co56 2.004 . S
O60 C65 1.259 . S
Co61 O62 2.061 1_545 S
Co61 O67 2.052 . S
Co61 O69 2.135 1_545 S
O62 Co61 2.061 1_565 S
O62 C65 1.235 . S
C63 O66 1.238 . S
C63 O67 1.241 1_565 S
C64 O57 1.247 . S
C64 O58 1.261 . S
C65 O60 1.259 . S
C65 O62 1.235 . S
O66 Co56 2.021 . S
O66 C63 1.238 . S
O67 Co61 2.052 . S
O67 C63 1.241 1_545 S
O68 Co56 2.137 . S
O68 C59 1.247 . S
O69 Co56 2.244 . S
O69 C59 1.272 . S
O69 Co61 2.135 1_565 S
Co70 O71 2.216 . S
Co70 O72 2.091 . S
Co70 O74 2.004 . S
Co70 O80 2.021 . S
Co70 O82 2.137 . S
Co70 O83 2.244 . S
O71 Co70 2.216 . S
O71 C78 1.247 . S
O72 Co70 2.091 . S
O72 C78 1.261 . S
C73 O82 1.247 . S
C73 O83 1.272 . S
O74 Co70 2.004 . S
O74 C79 1.259 . S
Co75 O76 2.061 . S
Co75 O81 2.052 . S
Co75 O83 2.135 . S
O76 Co75 2.061 . S
O76 C79 1.235 . S
C77 O80 1.238 . S
C77 O81 1.241 . S
C78 O71 1.247 . S
C78 O72 1.261 . S
C79 O74 1.259 . S
C79 O76 1.235 . S
O80 Co70 2.021 . S
O80 C77 1.238 . S
O81 Co75 2.052 . S
O81 C77 1.241 . S
O82 Co70 2.137 . S
O82 C73 1.247 . S
O83 Co70 2.244 . S
O83 C73 1.272 . S
O83 Co75 2.135 . S
Co84 O85 2.216 . S
Co84 O86 2.091 . S
Co84 O88 2.004 . S
Co84 O94 2.021 . S
Co84 O96 2.137 . S
Co84 O97 2.244 . S
O85 Co84 2.216 . S
O85 C92 1.247 . S
O86 Co84 2.091 . S
O86 C92 1.261 . S
C87 O96 1.247 . S
C87 O97 1.272 . S
O88 Co84 2.004 . S
O88 C93 1.259 . S
Co89 O90 2.061 1_545 S
Co89 O95 2.052 . S
Co89 O97 2.135 1_545 S
O90 Co89 2.061 1_565 S
O90 C93 1.235 . S
C91 O94 1.238 . S
C91 O95 1.241 1_565 S
C92 O85 1.247 . S
C92 O86 1.261 . S
C93 O88 1.259 . S
C93 O90 1.235 . S
O94 Co84 2.021 . S
O94 C91 1.238 . S
O95 Co89 2.052 . S
O95 C91 1.241 1_545 S
O96 Co84 2.137 . S
O96 C87 1.247 . S
O97 Co84 2.244 . S
O97 C87 1.272 . S
O97 Co89 2.135 1_565 S
Co98 O99 2.216 . S
Co98 O100 2.091 . S
Co98 O102 2.004 . S
Co98 O108 2.021 . S
Co98 O110 2.137 . S
Co98 O111 2.244 . S
O99 Co98 2.216 . S
O99 C106 1.247 . S
O100 Co98 2.091 . S
O100 C106 1.261 . S
C101 O110 1.247 . S
C101 O111 1.272 . S
O102 Co98 2.004 . S
O102 C107 1.259 . S
Co103 O104 2.061 . S
Co103 O109 2.052 . S
Co103 O111 2.135 . S
O104 Co103 2.061 . S
O104 C107 1.235 . S
C105 O108 1.238 . S
C105 O109 1.241 . S
C106 O99 1.247 . S
C106 O100 1.261 . S
C107 O102 1.259 . S
C107 O104 1.235 . S
O108 Co98 2.021 . S
O108 C105 1.238 . S
O109 Co103 2.052 . S
O109 C105 1.241 . S
O110 Co98 2.137 . S
O110 C101 1.247 . S
O111 Co98 2.244 . S
O111 C101 1.272 . S
O111 Co103 2.135 . S
Co112 O113 2.216 . S
Co112 O114 2.091 . S
Co112 O116 2.004 . S
Co112 O122 2.021 . S
Co112 O124 2.137 . S
Co112 O125 2.244 . S
O113 Co112 2.216 . S
O113 C120 1.247 . S
O114 Co112 2.091 . S
O114 C120 1.261 . S
C115 O124 1.247 . S
C115 O125 1.272 . S
O116 Co112 2.004 . S
O116 C121 1.259 . S
Co117 O118 2.061 1_655 S
Co117 O123 2.052 . S
Co117 O125 2.135 1_655 S
O118 Co117 2.061 1_455 S
O118 C121 1.235 . S
C119 O122 1.238 . S
C119 O123 1.241 1_455 S
C120 O113 1.247 . S
C120 O114 1.261 . S
C121 O116 1.259 . S
C121 O118 1.235 . S
O122 Co112 2.021 . S
O122 C119 1.238 . S
O123 Co117 2.052 . S
O123 C119 1.241 1_655 S
O124 Co112 2.137 . S
O124 C115 1.247 . S
O125 Co112 2.244 . S
O125 C115 1.272 . S
O125 Co117 2.135 1_455 S
Co126 O127 2.216 . S
Co126 O128 2.091 . S
Co126 O130 2.004 . S
Co126 O136 2.021 . S
Co126 O138 2.137 . S
Co126 O139 2.244 . S
O127 Co126 2.216 . S
O127 C134 1.247 . S
O128 Co126 2.091 . S
O128 C134 1.261 . S
C129 O138 1.247 . S
C129 O139 1.272 . S
O130 Co126 2.004 . S
O130 C135 1.259 . S
Co131 O132 2.061 1_565 S
Co131 O137 2.052 . S
Co131 O139 2.135 1_565 S
O132 Co131 2.061 1_545 S
O132 C135 1.235 . S
C133 O136 1.238 . S
C133 O137 1.241 1_545 S
C134 O127 1.247 . S
C134 O128 1.261 . S
C135 O130 1.259 . S
C135 O132 1.235 . S
O136 Co126 2.021 . S
O136 C133 1.238 . S
O137 Co131 2.052 . S
O137 C133 1.241 1_565 S
O138 Co126 2.137 . S
O138 C129 1.247 . S
O139 Co126 2.244 . S
O139 C129 1.272 . S
O139 Co131 2.135 1_545 S
Co140 O141 2.216 . S
Co140 O142 2.091 . S
Co140 O144 2.004 . S
Co140 O150 2.021 . S
Co140 O152 2.137 . S
Co140 O153 2.244 . S
O141 Co140 2.216 . S
O141 C148 1.247 . S
O142 Co140 2.091 . S
O142 C148 1.261 . S
C143 O152 1.247 . S
C143 O153 1.272 . S
O144 Co140 2.004 . S
O144 C149 1.259 . S
Co145 O146 2.061 . S
Co145 O151 2.052 . S
Co145 O153 2.135 . S
O146 Co145 2.061 . S
O146 C149 1.235 . S
C147 O150 1.238 . S
C147 O151 1.241 . S
C148 O141 1.247 . S
C148 O142 1.261 . S
C149 O144 1.259 . S
C149 O146 1.235 . S
O150 Co140 2.021 . S
O150 C147 1.238 . S
O151 Co145 2.052 . S
O151 C147 1.241 . S
O152 Co140 2.137 . S
O152 C143 1.247 . S
O153 Co140 2.244 . S
O153 C143 1.272 . S
O153 Co145 2.135 . S
Co154 O155 2.216 . S
Co154 O156 2.091 . S
Co154 O158 2.004 . S
Co154 O164 2.021 . S
Co154 O166 2.137 . S
Co154 O167 2.244 . S
O155 Co154 2.216 . S
O155 C162 1.247 . S
O156 Co154 2.091 . S
O156 C162 1.261 . S
C157 O166 1.247 . S
C157 O167 1.272 . S
O158 Co154 2.004 . S
O158 C163 1.259 . S
Co159 O160 2.061 1_455 S
Co159 O165 2.052 . S
Co159 O167 2.135 1_455 S
O160 Co159 2.061 1_655 S
O160 C163 1.235 . S
C161 O164 1.238 . S
C161 O165 1.241 1_655 S
C162 O155 1.247 . S
C162 O156 1.261 . S
C163 O158 1.259 . S
C163 O160 1.235 . S
O164 Co154 2.021 . S
O164 C161 1.238 . S
O165 Co159 2.052 . S
O165 C161 1.241 1_455 S
O166 Co154 2.137 . S
O166 C157 1.247 . S
O167 Co154 2.244 . S
O167 C157 1.272 . S
O167 Co159 2.135 1_655 S
H168 C176 0.950 . S
H169 C181 0.950 . S
H170 C178 0.950 . S
H171 C180 0.950 . S
H172 C182 0.950 . S
H173 C184 0.950 . S
H174 C186 0.950 . S
H175 C187 0.950 . S
C176 H168 0.950 . S
C176 C177 1.386 . S
C176 C178 1.391 . S
C177 C176 1.386 . S
C177 C181 1.393 . S
C178 H170 0.950 . S
C178 C176 1.391 . S
C178 C179 1.400 . S
C179 C178 1.400 . S
C179 C180 1.398 . S
C179 C185 1.491 1_454 S
C180 H171 0.950 . S
C180 C179 1.398 . S
C180 C181 1.391 . S
C181 H169 0.950 . S
C181 C177 1.393 . S
C181 C180 1.391 . S
C182 H172 0.950 . S
C182 C183 1.386 . S
C182 C184 1.391 . S
C183 C182 1.386 . S
C183 C187 1.393 . S
C184 H173 0.950 . S
C184 C182 1.391 . S
C184 C185 1.400 . S
C185 C179 1.491 1_656 S
C185 C184 1.400 . S
C185 C186 1.398 . S
C186 H174 0.950 . S
C186 C185 1.398 . S
C186 C187 1.391 . S
C187 H175 0.950 . S
C187 C183 1.393 . S
C187 C186 1.391 . S
H188 C196 0.950 . S
H189 C201 0.950 . S
H190 C198 0.950 . S
H191 C200 0.950 . S
H192 C202 0.950 . S
H193 C204 0.950 . S
H194 C206 0.950 . S
H195 C207 0.950 . S
C196 H188 0.950 . S
C196 C197 1.386 1_545 S
C196 C198 1.391 . S
C197 C196 1.386 1_565 S
C197 C201 1.393 . S
C198 H190 0.950 . S
C198 C196 1.391 . S
C198 C199 1.400 1_545 S
C199 C198 1.400 1_565 S
C199 C200 1.398 . S
C199 C205 1.491 1_565 S
C200 H191 0.950 . S
C200 C199 1.398 . S
C200 C201 1.391 . S
C201 H189 0.950 . S
C201 C197 1.393 . S
C201 C200 1.391 . S
C202 H192 0.950 . S
C202 C203 1.386 1_565 S
C202 C204 1.391 . S
C203 C202 1.386 1_545 S
C203 C207 1.393 . S
C204 H193 0.950 . S
C204 C202 1.391 . S
C204 C205 1.400 1_565 S
C205 C199 1.491 1_545 S
C205 C204 1.400 1_545 S
C205 C206 1.398 . S
C206 H194 0.950 . S
C206 C205 1.398 . S
C206 C207 1.391 . S
C207 H195 0.950 . S
C207 C203 1.393 . S
C207 C206 1.391 . S
H208 C216 0.950 . S
H209 C221 0.950 . S
H210 C218 0.950 . S
H211 C220 0.950 . S
H212 C222 0.950 . S
H213 C224 0.950 . S
H214 C226 0.950 . S
H215 C227 0.950 . S
C216 H208 0.950 . S
C216 C217 1.386 . S
C216 C218 1.391 . S
C217 C216 1.386 . S
C217 C221 1.393 . S
C218 H210 0.950 . S
C218 C216 1.391 . S
C218 C219 1.400 . S
C219 C218 1.400 . S
C219 C220 1.398 . S
C219 C225 1.491 1_554 S
C220 H211 0.950 . S
C220 C219 1.398 . S
C220 C221 1.391 . S
C221 H209 0.950 . S
C221 C217 1.393 . S
C221 C220 1.391 . S
C222 H212 0.950 . S
C222 C223 1.386 . S
C222 C224 1.391 . S
C223 C222 1.386 . S
C223 C227 1.393 . S
C224 H213 0.950 . S
C224 C222 1.391 . S
C224 C225 1.400 . S
C225 C219 1.491 1_556 S
C225 C224 1.400 . S
C225 C226 1.398 . S
C226 H214 0.950 . S
C226 C225 1.398 . S
C226 C227 1.391 . S
C227 H215 0.950 . S
C227 C223 1.393 . S
C227 C226 1.391 . S
H228 C236 0.950 . S
H229 C241 0.950 . S
H230 C238 0.950 1_655 S
H231 C240 0.950 . S
H232 C242 0.950 . S
H233 C244 0.950 1_455 S
H234 C246 0.950 . S
H235 C247 0.950 . S
C236 H228 0.950 . S
C236 C237 1.386 . S
C236 C238 1.391 . S
C237 C236 1.386 . S
C237 C241 1.393 . S
C238 H230 0.950 1_455 S
C238 C236 1.391 . S
C238 C239 1.400 . S
C239 C238 1.400 . S
C239 C240 1.398 . S
C239 C245 1.491 1_455 S
C240 H231 0.950 . S
C240 C239 1.398 . S
C240 C241 1.391 . S
C241 H229 0.950 . S
C241 C237 1.393 . S
C241 C240 1.391 . S
C242 H232 0.950 . S
C242 C243 1.386 . S
C242 C244 1.391 . S
C243 C242 1.386 . S
C243 C247 1.393 . S
C244 H233 0.950 1_655 S
C244 C242 1.391 . S
C244 C245 1.400 . S
C245 C239 1.491 1_655 S
C245 C244 1.400 . S
C245 C246 1.398 . S
C246 H234 0.950 . S
C246 C245 1.398 . S
C246 C247 1.391 . S
C247 H235 0.950 . S
C247 C243 1.393 . S
C247 C246 1.391 . S
H248 C256 0.977 . S
H249 C261 0.950 . S
H250 C258 0.950 . S
H251 C260 0.950 . S
H252 C262 0.977 . S
H253 C264 0.950 . S
H254 C266 0.950 . S
H255 C267 0.950 . S
C256 H248 0.977 . S
C256 C257 1.350 1_565 S
C256 C258 1.400 . S
C257 C256 1.350 1_545 S
C257 C261 1.393 . S
C258 H250 0.950 . S
C258 C256 1.400 . S
C258 C259 1.400 1_565 S
C259 C258 1.400 1_545 S
C259 C260 1.398 . S
C259 C265 1.491 1_546 S
C260 H251 0.950 . S
C260 C259 1.398 . S
C260 C261 1.391 . S
C261 H249 0.950 . S
C261 C257 1.393 . S
C261 C260 1.391 . S
C262 H252 0.977 . S
C262 C263 1.350 1_545 S
C262 C264 1.400 . S
C263 C262 1.350 1_565 S
C263 C267 1.393 . S
C264 H253 0.950 . S
C264 C262 1.400 . S
C264 C265 1.400 1_545 S
C265 C259 1.491 1_564 S
C265 C264 1.400 1_565 S
C265 C266 1.398 . S
C266 H254 0.950 . S
C266 C265 1.398 . S
C266 C267 1.391 . S
C267 H255 0.950 . S
C267 C263 1.393 . S
C267 C266 1.391 . S
H268 C276 0.950 . S
H269 C281 0.950 . S
H270 C278 0.950 . S
H271 C280 0.950 . S
H272 C282 0.950 . S
H273 C284 0.950 . S
H274 C286 0.950 . S
H275 C287 0.950 . S
C276 H268 0.950 . S
C276 C277 1.386 . S
C276 C278 1.391 . S
C277 C276 1.386 . S
C277 C281 1.393 . S
C278 H270 0.950 . S
C278 C276 1.391 . S
C278 C279 1.400 . S
C279 C278 1.400 . S
C279 C280 1.398 . S
C279 C285 1.491 . S
C280 H271 0.950 . S
C280 C279 1.398 . S
C280 C281 1.391 . S
C281 H269 0.950 . S
C281 C277 1.393 . S
C281 C280 1.391 . S
C282 H272 0.950 . S
C282 C283 1.386 . S
C282 C284 1.391 . S
C283 C282 1.386 . S
C283 C287 1.393 . S
C284 H273 0.950 . S
C284 C282 1.391 . S
C284 C285 1.400 . S
C285 C279 1.491 . S
C285 C284 1.400 . S
C285 C286 1.398 . S
C286 H274 0.950 . S
C286 C285 1.398 . S
C286 C287 1.391 . S
C287 H275 0.950 . S
C287 C283 1.393 . S
C287 C286 1.391 . S
H288 C296 0.950 . S
H289 C301 0.950 . S
H290 C298 0.950 . S
H291 C300 0.950 . S
H292 C302 0.950 . S
H293 C304 0.950 . S
H294 C306 0.950 . S
H295 C307 0.950 . S
C296 H288 0.950 . S
C296 C297 1.386 . S
C296 C298 1.391 . S
C297 C296 1.386 . S
C297 C301 1.393 1_655 S
C298 H290 0.950 . S
C298 C296 1.391 . S
C298 C299 1.400 . S
C299 C298 1.400 . S
C299 C300 1.398 1_655 S
C299 C305 1.491 1_656 S
C300 H291 0.950 . S
C300 C299 1.398 1_455 S
C300 C301 1.391 . S
C301 H289 0.950 . S
C301 C297 1.393 1_455 S
C301 C300 1.391 . S
C302 H292 0.950 . S
C302 C303 1.386 . S
C302 C304 1.391 . S
C303 C302 1.386 . S
C303 C307 1.393 1_455 S
C304 H293 0.950 . S
C304 C302 1.391 . S
C304 C305 1.400 . S
C305 C299 1.491 1_454 S
C305 C304 1.400 . S
C305 C306 1.398 1_455 S
C306 H294 0.950 . S
C306 C305 1.398 1_655 S
C306 C307 1.391 . S
C307 H295 0.950 . S
C307 C303 1.393 1_655 S
C307 C306 1.391 . S
H308 C316 0.950 . S
H309 C321 0.950 . S
H310 C318 0.950 . S
H311 C320 0.950 . S
H312 C322 0.950 . S
H313 C324 0.950 . S
H314 C326 0.950 . S
H315 C327 0.950 . S
C316 H308 0.950 . S
C316 C317 1.386 1_545 S
C316 C318 1.391 . S
C317 C316 1.386 1_565 S
C317 C321 1.393 . S
C318 H310 0.950 . S
C318 C316 1.391 . S
C318 C319 1.400 1_545 S
C319 C318 1.400 1_565 S
C319 C320 1.398 . S
C319 C325 1.491 1_565 S
C320 H311 0.950 . S
C320 C319 1.398 . S
C320 C321 1.391 . S
C321 H309 0.950 . S
C321 C317 1.393 . S
C321 C320 1.391 . S
C322 H312 0.950 . S
C322 C323 1.386 1_565 S
C322 C324 1.391 . S
C323 C322 1.386 1_545 S
C323 C327 1.393 . S
C324 H313 0.950 . S
C324 C322 1.391 . S
C324 C325 1.400 1_565 S
C325 C319 1.491 1_545 S
C325 C324 1.400 1_545 S
C325 C326 1.398 . S
C326 H314 0.950 . S
C326 C325 1.398 . S
C326 C327 1.391 . S
C327 H315 0.950 . S
C327 C323 1.393 . S
C327 C326 1.391 . S
H328 C336 0.950 . S
H329 C341 0.950 . S
H330 C338 0.950 . S
H331 C340 0.950 . S
H332 C342 0.950 . S
H333 C344 0.950 . S
H334 C346 0.950 . S
H335 C347 0.950 . S
C336 H328 0.950 . S
C336 C337 1.386 . S
C336 C338 1.391 . S
C337 C336 1.386 . S
C337 C341 1.393 . S
C338 H330 0.950 . S
C338 C336 1.391 . S
C338 C339 1.400 . S
C339 C338 1.400 . S
C339 C340 1.398 . S
C339 C345 1.491 1_556 S
C340 H331 0.950 . S
C340 C339 1.398 . S
C340 C341 1.391 . S
C341 H329 0.950 . S
C341 C337 1.393 . S
C341 C340 1.391 . S
C342 H332 0.950 . S
C342 C343 1.386 . S
C342 C344 1.391 . S
C343 C342 1.386 . S
C343 C347 1.393 . S
C344 H333 0.950 . S
C344 C342 1.391 . S
C344 C345 1.400 . S
C345 C339 1.491 1_554 S
C345 C344 1.400 . S
C345 C346 1.398 . S
C346 H334 0.950 . S
C346 C345 1.398 . S
C346 C347 1.391 . S
C347 H335 0.950 . S
C347 C343 1.393 . S
C347 C346 1.391 . S
H348 C356 0.950 . S
H349 C361 0.950 . S
H350 C358 0.950 1_455 S
H351 C360 0.950 . S
H352 C362 0.950 . S
H353 C364 0.950 1_655 S
H354 C366 0.950 . S
H355 C367 0.950 . S
C356 H348 0.950 . S
C356 C357 1.386 . S
C356 C358 1.391 . S
C357 C356 1.386 . S
C357 C361 1.393 . S
C358 H350 0.950 1_655 S
C358 C356 1.391 . S
C358 C359 1.400 . S
C359 C358 1.400 . S
C359 C360 1.398 . S
C359 C365 1.491 1_655 S
C360 H351 0.950 . S
C360 C359 1.398 . S
C360 C361 1.391 . S
C361 H349 0.950 . S
C361 C357 1.393 . S
C361 C360 1.391 . S
C362 H352 0.950 . S
C362 C363 1.386 . S
C362 C364 1.391 . S
C363 C362 1.386 . S
C363 C367 1.393 . S
C364 H353 0.950 1_455 S
C364 C362 1.391 . S
C364 C365 1.400 . S
C365 C359 1.491 1_455 S
C365 C364 1.400 . S
C365 C366 1.398 . S
C366 H354 0.950 . S
C366 C365 1.398 . S
C366 C367 1.391 . S
C367 H355 0.950 . S
C367 C363 1.393 . S
C367 C366 1.391 . S
H368 C376 0.950 1_565 S
H369 C381 0.950 . S
H370 C378 0.950 . S
H371 C380 0.950 . S
H372 C382 0.950 1_545 S
H373 C384 0.950 . S
H374 C386 0.950 . S
H375 C387 0.950 . S
C376 H368 0.950 1_545 S
C376 C377 1.386 . S
C376 C378 1.391 1_545 S
C377 C376 1.386 . S
C377 C381 1.393 . S
C378 H370 0.950 . S
C378 C376 1.391 1_565 S
C378 C379 1.400 1_565 S
C379 C378 1.400 1_545 S
C379 C380 1.398 . S
C379 C385 1.491 1_546 S
C380 H371 0.950 . S
C380 C379 1.398 . S
C380 C381 1.391 . S
C381 H369 0.950 . S
C381 C377 1.393 . S
C381 C380 1.391 . S
C382 H372 0.950 1_565 S
C382 C383 1.386 . S
C382 C384 1.391 1_565 S
C383 C382 1.386 . S
C383 C387 1.393 . S
C384 H373 0.950 . S
C384 C382 1.391 1_545 S
C384 C385 1.400 1_545 S
C385 C379 1.491 1_564 S
C385 C384 1.400 1_565 S
C385 C386 1.398 . S
C386 H374 0.950 . S
C386 C385 1.398 . S
C386 C387 1.391 . S
C387 H375 0.950 . S
C387 C383 1.393 . S
C387 C386 1.391 . S
H388 C396 0.950 . S
H389 C401 0.950 . S
H390 C398 0.950 . S
H391 C400 0.950 . S
H392 C402 0.950 . S
H393 C404 0.950 . S
H394 C406 0.950 . S
H395 C407 0.950 . S
C396 H388 0.950 . S
C396 C397 1.386 . S
C396 C398 1.391 . S
C397 C396 1.386 . S
C397 C401 1.393 . S
C398 H390 0.950 . S
C398 C396 1.391 . S
C398 C399 1.400 . S
C399 C398 1.400 . S
C399 C400 1.398 . S
C399 C405 1.491 . S
C400 H391 0.950 . S
C400 C399 1.398 . S
C400 C401 1.391 . S
C401 H389 0.950 . S
C401 C397 1.393 . S
C401 C400 1.391 . S
C402 H392 0.950 . S
C402 C403 1.386 . S
C402 C404 1.391 . S
C403 C402 1.386 . S
C403 C407 1.393 . S
C404 H393 0.950 . S
C404 C402 1.391 . S
C404 C405 1.400 . S
C405 C399 1.491 . S
C405 C404 1.400 . S
C405 C406 1.398 . S
C406 H394 0.950 . S
C406 C405 1.398 . S
C406 C407 1.391 . S
C407 H395 0.950 . S
C407 C403 1.393 . S
C407 C406 1.391 . S
H408 C416 0.950 . S
H409 C421 0.950 . S
H410 C418 0.950 . S
H411 C420 0.950 . S
H412 C422 0.950 . S
H413 C424 0.950 . S
H414 C426 0.950 . S
H415 C427 0.950 . S
C416 H408 0.950 . S
C416 C417 1.386 . S
C416 C418 1.391 . S
C417 C416 1.386 . S
C417 C421 1.393 . S
C418 H410 0.950 . S
C418 C416 1.391 . S
C418 C419 1.400 . S
C419 C418 1.400 . S
C419 C420 1.398 . S
C419 C425 1.491 . S
C420 H411 0.950 . S
C420 C419 1.398 . S
C420 C421 1.391 . S
C421 H409 0.950 . S
C421 C417 1.393 . S
C421 C420 1.391 . S
C422 H412 0.950 . S
C422 C423 1.386 . S
C422 C424 1.391 . S
C423 C422 1.386 . S
C423 C427 1.393 . S
C424 H413 0.950 . S
C424 C422 1.391 . S
C424 C425 1.400 . S
C425 C419 1.491 . S
C425 C424 1.400 . S
C425 C426 1.398 . S
C426 H414 0.950 . S
C426 C425 1.398 . S
C426 C427 1.391 . S
C427 H415 0.950 . S
C427 C423 1.393 . S
C427 C426 1.391 . S
H428 C436 0.950 . S
H429 C441 0.950 . S
H430 C438 0.950 . S
H431 C440 0.950 . S
H432 C442 0.950 . S
H433 C444 0.950 . S
H434 C446 0.950 . S
H435 C447 0.950 . S
C436 H428 0.950 . S
C436 C437 1.386 . S
C436 C438 1.391 . S
C437 C436 1.386 . S
C437 C441 1.393 . S
C438 H430 0.950 . S
C438 C436 1.391 . S
C438 C439 1.400 . S
C439 C438 1.400 . S
C439 C440 1.398 . S
C439 C445 1.491 . S
C440 H431 0.950 . S
C440 C439 1.398 . S
C440 C441 1.391 . S
C441 H429 0.950 . S
C441 C437 1.393 . S
C441 C440 1.391 . S
C442 H432 0.950 . S
C442 C443 1.386 . S
C442 C444 1.391 . S
C443 C442 1.386 . S
C443 C447 1.393 . S
C444 H433 0.950 . S
C444 C442 1.391 . S
C444 C445 1.400 . S
C445 C439 1.491 . S
C445 C444 1.400 . S
C445 C446 1.398 . S
C446 H434 0.950 . S
C446 C445 1.398 . S
C446 C447 1.391 . S
C447 H435 0.950 . S
C447 C443 1.393 . S
C447 C446 1.391 . S
H448 C456 0.950 . S
H449 C461 0.950 . S
H450 C458 0.950 . S
H451 C460 0.950 . S
H452 C462 0.950 . S
H453 C464 0.950 . S
H454 C466 0.950 . S
H455 C467 0.950 . S
C456 H448 0.950 . S
C456 C457 1.386 . S
C456 C458 1.391 . S
C457 C456 1.386 . S
C457 C461 1.393 . S
C458 H450 0.950 . S
C458 C456 1.391 . S
C458 C459 1.400 . S
C459 C458 1.400 . S
C459 C460 1.398 . S
C459 C465 1.491 . S
C460 H451 0.950 . S
C460 C459 1.398 . S
C460 C461 1.391 . S
C461 H449 0.950 . S
C461 C457 1.393 . S
C461 C460 1.391 . S
C462 H452 0.950 . S
C462 C463 1.386 . S
C462 C464 1.391 . S
C463 C462 1.386 . S
C463 C467 1.393 . S
C464 H453 0.950 . S
C464 C462 1.391 . S
C464 C465 1.400 . S
C465 C459 1.491 . S
C465 C464 1.400 . S
C465 C466 1.398 . S
C466 H454 0.950 . S
C466 C465 1.398 . S
C466 C467 1.391 . S
C467 H455 0.950 . S
C467 C463 1.393 . S
C467 C466 1.391 . S
H468 C476 0.950 . S
H469 C481 0.950 . S
H470 C478 0.950 . S
H471 C480 0.950 . S
H472 C482 0.950 . S
H473 C484 0.950 . S
H474 C486 0.950 . S
H475 C487 0.950 . S
C476 H468 0.950 . S
C476 C477 1.386 . S
C476 C478 1.391 . S
C477 C476 1.386 . S
C477 C481 1.393 . S
C478 H470 0.950 . S
C478 C476 1.391 . S
C478 C479 1.400 . S
C479 C478 1.400 . S
C479 C480 1.398 . S
C479 C485 1.491 . S
C480 H471 0.950 . S
C480 C479 1.398 . S
C480 C481 1.391 . S
C481 H469 0.950 . S
C481 C477 1.393 . S
C481 C480 1.391 . S
C482 H472 0.950 . S
C482 C483 1.386 . S
C482 C484 1.391 . S
C483 C482 1.386 . S
C483 C487 1.393 . S
C484 H473 0.950 . S
C484 C482 1.391 . S
C484 C485 1.400 . S
C485 C479 1.491 . S
C485 C484 1.400 . S
C485 C486 1.398 . S
C486 H474 0.950 . S
C486 C485 1.398 . S
C486 C487 1.391 . S
C487 H475 0.950 . S
C487 C483 1.393 . S
C487 C486 1.391 . S
H488 C496 0.950 . S
H489 C501 0.950 . S
H490 C498 0.950 . S
H491 C500 0.950 . S
H492 C502 0.950 . S
H493 C504 0.950 . S
H494 C506 0.950 . S
H495 C507 0.950 . S
C496 H488 0.950 . S
C496 C497 1.386 . S
C496 C498 1.391 . S
C497 C496 1.386 . S
C497 C501 1.393 . S
C498 H490 0.950 . S
C498 C496 1.391 . S
C498 C499 1.400 . S
C499 C498 1.400 . S
C499 C500 1.398 . S
C499 C505 1.491 . S
C500 H491 0.950 . S
C500 C499 1.398 . S
C500 C501 1.391 . S
C501 H489 0.950 . S
C501 C497 1.393 . S
C501 C500 1.391 . S
C502 H492 0.950 . S
C502 C503 1.386 . S
C502 C504 1.391 . S
C503 C502 1.386 . S
C503 C507 1.393 . S
C504 H493 0.950 . S
C504 C502 1.391 . S
C504 C505 1.400 . S
C505 C499 1.491 . S
C505 C504 1.400 . S
C505 C506 1.398 . S
C506 H494 0.950 . S
C506 C505 1.398 . S
C506 C507 1.391 . S
C507 H495 0.950 . S
C507 C503 1.393 . S
C507 C506 1.391 . S
H508 C516 0.950 . S
H509 C521 0.950 . S
H510 C518 0.950 . S
H511 C520 0.950 . S
H512 C522 0.950 . S
H513 C524 0.950 . S
H514 C526 0.950 . S
H515 C527 0.950 . S
C516 H508 0.950 . S
C516 C517 1.386 . S
C516 C518 1.391 . S
C517 C516 1.386 . S
C517 C521 1.393 . S
C518 H510 0.950 . S
C518 C516 1.391 . S
C518 C519 1.400 . S
C519 C518 1.400 . S
C519 C520 1.398 . S
C519 C525 1.491 . S
C520 H511 0.950 . S
C520 C519 1.398 . S
C520 C521 1.391 . S
C521 H509 0.950 . S
C521 C517 1.393 . S
C521 C520 1.391 . S
C522 H512 0.950 . S
C522 C523 1.386 . S
C522 C524 1.391 . S
C523 C522 1.386 . S
C523 C527 1.393 . S
C524 H513 0.950 . S
C524 C522 1.391 . S
C524 C525 1.400 . S
C525 C519 1.491 . S
C525 C524 1.400 . S
C525 C526 1.398 . S
C526 H514 0.950 . S
C526 C525 1.398 . S
C526 C527 1.391 . S
C527 H515 0.950 . S
C527 C523 1.393 . S
C527 C526 1.391 . S
H528 C536 0.950 . S
H529 C541 0.950 . S
H530 C538 0.950 . S
H531 C540 0.950 . S
H532 C542 0.950 . S
H533 C544 0.950 . S
H534 C546 0.950 . S
H535 C547 0.950 . S
C536 H528 0.950 . S
C536 C537 1.386 . S
C536 C538 1.391 . S
C537 C536 1.386 . S
C537 C541 1.393 . S
C538 H530 0.950 . S
C538 C536 1.391 . S
C538 C539 1.400 . S
C539 C538 1.400 . S
C539 C540 1.398 . S
C539 C545 1.491 . S
C540 H531 0.950 . S
C540 C539 1.398 . S
C540 C541 1.391 . S
C541 H529 0.950 . S
C541 C537 1.393 . S
C541 C540 1.391 . S
C542 H532 0.950 . S
C542 C543 1.386 . S
C542 C544 1.391 . S
C543 C542 1.386 . S
C543 C547 1.393 . S
C544 H533 0.950 . S
C544 C542 1.391 . S
C544 C545 1.400 . S
C545 C539 1.491 . S
C545 C544 1.400 . S
C545 C546 1.398 . S
C546 H534 0.950 . S
C546 C545 1.398 . S
C546 C547 1.391 . S
C547 H535 0.950 . S
C547 C543 1.393 . S
C547 C546 1.391 . S
H548 C556 0.950 . S
H549 C561 0.950 . S
H550 C558 0.950 . S
H551 C560 0.950 . S
H552 C562 0.950 . S
H553 C564 0.950 . S
H554 C566 0.950 . S
H555 C567 0.950 . S
C556 H548 0.950 . S
C556 C557 1.386 . S
C556 C558 1.391 . S
C557 C556 1.386 . S
C557 C561 1.393 . S
C558 H550 0.950 . S
C558 C556 1.391 . S
C558 C559 1.400 . S
C559 C558 1.400 . S
C559 C560 1.398 . S
C559 C565 1.491 . S
C560 H551 0.950 . S
C560 C559 1.398 . S
C560 C561 1.391 . S
C561 H549 0.950 . S
C561 C557 1.393 . S
C561 C560 1.391 . S
C562 H552 0.950 . S
C562 C563 1.386 . S
C562 C564 1.391 . S
C563 C562 1.386 . S
C563 C567 1.393 . S
C564 H553 0.950 . S
C564 C562 1.391 . S
C564 C565 1.400 . S
C565 C559 1.491 . S
C565 C564 1.400 . S
C565 C566 1.398 . S
C566 H554 0.950 . S
C566 C565 1.398 . S
C566 C567 1.391 . S
C567 H555 0.950 . S
C567 C563 1.393 . S
C567 C566 1.391 . S
H568 C576 0.950 . S
H569 C581 0.950 . S
H570 C578 0.950 . S
H571 C580 0.950 . S
H572 C582 0.950 . S
H573 C584 0.950 . S
H574 C586 0.950 . S
H575 C587 0.950 . S
C576 H568 0.950 . S
C576 C577 1.386 . S
C576 C578 1.391 . S
C577 C576 1.386 . S
C577 C581 1.393 . S
C578 H570 0.950 . S
C578 C576 1.391 . S
C578 C579 1.400 . S
C579 C578 1.400 . S
C579 C580 1.398 . S
C579 C585 1.491 . S
C580 H571 0.950 . S
C580 C579 1.398 . S
C580 C581 1.391 . S
C581 H569 0.950 . S
C581 C577 1.393 . S
C581 C580 1.391 . S
C582 H572 0.950 . S
C582 C583 1.386 . S
C582 C584 1.391 . S
C583 C582 1.386 . S
C583 C587 1.393 . S
C584 H573 0.950 . S
C584 C582 1.391 . S
C584 C585 1.400 . S
C585 C579 1.491 . S
C585 C584 1.400 . S
C585 C586 1.398 . S
C586 H574 0.950 . S
C586 C585 1.398 . S
C586 C587 1.391 . S
C587 H575 0.950 . S
C587 C583 1.393 . S
C587 C586 1.391 . S
H588 C596 0.950 . S
H589 C601 0.950 . S
H590 C598 0.950 . S
H591 C600 0.950 . S
H592 C602 0.950 . S
H593 C604 0.950 . S
H594 C606 0.950 . S
H595 C607 0.950 . S
C596 H588 0.950 . S
C596 C597 1.386 . S
C596 C598 1.391 . S
C597 C596 1.386 . S
C597 C601 1.393 . S
C598 H590 0.950 . S
C598 C596 1.391 . S
C598 C599 1.400 . S
C599 C598 1.400 . S
C599 C600 1.398 . S
C599 C605 1.491 . S
C600 H591 0.950 . S
C600 C599 1.398 . S
C600 C601 1.391 . S
C601 H589 0.950 . S
C601 C597 1.393 . S
C601 C600 1.391 . S
C602 H592 0.950 . S
C602 C603 1.386 . S
C602 C604 1.391 . S
C603 C602 1.386 . S
C603 C607 1.393 . S
C604 H593 0.950 . S
C604 C602 1.391 . S
C604 C605 1.400 . S
C605 C599 1.491 . S
C605 C604 1.400 . S
C605 C606 1.398 . S
C606 H594 0.950 . S
C606 C605 1.398 . S
C606 C607 1.391 . S
C607 H595 0.950 . S
C607 C603 1.393 . S
C607 C606 1.391 . S
H608 C616 0.950 . S
H609 C621 0.950 . S
H610 C618 0.950 . S
H611 C620 0.950 . S
H612 C622 0.950 . S
H613 C624 0.950 . S
H614 C626 0.950 . S
H615 C627 0.950 . S
C616 H608 0.950 . S
C616 C617 1.386 . S
C616 C618 1.391 . S
C617 C616 1.386 . S
C617 C621 1.393 . S
C618 H610 0.950 . S
C618 C616 1.391 . S
C618 C619 1.400 . S
C619 C618 1.400 . S
C619 C620 1.398 . S
C619 C625 1.491 . S
C620 H611 0.950 . S
C620 C619 1.398 . S
C620 C621 1.391 . S
C621 H609 0.950 . S
C621 C617 1.393 . S
C621 C620 1.391 . S
C622 H612 0.950 . S
C622 C623 1.386 . S
C622 C624 1.391 . S
C623 C622 1.386 . S
C623 C627 1.393 . S
C624 H613 0.950 . S
C624 C622 1.391 . S
C624 C625 1.400 . S
C625 C619 1.491 . S
C625 C624 1.400 . S
C625 C626 1.398 . S
C626 H614 0.950 . S
C626 C625 1.398 . S
C626 C627 1.391 . S
C627 H615 0.950 . S
C627 C623 1.393 . S
C627 C626 1.391 . S
H628 C636 0.950 . S
H629 C641 0.950 . S
H630 C638 0.950 . S
H631 C640 0.950 . S
H632 C642 0.950 . S
H633 C644 0.950 . S
H634 C646 0.950 . S
H635 C647 0.950 . S
C636 H628 0.950 . S
C636 C637 1.386 . S
C636 C638 1.391 . S
C637 C636 1.386 . S
C637 C641 1.393 . S
C638 H630 0.950 . S
C638 C636 1.391 . S
C638 C639 1.400 . S
C639 C638 1.400 . S
C639 C640 1.398 . S
C639 C645 1.491 . S
C640 H631 0.950 . S
C640 C639 1.398 . S
C640 C641 1.391 . S
C641 H629 0.950 . S
C641 C637 1.393 . S
C641 C640 1.391 . S
C642 H632 0.950 . S
C642 C643 1.386 . S
C642 C644 1.391 . S
C643 C642 1.386 . S
C643 C647 1.393 . S
C644 H633 0.950 . S
C644 C642 1.391 . S
C644 C645 1.400 . S
C645 C639 1.491 . S
C645 C644 1.400 . S
C645 C646 1.398 . S
C646 H634 0.950 . S
C646 C645 1.398 . S
C646 C647 1.391 . S
C647 H635 0.950 . S
C647 C643 1.393 . S
C647 C646 1.391 . S
C177 C7 1.327 . S
C183 C161 1.324 . S
C197 C91 1.314 . S
C203 C21 1.331 . S
C217 C35 1.327 . S
C223 C105 1.324 . S
C237 C119 1.312 . S
C243 C49 1.318 . S
C257 C133 1.319 . S
C263 C63 1.330 . S
C277 C147 1.320 . S
C283 C77 1.311 . S
C297 C45 1.301 . S
C303 C115 1.311 . S
C317 C59 1.307 . S
C323 C129 1.296 . S
C337 C73 1.294 . S
C343 C143 1.300 . S
C357 C157 1.296 . S
C363 C3 1.295 . S
C377 C17 1.298 . S
C383 C87 1.294 . S
C397 C31 1.297 . S
C403 C101 1.307 . S
C417 C121 1.662 . S
C423 C9 1.666 . S
C437 C135 1.668 . S
C443 C23 1.659 . S
C457 C37 1.664 . S
C463 C149 1.662 . S
C477 C51 1.662 . S
C483 C163 1.663 . S
C497 C65 1.659 . S
C503 C93 1.666 . S
C517 C107 1.663 . S
C523 C79 1.662 . S
C537 C8 1.630 . S
C543 C148 1.623 . S
C557 C162 1.630 . S
C563 C22 1.620 . S
C577 C36 1.628 . S
C583 C92 1.626 . S
C597 C50 1.626 . S
C603 C106 1.620 . S
C617 C64 1.629 . S
C623 C120 1.620 . S
C637 C78 1.622 . S
C643 C134 1.623 . S
