# Generated by pormake.
# Topology wkj, (6)-cn, num edge types: 1
# Building blocks:
#     Node 0, Type 0, BuildingBlock: MIFKUJ_clean_sbu_0, # of connection points: 6
#     Node 1, Type 0, BuildingBlock: MIFKUJ_clean_sbu_0, # of connection points: 6
#     Node 2, Type 0, BuildingBlock: MIFKUJ_clean_sbu_0, # of connection points: 6
#     Node 3, Type 0, BuildingBlock: MIFKUJ_clean_sbu_0, # of connection points: 6
#     Node 4, Type 0, BuildingBlock: MIFKUJ_clean_sbu_0, # of connection points: 6
#     Node 5, Type 0, BuildingBlock: MIFKUJ_clean_sbu_0, # of connection points: 6
#     Node 6, Type 0, BuildingBlock: MIFKUJ_clean_sbu_0, # of connection points: 6
#     Node 7, Type 0, BuildingBlock: MIFKUJ_clean_sbu_0, # of connection points: 6
#     Node 8, Type 0, BuildingBlock: MIFKUJ_clean_sbu_0, # of connection points: 6
#     Node 9, Type 0, BuildingBlock: MIFKUJ_clean_sbu_0, # of connection points: 6
#     Node 10, Type 0, BuildingBlock: MIFKUJ_clean_sbu_0, # of connection points: 6
#     Node 11, Type 0, BuildingBlock: MIFKUJ_clean_sbu_0, # of connection points: 6
#     Edge 12, Type (0, 0), BuildingBlock: AJUNOK_clean_linker_0, # of connection points: 2
#     Edge 13, Type (0, 0), BuildingBlock: AJUNOK_clean_linker_0, # of connection points: 2
#     Edge 14, Type (0, 0), BuildingBlock: AJUNOK_clean_linker_0, # of connection points: 2
#     Edge 15, Type (0, 0), BuildingBlock: AJUNOK_clean_linker_0, # of connection points: 2
#     Edge 16, Type (0, 0), BuildingBlock: AJUNOK_clean_linker_0, # of connection points: 2
#     Edge 17, Type (0, 0), BuildingBlock: AJUNOK_clean_linker_0, # of connection points: 2
#     Edge 18, Type (0, 0), BuildingBlock: AJUNOK_clean_linker_0, # of connection points: 2
#     Edge 19, Type (0, 0), BuildingBlock: AJUNOK_clean_linker_0, # of connection points: 2
#     Edge 20, Type (0, 0), BuildingBlock: AJUNOK_clean_linker_0, # of connection points: 2
#     Edge 21, Type (0, 0), BuildingBlock: AJUNOK_clean_linker_0, # of connection points: 2
#     Edge 22, Type (0, 0), BuildingBlock: AJUNOK_clean_linker_0, # of connection points: 2
#     Edge 23, Type (0, 0), BuildingBlock: AJUNOK_clean_linker_0, # of connection points: 2
#     Edge 24, Type (0, 0), BuildingBlock: AJUNOK_clean_linker_0, # of connection points: 2
#     Edge 25, Type (0, 0), BuildingBlock: AJUNOK_clean_linker_0, # of connection points: 2
#     Edge 26, Type (0, 0), BuildingBlock: AJUNOK_clean_linker_0, # of connection points: 2
#     Edge 27, Type (0, 0), BuildingBlock: AJUNOK_clean_linker_0, # of connection points: 2
#     Edge 28, Type (0, 0), BuildingBlock: AJUNOK_clean_linker_0, # of connection points: 2
#     Edge 29, Type (0, 0), BuildingBlock: AJUNOK_clean_linker_0, # of connection points: 2
#     Edge 30, Type (0, 0), BuildingBlock: AJUNOK_clean_linker_0, # of connection points: 2
#     Edge 31, Type (0, 0), BuildingBlock: AJUNOK_clean_linker_0, # of connection points: 2
#     Edge 32, Type (0, 0), BuildingBlock: AJUNOK_clean_linker_0, # of connection points: 2
#     Edge 33, Type (0, 0), BuildingBlock: AJUNOK_clean_linker_0, # of connection points: 2
#     Edge 34, Type (0, 0), BuildingBlock: AJUNOK_clean_linker_0, # of connection points: 2
#     Edge 35, Type (0, 0), BuildingBlock: AJUNOK_clean_linker_0, # of connection points: 2
#     Edge 36, Type (0, 0), BuildingBlock: AJUNOK_clean_linker_0, # of connection points: 2
#     Edge 37, Type (0, 0), BuildingBlock: AJUNOK_clean_linker_0, # of connection points: 2
#     Edge 38, Type (0, 0), BuildingBlock: AJUNOK_clean_linker_0, # of connection points: 2
#     Edge 39, Type (0, 0), BuildingBlock: AJUNOK_clean_linker_0, # of connection points: 2
#     Edge 40, Type (0, 0), BuildingBlock: AJUNOK_clean_linker_0, # of connection points: 2
#     Edge 41, Type (0, 0), BuildingBlock: AJUNOK_clean_linker_0, # of connection points: 2
#     Edge 42, Type (0, 0), BuildingBlock: AJUNOK_clean_linker_0, # of connection points: 2
#     Edge 43, Type (0, 0), BuildingBlock: AJUNOK_clean_linker_0, # of connection points: 2
#     Edge 44, Type (0, 0), BuildingBlock: AJUNOK_clean_linker_0, # of connection points: 2
#     Edge 45, Type (0, 0), BuildingBlock: AJUNOK_clean_linker_0, # of connection points: 2
#     Edge 46, Type (0, 0), BuildingBlock: AJUNOK_clean_linker_0, # of connection points: 2
#     Edge 47, Type (0, 0), BuildingBlock: AJUNOK_clean_linker_0, # of connection points: 2
# Relax obj value: 0.304
# Max RMSD: 0.215
# Mean RMSD: 0.215
data_MOF--net-wkj--node1-MIFKUJ_clean_sbu_0--edge1-AJUNOK_clean_linker_0
_symmetry_space_group_name_H-M    P1
_symmetry_Int_Tables_number       1
_symmetry_cell_setting            triclinic
loop_
_symmetry_equiv_pos_as_xyz
'x, y, z'
_cell_length_a     33.497691
_cell_length_b     33.5038
_cell_length_c     23.685442
_cell_angle_alpha  90.480154
_cell_angle_beta   89.648155
_cell_angle_gamma 119.5766
loop_
_atom_site_label
_atom_site_type_symbol
_atom_site_fract_x
_atom_site_fract_y
_atom_site_fract_z
_atom_type_partial_charge
Zn0 Zn 0.42079 0.1039 0.1645 0.0
Zn1 Zn 0.41088 0.10704 0.3371 0.0
C2 C 0.41352 0.0481 0.07616 0.0
O3 O 0.45766 0.07394 0.08596 0.0
C4 C 0.47658 0.16417 0.41926 0.0
O5 O 0.43994 0.16451 0.43872 0.0
O6 O 0.46442 0.15945 0.11874 0.0
O7 O 0.38335 0.11095 0.22628 0.0
O8 O 0.39496 0.15249 0.30148 0.0
C9 C 0.45425 0.16499 0.0688 0.0
O10 O 0.41124 0.14108 0.05265 0.0
O11 O 0.38518 0.05217 0.10841 0.0
C12 C 0.38769 0.04421 0.418 0.0
O13 O 0.42663 0.05158 0.39544 0.0
O14 O 0.36955 0.06722 0.39977 0.0
O15 O 0.41287 0.06235 0.27903 0.0
O16 O 0.46046 0.08544 0.20728 0.0
O17 O 0.47363 0.14373 0.37267 0.0
C18 C 0.39194 0.14897 0.2481 0.0
C19 C 0.44965 0.06773 0.25616 0.0
Zn20 Zn 0.32521 0.39768 0.50019 0.0
Zn21 Zn 0.31735 0.39222 0.67753 0.0
C22 C 0.35296 0.33994 0.43621 0.0
O23 O 0.37811 0.34488 0.48085 0.0
C24 C 0.33618 0.47583 0.73993 0.0
O25 O 0.29776 0.46998 0.71798 0.0
O26 O 0.32005 0.44942 0.46379 0.0
O27 O 0.28288 0.3673 0.56555 0.0
O28 O 0.26264 0.39164 0.63996 0.0
C29 C 0.3029 0.44598 0.41504 0.0
O30 O 0.2826 0.40562 0.39 0.0
O31 O 0.32578 0.35624 0.43764 0.0
C32 C 0.32183 0.32043 0.73631 0.0
O33 O 0.34567 0.32135 0.69161 0.0
O34 O 0.3001 0.34252 0.73496 0.0
O35 O 0.35981 0.38975 0.61679 0.0
O36 O 0.38635 0.42948 0.53878 0.0
O37 O 0.35146 0.4492 0.72563 0.0
C38 C 0.25906 0.38334 0.58724 0.0
C39 C 0.39132 0.42409 0.59095 0.0
Zn40 Zn 0.88025 0.32471 0.8355 0.0
Zn41 Zn 0.8719 0.31728 0.01 0.0
C42 C 0.96908 0.35828 0.77815 0.0
O43 O -0.01324 0.38461 0.82284 0.0
C44 C 0.82263 0.33431 0.09529 0.0
O45 O 0.81841 0.29503 0.11163 0.0
O46 O 0.82646 0.31689 0.78899 0.0
O47 O 0.86739 0.28172 0.90074 0.0
O48 O 0.82206 0.25809 0.97369 0.0
C49 C 0.81839 0.29535 0.74222 0.0
O50 O 0.83845 0.2708 0.73209 0.0
O51 O 0.92685 0.32787 0.7785 0.0
C52 C 0.93259 0.3507 0.09537 0.0
O53 O 0.92929 0.38526 0.07494 0.0
O54 O 0.90979 0.31129 0.07234 0.0
O55 O 0.91753 0.35701 0.9495 0.0
O56 O 0.90633 0.3865 0.87339 0.0
O57 O 0.84125 0.35013 0.04755 0.0
C58 C 0.82807 0.25522 0.92107 0.0
C59 C 0.91872 0.39106 0.9248 0.0
Zn60 Zn 0.53772 0.89865 0.16451 0.0
Zn61 Zn 0.55258 0.89764 0.33441 0.0
C62 C 0.54204 0.94873 0.07054 0.0
O63 O 0.49807 0.92369 0.08207 0.0
C64 C 0.4782 0.83052 0.40217 0.0
O65 O 0.50764 0.81607 0.41088 0.0
O66 O 0.49081 0.84089 0.12565 0.0
O67 O 0.57677 0.8912 0.22163 0.0
O68 O 0.56254 0.84901 0.29589 0.0
C69 C 0.5 0.83081 0.07725 0.0
O70 O 0.54275 0.8529 0.05948 0.0
O71 O 0.57088 0.94614 0.10299 0.0
C72 C 0.62893 0.97149 0.39267 0.0
O73 O 0.63724 -0.00964 0.34249 0.0
O74 O 0.59661 0.93035 0.39799 0.0
O75 O 0.55312 0.94575 0.28082 0.0
O76 O 0.50334 0.92186 0.21101 0.0
O77 O 0.48961 0.86462 0.36983 0.0
C78 C 0.56666 0.85274 0.24274 0.0
C79 C 0.5164 0.94117 0.25908 0.0
Zn80 Zn 0.64703 0.57548 0.50904 0.0
Zn81 Zn 0.66038 0.57509 0.68189 0.0
C82 C 0.63346 0.62667 0.42009 0.0
O83 O 0.66973 0.62719 0.39783 0.0
C84 C 0.66286 0.50904 0.75534 0.0
O85 O 0.70126 0.54535 0.77101 0.0
O86 O 0.66479 0.54433 0.44874 0.0
O87 O 0.6903 0.60958 0.57115 0.0
O88 O 0.72107 0.59534 0.64263 0.0
C89 C 0.65715 0.50344 0.45382 0.0
O90 O 0.64461 0.48369 0.50342 0.0
O91 O 0.62074 0.61043 0.46943 0.0
C92 C 0.65085 0.64243 0.75017 0.0
O93 O 0.63487 0.65025 0.70352 0.0
O94 O 0.66616 0.61456 0.74864 0.0
O95 O 0.60859 0.56771 0.62934 0.0
O96 O 0.59432 0.52652 0.55145 0.0
O97 O 0.63999 0.51292 0.7152 0.0
C98 C 0.72037 0.6007 0.58987 0.0
C99 C 0.58388 0.5305 0.60218 0.0
Zn100 Zn 0.09332 0.62692 0.87342 0.0
Zn101 Zn 0.10205 0.66571 0.02675 0.0
C102 C 0.02035 0.6072 0.79124 0.0
O103 O 0.03649 0.65178 0.79252 0.0
C104 C 0.15916 0.65724 0.11183 0.0
O105 O 0.16091 0.69474 0.13186 0.0
O106 O 0.14813 0.63723 0.82668 0.0
O107 O 0.09324 0.68211 0.90564 0.0
O108 O 0.14281 0.71588 0.97292 0.0
C109 C 0.15443 0.65316 0.77689 0.0
O110 O 0.12826 0.66928 0.75862 0.0
O111 O 0.03801 0.58996 0.8235 0.0
C112 C 0.03508 0.67636 0.09081 0.0
O113 O 0.01116 0.66029 0.0442 0.0
O114 O 0.07709 0.68701 0.09026 0.0
O115 O 0.04808 0.60885 0.99246 0.0
O116 O 0.08895 0.58798 0.93942 0.0
O117 O 0.13884 0.6409 0.06513 0.0
C118 C 0.13152 0.7147 0.92167 0.0
C119 C 0.05443 0.57758 0.97078 0.0
Zn120 Zn 0.84424 0.47423 0.50992 0.0
Zn121 Zn 0.85973 0.52509 0.35132 0.0
C122 C 0.89794 0.49889 0.60798 0.0
O123 O 0.88856 0.45638 0.59916 0.0
C124 C 0.82092 0.46654 0.25441 0.0
O125 O 0.82276 0.50396 0.2347 0.0
O126 O 0.79654 0.41679 0.54938 0.0
O127 O 0.8233 0.50471 0.45658 0.0
O128 O 0.81234 0.53907 0.38717 0.0
C129 C 0.79679 0.3791 0.54478 0.0
O130 O 0.81918 0.3739 0.50221 0.0
O131 O 0.88299 0.51695 0.57282 0.0
C132 C 0.93784 0.60555 0.29966 0.0
O133 O 0.96018 0.60772 0.346 0.0
O134 O 0.89601 0.57478 0.29501 0.0
O135 O 0.90493 0.5241 0.40969 0.0
O136 O 0.88615 0.46258 0.46102 0.0
O137 O 0.83186 0.46607 0.30571 0.0
C138 C 0.80452 0.52667 0.43827 0.0
C139 C 0.90956 0.4894 0.42105 0.0
Zn140 Zn 0.35531 0.84772 0.82099 0.0
Zn141 Zn 0.31493 0.83369 0.64743 0.0
C142 C 0.37954 0.91684 0.89911 0.0
O143 O 0.41787 0.91716 0.88624 0.0
C144 C 0.32396 0.79083 0.54622 0.0
O145 O 0.2916 0.79892 0.52835 0.0
O146 O 0.37637 0.80956 0.86322 0.0
O147 O 0.31063 0.81862 0.75931 0.0
O148 O 0.25803 0.79367 0.69565 0.0
C149 C 0.3648 0.80053 0.91476 0.0
O150 O 0.33374 0.80976 0.93542 0.0
O151 O 0.34225 0.88662 0.87656 0.0
C152 C 0.3121 0.91376 0.60163 0.0
O153 O 0.31695 0.92977 0.6534 0.0
O154 O 0.30522 0.87341 0.59312 0.0
O155 O 0.37309 0.87668 0.69268 0.0
O156 O 0.40832 0.89315 0.77577 0.0
O157 O 0.33467 0.79698 0.59827 0.0
C158 C 0.26876 0.7948 0.74709 0.0
C159 C 0.40783 0.90158 0.72355 0.0
Zn160 Zn 0.5186 0.36732 0.16791 0.0
Zn161 Zn 0.49471 0.33878 0.99409 0.0
C162 C 0.42779 0.32838 0.22096 0.0
O163 O 0.41743 0.34456 0.17643 0.0
C164 C 0.55564 0.35544 0.90055 0.0
O165 O 0.51979 0.31869 0.88027 0.0
O166 O 0.57696 0.40189 0.21363 0.0
O167 O 0.52209 0.33428 0.10096 0.0
O168 O 0.48138 0.2828 0.03893 0.0
C169 C 0.57882 0.38605 0.26158 0.0
O170 O 0.54578 0.34508 0.27559 0.0
O171 O 0.46678 0.33069 0.22287 0.0
C172 C 0.40532 0.31289 0.94397 0.0
O173 O 0.39336 0.31866 0.995 0.0
O174 O 0.44544 0.31902 0.93557 0.0
O175 O 0.49412 0.39048 0.04167 0.0
O176 O 0.50626 0.41367 0.1321 0.0
O177 O 0.55451 0.36727 0.95144 0.0
C178 C 0.49432 0.29275 0.08958 0.0
C179 C 0.49647 0.41772 0.08127 0.0
Zn180 Zn 0.14974 0.5096 0.5135 0.0
Zn181 Zn 0.13298 0.46554 0.34911 0.0
C182 C 0.07082 0.43556 0.57112 0.0
O183 O 0.0484 0.44102 0.52949 0.0
C184 C 0.17329 0.52685 0.25693 0.0
O185 O 0.17123 0.48974 0.23493 0.0
O186 O 0.19158 0.56782 0.55627 0.0
O187 O 0.17357 0.49117 0.44714 0.0
O188 O 0.18068 0.45068 0.38109 0.0
C189 C 0.20157 0.56366 0.60681 0.0
O190 O 0.19393 0.52312 0.62323 0.0
O191 O 0.11448 0.45878 0.57116 0.0
C192 C 0.05947 0.42673 0.2781 0.0
O193 O 0.06101 0.46423 0.29775 0.0
O194 O 0.09017 0.41742 0.2937 0.0
O195 O 0.09144 0.46536 0.41384 0.0
O196 O 0.10412 0.52124 0.47275 0.0
O197 O 0.16155 0.52606 0.30826 0.0
C198 C 0.1895 0.4657 0.43146 0.0
C199 C 0.08421 0.49792 0.42862 0.0
Zn200 Zn 0.59647 0.13954 0.80646 0.0
Zn201 Zn 0.64914 0.14584 0.65124 0.0
C202 C 0.57613 0.05724 0.86772 0.0
O203 O 0.54385 0.03944 0.82929 0.0
C204 C 0.62639 0.18889 0.56249 0.0
O205 O 0.66318 0.19104 0.53947 0.0
O206 O 0.57292 0.17692 0.84826 0.0
O207 O 0.64808 0.17081 0.75457 0.0
O208 O 0.70466 0.19031 0.69792 0.0
C209 C 0.5856 0.1876 0.89933 0.0
O210 O 0.6183 0.18046 0.91832 0.0
O211 O 0.60543 0.09982 0.86493 0.0
C212 C 0.66936 0.08049 0.59543 0.0
O213 O 0.6605 0.06126 0.64543 0.0
O214 O 0.66908 0.11799 0.5893 0.0
O215 O 0.60148 0.09083 0.69799 0.0
O216 O 0.55003 0.09838 0.74922 0.0
O217 O 0.61596 0.17457 0.61294 0.0
C218 C 0.69089 0.19119 0.74752 0.0
C219 C 0.55974 0.07963 0.70814 0.0
Zn220 Zn 0.44563 0.61965 0.17456 0.0
Zn221 Zn 0.48875 0.64689 0.00989 0.0
C222 C 0.4972 0.61806 0.26514 0.0
O223 O 0.46027 0.57736 0.26657 0.0
C224 C 0.42818 0.61257 0.91579 0.0
O225 O 0.45387 0.65498 0.89848 0.0
O226 O 0.38589 0.59179 0.21877 0.0
O227 O 0.45166 0.65627 0.10652 0.0
O228 O 0.48905 0.70402 0.04032 0.0
C229 C 0.38492 0.60284 0.27011 0.0
O230 O 0.4201 0.64049 0.28965 0.0
O231 O 0.5006 0.6462 0.22709 0.0
C232 C 0.57632 0.66413 0.96051 0.0
O233 O 0.58387 0.651 0.00947 0.0
O234 O 0.54008 0.6667 0.95388 0.0
O235 O 0.49881 0.61307 0.07551 0.0
O236 O 0.44614 0.56682 0.13545 0.0
O237 O 0.43314 0.60229 0.96583 0.0
C238 C 0.47553 0.69757 0.09123 0.0
C239 C 0.46995 0.57245 0.09102 0.0
C240 C 0.39521 0.19812 0.16888 0.0
C241 C 0.41722 0.19044 0.21422 0.0
C242 C 0.42033 0.23268 0.12968 0.0
C243 C 0.46827 0.26004 0.13437 0.0
H244 H 0.35862 0.17628 0.16266 0.0
H245 H 0.40235 0.23711 0.09455 0.0
S246 S 0.542 0.25103 0.24353 0.0
N247 N 0.4893 0.2119 0.26132 0.0
N248 N 0.53684 0.27641 0.1867 0.0
C249 C 0.49052 0.2533 0.18021 0.0
C250 C 0.46485 0.21845 0.22045 0.0
C251 C 0.21111 0.37887 0.50574 0.0
C252 C 0.23975 0.40454 0.55053 0.0
C253 C 0.19475 0.39894 0.46741 0.0
C254 C 0.20689 0.44541 0.47251 0.0
H255 H 0.20157 0.34312 0.50012 0.0
H256 H 0.17255 0.37796 0.4335 0.0
S257 S 0.28619 0.52868 0.57793 0.0
N258 N 0.28261 0.47941 0.59536 0.0
N259 N 0.25204 0.51737 0.52291 0.0
C260 C 0.23602 0.4716 0.51669 0.0
C261 C 0.25247 0.45108 0.55588 0.0
C262 C 0.78852 0.20542 0.83932 0.0
C263 C 0.78874 0.23423 0.88276 0.0
C264 C 0.75567 0.19052 0.79645 0.0
C265 C 0.72249 0.20453 0.79542 0.0
H266 H 0.81476 0.19546 0.8376 0.0
H267 H 0.757 0.16887 0.76309 0.0
S268 S 0.71023 0.28189 0.89783 0.0
N269 N 0.7537 0.27688 0.92203 0.0
N270 N 0.69222 0.24941 0.84044 0.0
C271 C 0.72174 0.23261 0.83916 0.0
C272 C 0.75496 0.24745 0.88318 0.0
C273 C 0.54464 0.7689 0.12389 0.0
C274 C 0.49854 0.73511 0.13264 0.0
C275 C 0.56685 0.80639 0.16074 0.0
C276 C 0.54383 0.81106 0.20773 0.0
H277 H 0.56355 0.76676 0.08781 0.0
H278 H 0.602 0.83226 0.15192 0.0
S279 S 0.42257 0.73339 0.24797 0.0
N280 N 0.43042 0.70931 0.19093 0.0
N281 N 0.4724 0.77976 0.26071 0.0
C282 C 0.49806 0.77717 0.21769 0.0
C283 C 0.47535 0.7391 0.17996 0.0
C284 C 0.75635 0.5996 0.49794 0.0
C285 C 0.74181 0.58141 0.55216 0.0
C286 C 0.77545 0.58083 0.46068 0.0
C287 C 0.78106 0.54351 0.47667 0.0
H288 H 0.7527 0.62838 0.48411 0.0
H289 H 0.78648 0.59618 0.4194 0.0
S290 S 0.74667 0.4823 0.61353 0.0
N291 N 0.73293 0.52312 0.6196 0.0
N292 N 0.76924 0.48829 0.54993 0.0
C293 C 0.7664 0.52491 0.53077 0.0
C294 C 0.74685 0.54388 0.56856 0.0
C295 C 0.19467 0.77892 0.79095 0.0
C296 C 0.23399 0.77408 0.79157 0.0
C297 C 0.16197 0.76047 0.83428 0.0
C298 C 0.16798 0.73709 0.87947 0.0
H299 H 0.18932 0.79725 0.75702 0.0
H300 H 0.1317 0.76427 0.83234 0.0
S301 S 0.26021 0.70741 0.89413 0.0
N302 N 0.27401 0.73917 0.83664 0.0
N303 N 0.21317 0.70553 0.91897 0.0
C304 C 0.20672 0.73132 0.87994 0.0
C305 C 0.23961 0.74955 0.83557 0.0
C306 C 0.56805 0.20039 0.9983 0.0
C307 C 0.5568 0.19606 0.94053 0.0
C308 C 0.53606 0.19528 0.03999 0.0
C309 C 0.49135 0.18536 0.02564 0.0
H310 H 0.60069 0.20443 0.01183 0.0
H311 H 0.54542 0.19542 0.08372 0.0
S312 S 0.44921 0.1841 0.88068 0.0
N313 N 0.50124 0.19131 0.87121 0.0
N314 N 0.44101 0.18155 0.94967 0.0
C315 C 0.48175 0.18705 0.96818 0.0
C316 C 0.51449 0.19241 0.92557 0.0
C317 C 0.32243 0.5225 0.28921 0.0
C318 C 0.35395 0.56641 0.31011 0.0
C319 C 0.30284 0.4841 0.3246 0.0
C320 C 0.31402 0.48797 0.38233 0.0
H321 H 0.31524 0.517 0.24442 0.0
H322 H 0.28125 0.45074 0.30556 0.0
S323 S 0.38553 0.59679 0.46075 0.0
N324 N 0.38835 0.61269 0.39442 0.0
N325 N 0.35203 0.54054 0.46064 0.0
C326 C 0.34118 0.53237 0.40498 0.0
C327 C 0.36096 0.57158 0.36895 0.0
C328 C 0.79722 0.28971 0.64031 0.0
C329 C 0.79802 0.30774 0.69448 0.0
C330 C 0.79189 0.31025 0.59175 0.0
C331 C 0.78688 0.3495 0.59539 0.0
H332 H 0.80437 0.26172 0.63482 0.0
H333 H 0.79526 0.29729 0.55099 0.0
S334 S 0.77445 0.40262 0.72797 0.0
N335 N 0.7842 0.36147 0.74939 0.0
N336 N 0.77396 0.39995 0.65836 0.0
C337 C 0.78153 0.36408 0.64959 0.0
C338 C 0.78715 0.34322 0.6991 0.0
C339 C 0.43958 0.80514 0.93748 0.0
C340 C 0.39447 0.79263 0.9539 0.0
C341 C 0.47296 0.81234 0.97772 0.0
C342 C 0.46239 0.80731 0.03575 0.0
H343 H 0.4504 0.81354 0.89395 0.0
H344 H 0.50805 0.82596 0.96338 0.0
S345 S 0.34615 0.76087 0.09844 0.0
N346 N 0.33861 0.76516 0.03039 0.0
N347 N 0.40136 0.77845 0.10611 0.0
C348 C 0.41605 0.78836 0.05175 0.0
C349 C 0.38206 0.78116 0.01076 0.0
C350 C 0.60875 0.39832 0.36013 0.0
C351 C 0.61039 0.41653 0.30623 0.0
C352 C 0.62812 0.42696 0.40721 0.0
C353 C 0.64982 0.47499 0.40234 0.0
H354 H 0.58968 0.3616 0.36694 0.0
H355 H 0.62296 0.41107 0.44824 0.0
S356 S 0.67328 0.54006 0.26859 0.0
N357 N 0.64284 0.48571 0.24916 0.0
N358 N 0.67946 0.53954 0.33761 0.0
C359 C 0.65651 0.49367 0.34772 0.0
C360 C 0.63672 0.46444 0.29965 0.0
C361 C 0.19343 0.60867 0.7499 0.0
C362 C 0.1815 0.64221 0.73608 0.0
C363 C 0.20538 0.58682 0.70785 0.0
C364 C 0.20594 0.59774 0.65044 0.0
H365 H 0.18965 0.59619 0.79273 0.0
H366 H 0.21027 0.55846 0.7202 0.0
S367 S 0.19303 0.69406 0.59492 0.0
N368 N 0.18215 0.69318 0.66313 0.0
N369 N 0.20505 0.65238 0.58399 0.0
C370 C 0.20105 0.63602 0.63726 0.0
C371 C 0.18862 0.65816 0.68016 0.0
C372 C 0.35256 0.93991 0.98625 0.0
C373 C 0.38156 0.95197 0.93872 0.0
C374 C 0.36107 0.97201 0.02988 0.0
C375 C 0.3988 0.0168 0.02688 0.0
H376 H 0.32502 0.90491 0.99132 0.0
H377 H 0.33976 0.96098 0.0674 0.0
S378 S 0.47877 0.06733 0.90604 0.0
N379 N 0.44513 0.01315 0.88773 0.0
N380 N 0.46087 0.07319 0.96899 0.0
C381 C 0.42558 0.02994 0.9775 0.0
C382 C 0.41704 -0.00246 0.93357 0.0
C383 C 0.36752 0.33383 0.27806 0.0
C384 C 0.40057 0.3196 0.27385 0.0
C385 C 0.34953 0.33687 0.33051 0.0
C386 C 0.3639 0.3259 0.38101 0.0
H387 H 0.3576 0.34569 0.24112 0.0
H388 H 0.32645 0.35083 0.33157 0.0
S389 S 0.44126 0.27631 0.39151 0.0
N390 N 0.4406 0.2865 0.32355 0.0
N391 N 0.40719 0.29264 0.42218 0.0
C392 C 0.39334 0.30718 0.37676 0.0
C393 C 0.41152 0.30387 0.3232 0.0
C394 C 0.06782 0.41588 0.6738 0.0
C395 C 0.04518 0.40914 0.62172 0.0
C396 C 0.04312 0.39744 0.72398 0.0
C397 C -0.0051 0.37096 0.72395 0.0
H398 H 0.10475 0.43744 0.67641 0.0
H399 H 0.06187 0.40524 0.76335 0.0
S400 S 0.91932 0.34061 0.59814 0.0
N401 N 0.97175 0.37188 0.57289 0.0
N402 N 0.9256 0.33728 0.66666 0.0
C403 C 0.97203 0.36199 0.67171 0.0
C404 C -0.0029 0.38105 0.62078 0.0
C405 C 0.52699 0.95836 0.97067 0.0
C406 C 0.55588 0.97583 0.0179 0.0
C407 C 0.53559 0.98421 0.92155 0.0
C408 C 0.57292 0.02919 0.91775 0.0
H409 H 0.49692 0.92448 0.97186 0.0
H410 H 0.51165 0.96909 0.88693 0.0
S411 S 0.66041 0.09 0.02904 0.0
N412 N 0.62484 0.0397 0.05721 0.0
N413 N 0.64059 0.08923 0.96509 0.0
C414 C 0.60316 0.04658 0.96407 0.0
C415 C 0.59474 0.01968 0.01407 0.0
C416 C 0.55488 0.61374 0.39942 0.0
C417 C 0.60143 0.63365 0.38371 0.0
C418 C 0.52178 0.61106 0.36145 0.0
C419 C 0.53393 0.62909 0.30673 0.0
H420 H 0.54328 0.59753 0.44017 0.0
H421 H 0.48607 0.59327 0.37444 0.0
S422 S 0.65147 0.69003 0.24686 0.0
N423 N 0.65839 0.67544 0.31101 0.0
N424 N 0.59592 0.67124 0.24017 0.0
C425 C 0.58058 0.65219 0.29175 0.0
C426 C 0.61439 0.65423 0.33012 0.0
C427 C 0.97313 0.59888 0.70543 0.0
C428 C -0.01408 0.57819 0.74791 0.0
C429 C 0.94399 0.57298 0.66105 0.0
C430 C 0.92646 0.52527 0.65717 0.0
H431 H -0.01344 0.63565 0.70553 0.0
H432 H 0.93602 0.59075 0.62888 0.0
S433 S 0.94587 0.45354 0.76023 0.0
N434 N 0.97612 0.50634 0.78507 0.0
N435 N 0.92155 0.45781 0.70198 0.0
C436 C 0.93764 0.50383 0.70043 0.0
C437 C 0.96725 0.5302 0.74566 0.0
C438 C 0.51468 0.05221 0.26278 0.0
C439 C 0.46789 0.03731 0.27183 0.0
C440 C 0.53133 0.02123 0.2642 0.0
C441 C 0.50147 0.97434 0.27373 0.0
H442 H 0.53804 0.08754 0.25142 0.0
H443 H 0.56699 0.03341 0.2535 0.0
S444 S 0.37726 0.91858 0.30565 0.0
N445 N 0.39287 0.97318 0.29623 0.0
N446 N 0.42431 0.9149 0.29713 0.0
C447 C 0.45539 0.95949 0.28653 0.0
C448 C 0.43852 -0.00892 0.28618 0.0
C449 C 0.46619 0.42738 0.59898 0.0
C450 C 0.43837 0.44656 0.61235 0.0
C451 C 0.51404 0.45401 0.60155 0.0
C452 C 0.53539 0.5005 0.6178 0.0
H453 H 0.45106 0.39286 0.58189 0.0
H454 H 0.53451 0.43914 0.5866 0.0
S455 S 0.47665 0.56433 0.66464 0.0
N456 N 0.43453 0.51268 0.6478 0.0
N457 N 0.52472 0.56284 0.65404 0.0
C458 C 0.50766 0.51863 0.63667 0.0
C459 C 0.4589 0.49158 0.63333 0.0
C460 C 0.94224 0.47395 0.93141 0.0
C461 C 0.95019 0.43776 0.94549 0.0
C462 C 0.97504 0.51961 0.9432 0.0
C463 C 0.01693 0.53019 0.96849 0.0
H464 H 0.91115 0.46699 0.90943 0.0
H465 H 0.96874 0.54682 0.92965 0.0
S466 S 0.05391 0.44854 0.01592 0.0
N467 N 0.00262 0.41589 0.9882 0.0
N468 N 0.0641 0.50183 0.00987 0.0
C469 C 0.02467 0.4945 0.98462 0.0
C470 C -0.00873 0.44813 0.97329 0.0
C471 C 0.03733 0.53586 0.41494 0.0
C472 C 0.04045 0.49555 0.41334 0.0
C473 C -0.00529 0.53401 0.41238 0.0
C474 C 0.95378 0.49167 0.40896 0.0
H475 H 0.06788 0.56889 0.42111 0.0
H476 H -0.00626 0.56568 0.41739 0.0
S477 S 0.94339 0.37664 0.39687 0.0
N478 N -0.00092 0.41229 0.40261 0.0
N479 N 0.91898 0.40907 0.39838 0.0
C480 C 0.95658 0.45141 0.40338 0.0
C481 C -5e-05 0.45326 0.40539 0.0
C482 C 0.44184 0.97948 0.68331 0.0
C483 C 0.44746 0.94266 0.70096 0.0
C484 C 0.47953 0.02402 0.6809 0.0
C485 C 0.52382 0.03254 0.69462 0.0
H486 H 0.4078 0.97471 0.67677 0.0
H487 H 0.47357 0.05233 0.67202 0.0
S488 S 0.55671 0.94603 0.73529 0.0
N489 N 0.50049 0.91635 0.72692 0.0
N490 N 0.57175 -0.00035 0.7201 0.0
C491 C 0.53032 -0.00491 0.70652 0.0
C492 C 0.49188 0.95012 0.71036 0.0
C493 C 0.52087 0.53941 0.07253 0.0
C494 C 0.47645 0.53385 0.07353 0.0
C495 C 0.52729 0.50117 0.07074 0.0
C496 C 0.48956 0.45653 0.06853 0.0
H497 H 0.55065 0.57312 0.07784 0.0
H498 H 0.56179 0.50641 0.07436 0.0
S499 S 0.36692 0.42413 0.06195 0.0
N500 N 0.39451 0.48075 0.0666 0.0
N501 N 0.40687 0.40883 0.06163 0.0
C502 C 0.44529 0.45067 0.06471 0.0
C503 C 0.43866 0.48948 0.06758 0.0
C504 C 0.31608 0.97917 0.54587 0.0
C505 C 0.32938 0.94586 0.5538 0.0
C506 C 0.33399 0.01034 0.5008 0.0
C507 C 0.36658 0.00977 0.46338 0.0
H508 H 0.29166 0.981 0.57445 0.0
H509 H 0.32305 0.03563 0.49603 0.0
S510 S 0.41452 0.93068 0.46886 0.0
N511 N 0.37797 0.91503 0.52204 0.0
N512 N 0.41187 0.97337 0.43843 0.0
C513 C 0.3803 0.9767 0.47156 0.0
C514 C 0.36168 0.94483 0.51656 0.0
C515 C 0.38435 0.28927 0.84369 0.0
C516 C 0.37537 0.30526 0.89466 0.0
C517 C 0.36324 0.29011 0.79329 0.0
C518 C 0.33259 0.30742 0.79165 0.0
H519 H 0.40963 0.27803 0.84208 0.0
H520 H 0.37341 0.27984 0.75477 0.0
S521 S 0.29174 0.34635 0.91548 0.0
N522 N 0.32932 0.33334 0.94196 0.0
N523 N 0.28957 0.33511 0.84722 0.0
C524 C 0.32005 0.31953 0.84332 0.0
C525 C 0.34153 0.31848 0.89483 0.0
C526 C 0.95189 0.38227 0.19155 0.0
C527 C 0.95929 0.35865 0.1472 0.0
C528 C 0.98329 0.40154 0.23564 0.0
C529 C 0.02352 0.39822 0.23682 0.0
H530 H 0.92272 0.38797 0.19063 0.0
H531 H 0.97695 0.42105 0.26768 0.0
S532 S 0.0568 0.33666 0.13245 0.0
N533 N 0.00765 0.33004 0.10844 0.0
N534 N 0.06734 0.36648 0.19179 0.0
C535 C 0.02982 0.37197 0.19465 0.0
C536 C -0.00251 0.35213 0.14956 0.0
C537 C 0.64734 0.00599 0.54705 0.0
C538 C 0.66909 0.05415 0.54474 0.0
C539 C 0.63742 0.9795 0.49766 0.0
C540 C 0.64914 0.00012 0.44405 0.0
H541 H 0.63511 0.98834 0.5869 0.0
H542 H 0.6182 0.94249 0.50154 0.0
S543 S 0.71471 0.12544 0.41623 0.0
N544 N 0.70793 0.12167 0.48543 0.0
N545 N 0.68977 0.07206 0.39256 0.0
C546 C 0.67479 0.0484 0.44165 0.0
C547 C 0.68457 0.07536 0.49199 0.0
C548 C 0.59651 0.68392 0.85912 0.0
C549 C 0.60429 0.66752 0.9101 0.0
C550 C 0.61474 0.67887 0.80798 0.0
C551 C 0.6414 0.65707 0.80565 0.0
H552 H 0.57418 0.69874 0.85809 0.0
H553 H 0.60555 0.68981 0.76966 0.0
S554 S 0.67839 0.61498 0.92849 0.0
N555 N 0.64538 0.63386 0.95608 0.0
N556 N 0.67986 0.62449 0.86006 0.0
C557 C 0.65286 0.64418 0.857 0.0
C558 C 0.63427 0.64939 0.9092 0.0
C559 C 0.03466 0.67124 0.19615 0.0
C560 C 0.01117 0.66892 0.14595 0.0
C561 C 0.01093 0.65345 0.24687 0.0
C562 C 0.96282 0.63271 0.24942 0.0
H563 H 0.07135 0.68413 0.19573 0.0
H564 H 0.0303 0.65348 0.28334 0.0
S565 S 0.88624 0.62694 0.13314 0.0
N566 N 0.93787 0.65087 0.10434 0.0
N567 N 0.8933 0.61748 0.19964 0.0
C568 C 0.93942 0.63415 0.20097 0.0
C569 C 0.9636 0.65232 0.14929 0.0
C570 C 0.55772 0.18171 0.43258 0.0
C571 C 0.51777 0.17944 0.45541 0.0
C572 C 0.59423 0.18821 0.46727 0.0
C573 C 0.59207 0.19216 0.52632 0.0
H574 H 0.56013 0.17655 0.38774 0.0
H575 H 0.62317 0.18744 0.44773 0.0
S576 S 0.49805 0.19504 0.60662 0.0
N577 N 0.48055 0.1869 0.5404 0.0
N578 N 0.54894 0.1985 0.60545 0.0
C579 C 0.55377 0.19317 0.54932 0.0
C580 C 0.51671 0.187 0.51392 0.0
C581 C 0.3609 0.55279 0.78356 0.0
C582 C 0.3588 0.50987 0.78564 0.0
C583 C 0.38253 0.58557 0.82655 0.0
C584 C 0.40141 0.57596 0.87399 0.0
H585 H 0.34668 0.56148 0.74782 0.0
H586 H 0.38469 0.61877 0.82249 0.0
S587 S 0.40256 0.46744 0.90076 0.0
N588 N 0.37631 0.45893 0.83942 0.0
N589 N 0.4156 0.51977 0.92093 0.0
C590 C 0.39827 0.53256 0.87728 0.0
C591 C 0.37736 0.49973 0.83287 0.0
C592 C 0.81687 0.40459 0.1176 0.0
C593 C 0.81491 0.36387 0.13609 0.0
C594 C 0.81625 0.43634 0.15609 0.0
C595 C 0.8142 0.42902 0.21482 0.0
H596 H 0.82035 0.41279 0.07306 0.0
H597 H 0.81943 0.46783 0.13954 0.0
S598 S 0.80475 0.32615 0.2853 0.0
N599 N 0.80757 0.31651 0.21734 0.0
N600 N 0.80696 0.37639 0.28937 0.0
C601 C 0.81009 0.38748 0.23382 0.0
C602 C 0.81028 0.35489 0.19459 0.0
C603 C 0.3999 0.82061 0.4172 0.0
C604 C 0.43459 0.81137 0.43458 0.0
C605 C 0.36169 0.80974 0.45151 0.0
C606 C 0.3571 0.78997 0.50508 0.0
H607 H 0.40318 0.83821 0.37783 0.0
H608 H 0.33742 0.82006 0.43749 0.0
S609 S 0.43406 0.75151 0.56613 0.0
N610 N 0.45847 0.77523 0.50548 0.0
N611 N 0.3871 0.7558 0.57045 0.0
C612 C 0.38952 0.7771 0.52093 0.0
C613 C 0.42815 0.78755 0.48557 0.0
C614 C 0.60355 0.42679 0.76911 0.0
C615 C 0.64226 0.46653 0.78956 0.0
C616 C 0.57795 0.38901 0.80414 0.0
C617 C 0.58971 0.38972 0.86125 0.0
H618 H 0.59154 0.42562 0.72643 0.0
H619 H 0.54693 0.36047 0.78718 0.0
S620 S 0.69234 0.48205 0.93299 0.0
N621 N 0.69464 0.50162 0.86862 0.0
N622 N 0.64607 0.4308 0.93453 0.0
C623 C 0.63047 0.42756 0.8809 0.0
C624 C 0.65687 0.46591 0.84505 0.0
C625 C 0.17165 0.55661 0.16113 0.0
C626 C 0.179 0.56465 0.21957 0.0
C627 C 0.1681 0.58813 0.12598 0.0
C628 C 0.17212 0.62921 0.1477 0.0
H629 H 0.16596 0.52453 0.14265 0.0
H630 H 0.16004 0.5791 0.08187 0.0
S631 S 0.19936 0.67004 0.29629 0.0
N632 N 0.19577 0.6191 0.29648 0.0
N633 N 0.18966 0.67871 0.23049 0.0
C634 C 0.18321 0.63937 0.20529 0.0
C635 C 0.18644 0.60699 0.2412 0.0
loop_
_geom_bond_atom_site_label_1
_geom_bond_atom_site_label_2
_geom_bond_distance
_geom_bond_site_symmetry_2
_ccdc_geom_bond_type
Zn0 O6 1.969 . S
Zn0 O7 1.965 . S
Zn0 O11 2.024 . S
Zn0 O16 1.969 . S
Zn1 O8 1.969 . S
Zn1 O14 1.969 . S
Zn1 O15 1.965 . S
Zn1 O17 2.024 . S
C2 O3 1.229 . S
C2 O11 1.058 . S
O3 C2 1.229 . S
C4 O5 1.229 . S
C4 O17 1.058 . S
O5 C4 1.229 . S
O6 Zn0 1.969 . S
O6 C9 1.267 . S
O7 Zn0 1.965 . S
O7 C18 1.260 . S
O8 Zn1 1.969 . S
O8 C18 1.258 . S
C9 O6 1.267 . S
C9 O10 1.228 . S
O10 C9 1.228 . S
O11 Zn0 2.024 . S
O11 C2 1.058 . S
C12 O13 1.228 . S
C12 O14 1.267 . S
O13 C12 1.228 . S
O14 Zn1 1.969 . S
O14 C12 1.267 . S
O15 Zn1 1.965 . S
O15 C19 1.260 . S
O16 Zn0 1.969 . S
O16 C19 1.258 . S
O17 Zn1 2.024 . S
O17 C4 1.058 . S
C18 O7 1.260 . S
C18 O8 1.258 . S
C19 O15 1.260 . S
C19 O16 1.258 . S
Zn20 O26 1.969 . S
Zn20 O27 1.965 . S
Zn20 O31 2.024 . S
Zn20 O36 1.969 . S
Zn21 O28 1.969 . S
Zn21 O34 1.969 . S
Zn21 O35 1.965 . S
Zn21 O37 2.024 . S
C22 O23 1.229 . S
C22 O31 1.058 . S
O23 C22 1.229 . S
C24 O25 1.229 . S
C24 O37 1.058 . S
O25 C24 1.229 . S
O26 Zn20 1.969 . S
O26 C29 1.267 . S
O27 Zn20 1.965 . S
O27 C38 1.260 . S
O28 Zn21 1.969 . S
O28 C38 1.258 . S
C29 O26 1.267 . S
C29 O30 1.228 . S
O30 C29 1.228 . S
O31 Zn20 2.024 . S
O31 C22 1.058 . S
C32 O33 1.228 . S
C32 O34 1.267 . S
O33 C32 1.228 . S
O34 Zn21 1.969 . S
O34 C32 1.267 . S
O35 Zn21 1.965 . S
O35 C39 1.260 . S
O36 Zn20 1.969 . S
O36 C39 1.258 . S
O37 Zn21 2.024 . S
O37 C24 1.058 . S
C38 O27 1.260 . S
C38 O28 1.258 . S
C39 O35 1.260 . S
C39 O36 1.258 . S
Zn40 O46 1.969 . S
Zn40 O47 1.965 . S
Zn40 O51 2.024 . S
Zn40 O56 1.969 . S
Zn41 O48 1.960 1_554 S
Zn41 O54 1.977 . S
Zn41 O55 1.953 1_554 S
Zn41 O57 2.030 . S
C42 O43 1.229 . S
C42 O51 1.058 . S
O43 C42 1.229 . S
C44 O45 1.229 . S
C44 O57 1.058 . S
O45 C44 1.229 . S
O46 Zn40 1.969 . S
O46 C49 1.267 . S
O47 Zn40 1.965 . S
O47 C58 1.260 . S
O48 Zn41 1.960 1_556 S
O48 C58 1.258 . S
C49 O46 1.267 . S
C49 O50 1.228 . S
O50 C49 1.228 . S
O51 Zn40 2.024 . S
O51 C42 1.058 . S
C52 O53 1.228 . S
C52 O54 1.267 . S
O53 C52 1.228 . S
O54 Zn41 1.977 . S
O54 C52 1.267 . S
O55 Zn41 1.953 1_556 S
O55 C59 1.260 . S
O56 Zn40 1.969 . S
O56 C59 1.258 . S
O57 Zn41 2.030 . S
O57 C44 1.058 . S
C58 O47 1.260 . S
C58 O48 1.258 . S
C59 O55 1.260 . S
C59 O56 1.258 . S
Zn60 O66 1.969 . S
Zn60 O67 1.965 . S
Zn60 O71 2.024 . S
Zn60 O76 1.969 . S
Zn61 O68 1.969 . S
Zn61 O74 1.969 . S
Zn61 O75 1.965 . S
Zn61 O77 2.024 . S
C62 O63 1.229 . S
C62 O71 1.058 . S
O63 C62 1.229 . S
C64 O65 1.229 . S
C64 O77 1.058 . S
O65 C64 1.229 . S
O66 Zn60 1.969 . S
O66 C69 1.267 . S
O67 Zn60 1.965 . S
O67 C78 1.260 . S
O68 Zn61 1.969 . S
O68 C78 1.258 . S
C69 O66 1.267 . S
C69 O70 1.228 . S
O70 C69 1.228 . S
O71 Zn60 2.024 . S
O71 C62 1.058 . S
C72 O73 1.228 . S
C72 O74 1.267 . S
O73 C72 1.228 . S
O74 Zn61 1.969 . S
O74 C72 1.267 . S
O75 Zn61 1.965 . S
O75 C79 1.260 . S
O76 Zn60 1.969 . S
O76 C79 1.258 . S
O77 Zn61 2.024 . S
O77 C64 1.058 . S
C78 O67 1.260 . S
C78 O68 1.258 . S
C79 O75 1.260 . S
C79 O76 1.258 . S
Zn80 O86 1.969 . S
Zn80 O87 1.965 . S
Zn80 O91 2.024 . S
Zn80 O96 1.969 . S
Zn81 O88 1.969 . S
Zn81 O94 1.969 . S
Zn81 O95 1.965 . S
Zn81 O97 2.024 . S
C82 O83 1.229 . S
C82 O91 1.058 . S
O83 C82 1.229 . S
C84 O85 1.229 . S
C84 O97 1.058 . S
O85 C84 1.229 . S
O86 Zn80 1.969 . S
O86 C89 1.267 . S
O87 Zn80 1.965 . S
O87 C98 1.260 . S
O88 Zn81 1.969 . S
O88 C98 1.258 . S
C89 O86 1.267 . S
C89 O90 1.228 . S
O90 C89 1.228 . S
O91 Zn80 2.024 . S
O91 C82 1.058 . S
C92 O93 1.228 . S
C92 O94 1.267 . S
O93 C92 1.228 . S
O94 Zn81 1.969 . S
O94 C92 1.267 . S
O95 Zn81 1.965 . S
O95 C99 1.260 . S
O96 Zn80 1.969 . S
O96 C99 1.258 . S
O97 Zn81 2.024 . S
O97 C84 1.058 . S
C98 O87 1.260 . S
C98 O88 1.258 . S
C99 O95 1.260 . S
C99 O96 1.258 . S
Zn100 O106 1.969 . S
Zn100 O107 1.965 . S
Zn100 O111 2.024 . S
Zn100 O116 1.969 . S
Zn101 O108 1.960 1_554 S
Zn101 O114 1.977 . S
Zn101 O115 1.953 1_554 S
Zn101 O117 2.030 . S
C102 O103 1.229 . S
C102 O111 1.058 . S
O103 C102 1.229 . S
C104 O105 1.229 . S
C104 O117 1.058 . S
O105 C104 1.229 . S
O106 Zn100 1.969 . S
O106 C109 1.267 . S
O107 Zn100 1.965 . S
O107 C118 1.260 . S
O108 Zn101 1.960 1_556 S
O108 C118 1.258 . S
C109 O106 1.267 . S
C109 O110 1.228 . S
O110 C109 1.228 . S
O111 Zn100 2.024 . S
O111 C102 1.058 . S
C112 O113 1.228 . S
C112 O114 1.267 . S
O113 C112 1.228 . S
O114 Zn101 1.977 . S
O114 C112 1.267 . S
O115 Zn101 1.953 1_556 S
O115 C119 1.260 . S
O116 Zn100 1.969 . S
O116 C119 1.258 . S
O117 Zn101 2.030 . S
O117 C104 1.058 . S
C118 O107 1.260 . S
C118 O108 1.258 . S
C119 O115 1.260 . S
C119 O116 1.258 . S
Zn120 O126 1.969 . S
Zn120 O127 1.965 . S
Zn120 O131 2.024 . S
Zn120 O136 1.969 . S
Zn121 O128 1.969 . S
Zn121 O134 1.969 . S
Zn121 O135 1.965 . S
Zn121 O137 2.024 . S
C122 O123 1.229 . S
C122 O131 1.058 . S
O123 C122 1.229 . S
C124 O125 1.229 . S
C124 O137 1.058 . S
O125 C124 1.229 . S
O126 Zn120 1.969 . S
O126 C129 1.267 . S
O127 Zn120 1.965 . S
O127 C138 1.260 . S
O128 Zn121 1.969 . S
O128 C138 1.258 . S
C129 O126 1.267 . S
C129 O130 1.228 . S
O130 C129 1.228 . S
O131 Zn120 2.024 . S
O131 C122 1.058 . S
C132 O133 1.228 . S
C132 O134 1.267 . S
O133 C132 1.228 . S
O134 Zn121 1.969 . S
O134 C132 1.267 . S
O135 Zn121 1.965 . S
O135 C139 1.260 . S
O136 Zn120 1.969 . S
O136 C139 1.258 . S
O137 Zn121 2.024 . S
O137 C124 1.058 . S
C138 O127 1.260 . S
C138 O128 1.258 . S
C139 O135 1.260 . S
C139 O136 1.258 . S
Zn140 O146 1.969 . S
Zn140 O147 1.965 . S
Zn140 O151 2.024 . S
Zn140 O156 1.969 . S
Zn141 O148 1.969 . S
Zn141 O154 1.969 . S
Zn141 O155 1.965 . S
Zn141 O157 2.024 . S
C142 O143 1.229 . S
C142 O151 1.058 . S
O143 C142 1.229 . S
C144 O145 1.229 . S
C144 O157 1.058 . S
O145 C144 1.229 . S
O146 Zn140 1.969 . S
O146 C149 1.267 . S
O147 Zn140 1.965 . S
O147 C158 1.260 . S
O148 Zn141 1.969 . S
O148 C158 1.258 . S
C149 O146 1.267 . S
C149 O150 1.228 . S
O150 C149 1.228 . S
O151 Zn140 2.024 . S
O151 C142 1.058 . S
C152 O153 1.228 . S
C152 O154 1.267 . S
O153 C152 1.228 . S
O154 Zn141 1.969 . S
O154 C152 1.267 . S
O155 Zn141 1.965 . S
O155 C159 1.260 . S
O156 Zn140 1.969 . S
O156 C159 1.258 . S
O157 Zn141 2.024 . S
O157 C144 1.058 . S
C158 O147 1.260 . S
C158 O148 1.258 . S
C159 O155 1.260 . S
C159 O156 1.258 . S
Zn160 O166 1.969 . S
Zn160 O167 1.965 . S
Zn160 O171 2.024 . S
Zn160 O176 1.969 . S
Zn161 O168 1.960 1_556 S
Zn161 O174 1.977 . S
Zn161 O175 1.952 1_556 S
Zn161 O177 2.030 . S
C162 O163 1.229 . S
C162 O171 1.058 . S
O163 C162 1.229 . S
C164 O165 1.229 . S
C164 O177 1.058 . S
O165 C164 1.229 . S
O166 Zn160 1.969 . S
O166 C169 1.267 . S
O167 Zn160 1.965 . S
O167 C178 1.260 . S
O168 Zn161 1.960 1_554 S
O168 C178 1.258 . S
C169 O166 1.267 . S
C169 O170 1.228 . S
O170 C169 1.228 . S
O171 Zn160 2.024 . S
O171 C162 1.058 . S
C172 O173 1.228 . S
C172 O174 1.267 . S
O173 C172 1.228 . S
O174 Zn161 1.977 . S
O174 C172 1.267 . S
O175 Zn161 1.952 1_554 S
O175 C179 1.260 . S
O176 Zn160 1.969 . S
O176 C179 1.258 . S
O177 Zn161 2.030 . S
O177 C164 1.058 . S
C178 O167 1.260 . S
C178 O168 1.258 . S
C179 O175 1.260 . S
C179 O176 1.258 . S
Zn180 O186 1.969 . S
Zn180 O187 1.965 . S
Zn180 O191 2.024 . S
Zn180 O196 1.969 . S
Zn181 O188 1.969 . S
Zn181 O194 1.969 . S
Zn181 O195 1.965 . S
Zn181 O197 2.024 . S
C182 O183 1.229 . S
C182 O191 1.058 . S
O183 C182 1.229 . S
C184 O185 1.229 . S
C184 O197 1.058 . S
O185 C184 1.229 . S
O186 Zn180 1.969 . S
O186 C189 1.267 . S
O187 Zn180 1.965 . S
O187 C198 1.260 . S
O188 Zn181 1.969 . S
O188 C198 1.258 . S
C189 O186 1.267 . S
C189 O190 1.228 . S
O190 C189 1.228 . S
O191 Zn180 2.024 . S
O191 C182 1.058 . S
C192 O193 1.228 . S
C192 O194 1.267 . S
O193 C192 1.228 . S
O194 Zn181 1.969 . S
O194 C192 1.267 . S
O195 Zn181 1.965 . S
O195 C199 1.260 . S
O196 Zn180 1.969 . S
O196 C199 1.258 . S
O197 Zn181 2.024 . S
O197 C184 1.058 . S
C198 O187 1.260 . S
C198 O188 1.258 . S
C199 O195 1.260 . S
C199 O196 1.258 . S
Zn200 O206 1.969 . S
Zn200 O207 1.965 . S
Zn200 O211 2.024 . S
Zn200 O216 1.969 . S
Zn201 O208 1.969 . S
Zn201 O214 1.969 . S
Zn201 O215 1.965 . S
Zn201 O217 2.024 . S
C202 O203 1.229 . S
C202 O211 1.058 . S
O203 C202 1.229 . S
C204 O205 1.229 . S
C204 O217 1.058 . S
O205 C204 1.229 . S
O206 Zn200 1.969 . S
O206 C209 1.267 . S
O207 Zn200 1.965 . S
O207 C218 1.260 . S
O208 Zn201 1.969 . S
O208 C218 1.258 . S
C209 O206 1.267 . S
C209 O210 1.228 . S
O210 C209 1.228 . S
O211 Zn200 2.024 . S
O211 C202 1.058 . S
C212 O213 1.228 . S
C212 O214 1.267 . S
O213 C212 1.228 . S
O214 Zn201 1.969 . S
O214 C212 1.267 . S
O215 Zn201 1.965 . S
O215 C219 1.260 . S
O216 Zn200 1.969 . S
O216 C219 1.258 . S
O217 Zn201 2.024 . S
O217 C204 1.058 . S
C218 O207 1.260 . S
C218 O208 1.258 . S
C219 O215 1.260 . S
C219 O216 1.258 . S
Zn220 O226 1.969 . S
Zn220 O227 1.965 . S
Zn220 O231 2.024 . S
Zn220 O236 1.969 . S
Zn221 O228 1.960 1_556 S
Zn221 O234 1.977 . S
Zn221 O235 1.952 1_556 S
Zn221 O237 2.030 . S
C222 O223 1.229 . S
C222 O231 1.058 . S
O223 C222 1.229 . S
C224 O225 1.229 . S
C224 O237 1.058 . S
O225 C224 1.229 . S
O226 Zn220 1.969 . S
O226 C229 1.267 . S
O227 Zn220 1.965 . S
O227 C238 1.260 . S
O228 Zn221 1.960 1_554 S
O228 C238 1.258 . S
C229 O226 1.267 . S
C229 O230 1.228 . S
O230 C229 1.228 . S
O231 Zn220 2.024 . S
O231 C222 1.058 . S
C232 O233 1.228 . S
C232 O234 1.267 . S
O233 C232 1.228 . S
O234 Zn221 1.977 . S
O234 C232 1.267 . S
O235 Zn221 1.952 1_554 S
O235 C239 1.260 . S
O236 Zn220 1.969 . S
O236 C239 1.258 . S
O237 Zn221 2.030 . S
O237 C224 1.058 . S
C238 O227 1.260 . S
C238 O228 1.258 . S
C239 O235 1.260 . S
C239 O236 1.258 . S
C240 C241 1.369 . S
C240 C242 1.419 . S
C240 H244 0.930 . S
C241 C240 1.369 . S
C241 C250 1.429 . S
C242 C240 1.419 . S
C242 C243 1.363 . S
C242 H245 0.929 . S
C243 C242 1.363 . S
C243 C249 1.428 . S
H244 C240 0.930 . S
H245 C242 0.929 . S
S246 N247 1.613 . S
S246 N248 1.610 . S
N247 S246 1.613 . S
N247 C250 1.350 . S
N248 S246 1.610 . S
N248 C249 1.351 . S
C249 C243 1.428 . S
C249 N248 1.351 . S
C249 C250 1.434 . S
C250 C241 1.429 . S
C250 N247 1.350 . S
C250 C249 1.434 . S
C251 C252 1.369 . S
C251 C253 1.419 . S
C251 H255 0.930 . S
C252 C251 1.369 . S
C252 C261 1.429 . S
C253 C251 1.419 . S
C253 C254 1.363 . S
C253 H256 0.929 . S
C254 C253 1.363 . S
C254 C260 1.428 . S
H255 C251 0.930 . S
H256 C253 0.929 . S
S257 N258 1.613 . S
S257 N259 1.610 . S
N258 S257 1.613 . S
N258 C261 1.350 . S
N259 S257 1.610 . S
N259 C260 1.351 . S
C260 C254 1.428 . S
C260 N259 1.351 . S
C260 C261 1.434 . S
C261 C252 1.429 . S
C261 N258 1.350 . S
C261 C260 1.434 . S
C262 C263 1.369 . S
C262 C264 1.419 . S
C262 H266 0.930 . S
C263 C262 1.369 . S
C263 C272 1.429 . S
C264 C262 1.419 . S
C264 C265 1.363 . S
C264 H267 0.929 . S
C265 C264 1.363 . S
C265 C271 1.428 . S
H266 C262 0.930 . S
H267 C264 0.929 . S
S268 N269 1.613 . S
S268 N270 1.610 . S
N269 S268 1.613 . S
N269 C272 1.350 . S
N270 S268 1.610 . S
N270 C271 1.351 . S
C271 C265 1.428 . S
C271 N270 1.351 . S
C271 C272 1.434 . S
C272 C263 1.429 . S
C272 N269 1.350 . S
C272 C271 1.434 . S
C273 C274 1.369 . S
C273 C275 1.419 . S
C273 H277 0.930 . S
C274 C273 1.369 . S
C274 C283 1.429 . S
C275 C273 1.419 . S
C275 C276 1.363 . S
C275 H278 0.929 . S
C276 C275 1.363 . S
C276 C282 1.428 . S
H277 C273 0.930 . S
H278 C275 0.929 . S
S279 N280 1.613 . S
S279 N281 1.610 . S
N280 S279 1.613 . S
N280 C283 1.350 . S
N281 S279 1.610 . S
N281 C282 1.351 . S
C282 C276 1.428 . S
C282 N281 1.351 . S
C282 C283 1.434 . S
C283 C274 1.429 . S
C283 N280 1.350 . S
C283 C282 1.434 . S
C284 C285 1.369 . S
C284 C286 1.419 . S
C284 H288 0.930 . S
C285 C284 1.369 . S
C285 C294 1.429 . S
C286 C284 1.419 . S
C286 C287 1.363 . S
C286 H289 0.929 . S
C287 C286 1.363 . S
C287 C293 1.428 . S
H288 C284 0.930 . S
H289 C286 0.929 . S
S290 N291 1.613 . S
S290 N292 1.610 . S
N291 S290 1.613 . S
N291 C294 1.350 . S
N292 S290 1.610 . S
N292 C293 1.351 . S
C293 C287 1.428 . S
C293 N292 1.351 . S
C293 C294 1.434 . S
C294 C285 1.429 . S
C294 N291 1.350 . S
C294 C293 1.434 . S
C295 C296 1.369 . S
C295 C297 1.419 . S
C295 H299 0.930 . S
C296 C295 1.369 . S
C296 C305 1.429 . S
C297 C295 1.419 . S
C297 C298 1.363 . S
C297 H300 0.929 . S
C298 C297 1.363 . S
C298 C304 1.428 . S
H299 C295 0.930 . S
H300 C297 0.929 . S
S301 N302 1.613 . S
S301 N303 1.610 . S
N302 S301 1.613 . S
N302 C305 1.350 . S
N303 S301 1.610 . S
N303 C304 1.351 . S
C304 C298 1.428 . S
C304 N303 1.351 . S
C304 C305 1.434 . S
C305 C296 1.429 . S
C305 N302 1.350 . S
C305 C304 1.434 . S
C306 C307 1.369 . S
C306 C308 1.419 1_556 S
C306 H310 0.930 . S
C307 C306 1.369 . S
C307 C316 1.429 . S
C308 C306 1.419 1_554 S
C308 C309 1.363 . S
C308 H311 0.929 . S
C309 C308 1.363 . S
C309 C315 1.428 . S
H310 C306 0.930 . S
H311 C308 0.929 . S
S312 N313 1.613 . S
S312 N314 1.610 1_556 S
N313 S312 1.613 . S
N313 C316 1.350 . S
N314 S312 1.610 1_554 S
N314 C315 1.351 . S
C315 C309 1.428 . S
C315 N314 1.351 . S
C315 C316 1.434 1_554 S
C316 C307 1.429 . S
C316 N313 1.350 . S
C316 C315 1.434 1_556 S
C317 C318 1.369 . S
C317 C319 1.419 . S
C317 H321 0.930 . S
C318 C317 1.369 . S
C318 C327 1.429 . S
C319 C317 1.419 . S
C319 C320 1.363 . S
C319 H322 0.929 . S
C320 C319 1.363 . S
C320 C326 1.428 . S
H321 C317 0.930 . S
H322 C319 0.929 . S
S323 N324 1.613 . S
S323 N325 1.610 . S
N324 S323 1.613 . S
N324 C327 1.350 . S
N325 S323 1.610 . S
N325 C326 1.351 . S
C326 C320 1.428 . S
C326 N325 1.351 . S
C326 C327 1.434 . S
C327 C318 1.429 . S
C327 N324 1.350 . S
C327 C326 1.434 . S
C328 C329 1.369 . S
C328 C330 1.419 . S
C328 H332 0.930 . S
C329 C328 1.369 . S
C329 C338 1.429 . S
C330 C328 1.419 . S
C330 C331 1.363 . S
C330 H333 0.929 . S
C331 C330 1.363 . S
C331 C337 1.428 . S
H332 C328 0.930 . S
H333 C330 0.929 . S
S334 N335 1.613 . S
S334 N336 1.610 . S
N335 S334 1.613 . S
N335 C338 1.350 . S
N336 S334 1.610 . S
N336 C337 1.351 . S
C337 C331 1.428 . S
C337 N336 1.351 . S
C337 C338 1.434 . S
C338 C329 1.429 . S
C338 N335 1.350 . S
C338 C337 1.434 . S
C339 C340 1.369 . S
C339 C341 1.419 1_556 S
C339 H343 0.930 . S
C340 C339 1.369 . S
C340 C349 1.429 . S
C341 C339 1.419 1_554 S
C341 C342 1.363 . S
C341 H344 0.929 . S
C342 C341 1.363 . S
C342 C348 1.428 . S
H343 C339 0.930 . S
H344 C341 0.929 . S
S345 N346 1.613 1_554 S
S345 N347 1.610 . S
N346 S345 1.613 1_556 S
N346 C349 1.350 . S
N347 S345 1.610 . S
N347 C348 1.351 . S
C348 C342 1.428 . S
C348 N347 1.351 . S
C348 C349 1.434 1_554 S
C349 C340 1.429 . S
C349 N346 1.350 . S
C349 C348 1.434 1_556 S
C350 C351 1.369 . S
C350 C352 1.419 . S
C350 H354 0.930 . S
C351 C350 1.369 . S
C351 C360 1.429 . S
C352 C350 1.419 . S
C352 C353 1.363 . S
C352 H355 0.929 . S
C353 C352 1.363 . S
C353 C359 1.428 . S
H354 C350 0.930 . S
H355 C352 0.929 . S
S356 N357 1.613 . S
S356 N358 1.610 . S
N357 S356 1.613 . S
N357 C360 1.350 . S
N358 S356 1.610 . S
N358 C359 1.351 . S
C359 C353 1.428 . S
C359 N358 1.351 . S
C359 C360 1.434 . S
C360 C351 1.429 . S
C360 N357 1.350 . S
C360 C359 1.434 . S
C361 C362 1.369 . S
C361 C363 1.419 . S
C361 H365 0.930 . S
C362 C361 1.369 . S
C362 C371 1.429 . S
C363 C361 1.419 . S
C363 C364 1.363 . S
C363 H366 0.929 . S
C364 C363 1.363 . S
C364 C370 1.428 . S
H365 C361 0.930 . S
H366 C363 0.929 . S
S367 N368 1.613 . S
S367 N369 1.610 . S
N368 S367 1.613 . S
N368 C371 1.350 . S
N369 S367 1.610 . S
N369 C370 1.351 . S
C370 C364 1.428 . S
C370 N369 1.351 . S
C370 C371 1.434 . S
C371 C362 1.429 . S
C371 N368 1.350 . S
C371 C370 1.434 . S
C372 C373 1.369 1_554 S
C372 C374 1.419 . S
C372 H376 0.930 . S
C373 C372 1.369 1_556 S
C373 C382 1.429 1_565 S
C374 C372 1.419 . S
C374 C375 1.363 1_565 S
C374 H377 0.929 . S
C375 C374 1.363 1_545 S
C375 C381 1.428 1_554 S
H376 C372 0.930 . S
H377 C374 0.929 . S
S378 N379 1.613 . S
S378 N380 1.610 . S
N379 S378 1.613 . S
N379 C382 1.350 . S
N380 S378 1.610 . S
N380 C381 1.351 . S
C381 C375 1.428 1_556 S
C381 N380 1.351 . S
C381 C382 1.434 . S
C382 C373 1.429 1_545 S
C382 N379 1.350 . S
C382 C381 1.434 . S
C383 C384 1.369 . S
C383 C385 1.419 . S
C383 H387 0.930 . S
C384 C383 1.369 . S
C384 C393 1.429 . S
C385 C383 1.419 . S
C385 C386 1.363 . S
C385 H388 0.929 . S
C386 C385 1.363 . S
C386 C392 1.428 . S
H387 C383 0.930 . S
H388 C385 0.929 . S
S389 N390 1.613 . S
S389 N391 1.610 . S
N390 S389 1.613 . S
N390 C393 1.350 . S
N391 S389 1.610 . S
N391 C392 1.351 . S
C392 C386 1.428 . S
C392 N391 1.351 . S
C392 C393 1.434 . S
C393 C384 1.429 . S
C393 N390 1.350 . S
C393 C392 1.434 . S
C394 C395 1.369 . S
C394 C396 1.419 . S
C394 H398 0.930 . S
C395 C394 1.369 . S
C395 C404 1.429 1_455 S
C396 C394 1.419 . S
C396 C397 1.363 1_455 S
C396 H399 0.929 . S
C397 C396 1.363 1_655 S
C397 C403 1.428 . S
H398 C394 0.930 . S
H399 C396 0.929 . S
S400 N401 1.613 . S
S400 N402 1.610 . S
N401 S400 1.613 . S
N401 C404 1.350 . S
N402 S400 1.610 . S
N402 C403 1.351 . S
C403 C397 1.428 . S
C403 N402 1.351 . S
C403 C404 1.434 . S
C404 C395 1.429 1_655 S
C404 N401 1.350 . S
C404 C403 1.434 . S
C405 C406 1.369 . S
C405 C407 1.419 1_554 S
C405 H409 0.930 . S
C406 C405 1.369 . S
C406 C415 1.429 1_565 S
C407 C405 1.419 1_556 S
C407 C408 1.363 1_565 S
C407 H410 0.929 . S
C408 C407 1.363 1_545 S
C408 C414 1.428 . S
H409 C405 0.930 . S
H410 C407 0.929 . S
S411 N412 1.613 . S
S411 N413 1.609 1_554 S
N412 S411 1.613 . S
N412 C415 1.350 . S
N413 S411 1.609 1_556 S
N413 C414 1.351 . S
C414 C408 1.428 . S
C414 N413 1.351 . S
C414 C415 1.434 1_556 S
C415 C406 1.429 1_545 S
C415 N412 1.350 . S
C415 C414 1.434 1_554 S
C416 C417 1.369 . S
C416 C418 1.419 . S
C416 H420 0.930 . S
C417 C416 1.369 . S
C417 C426 1.429 . S
C418 C416 1.419 . S
C418 C419 1.363 . S
C418 H421 0.929 . S
C419 C418 1.363 . S
C419 C425 1.428 . S
H420 C416 0.930 . S
H421 C418 0.929 . S
S422 N423 1.613 . S
S422 N424 1.610 . S
N423 S422 1.613 . S
N423 C426 1.350 . S
N424 S422 1.610 . S
N424 C425 1.351 . S
C425 C419 1.428 . S
C425 N424 1.351 . S
C425 C426 1.434 . S
C426 C417 1.429 . S
C426 N423 1.350 . S
C426 C425 1.434 . S
C427 C428 1.369 . S
C427 C429 1.419 1_455 S
C427 H431 0.930 . S
C428 C427 1.369 . S
C428 C437 1.429 . S
C429 C427 1.419 1_655 S
C429 C430 1.363 . S
C429 H432 0.929 . S
C430 C429 1.363 . S
C430 C436 1.428 . S
H431 C427 0.930 . S
H432 C429 0.929 . S
S433 N434 1.613 1_655 S
S433 N435 1.610 . S
N434 S433 1.613 1_455 S
N434 C437 1.350 . S
N435 S433 1.610 . S
N435 C436 1.351 . S
C436 C430 1.428 . S
C436 N435 1.351 . S
C436 C437 1.434 1_655 S
C437 C428 1.429 . S
C437 N434 1.350 . S
C437 C436 1.434 1_455 S
C438 C439 1.369 . S
C438 C440 1.419 . S
C438 H442 0.930 . S
C439 C438 1.369 . S
C439 C448 1.429 1_545 S
C440 C438 1.419 . S
C440 C441 1.363 1_545 S
C440 H443 0.929 . S
C441 C440 1.363 1_565 S
C441 C447 1.428 . S
H442 C438 0.930 . S
H443 C440 0.929 . S
S444 N445 1.613 . S
S444 N446 1.610 . S
N445 S444 1.613 . S
N445 C448 1.350 . S
N446 S444 1.610 . S
N446 C447 1.351 . S
C447 C441 1.428 . S
C447 N446 1.351 . S
C447 C448 1.434 . S
C448 C439 1.429 1_565 S
C448 N445 1.350 . S
C448 C447 1.434 . S
C449 C450 1.369 . S
C449 C451 1.419 . S
C449 H453 0.930 . S
C450 C449 1.369 . S
C450 C459 1.429 . S
C451 C449 1.419 . S
C451 C452 1.363 . S
C451 H454 0.929 . S
C452 C451 1.363 . S
C452 C458 1.428 . S
H453 C449 0.930 . S
H454 C451 0.929 . S
S455 N456 1.613 . S
S455 N457 1.610 . S
N456 S455 1.613 . S
N456 C459 1.350 . S
N457 S455 1.610 . S
N457 C458 1.351 . S
C458 C452 1.428 . S
C458 N457 1.351 . S
C458 C459 1.434 . S
C459 C450 1.429 . S
C459 N456 1.350 . S
C459 C458 1.434 . S
C460 C461 1.369 . S
C460 C462 1.419 1_655 S
C460 H464 0.930 . S
C461 C460 1.369 . S
C461 C470 1.429 . S
C462 C460 1.419 1_455 S
C462 C463 1.363 . S
C462 H465 0.929 . S
C463 C462 1.363 . S
C463 C469 1.428 . S
H464 C460 0.930 . S
H465 C462 0.929 . S
S466 N467 1.613 1_455 S
S466 N468 1.610 . S
N467 S466 1.613 1_655 S
N467 C470 1.350 1_554 S
N468 S466 1.610 . S
N468 C469 1.351 1_554 S
C469 C463 1.428 . S
C469 N468 1.351 1_556 S
C469 C470 1.434 1_455 S
C470 C461 1.429 . S
C470 N467 1.350 1_556 S
C470 C469 1.434 1_655 S
C471 C472 1.369 . S
C471 C473 1.419 . S
C471 H475 0.930 . S
C472 C471 1.369 . S
C472 C481 1.429 1_455 S
C473 C471 1.419 . S
C473 C474 1.363 1_455 S
C473 H476 0.929 . S
C474 C473 1.363 1_655 S
C474 C480 1.428 . S
H475 C471 0.930 . S
H476 C473 0.929 . S
S477 N478 1.613 . S
S477 N479 1.610 . S
N478 S477 1.613 . S
N478 C481 1.350 . S
N479 S477 1.610 . S
N479 C480 1.351 . S
C480 C474 1.428 . S
C480 N479 1.351 . S
C480 C481 1.434 . S
C481 C472 1.429 1_655 S
C481 N478 1.350 . S
C481 C480 1.434 . S
C482 C483 1.369 . S
C482 C484 1.419 1_565 S
C482 H486 0.930 . S
C483 C482 1.369 . S
C483 C492 1.429 . S
C484 C482 1.419 1_545 S
C484 C485 1.363 . S
C484 H487 0.929 . S
C485 C484 1.363 . S
C485 C491 1.428 . S
H486 C482 0.930 . S
H487 C484 0.929 . S
S488 N489 1.613 . S
S488 N490 1.610 1_565 S
N489 S488 1.613 . S
N489 C492 1.350 . S
N490 S488 1.610 1_545 S
N490 C491 1.351 . S
C491 C485 1.428 . S
C491 N490 1.351 . S
C491 C492 1.434 1_545 S
C492 C483 1.429 . S
C492 N489 1.350 . S
C492 C491 1.434 1_565 S
C493 C494 1.369 . S
C493 C495 1.419 . S
C493 H497 0.930 . S
C494 C493 1.369 . S
C494 C503 1.429 . S
C495 C493 1.419 . S
C495 C496 1.363 . S
C495 H498 0.929 . S
C496 C495 1.363 . S
C496 C502 1.428 . S
H497 C493 0.930 . S
H498 C495 0.929 . S
S499 N500 1.613 . S
S499 N501 1.610 . S
N500 S499 1.613 . S
N500 C503 1.350 . S
N501 S499 1.610 . S
N501 C502 1.351 . S
C502 C496 1.428 . S
C502 N501 1.351 . S
C502 C503 1.434 . S
C503 C494 1.429 . S
C503 N500 1.350 . S
C503 C502 1.434 . S
C504 C505 1.369 . S
C504 C506 1.419 1_565 S
C504 H508 0.930 . S
C505 C504 1.369 . S
C505 C514 1.429 . S
C506 C504 1.419 1_545 S
C506 C507 1.363 . S
C506 H509 0.929 . S
C507 C506 1.363 . S
C507 C513 1.428 . S
H508 C504 0.930 . S
H509 C506 0.929 . S
S510 N511 1.613 . S
S510 N512 1.610 1_565 S
N511 S510 1.613 . S
N511 C514 1.350 . S
N512 S510 1.610 1_545 S
N512 C513 1.351 . S
C513 C507 1.428 . S
C513 N512 1.351 . S
C513 C514 1.434 1_545 S
C514 C505 1.429 . S
C514 N511 1.350 . S
C514 C513 1.434 1_565 S
C515 C516 1.369 . S
C515 C517 1.419 . S
C515 H519 0.930 . S
C516 C515 1.369 . S
C516 C525 1.429 . S
C517 C515 1.419 . S
C517 C518 1.363 . S
C517 H520 0.929 . S
C518 C517 1.363 . S
C518 C524 1.428 . S
H519 C515 0.930 . S
H520 C517 0.929 . S
S521 N522 1.613 . S
S521 N523 1.610 . S
N522 S521 1.613 . S
N522 C525 1.350 . S
N523 S521 1.610 . S
N523 C524 1.351 . S
C524 C518 1.428 . S
C524 N523 1.351 . S
C524 C525 1.434 . S
C525 C516 1.429 . S
C525 N522 1.350 . S
C525 C524 1.434 . S
C526 C527 1.369 . S
C526 C528 1.419 1_655 S
C526 H530 0.930 . S
C527 C526 1.369 . S
C527 C536 1.429 . S
C528 C526 1.419 1_455 S
C528 C529 1.363 . S
C528 H531 0.929 . S
C529 C528 1.363 . S
C529 C535 1.428 . S
H530 C526 0.930 . S
H531 C528 0.929 . S
S532 N533 1.613 1_455 S
S532 N534 1.610 . S
N533 S532 1.613 1_655 S
N533 C536 1.350 . S
N534 S532 1.610 . S
N534 C535 1.351 . S
C535 C529 1.428 . S
C535 N534 1.351 . S
C535 C536 1.434 1_455 S
C536 C527 1.429 . S
C536 N533 1.350 . S
C536 C535 1.434 1_655 S
C537 C538 1.369 1_565 S
C537 C539 1.419 . S
C537 H541 0.930 . S
C538 C537 1.369 1_545 S
C538 C547 1.429 . S
C539 C537 1.419 . S
C539 C540 1.363 . S
C539 H542 0.929 . S
C540 C539 1.363 . S
C540 C546 1.428 1_565 S
H541 C537 0.930 . S
H542 C539 0.929 . S
S543 N544 1.613 . S
S543 N545 1.610 . S
N544 S543 1.613 . S
N544 C547 1.350 . S
N545 S543 1.610 . S
N545 C546 1.351 . S
C546 C540 1.428 1_545 S
C546 N545 1.351 . S
C546 C547 1.434 . S
C547 C538 1.429 . S
C547 N544 1.350 . S
C547 C546 1.434 . S
C548 C549 1.369 . S
C548 C550 1.419 . S
C548 H552 0.930 . S
C549 C548 1.369 . S
C549 C558 1.429 . S
C550 C548 1.419 . S
C550 C551 1.363 . S
C550 H553 0.929 . S
C551 C550 1.363 . S
C551 C557 1.428 . S
H552 C548 0.930 . S
H553 C550 0.929 . S
S554 N555 1.613 . S
S554 N556 1.610 . S
N555 S554 1.613 . S
N555 C558 1.350 . S
N556 S554 1.610 . S
N556 C557 1.351 . S
C557 C551 1.428 . S
C557 N556 1.351 . S
C557 C558 1.434 . S
C558 C549 1.429 . S
C558 N555 1.350 . S
C558 C557 1.434 . S
C559 C560 1.369 . S
C559 C561 1.419 1_455 S
C559 H563 0.930 . S
C560 C559 1.369 . S
C560 C569 1.429 . S
C561 C559 1.419 1_655 S
C561 C562 1.363 . S
C561 H564 0.929 . S
C562 C561 1.363 . S
C562 C568 1.428 . S
H563 C559 0.930 . S
H564 C561 0.929 . S
S565 N566 1.613 1_655 S
S565 N567 1.610 . S
N566 S565 1.613 1_455 S
N566 C569 1.350 . S
N567 S565 1.610 . S
N567 C568 1.351 . S
C568 C562 1.428 . S
C568 N567 1.351 . S
C568 C569 1.434 1_655 S
C569 C560 1.429 . S
C569 N566 1.350 . S
C569 C568 1.434 1_455 S
C570 C571 1.369 . S
C570 C572 1.419 . S
C570 H574 0.930 . S
C571 C570 1.369 . S
C571 C580 1.429 . S
C572 C570 1.419 . S
C572 C573 1.363 . S
C572 H575 0.929 . S
C573 C572 1.363 . S
C573 C579 1.428 . S
H574 C570 0.930 . S
H575 C572 0.929 . S
S576 N577 1.613 . S
S576 N578 1.610 . S
N577 S576 1.613 . S
N577 C580 1.350 . S
N578 S576 1.610 . S
N578 C579 1.351 . S
C579 C573 1.428 . S
C579 N578 1.351 . S
C579 C580 1.434 . S
C580 C571 1.429 . S
C580 N577 1.350 . S
C580 C579 1.434 . S
C581 C582 1.369 . S
C581 C583 1.419 . S
C581 H585 0.930 . S
C582 C581 1.369 . S
C582 C591 1.429 . S
C583 C581 1.419 . S
C583 C584 1.363 . S
C583 H586 0.929 . S
C584 C583 1.363 . S
C584 C590 1.428 . S
H585 C581 0.930 . S
H586 C583 0.929 . S
S587 N588 1.613 . S
S587 N589 1.610 . S
N588 S587 1.613 . S
N588 C591 1.350 . S
N589 S587 1.610 . S
N589 C590 1.351 . S
C590 C584 1.428 . S
C590 N589 1.351 . S
C590 C591 1.434 . S
C591 C582 1.429 . S
C591 N588 1.350 . S
C591 C590 1.434 . S
C592 C593 1.369 . S
C592 C594 1.419 . S
C592 H596 0.930 . S
C593 C592 1.369 . S
C593 C602 1.429 . S
C594 C592 1.419 . S
C594 C595 1.363 . S
C594 H597 0.929 . S
C595 C594 1.363 . S
C595 C601 1.428 . S
H596 C592 0.930 . S
H597 C594 0.929 . S
S598 N599 1.613 . S
S598 N600 1.610 . S
N599 S598 1.613 . S
N599 C602 1.350 . S
N600 S598 1.610 . S
N600 C601 1.351 . S
C601 C595 1.428 . S
C601 N600 1.351 . S
C601 C602 1.434 . S
C602 C593 1.429 . S
C602 N599 1.350 . S
C602 C601 1.434 . S
C603 C604 1.369 . S
C603 C605 1.419 . S
C603 H607 0.930 . S
C604 C603 1.369 . S
C604 C613 1.429 . S
C605 C603 1.419 . S
C605 C606 1.363 . S
C605 H608 0.929 . S
C606 C605 1.363 . S
C606 C612 1.428 . S
H607 C603 0.930 . S
H608 C605 0.929 . S
S609 N610 1.613 . S
S609 N611 1.610 . S
N610 S609 1.613 . S
N610 C613 1.350 . S
N611 S609 1.610 . S
N611 C612 1.351 . S
C612 C606 1.428 . S
C612 N611 1.351 . S
C612 C613 1.434 . S
C613 C604 1.429 . S
C613 N610 1.350 . S
C613 C612 1.434 . S
C614 C615 1.369 . S
C614 C616 1.419 . S
C614 H618 0.930 . S
C615 C614 1.369 . S
C615 C624 1.429 . S
C616 C614 1.419 . S
C616 C617 1.363 . S
C616 H619 0.929 . S
C617 C616 1.363 . S
C617 C623 1.428 . S
H618 C614 0.930 . S
H619 C616 0.929 . S
S620 N621 1.613 . S
S620 N622 1.610 . S
N621 S620 1.613 . S
N621 C624 1.350 . S
N622 S620 1.610 . S
N622 C623 1.351 . S
C623 C617 1.428 . S
C623 N622 1.351 . S
C623 C624 1.434 . S
C624 C615 1.429 . S
C624 N621 1.350 . S
C624 C623 1.434 . S
C625 C626 1.369 . S
C625 C627 1.419 . S
C625 H629 0.930 . S
C626 C625 1.369 . S
C626 C635 1.429 . S
C627 C625 1.419 . S
C627 C628 1.363 . S
C627 H630 0.929 . S
C628 C627 1.363 . S
C628 C634 1.428 . S
H629 C625 0.930 . S
H630 C627 0.929 . S
S631 N632 1.613 . S
S631 N633 1.610 . S
N632 S631 1.613 . S
N632 C635 1.350 . S
N633 S631 1.610 . S
N633 C634 1.351 . S
C634 C628 1.428 . S
C634 N633 1.351 . S
C634 C635 1.434 . S
C635 C626 1.429 . S
C635 N632 1.350 . S
C635 C634 1.434 . S
C241 C18 1.245 . S
C243 C178 1.246 . S
C252 C38 1.251 . S
C254 C198 1.245 . S
C263 C58 1.250 . S
C265 C218 1.244 . S
C274 C238 1.244 . S
C276 C78 1.247 . S
C285 C98 1.253 . S
C287 C138 1.246 . S
C296 C158 1.248 . S
C298 C118 1.244 . S
C307 C209 0.983 . S
C309 C9 0.979 . S
C318 C229 0.973 . S
C320 C29 0.981 . S
C329 C49 0.975 . S
C331 C129 0.970 . S
C340 C149 0.974 . S
C342 C69 0.982 . S
C351 C169 0.973 . S
C353 C89 0.970 . S
C362 C109 0.978 . S
C364 C189 0.982 . S
C373 C142 1.486 . S
C375 C2 1.484 . S
C384 C162 1.488 . S
C386 C22 1.491 . S
C395 C182 1.482 . S
C397 C42 1.482 . S
C406 C62 1.483 . S
C408 C202 1.482 . S
C417 C82 1.495 . S
C419 C222 1.493 . S
C428 C102 1.481 . S
C430 C122 1.482 . S
C439 C19 0.845 . S
C441 C79 0.843 . S
C450 C39 0.835 . S
C452 C99 0.836 . S
C461 C59 0.845 . S
C463 C119 0.844 . S
C472 C199 0.844 . S
C474 C139 0.843 . S
C483 C159 0.833 . S
C485 C219 0.834 . S
C494 C239 0.836 . S
C496 C179 0.837 . S
C505 C152 1.367 . S
C507 C12 1.368 . S
C516 C172 1.372 . S
C518 C32 1.371 . S
C527 C52 1.380 . S
C529 C192 1.378 . S
C538 C212 1.373 . S
C540 C72 1.375 . S
C549 C232 1.380 . S
C551 C92 1.378 . S
C560 C112 1.379 . S
C562 C132 1.378 . S
C571 C4 1.663 . S
C573 C204 1.669 . S
C582 C24 1.662 . S
C584 C224 1.668 . S
C593 C44 1.668 . S
C595 C124 1.673 . S
C604 C64 1.670 . S
C606 C144 1.673 . S
C615 C84 1.669 . S
C617 C164 1.673 . S
C626 C184 1.671 . S
C628 C104 1.665 . S
