# Generated by pormake.
# Topology svx, (7)-cn, num edge types: 1
# Building blocks:
#     Node 0, Type 0, BuildingBlock: HICVOG_clean_sbu_0, # of connection points: 7
#     Node 1, Type 0, BuildingBlock: HICVOG_clean_sbu_0, # of connection points: 7
#     Node 2, Type 0, BuildingBlock: HICVOG_clean_sbu_0, # of connection points: 7
#     Node 3, Type 0, BuildingBlock: HICVOG_clean_sbu_0, # of connection points: 7
#     Node 4, Type 0, BuildingBlock: HICVOG_clean_sbu_0, # of connection points: 7
#     Node 5, Type 0, BuildingBlock: HICVOG_clean_sbu_0, # of connection points: 7
#     Node 6, Type 0, BuildingBlock: HICVOG_clean_sbu_0, # of connection points: 7
#     Node 7, Type 0, BuildingBlock: HICVOG_clean_sbu_0, # of connection points: 7
#     Node 8, Type 0, BuildingBlock: HICVOG_clean_sbu_0, # of connection points: 7
#     Node 9, Type 0, BuildingBlock: HICVOG_clean_sbu_0, # of connection points: 7
#     Node 10, Type 0, BuildingBlock: HICVOG_clean_sbu_0, # of connection points: 7
#     Node 11, Type 0, BuildingBlock: HICVOG_clean_sbu_0, # of connection points: 7
#     Node 12, Type 0, BuildingBlock: HICVOG_clean_sbu_0, # of connection points: 7
#     Node 13, Type 0, BuildingBlock: HICVOG_clean_sbu_0, # of connection points: 7
#     Node 14, Type 0, BuildingBlock: HICVOG_clean_sbu_0, # of connection points: 7
#     Node 15, Type 0, BuildingBlock: HICVOG_clean_sbu_0, # of connection points: 7
#     Node 16, Type 0, BuildingBlock: HICVOG_clean_sbu_0, # of connection points: 7
#     Node 17, Type 0, BuildingBlock: HICVOG_clean_sbu_0, # of connection points: 7
#     Node 18, Type 0, BuildingBlock: HICVOG_clean_sbu_0, # of connection points: 7
#     Node 19, Type 0, BuildingBlock: HICVOG_clean_sbu_0, # of connection points: 7
#     Node 20, Type 0, BuildingBlock: HICVOG_clean_sbu_0, # of connection points: 7
#     Node 21, Type 0, BuildingBlock: HICVOG_clean_sbu_0, # of connection points: 7
#     Node 22, Type 0, BuildingBlock: HICVOG_clean_sbu_0, # of connection points: 7
#     Node 23, Type 0, BuildingBlock: HICVOG_clean_sbu_0, # of connection points: 7
#     Node 24, Type 0, BuildingBlock: HICVOG_clean_sbu_0, # of connection points: 7
#     Node 25, Type 0, BuildingBlock: HICVOG_clean_sbu_0, # of connection points: 7
#     Node 26, Type 0, BuildingBlock: HICVOG_clean_sbu_0, # of connection points: 7
#     Node 27, Type 0, BuildingBlock: HICVOG_clean_sbu_0, # of connection points: 7
#     Node 28, Type 0, BuildingBlock: HICVOG_clean_sbu_0, # of connection points: 7
#     Node 29, Type 0, BuildingBlock: HICVOG_clean_sbu_0, # of connection points: 7
#     Node 30, Type 0, BuildingBlock: HICVOG_clean_sbu_0, # of connection points: 7
#     Node 31, Type 0, BuildingBlock: HICVOG_clean_sbu_0, # of connection points: 7
#     Node 32, Type 0, BuildingBlock: HICVOG_clean_sbu_0, # of connection points: 7
#     Node 33, Type 0, BuildingBlock: HICVOG_clean_sbu_0, # of connection points: 7
#     Node 34, Type 0, BuildingBlock: HICVOG_clean_sbu_0, # of connection points: 7
#     Node 35, Type 0, BuildingBlock: HICVOG_clean_sbu_0, # of connection points: 7
#     Node 36, Type 0, BuildingBlock: HICVOG_clean_sbu_0, # of connection points: 7
#     Node 37, Type 0, BuildingBlock: HICVOG_clean_sbu_0, # of connection points: 7
#     Node 38, Type 0, BuildingBlock: HICVOG_clean_sbu_0, # of connection points: 7
#     Node 39, Type 0, BuildingBlock: HICVOG_clean_sbu_0, # of connection points: 7
#     Node 40, Type 0, BuildingBlock: HICVOG_clean_sbu_0, # of connection points: 7
#     Node 41, Type 0, BuildingBlock: HICVOG_clean_sbu_0, # of connection points: 7
#     Node 42, Type 0, BuildingBlock: HICVOG_clean_sbu_0, # of connection points: 7
#     Node 43, Type 0, BuildingBlock: HICVOG_clean_sbu_0, # of connection points: 7
#     Node 44, Type 0, BuildingBlock: HICVOG_clean_sbu_0, # of connection points: 7
#     Node 45, Type 0, BuildingBlock: HICVOG_clean_sbu_0, # of connection points: 7
#     Node 46, Type 0, BuildingBlock: HICVOG_clean_sbu_0, # of connection points: 7
#     Node 47, Type 0, BuildingBlock: HICVOG_clean_sbu_0, # of connection points: 7
#     Edge 48, Type (0, 0), BuildingBlock: EZIPEK_clean_linker_0, # of connection points: 2
#     Edge 49, Type (0, 0), BuildingBlock: EZIPEK_clean_linker_0, # of connection points: 2
#     Edge 50, Type (0, 0), BuildingBlock: EZIPEK_clean_linker_0, # of connection points: 2
#     Edge 51, Type (0, 0), BuildingBlock: EZIPEK_clean_linker_0, # of connection points: 2
#     Edge 52, Type (0, 0), BuildingBlock: EZIPEK_clean_linker_0, # of connection points: 2
#     Edge 53, Type (0, 0), BuildingBlock: EZIPEK_clean_linker_0, # of connection points: 2
#     Edge 54, Type (0, 0), BuildingBlock: EZIPEK_clean_linker_0, # of connection points: 2
#     Edge 55, Type (0, 0), BuildingBlock: EZIPEK_clean_linker_0, # of connection points: 2
#     Edge 56, Type (0, 0), BuildingBlock: EZIPEK_clean_linker_0, # of connection points: 2
#     Edge 57, Type (0, 0), BuildingBlock: EZIPEK_clean_linker_0, # of connection points: 2
#     Edge 58, Type (0, 0), BuildingBlock: EZIPEK_clean_linker_0, # of connection points: 2
#     Edge 59, Type (0, 0), BuildingBlock: EZIPEK_clean_linker_0, # of connection points: 2
#     Edge 60, Type (0, 0), BuildingBlock: EZIPEK_clean_linker_0, # of connection points: 2
#     Edge 61, Type (0, 0), BuildingBlock: EZIPEK_clean_linker_0, # of connection points: 2
#     Edge 62, Type (0, 0), BuildingBlock: EZIPEK_clean_linker_0, # of connection points: 2
#     Edge 63, Type (0, 0), BuildingBlock: EZIPEK_clean_linker_0, # of connection points: 2
#     Edge 64, Type (0, 0), BuildingBlock: EZIPEK_clean_linker_0, # of connection points: 2
#     Edge 65, Type (0, 0), BuildingBlock: EZIPEK_clean_linker_0, # of connection points: 2
#     Edge 66, Type (0, 0), BuildingBlock: EZIPEK_clean_linker_0, # of connection points: 2
#     Edge 67, Type (0, 0), BuildingBlock: EZIPEK_clean_linker_0, # of connection points: 2
#     Edge 68, Type (0, 0), BuildingBlock: EZIPEK_clean_linker_0, # of connection points: 2
#     Edge 69, Type (0, 0), BuildingBlock: EZIPEK_clean_linker_0, # of connection points: 2
#     Edge 70, Type (0, 0), BuildingBlock: EZIPEK_clean_linker_0, # of connection points: 2
#     Edge 71, Type (0, 0), BuildingBlock: EZIPEK_clean_linker_0, # of connection points: 2
#     Edge 72, Type (0, 0), BuildingBlock: EZIPEK_clean_linker_0, # of connection points: 2
#     Edge 73, Type (0, 0), BuildingBlock: EZIPEK_clean_linker_0, # of connection points: 2
#     Edge 74, Type (0, 0), BuildingBlock: EZIPEK_clean_linker_0, # of connection points: 2
#     Edge 75, Type (0, 0), BuildingBlock: EZIPEK_clean_linker_0, # of connection points: 2
#     Edge 76, Type (0, 0), BuildingBlock: EZIPEK_clean_linker_0, # of connection points: 2
#     Edge 77, Type (0, 0), BuildingBlock: EZIPEK_clean_linker_0, # of connection points: 2
#     Edge 78, Type (0, 0), BuildingBlock: EZIPEK_clean_linker_0, # of connection points: 2
#     Edge 79, Type (0, 0), BuildingBlock: EZIPEK_clean_linker_0, # of connection points: 2
#     Edge 80, Type (0, 0), BuildingBlock: EZIPEK_clean_linker_0, # of connection points: 2
#     Edge 81, Type (0, 0), BuildingBlock: EZIPEK_clean_linker_0, # of connection points: 2
#     Edge 82, Type (0, 0), BuildingBlock: EZIPEK_clean_linker_0, # of connection points: 2
#     Edge 83, Type (0, 0), BuildingBlock: EZIPEK_clean_linker_0, # of connection points: 2
#     Edge 84, Type (0, 0), BuildingBlock: EZIPEK_clean_linker_0, # of connection points: 2
#     Edge 85, Type (0, 0), BuildingBlock: EZIPEK_clean_linker_0, # of connection points: 2
#     Edge 86, Type (0, 0), BuildingBlock: EZIPEK_clean_linker_0, # of connection points: 2
#     Edge 87, Type (0, 0), BuildingBlock: EZIPEK_clean_linker_0, # of connection points: 2
#     Edge 88, Type (0, 0), BuildingBlock: EZIPEK_clean_linker_0, # of connection points: 2
#     Edge 89, Type (0, 0), BuildingBlock: EZIPEK_clean_linker_0, # of connection points: 2
#     Edge 90, Type (0, 0), BuildingBlock: EZIPEK_clean_linker_0, # of connection points: 2
#     Edge 91, Type (0, 0), BuildingBlock: EZIPEK_clean_linker_0, # of connection points: 2
#     Edge 92, Type (0, 0), BuildingBlock: EZIPEK_clean_linker_0, # of connection points: 2
#     Edge 93, Type (0, 0), BuildingBlock: EZIPEK_clean_linker_0, # of connection points: 2
#     Edge 94, Type (0, 0), BuildingBlock: EZIPEK_clean_linker_0, # of connection points: 2
#     Edge 95, Type (0, 0), BuildingBlock: EZIPEK_clean_linker_0, # of connection points: 2
#     Edge 96, Type (0, 0), BuildingBlock: EZIPEK_clean_linker_0, # of connection points: 2
#     Edge 97, Type (0, 0), BuildingBlock: EZIPEK_clean_linker_0, # of connection points: 2
#     Edge 98, Type (0, 0), BuildingBlock: EZIPEK_clean_linker_0, # of connection points: 2
#     Edge 99, Type (0, 0), BuildingBlock: EZIPEK_clean_linker_0, # of connection points: 2
#     Edge 100, Type (0, 0), BuildingBlock: EZIPEK_clean_linker_0, # of connection points: 2
#     Edge 101, Type (0, 0), BuildingBlock: EZIPEK_clean_linker_0, # of connection points: 2
#     Edge 102, Type (0, 0), BuildingBlock: EZIPEK_clean_linker_0, # of connection points: 2
#     Edge 103, Type (0, 0), BuildingBlock: EZIPEK_clean_linker_0, # of connection points: 2
#     Edge 104, Type (0, 0), BuildingBlock: EZIPEK_clean_linker_0, # of connection points: 2
#     Edge 105, Type (0, 0), BuildingBlock: EZIPEK_clean_linker_0, # of connection points: 2
#     Edge 106, Type (0, 0), BuildingBlock: EZIPEK_clean_linker_0, # of connection points: 2
#     Edge 107, Type (0, 0), BuildingBlock: EZIPEK_clean_linker_0, # of connection points: 2
#     Edge 108, Type (0, 0), BuildingBlock: EZIPEK_clean_linker_0, # of connection points: 2
#     Edge 109, Type (0, 0), BuildingBlock: EZIPEK_clean_linker_0, # of connection points: 2
#     Edge 110, Type (0, 0), BuildingBlock: EZIPEK_clean_linker_0, # of connection points: 2
#     Edge 111, Type (0, 0), BuildingBlock: EZIPEK_clean_linker_0, # of connection points: 2
#     Edge 112, Type (0, 0), BuildingBlock: EZIPEK_clean_linker_0, # of connection points: 2
#     Edge 113, Type (0, 0), BuildingBlock: EZIPEK_clean_linker_0, # of connection points: 2
#     Edge 114, Type (0, 0), BuildingBlock: EZIPEK_clean_linker_0, # of connection points: 2
#     Edge 115, Type (0, 0), BuildingBlock: EZIPEK_clean_linker_0, # of connection points: 2
#     Edge 116, Type (0, 0), BuildingBlock: EZIPEK_clean_linker_0, # of connection points: 2
#     Edge 117, Type (0, 0), BuildingBlock: EZIPEK_clean_linker_0, # of connection points: 2
#     Edge 118, Type (0, 0), BuildingBlock: EZIPEK_clean_linker_0, # of connection points: 2
#     Edge 119, Type (0, 0), BuildingBlock: EZIPEK_clean_linker_0, # of connection points: 2
#     Edge 120, Type (0, 0), BuildingBlock: EZIPEK_clean_linker_0, # of connection points: 2
#     Edge 121, Type (0, 0), BuildingBlock: EZIPEK_clean_linker_0, # of connection points: 2
#     Edge 122, Type (0, 0), BuildingBlock: EZIPEK_clean_linker_0, # of connection points: 2
#     Edge 123, Type (0, 0), BuildingBlock: EZIPEK_clean_linker_0, # of connection points: 2
#     Edge 124, Type (0, 0), BuildingBlock: EZIPEK_clean_linker_0, # of connection points: 2
#     Edge 125, Type (0, 0), BuildingBlock: EZIPEK_clean_linker_0, # of connection points: 2
#     Edge 126, Type (0, 0), BuildingBlock: EZIPEK_clean_linker_0, # of connection points: 2
#     Edge 127, Type (0, 0), BuildingBlock: EZIPEK_clean_linker_0, # of connection points: 2
#     Edge 128, Type (0, 0), BuildingBlock: EZIPEK_clean_linker_0, # of connection points: 2
#     Edge 129, Type (0, 0), BuildingBlock: EZIPEK_clean_linker_0, # of connection points: 2
#     Edge 130, Type (0, 0), BuildingBlock: EZIPEK_clean_linker_0, # of connection points: 2
#     Edge 131, Type (0, 0), BuildingBlock: EZIPEK_clean_linker_0, # of connection points: 2
#     Edge 132, Type (0, 0), BuildingBlock: EZIPEK_clean_linker_0, # of connection points: 2
#     Edge 133, Type (0, 0), BuildingBlock: EZIPEK_clean_linker_0, # of connection points: 2
#     Edge 134, Type (0, 0), BuildingBlock: EZIPEK_clean_linker_0, # of connection points: 2
#     Edge 135, Type (0, 0), BuildingBlock: EZIPEK_clean_linker_0, # of connection points: 2
#     Edge 136, Type (0, 0), BuildingBlock: EZIPEK_clean_linker_0, # of connection points: 2
#     Edge 137, Type (0, 0), BuildingBlock: EZIPEK_clean_linker_0, # of connection points: 2
#     Edge 138, Type (0, 0), BuildingBlock: EZIPEK_clean_linker_0, # of connection points: 2
#     Edge 139, Type (0, 0), BuildingBlock: EZIPEK_clean_linker_0, # of connection points: 2
#     Edge 140, Type (0, 0), BuildingBlock: EZIPEK_clean_linker_0, # of connection points: 2
#     Edge 141, Type (0, 0), BuildingBlock: EZIPEK_clean_linker_0, # of connection points: 2
#     Edge 142, Type (0, 0), BuildingBlock: EZIPEK_clean_linker_0, # of connection points: 2
#     Edge 143, Type (0, 0), BuildingBlock: EZIPEK_clean_linker_0, # of connection points: 2
#     Edge 144, Type (0, 0), BuildingBlock: EZIPEK_clean_linker_0, # of connection points: 2
#     Edge 145, Type (0, 0), BuildingBlock: EZIPEK_clean_linker_0, # of connection points: 2
#     Edge 146, Type (0, 0), BuildingBlock: EZIPEK_clean_linker_0, # of connection points: 2
#     Edge 147, Type (0, 0), BuildingBlock: EZIPEK_clean_linker_0, # of connection points: 2
#     Edge 148, Type (0, 0), BuildingBlock: EZIPEK_clean_linker_0, # of connection points: 2
#     Edge 149, Type (0, 0), BuildingBlock: EZIPEK_clean_linker_0, # of connection points: 2
#     Edge 150, Type (0, 0), BuildingBlock: EZIPEK_clean_linker_0, # of connection points: 2
#     Edge 151, Type (0, 0), BuildingBlock: EZIPEK_clean_linker_0, # of connection points: 2
#     Edge 152, Type (0, 0), BuildingBlock: EZIPEK_clean_linker_0, # of connection points: 2
#     Edge 153, Type (0, 0), BuildingBlock: EZIPEK_clean_linker_0, # of connection points: 2
#     Edge 154, Type (0, 0), BuildingBlock: EZIPEK_clean_linker_0, # of connection points: 2
#     Edge 155, Type (0, 0), BuildingBlock: EZIPEK_clean_linker_0, # of connection points: 2
#     Edge 156, Type (0, 0), BuildingBlock: EZIPEK_clean_linker_0, # of connection points: 2
#     Edge 157, Type (0, 0), BuildingBlock: EZIPEK_clean_linker_0, # of connection points: 2
#     Edge 158, Type (0, 0), BuildingBlock: EZIPEK_clean_linker_0, # of connection points: 2
#     Edge 159, Type (0, 0), BuildingBlock: EZIPEK_clean_linker_0, # of connection points: 2
#     Edge 160, Type (0, 0), BuildingBlock: EZIPEK_clean_linker_0, # of connection points: 2
#     Edge 161, Type (0, 0), BuildingBlock: EZIPEK_clean_linker_0, # of connection points: 2
#     Edge 162, Type (0, 0), BuildingBlock: EZIPEK_clean_linker_0, # of connection points: 2
#     Edge 163, Type (0, 0), BuildingBlock: EZIPEK_clean_linker_0, # of connection points: 2
#     Edge 164, Type (0, 0), BuildingBlock: EZIPEK_clean_linker_0, # of connection points: 2
#     Edge 165, Type (0, 0), BuildingBlock: EZIPEK_clean_linker_0, # of connection points: 2
#     Edge 166, Type (0, 0), BuildingBlock: EZIPEK_clean_linker_0, # of connection points: 2
#     Edge 167, Type (0, 0), BuildingBlock: EZIPEK_clean_linker_0, # of connection points: 2
#     Edge 168, Type (0, 0), BuildingBlock: EZIPEK_clean_linker_0, # of connection points: 2
#     Edge 169, Type (0, 0), BuildingBlock: EZIPEK_clean_linker_0, # of connection points: 2
#     Edge 170, Type (0, 0), BuildingBlock: EZIPEK_clean_linker_0, # of connection points: 2
#     Edge 171, Type (0, 0), BuildingBlock: EZIPEK_clean_linker_0, # of connection points: 2
#     Edge 172, Type (0, 0), BuildingBlock: EZIPEK_clean_linker_0, # of connection points: 2
#     Edge 173, Type (0, 0), BuildingBlock: EZIPEK_clean_linker_0, # of connection points: 2
#     Edge 174, Type (0, 0), BuildingBlock: EZIPEK_clean_linker_0, # of connection points: 2
#     Edge 175, Type (0, 0), BuildingBlock: EZIPEK_clean_linker_0, # of connection points: 2
#     Edge 176, Type (0, 0), BuildingBlock: EZIPEK_clean_linker_0, # of connection points: 2
#     Edge 177, Type (0, 0), BuildingBlock: EZIPEK_clean_linker_0, # of connection points: 2
#     Edge 178, Type (0, 0), BuildingBlock: EZIPEK_clean_linker_0, # of connection points: 2
#     Edge 179, Type (0, 0), BuildingBlock: EZIPEK_clean_linker_0, # of connection points: 2
#     Edge 180, Type (0, 0), BuildingBlock: EZIPEK_clean_linker_0, # of connection points: 2
#     Edge 181, Type (0, 0), BuildingBlock: EZIPEK_clean_linker_0, # of connection points: 2
#     Edge 182, Type (0, 0), BuildingBlock: EZIPEK_clean_linker_0, # of connection points: 2
#     Edge 183, Type (0, 0), BuildingBlock: EZIPEK_clean_linker_0, # of connection points: 2
#     Edge 184, Type (0, 0), BuildingBlock: EZIPEK_clean_linker_0, # of connection points: 2
#     Edge 185, Type (0, 0), BuildingBlock: EZIPEK_clean_linker_0, # of connection points: 2
#     Edge 186, Type (0, 0), BuildingBlock: EZIPEK_clean_linker_0, # of connection points: 2
#     Edge 187, Type (0, 0), BuildingBlock: EZIPEK_clean_linker_0, # of connection points: 2
#     Edge 188, Type (0, 0), BuildingBlock: EZIPEK_clean_linker_0, # of connection points: 2
#     Edge 189, Type (0, 0), BuildingBlock: EZIPEK_clean_linker_0, # of connection points: 2
#     Edge 190, Type (0, 0), BuildingBlock: EZIPEK_clean_linker_0, # of connection points: 2
#     Edge 191, Type (0, 0), BuildingBlock: EZIPEK_clean_linker_0, # of connection points: 2
#     Edge 192, Type (0, 0), BuildingBlock: EZIPEK_clean_linker_0, # of connection points: 2
#     Edge 193, Type (0, 0), BuildingBlock: EZIPEK_clean_linker_0, # of connection points: 2
#     Edge 194, Type (0, 0), BuildingBlock: EZIPEK_clean_linker_0, # of connection points: 2
#     Edge 195, Type (0, 0), BuildingBlock: EZIPEK_clean_linker_0, # of connection points: 2
#     Edge 196, Type (0, 0), BuildingBlock: EZIPEK_clean_linker_0, # of connection points: 2
#     Edge 197, Type (0, 0), BuildingBlock: EZIPEK_clean_linker_0, # of connection points: 2
#     Edge 198, Type (0, 0), BuildingBlock: EZIPEK_clean_linker_0, # of connection points: 2
#     Edge 199, Type (0, 0), BuildingBlock: EZIPEK_clean_linker_0, # of connection points: 2
#     Edge 200, Type (0, 0), BuildingBlock: EZIPEK_clean_linker_0, # of connection points: 2
#     Edge 201, Type (0, 0), BuildingBlock: EZIPEK_clean_linker_0, # of connection points: 2
#     Edge 202, Type (0, 0), BuildingBlock: EZIPEK_clean_linker_0, # of connection points: 2
#     Edge 203, Type (0, 0), BuildingBlock: EZIPEK_clean_linker_0, # of connection points: 2
#     Edge 204, Type (0, 0), BuildingBlock: EZIPEK_clean_linker_0, # of connection points: 2
#     Edge 205, Type (0, 0), BuildingBlock: EZIPEK_clean_linker_0, # of connection points: 2
#     Edge 206, Type (0, 0), BuildingBlock: EZIPEK_clean_linker_0, # of connection points: 2
#     Edge 207, Type (0, 0), BuildingBlock: EZIPEK_clean_linker_0, # of connection points: 2
#     Edge 208, Type (0, 0), BuildingBlock: EZIPEK_clean_linker_0, # of connection points: 2
#     Edge 209, Type (0, 0), BuildingBlock: EZIPEK_clean_linker_0, # of connection points: 2
#     Edge 210, Type (0, 0), BuildingBlock: EZIPEK_clean_linker_0, # of connection points: 2
#     Edge 211, Type (0, 0), BuildingBlock: EZIPEK_clean_linker_0, # of connection points: 2
#     Edge 212, Type (0, 0), BuildingBlock: EZIPEK_clean_linker_0, # of connection points: 2
#     Edge 213, Type (0, 0), BuildingBlock: EZIPEK_clean_linker_0, # of connection points: 2
#     Edge 214, Type (0, 0), BuildingBlock: EZIPEK_clean_linker_0, # of connection points: 2
#     Edge 215, Type (0, 0), BuildingBlock: EZIPEK_clean_linker_0, # of connection points: 2
# Relax obj value: 0.466
# Max RMSD: 0.308
# Mean RMSD: 0.308
data_MOF--net-svx--node1-HICVOG_clean_sbu_0--edge1-EZIPEK_clean_linker_0
_symmetry_space_group_name_H-M    P1
_symmetry_Int_Tables_number       1
_symmetry_cell_setting            triclinic
loop_
_symmetry_equiv_pos_as_xyz
'x, y, z'
_cell_length_a     48.867665
_cell_length_b     48.871197
_cell_length_c     48.836418
_cell_angle_alpha  90.033931
_cell_angle_beta   89.9679
_cell_angle_gamma 90.010509
loop_
_atom_site_label
_atom_site_type_symbol
_atom_site_fract_x
_atom_site_fract_y
_atom_site_fract_z
_atom_type_partial_charge
Zn0 Zn 0.15544 0.33991 0.29296 0.0
C1 C 0.19247 0.26665 0.30032 0.0
N2 N 0.20769 0.27509 0.27899 0.0
C3 C 0.19623 0.29907 0.2721 0.0
N4 N 0.17515 0.30532 0.28902 0.0
N5 N 0.17194 0.28442 0.30606 0.0
C6 C 0.11257 0.24513 0.36626 0.0
O7 O 0.09767 0.26718 0.36994 0.0
O8 O 0.15228 0.35848 0.25598 0.0
Zn9 Zn 0.13602 0.27936 0.32346 0.0
N10 N 0.17478 0.36295 0.31884 0.0
C11 C 0.21034 0.37049 0.35091 0.0
C12 C 0.19799 0.35412 0.33125 0.0
C13 C 0.16267 0.38692 0.32622 0.0
N14 N 0.19882 0.39488 0.35746 0.0
C15 C 0.17549 0.40441 0.34541 0.0
O16 O 0.12362 0.31242 0.3457 0.0
C17 C 0.11186 0.33264 0.33424 0.0
O18 O 0.11735 0.33886 0.30958 0.0
H19 H 0.20666 0.33442 0.32608 0.0
H20 H 0.14279 0.3909 0.31785 0.0
C21 C 0.08612 0.26138 0.29855 0.0
C22 C 0.06373 0.26362 0.28075 0.0
C23 C 0.09015 0.29197 0.2517 0.0
C24 C 0.1116 0.29129 0.27048 0.0
N25 N 0.10911 0.27628 0.29383 0.0
N26 N 0.06656 0.27862 0.25751 0.0
H27 H 0.08481 0.24922 0.31669 0.0
C28 C 0.13156 0.37362 0.2516 0.0
O29 O 0.11448 0.3788 0.27169 0.0
O30 O 0.13153 0.24527 0.34815 0.0
H31 H 0.12947 0.30357 0.26679 0.0
H32 H 0.22883 0.36384 0.3611 0.0
H33 H 0.09171 0.30391 0.23318 0.0
Zn34 Zn 0.58942 0.60414 0.96813 0.0
C35 C 0.51839 0.56286 0.96164 0.0
N36 N 0.52842 0.54734 0.98205 0.0
C37 C 0.55149 0.56051 0.98918 0.0
N38 N 0.55574 0.58289 0.97336 0.0
N39 N 0.53446 0.58479 0.95658 0.0
C40 C 0.49121 0.63024 0.89272 0.0
O41 O 0.51508 0.63189 0.88051 0.0
O42 O 0.61091 0.60923 1.00285 0.0
Zn43 Zn 0.52536 0.61979 0.94022 0.0
N44 N 0.6125 0.58555 0.94195 0.0
C45 C 0.6181 0.55413 0.90515 0.0
C46 C 0.60246 0.56463 0.92661 0.0
C47 C 0.6374 0.59677 0.9364 0.0
N48 N 0.64265 0.56572 0.8992 0.0
C49 C 0.65265 0.58704 0.91407 0.0
O50 O 0.55572 0.63601 0.91784 0.0
C51 C 0.57671 0.64807 0.92733 0.0
O52 O 0.58647 0.64168 0.95064 0.0
H53 H 0.58226 0.55658 0.93059 0.0
H54 H 0.6445 0.6141 0.94826 0.0
C55 C 0.52147 0.67209 0.96508 0.0
C56 C 0.51589 0.69081 0.98606 0.0
C57 C 0.50907 0.65403 0.01689 0.0
C58 C 0.51371 0.63546 0.99571 0.0
N59 N 0.51992 0.64485 0.97027 0.0
N60 N 0.51005 0.68128 0.01157 0.0
H61 H 0.52633 0.67914 0.94467 0.0
C62 C 0.60606 0.63024 0.01739 0.0
O63 O 0.58582 0.64657 0.01055 0.0
O64 O 0.49007 0.62251 0.91762 0.0
H65 H 0.51206 0.61376 0.99949 0.0
H66 H 0.61046 0.5374 0.89282 0.0
H67 H 0.50425 0.64686 0.03729 0.0
Zn68 Zn 0.85882 0.17393 0.29385 0.0
C69 C 0.82101 0.24716 0.29744 0.0
N70 N 0.80595 0.23753 0.27647 0.0
C71 C 0.81808 0.21358 0.27047 0.0
N72 N 0.83929 0.20838 0.2875 0.0
N73 N 0.84172 0.22992 0.3039 0.0
C74 C 0.87925 0.27431 0.36821 0.0
O75 O 0.86608 0.25491 0.38137 0.0
O76 O 0.86325 0.15131 0.25983 0.0
Zn77 Zn 0.87704 0.23682 0.32112 0.0
N78 N 0.83973 0.1528 0.32118 0.0
C79 C 0.81563 0.15295 0.36345 0.0
C80 C 0.82326 0.166 0.33928 0.0
C81 C 0.8483 0.12672 0.32586 0.0
N82 N 0.82571 0.12768 0.36901 0.0
C83 C 0.84228 0.11419 0.35106 0.0
O84 O 0.89082 0.20582 0.34475 0.0
C85 C 0.90217 0.18446 0.33505 0.0
O86 O 0.89658 0.17611 0.31099 0.0
H87 H 0.81715 0.18687 0.33554 0.0
H88 H 0.86142 0.11676 0.31104 0.0
C89 C 0.93018 0.23877 0.29791 0.0
C90 C 0.94967 0.24344 0.27735 0.0
C91 C 0.9139 0.24975 0.24519 0.0
C92 C 0.89462 0.24608 0.26591 0.0
N93 N 0.90313 0.2403 0.29174 0.0
N94 N 0.94095 0.24854 0.25138 0.0
H95 H 0.93645 0.23491 0.31881 0.0
C96 C 0.88331 0.15702 0.2443 0.0
O97 O 0.89873 0.17827 0.25011 0.0
O98 O 0.88259 0.27209 0.34248 0.0
H99 H 0.8731 0.24833 0.26154 0.0
H100 H 0.80271 0.16325 0.3782 0.0
H101 H 0.90744 0.25413 0.22447 0.0
Zn102 Zn 0.48747 0.88029 0.94353 0.0
C103 C 0.46642 0.94187 0.99343 0.0
N104 N 0.49019 0.95351 0.98611 0.0
C105 C 0.49917 0.93743 0.96567 0.0
N106 N 0.48203 0.91612 0.96106 0.0
N107 N 0.46087 0.91968 0.97774 0.0
C108 C 0.40902 0.89125 0.02959 0.0
O109 O 0.43502 0.88892 0.03573 0.0
O110 O 0.52222 0.87531 0.92152 0.0
Zn111 Zn 0.426 0.90101 0.97175 0.0
N112 N 0.49025 0.85247 0.97171 0.0
C113 C 0.47823 0.83555 0.01578 0.0
C114 C 0.47912 0.85677 0.99681 0.0
C115 C 0.50109 0.82771 0.96493 0.0
N116 N 0.48798 0.81059 0.00863 0.0
C117 C 0.49917 0.8059 0.98355 0.0
O118 O 0.42689 0.86284 0.95534 0.0
C119 C 0.4344 0.85627 0.93125 0.0
O120 O 0.45548 0.86725 0.92043 0.0
H121 H 0.47044 0.87622 1.00184 0.0
H122 H 0.51005 0.82477 0.94487 0.0
C123 C 0.382 0.90947 0.93556 0.0
C124 C 0.36609 0.92285 0.91581 0.0
C125 C 0.39879 0.95869 0.91421 0.0
C126 C 0.4147 0.94514 0.93367 0.0
N127 N 0.40565 0.9211 0.94439 0.0
N128 N 0.37486 0.94731 0.90576 0.0
H129 H 0.37565 0.88994 0.94387 0.0
C130 C 0.52421 0.87972 0.89597 0.0
O131 O 0.50445 0.89289 0.88337 0.0
O132 O 0.4019 0.89749 1.00538 0.0
H133 H 0.43387 0.95389 0.94043 0.0
H134 H 0.46933 0.8387 0.03582 0.0
H135 H 0.40547 0.97804 0.90578 0.0
Zn136 Zn 0.15412 0.67308 0.22041 0.0
C137 C 0.1917 0.74673 0.21772 0.0
N138 N 0.20805 0.7362 0.2372 0.0
C139 C 0.19634 0.71206 0.24311 0.0
N140 N 0.17389 0.70757 0.22728 0.0
N141 N 0.17036 0.72984 0.21198 0.0
C142 C 0.13333 0.7749 0.14727 0.0
O143 O 0.14645 0.75556 0.13393 0.0
O144 O 0.15119 0.64957 0.2548 0.0
Zn145 Zn 0.13451 0.7371 0.19443 0.0
N146 N 0.17294 0.65285 0.19189 0.0
C147 C 0.20677 0.64943 0.15698 0.0
C148 C 0.1942 0.66415 0.17797 0.0
C149 C 0.1621 0.62845 0.18396 0.0
N150 N 0.19642 0.62475 0.14952 0.0
C151 C 0.17397 0.61403 0.16208 0.0
O152 O 0.11953 0.70577 0.17113 0.0
C153 C 0.10906 0.68379 0.18061 0.0
O154 O 0.11587 0.675 0.2042 0.0
H155 H 0.20135 0.68443 0.18306 0.0
H156 H 0.14405 0.62066 0.1942 0.0
C157 C 0.08158 0.74891 0.21559 0.0
C158 C 0.06061 0.7486 0.23528 0.0
C159 C 0.09323 0.73635 0.26916 0.0
C160 C 0.11373 0.73607 0.24936 0.0
N161 N 0.10738 0.74141 0.2229 0.0
N162 N 0.06718 0.74233 0.26164 0.0
H163 H 0.07739 0.75442 0.19453 0.0
C164 C 0.1307 0.65366 0.27038 0.0
O165 O 0.11331 0.67315 0.26414 0.0
O166 O 0.12976 0.77235 0.17291 0.0
H167 H 0.13446 0.73153 0.25491 0.0
H168 H 0.22421 0.65785 0.14624 0.0
H169 H 0.09792 0.73173 0.2903 0.0
Zn170 Zn 0.98738 0.62571 0.06968 0.0
C171 C 0.96499 0.5642 0.02046 0.0
N172 N 0.98966 0.55358 0.02615 0.0
C173 C 0.99903 0.56979 0.04629 0.0
N174 N 0.9812 0.59002 0.05245 0.0
N175 N 0.95922 0.5858 0.03702 0.0
C176 C 0.89639 0.63457 0.99929 0.0
O177 O 0.90055 0.65534 0.0158 0.0
O178 O 0.02296 0.63203 0.09105 0.0
Zn179 Zn 0.92454 0.60571 0.04247 0.0
N180 N 0.98703 0.65345 0.04114 0.0
C181 C 0.97021 0.67061 0.99871 0.0
C182 C 0.97279 0.64941 0.01754 0.0
C183 C 0.99884 0.67809 0.04661 0.0
N184 N 0.98129 0.69536 1.00455 0.0
C185 C 0.99531 0.69983 0.02818 0.0
O186 O 0.92629 0.64262 0.06203 0.0
C187 C 0.93584 0.64901 0.08545 0.0
O188 O 0.95704 0.63719 0.09485 0.0
H189 H 0.96264 0.63033 0.01359 0.0
H190 H 0.00972 0.68109 0.06568 0.0
C191 C 0.87656 0.59616 0.07421 0.0
C192 C 0.86304 0.58783 0.09825 0.0
C193 C 0.89965 0.55737 0.10778 0.0
C194 C 0.91375 0.56697 0.08491 0.0
N195 N 0.90194 0.58608 0.06851 0.0
N196 N 0.87492 0.56829 0.11415 0.0
H197 H 0.86803 0.6121 0.06141 0.0
C198 C 0.02751 0.62429 0.11554 0.0
O199 O 0.01094 0.60641 0.12687 0.0
O200 O 0.90442 0.61078 1.00628 0.0
H201 H 0.93431 0.55991 0.08078 0.0
H202 H 0.95884 0.66765 0.97993 0.0
H203 H 0.90876 0.54213 0.12098 0.0
Zn204 Zn 0.87295 0.77489 0.19019 0.0
C205 C 0.81507 0.80007 0.24125 0.0
N206 N 0.8018 0.7769 0.23456 0.0
C207 C 0.81661 0.76701 0.21353 0.0
N208 N 0.83827 0.78333 0.20775 0.0
N209 N 0.83679 0.80455 0.22466 0.0
C210 C 0.8818 0.8553 0.26896 0.0
O211 O 0.89738 0.83409 0.26339 0.0
O212 O 0.87321 0.74065 0.16616 0.0
Zn213 Zn 0.85768 0.83833 0.21904 0.0
N214 N 0.89864 0.76774 0.21963 0.0
C215 C 0.90718 0.75693 0.26642 0.0
C216 C 0.88894 0.76209 0.24512 0.0
C217 C 0.926 0.76815 0.21457 0.0
N218 N 0.93447 0.75718 0.26134 0.0
C219 C 0.9444 0.76252 0.23587 0.0
O220 O 0.89576 0.8349 0.20263 0.0
C221 C 0.901 0.8269 0.17836 0.0
O222 O 0.88862 0.80639 0.16813 0.0
H223 H 0.86722 0.76142 0.24892 0.0
H224 H 0.93342 0.77263 0.19421 0.0
C225 C 0.84883 0.88609 0.18718 0.0
C226 C 0.84316 0.89902 0.16211 0.0
C227 C 0.81569 0.861 0.14925 0.0
C228 C 0.8229 0.84755 0.17331 0.0
N229 N 0.83965 0.86016 0.19156 0.0
N230 N 0.82638 0.88609 0.14399 0.0
H231 H 0.86199 0.89564 0.20222 0.0
C232 C 0.89349 0.73886 0.14978 0.0
O233 O 0.9107 0.75937 0.14785 0.0
O234 O 0.86188 0.86084 0.25322 0.0
H235 H 0.8162 0.82683 0.17687 0.0
H236 H 0.8997 0.75255 0.28681 0.0
H237 H 0.80259 0.85116 0.13436 0.0
Zn238 Zn 0.02332 0.88533 0.07018 0.0
C239 C 0.05046 0.9462 0.02378 0.0
N240 N 0.02795 0.96008 0.03127 0.0
C241 C 0.01675 0.94389 0.05054 0.0
N242 N 0.03162 0.92084 0.05449 0.0
N243 N 0.05323 0.92278 0.03818 0.0
C244 C 0.12293 0.87655 1.00437 0.0
O245 O 0.12839 0.86115 0.02569 0.0
O246 O 0.98769 0.88059 0.0907 0.0
Zn247 Zn 0.0866 0.90144 0.04287 0.0
N248 N 0.01941 0.86054 0.0398 0.0
C249 C 0.01172 0.85136 0.99258 0.0
C250 C 0.0154 0.86995 0.01393 0.0
C251 C 0.0191 0.83334 0.04536 0.0
N252 N 0.0113 0.82414 0.99813 0.0
C253 C 0.01464 0.81462 0.0241 0.0
O254 O 0.08352 0.86373 0.0606 0.0
C255 C 0.07471 0.85802 0.08447 0.0
O256 O 0.05349 0.86974 0.09403 0.0
H257 H 0.01461 0.89166 0.00996 0.0
H258 H 0.02171 0.82641 0.06625 0.0
C259 C 0.13503 0.91235 0.07418 0.0
C260 C 0.1475 0.91906 0.09922 0.0
C261 C 0.10867 0.94563 0.11119 0.0
C262 C 0.0956 0.93726 0.08731 0.0
N263 N 0.10886 0.92058 0.0694 0.0
N264 N 0.13402 0.93591 0.11685 0.0
H265 H 0.14516 0.89901 0.05973 0.0
C266 C 0.98481 0.88491 0.11617 0.0
O267 O 1.00396 0.89838 0.12941 0.0
O268 O 0.10617 0.89633 0.00671 0.0
H269 H 0.07463 0.94308 0.08373 0.0
H270 H 0.00876 0.85851 0.97183 0.0
H271 H 0.0983 0.95877 0.12569 0.0
Zn272 Zn 0.28788 0.15087 0.33758 0.0
C273 C 0.29622 0.19148 0.2663 0.0
N274 N 0.27607 0.20742 0.27621 0.0
C275 C 0.26829 0.19432 0.2991 0.0
N276 N 0.28346 0.17154 0.30343 0.0
N277 N 0.30044 0.16921 0.28231 0.0
C278 C 0.35552 0.11101 0.23739 0.0
O279 O 0.3541 0.09163 0.25591 0.0
O280 O 0.2527 0.14747 0.35873 0.0
Zn281 Zn 0.31613 0.13343 0.27371 0.0
N282 N 0.3151 0.16893 0.35988 0.0
C283 C 0.35724 0.19321 0.36089 0.0
C284 C 0.33341 0.18561 0.34727 0.0
C285 C 0.31935 0.15997 0.38594 0.0
N286 N 0.36229 0.18294 0.38619 0.0
C287 C 0.3442 0.16612 0.39912 0.0
O288 O 0.33772 0.11721 0.30512 0.0
C289 C 0.3282 0.10666 0.32693 0.0
O290 O 0.30421 0.11253 0.33532 0.0
H291 H 0.33006 0.19204 0.32642 0.0
H292 H 0.30435 0.14676 0.39548 0.0
C293 C 0.28792 0.08128 0.26599 0.0
C294 C 0.2655 0.06484 0.25854 0.0
C295 C 0.23889 0.10462 0.25127 0.0
C296 C 0.26122 0.1209 0.25832 0.0
N297 N 0.28537 0.10906 0.26551 0.0
N298 N 0.24155 0.07701 0.25137 0.0
H299 H 0.30717 0.07204 0.27175 0.0
C300 C 0.23648 0.12855 0.35135 0.0
O301 O 0.24254 0.11371 0.32974 0.0
O302 O 0.34121 0.13267 0.24031 0.0
H303 H 0.25929 0.14287 0.25774 0.0
H304 H 0.37212 0.20632 0.35105 0.0
H305 H 0.21964 0.1139 0.2455 0.0
Zn306 Zn 0.3854 0.44091 0.98967 0.0
C307 C 0.44643 0.48711 0.9622 0.0
N308 N 0.46032 0.47929 0.98458 0.0
C309 C 0.4439 0.4603 0.99583 0.0
N310 N 0.42072 0.45673 0.98103 0.0
N311 N 0.42266 0.47318 0.9595 0.0
C312 C 0.37137 0.51269 0.89586 0.0
O313 O 0.35293 0.49326 0.89372 0.0
O314 O 0.38118 0.41925 0.0247 0.0
Zn315 Zn 0.39896 0.47087 0.92703 0.0
N316 N 0.36067 0.47103 0.99478 0.0
C317 C 0.35117 0.5178 1.00439 0.0
C318 C 0.36992 0.49672 1.00005 0.0
C319 C 0.3335 0.46536 0.99438 0.0
N320 N 0.32396 0.51213 1.00404 0.0
C321 C 0.31461 0.48631 0.99936 0.0
O322 O 0.36156 0.45284 0.93138 0.0
C323 C 0.35675 0.42836 0.9389 0.0
O324 O 0.36945 0.41798 0.95913 0.0
H325 H 0.3916 0.50071 1.00131 0.0
H326 H 0.32671 0.44458 0.99078 0.0
C327 C 0.40539 0.44339 0.87574 0.0
C328 C 0.4125 0.42056 0.85974 0.0
C329 C 0.44226 0.4055 0.89502 0.0
C330 C 0.43396 0.42727 0.91143 0.0
N331 N 0.41585 0.44587 0.90147 0.0
N332 N 0.43112 0.40246 0.86977 0.0
H333 H 0.39044 0.45801 0.86852 0.0
C334 C 0.38449 0.39351 0.02615 0.0
O335 O 0.397 0.38078 1.00601 0.0
O336 O 0.39335 0.50809 0.90913 0.0
H337 H 0.44124 0.4288 0.93226 0.0
H338 H 0.35818 0.53841 0.00839 0.0
H339 H 0.45672 0.39058 0.90264 0.0
Zn340 Zn 0.72038 0.36176 0.3351 0.0
C341 C 0.71547 0.31926 0.26524 0.0
N342 N 0.73646 0.30435 0.27499 0.0
C343 C 0.74352 0.31772 0.29801 0.0
N344 N 0.7272 0.3397 0.30239 0.0
N345 N 0.71006 0.34107 0.2814 0.0
C346 C 0.64234 0.37203 0.23889 0.0
O347 O 0.63096 0.35589 0.25713 0.0
O348 O 0.75319 0.3647 0.35986 0.0
Zn349 Zn 0.69121 0.37551 0.27546 0.0
N350 N 0.69095 0.34392 0.35516 0.0
C351 C 0.6546 0.31142 0.35678 0.0
C352 C 0.67755 0.32232 0.34376 0.0
C353 C 0.68222 0.35496 0.3792 0.0
N354 N 0.64531 0.32316 0.38021 0.0
C355 C 0.65846 0.34484 0.39166 0.0
O356 O 0.66904 0.38733 0.30903 0.0
C357 C 0.68113 0.40432 0.32456 0.0
O358 O 0.70664 0.40113 0.32853 0.0
H359 H 0.68437 0.31379 0.32456 0.0
H360 H 0.69307 0.37198 0.3881 0.0
C361 C 0.71406 0.42981 0.26731 0.0
C362 C 0.73522 0.44871 0.26284 0.0
C363 C 0.76706 0.41223 0.26068 0.0
C364 C 0.74598 0.39354 0.26501 0.0
N365 N 0.71996 0.40261 0.26898 0.0
N366 N 0.76123 0.43933 0.25967 0.0
H367 H 0.69323 0.43678 0.26924 0.0
C368 C 0.76995 0.38411 0.35563 0.0
O369 O 0.7662 0.4003 0.33449 0.0
O370 O 0.66715 0.37926 0.24185 0.0
H371 H 0.75037 0.37195 0.26473 0.0
H372 H 0.6438 0.29424 0.34793 0.0
H373 H 0.78786 0.40522 0.25777 0.0
Zn374 Zn 0.62717 0.06772 0.98755 0.0
C375 C 0.568 0.01591 0.96672 0.0
N376 N 0.55677 0.02226 0.99104 0.0
C377 C 0.57142 0.044 0.99941 0.0
N378 N 0.5913 0.05052 0.98124 0.0
N379 N 0.58825 0.03377 0.96006 0.0
C380 C 0.63334 0.99493 0.90069 0.0
O381 O 0.65321 1.0028 0.91694 0.0
O382 O 0.63262 0.08847 0.02327 0.0
Zn383 Zn 0.60723 0.04095 0.92531 0.0
N384 N 0.65467 0.03911 0.9895 0.0
C385 C 0.67162 0.99497 0.97778 0.0
C386 C 0.65044 0.01399 0.97832 0.0
C387 C 0.67941 0.04588 1.00039 0.0
N388 N 0.69655 1.00213 0.98757 0.0
C389 C 0.70122 0.02728 0.99857 0.0
O390 O 0.64505 0.05801 0.92677 0.0
C391 C 0.65171 0.08174 0.93516 0.0
O392 O 0.64073 0.09181 0.9566 0.0
H393 H 0.63121 0.00891 0.96902 0.0
H394 H 0.68238 0.06596 0.00925 0.0
C395 C 0.60074 0.07668 0.8813 0.0
C396 C 0.58841 0.09613 0.86429 0.0
C397 C 0.5502 0.09753 0.89424 0.0
C398 C 0.56275 0.07834 0.91132 0.0
N399 N 0.58752 0.06791 0.90416 0.0
N400 N 0.56324 0.10595 0.87112 0.0
H401 H 0.62074 0.06849 0.8764 0.0
C402 C 0.62563 0.11297 0.02846 0.0
O403 O 0.60889 0.12569 0.0117 0.0
O404 O 0.61065 0.0076 0.90138 0.0
H405 H 0.55273 0.07162 0.9299 0.0
H406 H 0.66851 0.97492 0.96889 0.0
H407 H 0.53031 0.10577 0.8994 0.0
Zn408 Zn 0.29143 0.86167 0.17737 0.0
C409 C 0.29798 0.82061 0.24818 0.0
N410 N 0.27723 0.80521 0.23866 0.0
C411 C 0.26959 0.81826 0.2157 0.0
N412 N 0.28561 0.84049 0.21095 0.0
N413 N 0.30286 0.84246 0.23186 0.0
C414 C 0.36719 0.87893 0.27513 0.0
O415 O 0.37936 0.86774 0.2539 0.0
O416 O 0.25761 0.86505 0.15484 0.0
Zn417 Zn 0.31836 0.87842 0.2405 0.0
N418 N 0.31814 0.84333 0.15493 0.0
C419 C 0.35255 0.81014 0.14717 0.0
C420 C 0.33256 0.82144 0.16395 0.0
C421 C 0.32336 0.85502 0.13022 0.0
N422 N 0.35728 0.82136 0.1222 0.0
C423 C 0.34305 0.84339 0.11252 0.0
O424 O 0.34125 0.89454 0.20951 0.0
C425 C 0.33173 0.90523 0.18777 0.0
O426 O 0.3074 0.90009 0.18005 0.0
H427 H 0.32874 0.81306 0.18405 0.0
H428 H 0.31248 0.87348 0.12575 0.0
C429 C 0.28996 0.93026 0.24825 0.0
C430 C 0.26718 0.94659 0.25491 0.0
C431 C 0.24035 0.90665 0.26057 0.0
C432 C 0.26296 0.89052 0.25415 0.0
N433 N 0.28725 0.9025 0.24771 0.0
N434 N 0.24296 0.93427 0.26086 0.0
H435 H 0.30968 0.93946 0.24412 0.0
C436 C 0.24195 0.88528 0.1592 0.0
O437 O 0.24719 0.90186 0.17973 0.0
O438 O 0.34133 0.88168 0.27493 0.0
H439 H 0.26117 0.86853 0.25479 0.0
H440 H 0.36438 0.79272 0.15395 0.0
H441 H 0.22093 0.89728 0.2656 0.0
Zn442 Zn 0.10727 0.4689 0.08795 0.0
C443 C 0.06995 0.46288 0.01474 0.0
N444 N 0.05561 0.48491 0.02294 0.0
C445 C 0.06726 0.49157 0.04696 0.0
N446 N 0.0874 0.47367 0.05355 0.0
N447 N 0.09005 0.45647 0.03271 0.0
C448 C 0.12346 0.39434 0.98588 0.0
O449 O 0.10676 0.38225 1.00315 0.0
O450 O 0.11284 0.5057 0.10647 0.0
Zn451 Zn 0.12602 0.4396 0.02656 0.0
N452 N 0.08658 0.44479 0.11157 0.0
C453 C 0.04855 0.41617 0.12195 0.0
C454 C 0.06171 0.4345 0.10444 0.0
C455 C 0.09939 0.43649 0.13481 0.0
N456 N 0.06127 0.40806 0.14532 0.0
C457 C 0.08653 0.41762 0.15213 0.0
O458 O 0.13917 0.41513 0.05746 0.0
C459 C 0.15032 0.42523 0.0788 0.0
O460 O 0.1439 0.44904 0.08718 0.0
H461 H 0.05216 0.44055 0.08541 0.0
H462 H 0.11966 0.44413 0.13945 0.0
C463 C 0.1779 0.46289 0.01347 0.0
C464 C 0.19987 0.48117 0.0165 0.0
C465 C 0.17126 0.51114 0.0417 0.0
C466 C 0.1499 0.49242 0.03975 0.0
N467 N 0.15352 0.46858 0.02576 0.0
N468 N 0.19577 0.50498 0.03032 0.0
H469 H 0.18054 0.44375 1.00263 0.0
C470 C 0.13593 0.51155 0.11701 0.0
O471 O 0.15546 0.49314 0.11724 0.0
O472 O 0.13125 0.41872 0.99067 0.0
H473 H 0.1311 0.49675 0.0502 0.0
H474 H 0.0286 0.40809 0.1168 0.0
H475 H 0.16866 0.53009 0.05284 0.0
Zn476 Zn 0.71863 0.65196 0.17487 0.0
C477 C 0.71085 0.6943 0.24527 0.0
N478 N 0.73108 0.7099 0.23511 0.0
C479 C 0.73861 0.69641 0.21236 0.0
N480 N 0.72337 0.67359 0.20844 0.0
N481 N 0.70637 0.67187 0.22958 0.0
C482 C 0.63969 0.63792 0.27133 0.0
O483 O 0.62762 0.64249 0.24777 0.0
O484 O 0.75357 0.64747 0.15284 0.0
Zn485 Zn 0.68903 0.63721 0.23822 0.0
N486 N 0.69168 0.67031 0.15256 0.0
C487 C 0.65027 0.69579 0.15102 0.0
C488 C 0.67382 0.68773 0.16487 0.0
C489 C 0.68728 0.66111 0.12662 0.0
N490 N 0.64498 0.68521 0.12589 0.0
C491 C 0.66263 0.66766 0.11332 0.0
O492 O 0.66683 0.62064 0.20703 0.0
C493 C 0.67688 0.60886 0.18604 0.0
O494 O 0.7013 0.61395 0.17833 0.0
H495 H 0.67724 0.69443 0.18565 0.0
H496 H 0.70187 0.64725 0.11736 0.0
C497 C 0.71267 0.58428 0.2475 0.0
C498 C 0.73356 0.56599 0.25482 0.0
C499 C 0.76428 0.60319 0.25966 0.0
C500 C 0.74346 0.62133 0.25258 0.0
N501 N 0.71811 0.61158 0.24653 0.0
N502 N 0.75889 0.57597 0.2606 0.0
H503 H 0.69234 0.57691 0.24276 0.0
C504 C 0.76727 0.62553 0.15573 0.0
O505 O 0.75945 0.60753 0.17411 0.0
O506 O 0.66565 0.63743 0.2724 0.0
H507 H 0.74744 0.64304 0.25232 0.0
H508 H 0.63576 0.7095 0.1606 0.0
H509 H 0.78454 0.61068 0.26448 0.0
Zn510 Zn 0.90461 0.04417 0.08766 0.0
C511 C 0.94329 0.04735 0.01474 0.0
N512 N 0.95801 0.02621 0.02443 0.0
C513 C 0.94569 0.02043 0.04835 0.0
N514 N 0.92471 0.03775 0.05352 0.0
N515 N 0.92274 0.05422 0.03202 0.0
C516 C 0.88685 0.1186 0.98823 0.0
O517 O 0.89851 0.13129 0.00889 0.0
O518 O 0.90056 0.01046 0.11078 0.0
Zn519 Zn 0.88763 0.07095 0.0242 0.0
N520 N 0.92316 0.07193 0.10864 0.0
C521 C 0.94682 0.11441 0.10846 0.0
C522 C 0.93948 0.09014 0.09543 0.0
C523 C 0.91453 0.07657 0.13473 0.0
N524 N 0.93667 0.1199 0.13375 0.0
C525 C 0.9203 0.10181 0.14725 0.0
O526 O 0.87207 0.09411 0.05488 0.0
C527 C 0.86044 0.08438 0.07607 0.0
O528 O 0.86649 0.06062 0.08489 0.0
H529 H 0.94571 0.08637 0.07459 0.0
H530 H 0.90151 0.06166 0.1447 0.0
C531 C 0.83514 0.04661 0.01976 0.0
C532 C 0.81637 0.02549 0.01488 0.0
C533 C 0.85307 0.99429 0.00946 0.0
C534 C 0.87169 0.01548 0.01369 0.0
N535 N 0.86236 0.04112 0.01911 0.0
N536 N 0.82585 0.99976 0.01005 0.0
H537 H 0.82821 0.06732 0.02351 0.0
C538 C 0.88052 0.99476 0.10554 0.0
O539 O 0.86491 1.00008 0.08429 0.0
O540 O 0.88397 0.09278 0.98922 0.0
H541 H 0.89337 0.01155 0.0123 0.0
H542 H 0.95959 0.12926 0.09815 0.0
H543 H 0.8602 0.97373 1.00535 0.0
Zn544 Zn 0.27368 0.31812 0.13586 0.0
C545 C 0.29786 0.26916 0.19599 0.0
N546 N 0.27434 0.27604 0.20846 0.0
C547 C 0.26458 0.29629 0.19261 0.0
N548 N 0.28127 0.30146 0.17112 0.0
N549 N 0.30265 0.28489 0.17367 0.0
C550 C 0.3524 0.23914 0.12772 0.0
O551 O 0.33221 0.2461 0.11139 0.0
O552 O 0.23882 0.34041 0.13141 0.0
Zn553 Zn 0.33665 0.28935 0.15259 0.0
N554 N 0.26858 0.28834 0.11056 0.0
C555 C 0.2585 0.24166 0.10103 0.0
C556 C 0.26313 0.26268 0.11977 0.0
C557 C 0.26892 0.29403 0.08336 0.0
N558 N 0.25862 0.24737 0.07383 0.0
C559 C 0.26345 0.27315 0.06447 0.0
O560 O 0.33385 0.30648 0.11456 0.0
C561 C 0.32573 0.33063 0.10897 0.0
O562 O 0.30482 0.34078 0.12076 0.0
H563 H 0.26191 0.25865 0.14145 0.0
H564 H 0.27266 0.31478 0.07656 0.0
C565 C 0.38559 0.31959 0.16143 0.0
C566 C 0.39936 0.34423 0.16712 0.0
C567 C 0.36176 0.35828 0.19464 0.0
C568 C 0.34748 0.33471 0.18737 0.0
N569 N 0.35953 0.31602 0.17067 0.0
N570 N 0.38703 0.36271 0.18399 0.0
H571 H 0.39462 0.30432 0.14816 0.0
C572 C 0.23493 0.36521 0.13826 0.0
O573 O 0.25269 0.3774 0.15435 0.0
O574 O 0.3579 0.25416 0.14825 0.0
H575 H 0.32656 0.33195 0.19396 0.0
H576 H 0.25435 0.22108 0.10804 0.0
H577 H 0.3524 0.37348 0.20775 0.0
Zn578 Zn 0.3381 0.72675 0.36425 0.0
C579 C 0.27094 0.71008 0.31741 0.0
N580 N 0.28072 0.73007 0.3013 0.0
C581 C 0.30269 0.73911 0.31506 0.0
N582 N 0.30683 0.72471 0.33844 0.0
N583 N 0.28628 0.70694 0.34034 0.0
C584 C 0.24291 0.65047 0.39805 0.0
O585 O 0.26312 0.65129 0.41572 0.0
O586 O 0.3473 0.76533 0.37459 0.0
Zn587 Zn 0.27748 0.6908 0.37579 0.0
N588 N 0.37139 0.71302 0.34712 0.0
C589 C 0.40659 0.71538 0.3134 0.0
C590 C 0.38175 0.72473 0.32413 0.0
C591 C 0.38574 0.69333 0.36057 0.0
N592 N 0.42058 0.69532 0.32667 0.0
C593 C 0.41076 0.68419 0.35022 0.0
O594 O 0.30939 0.66905 0.39108 0.0
C595 C 0.32961 0.67968 0.40347 0.0
O596 O 0.33551 0.70483 0.40011 0.0
H597 H 0.37126 0.74167 0.31472 0.0
H598 H 0.37848 0.68548 0.37976 0.0
C599 C 0.26801 0.7187 0.42793 0.0
C600 C 0.26126 0.74143 0.44424 0.0
C601 C 0.25789 0.76885 0.40449 0.0
C602 C 0.26407 0.7462 0.38833 0.0
N603 N 0.26939 0.72158 0.40022 0.0
N604 N 0.25643 0.76594 0.43204 0.0
H605 H 0.27148 0.69893 0.43718 0.0
C606 C 0.36524 0.76768 0.39327 0.0
O607 O 0.3754 0.74555 0.40464 0.0
O608 O 0.24398 0.66562 0.3768 0.0
H609 H 0.26411 0.74824 0.36636 0.0
H610 H 0.41493 0.72438 0.29497 0.0
H611 H 0.2538 0.7885 0.39517 0.0
Zn612 Zn 0.97195 0.42175 0.90154 0.0
C613 C 0.96378 0.49283 0.94273 0.0
N614 N 0.9835 0.48244 0.95887 0.0
C615 C 0.99087 0.45942 0.94578 0.0
N616 N 0.97589 0.45552 0.92279 0.0
N617 N 0.9594 0.47697 0.92033 0.0
C618 C 0.90541 0.52075 0.86133 0.0
O619 O 0.90529 0.5001 0.84414 0.0
O620 O 0.00854 0.40373 0.89548 0.0
Zn621 Zn 0.94378 0.48508 0.88444 0.0
N622 N 0.94645 0.39808 0.92054 0.0
C623 C 0.90497 0.39631 0.94599 0.0
C624 C 0.92852 0.41022 0.93802 0.0
C625 C 0.94198 0.37222 0.91107 0.0
N626 N 0.89963 0.37133 0.93513 0.0
C627 C 0.91724 0.35893 0.91743 0.0
O628 O 0.92045 0.45404 0.86945 0.0
C629 C 0.92962 0.43222 0.85869 0.0
O630 O 0.95369 0.42396 0.86414 0.0
H631 H 0.93177 0.43103 0.9447 0.0
H632 H 0.95644 0.363 0.8971 0.0
C633 C 0.97183 0.49121 0.8318 0.0
C634 C 0.9945 0.4974 0.81514 0.0
C635 C 0.02201 0.50242 0.85468 0.0
C636 C 0.99941 0.49687 0.87118 0.0
N637 N 0.97474 0.49123 0.85958 0.0
N638 N 0.01903 0.50277 0.82708 0.0
H639 H 0.95212 0.48692 0.82273 0.0
C640 C 0.01095 0.38788 0.87494 0.0
O641 O 0.98949 0.38225 0.85981 0.0
O642 O 0.92044 0.51953 0.88263 0.0
H643 H 1.00156 0.4975 0.89315 0.0
H644 H 0.89043 0.40579 0.95975 0.0
H645 H 0.04171 0.50684 0.86377 0.0
Zn646 Zn 0.73568 0.82163 0.37625 0.0
C647 C 0.71218 0.77412 0.3141 0.0
N648 N 0.73584 0.78115 0.30205 0.0
C649 C 0.74562 0.80095 0.31846 0.0
N650 N 0.72902 0.80548 0.3402 0.0
N651 N 0.70735 0.78949 0.3367 0.0
C652 C 0.64793 0.74989 0.38715 0.0
O653 O 0.65402 0.7656 0.40807 0.0
O654 O 0.77199 0.84096 0.38243 0.0
Zn655 Zn 0.67314 0.79416 0.35747 0.0
N656 N 0.73535 0.79289 0.40371 0.0
C657 C 0.71848 0.7509 0.42177 0.0
C658 C 0.72093 0.76934 0.40019 0.0
C659 C 0.74766 0.79857 0.42807 0.0
N660 N 0.7298 0.75713 0.44634 0.0
C661 C 0.74407 0.78072 0.45026 0.0
O662 O 0.67489 0.8145 0.39407 0.0
C663 C 0.68423 0.83813 0.40005 0.0
O664 O 0.70586 0.84722 0.38871 0.0
H665 H 0.71055 0.76518 0.38125 0.0
H666 H 0.75897 0.81745 0.43051 0.0
C667 C 0.62398 0.82361 0.34783 0.0
C668 C 0.61033 0.84815 0.34148 0.0
C669 C 0.64726 0.86062 0.31238 0.0
C670 C 0.66156 0.83733 0.32039 0.0
N671 N 0.64974 0.81937 0.33803 0.0
N672 N 0.62231 0.86574 0.32349 0.0
H673 H 0.61531 0.80925 0.3623 0.0
C674 C 0.77542 0.86646 0.3787 0.0
O675 O 0.75682 0.88022 0.365 0.0
O676 O 0.65373 0.75781 0.363 0.0
H677 H 0.68237 0.83423 0.31356 0.0
H678 H 0.70697 0.73215 0.41926 0.0
H679 H 0.6564 0.87517 0.29842 0.0
Zn680 Zn 0.54229 0.58902 0.40388 0.0
C681 C 0.54922 0.51556 0.43957 0.0
N682 N 0.52937 0.52463 0.45638 0.0
C683 C 0.52259 0.54886 0.44548 0.0
N684 N 0.53784 0.55452 0.42316 0.0
N685 N 0.55388 0.53314 0.41863 0.0
C686 C 0.61876 0.49603 0.37027 0.0
O687 O 0.63134 0.51975 0.37065 0.0
O688 O 0.50646 0.61406 0.40603 0.0
Zn689 Zn 0.56978 0.52951 0.3821 0.0
N690 N 0.57249 0.60814 0.42114 0.0
C691 C 0.61353 0.60702 0.44737 0.0
C692 C 0.5896 0.59441 0.43826 0.0
C693 C 0.57817 0.63416 0.41314 0.0
N694 N 0.61986 0.63249 0.43825 0.0
C695 C 0.6028 0.64638 0.42121 0.0
O696 O 0.59141 0.5638 0.37064 0.0
C697 C 0.57865 0.58254 0.35769 0.0
O698 O 0.55366 0.58695 0.3635 0.0
H699 H 0.58507 0.57366 0.44435 0.0
H700 H 0.56415 0.6449 0.39992 0.0
C701 C 0.54301 0.51531 0.3313 0.0
C702 C 0.52267 0.51735 0.31113 0.0
C703 C 0.49399 0.54035 0.34253 0.0
C704 C 0.5148 0.53975 0.362 0.0
N705 N 0.53903 0.52724 0.35618 0.0
N706 N 0.49853 0.52958 0.31741 0.0
H707 H 0.56221 0.50561 0.32671 0.0
C708 C 0.48306 0.60544 0.39792 0.0
O709 O 0.50619 0.61557 0.40651 0.0
O710 O 0.59329 0.49491 0.37594 0.0
H711 H 0.51177 0.55027 0.38101 0.0
H712 H 0.62741 0.59631 0.46088 0.0
H713 H 0.47475 0.55023 0.34694 0.0
Zn714 Zn 0.17534 0.72206 0.6548 0.0
C715 C 0.24931 0.7164 0.69036 0.0
N716 N 0.24098 0.73742 0.70602 0.0
C717 C 0.21702 0.74479 0.69479 0.0
N718 N 0.21045 0.72803 0.67351 0.0
N719 N 0.23143 0.71117 0.66975 0.0
C720 C 0.27589 0.65071 0.6301 0.0
O721 O 0.25715 0.63774 0.64438 0.0
O722 O 0.15514 0.75804 0.65032 0.0
Zn723 Zn 0.23703 0.69634 0.63245 0.0
N724 N 0.154 0.6961 0.67634 0.0
C725 C 0.14738 0.66848 0.71596 0.0
C726 C 0.16252 0.68792 0.70157 0.0
C727 C 0.13168 0.68448 0.66436 0.0
N728 N 0.1249 0.65719 0.70416 0.0
C729 C 0.11667 0.6645 0.67857 0.0
O730 O 0.2067 0.67117 0.61938 0.0
C731 C 0.18402 0.67999 0.61012 0.0
O732 O 0.1747 0.70315 0.61755 0.0
H733 H 0.18086 0.69648 0.7105 0.0
H734 H 0.1259 0.69044 0.64381 0.0
C735 C 0.24324 0.72231 0.57953 0.0
C736 C 0.24416 0.74443 0.56108 0.0
C737 C 0.23339 0.77484 0.59721 0.0
C738 C 0.23215 0.7529 0.61534 0.0
N739 N 0.23749 0.72706 0.60646 0.0
N740 N 0.23935 0.77014 0.57054 0.0
H741 H 0.24689 0.70161 0.57255 0.0
C742 C 0.15418 0.76891 0.62668 0.0
O743 O 0.16615 0.75679 0.6059 0.0
O744 O 0.27283 0.67612 0.6254 0.0
H745 H 0.22672 0.75669 0.63618 0.0
H746 H 0.15368 0.66209 0.7362 0.0
H747 H 0.22929 0.79543 0.60424 0.0
Zn748 Zn 0.97379 0.58732 0.61111 0.0
C749 C 0.96463 0.5167 0.56932 0.0
N750 N 0.98498 0.52701 0.55388 0.0
C751 C 0.99261 0.54947 0.56775 0.0
N752 N 0.97733 0.55315 0.59049 0.0
N753 N 0.96019 0.53213 0.59207 0.0
C754 C 0.90371 0.48911 0.64931 0.0
O755 O 0.90499 0.50892 0.6674 0.0
O756 O 0.01052 0.60623 0.61608 0.0
Zn757 Zn 0.94385 0.52363 0.62756 0.0
N758 N 0.94834 0.61054 0.59158 0.0
C759 C 0.90751 0.61212 0.56514 0.0
C760 C 0.93088 0.59831 0.5737 0.0
C761 C 0.94349 0.63632 0.60104 0.0
N762 N 0.90184 0.63711 0.5758 0.0
C763 C 0.91893 0.64957 0.59395 0.0
O764 O 0.92214 0.55524 0.64354 0.0
C765 C 0.93109 0.57731 0.65403 0.0
O766 O 0.95477 0.58636 0.64806 0.0
H767 H 0.93441 0.57756 0.56705 0.0
H768 H 0.95753 0.64542 0.61555 0.0
C769 C 0.97092 0.51463 0.68036 0.0
C770 C 0.99283 0.50613 0.697 0.0
C771 C 0.02045 0.50063 0.65753 0.0
C772 C 0.99853 0.50835 0.64103 0.0
N773 N 0.97411 0.51514 0.65259 0.0
N774 N 0.01706 0.49946 0.68505 0.0
H775 H 0.95149 0.52012 0.6894 0.0
C776 C 0.02108 0.60639 0.63992 0.0
O777 O 0.00881 0.59329 0.65991 0.0
O778 O 0.91865 0.49036 0.62793 0.0
H779 H 1.00097 0.50849 0.61908 0.0
H780 H 0.89337 0.60259 0.55101 0.0
H781 H 0.03992 0.49519 0.64848 0.0
Zn782 Zn 0.04353 0.92763 0.61361 0.0
C783 C 0.0469 0.9985 0.57249 0.0
N784 N 0.02642 0.9884 0.55709 0.0
C785 C 0.01991 0.96492 0.56989 0.0
N786 N 0.03618 0.9605 0.5919 0.0
N787 N 0.05262 0.98198 0.59393 0.0
C788 C 0.1165 0.02669 0.62713 0.0
O789 O 0.12844 0.00908 0.61067 0.0
O790 O 0.01112 0.90266 0.61634 0.0
Zn791 Zn 0.06991 0.98823 0.62906 0.0
N792 N 0.07325 0.90807 0.5957 0.0
C793 C 0.11262 0.90952 0.56691 0.0
C794 C 0.08892 0.92168 0.57715 0.0
C795 C 0.08005 0.88234 0.60385 0.0
N796 N 0.12013 0.88444 0.57615 0.0
C797 C 0.10446 0.87053 0.59446 0.0
O798 O 0.09367 0.95606 0.64174 0.0
C799 C 0.08201 0.93882 0.65734 0.0
O800 O 0.0568 0.93375 0.65332 0.0
H801 H 0.0833 0.94195 0.57065 0.0
H802 H 0.06709 0.87145 0.61804 0.0
C803 C 0.04495 0.99383 0.68225 0.0
C804 C 0.02323 0.99758 0.70059 0.0
C805 C 0.99241 1.00033 0.66333 0.0
C806 C 0.01411 0.99681 0.64513 0.0
N807 N 0.0399 0.99295 0.65488 0.0
N808 N 0.99743 1.00068 0.69065 0.0
H809 H 0.06558 0.9919 0.68977 0.0
C810 C 0.99427 0.90728 0.63559 0.0
O811 O 0.9978 0.92884 0.65127 0.0
O812 O 0.09181 0.02284 0.63419 0.0
H813 H 0.01038 0.99764 0.62341 0.0
H814 H 0.12533 0.92023 0.55228 0.0
H815 H 0.9718 1.00316 0.6558 0.0
Zn816 Zn 0.63793 0.77283 0.82167 0.0
C817 C 0.69726 0.79914 0.77243 0.0
N818 N 0.71141 0.77717 0.78092 0.0
C819 C 0.6956 0.76694 0.80099 0.0
N820 N 0.67245 0.78176 0.80438 0.0
N821 N 0.67386 0.80246 0.78687 0.0
C822 C 0.62429 0.85233 0.74114 0.0
O823 O 0.60678 0.83371 0.74948 0.0
O824 O 0.63862 0.73991 0.84712 0.0
Zn825 Zn 0.65145 0.83555 0.79013 0.0
N826 N 0.61276 0.76325 0.79245 0.0
C827 C 0.6054 0.74824 0.74661 0.0
C828 C 0.62306 0.75623 0.76754 0.0
C829 C 0.58533 0.7626 0.79723 0.0
N830 N 0.57807 0.74746 0.75142 0.0
C831 C 0.56756 0.75435 0.77627 0.0
O832 O 0.61379 0.83243 0.808 0.0
C833 C 0.60878 0.82451 0.83235 0.0
O834 O 0.62157 0.80442 0.84274 0.0
H835 H 0.64486 0.75641 0.76399 0.0
H836 H 0.57741 0.76832 0.8171 0.0
C837 C 0.65976 0.88543 0.81841 0.0
C838 C 0.66671 0.90062 0.84179 0.0
C839 C 0.69599 0.86459 0.85608 0.0
C840 C 0.68757 0.84886 0.83385 0.0
N841 N 0.66954 0.85953 0.81557 0.0
N842 N 0.68504 0.88983 0.85978 0.0
H843 H 0.6452 0.89326 0.80367 0.0
C844 C 0.61817 0.73828 0.86325 0.0
O845 O 0.60038 0.75835 0.86417 0.0
O846 O 0.64631 0.85597 0.75451 0.0
H847 H 0.69462 0.82802 0.83175 0.0
H848 H 0.61337 0.7426 0.72672 0.0
H849 H 0.71029 0.85642 0.87087 0.0
Zn850 Zn 0.02249 0.12688 0.445 0.0
C851 C 0.04816 0.06752 0.49394 0.0
N852 N 0.02531 0.05392 0.48679 0.0
C853 C 0.01496 0.06924 0.46638 0.0
N854 N 0.03056 0.09158 0.46148 0.0
N855 N 0.05191 0.09 0.47816 0.0
C856 C 0.10413 0.13434 0.51964 0.0
O857 O 0.08251 0.14954 0.51469 0.0
O858 O 0.98707 0.13134 0.42409 0.0
Zn859 Zn 0.08566 0.11027 0.47041 0.0
N860 N 0.01823 0.15236 0.47495 0.0
C861 C 0.00902 0.16033 0.52214 0.0
C862 C 0.01297 0.14236 0.50037 0.0
C863 C 0.01847 0.17977 0.47011 0.0
N864 N 0.00939 0.18767 0.51741 0.0
C865 C 0.0139 0.19794 0.49191 0.0
O866 O 0.08162 0.14857 0.4544 0.0
C867 C 0.07527 0.1517 0.42939 0.0
O868 O 0.05313 0.14088 0.42093 0.0
H869 H 0.01134 0.1206 0.50365 0.0
H870 H 0.02157 0.18726 0.44949 0.0
C871 C 0.12925 0.1008 0.43227 0.0
C872 C 0.1416 0.0888 0.40925 0.0
C873 C 0.10601 0.05597 0.40747 0.0
C874 C 0.09331 0.0685 0.42975 0.0
N875 N 0.10524 0.09051 0.44192 0.0
N876 N 0.12973 0.0665 0.39758 0.0
H877 H 0.13822 0.1186 0.44184 0.0
C878 C 0.9836 0.12529 0.39906 0.0
O879 O 1.002 0.11018 0.38653 0.0
O880 O 0.10967 0.11459 0.50361 0.0
H881 H 0.074 0.06079 0.43716 0.0
H882 H 1.00507 0.15263 0.54252 0.0
H883 H 0.09679 0.03833 0.39775 0.0
Zn884 Zn 0.36126 0.67608 0.79238 0.0
C885 C 0.32245 0.74827 0.79512 0.0
N886 N 0.30778 0.73916 0.77366 0.0
C887 C 0.31965 0.71507 0.76764 0.0
N888 N 0.34052 0.70948 0.78508 0.0
N889 N 0.34269 0.73071 0.80189 0.0
C890 C 0.37508 0.77264 0.86976 0.0
O891 O 0.35938 0.75405 0.8812 0.0
O892 O 0.36434 0.65192 0.75937 0.0
Zn893 Zn 0.37726 0.73624 0.82094 0.0
N894 N 0.34213 0.65608 0.82101 0.0
C895 C 0.31153 0.6563 0.85899 0.0
C896 C 0.323 0.6693 0.83632 0.0
C897 C 0.34988 0.63009 0.82729 0.0
N898 N 0.32025 0.63087 0.86597 0.0
C899 C 0.33927 0.61736 0.85074 0.0
O900 O 0.38872 0.70311 0.84399 0.0
C901 C 0.40402 0.68558 0.83234 0.0
O902 O 0.40062 0.68129 0.80689 0.0
H903 H 0.31694 0.6899 0.83123 0.0
H904 H 0.36456 0.61959 0.81457 0.0
C905 C 0.43151 0.74318 0.79758 0.0
C906 C 0.45025 0.74704 0.77611 0.0
C907 C 0.41355 0.74892 0.74455 0.0
C908 C 0.39504 0.74523 0.76589 0.0
N909 N 0.40427 0.7417 0.79193 0.0
N910 N 0.44069 0.74977 0.75011 0.0
H911 H 0.4386 0.74162 0.81842 0.0
C912 C 0.38444 0.65626 0.74348 0.0
O913 O 0.40089 0.67695 0.74843 0.0
O914 O 0.38162 0.77015 0.84466 0.0
H915 H 0.37345 0.74568 0.76164 0.0
H916 H 0.29638 0.66663 0.8714 0.0
H917 H 0.40638 0.75149 0.72375 0.0
Zn918 Zn 0.92645 0.40131 0.47155 0.0
C919 C 0.99693 0.44274 0.46285 0.0
N920 N 0.98657 0.45935 0.48223 0.0
C921 C 0.96381 0.44618 0.49029 0.0
N922 N 0.96018 0.42259 0.47615 0.0
N923 N 0.98155 0.41999 0.45954 0.0
C924 C 0.02752 0.38992 0.39592 0.0
O925 O 0.00795 0.40446 0.3846 0.0
O926 O 0.90411 0.39827 0.5064 0.0
Zn927 Zn 0.99074 0.38456 0.44403 0.0
N928 N 0.90482 0.41916 0.44372 0.0
C929 C 0.90459 0.44329 0.40148 0.0
C930 C 0.91782 0.43571 0.42553 0.0
C931 C 0.87877 0.41036 0.43914 0.0
N932 N 0.87927 0.43324 0.39615 0.0
C933 C 0.86597 0.41659 0.41413 0.0
O934 O 0.96009 0.36769 0.42187 0.0
C935 C 0.93847 0.35671 0.43139 0.0
O936 O 0.92958 0.36283 0.45519 0.0
H937 H 0.93869 0.44203 0.42907 0.0
H938 H 0.86893 0.39724 0.45403 0.0
C939 C 0.99943 0.33284 0.47 0.0
C940 C 0.00616 0.31538 0.49175 0.0
C941 C 0.00948 0.35359 0.52139 0.0
C942 C 1.00304 0.37094 0.4997 0.0
N943 N 0.998 0.36027 0.47447 0.0
N944 N 0.0109 0.32622 0.51695 0.0
H945 H 0.99561 0.32477 0.44971 0.0
C946 C 0.90901 0.37826 0.52229 0.0
O947 O 0.92916 0.36147 0.51636 0.0
O948 O 0.02517 0.38242 0.42071 0.0
H949 H 1.00265 0.39279 0.50285 0.0
H950 H 0.91473 0.45627 0.38668 0.0
H951 H 0.01352 0.36183 0.54155 0.0
Zn952 Zn 0.64721 0.1777 0.72334 0.0
C953 C 0.69178 0.24643 0.71403 0.0
N954 N 0.70628 0.23756 0.73569 0.0
C955 C 0.69265 0.21503 0.7436 0.0
N956 N 0.67083 0.21007 0.72718 0.0
N957 N 0.67002 0.23013 0.70887 0.0
C958 C 0.6425 0.28446 0.64781 0.0
O959 O 0.66933 0.28489 0.64677 0.0
O960 O 0.63825 0.15984 0.75952 0.0
Zn961 Zn 0.636 0.23483 0.68869 0.0
N962 N 0.66489 0.15291 0.69743 0.0
C963 C 0.69544 0.14816 0.65966 0.0
C964 C 0.68517 0.1634 0.68147 0.0
C965 C 0.65434 0.12764 0.69216 0.0
N966 N 0.6842 0.12347 0.65383 0.0
C967 C 0.66379 0.11279 0.66944 0.0
O968 O 0.62512 0.20014 0.66798 0.0
C969 C 0.60781 0.18536 0.6805 0.0
O970 O 0.60934 0.18416 0.70643 0.0
H971 H 0.69296 0.18372 0.6852 0.0
H972 H 0.63816 0.11957 0.7048 0.0
C973 C 0.58166 0.24111 0.71072 0.0
C974 C 0.56238 0.2479 0.73083 0.0
C975 C 0.59816 0.25558 0.76254 0.0
C976 C 0.61731 0.2496 0.74227 0.0
N977 N 0.60878 0.24206 0.71686 0.0
N978 N 0.57113 0.25469 0.75637 0.0
H979 H 0.5751 0.23585 0.69031 0.0
C980 C 0.6465 0.13709 0.76903 0.0
O981 O 0.6657 0.12333 0.75618 0.0
O982 O 0.6302 0.26686 0.6625 0.0
H983 H 0.63881 0.25149 0.74673 0.0
H984 H 0.71156 0.15632 0.64685 0.0
H985 H 0.60473 0.26137 0.78289 0.0
Zn986 Zn 0.48649 0.12656 0.57079 0.0
C987 C 0.46099 0.06634 0.52289 0.0
N988 N 0.48416 0.0534 0.53008 0.0
C989 C 0.49421 0.06935 0.55015 0.0
N990 N 0.4781 0.09135 0.5548 0.0
N991 N 0.45679 0.08904 0.53816 0.0
C992 C 0.40264 0.13243 0.49473 0.0
O993 O 0.42285 0.14945 0.49977 0.0
O994 O 0.52148 0.1286 0.59312 0.0
Zn995 Zn 0.42277 0.10916 0.54399 0.0
N996 N 0.49255 0.15115 0.54045 0.0
C997 C 0.50343 0.15922 0.4936 0.0
C998 C 0.49814 0.14117 0.51505 0.0
C999 C 0.49231 0.17851 0.5453 0.0
N1000 N 0.50364 0.18655 0.49856 0.0
C1001 C 0.49842 0.19665 0.52399 0.0
O1002 O 0.42522 0.14757 0.56006 0.0
C1003 C 0.43435 0.15426 0.58357 0.0
O1004 O 0.45582 0.14318 0.59326 0.0
H1005 H 0.49889 0.11938 0.51152 0.0
H1006 H 0.48783 0.18607 0.56561 0.0
C1007 C 0.37633 0.09895 0.57676 0.0
C1008 C 0.36416 0.09349 0.60222 0.0
C1009 C 0.40319 0.06743 0.61481 0.0
C1010 C 0.41593 0.07455 0.59031 0.0
N1011 N 0.40243 0.09057 0.57205 0.0
N1012 N 0.37792 0.0775 0.62043 0.0
H1013 H 0.36611 0.11161 0.56173 0.0
C1014 C 0.52076 0.13133 0.61901 0.0
O1015 O 0.49737 0.12859 0.63194 0.0
O1016 O 0.39907 0.11204 0.51045 0.0
H1017 H 0.4368 0.06844 0.58649 0.0
H1018 H 0.50778 0.15157 0.47327 0.0
H1019 H 0.41373 0.05495 0.62974 0.0
Zn1020 Zn 0.37427 0.27845 0.68949 0.0
C1021 C 0.31425 0.30006 0.74001 0.0
N1022 N 0.30282 0.27584 0.73379 0.0
C1023 C 0.31811 0.26684 0.71275 0.0
N1024 N 0.33862 0.28448 0.70669 0.0
N1025 N 0.33533 0.30599 0.72297 0.0
C1026 C 0.38015 0.36731 0.76147 0.0
O1027 O 0.40102 0.3533 0.752 0.0
O1028 O 0.38 0.24252 0.66949 0.0
Zn1029 Zn 0.35408 0.34102 0.71609 0.0
N1030 N 0.40194 0.27748 0.71784 0.0
C1031 C 0.42029 0.29172 0.76067 0.0
C1032 C 0.39866 0.29064 0.74215 0.0
C1033 C 0.42612 0.26532 0.71132 0.0
N1034 N 0.44469 0.2805 0.7537 0.0
C1035 C 0.44836 0.26764 0.72927 0.0
O1036 O 0.39176 0.33971 0.698 0.0
C1037 C 0.39839 0.33055 0.67445 0.0
O1038 O 0.38713 0.30907 0.66482 0.0
H1039 H 0.37991 0.3011 0.74684 0.0
H1040 H 0.42841 0.25514 0.69177 0.0
C1041 C 0.34288 0.38694 0.68301 0.0
C1042 C 0.3371 0.39867 0.6574 0.0
C1043 C 0.31059 0.35953 0.64601 0.0
C1044 C 0.31804 0.34721 0.67062 0.0
N1045 N 0.33441 0.36097 0.68837 0.0
N1046 N 0.32073 0.38463 0.63973 0.0
H1047 H 0.35601 0.39731 0.69754 0.0
C1048 C 0.37551 0.2387 0.64416 0.0
O1049 O 0.36131 0.25699 0.63051 0.0
O1050 O 0.35703 0.36504 0.74973 0.0
H1051 H 0.31195 0.32642 0.67495 0.0
H1052 H 0.41797 0.30213 0.78009 0.0
H1053 H 0.29781 0.34876 0.63148 0.0
Zn1054 Zn 0.52444 0.38616 0.56814 0.0
C1055 C 0.54751 0.44686 0.51793 0.0
N1056 N 0.52409 0.45903 0.52554 0.0
C1057 C 0.5153 0.44371 0.54657 0.0
N1058 N 0.53229 0.42234 0.55153 0.0
N1059 N 0.55338 0.42521 0.53448 0.0
C1060 C 0.601 0.39281 0.48317 0.0
O1061 O 0.57442 0.39233 0.47993 0.0
O1062 O 0.48875 0.38122 0.58907 0.0
Zn1063 Zn 0.58879 0.40634 0.54094 0.0
N1064 N 0.52147 0.359 0.53939 0.0
C1065 C 0.52841 0.34518 0.49319 0.0
C1066 C 0.52819 0.36542 0.51325 0.0
C1067 C 0.51394 0.33307 0.54621 0.0
N1068 N 0.52185 0.31916 0.50014 0.0
C1069 C 0.51473 0.31241 0.52621 0.0
O1070 O 0.58816 0.36996 0.56125 0.0
C1071 C 0.57763 0.36191 0.58376 0.0
O1072 O 0.55461 0.37111 0.59187 0.0
H1073 H 0.53359 0.38595 0.50814 0.0
H1074 H 0.50815 0.32847 0.56711 0.0
C1075 C 0.63459 0.41587 0.57591 0.0
C1076 C 0.65015 0.42928 0.59607 0.0
C1077 C 0.61834 0.46594 0.59568 0.0
C1078 C 0.60253 0.45221 0.57624 0.0
N1079 N 0.61115 0.42764 0.56637 0.0
N1080 N 0.64163 0.45416 0.60525 0.0
H1081 H 0.64062 0.39589 0.56846 0.0
C1082 C 0.48337 0.38865 0.61342 0.0
O1083 O 0.49998 0.40568 0.62596 0.0
O1084 O 0.61106 0.39964 0.50619 0.0
H1085 H 0.58353 0.46103 0.56911 0.0
H1086 H 0.5339 0.35005 0.47229 0.0
H1087 H 0.61188 0.48563 0.60349 0.0
Zn1088 Zn 0.79507 0.65215 0.83529 0.0
C1089 C 0.7999 0.69304 0.76379 0.0
N1090 N 0.77999 0.70915 0.77383 0.0
C1091 C 0.77336 0.69688 0.79754 0.0
N1092 N 0.78907 0.67451 0.80214 0.0
N1093 N 0.80487 0.67147 0.78031 0.0
C1094 C 0.86543 0.63854 0.73282 0.0
O1095 O 0.87664 0.65762 0.7481 0.0
O1096 O 0.76032 0.64686 0.85745 0.0
Zn1097 Zn 0.82169 0.63614 0.77463 0.0
N1098 N 0.82208 0.67107 0.85747 0.0
C1099 C 0.86174 0.69935 0.85907 0.0
C1100 C 0.83893 0.68945 0.84509 0.0
C1101 C 0.82696 0.66254 0.88354 0.0
N1102 N 0.86753 0.68951 0.8844 0.0
C1103 C 0.8508 0.67117 0.89699 0.0
O1104 O 0.84791 0.62715 0.80542 0.0
C1105 C 0.83799 0.61127 0.82343 0.0
O1106 O 0.81294 0.61399 0.83002 0.0
H1107 H 0.83512 0.69581 0.82428 0.0
H1108 H 0.81326 0.64804 0.89311 0.0
C1109 C 0.79821 0.58314 0.76431 0.0
C1110 C 0.77845 0.5624 0.76602 0.0
C1111 C 0.74766 0.59339 0.78678 0.0
C1112 C 0.76767 0.61366 0.78607 0.0
N1113 N 0.79261 0.60836 0.77479 0.0
N1114 N 0.7536 0.56812 0.77709 0.0
H1115 H 0.81801 0.57896 0.75539 0.0
C1116 C 0.75136 0.62269 0.86133 0.0
O1117 O 0.76437 0.60185 0.85051 0.0
O1118 O 0.8418 0.6296 0.73889 0.0
H1119 H 0.76332 0.63301 0.79532 0.0
H1120 H 0.87538 0.71387 0.84941 0.0
H1121 H 0.72785 0.59747 0.79581 0.0
Zn1122 Zn 0.88673 0.94177 0.48912 0.0
C1123 C 0.94644 0.99017 0.46366 0.0
N1124 N 0.95985 0.9831 0.48661 0.0
C1125 C 0.94442 0.96278 0.49692 0.0
N1126 N 0.92219 0.95781 0.48107 0.0
N1127 N 0.924 0.97445 0.45968 0.0
C1128 C 0.87833 0.01794 0.40794 0.0
O1129 O 0.86229 0.0122 0.42878 0.0
O1130 O 0.88257 0.92047 0.52419 0.0
Zn1131 Zn 0.90303 0.96864 0.42585 0.0
N1132 N 0.86178 0.97189 0.49415 0.0
C1133 C 0.85299 0.01874 0.50411 0.0
C1134 C 0.87138 0.99743 0.49952 0.0
C1135 C 0.8345 0.96658 0.49398 0.0
N1136 N 0.82572 0.01345 0.50403 0.0
C1137 C 0.81595 0.9878 0.49935 0.0
O1138 O 0.86492 0.95197 0.42888 0.0
C1139 C 0.85906 0.92813 0.43764 0.0
O1140 O 0.87089 0.91842 0.45872 0.0
H1141 H 0.89311 1.00114 0.5007 0.0
H1142 H 0.82736 0.94592 0.49038 0.0
C1143 C 0.91243 0.93648 0.3783 0.0
C1144 C 0.9184 0.91137 0.36556 0.0
C1145 C 0.94558 0.89896 0.40392 0.0
C1146 C 0.93813 0.92309 0.41715 0.0
N1147 N 0.92138 0.94113 0.40428 0.0
N1148 N 0.93518 0.89345 0.37876 0.0
H1149 H 0.89914 0.95128 0.36857 0.0
C1150 C 0.88592 0.89476 0.52579 0.0
O1151 O 0.89827 0.88187 0.50566 0.0
O1152 O 0.89874 1.0026 0.40305 0.0
H1153 H 0.94461 0.92681 0.43793 0.0
H1154 H 0.86033 0.03923 0.50817 0.0
H1155 H 0.95868 0.88424 0.41399 0.0
Zn1156 Zn 0.19131 0.8766 0.77966 0.0
C1157 C 0.2427 0.81621 0.79954 0.0
N1158 N 0.23555 0.80492 0.77553 0.0
C1159 C 0.21443 0.82043 0.76721 0.0
N1160 N 0.20917 0.84108 0.78492 0.0
N1161 N 0.22618 0.83759 0.80579 0.0
C1162 C 0.26379 0.8805 0.87441 0.0
O1163 O 0.24338 0.89684 0.8806 0.0
O1164 O 0.16706 0.88037 0.7456 0.0
Zn1165 Zn 0.22248 0.85682 0.84051 0.0
N1166 N 0.21997 0.90393 0.77527 0.0
C1167 C 0.26393 0.92144 0.78695 0.0
C1168 C 0.24458 0.90056 0.78784 0.0
C1169 C 0.21397 0.92762 0.7619 0.0
N1170 N 0.25743 0.94543 0.77476 0.0
C1171 C 0.23275 0.94935 0.76256 0.0
O1172 O 0.20608 0.89495 0.83964 0.0
C1173 C 0.18163 0.90108 0.83329 0.0
O1174 O 0.16997 0.88982 0.81287 0.0
H1175 H 0.249 0.88231 0.79925 0.0
H1176 H 0.19431 0.93002 0.75211 0.0
C1177 C 0.18757 0.84878 0.8867 0.0
C1178 C 0.1686 0.83497 0.90332 0.0
C1179 C 0.16872 0.79786 0.872 0.0
C1180 C 0.18724 0.81182 0.85538 0.0
N1181 N 0.19694 0.83665 0.86343 0.0
N1182 N 0.15987 0.80968 0.89555 0.0
H1183 H 0.19466 0.86905 0.89213 0.0
C1184 C 0.14243 0.8887 0.74787 0.0
O1185 O 0.1314 0.89088 0.77228 0.0
O1186 O 0.25961 0.8602 0.85863 0.0
H1187 H 0.19403 0.80278 0.83635 0.0
H1188 H 0.28363 0.91904 0.79663 0.0
H1189 H 0.16122 0.77788 0.86611 0.0
Zn1190 Zn 0.12694 0.57105 0.48846 0.0
C1191 C 0.06869 0.51855 0.46814 0.0
N1192 N 0.05671 0.52548 0.49195 0.0
C1193 C 0.07169 0.54688 0.50054 0.0
N1194 N 0.09222 0.55262 0.483 0.0
N1195 N 0.08976 0.5356 0.46199 0.0
C1196 C 0.12332 0.48506 0.41268 0.0
O1197 O 0.12432 0.47978 0.439 0.0
O1198 O 0.13205 0.59354 0.52321 0.0
Zn1199 Zn 0.11158 0.54209 0.42857 0.0
N1200 N 0.15496 0.54253 0.49164 0.0
C1201 C 0.16716 0.49528 0.48976 0.0
C1202 C 0.14763 0.51593 0.4882 0.0
C1203 C 0.18143 0.54917 0.49723 0.0
N1204 N 0.19358 0.502 0.49457 0.0
C1205 C 0.20128 0.52846 0.49819 0.0
O1206 O 0.15053 0.55788 0.43431 0.0
C1207 C 0.15324 0.58337 0.43907 0.0
O1208 O 0.1366 0.59461 0.45562 0.0
H1209 H 0.12688 0.51066 0.48418 0.0
H1210 H 0.18714 0.57021 0.50069 0.0
C1211 C 0.10323 0.57727 0.38195 0.0
C1212 C 0.09264 0.60018 0.36824 0.0
C1213 C 0.06085 0.60669 0.40431 0.0
C1214 C 0.07219 0.58462 0.41841 0.0
N1215 N 0.09323 0.57034 0.40706 0.0
N1216 N 0.07151 0.61418 0.37974 0.0
H1217 H 0.11958 0.56549 0.37294 0.0
C1218 C 0.12329 0.61747 0.52836 0.0
O1219 O 0.10512 0.62869 0.51203 0.0
O1220 O 0.11666 0.50881 0.40454 0.0
H1221 H 0.0644 0.57905 0.43833 0.0
H1222 H 0.1614 0.47409 0.48695 0.0
H1223 H 0.04408 0.61817 0.41311 0.0
Zn1224 Zn 0.79151 0.36105 0.6768 0.0
C1225 C 0.79609 0.31783 0.74704 0.0
N1226 N 0.77584 0.30252 0.73642 0.0
C1227 C 0.76913 0.31609 0.71341 0.0
N1228 N 0.78492 0.33856 0.70978 0.0
N1229 N 0.80141 0.33994 0.73131 0.0
C1230 C 0.86514 0.3701 0.77932 0.0
O1231 O 0.87615 0.35054 0.7645 0.0
O1232 O 0.75731 0.36638 0.65328 0.0
Zn1233 Zn 0.81984 0.37411 0.73781 0.0
N1234 N 0.81962 0.34213 0.65542 0.0
C1235 C 0.85631 0.30995 0.65462 0.0
C1236 C 0.83386 0.32165 0.66778 0.0
C1237 C 0.82722 0.35142 0.63022 0.0
N1238 N 0.86449 0.31997 0.63005 0.0
C1239 C 0.85071 0.34065 0.61759 0.0
O1240 O 0.84401 0.38427 0.70559 0.0
C1241 C 0.83376 0.40123 0.6888 0.0
O1242 O 0.80834 0.39939 0.68336 0.0
H1243 H 0.82807 0.31461 0.68787 0.0
H1244 H 0.8157 0.36752 0.62046 0.0
C1245 C 0.79706 0.42831 0.7415 0.0
C1246 C 0.77662 0.44747 0.74745 0.0
C1247 C 0.74437 0.4116 0.75186 0.0
C1248 C 0.76501 0.39251 0.74706 0.0
N1249 N 0.79092 0.40117 0.74164 0.0
N1250 N 0.75066 0.43864 0.75219 0.0
H1251 H 0.81777 0.435 0.73797 0.0
C1252 C 0.74346 0.38828 0.65611 0.0
O1253 O 0.75068 0.40603 0.67497 0.0
O1254 O 0.84181 0.37951 0.7728 0.0
H1255 H 0.76047 0.37096 0.74836 0.0
H1256 H 0.86766 0.29359 0.66426 0.0
H1257 H 0.72367 0.40495 0.75601 0.0
Zn1258 Zn 0.60527 0.96948 0.58756 0.0
C1259 C 0.57107 0.96789 0.51231 0.0
N1260 N 0.55498 0.98802 0.52188 0.0
C1261 C 0.56535 0.99303 0.54683 0.0
N1262 N 0.58652 0.97611 0.55262 0.0
N1263 N 0.59088 0.96112 0.53041 0.0
C1264 C 0.62589 0.90107 0.48319 0.0
O1265 O 0.60895 0.88872 0.50005 0.0
O1266 O 0.60808 1.00477 0.60936 0.0
Zn1267 Zn 0.62677 0.94487 0.52447 0.0
N1268 N 0.58537 0.94217 0.60824 0.0
C1269 C 0.55736 0.90236 0.60806 0.0
C1270 C 0.56689 0.92596 0.5952 0.0
C1271 C 0.59473 0.93572 0.63369 0.0
N1272 N 0.56772 0.89519 0.63283 0.0
C1273 C 0.58655 0.911 0.64593 0.0
O1274 O 0.6383 0.91902 0.55421 0.0
C1275 C 0.64971 0.92801 0.57585 0.0
O1276 O 0.64279 0.95102 0.58605 0.0
H1277 H 0.56031 0.93084 0.57466 0.0
H1278 H 0.6101 0.9485 0.64324 0.0
C1279 C 0.67899 0.9681 0.5141 0.0
C1280 C 0.70098 0.986 0.51852 0.0
C1281 C 0.67201 0.01487 0.54464 0.0
C1282 C 0.65055 0.99644 0.54124 0.0
N1283 N 0.65436 0.97343 0.526 0.0
N1284 N 0.69676 0.00912 0.53346 0.0
H1285 H 0.68182 0.94939 0.50257 0.0
C1286 C 0.6305 0.01115 0.62098 0.0
O1287 O 0.65132 0.99424 0.61969 0.0
O1288 O 0.63313 0.92554 0.48818 0.0
H1289 H 0.63149 1.00009 0.55158 0.0
H1290 H 0.54265 0.88925 0.59796 0.0
H1291 H 0.66926 0.03319 0.55678 0.0
Zn1292 Zn 0.2187 0.15407 0.67517 0.0
C1293 C 0.21696 0.19022 0.7492 0.0
N1294 N 0.23797 0.20526 0.73972 0.0
C1295 C 0.24318 0.19398 0.71518 0.0
N1296 N 0.22568 0.17321 0.70959 0.0
N1297 N 0.20967 0.17035 0.73137 0.0
C1298 C 0.14444 0.12879 0.77303 0.0
O1299 O 0.13185 0.13406 0.74988 0.0
O1300 O 0.2521 0.15057 0.65192 0.0
Zn1301 Zn 0.19276 0.1351 0.73881 0.0
N1302 N 0.1904 0.17266 0.65502 0.0
C1303 C 0.1475 0.19549 0.65625 0.0
C1304 C 0.17206 0.18834 0.66882 0.0
C1305 C 0.18557 0.16441 0.62884 0.0
N1306 N 0.14188 0.18574 0.63083 0.0
C1307 C 0.16008 0.16996 0.61677 0.0
O1308 O 0.16975 0.12001 0.70777 0.0
C1309 C 0.17941 0.10914 0.68614 0.0
O1310 O 0.20299 0.11574 0.67727 0.0
H1311 H 0.17593 0.19418 0.6898 0.0
H1312 H 0.20058 0.15186 0.61843 0.0
C1313 C 0.21754 0.08256 0.74061 0.0
C1314 C 0.23855 0.06366 0.74519 0.0
C1315 C 0.26961 0.10014 0.75236 0.0
C1316 C 0.24838 0.11888 0.74883 0.0
N1317 N 0.22278 0.10973 0.74291 0.0
N1318 N 0.26419 0.07294 0.75077 0.0
H1319 H 0.19709 0.07565 0.73581 0.0
C1320 C 0.26806 0.13104 0.65807 0.0
O1321 O 0.26287 0.11622 0.67992 0.0
O1322 O 0.17038 0.13123 0.77416 0.0
H1323 H 0.25226 0.1405 0.75104 0.0
H1324 H 0.13255 0.20776 0.66702 0.0
H1325 H 0.29011 0.10715 0.75692 0.0
Zn1326 Zn 0.40268 0.54411 0.58616 0.0
C1327 C 0.44507 0.55102 0.51619 0.0
N1328 N 0.46029 0.53033 0.5261 0.0
C1329 C 0.44659 0.52276 0.54873 0.0
N1330 N 0.42408 0.5385 0.55272 0.0
N1331 N 0.42274 0.55574 0.53177 0.0
C1332 C 0.3969 0.61618 0.47851 0.0
O1333 O 0.41965 0.62475 0.48996 0.0
O1334 O 0.39673 0.50975 0.60787 0.0
Zn1335 Zn 0.38799 0.57275 0.52285 0.0
N1336 N 0.42195 0.57032 0.60832 0.0
C1337 C 0.44808 0.6113 0.60988 0.0
C1338 C 0.43966 0.58787 0.59602 0.0
C1339 C 0.41281 0.57483 0.63423 0.0
N1340 N 0.43757 0.61674 0.63502 0.0
C1341 C 0.41975 0.59934 0.64754 0.0
O1342 O 0.37186 0.59571 0.55332 0.0
C1343 C 0.35972 0.58628 0.57433 0.0
O1344 O 0.36518 0.56243 0.58335 0.0
H1345 H 0.44628 0.58434 0.57524 0.0
H1346 H 0.3986 0.56053 0.64342 0.0
C1347 C 0.33583 0.54848 0.51587 0.0
C1348 C 0.31742 0.52757 0.50923 0.0
C1349 C 0.35434 0.49658 0.50439 0.0
C1350 C 0.37267 0.51754 0.51052 0.0
N1351 N 0.36304 0.54299 0.51636 0.0
N1352 N 0.32713 0.50205 0.50382 0.0
H1353 H 0.32867 0.56902 0.52005 0.0
C1354 C 0.37627 0.49496 0.60164 0.0
O1355 O 0.36141 0.5015 0.5802 0.0
O1356 O 0.3843 0.5957 0.48834 0.0
H1357 H 0.39439 0.51364 0.51005 0.0
H1358 H 0.46202 0.6256 0.60033 0.0
H1359 H 0.36169 0.4762 0.4998 0.0
Zn1360 Zn 0.77528 0.82214 0.63739 0.0
C1361 C 0.7993 0.76998 0.69448 0.0
N1362 N 0.77589 0.77637 0.70746 0.0
C1363 C 0.76636 0.79772 0.69294 0.0
N1364 N 0.78314 0.80397 0.67178 0.0
N1365 N 0.80425 0.78697 0.67325 0.0
C1366 C 0.8581 0.74338 0.62886 0.0
O1367 O 0.83835 0.74898 0.6115 0.0
O1368 O 0.74127 0.8465 0.63732 0.0
Zn1369 Zn 0.83831 0.79252 0.65306 0.0
N1370 N 0.76797 0.79323 0.61126 0.0
C1371 C 0.75626 0.74692 0.60154 0.0
C1372 C 0.76184 0.76765 0.62033 0.0
C1373 C 0.76872 0.7989 0.58404 0.0
N1374 N 0.75662 0.75269 0.57437 0.0
C1375 C 0.76254 0.77825 0.56507 0.0
O1376 O 0.83533 0.80885 0.61494 0.0
C1377 C 0.82756 0.83315 0.60962 0.0
O1378 O 0.80724 0.84372 0.62206 0.0
H1379 H 0.7611 0.76333 0.64197 0.0
H1380 H 0.77373 0.81932 0.57717 0.0
C1381 C 0.88607 0.82363 0.66337 0.0
C1382 C 0.89934 0.84839 0.66944 0.0
C1383 C 0.8607 0.86216 0.69561 0.0
C1384 C 0.84693 0.83845 0.68788 0.0
N1385 N 0.85972 0.81991 0.67158 0.0
N1386 N 0.88628 0.86682 0.68581 0.0
H1387 H 0.89576 0.80834 0.6506 0.0
C1388 C 0.73963 0.8633 0.6174 0.0
O1389 O 0.76025 0.86559 0.60035 0.0
O1390 O 0.86136 0.75858 0.64971 0.0
H1391 H 0.82592 0.83535 0.69386 0.0
H1392 H 0.75145 0.72647 0.6085 0.0
H1393 H 0.85077 0.87727 0.70841 0.0
Zn1394 Zn 0.83696 0.21623 0.85828 0.0
C1395 C 0.76394 0.21346 0.82089 0.0
N1396 N 0.7736 0.2343 0.8057 0.0
C1397 C 0.79769 0.24014 0.81757 0.0
N1398 N 0.80279 0.22322 0.83894 0.0
N1399 N 0.78126 0.20685 0.84151 0.0
C1400 C 0.73483 0.14304 0.87468 0.0
O1401 O 0.75083 0.13128 0.85653 0.0
O1402 O 0.86124 0.24946 0.86034 0.0
Zn1403 Zn 0.77477 0.18971 0.87713 0.0
N1404 N 0.85638 0.18741 0.83937 0.0
C1405 C 0.86138 0.15517 0.80319 0.0
C1406 C 0.84615 0.17534 0.81647 0.0
C1407 C 0.88024 0.17871 0.85067 0.0
N1408 N 0.88573 0.14717 0.81393 0.0
C1409 C 0.89549 0.15813 0.83764 0.0
O1410 O 0.80652 0.16727 0.89231 0.0
C1411 C 0.82726 0.17818 0.90375 0.0
O1412 O 0.83488 0.20214 0.89718 0.0
H1413 H 0.82654 0.18155 0.80836 0.0
H1414 H 0.88728 0.18784 0.86961 0.0
C1415 C 0.77004 0.21387 0.92964 0.0
C1416 C 0.76463 0.23478 0.94853 0.0
C1417 C 0.75989 0.2663 0.91198 0.0
C1418 C 0.76456 0.24529 0.89325 0.0
N1419 N 0.7698 0.21957 0.90244 0.0
N1420 N 0.75989 0.26057 0.93917 0.0
H1421 H 0.77376 0.19312 0.93643 0.0
C1422 C 0.85755 0.26531 0.88066 0.0
O1423 O 0.83708 0.26057 0.89746 0.0
O1424 O 0.74024 0.16717 0.88278 0.0
H1425 H 0.76351 0.2494 0.87159 0.0
H1426 H 0.85385 0.14582 0.78458 0.0
H1427 H 0.75584 0.28689 0.90497 0.0
Zn1428 Zn 0.46831 0.92724 0.40403 0.0
C1429 C 0.4649 0.99932 0.44206 0.0
N1430 N 0.48695 0.99037 0.456 0.0
C1431 C 0.49374 0.96711 0.44287 0.0
N1432 N 0.47618 0.96181 0.42208 0.0
N1433 N 0.45853 0.98241 0.42106 0.0
C1434 C 0.39331 0.02693 0.38739 0.0
O1435 O 0.38119 0.00767 0.40172 0.0
O1436 O 0.50164 0.9032 0.40083 0.0
Zn1437 Zn 0.44157 0.99056 0.38581 0.0
N1438 N 0.44037 0.90874 0.42536 0.0
C1439 C 0.4108 0.90581 0.46404 0.0
C1440 C 0.43071 0.91972 0.44907 0.0
C1441 C 0.4299 0.88501 0.41535 0.0
N1442 N 0.4009 0.8817 0.45444 0.0
C1443 C 0.40976 0.87095 0.43029 0.0
O1444 O 0.41947 0.95934 0.36903 0.0
C1445 C 0.4291 0.93749 0.35857 0.0
O1446 O 0.4523 0.92821 0.36576 0.0
H1447 H 0.43886 0.93879 0.45667 0.0
H1448 H 0.43731 0.8771 0.396 0.0
C1449 C 0.46684 0.99887 0.33376 0.0
C1450 C 0.488 0.00671 0.31605 0.0
C1451 C 0.51733 0.01332 0.35401 0.0
C1452 C 0.49618 1.00585 0.37162 0.0
N1453 N 0.47148 0.99842 0.36119 0.0
N1454 N 0.51279 0.01361 0.32662 0.0
H1455 H 0.4468 0.99363 0.3259 0.0
C1456 C 0.51729 0.90784 0.38055 0.0
O1457 O 0.5122 0.92887 0.3646 0.0
O1458 O 0.41867 0.02482 0.38219 0.0
H1459 H 0.49934 0.00653 0.39345 0.0
H1460 H 0.40331 0.91408 0.48318 0.0
H1461 H 0.53712 0.01915 0.36206 0.0
Zn1462 Zn 0.23433 0.32047 0.87705 0.0
C1463 C 0.21456 0.27205 0.81486 0.0
N1464 N 0.23817 0.27975 0.80311 0.0
C1465 C 0.24671 0.30054 0.81904 0.0
N1466 N 0.22954 0.30492 0.84039 0.0
N1467 N 0.20876 0.28791 0.83681 0.0
C1468 C 0.1448 0.24787 0.87984 0.0
O1469 O 0.1483 0.26273 0.90195 0.0
O1470 O 0.26996 0.34053 0.88443 0.0
Zn1471 Zn 0.17381 0.29282 0.85512 0.0
N1472 N 0.23423 0.29079 0.90366 0.0
C1473 C 0.21763 0.2482 0.92061 0.0
C1474 C 0.21988 0.26726 0.89956 0.0
C1475 C 0.24657 0.29584 0.92813 0.0
N1476 N 0.22906 0.25377 0.94528 0.0
C1477 C 0.24323 0.2773 0.94979 0.0
O1478 O 0.17299 0.31087 0.89278 0.0
C1479 C 0.18146 0.33437 0.90021 0.0
O1480 O 0.20307 0.34468 0.88982 0.0
H1481 H 0.20942 0.26347 0.8806 0.0
H1482 H 0.25765 0.31478 0.93115 0.0
C1483 C 0.12891 0.32725 0.84528 0.0
C1484 C 0.11315 0.34704 0.83183 0.0
C1485 C 0.14655 0.34939 0.79667 0.0
C1486 C 0.16236 0.32997 0.81035 0.0
N1487 N 0.15285 0.31878 0.83402 0.0
N1488 N 0.12233 0.35749 0.80768 0.0
H1489 H 0.12235 0.31879 0.8647 0.0
C1490 C 0.27334 0.36599 0.88044 0.0
O1491 O 0.25481 0.37958 0.86648 0.0
O1492 O 0.15358 0.25659 0.85693 0.0
H1493 H 0.18193 0.32377 0.80208 0.0
H1494 H 0.20619 0.22948 0.91763 0.0
H1495 H 0.1536 0.35819 0.77761 0.0
Zn1496 Zn 0.04081 0.08228 0.89912 0.0
C1497 C 0.05184 0.01557 0.94582 0.0
N1498 N 0.03158 0.02616 0.96123 0.0
C1499 C 0.0232 0.0478 0.94653 0.0
N1500 N 0.03807 0.05065 0.92331 0.0
N1501 N 0.05566 0.03002 0.92248 0.0
C1502 C 0.12167 0.98574 0.89209 0.0
O1503 O 0.1325 1.00399 0.9086 0.0
O1504 O 1.00338 0.10008 0.89604 0.0
Zn1505 Zn 0.07234 0.02169 0.88738 0.0
N1506 N 0.06816 0.10676 0.91473 0.0
C1507 C 0.10382 0.11399 0.94724 0.0
C1508 C 0.08238 0.09816 0.93708 0.0
C1509 C 0.07542 0.13019 0.90148 0.0
N1510 N 0.11073 0.13753 0.93426 0.0
C1511 C 0.09711 0.14604 0.91155 0.0
O1512 O 0.09272 0.0541 0.8708 0.0
C1513 C 0.07986 0.06991 0.85461 0.0
O1514 O 0.0551 0.07584 0.86015 0.0
H1515 H 0.0776 0.07886 0.94666 0.0
H1516 H 0.06516 0.13614 0.88289 0.0
C1517 C 0.04682 0.01172 0.83551 0.0
C1518 C 0.025 1.00586 0.81784 0.0
C1519 C 0.99527 1.00212 0.85594 0.0
C1520 C 0.017 0.00792 0.87347 0.0
N1521 N 0.04225 0.01311 0.86294 0.0
N1522 N 0.99973 1.00123 0.82853 0.0
H1523 H 0.06713 0.01525 0.82749 0.0
C1524 C 0.99939 0.1185 0.87812 0.0
O1525 O 0.02006 0.12762 0.86375 0.0
O1526 O 0.09703 0.98848 0.88428 0.0
H1527 H 0.01374 0.00801 0.89532 0.0
H1528 H 0.11517 0.10741 0.96507 0.0
H1529 H 0.97505 0.99819 0.86406 0.0
Zn1530 Zn 0.6739 0.21706 0.15676 0.0
C1531 C 0.74737 0.21119 0.19393 0.0
N1532 N 0.73818 0.23172 0.20976 0.0
C1533 C 0.71418 0.2383 0.1982 0.0
N1534 N 0.70854 0.22191 0.17655 0.0
N1535 N 0.73003 0.20573 0.17298 0.0
C1536 C 0.77657 0.14554 0.13502 0.0
O1537 O 0.75845 0.13186 0.14944 0.0
O1538 O 0.65542 0.25369 0.15092 0.0
Zn1539 Zn 0.73617 0.18968 0.13678 0.0
N1540 N 0.65048 0.19269 0.1773 0.0
C1541 C 0.64781 0.15253 0.20463 0.0
C1542 C 0.66227 0.17535 0.19556 0.0
C1543 C 0.6246 0.18828 0.16792 0.0
N1544 N 0.62275 0.14717 0.19394 0.0
C1545 C 0.61079 0.16413 0.17535 0.0
O1546 O 0.70645 0.16393 0.12421 0.0
C1547 C 0.68457 0.17303 0.11338 0.0
O1548 O 0.67474 0.19616 0.1204 0.0
H1549 H 0.68316 0.17854 0.20208 0.0
H1550 H 0.61598 0.20205 0.15286 0.0
C1551 C 0.74823 0.21329 0.08516 0.0
C1552 C 0.74444 0.23114 0.06301 0.0
C1553 C 0.71721 0.25984 0.09107 0.0
C1554 C 0.71995 0.24142 0.11264 0.0
N1555 N 0.73538 0.21849 0.10936 0.0
N1556 N 0.72925 0.25415 0.06672 0.0
H1557 H 0.76006 0.19473 0.08274 0.0
C1558 C 0.64585 0.25945 0.12739 0.0
O1559 O 0.64645 0.24099 0.10789 0.0
O1560 O 0.77256 0.1708 0.13043 0.0
H1561 H 0.70897 0.24504 0.13134 0.0
H1562 H 0.65693 0.13849 0.21911 0.0
H1563 H 0.70492 0.27808 0.09333 0.0
Zn1564 Zn 0.44356 0.02078 0.12678 0.0
C1565 C 0.4925 0.04806 0.06766 0.0
N1566 N 0.48666 0.02434 0.05493 0.0
C1567 C 0.46661 0.01367 0.07048 0.0
N1568 N 0.46065 0.02981 0.09208 0.0
N1569 N 0.47634 0.0519 0.08994 0.0
C1570 C 0.51618 0.10541 0.1375 0.0
O1571 O 0.51047 0.08483 0.15384 0.0
O1572 O 0.42277 0.98485 0.12969 0.0
Zn1573 Zn 0.46821 0.0853 0.11081 0.0
N1574 N 0.473 0.01747 0.15291 0.0
C1575 C 0.52055 0.01223 0.16208 0.0
C1576 C 0.49908 0.01485 0.14356 0.0
C1577 C 0.46738 0.0167 0.18016 0.0
N1578 N 0.51502 0.0116 0.18927 0.0
C1579 C 0.48896 0.01374 0.19885 0.0
O1580 O 0.45085 0.07974 0.14845 0.0
C1581 C 0.42579 0.07311 0.15047 0.0
O1582 O 0.41821 0.05046 0.14013 0.0
H1583 H 0.50319 0.01435 0.12188 0.0
H1584 H 0.44639 0.01807 0.18713 0.0
C1585 C 0.43181 0.13025 0.10079 0.0
C1586 C 0.40941 0.14342 0.08853 0.0
C1587 C 0.4062 0.10741 0.0562 0.0
C1588 C 0.42779 0.09389 0.06904 0.0
N1589 N 0.44044 0.10567 0.09088 0.0
N1590 N 0.39733 0.13171 0.06635 0.0
H1591 H 0.44167 0.13904 0.11854 0.0
C1592 C 0.397 0.9839 0.12624 0.0
O1593 O 0.38465 1.00475 0.11459 0.0
O1594 O 0.50132 0.10946 0.11652 0.0
H1595 H 0.4342 0.07402 0.06179 0.0
H1596 H 0.5414 0.01027 0.1549 0.0
H1597 H 0.39612 0.09835 0.03869 0.0
Zn1598 Zn 0.57101 0.48357 0.1268 0.0
C1599 C 0.52188 0.45939 0.06632 0.0
N1600 N 0.52877 0.48278 0.05364 0.0
C1601 C 0.54938 0.49259 0.06908 0.0
N1602 N 0.5549 0.47601 0.09064 0.0
N1603 N 0.53805 0.45477 0.08839 0.0
C1604 C 0.49455 0.40178 0.13045 0.0
O1605 O 0.49934 0.4229 0.14641 0.0
O1606 O 0.59413 0.51784 0.1335 0.0
Zn1607 Zn 0.54443 0.42057 0.10803 0.0
N1608 N 0.54017 0.48921 0.15086 0.0
C1609 C 0.49303 0.4995 0.15771 0.0
C1610 C 0.51502 0.49452 0.14022 0.0
C1611 C 0.54443 0.48957 0.17834 0.0
N1612 N 0.49731 0.50011 0.18514 0.0
C1613 C 0.52255 0.49553 0.19592 0.0
O1614 O 0.55878 0.42244 0.14679 0.0
C1615 C 0.5823 0.43078 0.15408 0.0
O1616 O 0.59279 0.45208 0.14331 0.0
H1617 H 0.51209 0.4954 0.11836 0.0
H1618 H 0.56481 0.48616 0.18634 0.0
C1619 C 0.58142 0.37658 0.10027 0.0
C1620 C 0.60257 0.3618 0.08768 0.0
C1621 C 0.60604 0.39615 0.05361 0.0
C1622 C 0.58552 0.41113 0.06664 0.0
N1623 N 0.57295 0.40061 0.08913 0.0
N1624 N 0.61405 0.37182 0.06434 0.0
H1625 H 0.57192 0.3692 0.11889 0.0
C1626 C 0.61431 0.5295 0.12193 0.0
O1627 O 0.62311 0.52058 0.09813 0.0
O1628 O 0.51071 0.39695 0.11062 0.0
H1629 H 0.57954 0.43085 0.05869 0.0
H1630 H 0.47286 0.5035 0.14952 0.0
H1631 H 0.61578 0.40397 0.03532 0.0
C1632 C 0.12206 0.2108 0.40391 0.0
C1633 C 0.10559 0.2198 0.38175 0.0
C1634 C 0.0794 0.17757 0.38498 0.0
C1635 C 0.09023 0.17199 0.41128 0.0
N1636 N 0.12679 0.18171 0.44372 0.0
N1637 N 0.06333 0.21399 0.35651 0.0
C1638 C 0.11313 0.18807 0.42022 0.0
C1639 C 0.08273 0.2039 0.37379 0.0
N1640 N 0.14628 0.22374 0.40919 0.0
N1641 N 0.06747 0.15747 0.36974 0.0
H1642 H 0.06258 0.23453 0.35112 0.0
H1643 H 0.04583 0.20292 0.35132 0.0
H1644 H 0.06806 0.13693 0.37552 0.0
H1645 H 0.06101 0.1608 0.34965 0.0
H1646 H 0.16078 0.2164 0.42297 0.0
H1647 H 0.15283 0.24088 0.39827 0.0
H1648 H 0.14001 0.19525 0.45354 0.0
H1649 H 0.12556 0.16276 0.45323 0.0
C1650 C 0.44379 0.68651 0.86635 0.0
C1651 C 0.42654 0.67136 0.8481 0.0
C1652 C 0.4483 0.62872 0.8646 0.0
C1653 C 0.46741 0.64409 0.87976 0.0
N1654 N 0.48611 0.68797 0.89221 0.0
N1655 N 0.41837 0.62751 0.82561 0.0
C1656 C 0.46587 0.67307 0.87988 0.0
C1657 C 0.43045 0.64233 0.84599 0.0
N1658 N 0.43961 0.71381 0.87085 0.0
N1659 N 0.44711 0.60098 0.86794 0.0
H1660 H 0.40636 0.63585 0.81032 0.0
H1661 H 0.4229 0.60701 0.82188 0.0
H1662 H 0.4602 0.59043 0.88111 0.0
H1663 H 0.43142 0.58897 0.85989 0.0
H1664 H 0.44877 0.72446 0.8869 0.0
H1665 H 0.42612 0.72592 0.85982 0.0
H1666 H 0.48834 0.70903 0.88983 0.0
H1667 H 0.50197 0.67905 0.9033 0.0
C1668 C 0.92283 0.30807 0.42379 0.0
C1669 C 0.92385 0.33564 0.41473 0.0
C1670 C 0.89459 0.32351 0.37538 0.0
C1671 C 0.89491 0.29563 0.38374 0.0
N1672 N 0.91738 0.26072 0.41067 0.0
N1673 N 0.91414 0.36901 0.3796 0.0
C1674 C 0.91115 0.2877 0.40657 0.0
C1675 C 0.91107 0.34307 0.38961 0.0
N1676 N 0.93328 0.30109 0.44876 0.0
N1677 N 0.87742 0.33166 0.35484 0.0
H1678 H 0.92421 0.3845 0.39024 0.0
H1679 H 0.90813 0.37482 0.36 0.0
H1680 H 0.8645 0.31827 0.34441 0.0
H1681 H 0.87388 0.35205 0.34984 0.0
H1682 H 0.92995 0.28205 0.45777 0.0
H1683 H 0.94358 0.31484 0.46137 0.0
H1684 H 0.93136 0.25406 0.42532 0.0
H1685 H 0.91144 0.24519 0.39729 0.0
C1686 C 0.53878 0.84928 0.85693 0.0
C1687 C 0.54606 0.86554 0.87995 0.0
C1688 C 0.59413 0.85159 0.87397 0.0
C1689 C 0.58719 0.83853 0.84882 0.0
N1690 N 0.553 0.82799 0.81463 0.0
N1691 N 0.58125 0.88463 0.90885 0.0
C1692 C 0.5596 0.83853 0.83968 0.0
C1693 C 0.57389 0.86711 0.88828 0.0
N1694 N 0.51203 0.84217 0.85266 0.0
N1695 N 0.62031 0.85007 0.88372 0.0
H1696 H 0.5673 0.89704 0.91917 0.0
H1697 H 0.60146 0.88903 0.91395 0.0
H1698 H 0.63646 0.8416 0.87266 0.0
H1699 H 0.62586 0.85609 0.9034 0.0
H1700 H 0.50592 0.82801 0.83792 0.0
H1701 H 0.49621 0.84762 0.8659 0.0
H1702 H 0.5339 0.8308 0.80559 0.0
H1703 H 0.56702 0.81814 0.80197 0.0
C1704 C 0.10156 0.84392 0.12651 0.0
C1705 C 0.08915 0.83677 0.1011 0.0
C1706 C 0.10188 0.78878 0.1088 0.0
C1707 C 0.11777 0.79642 0.13195 0.0
N1708 N 0.13458 0.83208 0.16175 0.0
N1709 N 0.08139 0.8026 0.06605 0.0
C1710 C 0.11783 0.82419 0.14075 0.0
C1711 C 0.09068 0.80933 0.09156 0.0
N1712 N 0.09853 0.86982 0.13668 0.0
N1713 N 0.09556 0.76187 0.10431 0.0
H1714 H 0.07206 0.81647 0.05292 0.0
H1715 H 0.08504 0.7836 0.05705 0.0
H1716 H 0.10112 0.7462 0.11767 0.0
H1717 H 0.08175 0.75547 0.08936 0.0
H1718 H 0.10411 0.87541 0.15648 0.0
H1719 H 0.08908 0.88558 0.12589 0.0
H1720 H 0.13796 0.8524 0.16717 0.0
H1721 H 0.14735 0.81859 0.1722 0.0
C1722 C 0.04179 0.64945 0.15862 0.0
C1723 C 0.04878 0.6387 0.13245 0.0
C1724 C 0.09458 0.65954 0.1368 0.0
C1725 C 0.08837 0.66807 0.16406 0.0
N1726 N 0.05704 0.66624 0.20257 0.0
N1727 N 0.0835 0.62944 0.0987 0.0
C1728 C 0.06245 0.66117 0.17557 0.0
C1729 C 0.07561 0.6428 0.12203 0.0
N1730 N 0.01495 0.65065 0.16657 0.0
N1731 N 0.11884 0.66694 0.12504 0.0
H1732 H 0.07083 0.61583 0.08823 0.0
H1733 H 0.10332 0.62981 0.09097 0.0
H1734 H 0.13496 0.67576 0.13586 0.0
H1735 H 0.12262 0.66529 0.10411 0.0
H1736 H 0.0084 0.6604 0.18437 0.0
H1737 H 0.99872 0.6449 0.154 0.0
H1738 H 0.04029 0.65783 0.21276 0.0
H1739 H 0.06954 0.67794 0.21524 0.0
C1740 C 0.89981 0.71601 0.10459 0.0
C1741 C 0.89909 0.71385 0.13348 0.0
C1742 C 0.91728 0.66717 0.13023 0.0
C1743 C 0.92234 0.6711 0.10178 0.0
N1744 N 0.92141 0.70146 0.06253 0.0
N1745 N 0.9094 0.68829 0.17444 0.0
C1746 C 0.91409 0.69599 0.089 0.0
C1747 C 0.90828 0.68961 0.14651 0.0
N1748 N 0.88669 0.73729 0.09207 0.0
N1749 N 0.91945 0.64163 0.14145 0.0
H1750 H 0.90226 0.70388 0.18714 0.0
H1751 H 0.91918 0.67252 0.18493 0.0
H1752 H 0.92416 0.62426 0.12998 0.0
H1753 H 0.91337 0.63711 0.16139 0.0
H1754 H 0.88402 0.73861 0.07095 0.0
H1755 H 0.87598 0.75219 0.10303 0.0
H1756 H 0.9181 0.72028 0.05312 0.0
H1757 H 0.93384 0.68869 0.05086 0.0
C1758 C 0.94985 0.8424 0.1716 0.0
C1759 C 0.92244 0.84129 0.16197 0.0
C1760 C 0.93546 0.87016 0.12263 0.0
C1761 C 0.96315 0.86974 0.13153 0.0
N1762 N 0.99744 0.84731 0.15924 0.0
N1763 N 0.88968 0.85126 0.12625 0.0
C1764 C 0.97058 0.8537 0.15462 0.0
C1765 C 0.91552 0.85395 0.13661 0.0
N1766 N 0.95642 0.8325 0.1969 0.0
N1767 N 0.92784 0.88723 0.1018 0.0
H1768 H 0.87372 0.84194 0.13686 0.0
H1769 H 0.88432 0.85703 0.10645 0.0
H1770 H 0.94156 0.89993 0.09154 0.0
H1771 H 0.90758 0.89095 0.09639 0.0
H1772 H 0.9753 0.83611 0.20614 0.0
H1773 H 0.94257 0.82251 0.20958 0.0
H1774 H 1.00371 0.83334 0.17407 0.0
H1775 H 0.01327 0.85309 0.14614 0.0
C1776 C 0.36128 0.08872 0.1916 0.0
C1777 C 0.37189 0.10605 0.21232 0.0
C1778 C 0.41534 0.10949 0.18725 0.0
C1779 C 0.40624 0.08872 0.16879 0.0
N1780 N 0.36624 0.07145 0.14547 0.0
N1781 N 0.40923 0.13204 0.23114 0.0
C1782 C 0.3779 0.08186 0.16869 0.0
C1783 C 0.39887 0.11644 0.21033 0.0
N1784 N 0.3355 0.07813 0.19418 0.0
N1785 N 0.43821 0.12452 0.18155 0.0
H1786 H 0.39747 0.13849 0.24777 0.0
H1787 H 0.4299 0.13695 0.2329 0.0
H1788 H 0.44845 0.12351 0.16295 0.0
H1789 H 0.44451 0.14122 0.19318 0.0
H1790 H 0.32805 0.0624 0.18187 0.0
H1791 H 0.32209 0.08389 0.20979 0.0
H1792 H 0.34533 0.06799 0.14331 0.0
H1793 H 0.37675 0.07023 0.12692 0.0
C1794 C 0.35353 0.37205 0.0951 0.0
C1795 C 0.34051 0.347 0.0878 0.0
C1796 C 0.35297 0.35496 0.03978 0.0
C1797 C 0.36942 0.37767 0.04757 0.0
N1798 N 0.38829 0.40565 0.08364 0.0
N1799 N 0.33196 0.31239 0.05335 0.0
C1800 C 0.37028 0.38584 0.07549 0.0
C1801 C 0.3417 0.33767 0.06026 0.0
N1802 N 0.35079 0.38221 0.12104 0.0
N1803 N 0.3462 0.35097 0.01289 0.0
H1804 H 0.32261 0.29922 0.06721 0.0
H1805 H 0.33528 0.30356 0.0342 0.0
H1806 H 0.35179 0.36441 0.9973 0.0
H1807 H 0.33203 0.33635 0.00652 0.0
H1808 H 0.35706 0.4018 0.12664 0.0
H1809 H 0.34088 0.37174 0.13674 0.0
H1810 H 0.39208 0.41044 0.10407 0.0
H1811 H 0.40171 0.4154 0.07022 0.0
C1812 C 0.60118 0.39954 0.22349 0.0
C1813 C 0.62571 0.38527 0.21689 0.0
C1814 C 0.62317 0.40323 0.16986 0.0
C1815 C 0.5974 0.4154 0.1758 0.0
N1816 N 0.55986 0.42152 0.20749 0.0
N1817 N 0.6571 0.36923 0.18241 0.0
C1818 C 0.5857 0.41219 0.20228 0.0
C1819 C 0.63593 0.38603 0.18969 0.0
N1820 N 0.59355 0.40292 0.25024 0.0
N1821 N 0.6356 0.40798 0.14527 0.0
H1822 H 0.6661 0.3554 0.19595 0.0
H1823 H 0.66401 0.36701 0.16238 0.0
H1824 H 0.62606 0.41792 0.12899 0.0
H1825 H 0.65616 0.4036 0.14173 0.0
H1826 H 0.57784 0.41597 0.25638 0.0
H1827 H 0.60453 0.39515 0.26674 0.0
H1828 H 0.54892 0.41617 0.225 0.0
H1829 H 0.54855 0.43308 0.19365 0.0
C1830 C 0.65373 0.15347 0.04399 0.0
C1831 C 0.64051 0.12835 0.05037 0.0
C1832 C 0.65997 0.13043 0.0969 0.0
C1833 C 0.67045 0.15706 0.09138 0.0
N1834 N 0.67358 0.19565 0.06045 0.0
N1835 N 0.62728 0.09514 0.08433 0.0
C1836 C 0.66594 0.16917 0.06527 0.0
C1837 C 0.64285 0.11726 0.07716 0.0
N1838 N 0.65653 0.16148 0.0173 0.0
N1839 N 0.66534 0.11809 0.12143 0.0
H1840 H 0.61369 0.0857 0.07086 0.0
H1841 H 0.62559 0.08787 0.10429 0.0
H1842 H 0.6752 0.1279 0.1376 0.0
H1843 H 0.66123 0.09755 0.12529 0.0
H1844 H 0.66804 0.17838 0.01129 0.0
H1845 H 0.65012 0.14967 1.00074 0.0
H1846 H 0.66718 0.20665 0.04335 0.0
H1847 H 0.6854 0.20714 0.07394 0.0
C1848 C 0.37687 0.89003 0.3248 0.0
C1849 C 0.38357 0.89321 0.29667 0.0
C1850 C 0.42194 0.92308 0.30957 0.0
C1851 C 0.41327 0.92248 0.33727 0.0
N1852 N 0.37954 0.90878 0.37065 0.0
N1853 N 0.40787 0.91951 0.26234 0.0
C1854 C 0.38976 0.90707 0.34469 0.0
C1855 C 0.40493 0.91149 0.289 0.0
N1856 N 0.35913 0.8699 0.33273 0.0
N1857 N 0.44638 0.93475 0.3027 0.0
H1858 H 0.39461 0.91349 0.24675 0.0
H1859 H 0.4214 0.93484 0.25625 0.0
H1860 H 0.45924 0.94396 0.31699 0.0
H1861 H 0.45492 0.93304 0.28321 0.0
H1862 H 0.35563 0.86483 0.35316 0.0
H1863 H 0.35003 0.85641 0.31891 0.0
H1864 H 0.36042 0.90102 0.37596 0.0
H1865 H 0.38896 0.91999 0.38619 0.0
C1866 C 0.15409 0.3754 0.91615 0.0
C1867 C 0.16603 0.34948 0.92194 0.0
C1868 C 0.15078 0.35346 0.96982 0.0
C1869 C 0.13707 0.37834 0.96356 0.0
N1870 N 0.12108 0.4101 0.92946 0.0
N1871 N 0.17101 0.31142 0.95325 0.0
C1872 C 0.13756 0.38859 0.93636 0.0
C1873 C 0.16263 0.33766 0.94835 0.0
N1874 N 0.15828 0.38742 0.89125 0.0
N1875 N 0.15435 0.34576 0.99652 0.0
H1876 H 0.18236 0.29987 0.93939 0.0
H1877 H 0.16551 0.30055 0.97075 0.0
H1878 H 0.14797 0.35753 0.01313 0.0
H1879 H 0.16622 0.3291 1.00243 0.0
H1880 H 0.15351 0.40779 0.88725 0.0
H1881 H 0.16791 0.37757 0.87494 0.0
H1882 H 0.11821 0.41678 0.90943 0.0
H1883 H 0.1081 0.41963 0.94347 0.0
C1884 C 0.60811 0.58162 0.31484 0.0
C1885 C 0.59227 0.59699 0.33399 0.0
C1886 C 0.60971 0.63958 0.31311 0.0
C1887 C 0.62404 0.62411 0.29334 0.0
N1888 N 0.63333 0.58058 0.27207 0.0
N1889 N 0.57204 0.64117 0.3449 0.0
C1890 C 0.62233 0.59518 0.29335 0.0
C1891 C 0.59126 0.62614 0.33128 0.0
N1892 N 0.60915 0.55382 0.31666 0.0
N1893 N 0.61408 0.66716 0.31486 0.0
H1894 H 0.55658 0.63267 0.35667 0.0
H1895 H 0.56916 0.66204 0.34175 0.0
H1896 H 0.62717 0.67762 0.30159 0.0
H1897 H 0.6068 0.67913 0.33095 0.0
H1898 H 0.62404 0.54205 0.30697 0.0
H1899 H 0.59523 0.54259 0.32815 0.0
H1900 H 0.62985 0.5598 0.26893 0.0
H1901 H 0.6443 0.58958 0.25612 0.0
C1902 C 0.85495 0.15656 0.9736 0.0
C1903 C 0.8724 0.1344 0.96641 0.0
C1904 C 0.85716 0.13869 0.91863 0.0
C1905 C 0.84275 0.16307 0.92531 0.0
N1906 N 0.83298 0.19824 0.95886 0.0
N1907 N 0.89394 0.10774 0.93082 0.0
C1908 C 0.84342 0.17307 0.95262 0.0
C1909 C 0.87449 0.12631 0.93856 0.0
N1910 N 0.84753 0.16076 1.00028 0.0
N1911 N 0.85437 0.12716 0.89333 0.0
H1912 H 0.9078 0.09908 0.94455 0.0
H1913 H 0.89815 0.10308 0.91044 0.0
H1914 H 0.84366 0.13635 0.87735 0.0
H1915 H 0.86087 0.1073 0.88911 0.0
H1916 H 0.83269 0.17494 1.0061 0.0
H1917 H 0.85338 0.1479 0.01624 0.0
H1918 H 0.83574 0.20746 0.97791 0.0
H1919 H 0.82383 0.21098 0.94449 0.0
C1920 C 0.18588 0.37076 0.12285 0.0
C1921 C 0.21296 0.38121 0.12413 0.0
C1922 C 0.19838 0.42155 0.0977 0.0
C1923 C 0.17201 0.40973 0.09391 0.0
N1924 N 0.14151 0.3714 0.10068 0.0
N1925 N 0.24632 0.41342 0.10683 0.0
C1926 C 0.1661 0.38372 0.10565 0.0
C1927 C 0.21955 0.40589 0.11017 0.0
N1928 N 0.17865 0.34922 0.1392 0.0
N1929 N 0.20359 0.4476 0.08895 0.0
H1930 H 0.26278 0.4016 0.11338 0.0
H1931 H 0.25245 0.42993 0.09487 0.0
H1932 H 0.19027 0.45885 0.07672 0.0
H1933 H 0.2209 0.45858 0.09483 0.0
H1934 H 0.15873 0.34199 0.14108 0.0
H1935 H 0.19214 0.34009 0.15298 0.0
H1936 H 0.13763 0.35095 0.1052 0.0
H1937 H 0.12536 0.38105 0.09065 0.0
C1938 C 0.20493 0.6414 0.43059 0.0
C1939 C 0.21796 0.63486 0.40562 0.0
C1940 C 0.18782 0.59488 0.40078 0.0
C1941 C 0.17688 0.59971 0.42765 0.0
N1942 N 0.18332 0.62362 0.47089 0.0
N1943 N 0.22471 0.60335 0.36843 0.0
C1944 C 0.18768 0.62191 0.44331 0.0
C1945 C 0.21015 0.6111 0.39105 0.0
N1946 N 0.20884 0.66654 0.44221 0.0
N1947 N 0.17662 0.57565 0.38386 0.0
H1948 H 0.24051 0.61515 0.36024 0.0
H1949 H 0.22245 0.58437 0.35898 0.0
H1950 H 0.16156 0.56194 0.38966 0.0
H1951 H 0.18108 0.57449 0.36303 0.0
H1952 H 0.19773 0.67334 0.45913 0.0
H1953 H 0.22087 0.68163 0.43308 0.0
H1954 H 0.19345 0.63771 0.48332 0.0
H1955 H 0.1726 0.60912 0.48212 0.0
C1956 C 0.89391 0.55693 0.82746 0.0
C1957 C 0.88992 0.54575 0.85386 0.0
C1958 C 0.85297 0.57876 0.86193 0.0
C1959 C 0.85479 0.58775 0.83406 0.0
N1960 N 0.87211 0.57755 0.78858 0.0
N1961 N 0.86271 0.54294 0.8949 0.0
C1962 C 0.87396 0.57472 0.81634 0.0
C1963 C 0.86874 0.55589 0.87083 0.0
N1964 N 0.91707 0.55087 0.81297 0.0
N1965 N 0.83687 0.59225 0.88033 0.0
H1966 H 0.87387 0.52634 0.90229 0.0
H1967 H 0.84529 0.54722 0.90643 0.0
H1968 H 0.82374 0.60796 0.87506 0.0
H1969 H 0.83798 0.58906 0.90139 0.0
H1970 H 0.92211 0.56053 0.79462 0.0
H1971 H 0.93264 0.53855 0.82081 0.0
H1972 H 0.88386 0.56604 0.77497 0.0
H1973 H 0.85675 0.58861 0.77895 0.0
C1974 C 0.84442 0.88608 0.41108 0.0
C1975 C 0.8376 0.91168 0.42331 0.0
C1976 C 0.78958 0.90463 0.41034 0.0
C1977 C 0.797 0.88133 0.39456 0.0
N1978 N 0.83231 0.85112 0.37784 0.0
N1979 N 0.80389 0.94717 0.43095 0.0
C1980 C 0.8246 0.87214 0.39466 0.0
C1981 C 0.81031 0.92158 0.42167 0.0
N1982 N 0.87011 0.87548 0.41431 0.0
N1983 N 0.76268 0.90957 0.41633 0.0
H1984 H 0.81785 0.96007 0.44051 0.0
H1985 H 0.78507 0.95646 0.42717 0.0
H1986 H 0.74685 0.89649 0.41052 0.0
H1987 H 0.75636 0.92463 0.43006 0.0
H1988 H 0.87533 0.85556 0.40883 0.0
H1989 H 0.88601 0.88601 0.42382 0.0
H1990 H 0.85258 0.8455 0.3745 0.0
H1991 H 0.81871 0.84088 0.36499 0.0
C1992 C 0.64603 0.44263 0.31979 0.0
C1993 C 0.6658 0.42857 0.3362 0.0
C1994 C 0.6513 0.4566 0.37596 0.0
C1995 C 0.63343 0.4717 0.35903 0.0
N1996 N 0.61756 0.48254 0.31375 0.0
N1997 N 0.69095 0.42759 0.37938 0.0
C1998 C 0.63179 0.46556 0.33072 0.0
C1999 C 0.66963 0.43719 0.36406 0.0
N2000 N 0.64067 0.43461 0.29349 0.0
N2001 N 0.6503 0.46031 0.4037 0.0
H2002 H 0.70504 0.41322 0.37278 0.0
H2003 H 0.69635 0.43588 0.39827 0.0
H2004 H 0.63731 0.4745 0.41301 0.0
H2005 H 0.66017 0.4475 0.41758 0.0
H2006 H 0.62344 0.44103 0.28272 0.0
H2007 H 0.6525 0.42104 0.28224 0.0
H2008 H 0.61888 0.48201 0.29246 0.0
H2009 H 0.6061 0.4988 0.32104 0.0
C2010 C 0.34544 0.62861 0.60062 0.0
C2011 C 0.33832 0.60318 0.58824 0.0
C2012 C 0.29008 0.61148 0.59974 0.0
C2013 C 0.29757 0.63492 0.61528 0.0
N2014 N 0.33306 0.66424 0.63307 0.0
N2015 N 0.30403 0.56855 0.5796 0.0
C2016 C 0.32542 0.64329 0.61615 0.0
C2017 C 0.31074 0.59399 0.58907 0.0
N2018 N 0.37156 0.63837 0.59832 0.0
N2019 N 0.2632 0.60688 0.59339 0.0
H2020 H 0.31799 0.55546 0.57026 0.0
H2021 H 0.28496 0.55963 0.58298 0.0
H2022 H 0.24745 0.62016 0.59897 0.0
H2023 H 0.25684 0.59176 0.57975 0.0
H2024 H 0.37723 0.65813 0.60392 0.0
H2025 H 0.38748 0.62723 0.58951 0.0
H2026 H 0.35333 0.66935 0.63712 0.0
H2027 H 0.31923 0.67493 0.6453 0.0
C2028 C 0.86384 0.45729 0.64145 0.0
C2029 C 0.88758 0.46442 0.65637 0.0
C2030 C 0.87349 0.43427 0.69365 0.0
C2031 C 0.85118 0.42416 0.67767 0.0
N2032 N 0.82818 0.42426 0.63334 0.0
N2033 N 0.91873 0.45416 0.69307 0.0
C2034 C 0.8471 0.43521 0.65073 0.0
C2035 C 0.89358 0.45102 0.68123 0.0
N2036 N 0.85663 0.47222 0.61892 0.0
N2037 N 0.87478 0.42983 0.72125 0.0
H2038 H 0.93425 0.46584 0.68418 0.0
H2039 H 0.92506 0.44275 0.70997 0.0
H2040 H 0.86004 0.41934 0.7324 0.0
H2041 H 0.88892 0.43973 0.7338 0.0
H2042 H 0.83771 0.47039 0.60927 0.0
H2043 H 0.86878 0.4879 0.61104 0.0
H2044 H 0.82736 0.42902 0.61257 0.0
H2045 H 0.81462 0.40889 0.63862 0.0
C2046 C 0.17404 0.06131 0.66723 0.0
C2047 C 0.16317 0.08801 0.67119 0.0
C2048 C 0.12281 0.07527 0.64369 0.0
C2049 C 0.13279 0.04802 0.64171 0.0
N2050 N 0.16409 0.01367 0.65874 0.0
N2051 N 0.12577 0.11987 0.66529 0.0
C2052 C 0.15743 0.04064 0.65529 0.0
C2053 C 0.13691 0.09467 0.6604 0.0
N2054 N 0.20024 0.05535 0.67496 0.0
N2055 N 0.10076 0.08307 0.62832 0.0
H2056 H 0.13634 0.13574 0.67481 0.0
H2057 H 0.10546 0.12472 0.66108 0.0
H2058 H 0.09041 0.06977 0.61522 0.0
H2059 H 0.09434 0.10327 0.62628 0.0
H2060 H 0.21022 0.03745 0.66904 0.0
H2061 H 0.21283 0.06889 0.68549 0.0
H2062 H 0.18006 0.00712 0.67125 0.0
H2063 H 0.15192 0.99757 0.6519 0.0
C2064 C 0.61133 0.71567 0.90836 0.0
C2065 C 0.61244 0.71339 0.87951 0.0
C2066 C 0.59439 0.66666 0.88247 0.0
C2067 C 0.58968 0.67039 0.91104 0.0
N2068 N 0.58922 0.70107 0.95005 0.0
N2069 N 0.60244 0.68794 0.83838 0.0
C2070 C 0.59719 0.6955 0.9238 0.0
C2071 C 0.60336 0.68918 0.86633 0.0
N2072 N 0.62397 0.73717 0.92103 0.0
N2073 N 0.59183 0.64126 0.87096 0.0
H2074 H 0.60965 0.70356 0.82577 0.0
H2075 H 0.59273 0.67226 0.8277 0.0
H2076 H 0.58727 0.62375 0.88224 0.0
H2077 H 0.59763 0.63684 0.85092 0.0
H2078 H 0.62632 0.73853 0.94219 0.0
H2079 H 0.63458 0.75224 0.91021 0.0
H2080 H 0.59163 0.72019 0.95917 0.0
H2081 H 0.57758 0.68775 0.96189 0.0
C2082 C 0.91561 0.15818 0.37759 0.0
C2083 C 0.92294 0.1695 0.3517 0.0
C2084 C 0.9704 0.15495 0.35906 0.0
C2085 C 0.96247 0.14044 0.38298 0.0
N2086 N 0.9267 0.12586 0.41372 0.0
N2087 N 0.95691 0.17456 0.31586 0.0
C2088 C 0.93488 0.14167 0.3921 0.0
C2089 C 0.9501 0.16641 0.34175 0.0
N2090 N 0.88996 0.16239 0.38795 0.0
N2091 N 0.99745 0.15984 0.35391 0.0
H2092 H 0.9435 0.18445 0.30266 0.0
H2093 H 0.97548 0.16952 0.30665 0.0
H2094 H 0.01297 0.15407 0.3673 0.0
H2095 H 1.00427 0.17269 0.33831 0.0
H2096 H 0.88447 0.1577 0.40801 0.0
H2097 H 0.87431 0.17183 0.377 0.0
H2098 H 0.90635 0.12329 0.41945 0.0
H2099 H 0.93996 0.11303 0.42441 0.0
C2100 C 0.41489 0.80842 0.92732 0.0
C2101 C 0.41852 0.835 0.91595 0.0
C2102 C 0.38937 0.82173 0.87694 0.0
C2103 C 0.3886 0.79437 0.88662 0.0
N2104 N 0.40606 0.76057 0.91831 0.0
N2105 N 0.41123 0.86616 0.87825 0.0
C2106 C 0.40256 0.78743 0.91124 0.0
C2107 C 0.4065 0.84134 0.89018 0.0
N2108 N 0.42373 0.80284 0.95329 0.0
N2109 N 0.37258 0.8294 0.8559 0.0
H2110 H 0.42095 0.88233 0.8882 0.0
H2111 H 0.40688 0.8701 0.85775 0.0
H2112 H 0.3588 0.81603 0.84657 0.0
H2113 H 0.37027 0.84956 0.84949 0.0
H2114 H 0.41806 0.78525 0.96394 0.0
H2115 H 0.43573 0.81613 0.96484 0.0
H2116 H 0.41813 0.75423 0.93467 0.0
H2117 H 0.39947 0.74425 0.9063 0.0
C2118 C 0.04214 0.36038 0.35618 0.0
C2119 C 0.04941 0.37729 0.37874 0.0
C2120 C 0.09773 0.36427 0.37273 0.0
C2121 C 0.09053 0.34854 0.34927 0.0
N2122 N 0.05663 0.33658 0.31523 0.0
N2123 N 0.0844 0.39946 0.4054 0.0
C2124 C 0.06303 0.3484 0.33979 0.0
C2125 C 0.07733 0.38037 0.38617 0.0
N2126 N 0.01528 0.35398 0.3515 0.0
N2127 N 0.12407 0.36389 0.38215 0.0
H2128 H 0.07002 0.41193 0.41509 0.0
H2129 H 0.1045 0.4048 0.40996 0.0
H2130 H 0.13989 0.35374 0.37205 0.0
H2131 H 0.13007 0.37238 0.40075 0.0
H2132 H 0.009 0.33968 0.33703 0.0
H2133 H 0.99922 0.36076 0.36378 0.0
H2134 H 0.0378 0.33924 0.3056 0.0
H2135 H 0.07049 0.32537 0.30355 0.0
C2136 C 0.62587 0.30299 0.60258 0.0
C2137 C 0.62588 0.30431 0.6316 0.0
C2138 C 0.59443 0.34366 0.62975 0.0
C2139 C 0.59292 0.34122 0.60066 0.0
N2140 N 0.6016 0.31324 0.56066 0.0
N2141 N 0.60661 0.32289 0.67316 0.0
C2142 C 0.60719 0.31946 0.5874 0.0
C2143 C 0.60876 0.32348 0.64525 0.0
N2144 N 0.64342 0.28567 0.58934 0.0
N2145 N 0.58418 0.36634 0.64262 0.0
H2146 H 0.61862 0.3104 0.68559 0.0
H2147 H 0.59163 0.33357 0.68394 0.0
H2148 H 0.57592 0.38305 0.63236 0.0
H2149 H 0.58707 0.37042 0.66335 0.0
H2150 H 0.64688 0.28643 0.5683 0.0
H2151 H 0.65596 0.27173 0.59949 0.0
H2152 H 0.60925 0.29598 0.55076 0.0
H2153 H 0.58663 0.32319 0.5492 0.0
C2154 C 0.57715 0.14395 0.67088 0.0
C2155 C 0.58475 0.17173 0.66517 0.0
C2156 C 0.54857 0.17311 0.6299 0.0
C2157 C 0.54394 0.1447 0.63339 0.0
N2158 N 0.55779 0.10186 0.65296 0.0
N2159 N 0.57799 0.21207 0.63655 0.0
C2160 C 0.55948 0.12978 0.65255 0.0
C2161 C 0.57078 0.18599 0.64369 0.0
N2162 N 0.58563 0.13102 0.69417 0.0
N2163 N 0.53072 0.18828 0.6146 0.0
H2164 H 0.59088 0.22457 0.64792 0.0
H2165 H 0.57166 0.22123 0.61836 0.0
H2166 H 0.51401 0.17977 0.60449 0.0
H2167 H 0.53087 0.20959 0.614 0.0
H2168 H 0.57823 0.11193 0.70015 0.0
H2169 H 0.59746 0.13995 0.70931 0.0
H2170 H 0.57115 0.08959 0.66417 0.0
H2171 H 0.5449 0.09091 0.6399 0.0
C2172 C 0.41797 0.20293 0.58912 0.0
C2173 C 0.41999 0.17593 0.59967 0.0
C2174 C 0.39157 0.18955 0.63915 0.0
C2175 C 0.39105 0.21692 0.62928 0.0
N2176 N 0.41197 0.25078 0.59987 0.0
N2177 N 0.41169 0.14418 0.63668 0.0
C2178 C 0.40644 0.22394 0.60559 0.0
C2179 C 0.40807 0.16958 0.62552 0.0
N2180 N 0.42719 0.2088 0.56338 0.0
N2181 N 0.37511 0.1822 0.66058 0.0
H2182 H 0.42134 0.12817 0.62642 0.0
H2183 H 0.40642 0.13933 0.65675 0.0
H2184 H 0.36216 0.19589 0.67057 0.0
H2185 H 0.37211 0.16205 0.66679 0.0
H2186 H 0.4229 0.22722 0.55354 0.0
H2187 H 0.43728 0.1947 0.55101 0.0
H2188 H 0.42544 0.25689 0.5845 0.0
H2189 H 0.40602 0.2669 0.61253 0.0
C2190 C 0.44642 0.34947 0.6704 0.0
C2191 C 0.42026 0.34489 0.65844 0.0
C2192 C 0.43468 0.37125 0.61778 0.0
C2193 C 0.46141 0.37395 0.62897 0.0
N2194 N 0.49439 0.35871 0.66252 0.0
N2195 N 0.38997 0.34971 0.61959 0.0
C2196 C 0.4677 0.36137 0.65445 0.0
C2197 C 0.41472 0.35488 0.63158 0.0
N2198 N 0.45134 0.34204 0.69694 0.0
N2199 N 0.4278 0.38578 0.59487 0.0
H2200 H 0.37352 0.34092 0.62992 0.0
H2201 H 0.38601 0.3531 0.59893 0.0
H2202 H 0.44143 0.39871 0.58478 0.0
H2203 H 0.40794 0.38735 0.58736 0.0
H2204 H 0.46841 0.34867 0.70787 0.0
H2205 H 0.43807 0.33006 0.70853 0.0
H2206 H 0.50041 0.34757 0.67965 0.0
H2207 H 0.51095 0.36482 0.65056 0.0
C2208 C 0.90735 0.6112 0.72059 0.0
C2209 C 0.88218 0.62319 0.71237 0.0
C2210 C 0.88749 0.60242 0.66662 0.0
C2211 C 0.91386 0.59254 0.67424 0.0
N2212 N 0.95025 0.59053 0.7076 0.0
N2213 N 0.8493 0.6327 0.67691 0.0
C2214 C 0.9242 0.59801 0.70087 0.0
C2215 C 0.87233 0.61916 0.68528 0.0
N2216 N 0.91439 0.61051 0.74771 0.0
N2217 N 0.87729 0.59659 0.6412 0.0
H2218 H 0.83803 0.64548 0.68976 0.0
H2219 H 0.84253 0.63334 0.65673 0.0
H2220 H 0.88875 0.58728 0.6258 0.0
H2221 H 0.85705 0.59998 0.63555 0.0
H2222 H 0.93072 0.59911 0.7553 0.0
H2223 H 0.90238 0.6188 0.76326 0.0
H2224 H 0.96037 0.5984 0.72464 0.0
H2225 H 0.96235 0.57785 0.69547 0.0
C2226 C 0.87218 0.88764 0.57525 0.0
C2227 C 0.87101 0.87917 0.54743 0.0
C2228 C 0.84287 0.83969 0.56068 0.0
C2229 C 0.84215 0.84925 0.58816 0.0
N2230 N 0.85313 0.88466 0.621 0.0
N2231 N 0.8472 0.85249 0.51316 0.0
C2232 C 0.85549 0.87422 0.59513 0.0
C2233 C 0.85422 0.85662 0.53996 0.0
N2234 N 0.89042 0.90741 0.58302 0.0
N2235 N 0.83257 0.81456 0.55405 0.0
H2236 H 0.8529 0.86567 0.49739 0.0
H2237 H 0.83277 0.83803 0.50701 0.0
H2238 H 0.82289 0.80176 0.56803 0.0
H2239 H 0.83562 0.80549 0.53497 0.0
H2240 H 0.89437 0.91247 0.60335 0.0
H2241 H 0.90385 0.91684 0.56939 0.0
H2242 H 0.85959 0.90425 0.62634 0.0
H2243 H 0.84337 0.8744 0.63694 0.0
C2244 C 0.09586 0.89706 0.68596 0.0
C2245 C 0.09734 0.92596 0.68096 0.0
C2246 C 0.12702 0.93019 0.72171 0.0
C2247 C 0.12814 0.9013 0.72412 0.0
N2248 N 0.118 0.85701 0.70536 0.0
N2249 N 0.11852 0.96947 0.69323 0.0
C2250 C 0.11404 0.8847 0.70515 0.0
C2251 C 0.1143 0.94231 0.69843 0.0
N2252 N 0.07668 0.88115 0.6733 0.0
N2253 N 0.13743 0.9463 0.74213 0.0
H2254 H 0.10833 0.98068 0.67837 0.0
H2255 H 0.13376 0.98086 0.70286 0.0
H2256 H 0.14744 0.93848 0.75925 0.0
H2257 H 0.13408 0.96732 0.74333 0.0
H2258 H 0.07315 0.8608 0.67855 0.0
H2259 H 0.06216 0.88847 0.65975 0.0
H2260 H 0.11088 0.84411 0.68993 0.0
H2261 H 0.13064 0.84725 0.71954 0.0
C2262 C 0.14009 0.62401 0.57685 0.0
C2263 C 0.13755 0.63413 0.5497 0.0
C2264 C 0.16366 0.67511 0.56286 0.0
C2265 C 0.16854 0.66382 0.58921 0.0
N2266 N 0.16394 0.62577 0.62035 0.0
N2267 N 0.15232 0.66671 0.51546 0.0
C2268 C 0.15763 0.63766 0.59586 0.0
C2269 C 0.15058 0.65909 0.54236 0.0
N2270 N 0.12467 0.60209 0.58489 0.0
N2271 N 0.17163 0.70124 0.5571 0.0
H2272 H 0.14405 0.65538 0.49941 0.0
H2273 H 0.16448 0.68286 0.50865 0.0
H2274 H 0.18396 0.71286 0.57002 0.0
H2275 H 0.16428 0.7119 0.54017 0.0
H2276 H 0.12332 0.59544 0.60509 0.0
H2277 H 0.11109 0.59211 0.57178 0.0
H2278 H 0.16002 0.60526 0.6246 0.0
H2279 H 0.1747 0.63579 0.63581 0.0
C2280 C 0.87174 0.38926 0.827 0.0
C2281 C 0.88182 0.38537 0.79995 0.0
C2282 C 0.92313 0.41181 0.81154 0.0
C2283 C 0.91263 0.41685 0.83824 0.0
N2284 N 0.87614 0.41171 0.87122 0.0
N2285 N 0.91435 0.39787 0.76482 0.0
C2286 C 0.88651 0.40624 0.84578 0.0
C2287 C 0.90688 0.39775 0.79185 0.0
N2288 N 0.84884 0.37537 0.83518 0.0
N2289 N 0.94873 0.42068 0.80473 0.0
H2290 H 0.90299 0.38859 0.74937 0.0
H2291 H 0.93044 0.40948 0.75706 0.0
H2292 H 0.95995 0.43414 0.81681 0.0
H2293 H 0.95938 0.41359 0.78767 0.0
H2294 H 0.84187 0.3746 0.85529 0.0
H2295 H 0.83784 0.36247 0.82221 0.0
H2296 H 0.85603 0.40772 0.87693 0.0
H2297 H 0.88732 0.42134 0.88662 0.0
C2298 C 0.65951 0.88118 0.41504 0.0
C2299 C 0.67003 0.85475 0.42149 0.0
C2300 C 0.65383 0.86015 0.46886 0.0
C2301 C 0.64076 0.88513 0.46173 0.0
N2302 N 0.62753 0.9174 0.4269 0.0
N2303 N 0.67331 0.8173 0.45377 0.0
C2304 C 0.64287 0.89528 0.43456 0.0
C2305 C 0.66575 0.84362 0.44806 0.0
N2306 N 0.66439 0.89239 0.38986 0.0
N2307 N 0.65674 0.85306 0.49581 0.0
H2308 H 0.68509 0.8053 0.44069 0.0
H2309 H 0.66694 0.80695 0.4713 0.0
H2310 H 0.65054 0.86551 0.51199 0.0
H2311 H 0.66811 0.83628 0.50234 0.0
H2312 H 0.66034 0.91277 0.38517 0.0
H2313 H 0.67369 0.88178 0.37386 0.0
H2314 H 0.62558 0.924 0.40674 0.0
H2315 H 0.61447 0.92767 0.44031 0.0
C2316 C 0.08674 0.10942 0.82089 0.0
C2317 C 0.09456 0.08302 0.83058 0.0
C2318 C 0.134 0.0853 0.79897 0.0
C2319 C 0.12919 0.11368 0.79477 0.0
N2320 N 0.10263 0.15371 0.80558 0.0
N2321 N 0.12542 0.04442 0.82536 0.0
C2322 C 0.10623 0.12607 0.80721 0.0
C2323 C 0.11832 0.07065 0.81882 0.0
N2324 N 0.0601 0.11759 0.82161 0.0
N2325 N 0.15197 0.07168 0.78244 0.0
H2326 H 0.1122 0.03068 0.83484 0.0
H2327 H 0.14466 0.03625 0.82108 0.0
H2328 H 0.16351 0.0814 0.76743 0.0
H2329 H 0.15337 0.05043 0.78165 0.0
H2330 H 0.05354 0.13626 0.81364 0.0
H2331 H 0.04415 0.10386 0.82477 0.0
H2332 H 0.08735 0.1639 0.81648 0.0
H2333 H 0.11656 0.16652 0.79564 0.0
C2334 C 0.36082 0.63918 0.41285 0.0
C2335 C 0.34674 0.66284 0.42253 0.0
C2336 C 0.36932 0.65802 0.46734 0.0
C2337 C 0.38205 0.63351 0.45829 0.0
N2338 N 0.38908 0.59949 0.42339 0.0
N2339 N 0.33343 0.69136 0.46045 0.0
C2340 C 0.37745 0.62369 0.4313 0.0
C2341 C 0.35009 0.67146 0.45009 0.0
N2342 N 0.35914 0.63216 0.38578 0.0
N2343 N 0.37538 0.6685 0.4926 0.0
H2344 H 0.31879 0.70136 0.44869 0.0
H2345 H 0.3321 0.69603 0.48121 0.0
H2346 H 0.38765 0.65852 0.50688 0.0
H2347 H 0.36975 0.6881 0.49883 0.0
H2348 H 0.37033 0.61648 0.37678 0.0
H2349 H 0.34774 0.64319 0.37153 0.0
H2350 H 0.38429 0.58922 0.40536 0.0
H2351 H 0.40304 0.58893 0.43559 0.0
C2352 C 0.69647 0.92432 0.5981 0.0
C2353 C 0.67179 0.91156 0.58921 0.0
C2354 C 0.69047 0.86665 0.60231 0.0
C2355 C 0.71458 0.8796 0.61196 0.0
N2356 N 0.73772 0.9208 0.62557 0.0
N2357 N 0.64261 0.8716 0.59057 0.0
C2358 C 0.71656 0.9085 0.61201 0.0
C2359 C 0.66803 0.88296 0.59341 0.0
N2360 N 0.7017 0.95108 0.59177 0.0
N2361 N 0.68924 0.83875 0.60073 0.0
H2362 H 0.62521 0.88304 0.58594 0.0
H2363 H 0.63812 0.8515 0.59605 0.0
H2364 H 0.70474 0.826 0.60796 0.0
H2365 H 0.67368 0.82833 0.59054 0.0
H2366 H 0.72043 0.96056 0.59543 0.0
H2367 H 0.68879 0.96309 0.57984 0.0
H2368 H 0.7389 0.94183 0.62885 0.0
H2369 H 0.75265 0.90968 0.63602 0.0
C2370 C 0.68665 0.13836 0.89318 0.0
C2371 C 0.71316 0.127 0.8893 0.0
C2372 C 0.69887 0.08545 0.914 0.0
C2373 C 0.67293 0.09752 0.91963 0.0
N2374 N 0.64237 0.13615 0.91576 0.0
N2375 N 0.74644 0.09295 0.90265 0.0
C2376 C 0.66704 0.12434 0.90982 0.0
C2377 C 0.71974 0.10129 0.90124 0.0
N2378 N 0.67985 0.16205 0.87992 0.0
N2379 N 0.70401 0.05893 0.92129 0.0
H2380 H 0.76283 0.10468 0.89571 0.0
H2381 H 0.75282 0.07578 0.91353 0.0
H2382 H 0.6914 0.04748 0.93409 0.0
H2383 H 0.72064 0.04786 0.9138 0.0
H2384 H 0.66075 0.17127 0.88099 0.0
H2385 H 0.69286 0.1718 0.86609 0.0
H2386 H 0.63822 0.15686 0.91316 0.0
H2387 H 0.62599 0.12551 0.92431 0.0
C2388 C 0.37035 0.09442 0.35437 0.0
C2389 C 0.3451 0.08634 0.34227 0.0
C2390 C 0.35362 0.03898 0.3567 0.0
C2391 C 0.3768 0.04762 0.37204 0.0
N2392 N 0.40598 0.08433 0.38754 0.0
N2393 N 0.31106 0.05132 0.33496 0.0
C2394 C 0.38503 0.07552 0.37119 0.0
C2395 C 0.33615 0.05883 0.34462 0.0
N2396 N 0.38006 0.12035 0.35036 0.0
N2397 N 0.34945 0.01177 0.35156 0.0
H2398 H 0.29839 0.06448 0.32402 0.0
H2399 H 0.30211 0.03253 0.33957 0.0
H2400 H 0.36293 0.99647 0.35778 0.0
H2401 H 0.33453 1.00456 0.33814 0.0
H2402 H 0.39971 0.12654 0.35578 0.0
H2403 H 0.36906 0.13548 0.34014 0.0
H2404 H 0.41097 0.10484 0.39033 0.0
H2405 H 0.41681 0.07139 0.40057 0.0
C2406 C 0.3079 0.42131 0.92322 0.0
C2407 C 0.33544 0.41194 0.92429 0.0
C2408 C 0.32265 0.3723 0.89564 0.0
C2409 C 0.29489 0.38102 0.8961 0.0
N2410 N 0.2604 0.40854 0.91842 0.0
N2411 N 0.36873 0.37692 0.91366 0.0
C2412 C 0.28732 0.40408 0.91209 0.0
C2413 C 0.34261 0.38671 0.91149 0.0
N2414 N 0.30108 0.4467 0.93275 0.0
N2415 N 0.33028 0.35129 0.87878 0.0
H2416 H 0.38472 0.38803 0.92233 0.0
H2417 H 0.3744 0.35719 0.90797 0.0
H2418 H 0.31653 0.3407 0.8664 0.0
H2419 H 0.35053 0.34589 0.87498 0.0
H2420 H 0.28203 0.45561 0.92926 0.0
H2421 H 0.31487 0.45988 0.94212 0.0
H2422 H 0.254 0.42331 0.93242 0.0
H2423 H 0.2447 0.39535 0.91253 0.0
C2424 C 0.14224 0.91608 0.86333 0.0
C2425 C 0.16704 0.92248 0.84949 0.0
C2426 C 0.16287 0.97029 0.86442 0.0
C2427 C 0.13867 0.96376 0.87934 0.0
N2428 N 0.10907 0.92904 0.89799 0.0
N2429 N 0.20222 0.95576 0.83875 0.0
C2430 C 0.12935 0.93624 0.88008 0.0
C2431 C 0.17792 0.94939 0.85112 0.0
N2432 N 0.13074 0.89078 0.86036 0.0
N2433 N 0.17168 0.99655 0.86115 0.0
H2434 H 0.21349 0.94199 0.827 0.0
H2435 H 0.21102 0.97518 0.8401 0.0
H2436 H 0.16154 0.01381 0.86853 0.0
H2437 H 0.16154 0.01381 0.86853 0.0
H2438 H 0.11065 0.88651 0.86606 0.0
H2439 H 0.14053 0.87451 0.85064 0.0
H2440 H 0.10325 0.90888 0.9017 0.0
H2441 H 0.09996 0.94302 0.91132 0.0
C2442 C 0.8455 0.12648 0.10233 0.0
C2443 C 0.83891 0.10067 0.09043 0.0
C2444 C 0.79094 0.10707 0.10394 0.0
C2445 C 0.79819 0.13067 0.1193 0.0
N2446 N 0.83316 0.16163 0.13529 0.0
N2447 N 0.80565 0.06458 0.08361 0.0
C2448 C 0.82563 0.1403 0.1188 0.0
C2449 C 0.8118 0.09035 0.09253 0.0
N2450 N 0.87101 0.13741 0.09875 0.0
N2451 N 0.76405 0.10159 0.09841 0.0
H2452 H 0.81963 0.05186 0.07382 0.0
H2453 H 0.78708 0.05501 0.08792 0.0
H2454 H 0.74806 0.11439 0.10439 0.0
H2455 H 0.7578 0.08628 0.08493 0.0
H2456 H 0.87601 0.15745 0.10397 0.0
H2457 H 0.88699 0.12698 0.08924 0.0
H2458 H 0.85337 0.16762 0.13836 0.0
H2459 H 0.8195 0.17177 0.14816 0.0
C2460 C 0.37073 0.91581 0.15532 0.0
C2461 C 0.34868 0.92514 0.17194 0.0
C2462 C 0.36093 0.97261 0.16117 0.0
C2463 C 0.3806 0.96336 0.14183 0.0
N2464 N 0.40247 0.92594 0.11827 0.0
N2465 N 0.31985 0.96238 0.18661 0.0
C2466 C 0.38511 0.93484 0.13834 0.0
C2467 C 0.34282 0.95351 0.17348 0.0
N2468 N 0.37807 0.88884 0.15593 0.0
N2469 N 0.36064 0.99942 0.1693 0.0
H2470 H 0.30619 0.94911 0.19612 0.0
H2471 H 0.31316 0.9826 0.18578 0.0
H2472 H 0.37474 0.01386 0.16241 0.0
H2473 H 0.3486 0.00664 0.18536 0.0
H2474 H 0.39551 0.88115 0.14641 0.0
H2475 H 0.36774 0.87432 0.16767 0.0
H2476 H 0.40467 0.90546 0.11282 0.0
H2477 H 0.41306 0.93926 0.10537 0.0
C2478 C 0.61835 0.5756 0.14517 0.0
C2479 C 0.63037 0.55013 0.13789 0.0
C2480 C 0.67101 0.56171 0.16547 0.0
C2481 C 0.66021 0.58825 0.17053 0.0
N2482 N 0.62529 0.622 0.16141 0.0
N2483 N 0.66907 0.51943 0.13957 0.0
C2484 C 0.63413 0.5955 0.15971 0.0
C2485 C 0.65705 0.54345 0.14744 0.0
N2486 N 0.59187 0.58096 0.13794 0.0
N2487 N 0.69386 0.55328 0.17922 0.0
H2488 H 0.65889 0.50419 0.12866 0.0
H2489 H 0.68973 0.51514 0.14253 0.0
H2490 H 0.70433 0.5657 0.19302 0.0
H2491 H 0.701 0.53322 0.17911 0.0
H2492 H 0.58077 0.59749 0.14553 0.0
H2493 H 0.58034 0.56795 0.12554 0.0
H2494 H 0.60826 0.62941 0.15099 0.0
H2495 H 0.63638 0.63742 0.17108 0.0
C2496 C 0.99025 0.26437 0.30127 0.0
C2497 C 0.9794 0.24412 0.28342 0.0
C2498 C 0.02583 0.23109 0.26958 0.0
C2499 C 0.03647 0.25175 0.28694 0.0
N2500 N 0.02957 0.28063 0.32646 0.0
N2501 N 0.98667 0.20339 0.25655 0.0
C2502 C 0.01894 0.26572 0.30536 0.0
C2503 C 0.99719 0.22582 0.26954 0.0
N2504 N 0.97356 0.28382 0.31255 0.0
N2505 N 0.0431 0.21718 0.25253 0.0
H2506 H 0.96578 0.19893 0.25642 0.0
H2507 H 0.99869 0.18796 0.24809 0.0
H2508 H 0.06433 0.21946 0.25347 0.0
H2509 H 0.03644 0.20425 0.23695 0.0
H2510 H 0.98092 0.3007 0.32328 0.0
H2511 H 0.95257 0.28481 0.30906 0.0
H2512 H 0.01756 0.28875 0.34213 0.0
H2513 H 0.05046 0.28237 0.33009 0.0
C2514 C 0.53027 0.76669 0.99375 0.0
C2515 C 0.50908 0.77785 0.97734 0.0
C2516 C 0.49464 0.73191 0.96372 0.0
C2517 C 0.51529 0.72064 0.98077 0.0
N2518 N 0.55674 0.72667 0.00676 0.0
N2519 N 0.47765 0.77161 0.93968 0.0
C2520 C 0.53447 0.73789 0.99408 0.0
C2521 C 0.49356 0.76065 0.95985 0.0
N2522 N 0.54583 0.78372 0.00959 0.0
N2523 N 0.47473 0.71546 0.95288 0.0
H2524 H 0.47587 0.79253 0.93631 0.0
H2525 H 0.46854 0.75987 0.92439 0.0
H2526 H 0.47398 0.69437 0.95585 0.0
H2527 H 0.45749 0.72298 0.94288 0.0
H2528 H 0.55925 0.77693 0.02467 0.0
H2529 H 0.54461 0.805 0.00814 0.0
H2530 H 0.57287 0.73812 0.01466 0.0
H2531 H 0.56029 0.70563 0.0074 0.0
C2532 C 0.99109 0.78218 0.24353 0.0
C2533 C 0.97434 0.76192 0.23119 0.0
C2534 C 0.01501 0.73896 0.21285 0.0
C2535 C 0.03179 0.75635 0.22904 0.0
N2536 N 0.03668 0.79635 0.25743 0.0
N2537 N 0.96995 0.71963 0.20601 0.0
C2538 C 0.02002 0.77872 0.24345 0.0
C2539 C 0.98614 0.74022 0.21592 0.0
N2540 N 0.97922 0.80477 0.25507 0.0
N2541 N 0.02642 0.72124 0.19451 0.0
H2542 H 0.94873 0.71937 0.20813 0.0
H2543 H 0.97764 0.70157 0.1977 0.0
H2544 H 0.04737 0.7188 0.19203 0.0
H2545 H 0.01509 0.71092 0.1797 0.0
H2546 H 0.99007 0.82161 0.26228 0.0
H2547 H 0.95808 0.80772 0.25568 0.0
H2548 H 0.02972 0.81101 0.27121 0.0
H2549 H 0.05796 0.79591 0.25561 0.0
C2550 C 0.02703 0.73832 0.0169 0.0
C2551 C 1.00576 0.72778 0.03358 0.0
C2552 C 0.99179 0.7741 0.04616 0.0
C2553 C 0.01303 0.78482 0.02943 0.0
N2554 N 0.05505 0.77744 1.00458 0.0
N2555 N 0.97452 0.73503 0.07113 0.0
C2556 C 0.03206 0.76698 0.01662 0.0
C2557 C 0.99045 0.74548 0.05069 0.0
N2558 N 0.04189 0.72093 1.00079 0.0
N2559 N 0.97169 0.79086 0.0561 0.0
H2560 H 0.97351 0.7142 0.07539 0.0
H2561 H 0.96479 0.74716 0.08574 0.0
H2562 H 0.971 0.81183 0.05235 0.0
H2563 H 0.95416 0.78356 0.06581 0.0
H2564 H 0.05533 0.7275 0.9856 0.0
H2565 H 0.03986 0.6997 1.00195 0.0
H2566 H 0.07096 0.76538 0.99714 0.0
H2567 H 0.05943 0.79834 1.00426 0.0
C2568 C 0.26744 0.9919 0.23155 0.0
C2569 C 0.26889 0.97686 0.2561 0.0
C2570 C 0.26481 0.01932 0.28239 0.0
C2571 C 0.26741 0.03457 0.25782 0.0
N2572 N 0.27453 0.03553 0.20892 0.0
N2573 N 0.27241 0.976 0.3053 0.0
C2574 C 0.26975 0.02091 0.23227 0.0
C2575 C 0.26871 0.99051 0.2817 0.0
N2576 N 0.26203 0.97791 0.20806 0.0
N2577 N 0.25693 0.03207 0.306 0.0
H2578 H 0.27514 0.95481 0.30544 0.0
H2579 H 0.27511 0.98525 0.32433 0.0
H2580 H 0.2532 0.05307 0.30711 0.0
H2581 H 0.25183 0.02151 0.32381 0.0
H2582 H 0.25822 0.98709 0.18917 0.0
H2583 H 0.25822 0.98709 0.18917 0.0
H2584 H 0.2795 0.02644 0.19027 0.0
H2585 H 0.27583 0.05684 0.20872 0.0
C2586 C 0.23854 0.49333 0.98547 0.0
C2587 C 0.22768 0.47564 1.00574 0.0
C2588 C 0.2738 0.46267 0.01996 0.0
C2589 C 0.28482 0.48072 1.00002 0.0
N2590 N 0.27821 0.50764 0.95918 0.0
N2591 N 0.23462 0.4365 0.03502 0.0
C2592 C 0.26731 0.49426 0.98122 0.0
C2593 C 0.2452 0.45783 0.02043 0.0
N2594 N 0.22128 0.50979 0.97089 0.0
N2595 N 0.29022 0.45175 0.03982 0.0
H2596 H 0.21378 0.43224 0.03588 0.0
H2597 H 0.24672 0.42125 0.0437 0.0
H2598 H 0.31109 0.45583 0.04137 0.0
H2599 H 0.2827 0.44073 0.05644 0.0
H2600 H 0.22792 0.52566 0.95831 0.0
H2601 H 0.20002 0.50809 0.97225 0.0
H2602 H 0.26647 0.51575 0.94336 0.0
H2603 H 0.2992 0.50848 0.95537 0.0
C2604 C 0.73649 0.49106 0.23434 0.0
C2605 C 0.72985 0.47845 0.25963 0.0
C2606 C 0.71802 0.52333 0.27887 0.0
C2607 C 0.72915 0.53601 0.25522 0.0
N2608 N 0.75081 0.53232 0.21096 0.0
N2609 N 0.71609 0.48249 0.307 0.0
C2610 C 0.73874 0.51998 0.233 0.0
C2611 C 0.72064 0.49448 0.28212 0.0
N2612 N 0.74 0.47536 0.21143 0.0
N2613 N 0.70525 0.53888 0.29832 0.0
H2614 H 0.71829 0.46156 0.31043 0.0
H2615 H 0.71216 0.49347 0.32485 0.0
H2616 H 0.70378 0.56012 0.29701 0.0
H2617 H 0.69413 0.53059 0.31452 0.0
H2618 H 0.74219 0.48351 0.19185 0.0
H2619 H 0.7379 0.45411 0.21157 0.0
H2620 H 0.76116 0.52158 0.19572 0.0
H2621 H 0.7519 0.55352 0.20866 0.0
C2622 C 0.74059 0.01792 0.02974 0.0
C2623 C 0.72929 0.03373 0.00817 0.0
C2624 C 0.77512 0.04705 0.9931 0.0
C2625 C 0.78654 0.03071 0.01424 0.0
N2626 N 0.78073 1.00582 0.05644 0.0
N2627 N 0.73524 0.07042 0.97559 0.0
C2628 C 0.7694 0.01786 0.03385 0.0
C2629 C 0.74636 0.05079 0.99205 0.0
N2630 N 0.72368 1.0024 0.04574 0.0
N2631 N 0.79144 0.0573 0.97277 0.0
H2632 H 0.71431 0.07381 0.97406 0.0
H2633 H 0.74688 0.08533 0.96575 0.0
H2634 H 0.81255 0.05441 0.97205 0.0
H2635 H 0.78379 0.0666 0.95519 0.0
H2636 H 0.73059 0.98771 0.05953 0.0
H2637 H 0.70239 1.00367 0.04451 0.0
H2638 H 0.76936 0.99832 0.07281 0.0
H2639 H 0.80178 1.00539 0.05996 0.0
C2640 C 0.24161 0.29637 0.02405 0.0
C2641 C 0.26207 0.27868 0.03468 0.0
C2642 C 0.27482 0.26499 0.98812 0.0
C2643 C 0.25416 0.28245 0.97765 0.0
N2644 N 0.22506 0.32172 0.98499 0.0
N2645 N 0.3028 0.25192 0.02705 0.0
C2646 C 0.24006 0.30059 0.99538 0.0
C2647 C 0.28024 0.26484 0.01673 0.0
N2648 N 0.22229 0.30751 0.04099 0.0
N2649 N 0.28875 0.24808 0.97071 0.0
H2650 H 0.30743 0.25172 0.04791 0.0
H2651 H 0.31819 0.2436 0.01488 0.0
H2652 H 0.28655 0.24913 0.94947 0.0
H2653 H 0.3016 0.23242 0.97728 0.0
H2654 H 0.20525 0.31811 0.03382 0.0
H2655 H 0.22162 0.30403 0.06202 0.0
H2656 H 0.21693 0.33722 0.99718 0.0
H2657 H 0.22334 0.32558 0.96413 0.0
C2658 C 0.27567 0.73829 0.52087 0.0
C2659 C 0.24866 0.7405 0.53133 0.0
C2660 C 0.23031 0.7382 0.48471 0.0
C2661 C 0.2573 0.73904 0.47418 0.0
N2662 N 0.30548 0.74604 0.48194 0.0
N2663 N 0.20069 0.74884 0.52284 0.0
C2664 C 0.28002 0.74058 0.49215 0.0
C2665 C 0.22605 0.74211 0.51316 0.0
N2666 N 0.29716 0.73447 0.53832 0.0
N2667 N 0.20871 0.73366 0.46753 0.0
H2668 H 0.19657 0.75212 0.54352 0.0
H2669 H 0.1842 0.7534 0.51012 0.0
H2670 H 0.21097 0.73128 0.44642 0.0
H2671 H 0.18892 0.72984 0.47452 0.0
H2672 H 0.31689 0.72992 0.53161 0.0
H2673 H 0.29487 0.73374 0.55954 0.0
H2674 H 0.32234 0.75034 0.49426 0.0
H2675 H 0.30931 0.74845 0.46106 0.0
C2676 C 0.99126 0.47751 0.73972 0.0
C2677 C 0.99019 0.50362 0.7272 0.0
C2678 C 0.98915 0.5254 0.77246 0.0
C2679 C 0.99215 0.49934 0.78493 0.0
N2680 N 1.00077 0.45071 0.77933 0.0
N2681 N 0.99538 0.55169 0.7305 0.0
C2682 C 0.99446 0.47554 0.76842 0.0
C2683 C 0.99082 0.52747 0.74342 0.0
N2684 N 0.99003 0.4543 0.72419 0.0
N2685 N 0.98436 0.548 0.78824 0.0
H2686 H 0.99927 0.5701 0.74058 0.0
H2687 H 0.99927 0.5701 0.74058 0.0
H2688 H 0.98376 0.54732 0.80958 0.0
H2689 H 0.97868 0.56687 0.78012 0.0
H2690 H 0.99078 0.43476 0.73281 0.0
H2691 H 0.98718 0.45471 0.70301 0.0
H2692 H 1.00486 0.44747 0.80005 0.0
H2693 H 1.00486 0.44747 0.80005 0.0
C2694 C 0.77999 0.76879 0.51781 0.0
C2695 C 0.76208 0.78363 0.53521 0.0
C2696 C 0.74151 0.80557 0.49514 0.0
C2697 C 0.75507 0.78647 0.478 0.0
N2698 N 0.78868 0.75094 0.47224 0.0
N2699 N 0.72362 0.81437 0.54039 0.0
C2700 C 0.77503 0.76859 0.48912 0.0
C2701 C 0.74257 0.80197 0.52393 0.0
N2702 N 0.80187 0.75521 0.52875 0.0
N2703 N 0.72749 0.82703 0.48409 0.0
H2704 H 0.72267 0.8114 0.56147 0.0
H2705 H 0.70715 0.82559 0.53287 0.0
H2706 H 0.72622 0.83052 0.46313 0.0
H2707 H 0.71972 0.84309 0.4958 0.0
H2708 H 0.81712 0.74608 0.517 0.0
H2709 H 0.80614 0.75523 0.54968 0.0
H2710 H 0.80091 0.73499 0.47927 0.0
H2711 H 0.78689 0.75173 0.45095 0.0
C2712 C 0.51504 0.48464 0.2725 0.0
C2713 C 0.52753 0.50885 0.2825 0.0
C2714 C 0.53939 0.52292 0.23582 0.0
C2715 C 0.52667 0.4988 0.22574 0.0
N2716 N 0.50586 0.45484 0.23369 0.0
N2717 N 0.55537 0.54893 0.27495 0.0
C2718 C 0.51564 0.47901 0.24391 0.0
C2719 C 0.54119 0.52715 0.26453 0.0
N2720 N 0.50185 0.46759 0.29037 0.0
N2721 N 0.54794 0.54272 0.21791 0.0
H2722 H 0.5553 0.55408 0.29564 0.0
H2723 H 0.56867 0.56096 0.26345 0.0
H2724 H 0.54688 0.54064 0.1967 0.0
H2725 H 0.55436 0.56213 0.22385 0.0
H2726 H 0.48959 0.45124 0.28443 0.0
H2727 H 0.50237 0.47043 0.31155 0.0
H2728 H 0.49988 0.43835 0.24575 0.0
H2729 H 0.50538 0.45044 0.21279 0.0
C2730 C 0.02739 0.02607 0.74292 0.0
C2731 C 0.028 0.99984 0.73041 0.0
C2732 C 0.03041 0.97774 0.77536 0.0
C2733 C 0.029 1.00393 0.78788 0.0
N2734 N 0.03132 0.05309 0.78452 0.0
N2735 N 0.03529 0.95116 0.73356 0.0
C2736 C 0.02925 0.02816 0.77191 0.0
C2737 C 0.03129 0.97579 0.7463 0.0
N2738 N 0.02423 0.0489 0.72702 0.0
N2739 N 0.03005 0.95476 0.79135 0.0
H2740 H 0.03492 0.94879 0.71234 0.0
H2741 H 0.04078 0.93329 0.74373 0.0
H2742 H 0.03093 0.95546 0.81268 0.0
H2743 H 0.02773 0.93501 0.78374 0.0
H2744 H 0.02028 0.06834 0.73475 0.0
H2745 H 0.02442 0.0483 0.70566 0.0
H2746 H 0.03461 0.0714 0.77419 0.0
H2747 H 0.03156 0.05543 0.80574 0.0
C2748 C 0.5249 0.73039 0.79183 0.0
C2749 C 0.53757 0.75384 0.78027 0.0
C2750 C 0.49276 0.77506 0.77368 0.0
C2751 C 0.48002 0.75005 0.78104 0.0
N2752 N 0.48376 0.70282 0.79515 0.0
N2753 N 0.53386 0.79755 0.75764 0.0
C2754 C 0.49597 0.72748 0.79002 0.0
C2755 C 0.52159 0.776 0.77061 0.0
N2756 N 0.54054 0.71082 0.80423 0.0
N2757 N 0.47726 0.79809 0.77026 0.0
H2758 H 0.55503 0.79944 0.75566 0.0
H2759 H 0.523 0.8127 0.74732 0.0
H2760 H 0.45607 0.79823 0.77296 0.0
H2761 H 0.48562 0.81752 0.76757 0.0
H2762 H 0.5324 0.6948 0.81568 0.0
H2763 H 0.56183 0.7118 0.80487 0.0
H2764 H 0.49461 0.68487 0.79888 0.0
H2765 H 0.46272 0.69967 0.7937 0.0
C2766 C 0.98577 0.24045 0.49277 0.0
C2767 C 0.01139 0.22783 0.48757 0.0
C2768 C 0.03187 0.27282 0.47893 0.0
C2769 C 0.00733 0.28536 0.48812 0.0
N2770 N 0.96175 0.28143 0.50676 0.0
N2771 N 0.05968 0.23168 0.47788 0.0
C2772 C 0.98444 0.26927 0.49576 0.0
C2773 C 0.03467 0.24388 0.48087 0.0
N2774 N 0.96257 0.22486 0.49413 0.0
N2775 N 0.05251 0.28858 0.46853 0.0
H2776 H 0.0626 0.2106 0.47931 0.0
H2777 H 0.07793 0.24252 0.47596 0.0
H2778 H 0.0515 0.30989 0.46768 0.0
H2779 H 0.06969 0.28052 0.45882 0.0
H2780 H 0.94296 0.23315 0.49507 0.0
H2781 H 0.96272 0.20367 0.4915 0.0
H2782 H 0.94578 0.2705 0.51568 0.0
H2783 H 0.95961 0.30259 0.50861 0.0
C2784 C 0.5152 0.22985 0.73819 0.0
C2785 C 0.53277 0.2486 0.72475 0.0
C2786 C 0.49313 0.27152 0.70459 0.0
C2787 C 0.47588 0.25676 0.72267 0.0
N2788 N 0.46952 0.22042 0.7553 0.0
N2789 N 0.53881 0.28858 0.69621 0.0
C2790 C 0.48662 0.23519 0.73881 0.0
C2791 C 0.5219 0.26948 0.70775 0.0
N2792 N 0.52592 0.20692 0.75008 0.0
N2793 N 0.48217 0.28757 0.68453 0.0
H2794 H 0.56002 0.28829 0.69833 0.0
H2795 H 0.5317 0.30606 0.68633 0.0
H2796 H 0.46122 0.28964 0.6815 0.0
H2797 H 0.49382 0.29641 0.66902 0.0
H2798 H 0.51406 0.19121 0.75822 0.0
H2799 H 0.5468 0.20245 0.7496 0.0
H2800 H 0.47633 0.20671 0.77012 0.0
H2801 H 0.44829 0.22267 0.75472 0.0
C2802 C 0.48365 0.27266 0.51831 0.0
C2803 C 0.50686 0.28364 0.53194 0.0
C2804 C 0.52276 0.23748 0.5433 0.0
C2805 C 0.50006 0.22648 0.52885 0.0
N2806 N 0.45648 0.23262 0.5067 0.0
N2807 N 0.54441 0.27727 0.56342 0.0
C2808 C 0.47967 0.24383 0.51769 0.0
C2809 C 0.52498 0.26629 0.54657 0.0
N2810 N 0.46582 0.28998 0.50544 0.0
N2811 N 0.54315 0.22052 0.55229 0.0
H2812 H 0.54713 0.29821 0.56594 0.0
H2813 H 0.55622 0.26576 0.57689 0.0
H2814 H 0.5425 0.1993 0.55022 0.0
H2815 H 0.56176 0.22743 0.55999 0.0
H2816 H 0.45036 0.28363 0.49227 0.0
H2817 H 0.46694 0.31121 0.50747 0.0
H2818 H 0.43958 0.24389 0.5004 0.0
H2819 H 0.4532 0.21155 0.50555 0.0
C2820 C 0.77422 0.495 0.7286 0.0
C2821 C 0.78284 0.47701 0.74971 0.0
C2822 C 0.79495 0.51592 0.779 0.0
C2823 C 0.78468 0.53379 0.75856 0.0
N2824 N 0.77048 0.54187 0.71218 0.0
N2825 N 0.80631 0.46952 0.79255 0.0
C2826 C 0.77631 0.52375 0.73269 0.0
C2827 C 0.79504 0.48725 0.77405 0.0
N2828 N 0.76337 0.48443 0.70503 0.0
N2829 N 0.80323 0.52641 0.80365 0.0
H2830 H 0.80537 0.44832 0.7905 0.0
H2831 H 0.81811 0.4756 0.8092 0.0
H2832 H 0.80456 0.54736 0.80751 0.0
H2833 H 0.80788 0.51462 0.82074 0.0
H2834 H 0.75395 0.49609 0.68993 0.0
H2835 H 0.76301 0.46349 0.70085 0.0
H2836 H 0.76618 0.53624 0.6921 0.0
H2837 H 0.77194 0.56301 0.71484 0.0
C2838 C 0.73994 0.9972 0.48721 0.0
C2839 C 0.72894 0.98039 0.50814 0.0
C2840 C 0.7749 0.96589 0.52145 0.0
C2841 C 0.78606 0.98282 0.50061 0.0
N2842 N 0.77935 0.00883 0.45923 0.0
N2843 N 0.73508 0.94191 0.53843 0.0
C2844 C 0.76857 0.99663 0.482 0.0
C2845 C 0.74614 0.96234 0.52291 0.0
N2846 N 0.72305 0.01424 0.47285 0.0
N2847 N 0.79146 0.9548 0.54111 0.0
H2848 H 0.71412 0.93837 0.53958 0.0
H2849 H 0.74675 0.92665 0.54768 0.0
H2850 H 0.81258 0.95762 0.54161 0.0
H2851 H 0.78396 0.94493 0.55846 0.0
H2852 H 0.73009 0.02946 0.45972 0.0
H2853 H 0.7018 0.0138 0.47502 0.0
H2854 H 0.76749 0.01704 0.44356 0.0
H2855 H 0.80023 0.00851 0.45476 0.0
C2856 C 0.21079 0.99492 0.76834 0.0
C2857 C 0.22654 0.97701 0.75189 0.0
C2858 C 0.24426 0.01631 0.72613 0.0
C2859 C 0.23277 0.03398 0.74612 0.0
N2860 N 0.20855 0.03971 0.78894 0.0
N2861 N 0.25712 0.96981 0.71401 0.0
C2862 C 0.21658 0.02328 0.76774 0.0
C2863 C 0.24266 0.98751 0.73014 0.0
N2864 N 0.19052 0.98495 0.78478 0.0
N2865 N 0.25662 0.0271 0.70346 0.0
H2866 H 0.25483 0.94862 0.71549 0.0
H2867 H 0.27187 0.97596 0.69991 0.0
H2868 H 0.25838 0.04813 0.70021 0.0
H2869 H 0.26322 0.01542 0.68691 0.0
H2870 H 0.1768 0.99751 0.79523 0.0
H2871 H 0.18549 0.96429 0.78569 0.0
H2872 H 0.19954 0.03216 0.80675 0.0
H2873 H 0.2131 0.06052 0.79003 0.0
C2874 C 0.24704 0.54441 0.48144 0.0
C2875 C 0.23045 0.53442 0.5031 0.0
C2876 C 0.27099 0.52286 0.53001 0.0
C2877 C 0.28766 0.53259 0.50833 0.0
N2878 N 0.29234 0.55751 0.4659 0.0
N2879 N 0.22568 0.52104 0.55024 0.0
C2880 C 0.2759 0.54521 0.48494 0.0
C2881 C 0.2422 0.5259 0.52817 0.0
N2882 N 0.23534 0.5515 0.457 0.0
N2883 N 0.28264 0.50987 0.55191 0.0
H2884 H 0.20446 0.52334 0.54943 0.0
H2885 H 0.23305 0.51729 0.56989 0.0
H2886 H 0.30376 0.50825 0.55458 0.0
H2887 H 0.27145 0.49944 0.56675 0.0
H2888 H 0.24644 0.55583 0.43934 0.0
H2889 H 0.21426 0.55156 0.45376 0.0
H2890 H 0.28494 0.56971 0.45008 0.0
H2891 H 0.31364 0.55719 0.46692 0.0
C2892 C 0.74339 0.21127 0.98916 0.0
C2893 C 0.76344 0.22934 0.97835 0.0
C2894 C 0.77604 0.24357 0.02477 0.0
C2895 C 0.75579 0.22572 0.0354 0.0
N2896 N 0.72761 0.18575 0.02849 0.0
N2897 N 0.8036 0.25707 0.9857 0.0
C2898 C 0.74208 0.20715 0.01786 0.0
C2899 C 0.78137 0.24368 0.99616 0.0
N2900 N 0.72418 0.19969 0.97242 0.0
N2901 N 0.78956 0.26094 0.04204 0.0
H2902 H 0.80821 0.25726 0.96483 0.0
H2903 H 0.81883 0.26579 0.99778 0.0
H2904 H 0.78737 0.25998 0.06328 0.0
H2905 H 0.80203 0.27686 0.03534 0.0
H2906 H 0.70743 0.18872 0.97975 0.0
H2907 H 0.72323 0.20319 0.9514 0.0
H2908 H 0.7196 0.17007 0.01646 0.0
H2909 H 0.72629 0.18193 0.04939 0.0
C2910 C 0.49314 0.98467 0.27023 0.0
C2911 C 0.48414 0.00722 0.28608 0.0
C2912 C 0.47569 0.03384 0.24443 0.0
C2913 C 0.48405 0.01095 0.2286 0.0
N2914 N 0.49365 0.96265 0.22581 0.0
N2915 N 0.4618 0.05112 0.28892 0.0
C2916 C 0.49055 0.98573 0.24135 0.0
C2917 C 0.47359 0.03108 0.27335 0.0
N2918 N 0.50507 0.96264 0.2827 0.0
N2919 N 0.47129 0.05856 0.23205 0.0
H2920 H 0.46073 0.05013 0.31023 0.0
H2921 H 0.45117 0.06765 0.28069 0.0
H2922 H 0.47272 0.06145 0.21095 0.0
H2923 H 0.46811 0.0767 0.24276 0.0
H2924 H 0.51496 0.94707 0.27201 0.0
H2925 H 0.50659 0.96068 0.30392 0.0
H2926 H 0.49568 0.94313 0.23412 0.0
H2927 H 0.49147 0.96265 0.20455 0.0
C2928 C 0.22319 0.24518 0.33359 0.0
C2929 C 0.2007 0.24185 0.31572 0.0
C2930 C 0.21775 0.19637 0.30339 0.0
C2931 C 0.24358 0.20349 0.31449 0.0
N2932 N 0.27 0.2319 0.34443 0.0
N2933 N 0.17293 0.21244 0.28834 0.0
C2934 C 0.24572 0.22669 0.33171 0.0
C2935 C 0.19645 0.21633 0.30285 0.0
N2936 N 0.22349 0.26721 0.35074 0.0
N2937 N 0.21426 0.17087 0.29266 0.0
H2938 H 0.15726 0.227 0.28857 0.0
H2939 H 0.16915 0.19546 0.27605 0.0
H2940 H 0.22973 0.15624 0.29387 0.0
H2941 H 0.19575 0.16355 0.28509 0.0
H2942 H 0.23863 0.27075 0.3653 0.0
H2943 H 0.20702 0.28083 0.35152 0.0
H2944 H 0.27422 0.24974 0.35526 0.0
H2945 H 0.28618 0.21803 0.34352 0.0
C2946 C 0.44806 0.53728 0.95573 0.0
C2947 C 0.45578 0.51109 0.94598 0.0
C2948 C 0.49858 0.5306 0.92875 0.0
C2949 C 0.49429 0.55359 0.94572 0.0
N2950 N 0.46313 0.58294 0.96925 0.0
N2951 N 0.48582 0.48357 0.9187 0.0
C2952 C 0.46802 0.55856 0.95662 0.0
C2953 C 0.47991 0.50829 0.93019 0.0
N2954 N 0.42221 0.54094 0.9655 0.0
N2955 N 0.52149 0.52976 0.91282 0.0
H2956 H 0.47192 0.46742 0.91942 0.0
H2957 H 0.50429 0.47892 0.90917 0.0
H2958 H 0.5351 0.54624 0.91219 0.0
H2959 H 0.52574 0.5142 0.8989 0.0
H2960 H 0.41459 0.55945 0.97272 0.0
H2961 H 0.40773 0.52534 0.9642 0.0
H2962 H 0.4453 0.58766 0.97988 0.0
H2963 H 0.47753 0.59868 0.9686 0.0
C2964 C 0.78937 0.26725 0.33112 0.0
C2965 C 0.81158 0.27152 0.31308 0.0
C2966 C 0.79391 0.31733 0.30325 0.0
C2967 C 0.76818 0.30923 0.31381 0.0
N2968 N 0.74246 0.27928 0.34278 0.0
N2969 N 0.83862 0.30258 0.2867 0.0
C2970 C 0.76652 0.28536 0.33007 0.0
C2971 C 0.81534 0.29761 0.30126 0.0
N2972 N 0.78985 0.24506 0.348 0.0
N2973 N 0.79721 0.34357 0.29452 0.0
H2974 H 0.85461 0.28842 0.28628 0.0
H2975 H 0.84185 0.32013 0.27508 0.0
H2976 H 0.78168 0.35796 0.29716 0.0
H2977 H 0.81569 0.35153 0.28752 0.0
H2978 H 0.77492 0.24095 0.36264 0.0
H2979 H 0.8069 0.23222 0.34876 0.0
H2980 H 0.73854 0.26086 0.35272 0.0
H2981 H 0.72621 0.2931 0.34281 0.0
C2982 C 0.52246 0.96619 0.93156 0.0
C2983 C 0.52463 0.94479 0.9509 0.0
C2984 C 0.56673 0.96482 0.96882 0.0
C2985 C 0.5614 0.98903 0.95351 0.0
N2986 N 0.54132 0.0087 0.91348 0.0
N2987 N 0.55366 0.91764 0.97898 0.0
C2988 C 0.54178 0.98814 0.93223 0.0
C2989 C 0.54899 0.94184 0.96593 0.0
N2990 N 0.50045 0.96642 0.91441 0.0
N2991 N 0.58719 0.96487 0.98783 0.0
H2992 H 0.5399 0.90134 0.97715 0.0
H2993 H 0.57163 0.91304 0.98942 0.0
H2994 H 0.60029 0.9815 0.99027 0.0
H2995 H 0.59062 0.94906 1.00166 0.0
H2996 H 0.49565 0.9825 0.90132 0.0
H2997 H 0.48674 0.95001 0.91382 0.0
H2998 H 0.52824 0.00933 0.89669 0.0
H2999 H 0.55621 0.02389 0.91374 0.0
C3000 C 0.19756 0.79731 0.21466 0.0
C3001 C 0.20085 0.77137 0.20229 0.0
C3002 C 0.24562 0.78539 0.18444 0.0
C3003 C 0.24438 0.80934 0.20072 0.0
N3004 N 0.21569 0.84336 0.22109 0.0
N3005 N 0.2219 0.74516 0.16675 0.0
C3006 C 0.21888 0.81717 0.21211 0.0
C3007 C 0.22269 0.7673 0.18373 0.0
N3008 N 0.17493 0.80197 0.23032 0.0
N3009 N 0.26944 0.77915 0.17136 0.0
H3010 H 0.20499 0.73208 0.16646 0.0
H3011 H 0.23643 0.74125 0.15165 0.0
H3012 H 0.28575 0.79285 0.1711 0.0
H3013 H 0.27313 0.76065 0.16146 0.0
H3014 H 0.17221 0.81936 0.24233 0.0
H3015 H 0.15908 0.78765 0.23146 0.0
H3016 H 0.19736 0.85115 0.22865 0.0
H3017 H 0.23106 0.85787 0.21808 0.0
C3018 C 0.06703 0.54238 0.04298 0.0
C3019 C 0.06183 0.51901 0.05947 0.0
C3020 C 0.02334 0.5428 0.08102 0.0
C3021 C 0.02493 0.56294 0.06035 0.0
N3022 N 0.05287 0.58845 0.02962 0.0
N3023 N 0.04362 0.50232 0.10165 0.0
C3024 C 0.04891 0.56519 0.0445 0.0
C3025 C 0.0429 0.52117 0.08126 0.0
N3026 N 0.08793 0.54155 0.02444 0.0
N3027 N 1.00168 0.54324 0.09864 0.0
H3028 H 0.05929 0.48802 0.10227 0.0
H3029 H 0.03114 0.50277 0.11892 0.0
H3030 H 0.98775 0.55946 0.0987 0.0
H3031 H 0.99729 0.52775 0.11257 0.0
H3032 H 0.09175 0.55674 0.01003 0.0
H3033 H 0.1014 0.52502 0.0235 0.0
H3034 H 0.0703 0.59242 0.01805 0.0
H3035 H 0.03896 0.60467 0.03071 0.0
C3036 C 0.78436 0.74737 0.18009 0.0
C3037 C 0.80676 0.74284 0.19782 0.0
C3038 C 0.78899 0.69709 0.20794 0.0
C3039 C 0.76339 0.7051 0.19699 0.0
N3040 N 0.7376 0.73497 0.16805 0.0
N3041 N 0.83463 0.71122 0.22247 0.0
C3042 C 0.76168 0.72903 0.18082 0.0
C3043 C 0.81069 0.71659 0.20924 0.0
N3044 N 0.78455 0.76998 0.16378 0.0
N3045 N 0.79181 0.67115 0.21781 0.0
H3046 H 0.85084 0.72508 0.2218 0.0
H3047 H 0.83857 0.69344 0.23346 0.0
H3048 H 0.77615 0.6568 0.21563 0.0
H3049 H 0.80989 0.66326 0.22578 0.0
H3050 H 0.76948 0.77445 0.14942 0.0
H3051 H 0.80148 0.783 0.16324 0.0
H3052 H 0.73361 0.75331 0.15801 0.0
H3053 H 0.72133 0.72113 0.16807 0.0
C3054 C 0.94651 0.97026 0.05501 0.0
C3055 C 0.95439 0.99636 0.06481 0.0
C3056 C 0.99627 0.97608 0.0832 0.0
C3057 C 0.99225 0.95323 0.06588 0.0
N3058 N 0.96167 0.92518 0.03999 0.0
N3059 N 0.98397 0.02338 0.09298 0.0
C3060 C 0.96631 0.94887 0.05398 0.0
C3061 C 0.97806 0.99878 0.08122 0.0
N3062 N 0.92039 0.96658 0.04603 0.0
N3063 N 0.01849 0.9764 0.10003 0.0
H3064 H 0.97027 0.03973 0.09201 0.0
H3065 H 1.00224 0.02769 0.10303 0.0
H3066 H 0.03163 0.95959 0.10118 0.0
H3067 H 0.02247 0.99184 0.11417 0.0
H3068 H 0.91257 0.94783 0.03961 0.0
H3069 H 0.90595 0.98218 0.04782 0.0
H3070 H 0.94425 0.92148 0.02831 0.0
H3071 H 0.97597 0.90931 0.04006 0.0
C3072 C 0.30362 0.2188 0.1967 0.0
C3073 C 0.31347 0.2447 0.20521 0.0
C3074 C 0.32991 0.22386 0.2477 0.0
C3075 C 0.31285 0.20104 0.24263 0.0
N3076 N 0.28978 0.17277 0.21016 0.0
N3077 N 0.34068 0.27115 0.23618 0.0
C3078 C 0.30229 0.19697 0.21604 0.0
C3079 C 0.3289 0.24672 0.2296 0.0
N3080 N 0.29505 0.21569 0.17034 0.0
N3081 N 0.34572 0.22388 0.27067 0.0
H3082 H 0.34047 0.2876 0.22256 0.0
H3083 H 0.35003 0.27523 0.25488 0.0
H3084 H 0.34635 0.20685 0.28355 0.0
H3085 H 0.3596 0.23928 0.27556 0.0
H3086 H 0.28819 0.19732 0.16204 0.0
H3087 H 0.29747 0.23143 0.15615 0.0
H3088 H 0.27919 0.16879 0.19212 0.0
H3089 H 0.29056 0.15648 0.22391 0.0
C3090 C 0.47576 0.42682 0.01518 0.0
C3091 C 0.4534 0.44448 0.01997 0.0
C3092 C 0.47135 0.4538 0.06583 0.0
C3093 C 0.49716 0.44364 0.05739 0.0
N3094 N 0.52272 0.41531 0.02665 0.0
N3095 N 0.42645 0.47025 0.05164 0.0
C3096 C 0.4987 0.42779 0.03316 0.0
C3097 C 0.44974 0.45589 0.04628 0.0
N3098 N 0.47541 0.41061 0.99245 0.0
N3099 N 0.46809 0.46199 0.09227 0.0
H3100 H 0.41035 0.47078 0.03761 0.0
H3101 H 0.42331 0.48164 0.06938 0.0
H3102 H 0.48372 0.45924 0.10651 0.0
H3103 H 0.44957 0.46859 0.10048 0.0
H3104 H 0.49037 0.39615 0.98792 0.0
H3105 H 0.45854 0.41038 0.9793 0.0
H3106 H 0.52664 0.4058 0.00798 0.0
H3107 H 0.53883 0.41488 0.0405 0.0
C3108 C 0.68173 0.26531 0.2272 0.0
C3109 C 0.70078 0.26477 0.20533 0.0
C3110 C 0.71336 0.31241 0.21543 0.0
C3111 C 0.70003 0.30995 0.24083 0.0
N3112 N 0.66389 0.29009 0.2669 0.0
N3113 N 0.73139 0.28907 0.17535 0.0
C3114 C 0.6811 0.28853 0.24496 0.0
C3115 C 0.71475 0.2892 0.19781 0.0
N3116 N 0.66596 0.2428 0.23189 0.0
N3117 N 0.7258 0.33662 0.20927 0.0
H3118 H 0.7327 0.27219 0.16237 0.0
H3119 H 0.74417 0.30516 0.16981 0.0
H3120 H 0.72459 0.35328 0.22264 0.0
H3121 H 0.73512 0.34088 0.1906 0.0
H3122 H 0.65251 0.24065 0.24825 0.0
H3123 H 0.66633 0.22615 0.2186 0.0
H3124 H 0.64929 0.27544 0.27186 0.0
H3125 H 0.66354 0.30746 0.27938 0.0
C3126 C 0.56439 0.0505 0.04939 0.0
C3127 C 0.56135 0.0609 0.02259 0.0
C3128 C 0.51609 0.07883 0.03447 0.0
C3129 C 0.51715 0.06408 0.05936 0.0
N3130 N 0.5456 0.04743 0.09549 0.0
N3131 N 0.54011 0.09389 0.99334 0.0
C3132 C 0.54271 0.05412 0.0686 0.0
C3133 C 0.5393 0.07869 0.01673 0.0
N3134 N 0.58709 0.03551 0.05555 0.0
N3135 N 0.49218 0.0911 0.02711 0.0
H3136 H 0.55713 0.0935 0.98041 0.0
H3137 H 0.52533 0.10828 0.98806 0.0
H3138 H 0.47568 0.09196 0.0406 0.0
H3139 H 0.48863 0.09986 0.00803 0.0
H3140 H 0.58957 0.02481 0.07382 0.0
H3141 H 0.60324 0.03355 0.04164 0.0
H3142 H 0.56398 0.0411 0.10418 0.0
H3143 H 0.5299 0.05136 0.10942 0.0
C3144 C 0.33205 0.78766 0.26385 0.0
C3145 C 0.31539 0.81017 0.27076 0.0
C3146 C 0.30774 0.78994 0.316 0.0
C3147 C 0.31699 0.76436 0.30567 0.0
N3148 N 0.33968 0.73903 0.27001 0.0
N3149 N 0.29221 0.83613 0.30501 0.0
C3150 C 0.33055 0.76349 0.27998 0.0
C3151 C 0.3055 0.81268 0.29778 0.0
N3152 N 0.34765 0.78903 0.24076 0.0
N3153 N 0.29975 0.79187 0.34265 0.0
H3154 H 0.29165 0.85294 0.29184 0.0
H3155 H 0.28179 0.83883 0.32339 0.0
H3156 H 0.30118 0.77525 0.35586 0.0
H3157 H 0.29403 0.81007 0.35212 0.0
H3158 H 0.36151 0.77389 0.23502 0.0
H3159 H 0.3484 0.80689 0.22905 0.0
H3160 H 0.34691 0.73638 0.25012 0.0
H3161 H 0.33892 0.72109 0.2816 0.0
C3162 C 0.0141 0.42919 0.97969 0.0
C3163 C 0.01554 0.44388 0.95477 0.0
C3164 C 0.06302 0.45658 0.96478 0.0
C3165 C 0.05977 0.4461 0.99154 0.0
N3166 N 0.03778 0.41357 0.02077 0.0
N3167 N 0.04411 0.46102 0.91885 0.0
C3168 C 0.03733 0.42877 0.99737 0.0
C3169 C 0.04124 0.45359 0.94557 0.0
N3170 N 0.98985 0.41761 0.98717 0.0
N3171 N 0.08602 0.47119 0.95873 0.0
H3172 H 0.02816 0.45825 0.90495 0.0
H3173 H 0.06258 0.46714 0.91016 0.0
H3174 H 0.10218 0.47272 0.97266 0.0
H3175 H 0.08879 0.48197 0.94056 0.0
H3176 H 0.98617 0.40894 1.00628 0.0
H3177 H 0.97312 0.41738 0.97392 0.0
H3178 H 0.02271 0.39946 0.02602 0.0
H3179 H 0.05477 0.41368 0.03375 0.0
C3180 C 0.67887 0.74831 0.28486 0.0
C3181 C 0.69845 0.748 0.30626 0.0
C3182 C 0.70907 0.70009 0.29524 0.0
C3183 C 0.69563 0.70335 0.27 0.0
N3184 N 0.66077 0.7255 0.2441 0.0
N3185 N 0.72976 0.72248 0.33447 0.0
C3186 C 0.67756 0.72562 0.2664 0.0
C3187 C 0.71207 0.72313 0.31285 0.0
N3188 N 0.66302 0.77099 0.28146 0.0
N3189 N 0.71988 0.67517 0.30142 0.0
H3190 H 0.73208 0.73904 0.34772 0.0
H3191 H 0.74261 0.70608 0.3388 0.0
H3192 H 0.71718 0.65856 0.28826 0.0
H3193 H 0.72885 0.6704 0.32014 0.0
H3194 H 0.64835 0.77329 0.26624 0.0
H3195 H 0.66413 0.78735 0.29508 0.0
H3196 H 0.64757 0.74131 0.23882 0.0
H3197 H 0.6598 0.70849 0.23117 0.0
C3198 C 0.99901 0.07933 0.9788 0.0
C3199 C 0.99815 0.06325 0.95467 0.0
C3200 C 0.95045 0.05116 0.96447 0.0
C3201 C 0.95325 0.06305 0.99068 0.0
N3202 N 0.9739 0.09829 0.01753 0.0
N3203 N 0.97025 0.04409 0.91921 0.0
C3204 C 0.97532 0.08098 0.9957 0.0
C3205 C 0.97263 0.05297 0.94553 0.0
N3206 N 0.02305 0.09121 0.98643 0.0
N3207 N 0.92732 0.03671 0.95868 0.0
H3208 H 0.98637 0.04628 0.90539 0.0
H3209 H 0.95199 0.03732 0.91057 0.0
H3210 H 0.91079 0.03648 0.97223 0.0
H3211 H 0.9247 0.025 0.94107 0.0
H3212 H 0.02614 0.10071 1.00526 0.0
H3213 H 0.04017 0.09073 0.97375 0.0
H3214 H 0.98868 0.11298 0.02195 0.0
H3215 H 0.95622 0.09945 0.02948 0.0
C3216 C 0.21453 0.29737 0.19834 0.0
C3217 C 0.23958 0.3114 0.2009 0.0
C3218 C 0.22346 0.33198 0.24372 0.0
C3219 C 0.20278 0.31179 0.24506 0.0
N3220 N 0.17426 0.27942 0.22153 0.0
N3221 N 0.26534 0.34755 0.22139 0.0
C3222 C 0.19639 0.29644 0.2212 0.0
C3223 C 0.24272 0.3312 0.22176 0.0
N3224 N 0.20917 0.28394 0.17447 0.0
N3225 N 0.22484 0.35115 0.26385 0.0
H3226 H 0.27883 0.34739 0.20479 0.0
H3227 H 0.27075 0.36091 0.23707 0.0
H3228 H 0.20976 0.35208 0.27882 0.0
H3229 H 0.23886 0.36716 0.2643 0.0
H3230 H 0.19088 0.2739 0.17025 0.0
H3231 H 0.22273 0.2851 0.15798 0.0
H3232 H 0.16952 0.26567 0.20597 0.0
H3233 H 0.16075 0.27894 0.23806 0.0
C3234 C 0.19991 0.70319 0.29314 0.0
C3235 C 0.20722 0.69507 0.26623 0.0
C3236 C 0.25091 0.67816 0.28447 0.0
C3237 C 0.24679 0.69396 0.30829 0.0
N3238 N 0.21565 0.7164 0.33859 0.0
N3239 N 0.23826 0.67071 0.23706 0.0
C3240 C 0.22039 0.70425 0.31394 0.0
C3241 C 0.232 0.68045 0.26239 0.0
N3242 N 0.17345 0.71013 0.29837 0.0
N3243 N 0.27399 0.66259 0.28258 0.0
H3244 H 0.22413 0.67157 0.22126 0.0
H3245 H 0.2572 0.66257 0.23169 0.0
H3246 H 0.28797 0.66158 0.29874 0.0
H3247 H 0.27798 0.64922 0.26646 0.0
H3248 H 0.16604 0.71521 0.31769 0.0
H3249 H 0.15845 0.70739 0.28351 0.0
H3250 H 0.19791 0.72717 0.34338 0.0
H3251 H 0.23016 0.71556 0.35419 0.0
C3252 C 0.93148 0.5342 0.99581 0.0
C3253 C 0.95066 0.55588 0.99472 0.0
C3254 C 0.96172 0.5431 0.94724 0.0
C3255 C 0.94869 0.51776 0.9515 0.0
N3256 N 0.91483 0.49175 0.97521 0.0
N3257 N 0.98059 0.58426 0.96789 0.0
C3258 C 0.93077 0.51464 0.97405 0.0
C3259 C 0.96396 0.56188 0.9695 0.0
N3260 N 0.91524 0.53178 0.01834 0.0
N3261 N 0.97291 0.54826 0.92221 0.0
H3262 H 0.98213 0.59829 0.9839 0.0
H3263 H 0.99314 0.58865 0.95125 0.0
H3264 H 0.97081 0.53429 0.90619 0.0
H3265 H 0.98184 0.56679 0.9167 0.0
H3266 H 0.90046 0.51672 0.02104 0.0
H3267 H 0.91582 0.54638 0.03383 0.0
H3268 H 0.9023 0.48657 0.99162 0.0
H3269 H 0.91415 0.47794 0.95889 0.0
C3270 C 0.76616 0.83479 0.28784 0.0
C3271 C 0.77015 0.81667 0.31003 0.0
C3272 C 0.81524 0.80509 0.29172 0.0
C3273 C 0.80712 0.81587 0.26608 0.0
N3274 N 0.77789 0.84575 0.2406 0.0
N3275 N 0.80047 0.78917 0.33668 0.0
C3276 C 0.78388 0.83303 0.26469 0.0
C3277 C 0.79585 0.80402 0.31352 0.0
N3278 N 0.74422 0.852 0.28844 0.0
N3279 N 0.84113 0.79519 0.29457 0.0
H3280 H 0.78628 0.78894 0.35271 0.0
H3281 H 0.81767 0.777 0.33974 0.0
H3282 H 0.85533 0.79701 0.27872 0.0
H3283 H 0.84911 0.78796 0.31294 0.0
H3284 H 0.74026 0.86667 0.27352 0.0
H3285 H 0.73124 0.85271 0.30543 0.0
H3286 H 0.75991 0.85656 0.23701 0.0
H3287 H 0.79126 0.84489 0.22394 0.0
C3288 C 0.58334 0.48949 0.46557 0.0
C3289 C 0.5627 0.4891 0.44534 0.0
C3290 C 0.54147 0.4496 0.467 0.0
C3291 C 0.55901 0.45304 0.49013 0.0
N3292 N 0.60243 0.46862 0.50659 0.0
N3293 N 0.53113 0.46232 0.41981 0.0
C3294 C 0.58217 0.47031 0.48762 0.0
C3295 C 0.54543 0.46625 0.44344 0.0
N3296 N 0.60245 0.5098 0.46466 0.0
N3297 N 0.51955 0.43235 0.46857 0.0
H3298 H 0.53361 0.47554 0.40316 0.0
H3299 H 0.51913 0.44513 0.416 0.0
H3300 H 0.51569 0.42033 0.48571 0.0
H3301 H 0.50443 0.43108 0.45363 0.0
H3302 H 0.61672 0.51346 0.48004 0.0
H3303 H 0.60338 0.5233 0.44809 0.0
H3304 H 0.62054 0.47978 0.50578 0.0
H3305 H 0.60184 0.4536 0.52161 0.0
C3306 C 0.26843 0.68235 0.72191 0.0
C3307 C 0.27318 0.69985 0.69932 0.0
C3308 C 0.31905 0.70924 0.71716 0.0
C3309 C 0.31073 0.69919 0.74305 0.0
N3310 N 0.28016 0.67125 0.76915 0.0
N3311 N 0.3046 0.72591 0.67241 0.0
C3312 C 0.28654 0.6834 0.74485 0.0
C3313 C 0.29946 0.71127 0.69561 0.0
N3314 N 0.24551 0.66644 0.7219 0.0
N3315 N 0.34548 0.71736 0.71375 0.0
H3316 H 0.29035 0.72683 0.65649 0.0
H3317 H 0.32229 0.73736 0.6693 0.0
H3318 H 0.3598 0.71457 0.72931 0.0
H3319 H 0.3536 0.72382 0.69513 0.0
H3320 H 0.2409 0.65225 0.73711 0.0
H3321 H 0.2322 0.66623 0.70516 0.0
H3322 H 0.26163 0.66154 0.77313 0.0
H3323 H 0.29382 0.67145 0.78556 0.0
C3324 C 0.93183 0.49821 0.53589 0.0
C3325 C 0.94847 0.49298 0.55899 0.0
C3326 C 0.95816 0.44718 0.54089 0.0
C3327 C 0.94847 0.45575 0.51492 0.0
N3328 N 0.92153 0.48685 0.48839 0.0
N3329 N 0.9716 0.46049 0.58714 0.0
C3330 C 0.93311 0.4802 0.51291 0.0
C3331 C 0.95918 0.46643 0.5629 0.0
N3332 N 0.91613 0.52126 0.53574 0.0
N3333 N 0.96682 0.42086 0.54398 0.0
H3334 H 0.97068 0.47413 0.60354 0.0
H3335 H 0.98237 0.44255 0.59102 0.0
H3336 H 0.96471 0.40668 0.52817 0.0
H3337 H 0.97347 0.41254 0.56241 0.0
H3338 H 0.90251 0.52628 0.52016 0.0
H3339 H 0.91537 0.53418 0.55277 0.0
H3340 H 0.91222 0.50555 0.4843 0.0
H3341 H 0.92182 0.47329 0.47187 0.0
C3342 C 0.05264 0.06816 0.54444 0.0
C3343 C 0.06363 0.05958 0.51902 0.0
C3344 C 0.08117 0.01846 0.5416 0.0
C3345 C 0.06248 0.02286 0.56321 0.0
N3346 N 0.03475 0.05401 0.5888 0.0
N3347 N 0.0933 0.02919 0.49456 0.0
C3348 C 0.05018 0.04882 0.56613 0.0
C3349 C 0.08014 0.03583 0.51822 0.0
N3350 N 0.04411 0.0945 0.54725 0.0
N3351 N 0.09877 0.99692 0.54321 0.0
H3352 H 0.0936 0.04261 0.47804 0.0
H3353 H 0.10333 0.01068 0.49131 0.0
H3354 H 0.09968 0.98488 0.56083 0.0
H3355 H 0.1139 0.99287 0.52876 0.0
H3356 H 0.03687 0.10274 0.56553 0.0
H3357 H 0.04739 0.10866 0.53164 0.0
H3358 H 0.02275 0.07145 0.59121 0.0
H3359 H 0.03388 0.04012 0.60502 0.0
C3360 C 0.72243 0.69915 0.79932 0.0
C3361 C 0.7479 0.70492 0.8122 0.0
C3362 C 0.7278 0.74571 0.83332 0.0
C3363 C 0.70453 0.74238 0.81644 0.0
N3364 N 0.67424 0.71089 0.79484 0.0
N3365 N 0.77213 0.72806 0.84796 0.0
C3366 C 0.6999 0.71698 0.80378 0.0
C3367 C 0.74941 0.7261 0.83192 0.0
N3368 N 0.72062 0.67829 0.78083 0.0
N3369 N 0.72988 0.76894 0.84868 0.0
H3370 H 0.78779 0.71367 0.84664 0.0
H3371 H 0.77458 0.74238 0.86353 0.0
H3372 H 0.71368 0.78284 0.8499 0.0
H3373 H 0.74717 0.77448 0.85979 0.0
H3374 H 0.70356 0.67487 0.76854 0.0
H3375 H 0.73696 0.66526 0.77677 0.0
H3376 H 0.66872 0.69195 0.78675 0.0
H3377 H 0.658 0.72422 0.79854 0.0
C3378 C 0.99661 0.03721 0.43211 0.0
C3379 C 0.99129 0.05921 0.45015 0.0
C3380 C 0.94565 0.0405 0.45848 0.0
C3381 C 0.95469 0.015 0.44811 0.0
N3382 N 0.98618 0.98993 0.42021 0.0
N3383 N 0.95889 0.0853 0.47593 0.0
C3384 C 0.97908 0.0139 0.43261 0.0
C3385 C 0.9648 0.06232 0.46125 0.0
N3386 N 0.01917 0.03837 0.41576 0.0
N3387 N 0.91904 0.04321 0.46627 0.0
H3388 H 0.97265 0.10161 0.47696 0.0
H3389 H 0.94094 0.08796 0.48711 0.0
H3390 H 0.9051 0.02741 0.46299 0.0
H3391 H 0.91044 0.0615 0.473 0.0
H3392 H 0.02406 0.02358 0.40121 0.0
H3393 H 0.03146 0.05584 0.41528 0.0
H3394 H 1.00499 0.98655 0.4108 0.0
H3395 H 0.97292 0.97317 0.42004 0.0
C3396 C 0.27322 0.79098 0.83215 0.0
C3397 C 0.27047 0.81051 0.811 0.0
C3398 C 0.31622 0.79816 0.79437 0.0
C3399 C 0.3145 0.77375 0.80956 0.0
N3400 N 0.29613 0.74962 0.848 0.0
N3401 N 0.29176 0.83712 0.77551 0.0
C3402 C 0.29489 0.77149 0.83073 0.0
C3403 C 0.29329 0.81612 0.79386 0.0
N3404 N 0.25491 0.79112 0.85309 0.0
N3405 N 0.33926 0.80299 0.77939 0.0
H3406 H 0.27513 0.85047 0.77513 0.0
H3407 H 0.30632 0.8409 0.76044 0.0
H3408 H 0.35579 0.78947 0.78003 0.0
H3409 H 0.34289 0.82094 0.76854 0.0
H3410 H 0.25578 0.7781 0.86992 0.0
H3411 H 0.24057 0.80673 0.85462 0.0
H3412 H 0.28107 0.74478 0.86226 0.0
H3413 H 0.31274 0.7362 0.84766 0.0
C3414 C 0.04224 0.49316 0.43235 0.0
C3415 C 0.06104 0.49241 0.45438 0.0
C3416 C 0.04678 0.4452 0.46381 0.0
C3417 C 0.02282 0.44988 0.44876 0.0
N3418 N 1.0001 0.47442 0.41317 0.0
N3419 N 0.08253 0.46626 0.4905 0.0
C3420 C 0.02187 0.47228 0.43047 0.0
C3421 C 0.06443 0.46757 0.46929 0.0
N3422 N 0.04316 0.51443 0.4144 0.0
N3423 N 0.0514 0.41981 0.47424 0.0
H3424 H 0.09515 0.48253 0.49574 0.0
H3425 H 0.08368 0.44977 0.50395 0.0
H3426 H 0.03813 0.40369 0.46983 0.0
H3427 H 0.06941 0.4143 0.48422 0.0
H3428 H 0.03083 0.51593 0.3971 0.0
H3429 H 0.05824 0.5294 0.41589 0.0
H3430 H 0.9962 0.49142 0.40096 0.0
H3431 H 0.98564 0.45874 0.41165 0.0
C3432 C 0.72463 0.26469 0.68074 0.0
C3433 C 0.70175 0.26987 0.69761 0.0
C3434 C 0.71907 0.31593 0.70668 0.0
C3435 C 0.74502 0.30747 0.69699 0.0
N3436 N 0.77159 0.27689 0.66946 0.0
N3437 N 0.673 0.30224 0.72027 0.0
C3438 C 0.7472 0.28311 0.68149 0.0
C3439 C 0.69736 0.29649 0.70795 0.0
N3440 N 0.72504 0.24133 0.66546 0.0
N3441 N 0.71595 0.3422 0.71552 0.0
H3442 H 0.65692 0.28819 0.71986 0.0
H3443 H 0.66863 0.32046 0.73037 0.0
H3444 H 0.73167 0.35645 0.71318 0.0
H3445 H 0.69761 0.35038 0.7226 0.0
H3446 H 0.74056 0.23628 0.65178 0.0
H3447 H 0.70829 0.22805 0.66519 0.0
H3448 H 0.77589 0.25834 0.65994 0.0
H3449 H 0.78769 0.29085 0.66942 0.0
C3450 C 0.56341 0.04371 0.54935 0.0
C3451 C 0.55713 0.01823 0.56191 0.0
C3452 C 0.51669 0.03891 0.58313 0.0
C3453 C 0.51936 0.06126 0.56505 0.0
N3454 N 0.54919 0.09077 0.54033 0.0
N3455 N 0.53188 0.9931 0.59556 0.0
C3456 C 0.54448 0.06576 0.5517 0.0
C3457 C 0.53546 0.01665 0.5811 0.0
N3458 N 0.58618 0.04573 0.53328 0.0
N3459 N 0.49516 0.03872 0.6009 0.0
H3460 H 0.54603 0.97726 0.59433 0.0
H3461 H 0.51552 0.98931 0.60863 0.0
H3462 H 0.48185 0.05539 0.60216 0.0
H3463 H 0.4915 0.02342 0.61523 0.0
H3464 H 0.59121 0.06282 0.52164 0.0
H3465 H 0.60015 0.02971 0.53154 0.0
H3466 H 0.5673 0.0964 0.53066 0.0
H3467 H 0.53512 0.10663 0.54274 0.0
C3468 C 0.31437 0.21637 0.70995 0.0
C3469 C 0.30967 0.24196 0.69746 0.0
C3470 C 0.26453 0.22651 0.68201 0.0
C3471 C 0.26725 0.20314 0.69884 0.0
N3472 N 0.2976 0.17023 0.7186 0.0
N3473 N 0.28641 0.26689 0.66244 0.0
C3474 C 0.29344 0.19606 0.70903 0.0
C3475 C 0.28694 0.24511 0.67983 0.0
N3476 N 0.33792 0.21261 0.72443 0.0
N3477 N 0.23992 0.23177 0.67001 0.0
H3478 H 0.30305 0.28024 0.66107 0.0
H3479 H 0.27106 0.2702 0.64805 0.0
H3480 H 0.2238 0.2178 0.67112 0.0
H3481 H 0.23537 0.2498 0.65965 0.0
H3482 H 0.34182 0.19551 0.73651 0.0
H3483 H 0.35339 0.22738 0.72447 0.0
H3484 H 0.31646 0.16297 0.72532 0.0
H3485 H 0.28232 0.15541 0.71704 0.0
C3486 C 0.49644 0.47518 0.58091 0.0
C3487 C 0.49141 0.45306 0.56291 0.0
C3488 C 0.44609 0.47215 0.55319 0.0
C3489 C 0.45484 0.49759 0.56399 0.0
N3490 N 0.4857 0.52243 0.59278 0.0
N3491 N 0.45975 0.42734 0.53596 0.0
C3492 C 0.47888 0.49852 0.5801 0.0
C3493 C 0.46521 0.45017 0.55106 0.0
N3494 N 0.51913 0.47432 0.59712 0.0
N3495 N 0.4198 0.46962 0.54431 0.0
H3496 H 0.47363 0.4111 0.535 0.0
H3497 H 0.44216 0.42478 0.52423 0.0
H3498 H 0.40582 0.48551 0.54695 0.0
H3499 H 0.41136 0.45138 0.53724 0.0
H3500 H 0.52388 0.48912 0.61169 0.0
H3501 H 0.53204 0.45728 0.59715 0.0
H3502 H 0.5042 0.52578 0.60276 0.0
H3503 H 0.47246 0.53919 0.59272 0.0
C3504 C 0.83385 0.72357 0.74324 0.0
C3505 C 0.81552 0.70156 0.73927 0.0
C3506 C 0.80423 0.71969 0.69409 0.0
C3507 C 0.81512 0.74525 0.70226 0.0
N3508 N 0.84513 0.77066 0.73146 0.0
N3509 N 0.78796 0.67492 0.70892 0.0
C3510 C 0.83228 0.74663 0.72549 0.0
C3511 C 0.80292 0.69802 0.71354 0.0
N3512 N 0.85114 0.72286 0.76511 0.0
N3513 N 0.79441 0.71686 0.66815 0.0
H3514 H 0.7876 0.65895 0.72315 0.0
H3515 H 0.77586 0.67186 0.69166 0.0
H3516 H 0.7964 0.73267 0.65393 0.0
H3517 H 0.78704 0.69854 0.66018 0.0
H3518 H 0.86594 0.73766 0.76902 0.0
H3519 H 0.85183 0.70584 0.77802 0.0
H3520 H 0.85593 0.77423 0.74948 0.0
H3521 H 0.84436 0.78728 0.71808 0.0
C3522 C 0.96983 0.95725 0.56784 0.0
C3523 C 0.99629 0.94816 0.56034 0.0
C3524 C 0.97732 0.93065 0.51736 0.0
C3525 C 0.95399 0.94731 0.52134 0.0
N3526 N 0.92474 0.97163 0.55213 0.0
N3527 N 0.02444 0.92126 0.53063 0.0
C3528 C 0.94886 0.95842 0.54755 0.0
C3529 C 0.99952 0.93249 0.53622 0.0
N3530 N 0.96537 0.96545 0.59412 0.0
N3531 N 0.97851 0.91444 0.49468 0.0
H3532 H 0.04035 0.92199 0.54486 0.0
H3533 H 0.02942 0.91185 0.51217 0.0
H3534 H 0.96202 0.91324 0.48115 0.0
H3535 H 0.99434 0.90076 0.49066 0.0
H3536 H 0.94633 0.97131 0.60169 0.0
H3537 H 0.98066 0.96359 0.60888 0.0
H3538 H 0.92042 0.98277 0.56977 0.0
H3539 H 0.90911 0.97137 0.53758 0.0
C3540 C 0.18098 0.79425 0.74015 0.0
C3541 C 0.20127 0.8148 0.74053 0.0
C3542 C 0.22222 0.79563 0.69954 0.0
C3543 C 0.20498 0.77217 0.70192 0.0
N3544 N 0.16138 0.75517 0.71646 0.0
N3545 N 0.2323 0.8421 0.71479 0.0
C3546 C 0.1819 0.77365 0.71944 0.0
C3547 C 0.21827 0.81816 0.71758 0.0
N3548 N 0.16243 0.79337 0.761 0.0
N3549 N 0.24392 0.79524 0.68194 0.0
H3550 H 0.22984 0.85799 0.72893 0.0
H3551 H 0.24406 0.84696 0.69768 0.0
H3552 H 0.24779 0.77885 0.6689 0.0
H3553 H 0.2589 0.81037 0.68132 0.0
H3554 H 0.14872 0.77735 0.76402 0.0
H3555 H 0.16154 0.8089 0.7757 0.0
H3556 H 0.14328 0.75549 0.7277 0.0
H3557 H 0.16159 0.74159 0.70015 0.0
C3558 C 0.04077 0.58172 0.51877 0.0
C3559 C 0.0625 0.5635 0.52413 0.0
C3560 C 0.04298 0.55422 0.56924 0.0
C3561 C 0.01769 0.56478 0.55985 0.0
N3562 N 0.99324 0.59303 0.52812 0.0
N3563 N 0.08805 0.53708 0.55631 0.0
C3564 C 0.01709 0.58076 0.53571 0.0
C3565 C 0.06519 0.55196 0.55046 0.0
N3566 N 0.04234 0.59832 0.49641 0.0
N3567 N 0.04494 0.54519 0.59554 0.0
H3568 H 0.1044 0.53605 0.54255 0.0
H3569 H 0.09058 0.52569 0.57413 0.0
H3570 H 0.0287 0.54758 0.6092 0.0
H3571 H 0.06295 0.53795 0.60428 0.0
H3572 H 0.02776 0.61309 0.49161 0.0
H3573 H 0.05985 0.59866 0.48414 0.0
H3574 H 0.9903 0.60269 0.50937 0.0
H3575 H 0.97611 0.59278 0.54084 0.0
C3576 C 0.82989 0.28614 0.76665 0.0
C3577 C 0.81169 0.30811 0.77123 0.0
C3578 C 0.80287 0.29048 0.81724 0.0
C3579 C 0.81348 0.26484 0.80899 0.0
N3580 N 0.84269 0.23966 0.77883 0.0
N3581 N 0.78531 0.3348 0.80268 0.0
C3582 C 0.82947 0.26339 0.78488 0.0
C3583 C 0.80019 0.31179 0.7975 0.0
N3584 N 0.84638 0.28678 0.74415 0.0
N3585 N 0.79483 0.29382 0.84372 0.0
H3586 H 0.78435 0.35076 0.78851 0.0
H3587 H 0.7739 0.33782 0.82043 0.0
H3588 H 0.79814 0.27841 0.8581 0.0
H3589 H 0.78787 0.31227 0.85179 0.0
H3590 H 0.86111 0.27203 0.73977 0.0
H3591 H 0.84672 0.30379 0.73123 0.0
H3592 H 0.85243 0.23573 0.76029 0.0
H3593 H 0.84355 0.22383 0.79301 0.0
C3594 C 0.54443 0.96501 0.44232 0.0
C3595 C 0.51958 0.95221 0.44979 0.0
C3596 C 0.54236 0.93316 0.49021 0.0
C3597 C 0.56317 0.953 0.48712 0.0
N3598 N 0.58801 0.98347 0.45804 0.0
N3599 N 0.49744 0.91719 0.47567 0.0
C3600 C 0.5659 0.96692 0.46195 0.0
C3601 C 0.51961 0.93356 0.47191 0.0
N3602 N 0.54687 0.97567 0.4167 0.0
N3603 N 0.54387 0.91534 0.51163 0.0
H3604 H 0.48243 0.91596 0.46067 0.0
H3605 H 0.49441 0.90459 0.49255 0.0
H3606 H 0.56072 0.91528 0.52477 0.0
H3607 H 0.5298 0.89981 0.51531 0.0
H3608 H 0.56471 0.98454 0.40916 0.0
H3609 H 0.53149 0.97265 0.40221 0.0
H3610 H 0.59026 0.99651 0.44135 0.0
H3611 H 0.60394 0.98422 0.47231 0.0
C3612 C 0.21972 0.22135 0.81555 0.0
C3613 C 0.20312 0.24431 0.80905 0.0
C3614 C 0.18177 0.21822 0.77189 0.0
C3615 C 0.20259 0.19839 0.77464 0.0
N3616 N 0.23242 0.17429 0.80463 0.0
N3617 N 0.16201 0.26094 0.78837 0.0
C3618 C 0.21817 0.19753 0.79884 0.0
C3619 C 0.1817 0.24133 0.78978 0.0
N3620 N 0.23834 0.22333 0.8363 0.0
N3621 N 0.16358 0.21565 0.75088 0.0
H3622 H 0.16158 0.27677 0.80253 0.0
H3623 H 0.14532 0.26037 0.77518 0.0
H3624 H 0.16323 0.1981 0.73867 0.0
H3625 H 0.14897 0.23024 0.74575 0.0
H3626 H 0.25298 0.20849 0.84061 0.0
H3627 H 0.23937 0.24048 0.84897 0.0
H3628 H 0.24357 0.17127 0.82252 0.0
H3629 H 0.2308 0.15708 0.79206 0.0
C3630 C 0.49805 0.58268 0.47478 0.0
C3631 C 0.49691 0.56272 0.45385 0.0
C3632 C 0.44936 0.55273 0.46623 0.0
C3633 C 0.45377 0.56602 0.49136 0.0
N3634 N 0.47774 0.59998 0.51705 0.0
N3635 N 0.47028 0.53137 0.42663 0.0
C3636 C 0.47638 0.58384 0.49431 0.0
C3637 C 0.47176 0.5493 0.44801 0.0
N3638 N 0.52047 0.59918 0.47656 0.0
N3639 N 0.42412 0.54218 0.46092 0.0
H3640 H 0.48659 0.52831 0.41324 0.0
H3641 H 0.45353 0.51879 0.4228 0.0
H3642 H 0.40796 0.54522 0.47456 0.0
H3643 H 0.41861 0.53324 0.44238 0.0
H3644 H 0.52273 0.61481 0.49084 0.0
H3645 H 0.53619 0.59806 0.46217 0.0
H3646 H 0.49445 0.61211 0.52222 0.0
H3647 H 0.46137 0.60109 0.53077 0.0
C3648 C 0.72928 0.83047 0.74808 0.0
C3649 C 0.70559 0.81385 0.74712 0.0
C3650 C 0.71612 0.80131 0.69966 0.0
C3651 C 0.7422 0.81337 0.70278 0.0
N3652 N 0.76899 0.84845 0.72374 0.0
N3653 N 0.67136 0.79197 0.71973 0.0
C3654 C 0.74688 0.83149 0.72482 0.0
C3655 C 0.69714 0.80244 0.72184 0.0
N3656 N 0.73576 0.84347 0.77192 0.0
N3657 N 0.71047 0.78767 0.67599 0.0
H3658 H 0.65728 0.79406 0.73566 0.0
H3659 H 0.66322 0.78363 0.70191 0.0
H3660 H 0.72393 0.78845 0.65943 0.0
H3661 H 0.69287 0.77619 0.67262 0.0
H3662 H 0.75409 0.85378 0.77527 0.0
H3663 H 0.72251 0.84327 0.78866 0.0
H3664 H 0.77343 0.86316 0.73851 0.0
H3665 H 0.78144 0.84917 0.70639 0.0
C3666 C 0.74135 0.18022 0.79065 0.0
C3667 C 0.73858 0.19902 0.81244 0.0
C3668 C 0.69411 0.21322 0.79433 0.0
C3669 C 0.70071 0.20037 0.76916 0.0
N3670 N 0.72705 0.16708 0.74471 0.0
N3671 N 0.70959 0.22717 0.83978 0.0
C3672 C 0.72285 0.18171 0.76809 0.0
C3673 C 0.71359 0.213 0.81607 0.0
N3674 N 0.76276 0.16231 0.79111 0.0
N3675 N 0.6695 0.22611 0.79676 0.0
H3676 H 0.72351 0.22567 0.85591 0.0
H3677 H 0.69281 0.23965 0.84373 0.0
H3678 H 0.65484 0.22462 0.78133 0.0
H3679 H 0.66273 0.23602 0.81434 0.0
H3680 H 0.76605 0.14721 0.77647 0.0
H3681 H 0.7762 0.16162 0.80773 0.0
H3682 H 0.74402 0.15474 0.74111 0.0
H3683 H 0.71299 0.16762 0.72873 0.0
C3684 C 0.45776 0.04909 0.4502 0.0
C3685 C 0.44796 0.02208 0.45309 0.0
C3686 C 0.43111 0.03269 0.49907 0.0
C3687 C 0.44561 0.05769 0.4981 0.0
N3688 N 0.4621 0.09451 0.47035 0.0
N3689 N 0.41521 0.99248 0.47416 0.0
C3690 C 0.45505 0.06764 0.47258 0.0
C3691 C 0.43073 0.0156 0.47543 0.0
N3692 N 0.471 0.05617 0.4267 0.0
N3693 N 0.41953 0.02469 0.52318 0.0
H3694 H 0.41464 0.98061 0.45639 0.0
H3695 H 0.40128 0.98671 0.48922 0.0
H3696 H 0.41919 0.03763 0.54022 0.0
H3697 H 0.41094 1.00547 0.52641 0.0
H3698 H 0.48127 0.07462 0.42389 0.0
H3699 H 0.47149 0.04295 0.40993 0.0
H3700 H 0.4682 0.10375 0.45215 0.0
H3701 H 0.4591 0.108 0.48661 0.0
C3702 C 0.28634 0.33382 0.7666 0.0
C3703 C 0.30727 0.31381 0.76637 0.0
C3704 C 0.29642 0.30232 0.81417 0.0
C3705 C 0.27144 0.31625 0.81125 0.0
N3706 N 0.24598 0.35203 0.79003 0.0
N3707 N 0.33583 0.28239 0.79129 0.0
C3708 C 0.26809 0.33501 0.78947 0.0
C3709 C 0.31405 0.29987 0.79104 0.0
N3710 N 0.28313 0.35018 0.74422 0.0
N3711 N 0.30179 0.28979 0.83852 0.0
H3712 H 0.34873 0.2802 0.77445 0.0
H3713 H 0.34077 0.26967 0.80763 0.0
H3714 H 0.28809 0.29127 0.8549 0.0
H3715 H 0.3201 0.27997 0.84312 0.0
H3716 H 0.26822 0.36523 0.74237 0.0
H3717 H 0.29662 0.34913 0.72769 0.0
H3718 H 0.24091 0.36572 0.77455 0.0
H3719 H 0.23292 0.35255 0.80697 0.0
C3720 C 0.05843 0.96555 0.95193 0.0
C3721 C 0.06829 0.99236 0.95628 0.0
C3722 C 0.08199 0.98033 1.00286 0.0
C3723 C 0.0674 0.95546 1.00021 0.0
N3724 N 0.05253 0.91958 0.97029 0.0
N3725 N 0.09924 0.02145 0.98047 0.0
C3726 C 0.05967 0.94629 0.97382 0.0
C3727 C 0.08406 0.99805 0.97983 0.0
N3728 N 0.04615 0.95945 0.92764 0.0
N3729 N 0.09181 0.98773 0.02791 0.0
H3730 H 0.10018 0.03444 0.9635 0.0
H3731 H 0.1123 0.02668 0.99646 0.0
H3732 H 0.09078 0.97448 0.04461 0.0
H3733 H 0.10026 0.0068 0.03223 0.0
H3734 H 0.03583 0.94123 0.92376 0.0
H3735 H 0.04641 0.9733 0.91139 0.0
H3736 H 0.04776 0.91096 0.95139 0.0
H3737 H 0.05414 0.90559 0.98631 0.0
C3738 C 0.81723 0.20729 0.22007 0.0
C3739 C 0.80929 0.19736 0.24614 0.0
C3740 C 0.76796 0.17815 0.22531 0.0
C3741 C 0.77187 0.19555 0.20253 0.0
N3742 N 0.80208 0.22235 0.17499 0.0
N3743 N 0.7797 0.16888 0.27287 0.0
C3744 C 0.79761 0.20799 0.1985 0.0
C3745 C 0.78581 0.18059 0.24829 0.0
N3746 N 0.84324 0.21661 0.21654 0.0
N3747 N 0.74595 0.16101 0.22542 0.0
H3748 H 0.79309 0.1702 0.28944 0.0
H3749 H 0.76152 0.15854 0.27694 0.0
H3750 H 0.73283 0.15983 0.20857 0.0
H3751 H 0.7421 0.14677 0.24079 0.0
H3752 H 0.85109 0.22308 0.19781 0.0
H3753 H 0.85764 0.21493 0.23219 0.0
H3754 H 0.81928 0.23444 0.17156 0.0
H3755 H 0.78775 0.22232 0.15911 0.0
C3756 C 0.46831 0.96357 0.06622 0.0
C3757 C 0.45306 0.98772 0.06268 0.0
C3758 C 0.4326 0.96846 0.0212 0.0
C3759 C 0.45396 0.949 0.02036 0.0
N3760 N 0.4893 0.92434 0.04415 0.0
N3761 N 0.41574 0.01095 0.04121 0.0
C3762 C 0.47029 0.94479 0.04406 0.0
C3763 C 0.43294 0.98898 0.04195 0.0
N3764 N 0.48181 0.95965 0.0903 0.0
N3765 N 0.41268 0.96745 1.00181 0.0
H3766 H 0.41549 0.02538 0.05699 0.0
H3767 H 0.40224 0.01497 0.02525 0.0
H3768 H 0.41212 0.95145 0.9878 0.0
H3769 H 0.39571 0.9803 1.00142 0.0
H3770 H 0.49242 0.94185 0.09519 0.0
H3771 H 0.47988 0.97362 0.10635 0.0
H3772 H 0.50396 0.92181 0.05939 0.0
H3773 H 0.4908 0.91027 0.02816 0.0
C3774 C 0.55387 0.54265 0.06197 0.0
C3775 C 0.56555 0.51637 0.05928 0.0
C3776 C 0.58261 0.52817 0.01367 0.0
C3777 C 0.56665 0.55232 0.01437 0.0
N3778 N 0.54718 0.58781 0.04195 0.0
N3779 N 0.60014 0.48868 0.03863 0.0
C3780 C 0.55592 0.56145 0.03973 0.0
C3781 C 0.58356 0.51106 0.03729 0.0
N3782 N 0.53935 0.54861 0.08504 0.0
N3783 N 0.59502 0.52078 0.98981 0.0
H3784 H 0.60058 0.47636 0.0561 0.0
H3785 H 0.6148 0.48387 0.02394 0.0
H3786 H 0.59495 0.53369 0.97284 0.0
H3787 H 0.60468 0.50206 0.9867 0.0
H3788 H 0.52781 0.56632 0.08761 0.0
H3789 H 0.53893 0.53512 0.10161 0.0
H3790 H 0.54002 0.5965 0.06005 0.0
H3791 H 0.55004 0.60162 0.02594 0.0
C3792 C 0.11949 0.3673 0.20181 0.0
C3793 C 0.1256 0.385 0.2241 0.0
C3794 C 0.10704 0.42418 0.1989 0.0
C3795 C 0.10085 0.40664 0.17658 0.0
N3796 N 0.10473 0.36266 0.1545 0.0
N3797 N 0.13242 0.43069 0.24107 0.0
C3798 C 0.10825 0.37851 0.17734 0.0
C3799 C 0.12163 0.41361 0.2217 0.0
N3800 N 0.12346 0.33972 0.20441 0.0
N3801 N 0.09763 0.45054 0.19905 0.0
H3802 H 0.14382 0.42347 0.25763 0.0
H3803 H 0.13259 0.45192 0.23928 0.0
H3804 H 0.08631 0.45896 0.18304 0.0
H3805 H 0.09892 0.4634 0.216 0.0
H3806 H 0.11651 0.32524 0.19045 0.0
H3807 H 0.13282 0.33079 0.22132 0.0
H3808 H 0.11113 0.34246 0.15278 0.0
H3809 H 0.09676 0.37017 0.1362 0.0
C3810 C 0.64964 0.67448 0.06417 0.0
C3811 C 0.65473 0.65618 0.08616 0.0
C3812 C 0.6305 0.61964 0.06163 0.0
C3813 C 0.62482 0.63811 0.03997 0.0
N3814 N 0.63624 0.68011 0.01668 0.0
N3815 N 0.65779 0.60911 0.10135 0.0
C3816 C 0.63658 0.66469 0.04005 0.0
C3817 C 0.64781 0.62804 0.08343 0.0
N3818 N 0.6571 0.70134 0.06648 0.0
N3819 N 0.61803 0.59461 0.06243 0.0
H3820 H 0.66955 0.61399 0.11833 0.0
H3821 H 0.65654 0.58812 0.09785 0.0
H3822 H 0.60553 0.58733 0.04684 0.0
H3823 H 0.61839 0.58188 0.07952 0.0
H3824 H 0.65068 0.71652 0.05297 0.0
H3825 H 0.66897 0.70868 0.08265 0.0
H3826 H 0.64659 0.69861 0.01461 0.0
H3827 H 0.62793 0.67312 0.99828 0.0
C3828 C 0.88089 0.11458 0.17858 0.0
C3829 C 0.90937 0.10969 0.17467 0.0
C3830 C 0.91857 0.12859 0.22036 0.0
C3831 C 0.89125 0.13838 0.22163 0.0
N3832 N 0.84603 0.14105 0.20192 0.0
N3833 N 0.95537 0.11036 0.19252 0.0
C3834 C 0.87214 0.131 0.20103 0.0
C3835 C 0.92818 0.11609 0.19589 0.0
N3836 N 0.8621 0.10375 0.16097 0.0
N3837 N 0.93494 0.13017 0.24303 0.0
H3838 H 0.96282 0.09877 0.17619 0.0
H3839 H 0.97065 0.11792 0.20531 0.0
H3840 H 0.92815 0.13799 0.26172 0.0
H3841 H 0.95422 0.12121 0.24432 0.0
H3842 H 0.84119 0.10325 0.16507 0.0
H3843 H 0.86719 0.09323 0.14324 0.0
H3844 H 0.83185 0.13868 0.18623 0.0
H3845 H 0.83875 0.1534 0.21765 0.0
C3846 C 0.36654 0.83786 0.06694 0.0
C3847 C 0.35121 0.85481 0.08485 0.0
C3848 C 0.36943 0.89551 0.06207 0.0
C3849 C 0.38835 0.87881 0.04782 0.0
N3850 N 0.40339 0.83383 0.03385 0.0
N3851 N 0.32443 0.89608 0.08197 0.0
C3852 C 0.38624 0.84983 0.04915 0.0
C3853 C 0.34865 0.88291 0.078 0.0
N3854 N 0.36047 0.8106 0.06562 0.0
N3855 N 0.37129 0.92335 0.0606 0.0
H3856 H 0.30648 0.88507 0.08541 0.0
H3857 H 0.32105 0.91632 0.07615 0.0
H3858 H 0.38598 0.93332 0.04873 0.0
H3859 H 0.35959 0.93629 0.07291 0.0
H3860 H 0.36924 0.79704 0.05173 0.0
H3861 H 0.34407 0.80224 0.0765 0.0
H3862 H 0.40532 0.81278 0.03637 0.0
H3863 H 0.41671 0.84175 0.01916 0.0
C3864 C 0.09045 0.60605 0.31724 0.0
C3865 C 0.10475 0.61015 0.34216 0.0
C3866 C 0.14069 0.63519 0.31749 0.0
C3867 C 0.12419 0.63504 0.29361 0.0
N3868 N 0.08384 0.6195 0.26984 0.0
N3869 N 0.14202 0.63106 0.36691 0.0
C3870 C 0.09924 0.62005 0.2932 0.0
C3871 C 0.12967 0.62511 0.34251 0.0
N3872 N 0.06877 0.58836 0.31655 0.0
N3873 N 0.16689 0.64482 0.31629 0.0
H3874 H 0.13458 0.62417 0.38571 0.0
H3875 H 0.1584 0.64456 0.36878 0.0
H3876 H 0.17573 0.6517 0.29817 0.0
H3877 H 0.18074 0.64323 0.33242 0.0
H3878 H 0.05898 0.58233 0.29862 0.0
H3879 H 0.06186 0.5779 0.33384 0.0
H3880 H 0.06387 0.61213 0.26901 0.0
H3881 H 0.09077 0.62733 0.25121 0.0
C3882 C 0.85689 0.65345 0.9728 0.0
C3883 C 0.8824 0.63952 0.97278 0.0
C3884 C 0.88264 0.64035 0.92259 0.0
C3885 C 0.85982 0.65832 0.92299 0.0
N3886 N 0.82599 0.68366 0.94844 0.0
N3887 N 0.92123 0.622 0.94758 0.0
C3888 C 0.84694 0.66514 0.94807 0.0
C3889 C 0.89559 0.63319 0.94764 0.0
N3890 N 0.84189 0.65492 0.9964 0.0
N3891 N 0.89173 0.62989 0.89826 0.0
H3892 H 0.93182 0.61701 0.96539 0.0
H3893 H 0.93301 0.61978 0.92994 0.0
H3894 H 0.88272 0.63472 0.8795 0.0
H3895 H 0.90632 0.61441 0.89693 0.0
H3896 H 0.82201 0.66255 0.99719 0.0
H3897 H 0.84826 0.6459 0.01468 0.0
H3898 H 0.8179 0.69184 0.9664 0.0
H3899 H 0.81797 0.69243 0.93071 0.0
C3900 C 0.87899 0.8982 0.33439 0.0
C3901 C 0.90741 0.90347 0.33816 0.0
C3902 C 0.91674 0.88441 0.29254 0.0
C3903 C 0.88956 0.87423 0.29146 0.0
N3904 N 0.84435 0.8713 0.31118 0.0
N3905 N 0.95333 0.9035 0.32005 0.0
C3906 C 0.87038 0.88156 0.31204 0.0
C3907 C 0.92623 0.89727 0.31687 0.0
N3908 N 0.86013 0.90886 0.35205 0.0
N3909 N 0.93307 0.88285 0.26982 0.0
H3910 H 0.96062 0.91538 0.33624 0.0
H3911 H 0.96869 0.89613 0.30724 0.0
H3912 H 0.92635 0.87472 0.25124 0.0
H3913 H 0.95221 0.89208 0.26836 0.0
H3914 H 0.8392 0.90907 0.34807 0.0
H3915 H 0.86516 0.91952 0.3697 0.0
H3916 H 0.83008 0.8737 0.3268 0.0
H3917 H 0.83721 0.85879 0.29552 0.0
C3918 C 0.17455 0.85527 0.9505 0.0
C3919 C 0.15709 0.84775 0.92848 0.0
C3920 C 0.11688 0.85946 0.95629 0.0
C3921 C 0.13444 0.86895 0.97738 0.0
N3922 N 0.17971 0.88119 0.99254 0.0
N3923 N 0.11188 0.84776 0.90842 0.0
C3924 C 0.16322 0.86853 0.97381 0.0
C3925 C 0.12832 0.85144 0.93077 0.0
N3926 N 0.20165 0.84832 0.94997 0.0
N3927 N 0.08945 0.85655 0.9611 0.0
H3928 H 0.11932 0.84185 0.88931 0.0
H3929 H 0.09126 0.85313 0.90812 0.0
H3930 H 0.08022 0.86161 0.97967 0.0
H3931 H 0.07617 0.84679 0.94758 0.0
H3932 H 0.21468 0.8508 0.96665 0.0
H3933 H 0.21063 0.83756 0.93386 0.0
H3934 H 0.20064 0.88402 0.98963 0.0
H3935 H 0.17203 0.8912 0.00979 0.0
C3936 C 0.16543 0.12565 0.38241 0.0
C3937 C 0.16671 0.10047 0.39684 0.0
C3938 C 0.21452 0.09454 0.38282 0.0
C3939 C 0.21343 0.12021 0.3692 0.0
N3940 N 0.1904 0.16324 0.36192 0.0
N3941 N 0.19349 0.06356 0.41549 0.0
C3942 C 0.18972 0.13682 0.37101 0.0
C3943 C 0.1916 0.08565 0.39842 0.0
N3944 N 0.14074 0.13808 0.37818 0.0
N3945 N 0.23744 0.0786 0.38071 0.0
H3946 H 0.1771 0.0566 0.42729 0.0
H3947 H 0.21175 0.05349 0.41978 0.0
H3948 H 0.2555 0.0853 0.37149 0.0
H3949 H 0.23824 0.05827 0.38701 0.0
H3950 H 0.13811 0.15491 0.36538 0.0
H3951 H 0.12235 0.13006 0.38545 0.0
H3952 H 0.17456 0.17714 0.36509 0.0
H3953 H 0.20793 0.17206 0.35363 0.0
C3954 C 0.36328 0.58977 0.88654 0.0
C3955 C 0.35015 0.59078 0.86068 0.0
C3956 C 0.35718 0.54139 0.85557 0.0
C3957 C 0.36588 0.53985 0.8833 0.0
N3958 N 0.37134 0.56255 0.92693 0.0
N3959 N 0.3312 0.56676 0.82185 0.0
C3960 C 0.36761 0.56406 0.89926 0.0
C3961 C 0.34628 0.56638 0.8454 0.0
N3962 N 0.37203 0.61333 0.89881 0.0
N3963 N 0.36003 0.51923 0.83873 0.0
H3964 H 0.32248 0.58454 0.81394 0.0
H3965 H 0.32533 0.54905 0.81151 0.0
H3966 H 0.36881 0.50088 0.84518 0.0
H3967 H 0.3564 0.52002 0.81772 0.0
H3968 H 0.38406 0.6134 0.91644 0.0
H3969 H 0.36981 0.63255 0.88978 0.0
H3970 H 0.37033 0.57958 0.93974 0.0
H3971 H 0.37213 0.54404 0.93745 0.0
C3972 C 0.83385 0.37819 0.40039 0.0
C3973 C 0.83825 0.40635 0.40643 0.0
C3974 C 0.79334 0.41735 0.38681 0.0
C3975 C 0.79183 0.39053 0.37575 0.0
N3976 N 0.81019 0.34482 0.37223 0.0
N3977 N 0.82123 0.45259 0.40784 0.0
C3978 C 0.81162 0.37058 0.38311 0.0
C3979 C 0.81752 0.42582 0.40058 0.0
N3980 N 0.85082 0.35868 0.41094 0.0
N3981 N 0.77119 0.43437 0.38501 0.0
H3982 H 0.83737 0.45904 0.42026 0.0
H3983 H 0.80894 0.46853 0.40087 0.0
H3984 H 0.75284 0.42848 0.37586 0.0
H3985 H 0.7699 0.45322 0.39485 0.0
H3986 H 0.84647 0.33784 0.41039 0.0
H3987 H 0.86818 0.36311 0.42233 0.0
H3988 H 0.8252 0.32997 0.37475 0.0
H3989 H 0.79464 0.33847 0.35916 0.0
C3990 C 0.67246 0.9506 0.85051 0.0
C3991 C 0.65466 0.92784 0.84813 0.0
C3992 C 0.62011 0.95151 0.87582 0.0
C3993 C 0.63875 0.97335 0.88 0.0
N3994 N 0.67765 0.99841 0.86269 0.0
N3995 N 0.60806 0.91076 0.85222 0.0
C3996 C 0.66346 0.97437 0.86466 0.0
C3997 C 0.62742 0.9298 0.85817 0.0
N3998 N 0.69827 0.94913 0.83982 0.0
N3999 N 0.59556 0.95066 0.88921 0.0
H4000 H 0.61097 0.89447 0.83879 0.0
H4001 H 0.61097 0.89447 0.83879 0.0
H4002 H 0.58984 0.96452 0.90432 0.0
H4003 H 0.58111 0.93534 0.88572 0.0
H4004 H 0.71353 0.96342 0.84396 0.0
H4005 H 0.70468 0.93285 0.82754 0.0
H4006 H 0.69455 1.00109 0.84997 0.0
H4007 H 0.67072 0.01664 0.87141 0.0
C4008 C 0.17822 0.8803 0.11436 0.0
C4009 C 0.17475 0.90842 0.1076 0.0
C4010 C 0.2196 0.9187 0.1276 0.0
C4011 C 0.2201 0.89216 0.13935 0.0
N4012 N 0.2004 0.84707 0.14378 0.0
N4013 N 0.19288 0.95423 0.10569 0.0
C4014 C 0.19989 0.87256 0.13221 0.0
C4015 C 0.19583 0.92751 0.11342 0.0
N4016 N 0.16079 0.861 0.10412 0.0
N4017 N 0.24233 0.93499 0.12898 0.0
H4018 H 0.177 0.96088 0.09305 0.0
H4019 H 0.20553 0.96995 0.11256 0.0
H4020 H 0.26058 0.92867 0.13809 0.0
H4021 H 0.2442 0.95355 0.11871 0.0
H4022 H 0.16459 0.84007 0.10509 0.0
H4023 H 0.14356 0.86558 0.09258 0.0
H4024 H 0.18531 0.83236 0.14097 0.0
H4025 H 0.21519 0.84083 0.15775 0.0
C4026 C 0.15152 0.58762 0.12392 0.0
C4027 C 0.1615 0.58836 0.15132 0.0
C4028 C 0.14917 0.54003 0.15733 0.0
C4029 C 0.1413 0.53872 0.12942 0.0
N4030 N 0.13035 0.56164 0.08709 0.0
N4031 N 0.17377 0.56444 0.19278 0.0
C4032 C 0.14102 0.56267 0.11298 0.0
C4033 C 0.16106 0.56443 0.16783 0.0
N4034 N 0.15328 0.61054 0.10795 0.0
N4035 N 0.14427 0.51812 0.17406 0.0
H4036 H 0.18343 0.58159 0.201 0.0
H4037 H 0.17698 0.54686 0.20437 0.0
H4038 H 0.13504 0.50014 0.16714 0.0
H4039 H 0.14673 0.51864 0.19523 0.0
H4040 H 0.15046 0.61072 0.08686 0.0
H4041 H 0.1587 0.62968 0.11558 0.0
H4042 H 0.12636 0.57873 0.07508 0.0
H4043 H 0.12386 0.54362 0.07777 0.0
C4044 C 0.8361 0.62714 0.11843 0.0
C4045 C 0.83667 0.60014 0.10754 0.0
C4046 C 0.78887 0.59368 0.12177 0.0
C4047 C 0.79007 0.61858 0.13674 0.0
N4048 N 0.81508 0.659 0.15008 0.0
N4049 N 0.81356 0.55759 0.09822 0.0
C4050 C 0.81355 0.63558 0.13486 0.0
C4051 C 0.81294 0.58345 0.10891 0.0
N4052 N 0.85707 0.64482 0.11319 0.0
N4053 N 0.7644 0.58037 0.11905 0.0
H4054 H 0.83 0.5502 0.08676 0.0
H4055 H 0.79837 0.54306 0.10169 0.0
H4056 H 0.74619 0.58783 0.12737 0.0
H4057 H 0.76147 0.56351 0.10634 0.0
H4058 H 0.85615 0.66568 0.11745 0.0
H4059 H 0.87454 0.63926 0.10245 0.0
H4060 H 0.83299 0.67024 0.15274 0.0
H4061 H 0.79878 0.66638 0.1616 0.0
C4062 C 0.8454 0.9718 0.13492 0.0
C4063 C 0.87264 0.97263 0.12484 0.0
C4064 C 0.88289 0.93008 0.14947 0.0
C4065 C 0.85439 0.92639 0.15446 0.0
N4066 N 0.80858 0.94469 0.15413 0.0
N4067 N 0.91784 0.95286 0.12257 0.0
C4068 C 0.83572 0.94769 0.14798 0.0
C4069 C 0.89171 0.95217 0.13262 0.0
N4070 N 0.8292 0.99456 0.13303 0.0
N4071 N 0.90161 0.91259 0.16059 0.0
H4072 H 0.92509 0.96823 0.10977 0.0
H4073 H 0.93213 0.93736 0.12546 0.0
H4074 H 0.89644 0.89514 0.1715 0.0
H4075 H 0.92254 0.91652 0.16093 0.0
H4076 H 0.81001 0.9962 0.14214 0.0
H4077 H 0.83607 0.01301 0.12477 0.0
H4078 H 0.79331 0.95747 0.14657 0.0
H4079 H 0.80116 0.92868 0.16617 0.0
C4080 C 0.38209 0.16757 0.12485 0.0
C4081 C 0.39755 0.16884 0.10027 0.0
C4082 C 0.38538 0.21724 0.09493 0.0
C4083 C 0.37054 0.21603 0.11997 0.0
N4084 N 0.36112 0.19237 0.16228 0.0
N4085 N 0.41839 0.19564 0.06457 0.0
C4086 C 0.37106 0.19197 0.13614 0.0
C4087 C 0.40054 0.19395 0.08608 0.0
N4088 N 0.37647 0.14281 0.13652 0.0
N4089 N 0.38487 0.24063 0.07958 0.0
H4090 H 0.42975 0.17893 0.05765 0.0
H4091 H 0.42366 0.2139 0.05497 0.0
H4092 H 0.37615 0.25886 0.08649 0.0
H4093 H 0.39215 0.24179 0.05958 0.0
H4094 H 0.36275 0.14029 0.15265 0.0
H4095 H 0.3835 0.12441 0.12836 0.0
H4096 H 0.36332 0.17612 0.17591 0.0
H4097 H 0.35322 0.20995 0.17131 0.0
C4098 C 0.36937 0.84201 0.41649 0.0
C4099 C 0.3981 0.84475 0.4202 0.0
C4100 C 0.40486 0.79889 0.40131 0.0
C4101 C 0.37613 0.7948 0.40109 0.0
N4102 N 0.33092 0.81093 0.41297 0.0
N4103 N 0.44248 0.82294 0.42239 0.0
C4104 C 0.35827 0.81597 0.40979 0.0
C4105 C 0.41571 0.8224 0.41432 0.0
N4106 N 0.35269 0.86436 0.41858 0.0
N4107 N 0.4218 0.78082 0.38829 0.0
H4108 H 0.451 0.83911 0.4334 0.0
H4109 H 0.45538 0.80602 0.42084 0.0
H4110 H 0.41458 0.76395 0.37737 0.0
H4111 H 0.44269 0.7843 0.38574 0.0
H4112 H 0.3321 0.86405 0.41309 0.0
H4113 H 0.3599 0.8839 0.42318 0.0
H4114 H 0.3175 0.82478 0.42207 0.0
H4115 H 0.32198 0.79198 0.40895 0.0
C4116 C 0.08472 0.38566 0.85029 0.0
C4117 C 0.08735 0.35738 0.84407 0.0
C4118 C 0.04189 0.3489 0.86345 0.0
C4119 C 0.038 0.37748 0.86637 0.0
N4120 N 0.05367 0.42353 0.85744 0.0
N4121 N 0.06628 0.31281 0.83991 0.0
C4122 C 0.0589 0.39606 0.85856 0.0
C4123 C 0.06539 0.33911 0.84944 0.0
N4124 N 0.10699 0.40252 0.84895 0.0
N4125 N 0.02339 0.33108 0.87454 0.0
H4126 H 0.08259 0.3051 0.82851 0.0
H4127 H 0.04968 0.29947 0.84091 0.0
H4128 H 0.00608 0.33756 0.88525 0.0
H4129 H 0.0266 0.31002 0.87546 0.0
H4130 H 0.10681 0.42262 0.85608 0.0
H4131 H 0.12639 0.39576 0.84317 0.0
H4132 H 0.06728 0.43765 0.84908 0.0
H4133 H 0.03471 0.43201 0.86229 0.0
C4134 C 0.60977 0.72301 0.40834 0.0
C4135 C 0.634 0.7234 0.39224 0.0
C4136 C 0.63345 0.67337 0.39022 0.0
C4137 C 0.61169 0.67289 0.4095 0.0
N4138 N 0.58026 0.69719 0.4388 0.0
N4139 N 0.66909 0.69848 0.36756 0.0
C4140 C 0.59994 0.69771 0.41889 0.0
C4141 C 0.6457 0.69851 0.38291 0.0
N4142 N 0.59563 0.74676 0.41268 0.0
N4143 N 0.64336 0.64999 0.37868 0.0
H4144 H 0.67999 0.71616 0.36287 0.0
H4145 H 0.67809 0.68048 0.36037 0.0
H4146 H 0.63524 0.63053 0.38215 0.0
H4147 H 0.63524 0.63053 0.38215 0.0
H4148 H 0.57645 0.74749 0.42195 0.0
H4149 H 0.60174 0.7655 0.40447 0.0
H4150 H 0.57323 0.71464 0.44882 0.0
H4151 H 0.57231 0.67908 0.44681 0.0
C4152 C 0.44295 0.67115 0.38811 0.0
C4153 C 0.42673 0.66323 0.36529 0.0
C4154 C 0.44063 0.61544 0.37174 0.0
C4155 C 0.45976 0.62408 0.39164 0.0
N4156 N 0.46914 0.65631 0.42763 0.0
N4157 N 0.40921 0.62812 0.33537 0.0
C4158 C 0.4581 0.65092 0.40251 0.0
C4159 C 0.42502 0.63534 0.35731 0.0
N4160 N 0.44476 0.69814 0.39527 0.0
N4161 N 0.43689 0.58806 0.36748 0.0
H4162 H 0.3968 0.64202 0.32497 0.0
H4163 H 0.4093 0.60873 0.32657 0.0
H4164 H 0.44707 0.57336 0.37916 0.0
H4165 H 0.42188 0.57991 0.35477 0.0
H4166 H 0.45863 0.70558 0.40964 0.0
H4167 H 0.43369 0.71353 0.38547 0.0
H4168 H 0.46678 0.67485 0.43787 0.0
H4169 H 0.47757 0.64094 0.43981 0.0
C4170 C 0.14875 0.81964 0.63282 0.0
C4171 C 0.13891 0.79459 0.62191 0.0
C4172 C 0.1049 0.8192 0.59443 0.0
C4173 C 0.11449 0.8442 0.60557 0.0
N4174 N 0.1413 0.86836 0.63922 0.0
N4175 N 0.10403 0.76965 0.59757 0.0
C4176 C 0.13504 0.84443 0.6261 0.0
C4177 C 0.11583 0.79412 0.6043 0.0
N4178 N 0.17204 0.8199 0.64835 0.0
N4179 N 0.08612 0.81949 0.57368 0.0
H4180 H 0.11137 0.75093 0.60475 0.0
H4181 H 0.08561 0.76795 0.58701 0.0
H4182 H 0.07716 0.83745 0.56641 0.0
H4183 H 0.08069 0.80221 0.56245 0.0
H4184 H 0.18201 0.8377 0.65448 0.0
H4185 H 0.18265 0.80217 0.65359 0.0
H4186 H 0.1541 0.86951 0.65621 0.0
H4187 H 0.13187 0.88693 0.63455 0.0
C4188 C 0.07032 0.60671 0.65435 0.0
C4189 C 0.0468 0.62144 0.6458 0.0
C4190 C 0.06904 0.66472 0.65841 0.0
C4191 C 0.09306 0.65008 0.66575 0.0
N4192 N 0.11861 0.60784 0.66551 0.0
N4193 N 0.0253 0.66458 0.63499 0.0
C4194 C 0.09429 0.62126 0.66215 0.0
C4195 C 0.04679 0.65051 0.64605 0.0
N4196 N 0.06959 0.57876 0.65557 0.0
N4197 N 0.06668 0.69183 0.66499 0.0
H4198 H 0.00793 0.65507 0.6271 0.0
H4199 H 0.02558 0.68563 0.6317 0.0
H4200 H 0.08204 0.70284 0.67487 0.0
H4201 H 0.04858 0.70288 0.663 0.0
H4202 H 0.08468 0.56699 0.66491 0.0
H4203 H 0.05299 0.56724 0.64875 0.0
H4204 H 0.12159 0.58738 0.66036 0.0
H4205 H 0.13669 0.61772 0.67104 0.0
C4206 C 0.9314 0.86155 0.63076 0.0
C4207 C 0.92712 0.8555 0.65897 0.0
C4208 C 0.97156 0.87647 0.66969 0.0
C4209 C 0.9728 0.88703 0.64262 0.0
N4210 N 0.9554 0.88704 0.59622 0.0
N4211 N 0.94436 0.85471 0.70514 0.0
C4212 C 0.95345 0.8785 0.6228 0.0
C4213 C 0.94782 0.86197 0.67832 0.0
N4214 N 0.91441 0.85233 0.61075 0.0
N4215 N 0.99363 0.87931 0.68668 0.0
H4216 H 0.92851 0.84193 0.71161 0.0
H4217 H 0.95655 0.86193 0.72105 0.0
H4218 H 0.01178 0.88877 0.68058 0.0
H4219 H 0.99516 0.87006 0.70581 0.0
H4220 H 0.89783 0.83935 0.61394 0.0
H4221 H 0.89783 0.83935 0.61394 0.0
H4222 H 0.94166 0.88086 0.58107 0.0
H4223 H 0.97035 0.90051 0.58924 0.0
C4224 C 0.62568 0.89088 0.67307 0.0
C4225 C 0.59838 0.90095 0.6722 0.0
C4226 C 0.59134 0.88513 0.71941 0.0
C4227 C 0.6167 0.87096 0.71829 0.0
N4228 N 0.65764 0.85902 0.69336 0.0
N4229 N 0.55495 0.90792 0.69455 0.0
C4230 C 0.63399 0.87384 0.69513 0.0
C4231 C 0.58117 0.89822 0.69546 0.0
N4232 N 0.64381 0.89755 0.65289 0.0
N4233 N 0.57757 0.88708 0.74373 0.0
H4234 H 0.54748 0.91955 0.67828 0.0
H4235 H 0.54024 0.90341 0.70931 0.0
H4236 H 0.58497 0.87876 0.76195 0.0
H4237 H 0.56033 0.89927 0.74657 0.0
H4238 H 0.66476 0.89391 0.65435 0.0
H4239 H 0.63848 0.9089 0.63576 0.0
H4240 H 0.66918 0.85727 0.6755 0.0
H4241 H 0.6648 0.84675 0.70917 0.0
C4242 C 0.14526 0.17866 0.56845 0.0
C4243 C 0.15208 0.15949 0.58919 0.0
C4244 C 0.13071 0.12261 0.5624 0.0
C4245 C 0.12301 0.14202 0.54221 0.0
N4246 N 0.13041 0.18628 0.52171 0.0
N4247 N 0.15876 0.11202 0.60172 0.0
C4248 C 0.13254 0.16942 0.54395 0.0
C4249 C 0.14741 0.13106 0.58474 0.0
N4250 N 0.15076 0.20582 0.57232 0.0
N4251 N 0.12068 0.0965 0.56127 0.0
H4252 H 0.16972 0.11688 0.61923 0.0
H4253 H 0.1593 0.0912 0.59719 0.0
H4254 H 0.10802 0.08947 0.54568 0.0
H4255 H 0.1233 0.08212 0.57674 0.0
H4256 H 0.14291 0.22128 0.55994 0.0
H4257 H 0.16246 0.21305 0.58866 0.0
H4258 H 0.13926 0.20563 0.52065 0.0
H4259 H 0.12213 0.1799 0.5031 0.0
C4260 C 0.3804 0.61424 0.67779 0.0
C4261 C 0.40851 0.60717 0.67476 0.0
C4262 C 0.41775 0.62475 0.7209 0.0
C4263 C 0.39128 0.63665 0.72137 0.0
N4264 N 0.34684 0.64267 0.70073 0.0
N4265 N 0.45372 0.60352 0.69411 0.0
C4266 C 0.37222 0.63088 0.70025 0.0
C4267 C 0.42705 0.61159 0.69668 0.0
N4268 N 0.36147 0.60527 0.6593 0.0
N4269 N 0.43356 0.6252 0.74401 0.0
H4270 H 0.46065 0.59154 0.67781 0.0
H4271 H 0.46918 0.60942 0.70753 0.0
H4272 H 0.42694 0.63387 0.76238 0.0
H4273 H 0.452 0.61473 0.74593 0.0
H4274 H 0.34045 0.60645 0.66257 0.0
H4275 H 0.36639 0.59457 0.64162 0.0
H4276 H 0.33302 0.64179 0.68457 0.0
H4277 H 0.3399 0.65481 0.71678 0.0
C4278 C 0.8779 0.37696 0.59343 0.0
C4279 C 0.86207 0.35263 0.59209 0.0
C4280 C 0.87454 0.34681 0.54378 0.0
C4281 C 0.89009 0.37137 0.54509 0.0
N4282 N 0.90026 0.41357 0.56857 0.0
N4283 N 0.84077 0.31724 0.56529 0.0
C4284 C 0.88963 0.38773 0.56907 0.0
C4285 C 0.85897 0.33843 0.56698 0.0
N4286 N 0.88305 0.38894 0.6182 0.0
N4287 N 0.87491 0.33138 0.5204 0.0
H4288 H 0.82919 0.31064 0.582 0.0
H4289 H 0.83547 0.30759 0.54705 0.0
H4290 H 0.88412 0.33796 0.50228 0.0
H4291 H 0.86702 0.31164 0.51914 0.0
H4292 H 0.89706 0.40478 0.62087 0.0
H4293 H 0.87493 0.38168 0.63656 0.0
H4294 H 0.89826 0.42741 0.58468 0.0
H4295 H 0.90858 0.42217 0.55095 0.0
C4296 C 0.61369 0.13356 0.83968 0.0
C4297 C 0.60293 0.10656 0.83963 0.0
C4298 C 0.61984 0.09972 0.7927 0.0
C4299 C 0.6329 0.12569 0.79381 0.0
N4300 N 0.64576 0.16565 0.8195 0.0
N4301 N 0.59764 0.0628 0.81728 0.0
C4302 C 0.63065 0.1422 0.81763 0.0
C4303 C 0.60676 0.08924 0.81656 0.0
N4304 N 0.60783 0.1509 0.86087 0.0
N4305 N 0.61819 0.0859 0.76838 0.0
H4306 H 0.58581 0.05496 0.83323 0.0
H4307 H 0.60307 0.04815 0.80277 0.0
H4308 H 0.62657 0.09314 0.75016 0.0
H4309 H 0.60631 0.06844 0.76556 0.0
H4310 H 0.61211 0.17175 0.86059 0.0
H4311 H 0.597 0.14492 0.87826 0.0
H4312 H 0.64585 0.17868 0.83631 0.0
H4313 H 0.66021 0.17099 0.80481 0.0
C4314 C 0.35754 0.17461 0.44783 0.0
C4315 C 0.35171 0.15547 0.42675 0.0
C4316 C 0.37524 0.11939 0.45273 0.0
C4317 C 0.38251 0.13903 0.4729 0.0
N4318 N 0.37233 0.18217 0.49462 0.0
N4319 N 0.34693 0.10792 0.41374 0.0
C4320 C 0.37112 0.16573 0.47196 0.0
C4321 C 0.35772 0.12725 0.43078 0.0
N4322 N 0.35037 0.20145 0.44455 0.0
N4323 N 0.38634 0.09371 0.45351 0.0
H4324 H 0.33531 0.11251 0.39658 0.0
H4325 H 0.34747 0.08704 0.41791 0.0
H4326 H 0.39978 0.0872 0.46866 0.0
H4327 H 0.38365 0.07911 0.43826 0.0
H4328 H 0.35735 0.21713 0.4572 0.0
H4329 H 0.33809 0.2082 0.42843 0.0
H4330 H 0.36234 0.20091 0.49615 0.0
H4331 H 0.38091 0.17578 0.51311 0.0
C4332 C 0.37358 0.40403 0.83036 0.0
C4333 C 0.40038 0.41503 0.83238 0.0
C4334 C 0.40823 0.40359 0.7842 0.0
C4335 C 0.38457 0.3867 0.78454 0.0
N4336 N 0.34468 0.37012 0.80883 0.0
N4337 N 0.44301 0.42697 0.81075 0.0
C4338 C 0.36683 0.38717 0.80759 0.0
C4339 C 0.41755 0.41555 0.80902 0.0
N4340 N 0.35464 0.40946 0.85014 0.0
N4341 N 0.42126 0.40886 0.75999 0.0
H4342 H 0.44966 0.43762 0.82806 0.0
H4343 H 0.45783 0.4249 0.79556 0.0
H4344 H 0.41403 0.40162 0.74123 0.0
H4345 H 0.43726 0.42281 0.75808 0.0
H4346 H 0.33393 0.40493 0.84784 0.0
H4347 H 0.35889 0.42118 0.86739 0.0
H4348 H 0.33239 0.36809 0.8261 0.0
H4349 H 0.33964 0.35623 0.79352 0.0
C4350 C 0.62931 0.38204 0.41174 0.0
C4351 C 0.64619 0.35875 0.41564 0.0
C4352 C 0.635 0.3587 0.46464 0.0
C4353 C 0.61878 0.38259 0.46075 0.0
N4354 N 0.60269 0.4186 0.43092 0.0
N4355 N 0.66958 0.32806 0.44624 0.0
C4356 C 0.61683 0.39477 0.43448 0.0
C4357 C 0.65047 0.3481 0.44228 0.0
N4358 N 0.62439 0.39257 0.38638 0.0
N4359 N 0.6341 0.34495 0.48901 0.0
H4360 H 0.68088 0.31954 0.43023 0.0
H4361 H 0.6759 0.32153 0.46552 0.0
H4362 H 0.62259 0.35141 0.50577 0.0
H4363 H 0.64288 0.32577 0.49199 0.0
H4364 H 0.63229 0.38453 0.36822 0.0
H4365 H 0.63229 0.38453 0.36822 0.0
H4366 H 0.60037 0.42791 0.41182 0.0
H4367 H 0.59439 0.42955 0.44721 0.0
C4368 C 0.67825 0.6236 0.88863 0.0
C4369 C 0.6788 0.59998 0.90548 0.0
C4370 C 0.72848 0.59729 0.89948 0.0
C4371 C 0.72689 0.61739 0.87851 0.0
N4372 N 0.69925 0.64772 0.85087 0.0
N4373 N 0.70432 0.5637 0.92691 0.0
C4374 C 0.7016 0.63039 0.87271 0.0
C4375 C 0.70395 0.5867 0.91103 0.0
N4376 N 0.65543 0.63961 0.88786 0.0
N4377 N 0.75347 0.58899 0.90892 0.0
H4378 H 0.68696 0.5563 0.93693 0.0
H4379 H 0.72146 0.5512 0.92897 0.0
H4380 H 0.77182 0.59719 0.9017 0.0
H4381 H 0.75597 0.5762 0.92578 0.0
H4382 H 0.6549 0.65859 0.8782 0.0
H4383 H 0.63814 0.63527 0.89949 0.0
H4384 H 0.68057 0.65535 0.84398 0.0
H4385 H 0.7155 0.65257 0.83795 0.0
C4386 C 0.84362 0.04138 0.37843 0.0
C4387 C 0.87073 0.04032 0.3888 0.0
C4388 C 0.88151 0.0829 0.36441 0.0
C4389 C 0.85312 0.08679 0.3591 0.0
N4390 N 0.80712 0.06894 0.35931 0.0
N4391 N 0.91588 0.06019 0.39199 0.0
C4392 C 0.83421 0.06566 0.36548 0.0
C4393 C 0.88997 0.06081 0.38142 0.0
N4394 N 0.82727 0.0187 0.3799 0.0
N4395 N 0.90051 0.10016 0.35341 0.0
H4396 H 0.92288 0.04486 0.40497 0.0
H4397 H 0.93013 0.07579 0.38945 0.0
H4398 H 0.89562 0.11756 0.3423 0.0
H4399 H 0.92141 0.09601 0.3533 0.0
H4400 H 0.80819 0.01727 0.37054 0.0
H4401 H 0.83395 1.00011 0.388 0.0
H4402 H 0.79173 0.05623 0.36679 0.0
H4403 H 0.79986 0.08511 0.3474 0.0
C4404 C 0.33851 0.90312 0.87707 0.0
C4405 C 0.34049 0.91027 0.90522 0.0
C4406 C 0.29487 0.89108 0.91347 0.0
C4407 C 0.2915 0.88706 0.88493 0.0
N4408 N 0.30934 0.89073 0.8389 0.0
N4409 N 0.31879 0.91538 0.94937 0.0
C4410 C 0.31322 0.89318 0.86652 0.0
C4411 C 0.31826 0.90524 0.92327 0.0
N4412 N 0.36096 0.90548 0.86048 0.0
N4413 N 0.27588 0.88076 0.93126 0.0
H4414 H 0.33508 0.92678 0.95712 0.0
H4415 H 0.30199 0.91485 0.96249 0.0
H4416 H 0.25878 0.86974 0.92473 0.0
H4417 H 0.2785 0.88063 0.95243 0.0
H4418 H 0.36179 0.89825 0.84046 0.0
H4419 H 0.37978 0.91283 0.86728 0.0
H4420 H 0.32298 0.8981 0.8243 0.0
H4421 H 0.29161 0.88281 0.83019 0.0
C4422 C 0.16608 0.46421 0.3936 0.0
C4423 C 0.13708 0.46656 0.39302 0.0
C4424 C 0.136 0.43907 0.35115 0.0
C4425 C 0.16357 0.4312 0.35573 0.0
N4426 N 0.20694 0.45002 0.36925 0.0
N4427 N 0.09405 0.45602 0.37119 0.0
C4428 C 0.17941 0.44777 0.3736 0.0
C4429 C 0.12191 0.45401 0.37172 0.0
N4430 N 0.1809 0.47757 0.41325 0.0
N4431 N 0.12503 0.43695 0.32561 0.0
H4432 H 0.08297 0.46694 0.38585 0.0
H4433 H 0.08203 0.44487 0.35751 0.0
H4434 H 0.13737 0.43289 0.30864 0.0
H4435 H 0.10554 0.44406 0.32067 0.0
H4436 H 0.20152 0.47373 0.41698 0.0
H4437 H 0.17237 0.49165 0.42683 0.0
H4438 H 0.21962 0.46336 0.37998 0.0
H4439 H 0.21639 0.44129 0.35218 0.0
C4440 C 0.72397 0.41826 0.619 0.0
C4441 C 0.72093 0.39547 0.63686 0.0
C4442 C 0.6718 0.39422 0.6271 0.0
C4443 C 0.67481 0.41637 0.60856 0.0
N4444 N 0.70438 0.44611 0.58271 0.0
N4445 N 0.69362 0.35724 0.65178 0.0
C4446 C 0.70115 0.42737 0.60323 0.0
C4447 C 0.6954 0.38192 0.63882 0.0
N4448 N 0.74863 0.43137 0.61738 0.0
N4449 N 0.64629 0.38605 0.635 0.0
H4450 H 0.71066 0.34742 0.65994 0.0
H4451 H 0.67598 0.34526 0.65178 0.0
H4452 H 0.62847 0.39476 0.62722 0.0
H4453 H 0.64297 0.37266 0.65125 0.0
H4454 H 0.75144 0.45004 0.60753 0.0
H4455 H 0.76624 0.42407 0.62697 0.0
H4456 H 0.72334 0.45302 0.5759 0.0
H4457 H 0.68807 0.45312 0.57084 0.0
C4458 C 0.63482 0.08775 0.63566 0.0
C4459 C 0.65024 0.08723 0.66023 0.0
C4460 C 0.64441 0.03753 0.66267 0.0
C4461 C 0.63382 0.03761 0.63558 0.0
N4462 N 0.62118 0.06304 0.595 0.0
N4463 N 0.67079 0.06171 0.69709 0.0
C4464 C 0.62913 0.0628 0.62184 0.0
C4465 C 0.65505 0.06217 0.67397 0.0
N4466 N 0.62555 0.11214 0.62562 0.0
N4467 N 0.64373 0.01399 0.67776 0.0
H4468 H 0.67852 0.07938 0.70622 0.0
H4469 H 0.67767 0.04372 0.7062 0.0
H4470 H 0.63535 0.99581 0.67031 0.0
H4471 H 0.64882 0.01318 0.69845 0.0
H4472 H 0.61179 0.11359 0.60939 0.0
H4473 H 0.62935 0.13078 0.63535 0.0
H4474 H 0.62036 0.08077 0.58321 0.0
H4475 H 0.6177 0.04535 0.58363 0.0
C4476 C 0.31588 0.08558 0.61733 0.0
C4477 C 0.33683 0.10442 0.6102 0.0
C4478 C 0.3106 0.14194 0.63104 0.0
C4479 C 0.29038 0.12281 0.63927 0.0
N4480 N 0.26913 0.07878 0.63255 0.0
N4481 N 0.35011 0.15165 0.60292 0.0
C4482 C 0.29163 0.09528 0.6301 0.0
C4483 C 0.33281 0.13299 0.61445 0.0
N4484 N 0.31932 0.05832 0.61205 0.0
N4485 N 0.30959 0.1683 0.64045 0.0
H4486 H 0.36779 0.14649 0.59238 0.0
H4487 H 0.34583 0.1725 0.60193 0.0
H4488 H 0.29416 0.17566 0.65313 0.0
H4489 H 0.32492 0.1827 0.63721 0.0
H4490 H 0.30679 0.04309 0.62013 0.0
H4491 H 0.33545 0.05076 0.60025 0.0
H4492 H 0.26779 0.05927 0.6241 0.0
H4493 H 0.25057 0.0856 0.64063 0.0
C4494 C 0.32986 0.44696 0.64155 0.0
C4495 C 0.34836 0.42569 0.64862 0.0
C4496 C 0.38616 0.45129 0.62736 0.0
C4497 C 0.36748 0.47217 0.61975 0.0
N4498 N 0.32386 0.49406 0.62715 0.0
N4499 N 0.39544 0.41158 0.65521 0.0
C4500 C 0.33996 0.47124 0.62905 0.0
C4501 C 0.37694 0.42921 0.64397 0.0
N4502 N 0.30253 0.44392 0.64673 0.0
N4503 N 0.41231 0.45153 0.61736 0.0
H4504 H 0.39007 0.39395 0.66571 0.0
H4505 H 0.41636 0.41559 0.65603 0.0
H4506 H 0.41989 0.46684 0.60468 0.0
H4507 H 0.42615 0.43557 0.61996 0.0
H4508 H 0.28756 0.45674 0.63866 0.0
H4509 H 0.29465 0.42783 0.65835 0.0
H4510 H 0.30446 0.49558 0.63583 0.0
H4511 H 0.33095 0.51265 0.61941 0.0
C4512 C 0.88443 0.70062 0.64111 0.0
C4513 C 0.87839 0.72176 0.62214 0.0
C4514 C 0.9056 0.6985 0.58689 0.0
C4515 C 0.91046 0.6766 0.60535 0.0
N4516 N 0.91205 0.6612 0.65241 0.0
N4517 N 0.89076 0.74544 0.58063 0.0
C4518 C 0.90251 0.67916 0.63328 0.0
C4519 C 0.89129 0.72211 0.59609 0.0
N4520 N 0.87159 0.70003 0.66599 0.0
N4521 N 0.91437 0.69648 0.56038 0.0
H4522 H 0.88151 0.7635 0.58729 0.0
H4523 H 0.90182 0.7479 0.56258 0.0
H4524 H 0.9271 0.68072 0.55361 0.0
H4525 H 0.90828 0.70981 0.54492 0.0
H4526 H 0.873 0.68379 0.67967 0.0
H4527 H 0.85797 0.71503 0.67247 0.0
H4528 H 0.91025 0.6645 0.6734 0.0
H4529 H 0.92395 0.64426 0.64771 0.0
C4530 C 0.89005 0.28627 0.91417 0.0
C4531 C 0.878 0.28663 0.88774 0.0
C4532 C 0.90217 0.32942 0.87748 0.0
C4533 C 0.9092 0.33192 0.90566 0.0
N4534 N 0.91198 0.31184 0.95062 0.0
N4535 N 0.87253 0.30832 0.84372 0.0
C4536 C 0.90397 0.3099 0.92387 0.0
C4537 C 0.88453 0.30782 0.86901 0.0
N4538 N 0.88897 0.26291 0.92957 0.0
N4539 N 0.91215 0.34755 0.85873 0.0
H4540 H 0.85939 0.29309 0.83672 0.0
H4541 H 0.87418 0.32463 0.83014 0.0
H4542 H 0.92374 0.36459 0.86385 0.0
H4543 H 0.91098 0.34437 0.83768 0.0
H4544 H 0.89939 0.26041 0.94798 0.0
H4545 H 0.87987 0.24489 0.9226 0.0
H4546 H 0.90556 0.2984 0.96586 0.0
H4547 H 0.9244 0.32766 0.95781 0.0
C4548 C 0.53788 0.87584 0.34607 0.0
C4549 C 0.53876 0.8879 0.37254 0.0
C4550 C 0.58191 0.8643 0.38184 0.0
C4551 C 0.58356 0.85616 0.35386 0.0
N4552 N 0.56231 0.85254 0.30954 0.0
N4553 N 0.56067 0.8917 0.41677 0.0
C4554 C 0.56109 0.86123 0.33613 0.0
C4555 C 0.56025 0.88127 0.3908 0.0
N4556 N 0.51437 0.87742 0.33094 0.0
N4557 N 0.60111 0.85703 0.40058 0.0
H4558 H 0.54585 0.90505 0.42425 0.0
H4559 H 0.5762 0.88727 0.43075 0.0
H4560 H 0.61764 0.84422 0.39656 0.0
H4561 H 0.61764 0.84422 0.39656 0.0
H4562 H 0.51137 0.86707 0.31256 0.0
H4563 H 0.49668 0.88705 0.33803 0.0
H4564 H 0.54862 0.85866 0.29443 0.0
H4565 H 0.57783 0.83975 0.30232 0.0
C4566 C 0.10345 0.22148 0.89387 0.0
C4567 C 0.12998 0.22152 0.88207 0.0
C4568 C 0.12964 0.17137 0.88129 0.0
C4569 C 0.10585 0.17162 0.89787 0.0
N4570 N 0.06972 0.19657 0.92041 0.0
N4571 N 0.16929 0.19655 0.86539 0.0
C4572 C 0.09238 0.19657 0.90399 0.0
C4573 C 0.14318 0.19647 0.87546 0.0
N4574 N 0.0887 0.24523 0.8949 0.0
N4575 N 0.13921 0.14711 0.87116 0.0
H4576 H 0.18013 0.21444 0.86129 0.0
H4577 H 0.18101 0.17892 0.86299 0.0
H4578 H 0.12963 0.12845 0.87519 0.0
H4579 H 0.15483 0.14579 0.8567 0.0
H4580 H 0.06829 0.24614 0.90096 0.0
H4581 H 0.09608 0.26367 0.88704 0.0
H4582 H 0.06094 0.21431 0.92832 0.0
H4583 H 0.06053 0.17865 0.92749 0.0
C4584 C 0.94304 0.16639 0.85603 0.0
C4585 C 0.92159 0.14784 0.84954 0.0
C4586 C 0.95136 0.10935 0.86198 0.0
C4587 C 0.97154 0.12812 0.87119 0.0
N4588 N 0.98396 0.17444 0.88275 0.0
N4589 N 0.90363 0.10172 0.85166 0.0
C4590 C 0.96648 0.15664 0.8701 0.0
C4591 C 0.9252 0.11933 0.85418 0.0
N4592 N 0.94199 0.19291 0.84721 0.0
N4593 N 0.95758 0.08224 0.85891 0.0
H4594 H 0.88402 0.10796 0.84613 0.0
H4595 H 0.90453 0.08132 0.85778 0.0
H4596 H 0.97676 0.07404 0.86328 0.0
H4597 H 0.94454 0.06829 0.84941 0.0
H4598 H 0.95832 0.20647 0.8492 0.0
H4599 H 0.92615 0.20054 0.83513 0.0
H4600 H 0.97984 0.19527 0.88479 0.0
H4601 H 1.00112 0.16794 0.89367 0.0
C4602 C 0.64051 0.33503 0.10982 0.0
C4603 C 0.61313 0.33607 0.09993 0.0
C4604 C 0.60617 0.28809 0.113 0.0
C4605 C 0.63389 0.28662 0.12139 0.0
N4606 N 0.67625 0.30923 0.13278 0.0
N4607 N 0.57121 0.31281 0.08802 0.0
C4608 C 0.6507 0.3103 0.12136 0.0
C4609 C 0.59617 0.31247 0.10072 0.0
N4610 N 0.65715 0.35737 0.10697 0.0
N4611 N 0.58916 0.26636 0.11779 0.0
H4612 H 0.56337 0.33 0.07813 0.0
H4613 H 0.55919 0.29548 0.08508 0.0
H4614 H 0.59577 0.24839 0.12723 0.0
H4615 H 0.56807 0.26698 0.11494 0.0
H4616 H 0.67818 0.35713 0.1102 0.0
H4617 H 0.65025 0.37631 0.1001 0.0
H4618 H 0.68844 0.32627 0.13649 0.0
H4619 H 0.68493 0.29132 0.1403 0.0
C4620 C 0.53781 0.13737 0.17152 0.0
C4621 C 0.53822 0.12497 0.14517 0.0
C4622 C 0.58223 0.14692 0.13552 0.0
C4623 C 0.58397 0.15578 0.16327 0.0
N4624 N 0.56281 0.16092 0.2075 0.0
N4625 N 0.5599 0.12012 0.10085 0.0
C4626 C 0.56138 0.15165 0.18111 0.0
C4627 C 0.5599 0.13072 0.12677 0.0
N4628 N 0.5144 0.13647 0.18684 0.0
N4629 N 0.60203 0.15263 0.11683 0.0
H4630 H 0.54454 0.10745 0.09334 0.0
H4631 H 0.57556 0.1239 0.0868 0.0
H4632 H 0.61927 0.1645 0.12073 0.0
H4633 H 0.61927 0.1645 0.12073 0.0
H4634 H 0.51164 0.14717 0.20506 0.0
H4635 H 0.49655 0.12697 0.18008 0.0
H4636 H 0.549 0.15546 0.22278 0.0
H4637 H 0.57858 0.17355 0.21442 0.0
C4638 C 0.45247 0.37409 0.11892 0.0
C4639 C 0.47276 0.38198 0.13807 0.0
C4640 C 0.44835 0.35723 0.17447 0.0
C4641 C 0.42691 0.35117 0.15578 0.0
N4642 N 0.41257 0.34868 0.10801 0.0
N4643 N 0.49483 0.3734 0.18137 0.0
C4644 C 0.43037 0.35746 0.1275 0.0
C4645 C 0.47214 0.37124 0.1651 0.0
N4646 N 0.4536 0.38295 0.09239 0.0
N4647 N 0.4456 0.35002 0.20138 0.0
H4648 H 0.51304 0.38235 0.1747 0.0
H4649 H 0.49674 0.36399 0.20038 0.0
H4650 H 0.42973 0.33754 0.20836 0.0
H4651 H 0.4584 0.35706 0.21689 0.0
H4652 H 0.43909 0.37736 0.07774 0.0
H4653 H 0.46861 0.39615 0.08504 0.0
H4654 H 0.3959 0.33594 0.1117 0.0
H4655 H 0.3959 0.33594 0.1117 0.0
loop_
_geom_bond_atom_site_label_1
_geom_bond_atom_site_label_2
_geom_bond_distance
_geom_bond_site_symmetry_2
_ccdc_geom_bond_type
Zn0 N4 2.020 . S
Zn0 O8 2.019 . S
Zn0 N10 2.119 . S
Zn0 O18 1.975 . S
C1 N2 1.334 . S
C1 N5 1.336 . S
N2 C1 1.334 . S
N2 C3 1.334 . S
C3 N2 1.334 . S
C3 N4 1.336 . S
N4 Zn0 2.020 . S
N4 C3 1.336 . S
N4 N5 1.354 . S
N5 C1 1.336 . S
N5 N4 1.354 . S
N5 Zn9 2.020 . S
C6 O7 1.244 . S
C6 O30 1.257 . S
O7 C6 1.244 . S
O8 Zn0 2.019 . S
O8 C28 1.257 . S
Zn9 N5 2.020 . S
Zn9 O16 1.975 . S
Zn9 N25 2.119 . S
Zn9 O30 2.019 . S
N10 Zn0 2.119 . S
N10 C12 1.334 . S
N10 C13 1.328 . S
C11 C12 1.391 . S
C11 N14 1.329 . S
C11 H32 0.930 . S
C12 N10 1.334 . S
C12 C11 1.391 . S
C12 H19 0.930 . S
C13 N10 1.328 . S
C13 C15 1.392 . S
C13 H20 0.930 . S
N14 C11 1.329 . S
N14 C15 1.331 . S
C15 C13 1.392 . S
C15 N14 1.331 . S
O16 Zn9 1.975 . S
O16 C17 1.252 . S
C17 O16 1.252 . S
C17 O18 1.252 . S
O18 Zn0 1.975 . S
O18 C17 1.252 . S
H19 C12 0.930 . S
H20 C13 0.930 . S
C21 C22 1.392 . S
C21 N25 1.328 . S
C21 H27 0.930 . S
C22 C21 1.392 . S
C22 N26 1.331 . S
C23 C24 1.391 . S
C23 N26 1.329 . S
C23 H33 0.930 . S
C24 C23 1.391 . S
C24 N25 1.334 . S
C24 H31 0.930 . S
N25 Zn9 2.119 . S
N25 C21 1.328 . S
N25 C24 1.334 . S
N26 C22 1.331 . S
N26 C23 1.329 . S
H27 C21 0.930 . S
C28 O8 1.257 . S
C28 O29 1.244 . S
O29 C28 1.244 . S
O30 C6 1.257 . S
O30 Zn9 2.019 . S
H31 C24 0.930 . S
H32 C11 0.930 . S
H33 C23 0.930 . S
Zn34 N38 2.020 . S
Zn34 O42 2.019 . S
Zn34 N44 2.119 . S
Zn34 O52 1.975 . S
C35 N36 1.334 . S
C35 N39 1.336 . S
N36 C35 1.334 . S
N36 C37 1.334 . S
C37 N36 1.334 . S
C37 N38 1.336 . S
N38 Zn34 2.020 . S
N38 C37 1.336 . S
N38 N39 1.354 . S
N39 C35 1.336 . S
N39 N38 1.354 . S
N39 Zn43 2.020 . S
C40 O41 1.244 . S
C40 O64 1.257 . S
O41 C40 1.244 . S
O42 Zn34 2.019 . S
O42 C62 1.225 1_556 S
Zn43 N39 2.020 . S
Zn43 O50 1.975 . S
Zn43 N59 2.119 . S
Zn43 O64 2.019 . S
N44 Zn34 2.119 . S
N44 C46 1.334 . S
N44 C47 1.328 . S
C45 C46 1.391 . S
C45 N48 1.329 . S
C45 H66 0.930 . S
C46 N44 1.334 . S
C46 C45 1.391 . S
C46 H53 0.930 . S
C47 N44 1.328 . S
C47 C49 1.392 . S
C47 H54 0.930 . S
N48 C45 1.329 . S
N48 C49 1.331 . S
C49 C47 1.392 . S
C49 N48 1.331 . S
O50 Zn43 1.975 . S
O50 C51 1.252 . S
C51 O50 1.252 . S
C51 O52 1.252 . S
O52 Zn34 1.975 . S
O52 C51 1.252 . S
H53 C46 0.930 . S
H54 C47 0.930 . S
C55 C56 1.392 . S
C55 N59 1.328 . S
C55 H61 0.930 . S
C56 C55 1.392 . S
C56 N60 1.331 . S
C57 C58 1.391 . S
C57 N60 1.329 . S
C57 H67 0.930 1_556 S
C58 C57 1.391 . S
C58 N59 1.334 . S
C58 H65 0.930 . S
N59 Zn43 2.119 . S
N59 C55 1.328 . S
N59 C58 1.334 . S
N60 C56 1.331 . S
N60 C57 1.329 . S
H61 C55 0.930 . S
C62 O42 1.225 1_554 S
C62 O63 1.249 . S
O63 C62 1.249 . S
O64 C40 1.257 . S
O64 Zn43 2.019 . S
H65 C58 0.930 . S
H66 C45 0.930 . S
H67 C57 0.930 1_554 S
Zn68 N72 2.020 . S
Zn68 O76 2.019 . S
Zn68 N78 2.119 . S
Zn68 O86 1.975 . S
C69 N70 1.334 . S
C69 N73 1.336 . S
N70 C69 1.334 . S
N70 C71 1.334 . S
C71 N70 1.334 . S
C71 N72 1.336 . S
N72 Zn68 2.020 . S
N72 C71 1.336 . S
N72 N73 1.354 . S
N73 C69 1.336 . S
N73 N72 1.354 . S
N73 Zn77 2.020 . S
C74 O75 1.244 . S
C74 O98 1.257 . S
O75 C74 1.244 . S
O76 Zn68 2.019 . S
O76 C96 1.257 . S
Zn77 N73 2.020 . S
Zn77 O84 1.975 . S
Zn77 N93 2.119 . S
Zn77 O98 2.019 . S
N78 Zn68 2.119 . S
N78 C80 1.334 . S
N78 C81 1.328 . S
C79 C80 1.391 . S
C79 N82 1.329 . S
C79 H100 0.930 . S
C80 N78 1.334 . S
C80 C79 1.391 . S
C80 H87 0.930 . S
C81 N78 1.328 . S
C81 C83 1.392 . S
C81 H88 0.930 . S
N82 C79 1.329 . S
N82 C83 1.331 . S
C83 C81 1.392 . S
C83 N82 1.331 . S
O84 Zn77 1.975 . S
O84 C85 1.252 . S
C85 O84 1.252 . S
C85 O86 1.252 . S
O86 Zn68 1.975 . S
O86 C85 1.252 . S
H87 C80 0.930 . S
H88 C81 0.930 . S
C89 C90 1.392 . S
C89 N93 1.328 . S
C89 H95 0.930 . S
C90 C89 1.392 . S
C90 N94 1.331 . S
C91 C92 1.391 . S
C91 N94 1.329 . S
C91 H101 0.930 . S
C92 C91 1.391 . S
C92 N93 1.334 . S
C92 H99 0.930 . S
N93 Zn77 2.119 . S
N93 C89 1.328 . S
N93 C92 1.334 . S
N94 C90 1.331 . S
N94 C91 1.329 . S
H95 C89 0.930 . S
C96 O76 1.257 . S
C96 O97 1.244 . S
O97 C96 1.244 . S
O98 C74 1.257 . S
O98 Zn77 2.019 . S
H99 C92 0.930 . S
H100 C79 0.930 . S
H101 C91 0.930 . S
Zn102 N106 2.020 . S
Zn102 O110 2.019 . S
Zn102 N112 2.119 . S
Zn102 O120 1.975 . S
C103 N104 1.334 . S
C103 N107 1.336 . S
N104 C103 1.334 . S
N104 C105 1.334 . S
C105 N104 1.334 . S
C105 N106 1.336 . S
N106 Zn102 2.020 . S
N106 C105 1.336 . S
N106 N107 1.354 . S
N107 C103 1.336 . S
N107 N106 1.354 . S
N107 Zn111 2.020 . S
C108 O109 1.249 . S
C108 O132 1.225 1_554 S
O109 C108 1.249 . S
O110 Zn102 2.019 . S
O110 C130 1.257 . S
Zn111 N107 2.020 . S
Zn111 O118 1.975 . S
Zn111 N127 2.119 . S
Zn111 O132 2.019 . S
N112 Zn102 2.119 . S
N112 C114 1.334 . S
N112 C115 1.328 . S
C113 C114 1.391 . S
C113 N116 1.329 . S
C113 H134 0.930 1_556 S
C114 N112 1.334 . S
C114 C113 1.391 . S
C114 H121 0.930 . S
C115 N112 1.328 . S
C115 C117 1.392 . S
C115 H122 0.930 . S
N116 C113 1.329 . S
N116 C117 1.331 . S
C117 C115 1.392 . S
C117 N116 1.331 . S
O118 Zn111 1.975 . S
O118 C119 1.252 . S
C119 O118 1.252 . S
C119 O120 1.252 . S
O120 Zn102 1.975 . S
O120 C119 1.252 . S
H121 C114 0.930 . S
H122 C115 0.930 . S
C123 C124 1.392 . S
C123 N127 1.328 . S
C123 H129 0.930 . S
C124 C123 1.392 . S
C124 N128 1.331 . S
C125 C126 1.391 . S
C125 N128 1.329 . S
C125 H135 0.930 . S
C126 C125 1.391 . S
C126 N127 1.334 . S
C126 H133 0.930 . S
N127 Zn111 2.119 . S
N127 C123 1.328 . S
N127 C126 1.334 . S
N128 C124 1.331 . S
N128 C125 1.329 . S
H129 C123 0.930 . S
C130 O110 1.257 . S
C130 O131 1.244 . S
O131 C130 1.244 . S
O132 C108 1.225 1_556 S
O132 Zn111 2.019 . S
H133 C126 0.930 . S
H134 C113 0.930 1_554 S
H135 C125 0.930 . S
Zn136 N140 2.020 . S
Zn136 O144 2.019 . S
Zn136 N146 2.119 . S
Zn136 O154 1.975 . S
C137 N138 1.334 . S
C137 N141 1.336 . S
N138 C137 1.334 . S
N138 C139 1.334 . S
C139 N138 1.334 . S
C139 N140 1.336 . S
N140 Zn136 2.020 . S
N140 C139 1.336 . S
N140 N141 1.354 . S
N141 C137 1.336 . S
N141 N140 1.354 . S
N141 Zn145 2.020 . S
C142 O143 1.244 . S
C142 O166 1.257 . S
O143 C142 1.244 . S
O144 Zn136 2.019 . S
O144 C164 1.257 . S
Zn145 N141 2.020 . S
Zn145 O152 1.975 . S
Zn145 N161 2.119 . S
Zn145 O166 2.019 . S
N146 Zn136 2.119 . S
N146 C148 1.334 . S
N146 C149 1.328 . S
C147 C148 1.391 . S
C147 N150 1.329 . S
C147 H168 0.930 . S
C148 N146 1.334 . S
C148 C147 1.391 . S
C148 H155 0.930 . S
C149 N146 1.328 . S
C149 C151 1.392 . S
C149 H156 0.930 . S
N150 C147 1.329 . S
N150 C151 1.331 . S
C151 C149 1.392 . S
C151 N150 1.331 . S
O152 Zn145 1.975 . S
O152 C153 1.252 . S
C153 O152 1.252 . S
C153 O154 1.252 . S
O154 Zn136 1.975 . S
O154 C153 1.252 . S
H155 C148 0.930 . S
H156 C149 0.930 . S
C157 C158 1.392 . S
C157 N161 1.328 . S
C157 H163 0.930 . S
C158 C157 1.392 . S
C158 N162 1.331 . S
C159 C160 1.391 . S
C159 N162 1.329 . S
C159 H169 0.930 . S
C160 C159 1.391 . S
C160 N161 1.334 . S
C160 H167 0.930 . S
N161 Zn145 2.119 . S
N161 C157 1.328 . S
N161 C160 1.334 . S
N162 C158 1.331 . S
N162 C159 1.329 . S
H163 C157 0.930 . S
C164 O144 1.257 . S
C164 O165 1.244 . S
O165 C164 1.244 . S
O166 C142 1.257 . S
O166 Zn145 2.019 . S
H167 C160 0.930 . S
H168 C147 0.930 . S
H169 C159 0.930 . S
Zn170 N174 2.020 . S
Zn170 O178 2.019 . S
Zn170 N180 2.119 . S
Zn170 O188 1.975 . S
C171 N172 1.334 . S
C171 N175 1.336 . S
N172 C171 1.334 . S
N172 C173 1.334 . S
C173 N172 1.334 . S
C173 N174 1.336 . S
N174 Zn170 2.020 . S
N174 C173 1.336 . S
N174 N175 1.354 . S
N175 C171 1.336 . S
N175 N174 1.354 . S
N175 Zn179 2.020 . S
C176 O177 1.249 . S
C176 O200 1.225 1_556 S
O177 C176 1.249 . S
O178 Zn170 2.019 . S
O178 C198 1.257 . S
Zn179 N175 2.020 . S
Zn179 O186 1.975 . S
Zn179 N195 2.119 . S
Zn179 O200 2.019 . S
N180 Zn170 2.119 . S
N180 C182 1.334 . S
N180 C183 1.328 1_655 S
C181 C182 1.391 . S
C181 N184 1.329 1_655 S
C181 H202 0.930 1_554 S
C182 N180 1.334 . S
C182 C181 1.391 . S
C182 H189 0.930 . S
C183 N180 1.328 1_455 S
C183 C185 1.392 . S
C183 H190 0.930 . S
N184 C181 1.329 1_455 S
N184 C185 1.331 . S
C185 C183 1.392 . S
C185 N184 1.331 . S
O186 Zn179 1.975 . S
O186 C187 1.252 . S
C187 O186 1.252 . S
C187 O188 1.252 . S
O188 Zn170 1.975 . S
O188 C187 1.252 . S
H189 C182 0.930 . S
H190 C183 0.930 . S
C191 C192 1.392 . S
C191 N195 1.328 . S
C191 H197 0.930 . S
C192 C191 1.392 . S
C192 N196 1.331 . S
C193 C194 1.391 . S
C193 N196 1.329 . S
C193 H203 0.930 . S
C194 C193 1.391 . S
C194 N195 1.334 . S
C194 H201 0.930 . S
N195 Zn179 2.119 . S
N195 C191 1.328 . S
N195 C194 1.334 . S
N196 C192 1.331 . S
N196 C193 1.329 . S
H197 C191 0.930 . S
C198 O178 1.257 . S
C198 O199 1.244 . S
O199 C198 1.244 . S
O200 C176 1.225 1_554 S
O200 Zn179 2.019 . S
H201 C194 0.930 . S
H202 C181 0.930 1_556 S
H203 C193 0.930 . S
Zn204 N208 2.020 . S
Zn204 O212 2.019 . S
Zn204 N214 2.119 . S
Zn204 O222 1.975 . S
C205 N206 1.334 . S
C205 N209 1.336 . S
N206 C205 1.334 . S
N206 C207 1.334 . S
C207 N206 1.334 . S
C207 N208 1.336 . S
N208 Zn204 2.020 . S
N208 C207 1.336 . S
N208 N209 1.354 . S
N209 C205 1.336 . S
N209 N208 1.354 . S
N209 Zn213 2.020 . S
C210 O211 1.244 . S
C210 O234 1.257 . S
O211 C210 1.244 . S
O212 Zn204 2.019 . S
O212 C232 1.257 . S
Zn213 N209 2.020 . S
Zn213 O220 1.975 . S
Zn213 N229 2.119 . S
Zn213 O234 2.019 . S
N214 Zn204 2.119 . S
N214 C216 1.334 . S
N214 C217 1.328 . S
C215 C216 1.391 . S
C215 N218 1.329 . S
C215 H236 0.930 . S
C216 N214 1.334 . S
C216 C215 1.391 . S
C216 H223 0.930 . S
C217 N214 1.328 . S
C217 C219 1.392 . S
C217 H224 0.930 . S
N218 C215 1.329 . S
N218 C219 1.331 . S
C219 C217 1.392 . S
C219 N218 1.331 . S
O220 Zn213 1.975 . S
O220 C221 1.252 . S
C221 O220 1.252 . S
C221 O222 1.252 . S
O222 Zn204 1.975 . S
O222 C221 1.252 . S
H223 C216 0.930 . S
H224 C217 0.930 . S
C225 C226 1.392 . S
C225 N229 1.328 . S
C225 H231 0.930 . S
C226 C225 1.392 . S
C226 N230 1.331 . S
C227 C228 1.391 . S
C227 N230 1.329 . S
C227 H237 0.930 . S
C228 C227 1.391 . S
C228 N229 1.334 . S
C228 H235 0.930 . S
N229 Zn213 2.119 . S
N229 C225 1.328 . S
N229 C228 1.334 . S
N230 C226 1.331 . S
N230 C227 1.329 . S
H231 C225 0.930 . S
C232 O212 1.257 . S
C232 O233 1.244 . S
O233 C232 1.244 . S
O234 C210 1.257 . S
O234 Zn213 2.019 . S
H235 C228 0.930 . S
H236 C215 0.930 . S
H237 C227 0.930 . S
Zn238 N242 2.020 . S
Zn238 O246 2.019 . S
Zn238 N248 2.119 . S
Zn238 O256 1.975 . S
C239 N240 1.334 . S
C239 N243 1.336 . S
N240 C239 1.334 . S
N240 C241 1.334 . S
C241 N240 1.334 . S
C241 N242 1.336 . S
N242 Zn238 2.020 . S
N242 C241 1.336 . S
N242 N243 1.354 . S
N243 C239 1.336 . S
N243 N242 1.354 . S
N243 Zn247 2.020 . S
C244 O245 1.249 . S
C244 O268 1.225 1_556 S
O245 C244 1.249 . S
O246 Zn238 2.019 . S
O246 C266 1.257 . S
Zn247 N243 2.020 . S
Zn247 O254 1.975 . S
Zn247 N263 2.119 . S
Zn247 O268 2.019 . S
N248 Zn238 2.119 . S
N248 C250 1.334 . S
N248 C251 1.328 1_455 S
C249 C250 1.391 . S
C249 N252 1.329 1_455 S
C249 H270 0.930 1_554 S
C250 N248 1.334 . S
C250 C249 1.391 . S
C250 H257 0.930 . S
C251 N248 1.328 1_655 S
C251 C253 1.392 . S
C251 H258 0.930 . S
N252 C249 1.329 1_655 S
N252 C253 1.331 . S
C253 C251 1.392 . S
C253 N252 1.331 . S
O254 Zn247 1.975 . S
O254 C255 1.252 . S
C255 O254 1.252 . S
C255 O256 1.252 . S
O256 Zn238 1.975 . S
O256 C255 1.252 . S
H257 C250 0.930 . S
H258 C251 0.930 . S
C259 C260 1.392 . S
C259 N263 1.328 . S
C259 H265 0.930 . S
C260 C259 1.392 . S
C260 N264 1.331 . S
C261 C262 1.391 . S
C261 N264 1.329 . S
C261 H271 0.930 . S
C262 C261 1.391 . S
C262 N263 1.334 . S
C262 H269 0.930 . S
N263 Zn247 2.119 . S
N263 C259 1.328 . S
N263 C262 1.334 . S
N264 C260 1.331 . S
N264 C261 1.329 . S
H265 C259 0.930 . S
C266 O246 1.257 . S
C266 O267 1.244 . S
O267 C266 1.244 . S
O268 C244 1.225 1_554 S
O268 Zn247 2.019 . S
H269 C262 0.930 . S
H270 C249 0.930 1_556 S
H271 C261 0.930 . S
Zn272 N276 2.020 . S
Zn272 O280 2.019 . S
Zn272 N282 2.119 . S
Zn272 O290 1.975 . S
C273 N274 1.334 . S
C273 N277 1.336 . S
N274 C273 1.334 . S
N274 C275 1.334 . S
C275 N274 1.334 . S
C275 N276 1.336 . S
N276 Zn272 2.020 . S
N276 C275 1.336 . S
N276 N277 1.354 . S
N277 C273 1.336 . S
N277 N276 1.354 . S
N277 Zn281 2.020 . S
C278 O279 1.244 . S
C278 O302 1.257 . S
O279 C278 1.244 . S
O280 Zn272 2.019 . S
O280 C300 1.257 . S
Zn281 N277 2.020 . S
Zn281 O288 1.975 . S
Zn281 N297 2.119 . S
Zn281 O302 2.019 . S
N282 Zn272 2.119 . S
N282 C284 1.334 . S
N282 C285 1.328 . S
C283 C284 1.391 . S
C283 N286 1.329 . S
C283 H304 0.930 . S
C284 N282 1.334 . S
C284 C283 1.391 . S
C284 H291 0.930 . S
C285 N282 1.328 . S
C285 C287 1.392 . S
C285 H292 0.930 . S
N286 C283 1.329 . S
N286 C287 1.331 . S
C287 C285 1.392 . S
C287 N286 1.331 . S
O288 Zn281 1.975 . S
O288 C289 1.252 . S
C289 O288 1.252 . S
C289 O290 1.252 . S
O290 Zn272 1.975 . S
O290 C289 1.252 . S
H291 C284 0.930 . S
H292 C285 0.930 . S
C293 C294 1.392 . S
C293 N297 1.328 . S
C293 H299 0.930 . S
C294 C293 1.392 . S
C294 N298 1.331 . S
C295 C296 1.391 . S
C295 N298 1.329 . S
C295 H305 0.930 . S
C296 C295 1.391 . S
C296 N297 1.334 . S
C296 H303 0.930 . S
N297 Zn281 2.119 . S
N297 C293 1.328 . S
N297 C296 1.334 . S
N298 C294 1.331 . S
N298 C295 1.329 . S
H299 C293 0.930 . S
C300 O280 1.257 . S
C300 O301 1.244 . S
O301 C300 1.244 . S
O302 C278 1.257 . S
O302 Zn281 2.019 . S
H303 C296 0.930 . S
H304 C283 0.930 . S
H305 C295 0.930 . S
Zn306 N310 2.020 . S
Zn306 O314 2.019 . S
Zn306 N316 2.119 . S
Zn306 O324 1.975 . S
C307 N308 1.334 . S
C307 N311 1.336 . S
N308 C307 1.334 . S
N308 C309 1.334 . S
C309 N308 1.334 . S
C309 N310 1.336 . S
N310 Zn306 2.020 . S
N310 C309 1.336 . S
N310 N311 1.354 . S
N311 C307 1.336 . S
N311 N310 1.354 . S
N311 Zn315 2.020 . S
C312 O313 1.244 . S
C312 O336 1.257 . S
O313 C312 1.244 . S
O314 Zn306 2.019 . S
O314 C334 1.257 . S
Zn315 N311 2.020 . S
Zn315 O322 1.975 . S
Zn315 N331 2.119 . S
Zn315 O336 2.019 . S
N316 Zn306 2.119 . S
N316 C318 1.334 . S
N316 C319 1.328 1_556 S
C317 C318 1.391 . S
C317 N320 1.329 1_556 S
C317 H338 0.930 . S
C318 N316 1.334 . S
C318 C317 1.391 . S
C318 H325 0.930 . S
C319 N316 1.328 1_554 S
C319 C321 1.392 . S
C319 H326 0.930 . S
N320 C317 1.329 1_554 S
N320 C321 1.331 . S
C321 C319 1.392 . S
C321 N320 1.331 . S
O322 Zn315 1.975 . S
O322 C323 1.252 . S
C323 O322 1.252 . S
C323 O324 1.252 . S
O324 Zn306 1.975 . S
O324 C323 1.252 . S
H325 C318 0.930 . S
H326 C319 0.930 . S
C327 C328 1.392 . S
C327 N331 1.328 . S
C327 H333 0.930 . S
C328 C327 1.392 . S
C328 N332 1.331 . S
C329 C330 1.391 . S
C329 N332 1.329 . S
C329 H339 0.930 . S
C330 C329 1.391 . S
C330 N331 1.334 . S
C330 H337 0.930 . S
N331 Zn315 2.119 . S
N331 C327 1.328 . S
N331 C330 1.334 . S
N332 C328 1.331 . S
N332 C329 1.329 . S
H333 C327 0.930 . S
C334 O314 1.257 . S
C334 O335 1.244 . S
O335 C334 1.244 . S
O336 C312 1.257 . S
O336 Zn315 2.019 . S
H337 C330 0.930 . S
H338 C317 0.930 . S
H339 C329 0.930 . S
Zn340 N344 2.020 . S
Zn340 O348 2.019 . S
Zn340 N350 2.119 . S
Zn340 O358 1.975 . S
C341 N342 1.334 . S
C341 N345 1.336 . S
N342 C341 1.334 . S
N342 C343 1.334 . S
C343 N342 1.334 . S
C343 N344 1.336 . S
N344 Zn340 2.020 . S
N344 C343 1.336 . S
N344 N345 1.354 . S
N345 C341 1.336 . S
N345 N344 1.354 . S
N345 Zn349 2.020 . S
C346 O347 1.244 . S
C346 O370 1.257 . S
O347 C346 1.244 . S
O348 Zn340 2.019 . S
O348 C368 1.257 . S
Zn349 N345 2.020 . S
Zn349 O356 1.975 . S
Zn349 N365 2.119 . S
Zn349 O370 2.019 . S
N350 Zn340 2.119 . S
N350 C352 1.334 . S
N350 C353 1.328 . S
C351 C352 1.391 . S
C351 N354 1.329 . S
C351 H372 0.930 . S
C352 N350 1.334 . S
C352 C351 1.391 . S
C352 H359 0.930 . S
C353 N350 1.328 . S
C353 C355 1.392 . S
C353 H360 0.930 . S
N354 C351 1.329 . S
N354 C355 1.331 . S
C355 C353 1.392 . S
C355 N354 1.331 . S
O356 Zn349 1.975 . S
O356 C357 1.252 . S
C357 O356 1.252 . S
C357 O358 1.252 . S
O358 Zn340 1.975 . S
O358 C357 1.252 . S
H359 C352 0.930 . S
H360 C353 0.930 . S
C361 C362 1.392 . S
C361 N365 1.328 . S
C361 H367 0.930 . S
C362 C361 1.392 . S
C362 N366 1.331 . S
C363 C364 1.391 . S
C363 N366 1.329 . S
C363 H373 0.930 . S
C364 C363 1.391 . S
C364 N365 1.334 . S
C364 H371 0.930 . S
N365 Zn349 2.119 . S
N365 C361 1.328 . S
N365 C364 1.334 . S
N366 C362 1.331 . S
N366 C363 1.329 . S
H367 C361 0.930 . S
C368 O348 1.257 . S
C368 O369 1.244 . S
O369 C368 1.244 . S
O370 C346 1.257 . S
O370 Zn349 2.019 . S
H371 C364 0.930 . S
H372 C351 0.930 . S
H373 C363 0.930 . S
Zn374 N378 2.020 . S
Zn374 O382 2.019 . S
Zn374 N384 2.119 . S
Zn374 O392 1.975 . S
C375 N376 1.334 . S
C375 N379 1.336 . S
N376 C375 1.334 . S
N376 C377 1.334 . S
C377 N376 1.334 . S
C377 N378 1.336 . S
N378 Zn374 2.020 . S
N378 C377 1.336 . S
N378 N379 1.354 . S
N379 C375 1.336 . S
N379 N378 1.354 . S
N379 Zn383 2.020 . S
C380 O381 1.249 . S
C380 O404 1.225 1_565 S
O381 C380 1.249 . S
O382 Zn374 2.019 . S
O382 C402 1.257 . S
Zn383 N379 2.020 . S
Zn383 O390 1.975 . S
Zn383 N399 2.119 . S
Zn383 O404 2.019 . S
N384 Zn374 2.119 . S
N384 C386 1.334 . S
N384 C387 1.328 1_556 S
C385 C386 1.391 . S
C385 N388 1.329 1_556 S
C385 H406 0.930 1_545 S
C386 N384 1.334 . S
C386 C385 1.391 . S
C386 H393 0.930 . S
C387 N384 1.328 1_554 S
C387 C389 1.392 . S
C387 H394 0.930 . S
N388 C385 1.329 1_554 S
N388 C389 1.331 . S
C389 C387 1.392 . S
C389 N388 1.331 . S
O390 Zn383 1.975 . S
O390 C391 1.252 . S
C391 O390 1.252 . S
C391 O392 1.252 . S
O392 Zn374 1.975 . S
O392 C391 1.252 . S
H393 C386 0.930 . S
H394 C387 0.930 . S
C395 C396 1.392 . S
C395 N399 1.328 . S
C395 H401 0.930 . S
C396 C395 1.392 . S
C396 N400 1.331 . S
C397 C398 1.391 . S
C397 N400 1.329 . S
C397 H407 0.930 . S
C398 C397 1.391 . S
C398 N399 1.334 . S
C398 H405 0.930 . S
N399 Zn383 2.119 . S
N399 C395 1.328 . S
N399 C398 1.334 . S
N400 C396 1.331 . S
N400 C397 1.329 . S
H401 C395 0.930 . S
C402 O382 1.257 . S
C402 O403 1.244 . S
O403 C402 1.244 . S
O404 C380 1.225 1_545 S
O404 Zn383 2.019 . S
H405 C398 0.930 . S
H406 C385 0.930 1_565 S
H407 C397 0.930 . S
Zn408 N412 2.020 . S
Zn408 O416 2.019 . S
Zn408 N418 2.119 . S
Zn408 O426 1.975 . S
C409 N410 1.334 . S
C409 N413 1.336 . S
N410 C409 1.334 . S
N410 C411 1.334 . S
C411 N410 1.334 . S
C411 N412 1.336 . S
N412 Zn408 2.020 . S
N412 C411 1.336 . S
N412 N413 1.354 . S
N413 C409 1.336 . S
N413 N412 1.354 . S
N413 Zn417 2.020 . S
C414 O415 1.244 . S
C414 O438 1.257 . S
O415 C414 1.244 . S
O416 Zn408 2.019 . S
O416 C436 1.257 . S
Zn417 N413 2.020 . S
Zn417 O424 1.975 . S
Zn417 N433 2.119 . S
Zn417 O438 2.019 . S
N418 Zn408 2.119 . S
N418 C420 1.334 . S
N418 C421 1.328 . S
C419 C420 1.391 . S
C419 N422 1.329 . S
C419 H440 0.930 . S
C420 N418 1.334 . S
C420 C419 1.391 . S
C420 H427 0.930 . S
C421 N418 1.328 . S
C421 C423 1.392 . S
C421 H428 0.930 . S
N422 C419 1.329 . S
N422 C423 1.331 . S
C423 C421 1.392 . S
C423 N422 1.331 . S
O424 Zn417 1.975 . S
O424 C425 1.252 . S
C425 O424 1.252 . S
C425 O426 1.252 . S
O426 Zn408 1.975 . S
O426 C425 1.252 . S
H427 C420 0.930 . S
H428 C421 0.930 . S
C429 C430 1.392 . S
C429 N433 1.328 . S
C429 H435 0.930 . S
C430 C429 1.392 . S
C430 N434 1.331 . S
C431 C432 1.391 . S
C431 N434 1.329 . S
C431 H441 0.930 . S
C432 C431 1.391 . S
C432 N433 1.334 . S
C432 H439 0.930 . S
N433 Zn417 2.119 . S
N433 C429 1.328 . S
N433 C432 1.334 . S
N434 C430 1.331 . S
N434 C431 1.329 . S
H435 C429 0.930 . S
C436 O416 1.257 . S
C436 O437 1.244 . S
O437 C436 1.244 . S
O438 C414 1.257 . S
O438 Zn417 2.019 . S
H439 C432 0.930 . S
H440 C419 0.930 . S
H441 C431 0.930 . S
Zn442 N446 2.020 . S
Zn442 O450 2.019 . S
Zn442 N452 2.119 . S
Zn442 O460 1.975 . S
C443 N444 1.334 . S
C443 N447 1.336 . S
N444 C443 1.334 . S
N444 C445 1.334 . S
C445 N444 1.334 . S
C445 N446 1.336 . S
N446 Zn442 2.020 . S
N446 C445 1.336 . S
N446 N447 1.354 . S
N447 C443 1.336 . S
N447 N446 1.354 . S
N447 Zn451 2.020 . S
C448 O449 1.244 . S
C448 O472 1.257 . S
O449 C448 1.244 . S
O450 Zn442 2.019 . S
O450 C470 1.257 . S
Zn451 N447 2.020 . S
Zn451 O458 1.975 . S
Zn451 N467 2.119 . S
Zn451 O472 2.019 . S
N452 Zn442 2.119 . S
N452 C454 1.334 . S
N452 C455 1.328 . S
C453 C454 1.391 . S
C453 N456 1.329 . S
C453 H474 0.930 . S
C454 N452 1.334 . S
C454 C453 1.391 . S
C454 H461 0.930 . S
C455 N452 1.328 . S
C455 C457 1.392 . S
C455 H462 0.930 . S
N456 C453 1.329 . S
N456 C457 1.331 . S
C457 C455 1.392 . S
C457 N456 1.331 . S
O458 Zn451 1.975 . S
O458 C459 1.252 . S
C459 O458 1.252 . S
C459 O460 1.252 . S
O460 Zn442 1.975 . S
O460 C459 1.252 . S
H461 C454 0.930 . S
H462 C455 0.930 . S
C463 C464 1.392 . S
C463 N467 1.328 1_556 S
C463 H469 0.930 . S
C464 C463 1.392 . S
C464 N468 1.331 . S
C465 C466 1.391 . S
C465 N468 1.329 1_554 S
C465 H475 0.930 . S
C466 C465 1.391 . S
C466 N467 1.334 . S
C466 H473 0.930 . S
N467 Zn451 2.119 . S
N467 C463 1.328 1_554 S
N467 C466 1.334 . S
N468 C464 1.331 . S
N468 C465 1.329 1_556 S
H469 C463 0.930 . S
C470 O450 1.257 . S
C470 O471 1.244 . S
O471 C470 1.244 . S
O472 C448 1.257 . S
O472 Zn451 2.019 . S
H473 C466 0.930 . S
H474 C453 0.930 . S
H475 C465 0.930 . S
Zn476 N480 2.020 . S
Zn476 O484 2.019 . S
Zn476 N486 2.119 . S
Zn476 O494 1.975 . S
C477 N478 1.334 . S
C477 N481 1.336 . S
N478 C477 1.334 . S
N478 C479 1.334 . S
C479 N478 1.334 . S
C479 N480 1.336 . S
N480 Zn476 2.020 . S
N480 C479 1.336 . S
N480 N481 1.354 . S
N481 C477 1.336 . S
N481 N480 1.354 . S
N481 Zn485 2.020 . S
C482 O483 1.244 . S
C482 O506 1.257 . S
O483 C482 1.244 . S
O484 Zn476 2.019 . S
O484 C504 1.257 . S
Zn485 N481 2.020 . S
Zn485 O492 1.975 . S
Zn485 N501 2.119 . S
Zn485 O506 2.019 . S
N486 Zn476 2.119 . S
N486 C488 1.334 . S
N486 C489 1.328 . S
C487 C488 1.391 . S
C487 N490 1.329 . S
C487 H508 0.930 . S
C488 N486 1.334 . S
C488 C487 1.391 . S
C488 H495 0.930 . S
C489 N486 1.328 . S
C489 C491 1.392 . S
C489 H496 0.930 . S
N490 C487 1.329 . S
N490 C491 1.331 . S
C491 C489 1.392 . S
C491 N490 1.331 . S
O492 Zn485 1.975 . S
O492 C493 1.252 . S
C493 O492 1.252 . S
C493 O494 1.252 . S
O494 Zn476 1.975 . S
O494 C493 1.252 . S
H495 C488 0.930 . S
H496 C489 0.930 . S
C497 C498 1.392 . S
C497 N501 1.328 . S
C497 H503 0.930 . S
C498 C497 1.392 . S
C498 N502 1.331 . S
C499 C500 1.391 . S
C499 N502 1.329 . S
C499 H509 0.930 . S
C500 C499 1.391 . S
C500 N501 1.334 . S
C500 H507 0.930 . S
N501 Zn485 2.119 . S
N501 C497 1.328 . S
N501 C500 1.334 . S
N502 C498 1.331 . S
N502 C499 1.329 . S
H503 C497 0.930 . S
C504 O484 1.257 . S
C504 O505 1.244 . S
O505 C504 1.244 . S
O506 C482 1.257 . S
O506 Zn485 2.019 . S
H507 C500 0.930 . S
H508 C487 0.930 . S
H509 C499 0.930 . S
Zn510 N514 2.020 . S
Zn510 O518 2.019 . S
Zn510 N520 2.119 . S
Zn510 O528 1.975 . S
C511 N512 1.334 . S
C511 N515 1.336 . S
N512 C511 1.334 . S
N512 C513 1.334 . S
C513 N512 1.334 . S
C513 N514 1.336 . S
N514 Zn510 2.020 . S
N514 C513 1.336 . S
N514 N515 1.354 . S
N515 C511 1.336 . S
N515 N514 1.354 . S
N515 Zn519 2.020 . S
C516 O517 1.244 . S
C516 O540 1.257 . S
O517 C516 1.244 . S
O518 Zn510 2.019 . S
O518 C538 1.225 1_545 S
Zn519 N515 2.020 . S
Zn519 O526 1.975 . S
Zn519 N535 2.119 . S
Zn519 O540 2.019 . S
N520 Zn510 2.119 . S
N520 C522 1.334 . S
N520 C523 1.328 . S
C521 C522 1.391 . S
C521 N524 1.329 . S
C521 H542 0.930 . S
C522 N520 1.334 . S
C522 C521 1.391 . S
C522 H529 0.930 . S
C523 N520 1.328 . S
C523 C525 1.392 . S
C523 H530 0.930 . S
N524 C521 1.329 . S
N524 C525 1.331 . S
C525 C523 1.392 . S
C525 N524 1.331 . S
O526 Zn519 1.975 . S
O526 C527 1.252 . S
C527 O526 1.252 . S
C527 O528 1.252 . S
O528 Zn510 1.975 . S
O528 C527 1.252 . S
H529 C522 0.930 . S
H530 C523 0.930 . S
C531 C532 1.392 . S
C531 N535 1.328 1_556 S
C531 H537 0.930 . S
C532 C531 1.392 . S
C532 N536 1.331 . S
C533 C534 1.391 . S
C533 N536 1.329 1_554 S
C533 H543 0.930 1_545 S
C534 C533 1.391 . S
C534 N535 1.334 . S
C534 H541 0.930 . S
N535 Zn519 2.119 . S
N535 C531 1.328 1_554 S
N535 C534 1.334 . S
N536 C532 1.331 . S
N536 C533 1.329 1_556 S
H537 C531 0.930 . S
C538 O518 1.225 1_565 S
C538 O539 1.249 . S
O539 C538 1.249 . S
O540 C516 1.257 . S
O540 Zn519 2.019 . S
H541 C534 0.930 . S
H542 C521 0.930 . S
H543 C533 0.930 1_565 S
Zn544 N548 2.020 . S
Zn544 O552 2.019 . S
Zn544 N554 2.119 . S
Zn544 O562 1.975 . S
C545 N546 1.334 . S
C545 N549 1.336 . S
N546 C545 1.334 . S
N546 C547 1.334 . S
C547 N546 1.334 . S
C547 N548 1.336 . S
N548 Zn544 2.020 . S
N548 C547 1.336 . S
N548 N549 1.354 . S
N549 C545 1.336 . S
N549 N548 1.354 . S
N549 Zn553 2.020 . S
C550 O551 1.244 . S
C550 O574 1.257 . S
O551 C550 1.244 . S
O552 Zn544 2.019 . S
O552 C572 1.257 . S
Zn553 N549 2.020 . S
Zn553 O560 1.975 . S
Zn553 N569 2.119 . S
Zn553 O574 2.019 . S
N554 Zn544 2.119 . S
N554 C556 1.334 . S
N554 C557 1.328 . S
C555 C556 1.391 . S
C555 N558 1.329 . S
C555 H576 0.930 . S
C556 N554 1.334 . S
C556 C555 1.391 . S
C556 H563 0.930 . S
C557 N554 1.328 . S
C557 C559 1.392 . S
C557 H564 0.930 . S
N558 C555 1.329 . S
N558 C559 1.331 . S
C559 C557 1.392 . S
C559 N558 1.331 . S
O560 Zn553 1.975 . S
O560 C561 1.252 . S
C561 O560 1.252 . S
C561 O562 1.252 . S
O562 Zn544 1.975 . S
O562 C561 1.252 . S
H563 C556 0.930 . S
H564 C557 0.930 . S
C565 C566 1.392 . S
C565 N569 1.328 . S
C565 H571 0.930 . S
C566 C565 1.392 . S
C566 N570 1.331 . S
C567 C568 1.391 . S
C567 N570 1.329 . S
C567 H577 0.930 . S
C568 C567 1.391 . S
C568 N569 1.334 . S
C568 H575 0.930 . S
N569 Zn553 2.119 . S
N569 C565 1.328 . S
N569 C568 1.334 . S
N570 C566 1.331 . S
N570 C567 1.329 . S
H571 C565 0.930 . S
C572 O552 1.257 . S
C572 O573 1.244 . S
O573 C572 1.244 . S
O574 C550 1.257 . S
O574 Zn553 2.019 . S
H575 C568 0.930 . S
H576 C555 0.930 . S
H577 C567 0.930 . S
Zn578 N582 2.020 . S
Zn578 O586 2.019 . S
Zn578 N588 2.119 . S
Zn578 O596 1.975 . S
C579 N580 1.334 . S
C579 N583 1.336 . S
N580 C579 1.334 . S
N580 C581 1.334 . S
C581 N580 1.334 . S
C581 N582 1.336 . S
N582 Zn578 2.020 . S
N582 C581 1.336 . S
N582 N583 1.354 . S
N583 C579 1.336 . S
N583 N582 1.354 . S
N583 Zn587 2.020 . S
C584 O585 1.244 . S
C584 O608 1.257 . S
O585 C584 1.244 . S
O586 Zn578 2.019 . S
O586 C606 1.257 . S
Zn587 N583 2.020 . S
Zn587 O594 1.975 . S
Zn587 N603 2.119 . S
Zn587 O608 2.019 . S
N588 Zn578 2.119 . S
N588 C590 1.334 . S
N588 C591 1.328 . S
C589 C590 1.391 . S
C589 N592 1.329 . S
C589 H610 0.930 . S
C590 N588 1.334 . S
C590 C589 1.391 . S
C590 H597 0.930 . S
C591 N588 1.328 . S
C591 C593 1.392 . S
C591 H598 0.930 . S
N592 C589 1.329 . S
N592 C593 1.331 . S
C593 C591 1.392 . S
C593 N592 1.331 . S
O594 Zn587 1.975 . S
O594 C595 1.252 . S
C595 O594 1.252 . S
C595 O596 1.252 . S
O596 Zn578 1.975 . S
O596 C595 1.252 . S
H597 C590 0.930 . S
H598 C591 0.930 . S
C599 C600 1.392 . S
C599 N603 1.328 . S
C599 H605 0.930 . S
C600 C599 1.392 . S
C600 N604 1.331 . S
C601 C602 1.391 . S
C601 N604 1.329 . S
C601 H611 0.930 . S
C602 C601 1.391 . S
C602 N603 1.334 . S
C602 H609 0.930 . S
N603 Zn587 2.119 . S
N603 C599 1.328 . S
N603 C602 1.334 . S
N604 C600 1.331 . S
N604 C601 1.329 . S
H605 C599 0.930 . S
C606 O586 1.257 . S
C606 O607 1.244 . S
O607 C606 1.244 . S
O608 C584 1.257 . S
O608 Zn587 2.019 . S
H609 C602 0.930 . S
H610 C589 0.930 . S
H611 C601 0.930 . S
Zn612 N616 2.020 . S
Zn612 O620 2.019 . S
Zn612 N622 2.119 . S
Zn612 O630 1.975 . S
C613 N614 1.334 . S
C613 N617 1.336 . S
N614 C613 1.334 . S
N614 C615 1.334 . S
C615 N614 1.334 . S
C615 N616 1.336 . S
N616 Zn612 2.020 . S
N616 C615 1.336 . S
N616 N617 1.354 . S
N617 C613 1.336 . S
N617 N616 1.354 . S
N617 Zn621 2.020 . S
C618 O619 1.244 . S
C618 O642 1.257 . S
O619 C618 1.244 . S
O620 Zn612 2.019 . S
O620 C640 1.225 1_655 S
Zn621 N617 2.020 . S
Zn621 O628 1.975 . S
Zn621 N637 2.119 . S
Zn621 O642 2.019 . S
N622 Zn612 2.119 . S
N622 C624 1.334 . S
N622 C625 1.328 . S
C623 C624 1.391 . S
C623 N626 1.329 . S
C623 H644 0.930 . S
C624 N622 1.334 . S
C624 C623 1.391 . S
C624 H631 0.930 . S
C625 N622 1.328 . S
C625 C627 1.392 . S
C625 H632 0.930 . S
N626 C623 1.329 . S
N626 C627 1.331 . S
C627 C625 1.392 . S
C627 N626 1.331 . S
O628 Zn621 1.975 . S
O628 C629 1.252 . S
C629 O628 1.252 . S
C629 O630 1.252 . S
O630 Zn612 1.975 . S
O630 C629 1.252 . S
H631 C624 0.930 . S
H632 C625 0.930 . S
C633 C634 1.392 . S
C633 N637 1.328 . S
C633 H639 0.930 . S
C634 C633 1.392 . S
C634 N638 1.331 . S
C635 C636 1.391 . S
C635 N638 1.329 . S
C635 H645 0.930 1_655 S
C636 C635 1.391 . S
C636 N637 1.334 . S
C636 H643 0.930 . S
N637 Zn621 2.119 . S
N637 C633 1.328 . S
N637 C636 1.334 . S
N638 C634 1.331 . S
N638 C635 1.329 . S
H639 C633 0.930 . S
C640 O620 1.225 1_455 S
C640 O641 1.249 . S
O641 C640 1.249 . S
O642 C618 1.257 . S
O642 Zn621 2.019 . S
H643 C636 0.930 . S
H644 C623 0.930 . S
H645 C635 0.930 1_455 S
Zn646 N650 2.020 . S
Zn646 O654 2.019 . S
Zn646 N656 2.119 . S
Zn646 O664 1.975 . S
C647 N648 1.334 . S
C647 N651 1.336 . S
N648 C647 1.334 . S
N648 C649 1.334 . S
C649 N648 1.334 . S
C649 N650 1.336 . S
N650 Zn646 2.020 . S
N650 C649 1.336 . S
N650 N651 1.354 . S
N651 C647 1.336 . S
N651 N650 1.354 . S
N651 Zn655 2.020 . S
C652 O653 1.244 . S
C652 O676 1.257 . S
O653 C652 1.244 . S
O654 Zn646 2.019 . S
O654 C674 1.257 . S
Zn655 N651 2.020 . S
Zn655 O662 1.975 . S
Zn655 N671 2.119 . S
Zn655 O676 2.019 . S
N656 Zn646 2.119 . S
N656 C658 1.334 . S
N656 C659 1.328 . S
C657 C658 1.391 . S
C657 N660 1.329 . S
C657 H678 0.930 . S
C658 N656 1.334 . S
C658 C657 1.391 . S
C658 H665 0.930 . S
C659 N656 1.328 . S
C659 C661 1.392 . S
C659 H666 0.930 . S
N660 C657 1.329 . S
N660 C661 1.331 . S
C661 C659 1.392 . S
C661 N660 1.331 . S
O662 Zn655 1.975 . S
O662 C663 1.252 . S
C663 O662 1.252 . S
C663 O664 1.252 . S
O664 Zn646 1.975 . S
O664 C663 1.252 . S
H665 C658 0.930 . S
H666 C659 0.930 . S
C667 C668 1.392 . S
C667 N671 1.328 . S
C667 H673 0.930 . S
C668 C667 1.392 . S
C668 N672 1.331 . S
C669 C670 1.391 . S
C669 N672 1.329 . S
C669 H679 0.930 . S
C670 C669 1.391 . S
C670 N671 1.334 . S
C670 H677 0.930 . S
N671 Zn655 2.119 . S
N671 C667 1.328 . S
N671 C670 1.334 . S
N672 C668 1.331 . S
N672 C669 1.329 . S
H673 C667 0.930 . S
C674 O654 1.257 . S
C674 O675 1.244 . S
O675 C674 1.244 . S
O676 C652 1.257 . S
O676 Zn655 2.019 . S
H677 C670 0.930 . S
H678 C657 0.930 . S
H679 C669 0.930 . S
Zn680 N684 2.020 . S
Zn680 O688 2.019 . S
Zn680 N690 2.119 . S
Zn680 O698 1.975 . S
C681 N682 1.334 . S
C681 N685 1.336 . S
N682 C681 1.334 . S
N682 C683 1.334 . S
C683 N682 1.334 . S
C683 N684 1.336 . S
N684 Zn680 2.020 . S
N684 C683 1.336 . S
N684 N685 1.354 . S
N685 C681 1.336 . S
N685 N684 1.354 . S
N685 Zn689 2.020 . S
C686 O687 1.244 . S
C686 O710 1.257 . S
O687 C686 1.244 . S
O688 Zn680 2.019 . S
O688 C708 1.257 . S
Zn689 N685 2.020 . S
Zn689 O696 1.975 . S
Zn689 N705 2.119 . S
Zn689 O710 2.019 . S
N690 Zn680 2.119 . S
N690 C692 1.334 . S
N690 C693 1.328 . S
C691 C692 1.391 . S
C691 N694 1.329 . S
C691 H712 0.930 . S
C692 N690 1.334 . S
C692 C691 1.391 . S
C692 H699 0.930 . S
C693 N690 1.328 . S
C693 C695 1.392 . S
C693 H700 0.930 . S
N694 C691 1.329 . S
N694 C695 1.331 . S
C695 C693 1.392 . S
C695 N694 1.331 . S
O696 Zn689 1.975 . S
O696 C697 1.252 . S
C697 O696 1.252 . S
C697 O698 1.252 . S
O698 Zn680 1.975 . S
O698 C697 1.252 . S
H699 C692 0.930 . S
H700 C693 0.930 . S
C701 C702 1.392 . S
C701 N705 1.328 . S
C701 H707 0.930 . S
C702 C701 1.392 . S
C702 N706 1.331 . S
C703 C704 1.391 . S
C703 N706 1.329 . S
C703 H713 0.930 . S
C704 C703 1.391 . S
C704 N705 1.334 . S
C704 H711 0.930 . S
N705 Zn689 2.119 . S
N705 C701 1.328 . S
N705 C704 1.334 . S
N706 C702 1.331 . S
N706 C703 1.329 . S
H707 C701 0.930 . S
C708 O688 1.257 . S
C708 O709 1.244 . S
O709 C708 1.244 . S
O710 C686 1.257 . S
O710 Zn689 2.019 . S
H711 C704 0.930 . S
H712 C691 0.930 . S
H713 C703 0.930 . S
Zn714 N718 2.020 . S
Zn714 O722 2.019 . S
Zn714 N724 2.119 . S
Zn714 O732 1.975 . S
C715 N716 1.334 . S
C715 N719 1.336 . S
N716 C715 1.334 . S
N716 C717 1.334 . S
C717 N716 1.334 . S
C717 N718 1.336 . S
N718 Zn714 2.020 . S
N718 C717 1.336 . S
N718 N719 1.354 . S
N719 C715 1.336 . S
N719 N718 1.354 . S
N719 Zn723 2.020 . S
C720 O721 1.244 . S
C720 O744 1.257 . S
O721 C720 1.244 . S
O722 Zn714 2.019 . S
O722 C742 1.257 . S
Zn723 N719 2.020 . S
Zn723 O730 1.975 . S
Zn723 N739 2.119 . S
Zn723 O744 2.019 . S
N724 Zn714 2.119 . S
N724 C726 1.334 . S
N724 C727 1.328 . S
C725 C726 1.391 . S
C725 N728 1.329 . S
C725 H746 0.930 . S
C726 N724 1.334 . S
C726 C725 1.391 . S
C726 H733 0.930 . S
C727 N724 1.328 . S
C727 C729 1.392 . S
C727 H734 0.930 . S
N728 C725 1.329 . S
N728 C729 1.331 . S
C729 C727 1.392 . S
C729 N728 1.331 . S
O730 Zn723 1.975 . S
O730 C731 1.252 . S
C731 O730 1.252 . S
C731 O732 1.252 . S
O732 Zn714 1.975 . S
O732 C731 1.252 . S
H733 C726 0.930 . S
H734 C727 0.930 . S
C735 C736 1.392 . S
C735 N739 1.328 . S
C735 H741 0.930 . S
C736 C735 1.392 . S
C736 N740 1.331 . S
C737 C738 1.391 . S
C737 N740 1.329 . S
C737 H747 0.930 . S
C738 C737 1.391 . S
C738 N739 1.334 . S
C738 H745 0.930 . S
N739 Zn723 2.119 . S
N739 C735 1.328 . S
N739 C738 1.334 . S
N740 C736 1.331 . S
N740 C737 1.329 . S
H741 C735 0.930 . S
C742 O722 1.257 . S
C742 O743 1.244 . S
O743 C742 1.244 . S
O744 C720 1.257 . S
O744 Zn723 2.019 . S
H745 C738 0.930 . S
H746 C725 0.930 . S
H747 C737 0.930 . S
Zn748 N752 2.020 . S
Zn748 O756 2.019 . S
Zn748 N758 2.119 . S
Zn748 O766 1.975 . S
C749 N750 1.334 . S
C749 N753 1.336 . S
N750 C749 1.334 . S
N750 C751 1.334 . S
C751 N750 1.334 . S
C751 N752 1.336 . S
N752 Zn748 2.020 . S
N752 C751 1.336 . S
N752 N753 1.354 . S
N753 C749 1.336 . S
N753 N752 1.354 . S
N753 Zn757 2.020 . S
C754 O755 1.244 . S
C754 O778 1.257 . S
O755 C754 1.244 . S
O756 Zn748 2.019 . S
O756 C776 1.225 1_655 S
Zn757 N753 2.020 . S
Zn757 O764 1.975 . S
Zn757 N773 2.119 . S
Zn757 O778 2.019 . S
N758 Zn748 2.119 . S
N758 C760 1.334 . S
N758 C761 1.328 . S
C759 C760 1.391 . S
C759 N762 1.329 . S
C759 H780 0.930 . S
C760 N758 1.334 . S
C760 C759 1.391 . S
C760 H767 0.930 . S
C761 N758 1.328 . S
C761 C763 1.392 . S
C761 H768 0.930 . S
N762 C759 1.329 . S
N762 C763 1.331 . S
C763 C761 1.392 . S
C763 N762 1.331 . S
O764 Zn757 1.975 . S
O764 C765 1.252 . S
C765 O764 1.252 . S
C765 O766 1.252 . S
O766 Zn748 1.975 . S
O766 C765 1.252 . S
H767 C760 0.930 . S
H768 C761 0.930 . S
C769 C770 1.392 . S
C769 N773 1.328 . S
C769 H775 0.930 . S
C770 C769 1.392 . S
C770 N774 1.331 . S
C771 C772 1.391 . S
C771 N774 1.329 . S
C771 H781 0.930 1_655 S
C772 C771 1.391 . S
C772 N773 1.334 . S
C772 H779 0.930 . S
N773 Zn757 2.119 . S
N773 C769 1.328 . S
N773 C772 1.334 . S
N774 C770 1.331 . S
N774 C771 1.329 . S
H775 C769 0.930 . S
C776 O756 1.225 1_455 S
C776 O777 1.249 . S
O777 C776 1.249 . S
O778 C754 1.257 . S
O778 Zn757 2.019 . S
H779 C772 0.930 . S
H780 C759 0.930 . S
H781 C771 0.930 1_455 S
Zn782 N786 2.020 . S
Zn782 O790 2.019 . S
Zn782 N792 2.119 . S
Zn782 O800 1.975 . S
C783 N784 1.334 . S
C783 N787 1.336 . S
N784 C783 1.334 . S
N784 C785 1.334 . S
C785 N784 1.334 . S
C785 N786 1.336 . S
N786 Zn782 2.020 . S
N786 C785 1.336 . S
N786 N787 1.354 . S
N787 C783 1.336 . S
N787 N786 1.354 . S
N787 Zn791 2.020 . S
C788 O789 1.244 . S
C788 O812 1.257 . S
O789 C788 1.244 . S
O790 Zn782 2.019 . S
O790 C810 1.225 1_455 S
Zn791 N787 2.020 . S
Zn791 O798 1.975 . S
Zn791 N807 2.119 . S
Zn791 O812 2.019 . S
N792 Zn782 2.119 . S
N792 C794 1.334 . S
N792 C795 1.328 . S
C793 C794 1.391 . S
C793 N796 1.329 . S
C793 H814 0.930 . S
C794 N792 1.334 . S
C794 C793 1.391 . S
C794 H801 0.930 . S
C795 N792 1.328 . S
C795 C797 1.392 . S
C795 H802 0.930 . S
N796 C793 1.329 . S
N796 C797 1.331 . S
C797 C795 1.392 . S
C797 N796 1.331 . S
O798 Zn791 1.975 . S
O798 C799 1.252 . S
C799 O798 1.252 . S
C799 O800 1.252 . S
O800 Zn782 1.975 . S
O800 C799 1.252 . S
H801 C794 0.930 . S
H802 C795 0.930 . S
C803 C804 1.392 . S
C803 N807 1.328 1_545 S
C803 H809 0.930 . S
C804 C803 1.392 . S
C804 N808 1.331 . S
C805 C806 1.391 . S
C805 N808 1.329 1_565 S
C805 H815 0.930 1_455 S
C806 C805 1.391 . S
C806 N807 1.334 . S
C806 H813 0.930 . S
N807 Zn791 2.119 . S
N807 C803 1.328 1_565 S
N807 C806 1.334 . S
N808 C804 1.331 . S
N808 C805 1.329 1_545 S
H809 C803 0.930 . S
C810 O790 1.225 1_655 S
C810 O811 1.249 . S
O811 C810 1.249 . S
O812 C788 1.257 . S
O812 Zn791 2.019 . S
H813 C806 0.930 . S
H814 C793 0.930 . S
H815 C805 0.930 1_655 S
Zn816 N820 2.020 . S
Zn816 O824 2.019 . S
Zn816 N826 2.119 . S
Zn816 O834 1.975 . S
C817 N818 1.334 . S
C817 N821 1.336 . S
N818 C817 1.334 . S
N818 C819 1.334 . S
C819 N818 1.334 . S
C819 N820 1.336 . S
N820 Zn816 2.020 . S
N820 C819 1.336 . S
N820 N821 1.354 . S
N821 C817 1.336 . S
N821 N820 1.354 . S
N821 Zn825 2.020 . S
C822 O823 1.244 . S
C822 O846 1.257 . S
O823 C822 1.244 . S
O824 Zn816 2.019 . S
O824 C844 1.257 . S
Zn825 N821 2.020 . S
Zn825 O832 1.975 . S
Zn825 N841 2.119 . S
Zn825 O846 2.019 . S
N826 Zn816 2.119 . S
N826 C828 1.334 . S
N826 C829 1.328 . S
C827 C828 1.391 . S
C827 N830 1.329 . S
C827 H848 0.930 . S
C828 N826 1.334 . S
C828 C827 1.391 . S
C828 H835 0.930 . S
C829 N826 1.328 . S
C829 C831 1.392 . S
C829 H836 0.930 . S
N830 C827 1.329 . S
N830 C831 1.331 . S
C831 C829 1.392 . S
C831 N830 1.331 . S
O832 Zn825 1.975 . S
O832 C833 1.252 . S
C833 O832 1.252 . S
C833 O834 1.252 . S
O834 Zn816 1.975 . S
O834 C833 1.252 . S
H835 C828 0.930 . S
H836 C829 0.930 . S
C837 C838 1.392 . S
C837 N841 1.328 . S
C837 H843 0.930 . S
C838 C837 1.392 . S
C838 N842 1.331 . S
C839 C840 1.391 . S
C839 N842 1.329 . S
C839 H849 0.930 . S
C840 C839 1.391 . S
C840 N841 1.334 . S
C840 H847 0.930 . S
N841 Zn825 2.119 . S
N841 C837 1.328 . S
N841 C840 1.334 . S
N842 C838 1.331 . S
N842 C839 1.329 . S
H843 C837 0.930 . S
C844 O824 1.257 . S
C844 O845 1.244 . S
O845 C844 1.244 . S
O846 C822 1.257 . S
O846 Zn825 2.019 . S
H847 C840 0.930 . S
H848 C827 0.930 . S
H849 C839 0.930 . S
Zn850 N854 2.020 . S
Zn850 O858 2.019 . S
Zn850 N860 2.119 . S
Zn850 O868 1.975 . S
C851 N852 1.334 . S
C851 N855 1.336 . S
N852 C851 1.334 . S
N852 C853 1.334 . S
C853 N852 1.334 . S
C853 N854 1.336 . S
N854 Zn850 2.020 . S
N854 C853 1.336 . S
N854 N855 1.354 . S
N855 C851 1.336 . S
N855 N854 1.354 . S
N855 Zn859 2.020 . S
C856 O857 1.244 . S
C856 O880 1.257 . S
O857 C856 1.244 . S
O858 Zn850 2.019 . S
O858 C878 1.257 . S
Zn859 N855 2.020 . S
Zn859 O866 1.975 . S
Zn859 N875 2.119 . S
Zn859 O880 2.019 . S
N860 Zn850 2.119 . S
N860 C862 1.334 . S
N860 C863 1.328 1_455 S
C861 C862 1.391 . S
C861 N864 1.329 1_455 S
C861 H882 0.930 . S
C862 N860 1.334 . S
C862 C861 1.391 . S
C862 H869 0.930 . S
C863 N860 1.328 1_655 S
C863 C865 1.392 . S
C863 H870 0.930 . S
N864 C861 1.329 1_655 S
N864 C865 1.331 . S
C865 C863 1.392 . S
C865 N864 1.331 . S
O866 Zn859 1.975 . S
O866 C867 1.252 . S
C867 O866 1.252 . S
C867 O868 1.252 . S
O868 Zn850 1.975 . S
O868 C867 1.252 . S
H869 C862 0.930 . S
H870 C863 0.930 . S
C871 C872 1.392 . S
C871 N875 1.328 . S
C871 H877 0.930 . S
C872 C871 1.392 . S
C872 N876 1.331 . S
C873 C874 1.391 . S
C873 N876 1.329 . S
C873 H883 0.930 . S
C874 C873 1.391 . S
C874 N875 1.334 . S
C874 H881 0.930 . S
N875 Zn859 2.119 . S
N875 C871 1.328 . S
N875 C874 1.334 . S
N876 C872 1.331 . S
N876 C873 1.329 . S
H877 C871 0.930 . S
C878 O858 1.257 . S
C878 O879 1.244 . S
O879 C878 1.244 . S
O880 C856 1.257 . S
O880 Zn859 2.019 . S
H881 C874 0.930 . S
H882 C861 0.930 . S
H883 C873 0.930 . S
Zn884 N888 2.020 . S
Zn884 O892 2.019 . S
Zn884 N894 2.119 . S
Zn884 O902 1.975 . S
C885 N886 1.334 . S
C885 N889 1.336 . S
N886 C885 1.334 . S
N886 C887 1.334 . S
C887 N886 1.334 . S
C887 N888 1.336 . S
N888 Zn884 2.020 . S
N888 C887 1.336 . S
N888 N889 1.354 . S
N889 C885 1.336 . S
N889 N888 1.354 . S
N889 Zn893 2.020 . S
C890 O891 1.244 . S
C890 O914 1.257 . S
O891 C890 1.244 . S
O892 Zn884 2.019 . S
O892 C912 1.257 . S
Zn893 N889 2.020 . S
Zn893 O900 1.975 . S
Zn893 N909 2.119 . S
Zn893 O914 2.019 . S
N894 Zn884 2.119 . S
N894 C896 1.334 . S
N894 C897 1.328 . S
C895 C896 1.391 . S
C895 N898 1.329 . S
C895 H916 0.930 . S
C896 N894 1.334 . S
C896 C895 1.391 . S
C896 H903 0.930 . S
C897 N894 1.328 . S
C897 C899 1.392 . S
C897 H904 0.930 . S
N898 C895 1.329 . S
N898 C899 1.331 . S
C899 C897 1.392 . S
C899 N898 1.331 . S
O900 Zn893 1.975 . S
O900 C901 1.252 . S
C901 O900 1.252 . S
C901 O902 1.252 . S
O902 Zn884 1.975 . S
O902 C901 1.252 . S
H903 C896 0.930 . S
H904 C897 0.930 . S
C905 C906 1.392 . S
C905 N909 1.328 . S
C905 H911 0.930 . S
C906 C905 1.392 . S
C906 N910 1.331 . S
C907 C908 1.391 . S
C907 N910 1.329 . S
C907 H917 0.930 . S
C908 C907 1.391 . S
C908 N909 1.334 . S
C908 H915 0.930 . S
N909 Zn893 2.119 . S
N909 C905 1.328 . S
N909 C908 1.334 . S
N910 C906 1.331 . S
N910 C907 1.329 . S
H911 C905 0.930 . S
C912 O892 1.257 . S
C912 O913 1.244 . S
O913 C912 1.244 . S
O914 C890 1.257 . S
O914 Zn893 2.019 . S
H915 C908 0.930 . S
H916 C895 0.930 . S
H917 C907 0.930 . S
Zn918 N922 2.020 . S
Zn918 O926 2.019 . S
Zn918 N928 2.119 . S
Zn918 O936 1.975 . S
C919 N920 1.334 . S
C919 N923 1.336 . S
N920 C919 1.334 . S
N920 C921 1.334 . S
C921 N920 1.334 . S
C921 N922 1.336 . S
N922 Zn918 2.020 . S
N922 C921 1.336 . S
N922 N923 1.354 . S
N923 C919 1.336 . S
N923 N922 1.354 . S
N923 Zn927 2.020 . S
C924 O925 1.244 . S
C924 O948 1.257 . S
O925 C924 1.244 . S
O926 Zn918 2.019 . S
O926 C946 1.257 . S
Zn927 N923 2.020 . S
Zn927 O934 1.975 . S
Zn927 N943 2.119 . S
Zn927 O948 2.019 . S
N928 Zn918 2.119 . S
N928 C930 1.334 . S
N928 C931 1.328 . S
C929 C930 1.391 . S
C929 N932 1.329 . S
C929 H950 0.930 . S
C930 N928 1.334 . S
C930 C929 1.391 . S
C930 H937 0.930 . S
C931 N928 1.328 . S
C931 C933 1.392 . S
C931 H938 0.930 . S
N932 C929 1.329 . S
N932 C933 1.331 . S
C933 C931 1.392 . S
C933 N932 1.331 . S
O934 Zn927 1.975 . S
O934 C935 1.252 . S
C935 O934 1.252 . S
C935 O936 1.252 . S
O936 Zn918 1.975 . S
O936 C935 1.252 . S
H937 C930 0.930 . S
H938 C931 0.930 . S
C939 C940 1.392 . S
C939 N943 1.328 1_455 S
C939 H945 0.930 . S
C940 C939 1.392 . S
C940 N944 1.331 . S
C941 C942 1.391 . S
C941 N944 1.329 1_655 S
C941 H951 0.930 . S
C942 C941 1.391 . S
C942 N943 1.334 . S
C942 H949 0.930 . S
N943 Zn927 2.119 . S
N943 C939 1.328 1_655 S
N943 C942 1.334 . S
N944 C940 1.331 . S
N944 C941 1.329 1_455 S
H945 C939 0.930 . S
C946 O926 1.257 . S
C946 O947 1.244 . S
O947 C946 1.244 . S
O948 C924 1.257 . S
O948 Zn927 2.019 . S
H949 C942 0.930 . S
H950 C929 0.930 . S
H951 C941 0.930 . S
Zn952 N956 2.020 . S
Zn952 O960 2.019 . S
Zn952 N962 2.119 . S
Zn952 O970 1.975 . S
C953 N954 1.334 . S
C953 N957 1.336 . S
N954 C953 1.334 . S
N954 C955 1.334 . S
C955 N954 1.334 . S
C955 N956 1.336 . S
N956 Zn952 2.020 . S
N956 C955 1.336 . S
N956 N957 1.354 . S
N957 C953 1.336 . S
N957 N956 1.354 . S
N957 Zn961 2.020 . S
C958 O959 1.244 . S
C958 O982 1.257 . S
O959 C958 1.244 . S
O960 Zn952 2.019 . S
O960 C980 1.257 . S
Zn961 N957 2.020 . S
Zn961 O968 1.975 . S
Zn961 N977 2.119 . S
Zn961 O982 2.019 . S
N962 Zn952 2.119 . S
N962 C964 1.334 . S
N962 C965 1.328 . S
C963 C964 1.391 . S
C963 N966 1.329 . S
C963 H984 0.930 . S
C964 N962 1.334 . S
C964 C963 1.391 . S
C964 H971 0.930 . S
C965 N962 1.328 . S
C965 C967 1.392 . S
C965 H972 0.930 . S
N966 C963 1.329 . S
N966 C967 1.331 . S
C967 C965 1.392 . S
C967 N966 1.331 . S
O968 Zn961 1.975 . S
O968 C969 1.252 . S
C969 O968 1.252 . S
C969 O970 1.252 . S
O970 Zn952 1.975 . S
O970 C969 1.252 . S
H971 C964 0.930 . S
H972 C965 0.930 . S
C973 C974 1.392 . S
C973 N977 1.328 . S
C973 H979 0.930 . S
C974 C973 1.392 . S
C974 N978 1.331 . S
C975 C976 1.391 . S
C975 N978 1.329 . S
C975 H985 0.930 . S
C976 C975 1.391 . S
C976 N977 1.334 . S
C976 H983 0.930 . S
N977 Zn961 2.119 . S
N977 C973 1.328 . S
N977 C976 1.334 . S
N978 C974 1.331 . S
N978 C975 1.329 . S
H979 C973 0.930 . S
C980 O960 1.257 . S
C980 O981 1.244 . S
O981 C980 1.244 . S
O982 C958 1.257 . S
O982 Zn961 2.019 . S
H983 C976 0.930 . S
H984 C963 0.930 . S
H985 C975 0.930 . S
Zn986 N990 2.020 . S
Zn986 O994 2.019 . S
Zn986 N996 2.119 . S
Zn986 O1004 1.975 . S
C987 N988 1.334 . S
C987 N991 1.336 . S
N988 C987 1.334 . S
N988 C989 1.334 . S
C989 N988 1.334 . S
C989 N990 1.336 . S
N990 Zn986 2.020 . S
N990 C989 1.336 . S
N990 N991 1.354 . S
N991 C987 1.336 . S
N991 N990 1.354 . S
N991 Zn995 2.020 . S
C992 O993 1.244 . S
C992 O1016 1.257 . S
O993 C992 1.244 . S
O994 Zn986 2.019 . S
O994 C1014 1.257 . S
Zn995 N991 2.020 . S
Zn995 O1002 1.975 . S
Zn995 N1011 2.119 . S
Zn995 O1016 2.019 . S
N996 Zn986 2.119 . S
N996 C998 1.334 . S
N996 C999 1.328 . S
C997 C998 1.391 . S
C997 N1000 1.329 . S
C997 H1018 0.930 . S
C998 N996 1.334 . S
C998 C997 1.391 . S
C998 H1005 0.930 . S
C999 N996 1.328 . S
C999 C1001 1.392 . S
C999 H1006 0.930 . S
N1000 C997 1.329 . S
N1000 C1001 1.331 . S
C1001 C999 1.392 . S
C1001 N1000 1.331 . S
O1002 Zn995 1.975 . S
O1002 C1003 1.252 . S
C1003 O1002 1.252 . S
C1003 O1004 1.252 . S
O1004 Zn986 1.975 . S
O1004 C1003 1.252 . S
H1005 C998 0.930 . S
H1006 C999 0.930 . S
C1007 C1008 1.392 . S
C1007 N1011 1.328 . S
C1007 H1013 0.930 . S
C1008 C1007 1.392 . S
C1008 N1012 1.331 . S
C1009 C1010 1.391 . S
C1009 N1012 1.329 . S
C1009 H1019 0.930 . S
C1010 C1009 1.391 . S
C1010 N1011 1.334 . S
C1010 H1017 0.930 . S
N1011 Zn995 2.119 . S
N1011 C1007 1.328 . S
N1011 C1010 1.334 . S
N1012 C1008 1.331 . S
N1012 C1009 1.329 . S
H1013 C1007 0.930 . S
C1014 O994 1.257 . S
C1014 O1015 1.244 . S
O1015 C1014 1.244 . S
O1016 C992 1.257 . S
O1016 Zn995 2.019 . S
H1017 C1010 0.930 . S
H1018 C997 0.930 . S
H1019 C1009 0.930 . S
Zn1020 N1024 2.020 . S
Zn1020 O1028 2.019 . S
Zn1020 N1030 2.119 . S
Zn1020 O1038 1.975 . S
C1021 N1022 1.334 . S
C1021 N1025 1.336 . S
N1022 C1021 1.334 . S
N1022 C1023 1.334 . S
C1023 N1022 1.334 . S
C1023 N1024 1.336 . S
N1024 Zn1020 2.020 . S
N1024 C1023 1.336 . S
N1024 N1025 1.354 . S
N1025 C1021 1.336 . S
N1025 N1024 1.354 . S
N1025 Zn1029 2.020 . S
C1026 O1027 1.244 . S
C1026 O1050 1.257 . S
O1027 C1026 1.244 . S
O1028 Zn1020 2.019 . S
O1028 C1048 1.257 . S
Zn1029 N1025 2.020 . S
Zn1029 O1036 1.975 . S
Zn1029 N1045 2.119 . S
Zn1029 O1050 2.019 . S
N1030 Zn1020 2.119 . S
N1030 C1032 1.334 . S
N1030 C1033 1.328 . S
C1031 C1032 1.391 . S
C1031 N1034 1.329 . S
C1031 H1052 0.930 . S
C1032 N1030 1.334 . S
C1032 C1031 1.391 . S
C1032 H1039 0.930 . S
C1033 N1030 1.328 . S
C1033 C1035 1.392 . S
C1033 H1040 0.930 . S
N1034 C1031 1.329 . S
N1034 C1035 1.331 . S
C1035 C1033 1.392 . S
C1035 N1034 1.331 . S
O1036 Zn1029 1.975 . S
O1036 C1037 1.252 . S
C1037 O1036 1.252 . S
C1037 O1038 1.252 . S
O1038 Zn1020 1.975 . S
O1038 C1037 1.252 . S
H1039 C1032 0.930 . S
H1040 C1033 0.930 . S
C1041 C1042 1.392 . S
C1041 N1045 1.328 . S
C1041 H1047 0.930 . S
C1042 C1041 1.392 . S
C1042 N1046 1.331 . S
C1043 C1044 1.391 . S
C1043 N1046 1.329 . S
C1043 H1053 0.930 . S
C1044 C1043 1.391 . S
C1044 N1045 1.334 . S
C1044 H1051 0.930 . S
N1045 Zn1029 2.119 . S
N1045 C1041 1.328 . S
N1045 C1044 1.334 . S
N1046 C1042 1.331 . S
N1046 C1043 1.329 . S
H1047 C1041 0.930 . S
C1048 O1028 1.257 . S
C1048 O1049 1.244 . S
O1049 C1048 1.244 . S
O1050 C1026 1.257 . S
O1050 Zn1029 2.019 . S
H1051 C1044 0.930 . S
H1052 C1031 0.930 . S
H1053 C1043 0.930 . S
Zn1054 N1058 2.020 . S
Zn1054 O1062 2.019 . S
Zn1054 N1064 2.119 . S
Zn1054 O1072 1.975 . S
C1055 N1056 1.334 . S
C1055 N1059 1.336 . S
N1056 C1055 1.334 . S
N1056 C1057 1.334 . S
C1057 N1056 1.334 . S
C1057 N1058 1.336 . S
N1058 Zn1054 2.020 . S
N1058 C1057 1.336 . S
N1058 N1059 1.354 . S
N1059 C1055 1.336 . S
N1059 N1058 1.354 . S
N1059 Zn1063 2.020 . S
C1060 O1061 1.244 . S
C1060 O1084 1.257 . S
O1061 C1060 1.244 . S
O1062 Zn1054 2.019 . S
O1062 C1082 1.257 . S
Zn1063 N1059 2.020 . S
Zn1063 O1070 1.975 . S
Zn1063 N1079 2.119 . S
Zn1063 O1084 2.019 . S
N1064 Zn1054 2.119 . S
N1064 C1066 1.334 . S
N1064 C1067 1.328 . S
C1065 C1066 1.391 . S
C1065 N1068 1.329 . S
C1065 H1086 0.930 . S
C1066 N1064 1.334 . S
C1066 C1065 1.391 . S
C1066 H1073 0.930 . S
C1067 N1064 1.328 . S
C1067 C1069 1.392 . S
C1067 H1074 0.930 . S
N1068 C1065 1.329 . S
N1068 C1069 1.331 . S
C1069 C1067 1.392 . S
C1069 N1068 1.331 . S
O1070 Zn1063 1.975 . S
O1070 C1071 1.252 . S
C1071 O1070 1.252 . S
C1071 O1072 1.252 . S
O1072 Zn1054 1.975 . S
O1072 C1071 1.252 . S
H1073 C1066 0.930 . S
H1074 C1067 0.930 . S
C1075 C1076 1.392 . S
C1075 N1079 1.328 . S
C1075 H1081 0.930 . S
C1076 C1075 1.392 . S
C1076 N1080 1.331 . S
C1077 C1078 1.391 . S
C1077 N1080 1.329 . S
C1077 H1087 0.930 . S
C1078 C1077 1.391 . S
C1078 N1079 1.334 . S
C1078 H1085 0.930 . S
N1079 Zn1063 2.119 . S
N1079 C1075 1.328 . S
N1079 C1078 1.334 . S
N1080 C1076 1.331 . S
N1080 C1077 1.329 . S
H1081 C1075 0.930 . S
C1082 O1062 1.257 . S
C1082 O1083 1.244 . S
O1083 C1082 1.244 . S
O1084 C1060 1.257 . S
O1084 Zn1063 2.019 . S
H1085 C1078 0.930 . S
H1086 C1065 0.930 . S
H1087 C1077 0.930 . S
Zn1088 N1092 2.020 . S
Zn1088 O1096 2.019 . S
Zn1088 N1098 2.119 . S
Zn1088 O1106 1.975 . S
C1089 N1090 1.334 . S
C1089 N1093 1.336 . S
N1090 C1089 1.334 . S
N1090 C1091 1.334 . S
C1091 N1090 1.334 . S
C1091 N1092 1.336 . S
N1092 Zn1088 2.020 . S
N1092 C1091 1.336 . S
N1092 N1093 1.354 . S
N1093 C1089 1.336 . S
N1093 N1092 1.354 . S
N1093 Zn1097 2.020 . S
C1094 O1095 1.244 . S
C1094 O1118 1.257 . S
O1095 C1094 1.244 . S
O1096 Zn1088 2.019 . S
O1096 C1116 1.257 . S
Zn1097 N1093 2.020 . S
Zn1097 O1104 1.975 . S
Zn1097 N1113 2.119 . S
Zn1097 O1118 2.019 . S
N1098 Zn1088 2.119 . S
N1098 C1100 1.334 . S
N1098 C1101 1.328 . S
C1099 C1100 1.391 . S
C1099 N1102 1.329 . S
C1099 H1120 0.930 . S
C1100 N1098 1.334 . S
C1100 C1099 1.391 . S
C1100 H1107 0.930 . S
C1101 N1098 1.328 . S
C1101 C1103 1.392 . S
C1101 H1108 0.930 . S
N1102 C1099 1.329 . S
N1102 C1103 1.331 . S
C1103 C1101 1.392 . S
C1103 N1102 1.331 . S
O1104 Zn1097 1.975 . S
O1104 C1105 1.252 . S
C1105 O1104 1.252 . S
C1105 O1106 1.252 . S
O1106 Zn1088 1.975 . S
O1106 C1105 1.252 . S
H1107 C1100 0.930 . S
H1108 C1101 0.930 . S
C1109 C1110 1.392 . S
C1109 N1113 1.328 . S
C1109 H1115 0.930 . S
C1110 C1109 1.392 . S
C1110 N1114 1.331 . S
C1111 C1112 1.391 . S
C1111 N1114 1.329 . S
C1111 H1121 0.930 . S
C1112 C1111 1.391 . S
C1112 N1113 1.334 . S
C1112 H1119 0.930 . S
N1113 Zn1097 2.119 . S
N1113 C1109 1.328 . S
N1113 C1112 1.334 . S
N1114 C1110 1.331 . S
N1114 C1111 1.329 . S
H1115 C1109 0.930 . S
C1116 O1096 1.257 . S
C1116 O1117 1.244 . S
O1117 C1116 1.244 . S
O1118 C1094 1.257 . S
O1118 Zn1097 2.019 . S
H1119 C1112 0.930 . S
H1120 C1099 0.930 . S
H1121 C1111 0.930 . S
Zn1122 N1126 2.020 . S
Zn1122 O1130 2.019 . S
Zn1122 N1132 2.119 . S
Zn1122 O1140 1.975 . S
C1123 N1124 1.334 . S
C1123 N1127 1.336 . S
N1124 C1123 1.334 . S
N1124 C1125 1.334 . S
C1125 N1124 1.334 . S
C1125 N1126 1.336 . S
N1126 Zn1122 2.020 . S
N1126 C1125 1.336 . S
N1126 N1127 1.354 . S
N1127 C1123 1.336 . S
N1127 N1126 1.354 . S
N1127 Zn1131 2.020 . S
C1128 O1129 1.249 . S
C1128 O1152 1.225 1_545 S
O1129 C1128 1.249 . S
O1130 Zn1122 2.019 . S
O1130 C1150 1.257 . S
Zn1131 N1127 2.020 . S
Zn1131 O1138 1.975 . S
Zn1131 N1147 2.119 . S
Zn1131 O1152 2.019 . S
N1132 Zn1122 2.119 . S
N1132 C1134 1.334 . S
N1132 C1135 1.328 . S
C1133 C1134 1.391 . S
C1133 N1136 1.329 . S
C1133 H1154 0.930 1_565 S
C1134 N1132 1.334 . S
C1134 C1133 1.391 . S
C1134 H1141 0.930 . S
C1135 N1132 1.328 . S
C1135 C1137 1.392 . S
C1135 H1142 0.930 . S
N1136 C1133 1.329 . S
N1136 C1137 1.331 . S
C1137 C1135 1.392 . S
C1137 N1136 1.331 . S
O1138 Zn1131 1.975 . S
O1138 C1139 1.252 . S
C1139 O1138 1.252 . S
C1139 O1140 1.252 . S
O1140 Zn1122 1.975 . S
O1140 C1139 1.252 . S
H1141 C1134 0.930 . S
H1142 C1135 0.930 . S
C1143 C1144 1.392 . S
C1143 N1147 1.328 . S
C1143 H1149 0.930 . S
C1144 C1143 1.392 . S
C1144 N1148 1.331 . S
C1145 C1146 1.391 . S
C1145 N1148 1.329 . S
C1145 H1155 0.930 . S
C1146 C1145 1.391 . S
C1146 N1147 1.334 . S
C1146 H1153 0.930 . S
N1147 Zn1131 2.119 . S
N1147 C1143 1.328 . S
N1147 C1146 1.334 . S
N1148 C1144 1.331 . S
N1148 C1145 1.329 . S
H1149 C1143 0.930 . S
C1150 O1130 1.257 . S
C1150 O1151 1.244 . S
O1151 C1150 1.244 . S
O1152 C1128 1.225 1_565 S
O1152 Zn1131 2.019 . S
H1153 C1146 0.930 . S
H1154 C1133 0.930 1_545 S
H1155 C1145 0.930 . S
Zn1156 N1160 2.020 . S
Zn1156 O1164 2.019 . S
Zn1156 N1166 2.119 . S
Zn1156 O1174 1.975 . S
C1157 N1158 1.334 . S
C1157 N1161 1.336 . S
N1158 C1157 1.334 . S
N1158 C1159 1.334 . S
C1159 N1158 1.334 . S
C1159 N1160 1.336 . S
N1160 Zn1156 2.020 . S
N1160 C1159 1.336 . S
N1160 N1161 1.354 . S
N1161 C1157 1.336 . S
N1161 N1160 1.354 . S
N1161 Zn1165 2.020 . S
C1162 O1163 1.244 . S
C1162 O1186 1.257 . S
O1163 C1162 1.244 . S
O1164 Zn1156 2.019 . S
O1164 C1184 1.257 . S
Zn1165 N1161 2.020 . S
Zn1165 O1172 1.975 . S
Zn1165 N1181 2.119 . S
Zn1165 O1186 2.019 . S
N1166 Zn1156 2.119 . S
N1166 C1168 1.334 . S
N1166 C1169 1.328 . S
C1167 C1168 1.391 . S
C1167 N1170 1.329 . S
C1167 H1188 0.930 . S
C1168 N1166 1.334 . S
C1168 C1167 1.391 . S
C1168 H1175 0.930 . S
C1169 N1166 1.328 . S
C1169 C1171 1.392 . S
C1169 H1176 0.930 . S
N1170 C1167 1.329 . S
N1170 C1171 1.331 . S
C1171 C1169 1.392 . S
C1171 N1170 1.331 . S
O1172 Zn1165 1.975 . S
O1172 C1173 1.252 . S
C1173 O1172 1.252 . S
C1173 O1174 1.252 . S
O1174 Zn1156 1.975 . S
O1174 C1173 1.252 . S
H1175 C1168 0.930 . S
H1176 C1169 0.930 . S
C1177 C1178 1.392 . S
C1177 N1181 1.328 . S
C1177 H1183 0.930 . S
C1178 C1177 1.392 . S
C1178 N1182 1.331 . S
C1179 C1180 1.391 . S
C1179 N1182 1.329 . S
C1179 H1189 0.930 . S
C1180 C1179 1.391 . S
C1180 N1181 1.334 . S
C1180 H1187 0.930 . S
N1181 Zn1165 2.119 . S
N1181 C1177 1.328 . S
N1181 C1180 1.334 . S
N1182 C1178 1.331 . S
N1182 C1179 1.329 . S
H1183 C1177 0.930 . S
C1184 O1164 1.257 . S
C1184 O1185 1.244 . S
O1185 C1184 1.244 . S
O1186 C1162 1.257 . S
O1186 Zn1165 2.019 . S
H1187 C1180 0.930 . S
H1188 C1167 0.930 . S
H1189 C1179 0.930 . S
Zn1190 N1194 2.020 . S
Zn1190 O1198 2.019 . S
Zn1190 N1200 2.119 . S
Zn1190 O1208 1.975 . S
C1191 N1192 1.334 . S
C1191 N1195 1.336 . S
N1192 C1191 1.334 . S
N1192 C1193 1.334 . S
C1193 N1192 1.334 . S
C1193 N1194 1.336 . S
N1194 Zn1190 2.020 . S
N1194 C1193 1.336 . S
N1194 N1195 1.354 . S
N1195 C1191 1.336 . S
N1195 N1194 1.354 . S
N1195 Zn1199 2.020 . S
C1196 O1197 1.244 . S
C1196 O1220 1.257 . S
O1197 C1196 1.244 . S
O1198 Zn1190 2.019 . S
O1198 C1218 1.257 . S
Zn1199 N1195 2.020 . S
Zn1199 O1206 1.975 . S
Zn1199 N1215 2.119 . S
Zn1199 O1220 2.019 . S
N1200 Zn1190 2.119 . S
N1200 C1202 1.334 . S
N1200 C1203 1.328 . S
C1201 C1202 1.391 . S
C1201 N1204 1.329 . S
C1201 H1222 0.930 . S
C1202 N1200 1.334 . S
C1202 C1201 1.391 . S
C1202 H1209 0.930 . S
C1203 N1200 1.328 . S
C1203 C1205 1.392 . S
C1203 H1210 0.930 . S
N1204 C1201 1.329 . S
N1204 C1205 1.331 . S
C1205 C1203 1.392 . S
C1205 N1204 1.331 . S
O1206 Zn1199 1.975 . S
O1206 C1207 1.252 . S
C1207 O1206 1.252 . S
C1207 O1208 1.252 . S
O1208 Zn1190 1.975 . S
O1208 C1207 1.252 . S
H1209 C1202 0.930 . S
H1210 C1203 0.930 . S
C1211 C1212 1.392 . S
C1211 N1215 1.328 . S
C1211 H1217 0.930 . S
C1212 C1211 1.392 . S
C1212 N1216 1.331 . S
C1213 C1214 1.391 . S
C1213 N1216 1.329 . S
C1213 H1223 0.930 . S
C1214 C1213 1.391 . S
C1214 N1215 1.334 . S
C1214 H1221 0.930 . S
N1215 Zn1199 2.119 . S
N1215 C1211 1.328 . S
N1215 C1214 1.334 . S
N1216 C1212 1.331 . S
N1216 C1213 1.329 . S
H1217 C1211 0.930 . S
C1218 O1198 1.257 . S
C1218 O1219 1.244 . S
O1219 C1218 1.244 . S
O1220 C1196 1.257 . S
O1220 Zn1199 2.019 . S
H1221 C1214 0.930 . S
H1222 C1201 0.930 . S
H1223 C1213 0.930 . S
Zn1224 N1228 2.020 . S
Zn1224 O1232 2.019 . S
Zn1224 N1234 2.119 . S
Zn1224 O1242 1.975 . S
C1225 N1226 1.334 . S
C1225 N1229 1.336 . S
N1226 C1225 1.334 . S
N1226 C1227 1.334 . S
C1227 N1226 1.334 . S
C1227 N1228 1.336 . S
N1228 Zn1224 2.020 . S
N1228 C1227 1.336 . S
N1228 N1229 1.354 . S
N1229 C1225 1.336 . S
N1229 N1228 1.354 . S
N1229 Zn1233 2.020 . S
C1230 O1231 1.244 . S
C1230 O1254 1.257 . S
O1231 C1230 1.244 . S
O1232 Zn1224 2.019 . S
O1232 C1252 1.257 . S
Zn1233 N1229 2.020 . S
Zn1233 O1240 1.975 . S
Zn1233 N1249 2.119 . S
Zn1233 O1254 2.019 . S
N1234 Zn1224 2.119 . S
N1234 C1236 1.334 . S
N1234 C1237 1.328 . S
C1235 C1236 1.391 . S
C1235 N1238 1.329 . S
C1235 H1256 0.930 . S
C1236 N1234 1.334 . S
C1236 C1235 1.391 . S
C1236 H1243 0.930 . S
C1237 N1234 1.328 . S
C1237 C1239 1.392 . S
C1237 H1244 0.930 . S
N1238 C1235 1.329 . S
N1238 C1239 1.331 . S
C1239 C1237 1.392 . S
C1239 N1238 1.331 . S
O1240 Zn1233 1.975 . S
O1240 C1241 1.252 . S
C1241 O1240 1.252 . S
C1241 O1242 1.252 . S
O1242 Zn1224 1.975 . S
O1242 C1241 1.252 . S
H1243 C1236 0.930 . S
H1244 C1237 0.930 . S
C1245 C1246 1.392 . S
C1245 N1249 1.328 . S
C1245 H1251 0.930 . S
C1246 C1245 1.392 . S
C1246 N1250 1.331 . S
C1247 C1248 1.391 . S
C1247 N1250 1.329 . S
C1247 H1257 0.930 . S
C1248 C1247 1.391 . S
C1248 N1249 1.334 . S
C1248 H1255 0.930 . S
N1249 Zn1233 2.119 . S
N1249 C1245 1.328 . S
N1249 C1248 1.334 . S
N1250 C1246 1.331 . S
N1250 C1247 1.329 . S
H1251 C1245 0.930 . S
C1252 O1232 1.257 . S
C1252 O1253 1.244 . S
O1253 C1252 1.244 . S
O1254 C1230 1.257 . S
O1254 Zn1233 2.019 . S
H1255 C1248 0.930 . S
H1256 C1235 0.930 . S
H1257 C1247 0.930 . S
Zn1258 N1262 2.020 . S
Zn1258 O1266 2.019 . S
Zn1258 N1268 2.119 . S
Zn1258 O1276 1.975 . S
C1259 N1260 1.334 . S
C1259 N1263 1.336 . S
N1260 C1259 1.334 . S
N1260 C1261 1.334 . S
C1261 N1260 1.334 . S
C1261 N1262 1.336 . S
N1262 Zn1258 2.020 . S
N1262 C1261 1.336 . S
N1262 N1263 1.354 . S
N1263 C1259 1.336 . S
N1263 N1262 1.354 . S
N1263 Zn1267 2.020 . S
C1264 O1265 1.244 . S
C1264 O1288 1.257 . S
O1265 C1264 1.244 . S
O1266 Zn1258 2.019 . S
O1266 C1286 1.225 1_565 S
Zn1267 N1263 2.020 . S
Zn1267 O1274 1.975 . S
Zn1267 N1283 2.119 . S
Zn1267 O1288 2.019 . S
N1268 Zn1258 2.119 . S
N1268 C1270 1.334 . S
N1268 C1271 1.328 . S
C1269 C1270 1.391 . S
C1269 N1272 1.329 . S
C1269 H1290 0.930 . S
C1270 N1268 1.334 . S
C1270 C1269 1.391 . S
C1270 H1277 0.930 . S
C1271 N1268 1.328 . S
C1271 C1273 1.392 . S
C1271 H1278 0.930 . S
N1272 C1269 1.329 . S
N1272 C1273 1.331 . S
C1273 C1271 1.392 . S
C1273 N1272 1.331 . S
O1274 Zn1267 1.975 . S
O1274 C1275 1.252 . S
C1275 O1274 1.252 . S
C1275 O1276 1.252 . S
O1276 Zn1258 1.975 . S
O1276 C1275 1.252 . S
H1277 C1270 0.930 . S
H1278 C1271 0.930 . S
C1279 C1280 1.392 . S
C1279 N1283 1.328 . S
C1279 H1285 0.930 . S
C1280 C1279 1.392 . S
C1280 N1284 1.331 . S
C1281 C1282 1.391 . S
C1281 N1284 1.329 . S
C1281 H1291 0.930 1_565 S
C1282 C1281 1.391 . S
C1282 N1283 1.334 . S
C1282 H1289 0.930 . S
N1283 Zn1267 2.119 . S
N1283 C1279 1.328 . S
N1283 C1282 1.334 . S
N1284 C1280 1.331 . S
N1284 C1281 1.329 . S
H1285 C1279 0.930 . S
C1286 O1266 1.225 1_545 S
C1286 O1287 1.249 . S
O1287 C1286 1.249 . S
O1288 C1264 1.257 . S
O1288 Zn1267 2.019 . S
H1289 C1282 0.930 . S
H1290 C1269 0.930 . S
H1291 C1281 0.930 1_545 S
Zn1292 N1296 2.020 . S
Zn1292 O1300 2.019 . S
Zn1292 N1302 2.119 . S
Zn1292 O1310 1.975 . S
C1293 N1294 1.334 . S
C1293 N1297 1.336 . S
N1294 C1293 1.334 . S
N1294 C1295 1.334 . S
C1295 N1294 1.334 . S
C1295 N1296 1.336 . S
N1296 Zn1292 2.020 . S
N1296 C1295 1.336 . S
N1296 N1297 1.354 . S
N1297 C1293 1.336 . S
N1297 N1296 1.354 . S
N1297 Zn1301 2.020 . S
C1298 O1299 1.244 . S
C1298 O1322 1.257 . S
O1299 C1298 1.244 . S
O1300 Zn1292 2.019 . S
O1300 C1320 1.257 . S
Zn1301 N1297 2.020 . S
Zn1301 O1308 1.975 . S
Zn1301 N1317 2.119 . S
Zn1301 O1322 2.019 . S
N1302 Zn1292 2.119 . S
N1302 C1304 1.334 . S
N1302 C1305 1.328 . S
C1303 C1304 1.391 . S
C1303 N1306 1.329 . S
C1303 H1324 0.930 . S
C1304 N1302 1.334 . S
C1304 C1303 1.391 . S
C1304 H1311 0.930 . S
C1305 N1302 1.328 . S
C1305 C1307 1.392 . S
C1305 H1312 0.930 . S
N1306 C1303 1.329 . S
N1306 C1307 1.331 . S
C1307 C1305 1.392 . S
C1307 N1306 1.331 . S
O1308 Zn1301 1.975 . S
O1308 C1309 1.252 . S
C1309 O1308 1.252 . S
C1309 O1310 1.252 . S
O1310 Zn1292 1.975 . S
O1310 C1309 1.252 . S
H1311 C1304 0.930 . S
H1312 C1305 0.930 . S
C1313 C1314 1.392 . S
C1313 N1317 1.328 . S
C1313 H1319 0.930 . S
C1314 C1313 1.392 . S
C1314 N1318 1.331 . S
C1315 C1316 1.391 . S
C1315 N1318 1.329 . S
C1315 H1325 0.930 . S
C1316 C1315 1.391 . S
C1316 N1317 1.334 . S
C1316 H1323 0.930 . S
N1317 Zn1301 2.119 . S
N1317 C1313 1.328 . S
N1317 C1316 1.334 . S
N1318 C1314 1.331 . S
N1318 C1315 1.329 . S
H1319 C1313 0.930 . S
C1320 O1300 1.257 . S
C1320 O1321 1.244 . S
O1321 C1320 1.244 . S
O1322 C1298 1.257 . S
O1322 Zn1301 2.019 . S
H1323 C1316 0.930 . S
H1324 C1303 0.930 . S
H1325 C1315 0.930 . S
Zn1326 N1330 2.020 . S
Zn1326 O1334 2.019 . S
Zn1326 N1336 2.119 . S
Zn1326 O1344 1.975 . S
C1327 N1328 1.334 . S
C1327 N1331 1.336 . S
N1328 C1327 1.334 . S
N1328 C1329 1.334 . S
C1329 N1328 1.334 . S
C1329 N1330 1.336 . S
N1330 Zn1326 2.020 . S
N1330 C1329 1.336 . S
N1330 N1331 1.354 . S
N1331 C1327 1.336 . S
N1331 N1330 1.354 . S
N1331 Zn1335 2.020 . S
C1332 O1333 1.244 . S
C1332 O1356 1.257 . S
O1333 C1332 1.244 . S
O1334 Zn1326 2.019 . S
O1334 C1354 1.257 . S
Zn1335 N1331 2.020 . S
Zn1335 O1342 1.975 . S
Zn1335 N1351 2.119 . S
Zn1335 O1356 2.019 . S
N1336 Zn1326 2.119 . S
N1336 C1338 1.334 . S
N1336 C1339 1.328 . S
C1337 C1338 1.391 . S
C1337 N1340 1.329 . S
C1337 H1358 0.930 . S
C1338 N1336 1.334 . S
C1338 C1337 1.391 . S
C1338 H1345 0.930 . S
C1339 N1336 1.328 . S
C1339 C1341 1.392 . S
C1339 H1346 0.930 . S
N1340 C1337 1.329 . S
N1340 C1341 1.331 . S
C1341 C1339 1.392 . S
C1341 N1340 1.331 . S
O1342 Zn1335 1.975 . S
O1342 C1343 1.252 . S
C1343 O1342 1.252 . S
C1343 O1344 1.252 . S
O1344 Zn1326 1.975 . S
O1344 C1343 1.252 . S
H1345 C1338 0.930 . S
H1346 C1339 0.930 . S
C1347 C1348 1.392 . S
C1347 N1351 1.328 . S
C1347 H1353 0.930 . S
C1348 C1347 1.392 . S
C1348 N1352 1.331 . S
C1349 C1350 1.391 . S
C1349 N1352 1.329 . S
C1349 H1359 0.930 . S
C1350 C1349 1.391 . S
C1350 N1351 1.334 . S
C1350 H1357 0.930 . S
N1351 Zn1335 2.119 . S
N1351 C1347 1.328 . S
N1351 C1350 1.334 . S
N1352 C1348 1.331 . S
N1352 C1349 1.329 . S
H1353 C1347 0.930 . S
C1354 O1334 1.257 . S
C1354 O1355 1.244 . S
O1355 C1354 1.244 . S
O1356 C1332 1.257 . S
O1356 Zn1335 2.019 . S
H1357 C1350 0.930 . S
H1358 C1337 0.930 . S
H1359 C1349 0.930 . S
Zn1360 N1364 2.020 . S
Zn1360 O1368 2.019 . S
Zn1360 N1370 2.119 . S
Zn1360 O1378 1.975 . S
C1361 N1362 1.334 . S
C1361 N1365 1.336 . S
N1362 C1361 1.334 . S
N1362 C1363 1.334 . S
C1363 N1362 1.334 . S
C1363 N1364 1.336 . S
N1364 Zn1360 2.020 . S
N1364 C1363 1.336 . S
N1364 N1365 1.354 . S
N1365 C1361 1.336 . S
N1365 N1364 1.354 . S
N1365 Zn1369 2.020 . S
C1366 O1367 1.244 . S
C1366 O1390 1.257 . S
O1367 C1366 1.244 . S
O1368 Zn1360 2.019 . S
O1368 C1388 1.257 . S
Zn1369 N1365 2.020 . S
Zn1369 O1376 1.975 . S
Zn1369 N1385 2.119 . S
Zn1369 O1390 2.019 . S
N1370 Zn1360 2.119 . S
N1370 C1372 1.334 . S
N1370 C1373 1.328 . S
C1371 C1372 1.391 . S
C1371 N1374 1.329 . S
C1371 H1392 0.930 . S
C1372 N1370 1.334 . S
C1372 C1371 1.391 . S
C1372 H1379 0.930 . S
C1373 N1370 1.328 . S
C1373 C1375 1.392 . S
C1373 H1380 0.930 . S
N1374 C1371 1.329 . S
N1374 C1375 1.331 . S
C1375 C1373 1.392 . S
C1375 N1374 1.331 . S
O1376 Zn1369 1.975 . S
O1376 C1377 1.252 . S
C1377 O1376 1.252 . S
C1377 O1378 1.252 . S
O1378 Zn1360 1.975 . S
O1378 C1377 1.252 . S
H1379 C1372 0.930 . S
H1380 C1373 0.930 . S
C1381 C1382 1.392 . S
C1381 N1385 1.328 . S
C1381 H1387 0.930 . S
C1382 C1381 1.392 . S
C1382 N1386 1.331 . S
C1383 C1384 1.391 . S
C1383 N1386 1.329 . S
C1383 H1393 0.930 . S
C1384 C1383 1.391 . S
C1384 N1385 1.334 . S
C1384 H1391 0.930 . S
N1385 Zn1369 2.119 . S
N1385 C1381 1.328 . S
N1385 C1384 1.334 . S
N1386 C1382 1.331 . S
N1386 C1383 1.329 . S
H1387 C1381 0.930 . S
C1388 O1368 1.257 . S
C1388 O1389 1.244 . S
O1389 C1388 1.244 . S
O1390 C1366 1.257 . S
O1390 Zn1369 2.019 . S
H1391 C1384 0.930 . S
H1392 C1371 0.930 . S
H1393 C1383 0.930 . S
Zn1394 N1398 2.020 . S
Zn1394 O1402 2.019 . S
Zn1394 N1404 2.119 . S
Zn1394 O1412 1.975 . S
C1395 N1396 1.334 . S
C1395 N1399 1.336 . S
N1396 C1395 1.334 . S
N1396 C1397 1.334 . S
C1397 N1396 1.334 . S
C1397 N1398 1.336 . S
N1398 Zn1394 2.020 . S
N1398 C1397 1.336 . S
N1398 N1399 1.354 . S
N1399 C1395 1.336 . S
N1399 N1398 1.354 . S
N1399 Zn1403 2.020 . S
C1400 O1401 1.244 . S
C1400 O1424 1.257 . S
O1401 C1400 1.244 . S
O1402 Zn1394 2.019 . S
O1402 C1422 1.257 . S
Zn1403 N1399 2.020 . S
Zn1403 O1410 1.975 . S
Zn1403 N1419 2.119 . S
Zn1403 O1424 2.019 . S
N1404 Zn1394 2.119 . S
N1404 C1406 1.334 . S
N1404 C1407 1.328 . S
C1405 C1406 1.391 . S
C1405 N1408 1.329 . S
C1405 H1426 0.930 . S
C1406 N1404 1.334 . S
C1406 C1405 1.391 . S
C1406 H1413 0.930 . S
C1407 N1404 1.328 . S
C1407 C1409 1.392 . S
C1407 H1414 0.930 . S
N1408 C1405 1.329 . S
N1408 C1409 1.331 . S
C1409 C1407 1.392 . S
C1409 N1408 1.331 . S
O1410 Zn1403 1.975 . S
O1410 C1411 1.252 . S
C1411 O1410 1.252 . S
C1411 O1412 1.252 . S
O1412 Zn1394 1.975 . S
O1412 C1411 1.252 . S
H1413 C1406 0.930 . S
H1414 C1407 0.930 . S
C1415 C1416 1.392 . S
C1415 N1419 1.328 . S
C1415 H1421 0.930 . S
C1416 C1415 1.392 . S
C1416 N1420 1.331 . S
C1417 C1418 1.391 . S
C1417 N1420 1.329 . S
C1417 H1427 0.930 . S
C1418 C1417 1.391 . S
C1418 N1419 1.334 . S
C1418 H1425 0.930 . S
N1419 Zn1403 2.119 . S
N1419 C1415 1.328 . S
N1419 C1418 1.334 . S
N1420 C1416 1.331 . S
N1420 C1417 1.329 . S
H1421 C1415 0.930 . S
C1422 O1402 1.257 . S
C1422 O1423 1.244 . S
O1423 C1422 1.244 . S
O1424 C1400 1.257 . S
O1424 Zn1403 2.019 . S
H1425 C1418 0.930 . S
H1426 C1405 0.930 . S
H1427 C1417 0.930 . S
Zn1428 N1432 2.020 . S
Zn1428 O1436 2.019 . S
Zn1428 N1438 2.119 . S
Zn1428 O1446 1.975 . S
C1429 N1430 1.334 . S
C1429 N1433 1.336 . S
N1430 C1429 1.334 . S
N1430 C1431 1.334 . S
C1431 N1430 1.334 . S
C1431 N1432 1.336 . S
N1432 Zn1428 2.020 . S
N1432 C1431 1.336 . S
N1432 N1433 1.354 . S
N1433 C1429 1.336 . S
N1433 N1432 1.354 . S
N1433 Zn1437 2.020 . S
C1434 O1435 1.244 . S
C1434 O1458 1.257 . S
O1435 C1434 1.244 . S
O1436 Zn1428 2.019 . S
O1436 C1456 1.257 . S
Zn1437 N1433 2.020 . S
Zn1437 O1444 1.975 . S
Zn1437 N1453 2.119 . S
Zn1437 O1458 2.019 . S
N1438 Zn1428 2.119 . S
N1438 C1440 1.334 . S
N1438 C1441 1.328 . S
C1439 C1440 1.391 . S
C1439 N1442 1.329 . S
C1439 H1460 0.930 . S
C1440 N1438 1.334 . S
C1440 C1439 1.391 . S
C1440 H1447 0.930 . S
C1441 N1438 1.328 . S
C1441 C1443 1.392 . S
C1441 H1448 0.930 . S
N1442 C1439 1.329 . S
N1442 C1443 1.331 . S
C1443 C1441 1.392 . S
C1443 N1442 1.331 . S
O1444 Zn1437 1.975 . S
O1444 C1445 1.252 . S
C1445 O1444 1.252 . S
C1445 O1446 1.252 . S
O1446 Zn1428 1.975 . S
O1446 C1445 1.252 . S
H1447 C1440 0.930 . S
H1448 C1441 0.930 . S
C1449 C1450 1.392 . S
C1449 N1453 1.328 1_545 S
C1449 H1455 0.930 . S
C1450 C1449 1.392 . S
C1450 N1454 1.331 . S
C1451 C1452 1.391 . S
C1451 N1454 1.329 1_565 S
C1451 H1461 0.930 . S
C1452 C1451 1.391 . S
C1452 N1453 1.334 . S
C1452 H1459 0.930 . S
N1453 Zn1437 2.119 . S
N1453 C1449 1.328 1_565 S
N1453 C1452 1.334 . S
N1454 C1450 1.331 . S
N1454 C1451 1.329 1_545 S
H1455 C1449 0.930 . S
C1456 O1436 1.257 . S
C1456 O1457 1.244 . S
O1457 C1456 1.244 . S
O1458 C1434 1.257 . S
O1458 Zn1437 2.019 . S
H1459 C1452 0.930 . S
H1460 C1439 0.930 . S
H1461 C1451 0.930 . S
Zn1462 N1466 2.020 . S
Zn1462 O1470 2.019 . S
Zn1462 N1472 2.119 . S
Zn1462 O1480 1.975 . S
C1463 N1464 1.334 . S
C1463 N1467 1.336 . S
N1464 C1463 1.334 . S
N1464 C1465 1.334 . S
C1465 N1464 1.334 . S
C1465 N1466 1.336 . S
N1466 Zn1462 2.020 . S
N1466 C1465 1.336 . S
N1466 N1467 1.354 . S
N1467 C1463 1.336 . S
N1467 N1466 1.354 . S
N1467 Zn1471 2.020 . S
C1468 O1469 1.244 . S
C1468 O1492 1.257 . S
O1469 C1468 1.244 . S
O1470 Zn1462 2.019 . S
O1470 C1490 1.257 . S
Zn1471 N1467 2.020 . S
Zn1471 O1478 1.975 . S
Zn1471 N1487 2.119 . S
Zn1471 O1492 2.019 . S
N1472 Zn1462 2.119 . S
N1472 C1474 1.334 . S
N1472 C1475 1.328 . S
C1473 C1474 1.391 . S
C1473 N1476 1.329 . S
C1473 H1494 0.930 . S
C1474 N1472 1.334 . S
C1474 C1473 1.391 . S
C1474 H1481 0.930 . S
C1475 N1472 1.328 . S
C1475 C1477 1.392 . S
C1475 H1482 0.930 . S
N1476 C1473 1.329 . S
N1476 C1477 1.331 . S
C1477 C1475 1.392 . S
C1477 N1476 1.331 . S
O1478 Zn1471 1.975 . S
O1478 C1479 1.252 . S
C1479 O1478 1.252 . S
C1479 O1480 1.252 . S
O1480 Zn1462 1.975 . S
O1480 C1479 1.252 . S
H1481 C1474 0.930 . S
H1482 C1475 0.930 . S
C1483 C1484 1.392 . S
C1483 N1487 1.328 . S
C1483 H1489 0.930 . S
C1484 C1483 1.392 . S
C1484 N1488 1.331 . S
C1485 C1486 1.391 . S
C1485 N1488 1.329 . S
C1485 H1495 0.930 . S
C1486 C1485 1.391 . S
C1486 N1487 1.334 . S
C1486 H1493 0.930 . S
N1487 Zn1471 2.119 . S
N1487 C1483 1.328 . S
N1487 C1486 1.334 . S
N1488 C1484 1.331 . S
N1488 C1485 1.329 . S
H1489 C1483 0.930 . S
C1490 O1470 1.257 . S
C1490 O1491 1.244 . S
O1491 C1490 1.244 . S
O1492 C1468 1.257 . S
O1492 Zn1471 2.019 . S
H1493 C1486 0.930 . S
H1494 C1473 0.930 . S
H1495 C1485 0.930 . S
Zn1496 N1500 2.020 . S
Zn1496 O1504 2.019 . S
Zn1496 N1506 2.119 . S
Zn1496 O1514 1.975 . S
C1497 N1498 1.334 . S
C1497 N1501 1.336 . S
N1498 C1497 1.334 . S
N1498 C1499 1.334 . S
C1499 N1498 1.334 . S
C1499 N1500 1.336 . S
N1500 Zn1496 2.020 . S
N1500 C1499 1.336 . S
N1500 N1501 1.354 . S
N1501 C1497 1.336 . S
N1501 N1500 1.354 . S
N1501 Zn1505 2.020 . S
C1502 O1503 1.244 . S
C1502 O1526 1.257 . S
O1503 C1502 1.244 . S
O1504 Zn1496 2.019 . S
O1504 C1524 1.225 1_455 S
Zn1505 N1501 2.020 . S
Zn1505 O1512 1.975 . S
Zn1505 N1521 2.119 . S
Zn1505 O1526 2.019 . S
N1506 Zn1496 2.119 . S
N1506 C1508 1.334 . S
N1506 C1509 1.328 . S
C1507 C1508 1.391 . S
C1507 N1510 1.329 . S
C1507 H1528 0.930 . S
C1508 N1506 1.334 . S
C1508 C1507 1.391 . S
C1508 H1515 0.930 . S
C1509 N1506 1.328 . S
C1509 C1511 1.392 . S
C1509 H1516 0.930 . S
N1510 C1507 1.329 . S
N1510 C1511 1.331 . S
C1511 C1509 1.392 . S
C1511 N1510 1.331 . S
O1512 Zn1505 1.975 . S
O1512 C1513 1.252 . S
C1513 O1512 1.252 . S
C1513 O1514 1.252 . S
O1514 Zn1496 1.975 . S
O1514 C1513 1.252 . S
H1515 C1508 0.930 . S
H1516 C1509 0.930 . S
C1517 C1518 1.392 . S
C1517 N1521 1.328 1_565 S
C1517 H1523 0.930 . S
C1518 C1517 1.392 . S
C1518 N1522 1.331 . S
C1519 C1520 1.391 . S
C1519 N1522 1.329 1_545 S
C1519 H1529 0.930 1_455 S
C1520 C1519 1.391 . S
C1520 N1521 1.334 . S
C1520 H1527 0.930 . S
N1521 Zn1505 2.119 . S
N1521 C1517 1.328 1_545 S
N1521 C1520 1.334 . S
N1522 C1518 1.331 . S
N1522 C1519 1.329 1_565 S
H1523 C1517 0.930 . S
C1524 O1504 1.225 1_655 S
C1524 O1525 1.249 . S
O1525 C1524 1.249 . S
O1526 C1502 1.257 . S
O1526 Zn1505 2.019 . S
H1527 C1520 0.930 . S
H1528 C1507 0.930 . S
H1529 C1519 0.930 1_655 S
Zn1530 N1534 2.020 . S
Zn1530 O1538 2.019 . S
Zn1530 N1540 2.119 . S
Zn1530 O1548 1.975 . S
C1531 N1532 1.334 . S
C1531 N1535 1.336 . S
N1532 C1531 1.334 . S
N1532 C1533 1.334 . S
C1533 N1532 1.334 . S
C1533 N1534 1.336 . S
N1534 Zn1530 2.020 . S
N1534 C1533 1.336 . S
N1534 N1535 1.354 . S
N1535 C1531 1.336 . S
N1535 N1534 1.354 . S
N1535 Zn1539 2.020 . S
C1536 O1537 1.244 . S
C1536 O1560 1.257 . S
O1537 C1536 1.244 . S
O1538 Zn1530 2.019 . S
O1538 C1558 1.257 . S
Zn1539 N1535 2.020 . S
Zn1539 O1546 1.975 . S
Zn1539 N1555 2.119 . S
Zn1539 O1560 2.019 . S
N1540 Zn1530 2.119 . S
N1540 C1542 1.334 . S
N1540 C1543 1.328 . S
C1541 C1542 1.391 . S
C1541 N1544 1.329 . S
C1541 H1562 0.930 . S
C1542 N1540 1.334 . S
C1542 C1541 1.391 . S
C1542 H1549 0.930 . S
C1543 N1540 1.328 . S
C1543 C1545 1.392 . S
C1543 H1550 0.930 . S
N1544 C1541 1.329 . S
N1544 C1545 1.331 . S
C1545 C1543 1.392 . S
C1545 N1544 1.331 . S
O1546 Zn1539 1.975 . S
O1546 C1547 1.252 . S
C1547 O1546 1.252 . S
C1547 O1548 1.252 . S
O1548 Zn1530 1.975 . S
O1548 C1547 1.252 . S
H1549 C1542 0.930 . S
H1550 C1543 0.930 . S
C1551 C1552 1.392 . S
C1551 N1555 1.328 . S
C1551 H1557 0.930 . S
C1552 C1551 1.392 . S
C1552 N1556 1.331 . S
C1553 C1554 1.391 . S
C1553 N1556 1.329 . S
C1553 H1563 0.930 . S
C1554 C1553 1.391 . S
C1554 N1555 1.334 . S
C1554 H1561 0.930 . S
N1555 Zn1539 2.119 . S
N1555 C1551 1.328 . S
N1555 C1554 1.334 . S
N1556 C1552 1.331 . S
N1556 C1553 1.329 . S
H1557 C1551 0.930 . S
C1558 O1538 1.257 . S
C1558 O1559 1.244 . S
O1559 C1558 1.244 . S
O1560 C1536 1.257 . S
O1560 Zn1539 2.019 . S
H1561 C1554 0.930 . S
H1562 C1541 0.930 . S
H1563 C1553 0.930 . S
Zn1564 N1568 2.020 . S
Zn1564 O1572 2.019 . S
Zn1564 N1574 2.119 . S
Zn1564 O1582 1.975 . S
C1565 N1566 1.334 . S
C1565 N1569 1.336 . S
N1566 C1565 1.334 . S
N1566 C1567 1.334 . S
C1567 N1566 1.334 . S
C1567 N1568 1.336 . S
N1568 Zn1564 2.020 . S
N1568 C1567 1.336 . S
N1568 N1569 1.354 . S
N1569 C1565 1.336 . S
N1569 N1568 1.354 . S
N1569 Zn1573 2.020 . S
C1570 O1571 1.244 . S
C1570 O1594 1.257 . S
O1571 C1570 1.244 . S
O1572 Zn1564 2.019 . S
O1572 C1592 1.257 . S
Zn1573 N1569 2.020 . S
Zn1573 O1580 1.975 . S
Zn1573 N1589 2.119 . S
Zn1573 O1594 2.019 . S
N1574 Zn1564 2.119 . S
N1574 C1576 1.334 . S
N1574 C1577 1.328 1_545 S
C1575 C1576 1.391 . S
C1575 N1578 1.329 1_545 S
C1575 H1596 0.930 . S
C1576 N1574 1.334 . S
C1576 C1575 1.391 . S
C1576 H1583 0.930 . S
C1577 N1574 1.328 1_565 S
C1577 C1579 1.392 . S
C1577 H1584 0.930 . S
N1578 C1575 1.329 1_565 S
N1578 C1579 1.331 . S
C1579 C1577 1.392 . S
C1579 N1578 1.331 . S
O1580 Zn1573 1.975 . S
O1580 C1581 1.252 . S
C1581 O1580 1.252 . S
C1581 O1582 1.252 . S
O1582 Zn1564 1.975 . S
O1582 C1581 1.252 . S
H1583 C1576 0.930 . S
H1584 C1577 0.930 . S
C1585 C1586 1.392 . S
C1585 N1589 1.328 . S
C1585 H1591 0.930 . S
C1586 C1585 1.392 . S
C1586 N1590 1.331 . S
C1587 C1588 1.391 . S
C1587 N1590 1.329 . S
C1587 H1597 0.930 . S
C1588 C1587 1.391 . S
C1588 N1589 1.334 . S
C1588 H1595 0.930 . S
N1589 Zn1573 2.119 . S
N1589 C1585 1.328 . S
N1589 C1588 1.334 . S
N1590 C1586 1.331 . S
N1590 C1587 1.329 . S
H1591 C1585 0.930 . S
C1592 O1572 1.257 . S
C1592 O1593 1.244 . S
O1593 C1592 1.244 . S
O1594 C1570 1.257 . S
O1594 Zn1573 2.019 . S
H1595 C1588 0.930 . S
H1596 C1575 0.930 . S
H1597 C1587 0.930 . S
Zn1598 N1602 2.020 . S
Zn1598 O1606 2.019 . S
Zn1598 N1608 2.119 . S
Zn1598 O1616 1.975 . S
C1599 N1600 1.334 . S
C1599 N1603 1.336 . S
N1600 C1599 1.334 . S
N1600 C1601 1.334 . S
C1601 N1600 1.334 . S
C1601 N1602 1.336 . S
N1602 Zn1598 2.020 . S
N1602 C1601 1.336 . S
N1602 N1603 1.354 . S
N1603 C1599 1.336 . S
N1603 N1602 1.354 . S
N1603 Zn1607 2.020 . S
C1604 O1605 1.244 . S
C1604 O1628 1.257 . S
O1605 C1604 1.244 . S
O1606 Zn1598 2.019 . S
O1606 C1626 1.257 . S
Zn1607 N1603 2.020 . S
Zn1607 O1614 1.975 . S
Zn1607 N1623 2.119 . S
Zn1607 O1628 2.019 . S
N1608 Zn1598 2.119 . S
N1608 C1610 1.334 . S
N1608 C1611 1.328 . S
C1609 C1610 1.391 . S
C1609 N1612 1.329 . S
C1609 H1630 0.930 . S
C1610 N1608 1.334 . S
C1610 C1609 1.391 . S
C1610 H1617 0.930 . S
C1611 N1608 1.328 . S
C1611 C1613 1.392 . S
C1611 H1618 0.930 . S
N1612 C1609 1.329 . S
N1612 C1613 1.331 . S
C1613 C1611 1.392 . S
C1613 N1612 1.331 . S
O1614 Zn1607 1.975 . S
O1614 C1615 1.252 . S
C1615 O1614 1.252 . S
C1615 O1616 1.252 . S
O1616 Zn1598 1.975 . S
O1616 C1615 1.252 . S
H1617 C1610 0.930 . S
H1618 C1611 0.930 . S
C1619 C1620 1.392 . S
C1619 N1623 1.328 . S
C1619 H1625 0.930 . S
C1620 C1619 1.392 . S
C1620 N1624 1.331 . S
C1621 C1622 1.391 . S
C1621 N1624 1.329 . S
C1621 H1631 0.930 . S
C1622 C1621 1.391 . S
C1622 N1623 1.334 . S
C1622 H1629 0.930 . S
N1623 Zn1607 2.119 . S
N1623 C1619 1.328 . S
N1623 C1622 1.334 . S
N1624 C1620 1.331 . S
N1624 C1621 1.329 . S
H1625 C1619 0.930 . S
C1626 O1606 1.257 . S
C1626 O1627 1.244 . S
O1627 C1626 1.244 . S
O1628 C1604 1.257 . S
O1628 Zn1607 2.019 . S
H1629 C1622 0.930 . S
H1630 C1609 0.930 . S
H1631 C1621 0.930 . S
C1632 C1633 1.363 . S
C1632 C1638 1.379 . S
C1632 N1640 1.356 . S
C1633 C1632 1.363 . S
C1633 C1639 1.363 . S
C1634 C1635 1.363 . S
C1634 C1639 1.379 . S
C1634 N1641 1.356 . S
C1635 C1634 1.363 . S
C1635 C1638 1.363 . S
N1636 C1638 1.356 . S
N1636 H1648 0.984 . S
N1636 H1649 0.985 . S
N1637 C1639 1.356 . S
N1637 H1642 0.984 . S
N1637 H1643 0.985 . S
C1638 C1632 1.379 . S
C1638 C1635 1.363 . S
C1638 N1636 1.356 . S
C1639 C1633 1.363 . S
C1639 C1634 1.379 . S
C1639 N1637 1.356 . S
N1640 C1632 1.356 . S
N1640 H1646 0.984 . S
N1640 H1647 0.984 . S
N1641 C1634 1.356 . S
N1641 H1644 0.984 . S
N1641 H1645 0.985 . S
H1642 N1637 0.984 . S
H1643 N1637 0.985 . S
H1644 N1641 0.984 . S
H1645 N1641 0.985 . S
H1646 N1640 0.984 . S
H1647 N1640 0.984 . S
H1648 N1636 0.984 . S
H1649 N1636 0.985 . S
C1650 C1651 1.363 . S
C1650 C1656 1.379 . S
C1650 N1658 1.356 . S
C1651 C1650 1.363 . S
C1651 C1657 1.363 . S
C1652 C1653 1.363 . S
C1652 C1657 1.379 . S
C1652 N1659 1.356 . S
C1653 C1652 1.363 . S
C1653 C1656 1.363 . S
N1654 C1656 1.356 . S
N1654 H1666 0.984 . S
N1654 H1667 0.985 . S
N1655 C1657 1.356 . S
N1655 H1660 0.984 . S
N1655 H1661 0.985 . S
C1656 C1650 1.379 . S
C1656 C1653 1.363 . S
C1656 N1654 1.356 . S
C1657 C1651 1.363 . S
C1657 C1652 1.379 . S
C1657 N1655 1.356 . S
N1658 C1650 1.356 . S
N1658 H1664 0.984 . S
N1658 H1665 0.984 . S
N1659 C1652 1.356 . S
N1659 H1662 0.984 . S
N1659 H1663 0.985 . S
H1660 N1655 0.984 . S
H1661 N1655 0.985 . S
H1662 N1659 0.984 . S
H1663 N1659 0.985 . S
H1664 N1658 0.984 . S
H1665 N1658 0.984 . S
H1666 N1654 0.984 . S
H1667 N1654 0.985 . S
C1668 C1669 1.363 . S
C1668 C1674 1.379 . S
C1668 N1676 1.356 . S
C1669 C1668 1.363 . S
C1669 C1675 1.363 . S
C1670 C1671 1.363 . S
C1670 C1675 1.379 . S
C1670 N1677 1.356 . S
C1671 C1670 1.363 . S
C1671 C1674 1.363 . S
N1672 C1674 1.356 . S
N1672 H1684 0.984 . S
N1672 H1685 0.985 . S
N1673 C1675 1.356 . S
N1673 H1678 0.984 . S
N1673 H1679 0.985 . S
C1674 C1668 1.379 . S
C1674 C1671 1.363 . S
C1674 N1672 1.356 . S
C1675 C1669 1.363 . S
C1675 C1670 1.379 . S
C1675 N1673 1.356 . S
N1676 C1668 1.356 . S
N1676 H1682 0.984 . S
N1676 H1683 0.984 . S
N1677 C1670 1.356 . S
N1677 H1680 0.984 . S
N1677 H1681 0.985 . S
H1678 N1673 0.984 . S
H1679 N1673 0.985 . S
H1680 N1677 0.984 . S
H1681 N1677 0.985 . S
H1682 N1676 0.984 . S
H1683 N1676 0.984 . S
H1684 N1672 0.984 . S
H1685 N1672 0.985 . S
C1686 C1687 1.363 . S
C1686 C1692 1.379 . S
C1686 N1694 1.356 . S
C1687 C1686 1.363 . S
C1687 C1693 1.363 . S
C1688 C1689 1.363 . S
C1688 C1693 1.379 . S
C1688 N1695 1.356 . S
C1689 C1688 1.363 . S
C1689 C1692 1.363 . S
N1690 C1692 1.356 . S
N1690 H1702 0.984 . S
N1690 H1703 0.985 . S
N1691 C1693 1.356 . S
N1691 H1696 0.984 . S
N1691 H1697 0.985 . S
C1692 C1686 1.379 . S
C1692 C1689 1.363 . S
C1692 N1690 1.356 . S
C1693 C1687 1.363 . S
C1693 C1688 1.379 . S
C1693 N1691 1.356 . S
N1694 C1686 1.356 . S
N1694 H1700 0.984 . S
N1694 H1701 0.984 . S
N1695 C1688 1.356 . S
N1695 H1698 0.984 . S
N1695 H1699 0.985 . S
H1696 N1691 0.984 . S
H1697 N1691 0.985 . S
H1698 N1695 0.984 . S
H1699 N1695 0.985 . S
H1700 N1694 0.984 . S
H1701 N1694 0.984 . S
H1702 N1690 0.984 . S
H1703 N1690 0.985 . S
C1704 C1705 1.363 . S
C1704 C1710 1.379 . S
C1704 N1712 1.356 . S
C1705 C1704 1.363 . S
C1705 C1711 1.363 . S
C1706 C1707 1.363 . S
C1706 C1711 1.379 . S
C1706 N1713 1.356 . S
C1707 C1706 1.363 . S
C1707 C1710 1.363 . S
N1708 C1710 1.356 . S
N1708 H1720 0.984 . S
N1708 H1721 0.985 . S
N1709 C1711 1.356 . S
N1709 H1714 0.984 . S
N1709 H1715 0.985 . S
C1710 C1704 1.379 . S
C1710 C1707 1.363 . S
C1710 N1708 1.356 . S
C1711 C1705 1.363 . S
C1711 C1706 1.379 . S
C1711 N1709 1.356 . S
N1712 C1704 1.356 . S
N1712 H1718 0.984 . S
N1712 H1719 0.984 . S
N1713 C1706 1.356 . S
N1713 H1716 0.984 . S
N1713 H1717 0.985 . S
H1714 N1709 0.984 . S
H1715 N1709 0.985 . S
H1716 N1713 0.984 . S
H1717 N1713 0.985 . S
H1718 N1712 0.984 . S
H1719 N1712 0.984 . S
H1720 N1708 0.984 . S
H1721 N1708 0.985 . S
C1722 C1723 1.363 . S
C1722 C1728 1.379 . S
C1722 N1730 1.356 1_455 S
C1723 C1722 1.363 . S
C1723 C1729 1.363 . S
C1724 C1725 1.363 . S
C1724 C1729 1.379 . S
C1724 N1731 1.356 . S
C1725 C1724 1.363 . S
C1725 C1728 1.363 . S
N1726 C1728 1.356 . S
N1726 H1738 0.984 . S
N1726 H1739 0.985 . S
N1727 C1729 1.356 . S
N1727 H1732 0.984 1_455 S
N1727 H1733 0.985 . S
C1728 C1722 1.379 . S
C1728 C1725 1.363 . S
C1728 N1726 1.356 . S
C1729 C1723 1.363 . S
C1729 C1724 1.379 . S
C1729 N1727 1.356 . S
N1730 C1722 1.356 1_655 S
N1730 H1736 0.984 . S
N1730 H1737 0.984 . S
N1731 C1724 1.356 . S
N1731 H1734 0.984 . S
N1731 H1735 0.985 . S
H1732 N1727 0.984 1_655 S
H1733 N1727 0.985 . S
H1734 N1731 0.984 . S
H1735 N1731 0.985 . S
H1736 N1730 0.984 . S
H1737 N1730 0.984 . S
H1738 N1726 0.984 . S
H1739 N1726 0.985 . S
C1740 C1741 1.363 . S
C1740 C1746 1.379 . S
C1740 N1748 1.356 . S
C1741 C1740 1.363 . S
C1741 C1747 1.363 . S
C1742 C1743 1.363 . S
C1742 C1747 1.379 . S
C1742 N1749 1.356 . S
C1743 C1742 1.363 . S
C1743 C1746 1.363 . S
N1744 C1746 1.356 . S
N1744 H1756 0.984 . S
N1744 H1757 0.985 . S
N1745 C1747 1.356 . S
N1745 H1750 0.984 . S
N1745 H1751 0.985 . S
C1746 C1740 1.379 . S
C1746 C1743 1.363 . S
C1746 N1744 1.356 . S
C1747 C1741 1.363 . S
C1747 C1742 1.379 . S
C1747 N1745 1.356 . S
N1748 C1740 1.356 . S
N1748 H1754 0.984 . S
N1748 H1755 0.984 . S
N1749 C1742 1.356 . S
N1749 H1752 0.984 . S
N1749 H1753 0.985 . S
H1750 N1745 0.984 . S
H1751 N1745 0.985 . S
H1752 N1749 0.984 . S
H1753 N1749 0.985 . S
H1754 N1748 0.984 . S
H1755 N1748 0.984 . S
H1756 N1744 0.984 . S
H1757 N1744 0.985 . S
C1758 C1759 1.363 . S
C1758 C1764 1.379 . S
C1758 N1766 1.356 . S
C1759 C1758 1.363 . S
C1759 C1765 1.363 . S
C1760 C1761 1.363 . S
C1760 C1765 1.379 . S
C1760 N1767 1.356 . S
C1761 C1760 1.363 . S
C1761 C1764 1.363 . S
N1762 C1764 1.356 1_455 S
N1762 H1774 0.984 . S
N1762 H1775 0.985 . S
N1763 C1765 1.356 . S
N1763 H1768 0.984 . S
N1763 H1769 0.985 . S
C1764 C1758 1.379 . S
C1764 C1761 1.363 . S
C1764 N1762 1.356 1_655 S
C1765 C1759 1.363 . S
C1765 C1760 1.379 . S
C1765 N1763 1.356 . S
N1766 C1758 1.356 . S
N1766 H1772 0.984 . S
N1766 H1773 0.984 . S
N1767 C1760 1.356 . S
N1767 H1770 1.009 . S
N1767 H1771 0.985 . S
H1768 N1763 0.984 . S
H1769 N1763 0.985 . S
H1770 N1767 1.009 . S
H1771 N1767 0.985 . S
H1772 N1766 0.984 . S
H1773 N1766 0.984 . S
H1774 N1762 0.984 . S
H1775 N1762 0.985 . S
C1776 C1777 1.363 . S
C1776 C1782 1.379 . S
C1776 N1784 1.356 . S
C1777 C1776 1.363 . S
C1777 C1783 1.363 . S
C1778 C1779 1.363 . S
C1778 C1783 1.379 . S
C1778 N1785 1.356 . S
C1779 C1778 1.363 . S
C1779 C1782 1.363 . S
N1780 C1782 1.356 . S
N1780 H1792 0.984 . S
N1780 H1793 0.985 . S
N1781 C1783 1.356 . S
N1781 H1786 0.984 . S
N1781 H1787 0.985 . S
C1782 C1776 1.379 . S
C1782 C1779 1.363 . S
C1782 N1780 1.356 . S
C1783 C1777 1.363 . S
C1783 C1778 1.379 . S
C1783 N1781 1.356 . S
N1784 C1776 1.356 . S
N1784 H1790 0.984 . S
N1784 H1791 0.984 . S
N1785 C1778 1.356 . S
N1785 H1788 0.984 . S
N1785 H1789 0.985 . S
H1786 N1781 0.984 . S
H1787 N1781 0.985 . S
H1788 N1785 0.984 . S
H1789 N1785 0.985 . S
H1790 N1784 0.984 . S
H1791 N1784 0.984 . S
H1792 N1780 0.984 . S
H1793 N1780 0.985 . S
C1794 C1795 1.363 . S
C1794 C1800 1.379 . S
C1794 N1802 1.356 . S
C1795 C1794 1.363 . S
C1795 C1801 1.363 . S
C1796 C1797 1.363 . S
C1796 C1801 1.379 . S
C1796 N1803 1.356 1_554 S
C1797 C1796 1.363 . S
C1797 C1800 1.363 . S
N1798 C1800 1.356 . S
N1798 H1810 0.984 . S
N1798 H1811 0.985 1_554 S
N1799 C1801 1.356 . S
N1799 H1804 0.984 . S
N1799 H1805 0.985 . S
C1800 C1794 1.379 . S
C1800 C1797 1.363 . S
C1800 N1798 1.356 . S
C1801 C1795 1.363 . S
C1801 C1796 1.379 . S
C1801 N1799 1.356 . S
N1802 C1794 1.356 . S
N1802 H1808 0.984 . S
N1802 H1809 0.984 . S
N1803 C1796 1.356 1_556 S
N1803 H1806 0.984 . S
N1803 H1807 0.985 . S
H1804 N1799 0.984 . S
H1805 N1799 0.985 . S
H1806 N1803 0.984 . S
H1807 N1803 0.985 . S
H1808 N1802 0.984 . S
H1809 N1802 0.984 . S
H1810 N1798 0.984 . S
H1811 N1798 0.985 1_556 S
C1812 C1813 1.363 . S
C1812 C1818 1.379 . S
C1812 N1820 1.356 . S
C1813 C1812 1.363 . S
C1813 C1819 1.363 . S
C1814 C1815 1.363 . S
C1814 C1819 1.379 . S
C1814 N1821 1.356 . S
C1815 C1814 1.363 . S
C1815 C1818 1.363 . S
N1816 C1818 1.356 . S
N1816 H1828 0.984 . S
N1816 H1829 0.985 . S
N1817 C1819 1.356 . S
N1817 H1822 0.984 . S
N1817 H1823 0.985 . S
C1818 C1812 1.379 . S
C1818 C1815 1.363 . S
C1818 N1816 1.356 . S
C1819 C1813 1.363 . S
C1819 C1814 1.379 . S
C1819 N1817 1.356 . S
N1820 C1812 1.356 . S
N1820 H1826 0.984 . S
N1820 H1827 0.984 . S
N1821 C1814 1.356 . S
N1821 H1824 0.984 . S
N1821 H1825 0.985 . S
H1822 N1817 0.984 . S
H1823 N1817 0.985 . S
H1824 N1821 0.984 . S
H1825 N1821 0.985 . S
H1826 N1820 0.984 . S
H1827 N1820 0.984 . S
H1828 N1816 0.984 . S
H1829 N1816 0.985 . S
C1830 C1831 1.363 . S
C1830 C1836 1.379 . S
C1830 N1838 1.356 1_554 S
C1831 C1830 1.363 . S
C1831 C1837 1.363 . S
C1832 C1833 1.363 . S
C1832 C1837 1.379 . S
C1832 N1839 1.356 . S
C1833 C1832 1.363 . S
C1833 C1836 1.363 . S
N1834 C1836 1.356 . S
N1834 H1846 0.984 . S
N1834 H1847 0.985 . S
N1835 C1837 1.356 . S
N1835 H1840 0.984 . S
N1835 H1841 0.985 . S
C1836 C1830 1.379 . S
C1836 C1833 1.363 . S
C1836 N1834 1.356 . S
C1837 C1831 1.363 . S
C1837 C1832 1.379 . S
C1837 N1835 1.356 . S
N1838 C1830 1.356 1_556 S
N1838 H1844 0.984 . S
N1838 H1845 0.984 . S
N1839 C1832 1.356 . S
N1839 H1842 0.984 . S
N1839 H1843 0.985 . S
H1840 N1835 0.984 . S
H1841 N1835 0.985 . S
H1842 N1839 0.984 . S
H1843 N1839 0.985 . S
H1844 N1838 0.984 . S
H1845 N1838 0.984 . S
H1846 N1834 0.984 . S
H1847 N1834 0.985 . S
C1848 C1849 1.363 . S
C1848 C1854 1.379 . S
C1848 N1856 1.356 . S
C1849 C1848 1.363 . S
C1849 C1855 1.363 . S
C1850 C1851 1.363 . S
C1850 C1855 1.379 . S
C1850 N1857 1.356 . S
C1851 C1850 1.363 . S
C1851 C1854 1.363 . S
N1852 C1854 1.356 . S
N1852 H1864 0.984 . S
N1852 H1865 0.985 . S
N1853 C1855 1.356 . S
N1853 H1858 0.984 . S
N1853 H1859 0.985 . S
C1854 C1848 1.379 . S
C1854 C1851 1.363 . S
C1854 N1852 1.356 . S
C1855 C1849 1.363 . S
C1855 C1850 1.379 . S
C1855 N1853 1.356 . S
N1856 C1848 1.356 . S
N1856 H1862 0.984 . S
N1856 H1863 0.984 . S
N1857 C1850 1.356 . S
N1857 H1860 0.984 . S
N1857 H1861 0.985 . S
H1858 N1853 0.984 . S
H1859 N1853 0.985 . S
H1860 N1857 0.984 . S
H1861 N1857 0.985 . S
H1862 N1856 0.984 . S
H1863 N1856 0.984 . S
H1864 N1852 0.984 . S
H1865 N1852 0.985 . S
C1866 C1867 1.363 . S
C1866 C1872 1.379 . S
C1866 N1874 1.356 . S
C1867 C1866 1.363 . S
C1867 C1873 1.363 . S
C1868 C1869 1.363 . S
C1868 C1873 1.379 . S
C1868 N1875 1.356 1_556 S
C1869 C1868 1.363 . S
C1869 C1872 1.363 . S
N1870 C1872 1.356 . S
N1870 H1882 0.984 . S
N1870 H1883 0.985 . S
N1871 C1873 1.356 . S
N1871 H1876 0.984 . S
N1871 H1877 0.985 . S
C1872 C1866 1.379 . S
C1872 C1869 1.363 . S
C1872 N1870 1.356 . S
C1873 C1867 1.363 . S
C1873 C1868 1.379 . S
C1873 N1871 1.356 . S
N1874 C1866 1.356 . S
N1874 H1880 0.984 . S
N1874 H1881 0.984 . S
N1875 C1868 1.356 1_554 S
N1875 H1878 0.984 . S
N1875 H1879 0.985 . S
H1876 N1871 0.984 . S
H1877 N1871 0.985 . S
H1878 N1875 0.984 . S
H1879 N1875 0.985 . S
H1880 N1874 0.984 . S
H1881 N1874 0.984 . S
H1882 N1870 0.984 . S
H1883 N1870 0.985 . S
C1884 C1885 1.363 . S
C1884 C1890 1.379 . S
C1884 N1892 1.356 . S
C1885 C1884 1.363 . S
C1885 C1891 1.363 . S
C1886 C1887 1.363 . S
C1886 C1891 1.379 . S
C1886 N1893 1.356 . S
C1887 C1886 1.363 . S
C1887 C1890 1.363 . S
N1888 C1890 1.356 . S
N1888 H1900 0.984 . S
N1888 H1901 0.985 . S
N1889 C1891 1.356 . S
N1889 H1894 0.984 . S
N1889 H1895 0.985 . S
C1890 C1884 1.379 . S
C1890 C1887 1.363 . S
C1890 N1888 1.356 . S
C1891 C1885 1.363 . S
C1891 C1886 1.379 . S
C1891 N1889 1.356 . S
N1892 C1884 1.356 . S
N1892 H1898 0.984 . S
N1892 H1899 0.984 . S
N1893 C1886 1.356 . S
N1893 H1896 0.984 . S
N1893 H1897 0.985 . S
H1894 N1889 0.984 . S
H1895 N1889 0.985 . S
H1896 N1893 0.984 . S
H1897 N1893 0.985 . S
H1898 N1892 0.984 . S
H1899 N1892 0.984 . S
H1900 N1888 0.984 . S
H1901 N1888 0.985 . S
C1902 C1903 1.363 . S
C1902 C1908 1.379 . S
C1902 N1910 1.356 1_556 S
C1903 C1902 1.363 . S
C1903 C1909 1.363 . S
C1904 C1905 1.363 . S
C1904 C1909 1.379 . S
C1904 N1911 1.356 . S
C1905 C1904 1.363 . S
C1905 C1908 1.363 . S
N1906 C1908 1.356 . S
N1906 H1918 0.984 . S
N1906 H1919 0.985 . S
N1907 C1909 1.356 . S
N1907 H1912 0.984 . S
N1907 H1913 0.985 . S
C1908 C1902 1.379 . S
C1908 C1905 1.363 . S
C1908 N1906 1.356 . S
C1909 C1903 1.363 . S
C1909 C1904 1.379 . S
C1909 N1907 1.356 . S
N1910 C1902 1.356 1_554 S
N1910 H1916 0.984 . S
N1910 H1917 0.984 . S
N1911 C1904 1.356 . S
N1911 H1914 0.984 . S
N1911 H1915 0.985 . S
H1912 N1907 0.984 . S
H1913 N1907 0.985 . S
H1914 N1911 0.984 . S
H1915 N1911 0.985 . S
H1916 N1910 0.984 . S
H1917 N1910 0.984 . S
H1918 N1906 0.984 . S
H1919 N1906 0.985 . S
C1920 C1921 1.363 . S
C1920 C1926 1.379 . S
C1920 N1928 1.356 . S
C1921 C1920 1.363 . S
C1921 C1927 1.363 . S
C1922 C1923 1.363 . S
C1922 C1927 1.379 . S
C1922 N1929 1.356 . S
C1923 C1922 1.363 . S
C1923 C1926 1.363 . S
N1924 C1926 1.356 . S
N1924 H1936 0.984 . S
N1924 H1937 0.985 . S
N1925 C1927 1.356 . S
N1925 H1930 0.984 . S
N1925 H1931 0.985 . S
C1926 C1920 1.379 . S
C1926 C1923 1.363 . S
C1926 N1924 1.356 . S
C1927 C1921 1.363 . S
C1927 C1922 1.379 . S
C1927 N1925 1.356 . S
N1928 C1920 1.356 . S
N1928 H1934 0.984 . S
N1928 H1935 0.984 . S
N1929 C1922 1.356 . S
N1929 H1932 0.984 . S
N1929 H1933 0.985 . S
H1930 N1925 0.984 . S
H1931 N1925 0.985 . S
H1932 N1929 0.984 . S
H1933 N1929 0.985 . S
H1934 N1928 0.984 . S
H1935 N1928 0.984 . S
H1936 N1924 0.984 . S
H1937 N1924 0.985 . S
C1938 C1939 1.363 . S
C1938 C1944 1.379 . S
C1938 N1946 1.356 . S
C1939 C1938 1.363 . S
C1939 C1945 1.363 . S
C1940 C1941 1.363 . S
C1940 C1945 1.379 . S
C1940 N1947 1.356 . S
C1941 C1940 1.363 . S
C1941 C1944 1.363 . S
N1942 C1944 1.356 . S
N1942 H1954 0.984 . S
N1942 H1955 0.985 . S
N1943 C1945 1.356 . S
N1943 H1948 0.984 . S
N1943 H1949 0.985 . S
C1944 C1938 1.379 . S
C1944 C1941 1.363 . S
C1944 N1942 1.356 . S
C1945 C1939 1.363 . S
C1945 C1940 1.379 . S
C1945 N1943 1.356 . S
N1946 C1938 1.356 . S
N1946 H1952 0.984 . S
N1946 H1953 0.984 . S
N1947 C1940 1.356 . S
N1947 H1950 0.984 . S
N1947 H1951 0.985 . S
H1948 N1943 0.984 . S
H1949 N1943 0.985 . S
H1950 N1947 0.984 . S
H1951 N1947 0.985 . S
H1952 N1946 0.984 . S
H1953 N1946 0.984 . S
H1954 N1942 0.984 . S
H1955 N1942 0.985 . S
C1956 C1957 1.363 . S
C1956 C1962 1.379 . S
C1956 N1964 1.356 . S
C1957 C1956 1.363 . S
C1957 C1963 1.363 . S
C1958 C1959 1.363 . S
C1958 C1963 1.379 . S
C1958 N1965 1.356 . S
C1959 C1958 1.363 . S
C1959 C1962 1.363 . S
N1960 C1962 1.356 . S
N1960 H1972 0.984 . S
N1960 H1973 0.985 . S
N1961 C1963 1.356 . S
N1961 H1966 0.984 . S
N1961 H1967 0.985 . S
C1962 C1956 1.379 . S
C1962 C1959 1.363 . S
C1962 N1960 1.356 . S
C1963 C1957 1.363 . S
C1963 C1958 1.379 . S
C1963 N1961 1.356 . S
N1964 C1956 1.356 . S
N1964 H1970 0.984 . S
N1964 H1971 0.984 . S
N1965 C1958 1.356 . S
N1965 H1968 0.984 . S
N1965 H1969 0.985 . S
H1966 N1961 0.984 . S
H1967 N1961 0.985 . S
H1968 N1965 0.984 . S
H1969 N1965 0.985 . S
H1970 N1964 0.984 . S
H1971 N1964 0.984 . S
H1972 N1960 0.984 . S
H1973 N1960 0.985 . S
C1974 C1975 1.363 . S
C1974 C1980 1.379 . S
C1974 N1982 1.356 . S
C1975 C1974 1.363 . S
C1975 C1981 1.363 . S
C1976 C1977 1.363 . S
C1976 C1981 1.379 . S
C1976 N1983 1.356 . S
C1977 C1976 1.363 . S
C1977 C1980 1.363 . S
N1978 C1980 1.356 . S
N1978 H1990 0.984 . S
N1978 H1991 0.985 . S
N1979 C1981 1.356 . S
N1979 H1984 0.984 . S
N1979 H1985 0.985 . S
C1980 C1974 1.379 . S
C1980 C1977 1.363 . S
C1980 N1978 1.356 . S
C1981 C1975 1.363 . S
C1981 C1976 1.379 . S
C1981 N1979 1.356 . S
N1982 C1974 1.356 . S
N1982 H1988 0.984 . S
N1982 H1989 0.984 . S
N1983 C1976 1.356 . S
N1983 H1986 0.984 . S
N1983 H1987 0.985 . S
H1984 N1979 0.984 . S
H1985 N1979 0.985 . S
H1986 N1983 0.984 . S
H1987 N1983 0.985 . S
H1988 N1982 0.984 . S
H1989 N1982 0.984 . S
H1990 N1978 0.984 . S
H1991 N1978 0.985 . S
C1992 C1993 1.363 . S
C1992 C1998 1.379 . S
C1992 N2000 1.356 . S
C1993 C1992 1.363 . S
C1993 C1999 1.363 . S
C1994 C1995 1.363 . S
C1994 C1999 1.379 . S
C1994 N2001 1.356 . S
C1995 C1994 1.363 . S
C1995 C1998 1.363 . S
N1996 C1998 1.356 . S
N1996 H2008 0.984 . S
N1996 H2009 0.985 . S
N1997 C1999 1.356 . S
N1997 H2002 0.984 . S
N1997 H2003 0.985 . S
C1998 C1992 1.379 . S
C1998 C1995 1.363 . S
C1998 N1996 1.356 . S
C1999 C1993 1.363 . S
C1999 C1994 1.379 . S
C1999 N1997 1.356 . S
N2000 C1992 1.356 . S
N2000 H2006 0.984 . S
N2000 H2007 0.984 . S
N2001 C1994 1.356 . S
N2001 H2004 0.984 . S
N2001 H2005 0.985 . S
H2002 N1997 0.984 . S
H2003 N1997 0.985 . S
H2004 N2001 0.984 . S
H2005 N2001 0.985 . S
H2006 N2000 0.984 . S
H2007 N2000 0.984 . S
H2008 N1996 0.984 . S
H2009 N1996 0.985 . S
C2010 C2011 1.363 . S
C2010 C2016 1.379 . S
C2010 N2018 1.356 . S
C2011 C2010 1.363 . S
C2011 C2017 1.363 . S
C2012 C2013 1.363 . S
C2012 C2017 1.379 . S
C2012 N2019 1.356 . S
C2013 C2012 1.363 . S
C2013 C2016 1.363 . S
N2014 C2016 1.356 . S
N2014 H2026 0.984 . S
N2014 H2027 0.985 . S
N2015 C2017 1.356 . S
N2015 H2020 0.984 . S
N2015 H2021 0.985 . S
C2016 C2010 1.379 . S
C2016 C2013 1.363 . S
C2016 N2014 1.356 . S
C2017 C2011 1.363 . S
C2017 C2012 1.379 . S
C2017 N2015 1.356 . S
N2018 C2010 1.356 . S
N2018 H2024 0.984 . S
N2018 H2025 0.984 . S
N2019 C2012 1.356 . S
N2019 H2022 0.984 . S
N2019 H2023 0.985 . S
H2020 N2015 0.984 . S
H2021 N2015 0.985 . S
H2022 N2019 0.984 . S
H2023 N2019 0.985 . S
H2024 N2018 0.984 . S
H2025 N2018 0.984 . S
H2026 N2014 0.984 . S
H2027 N2014 0.985 . S
C2028 C2029 1.363 . S
C2028 C2034 1.379 . S
C2028 N2036 1.356 . S
C2029 C2028 1.363 . S
C2029 C2035 1.363 . S
C2030 C2031 1.363 . S
C2030 C2035 1.379 . S
C2030 N2037 1.356 . S
C2031 C2030 1.363 . S
C2031 C2034 1.363 . S
N2032 C2034 1.356 . S
N2032 H2044 0.984 . S
N2032 H2045 0.985 . S
N2033 C2035 1.356 . S
N2033 H2038 0.984 . S
N2033 H2039 0.985 . S
C2034 C2028 1.379 . S
C2034 C2031 1.363 . S
C2034 N2032 1.356 . S
C2035 C2029 1.363 . S
C2035 C2030 1.379 . S
C2035 N2033 1.356 . S
N2036 C2028 1.356 . S
N2036 H2042 0.984 . S
N2036 H2043 0.984 . S
N2037 C2030 1.356 . S
N2037 H2040 0.984 . S
N2037 H2041 0.985 . S
H2038 N2033 0.984 . S
H2039 N2033 0.985 . S
H2040 N2037 0.984 . S
H2041 N2037 0.985 . S
H2042 N2036 0.984 . S
H2043 N2036 0.984 . S
H2044 N2032 0.984 . S
H2045 N2032 0.985 . S
C2046 C2047 1.363 . S
C2046 C2052 1.379 . S
C2046 N2054 1.356 . S
C2047 C2046 1.363 . S
C2047 C2053 1.363 . S
C2048 C2049 1.363 . S
C2048 C2053 1.379 . S
C2048 N2055 1.356 . S
C2049 C2048 1.363 . S
C2049 C2052 1.363 . S
N2050 C2052 1.356 1_565 S
N2050 H2062 0.984 . S
N2050 H2063 0.985 . S
N2051 C2053 1.356 . S
N2051 H2056 0.984 . S
N2051 H2057 0.985 . S
C2052 C2046 1.379 . S
C2052 C2049 1.363 . S
C2052 N2050 1.356 1_545 S
C2053 C2047 1.363 . S
C2053 C2048 1.379 . S
C2053 N2051 1.356 . S
N2054 C2046 1.356 . S
N2054 H2060 0.984 . S
N2054 H2061 0.984 . S
N2055 C2048 1.356 . S
N2055 H2058 0.984 1_545 S
N2055 H2059 0.985 . S
H2056 N2051 0.984 . S
H2057 N2051 0.985 . S
H2058 N2055 0.984 1_565 S
H2059 N2055 0.985 . S
H2060 N2054 0.984 . S
H2061 N2054 0.984 . S
H2062 N2050 0.984 . S
H2063 N2050 0.985 . S
C2064 C2065 1.363 . S
C2064 C2070 1.379 . S
C2064 N2072 1.356 . S
C2065 C2064 1.363 . S
C2065 C2071 1.363 . S
C2066 C2067 1.363 . S
C2066 C2071 1.379 . S
C2066 N2073 1.356 . S
C2067 C2066 1.363 . S
C2067 C2070 1.363 . S
N2068 C2070 1.356 . S
N2068 H2080 0.984 . S
N2068 H2081 0.985 . S
N2069 C2071 1.356 . S
N2069 H2074 0.984 . S
N2069 H2075 0.985 . S
C2070 C2064 1.379 . S
C2070 C2067 1.363 . S
C2070 N2068 1.356 . S
C2071 C2065 1.363 . S
C2071 C2066 1.379 . S
C2071 N2069 1.356 . S
N2072 C2064 1.356 . S
N2072 H2078 0.984 . S
N2072 H2079 0.984 . S
N2073 C2066 1.356 . S
N2073 H2076 0.984 . S
N2073 H2077 0.985 . S
H2074 N2069 0.984 . S
H2075 N2069 0.985 . S
H2076 N2073 0.984 . S
H2077 N2073 0.985 . S
H2078 N2072 0.984 . S
H2079 N2072 0.984 . S
H2080 N2068 0.984 . S
H2081 N2068 0.985 . S
C2082 C2083 1.363 . S
C2082 C2088 1.379 . S
C2082 N2090 1.356 . S
C2083 C2082 1.363 . S
C2083 C2089 1.363 . S
C2084 C2085 1.363 . S
C2084 C2089 1.379 . S
C2084 N2091 1.356 1_655 S
C2085 C2084 1.363 . S
C2085 C2088 1.363 . S
N2086 C2088 1.356 . S
N2086 H2098 0.984 . S
N2086 H2099 0.985 . S
N2087 C2089 1.356 . S
N2087 H2092 0.984 . S
N2087 H2093 0.985 . S
C2088 C2082 1.379 . S
C2088 C2085 1.363 . S
C2088 N2086 1.356 . S
C2089 C2083 1.363 . S
C2089 C2084 1.379 . S
C2089 N2087 1.356 . S
N2090 C2082 1.356 . S
N2090 H2096 0.984 . S
N2090 H2097 0.984 . S
N2091 C2084 1.356 1_455 S
N2091 H2094 0.984 . S
N2091 H2095 0.985 . S
H2092 N2087 0.984 . S
H2093 N2087 0.985 . S
H2094 N2091 0.984 . S
H2095 N2091 0.985 . S
H2096 N2090 0.984 . S
H2097 N2090 0.984 . S
H2098 N2086 0.984 . S
H2099 N2086 0.985 . S
C2100 C2101 1.363 . S
C2100 C2106 1.379 . S
C2100 N2108 1.356 . S
C2101 C2100 1.363 . S
C2101 C2107 1.363 . S
C2102 C2103 1.363 . S
C2102 C2107 1.379 . S
C2102 N2109 1.356 . S
C2103 C2102 1.363 . S
C2103 C2106 1.363 . S
N2104 C2106 1.356 . S
N2104 H2116 0.984 . S
N2104 H2117 0.985 . S
N2105 C2107 1.356 . S
N2105 H2110 0.984 . S
N2105 H2111 0.985 . S
C2106 C2100 1.379 . S
C2106 C2103 1.363 . S
C2106 N2104 1.356 . S
C2107 C2101 1.363 . S
C2107 C2102 1.379 . S
C2107 N2105 1.356 . S
N2108 C2100 1.356 . S
N2108 H2114 0.984 . S
N2108 H2115 0.984 . S
N2109 C2102 1.356 . S
N2109 H2112 0.984 . S
N2109 H2113 0.985 . S
H2110 N2105 0.984 . S
H2111 N2105 0.985 . S
H2112 N2109 0.984 . S
H2113 N2109 0.985 . S
H2114 N2108 0.984 . S
H2115 N2108 0.984 . S
H2116 N2104 0.984 . S
H2117 N2104 0.985 . S
C2118 C2119 1.363 . S
C2118 C2124 1.379 . S
C2118 N2126 1.356 1_455 S
C2119 C2118 1.363 . S
C2119 C2125 1.363 . S
C2120 C2121 1.363 . S
C2120 C2125 1.379 . S
C2120 N2127 1.356 . S
C2121 C2120 1.363 . S
C2121 C2124 1.363 . S
N2122 C2124 1.356 . S
N2122 H2134 0.984 . S
N2122 H2135 0.985 . S
N2123 C2125 1.356 . S
N2123 H2128 0.984 . S
N2123 H2129 0.985 . S
C2124 C2118 1.379 . S
C2124 C2121 1.363 . S
C2124 N2122 1.356 . S
C2125 C2119 1.363 . S
C2125 C2120 1.379 . S
C2125 N2123 1.356 . S
N2126 C2118 1.356 1_655 S
N2126 H2132 0.984 . S
N2126 H2133 0.984 . S
N2127 C2120 1.356 . S
N2127 H2130 0.984 . S
N2127 H2131 0.985 . S
H2128 N2123 0.984 . S
H2129 N2123 0.985 . S
H2130 N2127 0.984 . S
H2131 N2127 0.985 . S
H2132 N2126 0.984 . S
H2133 N2126 0.984 . S
H2134 N2122 0.984 . S
H2135 N2122 0.985 . S
C2136 C2137 1.363 . S
C2136 C2142 1.379 . S
C2136 N2144 1.356 . S
C2137 C2136 1.363 . S
C2137 C2143 1.363 . S
C2138 C2139 1.363 . S
C2138 C2143 1.379 . S
C2138 N2145 1.356 . S
C2139 C2138 1.363 . S
C2139 C2142 1.363 . S
N2140 C2142 1.356 . S
N2140 H2152 0.984 . S
N2140 H2153 0.985 . S
N2141 C2143 1.356 . S
N2141 H2146 0.984 . S
N2141 H2147 0.985 . S
C2142 C2136 1.379 . S
C2142 C2139 1.363 . S
C2142 N2140 1.356 . S
C2143 C2137 1.363 . S
C2143 C2138 1.379 . S
C2143 N2141 1.356 . S
N2144 C2136 1.356 . S
N2144 H2150 0.984 . S
N2144 H2151 0.984 . S
N2145 C2138 1.356 . S
N2145 H2148 0.984 . S
N2145 H2149 0.985 . S
H2146 N2141 0.984 . S
H2147 N2141 0.985 . S
H2148 N2145 0.984 . S
H2149 N2145 0.985 . S
H2150 N2144 0.984 . S
H2151 N2144 0.984 . S
H2152 N2140 0.984 . S
H2153 N2140 0.985 . S
C2154 C2155 1.363 . S
C2154 C2160 1.379 . S
C2154 N2162 1.356 . S
C2155 C2154 1.363 . S
C2155 C2161 1.363 . S
C2156 C2157 1.363 . S
C2156 C2161 1.379 . S
C2156 N2163 1.356 . S
C2157 C2156 1.363 . S
C2157 C2160 1.363 . S
N2158 C2160 1.356 . S
N2158 H2170 0.984 . S
N2158 H2171 0.985 . S
N2159 C2161 1.356 . S
N2159 H2164 0.984 . S
N2159 H2165 0.985 . S
C2160 C2154 1.379 . S
C2160 C2157 1.363 . S
C2160 N2158 1.356 . S
C2161 C2155 1.363 . S
C2161 C2156 1.379 . S
C2161 N2159 1.356 . S
N2162 C2154 1.356 . S
N2162 H2168 0.984 . S
N2162 H2169 0.984 . S
N2163 C2156 1.356 . S
N2163 H2166 0.984 . S
N2163 H2167 0.985 . S
H2164 N2159 0.984 . S
H2165 N2159 0.985 . S
H2166 N2163 0.984 . S
H2167 N2163 0.985 . S
H2168 N2162 0.984 . S
H2169 N2162 0.984 . S
H2170 N2158 0.984 . S
H2171 N2158 0.985 . S
C2172 C2173 1.363 . S
C2172 C2178 1.379 . S
C2172 N2180 1.356 . S
C2173 C2172 1.363 . S
C2173 C2179 1.363 . S
C2174 C2175 1.363 . S
C2174 C2179 1.379 . S
C2174 N2181 1.356 . S
C2175 C2174 1.363 . S
C2175 C2178 1.363 . S
N2176 C2178 1.356 . S
N2176 H2188 0.984 . S
N2176 H2189 0.985 . S
N2177 C2179 1.356 . S
N2177 H2182 0.984 . S
N2177 H2183 0.985 . S
C2178 C2172 1.379 . S
C2178 C2175 1.363 . S
C2178 N2176 1.356 . S
C2179 C2173 1.363 . S
C2179 C2174 1.379 . S
C2179 N2177 1.356 . S
N2180 C2172 1.356 . S
N2180 H2186 0.984 . S
N2180 H2187 0.984 . S
N2181 C2174 1.356 . S
N2181 H2184 0.984 . S
N2181 H2185 0.985 . S
H2182 N2177 0.984 . S
H2183 N2177 0.985 . S
H2184 N2181 0.984 . S
H2185 N2181 0.985 . S
H2186 N2180 0.984 . S
H2187 N2180 0.984 . S
H2188 N2176 0.984 . S
H2189 N2176 0.985 . S
C2190 C2191 1.363 . S
C2190 C2196 1.379 . S
C2190 N2198 1.356 . S
C2191 C2190 1.363 . S
C2191 C2197 1.363 . S
C2192 C2193 1.363 . S
C2192 C2197 1.379 . S
C2192 N2199 1.356 . S
C2193 C2192 1.363 . S
C2193 C2196 1.363 . S
N2194 C2196 1.356 . S
N2194 H2206 0.984 . S
N2194 H2207 0.985 . S
N2195 C2197 1.356 . S
N2195 H2200 0.984 . S
N2195 H2201 0.985 . S
C2196 C2190 1.379 . S
C2196 C2193 1.363 . S
C2196 N2194 1.356 . S
C2197 C2191 1.363 . S
C2197 C2192 1.379 . S
C2197 N2195 1.356 . S
N2198 C2190 1.356 . S
N2198 H2204 0.984 . S
N2198 H2205 0.984 . S
N2199 C2192 1.356 . S
N2199 H2202 0.984 . S
N2199 H2203 0.985 . S
H2200 N2195 0.984 . S
H2201 N2195 0.985 . S
H2202 N2199 0.984 . S
H2203 N2199 0.985 . S
H2204 N2198 0.984 . S
H2205 N2198 0.984 . S
H2206 N2194 0.984 . S
H2207 N2194 0.985 . S
C2208 C2209 1.363 . S
C2208 C2214 1.379 . S
C2208 N2216 1.356 . S
C2209 C2208 1.363 . S
C2209 C2215 1.363 . S
C2210 C2211 1.363 . S
C2210 C2215 1.379 . S
C2210 N2217 1.356 . S
C2211 C2210 1.363 . S
C2211 C2214 1.363 . S
N2212 C2214 1.356 . S
N2212 H2224 0.984 . S
N2212 H2225 0.985 . S
N2213 C2215 1.356 . S
N2213 H2218 0.984 . S
N2213 H2219 0.985 . S
C2214 C2208 1.379 . S
C2214 C2211 1.363 . S
C2214 N2212 1.356 . S
C2215 C2209 1.363 . S
C2215 C2210 1.379 . S
C2215 N2213 1.356 . S
N2216 C2208 1.356 . S
N2216 H2222 0.984 . S
N2216 H2223 0.984 . S
N2217 C2210 1.356 . S
N2217 H2220 0.984 . S
N2217 H2221 0.985 . S
H2218 N2213 0.984 . S
H2219 N2213 0.985 . S
H2220 N2217 0.984 . S
H2221 N2217 0.985 . S
H2222 N2216 0.984 . S
H2223 N2216 0.984 . S
H2224 N2212 0.984 . S
H2225 N2212 0.985 . S
C2226 C2227 1.363 . S
C2226 C2232 1.379 . S
C2226 N2234 1.356 . S
C2227 C2226 1.363 . S
C2227 C2233 1.363 . S
C2228 C2229 1.363 . S
C2228 C2233 1.379 . S
C2228 N2235 1.356 . S
C2229 C2228 1.363 . S
C2229 C2232 1.363 . S
N2230 C2232 1.356 . S
N2230 H2242 0.984 . S
N2230 H2243 0.985 . S
N2231 C2233 1.356 . S
N2231 H2236 0.984 . S
N2231 H2237 0.985 . S
C2232 C2226 1.379 . S
C2232 C2229 1.363 . S
C2232 N2230 1.356 . S
C2233 C2227 1.363 . S
C2233 C2228 1.379 . S
C2233 N2231 1.356 . S
N2234 C2226 1.356 . S
N2234 H2240 0.984 . S
N2234 H2241 0.984 . S
N2235 C2228 1.356 . S
N2235 H2238 0.984 . S
N2235 H2239 0.985 . S
H2236 N2231 0.984 . S
H2237 N2231 0.985 . S
H2238 N2235 0.984 . S
H2239 N2235 0.985 . S
H2240 N2234 0.984 . S
H2241 N2234 0.984 . S
H2242 N2230 0.984 . S
H2243 N2230 0.985 . S
C2244 C2245 1.363 . S
C2244 C2250 1.379 . S
C2244 N2252 1.356 . S
C2245 C2244 1.363 . S
C2245 C2251 1.363 . S
C2246 C2247 1.363 . S
C2246 C2251 1.379 . S
C2246 N2253 1.356 . S
C2247 C2246 1.363 . S
C2247 C2250 1.363 . S
N2248 C2250 1.356 . S
N2248 H2260 0.984 . S
N2248 H2261 0.985 . S
N2249 C2251 1.356 . S
N2249 H2254 0.984 . S
N2249 H2255 0.985 . S
C2250 C2244 1.379 . S
C2250 C2247 1.363 . S
C2250 N2248 1.356 . S
C2251 C2245 1.363 . S
C2251 C2246 1.379 . S
C2251 N2249 1.356 . S
N2252 C2244 1.356 . S
N2252 H2258 0.984 . S
N2252 H2259 0.984 . S
N2253 C2246 1.356 . S
N2253 H2256 0.984 . S
N2253 H2257 0.985 . S
H2254 N2249 0.984 . S
H2255 N2249 0.985 . S
H2256 N2253 0.984 . S
H2257 N2253 0.985 . S
H2258 N2252 0.984 . S
H2259 N2252 0.984 . S
H2260 N2248 0.984 . S
H2261 N2248 0.985 . S
C2262 C2263 1.363 . S
C2262 C2268 1.379 . S
C2262 N2270 1.356 . S
C2263 C2262 1.363 . S
C2263 C2269 1.363 . S
C2264 C2265 1.363 . S
C2264 C2269 1.379 . S
C2264 N2271 1.356 . S
C2265 C2264 1.363 . S
C2265 C2268 1.363 . S
N2266 C2268 1.356 . S
N2266 H2278 0.984 . S
N2266 H2279 0.985 . S
N2267 C2269 1.356 . S
N2267 H2272 0.984 . S
N2267 H2273 0.985 . S
C2268 C2262 1.379 . S
C2268 C2265 1.363 . S
C2268 N2266 1.356 . S
C2269 C2263 1.363 . S
C2269 C2264 1.379 . S
C2269 N2267 1.356 . S
N2270 C2262 1.356 . S
N2270 H2276 0.984 . S
N2270 H2277 0.984 . S
N2271 C2264 1.356 . S
N2271 H2274 0.984 . S
N2271 H2275 0.985 . S
H2272 N2267 0.984 . S
H2273 N2267 0.985 . S
H2274 N2271 0.984 . S
H2275 N2271 0.985 . S
H2276 N2270 0.984 . S
H2277 N2270 0.984 . S
H2278 N2266 0.984 . S
H2279 N2266 0.985 . S
C2280 C2281 1.363 . S
C2280 C2286 1.379 . S
C2280 N2288 1.356 . S
C2281 C2280 1.363 . S
C2281 C2287 1.363 . S
C2282 C2283 1.363 . S
C2282 C2287 1.379 . S
C2282 N2289 1.356 . S
C2283 C2282 1.363 . S
C2283 C2286 1.363 . S
N2284 C2286 1.356 . S
N2284 H2296 0.984 . S
N2284 H2297 0.985 . S
N2285 C2287 1.356 . S
N2285 H2290 0.984 . S
N2285 H2291 0.985 . S
C2286 C2280 1.379 . S
C2286 C2283 1.363 . S
C2286 N2284 1.356 . S
C2287 C2281 1.363 . S
C2287 C2282 1.379 . S
C2287 N2285 1.356 . S
N2288 C2280 1.356 . S
N2288 H2294 0.984 . S
N2288 H2295 0.984 . S
N2289 C2282 1.356 . S
N2289 H2292 0.984 . S
N2289 H2293 0.985 . S
H2290 N2285 0.984 . S
H2291 N2285 0.985 . S
H2292 N2289 0.984 . S
H2293 N2289 0.985 . S
H2294 N2288 0.984 . S
H2295 N2288 0.984 . S
H2296 N2284 0.984 . S
H2297 N2284 0.985 . S
C2298 C2299 1.363 . S
C2298 C2304 1.379 . S
C2298 N2306 1.356 . S
C2299 C2298 1.363 . S
C2299 C2305 1.363 . S
C2300 C2301 1.363 . S
C2300 C2305 1.379 . S
C2300 N2307 1.356 . S
C2301 C2300 1.363 . S
C2301 C2304 1.363 . S
N2302 C2304 1.356 . S
N2302 H2314 0.984 . S
N2302 H2315 0.985 . S
N2303 C2305 1.356 . S
N2303 H2308 0.984 . S
N2303 H2309 0.985 . S
C2304 C2298 1.379 . S
C2304 C2301 1.363 . S
C2304 N2302 1.356 . S
C2305 C2299 1.363 . S
C2305 C2300 1.379 . S
C2305 N2303 1.356 . S
N2306 C2298 1.356 . S
N2306 H2312 0.984 . S
N2306 H2313 0.984 . S
N2307 C2300 1.356 . S
N2307 H2310 0.984 . S
N2307 H2311 0.985 . S
H2308 N2303 0.984 . S
H2309 N2303 0.985 . S
H2310 N2307 0.984 . S
H2311 N2307 0.985 . S
H2312 N2306 0.984 . S
H2313 N2306 0.984 . S
H2314 N2302 0.984 . S
H2315 N2302 0.985 . S
C2316 C2317 1.363 . S
C2316 C2322 1.379 . S
C2316 N2324 1.356 . S
C2317 C2316 1.363 . S
C2317 C2323 1.363 . S
C2318 C2319 1.363 . S
C2318 C2323 1.379 . S
C2318 N2325 1.356 . S
C2319 C2318 1.363 . S
C2319 C2322 1.363 . S
N2320 C2322 1.356 . S
N2320 H2332 0.984 . S
N2320 H2333 0.985 . S
N2321 C2323 1.356 . S
N2321 H2326 0.984 . S
N2321 H2327 0.985 . S
C2322 C2316 1.379 . S
C2322 C2319 1.363 . S
C2322 N2320 1.356 . S
C2323 C2317 1.363 . S
C2323 C2318 1.379 . S
C2323 N2321 1.356 . S
N2324 C2316 1.356 . S
N2324 H2330 0.984 . S
N2324 H2331 0.984 . S
N2325 C2318 1.356 . S
N2325 H2328 0.984 . S
N2325 H2329 0.985 . S
H2326 N2321 0.984 . S
H2327 N2321 0.985 . S
H2328 N2325 0.984 . S
H2329 N2325 0.985 . S
H2330 N2324 0.984 . S
H2331 N2324 0.984 . S
H2332 N2320 0.984 . S
H2333 N2320 0.985 . S
C2334 C2335 1.363 . S
C2334 C2340 1.379 . S
C2334 N2342 1.356 . S
C2335 C2334 1.363 . S
C2335 C2341 1.363 . S
C2336 C2337 1.363 . S
C2336 C2341 1.379 . S
C2336 N2343 1.356 . S
C2337 C2336 1.363 . S
C2337 C2340 1.363 . S
N2338 C2340 1.356 . S
N2338 H2350 0.984 . S
N2338 H2351 0.985 . S
N2339 C2341 1.356 . S
N2339 H2344 0.984 . S
N2339 H2345 0.985 . S
C2340 C2334 1.379 . S
C2340 C2337 1.363 . S
C2340 N2338 1.356 . S
C2341 C2335 1.363 . S
C2341 C2336 1.379 . S
C2341 N2339 1.356 . S
N2342 C2334 1.356 . S
N2342 H2348 0.984 . S
N2342 H2349 0.984 . S
N2343 C2336 1.356 . S
N2343 H2346 0.984 . S
N2343 H2347 0.985 . S
H2344 N2339 0.984 . S
H2345 N2339 0.985 . S
H2346 N2343 0.984 . S
H2347 N2343 0.985 . S
H2348 N2342 0.984 . S
H2349 N2342 0.984 . S
H2350 N2338 0.984 . S
H2351 N2338 0.985 . S
C2352 C2353 1.363 . S
C2352 C2358 1.379 . S
C2352 N2360 1.356 . S
C2353 C2352 1.363 . S
C2353 C2359 1.363 . S
C2354 C2355 1.363 . S
C2354 C2359 1.379 . S
C2354 N2361 1.356 . S
C2355 C2354 1.363 . S
C2355 C2358 1.363 . S
N2356 C2358 1.356 . S
N2356 H2368 0.984 . S
N2356 H2369 0.985 . S
N2357 C2359 1.356 . S
N2357 H2362 0.984 . S
N2357 H2363 0.985 . S
C2358 C2352 1.379 . S
C2358 C2355 1.363 . S
C2358 N2356 1.356 . S
C2359 C2353 1.363 . S
C2359 C2354 1.379 . S
C2359 N2357 1.356 . S
N2360 C2352 1.356 . S
N2360 H2366 0.984 . S
N2360 H2367 0.984 . S
N2361 C2354 1.356 . S
N2361 H2364 0.984 . S
N2361 H2365 0.985 . S
H2362 N2357 0.984 . S
H2363 N2357 0.985 . S
H2364 N2361 0.984 . S
H2365 N2361 0.985 . S
H2366 N2360 0.984 . S
H2367 N2360 0.984 . S
H2368 N2356 0.984 . S
H2369 N2356 0.985 . S
C2370 C2371 1.363 . S
C2370 C2376 1.379 . S
C2370 N2378 1.356 . S
C2371 C2370 1.363 . S
C2371 C2377 1.363 . S
C2372 C2373 1.363 . S
C2372 C2377 1.379 . S
C2372 N2379 1.356 . S
C2373 C2372 1.363 . S
C2373 C2376 1.363 . S
N2374 C2376 1.356 . S
N2374 H2386 0.984 . S
N2374 H2387 0.985 . S
N2375 C2377 1.356 . S
N2375 H2380 0.984 . S
N2375 H2381 0.985 . S
C2376 C2370 1.379 . S
C2376 C2373 1.363 . S
C2376 N2374 1.356 . S
C2377 C2371 1.363 . S
C2377 C2372 1.379 . S
C2377 N2375 1.356 . S
N2378 C2370 1.356 . S
N2378 H2384 0.984 . S
N2378 H2385 0.984 . S
N2379 C2372 1.356 . S
N2379 H2382 0.984 . S
N2379 H2383 0.985 . S
H2380 N2375 0.984 . S
H2381 N2375 0.985 . S
H2382 N2379 0.984 . S
H2383 N2379 0.985 . S
H2384 N2378 0.984 . S
H2385 N2378 0.984 . S
H2386 N2374 0.984 . S
H2387 N2374 0.985 . S
C2388 C2389 1.363 . S
C2388 C2394 1.379 . S
C2388 N2396 1.356 . S
C2389 C2388 1.363 . S
C2389 C2395 1.363 . S
C2390 C2391 1.363 . S
C2390 C2395 1.379 . S
C2390 N2397 1.356 1_545 S
C2391 C2390 1.363 . S
C2391 C2394 1.363 . S
N2392 C2394 1.356 . S
N2392 H2404 0.984 . S
N2392 H2405 0.985 . S
N2393 C2395 1.356 . S
N2393 H2398 0.984 . S
N2393 H2399 0.985 . S
C2394 C2388 1.379 . S
C2394 C2391 1.363 . S
C2394 N2392 1.356 . S
C2395 C2389 1.363 . S
C2395 C2390 1.379 . S
C2395 N2393 1.356 . S
N2396 C2388 1.356 . S
N2396 H2402 0.984 . S
N2396 H2403 0.984 . S
N2397 C2390 1.356 1_565 S
N2397 H2400 0.984 . S
N2397 H2401 0.985 . S
H2398 N2393 0.984 . S
H2399 N2393 0.985 . S
H2400 N2397 0.984 . S
H2401 N2397 0.985 . S
H2402 N2396 0.984 . S
H2403 N2396 0.984 . S
H2404 N2392 0.984 . S
H2405 N2392 0.985 . S
C2406 C2407 1.363 . S
C2406 C2412 1.379 . S
C2406 N2414 1.356 . S
C2407 C2406 1.363 . S
C2407 C2413 1.363 . S
C2408 C2409 1.363 . S
C2408 C2413 1.379 . S
C2408 N2415 1.356 . S
C2409 C2408 1.363 . S
C2409 C2412 1.363 . S
N2410 C2412 1.356 . S
N2410 H2422 0.984 . S
N2410 H2423 0.985 . S
N2411 C2413 1.356 . S
N2411 H2416 0.984 . S
N2411 H2417 0.985 . S
C2412 C2406 1.379 . S
C2412 C2409 1.363 . S
C2412 N2410 1.356 . S
C2413 C2407 1.363 . S
C2413 C2408 1.379 . S
C2413 N2411 1.356 . S
N2414 C2406 1.356 . S
N2414 H2420 0.984 . S
N2414 H2421 0.984 . S
N2415 C2408 1.356 . S
N2415 H2418 0.984 . S
N2415 H2419 0.985 . S
H2416 N2411 0.984 . S
H2417 N2411 0.985 . S
H2418 N2415 0.984 . S
H2419 N2415 0.985 . S
H2420 N2414 0.984 . S
H2421 N2414 0.984 . S
H2422 N2410 0.984 . S
H2423 N2410 0.985 . S
C2424 C2425 1.363 . S
C2424 C2430 1.379 . S
C2424 N2432 1.356 . S
C2425 C2424 1.363 . S
C2425 C2431 1.363 . S
C2426 C2427 1.363 . S
C2426 C2431 1.379 . S
C2426 N2433 1.356 1_565 S
C2427 C2426 1.363 . S
C2427 C2430 1.363 . S
N2428 C2430 1.356 . S
N2428 H2440 0.984 . S
N2428 H2441 0.985 . S
N2429 C2431 1.356 . S
N2429 H2434 0.984 . S
N2429 H2435 0.985 . S
C2430 C2424 1.379 . S
C2430 C2427 1.363 . S
C2430 N2428 1.356 . S
C2431 C2425 1.363 . S
C2431 C2426 1.379 . S
C2431 N2429 1.356 . S
N2432 C2424 1.356 . S
N2432 H2438 0.984 . S
N2432 H2439 0.984 . S
N2433 C2426 1.356 1_545 S
N2433 H2436 0.984 . S
N2433 H2437 0.985 . S
H2434 N2429 0.984 . S
H2435 N2429 0.985 . S
H2436 N2433 0.984 . S
H2437 N2433 0.985 . S
H2438 N2432 0.984 . S
H2439 N2432 0.984 . S
H2440 N2428 0.984 . S
H2441 N2428 0.985 . S
C2442 C2443 1.363 . S
C2442 C2448 1.379 . S
C2442 N2450 1.356 . S
C2443 C2442 1.363 . S
C2443 C2449 1.363 . S
C2444 C2445 1.363 . S
C2444 C2449 1.379 . S
C2444 N2451 1.356 . S
C2445 C2444 1.363 . S
C2445 C2448 1.363 . S
N2446 C2448 1.356 . S
N2446 H2458 0.984 . S
N2446 H2459 0.985 . S
N2447 C2449 1.356 . S
N2447 H2452 0.984 . S
N2447 H2453 0.985 . S
C2448 C2442 1.379 . S
C2448 C2445 1.363 . S
C2448 N2446 1.356 . S
C2449 C2443 1.363 . S
C2449 C2444 1.379 . S
C2449 N2447 1.356 . S
N2450 C2442 1.356 . S
N2450 H2456 0.984 . S
N2450 H2457 0.984 . S
N2451 C2444 1.356 . S
N2451 H2454 0.984 . S
N2451 H2455 0.985 . S
H2452 N2447 0.984 . S
H2453 N2447 0.985 . S
H2454 N2451 0.984 . S
H2455 N2451 0.985 . S
H2456 N2450 0.984 . S
H2457 N2450 0.984 . S
H2458 N2446 0.984 . S
H2459 N2446 0.985 . S
C2460 C2461 1.363 . S
C2460 C2466 1.379 . S
C2460 N2468 1.356 . S
C2461 C2460 1.363 . S
C2461 C2467 1.363 . S
C2462 C2463 1.363 . S
C2462 C2467 1.379 . S
C2462 N2469 1.356 1_565 S
C2463 C2462 1.363 . S
C2463 C2466 1.363 . S
N2464 C2466 1.356 . S
N2464 H2476 0.984 . S
N2464 H2477 0.985 . S
N2465 C2467 1.356 . S
N2465 H2470 0.984 . S
N2465 H2471 0.985 . S
C2466 C2460 1.379 . S
C2466 C2463 1.363 . S
C2466 N2464 1.356 . S
C2467 C2461 1.363 . S
C2467 C2462 1.379 . S
C2467 N2465 1.356 . S
N2468 C2460 1.356 . S
N2468 H2474 0.984 . S
N2468 H2475 0.984 . S
N2469 C2462 1.356 1_545 S
N2469 H2472 0.984 . S
N2469 H2473 0.985 . S
H2470 N2465 0.984 . S
H2471 N2465 0.985 . S
H2472 N2469 0.984 . S
H2473 N2469 0.985 . S
H2474 N2468 0.984 . S
H2475 N2468 0.984 . S
H2476 N2464 0.984 . S
H2477 N2464 0.985 . S
C2478 C2479 1.363 . S
C2478 C2484 1.379 . S
C2478 N2486 1.356 . S
C2479 C2478 1.363 . S
C2479 C2485 1.363 . S
C2480 C2481 1.363 . S
C2480 C2485 1.379 . S
C2480 N2487 1.356 . S
C2481 C2480 1.363 . S
C2481 C2484 1.363 . S
N2482 C2484 1.356 . S
N2482 H2494 0.984 . S
N2482 H2495 0.985 . S
N2483 C2485 1.356 . S
N2483 H2488 0.984 . S
N2483 H2489 0.985 . S
C2484 C2478 1.379 . S
C2484 C2481 1.363 . S
C2484 N2482 1.356 . S
C2485 C2479 1.363 . S
C2485 C2480 1.379 . S
C2485 N2483 1.356 . S
N2486 C2478 1.356 . S
N2486 H2492 0.984 . S
N2486 H2493 0.984 . S
N2487 C2480 1.356 . S
N2487 H2490 0.984 . S
N2487 H2491 0.985 . S
H2488 N2483 0.984 . S
H2489 N2483 0.985 . S
H2490 N2487 0.984 . S
H2491 N2487 0.985 . S
H2492 N2486 0.984 . S
H2493 N2486 0.984 . S
H2494 N2482 0.984 . S
H2495 N2482 0.985 . S
C2496 C2497 1.363 . S
C2496 C2502 1.379 1_655 S
C2496 N2504 1.356 . S
C2497 C2496 1.363 . S
C2497 C2503 1.363 . S
C2498 C2499 1.363 . S
C2498 C2503 1.379 1_455 S
C2498 N2505 1.356 . S
C2499 C2498 1.363 . S
C2499 C2502 1.363 . S
N2500 C2502 1.356 . S
N2500 H2512 0.984 . S
N2500 H2513 0.985 . S
N2501 C2503 1.356 . S
N2501 H2506 0.984 . S
N2501 H2507 0.985 . S
C2502 C2496 1.379 1_455 S
C2502 C2499 1.363 . S
C2502 N2500 1.356 . S
C2503 C2497 1.363 . S
C2503 C2498 1.379 1_655 S
C2503 N2501 1.356 . S
N2504 C2496 1.356 . S
N2504 H2510 0.984 . S
N2504 H2511 0.984 . S
N2505 C2498 1.356 . S
N2505 H2508 0.984 . S
N2505 H2509 0.985 . S
H2506 N2501 0.984 . S
H2507 N2501 0.985 . S
H2508 N2505 0.984 . S
H2509 N2505 0.985 . S
H2510 N2504 0.984 . S
H2511 N2504 0.984 . S
H2512 N2500 0.984 . S
H2513 N2500 0.985 . S
C2514 C2515 1.363 . S
C2514 C2520 1.379 . S
C2514 N2522 1.356 . S
C2515 C2514 1.363 . S
C2515 C2521 1.363 . S
C2516 C2517 1.363 . S
C2516 C2521 1.379 . S
C2516 N2523 1.356 . S
C2517 C2516 1.363 . S
C2517 C2520 1.363 . S
N2518 C2520 1.356 . S
N2518 H2530 0.984 1_556 S
N2518 H2531 0.985 . S
N2519 C2521 1.356 . S
N2519 H2524 0.984 . S
N2519 H2525 0.985 . S
C2520 C2514 1.379 . S
C2520 C2517 1.363 . S
C2520 N2518 1.356 . S
C2521 C2515 1.363 . S
C2521 C2516 1.379 . S
C2521 N2519 1.356 . S
N2522 C2514 1.356 . S
N2522 H2528 0.984 1_556 S
N2522 H2529 0.984 . S
N2523 C2516 1.356 . S
N2523 H2526 0.984 . S
N2523 H2527 0.985 . S
H2524 N2519 0.984 . S
H2525 N2519 0.985 . S
H2526 N2523 0.984 . S
H2527 N2523 0.985 . S
H2528 N2522 0.984 1_554 S
H2529 N2522 0.984 . S
H2530 N2518 0.984 1_554 S
H2531 N2518 0.985 . S
C2532 C2533 1.363 . S
C2532 C2538 1.379 1_655 S
C2532 N2540 1.356 . S
C2533 C2532 1.363 . S
C2533 C2539 1.363 . S
C2534 C2535 1.363 . S
C2534 C2539 1.379 1_455 S
C2534 N2541 1.356 . S
C2535 C2534 1.363 . S
C2535 C2538 1.363 . S
N2536 C2538 1.356 . S
N2536 H2548 0.984 . S
N2536 H2549 0.985 . S
N2537 C2539 1.356 . S
N2537 H2542 0.984 . S
N2537 H2543 0.985 . S
C2538 C2532 1.379 1_455 S
C2538 C2535 1.363 . S
C2538 N2536 1.356 . S
C2539 C2533 1.363 . S
C2539 C2534 1.379 1_655 S
C2539 N2537 1.356 . S
N2540 C2532 1.356 . S
N2540 H2546 0.984 . S
N2540 H2547 0.984 . S
N2541 C2534 1.356 . S
N2541 H2544 0.984 . S
N2541 H2545 0.985 . S
H2542 N2537 0.984 . S
H2543 N2537 0.985 . S
H2544 N2541 0.984 . S
H2545 N2541 0.985 . S
H2546 N2540 0.984 . S
H2547 N2540 0.984 . S
H2548 N2536 0.984 . S
H2549 N2536 0.985 . S
C2550 C2551 1.363 . S
C2550 C2556 1.379 . S
C2550 N2558 1.356 . S
C2551 C2550 1.363 . S
C2551 C2557 1.363 1_455 S
C2552 C2553 1.363 . S
C2552 C2557 1.379 . S
C2552 N2559 1.356 . S
C2553 C2552 1.363 . S
C2553 C2556 1.363 1_655 S
N2554 C2556 1.356 . S
N2554 H2566 0.984 1_554 S
N2554 H2567 0.985 1_455 S
N2555 C2557 1.356 . S
N2555 H2560 0.984 1_655 S
N2555 H2561 0.985 . S
C2556 C2550 1.379 . S
C2556 C2553 1.363 1_455 S
C2556 N2554 1.356 . S
C2557 C2551 1.363 1_655 S
C2557 C2552 1.379 . S
C2557 N2555 1.356 . S
N2558 C2550 1.356 . S
N2558 H2564 0.984 1_554 S
N2558 H2565 0.984 . S
N2559 C2552 1.356 . S
N2559 H2562 0.984 . S
N2559 H2563 0.985 . S
H2560 N2555 0.984 1_455 S
H2561 N2555 0.985 . S
H2562 N2559 0.984 . S
H2563 N2559 0.985 . S
H2564 N2558 0.984 1_556 S
H2565 N2558 0.984 . S
H2566 N2554 0.984 1_556 S
H2567 N2554 0.985 1_655 S
C2568 C2569 1.363 . S
C2568 C2574 1.372 1_565 S
C2568 N2576 1.356 . S
C2569 C2568 1.363 . S
C2569 C2575 1.370 . S
C2570 C2571 1.363 . S
C2570 C2575 1.372 1_545 S
C2570 N2577 1.356 . S
C2571 C2570 1.363 . S
C2571 C2574 1.370 . S
N2572 C2574 1.359 . S
N2572 H2584 0.984 1_545 S
N2572 H2585 0.985 . S
N2573 C2575 1.359 . S
N2573 H2578 0.984 . S
N2573 H2579 0.985 1_565 S
C2574 C2568 1.372 1_545 S
C2574 C2571 1.370 . S
C2574 N2572 1.359 . S
C2575 C2569 1.370 . S
C2575 C2570 1.372 1_565 S
C2575 N2573 1.359 . S
N2576 C2568 1.356 . S
N2576 H2582 0.984 . S
N2576 H2583 0.984 . S
N2577 C2570 1.356 . S
N2577 H2580 0.984 . S
N2577 H2581 0.985 . S
H2578 N2573 0.984 . S
H2579 N2573 0.985 1_545 S
H2580 N2577 0.984 . S
H2581 N2577 0.985 . S
H2582 N2576 0.984 . S
H2583 N2576 0.984 . S
H2584 N2572 0.984 1_565 S
H2585 N2572 0.985 . S
C2586 C2587 1.363 . S
C2586 C2592 1.379 . S
C2586 N2594 1.356 . S
C2587 C2586 1.363 . S
C2587 C2593 1.363 1_556 S
C2588 C2589 1.363 . S
C2588 C2593 1.379 . S
C2588 N2595 1.356 . S
C2589 C2588 1.363 . S
C2589 C2592 1.363 1_554 S
N2590 C2592 1.356 . S
N2590 H2602 0.984 . S
N2590 H2603 0.985 1_556 S
N2591 C2593 1.356 . S
N2591 H2596 0.984 1_554 S
N2591 H2597 0.985 . S
C2592 C2586 1.379 . S
C2592 C2589 1.363 1_556 S
C2592 N2590 1.356 . S
C2593 C2587 1.363 1_554 S
C2593 C2588 1.379 . S
C2593 N2591 1.356 . S
N2594 C2586 1.356 . S
N2594 H2600 0.984 . S
N2594 H2601 0.984 . S
N2595 C2588 1.356 . S
N2595 H2598 0.984 . S
N2595 H2599 0.985 . S
H2596 N2591 0.984 1_556 S
H2597 N2591 0.985 . S
H2598 N2595 0.984 . S
H2599 N2595 0.985 . S
H2600 N2594 0.984 . S
H2601 N2594 0.984 . S
H2602 N2590 0.984 . S
H2603 N2590 0.985 1_554 S
C2604 C2605 1.363 . S
C2604 C2610 1.379 . S
C2604 N2612 1.356 . S
C2605 C2604 1.363 . S
C2605 C2611 1.363 . S
C2606 C2607 1.363 . S
C2606 C2611 1.379 . S
C2606 N2613 1.356 . S
C2607 C2606 1.363 . S
C2607 C2610 1.363 . S
N2608 C2610 1.356 . S
N2608 H2620 0.984 . S
N2608 H2621 0.985 . S
N2609 C2611 1.356 . S
N2609 H2614 0.984 . S
N2609 H2615 0.985 . S
C2610 C2604 1.379 . S
C2610 C2607 1.363 . S
C2610 N2608 1.356 . S
C2611 C2605 1.363 . S
C2611 C2606 1.379 . S
C2611 N2609 1.356 . S
N2612 C2604 1.356 . S
N2612 H2618 0.984 . S
N2612 H2619 0.984 . S
N2613 C2606 1.356 . S
N2613 H2616 0.984 . S
N2613 H2617 0.985 . S
H2614 N2609 0.984 . S
H2615 N2609 0.985 . S
H2616 N2613 0.984 . S
H2617 N2613 0.985 . S
H2618 N2612 0.984 . S
H2619 N2612 0.984 . S
H2620 N2608 0.984 . S
H2621 N2608 0.985 . S
C2622 C2623 1.363 . S
C2622 C2628 1.379 . S
C2622 N2630 1.356 . S
C2623 C2622 1.363 . S
C2623 C2629 1.363 1_554 S
C2624 C2625 1.363 . S
C2624 C2629 1.379 . S
C2624 N2631 1.356 . S
C2625 C2624 1.363 . S
C2625 C2628 1.363 1_556 S
N2626 C2628 1.356 . S
N2626 H2638 0.984 1_545 S
N2626 H2639 0.985 1_554 S
N2627 C2629 1.356 . S
N2627 H2632 0.984 1_556 S
N2627 H2633 0.985 . S
C2628 C2622 1.379 . S
C2628 C2625 1.363 1_554 S
C2628 N2626 1.356 . S
C2629 C2623 1.363 1_556 S
C2629 C2624 1.379 . S
C2629 N2627 1.356 . S
N2630 C2622 1.356 . S
N2630 H2636 0.984 1_545 S
N2630 H2637 0.984 . S
N2631 C2624 1.356 . S
N2631 H2634 0.984 . S
N2631 H2635 0.985 . S
H2632 N2627 0.984 1_554 S
H2633 N2627 0.985 . S
H2634 N2631 0.984 . S
H2635 N2631 0.985 . S
H2636 N2630 0.984 1_565 S
H2637 N2630 0.984 . S
H2638 N2626 0.984 1_565 S
H2639 N2626 0.985 1_556 S
C2640 C2641 1.363 . S
C2640 C2646 1.379 1_554 S
C2640 N2648 1.356 . S
C2641 C2640 1.363 . S
C2641 C2647 1.363 . S
C2642 C2643 1.363 . S
C2642 C2647 1.379 1_556 S
C2642 N2649 1.356 . S
C2643 C2642 1.363 . S
C2643 C2646 1.363 . S
N2644 C2646 1.356 . S
N2644 H2656 0.984 . S
N2644 H2657 0.985 . S
N2645 C2647 1.356 . S
N2645 H2650 0.984 . S
N2645 H2651 0.985 . S
C2646 C2640 1.379 1_556 S
C2646 C2643 1.363 . S
C2646 N2644 1.356 . S
C2647 C2641 1.363 . S
C2647 C2642 1.379 1_554 S
C2647 N2645 1.356 . S
N2648 C2640 1.356 . S
N2648 H2654 0.984 . S
N2648 H2655 0.984 . S
N2649 C2642 1.356 . S
N2649 H2652 0.984 . S
N2649 H2653 0.985 . S
H2650 N2645 0.984 . S
H2651 N2645 0.985 . S
H2652 N2649 0.984 . S
H2653 N2649 0.985 . S
H2654 N2648 0.984 . S
H2655 N2648 0.984 . S
H2656 N2644 0.984 . S
H2657 N2644 0.985 . S
C2658 C2659 1.363 . S
C2658 C2664 1.379 . S
C2658 N2666 1.356 . S
C2659 C2658 1.363 . S
C2659 C2665 1.363 . S
C2660 C2661 1.363 . S
C2660 C2665 1.379 . S
C2660 N2667 1.356 . S
C2661 C2660 1.363 . S
C2661 C2664 1.363 . S
N2662 C2664 1.356 . S
N2662 H2674 0.984 . S
N2662 H2675 0.985 . S
N2663 C2665 1.356 . S
N2663 H2668 0.984 . S
N2663 H2669 0.985 . S
C2664 C2658 1.379 . S
C2664 C2661 1.363 . S
C2664 N2662 1.356 . S
C2665 C2659 1.363 . S
C2665 C2660 1.379 . S
C2665 N2663 1.356 . S
N2666 C2658 1.356 . S
N2666 H2672 0.984 . S
N2666 H2673 0.984 . S
N2667 C2660 1.356 . S
N2667 H2670 0.984 . S
N2667 H2671 0.985 . S
H2668 N2663 0.984 . S
H2669 N2663 0.985 . S
H2670 N2667 0.984 . S
H2671 N2667 0.985 . S
H2672 N2666 0.984 . S
H2673 N2666 0.984 . S
H2674 N2662 0.984 . S
H2675 N2662 0.985 . S
C2676 C2677 1.363 . S
C2676 C2682 1.379 . S
C2676 N2684 1.356 . S
C2677 C2676 1.363 . S
C2677 C2683 1.363 . S
C2678 C2679 1.363 . S
C2678 C2683 1.379 . S
C2678 N2685 1.356 . S
C2679 C2678 1.363 . S
C2679 C2682 1.363 . S
N2680 C2682 1.356 . S
N2680 H2692 0.984 . S
N2680 H2693 0.985 . S
N2681 C2683 1.356 . S
N2681 H2686 0.984 . S
N2681 H2687 0.985 . S
C2682 C2676 1.379 . S
C2682 C2679 1.363 . S
C2682 N2680 1.356 . S
C2683 C2677 1.363 . S
C2683 C2678 1.379 . S
C2683 N2681 1.356 . S
N2684 C2676 1.356 . S
N2684 H2690 0.984 . S
N2684 H2691 0.984 . S
N2685 C2678 1.356 . S
N2685 H2688 0.984 . S
N2685 H2689 0.985 . S
H2686 N2681 0.984 . S
H2687 N2681 0.985 . S
H2688 N2685 0.984 . S
H2689 N2685 0.985 . S
H2690 N2684 0.984 . S
H2691 N2684 0.984 . S
H2692 N2680 0.984 . S
H2693 N2680 0.985 . S
C2694 C2695 1.363 . S
C2694 C2700 1.379 . S
C2694 N2702 1.356 . S
C2695 C2694 1.363 . S
C2695 C2701 1.363 . S
C2696 C2697 1.363 . S
C2696 C2701 1.379 . S
C2696 N2703 1.356 . S
C2697 C2696 1.363 . S
C2697 C2700 1.363 . S
N2698 C2700 1.356 . S
N2698 H2710 0.984 . S
N2698 H2711 0.985 . S
N2699 C2701 1.356 . S
N2699 H2704 0.984 . S
N2699 H2705 0.985 . S
C2700 C2694 1.379 . S
C2700 C2697 1.363 . S
C2700 N2698 1.356 . S
C2701 C2695 1.363 . S
C2701 C2696 1.379 . S
C2701 N2699 1.356 . S
N2702 C2694 1.356 . S
N2702 H2708 0.984 . S
N2702 H2709 0.984 . S
N2703 C2696 1.356 . S
N2703 H2706 0.984 . S
N2703 H2707 0.985 . S
H2704 N2699 0.984 . S
H2705 N2699 0.985 . S
H2706 N2703 0.984 . S
H2707 N2703 0.985 . S
H2708 N2702 0.984 . S
H2709 N2702 0.984 . S
H2710 N2698 0.984 . S
H2711 N2698 0.985 . S
C2712 C2713 1.363 . S
C2712 C2718 1.379 . S
C2712 N2720 1.356 . S
C2713 C2712 1.363 . S
C2713 C2719 1.363 . S
C2714 C2715 1.363 . S
C2714 C2719 1.379 . S
C2714 N2721 1.356 . S
C2715 C2714 1.363 . S
C2715 C2718 1.363 . S
N2716 C2718 1.356 . S
N2716 H2728 0.984 . S
N2716 H2729 0.985 . S
N2717 C2719 1.356 . S
N2717 H2722 0.984 . S
N2717 H2723 0.985 . S
C2718 C2712 1.379 . S
C2718 C2715 1.363 . S
C2718 N2716 1.356 . S
C2719 C2713 1.363 . S
C2719 C2714 1.379 . S
C2719 N2717 1.356 . S
N2720 C2712 1.356 . S
N2720 H2726 0.984 . S
N2720 H2727 0.984 . S
N2721 C2714 1.356 . S
N2721 H2724 0.984 . S
N2721 H2725 0.985 . S
H2722 N2717 0.984 . S
H2723 N2717 0.985 . S
H2724 N2721 0.984 . S
H2725 N2721 0.985 . S
H2726 N2720 0.984 . S
H2727 N2720 0.984 . S
H2728 N2716 0.984 . S
H2729 N2716 0.985 . S
C2730 C2731 1.363 . S
C2730 C2736 1.379 . S
C2730 N2738 1.356 . S
C2731 C2730 1.363 . S
C2731 C2737 1.363 1_545 S
C2732 C2733 1.363 . S
C2732 C2737 1.379 . S
C2732 N2739 1.356 . S
C2733 C2732 1.363 . S
C2733 C2736 1.363 1_565 S
N2734 C2736 1.356 . S
N2734 H2746 0.984 . S
N2734 H2747 0.984 1_545 S
N2735 C2737 1.356 . S
N2735 H2740 0.984 1_565 S
N2735 H2741 0.985 . S
C2736 C2730 1.379 . S
C2736 C2733 1.363 1_545 S
C2736 N2734 1.356 . S
C2737 C2731 1.363 1_565 S
C2737 C2732 1.379 . S
C2737 N2735 1.356 . S
N2738 C2730 1.356 . S
N2738 H2744 0.984 . S
N2738 H2745 0.984 . S
N2739 C2732 1.356 . S
N2739 H2742 0.984 . S
N2739 H2743 0.985 . S
H2740 N2735 0.984 1_545 S
H2741 N2735 0.985 . S
H2742 N2739 0.984 . S
H2743 N2739 0.985 . S
H2744 N2738 0.984 . S
H2745 N2738 0.984 . S
H2746 N2734 0.984 . S
H2747 N2734 0.984 1_565 S
C2748 C2749 1.363 . S
C2748 C2754 1.379 . S
C2748 N2756 1.356 . S
C2749 C2748 1.363 . S
C2749 C2755 1.363 . S
C2750 C2751 1.363 . S
C2750 C2755 1.379 . S
C2750 N2757 1.356 . S
C2751 C2750 1.363 . S
C2751 C2754 1.363 . S
N2752 C2754 1.356 . S
N2752 H2764 0.984 . S
N2752 H2765 0.985 . S
N2753 C2755 1.356 . S
N2753 H2758 0.984 . S
N2753 H2759 0.985 . S
C2754 C2748 1.379 . S
C2754 C2751 1.363 . S
C2754 N2752 1.356 . S
C2755 C2749 1.363 . S
C2755 C2750 1.379 . S
C2755 N2753 1.356 . S
N2756 C2748 1.356 . S
N2756 H2762 0.984 . S
N2756 H2763 0.984 . S
N2757 C2750 1.356 . S
N2757 H2760 0.984 . S
N2757 H2761 0.985 . S
H2758 N2753 0.984 . S
H2759 N2753 0.985 . S
H2760 N2757 0.984 . S
H2761 N2757 0.985 . S
H2762 N2756 0.984 . S
H2763 N2756 0.984 . S
H2764 N2752 0.984 . S
H2765 N2752 0.985 . S
C2766 C2767 1.363 . S
C2766 C2772 1.379 . S
C2766 N2774 1.356 . S
C2767 C2766 1.363 . S
C2767 C2773 1.363 1_655 S
C2768 C2769 1.363 . S
C2768 C2773 1.379 . S
C2768 N2775 1.356 . S
C2769 C2768 1.363 . S
C2769 C2772 1.363 1_455 S
N2770 C2772 1.356 . S
N2770 H2782 0.984 . S
N2770 H2783 0.985 1_655 S
N2771 C2773 1.356 . S
N2771 H2776 0.984 1_455 S
N2771 H2777 0.985 . S
C2772 C2766 1.379 . S
C2772 C2769 1.363 1_655 S
C2772 N2770 1.356 . S
C2773 C2767 1.363 1_455 S
C2773 C2768 1.379 . S
C2773 N2771 1.356 . S
N2774 C2766 1.356 . S
N2774 H2780 0.984 . S
N2774 H2781 0.984 . S
N2775 C2768 1.356 . S
N2775 H2778 0.984 . S
N2775 H2779 0.985 . S
H2776 N2771 0.984 1_655 S
H2777 N2771 0.985 . S
H2778 N2775 0.984 . S
H2779 N2775 0.985 . S
H2780 N2774 0.984 . S
H2781 N2774 0.984 . S
H2782 N2770 0.984 . S
H2783 N2770 0.985 1_455 S
C2784 C2785 1.363 . S
C2784 C2790 1.379 . S
C2784 N2792 1.356 . S
C2785 C2784 1.363 . S
C2785 C2791 1.363 . S
C2786 C2787 1.363 . S
C2786 C2791 1.379 . S
C2786 N2793 1.356 . S
C2787 C2786 1.363 . S
C2787 C2790 1.363 . S
N2788 C2790 1.356 . S
N2788 H2800 0.984 . S
N2788 H2801 0.985 . S
N2789 C2791 1.356 . S
N2789 H2794 0.984 . S
N2789 H2795 0.985 . S
C2790 C2784 1.379 . S
C2790 C2787 1.363 . S
C2790 N2788 1.356 . S
C2791 C2785 1.363 . S
C2791 C2786 1.379 . S
C2791 N2789 1.356 . S
N2792 C2784 1.356 . S
N2792 H2798 0.984 . S
N2792 H2799 0.984 . S
N2793 C2786 1.356 . S
N2793 H2796 0.984 . S
N2793 H2797 0.985 . S
H2794 N2789 0.984 . S
H2795 N2789 0.985 . S
H2796 N2793 0.984 . S
H2797 N2793 0.985 . S
H2798 N2792 0.984 . S
H2799 N2792 0.984 . S
H2800 N2788 0.984 . S
H2801 N2788 0.985 . S
C2802 C2803 1.363 . S
C2802 C2808 1.379 . S
C2802 N2810 1.356 . S
C2803 C2802 1.363 . S
C2803 C2809 1.363 . S
C2804 C2805 1.363 . S
C2804 C2809 1.379 . S
C2804 N2811 1.356 . S
C2805 C2804 1.363 . S
C2805 C2808 1.363 . S
N2806 C2808 1.356 . S
N2806 H2818 0.984 . S
N2806 H2819 0.985 . S
N2807 C2809 1.356 . S
N2807 H2812 0.984 . S
N2807 H2813 0.985 . S
C2808 C2802 1.379 . S
C2808 C2805 1.363 . S
C2808 N2806 1.356 . S
C2809 C2803 1.363 . S
C2809 C2804 1.379 . S
C2809 N2807 1.356 . S
N2810 C2802 1.356 . S
N2810 H2816 0.984 . S
N2810 H2817 0.984 . S
N2811 C2804 1.356 . S
N2811 H2814 0.984 . S
N2811 H2815 0.985 . S
H2812 N2807 0.984 . S
H2813 N2807 0.985 . S
H2814 N2811 0.984 . S
H2815 N2811 0.985 . S
H2816 N2810 0.984 . S
H2817 N2810 0.984 . S
H2818 N2806 0.984 . S
H2819 N2806 0.985 . S
C2820 C2821 1.363 . S
C2820 C2826 1.379 . S
C2820 N2828 1.356 . S
C2821 C2820 1.363 . S
C2821 C2827 1.363 . S
C2822 C2823 1.363 . S
C2822 C2827 1.379 . S
C2822 N2829 1.356 . S
C2823 C2822 1.363 . S
C2823 C2826 1.363 . S
N2824 C2826 1.356 . S
N2824 H2836 0.984 . S
N2824 H2837 0.985 . S
N2825 C2827 1.356 . S
N2825 H2830 0.984 . S
N2825 H2831 0.985 . S
C2826 C2820 1.379 . S
C2826 C2823 1.363 . S
C2826 N2824 1.356 . S
C2827 C2821 1.363 . S
C2827 C2822 1.379 . S
C2827 N2825 1.356 . S
N2828 C2820 1.356 . S
N2828 H2834 0.984 . S
N2828 H2835 0.984 . S
N2829 C2822 1.356 . S
N2829 H2832 0.984 . S
N2829 H2833 0.985 . S
H2830 N2825 0.984 . S
H2831 N2825 0.985 . S
H2832 N2829 0.984 . S
H2833 N2829 0.985 . S
H2834 N2828 0.984 . S
H2835 N2828 0.984 . S
H2836 N2824 0.984 . S
H2837 N2824 0.985 . S
C2838 C2839 1.363 . S
C2838 C2844 1.379 . S
C2838 N2846 1.356 . S
C2839 C2838 1.363 . S
C2839 C2845 1.363 . S
C2840 C2841 1.363 . S
C2840 C2845 1.379 . S
C2840 N2847 1.356 . S
C2841 C2840 1.363 . S
C2841 C2844 1.363 . S
N2842 C2844 1.356 . S
N2842 H2854 0.984 1_565 S
N2842 H2855 0.985 . S
N2843 C2845 1.356 . S
N2843 H2848 0.984 . S
N2843 H2849 0.985 . S
C2844 C2838 1.379 . S
C2844 C2841 1.363 . S
C2844 N2842 1.356 . S
C2845 C2839 1.363 . S
C2845 C2840 1.379 . S
C2845 N2843 1.356 . S
N2846 C2838 1.356 . S
N2846 H2852 0.984 1_565 S
N2846 H2853 0.984 . S
N2847 C2840 1.356 . S
N2847 H2850 0.984 . S
N2847 H2851 0.985 . S
H2848 N2843 0.984 . S
H2849 N2843 0.985 . S
H2850 N2847 0.984 . S
H2851 N2847 0.985 . S
H2852 N2846 0.984 1_545 S
H2853 N2846 0.984 . S
H2854 N2842 0.984 1_545 S
H2855 N2842 0.985 . S
C2856 C2857 1.363 . S
C2856 C2862 1.379 1_565 S
C2856 N2864 1.356 . S
C2857 C2856 1.363 . S
C2857 C2863 1.363 . S
C2858 C2859 1.363 . S
C2858 C2863 1.379 1_545 S
C2858 N2865 1.356 . S
C2859 C2858 1.363 . S
C2859 C2862 1.363 . S
N2860 C2862 1.356 . S
N2860 H2872 0.984 . S
N2860 H2873 0.985 . S
N2861 C2863 1.356 . S
N2861 H2866 0.984 . S
N2861 H2867 0.985 . S
C2862 C2856 1.379 1_545 S
C2862 C2859 1.363 . S
C2862 N2860 1.356 . S
C2863 C2857 1.363 . S
C2863 C2858 1.379 1_565 S
C2863 N2861 1.356 . S
N2864 C2856 1.356 . S
N2864 H2870 0.984 . S
N2864 H2871 0.984 . S
N2865 C2858 1.356 . S
N2865 H2868 0.984 . S
N2865 H2869 0.985 . S
H2866 N2861 0.984 . S
H2867 N2861 0.985 . S
H2868 N2865 0.984 . S
H2869 N2865 0.985 . S
H2870 N2864 0.984 . S
H2871 N2864 0.984 . S
H2872 N2860 0.984 . S
H2873 N2860 0.985 . S
C2874 C2875 1.363 . S
C2874 C2880 1.379 . S
C2874 N2882 1.356 . S
C2875 C2874 1.363 . S
C2875 C2881 1.363 . S
C2876 C2877 1.363 . S
C2876 C2881 1.379 . S
C2876 N2883 1.356 . S
C2877 C2876 1.363 . S
C2877 C2880 1.363 . S
N2878 C2880 1.356 . S
N2878 H2890 0.984 . S
N2878 H2891 0.985 . S
N2879 C2881 1.356 . S
N2879 H2884 0.984 . S
N2879 H2885 0.985 . S
C2880 C2874 1.379 . S
C2880 C2877 1.363 . S
C2880 N2878 1.356 . S
C2881 C2875 1.363 . S
C2881 C2876 1.379 . S
C2881 N2879 1.356 . S
N2882 C2874 1.356 . S
N2882 H2888 0.984 . S
N2882 H2889 0.984 . S
N2883 C2876 1.356 . S
N2883 H2886 0.984 . S
N2883 H2887 0.985 . S
H2884 N2879 0.984 . S
H2885 N2879 0.985 . S
H2886 N2883 0.984 . S
H2887 N2883 0.985 . S
H2888 N2882 0.984 . S
H2889 N2882 0.984 . S
H2890 N2878 0.984 . S
H2891 N2878 0.985 . S
C2892 C2893 1.363 . S
C2892 C2898 1.379 1_556 S
C2892 N2900 1.356 . S
C2893 C2892 1.363 . S
C2893 C2899 1.363 . S
C2894 C2895 1.363 . S
C2894 C2899 1.379 1_554 S
C2894 N2901 1.356 . S
C2895 C2894 1.363 . S
C2895 C2898 1.363 . S
N2896 C2898 1.356 . S
N2896 H2908 0.984 . S
N2896 H2909 0.985 . S
N2897 C2899 1.356 . S
N2897 H2902 0.984 . S
N2897 H2903 0.985 . S
C2898 C2892 1.379 1_554 S
C2898 C2895 1.363 . S
C2898 N2896 1.356 . S
C2899 C2893 1.363 . S
C2899 C2894 1.379 1_556 S
C2899 N2897 1.356 . S
N2900 C2892 1.356 . S
N2900 H2906 0.984 . S
N2900 H2907 0.984 . S
N2901 C2894 1.356 . S
N2901 H2904 0.984 . S
N2901 H2905 0.985 . S
H2902 N2897 0.984 . S
H2903 N2897 0.985 . S
H2904 N2901 0.984 . S
H2905 N2901 0.985 . S
H2906 N2900 0.984 . S
H2907 N2900 0.984 . S
H2908 N2896 0.984 . S
H2909 N2896 0.985 . S
C2910 C2911 1.363 1_565 S
C2910 C2916 1.379 . S
C2910 N2918 1.356 1_565 S
C2911 C2910 1.363 1_545 S
C2911 C2917 1.363 . S
C2912 C2913 1.363 1_545 S
C2912 C2917 1.379 . S
C2912 N2919 1.356 1_545 S
C2913 C2912 1.363 1_565 S
C2913 C2916 1.363 . S
N2914 C2916 1.356 . S
N2914 H2926 0.984 . S
N2914 H2927 0.985 . S
N2915 C2917 1.356 . S
N2915 H2920 0.984 . S
N2915 H2921 0.985 . S
C2916 C2910 1.379 . S
C2916 C2913 1.363 . S
C2916 N2914 1.356 . S
C2917 C2911 1.363 . S
C2917 C2912 1.379 . S
C2917 N2915 1.356 . S
N2918 C2910 1.356 1_545 S
N2918 H2924 0.984 1_545 S
N2918 H2925 0.984 . S
N2919 C2912 1.356 1_565 S
N2919 H2922 0.984 . S
N2919 H2923 0.985 1_565 S
H2920 N2915 0.984 . S
H2921 N2915 0.985 . S
H2922 N2919 0.984 . S
H2923 N2919 0.985 1_545 S
H2924 N2918 0.984 1_565 S
H2925 N2918 0.984 . S
H2926 N2914 0.984 . S
H2927 N2914 0.985 . S
C2928 C2929 1.363 . S
C2928 C2934 1.379 . S
C2928 N2936 1.356 . S
C2929 C2928 1.363 . S
C2929 C2935 1.363 . S
C2930 C2931 1.363 . S
C2930 C2935 1.379 . S
C2930 N2937 1.356 . S
C2931 C2930 1.363 . S
C2931 C2934 1.363 . S
N2932 C2934 1.356 . S
N2932 H2944 0.984 . S
N2932 H2945 0.985 . S
N2933 C2935 1.356 . S
N2933 H2938 0.984 . S
N2933 H2939 0.985 . S
C2934 C2928 1.379 . S
C2934 C2931 1.363 . S
C2934 N2932 1.356 . S
C2935 C2929 1.363 . S
C2935 C2930 1.379 . S
C2935 N2933 1.356 . S
N2936 C2928 1.356 . S
N2936 H2942 0.984 . S
N2936 H2943 0.984 . S
N2937 C2930 1.356 . S
N2937 H2940 0.984 . S
N2937 H2941 0.985 . S
H2938 N2933 0.984 . S
H2939 N2933 0.985 . S
H2940 N2937 0.984 . S
H2941 N2937 0.985 . S
H2942 N2936 0.984 . S
H2943 N2936 0.984 . S
H2944 N2932 0.984 . S
H2945 N2932 0.985 . S
C2946 C2947 1.363 . S
C2946 C2952 1.379 . S
C2946 N2954 1.356 . S
C2947 C2946 1.363 . S
C2947 C2953 1.363 . S
C2948 C2949 1.363 . S
C2948 C2953 1.379 . S
C2948 N2955 1.356 . S
C2949 C2948 1.363 . S
C2949 C2952 1.363 . S
N2950 C2952 1.356 . S
N2950 H2962 0.984 . S
N2950 H2963 0.985 . S
N2951 C2953 1.356 . S
N2951 H2956 0.984 . S
N2951 H2957 0.985 . S
C2952 C2946 1.379 . S
C2952 C2949 1.363 . S
C2952 N2950 1.356 . S
C2953 C2947 1.363 . S
C2953 C2948 1.379 . S
C2953 N2951 1.356 . S
N2954 C2946 1.356 . S
N2954 H2960 0.984 . S
N2954 H2961 0.984 . S
N2955 C2948 1.356 . S
N2955 H2958 0.984 . S
N2955 H2959 0.985 . S
H2956 N2951 0.984 . S
H2957 N2951 0.985 . S
H2958 N2955 0.984 . S
H2959 N2955 0.985 . S
H2960 N2954 0.984 . S
H2961 N2954 0.984 . S
H2962 N2950 0.984 . S
H2963 N2950 0.985 . S
C2964 C2965 1.363 . S
C2964 C2970 1.379 . S
C2964 N2972 1.356 . S
C2965 C2964 1.363 . S
C2965 C2971 1.363 . S
C2966 C2967 1.363 . S
C2966 C2971 1.379 . S
C2966 N2973 1.356 . S
C2967 C2966 1.363 . S
C2967 C2970 1.363 . S
N2968 C2970 1.356 . S
N2968 H2980 0.984 . S
N2968 H2981 0.985 . S
N2969 C2971 1.356 . S
N2969 H2974 0.984 . S
N2969 H2975 0.985 . S
C2970 C2964 1.379 . S
C2970 C2967 1.363 . S
C2970 N2968 1.356 . S
C2971 C2965 1.363 . S
C2971 C2966 1.379 . S
C2971 N2969 1.356 . S
N2972 C2964 1.356 . S
N2972 H2978 0.984 . S
N2972 H2979 0.984 . S
N2973 C2966 1.356 . S
N2973 H2976 0.984 . S
N2973 H2977 0.985 . S
H2974 N2969 0.984 . S
H2975 N2969 0.985 . S
H2976 N2973 0.984 . S
H2977 N2973 0.985 . S
H2978 N2972 0.984 . S
H2979 N2972 0.984 . S
H2980 N2968 0.984 . S
H2981 N2968 0.985 . S
C2982 C2983 1.363 . S
C2982 C2988 1.379 . S
C2982 N2990 1.356 . S
C2983 C2982 1.363 . S
C2983 C2989 1.363 . S
C2984 C2985 1.363 . S
C2984 C2989 1.379 . S
C2984 N2991 1.356 . S
C2985 C2984 1.363 . S
C2985 C2988 1.363 . S
N2986 C2988 1.356 1_545 S
N2986 H2998 0.984 . S
N2986 H2999 0.985 . S
N2987 C2989 1.356 . S
N2987 H2992 0.984 . S
N2987 H2993 0.985 . S
C2988 C2982 1.379 . S
C2988 C2985 1.363 . S
C2988 N2986 1.356 1_565 S
C2989 C2983 1.363 . S
C2989 C2984 1.379 . S
C2989 N2987 1.356 . S
N2990 C2982 1.356 . S
N2990 H2996 0.984 . S
N2990 H2997 0.984 . S
N2991 C2984 1.356 . S
N2991 H2994 0.984 . S
N2991 H2995 0.985 . S
H2992 N2987 0.984 . S
H2993 N2987 0.985 . S
H2994 N2991 0.984 . S
H2995 N2991 0.985 . S
H2996 N2990 0.984 . S
H2997 N2990 0.984 . S
H2998 N2986 0.984 . S
H2999 N2986 0.985 . S
C3000 C3001 1.363 . S
C3000 C3006 1.379 . S
C3000 N3008 1.356 . S
C3001 C3000 1.363 . S
C3001 C3007 1.363 . S
C3002 C3003 1.363 . S
C3002 C3007 1.379 . S
C3002 N3009 1.356 . S
C3003 C3002 1.363 . S
C3003 C3006 1.363 . S
N3004 C3006 1.356 . S
N3004 H3016 0.984 . S
N3004 H3017 0.985 . S
N3005 C3007 1.356 . S
N3005 H3010 0.984 . S
N3005 H3011 0.985 . S
C3006 C3000 1.379 . S
C3006 C3003 1.363 . S
C3006 N3004 1.356 . S
C3007 C3001 1.363 . S
C3007 C3002 1.379 . S
C3007 N3005 1.356 . S
N3008 C3000 1.356 . S
N3008 H3014 0.984 . S
N3008 H3015 0.984 . S
N3009 C3002 1.356 . S
N3009 H3012 0.984 . S
N3009 H3013 0.985 . S
H3010 N3005 0.984 . S
H3011 N3005 0.985 . S
H3012 N3009 0.984 . S
H3013 N3009 0.985 . S
H3014 N3008 0.984 . S
H3015 N3008 0.984 . S
H3016 N3004 0.984 . S
H3017 N3004 0.985 . S
C3018 C3019 1.363 . S
C3018 C3024 1.379 . S
C3018 N3026 1.356 . S
C3019 C3018 1.363 . S
C3019 C3025 1.363 . S
C3020 C3021 1.363 . S
C3020 C3025 1.379 . S
C3020 N3027 1.356 1_455 S
C3021 C3020 1.363 . S
C3021 C3024 1.363 . S
N3022 C3024 1.356 . S
N3022 H3034 0.984 . S
N3022 H3035 0.985 . S
N3023 C3025 1.356 . S
N3023 H3028 0.984 . S
N3023 H3029 0.985 . S
C3024 C3018 1.379 . S
C3024 C3021 1.363 . S
C3024 N3022 1.356 . S
C3025 C3019 1.363 . S
C3025 C3020 1.379 . S
C3025 N3023 1.356 . S
N3026 C3018 1.356 . S
N3026 H3032 0.984 . S
N3026 H3033 0.984 . S
N3027 C3020 1.356 1_655 S
N3027 H3030 0.984 . S
N3027 H3031 0.985 . S
H3028 N3023 0.984 . S
H3029 N3023 0.985 . S
H3030 N3027 0.984 . S
H3031 N3027 0.985 . S
H3032 N3026 0.984 . S
H3033 N3026 0.984 . S
H3034 N3022 0.984 . S
H3035 N3022 0.985 . S
C3036 C3037 1.363 . S
C3036 C3042 1.379 . S
C3036 N3044 1.356 . S
C3037 C3036 1.363 . S
C3037 C3043 1.363 . S
C3038 C3039 1.363 . S
C3038 C3043 1.379 . S
C3038 N3045 1.356 . S
C3039 C3038 1.363 . S
C3039 C3042 1.363 . S
N3040 C3042 1.356 . S
N3040 H3052 0.984 . S
N3040 H3053 0.985 . S
N3041 C3043 1.356 . S
N3041 H3046 0.984 . S
N3041 H3047 0.985 . S
C3042 C3036 1.379 . S
C3042 C3039 1.363 . S
C3042 N3040 1.356 . S
C3043 C3037 1.363 . S
C3043 C3038 1.379 . S
C3043 N3041 1.356 . S
N3044 C3036 1.356 . S
N3044 H3050 0.984 . S
N3044 H3051 0.984 . S
N3045 C3038 1.356 . S
N3045 H3048 0.984 . S
N3045 H3049 0.985 . S
H3046 N3041 0.984 . S
H3047 N3041 0.985 . S
H3048 N3045 0.984 . S
H3049 N3045 0.985 . S
H3050 N3044 0.984 . S
H3051 N3044 0.984 . S
H3052 N3040 0.984 . S
H3053 N3040 0.985 . S
C3054 C3055 1.363 . S
C3054 C3060 1.379 . S
C3054 N3062 1.356 . S
C3055 C3054 1.363 . S
C3055 C3061 1.363 . S
C3056 C3057 1.363 . S
C3056 C3061 1.379 . S
C3056 N3063 1.356 1_655 S
C3057 C3056 1.363 . S
C3057 C3060 1.363 . S
N3058 C3060 1.356 . S
N3058 H3070 0.984 . S
N3058 H3071 0.985 . S
N3059 C3061 1.356 1_545 S
N3059 H3064 0.984 . S
N3059 H3065 0.985 . S
C3060 C3054 1.379 . S
C3060 C3057 1.363 . S
C3060 N3058 1.356 . S
C3061 C3055 1.363 . S
C3061 C3056 1.379 . S
C3061 N3059 1.356 1_565 S
N3062 C3054 1.356 . S
N3062 H3068 0.984 . S
N3062 H3069 0.977 1_565 S
N3063 C3056 1.356 1_455 S
N3063 H3066 0.984 . S
N3063 H3067 0.985 . S
H3064 N3059 0.984 . S
H3065 N3059 0.985 . S
H3066 N3063 0.984 . S
H3067 N3063 0.985 . S
H3068 N3062 0.984 . S
H3069 N3062 0.977 1_545 S
H3070 N3058 0.984 . S
H3071 N3058 0.985 . S
C3072 C3073 1.363 . S
C3072 C3078 1.379 . S
C3072 N3080 1.356 . S
C3073 C3072 1.363 . S
C3073 C3079 1.363 . S
C3074 C3075 1.363 . S
C3074 C3079 1.379 . S
C3074 N3081 1.356 . S
C3075 C3074 1.363 . S
C3075 C3078 1.363 . S
N3076 C3078 1.356 . S
N3076 H3088 0.984 . S
N3076 H3089 0.985 . S
N3077 C3079 1.356 . S
N3077 H3082 0.984 . S
N3077 H3083 0.985 . S
C3078 C3072 1.379 . S
C3078 C3075 1.363 . S
C3078 N3076 1.356 . S
C3079 C3073 1.363 . S
C3079 C3074 1.379 . S
C3079 N3077 1.356 . S
N3080 C3072 1.356 . S
N3080 H3086 0.984 . S
N3080 H3087 0.984 . S
N3081 C3074 1.356 . S
N3081 H3084 0.984 . S
N3081 H3085 0.985 . S
H3082 N3077 0.984 . S
H3083 N3077 0.985 . S
H3084 N3081 0.984 . S
H3085 N3081 0.985 . S
H3086 N3080 0.984 . S
H3087 N3080 0.984 . S
H3088 N3076 0.984 . S
H3089 N3076 0.985 . S
C3090 C3091 1.363 . S
C3090 C3096 1.379 . S
C3090 N3098 1.356 1_554 S
C3091 C3090 1.363 . S
C3091 C3097 1.363 . S
C3092 C3093 1.363 . S
C3092 C3097 1.379 . S
C3092 N3099 1.356 . S
C3093 C3092 1.363 . S
C3093 C3096 1.363 . S
N3094 C3096 1.356 . S
N3094 H3106 0.984 . S
N3094 H3107 0.985 . S
N3095 C3097 1.356 . S
N3095 H3100 0.984 . S
N3095 H3101 0.985 . S
C3096 C3090 1.379 . S
C3096 C3093 1.363 . S
C3096 N3094 1.356 . S
C3097 C3091 1.363 . S
C3097 C3092 1.379 . S
C3097 N3095 1.356 . S
N3098 C3090 1.356 1_556 S
N3098 H3104 0.984 . S
N3098 H3105 0.984 . S
N3099 C3092 1.356 . S
N3099 H3102 0.984 . S
N3099 H3103 0.985 . S
H3100 N3095 0.984 . S
H3101 N3095 0.985 . S
H3102 N3099 0.984 . S
H3103 N3099 0.985 . S
H3104 N3098 0.984 . S
H3105 N3098 0.984 . S
H3106 N3094 0.984 . S
H3107 N3094 0.985 . S
C3108 C3109 1.363 . S
C3108 C3114 1.379 . S
C3108 N3116 1.356 . S
C3109 C3108 1.363 . S
C3109 C3115 1.363 . S
C3110 C3111 1.363 . S
C3110 C3115 1.379 . S
C3110 N3117 1.356 . S
C3111 C3110 1.363 . S
C3111 C3114 1.363 . S
N3112 C3114 1.356 . S
N3112 H3124 0.984 . S
N3112 H3125 0.985 . S
N3113 C3115 1.356 . S
N3113 H3118 0.984 . S
N3113 H3119 0.985 . S
C3114 C3108 1.379 . S
C3114 C3111 1.363 . S
C3114 N3112 1.356 . S
C3115 C3109 1.363 . S
C3115 C3110 1.379 . S
C3115 N3113 1.356 . S
N3116 C3108 1.356 . S
N3116 H3122 0.984 . S
N3116 H3123 0.984 . S
N3117 C3110 1.356 . S
N3117 H3120 0.984 . S
N3117 H3121 0.985 . S
H3118 N3113 0.984 . S
H3119 N3113 0.985 . S
H3120 N3117 0.984 . S
H3121 N3117 0.985 . S
H3122 N3116 0.984 . S
H3123 N3116 0.984 . S
H3124 N3112 0.984 . S
H3125 N3112 0.985 . S
C3126 C3127 1.363 . S
C3126 C3132 1.379 . S
C3126 N3134 1.356 . S
C3127 C3126 1.363 . S
C3127 C3133 1.363 . S
C3128 C3129 1.363 . S
C3128 C3133 1.379 . S
C3128 N3135 1.356 . S
C3129 C3128 1.363 . S
C3129 C3132 1.363 . S
N3130 C3132 1.356 . S
N3130 H3142 0.984 . S
N3130 H3143 0.985 . S
N3131 C3133 1.356 1_556 S
N3131 H3136 0.984 . S
N3131 H3137 0.985 . S
C3132 C3126 1.379 . S
C3132 C3129 1.363 . S
C3132 N3130 1.356 . S
C3133 C3127 1.363 . S
C3133 C3128 1.379 . S
C3133 N3131 1.356 1_554 S
N3134 C3126 1.356 . S
N3134 H3140 0.984 . S
N3134 H3141 0.984 . S
N3135 C3128 1.356 . S
N3135 H3138 0.984 . S
N3135 H3139 0.985 . S
H3136 N3131 0.984 . S
H3137 N3131 0.985 . S
H3138 N3135 0.984 . S
H3139 N3135 0.985 . S
H3140 N3134 0.984 . S
H3141 N3134 0.984 . S
H3142 N3130 0.984 . S
H3143 N3130 0.985 . S
C3144 C3145 1.363 . S
C3144 C3150 1.379 . S
C3144 N3152 1.356 . S
C3145 C3144 1.363 . S
C3145 C3151 1.363 . S
C3146 C3147 1.363 . S
C3146 C3151 1.379 . S
C3146 N3153 1.356 . S
C3147 C3146 1.363 . S
C3147 C3150 1.363 . S
N3148 C3150 1.356 . S
N3148 H3160 0.984 . S
N3148 H3161 0.985 . S
N3149 C3151 1.356 . S
N3149 H3154 0.984 . S
N3149 H3155 0.985 . S
C3150 C3144 1.379 . S
C3150 C3147 1.363 . S
C3150 N3148 1.356 . S
C3151 C3145 1.363 . S
C3151 C3146 1.379 . S
C3151 N3149 1.356 . S
N3152 C3144 1.356 . S
N3152 H3158 0.984 . S
N3152 H3159 0.984 . S
N3153 C3146 1.356 . S
N3153 H3156 0.984 . S
N3153 H3157 0.985 . S
H3154 N3149 0.984 . S
H3155 N3149 0.985 . S
H3156 N3153 0.984 . S
H3157 N3153 0.985 . S
H3158 N3152 0.984 . S
H3159 N3152 0.984 . S
H3160 N3148 0.984 . S
H3161 N3148 0.985 . S
C3162 C3163 1.363 . S
C3162 C3168 1.379 . S
C3162 N3170 1.356 1_455 S
C3163 C3162 1.363 . S
C3163 C3169 1.363 . S
C3164 C3165 1.363 . S
C3164 C3169 1.379 . S
C3164 N3171 1.356 . S
C3165 C3164 1.363 . S
C3165 C3168 1.363 . S
N3166 C3168 1.356 1_554 S
N3166 H3178 0.984 . S
N3166 H3179 0.985 . S
N3167 C3169 1.356 . S
N3167 H3172 0.984 . S
N3167 H3173 0.985 . S
C3168 C3162 1.379 . S
C3168 C3165 1.363 . S
C3168 N3166 1.356 1_556 S
C3169 C3163 1.363 . S
C3169 C3164 1.379 . S
C3169 N3167 1.356 . S
N3170 C3162 1.356 1_655 S
N3170 H3176 0.984 . S
N3170 H3177 0.984 . S
N3171 C3164 1.356 . S
N3171 H3174 0.984 . S
N3171 H3175 0.985 . S
H3172 N3167 0.984 . S
H3173 N3167 0.985 . S
H3174 N3171 0.984 . S
H3175 N3171 0.985 . S
H3176 N3170 0.984 . S
H3177 N3170 0.984 . S
H3178 N3166 0.984 . S
H3179 N3166 0.985 . S
C3180 C3181 1.363 . S
C3180 C3186 1.379 . S
C3180 N3188 1.356 . S
C3181 C3180 1.363 . S
C3181 C3187 1.363 . S
C3182 C3183 1.363 . S
C3182 C3187 1.379 . S
C3182 N3189 1.356 . S
C3183 C3182 1.363 . S
C3183 C3186 1.363 . S
N3184 C3186 1.356 . S
N3184 H3196 0.984 . S
N3184 H3197 0.985 . S
N3185 C3187 1.356 . S
N3185 H3190 0.984 . S
N3185 H3191 0.985 . S
C3186 C3180 1.379 . S
C3186 C3183 1.363 . S
C3186 N3184 1.356 . S
C3187 C3181 1.363 . S
C3187 C3182 1.379 . S
C3187 N3185 1.356 . S
N3188 C3180 1.356 . S
N3188 H3194 0.984 . S
N3188 H3195 0.984 . S
N3189 C3182 1.356 . S
N3189 H3192 0.984 . S
N3189 H3193 0.985 . S
H3190 N3185 0.984 . S
H3191 N3185 0.985 . S
H3192 N3189 0.984 . S
H3193 N3189 0.985 . S
H3194 N3188 0.984 . S
H3195 N3188 0.984 . S
H3196 N3184 0.984 . S
H3197 N3184 0.985 . S
C3198 C3199 1.363 . S
C3198 C3204 1.379 . S
C3198 N3206 1.356 1_655 S
C3199 C3198 1.363 . S
C3199 C3205 1.363 . S
C3200 C3201 1.363 . S
C3200 C3205 1.379 . S
C3200 N3207 1.356 . S
C3201 C3200 1.363 . S
C3201 C3204 1.363 . S
N3202 C3204 1.356 1_554 S
N3202 H3214 0.984 . S
N3202 H3215 0.985 . S
N3203 C3205 1.356 . S
N3203 H3208 0.984 . S
N3203 H3209 0.985 . S
C3204 C3198 1.379 . S
C3204 C3201 1.363 . S
C3204 N3202 1.356 1_556 S
C3205 C3199 1.363 . S
C3205 C3200 1.379 . S
C3205 N3203 1.356 . S
N3206 C3198 1.356 1_455 S
N3206 H3212 0.984 . S
N3206 H3213 0.984 . S
N3207 C3200 1.356 . S
N3207 H3210 0.984 . S
N3207 H3211 0.985 . S
H3208 N3203 0.984 . S
H3209 N3203 0.985 . S
H3210 N3207 0.984 . S
H3211 N3207 0.985 . S
H3212 N3206 0.984 . S
H3213 N3206 0.984 . S
H3214 N3202 0.984 . S
H3215 N3202 0.985 . S
C3216 C3217 1.363 . S
C3216 C3222 1.379 . S
C3216 N3224 1.356 . S
C3217 C3216 1.363 . S
C3217 C3223 1.363 . S
C3218 C3219 1.363 . S
C3218 C3223 1.379 . S
C3218 N3225 1.356 . S
C3219 C3218 1.363 . S
C3219 C3222 1.363 . S
N3220 C3222 1.356 . S
N3220 H3232 0.984 . S
N3220 H3233 0.985 . S
N3221 C3223 1.356 . S
N3221 H3226 0.984 . S
N3221 H3227 0.985 . S
C3222 C3216 1.379 . S
C3222 C3219 1.363 . S
C3222 N3220 1.356 . S
C3223 C3217 1.363 . S
C3223 C3218 1.379 . S
C3223 N3221 1.356 . S
N3224 C3216 1.356 . S
N3224 H3230 0.984 . S
N3224 H3231 0.984 . S
N3225 C3218 1.356 . S
N3225 H3228 0.984 . S
N3225 H3229 0.985 . S
H3226 N3221 0.984 . S
H3227 N3221 0.985 . S
H3228 N3225 0.984 . S
H3229 N3225 0.985 . S
H3230 N3224 0.984 . S
H3231 N3224 0.984 . S
H3232 N3220 0.984 . S
H3233 N3220 0.985 . S
C3234 C3235 1.363 . S
C3234 C3240 1.379 . S
C3234 N3242 1.356 . S
C3235 C3234 1.363 . S
C3235 C3241 1.363 . S
C3236 C3237 1.363 . S
C3236 C3241 1.379 . S
C3236 N3243 1.356 . S
C3237 C3236 1.363 . S
C3237 C3240 1.363 . S
N3238 C3240 1.356 . S
N3238 H3250 0.984 . S
N3238 H3251 0.985 . S
N3239 C3241 1.356 . S
N3239 H3244 0.984 . S
N3239 H3245 0.985 . S
C3240 C3234 1.379 . S
C3240 C3237 1.363 . S
C3240 N3238 1.356 . S
C3241 C3235 1.363 . S
C3241 C3236 1.379 . S
C3241 N3239 1.356 . S
N3242 C3234 1.356 . S
N3242 H3248 0.984 . S
N3242 H3249 0.984 . S
N3243 C3236 1.356 . S
N3243 H3246 0.984 . S
N3243 H3247 0.985 . S
H3244 N3239 0.984 . S
H3245 N3239 0.985 . S
H3246 N3243 0.984 . S
H3247 N3243 0.985 . S
H3248 N3242 0.984 . S
H3249 N3242 0.984 . S
H3250 N3238 0.984 . S
H3251 N3238 0.985 . S
C3252 C3253 1.363 . S
C3252 C3258 1.379 . S
C3252 N3260 1.356 . S
C3253 C3252 1.363 . S
C3253 C3259 1.363 . S
C3254 C3255 1.363 . S
C3254 C3259 1.379 . S
C3254 N3261 1.356 . S
C3255 C3254 1.363 . S
C3255 C3258 1.363 . S
N3256 C3258 1.356 . S
N3256 H3268 0.984 . S
N3256 H3269 0.985 . S
N3257 C3259 1.356 1_554 S
N3257 H3262 0.984 . S
N3257 H3263 0.985 . S
C3258 C3252 1.379 . S
C3258 C3255 1.363 . S
C3258 N3256 1.356 . S
C3259 C3253 1.363 . S
C3259 C3254 1.379 . S
C3259 N3257 1.356 1_556 S
N3260 C3252 1.356 . S
N3260 H3266 0.984 . S
N3260 H3267 0.984 . S
N3261 C3254 1.356 . S
N3261 H3264 0.984 . S
N3261 H3265 0.985 . S
H3262 N3257 0.984 . S
H3263 N3257 0.985 . S
H3264 N3261 0.984 . S
H3265 N3261 0.985 . S
H3266 N3260 0.984 . S
H3267 N3260 0.984 . S
H3268 N3256 0.984 . S
H3269 N3256 0.985 . S
C3270 C3271 1.363 . S
C3270 C3276 1.379 . S
C3270 N3278 1.356 . S
C3271 C3270 1.363 . S
C3271 C3277 1.363 . S
C3272 C3273 1.363 . S
C3272 C3277 1.379 . S
C3272 N3279 1.356 . S
C3273 C3272 1.363 . S
C3273 C3276 1.363 . S
N3274 C3276 1.356 . S
N3274 H3286 0.984 . S
N3274 H3287 0.985 . S
N3275 C3277 1.356 . S
N3275 H3280 0.984 . S
N3275 H3281 0.985 . S
C3276 C3270 1.379 . S
C3276 C3273 1.363 . S
C3276 N3274 1.356 . S
C3277 C3271 1.363 . S
C3277 C3272 1.379 . S
C3277 N3275 1.356 . S
N3278 C3270 1.356 . S
N3278 H3284 0.984 . S
N3278 H3285 0.984 . S
N3279 C3272 1.356 . S
N3279 H3282 0.984 . S
N3279 H3283 0.985 . S
H3280 N3275 0.984 . S
H3281 N3275 0.985 . S
H3282 N3279 0.984 . S
H3283 N3279 0.985 . S
H3284 N3278 0.984 . S
H3285 N3278 0.984 . S
H3286 N3274 0.984 . S
H3287 N3274 0.985 . S
C3288 C3289 1.363 . S
C3288 C3294 1.379 . S
C3288 N3296 1.356 . S
C3289 C3288 1.363 . S
C3289 C3295 1.363 . S
C3290 C3291 1.363 . S
C3290 C3295 1.379 . S
C3290 N3297 1.356 . S
C3291 C3290 1.363 . S
C3291 C3294 1.363 . S
N3292 C3294 1.356 . S
N3292 H3304 0.984 . S
N3292 H3305 0.985 . S
N3293 C3295 1.356 . S
N3293 H3298 0.984 . S
N3293 H3299 0.985 . S
C3294 C3288 1.379 . S
C3294 C3291 1.363 . S
C3294 N3292 1.356 . S
C3295 C3289 1.363 . S
C3295 C3290 1.379 . S
C3295 N3293 1.356 . S
N3296 C3288 1.356 . S
N3296 H3302 0.984 . S
N3296 H3303 0.984 . S
N3297 C3290 1.356 . S
N3297 H3300 0.984 . S
N3297 H3301 0.985 . S
H3298 N3293 0.984 . S
H3299 N3293 0.985 . S
H3300 N3297 0.984 . S
H3301 N3297 0.985 . S
H3302 N3296 0.984 . S
H3303 N3296 0.984 . S
H3304 N3292 0.984 . S
H3305 N3292 0.985 . S
C3306 C3307 1.363 . S
C3306 C3312 1.379 . S
C3306 N3314 1.356 . S
C3307 C3306 1.363 . S
C3307 C3313 1.363 . S
C3308 C3309 1.363 . S
C3308 C3313 1.379 . S
C3308 N3315 1.356 . S
C3309 C3308 1.363 . S
C3309 C3312 1.363 . S
N3310 C3312 1.356 . S
N3310 H3322 0.984 . S
N3310 H3323 0.985 . S
N3311 C3313 1.356 . S
N3311 H3316 0.984 . S
N3311 H3317 0.985 . S
C3312 C3306 1.379 . S
C3312 C3309 1.363 . S
C3312 N3310 1.356 . S
C3313 C3307 1.363 . S
C3313 C3308 1.379 . S
C3313 N3311 1.356 . S
N3314 C3306 1.356 . S
N3314 H3320 0.984 . S
N3314 H3321 0.984 . S
N3315 C3308 1.356 . S
N3315 H3318 0.984 . S
N3315 H3319 0.985 . S
H3316 N3311 0.984 . S
H3317 N3311 0.985 . S
H3318 N3315 0.984 . S
H3319 N3315 0.985 . S
H3320 N3314 0.984 . S
H3321 N3314 0.984 . S
H3322 N3310 0.984 . S
H3323 N3310 0.985 . S
C3324 C3325 1.363 . S
C3324 C3330 1.379 . S
C3324 N3332 1.356 . S
C3325 C3324 1.363 . S
C3325 C3331 1.363 . S
C3326 C3327 1.363 . S
C3326 C3331 1.379 . S
C3326 N3333 1.356 . S
C3327 C3326 1.363 . S
C3327 C3330 1.363 . S
N3328 C3330 1.356 . S
N3328 H3340 0.984 . S
N3328 H3341 0.985 . S
N3329 C3331 1.356 . S
N3329 H3334 0.984 . S
N3329 H3335 0.985 . S
C3330 C3324 1.379 . S
C3330 C3327 1.363 . S
C3330 N3328 1.356 . S
C3331 C3325 1.363 . S
C3331 C3326 1.379 . S
C3331 N3329 1.356 . S
N3332 C3324 1.356 . S
N3332 H3338 0.984 . S
N3332 H3339 0.984 . S
N3333 C3326 1.356 . S
N3333 H3336 0.984 . S
N3333 H3337 0.985 . S
H3334 N3329 0.984 . S
H3335 N3329 0.985 . S
H3336 N3333 0.984 . S
H3337 N3333 0.985 . S
H3338 N3332 0.984 . S
H3339 N3332 0.984 . S
H3340 N3328 0.984 . S
H3341 N3328 0.985 . S
C3342 C3343 1.363 . S
C3342 C3348 1.379 . S
C3342 N3350 1.356 . S
C3343 C3342 1.363 . S
C3343 C3349 1.363 . S
C3344 C3345 1.363 . S
C3344 C3349 1.379 . S
C3344 N3351 1.356 1_545 S
C3345 C3344 1.363 . S
C3345 C3348 1.363 . S
N3346 C3348 1.356 . S
N3346 H3358 0.984 . S
N3346 H3359 0.985 . S
N3347 C3349 1.356 . S
N3347 H3352 0.984 . S
N3347 H3353 0.985 . S
C3348 C3342 1.379 . S
C3348 C3345 1.363 . S
C3348 N3346 1.356 . S
C3349 C3343 1.363 . S
C3349 C3344 1.379 . S
C3349 N3347 1.356 . S
N3350 C3342 1.356 . S
N3350 H3356 0.984 . S
N3350 H3357 0.984 . S
N3351 C3344 1.356 1_565 S
N3351 H3354 0.984 . S
N3351 H3355 0.985 . S
H3352 N3347 0.984 . S
H3353 N3347 0.985 . S
H3354 N3351 0.984 . S
H3355 N3351 0.985 . S
H3356 N3350 0.984 . S
H3357 N3350 0.984 . S
H3358 N3346 0.984 . S
H3359 N3346 0.985 . S
C3360 C3361 1.363 . S
C3360 C3366 1.379 . S
C3360 N3368 1.356 . S
C3361 C3360 1.363 . S
C3361 C3367 1.363 . S
C3362 C3363 1.363 . S
C3362 C3367 1.379 . S
C3362 N3369 1.356 . S
C3363 C3362 1.363 . S
C3363 C3366 1.363 . S
N3364 C3366 1.356 . S
N3364 H3376 0.984 . S
N3364 H3377 0.985 . S
N3365 C3367 1.356 . S
N3365 H3370 0.984 . S
N3365 H3371 0.985 . S
C3366 C3360 1.379 . S
C3366 C3363 1.363 . S
C3366 N3364 1.356 . S
C3367 C3361 1.363 . S
C3367 C3362 1.379 . S
C3367 N3365 1.356 . S
N3368 C3360 1.356 . S
N3368 H3374 0.984 . S
N3368 H3375 0.984 . S
N3369 C3362 1.356 . S
N3369 H3372 0.984 . S
N3369 H3373 0.985 . S
H3370 N3365 0.984 . S
H3371 N3365 0.985 . S
H3372 N3369 0.984 . S
H3373 N3369 0.985 . S
H3374 N3368 0.984 . S
H3375 N3368 0.984 . S
H3376 N3364 0.984 . S
H3377 N3364 0.985 . S
C3378 C3379 1.363 . S
C3378 C3384 1.379 . S
C3378 N3386 1.356 1_655 S
C3379 C3378 1.363 . S
C3379 C3385 1.363 . S
C3380 C3381 1.363 . S
C3380 C3385 1.379 . S
C3380 N3387 1.356 . S
C3381 C3380 1.363 . S
C3381 C3384 1.363 . S
N3382 C3384 1.356 1_565 S
N3382 H3394 0.984 . S
N3382 H3395 0.985 . S
N3383 C3385 1.356 . S
N3383 H3388 0.984 . S
N3383 H3389 0.985 . S
C3384 C3378 1.379 . S
C3384 C3381 1.363 . S
C3384 N3382 1.356 1_545 S
C3385 C3379 1.363 . S
C3385 C3380 1.379 . S
C3385 N3383 1.356 . S
N3386 C3378 1.356 1_455 S
N3386 H3392 0.984 . S
N3386 H3393 0.984 . S
N3387 C3380 1.356 . S
N3387 H3390 0.984 . S
N3387 H3391 0.985 . S
H3388 N3383 0.984 . S
H3389 N3383 0.985 . S
H3390 N3387 0.984 . S
H3391 N3387 0.985 . S
H3392 N3386 0.984 . S
H3393 N3386 0.984 . S
H3394 N3382 0.984 . S
H3395 N3382 0.985 . S
C3396 C3397 1.363 . S
C3396 C3402 1.379 . S
C3396 N3404 1.356 . S
C3397 C3396 1.363 . S
C3397 C3403 1.363 . S
C3398 C3399 1.363 . S
C3398 C3403 1.379 . S
C3398 N3405 1.356 . S
C3399 C3398 1.363 . S
C3399 C3402 1.363 . S
N3400 C3402 1.356 . S
N3400 H3412 0.984 . S
N3400 H3413 0.985 . S
N3401 C3403 1.356 . S
N3401 H3406 0.984 . S
N3401 H3407 0.985 . S
C3402 C3396 1.379 . S
C3402 C3399 1.363 . S
C3402 N3400 1.356 . S
C3403 C3397 1.363 . S
C3403 C3398 1.379 . S
C3403 N3401 1.356 . S
N3404 C3396 1.356 . S
N3404 H3410 0.984 . S
N3404 H3411 0.984 . S
N3405 C3398 1.356 . S
N3405 H3408 0.984 . S
N3405 H3409 0.985 . S
H3406 N3401 0.984 . S
H3407 N3401 0.985 . S
H3408 N3405 0.984 . S
H3409 N3405 0.985 . S
H3410 N3404 0.984 . S
H3411 N3404 0.984 . S
H3412 N3400 0.984 . S
H3413 N3400 0.985 . S
C3414 C3415 1.363 . S
C3414 C3420 1.379 . S
C3414 N3422 1.356 . S
C3415 C3414 1.363 . S
C3415 C3421 1.363 . S
C3416 C3417 1.363 . S
C3416 C3421 1.379 . S
C3416 N3423 1.356 . S
C3417 C3416 1.363 . S
C3417 C3420 1.363 . S
N3418 C3420 1.356 1_655 S
N3418 H3430 0.984 . S
N3418 H3431 0.985 . S
N3419 C3421 1.356 . S
N3419 H3424 0.984 . S
N3419 H3425 0.985 . S
C3420 C3414 1.379 . S
C3420 C3417 1.363 . S
C3420 N3418 1.356 1_455 S
C3421 C3415 1.363 . S
C3421 C3416 1.379 . S
C3421 N3419 1.356 . S
N3422 C3414 1.356 . S
N3422 H3428 0.984 . S
N3422 H3429 0.984 . S
N3423 C3416 1.356 . S
N3423 H3426 0.984 . S
N3423 H3427 0.985 . S
H3424 N3419 0.984 . S
H3425 N3419 0.985 . S
H3426 N3423 0.984 . S
H3427 N3423 0.985 . S
H3428 N3422 0.984 . S
H3429 N3422 0.984 . S
H3430 N3418 0.984 . S
H3431 N3418 0.985 . S
C3432 C3433 1.363 . S
C3432 C3438 1.379 . S
C3432 N3440 1.356 . S
C3433 C3432 1.363 . S
C3433 C3439 1.363 . S
C3434 C3435 1.363 . S
C3434 C3439 1.379 . S
C3434 N3441 1.356 . S
C3435 C3434 1.363 . S
C3435 C3438 1.363 . S
N3436 C3438 1.356 . S
N3436 H3448 0.984 . S
N3436 H3449 0.985 . S
N3437 C3439 1.356 . S
N3437 H3442 0.984 . S
N3437 H3443 0.985 . S
C3438 C3432 1.379 . S
C3438 C3435 1.363 . S
C3438 N3436 1.356 . S
C3439 C3433 1.363 . S
C3439 C3434 1.379 . S
C3439 N3437 1.356 . S
N3440 C3432 1.356 . S
N3440 H3446 0.984 . S
N3440 H3447 0.984 . S
N3441 C3434 1.356 . S
N3441 H3444 0.984 . S
N3441 H3445 0.985 . S
H3442 N3437 0.984 . S
H3443 N3437 0.985 . S
H3444 N3441 0.984 . S
H3445 N3441 0.985 . S
H3446 N3440 0.984 . S
H3447 N3440 0.984 . S
H3448 N3436 0.984 . S
H3449 N3436 0.985 . S
C3450 C3451 1.363 . S
C3450 C3456 1.379 . S
C3450 N3458 1.356 . S
C3451 C3450 1.363 . S
C3451 C3457 1.363 . S
C3452 C3453 1.363 . S
C3452 C3457 1.379 . S
C3452 N3459 1.356 . S
C3453 C3452 1.363 . S
C3453 C3456 1.363 . S
N3454 C3456 1.356 . S
N3454 H3466 0.984 . S
N3454 H3467 0.985 . S
N3455 C3457 1.356 1_565 S
N3455 H3460 0.984 . S
N3455 H3461 0.985 . S
C3456 C3450 1.379 . S
C3456 C3453 1.363 . S
C3456 N3454 1.356 . S
C3457 C3451 1.363 . S
C3457 C3452 1.379 . S
C3457 N3455 1.356 1_545 S
N3458 C3450 1.356 . S
N3458 H3464 0.984 . S
N3458 H3465 0.984 1_545 S
N3459 C3452 1.356 . S
N3459 H3462 0.984 . S
N3459 H3463 0.985 . S
H3460 N3455 0.984 . S
H3461 N3455 0.985 . S
H3462 N3459 0.984 . S
H3463 N3459 0.985 . S
H3464 N3458 0.984 . S
H3465 N3458 0.984 1_565 S
H3466 N3454 0.984 . S
H3467 N3454 0.985 . S
C3468 C3469 1.363 . S
C3468 C3474 1.379 . S
C3468 N3476 1.356 . S
C3469 C3468 1.363 . S
C3469 C3475 1.363 . S
C3470 C3471 1.363 . S
C3470 C3475 1.379 . S
C3470 N3477 1.356 . S
C3471 C3470 1.363 . S
C3471 C3474 1.363 . S
N3472 C3474 1.356 . S
N3472 H3484 0.984 . S
N3472 H3485 0.985 . S
N3473 C3475 1.356 . S
N3473 H3478 0.984 . S
N3473 H3479 0.985 . S
C3474 C3468 1.379 . S
C3474 C3471 1.363 . S
C3474 N3472 1.356 . S
C3475 C3469 1.363 . S
C3475 C3470 1.379 . S
C3475 N3473 1.356 . S
N3476 C3468 1.356 . S
N3476 H3482 0.984 . S
N3476 H3483 0.984 . S
N3477 C3470 1.356 . S
N3477 H3480 0.984 . S
N3477 H3481 0.985 . S
H3478 N3473 0.984 . S
H3479 N3473 0.985 . S
H3480 N3477 0.984 . S
H3481 N3477 0.985 . S
H3482 N3476 0.984 . S
H3483 N3476 0.984 . S
H3484 N3472 0.984 . S
H3485 N3472 0.985 . S
C3486 C3487 1.363 . S
C3486 C3492 1.379 . S
C3486 N3494 1.356 . S
C3487 C3486 1.363 . S
C3487 C3493 1.363 . S
C3488 C3489 1.363 . S
C3488 C3493 1.379 . S
C3488 N3495 1.356 . S
C3489 C3488 1.363 . S
C3489 C3492 1.363 . S
N3490 C3492 1.356 . S
N3490 H3502 0.984 . S
N3490 H3503 0.985 . S
N3491 C3493 1.356 . S
N3491 H3496 0.984 . S
N3491 H3497 0.985 . S
C3492 C3486 1.379 . S
C3492 C3489 1.363 . S
C3492 N3490 1.356 . S
C3493 C3487 1.363 . S
C3493 C3488 1.379 . S
C3493 N3491 1.356 . S
N3494 C3486 1.356 . S
N3494 H3500 0.984 . S
N3494 H3501 0.984 . S
N3495 C3488 1.356 . S
N3495 H3498 0.984 . S
N3495 H3499 0.985 . S
H3496 N3491 0.984 . S
H3497 N3491 0.985 . S
H3498 N3495 0.984 . S
H3499 N3495 0.985 . S
H3500 N3494 0.984 . S
H3501 N3494 0.984 . S
H3502 N3490 0.984 . S
H3503 N3490 0.985 . S
C3504 C3505 1.363 . S
C3504 C3510 1.379 . S
C3504 N3512 1.356 . S
C3505 C3504 1.363 . S
C3505 C3511 1.363 . S
C3506 C3507 1.363 . S
C3506 C3511 1.379 . S
C3506 N3513 1.356 . S
C3507 C3506 1.363 . S
C3507 C3510 1.363 . S
N3508 C3510 1.356 . S
N3508 H3520 0.984 . S
N3508 H3521 0.985 . S
N3509 C3511 1.356 . S
N3509 H3514 0.984 . S
N3509 H3515 0.985 . S
C3510 C3504 1.379 . S
C3510 C3507 1.363 . S
C3510 N3508 1.356 . S
C3511 C3505 1.363 . S
C3511 C3506 1.379 . S
C3511 N3509 1.356 . S
N3512 C3504 1.356 . S
N3512 H3518 0.984 . S
N3512 H3519 0.984 . S
N3513 C3506 1.356 . S
N3513 H3516 0.984 . S
N3513 H3517 0.985 . S
H3514 N3509 0.984 . S
H3515 N3509 0.985 . S
H3516 N3513 0.984 . S
H3517 N3513 0.985 . S
H3518 N3512 0.984 . S
H3519 N3512 0.984 . S
H3520 N3508 0.984 . S
H3521 N3508 0.985 . S
C3522 C3523 1.363 . S
C3522 C3528 1.379 . S
C3522 N3530 1.356 . S
C3523 C3522 1.363 . S
C3523 C3529 1.363 . S
C3524 C3525 1.363 . S
C3524 C3529 1.379 . S
C3524 N3531 1.356 . S
C3525 C3524 1.363 . S
C3525 C3528 1.363 . S
N3526 C3528 1.356 . S
N3526 H3538 0.984 . S
N3526 H3539 0.985 . S
N3527 C3529 1.356 1_455 S
N3527 H3532 0.984 . S
N3527 H3533 0.985 . S
C3528 C3522 1.379 . S
C3528 C3525 1.363 . S
C3528 N3526 1.356 . S
C3529 C3523 1.363 . S
C3529 C3524 1.379 . S
C3529 N3527 1.356 1_655 S
N3530 C3522 1.356 . S
N3530 H3536 0.984 . S
N3530 H3537 0.967 1_655 S
N3531 C3524 1.356 . S
N3531 H3534 0.984 . S
N3531 H3535 0.985 . S
H3532 N3527 0.984 . S
H3533 N3527 0.985 . S
H3534 N3531 0.984 . S
H3535 N3531 0.985 . S
H3536 N3530 0.984 . S
H3537 N3530 0.967 1_455 S
H3538 N3526 0.984 . S
H3539 N3526 0.985 . S
C3540 C3541 1.363 . S
C3540 C3546 1.379 . S
C3540 N3548 1.356 . S
C3541 C3540 1.363 . S
C3541 C3547 1.363 . S
C3542 C3543 1.363 . S
C3542 C3547 1.379 . S
C3542 N3549 1.356 . S
C3543 C3542 1.363 . S
C3543 C3546 1.363 . S
N3544 C3546 1.356 . S
N3544 H3556 0.984 . S
N3544 H3557 0.985 . S
N3545 C3547 1.356 . S
N3545 H3550 0.984 . S
N3545 H3551 0.985 . S
C3546 C3540 1.379 . S
C3546 C3543 1.363 . S
C3546 N3544 1.356 . S
C3547 C3541 1.363 . S
C3547 C3542 1.379 . S
C3547 N3545 1.356 . S
N3548 C3540 1.356 . S
N3548 H3554 0.984 . S
N3548 H3555 0.984 . S
N3549 C3542 1.356 . S
N3549 H3552 0.984 . S
N3549 H3553 0.985 . S
H3550 N3545 0.984 . S
H3551 N3545 0.985 . S
H3552 N3549 0.984 . S
H3553 N3549 0.985 . S
H3554 N3548 0.984 . S
H3555 N3548 0.984 . S
H3556 N3544 0.984 . S
H3557 N3544 0.985 . S
C3558 C3559 1.363 . S
C3558 C3564 1.379 . S
C3558 N3566 1.356 . S
C3559 C3558 1.363 . S
C3559 C3565 1.363 . S
C3560 C3561 1.363 . S
C3560 C3565 1.379 . S
C3560 N3567 1.356 . S
C3561 C3560 1.363 . S
C3561 C3564 1.363 . S
N3562 C3564 1.356 1_655 S
N3562 H3574 0.984 . S
N3562 H3575 0.985 . S
N3563 C3565 1.356 . S
N3563 H3568 0.984 . S
N3563 H3569 0.985 . S
C3564 C3558 1.379 . S
C3564 C3561 1.363 . S
C3564 N3562 1.356 1_455 S
C3565 C3559 1.363 . S
C3565 C3560 1.379 . S
C3565 N3563 1.356 . S
N3566 C3558 1.356 . S
N3566 H3572 0.984 . S
N3566 H3573 0.984 . S
N3567 C3560 1.356 . S
N3567 H3570 0.984 . S
N3567 H3571 0.985 . S
H3568 N3563 0.984 . S
H3569 N3563 0.985 . S
H3570 N3567 0.984 . S
H3571 N3567 0.985 . S
H3572 N3566 0.984 . S
H3573 N3566 0.984 . S
H3574 N3562 0.984 . S
H3575 N3562 0.985 . S
C3576 C3577 1.363 . S
C3576 C3582 1.379 . S
C3576 N3584 1.356 . S
C3577 C3576 1.363 . S
C3577 C3583 1.363 . S
C3578 C3579 1.363 . S
C3578 C3583 1.379 . S
C3578 N3585 1.356 . S
C3579 C3578 1.363 . S
C3579 C3582 1.363 . S
N3580 C3582 1.356 . S
N3580 H3592 0.984 . S
N3580 H3593 0.985 . S
N3581 C3583 1.356 . S
N3581 H3586 0.984 . S
N3581 H3587 0.985 . S
C3582 C3576 1.379 . S
C3582 C3579 1.363 . S
C3582 N3580 1.356 . S
C3583 C3577 1.363 . S
C3583 C3578 1.379 . S
C3583 N3581 1.356 . S
N3584 C3576 1.356 . S
N3584 H3590 0.984 . S
N3584 H3591 0.984 . S
N3585 C3578 1.356 . S
N3585 H3588 0.984 . S
N3585 H3589 0.985 . S
H3586 N3581 0.984 . S
H3587 N3581 0.985 . S
H3588 N3585 0.984 . S
H3589 N3585 0.985 . S
H3590 N3584 0.984 . S
H3591 N3584 0.984 . S
H3592 N3580 0.984 . S
H3593 N3580 0.985 . S
C3594 C3595 1.363 . S
C3594 C3600 1.379 . S
C3594 N3602 1.356 . S
C3595 C3594 1.363 . S
C3595 C3601 1.363 . S
C3596 C3597 1.363 . S
C3596 C3601 1.379 . S
C3596 N3603 1.356 . S
C3597 C3596 1.363 . S
C3597 C3600 1.363 . S
N3598 C3600 1.356 . S
N3598 H3610 0.984 . S
N3598 H3611 0.985 . S
N3599 C3601 1.356 . S
N3599 H3604 0.984 . S
N3599 H3605 0.985 . S
C3600 C3594 1.379 . S
C3600 C3597 1.363 . S
C3600 N3598 1.356 . S
C3601 C3595 1.363 . S
C3601 C3596 1.379 . S
C3601 N3599 1.356 . S
N3602 C3594 1.356 . S
N3602 H3608 0.984 . S
N3602 H3609 0.984 . S
N3603 C3596 1.356 . S
N3603 H3606 0.984 . S
N3603 H3607 0.985 . S
H3604 N3599 0.984 . S
H3605 N3599 0.985 . S
H3606 N3603 0.984 . S
H3607 N3603 0.985 . S
H3608 N3602 0.984 . S
H3609 N3602 0.984 . S
H3610 N3598 0.984 . S
H3611 N3598 0.985 . S
C3612 C3613 1.363 . S
C3612 C3618 1.379 . S
C3612 N3620 1.356 . S
C3613 C3612 1.363 . S
C3613 C3619 1.363 . S
C3614 C3615 1.363 . S
C3614 C3619 1.379 . S
C3614 N3621 1.356 . S
C3615 C3614 1.363 . S
C3615 C3618 1.363 . S
N3616 C3618 1.356 . S
N3616 H3628 0.984 . S
N3616 H3629 0.985 . S
N3617 C3619 1.356 . S
N3617 H3622 0.984 . S
N3617 H3623 0.985 . S
C3618 C3612 1.379 . S
C3618 C3615 1.363 . S
C3618 N3616 1.356 . S
C3619 C3613 1.363 . S
C3619 C3614 1.379 . S
C3619 N3617 1.356 . S
N3620 C3612 1.356 . S
N3620 H3626 0.984 . S
N3620 H3627 0.984 . S
N3621 C3614 1.356 . S
N3621 H3624 0.984 . S
N3621 H3625 0.985 . S
H3622 N3617 0.984 . S
H3623 N3617 0.985 . S
H3624 N3621 0.984 . S
H3625 N3621 0.985 . S
H3626 N3620 0.984 . S
H3627 N3620 0.984 . S
H3628 N3616 0.984 . S
H3629 N3616 0.985 . S
C3630 C3631 1.363 . S
C3630 C3636 1.379 . S
C3630 N3638 1.356 . S
C3631 C3630 1.363 . S
C3631 C3637 1.363 . S
C3632 C3633 1.363 . S
C3632 C3637 1.379 . S
C3632 N3639 1.356 . S
C3633 C3632 1.363 . S
C3633 C3636 1.363 . S
N3634 C3636 1.356 . S
N3634 H3646 0.984 . S
N3634 H3647 0.985 . S
N3635 C3637 1.356 . S
N3635 H3640 0.984 . S
N3635 H3641 0.985 . S
C3636 C3630 1.379 . S
C3636 C3633 1.363 . S
C3636 N3634 1.356 . S
C3637 C3631 1.363 . S
C3637 C3632 1.379 . S
C3637 N3635 1.356 . S
N3638 C3630 1.356 . S
N3638 H3644 0.984 . S
N3638 H3645 0.984 . S
N3639 C3632 1.356 . S
N3639 H3642 0.984 . S
N3639 H3643 0.985 . S
H3640 N3635 0.984 . S
H3641 N3635 0.985 . S
H3642 N3639 0.984 . S
H3643 N3639 0.985 . S
H3644 N3638 0.984 . S
H3645 N3638 0.984 . S
H3646 N3634 0.984 . S
H3647 N3634 0.985 . S
C3648 C3649 1.363 . S
C3648 C3654 1.379 . S
C3648 N3656 1.356 . S
C3649 C3648 1.363 . S
C3649 C3655 1.363 . S
C3650 C3651 1.363 . S
C3650 C3655 1.379 . S
C3650 N3657 1.356 . S
C3651 C3650 1.363 . S
C3651 C3654 1.363 . S
N3652 C3654 1.356 . S
N3652 H3664 0.984 . S
N3652 H3665 0.985 . S
N3653 C3655 1.356 . S
N3653 H3658 0.984 . S
N3653 H3659 0.985 . S
C3654 C3648 1.379 . S
C3654 C3651 1.363 . S
C3654 N3652 1.356 . S
C3655 C3649 1.363 . S
C3655 C3650 1.379 . S
C3655 N3653 1.356 . S
N3656 C3648 1.356 . S
N3656 H3662 0.984 . S
N3656 H3663 0.984 . S
N3657 C3650 1.356 . S
N3657 H3660 0.984 . S
N3657 H3661 0.985 . S
H3658 N3653 0.984 . S
H3659 N3653 0.985 . S
H3660 N3657 0.984 . S
H3661 N3657 0.985 . S
H3662 N3656 0.984 . S
H3663 N3656 0.984 . S
H3664 N3652 0.984 . S
H3665 N3652 0.985 . S
C3666 C3667 1.363 . S
C3666 C3672 1.379 . S
C3666 N3674 1.356 . S
C3667 C3666 1.363 . S
C3667 C3673 1.363 . S
C3668 C3669 1.363 . S
C3668 C3673 1.379 . S
C3668 N3675 1.356 . S
C3669 C3668 1.363 . S
C3669 C3672 1.363 . S
N3670 C3672 1.356 . S
N3670 H3682 0.984 . S
N3670 H3683 0.985 . S
N3671 C3673 1.356 . S
N3671 H3676 0.984 . S
N3671 H3677 0.985 . S
C3672 C3666 1.379 . S
C3672 C3669 1.363 . S
C3672 N3670 1.356 . S
C3673 C3667 1.363 . S
C3673 C3668 1.379 . S
C3673 N3671 1.356 . S
N3674 C3666 1.356 . S
N3674 H3680 0.984 . S
N3674 H3681 0.984 . S
N3675 C3668 1.356 . S
N3675 H3678 0.984 . S
N3675 H3679 0.985 . S
H3676 N3671 0.984 . S
H3677 N3671 0.985 . S
H3678 N3675 0.984 . S
H3679 N3675 0.985 . S
H3680 N3674 0.984 . S
H3681 N3674 0.984 . S
H3682 N3670 0.984 . S
H3683 N3670 0.985 . S
C3684 C3685 1.363 . S
C3684 C3690 1.379 . S
C3684 N3692 1.356 . S
C3685 C3684 1.363 . S
C3685 C3691 1.363 . S
C3686 C3687 1.363 . S
C3686 C3691 1.379 . S
C3686 N3693 1.356 . S
C3687 C3686 1.363 . S
C3687 C3690 1.363 . S
N3688 C3690 1.356 . S
N3688 H3700 0.984 . S
N3688 H3701 0.985 . S
N3689 C3691 1.356 1_565 S
N3689 H3694 0.984 . S
N3689 H3695 0.985 . S
C3690 C3684 1.379 . S
C3690 C3687 1.363 . S
C3690 N3688 1.356 . S
C3691 C3685 1.363 . S
C3691 C3686 1.379 . S
C3691 N3689 1.356 1_545 S
N3692 C3684 1.356 . S
N3692 H3698 0.984 . S
N3692 H3699 0.984 . S
N3693 C3686 1.356 . S
N3693 H3696 0.984 . S
N3693 H3697 0.985 . S
H3694 N3689 0.984 . S
H3695 N3689 0.985 . S
H3696 N3693 0.984 . S
H3697 N3693 0.985 . S
H3698 N3692 0.984 . S
H3699 N3692 0.984 . S
H3700 N3688 0.984 . S
H3701 N3688 0.985 . S
C3702 C3703 1.363 . S
C3702 C3708 1.379 . S
C3702 N3710 1.356 . S
C3703 C3702 1.363 . S
C3703 C3709 1.363 . S
C3704 C3705 1.363 . S
C3704 C3709 1.379 . S
C3704 N3711 1.356 . S
C3705 C3704 1.363 . S
C3705 C3708 1.363 . S
N3706 C3708 1.356 . S
N3706 H3718 0.984 . S
N3706 H3719 0.985 . S
N3707 C3709 1.356 . S
N3707 H3712 0.984 . S
N3707 H3713 0.985 . S
C3708 C3702 1.379 . S
C3708 C3705 1.363 . S
C3708 N3706 1.356 . S
C3709 C3703 1.363 . S
C3709 C3704 1.379 . S
C3709 N3707 1.356 . S
N3710 C3702 1.356 . S
N3710 H3716 0.984 . S
N3710 H3717 0.984 . S
N3711 C3704 1.356 . S
N3711 H3714 0.984 . S
N3711 H3715 0.985 . S
H3712 N3707 0.984 . S
H3713 N3707 0.985 . S
H3714 N3711 0.984 . S
H3715 N3711 0.985 . S
H3716 N3710 0.984 . S
H3717 N3710 0.984 . S
H3718 N3706 0.984 . S
H3719 N3706 0.985 . S
C3720 C3721 1.363 . S
C3720 C3726 1.379 . S
C3720 N3728 1.356 . S
C3721 C3720 1.363 . S
C3721 C3727 1.363 . S
C3722 C3723 1.363 . S
C3722 C3727 1.379 . S
C3722 N3729 1.356 1_556 S
C3723 C3722 1.363 . S
C3723 C3726 1.363 . S
N3724 C3726 1.356 . S
N3724 H3736 0.984 . S
N3724 H3737 0.985 . S
N3725 C3727 1.356 1_545 S
N3725 H3730 0.984 . S
N3725 H3731 0.985 . S
C3726 C3720 1.379 . S
C3726 C3723 1.363 . S
C3726 N3724 1.356 . S
C3727 C3721 1.363 . S
C3727 C3722 1.379 . S
C3727 N3725 1.356 1_565 S
N3728 C3720 1.356 . S
N3728 H3734 0.984 . S
N3728 H3735 0.984 . S
N3729 C3722 1.356 1_554 S
N3729 H3732 0.984 . S
N3729 H3733 0.985 . S
H3730 N3725 0.984 . S
H3731 N3725 0.985 . S
H3732 N3729 0.984 . S
H3733 N3729 0.985 . S
H3734 N3728 0.984 . S
H3735 N3728 0.984 . S
H3736 N3724 0.984 . S
H3737 N3724 0.985 . S
C3738 C3739 1.363 . S
C3738 C3744 1.379 . S
C3738 N3746 1.356 . S
C3739 C3738 1.363 . S
C3739 C3745 1.363 . S
C3740 C3741 1.363 . S
C3740 C3745 1.379 . S
C3740 N3747 1.356 . S
C3741 C3740 1.363 . S
C3741 C3744 1.363 . S
N3742 C3744 1.356 . S
N3742 H3754 0.984 . S
N3742 H3755 0.985 . S
N3743 C3745 1.356 . S
N3743 H3748 0.984 . S
N3743 H3749 0.985 . S
C3744 C3738 1.379 . S
C3744 C3741 1.363 . S
C3744 N3742 1.356 . S
C3745 C3739 1.363 . S
C3745 C3740 1.379 . S
C3745 N3743 1.356 . S
N3746 C3738 1.356 . S
N3746 H3752 0.984 . S
N3746 H3753 0.984 . S
N3747 C3740 1.356 . S
N3747 H3750 0.984 . S
N3747 H3751 0.985 . S
H3748 N3743 0.984 . S
H3749 N3743 0.985 . S
H3750 N3747 0.984 . S
H3751 N3747 0.985 . S
H3752 N3746 0.984 . S
H3753 N3746 0.984 . S
H3754 N3742 0.984 . S
H3755 N3742 0.985 . S
C3756 C3757 1.363 . S
C3756 C3762 1.379 . S
C3756 N3764 1.356 . S
C3757 C3756 1.363 . S
C3757 C3763 1.363 . S
C3758 C3759 1.363 . S
C3758 C3763 1.379 . S
C3758 N3765 1.356 1_554 S
C3759 C3758 1.363 . S
C3759 C3762 1.363 . S
N3760 C3762 1.356 . S
N3760 H3772 0.984 . S
N3760 H3773 0.985 . S
N3761 C3763 1.356 1_545 S
N3761 H3766 0.984 . S
N3761 H3767 0.985 . S
C3762 C3756 1.379 . S
C3762 C3759 1.363 . S
C3762 N3760 1.356 . S
C3763 C3757 1.363 . S
C3763 C3758 1.379 . S
C3763 N3761 1.356 1_565 S
N3764 C3756 1.356 . S
N3764 H3770 0.984 . S
N3764 H3771 0.984 . S
N3765 C3758 1.356 1_556 S
N3765 H3768 0.984 . S
N3765 H3769 0.985 . S
H3766 N3761 0.984 . S
H3767 N3761 0.985 . S
H3768 N3765 0.984 . S
H3769 N3765 0.985 . S
H3770 N3764 0.984 . S
H3771 N3764 0.984 . S
H3772 N3760 0.984 . S
H3773 N3760 0.985 . S
C3774 C3775 1.363 . S
C3774 C3780 1.379 . S
C3774 N3782 1.356 . S
C3775 C3774 1.363 . S
C3775 C3781 1.363 . S
C3776 C3777 1.363 . S
C3776 C3781 1.379 . S
C3776 N3783 1.356 1_554 S
C3777 C3776 1.363 . S
C3777 C3780 1.363 . S
N3778 C3780 1.356 . S
N3778 H3790 0.984 . S
N3778 H3791 0.985 . S
N3779 C3781 1.356 . S
N3779 H3784 0.984 . S
N3779 H3785 0.985 . S
C3780 C3774 1.379 . S
C3780 C3777 1.363 . S
C3780 N3778 1.356 . S
C3781 C3775 1.363 . S
C3781 C3776 1.379 . S
C3781 N3779 1.356 . S
N3782 C3774 1.356 . S
N3782 H3788 0.984 . S
N3782 H3789 0.984 . S
N3783 C3776 1.356 1_556 S
N3783 H3786 0.984 . S
N3783 H3787 0.985 . S
H3784 N3779 0.984 . S
H3785 N3779 0.985 . S
H3786 N3783 0.984 . S
H3787 N3783 0.985 . S
H3788 N3782 0.984 . S
H3789 N3782 0.984 . S
H3790 N3778 0.984 . S
H3791 N3778 0.985 . S
C3792 C3793 1.363 . S
C3792 C3798 1.379 . S
C3792 N3800 1.356 . S
C3793 C3792 1.363 . S
C3793 C3799 1.363 . S
C3794 C3795 1.363 . S
C3794 C3799 1.379 . S
C3794 N3801 1.356 . S
C3795 C3794 1.363 . S
C3795 C3798 1.363 . S
N3796 C3798 1.356 . S
N3796 H3808 0.984 . S
N3796 H3809 0.985 . S
N3797 C3799 1.356 . S
N3797 H3802 0.984 . S
N3797 H3803 0.985 . S
C3798 C3792 1.379 . S
C3798 C3795 1.363 . S
C3798 N3796 1.356 . S
C3799 C3793 1.363 . S
C3799 C3794 1.379 . S
C3799 N3797 1.356 . S
N3800 C3792 1.356 . S
N3800 H3806 0.984 . S
N3800 H3807 0.984 . S
N3801 C3794 1.356 . S
N3801 H3804 0.984 . S
N3801 H3805 0.985 . S
H3802 N3797 0.984 . S
H3803 N3797 0.985 . S
H3804 N3801 0.984 . S
H3805 N3801 0.985 . S
H3806 N3800 0.984 . S
H3807 N3800 0.984 . S
H3808 N3796 0.984 . S
H3809 N3796 0.985 . S
C3810 C3811 1.363 . S
C3810 C3816 1.379 . S
C3810 N3818 1.356 . S
C3811 C3810 1.363 . S
C3811 C3817 1.363 . S
C3812 C3813 1.363 . S
C3812 C3817 1.379 . S
C3812 N3819 1.356 . S
C3813 C3812 1.363 . S
C3813 C3816 1.363 . S
N3814 C3816 1.356 1_556 S
N3814 H3826 0.984 . S
N3814 H3827 0.985 . S
N3815 C3817 1.356 . S
N3815 H3820 0.984 . S
N3815 H3821 0.985 . S
C3816 C3810 1.379 . S
C3816 C3813 1.363 . S
C3816 N3814 1.356 1_554 S
C3817 C3811 1.363 . S
C3817 C3812 1.379 . S
C3817 N3815 1.356 . S
N3818 C3810 1.356 . S
N3818 H3824 0.984 . S
N3818 H3825 0.984 . S
N3819 C3812 1.356 . S
N3819 H3822 0.984 . S
N3819 H3823 0.985 . S
H3820 N3815 0.984 . S
H3821 N3815 0.985 . S
H3822 N3819 0.984 . S
H3823 N3819 0.985 . S
H3824 N3818 0.984 . S
H3825 N3818 0.984 . S
H3826 N3814 0.984 . S
H3827 N3814 0.985 . S
C3828 C3829 1.363 . S
C3828 C3834 1.379 . S
C3828 N3836 1.356 . S
C3829 C3828 1.363 . S
C3829 C3835 1.363 . S
C3830 C3831 1.363 . S
C3830 C3835 1.379 . S
C3830 N3837 1.356 . S
C3831 C3830 1.363 . S
C3831 C3834 1.363 . S
N3832 C3834 1.356 . S
N3832 H3844 0.984 . S
N3832 H3845 0.985 . S
N3833 C3835 1.356 . S
N3833 H3838 0.984 . S
N3833 H3839 0.985 . S
C3834 C3828 1.379 . S
C3834 C3831 1.363 . S
C3834 N3832 1.356 . S
C3835 C3829 1.363 . S
C3835 C3830 1.379 . S
C3835 N3833 1.356 . S
N3836 C3828 1.356 . S
N3836 H3842 0.984 . S
N3836 H3843 0.984 . S
N3837 C3830 1.356 . S
N3837 H3840 0.984 . S
N3837 H3841 0.985 . S
H3838 N3833 0.984 . S
H3839 N3833 0.985 . S
H3840 N3837 0.984 . S
H3841 N3837 0.985 . S
H3842 N3836 0.984 . S
H3843 N3836 0.984 . S
H3844 N3832 0.984 . S
H3845 N3832 0.985 . S
C3846 C3847 1.363 . S
C3846 C3852 1.379 . S
C3846 N3854 1.356 . S
C3847 C3846 1.363 . S
C3847 C3853 1.363 . S
C3848 C3849 1.363 . S
C3848 C3853 1.379 . S
C3848 N3855 1.356 . S
C3849 C3848 1.363 . S
C3849 C3852 1.363 . S
N3850 C3852 1.356 . S
N3850 H3862 0.984 . S
N3850 H3863 0.985 1_554 S
N3851 C3853 1.356 . S
N3851 H3856 0.984 . S
N3851 H3857 0.985 . S
C3852 C3846 1.379 . S
C3852 C3849 1.363 . S
C3852 N3850 1.356 . S
C3853 C3847 1.363 . S
C3853 C3848 1.379 . S
C3853 N3851 1.356 . S
N3854 C3846 1.356 . S
N3854 H3860 0.984 . S
N3854 H3861 0.984 . S
N3855 C3848 1.356 . S
N3855 H3858 0.984 . S
N3855 H3859 0.985 . S
H3856 N3851 0.984 . S
H3857 N3851 0.985 . S
H3858 N3855 0.984 . S
H3859 N3855 0.985 . S
H3860 N3854 0.984 . S
H3861 N3854 0.984 . S
H3862 N3850 0.984 . S
H3863 N3850 0.985 1_556 S
C3864 C3865 1.363 . S
C3864 C3870 1.379 . S
C3864 N3872 1.356 . S
C3865 C3864 1.363 . S
C3865 C3871 1.363 . S
C3866 C3867 1.363 . S
C3866 C3871 1.379 . S
C3866 N3873 1.356 . S
C3867 C3866 1.363 . S
C3867 C3870 1.363 . S
N3868 C3870 1.356 . S
N3868 H3880 0.984 . S
N3868 H3881 0.985 . S
N3869 C3871 1.356 . S
N3869 H3874 0.984 . S
N3869 H3875 0.985 . S
C3870 C3864 1.379 . S
C3870 C3867 1.363 . S
C3870 N3868 1.356 . S
C3871 C3865 1.363 . S
C3871 C3866 1.379 . S
C3871 N3869 1.356 . S
N3872 C3864 1.356 . S
N3872 H3878 0.984 . S
N3872 H3879 0.984 . S
N3873 C3866 1.356 . S
N3873 H3876 0.984 . S
N3873 H3877 0.985 . S
H3874 N3869 0.984 . S
H3875 N3869 0.985 . S
H3876 N3873 0.984 . S
H3877 N3873 0.985 . S
H3878 N3872 0.984 . S
H3879 N3872 0.984 . S
H3880 N3868 0.984 . S
H3881 N3868 0.985 . S
C3882 C3883 1.363 . S
C3882 C3888 1.379 . S
C3882 N3890 1.356 1_556 S
C3883 C3882 1.363 . S
C3883 C3889 1.363 . S
C3884 C3885 1.363 . S
C3884 C3889 1.379 . S
C3884 N3891 1.356 . S
C3885 C3884 1.363 . S
C3885 C3888 1.363 . S
N3886 C3888 1.356 . S
N3886 H3898 0.984 . S
N3886 H3899 0.985 . S
N3887 C3889 1.356 . S
N3887 H3892 0.984 . S
N3887 H3893 0.985 . S
C3888 C3882 1.379 . S
C3888 C3885 1.363 . S
C3888 N3886 1.356 . S
C3889 C3883 1.363 . S
C3889 C3884 1.379 . S
C3889 N3887 1.356 . S
N3890 C3882 1.356 1_554 S
N3890 H3896 0.984 . S
N3890 H3897 0.984 . S
N3891 C3884 1.356 . S
N3891 H3894 0.984 . S
N3891 H3895 0.985 . S
H3892 N3887 0.984 . S
H3893 N3887 0.985 . S
H3894 N3891 0.984 . S
H3895 N3891 0.985 . S
H3896 N3890 0.984 . S
H3897 N3890 0.984 . S
H3898 N3886 0.984 . S
H3899 N3886 0.985 . S
C3900 C3901 1.363 . S
C3900 C3906 1.379 . S
C3900 N3908 1.356 . S
C3901 C3900 1.363 . S
C3901 C3907 1.363 . S
C3902 C3903 1.363 . S
C3902 C3907 1.379 . S
C3902 N3909 1.356 . S
C3903 C3902 1.363 . S
C3903 C3906 1.363 . S
N3904 C3906 1.356 . S
N3904 H3916 0.984 . S
N3904 H3917 0.985 . S
N3905 C3907 1.356 . S
N3905 H3910 0.984 . S
N3905 H3911 0.985 . S
C3906 C3900 1.379 . S
C3906 C3903 1.363 . S
C3906 N3904 1.356 . S
C3907 C3901 1.363 . S
C3907 C3902 1.379 . S
C3907 N3905 1.356 . S
N3908 C3900 1.356 . S
N3908 H3914 0.984 . S
N3908 H3915 0.984 . S
N3909 C3902 1.356 . S
N3909 H3912 0.984 . S
N3909 H3913 0.985 . S
H3910 N3905 0.984 . S
H3911 N3905 0.985 . S
H3912 N3909 0.984 . S
H3913 N3909 0.985 . S
H3914 N3908 0.984 . S
H3915 N3908 0.984 . S
H3916 N3904 0.984 . S
H3917 N3904 0.985 . S
C3918 C3919 1.363 . S
C3918 C3924 1.379 . S
C3918 N3926 1.356 . S
C3919 C3918 1.363 . S
C3919 C3925 1.363 . S
C3920 C3921 1.363 . S
C3920 C3925 1.379 . S
C3920 N3927 1.356 . S
C3921 C3920 1.363 . S
C3921 C3924 1.363 . S
N3922 C3924 1.356 . S
N3922 H3934 0.984 . S
N3922 H3935 0.985 1_556 S
N3923 C3925 1.356 . S
N3923 H3928 0.984 . S
N3923 H3929 0.985 . S
C3924 C3918 1.379 . S
C3924 C3921 1.363 . S
C3924 N3922 1.356 . S
C3925 C3919 1.363 . S
C3925 C3920 1.379 . S
C3925 N3923 1.356 . S
N3926 C3918 1.356 . S
N3926 H3932 0.984 . S
N3926 H3933 0.984 . S
N3927 C3920 1.356 . S
N3927 H3930 0.984 . S
N3927 H3931 0.985 . S
H3928 N3923 0.984 . S
H3929 N3923 0.985 . S
H3930 N3927 0.984 . S
H3931 N3927 0.985 . S
H3932 N3926 0.984 . S
H3933 N3926 0.984 . S
H3934 N3922 0.984 . S
H3935 N3922 0.985 1_554 S
C3936 C3937 1.363 . S
C3936 C3942 1.379 . S
C3936 N3944 1.356 . S
C3937 C3936 1.363 . S
C3937 C3943 1.363 . S
C3938 C3939 1.363 . S
C3938 C3943 1.379 . S
C3938 N3945 1.356 . S
C3939 C3938 1.363 . S
C3939 C3942 1.363 . S
N3940 C3942 1.356 . S
N3940 H3952 0.984 . S
N3940 H3953 0.985 . S
N3941 C3943 1.356 . S
N3941 H3946 0.984 . S
N3941 H3947 0.985 . S
C3942 C3936 1.379 . S
C3942 C3939 1.363 . S
C3942 N3940 1.356 . S
C3943 C3937 1.363 . S
C3943 C3938 1.379 . S
C3943 N3941 1.356 . S
N3944 C3936 1.356 . S
N3944 H3950 0.984 . S
N3944 H3951 0.984 . S
N3945 C3938 1.356 . S
N3945 H3948 0.984 . S
N3945 H3949 0.985 . S
H3946 N3941 0.984 . S
H3947 N3941 0.985 . S
H3948 N3945 0.984 . S
H3949 N3945 0.985 . S
H3950 N3944 0.984 . S
H3951 N3944 0.984 . S
H3952 N3940 0.984 . S
H3953 N3940 0.985 . S
C3954 C3955 1.363 . S
C3954 C3960 1.379 . S
C3954 N3962 1.356 . S
C3955 C3954 1.363 . S
C3955 C3961 1.363 . S
C3956 C3957 1.363 . S
C3956 C3961 1.379 . S
C3956 N3963 1.356 . S
C3957 C3956 1.363 . S
C3957 C3960 1.363 . S
N3958 C3960 1.356 . S
N3958 H3970 0.984 . S
N3958 H3971 0.985 . S
N3959 C3961 1.356 . S
N3959 H3964 0.984 . S
N3959 H3965 0.985 . S
C3960 C3954 1.379 . S
C3960 C3957 1.363 . S
C3960 N3958 1.356 . S
C3961 C3955 1.363 . S
C3961 C3956 1.379 . S
C3961 N3959 1.356 . S
N3962 C3954 1.356 . S
N3962 H3968 0.984 . S
N3962 H3969 0.984 . S
N3963 C3956 1.356 . S
N3963 H3966 0.984 . S
N3963 H3967 0.985 . S
H3964 N3959 0.984 . S
H3965 N3959 0.985 . S
H3966 N3963 0.984 . S
H3967 N3963 0.985 . S
H3968 N3962 0.984 . S
H3969 N3962 0.984 . S
H3970 N3958 0.984 . S
H3971 N3958 0.985 . S
C3972 C3973 1.363 . S
C3972 C3978 1.379 . S
C3972 N3980 1.356 . S
C3973 C3972 1.363 . S
C3973 C3979 1.363 . S
C3974 C3975 1.363 . S
C3974 C3979 1.379 . S
C3974 N3981 1.356 . S
C3975 C3974 1.363 . S
C3975 C3978 1.363 . S
N3976 C3978 1.356 . S
N3976 H3988 0.984 . S
N3976 H3989 0.985 . S
N3977 C3979 1.356 . S
N3977 H3982 0.984 . S
N3977 H3983 0.985 . S
C3978 C3972 1.379 . S
C3978 C3975 1.363 . S
C3978 N3976 1.356 . S
C3979 C3973 1.363 . S
C3979 C3974 1.379 . S
C3979 N3977 1.356 . S
N3980 C3972 1.356 . S
N3980 H3986 0.984 . S
N3980 H3987 0.984 . S
N3981 C3974 1.356 . S
N3981 H3984 0.984 . S
N3981 H3985 0.985 . S
H3982 N3977 0.984 . S
H3983 N3977 0.985 . S
H3984 N3981 0.984 . S
H3985 N3981 0.985 . S
H3986 N3980 0.984 . S
H3987 N3980 0.984 . S
H3988 N3976 0.984 . S
H3989 N3976 0.985 . S
C3990 C3991 1.363 . S
C3990 C3996 1.379 . S
C3990 N3998 1.356 . S
C3991 C3990 1.363 . S
C3991 C3997 1.363 . S
C3992 C3993 1.363 . S
C3992 C3997 1.379 . S
C3992 N3999 1.356 . S
C3993 C3992 1.363 . S
C3993 C3996 1.363 . S
N3994 C3996 1.320 1_545 S
N3994 H4006 0.995 . S
N3994 H4007 1.012 . S
N3995 C3997 1.356 . S
N3995 H4000 0.984 . S
N3995 H4001 0.985 . S
C3996 C3990 1.379 . S
C3996 C3993 1.363 . S
C3996 N3994 1.320 1_565 S
C3997 C3991 1.363 . S
C3997 C3992 1.379 . S
C3997 N3995 1.356 . S
N3998 C3990 1.356 . S
N3998 H4004 0.984 . S
N3998 H4005 0.984 . S
N3999 C3992 1.356 . S
N3999 H4002 0.984 . S
N3999 H4003 0.985 . S
H4000 N3995 0.984 . S
H4001 N3995 0.985 . S
H4002 N3999 0.984 . S
H4003 N3999 0.985 . S
H4004 N3998 0.984 . S
H4005 N3998 0.984 . S
H4006 N3994 0.995 . S
H4007 N3994 1.012 . S
C4008 C4009 1.363 . S
C4008 C4014 1.379 . S
C4008 N4016 1.356 . S
C4009 C4008 1.363 . S
C4009 C4015 1.363 . S
C4010 C4011 1.363 . S
C4010 C4015 1.379 . S
C4010 N4017 1.356 . S
C4011 C4010 1.363 . S
C4011 C4014 1.363 . S
N4012 C4014 1.356 . S
N4012 H4024 0.984 . S
N4012 H4025 0.985 . S
N4013 C4015 1.356 . S
N4013 H4018 0.984 . S
N4013 H4019 0.985 . S
C4014 C4008 1.379 . S
C4014 C4011 1.363 . S
C4014 N4012 1.356 . S
C4015 C4009 1.363 . S
C4015 C4010 1.379 . S
C4015 N4013 1.356 . S
N4016 C4008 1.356 . S
N4016 H4022 0.984 . S
N4016 H4023 0.984 . S
N4017 C4010 1.356 . S
N4017 H4020 0.984 . S
N4017 H4021 0.985 . S
H4018 N4013 0.984 . S
H4019 N4013 0.985 . S
H4020 N4017 0.984 . S
H4021 N4017 0.985 . S
H4022 N4016 0.984 . S
H4023 N4016 0.984 . S
H4024 N4012 0.984 . S
H4025 N4012 0.985 . S
C4026 C4027 1.363 . S
C4026 C4032 1.379 . S
C4026 N4034 1.356 . S
C4027 C4026 1.363 . S
C4027 C4033 1.363 . S
C4028 C4029 1.363 . S
C4028 C4033 1.379 . S
C4028 N4035 1.356 . S
C4029 C4028 1.363 . S
C4029 C4032 1.363 . S
N4030 C4032 1.356 . S
N4030 H4042 0.984 . S
N4030 H4043 0.985 . S
N4031 C4033 1.356 . S
N4031 H4036 0.984 . S
N4031 H4037 0.985 . S
C4032 C4026 1.379 . S
C4032 C4029 1.363 . S
C4032 N4030 1.356 . S
C4033 C4027 1.363 . S
C4033 C4028 1.379 . S
C4033 N4031 1.356 . S
N4034 C4026 1.356 . S
N4034 H4040 0.984 . S
N4034 H4041 0.984 . S
N4035 C4028 1.356 . S
N4035 H4038 0.984 . S
N4035 H4039 0.985 . S
H4036 N4031 0.984 . S
H4037 N4031 0.985 . S
H4038 N4035 0.984 . S
H4039 N4035 0.985 . S
H4040 N4034 0.984 . S
H4041 N4034 0.984 . S
H4042 N4030 0.984 . S
H4043 N4030 0.985 . S
C4044 C4045 1.363 . S
C4044 C4050 1.379 . S
C4044 N4052 1.356 . S
C4045 C4044 1.363 . S
C4045 C4051 1.363 . S
C4046 C4047 1.363 . S
C4046 C4051 1.379 . S
C4046 N4053 1.356 . S
C4047 C4046 1.363 . S
C4047 C4050 1.363 . S
N4048 C4050 1.356 . S
N4048 H4060 0.984 . S
N4048 H4061 0.985 . S
N4049 C4051 1.356 . S
N4049 H4054 0.984 . S
N4049 H4055 0.985 . S
C4050 C4044 1.379 . S
C4050 C4047 1.363 . S
C4050 N4048 1.356 . S
C4051 C4045 1.363 . S
C4051 C4046 1.379 . S
C4051 N4049 1.356 . S
N4052 C4044 1.356 . S
N4052 H4058 0.984 . S
N4052 H4059 0.984 . S
N4053 C4046 1.356 . S
N4053 H4056 0.984 . S
N4053 H4057 0.985 . S
H4054 N4049 0.984 . S
H4055 N4049 0.985 . S
H4056 N4053 0.984 . S
H4057 N4053 0.985 . S
H4058 N4052 0.984 . S
H4059 N4052 0.984 . S
H4060 N4048 0.984 . S
H4061 N4048 0.985 . S
C4062 C4063 1.363 . S
C4062 C4068 1.379 . S
C4062 N4070 1.356 . S
C4063 C4062 1.363 . S
C4063 C4069 1.363 . S
C4064 C4065 1.363 . S
C4064 C4069 1.379 . S
C4064 N4071 1.356 . S
C4065 C4064 1.363 . S
C4065 C4068 1.363 . S
N4066 C4068 1.356 . S
N4066 H4078 0.984 . S
N4066 H4079 0.985 . S
N4067 C4069 1.356 . S
N4067 H4072 0.984 . S
N4067 H4073 0.985 . S
C4068 C4062 1.379 . S
C4068 C4065 1.363 . S
C4068 N4066 1.356 . S
C4069 C4063 1.363 . S
C4069 C4064 1.379 . S
C4069 N4067 1.356 . S
N4070 C4062 1.356 . S
N4070 H4076 0.984 . S
N4070 H4077 0.984 1_565 S
N4071 C4064 1.356 . S
N4071 H4074 0.984 . S
N4071 H4075 0.985 . S
H4072 N4067 0.984 . S
H4073 N4067 0.985 . S
H4074 N4071 0.984 . S
H4075 N4071 0.985 . S
H4076 N4070 0.984 . S
H4077 N4070 0.984 1_545 S
H4078 N4066 0.984 . S
H4079 N4066 0.985 . S
C4080 C4081 1.363 . S
C4080 C4086 1.379 . S
C4080 N4088 1.356 . S
C4081 C4080 1.363 . S
C4081 C4087 1.363 . S
C4082 C4083 1.363 . S
C4082 C4087 1.379 . S
C4082 N4089 1.356 . S
C4083 C4082 1.363 . S
C4083 C4086 1.363 . S
N4084 C4086 1.356 . S
N4084 H4096 0.984 . S
N4084 H4097 0.985 . S
N4085 C4087 1.356 . S
N4085 H4090 0.984 . S
N4085 H4091 0.985 . S
C4086 C4080 1.379 . S
C4086 C4083 1.363 . S
C4086 N4084 1.356 . S
C4087 C4081 1.363 . S
C4087 C4082 1.379 . S
C4087 N4085 1.356 . S
N4088 C4080 1.356 . S
N4088 H4094 0.984 . S
N4088 H4095 0.984 . S
N4089 C4082 1.356 . S
N4089 H4092 0.984 . S
N4089 H4093 0.985 . S
H4090 N4085 0.984 . S
H4091 N4085 0.985 . S
H4092 N4089 0.984 . S
H4093 N4089 0.985 . S
H4094 N4088 0.984 . S
H4095 N4088 0.984 . S
H4096 N4084 0.984 . S
H4097 N4084 0.985 . S
C4098 C4099 1.363 . S
C4098 C4104 1.379 . S
C4098 N4106 1.356 . S
C4099 C4098 1.363 . S
C4099 C4105 1.363 . S
C4100 C4101 1.363 . S
C4100 C4105 1.379 . S
C4100 N4107 1.356 . S
C4101 C4100 1.363 . S
C4101 C4104 1.363 . S
N4102 C4104 1.356 . S
N4102 H4114 0.984 . S
N4102 H4115 0.985 . S
N4103 C4105 1.356 . S
N4103 H4108 0.984 . S
N4103 H4109 0.985 . S
C4104 C4098 1.379 . S
C4104 C4101 1.363 . S
C4104 N4102 1.356 . S
C4105 C4099 1.363 . S
C4105 C4100 1.379 . S
C4105 N4103 1.356 . S
N4106 C4098 1.356 . S
N4106 H4112 0.984 . S
N4106 H4113 0.984 . S
N4107 C4100 1.356 . S
N4107 H4110 0.984 . S
N4107 H4111 0.985 . S
H4108 N4103 0.984 . S
H4109 N4103 0.985 . S
H4110 N4107 0.984 . S
H4111 N4107 0.985 . S
H4112 N4106 0.984 . S
H4113 N4106 0.984 . S
H4114 N4102 0.984 . S
H4115 N4102 0.985 . S
C4116 C4117 1.363 . S
C4116 C4122 1.379 . S
C4116 N4124 1.356 . S
C4117 C4116 1.363 . S
C4117 C4123 1.363 . S
C4118 C4119 1.363 . S
C4118 C4123 1.379 . S
C4118 N4125 1.356 1_455 S
C4119 C4118 1.363 . S
C4119 C4122 1.363 . S
N4120 C4122 1.356 . S
N4120 H4132 0.984 . S
N4120 H4133 0.985 . S
N4121 C4123 1.356 . S
N4121 H4126 0.984 . S
N4121 H4127 0.985 . S
C4122 C4116 1.379 . S
C4122 C4119 1.363 . S
C4122 N4120 1.356 . S
C4123 C4117 1.363 . S
C4123 C4118 1.379 . S
C4123 N4121 1.356 . S
N4124 C4116 1.356 . S
N4124 H4130 0.984 . S
N4124 H4131 0.984 . S
N4125 C4118 1.356 1_655 S
N4125 H4128 0.984 . S
N4125 H4129 0.985 . S
H4126 N4121 0.984 . S
H4127 N4121 0.985 . S
H4128 N4125 0.984 . S
H4129 N4125 0.985 . S
H4130 N4124 0.984 . S
H4131 N4124 0.984 . S
H4132 N4120 0.984 . S
H4133 N4120 0.985 . S
C4134 C4135 1.363 . S
C4134 C4140 1.379 . S
C4134 N4142 1.356 . S
C4135 C4134 1.363 . S
C4135 C4141 1.363 . S
C4136 C4137 1.363 . S
C4136 C4141 1.379 . S
C4136 N4143 1.356 . S
C4137 C4136 1.363 . S
C4137 C4140 1.363 . S
N4138 C4140 1.356 . S
N4138 H4150 0.984 . S
N4138 H4151 0.985 . S
N4139 C4141 1.356 . S
N4139 H4144 0.984 . S
N4139 H4145 0.985 . S
C4140 C4134 1.379 . S
C4140 C4137 1.363 . S
C4140 N4138 1.356 . S
C4141 C4135 1.363 . S
C4141 C4136 1.379 . S
C4141 N4139 1.356 . S
N4142 C4134 1.356 . S
N4142 H4148 0.984 . S
N4142 H4149 0.984 . S
N4143 C4136 1.356 . S
N4143 H4146 0.984 . S
N4143 H4147 0.985 . S
H4144 N4139 0.984 . S
H4145 N4139 0.985 . S
H4146 N4143 0.984 . S
H4147 N4143 0.985 . S
H4148 N4142 0.984 . S
H4149 N4142 0.984 . S
H4150 N4138 0.984 . S
H4151 N4138 0.985 . S
C4152 C4153 1.363 . S
C4152 C4158 1.379 . S
C4152 N4160 1.356 . S
C4153 C4152 1.363 . S
C4153 C4159 1.363 . S
C4154 C4155 1.363 . S
C4154 C4159 1.379 . S
C4154 N4161 1.356 . S
C4155 C4154 1.363 . S
C4155 C4158 1.363 . S
N4156 C4158 1.356 . S
N4156 H4168 0.984 . S
N4156 H4169 0.985 . S
N4157 C4159 1.356 . S
N4157 H4162 0.984 . S
N4157 H4163 0.985 . S
C4158 C4152 1.379 . S
C4158 C4155 1.363 . S
C4158 N4156 1.356 . S
C4159 C4153 1.363 . S
C4159 C4154 1.379 . S
C4159 N4157 1.356 . S
N4160 C4152 1.356 . S
N4160 H4166 0.984 . S
N4160 H4167 0.984 . S
N4161 C4154 1.356 . S
N4161 H4164 0.984 . S
N4161 H4165 0.985 . S
H4162 N4157 0.984 . S
H4163 N4157 0.985 . S
H4164 N4161 0.984 . S
H4165 N4161 0.985 . S
H4166 N4160 0.984 . S
H4167 N4160 0.984 . S
H4168 N4156 0.984 . S
H4169 N4156 0.985 . S
C4170 C4171 1.363 . S
C4170 C4176 1.379 . S
C4170 N4178 1.356 . S
C4171 C4170 1.363 . S
C4171 C4177 1.363 . S
C4172 C4173 1.363 . S
C4172 C4177 1.379 . S
C4172 N4179 1.356 . S
C4173 C4172 1.363 . S
C4173 C4176 1.363 . S
N4174 C4176 1.356 . S
N4174 H4186 0.984 . S
N4174 H4187 0.985 . S
N4175 C4177 1.356 . S
N4175 H4180 0.984 . S
N4175 H4181 0.985 . S
C4176 C4170 1.379 . S
C4176 C4173 1.363 . S
C4176 N4174 1.356 . S
C4177 C4171 1.363 . S
C4177 C4172 1.379 . S
C4177 N4175 1.356 . S
N4178 C4170 1.356 . S
N4178 H4184 0.984 . S
N4178 H4185 0.984 . S
N4179 C4172 1.356 . S
N4179 H4182 0.984 . S
N4179 H4183 0.985 . S
H4180 N4175 0.984 . S
H4181 N4175 0.985 . S
H4182 N4179 0.984 . S
H4183 N4179 0.985 . S
H4184 N4178 0.984 . S
H4185 N4178 0.984 . S
H4186 N4174 0.984 . S
H4187 N4174 0.985 . S
C4188 C4189 1.363 . S
C4188 C4194 1.379 . S
C4188 N4196 1.356 . S
C4189 C4188 1.363 . S
C4189 C4195 1.363 . S
C4190 C4191 1.363 . S
C4190 C4195 1.379 . S
C4190 N4197 1.356 . S
C4191 C4190 1.363 . S
C4191 C4194 1.363 . S
N4192 C4194 1.356 . S
N4192 H4204 0.984 . S
N4192 H4205 0.985 . S
N4193 C4195 1.356 1_655 S
N4193 H4198 0.984 . S
N4193 H4199 0.985 . S
C4194 C4188 1.379 . S
C4194 C4191 1.363 . S
C4194 N4192 1.356 . S
C4195 C4189 1.363 . S
C4195 C4190 1.379 . S
C4195 N4193 1.356 1_455 S
N4196 C4188 1.356 . S
N4196 H4202 0.984 . S
N4196 H4203 0.984 . S
N4197 C4190 1.356 . S
N4197 H4200 0.984 . S
N4197 H4201 0.985 . S
H4198 N4193 0.984 . S
H4199 N4193 0.985 . S
H4200 N4197 0.984 . S
H4201 N4197 0.985 . S
H4202 N4196 0.984 . S
H4203 N4196 0.984 . S
H4204 N4192 0.984 . S
H4205 N4192 0.985 . S
C4206 C4207 1.363 . S
C4206 C4212 1.379 . S
C4206 N4214 1.356 . S
C4207 C4206 1.363 . S
C4207 C4213 1.363 . S
C4208 C4209 1.363 . S
C4208 C4213 1.379 . S
C4208 N4215 1.353 1_655 S
C4209 C4208 1.363 . S
C4209 C4212 1.363 . S
N4210 C4212 1.356 . S
N4210 H4222 0.984 . S
N4210 H4223 0.985 . S
N4211 C4213 1.356 . S
N4211 H4216 0.984 . S
N4211 H4217 0.985 . S
C4212 C4206 1.379 . S
C4212 C4209 1.363 . S
C4212 N4210 1.356 . S
C4213 C4207 1.363 . S
C4213 C4208 1.379 . S
C4213 N4211 1.356 . S
N4214 C4206 1.356 . S
N4214 H4220 0.984 . S
N4214 H4221 0.984 . S
N4215 C4208 1.353 1_455 S
N4215 H4218 0.987 . S
N4215 H4219 0.985 . S
H4216 N4211 0.984 . S
H4217 N4211 0.985 . S
H4218 N4215 0.987 . S
H4219 N4215 0.985 . S
H4220 N4214 0.984 . S
H4221 N4214 0.984 . S
H4222 N4210 0.984 . S
H4223 N4210 0.985 . S
C4224 C4225 1.363 . S
C4224 C4230 1.379 . S
C4224 N4232 1.356 . S
C4225 C4224 1.363 . S
C4225 C4231 1.363 . S
C4226 C4227 1.363 . S
C4226 C4231 1.379 . S
C4226 N4233 1.356 . S
C4227 C4226 1.363 . S
C4227 C4230 1.363 . S
N4228 C4230 1.356 . S
N4228 H4240 0.984 . S
N4228 H4241 0.985 . S
N4229 C4231 1.356 . S
N4229 H4234 0.984 . S
N4229 H4235 0.985 . S
C4230 C4224 1.379 . S
C4230 C4227 1.363 . S
C4230 N4228 1.356 . S
C4231 C4225 1.363 . S
C4231 C4226 1.379 . S
C4231 N4229 1.356 . S
N4232 C4224 1.356 . S
N4232 H4238 0.984 . S
N4232 H4239 0.984 . S
N4233 C4226 1.356 . S
N4233 H4236 0.984 . S
N4233 H4237 0.985 . S
H4234 N4229 0.984 . S
H4235 N4229 0.985 . S
H4236 N4233 0.984 . S
H4237 N4233 0.985 . S
H4238 N4232 0.984 . S
H4239 N4232 0.984 . S
H4240 N4228 0.984 . S
H4241 N4228 0.985 . S
C4242 C4243 1.363 . S
C4242 C4248 1.379 . S
C4242 N4250 1.356 . S
C4243 C4242 1.363 . S
C4243 C4249 1.363 . S
C4244 C4245 1.363 . S
C4244 C4249 1.379 . S
C4244 N4251 1.356 . S
C4245 C4244 1.363 . S
C4245 C4248 1.363 . S
N4246 C4248 1.356 . S
N4246 H4258 0.984 . S
N4246 H4259 0.985 . S
N4247 C4249 1.356 . S
N4247 H4252 0.984 . S
N4247 H4253 0.985 . S
C4248 C4242 1.379 . S
C4248 C4245 1.363 . S
C4248 N4246 1.356 . S
C4249 C4243 1.363 . S
C4249 C4244 1.379 . S
C4249 N4247 1.356 . S
N4250 C4242 1.356 . S
N4250 H4256 0.984 . S
N4250 H4257 0.984 . S
N4251 C4244 1.356 . S
N4251 H4254 0.984 . S
N4251 H4255 0.985 . S
H4252 N4247 0.984 . S
H4253 N4247 0.985 . S
H4254 N4251 0.984 . S
H4255 N4251 0.985 . S
H4256 N4250 0.984 . S
H4257 N4250 0.984 . S
H4258 N4246 0.984 . S
H4259 N4246 0.985 . S
C4260 C4261 1.363 . S
C4260 C4266 1.379 . S
C4260 N4268 1.356 . S
C4261 C4260 1.363 . S
C4261 C4267 1.363 . S
C4262 C4263 1.363 . S
C4262 C4267 1.379 . S
C4262 N4269 1.356 . S
C4263 C4262 1.363 . S
C4263 C4266 1.363 . S
N4264 C4266 1.356 . S
N4264 H4276 0.984 . S
N4264 H4277 0.985 . S
N4265 C4267 1.356 . S
N4265 H4270 0.984 . S
N4265 H4271 0.985 . S
C4266 C4260 1.379 . S
C4266 C4263 1.363 . S
C4266 N4264 1.356 . S
C4267 C4261 1.363 . S
C4267 C4262 1.379 . S
C4267 N4265 1.356 . S
N4268 C4260 1.356 . S
N4268 H4274 0.984 . S
N4268 H4275 0.984 . S
N4269 C4262 1.356 . S
N4269 H4272 0.984 . S
N4269 H4273 0.985 . S
H4270 N4265 0.984 . S
H4271 N4265 0.985 . S
H4272 N4269 0.984 . S
H4273 N4269 0.985 . S
H4274 N4268 0.984 . S
H4275 N4268 0.984 . S
H4276 N4264 0.984 . S
H4277 N4264 0.985 . S
C4278 C4279 1.363 . S
C4278 C4284 1.379 . S
C4278 N4286 1.356 . S
C4279 C4278 1.363 . S
C4279 C4285 1.363 . S
C4280 C4281 1.363 . S
C4280 C4285 1.379 . S
C4280 N4287 1.356 . S
C4281 C4280 1.363 . S
C4281 C4284 1.363 . S
N4282 C4284 1.356 . S
N4282 H4294 0.984 . S
N4282 H4295 0.985 . S
N4283 C4285 1.356 . S
N4283 H4288 0.984 . S
N4283 H4289 0.985 . S
C4284 C4278 1.379 . S
C4284 C4281 1.363 . S
C4284 N4282 1.356 . S
C4285 C4279 1.363 . S
C4285 C4280 1.379 . S
C4285 N4283 1.356 . S
N4286 C4278 1.356 . S
N4286 H4292 0.984 . S
N4286 H4293 0.984 . S
N4287 C4280 1.356 . S
N4287 H4290 0.984 . S
N4287 H4291 0.985 . S
H4288 N4283 0.984 . S
H4289 N4283 0.985 . S
H4290 N4287 0.984 . S
H4291 N4287 0.985 . S
H4292 N4286 0.984 . S
H4293 N4286 0.984 . S
H4294 N4282 0.984 . S
H4295 N4282 0.985 . S
C4296 C4297 1.363 . S
C4296 C4302 1.379 . S
C4296 N4304 1.356 . S
C4297 C4296 1.363 . S
C4297 C4303 1.363 . S
C4298 C4299 1.363 . S
C4298 C4303 1.379 . S
C4298 N4305 1.356 . S
C4299 C4298 1.363 . S
C4299 C4302 1.363 . S
N4300 C4302 1.356 . S
N4300 H4312 0.984 . S
N4300 H4313 0.985 . S
N4301 C4303 1.356 . S
N4301 H4306 0.984 . S
N4301 H4307 0.985 . S
C4302 C4296 1.379 . S
C4302 C4299 1.363 . S
C4302 N4300 1.356 . S
C4303 C4297 1.363 . S
C4303 C4298 1.379 . S
C4303 N4301 1.356 . S
N4304 C4296 1.356 . S
N4304 H4310 0.984 . S
N4304 H4311 0.984 . S
N4305 C4298 1.356 . S
N4305 H4308 0.984 . S
N4305 H4309 0.985 . S
H4306 N4301 0.984 . S
H4307 N4301 0.985 . S
H4308 N4305 0.984 . S
H4309 N4305 0.985 . S
H4310 N4304 0.984 . S
H4311 N4304 0.984 . S
H4312 N4300 0.984 . S
H4313 N4300 0.985 . S
C4314 C4315 1.363 . S
C4314 C4320 1.379 . S
C4314 N4322 1.356 . S
C4315 C4314 1.363 . S
C4315 C4321 1.363 . S
C4316 C4317 1.363 . S
C4316 C4321 1.379 . S
C4316 N4323 1.356 . S
C4317 C4316 1.363 . S
C4317 C4320 1.363 . S
N4318 C4320 1.356 . S
N4318 H4330 0.984 . S
N4318 H4331 0.985 . S
N4319 C4321 1.356 . S
N4319 H4324 0.984 . S
N4319 H4325 0.985 . S
C4320 C4314 1.379 . S
C4320 C4317 1.363 . S
C4320 N4318 1.356 . S
C4321 C4315 1.363 . S
C4321 C4316 1.379 . S
C4321 N4319 1.356 . S
N4322 C4314 1.356 . S
N4322 H4328 0.984 . S
N4322 H4329 0.984 . S
N4323 C4316 1.356 . S
N4323 H4326 0.984 . S
N4323 H4327 0.985 . S
H4324 N4319 0.984 . S
H4325 N4319 0.985 . S
H4326 N4323 0.984 . S
H4327 N4323 0.985 . S
H4328 N4322 0.984 . S
H4329 N4322 0.984 . S
H4330 N4318 0.984 . S
H4331 N4318 0.985 . S
C4332 C4333 1.363 . S
C4332 C4338 1.379 . S
C4332 N4340 1.356 . S
C4333 C4332 1.363 . S
C4333 C4339 1.363 . S
C4334 C4335 1.363 . S
C4334 C4339 1.379 . S
C4334 N4341 1.356 . S
C4335 C4334 1.363 . S
C4335 C4338 1.363 . S
N4336 C4338 1.356 . S
N4336 H4348 0.984 . S
N4336 H4349 0.985 . S
N4337 C4339 1.356 . S
N4337 H4342 0.984 . S
N4337 H4343 0.985 . S
C4338 C4332 1.379 . S
C4338 C4335 1.363 . S
C4338 N4336 1.356 . S
C4339 C4333 1.363 . S
C4339 C4334 1.379 . S
C4339 N4337 1.356 . S
N4340 C4332 1.356 . S
N4340 H4346 0.984 . S
N4340 H4347 0.984 . S
N4341 C4334 1.356 . S
N4341 H4344 0.984 . S
N4341 H4345 0.985 . S
H4342 N4337 0.984 . S
H4343 N4337 0.985 . S
H4344 N4341 0.984 . S
H4345 N4341 0.985 . S
H4346 N4340 0.984 . S
H4347 N4340 0.984 . S
H4348 N4336 0.984 . S
H4349 N4336 0.985 . S
C4350 C4351 1.363 . S
C4350 C4356 1.379 . S
C4350 N4358 1.356 . S
C4351 C4350 1.363 . S
C4351 C4357 1.363 . S
C4352 C4353 1.363 . S
C4352 C4357 1.379 . S
C4352 N4359 1.356 . S
C4353 C4352 1.363 . S
C4353 C4356 1.363 . S
N4354 C4356 1.356 . S
N4354 H4366 0.984 . S
N4354 H4367 0.985 . S
N4355 C4357 1.356 . S
N4355 H4360 0.984 . S
N4355 H4361 0.985 . S
C4356 C4350 1.379 . S
C4356 C4353 1.363 . S
C4356 N4354 1.356 . S
C4357 C4351 1.363 . S
C4357 C4352 1.379 . S
C4357 N4355 1.356 . S
N4358 C4350 1.356 . S
N4358 H4364 0.984 . S
N4358 H4365 0.984 . S
N4359 C4352 1.356 . S
N4359 H4362 0.984 . S
N4359 H4363 0.985 . S
H4360 N4355 0.984 . S
H4361 N4355 0.985 . S
H4362 N4359 0.984 . S
H4363 N4359 0.985 . S
H4364 N4358 0.984 . S
H4365 N4358 0.984 . S
H4366 N4354 0.984 . S
H4367 N4354 0.985 . S
C4368 C4369 1.363 . S
C4368 C4374 1.379 . S
C4368 N4376 1.356 . S
C4369 C4368 1.363 . S
C4369 C4375 1.363 . S
C4370 C4371 1.363 . S
C4370 C4375 1.379 . S
C4370 N4377 1.356 . S
C4371 C4370 1.363 . S
C4371 C4374 1.363 . S
N4372 C4374 1.356 . S
N4372 H4384 0.984 . S
N4372 H4385 0.985 . S
N4373 C4375 1.356 . S
N4373 H4378 0.984 . S
N4373 H4379 0.985 . S
C4374 C4368 1.379 . S
C4374 C4371 1.363 . S
C4374 N4372 1.356 . S
C4375 C4369 1.363 . S
C4375 C4370 1.379 . S
C4375 N4373 1.356 . S
N4376 C4368 1.356 . S
N4376 H4382 0.984 . S
N4376 H4383 0.984 . S
N4377 C4370 1.356 . S
N4377 H4380 0.984 . S
N4377 H4381 0.985 . S
H4378 N4373 0.984 . S
H4379 N4373 0.985 . S
H4380 N4377 0.984 . S
H4381 N4377 0.985 . S
H4382 N4376 0.984 . S
H4383 N4376 0.984 . S
H4384 N4372 0.984 . S
H4385 N4372 0.985 . S
C4386 C4387 1.363 . S
C4386 C4392 1.379 . S
C4386 N4394 1.356 . S
C4387 C4386 1.363 . S
C4387 C4393 1.363 . S
C4388 C4389 1.363 . S
C4388 C4393 1.379 . S
C4388 N4395 1.356 . S
C4389 C4388 1.363 . S
C4389 C4392 1.363 . S
N4390 C4392 1.356 . S
N4390 H4402 0.984 . S
N4390 H4403 0.985 . S
N4391 C4393 1.356 . S
N4391 H4396 0.984 . S
N4391 H4397 0.985 . S
C4392 C4386 1.379 . S
C4392 C4389 1.363 . S
C4392 N4390 1.356 . S
C4393 C4387 1.363 . S
C4393 C4388 1.379 . S
C4393 N4391 1.356 . S
N4394 C4386 1.356 . S
N4394 H4400 0.984 . S
N4394 H4401 0.984 1_545 S
N4395 C4388 1.356 . S
N4395 H4398 0.984 . S
N4395 H4399 0.985 . S
H4396 N4391 0.984 . S
H4397 N4391 0.985 . S
H4398 N4395 0.984 . S
H4399 N4395 0.985 . S
H4400 N4394 0.984 . S
H4401 N4394 0.984 1_565 S
H4402 N4390 0.984 . S
H4403 N4390 0.985 . S
C4404 C4405 1.363 . S
C4404 C4410 1.379 . S
C4404 N4412 1.356 . S
C4405 C4404 1.363 . S
C4405 C4411 1.363 . S
C4406 C4407 1.363 . S
C4406 C4411 1.379 . S
C4406 N4413 1.356 . S
C4407 C4406 1.363 . S
C4407 C4410 1.363 . S
N4408 C4410 1.356 . S
N4408 H4420 0.984 . S
N4408 H4421 0.985 . S
N4409 C4411 1.356 . S
N4409 H4414 0.984 . S
N4409 H4415 0.985 . S
C4410 C4404 1.379 . S
C4410 C4407 1.363 . S
C4410 N4408 1.356 . S
C4411 C4405 1.363 . S
C4411 C4406 1.379 . S
C4411 N4409 1.356 . S
N4412 C4404 1.356 . S
N4412 H4418 0.984 . S
N4412 H4419 0.984 . S
N4413 C4406 1.356 . S
N4413 H4416 0.984 . S
N4413 H4417 0.985 . S
H4414 N4409 0.984 . S
H4415 N4409 0.985 . S
H4416 N4413 0.984 . S
H4417 N4413 0.985 . S
H4418 N4412 0.984 . S
H4419 N4412 0.984 . S
H4420 N4408 0.984 . S
H4421 N4408 0.985 . S
C4422 C4423 1.363 . S
C4422 C4428 1.379 . S
C4422 N4430 1.356 . S
C4423 C4422 1.363 . S
C4423 C4429 1.363 . S
C4424 C4425 1.363 . S
C4424 C4429 1.379 . S
C4424 N4431 1.356 . S
C4425 C4424 1.363 . S
C4425 C4428 1.363 . S
N4426 C4428 1.356 . S
N4426 H4438 0.984 . S
N4426 H4439 0.985 . S
N4427 C4429 1.356 . S
N4427 H4432 0.984 . S
N4427 H4433 0.985 . S
C4428 C4422 1.379 . S
C4428 C4425 1.363 . S
C4428 N4426 1.356 . S
C4429 C4423 1.363 . S
C4429 C4424 1.379 . S
C4429 N4427 1.356 . S
N4430 C4422 1.356 . S
N4430 H4436 0.984 . S
N4430 H4437 0.984 . S
N4431 C4424 1.356 . S
N4431 H4434 0.984 . S
N4431 H4435 0.985 . S
H4432 N4427 0.984 . S
H4433 N4427 0.985 . S
H4434 N4431 0.984 . S
H4435 N4431 0.985 . S
H4436 N4430 0.984 . S
H4437 N4430 0.984 . S
H4438 N4426 0.984 . S
H4439 N4426 0.985 . S
C4440 C4441 1.363 . S
C4440 C4446 1.379 . S
C4440 N4448 1.356 . S
C4441 C4440 1.363 . S
C4441 C4447 1.363 . S
C4442 C4443 1.363 . S
C4442 C4447 1.379 . S
C4442 N4449 1.356 . S
C4443 C4442 1.363 . S
C4443 C4446 1.363 . S
N4444 C4446 1.356 . S
N4444 H4456 0.984 . S
N4444 H4457 0.985 . S
N4445 C4447 1.356 . S
N4445 H4450 0.984 . S
N4445 H4451 0.985 . S
C4446 C4440 1.379 . S
C4446 C4443 1.363 . S
C4446 N4444 1.356 . S
C4447 C4441 1.363 . S
C4447 C4442 1.379 . S
C4447 N4445 1.356 . S
N4448 C4440 1.356 . S
N4448 H4454 0.984 . S
N4448 H4455 0.984 . S
N4449 C4442 1.356 . S
N4449 H4452 0.984 . S
N4449 H4453 0.985 . S
H4450 N4445 0.984 . S
H4451 N4445 0.985 . S
H4452 N4449 0.984 . S
H4453 N4449 0.985 . S
H4454 N4448 0.984 . S
H4455 N4448 0.984 . S
H4456 N4444 0.984 . S
H4457 N4444 0.985 . S
C4458 C4459 1.363 . S
C4458 C4464 1.379 . S
C4458 N4466 1.356 . S
C4459 C4458 1.363 . S
C4459 C4465 1.363 . S
C4460 C4461 1.363 . S
C4460 C4465 1.379 . S
C4460 N4467 1.356 1_545 S
C4461 C4460 1.363 . S
C4461 C4464 1.363 . S
N4462 C4464 1.356 . S
N4462 H4474 0.984 . S
N4462 H4475 0.985 . S
N4463 C4465 1.356 . S
N4463 H4468 0.984 . S
N4463 H4469 0.985 . S
C4464 C4458 1.379 . S
C4464 C4461 1.363 . S
C4464 N4462 1.356 . S
C4465 C4459 1.363 . S
C4465 C4460 1.379 . S
C4465 N4463 1.356 . S
N4466 C4458 1.356 . S
N4466 H4472 0.984 . S
N4466 H4473 0.984 . S
N4467 C4460 1.356 1_565 S
N4467 H4470 0.984 . S
N4467 H4471 0.985 . S
H4468 N4463 0.984 . S
H4469 N4463 0.985 . S
H4470 N4467 0.984 . S
H4471 N4467 0.985 . S
H4472 N4466 0.984 . S
H4473 N4466 0.984 . S
H4474 N4462 0.984 . S
H4475 N4462 0.985 . S
C4476 C4477 1.363 . S
C4476 C4482 1.379 . S
C4476 N4484 1.356 . S
C4477 C4476 1.363 . S
C4477 C4483 1.363 . S
C4478 C4479 1.363 . S
C4478 C4483 1.379 . S
C4478 N4485 1.356 . S
C4479 C4478 1.363 . S
C4479 C4482 1.363 . S
N4480 C4482 1.356 . S
N4480 H4492 0.984 . S
N4480 H4493 0.985 . S
N4481 C4483 1.356 . S
N4481 H4486 0.984 . S
N4481 H4487 0.985 . S
C4482 C4476 1.379 . S
C4482 C4479 1.363 . S
C4482 N4480 1.356 . S
C4483 C4477 1.363 . S
C4483 C4478 1.379 . S
C4483 N4481 1.356 . S
N4484 C4476 1.356 . S
N4484 H4490 0.984 . S
N4484 H4491 0.984 . S
N4485 C4478 1.356 . S
N4485 H4488 0.984 . S
N4485 H4489 0.985 . S
H4486 N4481 0.984 . S
H4487 N4481 0.985 . S
H4488 N4485 0.984 . S
H4489 N4485 0.985 . S
H4490 N4484 0.984 . S
H4491 N4484 0.984 . S
H4492 N4480 0.984 . S
H4493 N4480 0.985 . S
C4494 C4495 1.363 . S
C4494 C4500 1.379 . S
C4494 N4502 1.356 . S
C4495 C4494 1.363 . S
C4495 C4501 1.363 . S
C4496 C4497 1.363 . S
C4496 C4501 1.379 . S
C4496 N4503 1.356 . S
C4497 C4496 1.363 . S
C4497 C4500 1.363 . S
N4498 C4500 1.356 . S
N4498 H4510 0.984 . S
N4498 H4511 0.985 . S
N4499 C4501 1.356 . S
N4499 H4504 0.984 . S
N4499 H4505 0.985 . S
C4500 C4494 1.379 . S
C4500 C4497 1.363 . S
C4500 N4498 1.356 . S
C4501 C4495 1.363 . S
C4501 C4496 1.379 . S
C4501 N4499 1.356 . S
N4502 C4494 1.356 . S
N4502 H4508 0.984 . S
N4502 H4509 0.984 . S
N4503 C4496 1.356 . S
N4503 H4506 0.984 . S
N4503 H4507 0.985 . S
H4504 N4499 0.984 . S
H4505 N4499 0.985 . S
H4506 N4503 0.984 . S
H4507 N4503 0.985 . S
H4508 N4502 0.984 . S
H4509 N4502 0.984 . S
H4510 N4498 0.984 . S
H4511 N4498 0.985 . S
C4512 C4513 1.363 . S
C4512 C4518 1.379 . S
C4512 N4520 1.356 . S
C4513 C4512 1.363 . S
C4513 C4519 1.363 . S
C4514 C4515 1.363 . S
C4514 C4519 1.379 . S
C4514 N4521 1.356 . S
C4515 C4514 1.363 . S
C4515 C4518 1.363 . S
N4516 C4518 1.356 . S
N4516 H4528 0.984 . S
N4516 H4529 0.985 . S
N4517 C4519 1.356 . S
N4517 H4522 0.984 . S
N4517 H4523 0.985 . S
C4518 C4512 1.379 . S
C4518 C4515 1.363 . S
C4518 N4516 1.356 . S
C4519 C4513 1.363 . S
C4519 C4514 1.379 . S
C4519 N4517 1.356 . S
N4520 C4512 1.356 . S
N4520 H4526 0.984 . S
N4520 H4527 0.984 . S
N4521 C4514 1.356 . S
N4521 H4524 0.984 . S
N4521 H4525 0.985 . S
H4522 N4517 0.984 . S
H4523 N4517 0.985 . S
H4524 N4521 0.984 . S
H4525 N4521 0.985 . S
H4526 N4520 0.984 . S
H4527 N4520 0.984 . S
H4528 N4516 0.984 . S
H4529 N4516 0.985 . S
C4530 C4531 1.363 . S
C4530 C4536 1.379 . S
C4530 N4538 1.356 . S
C4531 C4530 1.363 . S
C4531 C4537 1.363 . S
C4532 C4533 1.363 . S
C4532 C4537 1.379 . S
C4532 N4539 1.356 . S
C4533 C4532 1.363 . S
C4533 C4536 1.363 . S
N4534 C4536 1.356 . S
N4534 H4546 0.984 . S
N4534 H4547 0.985 . S
N4535 C4537 1.356 . S
N4535 H4540 0.984 . S
N4535 H4541 0.985 . S
C4536 C4530 1.379 . S
C4536 C4533 1.363 . S
C4536 N4534 1.356 . S
C4537 C4531 1.363 . S
C4537 C4532 1.379 . S
C4537 N4535 1.356 . S
N4538 C4530 1.356 . S
N4538 H4544 0.984 . S
N4538 H4545 0.984 . S
N4539 C4532 1.356 . S
N4539 H4542 0.984 . S
N4539 H4543 0.985 . S
H4540 N4535 0.984 . S
H4541 N4535 0.985 . S
H4542 N4539 0.984 . S
H4543 N4539 0.985 . S
H4544 N4538 0.984 . S
H4545 N4538 0.984 . S
H4546 N4534 0.984 . S
H4547 N4534 0.985 . S
C4548 C4549 1.363 . S
C4548 C4554 1.379 . S
C4548 N4556 1.356 . S
C4549 C4548 1.363 . S
C4549 C4555 1.363 . S
C4550 C4551 1.363 . S
C4550 C4555 1.379 . S
C4550 N4557 1.356 . S
C4551 C4550 1.363 . S
C4551 C4554 1.363 . S
N4552 C4554 1.356 . S
N4552 H4564 0.984 . S
N4552 H4565 0.985 . S
N4553 C4555 1.356 . S
N4553 H4558 0.984 . S
N4553 H4559 0.985 . S
C4554 C4548 1.379 . S
C4554 C4551 1.363 . S
C4554 N4552 1.356 . S
C4555 C4549 1.363 . S
C4555 C4550 1.379 . S
C4555 N4553 1.356 . S
N4556 C4548 1.356 . S
N4556 H4562 0.984 . S
N4556 H4563 0.984 . S
N4557 C4550 1.356 . S
N4557 H4560 0.984 . S
N4557 H4561 0.985 . S
H4558 N4553 0.984 . S
H4559 N4553 0.985 . S
H4560 N4557 0.984 . S
H4561 N4557 0.985 . S
H4562 N4556 0.984 . S
H4563 N4556 0.984 . S
H4564 N4552 0.984 . S
H4565 N4552 0.985 . S
C4566 C4567 1.363 . S
C4566 C4572 1.379 . S
C4566 N4574 1.356 . S
C4567 C4566 1.363 . S
C4567 C4573 1.363 . S
C4568 C4569 1.363 . S
C4568 C4573 1.379 . S
C4568 N4575 1.356 . S
C4569 C4568 1.363 . S
C4569 C4572 1.363 . S
N4570 C4572 1.356 . S
N4570 H4582 0.984 . S
N4570 H4583 0.985 . S
N4571 C4573 1.356 . S
N4571 H4576 0.984 . S
N4571 H4577 0.985 . S
C4572 C4566 1.379 . S
C4572 C4569 1.363 . S
C4572 N4570 1.356 . S
C4573 C4567 1.363 . S
C4573 C4568 1.379 . S
C4573 N4571 1.356 . S
N4574 C4566 1.356 . S
N4574 H4580 0.984 . S
N4574 H4581 0.984 . S
N4575 C4568 1.356 . S
N4575 H4578 0.984 . S
N4575 H4579 0.985 . S
H4576 N4571 0.984 . S
H4577 N4571 0.985 . S
H4578 N4575 0.984 . S
H4579 N4575 0.985 . S
H4580 N4574 0.984 . S
H4581 N4574 0.984 . S
H4582 N4570 0.984 . S
H4583 N4570 0.985 . S
C4584 C4585 1.363 . S
C4584 C4590 1.379 . S
C4584 N4592 1.356 . S
C4585 C4584 1.363 . S
C4585 C4591 1.363 . S
C4586 C4587 1.363 . S
C4586 C4591 1.379 . S
C4586 N4593 1.356 . S
C4587 C4586 1.363 . S
C4587 C4590 1.363 . S
N4588 C4590 1.356 . S
N4588 H4600 0.984 . S
N4588 H4601 0.985 1_655 S
N4589 C4591 1.356 . S
N4589 H4594 0.984 . S
N4589 H4595 0.985 . S
C4590 C4584 1.379 . S
C4590 C4587 1.363 . S
C4590 N4588 1.356 . S
C4591 C4585 1.363 . S
C4591 C4586 1.379 . S
C4591 N4589 1.356 . S
N4592 C4584 1.356 . S
N4592 H4598 0.984 . S
N4592 H4599 0.984 . S
N4593 C4586 1.356 . S
N4593 H4596 0.984 . S
N4593 H4597 0.985 . S
H4594 N4589 0.984 . S
H4595 N4589 0.985 . S
H4596 N4593 0.984 . S
H4597 N4593 0.985 . S
H4598 N4592 0.984 . S
H4599 N4592 0.984 . S
H4600 N4588 0.984 . S
H4601 N4588 0.985 1_455 S
C4602 C4603 1.363 . S
C4602 C4608 1.379 . S
C4602 N4610 1.356 . S
C4603 C4602 1.363 . S
C4603 C4609 1.363 . S
C4604 C4605 1.363 . S
C4604 C4609 1.379 . S
C4604 N4611 1.356 . S
C4605 C4604 1.363 . S
C4605 C4608 1.363 . S
N4606 C4608 1.356 . S
N4606 H4618 0.984 . S
N4606 H4619 0.985 . S
N4607 C4609 1.356 . S
N4607 H4612 0.984 . S
N4607 H4613 0.985 . S
C4608 C4602 1.379 . S
C4608 C4605 1.363 . S
C4608 N4606 1.356 . S
C4609 C4603 1.363 . S
C4609 C4604 1.379 . S
C4609 N4607 1.356 . S
N4610 C4602 1.356 . S
N4610 H4616 0.984 . S
N4610 H4617 0.984 . S
N4611 C4604 1.356 . S
N4611 H4614 0.984 . S
N4611 H4615 0.985 . S
H4612 N4607 0.984 . S
H4613 N4607 0.985 . S
H4614 N4611 0.984 . S
H4615 N4611 0.985 . S
H4616 N4610 0.984 . S
H4617 N4610 0.984 . S
H4618 N4606 0.984 . S
H4619 N4606 0.985 . S
C4620 C4621 1.363 . S
C4620 C4626 1.379 . S
C4620 N4628 1.356 . S
C4621 C4620 1.363 . S
C4621 C4627 1.363 . S
C4622 C4623 1.363 . S
C4622 C4627 1.379 . S
C4622 N4629 1.356 . S
C4623 C4622 1.363 . S
C4623 C4626 1.363 . S
N4624 C4626 1.356 . S
N4624 H4636 0.984 . S
N4624 H4637 0.985 . S
N4625 C4627 1.356 . S
N4625 H4630 0.984 . S
N4625 H4631 0.985 . S
C4626 C4620 1.379 . S
C4626 C4623 1.363 . S
C4626 N4624 1.356 . S
C4627 C4621 1.363 . S
C4627 C4622 1.379 . S
C4627 N4625 1.356 . S
N4628 C4620 1.356 . S
N4628 H4634 0.984 . S
N4628 H4635 0.984 . S
N4629 C4622 1.356 . S
N4629 H4632 0.984 . S
N4629 H4633 0.985 . S
H4630 N4625 0.984 . S
H4631 N4625 0.985 . S
H4632 N4629 0.984 . S
H4633 N4629 0.985 . S
H4634 N4628 0.984 . S
H4635 N4628 0.984 . S
H4636 N4624 0.984 . S
H4637 N4624 0.985 . S
C4638 C4639 1.363 . S
C4638 C4644 1.379 . S
C4638 N4646 1.356 . S
C4639 C4638 1.363 . S
C4639 C4645 1.363 . S
C4640 C4641 1.363 . S
C4640 C4645 1.379 . S
C4640 N4647 1.356 . S
C4641 C4640 1.363 . S
C4641 C4644 1.363 . S
N4642 C4644 1.356 . S
N4642 H4654 0.984 . S
N4642 H4655 0.985 . S
N4643 C4645 1.356 . S
N4643 H4648 0.984 . S
N4643 H4649 0.985 . S
C4644 C4638 1.379 . S
C4644 C4641 1.363 . S
C4644 N4642 1.356 . S
C4645 C4639 1.363 . S
C4645 C4640 1.379 . S
C4645 N4643 1.356 . S
N4646 C4638 1.356 . S
N4646 H4652 0.984 . S
N4646 H4653 0.984 . S
N4647 C4640 1.356 . S
N4647 H4650 0.984 . S
N4647 H4651 0.985 . S
H4648 N4643 0.984 . S
H4649 N4643 0.985 . S
H4650 N4647 0.984 . S
H4651 N4647 0.985 . S
H4652 N4646 0.984 . S
H4653 N4646 0.984 . S
H4654 N4642 0.984 . S
H4655 N4642 0.985 . S
C1633 C6 1.430 . S
C1635 C867 1.489 . S
C1651 C901 1.489 . S
C1653 C40 1.430 . S
C1669 C935 1.489 . S
C1671 C74 1.430 . S
C1687 C130 1.430 . S
C1689 C833 1.489 . S
C1705 C255 1.489 . S
C1707 C142 1.430 . S
C1723 C198 1.430 1_455 S
C1725 C153 1.489 . S
C1741 C232 1.430 . S
C1743 C187 1.489 . S
C1759 C221 1.489 . S
C1761 C266 1.430 1_655 S
C1777 C278 1.430 . S
C1779 C1581 1.489 . S
C1795 C561 1.489 . S
C1797 C334 1.430 1_554 S
C1813 C346 1.430 . S
C1815 C1615 1.489 . S
C1831 C402 1.430 1_554 S
C1833 C1547 1.489 . S
C1849 C414 1.430 . S
C1851 C1445 1.489 . S
C1867 C1479 1.489 . S
C1869 C448 1.430 1_556 S
C1885 C697 1.489 . S
C1887 C482 1.430 . S
C1903 C516 1.430 1_556 S
C1905 C1411 1.489 . S
C1921 C572 1.430 . S
C1923 C459 1.489 . S
C1939 C584 1.430 . S
C1941 C1207 1.489 . S
C1957 C618 1.430 . S
C1959 C1105 1.489 . S
C1975 C1139 1.489 . S
C1977 C674 1.430 . S
C1993 C357 1.489 . S
C1995 C686 1.430 . S
C2011 C1343 1.489 . S
C2013 C720 1.430 . S
C2029 C754 1.430 . S
C2031 C1241 1.489 . S
C2047 C1309 1.489 . S
C2049 C788 1.430 1_545 S
C2065 C844 1.430 . S
C2067 C51 1.489 . S
C2083 C85 1.489 . S
C2085 C878 1.430 1_655 S
C2101 C119 1.489 . S
C2103 C890 1.430 . S
C2119 C924 1.430 1_455 S
C2121 C17 1.489 . S
C2137 C958 1.430 . S
C2139 C1071 1.489 . S
C2155 C969 1.489 . S
C2157 C1014 1.430 . S
C2173 C1003 1.489 . S
C2175 C1048 1.430 . S
C2191 C1037 1.489 . S
C2193 C1082 1.430 . S
C2209 C1094 1.430 . S
C2211 C765 1.489 . S
C2227 C1150 1.430 . S
C2229 C1377 1.489 . S
C2245 C799 1.489 . S
C2247 C1184 1.430 . S
C2263 C1218 1.430 . S
C2265 C731 1.489 . S
C2281 C1230 1.430 . S
C2283 C629 1.489 . S
C2299 C663 1.489 . S
C2301 C1264 1.430 . S
C2317 C1513 1.489 . S
C2319 C1298 1.430 . S
C2335 C595 1.489 . S
C2337 C1332 1.430 . S
C2353 C1275 1.489 . S
C2355 C1388 1.430 . S
C2371 C1400 1.430 . S
C2373 C391 1.489 . S
C2389 C289 1.489 . S
C2391 C1434 1.430 1_545 S
C2407 C323 1.489 . S
C2409 C1490 1.430 . S
C2425 C1173 1.489 . S
C2427 C1502 1.430 1_565 S
C2443 C527 1.489 . S
C2445 C1536 1.430 . S
C2461 C425 1.489 . S
C2463 C1592 1.430 1_565 S
C2479 C1626 1.430 . S
C2481 C493 1.489 . S
C2497 C90 1.547 . S
C2499 C22 1.547 . S
C2515 C117 1.547 . S
C2517 C56 1.547 . S
C2533 C219 1.547 . S
C2535 C158 1.547 . S
C2551 C185 1.547 . S
C2553 C253 1.547 . S
C2569 C430 1.547 . S
C2571 C294 1.547 . S
C2587 C464 1.547 . S
C2589 C321 1.547 . S
C2605 C362 1.547 . S
C2607 C498 1.547 . S
C2623 C389 1.547 . S
C2625 C532 1.547 . S
C2641 C559 1.547 . S
C2643 C1477 1.547 . S
C2659 C736 1.547 . S
C2661 C600 1.547 . S
C2677 C770 1.547 . S
C2679 C634 1.547 . S
C2695 C1375 1.547 . S
C2697 C661 1.547 . S
C2713 C702 1.547 . S
C2715 C1613 1.547 . S
C2731 C804 1.547 . S
C2733 C1518 1.547 . S
C2749 C831 1.547 . S
C2751 C906 1.547 . S
C2767 C865 1.547 . S
C2769 C940 1.547 . S
C2785 C974 1.547 . S
C2787 C1035 1.547 . S
C2803 C1069 1.547 . S
C2805 C1001 1.547 . S
C2821 C1246 1.547 . S
C2823 C1110 1.547 . S
C2839 C1280 1.547 . S
C2841 C1137 1.547 . S
C2857 C1171 1.547 . S
C2859 C1314 1.547 . S
C2875 C1205 1.547 . S
C2877 C1348 1.547 . S
C2893 C1416 1.547 . S
C2895 C1552 1.547 . S
C2911 C1450 1.547 . S
C2913 C1579 1.547 . S
C2929 C1 2.450 . S
C2931 C275 2.408 . S
C2947 C307 2.408 . S
C2949 C35 2.450 . S
C2965 C69 2.450 . S
C2967 C343 2.408 . S
C2983 C105 2.450 . S
C2985 C375 2.408 1_565 S
C3001 C137 2.450 . S
C3003 C411 2.408 . S
C3019 C445 2.408 . S
C3021 C173 2.450 1_455 S
C3037 C207 2.450 . S
C3039 C479 2.408 . S
C3055 C513 2.408 1_565 S
C3057 C241 2.450 1_655 S
C3073 C545 2.408 . S
C3075 C273 2.450 . S
C3091 C309 2.450 1_554 S
C3093 C1599 2.408 . S
C3109 C1533 2.408 . S
C3111 C341 2.450 . S
C3127 C377 2.450 1_554 S
C3129 C1565 2.408 . S
C3145 C409 2.450 . S
C3147 C581 2.408 . S
C3163 C615 2.408 1_455 S
C3165 C443 2.450 1_556 S
C3181 C647 2.408 . S
C3183 C477 2.450 . S
C3199 C1499 2.408 1_655 S
C3201 C511 2.450 1_556 S
C3217 C547 2.450 . S
C3219 C3 2.408 . S
C3235 C139 2.408 . S
C3237 C579 2.450 . S
C3253 C171 2.408 1_556 S
C3255 C613 2.450 . S
C3271 C649 2.450 . S
C3273 C205 2.408 . S
C3289 C681 2.450 . S
C3291 C1055 2.408 . S
C3307 C715 2.450 . S
C3309 C887 2.408 . S
C3325 C749 2.450 . S
C3327 C921 2.408 . S
C3343 C851 2.408 . S
C3345 C783 2.450 1_545 S
C3361 C1091 2.408 . S
C3363 C819 2.450 . S
C3379 C853 2.450 1_655 S
C3381 C1123 2.408 1_545 S
C3397 C1157 2.408 . S
C3399 C885 2.450 . S
C3415 C1191 2.408 . S
C3417 C919 2.450 1_455 S
C3433 C953 2.450 . S
C3435 C1227 2.408 . S
C3451 C1261 2.408 1_545 S
C3453 C989 2.450 . S
C3469 C1023 2.450 . S
C3471 C1295 2.408 . S
C3487 C1057 2.450 . S
C3489 C1329 2.408 . S
C3505 C1089 2.450 . S
C3507 C1361 2.408 . S
C3523 C785 2.408 1_655 S
C3525 C1125 2.450 . S
C3541 C1159 2.450 . S
C3543 C717 2.408 . S
C3559 C1193 2.450 . S
C3561 C751 2.408 1_455 S
C3577 C1225 2.450 . S
C3579 C1397 2.408 . S
C3595 C1431 2.408 . S
C3597 C1259 2.450 . S
C3613 C1463 2.408 . S
C3615 C1293 2.450 . S
C3631 C683 2.408 . S
C3633 C1327 2.450 . S
C3649 C817 2.408 . S
C3651 C1363 2.450 . S
C3667 C1395 2.450 . S
C3669 C955 2.408 . S
C3685 C1429 2.450 1_545 S
C3687 C987 2.408 . S
C3703 C1021 2.408 . S
C3705 C1465 2.450 . S
C3721 C1497 2.450 1_565 S
C3723 C239 2.408 1_556 S
C3739 C71 2.408 . S
C3741 C1531 2.450 . S
C3757 C1567 2.450 1_565 S
C3759 C103 2.408 1_554 S
C3775 C1601 2.450 . S
C3777 C37 2.408 1_554 S
C3793 C28 1.224 . S
C3795 C457 1.108 . S
C3811 C491 1.108 . S
C3813 C62 1.253 . S
C3829 C525 1.108 . S
C3831 C96 1.224 . S
C3847 C423 1.108 . S
C3849 C108 1.253 . S
C3865 C1212 1.108 . S
C3867 C164 1.224 . S
C3883 C176 1.253 . S
C3885 C1103 1.108 . S
C3901 C1144 1.108 . S
C3903 C210 1.224 . S
C3919 C1178 1.108 . S
C3921 C244 1.253 . S
C3937 C872 1.108 . S
C3939 C300 1.224 . S
C3955 C899 1.108 . S
C3957 C312 1.224 . S
C3973 C933 1.108 . S
C3975 C368 1.224 . S
C3991 C838 1.108 . S
C3993 C380 1.253 . S
C4009 C260 1.108 . S
C4011 C436 1.224 . S
C4027 C151 1.108 . S
C4029 C470 1.224 . S
C4045 C192 1.108 . S
C4047 C504 1.224 . S
C4063 C538 1.253 . S
C4065 C226 1.108 . S
C4081 C1586 1.108 . S
C4083 C550 1.224 . S
C4099 C1443 1.108 . S
C4101 C606 1.224 . S
C4117 C1484 1.108 . S
C4119 C640 1.253 . S
C4135 C652 1.224 . S
C4137 C695 1.108 . S
C4153 C593 1.108 . S
C4155 C708 1.224 . S
C4171 C742 1.224 . S
C4173 C797 1.108 . S
C4189 C776 1.253 . S
C4191 C729 1.108 . S
C4207 C1382 1.108 . S
C4209 C810 1.253 . S
C4225 C1273 1.108 . S
C4227 C822 1.224 . S
C4243 C1307 1.108 . S
C4245 C856 1.224 . S
C4261 C1341 1.108 . S
C4263 C912 1.224 . S
C4279 C1239 1.108 . S
C4281 C946 1.224 . S
C4297 C396 1.108 . S
C4299 C980 1.224 . S
C4315 C287 1.108 . S
C4317 C992 1.224 . S
C4333 C328 1.108 . S
C4335 C1026 1.224 . S
C4351 C355 1.108 . S
C4353 C1060 1.224 . S
C4369 C49 1.108 . S
C4371 C1116 1.224 . S
C4387 C1128 1.253 . S
C4389 C83 1.108 . S
C4405 C124 1.108 . S
C4407 C1162 1.224 . S
C4423 C1196 1.224 . S
C4425 C15 1.108 . S
C4441 C1252 1.224 . S
C4443 C1076 1.108 . S
C4459 C967 1.108 . S
C4461 C1286 1.253 . S
C4477 C1008 1.108 . S
C4479 C1320 1.224 . S
C4495 C1042 1.108 . S
C4497 C1354 1.224 . S
C4513 C1366 1.224 . S
C4515 C763 1.108 . S
C4531 C1422 1.224 . S
C4533 C627 1.108 . S
C4549 C1456 1.224 . S
C4551 C668 1.108 . S
C4567 C1468 1.224 . S
C4569 C1511 1.108 . S
C4585 C1409 1.108 . S
C4587 C1524 1.253 . S
C4603 C1620 1.108 . S
C4605 C1558 1.224 . S
C4621 C1570 1.224 . S
C4623 C1545 1.108 . S
C4639 C1604 1.224 . S
C4641 C566 1.108 . S
