# Generated by pormake.
# Topology uog, (4)-cn, num edge types: 1
# Building blocks:
#     Node 0, Type 0, BuildingBlock: ESEHIV_clean_sbu_0, # of connection points: 4
#     Node 1, Type 0, BuildingBlock: ESEHIV_clean_sbu_0, # of connection points: 4
#     Node 2, Type 0, BuildingBlock: ESEHIV_clean_sbu_0, # of connection points: 4
#     Node 3, Type 0, BuildingBlock: ESEHIV_clean_sbu_0, # of connection points: 4
#     Node 4, Type 0, BuildingBlock: ESEHIV_clean_sbu_0, # of connection points: 4
#     Node 5, Type 0, BuildingBlock: ESEHIV_clean_sbu_0, # of connection points: 4
#     Edge 6, Type (0, 0), BuildingBlock: FUNLAD_clean_linker_1, # of connection points: 2
#     Edge 7, Type (0, 0), BuildingBlock: FUNLAD_clean_linker_1, # of connection points: 2
#     Edge 8, Type (0, 0), BuildingBlock: FUNLAD_clean_linker_1, # of connection points: 2
#     Edge 9, Type (0, 0), BuildingBlock: FUNLAD_clean_linker_1, # of connection points: 2
#     Edge 10, Type (0, 0), BuildingBlock: FUNLAD_clean_linker_1, # of connection points: 2
#     Edge 11, Type (0, 0), BuildingBlock: FUNLAD_clean_linker_1, # of connection points: 2
#     Edge 12, Type (0, 0), BuildingBlock: FUNLAD_clean_linker_1, # of connection points: 2
#     Edge 13, Type (0, 0), BuildingBlock: FUNLAD_clean_linker_1, # of connection points: 2
#     Edge 14, Type (0, 0), BuildingBlock: FUNLAD_clean_linker_1, # of connection points: 2
#     Edge 15, Type (0, 0), BuildingBlock: FUNLAD_clean_linker_1, # of connection points: 2
#     Edge 16, Type (0, 0), BuildingBlock: FUNLAD_clean_linker_1, # of connection points: 2
#     Edge 17, Type (0, 0), BuildingBlock: FUNLAD_clean_linker_1, # of connection points: 2
# Relax obj value: 0.017
# Max RMSD: 0.203
# Mean RMSD: 0.148
data_MOF--net-uog--node1-ESEHIV_clean_sbu_0--edge1-FUNLAD_clean_linker_1
_symmetry_space_group_name_H-M    P1
_symmetry_Int_Tables_number       1
_symmetry_cell_setting            triclinic
loop_
_symmetry_equiv_pos_as_xyz
'x, y, z'
_cell_length_a     30.109192
_cell_length_b     35.266442
_cell_length_c     46.286175
_cell_angle_alpha  89.807144
_cell_angle_beta   89.465187
_cell_angle_gamma 115.11701
loop_
_atom_site_label
_atom_site_type_symbol
_atom_site_fract_x
_atom_site_fract_y
_atom_site_fract_z
_atom_type_partial_charge
Cu0 Cu 0.57727 0.29364 0.17276 0.0
N1 N 0.53342 0.31745 0.16679 0.0
N2 N 0.50618 0.3669 0.16224 0.0
C3 C 0.54288 0.35775 0.17154 0.0
C4 C 0.4725 0.33112 0.1511 0.0
C5 C 0.48922 0.30046 0.15416 0.0
O6 O 0.61422 0.31907 0.20709 0.0
C7 C 0.59815 0.2908 0.11477 0.0
O8 O 0.55039 0.26859 0.11444 0.0
H9 H 0.57711 0.38034 0.18023 0.0
H10 H 0.47129 0.2685 0.14673 0.0
N11 N 0.54378 0.23589 0.17833 0.0
N12 N 0.52886 0.16828 0.18001 0.0
C13 C 0.55988 0.20696 0.17095 0.0
C14 C 0.50085 0.21479 0.19233 0.0
C15 C 0.49144 0.17296 0.19339 0.0
C16 C 0.6344 0.30143 0.22286 0.0
O17 O 0.6337 0.26543 0.21501 0.0
H18 H 0.59453 0.21433 0.15998 0.0
H19 H 0.47859 0.22902 0.20168 0.0
O20 O 0.61898 0.3048 0.13869 0.0
H21 H 0.43883 0.32774 0.14089 0.0
H22 H 0.45997 0.14831 0.20368 0.0
Cu23 Cu 0.3189 0.594 0.51981 0.0
N24 N 0.33091 0.64353 0.49971 0.0
N25 N 0.34573 0.68664 0.46169 0.0
C26 C 0.34269 0.64945 0.4714 0.0
C27 C 0.33571 0.7049 0.48483 0.0
C28 C 0.32622 0.67812 0.50824 0.0
O29 O 0.37122 0.57808 0.50866 0.0
C30 C 0.21865 0.56525 0.51678 0.0
O31 O 0.23076 0.60179 0.52906 0.0
H32 H 0.34824 0.62648 0.45828 0.0
H33 H 0.31517 0.68307 0.52965 0.0
N34 N 0.32094 0.6 0.55998 0.0
N35 N 0.33084 0.62413 0.60516 0.0
C36 C 0.33738 0.63435 0.57678 0.0
C37 C 0.30359 0.56722 0.5784 0.0
C38 C 0.3095 0.58188 0.60622 0.0
C39 C 0.37307 0.54342 0.5141 0.0
O40 O 0.33533 0.5128 0.52643 0.0
H41 H 0.35348 0.66613 0.56854 0.0
H42 H 0.28683 0.53477 0.57192 0.0
O43 O 0.25247 0.5539 0.51035 0.0
H44 H 0.3343 0.73507 0.48462 0.0
H45 H 0.29739 0.56279 0.62558 0.0
Cu46 Cu 0.77636 0.30963 0.86062 0.0
N47 N 0.75719 0.25213 0.85783 0.0
N48 N 0.70722 0.18397 0.8566 0.0
C49 C 0.71039 0.22319 0.85735 0.0
C50 C 0.75398 0.18826 0.85643 0.0
C51 C 0.78482 0.23052 0.8572 0.0
O52 O 0.74718 0.31889 0.89568 0.0
C53 C 0.77094 0.32319 0.80213 0.0
O54 O 0.80163 0.30558 0.80119 0.0
H55 H 0.67907 0.23069 0.85795 0.0
H56 H 0.82447 0.24445 0.85755 0.0
N57 N 0.84406 0.33899 0.86377 0.0
N58 N 0.91808 0.39252 0.86111 0.0
C59 C 0.87235 0.37543 0.85046 0.0
C60 C 0.87305 0.33263 0.88332 0.0
C61 C 0.91894 0.36566 0.88171 0.0
C62 C 0.70272 0.31331 0.8977 0.0
O63 O 0.67513 0.30347 0.87465 0.0
H64 H 0.85886 0.39044 0.83455 0.0
H65 H 0.86095 0.3068 0.89858 0.0
O66 O 0.75469 0.32856 0.82648 0.0
H67 H 0.76528 0.16297 0.85595 0.0
H68 H 0.94997 0.37007 0.89513 0.0
Cu69 Cu 0.46912 0.74768 0.18751 0.0
N70 N 0.50951 0.71998 0.18325 0.0
N71 N 0.53103 0.66683 0.18226 0.0
C72 C 0.49774 0.68025 0.1916 0.0
C73 C 0.56556 0.69944 0.16777 0.0
C74 C 0.5522 0.73234 0.1685 0.0
O75 O 0.42991 0.7254 0.22256 0.0
C76 C 0.45286 0.75232 0.12933 0.0
O77 O 0.50061 0.77445 0.13002 0.0
H78 H 0.46423 0.66088 0.20315 0.0
H79 H 0.5715 0.76266 0.15827 0.0
N80 N 0.50628 0.80542 0.19034 0.0
N81 N 0.52514 0.87381 0.18885 0.0
C82 C 0.4907 0.83491 0.18369 0.0
C83 C 0.55235 0.82635 0.19992 0.0
C84 C 0.56417 0.8687 0.19905 0.0
C85 C 0.42398 0.74793 0.2423 0.0
O86 O 0.44127 0.78863 0.23855 0.0
H87 H 0.45432 0.82789 0.1758 0.0
H88 H 0.57533 0.81179 0.20747 0.0
O89 O 0.42973 0.73717 0.15284 0.0
H90 H 0.59774 0.69937 0.1572 0.0
H91 H 0.59829 0.89345 0.20607 0.0
Cu92 Cu 0.7334 0.42647 0.5067 0.0
N93 N 0.72205 0.38219 0.4816 0.0
N94 N 0.71062 0.34525 0.4411 0.0
C95 C 0.71888 0.38278 0.45263 0.0
C96 C 0.7087 0.32031 0.46364 0.0
C97 C 0.7155 0.3431 0.48864 0.0
O98 O 0.69136 0.45295 0.49461 0.0
C99 C 0.83379 0.44666 0.5079 0.0
O100 O 0.81665 0.40573 0.51007 0.0
H101 H 0.72293 0.4103 0.44043 0.0
H102 H 0.7159 0.3321 0.51044 0.0
N103 N 0.71285 0.40462 0.54368 0.0
N104 N 0.71179 0.38695 0.5901 0.0
C105 C 0.74009 0.40581 0.56687 0.0
C106 C 0.66588 0.38428 0.5525 0.0
C107 C 0.665 0.3733 0.58113 0.0
C108 C 0.67937 0.47574 0.5113 0.0
O109 O 0.70054 0.48641 0.53655 0.0
H110 H 0.7798 0.42019 0.56678 0.0
H111 H 0.63446 0.37795 0.53896 0.0
O112 O 0.80365 0.46331 0.50638 0.0
H113 H 0.70246 0.28781 0.46209 0.0
H114 H 0.63237 0.3563 0.59405 0.0
Cu115 Cu 0.32801 0.76747 0.86604 0.0
N116 N 0.35644 0.82547 0.86082 0.0
N117 N 0.41374 0.89135 0.85817 0.0
C118 C 0.40431 0.85111 0.86374 0.0
C119 C 0.37008 0.89109 0.85135 0.0
C120 C 0.33479 0.85032 0.85301 0.0
O121 O 0.34782 0.75543 0.90334 0.0
C122 C 0.3426 0.75303 0.80857 0.0
O123 O 0.32779 0.7828 0.80495 0.0
H124 H 0.43182 0.84042 0.86969 0.0
H125 H 0.29619 0.8395 0.84845 0.0
N126 N 0.25989 0.74572 0.86723 0.0
N127 N 0.18257 0.69692 0.86799 0.0
C128 C 0.22927 0.70649 0.85975 0.0
C129 C 0.23175 0.76152 0.88069 0.0
C130 C 0.18394 0.73137 0.88121 0.0
C131 C 0.38722 0.7517 0.90825 0.0
O132 O 0.41725 0.75438 0.8868 0.0
H133 H 0.24178 0.68448 0.85059 0.0
H134 H 0.24551 0.79175 0.89105 0.0
O135 O 0.34656 0.74138 0.83409 0.0
H136 H 0.36394 0.91808 0.84521 0.0
H137 H 0.15302 0.7337 0.89184 0.0
H138 H 0.56971 0.13355 0.16511 0.0
C139 C 0.53744 0.13123 0.17716 0.0
H140 H 0.47731 0.09169 0.20314 0.0
H141 H 0.53805 0.95439 0.13494 0.0
H142 H 0.50931 0.97526 0.09158 0.0
H143 H 0.48447 0.03352 0.09253 0.0
H144 H 0.48888 0.07162 0.13674 0.0
C145 C 0.50845 0.09455 0.18986 0.0
C146 C 0.52137 0.0582 0.18919 0.0
C147 C 0.51721 0.0355 0.16334 0.0
C148 C 0.52969 1.00082 0.16307 0.0
C149 C 0.52728 0.97991 0.13665 0.0
C150 C 0.51117 0.99177 0.11154 0.0
C151 C 0.49733 0.02465 0.11205 0.0
C152 C 0.50024 0.04638 0.13757 0.0
H153 H 0.4817 0.90874 0.18067 0.0
C154 C 0.51817 0.91159 0.1858 0.0
H155 H 0.59105 0.95387 0.19514 0.0
H156 H 0.53501 0.0958 0.24208 0.0
H157 H 0.56201 0.07398 0.28569 0.0
H158 H 0.58085 1.0124 0.28567 0.0
H159 H 0.57313 0.97242 0.24202 0.0
C160 C 0.55451 0.95 0.18948 0.0
C161 C 0.54458 0.98796 0.18891 0.0
C162 C 0.54909 1.0109 0.21468 0.0
C163 C 0.53754 0.04605 0.2148 0.0
C164 C 0.54273 0.06855 0.24081 0.0
C165 C 0.55828 0.05642 0.26602 0.0
C166 C 0.56895 1.02178 0.26599 0.0
C167 C 0.56442 0.99914 0.24073 0.0
H168 H 0.45254 0.5693 0.50487 0.0
C169 C 0.42039 0.54055 0.50997 0.0
H170 H 0.3938 0.47627 0.51973 0.0
H171 H 0.62679 0.54056 0.47026 0.0
H172 H 0.59951 0.55972 0.42574 0.0
H173 H 0.51433 0.55133 0.42085 0.0
H174 H 0.45637 0.52493 0.46077 0.0
C175 C 0.42568 0.50489 0.51403 0.0
C176 C 0.47527 0.50451 0.51502 0.0
C177 C 0.50788 0.51747 0.49083 0.0
C178 C 0.55614 0.5196 0.49298 0.0
C179 C 0.58902 0.53606 0.46932 0.0
C180 C 0.57395 0.54752 0.44369 0.0
C181 C 0.52607 0.543 0.44098 0.0
C182 C 0.49327 0.52815 0.46418 0.0
H183 H 0.61333 0.46631 0.48634 0.0
C184 C 0.63575 0.48318 0.50441 0.0
H185 H 0.64252 0.52262 0.53971 0.0
H186 H 0.42297 0.47873 0.56579 0.0
H187 H 0.44817 0.45478 0.60898 0.0
H188 H 0.52876 0.45246 0.61118 0.0
H189 H 0.58492 0.47473 0.57038 0.0
C190 C 0.62062 0.50659 0.52126 0.0
C191 C 0.57069 0.50587 0.51861 0.0
C192 C 0.5374 0.49145 0.5424 0.0
C193 C 0.49013 0.49139 0.54077 0.0
C194 C 0.45872 0.47843 0.5654 0.0
C195 C 0.47278 0.46471 0.59046 0.0
C196 C 0.51818 0.4635 0.59172 0.0
C197 C 0.5502 0.47662 0.5681 0.0
H198 H 0.95466 0.44605 0.83225 0.0
C199 C 0.9557 0.43309 0.85345 0.0
H200 H 0.9901 0.44429 0.89399 0.0
H201 H 0.19365 0.58755 0.86072 0.0
H202 H 0.21574 0.53094 0.8726 0.0
H203 H 0.15207 0.45917 0.88063 0.0
H204 H 0.06584 0.44371 0.87717 0.0
C205 C 0.98918 0.45671 0.87263 0.0
C206 C 1.02704 0.49958 0.86538 0.0
C207 C 0.07739 0.50795 0.86674 0.0
C208 C 0.11413 0.54916 0.8614 0.0
C209 C 0.1641 0.55677 0.86396 0.0
C210 C 0.17737 0.52454 0.87086 0.0
C211 C 0.14154 0.48415 0.87542 0.0
C212 C 0.09212 0.47576 0.87344 0.0
H213 H 0.11174 0.65056 0.88358 0.0
C214 C 0.14143 0.65643 0.86814 0.0
H215 H 0.16869 0.631 0.83496 0.0
H216 H 0.93412 0.49632 0.86451 0.0
H217 H 0.91201 0.55158 0.84902 0.0
H218 H 0.97558 0.62053 0.83378 0.0
H219 H 0.06177 0.63491 0.83489 0.0
C220 C 0.13938 0.62546 0.85054 0.0
C221 C 0.10051 0.58187 0.85409 0.0
C222 C 0.05016 0.57306 0.85134 0.0
C223 C 1.01338 0.53234 0.8581 0.0
C224 C 0.96356 0.52573 0.8579 0.0
C225 C 0.95031 0.55737 0.8493 0.0
C226 C 0.98609 0.59624 0.84088 0.0
C227 C 1.03547 0.60419 0.84185 0.0
H228 H 0.15621 0.50603 0.50392 0.0
C229 C 0.1663 0.53773 0.51147 0.0
H230 H 0.14126 0.58332 0.5232 0.0
H231 H 0.93885 0.49632 0.45815 0.0
H232 H 0.98619 0.54513 0.42057 0.0
H233 H 0.07574 0.58527 0.42484 0.0
H234 H 0.11863 0.57636 0.46663 0.0
C235 C 0.13124 0.55129 0.51642 0.0
C236 C 0.07785 0.52438 0.51281 0.0
C237 C 0.05303 0.53048 0.48861 0.0
C238 C 1.00112 0.50796 0.48647 0.0
C239 C 0.97785 0.51348 0.4614 0.0
C240 C 1.00466 0.54123 0.43954 0.0
C241 C 0.0551 0.5638 0.44192 0.0
C242 C 0.07922 0.55851 0.46606 0.0
H243 H 0.90094 0.50663 0.50862 0.0
C244 C 0.88749 0.47278 0.50779 0.0
H245 H 0.90605 0.42142 0.50664 0.0
H246 H 0.1138 0.50556 0.56223 0.0
H247 H 0.06669 0.45716 0.60008 0.0
H248 H 0.97676 0.41883 0.59684 0.0
H249 H 0.93337 0.42873 0.55578 0.0
C250 C 0.9196 0.4553 0.5069 0.0
C251 C 0.97388 0.48008 0.50897 0.0
C252 C 0.99889 0.47368 0.53305 0.0
C253 C 0.05083 0.49582 0.53496 0.0
C254 C 0.07453 0.48938 0.55954 0.0
C255 C 0.04792 0.46172 0.58148 0.0
C256 C 0.99729 0.44012 0.57964 0.0
C257 C 0.97286 0.44599 0.55584 0.0
H258 H 0.49327 0.9197 0.86277 0.0
C259 C 0.46153 0.92611 0.85884 0.0
H260 H 0.4374 0.97373 0.85225 0.0
H261 H 0.626 0.11347 0.90952 0.0
H262 H 0.56648 0.10014 0.94834 0.0
H263 H 0.48418 0.04164 0.94552 0.0
H264 H 0.46099 0.99587 0.90394 0.0
C265 C 0.46834 0.96601 0.85496 0.0
C266 C 0.51812 1.00126 0.8564 0.0
C267 C 0.53078 0.02822 0.88057 0.0
C268 C 0.57795 0.06244 0.88194 0.0
C269 C 0.5902 0.08784 0.9069 0.0
C270 C 0.55651 0.08035 0.92946 0.0
C271 C 0.51019 0.04737 0.9279 0.0
C272 C 0.49732 1.02141 0.90386 0.0
H273 H 0.6277 0.14988 0.85537 0.0
C274 C 0.66192 0.14652 0.85665 0.0
H275 H 0.69331 0.10315 0.85966 0.0
H276 H 0.5051 0.95644 0.80645 0.0
H277 H 0.56478 0.9694 0.76781 0.0
H278 H 0.64675 0.02845 0.77032 0.0
H279 H 0.66946 0.075 0.81147 0.0
C280 C 0.66 0.10785 0.85893 0.0
C281 C 0.61199 0.07022 0.85876 0.0
C282 C 0.59968 0.04274 0.83486 0.0
C283 C 0.55257 1.0084 0.83356 0.0
C284 C 0.54066 0.98243 0.8089 0.0
C285 C 0.57451 0.98965 0.78646 0.0
C286 C 0.62064 0.02292 0.78786 0.0
C287 C 0.63322 0.04936 0.81165 0.0
H288 H 0.50768 0.60704 0.20482 0.0
C289 C 0.52771 0.62524 0.18613 0.0
H290 H 0.56443 0.62507 0.1472 0.0
H291 H 0.62294 0.47835 0.17427 0.0
H292 H 0.7021 0.53754 0.16926 0.0
H293 H 0.70859 0.60945 0.16512 0.0
H294 H 0.63586 0.6225 0.16555 0.0
C295 C 0.5451 0.60728 0.16615 0.0
C296 C 0.5405 0.56366 0.16965 0.0
C297 C 0.5835 0.55661 0.17009 0.0
C298 C 0.5798 0.51522 0.17332 0.0
C299 C 0.62341 0.50911 0.17261 0.0
C300 C 0.66922 0.54285 0.16964 0.0
C301 C 0.67287 0.58331 0.16725 0.0
C302 C 0.63071 0.59032 0.16746 0.0
H303 H 0.48343 0.41303 0.14436 0.0
C304 C 0.50517 0.40728 0.16097 0.0
H305 H 0.55133 0.43183 0.19661 0.0
H306 H 0.45 0.56433 0.16409 0.0
H307 H 0.3711 0.506 0.17272 0.0
H308 H 0.36549 0.43619 0.18569 0.0
H309 H 0.43869 0.42406 0.18898 0.0
C310 C 0.53004 0.4377 0.17982 0.0
C311 C 0.53314 0.48094 0.17692 0.0
C312 C 0.49019 0.48816 0.17742 0.0
C313 C 0.49371 0.52919 0.17238 0.0
C314 C 0.44984 0.53455 0.16986 0.0
C315 C 0.40418 0.50119 0.17445 0.0
C316 C 0.40101 0.46184 0.18158 0.0
C317 C 0.44335 0.45523 0.1831 0.0
H318 H 0.64134 0.30462 0.92745 0.0
C319 C 0.68042 0.31276 0.92629 0.0
H320 H 0.74513 0.32685 0.95017 0.0
H321 H 0.64175 0.37097 0.05931 0.0
H322 H 0.68826 0.44126 0.04063 0.0
H323 H 0.73267 0.45312 0.994 0.0
H324 H 0.73033 0.39451 0.9656 0.0
C325 C 0.70603 0.3186 0.9508 0.0
C326 C 0.68131 0.31154 0.97953 0.0
C327 C 0.68419 0.34605 0.99623 0.0
C328 C 0.65948 0.33919 0.02344 0.0
C329 C 0.66101 0.37426 0.03897 0.0
C330 C 0.68734 0.41484 0.02839 0.0
C331 C 0.71228 0.42151 1.00211 0.0
C332 C 0.71069 0.38763 0.98606 0.0
H333 H 0.66673 0.31644 0.08863 0.0
C334 C 0.62699 0.30019 0.08761 0.0
H335 H 0.56527 0.27275 0.06075 0.0
H336 H 0.67155 0.23862 0.95374 0.0
H337 H 0.62641 0.16825 0.97265 0.0
H338 H 0.5838 0.15616 0.01989 0.0
H339 H 0.58638 0.21446 0.04858 0.0
C340 C 0.60493 0.28975 0.06185 0.0
C341 C 0.633 0.29774 0.03415 0.0
C342 C 0.63088 0.26325 1.01759 0.0
C343 C 0.65521 0.27017 0.9903 0.0
C344 C 0.65318 0.23518 0.97443 0.0
C345 C 0.62751 0.19457 0.98507 0.0
C346 C 0.60356 0.18778 1.01167 0.0
C347 C 0.60521 0.22157 0.02787 0.0
H348 H 0.3935 0.69554 0.2737 0.0
C349 C 0.40341 0.72875 0.27064 0.0
H350 H 0.41224 0.7852 0.29055 0.0
H351 H 0.27605 0.64018 0.38727 0.0
H352 H 0.21257 0.6163 0.351 0.0
H353 H 0.22878 0.64671 0.30184 0.0
H354 H 0.30864 0.70096 0.28858 0.0
C355 C 0.40065 0.7517 0.29317 0.0
C356 C 0.38946 0.73395 0.32307 0.0
C357 C 0.34233 0.70259 0.33056 0.0
C358 C 0.33274 0.68552 0.35908 0.0
C359 C 0.28539 0.65417 0.36594 0.0
C360 C 0.24855 0.64026 0.34536 0.0
C361 C 0.25769 0.65735 0.31767 0.0
C362 C 0.30386 0.68829 0.31027 0.0
H363 H 0.36168 0.73627 0.42955 0.0
C364 C 0.35644 0.70409 0.43286 0.0
H365 H 0.35221 0.64919 0.41225 0.0
H366 H 0.48378 0.79389 0.31606 0.0
H367 H 0.54703 0.81771 0.35233 0.0
H368 H 0.5306 0.78756 0.40155 0.0
H369 H 0.45073 0.73358 0.41482 0.0
C370 C 0.35963 0.68194 0.40993 0.0
C371 C 0.36993 0.70036 0.38023 0.0
C372 C 0.41702 0.73181 0.37277 0.0
C373 C 0.42665 0.74884 0.34425 0.0
C374 C 0.47417 0.78 0.33739 0.0
C375 C 0.51097 0.79389 0.35799 0.0
C376 C 0.50171 0.77695 0.3857 0.0
C377 C 0.45549 0.74613 0.39309 0.0
H378 H 0.72808 0.34906 0.77678 0.0
C379 C 0.75471 0.33584 0.77527 0.0
H380 H 0.79677 0.31621 0.74743 0.0
H381 H 0.66183 0.28551 0.63918 0.0
H382 H 0.64088 0.21412 0.6546 0.0
H383 H 0.67014 0.19941 0.70106 0.0
H384 H 0.72069 0.25603 0.73233 0.0
C385 C 0.77134 0.33063 0.74922 0.0
C386 C 0.75212 0.34003 0.72194 0.0
C387 C 0.7223 0.30655 0.70401 0.0
C388 C 0.70493 0.315 0.6774 0.0
C389 C 0.67562 0.28093 0.65978 0.0
C390 C 0.66337 0.23975 0.66833 0.0
C391 C 0.67989 0.23148 0.69447 0.0
C392 C 0.709 0.26432 0.71218 0.0
H393 H 0.76854 0.39176 0.62073 0.0
C394 C 0.72936 0.38196 0.61807 0.0
H395 H 0.65973 0.35439 0.63872 0.0
H396 H 0.81119 0.41161 0.75029 0.0
H397 H 0.82991 0.48292 0.73565 0.0
H398 H 0.79616 0.49742 0.69074 0.0
H399 H 0.74409 0.44069 0.66 0.0
C400 C 0.69904 0.36521 0.6408 0.0
C401 C 0.71739 0.35693 0.66877 0.0
C402 C 0.74656 0.39044 0.68691 0.0
C403 C 0.76458 0.38201 0.71334 0.0
C404 C 0.79532 0.41612 0.73045 0.0
C405 C 0.80654 0.45725 0.72223 0.0
C406 C 0.78765 0.46541 0.6969 0.0
C407 C 0.75799 0.43254 0.67938 0.0
H408 H 0.43529 0.74495 0.94179 0.0
C409 C 0.40097 0.74741 0.93824 0.0
H410 H 0.34041 0.75315 0.95783 0.0
H411 H 0.42338 0.68071 0.06756 0.0
H412 H 0.39054 0.61483 0.04183 0.0
H413 H 0.35665 0.61014 0.99296 0.0
H414 H 0.35594 0.67147 0.96937 0.0
C415 C 0.37377 0.74898 0.96105 0.0
C416 C 0.39129 0.75074 0.99119 0.0
C417 C 0.39035 0.7144 1.00493 0.0
C418 C 0.40878 0.7169 0.03343 0.0
C419 C 0.40897 0.68045 0.04622 0.0
C420 C 0.39032 0.64244 0.03165 0.0
C421 C 0.37132 0.63981 1.00411 0.0
C422 C 0.37126 0.67527 0.99079 0.0
H423 H 0.38723 0.72787 0.10138 0.0
C424 C 0.4269 0.74522 0.10153 0.0
H425 H 0.49131 0.77827 0.07675 0.0
H426 H 0.39644 0.82587 0.97154 0.0
H427 H 0.42702 0.89128 0.99779 0.0
H428 H 0.45759 0.89533 0.04748 0.0
H429 H 0.4578 0.83395 0.07121 0.0
C430 C 0.45178 0.75998 0.07661 0.0
C431 C 0.42727 0.7556 0.04826 0.0
C432 C 0.42677 0.7916 0.03482 0.0
C433 C 0.40871 0.78916 1.00629 0.0
C434 C 0.40934 0.82581 0.99327 0.0
C435 C 0.42686 0.86361 1.00808 0.0
C436 C 0.44413 0.8659 0.03604 0.0
C437 C 0.44418 0.83045 0.04936 0.0
H438 H 0.70353 0.30237 0.40584 0.0
C439 C 0.70445 0.33267 0.41129 0.0
H440 H 0.69843 0.38637 0.39496 0.0
H441 H 0.75073 0.36328 0.26572 0.0
H442 H 0.82162 0.42638 0.27901 0.0
H443 H 0.833 0.45116 0.32935 0.0
H444 H 0.77365 0.41301 0.36672 0.0
C445 C 0.69736 0.35589 0.39028 0.0
C446 C 0.68945 0.34132 0.35977 0.0
C447 C 0.72428 0.36424 0.33812 0.0
C448 C 0.71756 0.35014 0.30903 0.0
C449 C 0.75353 0.37305 0.28801 0.0
C450 C 0.79455 0.40919 0.29538 0.0
C451 C 0.80098 0.42313 0.32373 0.0
C452 C 0.76652 0.40096 0.34496 0.0
H453 H 0.65129 0.34851 0.25725 0.0
C454 C 0.65295 0.3193 0.2514 0.0
H455 H 0.66688 0.26867 0.26608 0.0
H456 H 0.61178 0.29313 0.39498 0.0
H457 H 0.54124 0.23012 0.38164 0.0
H458 H 0.53152 0.20404 0.33166 0.0
H459 H 0.59206 0.24117 0.29467 0.0
C460 C 0.66728 0.29888 0.27112 0.0
C461 C 0.67582 0.31331 0.30161 0.0
C462 C 0.64091 0.29042 0.32321 0.0
C463 C 0.64721 0.30483 0.35221 0.0
C464 C 0.61011 0.28273 0.37291 0.0
C465 C 0.56906 0.24667 0.36548 0.0
C466 C 0.56353 0.23204 0.33734 0.0
C467 C 0.59871 0.25364 0.31633 0.0
H468 H 0.35508 0.70241 0.78696 0.0
C469 C 0.35004 0.73079 0.78331 0.0
H470 H 0.3417 0.77144 0.7525 0.0
H471 H 0.42701 0.65985 0.67172 0.0
H472 H 0.5015 0.69098 0.69981 0.0
H473 H 0.50636 0.73569 0.74164 0.0
H474 H 0.43673 0.74922 0.75585 0.0
C475 C 0.34786 0.7436 0.75615 0.0
C476 C 0.3464 0.7177 0.73048 0.0
C477 C 0.38781 0.71071 0.72223 0.0
C478 C 0.38536 0.6856 0.69774 0.0
C479 C 0.42698 0.67872 0.69011 0.0
C480 C 0.46997 0.69649 0.70598 0.0
C481 C 0.47269 0.72162 0.72956 0.0
C482 C 0.4323 0.72891 0.73761 0.0
H483 H 0.34663 0.685 0.62428 0.0
C484 C 0.34002 0.65277 0.62888 0.0
H485 H 0.33443 0.60894 0.66169 0.0
H486 H 0.26039 0.7251 0.74016 0.0
H487 H 0.18666 0.69475 0.71165 0.0
H488 H 0.18269 0.65152 0.66914 0.0
H489 H 0.2525 0.6385 0.65484 0.0
C490 C 0.33862 0.64031 0.65653 0.0
C491 C 0.34202 0.66835 0.68118 0.0
C492 C 0.30085 0.6758 0.68918 0.0
C493 C 0.3031 0.7006 0.71378 0.0
C494 C 0.26109 0.70694 0.72151 0.0
C495 C 0.21835 0.68954 0.70541 0.0
C496 C 0.21611 0.66521 0.68147 0.0
C497 C 0.25663 0.65815 0.67343 0.0
loop_
_geom_bond_atom_site_label_1
_geom_bond_atom_site_label_2
_geom_bond_distance
_geom_bond_site_symmetry_2
_ccdc_geom_bond_type
Cu0 N1 1.999 . S
Cu0 O6 1.974 . S
Cu0 N11 1.985 . S
Cu0 O20 1.959 . S
N1 Cu0 1.999 . S
N1 C3 1.263 . S
N1 C5 1.389 . S
N2 C3 1.358 . S
N2 C4 1.400 . S
C3 N1 1.263 . S
C3 N2 1.358 . S
C3 H9 0.930 . S
C4 N2 1.400 . S
C4 C5 1.351 . S
C4 H21 0.930 . S
C5 N1 1.389 . S
C5 C4 1.351 . S
C5 H10 0.930 . S
O6 Cu0 1.974 . S
O6 C16 1.282 . S
C7 O8 1.261 . S
C7 O20 1.251 . S
O8 C7 1.261 . S
H9 C3 0.930 . S
H10 C5 0.930 . S
N11 Cu0 1.985 . S
N11 C13 1.335 . S
N11 C14 1.390 . S
N12 C13 1.345 . S
N12 C15 1.336 . S
C13 N11 1.335 . S
C13 N12 1.345 . S
C13 H18 0.930 . S
C14 N11 1.390 . S
C14 C15 1.346 . S
C14 H19 0.930 . S
C15 N12 1.336 . S
C15 C14 1.346 . S
C15 H22 0.929 . S
C16 O6 1.282 . S
C16 O17 1.216 . S
O17 C16 1.216 . S
H18 C13 0.930 . S
H19 C14 0.930 . S
O20 Cu0 1.959 . S
O20 C7 1.251 . S
H21 C4 0.930 . S
H22 C15 0.929 . S
Cu23 N24 1.999 . S
Cu23 O29 1.974 . S
Cu23 N34 1.985 . S
Cu23 O43 1.959 . S
N24 Cu23 1.999 . S
N24 C26 1.263 . S
N24 C28 1.389 . S
N25 C26 1.358 . S
N25 C27 1.400 . S
C26 N24 1.263 . S
C26 N25 1.358 . S
C26 H32 0.930 . S
C27 N25 1.400 . S
C27 C28 1.351 . S
C27 H44 0.930 . S
C28 N24 1.389 . S
C28 C27 1.351 . S
C28 H33 0.930 . S
O29 Cu23 1.974 . S
O29 C39 1.282 . S
C30 O31 1.261 . S
C30 O43 1.251 . S
O31 C30 1.261 . S
H32 C26 0.930 . S
H33 C28 0.930 . S
N34 Cu23 1.985 . S
N34 C36 1.335 . S
N34 C37 1.390 . S
N35 C36 1.345 . S
N35 C38 1.336 . S
C36 N34 1.335 . S
C36 N35 1.345 . S
C36 H41 0.930 . S
C37 N34 1.390 . S
C37 C38 1.346 . S
C37 H42 0.930 . S
C38 N35 1.336 . S
C38 C37 1.346 . S
C38 H45 0.929 . S
C39 O29 1.282 . S
C39 O40 1.216 . S
O40 C39 1.216 . S
H41 C36 0.930 . S
H42 C37 0.930 . S
O43 Cu23 1.959 . S
O43 C30 1.251 . S
H44 C27 0.930 . S
H45 C38 0.929 . S
Cu46 N47 1.999 . S
Cu46 O52 1.974 . S
Cu46 N57 1.985 . S
Cu46 O66 1.959 . S
N47 Cu46 1.999 . S
N47 C49 1.263 . S
N47 C51 1.389 . S
N48 C49 1.358 . S
N48 C50 1.400 . S
C49 N47 1.263 . S
C49 N48 1.358 . S
C49 H55 0.930 . S
C50 N48 1.400 . S
C50 C51 1.351 . S
C50 H67 0.930 . S
C51 N47 1.389 . S
C51 C50 1.351 . S
C51 H56 0.930 . S
O52 Cu46 1.974 . S
O52 C62 1.282 . S
C53 O54 1.261 . S
C53 O66 1.251 . S
O54 C53 1.261 . S
H55 C49 0.930 . S
H56 C51 0.930 . S
N57 Cu46 1.985 . S
N57 C59 1.335 . S
N57 C60 1.390 . S
N58 C59 1.345 . S
N58 C61 1.336 . S
C59 N57 1.335 . S
C59 N58 1.345 . S
C59 H64 0.930 . S
C60 N57 1.390 . S
C60 C61 1.346 . S
C60 H65 0.930 . S
C61 N58 1.336 . S
C61 C60 1.346 . S
C61 H68 0.929 . S
C62 O52 1.282 . S
C62 O63 1.216 . S
O63 C62 1.216 . S
H64 C59 0.930 . S
H65 C60 0.930 . S
O66 Cu46 1.959 . S
O66 C53 1.251 . S
H67 C50 0.930 . S
H68 C61 0.929 . S
Cu69 N70 1.999 . S
Cu69 O75 1.974 . S
Cu69 N80 1.985 . S
Cu69 O89 1.959 . S
N70 Cu69 1.999 . S
N70 C72 1.263 . S
N70 C74 1.389 . S
N71 C72 1.358 . S
N71 C73 1.400 . S
C72 N70 1.263 . S
C72 N71 1.358 . S
C72 H78 0.930 . S
C73 N71 1.400 . S
C73 C74 1.351 . S
C73 H90 0.930 . S
C74 N70 1.389 . S
C74 C73 1.351 . S
C74 H79 0.930 . S
O75 Cu69 1.974 . S
O75 C85 1.282 . S
C76 O77 1.261 . S
C76 O89 1.251 . S
O77 C76 1.261 . S
H78 C72 0.930 . S
H79 C74 0.930 . S
N80 Cu69 1.985 . S
N80 C82 1.335 . S
N80 C83 1.390 . S
N81 C82 1.345 . S
N81 C84 1.336 . S
C82 N80 1.335 . S
C82 N81 1.345 . S
C82 H87 0.930 . S
C83 N80 1.390 . S
C83 C84 1.346 . S
C83 H88 0.930 . S
C84 N81 1.336 . S
C84 C83 1.346 . S
C84 H91 0.929 . S
C85 O75 1.282 . S
C85 O86 1.216 . S
O86 C85 1.216 . S
H87 C82 0.930 . S
H88 C83 0.930 . S
O89 Cu69 1.959 . S
O89 C76 1.251 . S
H90 C73 0.930 . S
H91 C84 0.929 . S
Cu92 N93 1.999 . S
Cu92 O98 1.974 . S
Cu92 N103 1.985 . S
Cu92 O112 1.959 . S
N93 Cu92 1.999 . S
N93 C95 1.263 . S
N93 C97 1.389 . S
N94 C95 1.358 . S
N94 C96 1.400 . S
C95 N93 1.263 . S
C95 N94 1.358 . S
C95 H101 0.930 . S
C96 N94 1.400 . S
C96 C97 1.351 . S
C96 H113 0.930 . S
C97 N93 1.389 . S
C97 C96 1.351 . S
C97 H102 0.930 . S
O98 Cu92 1.974 . S
O98 C108 1.282 . S
C99 O100 1.261 . S
C99 O112 1.251 . S
O100 C99 1.261 . S
H101 C95 0.930 . S
H102 C97 0.930 . S
N103 Cu92 1.985 . S
N103 C105 1.335 . S
N103 C106 1.390 . S
N104 C105 1.345 . S
N104 C107 1.336 . S
C105 N103 1.335 . S
C105 N104 1.345 . S
C105 H110 0.930 . S
C106 N103 1.390 . S
C106 C107 1.346 . S
C106 H111 0.930 . S
C107 N104 1.336 . S
C107 C106 1.346 . S
C107 H114 0.929 . S
C108 O98 1.282 . S
C108 O109 1.216 . S
O109 C108 1.216 . S
H110 C105 0.930 . S
H111 C106 0.930 . S
O112 Cu92 1.959 . S
O112 C99 1.251 . S
H113 C96 0.930 . S
H114 C107 0.929 . S
Cu115 N116 1.999 . S
Cu115 O121 1.974 . S
Cu115 N126 1.985 . S
Cu115 O135 1.959 . S
N116 Cu115 1.999 . S
N116 C118 1.263 . S
N116 C120 1.389 . S
N117 C118 1.358 . S
N117 C119 1.400 . S
C118 N116 1.263 . S
C118 N117 1.358 . S
C118 H124 0.930 . S
C119 N117 1.400 . S
C119 C120 1.351 . S
C119 H136 0.930 . S
C120 N116 1.389 . S
C120 C119 1.351 . S
C120 H125 0.930 . S
O121 Cu115 1.974 . S
O121 C131 1.282 . S
C122 O123 1.261 . S
C122 O135 1.251 . S
O123 C122 1.261 . S
H124 C118 0.930 . S
H125 C120 0.930 . S
N126 Cu115 1.985 . S
N126 C128 1.335 . S
N126 C129 1.390 . S
N127 C128 1.345 . S
N127 C130 1.336 . S
C128 N126 1.335 . S
C128 N127 1.345 . S
C128 H133 0.930 . S
C129 N126 1.390 . S
C129 C130 1.346 . S
C129 H134 0.930 . S
C130 N127 1.336 . S
C130 C129 1.346 . S
C130 H137 0.929 . S
C131 O121 1.282 . S
C131 O132 1.216 . S
O132 C131 1.216 . S
H133 C128 0.930 . S
H134 C129 0.930 . S
O135 Cu115 1.959 . S
O135 C122 1.251 . S
H136 C119 0.930 . S
H137 C130 0.929 . S
H138 C139 0.951 . S
C139 H138 0.951 . S
C139 C145 1.265 . S
H140 C145 0.950 . S
H141 C149 0.949 . S
H142 C150 0.950 . S
H143 C151 0.951 . S
H144 C152 0.951 . S
C145 C139 1.265 . S
C145 H140 0.950 . S
C145 C146 1.478 . S
C146 C145 1.478 . S
C146 C147 1.397 . S
C146 C163 1.394 . S
C147 C146 1.397 . S
C147 C148 1.438 1_545 S
C147 C152 1.429 . S
C148 C147 1.438 1_565 S
C148 C149 1.428 . S
C148 C161 1.394 . S
C149 H141 0.949 . S
C149 C148 1.428 . S
C149 C150 1.345 . S
C150 H142 0.950 . S
C150 C149 1.345 . S
C150 C151 1.424 1_565 S
C151 H143 0.951 . S
C151 C150 1.424 1_545 S
C151 C152 1.347 . S
C152 H144 0.951 . S
C152 C147 1.429 . S
C152 C151 1.347 . S
H153 C154 0.951 . S
C154 H153 0.951 . S
C154 C160 1.265 . S
H155 C160 0.950 . S
H156 C164 0.949 . S
H157 C165 0.950 . S
H158 C166 0.951 . S
H159 C167 0.951 . S
C160 C154 1.265 . S
C160 H155 0.950 . S
C160 C161 1.478 . S
C161 C148 1.394 . S
C161 C160 1.478 . S
C161 C162 1.397 . S
C162 C161 1.397 . S
C162 C163 1.438 1_565 S
C162 C167 1.429 . S
C163 C146 1.394 . S
C163 C162 1.438 1_545 S
C163 C164 1.428 . S
C164 H156 0.949 . S
C164 C163 1.428 . S
C164 C165 1.345 . S
C165 H157 0.950 . S
C165 C164 1.345 . S
C165 C166 1.424 1_545 S
C166 H158 0.951 . S
C166 C165 1.424 1_565 S
C166 C167 1.347 . S
C167 H159 0.951 . S
C167 C162 1.429 . S
C167 C166 1.347 . S
H168 C169 0.951 . S
C169 H168 0.951 . S
C169 C175 1.265 . S
H170 C175 0.950 . S
H171 C179 0.949 . S
H172 C180 0.950 . S
H173 C181 0.951 . S
H174 C182 0.951 . S
C175 C169 1.265 . S
C175 H170 0.950 . S
C175 C176 1.478 . S
C176 C175 1.478 . S
C176 C177 1.397 . S
C176 C193 1.394 . S
C177 C176 1.397 . S
C177 C178 1.438 . S
C177 C182 1.429 . S
C178 C177 1.438 . S
C178 C179 1.428 . S
C178 C191 1.394 . S
C179 H171 0.949 . S
C179 C178 1.428 . S
C179 C180 1.345 . S
C180 H172 0.950 . S
C180 C179 1.345 . S
C180 C181 1.424 . S
C181 H173 0.951 . S
C181 C180 1.424 . S
C181 C182 1.347 . S
C182 H174 0.951 . S
C182 C177 1.429 . S
C182 C181 1.347 . S
H183 C184 0.951 . S
C184 H183 0.951 . S
C184 C190 1.265 . S
H185 C190 0.950 . S
H186 C194 0.949 . S
H187 C195 0.950 . S
H188 C196 0.951 . S
H189 C197 0.951 . S
C190 C184 1.265 . S
C190 H185 0.950 . S
C190 C191 1.478 . S
C191 C178 1.394 . S
C191 C190 1.478 . S
C191 C192 1.397 . S
C192 C191 1.397 . S
C192 C193 1.438 . S
C192 C197 1.429 . S
C193 C176 1.394 . S
C193 C192 1.438 . S
C193 C194 1.428 . S
C194 H186 0.949 . S
C194 C193 1.428 . S
C194 C195 1.345 . S
C195 H187 0.950 . S
C195 C194 1.345 . S
C195 C196 1.424 . S
C196 H188 0.951 . S
C196 C195 1.424 . S
C196 C197 1.347 . S
C197 H189 0.951 . S
C197 C192 1.429 . S
C197 C196 1.347 . S
H198 C199 0.951 . S
C199 H198 0.951 . S
C199 C205 1.265 . S
H200 C205 0.950 . S
H201 C209 0.949 . S
H202 C210 0.950 . S
H203 C211 0.951 . S
H204 C212 0.951 . S
C205 C199 1.265 . S
C205 H200 0.950 . S
C205 C206 1.478 . S
C206 C205 1.478 . S
C206 C207 1.397 . S
C206 C223 1.394 . S
C207 C206 1.397 . S
C207 C208 1.438 1_655 S
C207 C212 1.429 . S
C208 C207 1.438 1_455 S
C208 C209 1.428 . S
C208 C221 1.394 . S
C209 H201 0.949 . S
C209 C208 1.428 . S
C209 C210 1.345 . S
C210 H202 0.950 . S
C210 C209 1.345 . S
C210 C211 1.424 1_455 S
C211 H203 0.951 . S
C211 C210 1.424 1_655 S
C211 C212 1.347 . S
C212 H204 0.951 . S
C212 C207 1.429 . S
C212 C211 1.347 . S
H213 C214 0.951 . S
C214 H213 0.951 . S
C214 C220 1.265 . S
H215 C220 0.950 . S
H216 C224 0.949 . S
H217 C225 0.950 . S
H218 C226 0.951 . S
H219 C227 0.951 . S
C220 C214 1.265 . S
C220 H215 0.950 . S
C220 C221 1.478 . S
C221 C208 1.394 . S
C221 C220 1.478 . S
C221 C222 1.397 . S
C222 C221 1.397 . S
C222 C223 1.438 1_455 S
C222 C227 1.429 . S
C223 C206 1.394 . S
C223 C222 1.438 1_655 S
C223 C224 1.428 . S
C224 H216 0.949 . S
C224 C223 1.428 . S
C224 C225 1.345 . S
C225 H217 0.950 . S
C225 C224 1.345 . S
C225 C226 1.424 1_655 S
C226 H218 0.951 . S
C226 C225 1.424 1_455 S
C226 C227 1.347 . S
C227 H219 0.951 . S
C227 C222 1.429 . S
C227 C226 1.347 . S
H228 C229 0.951 . S
C229 H228 0.951 . S
C229 C235 1.265 . S
H230 C235 0.950 . S
H231 C239 0.949 . S
H232 C240 0.950 . S
H233 C241 0.951 . S
H234 C242 0.951 . S
C235 C229 1.265 . S
C235 H230 0.950 . S
C235 C236 1.478 . S
C236 C235 1.478 . S
C236 C237 1.397 . S
C236 C253 1.394 . S
C237 C236 1.397 . S
C237 C238 1.438 1_455 S
C237 C242 1.429 . S
C238 C237 1.438 1_655 S
C238 C239 1.428 . S
C238 C251 1.394 . S
C239 H231 0.949 . S
C239 C238 1.428 . S
C239 C240 1.345 . S
C240 H232 0.950 . S
C240 C239 1.345 . S
C240 C241 1.424 1_655 S
C241 H233 0.951 . S
C241 C240 1.424 1_455 S
C241 C242 1.347 . S
C242 H234 0.951 . S
C242 C237 1.429 . S
C242 C241 1.347 . S
H243 C244 0.951 . S
C244 H243 0.951 . S
C244 C250 1.265 . S
H245 C250 0.950 . S
H246 C254 0.949 . S
H247 C255 0.950 . S
H248 C256 0.951 . S
H249 C257 0.951 . S
C250 C244 1.265 . S
C250 H245 0.950 . S
C250 C251 1.478 . S
C251 C238 1.394 . S
C251 C250 1.478 . S
C251 C252 1.397 . S
C252 C251 1.397 . S
C252 C253 1.438 1_655 S
C252 C257 1.429 . S
C253 C236 1.394 . S
C253 C252 1.438 1_455 S
C253 C254 1.428 . S
C254 H246 0.949 . S
C254 C253 1.428 . S
C254 C255 1.345 . S
C255 H247 0.950 . S
C255 C254 1.345 . S
C255 C256 1.424 1_455 S
C256 H248 0.951 . S
C256 C255 1.424 1_655 S
C256 C257 1.347 . S
C257 H249 0.951 . S
C257 C252 1.429 . S
C257 C256 1.347 . S
H258 C259 0.951 . S
C259 H258 0.951 . S
C259 C265 1.265 . S
H260 C265 0.950 . S
H261 C269 0.949 . S
H262 C270 0.950 . S
H263 C271 0.951 1_565 S
H264 C272 0.951 . S
C265 C259 1.265 . S
C265 H260 0.950 . S
C265 C266 1.478 . S
C266 C265 1.478 . S
C266 C267 1.397 . S
C266 C283 1.394 . S
C267 C266 1.397 . S
C267 C268 1.438 1_565 S
C267 C272 1.429 . S
C268 C267 1.438 1_545 S
C268 C269 1.428 . S
C268 C281 1.394 . S
C269 H261 0.949 . S
C269 C268 1.428 . S
C269 C270 1.345 . S
C270 H262 0.950 . S
C270 C269 1.345 . S
C270 C271 1.424 . S
C271 H263 0.951 1_545 S
C271 C270 1.424 . S
C271 C272 1.347 1_545 S
C272 H264 0.951 . S
C272 C267 1.429 . S
C272 C271 1.347 1_565 S
H273 C274 0.951 . S
C274 H273 0.951 . S
C274 C280 1.265 . S
H275 C280 0.950 . S
H276 C284 0.949 . S
H277 C285 0.950 . S
H278 C286 0.951 1_545 S
H279 C287 0.951 . S
C280 C274 1.265 . S
C280 H275 0.950 . S
C280 C281 1.478 . S
C281 C268 1.394 . S
C281 C280 1.478 . S
C281 C282 1.397 . S
C282 C281 1.397 . S
C282 C283 1.438 1_545 S
C282 C287 1.429 . S
C283 C266 1.394 . S
C283 C282 1.438 1_565 S
C283 C284 1.428 . S
C284 H276 0.949 . S
C284 C283 1.428 . S
C284 C285 1.345 . S
C285 H277 0.950 . S
C285 C284 1.345 . S
C285 C286 1.424 . S
C286 H278 0.951 1_565 S
C286 C285 1.424 . S
C286 C287 1.347 1_565 S
C287 H279 0.951 . S
C287 C282 1.429 . S
C287 C286 1.347 1_545 S
H288 C289 0.951 . S
C289 H288 0.951 . S
C289 C295 1.265 . S
H290 C295 0.950 . S
H291 C299 0.949 . S
H292 C300 0.950 . S
H293 C301 0.951 . S
H294 C302 0.951 . S
C295 C289 1.265 . S
C295 H290 0.950 . S
C295 C296 1.478 . S
C296 C295 1.478 . S
C296 C297 1.397 . S
C296 C313 1.394 . S
C297 C296 1.397 . S
C297 C298 1.438 . S
C297 C302 1.429 . S
C298 C297 1.438 . S
C298 C299 1.428 . S
C298 C311 1.394 . S
C299 H291 0.949 . S
C299 C298 1.428 . S
C299 C300 1.345 . S
C300 H292 0.950 . S
C300 C299 1.345 . S
C300 C301 1.424 . S
C301 H293 0.951 . S
C301 C300 1.424 . S
C301 C302 1.347 . S
C302 H294 0.951 . S
C302 C297 1.429 . S
C302 C301 1.347 . S
H303 C304 0.951 . S
C304 H303 0.951 . S
C304 C310 1.265 . S
H305 C310 0.950 . S
H306 C314 0.949 . S
H307 C315 0.950 . S
H308 C316 0.951 . S
H309 C317 0.951 . S
C310 C304 1.265 . S
C310 H305 0.950 . S
C310 C311 1.478 . S
C311 C298 1.394 . S
C311 C310 1.478 . S
C311 C312 1.397 . S
C312 C311 1.397 . S
C312 C313 1.438 . S
C312 C317 1.429 . S
C313 C296 1.394 . S
C313 C312 1.438 . S
C313 C314 1.428 . S
C314 H306 0.949 . S
C314 C313 1.428 . S
C314 C315 1.345 . S
C315 H307 0.950 . S
C315 C314 1.345 . S
C315 C316 1.424 . S
C316 H308 0.951 . S
C316 C315 1.424 . S
C316 C317 1.347 . S
C317 H309 0.951 . S
C317 C312 1.429 . S
C317 C316 1.347 . S
H318 C319 0.951 . S
C319 H318 0.951 . S
C319 C325 1.265 . S
H320 C325 0.950 . S
H321 C329 0.949 . S
H322 C330 0.950 . S
H323 C331 0.951 . S
H324 C332 0.951 . S
C325 C319 1.265 . S
C325 H320 0.950 . S
C325 C326 1.478 . S
C326 C325 1.478 . S
C326 C327 1.397 . S
C326 C343 1.394 . S
C327 C326 1.397 . S
C327 C328 1.438 1_556 S
C327 C332 1.429 . S
C328 C327 1.438 1_554 S
C328 C329 1.428 . S
C328 C341 1.394 . S
C329 H321 0.949 . S
C329 C328 1.428 . S
C329 C330 1.345 . S
C330 H322 0.950 . S
C330 C329 1.345 . S
C330 C331 1.424 . S
C331 H323 0.951 . S
C331 C330 1.424 . S
C331 C332 1.347 1_554 S
C332 H324 0.951 . S
C332 C327 1.429 . S
C332 C331 1.347 1_556 S
H333 C334 0.951 . S
C334 H333 0.951 . S
C334 C340 1.265 . S
H335 C340 0.950 . S
H336 C344 0.949 . S
H337 C345 0.950 . S
H338 C346 0.951 . S
H339 C347 0.951 . S
C340 C334 1.265 . S
C340 H335 0.950 . S
C340 C341 1.478 . S
C341 C328 1.394 . S
C341 C340 1.478 . S
C341 C342 1.397 . S
C342 C341 1.397 . S
C342 C343 1.438 1_554 S
C342 C347 1.429 . S
C343 C326 1.394 . S
C343 C342 1.438 1_556 S
C343 C344 1.428 . S
C344 H336 0.949 . S
C344 C343 1.428 . S
C344 C345 1.345 . S
C345 H337 0.950 . S
C345 C344 1.345 . S
C345 C346 1.424 . S
C346 H338 0.951 . S
C346 C345 1.424 . S
C346 C347 1.347 1_556 S
C347 H339 0.951 . S
C347 C342 1.429 . S
C347 C346 1.347 1_554 S
H348 C349 0.951 . S
C349 H348 0.951 . S
C349 C355 1.265 . S
H350 C355 0.950 . S
H351 C359 0.949 . S
H352 C360 0.950 . S
H353 C361 0.951 . S
H354 C362 0.951 . S
C355 C349 1.265 . S
C355 H350 0.950 . S
C355 C356 1.478 . S
C356 C355 1.478 . S
C356 C357 1.397 . S
C356 C373 1.394 . S
C357 C356 1.397 . S
C357 C358 1.438 . S
C357 C362 1.429 . S
C358 C357 1.438 . S
C358 C359 1.428 . S
C358 C371 1.394 . S
C359 H351 0.949 . S
C359 C358 1.428 . S
C359 C360 1.345 . S
C360 H352 0.950 . S
C360 C359 1.345 . S
C360 C361 1.424 . S
C361 H353 0.951 . S
C361 C360 1.424 . S
C361 C362 1.347 . S
C362 H354 0.951 . S
C362 C357 1.429 . S
C362 C361 1.347 . S
H363 C364 0.951 . S
C364 H363 0.951 . S
C364 C370 1.265 . S
H365 C370 0.950 . S
H366 C374 0.949 . S
H367 C375 0.950 . S
H368 C376 0.951 . S
H369 C377 0.951 . S
C370 C364 1.265 . S
C370 H365 0.950 . S
C370 C371 1.478 . S
C371 C358 1.394 . S
C371 C370 1.478 . S
C371 C372 1.397 . S
C372 C371 1.397 . S
C372 C373 1.438 . S
C372 C377 1.429 . S
C373 C356 1.394 . S
C373 C372 1.438 . S
C373 C374 1.428 . S
C374 H366 0.949 . S
C374 C373 1.428 . S
C374 C375 1.345 . S
C375 H367 0.950 . S
C375 C374 1.345 . S
C375 C376 1.424 . S
C376 H368 0.951 . S
C376 C375 1.424 . S
C376 C377 1.347 . S
C377 H369 0.951 . S
C377 C372 1.429 . S
C377 C376 1.347 . S
H378 C379 0.951 . S
C379 H378 0.951 . S
C379 C385 1.265 . S
H380 C385 0.950 . S
H381 C389 0.949 . S
H382 C390 0.950 . S
H383 C391 0.951 . S
H384 C392 0.951 . S
C385 C379 1.265 . S
C385 H380 0.950 . S
C385 C386 1.478 . S
C386 C385 1.478 . S
C386 C387 1.397 . S
C386 C403 1.394 . S
C387 C386 1.397 . S
C387 C388 1.438 . S
C387 C392 1.429 . S
C388 C387 1.438 . S
C388 C389 1.428 . S
C388 C401 1.394 . S
C389 H381 0.949 . S
C389 C388 1.428 . S
C389 C390 1.345 . S
C390 H382 0.950 . S
C390 C389 1.345 . S
C390 C391 1.424 . S
C391 H383 0.951 . S
C391 C390 1.424 . S
C391 C392 1.347 . S
C392 H384 0.951 . S
C392 C387 1.429 . S
C392 C391 1.347 . S
H393 C394 0.951 . S
C394 H393 0.951 . S
C394 C400 1.265 . S
H395 C400 0.950 . S
H396 C404 0.949 . S
H397 C405 0.950 . S
H398 C406 0.951 . S
H399 C407 0.951 . S
C400 C394 1.265 . S
C400 H395 0.950 . S
C400 C401 1.478 . S
C401 C388 1.394 . S
C401 C400 1.478 . S
C401 C402 1.397 . S
C402 C401 1.397 . S
C402 C403 1.438 . S
C402 C407 1.429 . S
C403 C386 1.394 . S
C403 C402 1.438 . S
C403 C404 1.428 . S
C404 H396 0.949 . S
C404 C403 1.428 . S
C404 C405 1.345 . S
C405 H397 0.950 . S
C405 C404 1.345 . S
C405 C406 1.424 . S
C406 H398 0.951 . S
C406 C405 1.424 . S
C406 C407 1.347 . S
C407 H399 0.951 . S
C407 C402 1.429 . S
C407 C406 1.347 . S
H408 C409 0.951 . S
C409 H408 0.951 . S
C409 C415 1.265 . S
H410 C415 0.950 . S
H411 C419 0.949 . S
H412 C420 0.950 . S
H413 C421 0.951 . S
H414 C422 0.951 1_556 S
C415 C409 1.265 . S
C415 H410 0.950 . S
C415 C416 1.478 . S
C416 C415 1.478 . S
C416 C417 1.397 1_556 S
C416 C433 1.394 . S
C417 C416 1.397 1_554 S
C417 C418 1.438 . S
C417 C422 1.429 . S
C418 C417 1.438 . S
C418 C419 1.428 . S
C418 C431 1.394 . S
C419 H411 0.949 . S
C419 C418 1.428 . S
C419 C420 1.345 . S
C420 H412 0.950 . S
C420 C419 1.345 . S
C420 C421 1.424 . S
C421 H413 0.951 . S
C421 C420 1.424 . S
C421 C422 1.347 . S
C422 H414 0.951 1_554 S
C422 C417 1.429 . S
C422 C421 1.347 . S
H423 C424 0.951 . S
C424 H423 0.951 . S
C424 C430 1.265 . S
H425 C430 0.950 . S
H426 C434 0.949 . S
H427 C435 0.950 . S
H428 C436 0.951 . S
H429 C437 0.929 1_554 S
C430 C424 1.265 . S
C430 H425 0.950 . S
C430 C431 1.478 . S
C431 C418 1.394 . S
C431 C430 1.478 . S
C431 C432 1.408 . S
C432 C431 1.408 . S
C432 C433 1.427 1_554 S
C432 C437 1.428 1_554 S
C433 C416 1.394 . S
C433 C432 1.427 1_556 S
C433 C434 1.428 . S
C434 H426 0.949 . S
C434 C433 1.428 . S
C434 C435 1.345 . S
C435 H427 0.950 . S
C435 C434 1.345 . S
C435 C436 1.424 . S
C436 H428 0.951 . S
C436 C435 1.424 . S
C436 C437 1.370 . S
C437 H429 0.929 1_556 S
C437 C432 1.428 1_556 S
C437 C436 1.370 . S
H438 C439 0.951 . S
C439 H438 0.951 . S
C439 C445 1.265 . S
H440 C445 0.950 . S
H441 C449 0.949 . S
H442 C450 0.950 . S
H443 C451 0.951 . S
H444 C452 0.951 . S
C445 C439 1.265 . S
C445 H440 0.950 . S
C445 C446 1.478 . S
C446 C445 1.478 . S
C446 C447 1.397 . S
C446 C463 1.394 . S
C447 C446 1.397 . S
C447 C448 1.438 . S
C447 C452 1.429 . S
C448 C447 1.438 . S
C448 C449 1.428 . S
C448 C461 1.394 . S
C449 H441 0.949 . S
C449 C448 1.428 . S
C449 C450 1.345 . S
C450 H442 0.950 . S
C450 C449 1.345 . S
C450 C451 1.424 . S
C451 H443 0.951 . S
C451 C450 1.424 . S
C451 C452 1.347 . S
C452 H444 0.951 . S
C452 C447 1.429 . S
C452 C451 1.347 . S
H453 C454 0.951 . S
C454 H453 0.951 . S
C454 C460 1.265 . S
H455 C460 0.950 . S
H456 C464 0.949 . S
H457 C465 0.950 . S
H458 C466 0.951 . S
H459 C467 0.951 . S
C460 C454 1.265 . S
C460 H455 0.950 . S
C460 C461 1.478 . S
C461 C448 1.394 . S
C461 C460 1.478 . S
C461 C462 1.397 . S
C462 C461 1.397 . S
C462 C463 1.438 . S
C462 C467 1.429 . S
C463 C446 1.394 . S
C463 C462 1.438 . S
C463 C464 1.428 . S
C464 H456 0.949 . S
C464 C463 1.428 . S
C464 C465 1.345 . S
C465 H457 0.950 . S
C465 C464 1.345 . S
C465 C466 1.424 . S
C466 H458 0.951 . S
C466 C465 1.424 . S
C466 C467 1.347 . S
C467 H459 0.951 . S
C467 C462 1.429 . S
C467 C466 1.347 . S
H468 C469 0.951 . S
C469 H468 0.951 . S
C469 C475 1.265 . S
H470 C475 0.950 . S
H471 C479 0.949 . S
H472 C480 0.950 . S
H473 C481 0.951 . S
H474 C482 0.951 . S
C475 C469 1.265 . S
C475 H470 0.950 . S
C475 C476 1.478 . S
C476 C475 1.478 . S
C476 C477 1.397 . S
C476 C493 1.394 . S
C477 C476 1.397 . S
C477 C478 1.438 . S
C477 C482 1.429 . S
C478 C477 1.438 . S
C478 C479 1.428 . S
C478 C491 1.394 . S
C479 H471 0.949 . S
C479 C478 1.428 . S
C479 C480 1.345 . S
C480 H472 0.950 . S
C480 C479 1.345 . S
C480 C481 1.424 . S
C481 H473 0.951 . S
C481 C480 1.424 . S
C481 C482 1.347 . S
C482 H474 0.951 . S
C482 C477 1.429 . S
C482 C481 1.347 . S
H483 C484 0.951 . S
C484 H483 0.951 . S
C484 C490 1.265 . S
H485 C490 0.950 . S
H486 C494 0.949 . S
H487 C495 0.950 . S
H488 C496 0.951 . S
H489 C497 0.951 . S
C490 C484 1.265 . S
C490 H485 0.950 . S
C490 C491 1.478 . S
C491 C478 1.394 . S
C491 C490 1.478 . S
C491 C492 1.397 . S
C492 C491 1.397 . S
C492 C493 1.438 . S
C492 C497 1.429 . S
C493 C476 1.394 . S
C493 C492 1.438 . S
C493 C494 1.428 . S
C494 H486 0.949 . S
C494 C493 1.428 . S
C494 C495 1.345 . S
C495 H487 0.950 . S
C495 C494 1.345 . S
C495 C496 1.424 . S
C496 H488 0.951 . S
C496 C495 1.424 . S
C496 C497 1.347 . S
C497 H489 0.951 . S
C497 C492 1.429 . S
C497 C496 1.347 . S
C139 N12 1.451 . S
C154 N81 1.468 . S
C169 C39 1.720 . S
C184 C108 1.721 . S
C199 N58 1.367 . S
C214 N127 1.322 . S
C229 C30 1.747 . S
C244 C99 1.746 . S
C259 N117 1.513 . S
C274 N48 1.519 . S
C289 N71 1.387 . S
C304 N2 1.324 . S
C319 C62 1.814 . S
C334 C7 1.871 . S
C349 C85 1.932 . S
C364 N25 1.808 . S
C379 C53 1.912 . S
C394 N104 1.928 . S
C409 C131 1.805 . S
C424 C76 1.881 . S
C439 N94 1.791 . S
C454 C16 1.930 . S
C469 C122 1.960 . S
C484 N35 1.887 . S
