# Generated by pormake.
# Topology sma, (6)-cn, num edge types: 1
# Building blocks:
#     Node 0, Type 0, BuildingBlock: BETDIP_clean_sbu_0, # of connection points: 6
#     Node 1, Type 0, BuildingBlock: BETDIP_clean_sbu_0, # of connection points: 6
#     Node 2, Type 0, BuildingBlock: BETDIP_clean_sbu_0, # of connection points: 6
#     Edge 3, Type (0, 0), BuildingBlock: EZIPEK_clean_linker_0, # of connection points: 2
#     Edge 4, Type (0, 0), BuildingBlock: EZIPEK_clean_linker_0, # of connection points: 2
#     Edge 5, Type (0, 0), BuildingBlock: EZIPEK_clean_linker_0, # of connection points: 2
#     Edge 6, Type (0, 0), BuildingBlock: EZIPEK_clean_linker_0, # of connection points: 2
#     Edge 7, Type (0, 0), BuildingBlock: EZIPEK_clean_linker_0, # of connection points: 2
#     Edge 8, Type (0, 0), BuildingBlock: EZIPEK_clean_linker_0, # of connection points: 2
#     Edge 9, Type (0, 0), BuildingBlock: EZIPEK_clean_linker_0, # of connection points: 2
#     Edge 10, Type (0, 0), BuildingBlock: EZIPEK_clean_linker_0, # of connection points: 2
#     Edge 11, Type (0, 0), BuildingBlock: EZIPEK_clean_linker_0, # of connection points: 2
# Relax obj value: 0.055
# Max RMSD: 0.158
# Mean RMSD: 0.158
data_MOF--net-sma--node1-BETDIP_clean_sbu_0--edge1-EZIPEK_clean_linker_0
_symmetry_space_group_name_H-M    P1
_symmetry_Int_Tables_number       1
_symmetry_cell_setting            triclinic
loop_
_symmetry_equiv_pos_as_xyz
'x, y, z'
_cell_length_a     31.612473
_cell_length_b     31.767801
_cell_length_c     10.134763
_cell_angle_alpha  90.575415
_cell_angle_beta   90.029105
_cell_angle_gamma 120.48094
loop_
_atom_site_label
_atom_site_type_symbol
_atom_site_fract_x
_atom_site_fract_y
_atom_site_fract_z
_atom_type_partial_charge
Tb0 Tb 0.09226 0.6054 0.10787 0.0
Tb1 Tb 1.03479 0.49721 0.04871 0.0
C2 C 0.14252 0.68671 0.22434 0.0
C3 C 0.19322 0.72341 0.26143 0.0
C4 C 0.20186 0.76643 0.32545 0.0
C5 C 0.24964 0.803 0.35814 0.0
C6 C 0.28955 0.79706 0.32725 0.0
C7 C 0.28089 0.75343 0.26597 0.0
C8 C 0.23292 0.71672 0.23334 0.0
C9 C 0.0761 0.5822 0.85364 0.0
C10 C 0.14855 0.54703 0.0626 0.0
C11 C 0.97681 0.41082 -0.02759 0.0
C12 C 0.9323 0.36981 0.03007 0.0
C13 C 0.89657 0.33331 0.94777 0.0
C14 C 0.85443 0.29401 0.00189 0.0
C15 C 0.84758 0.29062 0.1392 0.0
C16 C 0.88319 0.32733 0.2215 0.0
C17 C 0.92508 0.3668 0.16733 0.0
C18 C 1.04792 0.52238 0.30181 0.0
C19 C 0.98136 0.55948 0.04872 0.0
O20 O 0.1233 0.64458 0.2836 0.0
O21 O 0.13138 0.68196 0.09857 0.0
O22 O 0.08496 0.55975 0.94081 0.0
O23 O 0.08236 0.62262 0.90462 0.0
O24 O 0.14836 0.58373 0.12581 0.0
O25 O 0.10857 0.51274 0.0013 0.0
O26 O 0.97319 0.44815 0.93517 0.0
O27 O 1.01786 0.42442 0.03586 0.0
O28 O 1.03942 0.54303 0.20994 0.0
O29 O 1.04402 0.48262 0.25592 0.0
O30 O 0.98308 0.52166 -0.00101 0.0
O31 O 1.01799 0.59315 0.12098 0.0
H32 H 0.1716 0.77206 0.34842 0.0
H33 H 0.25564 0.83647 0.40463 0.0
H34 H 0.31133 0.74837 0.24077 0.0
H35 H 0.22687 0.6836 0.18487 0.0
H36 H 0.90135 0.33513 0.84172 0.0
H37 H 0.82728 0.26606 0.93689 0.0
H38 H 0.8785 0.32536 0.32757 0.0
H39 H 0.95195 0.39481 0.23269 0.0
Tb40 Tb 0.60035 1.01831 0.42473 0.0
Tb41 Tb 0.55493 0.07945 0.37731 0.0
C42 C 0.62697 0.96483 0.53616 0.0
C43 C 0.6118 0.9129 0.55743 0.0
C44 C 0.59579 0.89252 0.68305 0.0
C45 C 0.58668 0.84554 0.71022 0.0
C46 C 0.59354 0.8181 0.61236 0.0
C47 C 0.6083 0.83768 0.48585 0.0
C48 C 0.6175 0.88474 0.45858 0.0
C49 C 0.58478 1.02612 0.17078 0.0
C50 C 0.48354 0.96627 0.40745 0.0
C51 C 0.52976 0.13992 0.30911 0.0
C52 C 0.53201 0.18276 0.37486 0.0
C53 C 0.53813 0.22222 0.29933 0.0
C54 C 0.54022 0.26298 0.36056 0.0
C55 C 0.53653 0.26497 0.49832 0.0
C56 C 0.53088 0.22575 0.57416 0.0
C57 C 0.52862 0.18496 0.51287 0.0
C58 C 0.57745 0.07642 0.62889 0.0
C59 C 0.66905 0.12446 0.33567 0.0
O60 O 0.60057 0.9808 0.5934 0.0
O61 O 0.64101 0.98272 0.41781 0.0
O62 O 0.55813 1.02392 0.26623 0.0
O63 O 0.61892 1.01912 0.21722 0.0
O64 O 0.52188 0.96349 0.44762 0.0
O65 O 0.48877 1.00728 0.36022 0.0
O66 O 0.57187 0.14419 0.27895 0.0
O67 O 0.49976 0.09737 0.35983 0.0
O68 O 0.60158 0.07768 0.52937 0.0
O69 O 0.54034 0.07904 0.58822 0.0
O70 O 0.62872 0.12337 0.29541 0.0
O71 O 0.66688 0.08975 0.41137 0.0
H72 H 0.59148 0.9134 0.76155 0.0
H73 H 0.57535 0.831 0.8084 0.0
H74 H 0.61384 0.81697 0.40922 0.0
H75 H 0.63019 0.89939 0.36117 0.0
H76 H 0.54103 0.22139 0.19293 0.0
H77 H 0.54443 0.29288 0.30051 0.0
H78 H 0.52766 0.22653 0.68045 0.0
H79 H 0.5238 0.15497 0.57316 0.0
Tb80 Tb 0.50585 0.51351 0.73572 0.0
Tb81 Tb 0.61678 0.55918 0.70485 0.0
C82 C 0.42259 0.48733 0.83044 0.0
C83 C 0.39018 0.50618 0.87124 0.0
C84 C 0.3798 0.50698 0.00592 0.0
C85 C 0.34428 0.51819 0.04611 0.0
C86 C 0.31816 0.52835 0.9522 0.0
C87 C 0.32961 0.52936 0.81804 0.0
C88 C 0.36528 0.51833 0.77773 0.0
C89 C 0.53782 0.52217 0.49351 0.0
C90 C 0.57379 0.62933 0.71399 0.0
C91 C 0.70364 0.58378 0.64636 0.0
C92 C 0.74053 0.57547 0.71071 0.0
C93 C 0.78362 0.5862 0.64398 0.0
C94 C 0.82032 0.58162 0.70802 0.0
C95 C 0.81449 0.56647 0.83995 0.0
C96 C 0.77092 0.55486 0.90594 0.0
C97 C 0.73405 0.55902 0.84148 0.0
C98 C 0.58375 0.54454 0.94758 0.0
C99 C 0.5454 0.44243 0.6845 0.0
O100 O 0.46187 0.50058 0.90264 0.0
O101 O 0.4307 0.48582 0.70409 0.0
O102 O 0.55877 0.55234 0.58578 0.0
O103 O 0.49423 0.48892 0.53058 0.0
O104 O 0.53218 0.59217 0.75833 0.0
O105 O 0.60967 0.62314 0.6696 0.0
O106 O 0.6652 0.54526 0.59608 0.0
O107 O 0.69163 0.61163 0.71273 0.0
O108 O 0.56378 0.51773 0.84961 0.0
O109 O 0.62731 0.57806 0.91472 0.0
O110 O 0.58838 0.48152 0.6559 0.0
O111 O 0.509 0.44652 0.73436 0.0
H112 H 0.398 0.49729 0.08006 0.0
H113 H 0.33588 0.51722 0.15005 0.0
H114 H 0.30977 0.53713 0.74427 0.0
H115 H 0.37213 0.51779 0.67322 0.0
H116 H 0.78927 0.59895 0.54322 0.0
H117 H 0.85374 0.59084 0.65563 0.0
H118 H 0.76582 0.54331 0.00777 0.0
H119 H 0.70092 0.55042 0.89454 0.0
C120 C 0.23898 0.58596 0.00532 0.0
C121 C 0.19457 0.54515 0.05105 0.0
C122 C 0.23154 0.49356 0.03207 0.0
C123 C 0.27651 0.53474 -0.00685 0.0
N124 N 0.32663 0.62197 -0.02815 0.0
N125 N 0.15381 0.4641 0.1423 0.0
C126 C 0.28135 0.58157 -0.01078 0.0
C127 C 0.19249 0.50015 0.07489 0.0
N128 N 0.24031 0.62798 -0.0305 0.0
N129 N 0.22526 0.44775 0.02306 0.0
H130 H 0.12516 0.46799 0.179 0.0
H131 H 0.15275 0.43249 0.1741 0.0
H132 H 0.25279 0.44111 -0.00821 0.0
H133 H 0.19144 0.416 0.03553 0.0
H134 H 0.26989 0.65636 0.92085 0.0
H135 H 0.21055 0.63329 -0.02256 0.0
H136 H 0.33347 0.65755 -0.01745 0.0
H137 H 0.35831 0.61998 -0.04113 0.0
C138 C 0.75253 0.15973 0.22921 0.0
C139 C 0.71726 0.16684 0.29719 0.0
C140 C 0.7665 0.25497 0.25674 0.0
C141 C 0.80324 0.24823 0.1969 0.0
N142 N 0.83636 0.19586 0.1528 0.0
N143 N 0.697 0.22248 0.40442 0.0
C144 C 0.79781 0.20107 0.19129 0.0
C145 C 0.72614 0.2149 0.31947 0.0
N146 N 0.74205 0.11375 0.19443 0.0
N147 N 0.76911 0.29918 0.24948 0.0
H148 H 0.66826 0.19428 0.45634 0.0
H149 H 0.70451 0.25709 0.43422 0.0
H150 H 0.79783 0.32937 0.20342 0.0
H151 H 0.74067 0.30469 0.27861 0.0
H152 H 0.76379 0.10692 0.13073 0.0
H153 H 0.70963 0.08235 0.21993 0.0
H154 H 0.83633 0.16317 0.16026 0.0
H155 H 0.87021 0.22528 0.12506 0.0
C156 C 0.6253 0.76708 0.71198 0.0
C157 C 0.58742 0.76962 0.64383 0.0
C158 C 0.54196 0.68054 0.61524 0.0
C159 C 0.57761 0.67748 0.69381 0.0
N160 N 0.64995 0.71732 0.83223 0.0
N161 N 0.50581 0.72881 0.55097 0.0
C162 C 0.61841 0.72066 0.74647 0.0
C163 C 0.5445 0.7263 0.60194 0.0
N164 N 0.66862 0.80901 0.73967 0.0
N165 N 0.50755 0.64051 0.54596 0.0
H166 H 0.50662 0.76176 0.5381 0.0
H167 H 0.47152 0.69812 0.53235 0.0
H168 H 0.50558 0.60677 0.54709 0.0
H169 H 0.48409 0.64198 0.47634 0.0
H170 H 0.69973 0.80938 0.7751 0.0
H171 H 0.67491 0.84372 0.71752 0.0
H172 H 0.67688 0.74694 0.88603 0.0
H173 H 0.64689 0.68422 0.85793 0.0
C174 C 0.89963 0.60983 0.93634 0.0
C175 C 0.85536 0.5654 0.91037 0.0
C176 C 0.89029 0.52073 0.01643 0.0
C177 C 0.93743 0.56378 0.0178 0.0
N178 N 0.98745 0.64962 -0.03868 0.0
N179 N 0.80981 0.47729 0.91391 0.0
C180 C 0.94228 0.60868 -0.0251 0.0
C181 C 0.85085 0.52043 0.94795 0.0
N182 N 0.90083 0.65328 0.92562 0.0
N183 N 0.88277 0.48053 0.08413 0.0
H184 H 0.78023 0.47544 0.86297 0.0
H185 H 0.80698 0.44343 0.92628 0.0
H186 H 0.91004 0.48034 0.14172 0.0
H187 H 0.84824 0.44958 0.0957 0.0
H188 H 0.93061 0.68652 -0.04313 0.0
H189 H 0.8702 0.65554 0.89855 0.0
H190 H 0.99263 0.68105 0.91517 0.0
H191 H 1.02038 0.65133 -0.01703 0.0
C192 C 0.41746 0.90398 0.25929 0.0
C193 C 0.43548 0.92046 0.38927 0.0
C194 C 0.36087 0.85065 0.47861 0.0
C195 C 0.34051 0.83841 0.34919 0.0
N196 N 0.34639 0.85845 0.11819 0.0
N197 N 0.42351 0.91189 0.62431 0.0
C198 C 0.36798 0.86647 0.23999 0.0
C199 C 0.40707 0.89426 0.49971 0.0
N200 N 0.44833 0.92248 0.15411 0.0
N201 N 0.33646 0.82004 0.58053 0.0
H202 H 0.45743 0.94319 0.64292 0.0
H203 H 0.40233 0.89752 0.70855 0.0
H204 H 0.30258 0.78804 0.56817 0.0
H205 H 0.35138 0.82417 0.67465 0.0
H206 H 0.43843 0.90865 0.05832 0.0
H207 H 0.48559 0.94766 0.16489 0.0
H208 H 0.36301 0.88159 0.03872 0.0
H209 H 0.31016 0.83127 0.09912 0.0
C210 C 0.57861 0.38534 0.68349 0.0
C211 C 0.53871 0.39286 0.65729 0.0
C212 C 0.49313 0.31009 0.55928 0.0
C213 C 0.53647 0.30739 0.56216 0.0
N214 N 0.62198 0.34362 0.62014 0.0
N215 N 0.45741 0.36148 0.56037 0.0
C216 C 0.57961 0.34525 0.62299 0.0
C217 C 0.49536 0.35468 0.5947 0.0
N218 N 0.61457 0.41535 0.77096 0.0
N219 N 0.44956 0.26975 0.52349 0.0
H220 H 0.45627 0.39297 0.58041 0.0
H221 H 0.42847 0.33734 0.49944 0.0
H222 H 0.4467 0.23676 0.49474 0.0
H223 H 0.41569 0.26745 0.53443 0.0
H224 H 0.64235 0.40923 0.80245 0.0
H225 H 0.61329 0.44296 0.82424 0.0
H226 H 0.65591 0.37286 0.64949 0.0
H227 H 0.62389 0.31437 0.57921 0.0
C228 C 0.10588 0.56215 0.64476 0.0
C229 C 0.07041 0.56973 0.70988 0.0
C230 C 1.02035 0.54624 0.50706 0.0
C231 C 1.0555 0.53818 0.44249 0.0
N232 N 0.12969 0.53425 0.44989 0.0
N233 N 0.99949 0.57925 0.69575 0.0
C234 C 0.09762 0.54479 0.51159 0.0
C235 C 1.0294 0.56496 0.63866 0.0
N236 N 0.14939 0.57554 0.70699 0.0
N237 N 0.97648 0.53249 0.44606 0.0
H238 H 1.00402 0.592 0.79231 0.0
H239 H 0.97275 0.58253 0.64471 0.0
H240 H 0.96741 0.51687 0.35186 0.0
H241 H 0.94689 0.53188 0.49283 0.0
H242 H 0.17901 0.57538 0.66301 0.0
H243 H 0.15808 0.59165 0.80038 0.0
H244 H 0.15732 0.53167 0.49817 0.0
H245 H 0.12748 0.52555 0.3499 0.0
C246 C 0.55332 0.05978 -0.00884 0.0
C247 C 0.58091 1.03754 0.02888 0.0
C248 C 0.62008 0.05722 0.81074 0.0
C249 C 0.58923 0.07486 0.77109 0.0
N250 N 0.54849 0.11703 0.8456 0.0
N251 N 0.6278 1.001 0.95156 0.0
C252 C 0.56245 0.08348 0.86808 0.0
C253 C 0.6112 1.03269 0.93274 0.0
N254 N 0.51492 0.05431 0.0649 0.0
N255 N 0.66024 0.06726 0.73775 0.0
H256 H 0.61554 0.97594 0.02809 0.0
H257 H 0.64731 0.99413 0.8801 0.0
H258 H 0.67096 0.0906 0.6576 0.0
H259 H 0.68638 0.05859 0.76828 0.0
H260 H 0.49197 0.06732 0.03661 0.0
H261 H 0.50016 1.02916 0.13951 0.0
H262 H 0.53287 0.12845 0.9177 0.0
H263 H 0.55958 0.13877 0.76179 0.0
C264 C 0.5362 0.4846 0.27619 0.0
C265 C 0.55629 0.5267 0.35765 0.0
C266 C 0.58471 0.57881 0.16648 0.0
C267 C 0.56499 0.53702 0.0835 0.0
N268 N 0.50925 0.44959 0.06021 0.0
N269 N 0.62155 0.6104 0.37802 0.0
C270 C 0.53713 0.48958 0.13798 0.0
C271 C 0.58666 0.57317 0.30305 0.0
N272 N 0.52036 0.44016 0.33147 0.0
N273 N 0.60006 0.62382 0.11498 0.0
H274 H 0.63245 0.60335 0.46776 0.0
H275 H 0.64611 0.64473 0.34043 0.0
H276 H 0.59492 0.62836 0.01564 0.0
H277 H 0.61145 0.65496 0.17354 0.0
H278 H 0.51001 0.40815 0.27818 0.0
H279 H 0.52479 0.43708 0.4315 0.0
H280 H 0.48479 0.41509 0.0966 0.0
H281 H 0.5044 0.4518 -0.03927 0.0
loop_
_geom_bond_atom_site_label_1
_geom_bond_atom_site_label_2
_geom_bond_distance
_geom_bond_site_symmetry_2
_ccdc_geom_bond_type
Tb0 C2 2.809 . S
Tb0 O20 2.484 . S
Tb0 O21 2.440 . S
Tb0 O22 2.658 1_455 S
Tb0 O23 2.409 1_554 S
Tb0 O24 2.378 . S
Tb0 O28 2.325 . S
Tb0 O31 2.341 1_455 S
Tb1 C11 2.809 . S
Tb1 O22 2.325 . S
Tb1 O25 2.341 1_655 S
Tb1 O26 2.484 . S
Tb1 O27 2.440 . S
Tb1 O28 2.658 1_655 S
Tb1 O29 2.409 . S
Tb1 O30 2.378 . S
C2 Tb0 2.809 . S
C2 C3 1.514 . S
C2 O20 1.248 . S
C2 O21 1.266 . S
C3 C2 1.514 . S
C3 C4 1.359 . S
C3 C8 1.348 . S
C4 C3 1.359 . S
C4 C5 1.380 . S
C4 H32 0.929 . S
C5 C4 1.380 . S
C5 C6 1.347 . S
C5 H33 0.931 . S
C6 C5 1.347 . S
C6 C7 1.369 . S
C7 C6 1.369 . S
C7 C8 1.408 . S
C7 H34 0.930 . S
C8 C3 1.348 . S
C8 C7 1.408 . S
C8 H35 0.930 1_554 S
C9 O22 1.281 1_456 S
C9 O23 1.254 . S
C10 O24 1.236 . S
C10 O25 1.266 . S
C11 Tb1 2.809 . S
C11 C12 1.514 . S
C11 O26 1.248 . S
C11 O27 1.266 . S
C12 C11 1.514 . S
C12 C13 1.359 . S
C12 C17 1.348 . S
C13 C12 1.359 . S
C13 C14 1.380 . S
C13 H36 0.929 1_554 S
C14 C13 1.380 . S
C14 C15 1.348 . S
C14 H37 0.929 1_554 S
C15 C14 1.348 . S
C15 C16 1.369 . S
C16 C15 1.369 . S
C16 C17 1.408 . S
C16 H38 0.930 . S
C17 C12 1.348 . S
C17 C16 1.408 . S
C17 H39 0.930 . S
C18 O28 1.277 1_655 S
C18 O29 1.256 . S
C19 O30 1.236 . S
C19 O31 1.266 . S
O20 Tb0 2.484 . S
O20 C2 1.248 . S
O21 Tb0 2.440 . S
O21 C2 1.266 . S
O22 Tb0 2.658 1_655 S
O22 Tb1 2.325 . S
O22 C9 1.281 1_654 S
O23 Tb0 2.409 1_556 S
O23 C9 1.254 . S
O24 Tb0 2.378 . S
O24 C10 1.236 . S
O25 Tb1 2.341 1_455 S
O25 C10 1.266 . S
O26 Tb1 2.484 . S
O26 C11 1.248 . S
O27 Tb1 2.440 . S
O27 C11 1.266 . S
O28 Tb0 2.325 . S
O28 Tb1 2.658 1_455 S
O28 C18 1.277 1_455 S
O29 Tb1 2.409 . S
O29 C18 1.256 . S
O30 Tb1 2.378 . S
O30 C19 1.236 . S
O31 Tb0 2.341 1_655 S
O31 C19 1.266 . S
H32 C4 0.929 . S
H33 C5 0.931 . S
H34 C7 0.930 . S
H35 C8 0.930 1_556 S
H36 C13 0.929 1_556 S
H37 C14 0.929 1_556 S
H38 C16 0.930 . S
H39 C17 0.930 . S
Tb40 C42 2.809 . S
Tb40 O60 2.484 . S
Tb40 O61 2.440 . S
Tb40 O62 2.658 1_565 S
Tb40 O63 2.409 . S
Tb40 O64 2.378 . S
Tb40 O68 2.325 . S
Tb40 O71 2.341 1_565 S
Tb41 C51 2.809 . S
Tb41 O62 2.325 . S
Tb41 O65 2.341 1_545 S
Tb41 O66 2.484 . S
Tb41 O67 2.440 . S
Tb41 O68 2.658 1_545 S
Tb41 O69 2.409 . S
Tb41 O70 2.378 . S
C42 Tb40 2.809 . S
C42 C43 1.514 . S
C42 O60 1.248 . S
C42 O61 1.266 . S
C43 C42 1.514 . S
C43 C44 1.359 . S
C43 C48 1.348 . S
C44 C43 1.359 . S
C44 C45 1.380 . S
C44 H72 0.929 . S
C45 C44 1.380 . S
C45 C46 1.347 . S
C45 H73 0.931 . S
C46 C45 1.347 . S
C46 C47 1.369 . S
C47 C46 1.369 . S
C47 C48 1.408 . S
C47 H74 0.930 . S
C48 C43 1.348 . S
C48 C47 1.408 . S
C48 H75 0.930 . S
C49 O62 1.275 1_565 S
C49 O63 1.265 . S
C50 O64 1.236 . S
C50 O65 1.266 . S
C51 Tb41 2.809 . S
C51 C52 1.514 . S
C51 O66 1.248 . S
C51 O67 1.266 . S
C52 C51 1.514 . S
C52 C53 1.359 . S
C52 C57 1.348 . S
C53 C52 1.359 . S
C53 C54 1.380 . S
C53 H76 0.929 . S
C54 C53 1.380 . S
C54 C55 1.347 . S
C54 H77 0.931 . S
C55 C54 1.347 . S
C55 C56 1.369 . S
C56 C55 1.369 . S
C56 C57 1.408 . S
C56 H78 0.930 . S
C57 C52 1.348 . S
C57 C56 1.408 . S
C57 H79 0.930 . S
C58 O68 1.281 1_545 S
C58 O69 1.254 . S
C59 O70 1.236 . S
C59 O71 1.266 . S
O60 Tb40 2.484 . S
O60 C42 1.248 . S
O61 Tb40 2.440 . S
O61 C42 1.266 . S
O62 Tb40 2.658 1_545 S
O62 Tb41 2.325 . S
O62 C49 1.275 1_545 S
O63 Tb40 2.409 . S
O63 C49 1.265 . S
O64 Tb40 2.378 . S
O64 C50 1.236 . S
O65 Tb41 2.341 1_565 S
O65 C50 1.266 . S
O66 Tb41 2.484 . S
O66 C51 1.248 . S
O67 Tb41 2.440 . S
O67 C51 1.266 . S
O68 Tb40 2.325 . S
O68 Tb41 2.658 1_565 S
O68 C58 1.281 1_565 S
O69 Tb41 2.409 . S
O69 C58 1.254 . S
O70 Tb41 2.378 . S
O70 C59 1.236 . S
O71 Tb40 2.341 1_545 S
O71 C59 1.266 . S
H72 C44 0.929 . S
H73 C45 0.931 . S
H74 C47 0.930 . S
H75 C48 0.930 . S
H76 C53 0.929 . S
H77 C54 0.931 . S
H78 C56 0.930 . S
H79 C57 0.930 . S
Tb80 C82 2.809 . S
Tb80 O100 2.484 . S
Tb80 O101 2.440 . S
Tb80 O102 2.658 . S
Tb80 O103 2.409 . S
Tb80 O104 2.378 . S
Tb80 O108 2.325 . S
Tb80 O111 2.341 . S
Tb81 C91 2.809 . S
Tb81 O102 2.325 . S
Tb81 O105 2.341 . S
Tb81 O106 2.484 . S
Tb81 O107 2.440 . S
Tb81 O108 2.658 . S
Tb81 O109 2.409 1_556 S
Tb81 O110 2.378 . S
C82 Tb80 2.809 . S
C82 C83 1.514 . S
C82 O100 1.248 . S
C82 O101 1.266 . S
C83 C82 1.514 . S
C83 C84 1.359 . S
C83 C88 1.348 . S
C84 C83 1.359 . S
C84 C85 1.380 . S
C84 H112 0.929 1_556 S
C85 C84 1.380 . S
C85 C86 1.348 . S
C85 H113 0.929 1_556 S
C86 C85 1.348 . S
C86 C87 1.369 . S
C87 C86 1.369 . S
C87 C88 1.408 . S
C87 H114 0.930 . S
C88 C83 1.348 . S
C88 C87 1.408 . S
C88 H115 0.930 . S
C89 O102 1.281 . S
C89 O103 1.254 . S
C90 O104 1.236 . S
C90 O105 1.266 . S
C91 Tb81 2.809 . S
C91 C92 1.514 . S
C91 O106 1.248 . S
C91 O107 1.266 . S
C92 C91 1.514 . S
C92 C93 1.359 . S
C92 C97 1.348 . S
C93 C92 1.359 . S
C93 C94 1.380 . S
C93 H116 0.929 . S
C94 C93 1.380 . S
C94 C95 1.347 . S
C94 H117 0.931 . S
C95 C94 1.347 . S
C95 C96 1.369 . S
C96 C95 1.369 . S
C96 C97 1.408 . S
C96 H118 0.930 . S
C97 C92 1.348 . S
C97 C96 1.408 . S
C97 H119 0.930 1_556 S
C98 O108 1.281 1_554 S
C98 O109 1.254 . S
C99 O110 1.236 . S
C99 O111 1.266 . S
O100 Tb80 2.484 . S
O100 C82 1.248 . S
O101 Tb80 2.440 . S
O101 C82 1.266 . S
O102 Tb80 2.658 . S
O102 Tb81 2.325 . S
O102 C89 1.281 . S
O103 Tb80 2.409 . S
O103 C89 1.254 . S
O104 Tb80 2.378 . S
O104 C90 1.236 . S
O105 Tb81 2.341 . S
O105 C90 1.266 . S
O106 Tb81 2.484 . S
O106 C91 1.248 . S
O107 Tb81 2.440 . S
O107 C91 1.266 . S
O108 Tb80 2.325 . S
O108 Tb81 2.658 . S
O108 C98 1.281 1_556 S
O109 Tb81 2.409 1_554 S
O109 C98 1.254 . S
O110 Tb81 2.378 . S
O110 C99 1.236 . S
O111 Tb80 2.341 . S
O111 C99 1.266 . S
H112 C84 0.929 1_554 S
H113 C85 0.929 1_554 S
H114 C87 0.930 . S
H115 C88 0.930 . S
H116 C93 0.929 . S
H117 C94 0.931 . S
H118 C96 0.930 . S
H119 C97 0.930 1_554 S
C120 C121 1.363 . S
C120 C126 1.379 1_554 S
C120 N128 1.356 . S
C121 C120 1.363 . S
C121 C127 1.363 . S
C122 C123 1.363 1_554 S
C122 C127 1.379 . S
C122 N129 1.356 . S
C123 C122 1.363 1_556 S
C123 C126 1.363 . S
N124 C126 1.356 . S
N124 H136 0.984 . S
N124 H137 0.985 . S
N125 C127 1.356 . S
N125 H130 0.984 . S
N125 H131 0.985 . S
C126 C120 1.379 1_556 S
C126 C123 1.363 . S
C126 N124 1.356 . S
C127 C121 1.363 . S
C127 C122 1.379 . S
C127 N125 1.356 . S
N128 C120 1.356 . S
N128 H134 0.984 1_554 S
N128 H135 0.984 . S
N129 C122 1.356 . S
N129 H132 0.984 1_554 S
N129 H133 0.985 . S
H130 N125 0.984 . S
H131 N125 0.985 . S
H132 N129 0.984 1_556 S
H133 N129 0.985 . S
H134 N128 0.984 1_556 S
H135 N128 0.984 . S
H136 N124 0.984 . S
H137 N124 0.985 . S
C138 C139 1.363 . S
C138 C144 1.379 . S
C138 N146 1.356 . S
C139 C138 1.363 . S
C139 C145 1.363 . S
C140 C141 1.363 . S
C140 C145 1.379 . S
C140 N147 1.356 . S
C141 C140 1.363 . S
C141 C144 1.363 . S
N142 C144 1.356 . S
N142 H154 0.984 . S
N142 H155 0.985 . S
N143 C145 1.356 . S
N143 H148 0.984 . S
N143 H149 0.985 . S
C144 C138 1.379 . S
C144 C141 1.363 . S
C144 N142 1.356 . S
C145 C139 1.363 . S
C145 C140 1.379 . S
C145 N143 1.356 . S
N146 C138 1.356 . S
N146 H152 0.984 . S
N146 H153 0.984 . S
N147 C140 1.356 . S
N147 H150 0.984 . S
N147 H151 0.985 . S
H148 N143 0.984 . S
H149 N143 0.985 . S
H150 N147 0.984 . S
H151 N147 0.985 . S
H152 N146 0.984 . S
H153 N146 0.984 . S
H154 N142 0.984 . S
H155 N142 0.985 . S
C156 C157 1.363 . S
C156 C162 1.379 . S
C156 N164 1.356 . S
C157 C156 1.363 . S
C157 C163 1.363 . S
C158 C159 1.363 . S
C158 C163 1.379 . S
C158 N165 1.356 . S
C159 C158 1.363 . S
C159 C162 1.363 . S
N160 C162 1.356 . S
N160 H172 0.984 1_556 S
N160 H173 0.985 . S
N161 C163 1.356 . S
N161 H166 0.984 . S
N161 H167 0.985 . S
C162 C156 1.379 . S
C162 C159 1.363 . S
C162 N160 1.356 . S
C163 C157 1.363 . S
C163 C158 1.379 . S
C163 N161 1.356 . S
N164 C156 1.356 . S
N164 H170 0.984 . S
N164 H171 0.984 . S
N165 C158 1.356 . S
N165 H168 0.984 . S
N165 H169 0.985 . S
H166 N161 0.984 . S
H167 N161 0.985 . S
H168 N165 0.984 . S
H169 N165 0.985 . S
H170 N164 0.984 . S
H171 N164 0.984 . S
H172 N160 0.984 1_554 S
H173 N160 0.985 . S
C174 C175 1.363 . S
C174 C180 1.379 . S
C174 N182 1.356 . S
C175 C174 1.363 . S
C175 C181 1.363 . S
C176 C177 1.363 . S
C176 C181 1.379 1_554 S
C176 N183 1.356 . S
C177 C176 1.363 . S
C177 C180 1.363 1_554 S
N178 C180 1.356 . S
N178 H190 0.984 . S
N178 H191 0.985 1_556 S
N179 C181 1.356 . S
N179 H184 0.984 . S
N179 H185 0.985 1_556 S
C180 C174 1.379 . S
C180 C177 1.363 1_556 S
C180 N178 1.356 . S
C181 C175 1.363 . S
C181 C176 1.379 1_556 S
C181 N179 1.356 . S
N182 C174 1.356 . S
N182 H188 0.984 . S
N182 H189 0.984 . S
N183 C176 1.356 . S
N183 H186 0.984 . S
N183 H187 0.985 . S
H184 N179 0.984 . S
H185 N179 0.985 1_554 S
H186 N183 0.984 . S
H187 N183 0.985 . S
H188 N182 0.984 . S
H189 N182 0.984 . S
H190 N178 0.984 . S
H191 N178 0.985 1_554 S
C192 C193 1.363 . S
C192 C198 1.379 . S
C192 N200 1.356 . S
C193 C192 1.363 . S
C193 C199 1.363 . S
C194 C195 1.363 . S
C194 C199 1.379 . S
C194 N201 1.356 . S
C195 C194 1.363 . S
C195 C198 1.363 . S
N196 C198 1.356 . S
N196 H208 0.984 . S
N196 H209 0.985 . S
N197 C199 1.356 . S
N197 H202 0.984 . S
N197 H203 0.985 . S
C198 C192 1.379 . S
C198 C195 1.363 . S
C198 N196 1.356 . S
C199 C193 1.363 . S
C199 C194 1.379 . S
C199 N197 1.356 . S
N200 C192 1.356 . S
N200 H206 0.984 . S
N200 H207 0.984 . S
N201 C194 1.356 . S
N201 H204 0.984 . S
N201 H205 0.985 . S
H202 N197 0.984 . S
H203 N197 0.985 . S
H204 N201 0.984 . S
H205 N201 0.985 . S
H206 N200 0.984 . S
H207 N200 0.984 . S
H208 N196 0.984 . S
H209 N196 0.985 . S
C210 C211 1.363 . S
C210 C216 1.379 . S
C210 N218 1.356 . S
C211 C210 1.363 . S
C211 C217 1.363 . S
C212 C213 1.363 . S
C212 C217 1.379 . S
C212 N219 1.356 . S
C213 C212 1.363 . S
C213 C216 1.363 . S
N214 C216 1.356 . S
N214 H226 0.984 . S
N214 H227 0.985 . S
N215 C217 1.356 . S
N215 H220 0.984 . S
N215 H221 0.985 . S
C216 C210 1.379 . S
C216 C213 1.363 . S
C216 N214 1.356 . S
C217 C211 1.363 . S
C217 C212 1.379 . S
C217 N215 1.356 . S
N218 C210 1.356 . S
N218 H224 0.984 . S
N218 H225 0.984 . S
N219 C212 1.356 . S
N219 H222 0.984 . S
N219 H223 0.985 . S
H220 N215 0.984 . S
H221 N215 0.985 . S
H222 N219 0.984 . S
H223 N219 0.985 . S
H224 N218 0.984 . S
H225 N218 0.984 . S
H226 N214 0.984 . S
H227 N214 0.985 . S
C228 C229 1.363 . S
C228 C234 1.379 . S
C228 N236 1.356 . S
C229 C228 1.363 . S
C229 C235 1.363 1_655 S
C230 C231 1.363 . S
C230 C235 1.379 . S
C230 N237 1.356 . S
C231 C230 1.363 . S
C231 C234 1.363 1_455 S
N232 C234 1.356 . S
N232 H244 0.984 . S
N232 H245 0.985 . S
N233 C235 1.356 . S
N233 H238 0.984 . S
N233 H239 0.985 . S
C234 C228 1.379 . S
C234 C231 1.363 1_655 S
C234 N232 1.356 . S
C235 C229 1.363 1_455 S
C235 C230 1.379 . S
C235 N233 1.356 . S
N236 C228 1.356 . S
N236 H242 0.984 . S
N236 H243 0.984 . S
N237 C230 1.356 . S
N237 H240 0.984 . S
N237 H241 0.985 . S
H238 N233 0.984 . S
H239 N233 0.985 . S
H240 N237 0.984 . S
H241 N237 0.985 . S
H242 N236 0.984 . S
H243 N236 0.984 . S
H244 N232 0.984 . S
H245 N232 0.985 . S
C246 C247 1.363 . S
C246 C252 1.379 1_554 S
C246 N254 1.356 . S
C247 C246 1.363 . S
C247 C253 1.363 1_545 S
C248 C249 1.363 . S
C248 C253 1.379 1_556 S
C248 N255 1.356 . S
C249 C248 1.363 . S
C249 C252 1.363 1_565 S
N250 C252 1.356 . S
N250 H262 0.984 . S
N250 H263 0.985 . S
N251 C253 1.356 . S
N251 H256 0.984 . S
N251 H257 0.985 . S
C252 C246 1.379 1_556 S
C252 C249 1.363 1_545 S
C252 N250 1.356 . S
C253 C247 1.363 1_565 S
C253 C248 1.379 1_554 S
C253 N251 1.356 . S
N254 C246 1.356 . S
N254 H260 0.984 . S
N254 H261 0.984 . S
N255 C248 1.356 . S
N255 H258 0.984 . S
N255 H259 0.985 . S
H256 N251 0.984 . S
H257 N251 0.985 . S
H258 N255 0.984 . S
H259 N255 0.985 . S
H260 N254 0.984 . S
H261 N254 0.984 . S
H262 N250 0.984 . S
H263 N250 0.985 . S
C264 C265 1.363 . S
C264 C270 1.379 . S
C264 N272 1.356 . S
C265 C264 1.363 . S
C265 C271 1.363 . S
C266 C267 1.363 . S
C266 C271 1.379 . S
C266 N273 1.356 . S
C267 C266 1.363 . S
C267 C270 1.363 . S
N268 C270 1.356 . S
N268 H280 0.984 . S
N268 H281 0.985 . S
N269 C271 1.356 . S
N269 H274 0.984 . S
N269 H275 0.985 . S
C270 C264 1.379 . S
C270 C267 1.363 . S
C270 N268 1.356 . S
C271 C265 1.363 . S
C271 C266 1.379 . S
C271 N269 1.356 . S
N272 C264 1.356 . S
N272 H278 0.984 . S
N272 H279 0.984 . S
N273 C266 1.356 . S
N273 H276 0.984 . S
N273 H277 0.985 . S
H274 N269 0.984 . S
H275 N269 0.985 . S
H276 N273 0.984 . S
H277 N273 0.985 . S
H278 N272 0.984 . S
H279 N272 0.984 . S
H280 N268 0.984 . S
H281 N268 0.985 . S
C121 C10 1.804 . S
C123 C86 1.867 . S
C139 C59 2.199 . S
C141 C15 2.108 . S
C157 C46 1.867 . S
C159 C90 1.804 . S
C175 C95 2.108 . S
C177 C19 2.199 . S
C193 C50 1.804 . S
C195 C6 1.867 . S
C211 C99 2.199 . S
C213 C55 2.108 . S
C229 C9 0.777 1_655 S
C231 C18 0.780 1_455 S
C247 C49 0.772 1_545 S
C249 C58 0.777 1_565 S
C265 C89 0.777 . S
C267 C98 0.777 . S
