# Generated by pormake.
# Topology yff, (5)-cn, num edge types: 1
# Building blocks:
#     Node 0, Type 0, BuildingBlock: XOMCOT_clean_sbu_0, # of connection points: 5
#     Node 1, Type 0, BuildingBlock: XOMCOT_clean_sbu_0, # of connection points: 5
#     Node 2, Type 0, BuildingBlock: XOMCOT_clean_sbu_0, # of connection points: 5
#     Node 3, Type 0, BuildingBlock: XOMCOT_clean_sbu_0, # of connection points: 5
#     Node 4, Type 0, BuildingBlock: XOMCOT_clean_sbu_0, # of connection points: 5
#     Node 5, Type 0, BuildingBlock: XOMCOT_clean_sbu_0, # of connection points: 5
#     Node 6, Type 0, BuildingBlock: XOMCOT_clean_sbu_0, # of connection points: 5
#     Node 7, Type 0, BuildingBlock: XOMCOT_clean_sbu_0, # of connection points: 5
#     Node 8, Type 0, BuildingBlock: XOMCOT_clean_sbu_0, # of connection points: 5
#     Node 9, Type 0, BuildingBlock: XOMCOT_clean_sbu_0, # of connection points: 5
#     Node 10, Type 0, BuildingBlock: XOMCOT_clean_sbu_0, # of connection points: 5
#     Node 11, Type 0, BuildingBlock: XOMCOT_clean_sbu_0, # of connection points: 5
#     Node 12, Type 0, BuildingBlock: XOMCOT_clean_sbu_0, # of connection points: 5
#     Node 13, Type 0, BuildingBlock: XOMCOT_clean_sbu_0, # of connection points: 5
#     Node 14, Type 0, BuildingBlock: XOMCOT_clean_sbu_0, # of connection points: 5
#     Node 15, Type 0, BuildingBlock: XOMCOT_clean_sbu_0, # of connection points: 5
#     Edge 16, Type (0, 0), BuildingBlock: TEMPAE_clean_linker_10, # of connection points: 2
#     Edge 17, Type (0, 0), BuildingBlock: TEMPAE_clean_linker_10, # of connection points: 2
#     Edge 18, Type (0, 0), BuildingBlock: TEMPAE_clean_linker_10, # of connection points: 2
#     Edge 19, Type (0, 0), BuildingBlock: TEMPAE_clean_linker_10, # of connection points: 2
#     Edge 20, Type (0, 0), BuildingBlock: TEMPAE_clean_linker_10, # of connection points: 2
#     Edge 21, Type (0, 0), BuildingBlock: TEMPAE_clean_linker_10, # of connection points: 2
#     Edge 22, Type (0, 0), BuildingBlock: TEMPAE_clean_linker_10, # of connection points: 2
#     Edge 23, Type (0, 0), BuildingBlock: TEMPAE_clean_linker_10, # of connection points: 2
#     Edge 24, Type (0, 0), BuildingBlock: TEMPAE_clean_linker_10, # of connection points: 2
#     Edge 25, Type (0, 0), BuildingBlock: TEMPAE_clean_linker_10, # of connection points: 2
#     Edge 26, Type (0, 0), BuildingBlock: TEMPAE_clean_linker_10, # of connection points: 2
#     Edge 27, Type (0, 0), BuildingBlock: TEMPAE_clean_linker_10, # of connection points: 2
#     Edge 28, Type (0, 0), BuildingBlock: TEMPAE_clean_linker_10, # of connection points: 2
#     Edge 29, Type (0, 0), BuildingBlock: TEMPAE_clean_linker_10, # of connection points: 2
#     Edge 30, Type (0, 0), BuildingBlock: TEMPAE_clean_linker_10, # of connection points: 2
#     Edge 31, Type (0, 0), BuildingBlock: TEMPAE_clean_linker_10, # of connection points: 2
#     Edge 32, Type (0, 0), BuildingBlock: TEMPAE_clean_linker_10, # of connection points: 2
#     Edge 33, Type (0, 0), BuildingBlock: TEMPAE_clean_linker_10, # of connection points: 2
#     Edge 34, Type (0, 0), BuildingBlock: TEMPAE_clean_linker_10, # of connection points: 2
#     Edge 35, Type (0, 0), BuildingBlock: TEMPAE_clean_linker_10, # of connection points: 2
#     Edge 36, Type (0, 0), BuildingBlock: TEMPAE_clean_linker_10, # of connection points: 2
#     Edge 37, Type (0, 0), BuildingBlock: TEMPAE_clean_linker_10, # of connection points: 2
#     Edge 38, Type (0, 0), BuildingBlock: TEMPAE_clean_linker_10, # of connection points: 2
#     Edge 39, Type (0, 0), BuildingBlock: TEMPAE_clean_linker_10, # of connection points: 2
#     Edge 40, Type (0, 0), BuildingBlock: TEMPAE_clean_linker_10, # of connection points: 2
#     Edge 41, Type (0, 0), BuildingBlock: TEMPAE_clean_linker_10, # of connection points: 2
#     Edge 42, Type (0, 0), BuildingBlock: TEMPAE_clean_linker_10, # of connection points: 2
#     Edge 43, Type (0, 0), BuildingBlock: TEMPAE_clean_linker_10, # of connection points: 2
#     Edge 44, Type (0, 0), BuildingBlock: TEMPAE_clean_linker_10, # of connection points: 2
#     Edge 45, Type (0, 0), BuildingBlock: TEMPAE_clean_linker_10, # of connection points: 2
#     Edge 46, Type (0, 0), BuildingBlock: TEMPAE_clean_linker_10, # of connection points: 2
#     Edge 47, Type (0, 0), BuildingBlock: TEMPAE_clean_linker_10, # of connection points: 2
#     Edge 48, Type (0, 0), BuildingBlock: TEMPAE_clean_linker_10, # of connection points: 2
#     Edge 49, Type (0, 0), BuildingBlock: TEMPAE_clean_linker_10, # of connection points: 2
#     Edge 50, Type (0, 0), BuildingBlock: TEMPAE_clean_linker_10, # of connection points: 2
#     Edge 51, Type (0, 0), BuildingBlock: TEMPAE_clean_linker_10, # of connection points: 2
#     Edge 52, Type (0, 0), BuildingBlock: TEMPAE_clean_linker_10, # of connection points: 2
#     Edge 53, Type (0, 0), BuildingBlock: TEMPAE_clean_linker_10, # of connection points: 2
#     Edge 54, Type (0, 0), BuildingBlock: TEMPAE_clean_linker_10, # of connection points: 2
#     Edge 55, Type (0, 0), BuildingBlock: TEMPAE_clean_linker_10, # of connection points: 2
# Relax obj value: 0.396
# Max RMSD: 0.365
# Mean RMSD: 0.295
data_MOF--net-yff--node1-XOMCOT_clean_sbu_0--edge1-TEMPAE_clean_linker_10
_symmetry_space_group_name_H-M    P1
_symmetry_Int_Tables_number       1
_symmetry_cell_setting            triclinic
loop_
_symmetry_equiv_pos_as_xyz
'x, y, z'
_cell_length_a     60.318178
_cell_length_b     60.22339
_cell_length_c     30.178122
_cell_angle_alpha  90.332612
_cell_angle_beta   90.34074
_cell_angle_gamma 106.72585
loop_
_atom_site_label
_atom_site_type_symbol
_atom_site_fract_x
_atom_site_fract_y
_atom_site_fract_z
_atom_type_partial_charge
Co0 Co 0.09835 0.08291 0.43403 0.0
C1 C 0.09904 0.11061 0.51527 0.0
C2 C 0.11512 0.133 0.4626 0.0
C3 C 0.11792 0.14583 0.50146 0.0
N4 N 0.10384 0.11064 0.47148 0.0
N5 N 0.10771 0.13161 0.53432 0.0
H6 H 0.09085 0.09522 0.534 0.0
H7 H 0.12134 0.13982 0.43068 0.0
C8 C 0.12926 0.11415 0.36519 0.0
O9 O 0.14735 0.12002 0.39185 0.0
N10 N 0.09222 0.05492 0.39868 0.0
C11 C 0.09625 0.03511 0.41204 0.0
C12 C 0.08436 0.01738 0.3847 0.0
C13 C 0.07772 0.04895 0.3636 0.0
N14 N 0.07241 0.02599 0.35474 0.0
C15 C 0.13588 0.08044 0.49187 0.0
C16 C 0.16356 0.07136 0.4256 0.0
C17 C 0.17149 0.07288 0.46952 0.0
C18 C 0.15732 0.07736 0.50299 0.0
C19 C 0.14211 0.07452 0.41601 0.0
N20 N 0.12884 0.07983 0.44868 0.0
H21 H 0.12478 0.08274 0.51821 0.0
H22 H 0.13614 0.07269 0.38199 0.0
H23 H 0.10585 0.03336 0.44155 0.0
H24 H 0.06962 0.06069 0.34766 0.0
O25 O 0.08026 0.06403 0.48028 0.0
O26 O 0.06648 0.08196 0.42727 0.0
O27 O 0.10969 0.10146 0.37868 0.0
C28 C 0.06238 0.06767 0.46035 0.0
H29 H 0.12714 0.16403 0.50546 0.0
H30 H 0.08371 -0.00068 0.38805 0.0
H31 H 0.17392 0.06798 0.3986 0.0
H32 H 0.16254 0.07803 0.53749 0.0
Co33 Co 0.46438 0.1044 0.9569 0.0
C34 C 0.43597 0.1158 0.02715 0.0
C35 C 0.41439 0.09789 0.97414 0.0
C36 C 0.4005 0.09992 0.00952 0.0
N37 N 0.43674 0.10811 0.98522 0.0
N38 N 0.41428 0.11139 0.04265 0.0
H39 H 0.45086 0.12206 0.04833 0.0
H40 H 0.4087 0.0882 0.94382 0.0
C41 C 0.44204 0.12387 0.87994 0.0
O42 O 0.43156 0.13512 0.90603 0.0
N43 N 0.49195 0.10049 0.93084 0.0
C44 C 0.51296 0.10546 0.95043 0.0
C45 C 0.52686 0.09581 0.9255 0.0
C46 C 0.49324 0.088 0.89439 0.0
N47 N 0.51437 0.0849 0.89048 0.0
C48 C 0.48919 0.14225 0.01342 0.0
C49 C 0.49235 0.17655 0.95165 0.0
C50 C 0.49574 0.18274 0.99656 0.0
C51 C 0.49571 0.1654 0.02732 0.0
C52 C 0.48562 0.15322 0.93954 0.0
N53 N 0.48146 0.13642 0.97111 0.0
H54 H 0.48864 0.12894 0.03755 0.0
H55 H 0.48301 0.14896 0.90489 0.0
H56 H 0.51744 0.11424 0.98199 0.0
H57 H 0.4786 0.07994 0.87307 0.0
O58 O 0.47073 0.08844 0.00927 0.0
O59 O 0.44988 0.0718 0.95101 0.0
O60 O 0.4549 0.11237 0.89618 0.0
C61 C 0.45919 0.06942 0.98884 0.0
H62 H 0.38193 0.0925 0.01154 0.0
H63 H 0.54449 0.09607 0.93322 0.0
H64 H 0.49299 0.1894 0.92635 0.0
H65 H 0.49924 0.16955 0.0621 0.0
Co66 Co 0.38852 0.40679 0.43948 0.0
C67 C 0.37828 0.37798 0.51963 0.0
C68 C 0.37747 0.35651 0.4626 0.0
C69 C 0.37392 0.34271 0.50005 0.0
N70 N 0.37976 0.37866 0.47495 0.0
N71 N 0.37416 0.35638 0.53564 0.0
H72 H 0.38183 0.39307 0.5409 0.0
H73 H 0.37913 0.3508 0.4291 0.0
C74 C 0.35952 0.37508 0.36844 0.0
O75 O 0.34155 0.36856 0.39469 0.0
N76 N 0.39776 0.43516 0.40611 0.0
C77 C 0.39628 0.45578 0.42108 0.0
C78 C 0.40763 0.47267 0.39231 0.0
C79 C 0.41017 0.43974 0.36853 0.0
N80 N 0.41639 0.46266 0.35919 0.0
C81 C 0.35202 0.41646 0.49013 0.0
C82 C 0.32813 0.42619 0.41797 0.0
C83 C 0.32122 0.43027 0.46066 0.0
C84 C 0.33307 0.4249 0.49706 0.0
C85 C 0.34697 0.41746 0.41254 0.0
N86 N 0.35861 0.4124 0.44835 0.0
H87 H 0.3623 0.41506 0.51844 0.0
H88 H 0.35315 0.41637 0.37935 0.0
H89 H 0.38838 0.45845 0.45198 0.0
H90 H 0.41508 0.42668 0.34941 0.0
O91 O 0.40538 0.42403 0.48941 0.0
O92 O 0.41988 0.40558 0.43833 0.0
O93 O 0.37848 0.38907 0.38228 0.0
C94 C 0.42343 0.41956 0.47232 0.0
H95 H 0.37168 0.32424 0.50111 0.0
H96 H 0.41017 0.49107 0.39682 0.0
H97 H 0.31952 0.43042 0.38897 0.0
H98 H 0.32864 0.42853 0.53053 0.0
Co99 Co 0.06156 0.41 0.9251 0.0
C100 C 0.08598 0.4186 0.00925 0.0
C101 C 0.10756 0.43864 0.95897 0.0
C102 C 0.11877 0.44377 0.9996 0.0
N103 N 0.08705 0.42278 0.96547 0.0
N104 N 0.10507 0.43111 0.03134 0.0
H105 H 0.07112 0.40663 0.02429 0.0
H106 H 0.11361 0.44638 0.9274 0.0
C107 C 0.08154 0.38973 0.84975 0.0
O108 O 0.06852 0.36907 0.86064 0.0
N109 N 0.03526 0.3972 0.88492 0.0
C110 C 0.02352 0.37488 0.87516 0.0
C111 C 0.00537 0.37446 0.84687 0.0
C112 C 0.02409 0.4098 0.86156 0.0
N113 N 0.00575 0.39648 0.83905 0.0
C114 C 0.0399 0.36747 0.9699 0.0
C115 C 0.07824 0.35102 0.96932 0.0
C116 C 0.05748 0.33719 0.98709 0.0
C117 C 0.03824 0.34579 0.9881 0.0
C118 C 0.07902 0.37236 0.95098 0.0
N119 N 0.05964 0.37972 0.94912 0.0
H120 H 0.02508 0.37415 0.97097 0.0
H121 H 0.09516 0.38292 0.93753 0.0
H122 H 0.02741 0.35966 0.88758 0.0
H123 H 0.02897 0.42846 0.86076 0.0
O124 O 0.04135 0.41946 0.9663 0.0
O125 O 0.06061 0.44098 0.91172 0.0
O126 O 0.08295 0.40724 0.87512 0.0
C127 C 0.04635 0.4389 0.94463 0.0
H128 H 0.13538 0.45641 1.00519 0.0
H129 H 0.99246 0.35923 0.83433 0.0
H130 H 0.09355 0.34505 0.96814 0.0
H131 H 0.02204 0.33575 1.00236 0.0
Co132 Co 0.56662 0.94062 0.57633 0.0
C133 C 0.56531 0.91106 0.49795 0.0
C134 C 0.54477 0.89149 0.54972 0.0
C135 C 0.54206 0.87765 0.51211 0.0
N136 N 0.55978 0.91237 0.54093 0.0
N137 N 0.55525 0.89009 0.47986 0.0
H138 H 0.57454 0.92571 0.47853 0.0
H139 H 0.53543 0.88699 0.58038 0.0
C140 C 0.56865 0.90611 0.64838 0.0
O141 O 0.58061 0.89595 0.62323 0.0
N142 N 0.57325 0.96888 0.61013 0.0
C143 C 0.5884 0.9892 0.59908 0.0
C144 C 0.58658 0.00577 0.62913 0.0
C145 C 0.56235 0.9732 0.64644 0.0
N146 N 0.57018 0.99571 0.65896 0.0
C147 C 0.61169 0.94744 0.53738 0.0
C148 C 0.63458 0.94493 0.61588 0.0
C149 C 0.64642 0.94581 0.57588 0.0
C150 C 0.63495 0.94796 0.53633 0.0
C151 C 0.61137 0.94451 0.61528 0.0
N152 N 0.59968 0.94379 0.57611 0.0
H153 H 0.60356 0.95039 0.50709 0.0
H154 H 0.60287 0.94481 0.64653 0.0
H155 H 0.59945 0.99189 0.57032 0.0
H156 H 0.54871 0.96019 0.66263 0.0
O157 O 0.56386 0.95835 0.52418 0.0
O158 O 0.53514 0.94102 0.5691 0.0
O159 O 0.56192 0.92288 0.63345 0.0
C160 C 0.54214 0.95414 0.53499 0.0
H161 H 0.53064 0.86022 0.5083 0.0
H162 H 0.59599 0.02399 0.62785 0.0
H163 H 0.64318 0.94461 0.64738 0.0
H164 H 0.6437 0.94959 0.50476 0.0
Co165 Co 0.56559 0.60033 0.05699 0.0
C166 C 0.59378 0.61662 0.97751 0.0
C167 C 0.61417 0.60782 0.02899 0.0
C168 C 0.62736 0.61266 0.99109 0.0
N169 N 0.59318 0.61079 0.02075 0.0
N170 N 0.61444 0.61831 0.9589 0.0
H171 H 0.57878 0.61716 0.95836 0.0
H172 H 0.61911 0.60099 0.05932 0.0
C173 C 0.60053 0.62025 0.12863 0.0
O174 O 0.60903 0.63882 0.10449 0.0
N175 N 0.53802 0.58911 0.09183 0.0
C176 C 0.51734 0.59259 0.08304 0.0
C177 C 0.50084 0.57774 0.10859 0.0
C178 C 0.53395 0.57235 0.12263 0.0
N179 N 0.51136 0.5651 0.13325 0.0
C180 C 0.55993 0.64372 0.02755 0.0
C181 C 0.55373 0.66007 0.11095 0.0
C182 C 0.55079 0.67271 0.07375 0.0
C183 C 0.55426 0.66449 0.03166 0.0
C184 C 0.55947 0.63943 0.10536 0.0
N185 N 0.56288 0.63158 0.06404 0.0
H186 H 0.56033 0.63679 0.99487 0.0
H187 H 0.55989 0.62912 0.13433 0.0
H188 H 0.5143 0.60416 0.05796 0.0
H189 H 0.5469 0.56456 0.13471 0.0
O190 O 0.54659 0.59107 1.00487 0.0
O191 O 0.56368 0.56868 0.04192 0.0
O192 O 0.58451 0.6032 0.11298 0.0
C193 C 0.54942 0.57065 0.0106 0.0
H194 H 0.64462 0.61099 0.98693 0.0
H195 H 0.48244 0.57589 0.10825 0.0
H196 H 0.55093 0.66571 0.14407 0.0
H197 H 0.55136 0.67335 1.002 0.0
Co198 Co 0.89274 0.51226 0.57952 0.0
C199 C 0.89505 0.53618 0.49388 0.0
C200 C 0.90474 0.56108 0.5465 0.0
C201 C 0.90642 0.57273 0.50671 0.0
N202 N 0.89694 0.53805 0.53849 0.0
N203 N 0.90007 0.55692 0.47372 0.0
H204 H 0.89124 0.51993 0.47596 0.0
H205 H 0.90961 0.56902 0.57864 0.0
C206 C 0.88151 0.5464 0.6445 0.0
O207 O 0.86687 0.55159 0.61685 0.0
N208 N 0.88902 0.48647 0.61897 0.0
C209 C 0.87446 0.46497 0.61345 0.0
C210 C 0.88051 0.45041 0.64309 0.0
C211 C 0.90377 0.48475 0.65145 0.0
N212 N 0.89909 0.46286 0.66648 0.0
C213 C 0.8489 0.50089 0.53279 0.0
C214 C 0.82261 0.50111 0.60739 0.0
C215 C 0.81257 0.50124 0.56548 0.0
C216 C 0.8256 0.49974 0.52788 0.0
C217 C 0.84593 0.50222 0.61063 0.0
N218 N 0.85924 0.5044 0.57354 0.0
H219 H 0.85861 0.49946 0.50375 0.0
H220 H 0.85359 0.50269 0.64321 0.0
H221 H 0.86144 0.4599 0.58762 0.0
H222 H 0.91859 0.49887 0.66161 0.0
O223 O 0.89995 0.49317 0.53288 0.0
O224 O 0.92537 0.51648 0.57881 0.0
O225 O 0.89295 0.53253 0.63287 0.0
C226 C 0.92128 0.50133 0.54688 0.0
H227 H 0.91203 0.59134 0.50246 0.0
H228 H 0.87309 0.43179 0.64469 0.0
H229 H 0.81307 0.50173 0.63743 0.0
H230 H 0.81809 0.49857 0.49494 0.0
Co231 Co 0.91785 0.88898 0.05361 0.0
C232 C 0.8912 0.87697 0.97008 0.0
C233 C 0.87091 0.88683 0.02023 0.0
C234 C 0.8585 0.88344 0.98093 0.0
N235 N 0.89128 0.88222 0.01366 0.0
N236 N 0.87134 0.8771 0.94958 0.0
H237 H 0.90612 0.87531 0.95235 0.0
H238 H 0.86589 0.89357 0.05062 0.0
C239 C 0.87988 0.87123 0.12041 0.0
O240 O 0.86997 0.85336 0.09479 0.0
N241 N 0.94445 0.89643 0.09245 0.0
C242 C 0.96274 0.88792 0.09007 0.0
C243 C 0.97965 0.9004 0.11857 0.0
C244 C 0.95051 0.91413 0.12175 0.0
N245 N 0.97206 0.91707 0.13815 0.0
C246 C 0.92011 0.84513 0.0193 0.0
C247 C 0.91825 0.82341 0.10018 0.0
C248 C 0.9211 0.81151 0.06163 0.0
C249 C 0.92192 0.82261 0.0208 0.0
C250 C 0.91653 0.84596 0.09716 0.0
N251 N 0.91678 0.85639 0.05691 0.0
H252 H 0.92271 0.85383 0.98803 0.0
H253 H 0.91622 0.85542 0.12752 0.0
H254 H 0.96408 0.87422 0.06785 0.0
H255 H 0.93987 0.92542 0.1287 0.0
O256 O 0.93878 0.8982 1.00459 0.0
O257 O 0.92313 0.92152 0.04258 0.0
O258 O 0.89778 0.88677 0.10724 0.0
C259 C 0.93747 0.9191 0.01218 0.0
H260 H 0.84181 0.88634 0.97546 0.0
H261 H -0.00357 0.89765 0.1236 0.0
H262 H 0.91839 0.81577 0.13255 0.0
H263 H 0.92448 0.81417 0.99026 0.0
Co264 Co 0.88441 0.92467 0.55172 0.0
C265 C 0.87126 0.89684 0.4697 0.0
C266 C 0.88225 0.8774 0.52002 0.0
C267 C 0.87843 0.86448 0.48131 0.0
N268 N 0.87721 0.89755 0.51301 0.0
N269 N 0.87138 0.87678 0.44986 0.0
H270 H 0.86916 0.91148 0.45152 0.0
H271 H 0.8896 0.87292 0.55023 0.0
C272 C 0.86711 0.88732 0.61974 0.0
O273 O 0.84926 0.87722 0.59426 0.0
N274 N 0.8923 0.95183 0.58924 0.0
C275 C 0.88409 0.9703 0.58562 0.0
C276 C 0.89679 0.98758 0.6132 0.0
C277 C 0.91002 0.95813 0.61838 0.0
N278 N 0.91326 0.98001 0.63347 0.0
C279 C 0.84007 0.92637 0.51876 0.0
C280 C 0.81957 0.9255 0.60062 0.0
C281 C 0.80692 0.92729 0.56246 0.0
C282 C 0.81742 0.92773 0.52113 0.0
C283 C 0.84214 0.92411 0.59672 0.0
N284 N 0.85194 0.92374 0.55604 0.0
H285 H 0.84834 0.92875 0.48707 0.0
H286 H 0.85205 0.9243 0.6267 0.0
H287 H 0.87043 0.97146 0.56317 0.0
H288 H 0.92112 0.94739 0.62622 0.0
O289 O 0.89318 0.94498 0.50162 0.0
O290 O 0.91675 0.92969 0.53974 0.0
O291 O 0.8826 0.90519 0.60618 0.0
C292 C 0.91409 0.94369 0.50884 0.0
H293 H 0.88157 0.84784 0.47621 0.0
H294 H 0.89431 0.00456 0.61722 0.0
H295 H 0.81224 0.92556 0.63329 0.0
H296 H 0.80859 0.93012 0.49096 0.0
Co297 Co 0.51375 0.89806 0.08445 0.0
C298 C 0.53697 0.89494 0.99973 0.0
C299 C 0.56202 0.90733 0.05129 0.0
C300 C 0.57353 0.9074 0.01179 0.0
N301 N 0.53901 0.89884 0.04392 0.0
N302 N 0.55764 0.89938 0.97954 0.0
H303 H 0.52071 0.8905 0.98184 0.0
H304 H 0.57 0.91404 0.08261 0.0
C305 C 0.54682 0.887 0.1504 0.0
O306 O 0.55079 0.87148 0.12316 0.0
N307 N 0.48861 0.89802 0.12341 0.0
C308 C 0.46651 0.88483 0.11866 0.0
C309 C 0.45275 0.89373 0.14544 0.0
C310 C 0.48807 0.91476 0.15276 0.0
N311 N 0.46633 0.91267 0.16641 0.0
C312 C 0.50117 0.85153 0.04723 0.0
C313 C 0.49891 0.82966 0.128 0.0
C314 C 0.49981 0.81713 0.08918 0.0
C315 C 0.49951 0.82795 0.04826 0.0
C316 C 0.50074 0.85318 0.12533 0.0
N317 N 0.50412 0.86426 0.08545 0.0
H318 H 0.50082 0.85953 0.01567 0.0
H319 H 0.50106 0.86281 0.15577 0.0
H320 H 0.4606 0.87073 0.09509 0.0
H321 H 0.50293 0.9293 0.16077 0.0
O322 O 0.49486 0.90373 0.03609 0.0
O323 O 0.51965 0.93079 0.07676 0.0
O324 O 0.53409 0.89955 0.13817 0.0
C325 C 0.50398 0.92563 0.04574 0.0
H326 H 0.59207 0.91337 0.00705 0.0
H327 H 0.43408 0.88745 0.14756 0.0
H328 H 0.49807 0.82168 0.16027 0.0
H329 H 0.49943 0.81873 0.01732 0.0
Co330 Co 0.59815 0.56957 0.56021 0.0
C331 C 0.60887 0.5968 0.4781 0.0
C332 C 0.60099 0.61733 0.53037 0.0
C333 C 0.60408 0.63008 0.49175 0.0
N334 N 0.60457 0.59658 0.52198 0.0
N335 N 0.60927 0.61708 0.45916 0.0
H336 H 0.60955 0.58181 0.45903 0.0
H337 H 0.59528 0.62249 0.56163 0.0
C338 C 0.6177 0.60648 0.62934 0.0
O339 O 0.63541 0.61608 0.60382 0.0
N340 N 0.59105 0.54244 0.59706 0.0
C341 C 0.59694 0.52289 0.58838 0.0
C342 C 0.58414 0.50553 0.61498 0.0
C343 C 0.57488 0.53683 0.62892 0.0
N344 N 0.57034 0.51436 0.64022 0.0
C345 C 0.64069 0.56646 0.52325 0.0
C346 C 0.66186 0.56253 0.60306 0.0
C347 C 0.67193 0.55813 0.56355 0.0
C348 C 0.66152 0.56092 0.52331 0.0
C349 C 0.64099 0.56816 0.60151 0.0
N350 N 0.63051 0.56997 0.56187 0.0
H351 H 0.63193 0.56575 0.4921 0.0
H352 H 0.63232 0.56901 0.63239 0.0
H353 H 0.60854 0.52102 0.56237 0.0
H354 H 0.56537 0.54836 0.64096 0.0
O355 O 0.58822 0.54923 0.51007 0.0
O356 O 0.56544 0.56443 0.55035 0.0
O357 O 0.60149 0.58914 0.61534 0.0
C358 C 0.56744 0.55015 0.5191 0.0
H359 H 0.60193 0.64718 0.48764 0.0
H360 H 0.58422 0.48757 0.61459 0.0
H361 H 0.66912 0.56 0.6349 0.0
H362 H 0.66873 0.55755 0.49204 0.0
Co363 Co 0.94313 0.57341 0.06745 0.0
C364 C 0.91226 0.57011 0.99032 0.0
C365 C 0.89414 0.54932 0.04324 0.0
C366 C 0.87976 0.54578 0.00635 0.0
N367 N 0.91443 0.56501 0.03332 0.0
N368 N 0.89126 0.55912 0.97333 0.0
H369 H 0.92637 0.57979 0.97014 0.0
H370 H 0.89043 0.54008 0.07419 0.0
C371 C 0.90917 0.57292 0.14202 0.0
O372 O 0.89769 0.58412 0.11803 0.0
N373 N 0.97179 0.58154 0.10003 0.0
C374 C 0.9906 0.59942 0.09179 0.0
C375 C 0.00809 0.59803 0.12004 0.0
C376 C 0.97799 0.56939 0.13261 0.0
N377 N 0.00016 0.57908 0.14554 0.0
C378 C 0.94624 0.61796 0.02935 0.0
C379 C 0.94362 0.6404 0.10839 0.0
C380 C 0.94319 0.65205 0.06853 0.0
C381 C 0.94529 0.64081 0.02868 0.0
C382 C 0.94458 0.61755 0.10743 0.0
N383 N 0.94406 0.60602 0.0681 0.0
H384 H 0.94926 0.61016 0.99874 0.0
H385 H 0.94581 0.60921 0.13851 0.0
H386 H 0.99167 0.61227 0.06639 0.0
H387 H 0.96678 0.55328 0.14515 0.0
O388 O 0.9607 0.57218 0.01424 0.0
O389 O 0.94543 0.54256 0.05884 0.0
O390 O 0.92629 0.56736 0.12559 0.0
C391 C 0.95772 0.55047 0.02415 0.0
H392 H 0.86259 0.53374 1.00357 0.0
H393 H 0.02535 0.60998 0.12138 0.0
H394 H 0.9428 0.64867 0.14006 0.0
H395 H 0.94641 0.64968 0.99727 0.0
Co396 Co 0.41383 0.07153 0.44077 0.0
C397 C 0.42607 0.09623 0.52592 0.0
C398 C 0.43373 0.12078 0.47324 0.0
C399 C 0.43845 0.13263 0.51336 0.0
N400 N 0.42538 0.09786 0.48128 0.0
N401 N 0.43323 0.11704 0.54639 0.0
H402 H 0.42141 0.08002 0.5436 0.0
H403 H 0.43626 0.12854 0.44083 0.0
C404 C 0.40738 0.10746 0.37325 0.0
O405 O 0.39502 0.11638 0.39996 0.0
N406 N 0.40254 0.04492 0.40236 0.0
C407 C 0.38491 0.02598 0.41138 0.0
C408 C 0.38569 0.00858 0.38241 0.0
C409 C 0.41387 0.03882 0.3682 0.0
N410 N 0.40412 0.01656 0.35577 0.0
C411 C 0.37385 0.06936 0.49485 0.0
C412 C 0.34423 0.07008 0.42512 0.0
C413 C 0.33621 0.07036 0.46854 0.0
C414 C 0.3512 0.0695 0.50371 0.0
C415 C 0.36699 0.0701 0.41785 0.0
N416 N 0.38192 0.07096 0.45247 0.0
H417 H 0.38463 0.06752 0.5222 0.0
H418 H 0.37255 0.06915 0.38411 0.0
H419 H 0.3733 0.02437 0.43913 0.0
H420 H 0.43016 0.04968 0.35575 0.0
O421 O 0.41864 0.05049 0.48612 0.0
O422 O 0.44438 0.06829 0.43604 0.0
O423 O 0.41605 0.09168 0.38678 0.0
C424 C 0.4389 0.05351 0.46809 0.0
H425 H 0.44467 0.15125 0.5178 0.0
H426 H 0.37436 0.99101 0.38273 0.0
H427 H 0.33293 0.06957 0.39686 0.0
H428 H 0.34558 0.06908 0.53778 0.0
Co429 Co 0.41492 0.38336 0.93891 0.0
C430 C 0.3862 0.38188 0.01844 0.0
C431 C 0.36509 0.36341 0.96525 0.0
C432 C 0.35205 0.36016 1.0035 0.0
N433 N 0.38683 0.37658 0.97483 0.0
N434 N 0.36545 0.37184 0.03677 0.0
H435 H 0.40107 0.39154 0.03764 0.0
H436 H 0.35893 0.35617 0.93328 0.0
C437 C 0.38573 0.35089 0.86645 0.0
O438 O 0.3795 0.33241 0.89156 0.0
N439 N 0.44319 0.39068 0.90523 0.0
C440 C 0.46371 0.38902 0.92024 0.0
C441 C 0.48071 0.40062 0.8918 0.0
C442 C 0.44796 0.40348 0.86817 0.0
N443 N 0.47086 0.40985 0.8591 0.0
C444 C 0.42186 0.34954 0.99951 0.0
C445 C 0.43357 0.32156 0.93632 0.0
C446 C 0.43564 0.31673 0.98125 0.0
C447 C 0.42945 0.33083 0.01307 0.0
C448 C 0.42606 0.3405 0.92423 0.0
N449 N 0.42007 0.35413 0.9556 0.0
H450 H 0.41868 0.36104 0.02452 0.0
H451 H 0.4264 0.34499 0.8896 0.0
H452 H 0.46632 0.38125 0.95133 0.0
H453 H 0.43509 0.40912 0.84999 0.0
O454 O 0.43245 0.40303 0.98553 0.0
O455 O 0.41386 0.41457 0.93056 0.0
O456 O 0.3976 0.37044 0.88239 0.0
C457 C 0.4279 0.42003 0.96433 0.0
H458 H 0.33428 0.34964 0.0068 0.0
H459 H 0.49908 0.40334 0.89673 0.0
H460 H 0.43886 0.31153 0.9107 0.0
H461 H 0.43104 0.32779 0.04813 0.0
Co462 Co 0.09942 0.46365 0.44083 0.0
C463 C 0.10533 0.43192 0.5107 0.0
C464 C 0.08846 0.41298 0.45387 0.0
C465 C 0.08753 0.39758 0.48818 0.0
N466 N 0.09992 0.43459 0.46797 0.0
N467 N 0.09847 0.40969 0.52355 0.0
H468 H 0.11137 0.44591 0.5341 0.0
H469 H 0.07974 0.40894 0.42216 0.0
C470 C 0.11579 0.43968 0.36378 0.0
O471 O 0.12779 0.42996 0.3898 0.0
N472 N 0.09847 0.49238 0.41508 0.0
C473 C 0.1086 0.51387 0.43092 0.0
C474 C 0.1023 0.5295 0.40419 0.0
C475 C 0.08607 0.49504 0.37946 0.0
N476 N 0.08808 0.51759 0.37196 0.0
C477 C 0.14229 0.48028 0.49128 0.0
C478 C 0.17024 0.48648 0.41766 0.0
C479 C 0.17983 0.48451 0.45927 0.0
C480 C 0.166 0.48328 0.49688 0.0
C481 C 0.14653 0.48304 0.41384 0.0
N482 N 0.1326 0.47699 0.44992 0.0
H483 H 0.1317 0.47979 0.52005 0.0
H484 H 0.13931 0.48406 0.38138 0.0
H485 H 0.11946 0.51785 0.46024 0.0
H486 H 0.07511 0.48066 0.36059 0.0
O487 O 0.08691 0.47268 0.49519 0.0
O488 O 0.06652 0.45281 0.43898 0.0
O489 O 0.10408 0.45235 0.37981 0.0
C490 C 0.06667 0.46249 0.47747 0.0
H491 H 0.07838 0.37925 0.48802 0.0
H492 H 0.10766 0.54815 0.40842 0.0
H493 H 0.18068 0.48903 0.38801 0.0
H494 H 0.17301 0.48301 0.52992 0.0
Co495 Co 0.07733 0.10322 0.93497 0.0
C496 C 0.10548 0.10292 0.01524 0.0
C497 C 0.12749 0.11949 0.96249 0.0
C498 C 0.14049 0.12213 1.00106 0.0
N499 N 0.10525 0.10801 0.97162 0.0
N500 N 0.12651 0.11165 0.03402 0.0
H501 H 0.09021 0.09465 0.03418 0.0
H502 H 0.13408 0.12609 0.93066 0.0
C503 C 0.10831 0.13408 0.86563 0.0
O504 O 0.11441 0.15222 0.89219 0.0
N505 N 0.04925 0.09776 0.90025 0.0
C506 C 0.02966 0.10209 0.91388 0.0
C507 C 0.01196 0.09113 0.88566 0.0
C508 C 0.04315 0.08393 0.86426 0.0
N509 N 0.02034 0.0794 0.85486 0.0
C510 C 0.07631 0.14075 0.99405 0.0
C511 C 0.06711 0.16922 0.92936 0.0
C512 C 0.06975 0.1771 0.97338 0.0
C513 C 0.07408 0.16243 1.00609 0.0
C514 C 0.06957 0.14756 0.9188 0.0
N515 N 0.075 0.1339 0.95065 0.0
H516 H 0.07865 0.12938 0.01988 0.0
H517 H 0.06709 0.14172 0.88471 0.0
H518 H 0.02807 0.11144 0.94385 0.0
H519 H 0.05473 0.07583 0.84774 0.0
O520 O 0.05857 0.08521 0.9814 0.0
O521 O 0.07567 0.07115 0.92744 0.0
O522 O 0.09562 0.11452 0.87932 0.0
C523 C 0.0617 0.06721 0.96099 0.0
H524 H 0.15862 0.13157 1.00486 0.0
H525 H -0.00591 0.09108 0.88879 0.0
H526 H 0.06289 0.17961 0.90321 0.0
H527 H 0.07585 0.16766 0.04063 0.0
C528 C 0.95552 0.95625 0.48698 0.0
C529 C 0.93436 0.96122 0.49139 0.0
C530 C 0.97597 0.97402 0.47912 0.0
C531 C 0.97521 -0.00271 0.47744 0.0
C532 C 0.95373 0.00227 0.48055 0.0
C533 C 0.93347 0.98408 0.48681 0.0
C534 C -0.00154 0.96798 0.47419 0.0
C535 C 0.95231 0.02689 0.47981 0.0
C536 C 0.03124 0.04307 0.50805 0.0
C537 C 0.03903 0.05182 0.46636 0.0
C538 C 0.00997 0.02585 0.51235 0.0
C539 C -0.00303 0.0165 0.47376 0.0
C540 C 0.00495 0.02525 0.4316 0.0
C541 C 0.02561 0.0432 0.42856 0.0
C542 C 0.00161 0.01739 0.558 0.0
C543 C 0.99219 0.01506 0.38956 0.0
H544 H 0.95616 0.93855 0.49083 0.0
H545 H 0.91715 0.98798 0.4912 0.0
H546 H 0.00761 0.97608 0.44394 0.0
H547 H 0.00996 0.97495 0.50292 0.0
H548 H -0.00425 0.94896 0.47219 0.0
H549 H 0.93417 0.02775 0.48118 0.0
H550 H 0.96201 0.03666 0.50858 0.0
H551 H 0.96047 0.03578 0.44942 0.0
H552 H 0.04177 0.04965 0.53713 0.0
H553 H 0.03187 0.04965 0.39615 0.0
H554 H 0.00119 -0.00105 0.56146 0.0
H555 H 0.98368 0.01836 0.56287 0.0
H556 H 0.01285 0.02763 0.58467 0.0
H557 H 0.99109 -0.00362 0.38705 0.0
H558 H 0.00082 0.02386 0.35936 0.0
H559 H 0.97421 0.01632 0.39026 0.0
C560 C 0.45093 0.02718 0.9743 0.0
C561 C 0.46008 0.0462 1.00274 0.0
C562 C 0.45565 0.00602 0.98105 0.0
C563 C 0.46947 0.00364 0.01766 0.0
C564 C 0.47721 0.02214 0.04852 0.0
C565 C 0.47261 0.04336 0.04045 0.0
C566 C 0.44706 0.98671 0.94744 0.0
C567 C 0.49132 0.01989 0.08881 0.0
C568 C 0.47198 0.94332 0.04798 0.0
C569 C 0.49355 0.94345 0.03097 0.0
C570 C 0.46381 0.96279 0.04397 0.0
C571 C 0.47739 0.98254 0.02142 0.0
C572 C 0.49875 0.98225 1.00236 0.0
C573 C 0.50683 0.96282 0.00826 0.0
C574 C 0.44135 0.96263 0.066 0.0
C575 C 0.51339 0.00273 0.97689 0.0
H576 H 0.44111 0.02916 0.94514 0.0
H577 H 0.47962 0.05795 0.06263 0.0
H578 H 0.46203 0.98367 0.92979 0.0
H579 H 0.4379 0.97033 0.96421 0.0
H580 H 0.43517 0.99075 0.92254 0.0
H581 H 0.49385 0.03484 0.11195 0.0
H582 H 0.48277 0.00371 0.10686 0.0
H583 H 0.50857 0.01877 0.07831 0.0
H584 H 0.46215 0.92851 0.06684 0.0
H585 H 0.52374 0.96294 0.9961 0.0
H586 H 0.43136 0.94494 0.07648 0.0
H587 H 0.43036 0.96955 0.04354 0.0
H588 H 0.44515 0.97399 0.09584 0.0
H589 H 0.52885 -0.00082 0.96206 0.0
H590 H 0.51928 0.01801 0.99926 0.0
H591 H 0.50299 0.00741 0.94996 0.0
C592 C 0.52546 0.5346 0.50039 0.0
C593 C 0.54729 0.53114 0.50513 0.0
C594 C 0.50568 0.51564 0.49423 0.0
C595 C 0.50786 0.49282 0.49511 0.0
C596 C 0.52993 0.48934 0.49995 0.0
C597 C 0.54945 0.50859 0.50385 0.0
C598 C 0.48246 0.51998 0.48753 0.0
C599 C 0.53283 0.4653 0.50293 0.0
C600 C 0.45321 0.44508 0.52253 0.0
C601 C 0.44665 0.43533 0.48058 0.0
C602 C 0.47372 0.46326 0.52817 0.0
C603 C 0.4871 0.47253 0.49053 0.0
C604 C 0.48054 0.46256 0.4482 0.0
C605 C 0.46068 0.44372 0.44394 0.0
C606 C 0.48066 0.47296 0.57409 0.0
C607 C 0.49382 0.47248 0.40705 0.0
H608 H 0.52385 0.55206 0.50197 0.0
H609 H 0.56631 0.50589 0.50866 0.0
H610 H 0.4738 0.51073 0.45737 0.0
H611 H 0.4711 0.51308 0.51604 0.0
H612 H 0.484 0.53872 0.48422 0.0
H613 H 0.55122 0.46563 0.5074 0.0
H614 H 0.52275 0.45599 0.5313 0.0
H615 H 0.52594 0.45518 0.47252 0.0
H616 H 0.44214 0.43874 0.55066 0.0
H617 H 0.4553 0.43658 0.41123 0.0
H618 H 0.47774 0.49026 0.57717 0.0
H619 H 0.49936 0.47528 0.58013 0.0
H620 H 0.47057 0.46158 0.60024 0.0
H621 H 0.49381 0.49079 0.40299 0.0
H622 H 0.48633 0.46267 0.37656 0.0
H623 H 0.51213 0.47244 0.41027 0.0
C624 C 0.95915 0.51261 0.99371 0.0
C625 C 0.97028 0.53608 1.00187 0.0
C626 C 0.97175 0.49745 0.98056 0.0
C627 C -0.00383 0.50584 0.97754 0.0
C628 C 0.0074 0.52973 0.98462 0.0
C629 C -0.00579 0.54469 0.99601 0.0
C630 C 0.95892 0.47228 0.97214 0.0
C631 C 0.03343 0.53921 0.98315 0.0
C632 C 0.02775 0.46039 0.99668 0.0
C633 C 0.03463 0.4568 0.95369 0.0
C634 C 0.01595 0.47696 1.00512 0.0
C635 C 0.00998 0.48936 0.96936 0.0
C636 C 0.01664 0.4855 0.92578 0.0
C637 C 0.02948 0.46976 0.91868 0.0
C638 C 0.00979 0.4811 0.05226 0.0
C639 C 0.00981 0.49758 0.88649 0.0
H640 H 0.94063 0.50599 0.99871 0.0
H641 H 0.00281 0.56277 1.00344 0.0
H642 H 0.96669 0.46504 0.94438 0.0
H643 H 0.95995 0.4621 1.00219 0.0
H644 H 0.94034 0.46991 0.96445 0.0
H645 H 0.04124 0.53106 0.00959 0.0
H646 H 0.04003 0.53482 0.95104 0.0
H647 H 0.03941 0.55832 0.98787 0.0
H648 H 0.03186 0.45046 0.02376 0.0
H649 H 0.0348 0.46703 0.88535 0.0
H650 H 0.99072 0.47524 0.05618 0.0
H651 H 0.01569 0.49991 0.06029 0.0
H652 H 0.01762 0.47173 0.07658 0.0
H653 H 0.99114 0.49652 0.8879 0.0
H654 H 0.0132 0.49 0.85447 0.0
H655 H 0.01971 0.51621 0.88724 0.0
C656 C 0.53609 0.98981 0.5027 0.0
C657 C 0.52692 0.96665 0.51521 0.0
C658 C 0.52145 0.00361 0.49344 0.0
C659 C 0.49713 0.99376 0.49568 0.0
C660 C 0.48784 0.96995 0.50546 0.0
C661 C 0.50288 0.95675 0.51582 0.0
C662 C 0.532 0.02902 0.48367 0.0
C663 C 0.46202 0.95861 0.50657 0.0
C664 C 0.45951 0.03346 0.51936 0.0
C665 C 0.45312 0.03786 0.47648 0.0
C666 C 0.47406 0.01922 0.52614 0.0
C667 C 0.48147 0.00856 0.48919 0.0
C668 C 0.47417 0.01231 0.44598 0.0
C669 C 0.46049 0.02731 0.44014 0.0
C670 C 0.48188 0.01596 0.57264 0.0
C671 C 0.48082 0.00056 0.4059 0.0
H672 H 0.55469 -0.00244 0.50301 0.0
H673 H 0.49583 0.93881 0.52561 0.0
H674 H 0.52522 0.03351 0.45177 0.0
H675 H 0.52708 0.03966 0.5099 0.0
H676 H 0.55119 0.03384 0.48197 0.0
H677 H 0.45767 0.9395 0.51038 0.0
H678 H 0.4544 0.96577 0.53466 0.0
H679 H 0.45375 0.96242 0.47572 0.0
H680 H 0.45375 0.04169 0.5473 0.0
H681 H 0.45525 0.03055 0.40696 0.0
H682 H 0.50108 0.02172 0.57462 0.0
H683 H 0.47618 -0.00268 0.58138 0.0
H684 H 0.47497 0.02581 0.59759 0.0
H685 H 0.4998 0.00691 0.40094 0.0
H686 H 0.47203 0.00379 0.37515 0.0
H687 H 0.47635 0.98156 0.41108 0.0
C688 C 0.53777 0.52893 0.98829 0.0
C689 C 0.53236 0.54992 0.99262 0.0
C690 C 0.52026 0.50815 0.98028 0.0
C691 C 0.49685 0.5084 0.97867 0.0
C692 C 0.49144 0.52968 0.98176 0.0
C693 C 0.50933 0.55026 0.98778 0.0
C694 C 0.52672 0.48584 0.97524 0.0
C695 C 0.46667 0.53059 0.98146 0.0
C696 C 0.45069 0.45692 0.93147 0.0
C697 C 0.44294 0.44388 0.96964 0.0
C698 C 0.46839 0.47785 0.93382 0.0
C699 C 0.47792 0.48635 0.97562 0.0
C700 C 0.46937 0.47378 0.01457 0.0
C701 C 0.4523 0.45233 0.01098 0.0
C702 C 0.47765 0.49018 0.89138 0.0
C703 C 0.4786 0.48273 0.05989 0.0
H704 H 0.55557 0.52869 0.99235 0.0
H705 H 0.50504 0.56643 0.992 0.0
H706 H 0.52062 0.47467 1.00438 0.0
H707 H 0.51814 0.47613 0.94546 0.0
H708 H 0.54573 0.48896 0.97234 0.0
H709 H 0.46545 0.54864 0.98288 0.0
H710 H 0.45752 0.522 0.95121 0.0
H711 H 0.45744 0.52101 0.01041 0.0
H712 H 0.44386 0.45009 0.89929 0.0
H713 H 0.44644 0.44207 0.04034 0.0
H714 H 0.49553 0.48918 0.88595 0.0
H715 H 0.47855 0.5088 0.89356 0.0
H716 H 0.4669 0.48244 0.86207 0.0
H717 H 0.49683 0.48244 0.06327 0.0
H718 H 0.46838 0.47223 0.08695 0.0
H719 H 0.47843 0.50099 0.06412 0.0
C720 C 0.94409 0.47422 0.56077 0.0
C721 C 0.93956 0.49124 0.53379 0.0
C722 C 0.96434 0.46756 0.55554 0.0
C723 C 0.98027 0.4782 0.52235 0.0
C724 C 0.97528 0.49489 0.49398 0.0
C725 C 0.95498 0.5014 0.50038 0.0
C726 C 0.96907 0.44979 0.58646 0.0
C727 C 0.9917 0.50632 0.45773 0.0
C728 C 0.04387 0.48075 0.52769 0.0
C729 C 0.04458 0.46378 0.49631 0.0
C730 C 0.02274 0.48492 0.53832 0.0
C731 C 0.0021 0.47184 0.51683 0.0
C732 C 0.00261 0.45368 0.48743 0.0
C733 C 0.02383 0.4498 0.47772 0.0
C734 C 0.02269 0.50412 0.57064 0.0
C735 C 0.98099 0.43927 0.46402 0.0
H736 H 0.93218 0.46676 0.58711 0.0
H737 H 0.95152 0.51495 0.48036 0.0
H738 H 0.97261 0.43544 0.56726 0.0
H739 H 0.98475 0.45791 0.60671 0.0
H740 H 0.95438 0.44236 0.60908 0.0
H741 H 0.00857 0.51624 0.47246 0.0
H742 H -0.00497 0.49296 0.43539 0.0
H743 H 0.98487 0.51833 0.43763 0.0
H744 H 0.05988 0.49158 0.54209 0.0
H745 H 0.02426 0.43644 0.45377 0.0
H746 H 0.0091 0.49781 0.59595 0.0
H747 H 0.01857 0.5185 0.55274 0.0
H748 H 0.03967 0.51108 0.58771 0.0
H749 H 0.98401 0.42451 0.44521 0.0
H750 H 0.9748 0.45034 0.44052 0.0
H751 H 0.96694 0.43236 0.48815 0.0
C752 C 0.97776 0.93846 0.98962 0.0
C753 C 0.95504 0.93951 0.99527 0.0
C754 C -0.00403 0.95869 0.98311 0.0
C755 C 0.99116 0.98031 0.98087 0.0
C756 C 0.96802 0.98125 0.98391 0.0
C757 C 0.95024 0.96083 0.99192 0.0
C758 C 0.02046 0.95705 0.98096 0.0
C759 C 0.96215 0.00391 0.98007 0.0
C760 C 0.03765 0.03617 0.00961 0.0
C761 C 0.04574 0.04394 0.96751 0.0
C762 C 0.02041 0.01496 0.01461 0.0
C763 C 0.0104 0.002 0.9764 0.0
C764 C 0.0185 0.00995 0.93383 0.0
C765 C 0.03645 0.03057 0.93001 0.0
C766 C 0.01265 0.00663 0.06064 0.0
C767 C 0.00762 -0.0028 0.89223 0.0
H768 H 0.98154 0.92201 0.99316 0.0
H769 H 0.93267 0.96159 0.99658 0.0
H770 H 0.02891 0.96512 0.95013 0.0
H771 H 0.0307 0.96678 0.00924 0.0
H772 H 0.02119 0.93884 0.98211 0.0
H773 H 0.94316 0.00137 0.97922 0.0
H774 H 0.96963 0.01531 0.00867 0.0
H775 H 0.96983 0.01313 0.94958 0.0
H776 H 0.04477 0.04668 0.03846 0.0
H777 H 0.04238 0.03686 0.89732 0.0
H778 H 0.01355 0.98862 0.06511 0.0
H779 H -0.00565 0.00636 0.06528 0.0
H780 H 0.02336 0.01783 0.08685 0.0
H781 H 0.00894 0.97921 0.89243 0.0
H782 H 0.01587 0.00587 0.86162 0.0
H783 H 0.98893 0.99605 0.891 0.0
C784 C 0.15238 0.11742 0.29584 0.0
C785 C 0.13212 0.11855 0.31708 0.0
C786 C 0.15378 0.11745 0.24931 0.0
C787 C 0.13468 0.11929 0.22354 0.0
C788 C 0.11469 0.12177 0.24503 0.0
C789 C 0.11351 0.12098 0.29148 0.0
C790 C 0.17514 0.11414 0.22779 0.0
C791 C 0.09418 0.12442 0.21892 0.0
C792 C 0.14202 0.13458 0.10103 0.0
C793 C 0.13125 0.11312 0.08091 0.0
C794 C 0.14367 0.13685 0.14746 0.0
C795 C 0.13484 0.11705 0.17424 0.0
C796 C 0.12491 0.09514 0.15382 0.0
C797 C 0.12292 0.09354 0.10744 0.0
C798 C 0.15375 0.16059 0.16784 0.0
C799 C 0.11577 0.07348 0.18099 0.0
H800 H 0.16666 0.11514 0.31551 0.0
H801 H 0.09781 0.12183 0.30785 0.0
H802 H 0.17059 0.09719 0.21014 0.0
H803 H 0.18196 0.12777 0.20276 0.0
H804 H 0.18907 0.11455 0.2523 0.0
H805 H 0.08116 0.12881 0.2405 0.0
H806 H 0.09993 0.13818 0.19369 0.0
H807 H 0.08566 0.10801 0.20106 0.0
H808 H 0.14805 0.14978 0.08045 0.0
H809 H 0.11456 0.07699 0.0917 0.0
H810 H 0.16757 0.16036 0.19208 0.0
H811 H 0.14006 0.16568 0.18619 0.0
H812 H 0.16106 0.17399 0.14254 0.0
H813 H 0.12903 0.07186 0.20542 0.0
H814 H 0.11071 0.05755 0.16005 0.0
H815 H 0.10039 0.07456 0.19988 0.0
C816 C 0.4273 0.13817 0.81012 0.0
C817 C 0.44066 0.12549 0.83069 0.0
C818 C 0.42592 0.13923 0.76349 0.0
C819 C 0.43814 0.12731 0.73677 0.0
C820 C 0.45192 0.11482 0.75742 0.0
C821 C 0.45302 0.1141 0.80384 0.0
C822 C 0.41106 0.15275 0.7428 0.0
C823 C 0.46518 0.10176 0.73046 0.0
C824 C 0.41737 0.10568 0.62086 0.0
C825 C 0.43351 0.12107 0.59377 0.0
C826 C 0.41815 0.10811 0.66718 0.0
C827 C 0.43549 0.12644 0.68736 0.0
C828 C 0.4513 0.14262 0.6602 0.0
C829 C 0.45008 0.13979 0.6137 0.0
C830 C 0.40087 0.09048 0.69461 0.0
C831 C 0.47003 0.16243 0.68032 0.0
H832 H 0.41776 0.14711 0.83039 0.0
H833 H 0.46354 0.10434 0.81906 0.0
H834 H 0.4213 0.1654 0.71873 0.0
H835 H 0.39652 0.14078 0.72416 0.0
H836 H 0.4038 0.16223 0.76791 0.0
H837 H 0.47555 0.09336 0.75156 0.0
H838 H 0.45298 0.08816 0.71013 0.0
H839 H 0.47701 0.11371 0.70733 0.0
H840 H 0.40411 0.09153 0.60576 0.0
H841 H 0.46257 0.15174 0.59305 0.0
H842 H 0.39208 0.09933 0.71811 0.0
H843 H 0.41001 0.08037 0.71456 0.0
H844 H 0.38751 0.07821 0.67383 0.0
H845 H 0.4625 0.17208 0.70458 0.0
H846 H 0.47955 0.17471 0.65487 0.0
H847 H 0.48258 0.1555 0.6986 0.0
C848 C 0.37621 0.36773 0.29623 0.0
C849 C 0.35712 0.36992 0.32025 0.0
C850 C 0.37552 0.36615 0.24973 0.0
C851 C 0.35551 0.36757 0.22643 0.0
C852 C 0.33595 0.36923 0.25062 0.0
C853 C 0.33688 0.37007 0.29729 0.0
C854 C 0.39655 0.36375 0.2255 0.0
C855 C 0.31452 0.37142 0.22718 0.0
C856 C 0.36788 0.39121 0.10951 0.0
C857 C 0.36046 0.37105 0.08352 0.0
C858 C 0.36534 0.39045 0.15582 0.0
C859 C 0.35578 0.36885 0.17689 0.0
C860 C 0.34787 0.34846 0.15063 0.0
C861 C 0.35004 0.34986 0.1042 0.0
C862 C 0.3735 0.41272 0.18227 0.0
C863 C 0.33819 0.32502 0.17168 0.0
H864 H 0.3919 0.36766 0.31388 0.0
H865 H 0.32223 0.37218 0.3157 0.0
H866 H 0.39145 0.34942 0.20081 0.0
H867 H 0.40472 0.37992 0.20717 0.0
H868 H 0.40967 0.36035 0.24841 0.0
H869 H 0.30025 0.371 0.25057 0.0
H870 H 0.31874 0.38803 0.20889 0.0
H871 H 0.30832 0.35726 0.20245 0.0
H872 H 0.37589 0.40758 0.09345 0.0
H873 H 0.34465 0.33421 0.08415 0.0
H874 H 0.38876 0.41252 0.20278 0.0
H875 H 0.35973 0.41436 0.2052 0.0
H876 H 0.37841 0.42824 0.16071 0.0
H877 H 0.35191 0.32078 0.19167 0.0
H878 H 0.33156 0.31104 0.14667 0.0
H879 H 0.32395 0.32527 0.19457 0.0
C880 C 0.07786 0.39111 0.58988 0.0
C881 C 0.0986 0.4024 0.5688 0.0
C882 C 0.07712 0.38829 0.63614 0.0
C883 C 0.09775 0.39655 0.66162 0.0
C884 C 0.11897 0.4067 0.63996 0.0
C885 C 0.11906 0.4098 0.59388 0.0
C886 C 0.05407 0.37772 0.65796 0.0
C887 C 0.14142 0.4152 0.66561 0.0
C888 C 0.09037 0.41351 0.7811 0.0
C889 C 0.09012 0.39317 0.80371 0.0
C890 C 0.0934 0.41503 0.73496 0.0
C891 C 0.09679 0.39595 0.71102 0.0
C892 C 0.09805 0.37597 0.73416 0.0
C893 C 0.0944 0.3747 0.78014 0.0
C894 C 0.09162 0.43655 0.71153 0.0
C895 C 0.10229 0.35554 0.71012 0.0
H896 H 0.06201 0.38584 0.57047 0.0
H897 H 0.13504 0.41867 0.57735 0.0
H898 H 0.05499 0.36316 0.67954 0.0
H899 H 0.04971 0.39088 0.67939 0.0
H900 H 0.03986 0.37119 0.63339 0.0
H901 H 0.15667 0.42016 0.64346 0.0
H902 H 0.14122 0.43053 0.68595 0.0
H903 H 0.14347 0.40162 0.68864 0.0
H904 H 0.08671 0.42769 0.79901 0.0
H905 H 0.09419 0.35893 0.79751 0.0
H906 H 0.07634 0.43202 0.689 0.0
H907 H 0.10712 0.44379 0.69084 0.0
H908 H 0.08989 0.4502 0.73505 0.0
H909 H 0.08708 0.34703 0.68897 0.0
H910 H 0.10536 0.34247 0.73335 0.0
H911 H 0.11746 0.36141 0.68799 0.0
C912 C 0.57804 0.88737 0.71773 0.0
C913 C 0.56627 0.90141 0.69668 0.0
C914 C 0.5777 0.88512 0.76419 0.0
C915 C 0.56541 0.89728 0.79009 0.0
C916 C 0.55309 0.91102 0.76888 0.0
C917 C 0.55355 0.91279 0.72261 0.0
C918 C 0.59089 0.87016 0.78564 0.0
C919 C 0.53975 0.92431 0.79512 0.0
C920 C 0.54542 0.88031 0.90733 0.0
C921 C 0.56125 0.89739 0.93263 0.0
C922 C 0.54725 0.87933 0.86107 0.0
C923 C 0.56533 0.89591 0.83942 0.0
C924 C 0.58198 0.91259 0.86492 0.0
C925 C 0.57978 0.91308 0.91127 0.0
C926 C 0.52925 0.86116 0.83525 0.0
C927 C 0.60144 0.93065 0.84308 0.0
H928 H 0.58797 0.87858 0.69807 0.0
H929 H 0.54425 0.92357 0.70682 0.0
H930 H 0.60491 0.88103 0.80703 0.0
H931 H 0.57925 0.8571 0.80725 0.0
H932 H 0.5987 0.861 0.76084 0.0
H933 H 0.53112 0.93427 0.77354 0.0
H934 H 0.52638 0.91219 0.81541 0.0
H935 H 0.55161 0.93662 0.81826 0.0
H936 H 0.53133 0.86786 0.92378 0.0
H937 H 0.592 0.92636 0.93059 0.0
H938 H 0.53769 0.85199 0.81171 0.0
H939 H 0.51846 0.86962 0.81543 0.0
H940 H 0.51769 0.84817 0.85721 0.0
H941 H 0.6107 0.92232 0.81952 0.0
H942 H 0.61411 0.941 0.8676 0.0
H943 H 0.59423 0.94262 0.82374 0.0
C944 C 0.62179 0.63992 0.19665 0.0
C945 C 0.60573 0.62074 0.17684 0.0
C946 C 0.62471 0.64155 0.24297 0.0
C947 C 0.6111 0.62371 0.27005 0.0
C948 C 0.59525 0.6041 0.25016 0.0
C949 C 0.59289 0.60279 0.20393 0.0
C950 C 0.642 0.66257 0.263 0.0
C951 C 0.58032 0.5847 0.27776 0.0
C952 C 0.62736 0.61319 0.3879 0.0
C953 C 0.61205 0.62194 0.41253 0.0
C954 C 0.6282 0.61484 0.34159 0.0
C955 C 0.61317 0.62532 0.31925 0.0
C956 C 0.59848 0.63525 0.34409 0.0
C957 C 0.5982 0.63356 0.39056 0.0
C958 C 0.64432 0.6043 0.31649 0.0
C959 C 0.58211 0.64646 0.32147 0.0
H960 H 0.63176 0.65388 0.17605 0.0
H961 H 0.58038 0.58791 0.18913 0.0
H962 H 0.63285 0.67239 0.28366 0.0
H963 H 0.65423 0.65713 0.28507 0.0
H964 H 0.65207 0.67434 0.23737 0.0
H965 H 0.56896 0.57057 0.25712 0.0
H966 H 0.59136 0.57722 0.29904 0.0
H967 H 0.56924 0.59159 0.30002 0.0
H968 H 0.63831 0.60449 0.40499 0.0
H969 H 0.58626 0.6402 0.40951 0.0
H970 H 0.65428 0.61669 0.29172 0.0
H971 H 0.63405 0.58866 0.29815 0.0
H972 H 0.65668 0.59918 0.33884 0.0
H973 H 0.5915 0.65933 0.2969 0.0
H974 H 0.57345 0.65524 0.34542 0.0
H975 H 0.5686 0.63305 0.30315 0.0
C976 C 0.87186 0.53934 0.9055 0.0
C977 C 0.88468 0.55959 0.9274 0.0
C978 C 0.86891 0.53889 0.85919 0.0
C979 C 0.87891 0.55921 0.83438 0.0
C980 C 0.8904 0.58008 0.85679 0.0
C981 C 0.89316 0.57999 0.90297 0.0
C982 C 0.85648 0.51629 0.83656 0.0
C983 C 0.90116 0.60217 0.83181 0.0
C984 C 0.89972 0.54961 0.71948 0.0
C985 C 0.882 0.55279 0.69212 0.0
C986 C 0.89902 0.55205 0.76559 0.0
C987 C 0.88014 0.55787 0.78514 0.0
C988 C 0.8626 0.56199 0.75771 0.0
C989 C 0.86375 0.55942 0.71141 0.0
C990 C 0.91823 0.54772 0.79349 0.0
C991 C 0.84225 0.56829 0.77734 0.0
H992 H 0.86535 0.52352 0.9242 0.0
H993 H 0.90273 0.59577 0.91996 0.0
H994 H 0.8438 0.51896 0.81188 0.0
H995 H 0.86919 0.50957 0.81843 0.0
H996 H 0.84725 0.50293 0.86054 0.0
H997 H 0.90671 0.61749 0.85426 0.0
H998 H 0.91655 0.60051 0.81362 0.0
H999 H 0.88881 0.6053 0.80693 0.0
H1000 H 0.91395 0.54457 0.70488 0.0
H1001 H 0.84988 0.56171 0.69057 0.0
H1002 H 0.91105 0.53283 0.8158 0.0
H1003 H 0.92626 0.56307 0.81471 0.0
H1004 H 0.93197 0.5439 0.77305 0.0
H1005 H 0.83168 0.55355 0.79699 0.0
H1006 H 0.831 0.57262 0.75149 0.0
H1007 H 0.84833 0.58331 0.80029 0.0
C1008 C 0.85751 0.85232 0.18702 0.0
C1009 C 0.87371 0.87134 0.16793 0.0
C1010 C 0.85417 0.85112 0.23317 0.0
C1011 C 0.86745 0.86928 0.26072 0.0
C1012 C 0.88318 0.88889 0.24144 0.0
C1013 C 0.886 0.88973 0.1954 0.0
C1014 C 0.83704 0.83008 0.25255 0.0
C1015 C 0.89773 0.90866 0.26956 0.0
C1016 C 0.85217 0.88001 0.379 0.0
C1017 C 0.86805 0.87174 0.40315 0.0
C1018 C 0.85074 0.87804 0.33266 0.0
C1019 C 0.86573 0.86773 0.30987 0.0
C1020 C 0.88096 0.85825 0.33424 0.0
C1021 C 0.88186 0.86027 0.38067 0.0
C1022 C 0.83406 0.88809 0.30802 0.0
C1023 C 0.89733 0.84724 0.31116 0.0
H1024 H 0.84796 0.83802 0.16613 0.0
H1025 H 0.89851 0.90458 0.1811 0.0
H1026 H 0.8464 0.82009 0.27226 0.0
H1027 H 0.82513 0.83544 0.27538 0.0
H1028 H 0.82661 0.81848 0.22655 0.0
H1029 H 0.90883 0.92286 0.2493 0.0
H1030 H 0.88644 0.91592 0.29054 0.0
H1031 H 0.90905 0.90219 0.2921 0.0
H1032 H 0.84123 0.88856 0.39644 0.0
H1033 H 0.89425 0.854 0.39916 0.0
H1034 H 0.82416 0.87556 0.28286 0.0
H1035 H 0.84386 0.90389 0.29017 0.0
H1036 H 0.82165 0.89284 0.33063 0.0
H1037 H 0.88782 0.83416 0.28651 0.0
H1038 H 0.90642 0.83873 0.3348 0.0
H1039 H 0.91049 0.86071 0.29289 0.0
C1040 C 0.85506 0.88789 0.88039 0.0
C1041 C 0.86686 0.87429 0.90262 0.0
C1042 C 0.85336 0.88743 0.83391 0.0
C1043 C 0.86356 0.87288 0.80921 0.0
C1044 C 0.87432 0.85814 0.83167 0.0
C1045 C 0.8759 0.85909 0.87807 0.0
C1046 C 0.84183 0.90349 0.81118 0.0
C1047 C 0.88516 0.84219 0.80665 0.0
C1048 C 0.84857 0.86462 0.68623 0.0
C1049 C 0.86724 0.88134 0.66735 0.0
C1050 C 0.84734 0.86119 0.73235 0.0
C1051 C 0.86512 0.87491 0.76011 0.0
C1052 C 0.88436 0.89126 0.74107 0.0
C1053 C 0.88524 0.89417 0.69504 0.0
C1054 C 0.82669 0.84342 0.75147 0.0
C1055 C 0.90372 0.90628 0.76943 0.0
H1056 H 0.84818 0.89976 0.89917 0.0
H1057 H 0.88471 0.84829 0.89526 0.0
H1058 H 0.85503 0.91708 0.79325 0.0
H1059 H 0.82902 0.89382 0.78628 0.0
H1060 H 0.83293 0.91209 0.835 0.0
H1061 H 0.89048 0.83 0.82896 0.0
H1062 H 0.87292 0.83202 0.78136 0.0
H1063 H 0.9007 0.85264 0.78889 0.0
H1064 H 0.83457 0.85465 0.66517 0.0
H1065 H 0.8998 0.90712 0.68092 0.0
H1066 H 0.81641 0.85227 0.77166 0.0
H1067 H 0.83248 0.83157 0.7738 0.0
H1068 H 0.81526 0.83294 0.72531 0.0
H1069 H 0.89674 0.91715 0.79214 0.0
H1070 H 0.91765 0.91789 0.74936 0.0
H1071 H 0.91143 0.89527 0.79027 0.0
C1072 C 0.57683 0.89367 0.41018 0.0
C1073 C 0.55628 0.88436 0.43363 0.0
C1074 C 0.5774 0.89197 0.36388 0.0
C1075 C 0.55685 0.88073 0.34034 0.0
C1076 C 0.53639 0.86991 0.36404 0.0
C1077 C 0.53636 0.8718 0.41053 0.0
C1078 C 0.59963 0.90354 0.34006 0.0
C1079 C 0.51411 0.85772 0.34016 0.0
C1080 C 0.54861 0.90375 0.22658 0.0
C1081 C 0.55242 0.88667 0.19827 0.0
C1082 C 0.55029 0.90209 0.2727 0.0
C1083 C 0.55603 0.8829 0.29123 0.0
C1084 C 0.56072 0.86598 0.26291 0.0
C1085 C 0.55887 0.86806 0.21669 0.0
C1086 C 0.54526 0.9206 0.30163 0.0
C1087 C 0.56698 0.84533 0.28145 0.0
H1088 H 0.59233 0.9031 0.42814 0.0
H1089 H 0.52043 0.86468 0.42852 0.0
H1090 H 0.60323 0.89177 0.31448 0.0
H1091 H 0.5979 0.9192 0.32284 0.0
H1092 H 0.61468 0.90889 0.36315 0.0
H1093 H 0.50061 0.84784 0.36321 0.0
H1094 H 0.50741 0.87072 0.32289 0.0
H1095 H 0.51718 0.84565 0.31461 0.0
H1096 H 0.54364 0.91821 0.21272 0.0
H1097 H 0.56163 0.85466 0.19514 0.0
H1098 H 0.5603 0.92851 0.32361 0.0
H1099 H 0.53025 0.91275 0.3232 0.0
H1100 H 0.54133 0.93457 0.28197 0.0
H1101 H 0.5819 0.85115 0.30465 0.0
H1102 H 0.57142 0.83444 0.25504 0.0
H1103 H 0.55222 0.83445 0.30061 0.0
C1104 C 0.632 0.60831 0.89068 0.0
C1105 C 0.61946 0.6214 0.91234 0.0
C1106 C 0.63385 0.60858 0.84427 0.0
C1107 C 0.6231 0.62245 0.81908 0.0
C1108 C 0.61172 0.63684 0.84108 0.0
C1109 C 0.60995 0.63603 0.88741 0.0
C1110 C 0.64601 0.59287 0.82207 0.0
C1111 C 0.60029 0.6521 0.81558 0.0
C1112 C 0.63689 0.62972 0.69592 0.0
C1113 C 0.61825 0.61255 0.67718 0.0
C1114 C 0.63854 0.63355 0.74205 0.0
C1115 C 0.62127 0.61974 0.76999 0.0
C1116 C 0.60216 0.60279 0.75112 0.0
C1117 C 0.60081 0.59954 0.70509 0.0
C1118 C 0.65902 0.65196 0.76098 0.0
C1119 C 0.58339 0.58758 0.77965 0.0
H1120 H 0.63923 0.59685 0.90978 0.0
H1121 H 0.60052 0.6464 0.90422 0.0
H1122 H 0.63308 0.57863 0.80443 0.0
H1123 H 0.65838 0.60255 0.79702 0.0
H1124 H 0.65553 0.5851 0.84623 0.0
H1125 H 0.59481 0.66437 0.8376 0.0
H1126 H 0.6122 0.66215 0.79021 0.0
H1127 H 0.58477 0.64113 0.79792 0.0
H1128 H 0.65045 0.63983 0.67469 0.0
H1129 H 0.58631 0.58621 0.69114 0.0
H1130 H 0.66969 0.64374 0.78163 0.0
H1131 H 0.65303 0.66391 0.78286 0.0
H1132 H 0.67012 0.66226 0.73472 0.0
H1133 H 0.56963 0.57527 0.75973 0.0
H1134 H 0.57529 0.59846 0.80006 0.0
H1135 H 0.59101 0.57746 0.80274 0.0
C1136 C 0.88967 0.57961 0.21249 0.0
C1137 C 0.90518 0.56994 0.19052 0.0
C1138 C 0.88754 0.57848 0.25896 0.0
C1139 C 0.90124 0.56745 0.28402 0.0
C1140 C 0.91664 0.55737 0.26192 0.0
C1141 C 0.91838 0.5587 0.21563 0.0
C1142 C 0.87089 0.58938 0.28133 0.0
C1143 C 0.93155 0.54539 0.28721 0.0
C1144 C 0.91415 0.5804 0.40686 0.0
C1145 C 0.89923 0.56073 0.42655 0.0
C1146 C 0.91444 0.58326 0.36056 0.0
C1147 C 0.89942 0.56606 0.33332 0.0
C1148 C 0.88376 0.5466 0.35317 0.0
C1149 C 0.88382 0.54422 0.3994 0.0
C1150 C 0.93138 0.60428 0.34069 0.0
C1151 C 0.86742 0.52787 0.32547 0.0
H1152 H 0.8795 0.58844 0.19351 0.0
H1153 H 0.93045 0.55116 0.19918 0.0
H1154 H 0.85828 0.57625 0.30126 0.0
H1155 H 0.88048 0.60325 0.30449 0.0
H1156 H 0.86121 0.59698 0.25717 0.0
H1157 H 0.9423 0.53804 0.26496 0.0
H1158 H 0.94321 0.55784 0.31038 0.0
H1159 H 0.92053 0.53115 0.3074 0.0
H1160 H 0.92614 0.5932 0.42748 0.0
H1161 H 0.87185 0.52924 0.41436 0.0
H1162 H 0.92229 0.61309 0.3177 0.0
H1163 H 0.94443 0.5988 0.32106 0.0
H1164 H 0.94057 0.61694 0.36639 0.0
H1165 H 0.85718 0.53557 0.30275 0.0
H1166 H 0.8553 0.51462 0.34609 0.0
H1167 H 0.87751 0.51908 0.30465 0.0
C1168 C 0.4221 0.13378 0.11243 0.0
C1169 C 0.40869 0.11453 0.08833 0.0
C1170 C 0.42037 0.13516 0.15869 0.0
C1171 C 0.40481 0.1168 0.18169 0.0
C1172 C 0.39003 0.09807 0.15722 0.0
C1173 C 0.39212 0.09718 0.11078 0.0
C1174 C 0.43637 0.15553 0.18312 0.0
C1175 C 0.37311 0.07819 0.18032 0.0
C1176 C 0.42232 0.10324 0.29743 0.0
C1177 C 0.40818 0.11226 0.32479 0.0
C1178 C 0.42146 0.10482 0.25111 0.0
C1179 C 0.4061 0.11577 0.23116 0.0
C1180 C 0.3922 0.1255 0.25847 0.0
C1181 C 0.39341 0.12365 0.30497 0.0
C1182 C 0.43673 0.09429 0.22347 0.0
C1183 C 0.37563 0.13732 0.23852 0.0
H1184 H 0.43473 0.14737 0.09509 0.0
H1185 H 0.38181 0.0822 0.09245 0.0
H1186 H 0.42669 0.16254 0.20809 0.0
H1187 H 0.44979 0.14974 0.20112 0.0
H1188 H 0.44518 0.16971 0.16031 0.0
H1189 H 0.36089 0.06656 0.15666 0.0
H1190 H 0.38275 0.06783 0.19833 0.0
H1191 H 0.36302 0.08477 0.20517 0.0
H1192 H 0.43384 0.09442 0.31221 0.0
H1193 H 0.38226 0.13051 0.32566 0.0
H1194 H 0.44794 0.10769 0.20185 0.0
H1195 H 0.42587 0.0805 0.20155 0.0
H1196 H 0.44793 0.08663 0.24409 0.0
H1197 H 0.38495 0.15125 0.21577 0.0
H1198 H 0.36683 0.14497 0.26416 0.0
H1199 H 0.36227 0.12463 0.21855 0.0
C1200 C 0.39553 0.36592 0.78981 0.0
C1201 C 0.38173 0.34892 0.81762 0.0
C1202 C 0.39304 0.36437 0.74357 0.0
C1203 C 0.37593 0.34555 0.72416 0.0
C1204 C 0.36181 0.32831 0.75189 0.0
C1205 C 0.36505 0.33006 0.7983 0.0
C1206 C 0.40876 0.38301 0.7155 0.0
C1207 C 0.3431 0.30823 0.73256 0.0
C1208 C 0.35856 0.36026 0.60936 0.0
C1209 C 0.37187 0.35036 0.5819 0.0
C1210 C 0.35845 0.35742 0.65551 0.0
C1211 C 0.37245 0.34479 0.67496 0.0
C1212 C 0.38516 0.33386 0.64716 0.0
C1213 C 0.38452 0.33659 0.60083 0.0
C1214 C 0.34429 0.36902 0.68357 0.0
C1215 C 0.40061 0.32057 0.66646 0.0
H1216 H 0.40868 0.38041 0.80413 0.0
H1217 H 0.35433 0.31683 0.81945 0.0
H1218 H 0.41771 0.37508 0.69066 0.0
H1219 H 0.39836 0.39245 0.69705 0.0
H1220 H 0.42203 0.39579 0.7356 0.0
H1221 H 0.33385 0.29605 0.75841 0.0
H1222 H 0.33033 0.31482 0.7142 0.0
H1223 H 0.35066 0.29854 0.70845 0.0
H1224 H 0.34864 0.37077 0.59459 0.0
H1225 H 0.39496 0.32911 0.57961 0.0
H1226 H 0.356 0.38387 0.7019 0.0
H1227 H 0.33425 0.35676 0.70848 0.0
H1228 H 0.3321 0.37556 0.66331 0.0
H1229 H 0.41557 0.33282 0.68355 0.0
H1230 H 0.40728 0.31101 0.64061 0.0
H1231 H 0.39116 0.30806 0.69153 0.0
C1232 C 0.13081 0.44256 0.09756 0.0
C1233 C 0.10895 0.43151 0.07893 0.0
C1234 C 0.13436 0.44362 0.14381 0.0
C1235 C 0.11572 0.43317 0.17222 0.0
C1236 C 0.09386 0.42148 0.15378 0.0
C1237 C 0.0907 0.42099 0.10771 0.0
C1238 C 0.15787 0.45649 0.16233 0.0
C1239 C 0.07349 0.41002 0.18282 0.0
C1240 C 0.12428 0.42065 0.29389 0.0
C1241 C 0.11749 0.43844 0.31486 0.0
C1242 C 0.12457 0.41907 0.2473 0.0
C1243 C 0.11828 0.43589 0.2213 0.0
C1244 C 0.11235 0.45439 0.24245 0.0
C1245 C 0.11188 0.45534 0.2888 0.0
C1246 C 0.13068 0.39891 0.22593 0.0
C1247 C 0.1057 0.47283 0.21618 0.0
H1248 H 0.14518 0.45055 0.07619 0.0
H1249 H 0.0736 0.41266 0.09473 0.0
H1250 H 0.1566 0.47181 0.18161 0.0
H1251 H 0.16406 0.44525 0.18541 0.0
H1252 H 0.17094 0.46248 0.13591 0.0
H1253 H 0.0582 0.39993 0.16329 0.0
H1254 H 0.0783 0.3982 0.20666 0.0
H1255 H 0.06843 0.4234 0.20241 0.0
H1256 H 0.12868 0.40758 0.31383 0.0
H1257 H 0.10697 0.46941 0.30466 0.0
H1258 H 0.14419 0.40519 0.20047 0.0
H1259 H 0.11519 0.38752 0.20882 0.0
H1260 H 0.13699 0.38841 0.25047 0.0
H1261 H 0.11886 0.48005 0.19053 0.0
H1262 H 0.10386 0.48729 0.23751 0.0
H1263 H 0.08898 0.46506 0.19881 0.0
C1264 C 0.08918 0.12804 0.60727 0.0
C1265 C 0.10895 0.13623 0.58124 0.0
C1266 C 0.09049 0.12995 0.65368 0.0
C1267 C 0.11226 0.13963 0.67464 0.0
C1268 C 0.13226 0.14828 0.64835 0.0
C1269 C 0.13029 0.14675 0.60187 0.0
C1270 C 0.06863 0.12101 0.6803 0.0
C1271 C 0.15587 0.15806 0.6693 0.0
C1272 C 0.11209 0.15721 0.79613 0.0
C1273 C 0.1128 0.13682 0.81752 0.0
C1274 C 0.11241 0.15862 0.74961 0.0
C1275 C 0.11415 0.1394 0.72399 0.0
C1276 C 0.11617 0.11925 0.74566 0.0
C1277 C 0.11507 0.11806 0.7921 0.0
C1278 C 0.10957 0.18016 0.72788 0.0
C1279 C 0.11869 0.0986 0.71974 0.0
H1280 H 0.07273 0.11987 0.59112 0.0
H1281 H 0.14562 0.15267 0.58163 0.0
H1282 H 0.06936 0.1055 0.69924 0.0
H1283 H 0.06704 0.13433 0.70467 0.0
H1284 H 0.05287 0.11618 0.65897 0.0
H1285 H 0.16948 0.16521 0.64434 0.0
H1286 H 0.15568 0.17196 0.69343 0.0
H1287 H 0.16059 0.14421 0.68791 0.0
H1288 H 0.10994 0.17161 0.81566 0.0
H1289 H 0.11562 0.10227 0.80857 0.0
H1290 H 0.0928 0.17581 0.7097 0.0
H1291 H 0.12343 0.18687 0.70327 0.0
H1292 H 0.10995 0.19413 0.75233 0.0
H1293 H 0.10236 0.09027 0.7015 0.0
H1294 H 0.12272 0.08543 0.74151 0.0
H1295 H 0.13261 0.1042 0.69484 0.0
C1296 C 0.97361 0.94703 0.19557 0.0
C1297 C 0.98501 0.93527 0.16747 0.0
C1298 C 0.9861 0.96429 0.2251 0.0
C1299 C 0.01051 0.96955 0.22711 0.0
C1300 C 0.02214 0.95822 0.1981 0.0
C1301 C 0.00928 0.94143 0.16839 0.0
C1302 C 0.97318 0.97639 0.25499 0.0
C1303 C 0.04816 0.96317 0.19956 0.0
C1304 C 0.05051 0.02237 0.28433 0.0
C1305 C 0.05515 0.01272 0.32425 0.0
C1306 C 0.03489 0.00888 0.25313 0.0
C1307 C 0.02392 0.98521 0.26213 0.0
C1308 C 0.02766 0.97577 0.30335 0.0
C1309 C 0.04306 0.9897 0.33399 0.0
C1310 C 0.03087 0.01965 0.2099 0.0
C1311 C 0.01634 0.95061 0.31426 0.0
H1312 H 0.95489 0.94241 0.19534 0.0
H1313 H 0.01836 0.93303 0.14607 0.0
H1314 H 0.97461 0.9712 0.28985 0.0
H1315 H 0.98094 0.99546 0.25344 0.0
H1316 H 0.95453 0.97217 0.24599 0.0
H1317 H 0.0546 0.95341 0.17372 0.0
H1318 H 0.05664 0.98196 0.195 0.0
H1319 H 0.05361 0.95842 0.23251 0.0
H1320 H 0.05968 0.04021 0.27684 0.0
H1321 H 0.04589 0.98238 0.36546 0.0
H1322 H 0.01207 0.01522 0.20228 0.0
H1323 H 0.0391 0.01262 0.18252 0.0
H1324 H 0.03817 0.03883 0.2105 0.0
H1325 H -0.00267 0.94621 0.30953 0.0
H1326 H 0.01997 0.94639 0.34885 0.0
H1327 H 0.02278 0.93938 0.2914 0.0
C1328 C 0.53992 -0.00286 0.71299 0.0
C1329 C 0.56187 0.0071 0.69467 0.0
C1330 C 0.53136 0.00855 0.74652 0.0
C1331 C 0.5449 0.03059 0.76151 0.0
C1332 C 0.56713 0.04062 0.74369 0.0
C1333 C 0.57543 0.02865 0.71085 0.0
C1334 C 0.5077 -0.00281 0.76538 0.0
C1335 C 0.58202 0.06419 0.7588 0.0
C1336 C 0.51556 0.07189 0.81369 0.0
C1337 C 0.52127 0.07066 0.85839 0.0
C1338 C 0.52288 0.05865 0.7817 0.0
C1339 C 0.53573 0.04351 0.79519 0.0
C1340 C 0.54081 0.04161 0.84061 0.0
C1341 C 0.5337 0.05544 0.8717 0.0
C1342 C 0.51742 0.06132 0.73346 0.0
C1343 C 0.55396 0.0252 0.85627 0.0
H1344 H 0.52913 0.98065 0.70064 0.0
H1345 H 0.59258 0.0363 0.69781 0.0
H1346 H 0.50872 -0.00348 0.80205 0.0
H1347 H 0.49581 0.00763 0.7571 0.0
H1348 H 0.50008 0.9793 0.75239 0.0
H1349 H 0.59889 0.06959 0.74144 0.0
H1350 H 0.57277 0.07739 0.75277 0.0
H1351 H 0.58538 0.06409 0.79496 0.0
H1352 H 0.50594 0.08375 0.80378 0.0
H1353 H 0.53763 0.05425 0.90654 0.0
H1354 H 0.50775 0.04428 0.71905 0.0
H1355 H 0.53375 0.06765 0.71462 0.0
H1356 H 0.50701 0.07364 0.72864 0.0
H1357 H 0.54542 0.00739 0.84387 0.0
H1358 H 0.55517 0.02476 0.89299 0.0
H1359 H 0.57174 0.03054 0.84268 0.0
C1360 C 0.42969 0.49675 0.31116 0.0
C1361 C 0.43071 0.47466 0.3236 0.0
C1362 C 0.4444 0.50952 0.27888 0.0
C1363 C 0.46019 0.49975 0.25738 0.0
C1364 C 0.46095 0.4772 0.26864 0.0
C1365 C 0.44632 0.46497 0.30198 0.0
C1366 C 0.44311 0.5336 0.26804 0.0
C1367 C 0.47731 0.46611 0.24578 0.0
C1368 C 0.47945 0.53045 0.14957 0.0
C1369 C 0.50029 0.54656 0.16236 0.0
C1370 C 0.46717 0.5136 0.17916 0.0
C1371 C 0.47562 0.51345 0.22299 0.0
C1372 C 0.4973 0.52898 0.23533 0.0
C1373 C 0.50956 0.54522 0.20451 0.0
C1374 C 0.44452 0.49686 0.16428 0.0
C1375 C 0.50672 0.52966 0.28194 0.0
H1376 H 0.41734 0.5042 0.32672 0.0
H1377 H 0.44745 0.44803 0.31154 0.0
H1378 H 0.46037 0.54638 0.27266 0.0
H1379 H 0.43801 0.53432 0.23283 0.0
H1380 H 0.43047 0.53898 0.28907 0.0
H1381 H 0.47461 0.44785 0.25612 0.0
H1382 H 0.47503 0.46649 0.20931 0.0
H1383 H 0.49546 0.47607 0.25349 0.0
H1384 H 0.47258 0.53138 0.11659 0.0
H1385 H 0.52571 0.55777 0.21411 0.0
H1386 H 0.42995 0.50136 0.18066 0.0
H1387 H 0.44372 0.47892 0.17411 0.0
H1388 H 0.44197 0.49722 0.12782 0.0
H1389 H 0.49601 0.53676 0.3047 0.0
H1390 H 0.52496 0.54067 0.28466 0.0
H1391 H 0.50575 0.51195 0.2934 0.0
C1392 C 0.90407 0.43472 0.7215 0.0
C1393 C 0.91374 0.45357 0.69387 0.0
C1394 C 0.91822 0.42453 0.74629 0.0
C1395 C 0.94256 0.43323 0.74263 0.0
C1396 C 0.95242 0.45232 0.71487 0.0
C1397 C 0.93787 0.46237 0.69105 0.0
C1398 C 0.90717 0.40451 0.77638 0.0
C1399 C 0.97833 0.46188 0.70973 0.0
C1400 C 0.98175 0.42296 0.83346 0.0
C1401 C 0.98891 0.40464 0.81568 0.0
C1402 C 0.96612 0.43198 0.81055 0.0
C1403 C 0.95783 0.4227 0.76847 0.0
C1404 C 0.9648 0.40399 0.75052 0.0
C1405 C 0.98013 0.39496 0.77471 0.0
C1406 C 0.95887 0.45174 0.83101 0.0
C1407 C 0.95658 0.39399 0.70532 0.0
H1408 H 0.8854 0.42804 0.72374 0.0
H1409 H 0.94538 0.47666 0.66904 0.0
H1410 H 0.91235 0.38898 0.76629 0.0
H1411 H 0.91335 0.40887 0.81093 0.0
H1412 H 0.88797 0.40002 0.77583 0.0
H1413 H 0.98316 0.47682 0.68673 0.0
H1414 H 0.9866 0.46756 0.7424 0.0
H1415 H 0.98554 0.44812 0.69696 0.0
H1416 H 0.9884 0.43018 0.8655 0.0
H1417 H 0.98587 0.38089 0.76109 0.0
H1418 H 0.93973 0.44777 0.83064 0.0
H1419 H 0.96591 0.4677 0.81135 0.0
H1420 H 0.96515 0.45535 0.86569 0.0
H1421 H 0.93739 0.38803 0.70411 0.0
H1422 H 0.96327 0.37919 0.69653 0.0
H1423 H 0.96231 0.40761 0.67981 0.0
C1424 C 0.01723 0.05805 0.78374 0.0
C1425 C 0.007 0.06312 0.8227 0.0
C1426 C 0.00402 0.0429 0.75154 0.0
C1427 C 0.98002 0.03286 0.75839 0.0
C1428 C 0.9698 0.03732 0.79825 0.0
C1429 C 0.98345 0.05219 0.83002 0.0
C1430 C 0.01557 0.03813 0.70975 0.0
C1431 C 0.94422 0.02706 0.80675 0.0
C1432 C 0.93821 0.01747 0.66162 0.0
C1433 C 0.9314 0.99316 0.66262 0.0
C1434 C 0.95471 0.03059 0.69155 0.0
C1435 C 0.96502 0.01914 0.72282 0.0
C1436 C 0.95918 0.99464 0.72264 0.0
C1437 C 0.94229 0.98191 0.69274 0.0
C1438 C 0.96031 0.05671 0.69097 0.0
C1439 C 0.97017 0.98187 0.75503 0.0
H1440 H 0.03542 0.06638 0.7779 0.0
H1441 H 0.97553 0.05533 0.8606 0.0
H1442 H 0.0112 0.01918 0.70349 0.0
H1443 H 0.00908 0.04587 0.68097 0.0
H1444 H 0.0347 0.04539 0.71147 0.0
H1445 H 0.93914 0.03172 0.84008 0.0
H1446 H 0.93407 0.03332 0.78143 0.0
H1447 H 0.93935 0.00789 0.80387 0.0
H1448 H 0.93046 0.02636 0.6377 0.0
H1449 H 0.93715 0.96316 0.69389 0.0
H1450 H 0.97926 0.06472 0.68835 0.0
H1451 H 0.9547 0.06291 0.72251 0.0
H1452 H 0.95165 0.06296 0.66307 0.0
H1453 H 0.98928 0.98926 0.75503 0.0
H1454 H 0.96577 0.96304 0.74724 0.0
H1455 H 0.96418 0.98397 0.78907 0.0
C1456 C 0.4728 0.94203 0.22595 0.0
C1457 C 0.4588 0.92934 0.1919 0.0
C1458 C 0.46541 0.95805 0.25151 0.0
C1459 C 0.44353 0.9614 0.24254 0.0
C1460 C 0.42968 0.94919 0.20723 0.0
C1461 C 0.43749 0.93328 0.18237 0.0
C1462 C 0.48062 0.97079 0.28896 0.0
C1463 C 0.4063 0.95238 0.19654 0.0
C1464 C 0.41118 0.97947 0.33643 0.0
C1465 C 0.41407 0.0029 0.32709 0.0
C1466 C 0.421 0.96592 0.30948 0.0
C1467 C 0.43414 0.97607 0.27233 0.0
C1468 C 0.43749 -0.00019 0.26298 0.0
C1469 C 0.42739 0.01299 0.29058 0.0
C1470 C 0.41711 0.94065 0.32059 0.0
C1471 C 0.45154 0.01119 0.2237 0.0
H1472 H 0.48929 0.93898 0.23328 0.0
H1473 H 0.42691 0.92395 0.15531 0.0
H1474 H 0.48262 0.98966 0.28712 0.0
H1475 H 0.47238 0.96466 0.32114 0.0
H1476 H 0.49807 0.96807 0.28861 0.0
H1477 H 0.39842 0.94275 0.16614 0.0
H1478 H 0.39438 0.94621 0.22464 0.0
H1479 H 0.40785 0.97102 0.19193 0.0
H1480 H 0.40149 0.97173 0.36529 0.0
H1481 H 0.42966 0.03111 0.28336 0.0
H1482 H 0.43397 0.937 0.32535 0.0
H1483 H 0.40801 0.92958 0.2927 0.0
H1484 H 0.4067 0.93554 0.35108 0.0
H1485 H 0.46924 0.00919 0.22581 0.0
H1486 H 0.45292 0.02995 0.2216 0.0
H1487 H 0.44355 0.00254 0.19256 0.0
C1488 C 0.55085 0.50961 0.71217 0.0
C1489 C 0.55254 0.50157 0.66913 0.0
C1490 C 0.53536 0.49581 0.74246 0.0
C1491 C 0.52098 0.4738 0.7287 0.0
C1492 C 0.52151 0.46645 0.68417 0.0
C1493 C 0.53755 0.48033 0.65505 0.0
C1494 C 0.5355 0.50412 0.78979 0.0
C1495 C 0.50593 0.44346 0.66786 0.0
C1496 C 0.50545 0.42581 0.81335 0.0
C1497 C 0.48288 0.42544 0.82516 0.0
C1498 C 0.51803 0.44167 0.78248 0.0
C1499 C 0.50764 0.45726 0.7619 0.0
C1500 C 0.48471 0.45673 0.77269 0.0
C1501 C 0.47265 0.44095 0.80448 0.0
C1502 C 0.54254 0.44178 0.77203 0.0
C1503 C 0.47299 0.47291 0.75094 0.0
H1504 H 0.56252 0.52612 0.72267 0.0
H1505 H 0.5387 0.47448 0.62132 0.0
H1506 H 0.51761 0.5022 0.80121 0.0
H1507 H 0.54297 0.49331 0.81164 0.0
H1508 H 0.54586 0.52254 0.79395 0.0
H1509 H 0.50689 0.4414 0.63137 0.0
H1510 H 0.51096 0.42911 0.68402 0.0
H1511 H 0.48771 0.44169 0.6769 0.0
H1512 H 0.51339 0.41366 0.82822 0.0
H1513 H 0.45538 0.44111 0.81354 0.0
H1514 H 0.55458 0.45931 0.77817 0.0
H1515 H 0.54386 0.43758 0.73648 0.0
H1516 H 0.54836 0.42909 0.79219 0.0
H1517 H 0.48218 0.4911 0.7602 0.0
H1518 H 0.45457 0.46922 0.76077 0.0
H1519 H 0.47381 0.47151 0.71434 0.0
C1520 C 0.03721 0.57571 0.17523 0.0
C1521 C 0.01303 0.57028 0.17789 0.0
C1522 C 0.04996 0.56722 0.20637 0.0
C1523 C 0.03821 0.55274 0.24067 0.0
C1524 C 0.01381 0.54701 0.24345 0.0
C1525 C 0.00152 0.55598 0.21216 0.0
C1526 C 0.07601 0.57381 0.20265 0.0
C1527 C 0.00072 0.5315 0.27958 0.0
C1528 C 0.069 0.5144 0.29881 0.0
C1529 C 0.07623 0.52677 0.33839 0.0
C1530 C 0.05658 0.52264 0.26662 0.0
C1531 C 0.0515 0.54386 0.2741 0.0
C1532 C 0.05906 0.55663 0.31358 0.0
C1533 C 0.07125 0.54787 0.34535 0.0
C1534 C 0.04873 0.50855 0.22486 0.0
C1535 C 0.05411 0.57945 0.32241 0.0
H1536 H 0.04622 0.5864 0.14848 0.0
H1537 H 0.98289 0.55198 0.21484 0.0
H1538 H 0.08415 0.58275 0.23344 0.0
H1539 H 0.08178 0.558 0.19884 0.0
H1540 H 0.0825 0.58537 0.1741 0.0
H1541 H 0.98168 0.52798 0.276 0.0
H1542 H 0.00491 0.51472 0.27918 0.0
H1543 H 0.00609 0.53968 0.31245 0.0
H1544 H 0.0731 0.49829 0.29289 0.0
H1545 H 0.07648 0.55736 0.37606 0.0
H1546 H 0.02957 0.50362 0.22218 0.0
H1547 H 0.05433 0.49251 0.224 0.0
H1548 H 0.05573 0.51906 0.19534 0.0
H1549 H 0.06109 0.59175 0.2952 0.0
H1550 H 0.06177 0.58753 0.35426 0.0
H1551 H 0.03514 0.5768 0.32329 0.0
C1552 C 0.20976 0.08539 0.50906 0.0
C1553 C 0.19461 0.07009 0.47967 0.0
C1554 C 0.23275 0.08488 0.51413 0.0
C1555 C 0.24069 0.06883 0.48894 0.0
C1556 C 0.22508 0.05245 0.46132 0.0
C1557 C 0.20218 0.0532 0.45725 0.0
C1558 C 0.24886 0.10238 0.54441 0.0
C1559 C 0.23288 0.03505 0.43392 0.0
C1560 C 0.30273 0.08527 0.45022 0.0
C1561 C 0.31222 0.07117 0.4766 0.0
C1562 C 0.27963 0.08515 0.45491 0.0
C1563 C 0.26574 0.07079 0.48722 0.0
C1564 C 0.27544 0.05726 0.51532 0.0
C1565 C 0.29859 0.05751 0.50952 0.0
C1566 C 0.2699 0.09981 0.42423 0.0
C1567 C 0.26118 0.04196 0.55043 0.0
H1568 H 0.20401 0.09851 0.52644 0.0
H1569 H 0.19035 0.04097 0.43533 0.0
H1570 H 0.25925 0.09391 0.56522 0.0
H1571 H 0.26113 0.11569 0.52423 0.0
H1572 H 0.23932 0.11125 0.56641 0.0
H1573 H 0.21817 0.02225 0.41712 0.0
H1574 H 0.24517 0.04426 0.40826 0.0
H1575 H 0.24216 0.02554 0.45499 0.0
H1576 H 0.31333 0.09627 0.42542 0.0
H1577 H 0.30577 0.04646 0.52986 0.0
H1578 H 0.26216 0.11133 0.44371 0.0
H1579 H 0.25591 0.08846 0.4034 0.0
H1580 H 0.28327 0.11069 0.40206 0.0
H1581 H 0.25199 0.05188 0.57076 0.0
H1582 H 0.27192 0.03455 0.57269 0.0
H1583 H 0.24781 0.02746 0.53443 0.0
C1584 C 0.479 0.20762 0.04397 0.0
C1585 C 0.49479 0.20598 0.01105 0.0
C1586 C 0.47175 0.22764 0.04831 0.0
C1587 C 0.48054 0.2463 0.019 0.0
C1588 C 0.4986 0.24581 0.9896 0.0
C1589 C 0.50556 0.22559 0.986 0.0
C1590 C 0.45275 0.22763 0.08064 0.0
C1591 C 0.50874 0.26555 0.95834 0.0
C1592 C 0.43872 0.27657 0.97249 0.0
C1593 C 0.4457 0.29803 0.99438 0.0
C1594 C 0.44958 0.25941 0.98126 0.0
C1595 C 0.4679 0.26385 0.01273 0.0
C1596 C 0.47449 0.28518 0.03616 0.0
C1597 C 0.46329 0.30208 0.02665 0.0
C1598 C 0.44185 0.23675 0.95583 0.0
C1599 C 0.49388 0.29048 0.06996 0.0
H1600 H 0.47056 0.19251 0.06345 0.0
H1601 H 0.51809 0.22449 0.9611 0.0
H1602 H 0.45581 0.24486 0.09674 0.0
H1603 H 0.43599 0.22375 0.06252 0.0
H1604 H 0.45121 0.21432 0.10672 0.0
H1605 H 0.52512 0.26429 0.94337 0.0
H1606 H 0.49614 0.26522 0.93119 0.0
H1607 H 0.51212 0.28249 0.97569 0.0
H1608 H 0.42492 0.27332 0.94797 0.0
H1609 H 0.4689 0.31878 0.04331 0.0
H1610 H 0.43699 0.222 0.97915 0.0
H1611 H 0.45632 0.23458 0.93537 0.0
H1612 H 0.42684 0.2358 0.93365 0.0
H1613 H 0.49179 0.27577 0.09307 0.0
H1614 H 0.49475 0.3064 0.08949 0.0
H1615 H 0.51064 0.29298 0.05283 0.0
C1616 C 0.28439 0.43188 0.49586 0.0
C1617 C 0.30267 0.44145 0.46698 0.0
C1618 C 0.26577 0.44133 0.49931 0.0
C1619 C 0.2657 0.46092 0.47362 0.0
C1620 C 0.28485 0.47148 0.44655 0.0
C1621 C 0.30307 0.4615 0.44332 0.0
C1622 C 0.24552 0.42944 0.52817 0.0
C1623 C 0.28551 0.49254 0.41907 0.0
C1624 C 0.20739 0.46386 0.43308 0.0
C1625 C 0.20268 0.48013 0.46218 0.0
C1626 C 0.22791 0.45767 0.43644 0.0
C1627 C 0.24425 0.46806 0.46972 0.0
C1628 C 0.23985 0.48476 0.49896 0.0
C1629 C 0.21892 0.4905 0.49507 0.0
C1630 C 0.23184 0.43961 0.40486 0.0
C1631 C 0.2571 0.49633 0.53445 0.0
H1632 H 0.28418 0.4164 0.51425 0.0
H1633 H 0.31751 0.46917 0.42171 0.0
H1634 H 0.2404 0.44229 0.54918 0.0
H1635 H 0.23041 0.42075 0.50688 0.0
H1636 H 0.24944 0.41621 0.54993 0.0
H1637 H 0.30292 0.50056 0.40491 0.0
H1638 H 0.27285 0.48745 0.39136 0.0
H1639 H 0.28049 0.50573 0.4393 0.0
H1640 H 0.19461 0.45535 0.40832 0.0
H1641 H 0.21525 0.50304 0.51762 0.0
H1642 H 0.23392 0.42457 0.42374 0.0
H1643 H 0.24803 0.4469 0.38605 0.0
H1644 H 0.21735 0.43327 0.3808 0.0
H1645 H 0.25956 0.48315 0.55801 0.0
H1646 H 0.25149 0.50965 0.55329 0.0
H1647 H 0.27419 0.50467 0.51939 0.0
C1648 C 0.03785 0.29482 0.98255 0.0
C1649 C 0.05565 0.31314 1.00031 0.0
C1650 C 0.03865 0.27188 0.98601 0.0
C1651 C 0.05761 0.26726 0.00805 0.0
C1652 C 0.07443 0.28547 0.02972 0.0
C1653 C 0.07332 0.30829 0.02533 0.0
C1654 C 0.0204 0.25294 0.96238 0.0
C1655 C 0.09464 0.28117 0.05431 0.0
C1656 C 0.05551 0.20404 0.02203 0.0
C1657 C 0.06779 0.20045 0.9846 0.0
C1658 C 0.05255 0.22591 0.03106 0.0
C1659 C 0.06192 0.24443 1.00172 0.0
C1660 C 0.07484 0.24102 0.96461 0.0
C1661 C 0.07774 0.21913 0.95671 0.0
C1662 C 0.03892 0.22904 0.0712 0.0
C1663 C 0.08518 0.26037 0.93252 0.0
H1664 H 0.02422 0.29856 0.96301 0.0
H1665 H 0.08691 0.32247 0.03963 0.0
H1666 H 0.02795 0.24759 0.9321 0.0
H1667 H 0.0144 0.23744 0.98366 0.0
H1668 H 0.0052 0.25873 0.95242 0.0
H1669 H 0.10362 0.29611 0.07585 0.0
H1670 H 0.08887 0.26541 0.07502 0.0
H1671 H 0.10729 0.27822 0.03009 0.0
H1672 H 0.04767 0.18962 0.04357 0.0
H1673 H 0.08769 0.21658 0.92832 0.0
H1674 H 0.0224 0.23204 0.06045 0.0
H1675 H 0.04865 0.24451 0.09063 0.0
H1676 H 0.03488 0.21366 0.09313 0.0
H1677 H 0.07123 0.26648 0.91723 0.0
H1678 H 0.09501 0.25488 0.90564 0.0
H1679 H 0.09701 0.27533 0.95036 0.0
C1680 C 0.67631 0.92749 0.60186 0.0
C1681 C 0.6704 0.94407 0.57552 0.0
C1682 C 0.69862 0.92485 0.6008 0.0
C1683 C 0.7154 0.93916 0.57274 0.0
C1684 C 0.70965 0.95613 0.54647 0.0
C1685 C 0.68717 0.95837 0.54813 0.0
C1686 C 0.70413 0.90651 0.62916 0.0
C1687 C 0.7272 0.97177 0.51636 0.0
C1688 C 0.77862 0.94531 0.59693 0.0
C1689 C 0.78336 0.92999 0.5657 0.0
C1690 C 0.75655 0.94851 0.59955 0.0
C1691 C 0.73886 0.93604 0.5703 0.0
C1692 C 0.7435 0.92047 0.53886 0.0
C1693 C 0.76575 0.91766 0.53688 0.0
C1694 C 0.7522 0.96533 0.63339 0.0
C1695 C 0.72498 0.90677 0.50734 0.0
H1696 H 0.66329 0.91619 0.62262 0.0
H1697 H 0.68272 0.97138 0.52812 0.0
H1698 H 0.70906 0.89368 0.60778 0.0
H1699 H 0.71912 0.9145 0.65121 0.0
H1700 H 0.68925 0.89718 0.64994 0.0
H1701 H 0.72009 0.98442 0.49882 0.0
H1702 H 0.74265 0.98146 0.53582 0.0
H1703 H 0.7331 0.9612 0.49132 0.0
H1704 H 0.7923 0.95513 0.6188 0.0
H1705 H 0.76934 0.90566 0.51299 0.0
H1706 H 0.73804 0.95621 0.65581 0.0
H1707 H 0.74654 0.9791 0.61648 0.0
H1708 H 0.76784 0.97363 0.65373 0.0
H1709 H 0.71015 0.89587 0.5263 0.0
H1710 H 0.73144 0.89536 0.4849 0.0
H1711 H 0.71834 0.91875 0.48688 0.0
C1712 C 0.55238 0.71328 0.05352 0.0
C1713 C 0.54246 0.69341 0.07847 0.0
C1714 C 0.5441 0.73271 0.05657 0.0
C1715 C 0.52542 0.73214 0.08516 0.0
C1716 C 0.51533 0.71213 0.11046 0.0
C1717 C 0.524 0.69298 0.10684 0.0
C1718 C 0.5554 0.75387 0.02936 0.0
C1719 C 0.49536 0.71095 0.14118 0.0
C1720 C 0.5205 0.79067 0.12149 0.0
C1721 C 0.50395 0.7941 0.09149 0.0
C1722 C 0.52707 0.77021 0.12078 0.0
C1723 C 0.51687 0.75278 0.08922 0.0
C1724 C 0.4995 0.75569 0.05995 0.0
C1725 C 0.49326 0.77639 0.06138 0.0
C1726 C 0.54568 0.76773 0.15247 0.0
C1727 C 0.48816 0.73733 0.02607 0.0
H1728 H 0.56674 0.71368 0.03181 0.0
H1729 H 0.51605 0.67747 0.12561 0.0
H1730 H 0.54235 0.75809 0.00751 0.0
H1731 H 0.56255 0.76904 0.05154 0.0
H1732 H 0.56963 0.7514 0.00847 0.0
H1733 H 0.48936 0.694 0.15828 0.0
H1734 H 0.50055 0.72491 0.16658 0.0
H1735 H 0.48061 0.71382 0.12225 0.0
H1736 H 0.52916 0.80446 0.1443 0.0
H1737 H 0.48033 0.77891 0.0384 0.0
H1738 H 0.56131 0.76738 0.1336 0.0
H1739 H 0.53975 0.75112 0.17059 0.0
H1740 H 0.55067 0.78217 0.17702 0.0
H1741 H 0.50121 0.73549 1.00165 0.0
H1742 H 0.47381 0.74154 0.00797 0.0
H1743 H 0.48125 0.72028 0.04235 0.0
C1744 C 0.78721 0.52252 0.53115 0.0
C1745 C 0.78984 0.5058 0.56124 0.0
C1746 C 0.76724 0.52988 0.53096 0.0
C1747 C 0.74949 0.52026 0.56163 0.0
C1748 C 0.75157 0.50268 0.59087 0.0
C1749 C 0.77179 0.49564 0.59035 0.0
C1750 C 0.76556 0.54865 0.4992 0.0
C1751 C 0.73282 0.4919 0.62369 0.0
C1752 C 0.71088 0.55767 0.59172 0.0
C1753 C 0.6917 0.54827 0.56412 0.0
C1754 C 0.7297 0.54841 0.59187 0.0
C1755 C 0.72914 0.52927 0.56393 0.0
C1756 C 0.7096 0.51941 0.53674 0.0
C1757 C 0.69109 0.52903 0.53718 0.0
C1758 C 0.75037 0.55936 0.62123 0.0
C1759 C 0.70838 0.49891 0.50675 0.0
H1760 H 0.80128 0.53073 0.50911 0.0
H1761 H 0.77371 0.48256 0.61339 0.0
H1762 H 0.74927 0.5429 0.47961 0.0
H1763 H 0.76513 0.56438 0.5181 0.0
H1764 H 0.78036 0.55345 0.47594 0.0
H1765 H 0.73646 0.4774 0.64211 0.0
H1766 H 0.73117 0.50525 0.64794 0.0
H1767 H 0.71588 0.48531 0.60644 0.0
H1768 H 0.71132 0.57253 0.61254 0.0
H1769 H 0.676 0.52139 0.51657 0.0
H1770 H 0.76591 0.56647 0.60054 0.0
H1771 H 0.75405 0.54611 0.64315 0.0
H1772 H 0.74769 0.5736 0.64217 0.0
H1773 H 0.72235 0.50373 0.48179 0.0
H1774 H 0.69149 0.49271 0.48906 0.0
H1775 H 0.71117 0.48438 0.52626 0.0
C1776 C 0.92522 0.68125 0.0379 0.0
C1777 C 0.94039 0.67568 0.06837 0.0
C1778 C 0.92195 0.70335 0.03764 0.0
C1779 C 0.93417 0.72026 0.06858 0.0
C1780 C 0.9495 0.71477 0.09948 0.0
C1781 C 0.95243 0.6925 0.09901 0.0
C1782 C 0.90542 0.70859 1.00426 0.0
C1783 C 0.96289 0.73245 0.1328 0.0
C1784 C 0.94204 0.78306 0.03915 0.0
C1785 C 0.92459 0.78821 0.06412 0.0
C1786 C 0.94551 0.76107 0.04071 0.0
C1787 C 0.93119 0.74384 0.06795 0.0
C1788 C 0.91372 0.74899 0.09367 0.0
C1789 C 0.91065 0.77117 0.09149 0.0
C1790 C 0.9644 0.75622 0.01299 0.0
C1791 C 0.89811 0.73098 0.12301 0.0
H1792 H 0.91562 0.66818 0.01462 0.0
H1793 H 0.96435 0.68832 0.12231 0.0
H1794 H 0.89167 0.71406 0.02163 0.0
H1795 H 0.91476 0.72319 0.98293 0.0
H1796 H 0.8971 0.69342 0.98273 0.0
H1797 H 0.97385 0.72529 0.155 0.0
H1798 H 0.97416 0.74766 0.11533 0.0
H1799 H 0.95077 0.73879 0.15343 0.0
H1800 H 0.95315 0.79634 0.0186 0.0
H1801 H 0.89707 0.77508 0.11064 0.0
H1802 H 0.95675 0.74199 0.98905 0.0
H1803 H 0.9766 0.7504 0.03447 0.0
H1804 H 0.97432 0.77168 0.99426 0.0
H1805 H 0.8881 0.71603 0.10259 0.0
H1806 H 0.88576 0.73795 0.14176 0.0
H1807 H 0.90863 0.72431 0.14695 0.0
loop_
_geom_bond_atom_site_label_1
_geom_bond_atom_site_label_2
_geom_bond_distance
_geom_bond_site_symmetry_2
_ccdc_geom_bond_type
Co0 N4 2.148 . S
Co0 N10 2.128 . S
Co0 N20 2.194 . S
Co0 O25 2.351 . S
Co0 O26 2.155 . S
Co0 O27 2.096 . S
C1 N4 1.301 . S
C1 N5 1.328 . S
C1 H6 0.930 . S
C2 C3 1.333 . S
C2 N4 1.317 . S
C2 H7 0.930 . S
C3 C2 1.333 . S
C3 N5 1.350 . S
C3 H29 0.931 . S
N4 Co0 2.148 . S
N4 C1 1.301 . S
N4 C2 1.317 . S
N5 C1 1.328 . S
N5 C3 1.350 . S
H6 C1 0.930 . S
H7 C2 0.930 . S
C8 O9 1.224 . S
C8 O27 1.247 . S
O9 C8 1.224 . S
N10 Co0 2.128 . S
N10 C11 1.355 1_545 S
N10 C13 1.311 . S
C11 N10 1.355 1_565 S
C11 C12 1.363 . S
C11 H23 0.929 . S
C12 C11 1.363 . S
C12 N14 1.375 . S
C12 H30 0.931 . S
C13 N10 1.311 . S
C13 N14 1.347 1_545 S
C13 H24 0.929 . S
N14 C12 1.375 . S
N14 C13 1.347 1_565 S
C15 C18 1.365 . S
C15 N20 1.328 . S
C15 H21 0.929 . S
C16 C17 1.362 . S
C16 C19 1.378 . S
C16 H31 0.929 . S
C17 C16 1.362 . S
C17 C18 1.366 . S
C18 C15 1.365 . S
C18 C17 1.366 . S
C18 H32 0.930 . S
C19 C16 1.378 . S
C19 N20 1.315 . S
C19 H22 0.930 . S
N20 Co0 2.194 . S
N20 C15 1.328 . S
N20 C19 1.315 . S
H21 C15 0.929 . S
H22 C19 0.930 . S
H23 C11 0.929 . S
H24 C13 0.929 . S
O25 Co0 2.351 . S
O25 C28 1.244 . S
O26 Co0 2.155 . S
O26 C28 1.240 . S
O27 Co0 2.096 . S
O27 C8 1.247 . S
C28 O25 1.244 . S
C28 O26 1.240 . S
H29 C3 0.931 . S
H30 C12 0.931 . S
H31 C16 0.929 . S
H32 C18 0.930 . S
Co33 N37 2.148 . S
Co33 N43 2.128 . S
Co33 N53 2.194 . S
Co33 O58 2.351 1_556 S
Co33 O59 2.155 . S
Co33 O60 2.096 . S
C34 N37 1.301 1_554 S
C34 N38 1.328 . S
C34 H39 0.930 . S
C35 C36 1.333 1_556 S
C35 N37 1.317 . S
C35 H40 0.930 . S
C36 C35 1.333 1_554 S
C36 N38 1.350 . S
C36 H62 0.931 . S
N37 Co33 2.148 . S
N37 C34 1.301 1_556 S
N37 C35 1.317 . S
N38 C34 1.328 . S
N38 C36 1.350 . S
H39 C34 0.930 . S
H40 C35 0.930 . S
C41 O42 1.224 . S
C41 O60 1.247 . S
O42 C41 1.224 . S
N43 Co33 2.128 . S
N43 C44 1.355 . S
N43 C46 1.311 . S
C44 N43 1.355 . S
C44 C45 1.363 . S
C44 H56 0.929 . S
C45 C44 1.363 . S
C45 N47 1.375 . S
C45 H63 0.931 . S
C46 N43 1.311 . S
C46 N47 1.347 . S
C46 H57 0.929 . S
N47 C45 1.375 . S
N47 C46 1.347 . S
C48 C51 1.365 . S
C48 N53 1.328 1_554 S
C48 H54 0.929 . S
C49 C50 1.362 . S
C49 C52 1.378 . S
C49 H64 0.929 . S
C50 C49 1.362 . S
C50 C51 1.366 1_556 S
C51 C48 1.365 . S
C51 C50 1.366 1_554 S
C51 H65 0.930 . S
C52 C49 1.378 . S
C52 N53 1.315 . S
C52 H55 0.930 . S
N53 Co33 2.194 . S
N53 C48 1.328 1_556 S
N53 C52 1.315 . S
H54 C48 0.929 . S
H55 C52 0.930 . S
H56 C44 0.929 . S
H57 C46 0.929 . S
O58 Co33 2.351 1_554 S
O58 C61 1.244 . S
O59 Co33 2.155 . S
O59 C61 1.240 1_556 S
O60 Co33 2.096 . S
O60 C41 1.247 . S
C61 O58 1.244 . S
C61 O59 1.240 1_554 S
H62 C36 0.931 . S
H63 C45 0.931 . S
H64 C49 0.929 . S
H65 C51 0.930 . S
Co66 N70 2.148 . S
Co66 N76 2.128 . S
Co66 N86 2.194 . S
Co66 O91 2.351 . S
Co66 O92 2.155 . S
Co66 O93 2.096 . S
C67 N70 1.301 . S
C67 N71 1.328 . S
C67 H72 0.930 . S
C68 C69 1.333 . S
C68 N70 1.317 . S
C68 H73 0.930 . S
C69 C68 1.333 . S
C69 N71 1.350 . S
C69 H95 0.931 . S
N70 Co66 2.148 . S
N70 C67 1.301 . S
N70 C68 1.317 . S
N71 C67 1.328 . S
N71 C69 1.350 . S
H72 C67 0.930 . S
H73 C68 0.930 . S
C74 O75 1.224 . S
C74 O93 1.247 . S
O75 C74 1.224 . S
N76 Co66 2.128 . S
N76 C77 1.355 . S
N76 C79 1.311 . S
C77 N76 1.355 . S
C77 C78 1.363 . S
C77 H89 0.929 . S
C78 C77 1.363 . S
C78 N80 1.375 . S
C78 H96 0.931 . S
C79 N76 1.311 . S
C79 N80 1.347 . S
C79 H90 0.929 . S
N80 C78 1.375 . S
N80 C79 1.347 . S
C81 C84 1.365 . S
C81 N86 1.328 . S
C81 H87 0.929 . S
C82 C83 1.362 . S
C82 C85 1.378 . S
C82 H97 0.929 . S
C83 C82 1.362 . S
C83 C84 1.366 . S
C84 C81 1.365 . S
C84 C83 1.366 . S
C84 H98 0.930 . S
C85 C82 1.378 . S
C85 N86 1.315 . S
C85 H88 0.930 . S
N86 Co66 2.194 . S
N86 C81 1.328 . S
N86 C85 1.315 . S
H87 C81 0.929 . S
H88 C85 0.930 . S
H89 C77 0.929 . S
H90 C79 0.929 . S
O91 Co66 2.351 . S
O91 C94 1.244 . S
O92 Co66 2.155 . S
O92 C94 1.240 . S
O93 Co66 2.096 . S
O93 C74 1.247 . S
C94 O91 1.244 . S
C94 O92 1.240 . S
H95 C69 0.931 . S
H96 C78 0.931 . S
H97 C82 0.929 . S
H98 C84 0.930 . S
Co99 N103 2.148 . S
Co99 N109 2.128 1_455 S
Co99 N119 2.194 1_455 S
Co99 O124 2.351 1_456 S
Co99 O125 2.155 1_455 S
Co99 O126 2.096 . S
C100 N103 1.301 1_554 S
C100 N104 1.328 . S
C100 H105 0.930 . S
C101 C102 1.333 1_556 S
C101 N103 1.317 . S
C101 H106 0.930 . S
C102 C101 1.333 1_554 S
C102 N104 1.350 . S
C102 H128 0.931 . S
N103 Co99 2.148 . S
N103 C100 1.301 1_556 S
N103 C101 1.317 . S
N104 C100 1.328 . S
N104 C102 1.350 . S
H105 C100 0.930 . S
H106 C101 0.930 . S
C107 O108 1.224 . S
C107 O126 1.247 . S
O108 C107 1.224 . S
N109 Co99 2.128 1_655 S
N109 C110 1.355 . S
N109 C112 1.311 . S
C110 N109 1.355 . S
C110 C111 1.363 . S
C110 H122 0.929 . S
C111 C110 1.363 . S
C111 N113 1.375 . S
C111 H129 0.931 . S
C112 N109 1.311 . S
C112 N113 1.347 . S
C112 H123 0.929 . S
N113 C111 1.375 . S
N113 C112 1.347 . S
C114 C117 1.365 . S
C114 N119 1.328 1_554 S
C114 H120 0.929 . S
C115 C116 1.362 1_455 S
C115 C118 1.377 . S
C115 H130 0.930 . S
C116 C115 1.362 1_655 S
C116 C117 1.366 1_556 S
C117 C114 1.365 . S
C117 C116 1.366 1_554 S
C117 H131 0.930 . S
C118 C115 1.377 . S
C118 N119 1.315 1_455 S
C118 H121 0.930 . S
N119 Co99 2.194 1_655 S
N119 C114 1.328 1_556 S
N119 C118 1.315 1_655 S
H120 C114 0.929 . S
H121 C118 0.930 . S
H122 C110 0.929 . S
H123 C112 0.929 . S
O124 Co99 2.351 1_654 S
O124 C127 1.244 . S
O125 Co99 2.155 1_655 S
O125 C127 1.240 1_556 S
O126 Co99 2.096 . S
O126 C107 1.247 . S
C127 O124 1.244 . S
C127 O125 1.240 1_554 S
H128 C102 0.931 . S
H129 C111 0.931 . S
H130 C115 0.930 . S
H131 C117 0.930 . S
Co132 N136 2.148 . S
Co132 N142 2.128 1_565 S
Co132 N152 2.194 1_565 S
Co132 O157 2.351 1_565 S
Co132 O158 2.155 1_565 S
Co132 O159 2.096 . S
C133 N136 1.301 . S
C133 N137 1.328 . S
C133 H138 0.930 . S
C134 C135 1.333 . S
C134 N136 1.317 . S
C134 H139 0.930 . S
C135 C134 1.333 . S
C135 N137 1.350 . S
C135 H161 0.931 . S
N136 Co132 2.148 . S
N136 C133 1.301 . S
N136 C134 1.317 . S
N137 C133 1.328 . S
N137 C135 1.350 . S
H138 C133 0.930 . S
H139 C134 0.930 . S
C140 O141 1.224 . S
C140 O159 1.247 . S
O141 C140 1.224 . S
N142 Co132 2.128 1_545 S
N142 C143 1.355 . S
N142 C145 1.311 . S
C143 N142 1.355 . S
C143 C144 1.363 . S
C143 H155 0.929 . S
C144 C143 1.363 . S
C144 N146 1.375 . S
C144 H162 0.931 . S
C145 N142 1.311 . S
C145 N146 1.347 . S
C145 H156 0.929 . S
N146 C144 1.375 . S
N146 C145 1.347 . S
C147 C150 1.365 . S
C147 N152 1.328 . S
C147 H153 0.929 . S
C148 C149 1.362 1_565 S
C148 C151 1.377 . S
C148 H163 0.930 . S
C149 C148 1.362 1_545 S
C149 C150 1.366 . S
C150 C147 1.365 . S
C150 C149 1.366 . S
C150 H164 0.930 . S
C151 C148 1.377 . S
C151 N152 1.315 1_565 S
C151 H154 0.930 . S
N152 Co132 2.194 1_545 S
N152 C147 1.328 . S
N152 C151 1.315 1_545 S
H153 C147 0.929 . S
H154 C151 0.930 . S
H155 C143 0.929 . S
H156 C145 0.929 . S
O157 Co132 2.351 1_545 S
O157 C160 1.244 . S
O158 Co132 2.155 1_545 S
O158 C160 1.240 . S
O159 Co132 2.096 . S
O159 C140 1.247 . S
C160 O157 1.244 . S
C160 O158 1.240 . S
H161 C135 0.931 . S
H162 C144 0.931 . S
H163 C148 0.930 . S
H164 C150 0.930 . S
Co165 N169 2.148 . S
Co165 N175 2.128 . S
Co165 N185 2.194 . S
Co165 O190 2.351 . S
Co165 O191 2.155 . S
Co165 O192 2.096 . S
C166 N169 1.301 1_556 S
C166 N170 1.328 . S
C166 H171 0.930 . S
C167 C168 1.333 1_554 S
C167 N169 1.317 . S
C167 H172 0.930 . S
C168 C167 1.333 1_556 S
C168 N170 1.350 . S
C168 H194 0.931 . S
N169 Co165 2.148 . S
N169 C166 1.301 1_554 S
N169 C167 1.317 . S
N170 C166 1.328 . S
N170 C168 1.350 . S
H171 C166 0.930 . S
H172 C167 0.930 . S
C173 O174 1.224 . S
C173 O192 1.247 . S
O174 C173 1.224 . S
N175 Co165 2.128 . S
N175 C176 1.355 . S
N175 C178 1.311 . S
C176 N175 1.355 . S
C176 C177 1.363 . S
C176 H188 0.929 . S
C177 C176 1.363 . S
C177 N179 1.375 . S
C177 H195 0.931 . S
C178 N175 1.311 . S
C178 N179 1.347 . S
C178 H189 0.929 . S
N179 C177 1.375 . S
N179 C178 1.347 . S
C180 C183 1.365 . S
C180 N185 1.328 . S
C180 H186 0.929 1_554 S
C181 C182 1.362 . S
C181 C184 1.378 . S
C181 H196 0.929 . S
C182 C181 1.362 . S
C182 C183 1.366 . S
C183 C180 1.365 . S
C183 C182 1.366 . S
C183 H197 0.930 1_554 S
C184 C181 1.378 . S
C184 N185 1.315 . S
C184 H187 0.930 . S
N185 Co165 2.194 . S
N185 C180 1.328 . S
N185 C184 1.315 . S
H186 C180 0.929 1_556 S
H187 C184 0.930 . S
H188 C176 0.929 . S
H189 C178 0.929 . S
O190 Co165 2.351 . S
O190 C193 1.244 . S
O191 Co165 2.155 . S
O191 C193 1.240 . S
O192 Co165 2.096 . S
O192 C173 1.247 . S
C193 O190 1.244 . S
C193 O191 1.240 . S
H194 C168 0.931 . S
H195 C177 0.931 . S
H196 C181 0.929 . S
H197 C183 0.930 1_556 S
Co198 N202 2.148 . S
Co198 N208 2.128 . S
Co198 N218 2.194 . S
Co198 O223 2.351 . S
Co198 O224 2.155 . S
Co198 O225 2.096 . S
C199 N202 1.301 . S
C199 N203 1.328 . S
C199 H204 0.930 . S
C200 C201 1.333 . S
C200 N202 1.317 . S
C200 H205 0.930 . S
C201 C200 1.333 . S
C201 N203 1.350 . S
C201 H227 0.931 . S
N202 Co198 2.148 . S
N202 C199 1.301 . S
N202 C200 1.317 . S
N203 C199 1.328 . S
N203 C201 1.350 . S
H204 C199 0.930 . S
H205 C200 0.930 . S
C206 O207 1.224 . S
C206 O225 1.247 . S
O207 C206 1.224 . S
N208 Co198 2.128 . S
N208 C209 1.355 . S
N208 C211 1.311 . S
C209 N208 1.355 . S
C209 C210 1.363 . S
C209 H221 0.929 . S
C210 C209 1.363 . S
C210 N212 1.375 . S
C210 H228 0.931 . S
C211 N208 1.311 . S
C211 N212 1.347 . S
C211 H222 0.929 . S
N212 C210 1.375 . S
N212 C211 1.347 . S
C213 C216 1.365 . S
C213 N218 1.328 . S
C213 H219 0.929 . S
C214 C215 1.362 . S
C214 C217 1.378 . S
C214 H229 0.929 . S
C215 C214 1.362 . S
C215 C216 1.366 . S
C216 C213 1.365 . S
C216 C215 1.366 . S
C216 H230 0.930 . S
C217 C214 1.378 . S
C217 N218 1.315 . S
C217 H220 0.930 . S
N218 Co198 2.194 . S
N218 C213 1.328 . S
N218 C217 1.315 . S
H219 C213 0.929 . S
H220 C217 0.930 . S
H221 C209 0.929 . S
H222 C211 0.929 . S
O223 Co198 2.351 . S
O223 C226 1.244 . S
O224 Co198 2.155 . S
O224 C226 1.240 . S
O225 Co198 2.096 . S
O225 C206 1.247 . S
C226 O223 1.244 . S
C226 O224 1.240 . S
H227 C201 0.931 . S
H228 C210 0.931 . S
H229 C214 0.929 . S
H230 C216 0.930 . S
Co231 N235 2.148 . S
Co231 N241 2.128 . S
Co231 N251 2.194 . S
Co231 O256 2.351 . S
Co231 O257 2.155 . S
Co231 O258 2.096 . S
C232 N235 1.301 1_556 S
C232 N236 1.328 . S
C232 H237 0.930 . S
C233 C234 1.333 1_554 S
C233 N235 1.317 . S
C233 H238 0.930 . S
C234 C233 1.333 1_556 S
C234 N236 1.350 . S
C234 H260 0.931 . S
N235 Co231 2.148 . S
N235 C232 1.301 1_554 S
N235 C233 1.317 . S
N236 C232 1.328 . S
N236 C234 1.350 . S
H237 C232 0.930 . S
H238 C233 0.930 . S
C239 O240 1.224 . S
C239 O258 1.247 . S
O240 C239 1.224 . S
N241 Co231 2.128 . S
N241 C242 1.355 1_655 S
N241 C244 1.311 . S
C242 N241 1.355 1_455 S
C242 C243 1.363 . S
C242 H254 0.929 . S
C243 C242 1.363 . S
C243 N245 1.375 . S
C243 H261 0.931 . S
C244 N241 1.311 . S
C244 N245 1.347 1_655 S
C244 H255 0.929 . S
N245 C243 1.375 . S
N245 C244 1.347 1_455 S
C246 C249 1.365 . S
C246 N251 1.328 . S
C246 H252 0.929 1_554 S
C247 C248 1.362 . S
C247 C250 1.378 . S
C247 H262 0.929 . S
C248 C247 1.362 . S
C248 C249 1.366 . S
C249 C246 1.365 . S
C249 C248 1.366 . S
C249 H263 0.930 1_554 S
C250 C247 1.378 . S
C250 N251 1.315 . S
C250 H253 0.930 . S
N251 Co231 2.194 . S
N251 C246 1.328 . S
N251 C250 1.315 . S
H252 C246 0.929 1_556 S
H253 C250 0.930 . S
H254 C242 0.929 . S
H255 C244 0.929 . S
O256 Co231 2.351 . S
O256 C259 1.244 . S
O257 Co231 2.155 . S
O257 C259 1.240 . S
O258 Co231 2.096 . S
O258 C239 1.247 . S
C259 O256 1.244 . S
C259 O257 1.240 . S
H260 C234 0.931 . S
H261 C243 0.931 . S
H262 C247 0.929 . S
H263 C249 0.930 1_556 S
Co264 N268 2.148 . S
Co264 N274 2.128 . S
Co264 N284 2.194 . S
Co264 O289 2.351 . S
Co264 O290 2.155 . S
Co264 O291 2.096 . S
C265 N268 1.301 . S
C265 N269 1.328 . S
C265 H270 0.930 . S
C266 C267 1.333 . S
C266 N268 1.317 . S
C266 H271 0.930 . S
C267 C266 1.333 . S
C267 N269 1.350 . S
C267 H293 0.931 . S
N268 Co264 2.148 . S
N268 C265 1.301 . S
N268 C266 1.317 . S
N269 C265 1.328 . S
N269 C267 1.350 . S
H270 C265 0.930 . S
H271 C266 0.930 . S
C272 O273 1.224 . S
C272 O291 1.247 . S
O273 C272 1.224 . S
N274 Co264 2.128 . S
N274 C275 1.355 1_565 S
N274 C277 1.311 . S
C275 N274 1.355 1_545 S
C275 C276 1.363 . S
C275 H287 0.929 . S
C276 C275 1.363 . S
C276 N278 1.375 . S
C276 H294 0.931 . S
C277 N274 1.311 . S
C277 N278 1.347 1_565 S
C277 H288 0.929 . S
N278 C276 1.375 . S
N278 C277 1.347 1_545 S
C279 C282 1.365 . S
C279 N284 1.328 . S
C279 H285 0.929 . S
C280 C281 1.362 . S
C280 C283 1.378 . S
C280 H295 0.929 . S
C281 C280 1.362 . S
C281 C282 1.366 . S
C282 C279 1.365 . S
C282 C281 1.366 . S
C282 H296 0.930 . S
C283 C280 1.378 . S
C283 N284 1.315 . S
C283 H286 0.930 . S
N284 Co264 2.194 . S
N284 C279 1.328 . S
N284 C283 1.315 . S
H285 C279 0.929 . S
H286 C283 0.930 . S
H287 C275 0.929 . S
H288 C277 0.929 . S
O289 Co264 2.351 . S
O289 C292 1.244 . S
O290 Co264 2.155 . S
O290 C292 1.240 . S
O291 Co264 2.096 . S
O291 C272 1.247 . S
C292 O289 1.244 . S
C292 O290 1.240 . S
H293 C267 0.931 . S
H294 C276 0.931 . S
H295 C280 0.929 . S
H296 C282 0.930 . S
Co297 N301 2.148 . S
Co297 N307 2.128 . S
Co297 N317 2.194 . S
Co297 O322 2.351 1_554 S
Co297 O323 2.155 . S
Co297 O324 2.096 . S
C298 N301 1.301 1_556 S
C298 N302 1.328 . S
C298 H303 0.930 . S
C299 C300 1.333 1_554 S
C299 N301 1.317 . S
C299 H304 0.930 . S
C300 C299 1.333 1_556 S
C300 N302 1.350 . S
C300 H326 0.931 . S
N301 Co297 2.148 . S
N301 C298 1.301 1_554 S
N301 C299 1.317 . S
N302 C298 1.328 . S
N302 C300 1.350 . S
H303 C298 0.930 . S
H304 C299 0.930 . S
C305 O306 1.224 . S
C305 O324 1.247 . S
O306 C305 1.224 . S
N307 Co297 2.128 . S
N307 C308 1.355 . S
N307 C310 1.311 . S
C308 N307 1.355 . S
C308 C309 1.363 . S
C308 H320 0.929 . S
C309 C308 1.363 . S
C309 N311 1.375 . S
C309 H327 0.931 . S
C310 N307 1.311 . S
C310 N311 1.347 . S
C310 H321 0.929 . S
N311 C309 1.375 . S
N311 C310 1.347 . S
C312 C315 1.365 . S
C312 N317 1.328 1_556 S
C312 H318 0.929 . S
C313 C314 1.362 . S
C313 C316 1.378 . S
C313 H328 0.929 . S
C314 C313 1.362 . S
C314 C315 1.366 1_554 S
C315 C312 1.365 . S
C315 C314 1.366 1_556 S
C315 H329 0.930 . S
C316 C313 1.378 . S
C316 N317 1.315 . S
C316 H319 0.930 . S
N317 Co297 2.194 . S
N317 C312 1.328 1_554 S
N317 C316 1.315 . S
H318 C312 0.929 . S
H319 C316 0.930 . S
H320 C308 0.929 . S
H321 C310 0.929 . S
O322 Co297 2.351 1_556 S
O322 C325 1.244 . S
O323 Co297 2.155 . S
O323 C325 1.240 1_554 S
O324 Co297 2.096 . S
O324 C305 1.247 . S
C325 O322 1.244 . S
C325 O323 1.240 1_556 S
H326 C300 0.931 . S
H327 C309 0.931 . S
H328 C313 0.929 . S
H329 C315 0.930 . S
Co330 N334 2.148 . S
Co330 N340 2.128 . S
Co330 N350 2.194 . S
Co330 O355 2.351 . S
Co330 O356 2.155 . S
Co330 O357 2.096 . S
C331 N334 1.301 . S
C331 N335 1.328 . S
C331 H336 0.930 . S
C332 C333 1.333 . S
C332 N334 1.317 . S
C332 H337 0.930 . S
C333 C332 1.333 . S
C333 N335 1.350 . S
C333 H359 0.931 . S
N334 Co330 2.148 . S
N334 C331 1.301 . S
N334 C332 1.317 . S
N335 C331 1.328 . S
N335 C333 1.350 . S
H336 C331 0.930 . S
H337 C332 0.930 . S
C338 O339 1.224 . S
C338 O357 1.247 . S
O339 C338 1.224 . S
N340 Co330 2.128 . S
N340 C341 1.355 . S
N340 C343 1.311 . S
C341 N340 1.355 . S
C341 C342 1.363 . S
C341 H353 0.929 . S
C342 C341 1.363 . S
C342 N344 1.375 . S
C342 H360 0.931 . S
C343 N340 1.311 . S
C343 N344 1.347 . S
C343 H354 0.929 . S
N344 C342 1.375 . S
N344 C343 1.347 . S
C345 C348 1.365 . S
C345 N350 1.328 . S
C345 H351 0.929 . S
C346 C347 1.362 . S
C346 C349 1.378 . S
C346 H361 0.929 . S
C347 C346 1.362 . S
C347 C348 1.366 . S
C348 C345 1.365 . S
C348 C347 1.366 . S
C348 H362 0.930 . S
C349 C346 1.378 . S
C349 N350 1.315 . S
C349 H352 0.930 . S
N350 Co330 2.194 . S
N350 C345 1.328 . S
N350 C349 1.315 . S
H351 C345 0.929 . S
H352 C349 0.930 . S
H353 C341 0.929 . S
H354 C343 0.929 . S
O355 Co330 2.351 . S
O355 C358 1.244 . S
O356 Co330 2.155 . S
O356 C358 1.240 . S
O357 Co330 2.096 . S
O357 C338 1.247 . S
C358 O355 1.244 . S
C358 O356 1.240 . S
H359 C333 0.931 . S
H360 C342 0.931 . S
H361 C346 0.929 . S
H362 C348 0.930 . S
Co363 N367 2.148 . S
Co363 N373 2.128 1_655 S
Co363 N383 2.194 1_655 S
Co363 O388 2.351 1_654 S
Co363 O389 2.155 1_655 S
Co363 O390 2.096 . S
C364 N367 1.301 1_556 S
C364 N368 1.328 . S
C364 H369 0.930 . S
C365 C366 1.333 1_554 S
C365 N367 1.317 . S
C365 H370 0.930 . S
C366 C365 1.333 1_556 S
C366 N368 1.350 . S
C366 H392 0.931 . S
N367 Co363 2.148 . S
N367 C364 1.301 1_554 S
N367 C365 1.317 . S
N368 C364 1.328 . S
N368 C366 1.350 . S
H369 C364 0.930 . S
H370 C365 0.930 . S
C371 O372 1.224 . S
C371 O390 1.247 . S
O372 C371 1.224 . S
N373 Co363 2.128 1_455 S
N373 C374 1.355 . S
N373 C376 1.311 . S
C374 N373 1.355 . S
C374 C375 1.363 . S
C374 H386 0.929 . S
C375 C374 1.363 . S
C375 N377 1.375 . S
C375 H393 0.931 . S
C376 N373 1.311 . S
C376 N377 1.347 . S
C376 H387 0.929 . S
N377 C375 1.375 . S
N377 C376 1.347 . S
C378 C381 1.365 . S
C378 N383 1.328 1_556 S
C378 H384 0.929 . S
C379 C380 1.362 1_655 S
C379 C382 1.377 . S
C379 H394 0.930 . S
C380 C379 1.362 1_455 S
C380 C381 1.366 1_554 S
C381 C378 1.365 . S
C381 C380 1.366 1_556 S
C381 H395 0.930 . S
C382 C379 1.377 . S
C382 N383 1.315 1_655 S
C382 H385 0.930 . S
N383 Co363 2.194 1_455 S
N383 C378 1.328 1_554 S
N383 C382 1.315 1_455 S
H384 C378 0.929 . S
H385 C382 0.930 . S
H386 C374 0.929 . S
H387 C376 0.929 . S
O388 Co363 2.351 1_456 S
O388 C391 1.244 . S
O389 Co363 2.155 1_455 S
O389 C391 1.240 1_554 S
O390 Co363 2.096 . S
O390 C371 1.247 . S
C391 O388 1.244 . S
C391 O389 1.240 1_556 S
H392 C366 0.931 . S
H393 C375 0.931 . S
H394 C379 0.930 . S
H395 C381 0.930 . S
Co396 N400 2.148 . S
Co396 N406 2.128 1_545 S
Co396 N416 2.194 1_545 S
Co396 O421 2.351 1_545 S
Co396 O422 2.155 1_545 S
Co396 O423 2.096 . S
C397 N400 1.301 . S
C397 N401 1.328 . S
C397 H402 0.930 . S
C398 C399 1.333 . S
C398 N400 1.317 . S
C398 H403 0.930 . S
C399 C398 1.333 . S
C399 N401 1.350 . S
C399 H425 0.931 . S
N400 Co396 2.148 . S
N400 C397 1.301 . S
N400 C398 1.317 . S
N401 C397 1.328 . S
N401 C399 1.350 . S
H402 C397 0.930 . S
H403 C398 0.930 . S
C404 O405 1.224 . S
C404 O423 1.247 . S
O405 C404 1.224 . S
N406 Co396 2.128 1_565 S
N406 C407 1.355 . S
N406 C409 1.311 . S
C407 N406 1.355 . S
C407 C408 1.363 . S
C407 H419 0.929 . S
C408 C407 1.363 . S
C408 N410 1.375 . S
C408 H426 0.931 . S
C409 N406 1.311 . S
C409 N410 1.347 . S
C409 H420 0.929 . S
N410 C408 1.375 . S
N410 C409 1.347 . S
C411 C414 1.365 . S
C411 N416 1.328 . S
C411 H417 0.929 . S
C412 C413 1.362 1_545 S
C412 C415 1.377 . S
C412 H427 0.930 . S
C413 C412 1.362 1_565 S
C413 C414 1.366 . S
C414 C411 1.365 . S
C414 C413 1.366 . S
C414 H428 0.930 . S
C415 C412 1.377 . S
C415 N416 1.315 1_545 S
C415 H418 0.930 . S
N416 Co396 2.194 1_565 S
N416 C411 1.328 . S
N416 C415 1.315 1_565 S
H417 C411 0.929 . S
H418 C415 0.930 . S
H419 C407 0.929 . S
H420 C409 0.929 . S
O421 Co396 2.351 1_565 S
O421 C424 1.244 . S
O422 Co396 2.155 1_565 S
O422 C424 1.240 . S
O423 Co396 2.096 . S
O423 C404 1.247 . S
C424 O421 1.244 . S
C424 O422 1.240 . S
H425 C399 0.931 . S
H426 C408 0.931 . S
H427 C412 0.930 . S
H428 C414 0.930 . S
Co429 N433 2.148 . S
Co429 N439 2.128 . S
Co429 N449 2.194 . S
Co429 O454 2.351 . S
Co429 O455 2.155 . S
Co429 O456 2.096 . S
C430 N433 1.301 1_554 S
C430 N434 1.328 . S
C430 H435 0.930 . S
C431 C432 1.333 1_556 S
C431 N433 1.317 . S
C431 H436 0.930 . S
C432 C431 1.333 1_554 S
C432 N434 1.350 . S
C432 H458 0.931 . S
N433 Co429 2.148 . S
N433 C430 1.301 1_556 S
N433 C431 1.317 . S
N434 C430 1.328 . S
N434 C432 1.350 . S
H435 C430 0.930 . S
H436 C431 0.930 . S
C437 O438 1.224 . S
C437 O456 1.247 . S
O438 C437 1.224 . S
N439 Co429 2.128 . S
N439 C440 1.355 . S
N439 C442 1.311 . S
C440 N439 1.355 . S
C440 C441 1.363 . S
C440 H452 0.929 . S
C441 C440 1.363 . S
C441 N443 1.375 . S
C441 H459 0.931 . S
C442 N439 1.311 . S
C442 N443 1.347 . S
C442 H453 0.929 . S
N443 C441 1.375 . S
N443 C442 1.347 . S
C444 C447 1.365 . S
C444 N449 1.328 . S
C444 H450 0.929 1_556 S
C445 C446 1.362 . S
C445 C448 1.378 . S
C445 H460 0.929 . S
C446 C445 1.362 . S
C446 C447 1.366 . S
C447 C444 1.365 . S
C447 C446 1.366 . S
C447 H461 0.930 1_556 S
C448 C445 1.378 . S
C448 N449 1.315 . S
C448 H451 0.930 . S
N449 Co429 2.194 . S
N449 C444 1.328 . S
N449 C448 1.315 . S
H450 C444 0.929 1_554 S
H451 C448 0.930 . S
H452 C440 0.929 . S
H453 C442 0.929 . S
O454 Co429 2.351 . S
O454 C457 1.244 . S
O455 Co429 2.155 . S
O455 C457 1.240 . S
O456 Co429 2.096 . S
O456 C437 1.247 . S
C457 O454 1.244 . S
C457 O455 1.240 . S
H458 C432 0.931 . S
H459 C441 0.931 . S
H460 C445 0.929 . S
H461 C447 0.930 1_554 S
Co462 N466 2.148 . S
Co462 N472 2.128 . S
Co462 N482 2.194 . S
Co462 O487 2.351 . S
Co462 O488 2.155 . S
Co462 O489 2.096 . S
C463 N466 1.301 . S
C463 N467 1.328 . S
C463 H468 0.930 . S
C464 C465 1.333 . S
C464 N466 1.317 . S
C464 H469 0.930 . S
C465 C464 1.333 . S
C465 N467 1.350 . S
C465 H491 0.931 . S
N466 Co462 2.148 . S
N466 C463 1.301 . S
N466 C464 1.317 . S
N467 C463 1.328 . S
N467 C465 1.350 . S
H468 C463 0.930 . S
H469 C464 0.930 . S
C470 O471 1.224 . S
C470 O489 1.247 . S
O471 C470 1.224 . S
N472 Co462 2.128 . S
N472 C473 1.355 . S
N472 C475 1.311 . S
C473 N472 1.355 . S
C473 C474 1.363 . S
C473 H485 0.929 . S
C474 C473 1.363 . S
C474 N476 1.375 . S
C474 H492 0.931 . S
C475 N472 1.311 . S
C475 N476 1.347 . S
C475 H486 0.929 . S
N476 C474 1.375 . S
N476 C475 1.347 . S
C477 C480 1.365 . S
C477 N482 1.328 . S
C477 H483 0.929 . S
C478 C479 1.362 . S
C478 C481 1.378 . S
C478 H493 0.929 . S
C479 C478 1.362 . S
C479 C480 1.366 . S
C480 C477 1.365 . S
C480 C479 1.366 . S
C480 H494 0.930 . S
C481 C478 1.378 . S
C481 N482 1.315 . S
C481 H484 0.930 . S
N482 Co462 2.194 . S
N482 C477 1.328 . S
N482 C481 1.315 . S
H483 C477 0.929 . S
H484 C481 0.930 . S
H485 C473 0.929 . S
H486 C475 0.929 . S
O487 Co462 2.351 . S
O487 C490 1.244 . S
O488 Co462 2.155 . S
O488 C490 1.240 . S
O489 Co462 2.096 . S
O489 C470 1.247 . S
C490 O487 1.244 . S
C490 O488 1.240 . S
H491 C465 0.931 . S
H492 C474 0.931 . S
H493 C478 0.929 . S
H494 C480 0.930 . S
Co495 N499 2.148 . S
Co495 N505 2.128 . S
Co495 N515 2.194 . S
Co495 O520 2.351 . S
Co495 O521 2.155 . S
Co495 O522 2.096 . S
C496 N499 1.301 1_554 S
C496 N500 1.328 . S
C496 H501 0.930 . S
C497 C498 1.333 1_556 S
C497 N499 1.317 . S
C497 H502 0.930 . S
C498 C497 1.333 1_554 S
C498 N500 1.350 . S
C498 H524 0.931 . S
N499 Co495 2.148 . S
N499 C496 1.301 1_556 S
N499 C497 1.317 . S
N500 C496 1.328 . S
N500 C498 1.350 . S
H501 C496 0.930 . S
H502 C497 0.930 . S
C503 O504 1.224 . S
C503 O522 1.247 . S
O504 C503 1.224 . S
N505 Co495 2.128 . S
N505 C506 1.355 1_455 S
N505 C508 1.311 . S
C506 N505 1.355 1_655 S
C506 C507 1.363 . S
C506 H518 0.929 . S
C507 C506 1.363 . S
C507 N509 1.375 . S
C507 H525 0.931 . S
C508 N505 1.311 . S
C508 N509 1.347 1_455 S
C508 H519 0.929 . S
N509 C507 1.375 . S
N509 C508 1.347 1_655 S
C510 C513 1.365 . S
C510 N515 1.328 . S
C510 H516 0.929 1_556 S
C511 C512 1.362 . S
C511 C514 1.378 . S
C511 H526 0.929 . S
C512 C511 1.362 . S
C512 C513 1.366 . S
C513 C510 1.365 . S
C513 C512 1.366 . S
C513 H527 0.930 1_556 S
C514 C511 1.378 . S
C514 N515 1.315 . S
C514 H517 0.930 . S
N515 Co495 2.194 . S
N515 C510 1.328 . S
N515 C514 1.315 . S
H516 C510 0.929 1_554 S
H517 C514 0.930 . S
H518 C506 0.929 . S
H519 C508 0.929 . S
O520 Co495 2.351 . S
O520 C523 1.244 . S
O521 Co495 2.155 . S
O521 C523 1.240 . S
O522 Co495 2.096 . S
O522 C503 1.247 . S
C523 O520 1.244 . S
C523 O521 1.240 . S
H524 C498 0.931 . S
H525 C507 0.931 . S
H526 C511 0.929 . S
H527 C513 0.930 1_554 S
C528 C529 1.391 . S
C528 C530 1.394 . S
C528 H544 0.931 . S
C529 C528 1.391 . S
C529 C533 1.376 1_565 S
C530 C528 1.394 . S
C530 C531 1.369 . S
C530 C534 1.531 . S
C531 C530 1.369 . S
C531 C532 1.410 1_565 S
C531 C539 1.503 1_665 S
C532 C531 1.410 1_545 S
C532 C533 1.392 . S
C532 C535 1.511 . S
C533 C529 1.376 1_545 S
C533 C532 1.392 . S
C533 H545 0.929 . S
C534 C530 1.531 . S
C534 H546 0.960 1_655 S
C534 H547 0.962 . S
C534 H548 0.960 . S
C535 C532 1.511 . S
C535 H549 0.961 . S
C535 H550 0.961 1_655 S
C535 H551 0.961 . S
C536 C537 1.370 . S
C536 C538 1.363 . S
C536 H552 0.931 . S
C537 C536 1.370 . S
C537 C541 1.408 . S
C538 C536 1.363 . S
C538 C539 1.370 . S
C538 C542 1.524 1_545 S
C539 C531 1.503 1_445 S
C539 C538 1.370 . S
C539 C540 1.403 . S
C540 C539 1.403 . S
C540 C541 1.404 . S
C540 C543 1.539 . S
C541 C537 1.408 . S
C541 C540 1.404 . S
C541 H553 0.930 . S
C542 C538 1.524 1_565 S
C542 H554 0.944 1_455 S
C542 H555 0.961 1_465 S
C542 H556 0.961 . S
C543 C540 1.539 . S
C543 H557 0.958 1_545 S
C543 H558 0.961 . S
C543 H559 0.960 . S
H544 C528 0.931 . S
H545 C533 0.929 . S
H546 C534 0.960 1_455 S
H547 C534 0.962 . S
H548 C534 0.960 . S
H549 C535 0.961 . S
H550 C535 0.961 1_455 S
H551 C535 0.961 . S
H552 C536 0.931 . S
H553 C541 0.930 . S
H554 C542 0.944 1_655 S
H555 C542 0.961 1_645 S
H556 C542 0.961 . S
H557 C543 0.958 1_565 S
H558 C543 0.961 . S
H559 C543 0.960 . S
C560 C561 1.391 1_556 S
C560 C562 1.394 . S
C560 H576 0.931 . S
C561 C560 1.391 1_554 S
C561 C565 1.376 . S
C562 C560 1.394 . S
C562 C563 1.369 . S
C562 C566 1.531 . S
C563 C562 1.369 . S
C563 C564 1.410 1_556 S
C563 C571 1.503 1_545 S
C564 C563 1.410 1_554 S
C564 C565 1.392 . S
C564 C567 1.511 1_545 S
C565 C561 1.376 . S
C565 C564 1.392 . S
C565 H577 0.929 . S
C566 C562 1.531 . S
C566 H578 0.960 . S
C566 H579 0.962 . S
C566 H580 0.960 . S
C567 C564 1.511 1_565 S
C567 H581 0.964 . S
C567 H582 0.961 . S
C567 H583 0.961 . S
C568 C569 1.370 1_554 S
C568 C570 1.363 . S
C568 H584 0.931 . S
C569 C568 1.370 1_556 S
C569 C573 1.408 . S
C570 C568 1.363 . S
C570 C571 1.370 1_554 S
C570 C574 1.524 . S
C571 C563 1.503 1_565 S
C571 C570 1.370 1_556 S
C571 C572 1.403 . S
C572 C571 1.403 . S
C572 C573 1.404 . S
C572 C575 1.539 . S
C573 C569 1.408 . S
C573 C572 1.404 . S
C573 H585 0.930 . S
C574 C570 1.524 . S
C574 H586 0.956 1_565 S
C574 H587 0.961 . S
C574 H588 0.961 . S
C575 C572 1.539 . S
C575 H589 0.958 . S
C575 H590 0.961 . S
C575 H591 0.960 . S
H576 C560 0.931 . S
H577 C565 0.929 . S
H578 C566 0.960 . S
H579 C566 0.962 . S
H580 C566 0.960 . S
H581 C567 0.964 . S
H582 C567 0.961 . S
H583 C567 0.961 . S
H584 C568 0.931 . S
H585 C573 0.930 . S
H586 C574 0.956 1_545 S
H587 C574 0.961 . S
H588 C574 0.961 . S
H589 C575 0.958 . S
H590 C575 0.961 . S
H591 C575 0.960 . S
C592 C593 1.391 . S
C592 C594 1.394 . S
C592 H608 0.931 . S
C593 C592 1.391 . S
C593 C597 1.376 . S
C594 C592 1.394 . S
C594 C595 1.369 . S
C594 C598 1.531 . S
C595 C594 1.369 . S
C595 C596 1.410 . S
C595 C603 1.503 . S
C596 C595 1.410 . S
C596 C597 1.392 . S
C596 C599 1.511 . S
C597 C593 1.376 . S
C597 C596 1.392 . S
C597 H609 0.929 . S
C598 C594 1.531 . S
C598 H610 0.960 . S
C598 H611 0.962 . S
C598 H612 0.960 . S
C599 C596 1.511 . S
C599 H613 0.961 . S
C599 H614 0.961 . S
C599 H615 0.961 . S
C600 C601 1.370 . S
C600 C602 1.363 . S
C600 H616 0.931 . S
C601 C600 1.370 . S
C601 C605 1.408 . S
C602 C600 1.363 . S
C602 C603 1.370 . S
C602 C606 1.524 . S
C603 C595 1.503 . S
C603 C602 1.370 . S
C603 C604 1.403 . S
C604 C603 1.403 . S
C604 C605 1.404 . S
C604 C607 1.539 . S
C605 C601 1.408 . S
C605 C604 1.404 . S
C605 H617 0.930 . S
C606 C602 1.524 . S
C606 H618 0.956 . S
C606 H619 0.961 . S
C606 H620 0.961 . S
C607 C604 1.539 . S
C607 H621 0.958 . S
C607 H622 0.961 . S
C607 H623 0.960 . S
H608 C592 0.931 . S
H609 C597 0.929 . S
H610 C598 0.960 . S
H611 C598 0.962 . S
H612 C598 0.960 . S
H613 C599 0.961 . S
H614 C599 0.961 . S
H615 C599 0.961 . S
H616 C600 0.931 . S
H617 C605 0.930 . S
H618 C606 0.956 . S
H619 C606 0.961 . S
H620 C606 0.961 . S
H621 C607 0.958 . S
H622 C607 0.961 . S
H623 C607 0.960 . S
C624 C625 1.391 . S
C624 C626 1.394 1_455 S
C624 H640 0.931 1_455 S
C625 C624 1.391 . S
C625 C629 1.376 . S
C626 C624 1.394 1_655 S
C626 C627 1.369 1_655 S
C626 C630 1.531 . S
C627 C626 1.369 1_455 S
C627 C628 1.410 1_556 S
C627 C635 1.503 1_455 S
C628 C627 1.410 1_554 S
C628 C629 1.392 1_554 S
C628 C631 1.511 . S
C629 C625 1.376 . S
C629 C628 1.392 1_556 S
C629 H641 0.929 1_556 S
C630 C626 1.531 . S
C630 H642 0.960 . S
C630 H643 0.962 . S
C630 H644 0.960 . S
C631 C628 1.511 . S
C631 H645 0.961 . S
C631 H646 0.961 . S
C631 H647 0.961 . S
C632 C633 1.370 . S
C632 C634 1.363 . S
C632 H648 0.931 . S
C633 C632 1.370 . S
C633 C637 1.408 1_554 S
C634 C632 1.363 . S
C634 C635 1.370 1_554 S
C634 C638 1.524 . S
C635 C627 1.503 1_655 S
C635 C634 1.370 1_556 S
C635 C636 1.403 . S
C636 C635 1.403 . S
C636 C637 1.404 . S
C636 C639 1.539 1_655 S
C637 C633 1.408 1_556 S
C637 C636 1.404 . S
C637 H649 0.930 . S
C638 C634 1.524 . S
C638 H650 0.956 . S
C638 H651 0.961 . S
C638 H652 0.961 . S
C639 C636 1.539 1_455 S
C639 H653 0.958 . S
C639 H654 0.961 . S
C639 H655 0.960 . S
H640 C624 0.931 1_655 S
H641 C629 0.929 1_554 S
H642 C630 0.960 . S
H643 C630 0.962 . S
H644 C630 0.960 . S
H645 C631 0.961 . S
H646 C631 0.961 . S
H647 C631 0.961 . S
H648 C632 0.931 . S
H649 C637 0.930 . S
H650 C638 0.956 . S
H651 C638 0.961 . S
H652 C638 0.961 . S
H653 C639 0.958 . S
H654 C639 0.961 . S
H655 C639 0.960 . S
C656 C657 1.391 . S
C656 C658 1.394 . S
C656 H672 0.931 . S
C657 C656 1.391 . S
C657 C661 1.376 . S
C658 C656 1.394 . S
C658 C659 1.369 . S
C658 C662 1.531 . S
C659 C658 1.369 . S
C659 C660 1.410 1_545 S
C659 C667 1.503 1_545 S
C660 C659 1.410 1_565 S
C660 C661 1.392 1_565 S
C660 C663 1.511 . S
C661 C657 1.376 . S
C661 C660 1.392 1_545 S
C661 H673 0.929 . S
C662 C658 1.531 . S
C662 H674 0.960 . S
C662 H675 0.962 . S
C662 H676 0.960 . S
C663 C660 1.511 . S
C663 H677 0.961 . S
C663 H678 0.961 . S
C663 H679 0.961 . S
C664 C665 1.370 . S
C664 C666 1.363 1_565 S
C664 H680 0.931 1_565 S
C665 C664 1.370 . S
C665 C669 1.408 . S
C666 C664 1.363 1_545 S
C666 C667 1.370 1_545 S
C666 C670 1.524 . S
C667 C659 1.503 1_565 S
C667 C666 1.370 1_565 S
C667 C668 1.403 . S
C668 C667 1.403 . S
C668 C669 1.404 . S
C668 C671 1.539 . S
C669 C665 1.408 . S
C669 C668 1.404 . S
C669 H681 0.930 . S
C670 C666 1.524 . S
C670 H682 0.956 . S
C670 H683 0.961 . S
C670 H684 0.961 . S
C671 C668 1.539 . S
C671 H685 0.958 . S
C671 H686 0.961 . S
C671 H687 0.960 . S
H672 C656 0.931 . S
H673 C661 0.929 . S
H674 C662 0.960 . S
H675 C662 0.962 . S
H676 C662 0.960 . S
H677 C663 0.961 . S
H678 C663 0.961 . S
H679 C663 0.961 . S
H680 C664 0.931 1_545 S
H681 C669 0.930 . S
H682 C670 0.956 . S
H683 C670 0.961 . S
H684 C670 0.961 . S
H685 C671 0.958 . S
H686 C671 0.961 . S
H687 C671 0.960 . S
C688 C689 1.391 . S
C688 C690 1.394 . S
C688 H704 0.931 . S
C689 C688 1.391 . S
C689 C693 1.376 1_554 S
C690 C688 1.394 . S
C690 C691 1.369 . S
C690 C694 1.531 . S
C691 C690 1.369 . S
C691 C692 1.410 1_554 S
C691 C699 1.503 . S
C692 C691 1.410 1_556 S
C692 C693 1.392 . S
C692 C695 1.511 . S
C693 C689 1.376 1_556 S
C693 C692 1.392 . S
C693 H705 0.929 . S
C694 C690 1.531 . S
C694 H706 0.960 . S
C694 H707 0.962 . S
C694 H708 0.960 . S
C695 C692 1.511 . S
C695 H709 0.961 . S
C695 H710 0.961 . S
C695 H711 0.961 1_556 S
C696 C697 1.370 1_556 S
C696 C698 1.363 . S
C696 H712 0.931 . S
C697 C696 1.370 1_554 S
C697 C701 1.408 . S
C698 C696 1.363 . S
C698 C699 1.370 1_556 S
C698 C702 1.524 . S
C699 C691 1.503 . S
C699 C698 1.370 1_554 S
C699 C700 1.403 . S
C700 C699 1.403 . S
C700 C701 1.404 . S
C700 C703 1.539 . S
C701 C697 1.408 . S
C701 C700 1.404 . S
C701 H713 0.930 . S
C702 C698 1.524 . S
C702 H714 0.956 . S
C702 H715 0.961 . S
C702 H716 0.961 . S
C703 C700 1.539 . S
C703 H717 0.958 . S
C703 H718 0.961 . S
C703 H719 0.960 . S
H704 C688 0.931 . S
H705 C693 0.929 . S
H706 C694 0.960 . S
H707 C694 0.962 . S
H708 C694 0.960 . S
H709 C695 0.961 . S
H710 C695 0.961 . S
H711 C695 0.961 1_554 S
H712 C696 0.931 . S
H713 C701 0.930 . S
H714 C702 0.956 . S
H715 C702 0.961 . S
H716 C702 0.961 . S
H717 C703 0.958 . S
H718 C703 0.961 . S
H719 C703 0.960 . S
C720 C721 1.391 . S
C720 C722 1.394 . S
C720 H736 0.931 . S
C721 C720 1.391 . S
C721 C725 1.376 . S
C722 C720 1.394 . S
C722 C723 1.369 . S
C722 C726 1.531 . S
C723 C722 1.369 . S
C723 C724 1.410 . S
C723 C731 1.503 1_655 S
C724 C723 1.410 . S
C724 C725 1.392 . S
C724 C727 1.511 . S
C725 C721 1.376 . S
C725 C724 1.392 . S
C725 H737 0.929 . S
C726 C722 1.531 . S
C726 H738 0.960 1_655 S
C726 H739 0.962 . S
C726 H740 0.960 . S
C727 C724 1.511 . S
C727 H741 0.961 . S
C727 H742 0.961 1_655 S
C727 H743 0.961 1_655 S
C728 C729 1.370 . S
C728 C730 1.363 . S
C728 H744 0.931 . S
C729 C728 1.370 . S
C729 C733 1.408 . S
C730 C728 1.363 . S
C730 C731 1.370 . S
C730 C734 1.524 1_455 S
C731 C723 1.503 1_455 S
C731 C730 1.370 . S
C731 C732 1.403 . S
C732 C731 1.403 . S
C732 C733 1.404 . S
C732 C735 1.539 . S
C733 C729 1.408 . S
C733 C732 1.404 . S
C733 H745 0.930 . S
C734 C730 1.524 1_655 S
C734 H746 0.956 . S
C734 H747 0.961 . S
C734 H748 0.961 . S
C735 C732 1.539 . S
C735 H749 0.958 . S
C735 H750 0.961 . S
C735 H751 0.960 . S
H736 C720 0.931 . S
H737 C725 0.929 . S
H738 C726 0.960 1_455 S
H739 C726 0.962 . S
H740 C726 0.960 . S
H741 C727 0.961 . S
H742 C727 0.961 1_455 S
H743 C727 0.961 1_455 S
H744 C728 0.931 . S
H745 C733 0.930 . S
H746 C734 0.956 . S
H747 C734 0.961 . S
H748 C734 0.961 . S
H749 C735 0.958 . S
H750 C735 0.961 . S
H751 C735 0.960 . S
C752 C753 1.389 1_455 S
C752 C754 1.393 . S
C752 H768 0.932 . S
C753 C752 1.389 1_655 S
C753 C757 1.376 1_556 S
C754 C752 1.393 . S
C754 C755 1.369 1_455 S
C754 C758 1.531 . S
C755 C754 1.369 1_655 S
C755 C756 1.410 1_556 S
C755 C763 1.504 1_665 S
C756 C755 1.410 1_554 S
C756 C757 1.392 . S
C756 C759 1.511 . S
C757 C753 1.376 1_554 S
C757 C756 1.392 . S
C757 H769 0.929 . S
C758 C754 1.531 . S
C758 H770 0.960 1_565 S
C758 H771 0.962 . S
C758 H772 0.960 . S
C759 C756 1.511 . S
C759 H773 0.961 . S
C759 H774 0.943 1_565 S
C759 H775 0.961 . S
C760 C761 1.370 . S
C760 C762 1.363 . S
C760 H776 0.931 . S
C761 C760 1.370 . S
C761 C765 1.408 1_454 S
C762 C760 1.363 . S
C762 C763 1.396 1_554 S
C762 C766 1.524 . S
C763 C755 1.504 1_445 S
C763 C762 1.396 1_556 S
C763 C764 1.378 1_455 S
C764 C763 1.378 1_655 S
C764 C765 1.404 . S
C764 C767 1.539 . S
C765 C761 1.408 1_656 S
C765 C764 1.404 . S
C765 H777 0.930 . S
C766 C762 1.524 . S
C766 H778 0.956 . S
C766 H779 0.961 1_545 S
C766 H780 0.961 . S
C767 C764 1.539 . S
C767 H781 0.958 . S
C767 H782 0.961 . S
C767 H783 0.965 . S
H768 C752 0.932 . S
H769 C757 0.929 . S
H770 C758 0.960 1_545 S
H771 C758 0.962 . S
H772 C758 0.960 . S
H773 C759 0.961 . S
H774 C759 0.943 1_545 S
H775 C759 0.961 . S
H776 C760 0.931 . S
H777 C765 0.930 . S
H778 C766 0.956 . S
H779 C766 0.961 1_565 S
H780 C766 0.961 . S
H781 C767 0.958 . S
H782 C767 0.961 . S
H783 C767 0.965 . S
C784 C785 1.391 . S
C784 C786 1.394 . S
C784 H800 0.931 . S
C785 C784 1.391 . S
C785 C789 1.376 . S
C786 C784 1.394 . S
C786 C787 1.369 . S
C786 C790 1.531 . S
C787 C786 1.369 . S
C787 C788 1.410 . S
C787 C795 1.503 . S
C788 C787 1.410 . S
C788 C789 1.392 . S
C788 C791 1.511 . S
C789 C785 1.376 . S
C789 C788 1.392 . S
C789 H801 0.929 . S
C790 C786 1.531 . S
C790 H802 0.960 . S
C790 H803 0.962 . S
C790 H804 0.960 . S
C791 C788 1.511 . S
C791 H805 0.961 . S
C791 H806 0.961 . S
C791 H807 0.961 . S
C792 C793 1.370 . S
C792 C794 1.363 . S
C792 H808 0.931 . S
C793 C792 1.370 . S
C793 C797 1.408 . S
C794 C792 1.363 . S
C794 C795 1.370 . S
C794 C798 1.524 . S
C795 C787 1.503 . S
C795 C794 1.370 . S
C795 C796 1.403 . S
C796 C795 1.403 . S
C796 C797 1.404 . S
C796 C799 1.539 . S
C797 C793 1.408 . S
C797 C796 1.404 . S
C797 H809 0.930 . S
C798 C794 1.524 . S
C798 H810 0.956 . S
C798 H811 0.961 . S
C798 H812 0.961 . S
C799 C796 1.539 . S
C799 H813 0.958 . S
C799 H814 0.961 . S
C799 H815 0.960 . S
H800 C784 0.931 . S
H801 C789 0.929 . S
H802 C790 0.960 . S
H803 C790 0.962 . S
H804 C790 0.960 . S
H805 C791 0.961 . S
H806 C791 0.961 . S
H807 C791 0.961 . S
H808 C792 0.931 . S
H809 C797 0.930 . S
H810 C798 0.956 . S
H811 C798 0.961 . S
H812 C798 0.961 . S
H813 C799 0.958 . S
H814 C799 0.961 . S
H815 C799 0.960 . S
C816 C817 1.391 . S
C816 C818 1.394 . S
C816 H832 0.931 . S
C817 C816 1.391 . S
C817 C821 1.376 . S
C818 C816 1.394 . S
C818 C819 1.369 . S
C818 C822 1.531 . S
C819 C818 1.369 . S
C819 C820 1.410 . S
C819 C827 1.503 . S
C820 C819 1.410 . S
C820 C821 1.392 . S
C820 C823 1.511 . S
C821 C817 1.376 . S
C821 C820 1.392 . S
C821 H833 0.929 . S
C822 C818 1.531 . S
C822 H834 0.960 . S
C822 H835 0.962 . S
C822 H836 0.960 . S
C823 C820 1.511 . S
C823 H837 0.961 . S
C823 H838 0.961 . S
C823 H839 0.961 . S
C824 C825 1.370 . S
C824 C826 1.363 . S
C824 H840 0.931 . S
C825 C824 1.370 . S
C825 C829 1.408 . S
C826 C824 1.363 . S
C826 C827 1.370 . S
C826 C830 1.524 . S
C827 C819 1.503 . S
C827 C826 1.370 . S
C827 C828 1.403 . S
C828 C827 1.403 . S
C828 C829 1.404 . S
C828 C831 1.539 . S
C829 C825 1.408 . S
C829 C828 1.404 . S
C829 H841 0.930 . S
C830 C826 1.524 . S
C830 H842 0.956 . S
C830 H843 0.961 . S
C830 H844 0.961 . S
C831 C828 1.539 . S
C831 H845 0.958 . S
C831 H846 0.961 . S
C831 H847 0.960 . S
H832 C816 0.931 . S
H833 C821 0.929 . S
H834 C822 0.960 . S
H835 C822 0.962 . S
H836 C822 0.960 . S
H837 C823 0.961 . S
H838 C823 0.961 . S
H839 C823 0.961 . S
H840 C824 0.931 . S
H841 C829 0.930 . S
H842 C830 0.956 . S
H843 C830 0.961 . S
H844 C830 0.961 . S
H845 C831 0.958 . S
H846 C831 0.961 . S
H847 C831 0.960 . S
C848 C849 1.391 . S
C848 C850 1.394 . S
C848 H864 0.931 . S
C849 C848 1.391 . S
C849 C853 1.376 . S
C850 C848 1.394 . S
C850 C851 1.369 . S
C850 C854 1.531 . S
C851 C850 1.369 . S
C851 C852 1.410 . S
C851 C859 1.503 . S
C852 C851 1.410 . S
C852 C853 1.392 . S
C852 C855 1.511 . S
C853 C849 1.376 . S
C853 C852 1.392 . S
C853 H865 0.929 . S
C854 C850 1.531 . S
C854 H866 0.960 . S
C854 H867 0.962 . S
C854 H868 0.960 . S
C855 C852 1.511 . S
C855 H869 0.961 . S
C855 H870 0.961 . S
C855 H871 0.961 . S
C856 C857 1.370 . S
C856 C858 1.363 . S
C856 H872 0.931 . S
C857 C856 1.370 . S
C857 C861 1.408 . S
C858 C856 1.363 . S
C858 C859 1.370 . S
C858 C862 1.524 . S
C859 C851 1.503 . S
C859 C858 1.370 . S
C859 C860 1.403 . S
C860 C859 1.403 . S
C860 C861 1.404 . S
C860 C863 1.539 . S
C861 C857 1.408 . S
C861 C860 1.404 . S
C861 H873 0.930 . S
C862 C858 1.524 . S
C862 H874 0.956 . S
C862 H875 0.961 . S
C862 H876 0.961 . S
C863 C860 1.539 . S
C863 H877 0.958 . S
C863 H878 0.961 . S
C863 H879 0.960 . S
H864 C848 0.931 . S
H865 C853 0.929 . S
H866 C854 0.960 . S
H867 C854 0.962 . S
H868 C854 0.960 . S
H869 C855 0.961 . S
H870 C855 0.961 . S
H871 C855 0.961 . S
H872 C856 0.931 . S
H873 C861 0.930 . S
H874 C862 0.956 . S
H875 C862 0.961 . S
H876 C862 0.961 . S
H877 C863 0.958 . S
H878 C863 0.961 . S
H879 C863 0.960 . S
C880 C881 1.391 . S
C880 C882 1.394 . S
C880 H896 0.931 . S
C881 C880 1.391 . S
C881 C885 1.376 . S
C882 C880 1.394 . S
C882 C883 1.369 . S
C882 C886 1.531 . S
C883 C882 1.369 . S
C883 C884 1.410 . S
C883 C891 1.503 . S
C884 C883 1.410 . S
C884 C885 1.392 . S
C884 C887 1.511 . S
C885 C881 1.376 . S
C885 C884 1.392 . S
C885 H897 0.929 . S
C886 C882 1.531 . S
C886 H898 0.960 . S
C886 H899 0.962 . S
C886 H900 0.960 . S
C887 C884 1.511 . S
C887 H901 0.961 . S
C887 H902 0.961 . S
C887 H903 0.961 . S
C888 C889 1.370 . S
C888 C890 1.363 . S
C888 H904 0.931 . S
C889 C888 1.370 . S
C889 C893 1.408 . S
C890 C888 1.363 . S
C890 C891 1.370 . S
C890 C894 1.524 . S
C891 C883 1.503 . S
C891 C890 1.370 . S
C891 C892 1.403 . S
C892 C891 1.403 . S
C892 C893 1.404 . S
C892 C895 1.539 . S
C893 C889 1.408 . S
C893 C892 1.404 . S
C893 H905 0.930 . S
C894 C890 1.524 . S
C894 H906 0.956 . S
C894 H907 0.961 . S
C894 H908 0.961 . S
C895 C892 1.539 . S
C895 H909 0.958 . S
C895 H910 0.961 . S
C895 H911 0.960 . S
H896 C880 0.931 . S
H897 C885 0.929 . S
H898 C886 0.960 . S
H899 C886 0.962 . S
H900 C886 0.960 . S
H901 C887 0.961 . S
H902 C887 0.961 . S
H903 C887 0.961 . S
H904 C888 0.931 . S
H905 C893 0.930 . S
H906 C894 0.956 . S
H907 C894 0.961 . S
H908 C894 0.961 . S
H909 C895 0.958 . S
H910 C895 0.961 . S
H911 C895 0.960 . S
C912 C913 1.391 . S
C912 C914 1.394 . S
C912 H928 0.931 . S
C913 C912 1.391 . S
C913 C917 1.376 . S
C914 C912 1.394 . S
C914 C915 1.369 . S
C914 C918 1.531 . S
C915 C914 1.369 . S
C915 C916 1.410 . S
C915 C923 1.503 . S
C916 C915 1.410 . S
C916 C917 1.392 . S
C916 C919 1.511 . S
C917 C913 1.376 . S
C917 C916 1.392 . S
C917 H929 0.929 . S
C918 C914 1.531 . S
C918 H930 0.960 . S
C918 H931 0.962 . S
C918 H932 0.960 . S
C919 C916 1.511 . S
C919 H933 0.961 . S
C919 H934 0.961 . S
C919 H935 0.961 . S
C920 C921 1.370 . S
C920 C922 1.363 . S
C920 H936 0.931 . S
C921 C920 1.370 . S
C921 C925 1.408 . S
C922 C920 1.363 . S
C922 C923 1.370 . S
C922 C926 1.524 . S
C923 C915 1.503 . S
C923 C922 1.370 . S
C923 C924 1.403 . S
C924 C923 1.403 . S
C924 C925 1.404 . S
C924 C927 1.539 . S
C925 C921 1.408 . S
C925 C924 1.404 . S
C925 H937 0.930 . S
C926 C922 1.524 . S
C926 H938 0.956 . S
C926 H939 0.961 . S
C926 H940 0.961 . S
C927 C924 1.539 . S
C927 H941 0.958 . S
C927 H942 0.961 . S
C927 H943 0.960 . S
H928 C912 0.931 . S
H929 C917 0.929 . S
H930 C918 0.960 . S
H931 C918 0.962 . S
H932 C918 0.960 . S
H933 C919 0.961 . S
H934 C919 0.961 . S
H935 C919 0.961 . S
H936 C920 0.931 . S
H937 C925 0.930 . S
H938 C926 0.956 . S
H939 C926 0.961 . S
H940 C926 0.961 . S
H941 C927 0.958 . S
H942 C927 0.961 . S
H943 C927 0.960 . S
C944 C945 1.391 . S
C944 C946 1.394 . S
C944 H960 0.931 . S
C945 C944 1.391 . S
C945 C949 1.376 . S
C946 C944 1.394 . S
C946 C947 1.369 . S
C946 C950 1.531 . S
C947 C946 1.369 . S
C947 C948 1.410 . S
C947 C955 1.503 . S
C948 C947 1.410 . S
C948 C949 1.392 . S
C948 C951 1.511 . S
C949 C945 1.376 . S
C949 C948 1.392 . S
C949 H961 0.929 . S
C950 C946 1.531 . S
C950 H962 0.960 . S
C950 H963 0.962 . S
C950 H964 0.960 . S
C951 C948 1.511 . S
C951 H965 0.961 . S
C951 H966 0.961 . S
C951 H967 0.961 . S
C952 C953 1.370 . S
C952 C954 1.363 . S
C952 H968 0.931 . S
C953 C952 1.370 . S
C953 C957 1.408 . S
C954 C952 1.363 . S
C954 C955 1.370 . S
C954 C958 1.524 . S
C955 C947 1.503 . S
C955 C954 1.370 . S
C955 C956 1.403 . S
C956 C955 1.403 . S
C956 C957 1.404 . S
C956 C959 1.539 . S
C957 C953 1.408 . S
C957 C956 1.404 . S
C957 H969 0.930 . S
C958 C954 1.524 . S
C958 H970 0.956 . S
C958 H971 0.961 . S
C958 H972 0.961 . S
C959 C956 1.539 . S
C959 H973 0.958 . S
C959 H974 0.961 . S
C959 H975 0.960 . S
H960 C944 0.931 . S
H961 C949 0.929 . S
H962 C950 0.960 . S
H963 C950 0.962 . S
H964 C950 0.960 . S
H965 C951 0.961 . S
H966 C951 0.961 . S
H967 C951 0.961 . S
H968 C952 0.931 . S
H969 C957 0.930 . S
H970 C958 0.956 . S
H971 C958 0.961 . S
H972 C958 0.961 . S
H973 C959 0.958 . S
H974 C959 0.961 . S
H975 C959 0.960 . S
C976 C977 1.391 . S
C976 C978 1.394 . S
C976 H992 0.931 . S
C977 C976 1.391 . S
C977 C981 1.376 . S
C978 C976 1.394 . S
C978 C979 1.369 . S
C978 C982 1.531 . S
C979 C978 1.369 . S
C979 C980 1.410 . S
C979 C987 1.503 . S
C980 C979 1.410 . S
C980 C981 1.392 . S
C980 C983 1.511 . S
C981 C977 1.376 . S
C981 C980 1.392 . S
C981 H993 0.929 . S
C982 C978 1.531 . S
C982 H994 0.960 . S
C982 H995 0.962 . S
C982 H996 0.960 . S
C983 C980 1.511 . S
C983 H997 0.961 . S
C983 H998 0.961 . S
C983 H999 0.961 . S
C984 C985 1.370 . S
C984 C986 1.363 . S
C984 H1000 0.931 . S
C985 C984 1.370 . S
C985 C989 1.408 . S
C986 C984 1.363 . S
C986 C987 1.370 . S
C986 C990 1.524 . S
C987 C979 1.503 . S
C987 C986 1.370 . S
C987 C988 1.403 . S
C988 C987 1.403 . S
C988 C989 1.404 . S
C988 C991 1.539 . S
C989 C985 1.408 . S
C989 C988 1.404 . S
C989 H1001 0.930 . S
C990 C986 1.524 . S
C990 H1002 0.956 . S
C990 H1003 0.961 . S
C990 H1004 0.961 . S
C991 C988 1.539 . S
C991 H1005 0.958 . S
C991 H1006 0.961 . S
C991 H1007 0.960 . S
H992 C976 0.931 . S
H993 C981 0.929 . S
H994 C982 0.960 . S
H995 C982 0.962 . S
H996 C982 0.960 . S
H997 C983 0.961 . S
H998 C983 0.961 . S
H999 C983 0.961 . S
H1000 C984 0.931 . S
H1001 C989 0.930 . S
H1002 C990 0.956 . S
H1003 C990 0.961 . S
H1004 C990 0.961 . S
H1005 C991 0.958 . S
H1006 C991 0.961 . S
H1007 C991 0.960 . S
C1008 C1009 1.391 . S
C1008 C1010 1.394 . S
C1008 H1024 0.931 . S
C1009 C1008 1.391 . S
C1009 C1013 1.376 . S
C1010 C1008 1.394 . S
C1010 C1011 1.369 . S
C1010 C1014 1.531 . S
C1011 C1010 1.369 . S
C1011 C1012 1.410 . S
C1011 C1019 1.503 . S
C1012 C1011 1.410 . S
C1012 C1013 1.392 . S
C1012 C1015 1.511 . S
C1013 C1009 1.376 . S
C1013 C1012 1.392 . S
C1013 H1025 0.929 . S
C1014 C1010 1.531 . S
C1014 H1026 0.960 . S
C1014 H1027 0.962 . S
C1014 H1028 0.960 . S
C1015 C1012 1.511 . S
C1015 H1029 0.961 . S
C1015 H1030 0.961 . S
C1015 H1031 0.961 . S
C1016 C1017 1.370 . S
C1016 C1018 1.363 . S
C1016 H1032 0.931 . S
C1017 C1016 1.370 . S
C1017 C1021 1.408 . S
C1018 C1016 1.363 . S
C1018 C1019 1.370 . S
C1018 C1022 1.524 . S
C1019 C1011 1.503 . S
C1019 C1018 1.370 . S
C1019 C1020 1.403 . S
C1020 C1019 1.403 . S
C1020 C1021 1.404 . S
C1020 C1023 1.539 . S
C1021 C1017 1.408 . S
C1021 C1020 1.404 . S
C1021 H1033 0.930 . S
C1022 C1018 1.524 . S
C1022 H1034 0.956 . S
C1022 H1035 0.961 . S
C1022 H1036 0.961 . S
C1023 C1020 1.539 . S
C1023 H1037 0.958 . S
C1023 H1038 0.961 . S
C1023 H1039 0.960 . S
H1024 C1008 0.931 . S
H1025 C1013 0.929 . S
H1026 C1014 0.960 . S
H1027 C1014 0.962 . S
H1028 C1014 0.960 . S
H1029 C1015 0.961 . S
H1030 C1015 0.961 . S
H1031 C1015 0.961 . S
H1032 C1016 0.931 . S
H1033 C1021 0.930 . S
H1034 C1022 0.956 . S
H1035 C1022 0.961 . S
H1036 C1022 0.961 . S
H1037 C1023 0.958 . S
H1038 C1023 0.961 . S
H1039 C1023 0.960 . S
C1040 C1041 1.391 . S
C1040 C1042 1.394 . S
C1040 H1056 0.931 . S
C1041 C1040 1.391 . S
C1041 C1045 1.376 . S
C1042 C1040 1.394 . S
C1042 C1043 1.369 . S
C1042 C1046 1.531 . S
C1043 C1042 1.369 . S
C1043 C1044 1.410 . S
C1043 C1051 1.503 . S
C1044 C1043 1.410 . S
C1044 C1045 1.392 . S
C1044 C1047 1.511 . S
C1045 C1041 1.376 . S
C1045 C1044 1.392 . S
C1045 H1057 0.929 . S
C1046 C1042 1.531 . S
C1046 H1058 0.960 . S
C1046 H1059 0.962 . S
C1046 H1060 0.960 . S
C1047 C1044 1.511 . S
C1047 H1061 0.961 . S
C1047 H1062 0.961 . S
C1047 H1063 0.961 . S
C1048 C1049 1.370 . S
C1048 C1050 1.363 . S
C1048 H1064 0.931 . S
C1049 C1048 1.370 . S
C1049 C1053 1.408 . S
C1050 C1048 1.363 . S
C1050 C1051 1.370 . S
C1050 C1054 1.524 . S
C1051 C1043 1.503 . S
C1051 C1050 1.370 . S
C1051 C1052 1.403 . S
C1052 C1051 1.403 . S
C1052 C1053 1.404 . S
C1052 C1055 1.539 . S
C1053 C1049 1.408 . S
C1053 C1052 1.404 . S
C1053 H1065 0.930 . S
C1054 C1050 1.524 . S
C1054 H1066 0.956 . S
C1054 H1067 0.961 . S
C1054 H1068 0.961 . S
C1055 C1052 1.539 . S
C1055 H1069 0.958 . S
C1055 H1070 0.961 . S
C1055 H1071 0.960 . S
H1056 C1040 0.931 . S
H1057 C1045 0.929 . S
H1058 C1046 0.960 . S
H1059 C1046 0.962 . S
H1060 C1046 0.960 . S
H1061 C1047 0.961 . S
H1062 C1047 0.961 . S
H1063 C1047 0.961 . S
H1064 C1048 0.931 . S
H1065 C1053 0.930 . S
H1066 C1054 0.956 . S
H1067 C1054 0.961 . S
H1068 C1054 0.961 . S
H1069 C1055 0.958 . S
H1070 C1055 0.961 . S
H1071 C1055 0.960 . S
C1072 C1073 1.391 . S
C1072 C1074 1.394 . S
C1072 H1088 0.931 . S
C1073 C1072 1.391 . S
C1073 C1077 1.376 . S
C1074 C1072 1.394 . S
C1074 C1075 1.369 . S
C1074 C1078 1.531 . S
C1075 C1074 1.369 . S
C1075 C1076 1.410 . S
C1075 C1083 1.503 . S
C1076 C1075 1.410 . S
C1076 C1077 1.392 . S
C1076 C1079 1.511 . S
C1077 C1073 1.376 . S
C1077 C1076 1.392 . S
C1077 H1089 0.929 . S
C1078 C1074 1.531 . S
C1078 H1090 0.960 . S
C1078 H1091 0.962 . S
C1078 H1092 0.960 . S
C1079 C1076 1.511 . S
C1079 H1093 0.961 . S
C1079 H1094 0.961 . S
C1079 H1095 0.961 . S
C1080 C1081 1.370 . S
C1080 C1082 1.363 . S
C1080 H1096 0.931 . S
C1081 C1080 1.370 . S
C1081 C1085 1.408 . S
C1082 C1080 1.363 . S
C1082 C1083 1.370 . S
C1082 C1086 1.524 . S
C1083 C1075 1.503 . S
C1083 C1082 1.370 . S
C1083 C1084 1.403 . S
C1084 C1083 1.403 . S
C1084 C1085 1.404 . S
C1084 C1087 1.539 . S
C1085 C1081 1.408 . S
C1085 C1084 1.404 . S
C1085 H1097 0.930 . S
C1086 C1082 1.524 . S
C1086 H1098 0.956 . S
C1086 H1099 0.961 . S
C1086 H1100 0.961 . S
C1087 C1084 1.539 . S
C1087 H1101 0.958 . S
C1087 H1102 0.961 . S
C1087 H1103 0.960 . S
H1088 C1072 0.931 . S
H1089 C1077 0.929 . S
H1090 C1078 0.960 . S
H1091 C1078 0.962 . S
H1092 C1078 0.960 . S
H1093 C1079 0.961 . S
H1094 C1079 0.961 . S
H1095 C1079 0.961 . S
H1096 C1080 0.931 . S
H1097 C1085 0.930 . S
H1098 C1086 0.956 . S
H1099 C1086 0.961 . S
H1100 C1086 0.961 . S
H1101 C1087 0.958 . S
H1102 C1087 0.961 . S
H1103 C1087 0.960 . S
C1104 C1105 1.391 . S
C1104 C1106 1.394 . S
C1104 H1120 0.931 . S
C1105 C1104 1.391 . S
C1105 C1109 1.376 . S
C1106 C1104 1.394 . S
C1106 C1107 1.369 . S
C1106 C1110 1.531 . S
C1107 C1106 1.369 . S
C1107 C1108 1.410 . S
C1107 C1115 1.503 . S
C1108 C1107 1.410 . S
C1108 C1109 1.392 . S
C1108 C1111 1.511 . S
C1109 C1105 1.376 . S
C1109 C1108 1.392 . S
C1109 H1121 0.929 . S
C1110 C1106 1.531 . S
C1110 H1122 0.960 . S
C1110 H1123 0.962 . S
C1110 H1124 0.960 . S
C1111 C1108 1.511 . S
C1111 H1125 0.961 . S
C1111 H1126 0.961 . S
C1111 H1127 0.961 . S
C1112 C1113 1.370 . S
C1112 C1114 1.363 . S
C1112 H1128 0.931 . S
C1113 C1112 1.370 . S
C1113 C1117 1.408 . S
C1114 C1112 1.363 . S
C1114 C1115 1.370 . S
C1114 C1118 1.524 . S
C1115 C1107 1.503 . S
C1115 C1114 1.370 . S
C1115 C1116 1.403 . S
C1116 C1115 1.403 . S
C1116 C1117 1.404 . S
C1116 C1119 1.539 . S
C1117 C1113 1.408 . S
C1117 C1116 1.404 . S
C1117 H1129 0.930 . S
C1118 C1114 1.524 . S
C1118 H1130 0.956 . S
C1118 H1131 0.961 . S
C1118 H1132 0.961 . S
C1119 C1116 1.539 . S
C1119 H1133 0.958 . S
C1119 H1134 0.961 . S
C1119 H1135 0.960 . S
H1120 C1104 0.931 . S
H1121 C1109 0.929 . S
H1122 C1110 0.960 . S
H1123 C1110 0.962 . S
H1124 C1110 0.960 . S
H1125 C1111 0.961 . S
H1126 C1111 0.961 . S
H1127 C1111 0.961 . S
H1128 C1112 0.931 . S
H1129 C1117 0.930 . S
H1130 C1118 0.956 . S
H1131 C1118 0.961 . S
H1132 C1118 0.961 . S
H1133 C1119 0.958 . S
H1134 C1119 0.961 . S
H1135 C1119 0.960 . S
C1136 C1137 1.391 . S
C1136 C1138 1.394 . S
C1136 H1152 0.931 . S
C1137 C1136 1.391 . S
C1137 C1141 1.376 . S
C1138 C1136 1.394 . S
C1138 C1139 1.369 . S
C1138 C1142 1.531 . S
C1139 C1138 1.369 . S
C1139 C1140 1.410 . S
C1139 C1147 1.503 . S
C1140 C1139 1.410 . S
C1140 C1141 1.392 . S
C1140 C1143 1.511 . S
C1141 C1137 1.376 . S
C1141 C1140 1.392 . S
C1141 H1153 0.929 . S
C1142 C1138 1.531 . S
C1142 H1154 0.960 . S
C1142 H1155 0.962 . S
C1142 H1156 0.960 . S
C1143 C1140 1.511 . S
C1143 H1157 0.961 . S
C1143 H1158 0.961 . S
C1143 H1159 0.961 . S
C1144 C1145 1.370 . S
C1144 C1146 1.363 . S
C1144 H1160 0.931 . S
C1145 C1144 1.370 . S
C1145 C1149 1.408 . S
C1146 C1144 1.363 . S
C1146 C1147 1.370 . S
C1146 C1150 1.524 . S
C1147 C1139 1.503 . S
C1147 C1146 1.370 . S
C1147 C1148 1.403 . S
C1148 C1147 1.403 . S
C1148 C1149 1.404 . S
C1148 C1151 1.539 . S
C1149 C1145 1.408 . S
C1149 C1148 1.404 . S
C1149 H1161 0.930 . S
C1150 C1146 1.524 . S
C1150 H1162 0.956 . S
C1150 H1163 0.961 . S
C1150 H1164 0.961 . S
C1151 C1148 1.539 . S
C1151 H1165 0.958 . S
C1151 H1166 0.961 . S
C1151 H1167 0.960 . S
H1152 C1136 0.931 . S
H1153 C1141 0.929 . S
H1154 C1142 0.960 . S
H1155 C1142 0.962 . S
H1156 C1142 0.960 . S
H1157 C1143 0.961 . S
H1158 C1143 0.961 . S
H1159 C1143 0.961 . S
H1160 C1144 0.931 . S
H1161 C1149 0.930 . S
H1162 C1150 0.956 . S
H1163 C1150 0.961 . S
H1164 C1150 0.961 . S
H1165 C1151 0.958 . S
H1166 C1151 0.961 . S
H1167 C1151 0.960 . S
C1168 C1169 1.391 . S
C1168 C1170 1.394 . S
C1168 H1184 0.931 . S
C1169 C1168 1.391 . S
C1169 C1173 1.376 . S
C1170 C1168 1.394 . S
C1170 C1171 1.369 . S
C1170 C1174 1.531 . S
C1171 C1170 1.369 . S
C1171 C1172 1.410 . S
C1171 C1179 1.503 . S
C1172 C1171 1.410 . S
C1172 C1173 1.392 . S
C1172 C1175 1.511 . S
C1173 C1169 1.376 . S
C1173 C1172 1.392 . S
C1173 H1185 0.929 . S
C1174 C1170 1.531 . S
C1174 H1186 0.960 . S
C1174 H1187 0.962 . S
C1174 H1188 0.960 . S
C1175 C1172 1.511 . S
C1175 H1189 0.961 . S
C1175 H1190 0.961 . S
C1175 H1191 0.961 . S
C1176 C1177 1.370 . S
C1176 C1178 1.363 . S
C1176 H1192 0.931 . S
C1177 C1176 1.370 . S
C1177 C1181 1.408 . S
C1178 C1176 1.363 . S
C1178 C1179 1.370 . S
C1178 C1182 1.524 . S
C1179 C1171 1.503 . S
C1179 C1178 1.370 . S
C1179 C1180 1.403 . S
C1180 C1179 1.403 . S
C1180 C1181 1.404 . S
C1180 C1183 1.539 . S
C1181 C1177 1.408 . S
C1181 C1180 1.404 . S
C1181 H1193 0.930 . S
C1182 C1178 1.524 . S
C1182 H1194 0.956 . S
C1182 H1195 0.961 . S
C1182 H1196 0.961 . S
C1183 C1180 1.539 . S
C1183 H1197 0.958 . S
C1183 H1198 0.961 . S
C1183 H1199 0.960 . S
H1184 C1168 0.931 . S
H1185 C1173 0.929 . S
H1186 C1174 0.960 . S
H1187 C1174 0.962 . S
H1188 C1174 0.960 . S
H1189 C1175 0.961 . S
H1190 C1175 0.961 . S
H1191 C1175 0.961 . S
H1192 C1176 0.931 . S
H1193 C1181 0.930 . S
H1194 C1182 0.956 . S
H1195 C1182 0.961 . S
H1196 C1182 0.961 . S
H1197 C1183 0.958 . S
H1198 C1183 0.961 . S
H1199 C1183 0.960 . S
C1200 C1201 1.391 . S
C1200 C1202 1.394 . S
C1200 H1216 0.931 . S
C1201 C1200 1.391 . S
C1201 C1205 1.376 . S
C1202 C1200 1.394 . S
C1202 C1203 1.369 . S
C1202 C1206 1.531 . S
C1203 C1202 1.369 . S
C1203 C1204 1.410 . S
C1203 C1211 1.503 . S
C1204 C1203 1.410 . S
C1204 C1205 1.392 . S
C1204 C1207 1.511 . S
C1205 C1201 1.376 . S
C1205 C1204 1.392 . S
C1205 H1217 0.929 . S
C1206 C1202 1.531 . S
C1206 H1218 0.960 . S
C1206 H1219 0.962 . S
C1206 H1220 0.960 . S
C1207 C1204 1.511 . S
C1207 H1221 0.961 . S
C1207 H1222 0.961 . S
C1207 H1223 0.961 . S
C1208 C1209 1.370 . S
C1208 C1210 1.363 . S
C1208 H1224 0.931 . S
C1209 C1208 1.370 . S
C1209 C1213 1.408 . S
C1210 C1208 1.363 . S
C1210 C1211 1.370 . S
C1210 C1214 1.524 . S
C1211 C1203 1.503 . S
C1211 C1210 1.370 . S
C1211 C1212 1.403 . S
C1212 C1211 1.403 . S
C1212 C1213 1.404 . S
C1212 C1215 1.539 . S
C1213 C1209 1.408 . S
C1213 C1212 1.404 . S
C1213 H1225 0.930 . S
C1214 C1210 1.524 . S
C1214 H1226 0.956 . S
C1214 H1227 0.961 . S
C1214 H1228 0.961 . S
C1215 C1212 1.539 . S
C1215 H1229 0.958 . S
C1215 H1230 0.961 . S
C1215 H1231 0.960 . S
H1216 C1200 0.931 . S
H1217 C1205 0.929 . S
H1218 C1206 0.960 . S
H1219 C1206 0.962 . S
H1220 C1206 0.960 . S
H1221 C1207 0.961 . S
H1222 C1207 0.961 . S
H1223 C1207 0.961 . S
H1224 C1208 0.931 . S
H1225 C1213 0.930 . S
H1226 C1214 0.956 . S
H1227 C1214 0.961 . S
H1228 C1214 0.961 . S
H1229 C1215 0.958 . S
H1230 C1215 0.961 . S
H1231 C1215 0.960 . S
C1232 C1233 1.391 . S
C1232 C1234 1.394 . S
C1232 H1248 0.931 . S
C1233 C1232 1.391 . S
C1233 C1237 1.376 . S
C1234 C1232 1.394 . S
C1234 C1235 1.369 . S
C1234 C1238 1.531 . S
C1235 C1234 1.369 . S
C1235 C1236 1.410 . S
C1235 C1243 1.503 . S
C1236 C1235 1.410 . S
C1236 C1237 1.392 . S
C1236 C1239 1.511 . S
C1237 C1233 1.376 . S
C1237 C1236 1.392 . S
C1237 H1249 0.929 . S
C1238 C1234 1.531 . S
C1238 H1250 0.960 . S
C1238 H1251 0.962 . S
C1238 H1252 0.960 . S
C1239 C1236 1.511 . S
C1239 H1253 0.961 . S
C1239 H1254 0.961 . S
C1239 H1255 0.961 . S
C1240 C1241 1.370 . S
C1240 C1242 1.363 . S
C1240 H1256 0.931 . S
C1241 C1240 1.370 . S
C1241 C1245 1.408 . S
C1242 C1240 1.363 . S
C1242 C1243 1.370 . S
C1242 C1246 1.524 . S
C1243 C1235 1.503 . S
C1243 C1242 1.370 . S
C1243 C1244 1.403 . S
C1244 C1243 1.403 . S
C1244 C1245 1.404 . S
C1244 C1247 1.539 . S
C1245 C1241 1.408 . S
C1245 C1244 1.404 . S
C1245 H1257 0.930 . S
C1246 C1242 1.524 . S
C1246 H1258 0.956 . S
C1246 H1259 0.961 . S
C1246 H1260 0.961 . S
C1247 C1244 1.539 . S
C1247 H1261 0.958 . S
C1247 H1262 0.961 . S
C1247 H1263 0.960 . S
H1248 C1232 0.931 . S
H1249 C1237 0.929 . S
H1250 C1238 0.960 . S
H1251 C1238 0.962 . S
H1252 C1238 0.960 . S
H1253 C1239 0.961 . S
H1254 C1239 0.961 . S
H1255 C1239 0.961 . S
H1256 C1240 0.931 . S
H1257 C1245 0.930 . S
H1258 C1246 0.956 . S
H1259 C1246 0.961 . S
H1260 C1246 0.961 . S
H1261 C1247 0.958 . S
H1262 C1247 0.961 . S
H1263 C1247 0.960 . S
C1264 C1265 1.391 . S
C1264 C1266 1.394 . S
C1264 H1280 0.931 . S
C1265 C1264 1.391 . S
C1265 C1269 1.376 . S
C1266 C1264 1.394 . S
C1266 C1267 1.369 . S
C1266 C1270 1.531 . S
C1267 C1266 1.369 . S
C1267 C1268 1.410 . S
C1267 C1275 1.503 . S
C1268 C1267 1.410 . S
C1268 C1269 1.392 . S
C1268 C1271 1.511 . S
C1269 C1265 1.376 . S
C1269 C1268 1.392 . S
C1269 H1281 0.929 . S
C1270 C1266 1.531 . S
C1270 H1282 0.960 . S
C1270 H1283 0.962 . S
C1270 H1284 0.960 . S
C1271 C1268 1.511 . S
C1271 H1285 0.961 . S
C1271 H1286 0.961 . S
C1271 H1287 0.961 . S
C1272 C1273 1.370 . S
C1272 C1274 1.363 . S
C1272 H1288 0.931 . S
C1273 C1272 1.370 . S
C1273 C1277 1.408 . S
C1274 C1272 1.363 . S
C1274 C1275 1.370 . S
C1274 C1278 1.524 . S
C1275 C1267 1.503 . S
C1275 C1274 1.370 . S
C1275 C1276 1.403 . S
C1276 C1275 1.403 . S
C1276 C1277 1.404 . S
C1276 C1279 1.539 . S
C1277 C1273 1.408 . S
C1277 C1276 1.404 . S
C1277 H1289 0.930 . S
C1278 C1274 1.524 . S
C1278 H1290 0.956 . S
C1278 H1291 0.961 . S
C1278 H1292 0.961 . S
C1279 C1276 1.539 . S
C1279 H1293 0.958 . S
C1279 H1294 0.961 . S
C1279 H1295 0.960 . S
H1280 C1264 0.931 . S
H1281 C1269 0.929 . S
H1282 C1270 0.960 . S
H1283 C1270 0.962 . S
H1284 C1270 0.960 . S
H1285 C1271 0.961 . S
H1286 C1271 0.961 . S
H1287 C1271 0.961 . S
H1288 C1272 0.931 . S
H1289 C1277 0.930 . S
H1290 C1278 0.956 . S
H1291 C1278 0.961 . S
H1292 C1278 0.961 . S
H1293 C1279 0.958 . S
H1294 C1279 0.961 . S
H1295 C1279 0.960 . S
C1296 C1297 1.405 . S
C1296 C1298 1.412 . S
C1296 H1312 0.900 1_455 S
C1297 C1296 1.405 . S
C1297 C1301 1.376 . S
C1298 C1296 1.412 . S
C1298 C1299 1.369 . S
C1298 C1302 1.531 . S
C1299 C1298 1.369 . S
C1299 C1300 1.410 . S
C1299 C1307 1.503 . S
C1300 C1299 1.410 . S
C1300 C1301 1.392 . S
C1300 C1303 1.511 . S
C1301 C1297 1.376 . S
C1301 C1300 1.392 . S
C1301 H1313 0.929 . S
C1302 C1298 1.531 . S
C1302 H1314 0.960 . S
C1302 H1315 0.962 . S
C1302 H1316 0.960 1_455 S
C1303 C1300 1.511 . S
C1303 H1317 0.961 . S
C1303 H1318 0.961 . S
C1303 H1319 0.961 . S
C1304 C1305 1.370 . S
C1304 C1306 1.363 . S
C1304 H1320 0.931 1_565 S
C1305 C1304 1.370 . S
C1305 C1309 1.408 . S
C1306 C1304 1.363 . S
C1306 C1307 1.370 . S
C1306 C1310 1.524 . S
C1307 C1299 1.503 . S
C1307 C1306 1.370 . S
C1307 C1308 1.403 . S
C1308 C1307 1.403 . S
C1308 C1309 1.404 . S
C1308 C1311 1.539 . S
C1309 C1305 1.408 . S
C1309 C1308 1.404 . S
C1309 H1321 0.930 . S
C1310 C1306 1.524 . S
C1310 H1322 0.956 . S
C1310 H1323 0.961 . S
C1310 H1324 0.961 1_565 S
C1311 C1308 1.539 . S
C1311 H1325 0.958 . S
C1311 H1326 0.961 . S
C1311 H1327 0.960 . S
H1312 C1296 0.900 1_655 S
H1313 C1301 0.929 . S
H1314 C1302 0.960 . S
H1315 C1302 0.962 . S
H1316 C1302 0.960 1_655 S
H1317 C1303 0.961 . S
H1318 C1303 0.961 . S
H1319 C1303 0.961 . S
H1320 C1304 0.931 1_545 S
H1321 C1309 0.930 . S
H1322 C1310 0.956 . S
H1323 C1310 0.961 . S
H1324 C1310 0.961 1_545 S
H1325 C1311 0.958 . S
H1326 C1311 0.961 . S
H1327 C1311 0.960 . S
C1328 C1329 1.391 . S
C1328 C1330 1.394 . S
C1328 H1344 0.931 . S
C1329 C1328 1.391 . S
C1329 C1333 1.376 . S
C1330 C1328 1.394 . S
C1330 C1331 1.369 . S
C1330 C1334 1.531 . S
C1331 C1330 1.369 . S
C1331 C1332 1.410 . S
C1331 C1339 1.503 . S
C1332 C1331 1.410 . S
C1332 C1333 1.392 . S
C1332 C1335 1.511 . S
C1333 C1329 1.376 . S
C1333 C1332 1.392 . S
C1333 H1345 0.929 . S
C1334 C1330 1.531 . S
C1334 H1346 0.960 . S
C1334 H1347 0.962 . S
C1334 H1348 0.960 . S
C1335 C1332 1.511 . S
C1335 H1349 0.961 . S
C1335 H1350 0.961 . S
C1335 H1351 0.961 . S
C1336 C1337 1.370 . S
C1336 C1338 1.363 . S
C1336 H1352 0.931 . S
C1337 C1336 1.370 . S
C1337 C1341 1.408 . S
C1338 C1336 1.363 . S
C1338 C1339 1.370 . S
C1338 C1342 1.524 . S
C1339 C1331 1.503 . S
C1339 C1338 1.370 . S
C1339 C1340 1.403 . S
C1340 C1339 1.403 . S
C1340 C1341 1.404 . S
C1340 C1343 1.539 . S
C1341 C1337 1.408 . S
C1341 C1340 1.404 . S
C1341 H1353 0.930 . S
C1342 C1338 1.524 . S
C1342 H1354 0.956 . S
C1342 H1355 0.961 . S
C1342 H1356 0.961 . S
C1343 C1340 1.539 . S
C1343 H1357 0.958 . S
C1343 H1358 0.961 . S
C1343 H1359 0.960 . S
H1344 C1328 0.931 . S
H1345 C1333 0.929 . S
H1346 C1334 0.960 . S
H1347 C1334 0.962 . S
H1348 C1334 0.960 . S
H1349 C1335 0.961 . S
H1350 C1335 0.961 . S
H1351 C1335 0.961 . S
H1352 C1336 0.931 . S
H1353 C1341 0.930 . S
H1354 C1342 0.956 . S
H1355 C1342 0.961 . S
H1356 C1342 0.961 . S
H1357 C1343 0.958 . S
H1358 C1343 0.961 . S
H1359 C1343 0.960 . S
C1360 C1361 1.391 . S
C1360 C1362 1.394 . S
C1360 H1376 0.931 . S
C1361 C1360 1.391 . S
C1361 C1365 1.376 . S
C1362 C1360 1.394 . S
C1362 C1363 1.369 . S
C1362 C1366 1.531 . S
C1363 C1362 1.369 . S
C1363 C1364 1.410 . S
C1363 C1371 1.503 . S
C1364 C1363 1.410 . S
C1364 C1365 1.392 . S
C1364 C1367 1.511 . S
C1365 C1361 1.376 . S
C1365 C1364 1.392 . S
C1365 H1377 0.929 . S
C1366 C1362 1.531 . S
C1366 H1378 0.960 . S
C1366 H1379 0.962 . S
C1366 H1380 0.960 . S
C1367 C1364 1.511 . S
C1367 H1381 0.961 . S
C1367 H1382 0.961 . S
C1367 H1383 0.961 . S
C1368 C1369 1.370 . S
C1368 C1370 1.363 . S
C1368 H1384 0.931 . S
C1369 C1368 1.370 . S
C1369 C1373 1.408 . S
C1370 C1368 1.363 . S
C1370 C1371 1.370 . S
C1370 C1374 1.524 . S
C1371 C1363 1.503 . S
C1371 C1370 1.370 . S
C1371 C1372 1.403 . S
C1372 C1371 1.403 . S
C1372 C1373 1.404 . S
C1372 C1375 1.539 . S
C1373 C1369 1.408 . S
C1373 C1372 1.404 . S
C1373 H1385 0.930 . S
C1374 C1370 1.524 . S
C1374 H1386 0.956 . S
C1374 H1387 0.961 . S
C1374 H1388 0.961 . S
C1375 C1372 1.539 . S
C1375 H1389 0.958 . S
C1375 H1390 0.961 . S
C1375 H1391 0.960 . S
H1376 C1360 0.931 . S
H1377 C1365 0.929 . S
H1378 C1366 0.960 . S
H1379 C1366 0.962 . S
H1380 C1366 0.960 . S
H1381 C1367 0.961 . S
H1382 C1367 0.961 . S
H1383 C1367 0.961 . S
H1384 C1368 0.931 . S
H1385 C1373 0.930 . S
H1386 C1374 0.956 . S
H1387 C1374 0.961 . S
H1388 C1374 0.961 . S
H1389 C1375 0.958 . S
H1390 C1375 0.961 . S
H1391 C1375 0.960 . S
C1392 C1393 1.391 . S
C1392 C1394 1.394 . S
C1392 H1408 0.931 . S
C1393 C1392 1.391 . S
C1393 C1397 1.376 . S
C1394 C1392 1.394 . S
C1394 C1395 1.369 . S
C1394 C1398 1.531 . S
C1395 C1394 1.369 . S
C1395 C1396 1.410 . S
C1395 C1403 1.503 . S
C1396 C1395 1.410 . S
C1396 C1397 1.392 . S
C1396 C1399 1.511 . S
C1397 C1393 1.376 . S
C1397 C1396 1.392 . S
C1397 H1409 0.929 . S
C1398 C1394 1.531 . S
C1398 H1410 0.960 . S
C1398 H1411 0.962 . S
C1398 H1412 0.960 . S
C1399 C1396 1.511 . S
C1399 H1413 0.961 . S
C1399 H1414 0.961 . S
C1399 H1415 0.961 . S
C1400 C1401 1.370 . S
C1400 C1402 1.363 . S
C1400 H1416 0.931 . S
C1401 C1400 1.370 . S
C1401 C1405 1.408 . S
C1402 C1400 1.363 . S
C1402 C1403 1.370 . S
C1402 C1406 1.524 . S
C1403 C1395 1.503 . S
C1403 C1402 1.370 . S
C1403 C1404 1.403 . S
C1404 C1403 1.403 . S
C1404 C1405 1.404 . S
C1404 C1407 1.539 . S
C1405 C1401 1.408 . S
C1405 C1404 1.404 . S
C1405 H1417 0.930 . S
C1406 C1402 1.524 . S
C1406 H1418 0.956 . S
C1406 H1419 0.961 . S
C1406 H1420 0.961 . S
C1407 C1404 1.539 . S
C1407 H1421 0.958 . S
C1407 H1422 0.961 . S
C1407 H1423 0.960 . S
H1408 C1392 0.931 . S
H1409 C1397 0.929 . S
H1410 C1398 0.960 . S
H1411 C1398 0.962 . S
H1412 C1398 0.960 . S
H1413 C1399 0.961 . S
H1414 C1399 0.961 . S
H1415 C1399 0.961 . S
H1416 C1400 0.931 . S
H1417 C1405 0.930 . S
H1418 C1406 0.956 . S
H1419 C1406 0.961 . S
H1420 C1406 0.961 . S
H1421 C1407 0.958 . S
H1422 C1407 0.961 . S
H1423 C1407 0.960 . S
C1424 C1425 1.400 . S
C1424 C1426 1.403 . S
C1424 H1440 0.913 1_655 S
C1425 C1424 1.400 . S
C1425 C1429 1.376 . S
C1426 C1424 1.403 . S
C1426 C1427 1.369 . S
C1426 C1430 1.531 . S
C1427 C1426 1.369 . S
C1427 C1428 1.410 . S
C1427 C1435 1.503 . S
C1428 C1427 1.410 . S
C1428 C1429 1.392 . S
C1428 C1431 1.511 . S
C1429 C1425 1.376 . S
C1429 C1428 1.392 . S
C1429 H1441 0.929 . S
C1430 C1426 1.531 . S
C1430 H1442 0.960 . S
C1430 H1443 0.962 . S
C1430 H1444 0.960 1_655 S
C1431 C1428 1.511 . S
C1431 H1445 0.961 . S
C1431 H1446 0.961 . S
C1431 H1447 0.961 . S
C1432 C1433 1.370 . S
C1432 C1434 1.363 . S
C1432 H1448 0.931 . S
C1433 C1432 1.370 . S
C1433 C1437 1.407 1_545 S
C1434 C1432 1.363 . S
C1434 C1435 1.370 . S
C1434 C1438 1.524 . S
C1435 C1427 1.503 . S
C1435 C1434 1.370 . S
C1435 C1436 1.403 . S
C1436 C1435 1.403 . S
C1436 C1437 1.402 1_545 S
C1436 C1439 1.539 . S
C1437 C1433 1.407 1_565 S
C1437 C1436 1.402 1_565 S
C1437 H1449 0.934 . S
C1438 C1434 1.524 . S
C1438 H1450 0.956 . S
C1438 H1451 0.961 . S
C1438 H1452 0.961 . S
C1439 C1436 1.539 . S
C1439 H1453 0.958 . S
C1439 H1454 0.945 1_545 S
C1439 H1455 0.960 . S
H1440 C1424 0.913 1_455 S
H1441 C1429 0.929 . S
H1442 C1430 0.960 . S
H1443 C1430 0.962 . S
H1444 C1430 0.960 1_455 S
H1445 C1431 0.961 . S
H1446 C1431 0.961 . S
H1447 C1431 0.961 . S
H1448 C1432 0.931 . S
H1449 C1437 0.934 . S
H1450 C1438 0.956 . S
H1451 C1438 0.961 . S
H1452 C1438 0.961 . S
H1453 C1439 0.958 . S
H1454 C1439 0.945 1_565 S
H1455 C1439 0.960 . S
C1456 C1457 1.391 . S
C1456 C1458 1.394 . S
C1456 H1472 0.931 . S
C1457 C1456 1.391 . S
C1457 C1461 1.376 . S
C1458 C1456 1.394 . S
C1458 C1459 1.369 . S
C1458 C1462 1.531 . S
C1459 C1458 1.369 . S
C1459 C1460 1.410 . S
C1459 C1467 1.503 . S
C1460 C1459 1.410 . S
C1460 C1461 1.392 . S
C1460 C1463 1.511 . S
C1461 C1457 1.376 . S
C1461 C1460 1.392 . S
C1461 H1473 0.929 . S
C1462 C1458 1.531 . S
C1462 H1474 0.960 . S
C1462 H1475 0.962 . S
C1462 H1476 0.960 . S
C1463 C1460 1.511 . S
C1463 H1477 0.961 . S
C1463 H1478 0.961 . S
C1463 H1479 0.961 . S
C1464 C1465 1.370 . S
C1464 C1466 1.363 . S
C1464 H1480 0.931 . S
C1465 C1464 1.370 . S
C1465 C1469 1.408 . S
C1466 C1464 1.363 . S
C1466 C1467 1.370 . S
C1466 C1470 1.524 . S
C1467 C1459 1.503 . S
C1467 C1466 1.370 . S
C1467 C1468 1.403 . S
C1468 C1467 1.403 . S
C1468 C1469 1.404 . S
C1468 C1471 1.539 . S
C1469 C1465 1.408 . S
C1469 C1468 1.404 . S
C1469 H1481 0.930 . S
C1470 C1466 1.524 . S
C1470 H1482 0.956 . S
C1470 H1483 0.961 . S
C1470 H1484 0.961 . S
C1471 C1468 1.539 . S
C1471 H1485 0.958 . S
C1471 H1486 0.961 . S
C1471 H1487 0.960 . S
H1472 C1456 0.931 . S
H1473 C1461 0.929 . S
H1474 C1462 0.960 . S
H1475 C1462 0.962 . S
H1476 C1462 0.960 . S
H1477 C1463 0.961 . S
H1478 C1463 0.961 . S
H1479 C1463 0.961 . S
H1480 C1464 0.931 . S
H1481 C1469 0.930 . S
H1482 C1470 0.956 . S
H1483 C1470 0.961 . S
H1484 C1470 0.961 . S
H1485 C1471 0.958 . S
H1486 C1471 0.961 . S
H1487 C1471 0.960 . S
C1488 C1489 1.391 . S
C1488 C1490 1.394 . S
C1488 H1504 0.931 . S
C1489 C1488 1.391 . S
C1489 C1493 1.376 . S
C1490 C1488 1.394 . S
C1490 C1491 1.369 . S
C1490 C1494 1.531 . S
C1491 C1490 1.369 . S
C1491 C1492 1.410 . S
C1491 C1499 1.503 . S
C1492 C1491 1.410 . S
C1492 C1493 1.392 . S
C1492 C1495 1.511 . S
C1493 C1489 1.376 . S
C1493 C1492 1.392 . S
C1493 H1505 0.929 . S
C1494 C1490 1.531 . S
C1494 H1506 0.960 . S
C1494 H1507 0.962 . S
C1494 H1508 0.960 . S
C1495 C1492 1.511 . S
C1495 H1509 0.961 . S
C1495 H1510 0.961 . S
C1495 H1511 0.961 . S
C1496 C1497 1.370 . S
C1496 C1498 1.363 . S
C1496 H1512 0.931 . S
C1497 C1496 1.370 . S
C1497 C1501 1.408 . S
C1498 C1496 1.363 . S
C1498 C1499 1.370 . S
C1498 C1502 1.524 . S
C1499 C1491 1.503 . S
C1499 C1498 1.370 . S
C1499 C1500 1.403 . S
C1500 C1499 1.403 . S
C1500 C1501 1.404 . S
C1500 C1503 1.539 . S
C1501 C1497 1.408 . S
C1501 C1500 1.404 . S
C1501 H1513 0.930 . S
C1502 C1498 1.524 . S
C1502 H1514 0.956 . S
C1502 H1515 0.961 . S
C1502 H1516 0.961 . S
C1503 C1500 1.539 . S
C1503 H1517 0.958 . S
C1503 H1518 0.961 . S
C1503 H1519 0.960 . S
H1504 C1488 0.931 . S
H1505 C1493 0.929 . S
H1506 C1494 0.960 . S
H1507 C1494 0.962 . S
H1508 C1494 0.960 . S
H1509 C1495 0.961 . S
H1510 C1495 0.961 . S
H1511 C1495 0.961 . S
H1512 C1496 0.931 . S
H1513 C1501 0.930 . S
H1514 C1502 0.956 . S
H1515 C1502 0.961 . S
H1516 C1502 0.961 . S
H1517 C1503 0.958 . S
H1518 C1503 0.961 . S
H1519 C1503 0.960 . S
C1520 C1521 1.391 . S
C1520 C1522 1.394 . S
C1520 H1536 0.931 . S
C1521 C1520 1.391 . S
C1521 C1525 1.376 . S
C1522 C1520 1.394 . S
C1522 C1523 1.369 . S
C1522 C1526 1.531 . S
C1523 C1522 1.369 . S
C1523 C1524 1.410 . S
C1523 C1531 1.503 . S
C1524 C1523 1.410 . S
C1524 C1525 1.392 . S
C1524 C1527 1.511 . S
C1525 C1521 1.376 . S
C1525 C1524 1.392 . S
C1525 H1537 0.929 . S
C1526 C1522 1.531 . S
C1526 H1538 0.960 . S
C1526 H1539 0.962 . S
C1526 H1540 0.960 . S
C1527 C1524 1.511 . S
C1527 H1541 0.961 . S
C1527 H1542 0.961 . S
C1527 H1543 0.961 . S
C1528 C1529 1.370 . S
C1528 C1530 1.363 . S
C1528 H1544 0.931 . S
C1529 C1528 1.370 . S
C1529 C1533 1.408 . S
C1530 C1528 1.363 . S
C1530 C1531 1.370 . S
C1530 C1534 1.524 . S
C1531 C1523 1.503 . S
C1531 C1530 1.370 . S
C1531 C1532 1.403 . S
C1532 C1531 1.403 . S
C1532 C1533 1.404 . S
C1532 C1535 1.539 . S
C1533 C1529 1.408 . S
C1533 C1532 1.404 . S
C1533 H1545 0.930 . S
C1534 C1530 1.524 . S
C1534 H1546 0.956 . S
C1534 H1547 0.961 . S
C1534 H1548 0.961 . S
C1535 C1532 1.539 . S
C1535 H1549 0.958 . S
C1535 H1550 0.961 . S
C1535 H1551 0.960 . S
H1536 C1520 0.931 . S
H1537 C1525 0.929 . S
H1538 C1526 0.960 . S
H1539 C1526 0.962 . S
H1540 C1526 0.960 . S
H1541 C1527 0.961 . S
H1542 C1527 0.961 . S
H1543 C1527 0.961 . S
H1544 C1528 0.931 . S
H1545 C1533 0.930 . S
H1546 C1534 0.956 . S
H1547 C1534 0.961 . S
H1548 C1534 0.961 . S
H1549 C1535 0.958 . S
H1550 C1535 0.961 . S
H1551 C1535 0.960 . S
C1552 C1553 1.391 . S
C1552 C1554 1.394 . S
C1552 H1568 0.931 . S
C1553 C1552 1.391 . S
C1553 C1557 1.376 . S
C1554 C1552 1.394 . S
C1554 C1555 1.369 . S
C1554 C1558 1.531 1_545 S
C1555 C1554 1.369 . S
C1555 C1556 1.410 . S
C1555 C1563 1.503 1_545 S
C1556 C1555 1.410 . S
C1556 C1557 1.392 . S
C1556 C1559 1.511 . S
C1557 C1553 1.376 . S
C1557 C1556 1.392 . S
C1557 H1569 0.929 . S
C1558 C1554 1.531 1_565 S
C1558 H1570 0.960 . S
C1558 H1571 0.962 1_565 S
C1558 H1572 0.960 . S
C1559 C1556 1.511 . S
C1559 H1573 0.961 . S
C1559 H1574 0.961 . S
C1559 H1575 0.961 1_545 S
C1560 C1561 1.370 1_545 S
C1560 C1562 1.363 . S
C1560 H1576 0.931 . S
C1561 C1560 1.370 1_565 S
C1561 C1565 1.408 . S
C1562 C1560 1.363 . S
C1562 C1563 1.370 1_545 S
C1562 C1566 1.524 . S
C1563 C1555 1.503 1_565 S
C1563 C1562 1.370 1_565 S
C1563 C1564 1.403 . S
C1564 C1563 1.403 . S
C1564 C1565 1.404 . S
C1564 C1567 1.539 . S
C1565 C1561 1.408 . S
C1565 C1564 1.404 . S
C1565 H1577 0.930 . S
C1566 C1562 1.524 . S
C1566 H1578 0.956 . S
C1566 H1579 0.961 . S
C1566 H1580 0.961 . S
C1567 C1564 1.539 . S
C1567 H1581 0.958 . S
C1567 H1582 0.961 . S
C1567 H1583 0.960 . S
H1568 C1552 0.931 . S
H1569 C1557 0.929 . S
H1570 C1558 0.960 . S
H1571 C1558 0.962 1_545 S
H1572 C1558 0.960 . S
H1573 C1559 0.961 . S
H1574 C1559 0.961 . S
H1575 C1559 0.961 1_565 S
H1576 C1560 0.931 . S
H1577 C1565 0.930 . S
H1578 C1566 0.956 . S
H1579 C1566 0.961 . S
H1580 C1566 0.961 . S
H1581 C1567 0.958 . S
H1582 C1567 0.961 . S
H1583 C1567 0.960 . S
C1584 C1585 1.391 1_554 S
C1584 C1586 1.394 . S
C1584 H1600 0.931 . S
C1585 C1584 1.391 1_556 S
C1585 C1589 1.376 . S
C1586 C1584 1.394 . S
C1586 C1587 1.369 1_554 S
C1586 C1590 1.531 . S
C1587 C1586 1.369 1_556 S
C1587 C1588 1.410 . S
C1587 C1595 1.503 . S
C1588 C1587 1.410 . S
C1588 C1589 1.392 . S
C1588 C1591 1.511 . S
C1589 C1585 1.376 . S
C1589 C1588 1.392 . S
C1589 H1601 0.929 . S
C1590 C1586 1.531 . S
C1590 H1602 0.960 . S
C1590 H1603 0.962 . S
C1590 H1604 0.960 . S
C1591 C1588 1.511 . S
C1591 H1605 0.961 . S
C1591 H1606 0.961 . S
C1591 H1607 0.961 . S
C1592 C1593 1.370 . S
C1592 C1594 1.363 . S
C1592 H1608 0.931 . S
C1593 C1592 1.370 . S
C1593 C1597 1.408 . S
C1594 C1592 1.363 . S
C1594 C1595 1.370 . S
C1594 C1598 1.524 . S
C1595 C1587 1.503 . S
C1595 C1594 1.370 . S
C1595 C1596 1.403 . S
C1596 C1595 1.403 . S
C1596 C1597 1.404 . S
C1596 C1599 1.539 1_556 S
C1597 C1593 1.408 . S
C1597 C1596 1.404 . S
C1597 H1609 0.930 . S
C1598 C1594 1.524 . S
C1598 H1610 0.956 . S
C1598 H1611 0.961 . S
C1598 H1612 0.961 . S
C1599 C1596 1.539 1_554 S
C1599 H1613 0.958 . S
C1599 H1614 0.961 . S
C1599 H1615 0.960 . S
H1600 C1584 0.931 . S
H1601 C1589 0.929 . S
H1602 C1590 0.960 . S
H1603 C1590 0.962 . S
H1604 C1590 0.960 . S
H1605 C1591 0.961 . S
H1606 C1591 0.961 . S
H1607 C1591 0.961 . S
H1608 C1592 0.931 . S
H1609 C1597 0.930 . S
H1610 C1598 0.956 . S
H1611 C1598 0.961 . S
H1612 C1598 0.961 . S
H1613 C1599 0.958 . S
H1614 C1599 0.961 . S
H1615 C1599 0.960 . S
C1616 C1617 1.391 . S
C1616 C1618 1.394 . S
C1616 H1632 0.931 . S
C1617 C1616 1.391 . S
C1617 C1621 1.376 . S
C1618 C1616 1.394 . S
C1618 C1619 1.369 . S
C1618 C1622 1.531 . S
C1619 C1618 1.369 . S
C1619 C1620 1.410 . S
C1619 C1627 1.503 . S
C1620 C1619 1.410 . S
C1620 C1621 1.392 . S
C1620 C1623 1.511 . S
C1621 C1617 1.376 . S
C1621 C1620 1.392 . S
C1621 H1633 0.929 . S
C1622 C1618 1.531 . S
C1622 H1634 0.960 . S
C1622 H1635 0.962 . S
C1622 H1636 0.960 . S
C1623 C1620 1.511 . S
C1623 H1637 0.961 . S
C1623 H1638 0.961 . S
C1623 H1639 0.961 . S
C1624 C1625 1.370 . S
C1624 C1626 1.363 . S
C1624 H1640 0.931 . S
C1625 C1624 1.370 . S
C1625 C1629 1.408 . S
C1626 C1624 1.363 . S
C1626 C1627 1.370 . S
C1626 C1630 1.524 . S
C1627 C1619 1.503 . S
C1627 C1626 1.370 . S
C1627 C1628 1.403 . S
C1628 C1627 1.403 . S
C1628 C1629 1.404 . S
C1628 C1631 1.539 . S
C1629 C1625 1.408 . S
C1629 C1628 1.404 . S
C1629 H1641 0.930 . S
C1630 C1626 1.524 . S
C1630 H1642 0.956 . S
C1630 H1643 0.961 . S
C1630 H1644 0.961 . S
C1631 C1628 1.539 . S
C1631 H1645 0.958 . S
C1631 H1646 0.961 . S
C1631 H1647 0.960 . S
H1632 C1616 0.931 . S
H1633 C1621 0.929 . S
H1634 C1622 0.960 . S
H1635 C1622 0.962 . S
H1636 C1622 0.960 . S
H1637 C1623 0.961 . S
H1638 C1623 0.961 . S
H1639 C1623 0.961 . S
H1640 C1624 0.931 . S
H1641 C1629 0.930 . S
H1642 C1630 0.956 . S
H1643 C1630 0.961 . S
H1644 C1630 0.961 . S
H1645 C1631 0.958 . S
H1646 C1631 0.961 . S
H1647 C1631 0.960 . S
C1648 C1649 1.391 . S
C1648 C1650 1.394 . S
C1648 H1664 0.931 . S
C1649 C1648 1.391 . S
C1649 C1653 1.376 1_655 S
C1650 C1648 1.394 . S
C1650 C1651 1.369 1_655 S
C1650 C1654 1.531 . S
C1651 C1650 1.369 1_455 S
C1651 C1652 1.410 . S
C1651 C1659 1.503 . S
C1652 C1651 1.410 . S
C1652 C1653 1.392 . S
C1652 C1655 1.511 . S
C1653 C1649 1.376 1_455 S
C1653 C1652 1.392 . S
C1653 H1665 0.924 1_556 S
C1654 C1650 1.531 . S
C1654 H1666 0.960 . S
C1654 H1667 0.962 . S
C1654 H1668 0.960 . S
C1655 C1652 1.511 . S
C1655 H1669 0.961 1_556 S
C1655 H1670 0.961 1_556 S
C1655 H1671 0.961 . S
C1656 C1657 1.370 1_554 S
C1656 C1658 1.363 . S
C1656 H1672 0.931 . S
C1657 C1656 1.370 1_556 S
C1657 C1661 1.408 . S
C1658 C1656 1.363 . S
C1658 C1659 1.370 1_554 S
C1658 C1662 1.524 1_455 S
C1659 C1651 1.503 . S
C1659 C1658 1.370 1_556 S
C1659 C1660 1.403 . S
C1660 C1659 1.403 . S
C1660 C1661 1.404 . S
C1660 C1663 1.539 . S
C1661 C1657 1.408 . S
C1661 C1660 1.404 . S
C1661 H1673 0.930 . S
C1662 C1658 1.524 1_655 S
C1662 H1674 0.956 . S
C1662 H1675 0.961 1_655 S
C1662 H1676 0.961 . S
C1663 C1660 1.539 . S
C1663 H1677 0.958 . S
C1663 H1678 0.961 . S
C1663 H1679 0.960 . S
H1664 C1648 0.931 . S
H1665 C1653 0.924 1_554 S
H1666 C1654 0.960 . S
H1667 C1654 0.962 . S
H1668 C1654 0.960 . S
H1669 C1655 0.961 1_554 S
H1670 C1655 0.961 1_554 S
H1671 C1655 0.961 . S
H1672 C1656 0.931 . S
H1673 C1661 0.930 . S
H1674 C1662 0.956 . S
H1675 C1662 0.961 1_455 S
H1676 C1662 0.961 . S
H1677 C1663 0.958 . S
H1678 C1663 0.961 . S
H1679 C1663 0.960 . S
C1680 C1681 1.391 1_565 S
C1680 C1682 1.394 . S
C1680 H1696 0.931 . S
C1681 C1680 1.391 1_545 S
C1681 C1685 1.376 . S
C1682 C1680 1.394 . S
C1682 C1683 1.369 . S
C1682 C1686 1.531 . S
C1683 C1682 1.369 . S
C1683 C1684 1.410 1_565 S
C1683 C1691 1.503 . S
C1684 C1683 1.410 1_545 S
C1684 C1685 1.392 . S
C1684 C1687 1.511 . S
C1685 C1681 1.376 . S
C1685 C1684 1.392 . S
C1685 H1697 0.929 . S
C1686 C1682 1.531 . S
C1686 H1698 0.960 . S
C1686 H1699 0.962 . S
C1686 H1700 0.960 . S
C1687 C1684 1.511 . S
C1687 H1701 0.961 . S
C1687 H1702 0.961 . S
C1687 H1703 0.961 . S
C1688 C1689 1.370 . S
C1688 C1690 1.344 1_565 S
C1688 H1704 0.931 1_565 S
C1689 C1688 1.370 . S
C1689 C1693 1.408 . S
C1690 C1688 1.344 1_545 S
C1690 C1691 1.360 1_545 S
C1690 C1694 1.554 . S
C1691 C1683 1.503 . S
C1691 C1690 1.360 1_565 S
C1691 C1692 1.403 . S
C1692 C1691 1.403 . S
C1692 C1693 1.404 . S
C1692 C1695 1.539 . S
C1693 C1689 1.408 . S
C1693 C1692 1.404 . S
C1693 H1705 0.930 . S
C1694 C1690 1.554 . S
C1694 H1706 0.956 . S
C1694 H1707 0.961 . S
C1694 H1708 0.961 . S
C1695 C1692 1.539 . S
C1695 H1709 0.958 . S
C1695 H1710 0.961 . S
C1695 H1711 0.960 . S
H1696 C1680 0.931 . S
H1697 C1685 0.929 . S
H1698 C1686 0.960 . S
H1699 C1686 0.962 . S
H1700 C1686 0.960 . S
H1701 C1687 0.961 . S
H1702 C1687 0.961 . S
H1703 C1687 0.961 . S
H1704 C1688 0.931 1_545 S
H1705 C1693 0.930 . S
H1706 C1694 0.956 . S
H1707 C1694 0.961 . S
H1708 C1694 0.961 . S
H1709 C1695 0.958 . S
H1710 C1695 0.961 . S
H1711 C1695 0.960 . S
C1712 C1713 1.391 . S
C1712 C1714 1.394 . S
C1712 H1728 0.931 1_554 S
C1713 C1712 1.391 . S
C1713 C1717 1.376 . S
C1714 C1712 1.394 . S
C1714 C1715 1.369 . S
C1714 C1718 1.531 1_554 S
C1715 C1714 1.369 . S
C1715 C1716 1.410 . S
C1715 C1723 1.503 . S
C1716 C1715 1.410 . S
C1716 C1717 1.392 . S
C1716 C1719 1.511 . S
C1717 C1713 1.376 . S
C1717 C1716 1.392 . S
C1717 H1729 0.929 . S
C1718 C1714 1.531 1_556 S
C1718 H1730 0.960 . S
C1718 H1731 0.962 . S
C1718 H1732 0.960 . S
C1719 C1716 1.511 . S
C1719 H1733 0.961 . S
C1719 H1734 0.961 . S
C1719 H1735 0.961 . S
C1720 C1721 1.370 . S
C1720 C1722 1.363 . S
C1720 H1736 0.931 . S
C1721 C1720 1.370 . S
C1721 C1725 1.408 1_554 S
C1722 C1720 1.363 . S
C1722 C1723 1.370 . S
C1722 C1726 1.524 . S
C1723 C1715 1.503 . S
C1723 C1722 1.370 . S
C1723 C1724 1.403 1_554 S
C1724 C1723 1.403 1_556 S
C1724 C1725 1.404 . S
C1724 C1727 1.539 . S
C1725 C1721 1.408 1_556 S
C1725 C1724 1.404 . S
C1725 H1737 0.930 . S
C1726 C1722 1.524 . S
C1726 H1738 0.956 . S
C1726 H1739 0.961 . S
C1726 H1740 0.961 . S
C1727 C1724 1.539 . S
C1727 H1741 0.958 . S
C1727 H1742 0.961 . S
C1727 H1743 0.960 . S
H1728 C1712 0.931 1_556 S
H1729 C1717 0.929 . S
H1730 C1718 0.960 . S
H1731 C1718 0.962 . S
H1732 C1718 0.960 . S
H1733 C1719 0.961 . S
H1734 C1719 0.961 . S
H1735 C1719 0.961 . S
H1736 C1720 0.931 . S
H1737 C1725 0.930 . S
H1738 C1726 0.956 . S
H1739 C1726 0.961 . S
H1740 C1726 0.961 . S
H1741 C1727 0.958 . S
H1742 C1727 0.961 . S
H1743 C1727 0.960 . S
C1744 C1745 1.391 . S
C1744 C1746 1.394 . S
C1744 H1760 0.931 . S
C1745 C1744 1.391 . S
C1745 C1749 1.376 . S
C1746 C1744 1.394 . S
C1746 C1747 1.369 . S
C1746 C1750 1.531 . S
C1747 C1746 1.369 . S
C1747 C1748 1.410 . S
C1747 C1755 1.503 . S
C1748 C1747 1.410 . S
C1748 C1749 1.392 . S
C1748 C1751 1.511 . S
C1749 C1745 1.376 . S
C1749 C1748 1.392 . S
C1749 H1761 0.929 . S
C1750 C1746 1.531 . S
C1750 H1762 0.960 . S
C1750 H1763 0.962 . S
C1750 H1764 0.960 . S
C1751 C1748 1.511 . S
C1751 H1765 0.961 . S
C1751 H1766 0.961 . S
C1751 H1767 0.961 . S
C1752 C1753 1.370 . S
C1752 C1754 1.363 . S
C1752 H1768 0.931 . S
C1753 C1752 1.370 . S
C1753 C1757 1.408 . S
C1754 C1752 1.363 . S
C1754 C1755 1.370 . S
C1754 C1758 1.524 . S
C1755 C1747 1.503 . S
C1755 C1754 1.370 . S
C1755 C1756 1.403 . S
C1756 C1755 1.403 . S
C1756 C1757 1.404 . S
C1756 C1759 1.539 . S
C1757 C1753 1.408 . S
C1757 C1756 1.404 . S
C1757 H1769 0.930 . S
C1758 C1754 1.524 . S
C1758 H1770 0.956 . S
C1758 H1771 0.961 . S
C1758 H1772 0.961 . S
C1759 C1756 1.539 . S
C1759 H1773 0.958 . S
C1759 H1774 0.961 . S
C1759 H1775 0.960 . S
H1760 C1744 0.931 . S
H1761 C1749 0.929 . S
H1762 C1750 0.960 . S
H1763 C1750 0.962 . S
H1764 C1750 0.960 . S
H1765 C1751 0.961 . S
H1766 C1751 0.961 . S
H1767 C1751 0.961 . S
H1768 C1752 0.931 . S
H1769 C1757 0.930 . S
H1770 C1758 0.956 . S
H1771 C1758 0.961 . S
H1772 C1758 0.961 . S
H1773 C1759 0.958 . S
H1774 C1759 0.961 . S
H1775 C1759 0.960 . S
C1776 C1777 1.391 1_556 S
C1776 C1778 1.394 1_455 S
C1776 H1792 0.931 . S
C1777 C1776 1.391 1_554 S
C1777 C1781 1.376 . S
C1778 C1776 1.394 1_655 S
C1778 C1779 1.369 1_556 S
C1778 C1782 1.531 . S
C1779 C1778 1.369 1_554 S
C1779 C1780 1.396 1_655 S
C1779 C1787 1.503 . S
C1780 C1779 1.396 1_455 S
C1780 C1781 1.416 . S
C1780 C1783 1.504 1_455 S
C1781 C1777 1.376 . S
C1781 C1780 1.416 . S
C1781 H1793 0.929 . S
C1782 C1778 1.531 . S
C1782 H1794 0.960 . S
C1782 H1795 0.962 1_655 S
C1782 H1796 0.960 . S
C1783 C1780 1.504 1_655 S
C1783 H1797 0.961 1_655 S
C1783 H1798 0.961 1_655 S
C1783 H1799 0.961 . S
C1784 C1785 1.364 1_455 S
C1784 C1786 1.366 . S
C1784 H1800 0.934 . S
C1785 C1784 1.364 1_655 S
C1785 C1789 1.408 . S
C1786 C1784 1.366 . S
C1786 C1787 1.370 1_455 S
C1786 C1790 1.524 . S
C1787 C1779 1.503 . S
C1787 C1786 1.370 1_655 S
C1787 C1788 1.403 . S
C1788 C1787 1.403 . S
C1788 C1789 1.404 . S
C1788 C1791 1.539 . S
C1789 C1785 1.408 . S
C1789 C1788 1.404 . S
C1789 H1801 0.930 . S
C1790 C1786 1.524 . S
C1790 H1802 0.956 1_554 S
C1790 H1803 0.961 . S
C1790 H1804 0.961 . S
C1791 C1788 1.539 . S
C1791 H1805 0.958 . S
C1791 H1806 0.961 . S
C1791 H1807 0.960 . S
H1792 C1776 0.931 . S
H1793 C1781 0.929 . S
H1794 C1782 0.960 . S
H1795 C1782 0.962 1_455 S
H1796 C1782 0.960 . S
H1797 C1783 0.961 1_455 S
H1798 C1783 0.961 1_455 S
H1799 C1783 0.961 . S
H1800 C1784 0.934 . S
H1801 C1789 0.930 . S
H1802 C1790 0.956 1_556 S
H1803 C1790 0.961 . S
H1804 C1790 0.961 . S
H1805 C1791 0.958 . S
H1806 C1791 0.961 . S
H1807 C1791 0.960 . S
C529 C292 0.817 . S
C537 C28 0.703 . S
C561 C61 1.132 . S
C569 C325 1.141 . S
C593 C358 0.815 . S
C601 C94 0.704 . S
C625 C391 0.881 . S
C633 C127 0.737 . S
C657 C160 0.761 . S
C665 C424 0.800 . S
C689 C193 0.668 . S
C697 C457 0.762 1_554 S
C721 C226 1.203 . S
C729 C490 1.113 . S
C753 C259 0.776 1_556 S
C761 C523 0.728 1_554 S
C785 C8 1.713 . S
C793 N500 1.739 . S
C817 C41 1.825 . S
C825 N401 1.838 . S
C849 C74 1.753 . S
C857 N434 1.760 . S
C881 N467 1.892 . S
C889 C107 1.877 . S
C913 C140 1.876 . S
C921 N302 1.885 . S
C945 C173 1.723 . S
C953 N335 1.750 . S
C977 N368 1.846 . S
C985 C206 1.843 . S
C1009 C239 1.710 . S
C1017 N269 1.742 . S
C1041 N236 1.729 . S
C1049 C272 1.725 . S
C1073 N137 1.850 . S
C1081 C305 1.843 . S
C1105 N170 1.729 . S
C1113 C338 1.732 . S
C1137 C371 1.878 . S
C1145 N203 1.874 . S
C1169 N38 1.892 . S
C1177 C404 1.875 . S
C1201 C437 1.718 . S
C1209 N71 1.750 . S
C1233 N104 1.833 . S
C1241 C470 1.839 . S
C1265 N5 1.747 . S
C1273 C503 1.743 . S
C1297 N245 0.779 . S
C1305 N14 0.696 . S
C1329 N146 0.613 . S
C1337 N47 0.526 . S
C1361 N80 0.637 . S
C1369 N179 0.761 . S
C1393 N212 0.495 . S
C1401 N113 0.569 . S
C1425 N509 0.631 . S
C1433 N278 0.749 . S
C1457 N311 0.466 . S
C1465 N410 0.569 . S
C1489 N344 0.698 . S
C1497 N443 0.742 . S
C1521 N377 0.615 . S
C1529 N476 0.512 . S
C1553 C17 1.400 . S
C1561 C413 1.359 . S
C1585 C50 1.529 . S
C1593 C446 1.615 . S
C1617 C83 1.607 . S
C1625 C479 1.508 . S
C1649 C116 1.325 . S
C1657 C512 1.402 . S
C1681 C149 1.329 . S
C1689 C281 1.403 . S
C1713 C182 1.611 . S
C1721 C314 1.505 . S
C1745 C215 1.530 . S
C1753 C347 1.615 . S
C1777 C380 1.310 . S
C1785 C248 1.403 . S
