# Generated by pormake.
# Topology wme, (6)-cn, num edge types: 1
# Building blocks:
#     Node 0, Type 0, BuildingBlock: BETDIP_clean_sbu_0, # of connection points: 6
#     Node 1, Type 0, BuildingBlock: BETDIP_clean_sbu_0, # of connection points: 6
#     Node 2, Type 0, BuildingBlock: BETDIP_clean_sbu_0, # of connection points: 6
#     Node 3, Type 0, BuildingBlock: BETDIP_clean_sbu_0, # of connection points: 6
#     Node 4, Type 0, BuildingBlock: BETDIP_clean_sbu_0, # of connection points: 6
#     Node 5, Type 0, BuildingBlock: BETDIP_clean_sbu_0, # of connection points: 6
#     Node 6, Type 0, BuildingBlock: BETDIP_clean_sbu_0, # of connection points: 6
#     Node 7, Type 0, BuildingBlock: BETDIP_clean_sbu_0, # of connection points: 6
#     Node 8, Type 0, BuildingBlock: BETDIP_clean_sbu_0, # of connection points: 6
#     Node 9, Type 0, BuildingBlock: BETDIP_clean_sbu_0, # of connection points: 6
#     Node 10, Type 0, BuildingBlock: BETDIP_clean_sbu_0, # of connection points: 6
#     Node 11, Type 0, BuildingBlock: BETDIP_clean_sbu_0, # of connection points: 6
#     Edge 12, Type (0, 0), BuildingBlock: EZIPEK_clean_linker_0, # of connection points: 2
#     Edge 13, Type (0, 0), BuildingBlock: EZIPEK_clean_linker_0, # of connection points: 2
#     Edge 14, Type (0, 0), BuildingBlock: EZIPEK_clean_linker_0, # of connection points: 2
#     Edge 15, Type (0, 0), BuildingBlock: EZIPEK_clean_linker_0, # of connection points: 2
#     Edge 16, Type (0, 0), BuildingBlock: EZIPEK_clean_linker_0, # of connection points: 2
#     Edge 17, Type (0, 0), BuildingBlock: EZIPEK_clean_linker_0, # of connection points: 2
#     Edge 18, Type (0, 0), BuildingBlock: EZIPEK_clean_linker_0, # of connection points: 2
#     Edge 19, Type (0, 0), BuildingBlock: EZIPEK_clean_linker_0, # of connection points: 2
#     Edge 20, Type (0, 0), BuildingBlock: EZIPEK_clean_linker_0, # of connection points: 2
#     Edge 21, Type (0, 0), BuildingBlock: EZIPEK_clean_linker_0, # of connection points: 2
#     Edge 22, Type (0, 0), BuildingBlock: EZIPEK_clean_linker_0, # of connection points: 2
#     Edge 23, Type (0, 0), BuildingBlock: EZIPEK_clean_linker_0, # of connection points: 2
#     Edge 24, Type (0, 0), BuildingBlock: EZIPEK_clean_linker_0, # of connection points: 2
#     Edge 25, Type (0, 0), BuildingBlock: EZIPEK_clean_linker_0, # of connection points: 2
#     Edge 26, Type (0, 0), BuildingBlock: EZIPEK_clean_linker_0, # of connection points: 2
#     Edge 27, Type (0, 0), BuildingBlock: EZIPEK_clean_linker_0, # of connection points: 2
#     Edge 28, Type (0, 0), BuildingBlock: EZIPEK_clean_linker_0, # of connection points: 2
#     Edge 29, Type (0, 0), BuildingBlock: EZIPEK_clean_linker_0, # of connection points: 2
#     Edge 30, Type (0, 0), BuildingBlock: EZIPEK_clean_linker_0, # of connection points: 2
#     Edge 31, Type (0, 0), BuildingBlock: EZIPEK_clean_linker_0, # of connection points: 2
#     Edge 32, Type (0, 0), BuildingBlock: EZIPEK_clean_linker_0, # of connection points: 2
#     Edge 33, Type (0, 0), BuildingBlock: EZIPEK_clean_linker_0, # of connection points: 2
#     Edge 34, Type (0, 0), BuildingBlock: EZIPEK_clean_linker_0, # of connection points: 2
#     Edge 35, Type (0, 0), BuildingBlock: EZIPEK_clean_linker_0, # of connection points: 2
#     Edge 36, Type (0, 0), BuildingBlock: EZIPEK_clean_linker_0, # of connection points: 2
#     Edge 37, Type (0, 0), BuildingBlock: EZIPEK_clean_linker_0, # of connection points: 2
#     Edge 38, Type (0, 0), BuildingBlock: EZIPEK_clean_linker_0, # of connection points: 2
#     Edge 39, Type (0, 0), BuildingBlock: EZIPEK_clean_linker_0, # of connection points: 2
#     Edge 40, Type (0, 0), BuildingBlock: EZIPEK_clean_linker_0, # of connection points: 2
#     Edge 41, Type (0, 0), BuildingBlock: EZIPEK_clean_linker_0, # of connection points: 2
#     Edge 42, Type (0, 0), BuildingBlock: EZIPEK_clean_linker_0, # of connection points: 2
#     Edge 43, Type (0, 0), BuildingBlock: EZIPEK_clean_linker_0, # of connection points: 2
#     Edge 44, Type (0, 0), BuildingBlock: EZIPEK_clean_linker_0, # of connection points: 2
#     Edge 45, Type (0, 0), BuildingBlock: EZIPEK_clean_linker_0, # of connection points: 2
#     Edge 46, Type (0, 0), BuildingBlock: EZIPEK_clean_linker_0, # of connection points: 2
#     Edge 47, Type (0, 0), BuildingBlock: EZIPEK_clean_linker_0, # of connection points: 2
# Relax obj value: 0.112
# Max RMSD: 0.221
# Mean RMSD: 0.221
data_MOF--net-wme--node1-BETDIP_clean_sbu_0--edge1-EZIPEK_clean_linker_0
_symmetry_space_group_name_H-M    P1
_symmetry_Int_Tables_number       1
_symmetry_cell_setting            triclinic
loop_
_symmetry_equiv_pos_as_xyz
'x, y, z'
_cell_length_a     31.72152
_cell_length_b     31.775541
_cell_length_c     36.594445
_cell_angle_alpha  90.185702
_cell_angle_beta   89.953156
_cell_angle_gamma 119.7785
loop_
_atom_site_label
_atom_site_type_symbol
_atom_site_fract_x
_atom_site_fract_y
_atom_site_fract_z
_atom_type_partial_charge
Tb0 Tb 0.23993 0.3836 0.10357 0.0
Tb1 Tb 0.28736 0.32858 0.13228 0.0
C2 C 0.20577 0.44018 0.0934 0.0
C3 C 0.20218 0.48235 0.10838 0.0
C4 C 0.1755 0.47828 0.1404 0.0
C5 C 0.16506 0.51499 0.1505 0.0
C6 C 0.18106 0.5568 0.12895 0.0
C7 C 0.20904 0.56162 0.09772 0.0
C8 C 0.21936 0.52493 0.08757 0.0
C9 C 0.26924 0.3407 0.05351 0.0
C10 C 0.35101 0.44053 0.12407 0.0
C11 C 0.31267 0.26511 0.1383 0.0
C12 C 0.28726 0.21145 0.1344 0.0
C13 C 0.25074 0.18717 0.10794 0.0
C14 C 0.2278 0.13656 0.10416 0.0
C15 C 0.24071 0.10923 0.12692 0.0
C16 C 0.27666 0.13335 0.15366 0.0
C17 C 0.29975 0.18397 0.15732 0.0
C18 C 0.2652 0.37283 0.18425 0.0
C19 C 0.17197 0.2745 0.11694 0.0
O20 O 0.18357 0.39922 0.1111 0.0
O21 O 0.24679 0.44738 0.07938 0.0
O22 O 0.28941 0.36196 0.08247 0.0
O23 O 0.23189 0.34668 0.0494 0.0
O24 O 0.30929 0.44051 0.12519 0.0
O25 O 0.35222 0.39931 0.12252 0.0
O26 O 0.29993 0.28232 0.16608 0.0
O27 O 0.31818 0.28996 0.10846 0.0
O28 O 0.24024 0.35202 0.15588 0.0
O29 O 0.30272 0.36658 0.18442 0.0
O30 O 0.21189 0.27112 0.1196 0.0
O31 O 0.17416 0.31671 0.11413 0.0
H32 H 0.16109 0.44593 0.15702 0.0
H33 H 0.14325 0.51011 0.17459 0.0
H34 H 0.22167 0.59327 0.08048 0.0
H35 H 0.23926 0.52907 0.06252 0.0
H36 H 0.24009 0.20732 0.09008 0.0
H37 H 0.2001 0.11872 0.08341 0.0
H38 H 0.28713 0.11297 0.17152 0.0
H39 H 0.32761 0.20171 0.17798 0.0
Tb40 Tb 0.88337 0.22507 0.61085 0.0
Tb41 Tb 0.9807 0.26502 0.64511 0.0
C42 C 0.79589 0.19169 0.59086 0.0
C43 C 0.74719 0.18446 0.60054 0.0
C44 C 0.74053 0.21823 0.62068 0.0
C45 C 0.69348 0.21087 0.62681 0.0
C46 C 0.65156 0.17125 0.61074 0.0
C47 C 0.65916 0.13454 0.59537 0.0
C48 C 0.70591 0.14166 0.58936 0.0
C49 C 0.9601 0.25632 0.56357 0.0
C50 C 0.93376 0.33314 0.63826 0.0
C51 C 0.07048 0.30008 0.65514 0.0
C52 C 0.10094 0.27849 0.66413 0.0
C53 C 0.08013 0.22776 0.6651 0.0
C54 C 0.10947 0.20643 0.66284 0.0
C55 C 0.16013 0.23551 0.6603 0.0
C56 C 0.18113 0.2862 0.66193 0.0
C57 C 0.15168 0.30754 0.66349 0.0
C58 C 0.90917 0.21759 0.69286 0.0
C59 C 0.91937 0.15336 0.62834 0.0
O60 O 0.81148 0.16718 0.60952 0.0
O61 O 0.83098 0.23531 0.5829 0.0
O62 O 0.95668 0.27368 0.59338 0.0
O63 O 0.91748 0.21884 0.55902 0.0
O64 O 0.89258 0.29442 0.62857 0.0
O65 O 0.97402 0.33121 0.64527 0.0
O66 O 0.04864 0.28508 0.62368 0.0
O67 O 1.04136 0.3008 0.68036 0.0
O68 O 0.90897 0.24361 0.66673 0.0
O69 O 0.95145 0.2208 0.69335 0.0
O70 O 0.96355 0.19157 0.62746 0.0
O71 O 0.88113 0.15889 0.62813 0.0
H72 H 0.77161 0.25013 0.63192 0.0
H73 H 0.6913 0.23634 0.64503 0.0
H74 H 0.62911 0.09961 0.58774 0.0
H75 H 0.70977 0.11345 0.57569 0.0
H76 H 1.04105 0.20462 0.6652 0.0
H77 H 0.09261 0.16729 0.66168 0.0
H78 H 0.22016 0.3092 0.65997 0.0
H79 H 0.16843 0.34665 0.66201 0.0
Tb80 Tb 0.68828 0.87542 0.11754 0.0
Tb81 Tb 0.74663 0.97686 0.14448 0.0
C82 C 0.62623 0.78706 0.11422 0.0
C83 C 0.58856 0.73496 0.11449 0.0
C84 C 0.55799 0.71533 0.14507 0.0
C85 C 0.52273 0.66621 0.14613 0.0
C86 C 0.51733 0.63553 0.11674 0.0
C87 C 0.54819 0.65471 0.08632 0.0
C88 C 0.58352 0.70406 0.08519 0.0
C89 C 0.73099 0.94367 0.06612 0.0
C90 C 0.63483 0.93698 0.13441 0.0
C91 C 0.81277 0.06454 0.14852 0.0
C92 C 0.86631 0.091 0.14547 0.0
C93 C 0.89105 0.14129 0.13997 0.0
C94 C 0.94156 0.16666 0.13546 0.0
C95 C 0.96812 0.14206 0.13615 0.0
C96 C 0.94341 0.09176 0.1418 0.0
C97 C 0.893 0.06655 0.14668 0.0
C98 C 0.70342 0.91231 0.19717 0.0
C99 C 0.7954 0.90867 0.13292 0.0
O100 O 0.63107 0.815 0.14204 0.0
O101 O 0.65593 0.80942 0.08701 0.0
O102 O 0.71074 0.94565 0.09502 0.0
O103 O 0.72386 0.89985 0.06316 0.0
O104 O 0.63151 0.89462 0.12697 0.0
O105 O 0.67747 0.97683 0.13968 0.0
O106 O 0.78901 0.04387 0.1185 0.0
O107 O 0.79424 0.03637 0.17692 0.0
O108 O 0.72342 0.90756 0.16862 0.0
O109 O 0.70952 0.95592 0.1971 0.0
O110 O 0.80129 0.95321 0.1334 0.0
O111 O 0.75168 0.87054 0.13155 0.0
H112 H 0.56106 0.73799 0.16824 0.0
H113 H 0.49909 0.65223 0.1697 0.0
H114 H 0.54434 0.63162 0.06325 0.0
H115 H 0.60673 0.71801 0.06141 0.0
H116 H 0.87123 0.16089 0.1388 0.0
H117 H 0.95992 0.20544 0.1309 0.0
H118 H 0.96313 0.07204 0.1422 0.0
H119 H 0.87507 1.02801 0.1511 0.0
Tb120 Tb 0.85208 0.67231 0.59706 0.0
Tb121 Tb 0.80596 0.73179 0.6295 0.0
C122 C 0.88719 0.61774 0.58481 0.0
C123 C 0.89372 0.578 0.59978 0.0
C124 C 0.85449 0.53274 0.60994 0.0
C125 C 0.86263 0.4948 0.62038 0.0
C126 C 0.90998 0.50159 0.62073 0.0
C127 C 0.94911 0.54719 0.61175 0.0
C128 C 0.94104 0.58495 0.60142 0.0
C129 C 0.81741 0.71279 0.55007 0.0
C130 C 0.74322 0.61688 0.62537 0.0
C131 C 0.77589 0.79138 0.62545 0.0
C132 C 0.79913 0.84453 0.62917 0.0
C133 C 0.77989 0.86923 0.60981 0.0
C134 C 0.80427 0.91997 0.60927 0.0
C135 C 0.84843 0.94685 0.62797 0.0
C136 C 0.86784 0.92222 0.64733 0.0
C137 C 0.84348 0.87138 0.64778 0.0
C138 C 0.84491 0.70567 0.68311 0.0
C139 C 0.92106 0.78302 0.61235 0.0
O140 O 0.91057 0.65959 0.60162 0.0
O141 O 0.84413 0.60822 0.57331 0.0
O142 O 0.80164 0.69443 0.58071 0.0
O143 O 0.8531 0.70516 0.54267 0.0
O144 O 0.78479 0.61642 0.62246 0.0
O145 O 0.74177 0.65825 0.6258 0.0
O146 O 0.79172 0.77751 0.59753 0.0
O147 O 0.77099 0.76576 0.65495 0.0
O148 O 0.84465 0.69779 0.6491 0.0
O149 O 0.82106 0.72875 0.68791 0.0
O150 O 0.88241 0.78807 0.61844 0.0
O151 O 0.91746 0.74061 0.60566 0.0
H152 H 0.81762 0.52628 0.60889 0.0
H153 H 0.83191 0.45967 0.62688 0.0
H154 H 0.98578 0.55303 0.61146 0.0
H155 H 0.97187 0.61935 0.59351 0.0
H156 H 0.74633 0.8492 0.59459 0.0
H157 H 0.7886 0.93832 0.59441 0.0
H158 H 0.90174 0.94238 0.6621 0.0
H159 H 0.85954 0.85306 0.66218 0.0
Tb160 Tb 0.20083 0.82549 0.11346 0.0
Tb161 Tb 0.10449 0.79295 0.14584 0.0
C162 C 0.28807 0.85435 0.09503 0.0
C163 C 0.33654 0.86292 0.1073 0.0
C164 C 0.35988 0.8913 0.13841 0.0
C165 C 0.4088 0.90613 0.1458 0.0
C166 C 0.43543 0.89285 0.12235 0.0
C167 C 0.41174 0.86331 0.09197 0.0
C168 C 0.36293 0.84861 0.08452 0.0
C169 C 0.12469 0.79122 0.06512 0.0
C170 C 0.14756 0.72019 0.14527 0.0
C171 C 1.01573 0.76644 0.15417 0.0
C172 C 0.98864 0.79294 0.16018 0.0
C173 C 1.00908 0.84161 0.14905 0.0
C174 C 0.98066 0.86388 0.14633 0.0
C175 C 0.93112 0.83825 0.15509 0.0
C176 C 0.91099 0.79043 0.16809 0.0
C177 C 0.93947 0.76786 0.17038 0.0
C178 C 0.17641 0.84337 0.19354 0.0
C179 C 0.16954 0.90197 0.12295 0.0
O180 O 0.27257 0.8819 0.10932 0.0
O181 O 0.25268 0.80994 0.08968 0.0
O182 O 0.12718 0.77643 0.09616 0.0
O183 O 0.16767 0.82784 0.06005 0.0
O184 O 0.18984 0.7578 0.13629 0.0
O185 O 0.10773 0.72426 0.14961 0.0
O186 O 1.03828 0.77659 0.12285 0.0
O187 O 1.04276 0.76458 0.18065 0.0
O188 O 0.17513 0.81387 0.16955 0.0
O189 O 0.13558 0.84289 0.19158 0.0
O190 O 0.12505 0.86447 0.12198 0.0
O191 O 0.20658 0.89477 0.12583 0.0
H192 H 0.34088 0.90342 0.1564 0.0
H193 H 0.42622 0.92884 0.16941 0.0
H194 H 0.43145 0.85256 0.07351 0.0
H195 H 0.34626 0.82745 0.0601 0.0
H196 H 0.04641 0.86167 0.14023 0.0
H197 H 0.99696 0.90065 0.13614 0.0
H198 H 0.87275 0.7699 0.17487 0.0
H199 H 0.92249 0.73015 0.17838 0.0
Tb200 Tb 0.39949 0.19352 0.60662 0.0
Tb201 Tb 0.33942 0.0956 0.64188 0.0
C202 C 0.44868 0.28236 0.58898 0.0
C203 C 0.48989 0.32974 0.60173 0.0
C204 C 0.48387 0.37074 0.60294 0.0
C205 C 0.52336 0.41708 0.61026 0.0
C206 C 0.56993 0.42363 0.61656 0.0
C207 C 0.57575 0.38248 0.61673 0.0
C208 C 0.5362 0.33604 0.60942 0.0
C209 C 0.35323 0.11714 0.56074 0.0
C210 C 0.4539 0.13815 0.62939 0.0
C211 C 0.28158 1.00602 0.64856 0.0
C212 C 0.22816 0.97705 0.64317 0.0
C213 C 0.20392 0.99437 0.62091 0.0
C214 C 0.15352 0.96695 0.61563 0.0
C215 C 0.12623 0.92186 0.63286 0.0
C216 C 0.15024 0.90485 0.65559 0.0
C217 C 0.20077 0.9322 0.66068 0.0
C218 C 0.37786 0.1671 0.69032 0.0
C219 C 0.29325 0.16302 0.63377 0.0
O220 O 0.40815 0.26389 0.60742 0.0
O221 O 0.45828 0.24887 0.57786 0.0
O222 O 0.33873 0.12493 0.59058 0.0
O223 O 0.39346 0.15629 0.55359 0.0
O224 O 0.45712 0.18097 0.62514 0.0
O225 O 0.41073 0.09832 0.63408 0.0
O226 O 0.3075 1.02564 0.61915 0.0
O227 O 0.29633 0.03639 0.6761 0.0
O228 O 0.39793 0.16532 0.66069 0.0
O229 O 0.33945 0.12522 0.69513 0.0
O230 O 0.2842 0.11779 0.63704 0.0
O231 O 0.33638 0.1986 0.62415 0.0
H232 H 0.4488 0.36716 0.59692 0.0
H233 H 0.51792 0.44814 0.60966 0.0
H234 H 0.61134 0.38656 0.62126 0.0
H235 H 0.54227 0.30537 0.60869 0.0
H236 H 0.22403 1.02907 0.60748 0.0
H237 H 0.13584 0.9807 0.59787 0.0
H238 H 0.12992 0.87006 0.669 0.0
H239 H 0.2185 0.9182 0.67815 0.0
Tb240 Tb 0.68723 0.83024 0.40881 0.0
Tb241 Tb 0.74898 0.78348 0.37943 0.0
C242 C 0.64538 0.88008 0.41346 0.0
C243 C 0.60198 0.88402 0.40393 0.0
C244 C 0.60834 0.93021 0.39651 0.0
C245 C 0.56827 0.93689 0.39139 0.0
C246 C 0.52083 0.8974 0.39342 0.0
C247 C 0.51436 0.85076 0.39946 0.0
C248 C 0.55458 0.84409 0.40471 0.0
C249 C 0.72647 0.79813 0.45826 0.0
C250 C 0.63383 0.71778 0.39118 0.0
C251 C 0.80918 0.75407 0.38031 0.0
C252 C 0.86174 0.77884 0.38879 0.0
C253 C 0.88193 0.81538 0.4156 0.0
C254 C 0.93214 0.84096 0.42177 0.0
C255 C 0.96308 0.83072 0.40088 0.0
C256 C 0.94305 0.79432 0.374 0.0
C257 C 0.89278 0.76861 0.36799 0.0
C258 C 0.70948 0.80789 0.32496 0.0
C259 C 0.79868 0.8992 0.38884 0.0
O260 O 0.6748 0.88421 0.38685 0.0
O261 O 0.64083 0.84788 0.43783 0.0
O262 O 0.7436 0.81737 0.42783 0.0
O263 O 0.68788 0.80171 0.46394 0.0
O264 O 0.6304 0.7578 0.39315 0.0
O265 O 0.67652 0.7189 0.3891 0.0
O266 O 0.7794 0.74735 0.40752 0.0
O267 O 0.79788 0.7694 0.35075 0.0
O268 O 0.70266 0.80732 0.35899 0.0
O269 O 0.73625 0.78785 0.32057 0.0
O270 O 0.80404 0.86131 0.38042 0.0
O271 O 0.758 0.89472 0.40249 0.0
H272 H 0.6445 0.96159 0.39588 0.0
H273 H 0.57423 0.97317 0.3871 0.0
H274 H 0.47808 0.81979 0.40138 0.0
H275 H 0.54861 0.80809 0.41037 0.0
H276 H 0.85886 0.82441 0.43146 0.0
H277 H 0.94686 0.86871 0.44278 0.0
H278 H 0.96636 0.78566 0.35781 0.0
H279 H 0.87816 0.74102 0.34686 0.0
Tb280 Tb 0.89254 0.6626 0.90375 0.0
Tb281 Tb 0.9872 0.72328 0.87284 0.0
C282 C 0.80811 0.59493 0.92056 0.0
C283 C 0.75477 0.56903 0.9139 0.0
C284 C 0.73461 0.56752 0.87934 0.0
C285 C 0.68487 0.53567 0.87262 0.0
C286 C 0.65455 0.50437 0.90021 0.0
C287 C 0.67445 0.50758 0.93508 0.0
C288 C 0.72389 0.53951 0.94181 0.0
C289 C 0.96691 0.70217 0.95336 0.0
C290 C 0.95136 0.61196 0.87707 0.0
C291 C 0.07357 0.79271 0.86711 0.0
C292 C 0.10101 0.84658 0.86632 0.0
C293 C 0.12416 0.87192 0.89852 0.0
C294 C 0.15281 0.92233 0.89866 0.0
C295 C 0.15937 0.94877 0.86659 0.0
C296 C 0.13592 0.92398 0.83433 0.0
C297 C 0.10701 0.87317 0.83416 0.0
C298 C 0.9217 0.6824 0.82064 0.0
C299 C 0.9162 0.76671 0.89079 0.0
O300 O 0.8292 0.63748 0.93641 0.0
O301 O 0.83545 0.59177 0.89531 0.0
O302 O 0.96561 0.68439 0.92246 0.0
O303 O 0.92412 0.69693 0.95754 0.0
O304 O 0.90846 0.60741 0.8832 0.0
O305 O 0.99069 0.65552 0.8752 0.0
O306 O 0.04721 0.76839 0.83899 0.0
O307 O 0.05143 0.77401 0.89773 0.0
O308 O 0.91529 0.69864 0.85087 0.0
O309 O 0.96538 0.68869 0.82008 0.0
O310 O 0.96148 0.77535 0.88693 0.0
O311 O 0.87992 0.72191 0.89176 0.0
H312 H 0.75754 0.58966 0.85727 0.0
H313 H 0.67042 0.53409 0.84553 0.0
H314 H 0.65201 0.48405 0.95683 0.0
H315 H 0.7385 0.53956 0.96858 0.0
H316 H 0.12071 0.85264 0.9237 0.0
H317 H 0.17066 0.94073 0.92376 0.0
H318 H 0.1407 0.94388 0.80926 0.0
H319 H 0.08999 0.85479 0.80887 0.0
Tb320 Tb 0.23976 0.86517 0.42098 0.0
Tb321 Tb 0.28018 0.96663 0.39329 0.0
C322 C 0.20554 0.77558 0.43344 0.0
C323 C 0.19617 0.72804 0.41803 0.0
C324 C 0.23334 0.71664 0.41255 0.0
C325 C 0.22203 0.66928 0.40253 0.0
C326 C 0.17341 0.63237 0.39802 0.0
C327 C 0.13651 0.64409 0.40248 0.0
C328 C 0.14774 0.69123 0.41236 0.0
C329 C 0.26837 0.93705 0.47178 0.0
C330 C 0.3476 0.91784 0.39357 0.0
C331 C 0.31603 0.05698 0.38999 0.0
C332 C 0.29463 0.08901 0.38643 0.0
C333 C 0.30945 0.12807 0.41086 0.0
C334 C 0.28704 0.1565 0.41069 0.0
C335 C 0.24935 0.14654 0.38602 0.0
C336 C 0.23442 0.10761 0.36141 0.0
C337 C 0.25666 0.07882 0.36176 0.0
C338 C 0.23132 0.89974 0.342 0.0
C339 C 0.169 0.90399 0.4114 0.0
O340 O 0.18074 0.79434 0.41934 0.0
O341 O 0.24981 0.80893 0.44235 0.0
O342 O 0.28715 0.93654 0.44202 0.0
O343 O 0.23287 0.8933 0.47609 0.0
O344 O 0.30791 0.87566 0.39907 0.0
O345 O 0.34629 0.95918 0.3915 0.0
O346 O 0.30512 0.03267 0.42059 0.0
O347 O 0.31415 0.03043 0.36174 0.0
O348 O 0.25805 0.89744 0.36683 0.0
O349 O 0.23353 0.94139 0.34525 0.0
O350 O 0.20751 0.9479 0.41426 0.0
O351 O 0.17429 0.86598 0.40659 0.0
H352 H 0.27097 0.74384 0.41698 0.0
H353 H 0.25112 0.66103 0.3995 0.0
H354 H 0.09879 0.61627 0.39951 0.0
H355 H 0.11817 0.69848 0.41684 0.0
H356 H 0.33805 0.13618 0.43052 0.0
H357 H 0.2993 0.18654 0.4297 0.0
H358 H 0.20559 0.09953 0.34202 0.0
H359 H 0.24384 0.04841 0.34307 0.0
Tb360 Tb 0.40746 0.22876 0.91204 0.0
Tb361 Tb 0.34518 0.26561 0.88043 0.0
C362 C 0.4553 0.18617 0.92721 0.0
C363 C 0.49629 0.17835 0.91552 0.0
C364 C 0.4894 0.14297 0.88916 0.0
C365 C 0.5261 0.13147 0.88179 0.0
C366 C 0.5703 0.15431 0.90108 0.0
C367 C 0.57753 0.18998 0.92706 0.0
C368 C 0.54106 0.20181 0.93421 0.0
C369 C 0.36256 0.25725 0.9607 0.0
C370 C 0.45983 0.33862 0.8908 0.0
C371 C 0.28832 0.29928 0.87555 0.0
C372 C 0.23468 0.27588 0.87774 0.0
C373 C 0.21262 0.30349 0.88652 0.0
C374 C 0.16197 0.28122 0.89011 0.0
C375 C 0.13253 0.23084 0.8853 0.0
C376 C 0.15466 0.20321 0.87667 0.0
C377 C 0.20518 0.22554 0.87272 0.0
C378 C 0.38177 0.23324 0.82976 0.0
C379 C 0.29926 0.15303 0.88688 0.0
O380 O 0.41573 0.1671 0.90748 0.0
O381 O 0.4655 0.22858 0.9402 0.0
O382 O 0.34668 0.23511 0.93101 0.0
O383 O 0.4038 0.25934 0.96604 0.0
O384 O 0.46465 0.29982 0.8947 0.0
O385 O 0.41596 0.33412 0.88688 0.0
O386 O 0.31015 0.29927 0.90588 0.0
O387 O 0.306 0.28801 0.8472 0.0
O388 O 0.40384 0.25624 0.85855 0.0
O389 O 0.34011 0.23159 0.82826 0.0
O390 O 0.2902 0.18918 0.88391 0.0
O391 O 0.34313 0.16083 0.89535 0.0
H392 H 0.45512 0.12311 0.87487 0.0
H393 H 0.51956 0.10385 0.86163 0.0
H394 H 0.61126 0.20821 0.94228 0.0
H395 H 0.54745 0.22846 0.95518 0.0
H396 H 0.23459 0.34225 0.89079 0.0
H397 H 0.1457 0.30322 0.89687 0.0
H398 H 0.13276 0.16434 0.87291 0.0
H399 H 0.22111 0.20336 0.86584 0.0
Tb400 Tb 0.2 0.38747 0.40954 0.0
Tb401 Tb 0.10964 0.3273 0.37193 0.0
C402 C 0.28307 0.45313 0.43136 0.0
C403 C 0.33511 0.48332 0.42046 0.0
C404 C 0.3492 0.5129 0.38933 0.0
C405 C 0.39817 0.54796 0.38368 0.0
C406 C 0.43455 0.55744 0.41024 0.0
C407 C 0.42073 0.52123 0.43752 0.0
C408 C 0.37182 0.48622 0.44338 0.0
C409 C 0.12153 0.34126 0.45493 0.0
C410 C 0.14285 0.4376 0.37983 0.0
C411 C 1.02718 0.25645 0.35541 0.0
C412 C 1.00284 0.20281 0.35883 0.0
C413 C 0.99218 0.18047 0.39345 0.0
C414 C 0.96408 0.13006 0.3966 0.0
C415 C 0.94624 0.10082 0.36531 0.0
C416 C 0.95887 0.12269 0.33068 0.0
C417 C 0.98672 0.17327 0.32748 0.0
C418 C 0.18049 0.37671 0.32482 0.0
C419 C 0.18064 0.28582 0.39138 0.0
O420 O 0.26563 0.40698 0.43772 0.0
O421 O 0.25142 0.46128 0.41484 0.0
O422 O 0.12448 0.36057 0.42447 0.0
O423 O 0.16492 0.34911 0.46124 0.0
O424 O 0.18569 0.44255 0.38709 0.0
O425 O 0.10404 0.39386 0.37579 0.0
O426 O 1.03735 0.28073 0.3858 0.0
O427 O 0.06257 0.2776 0.33198 0.0
O428 O 0.1841 0.35767 0.35443 0.0
O429 O 0.13618 0.36809 0.32186 0.0
O430 O 0.13492 0.27598 0.38857 0.0
O431 O 0.21554 0.33112 0.39386 0.0
H432 H 0.32232 0.50974 0.3696 0.0
H433 H 0.40664 0.56753 0.35823 0.0
H434 H 0.44697 0.51894 0.45481 0.0
H435 H 0.36263 0.46197 0.46649 0.0
H436 H 1.00406 0.20194 0.41827 0.0
H437 H 0.95461 0.11397 0.42355 0.0
H438 H 0.94526 0.10074 0.30619 0.0
H439 H 0.99428 0.18939 0.30053 0.0
Tb440 Tb 0.84536 0.18401 0.91718 0.0
Tb441 Tb 0.8124 0.08492 0.88662 0.0
C442 C 0.88493 0.27418 0.93086 0.0
C443 C 0.89371 0.32131 0.91523 0.0
C444 C 0.92983 0.34633 0.8886 0.0
C445 C 0.94226 0.39363 0.87799 0.0
C446 C 0.91906 0.41708 0.89387 0.0
C447 C 0.8823 0.39182 0.91975 0.0
C448 C 0.86981 0.34461 0.9303 0.0
C449 C 0.81486 0.11186 0.96662 0.0
C450 C 0.73703 0.12516 0.89274 0.0
C451 C 0.78024 0.99495 0.88063 0.0
C452 C 0.80298 0.96403 0.88367 0.0
C453 C 0.84533 0.97878 0.90454 0.0
C454 C 0.86683 0.94945 0.90672 0.0
C455 C 0.8464 0.90486 0.88805 0.0
C456 C 0.80421 0.89025 0.86712 0.0
C457 C 0.78272 0.91956 0.86495 0.0
C458 C 0.84794 0.15352 0.83605 0.0
C459 C 0.92414 0.15306 0.89901 0.0
O460 O 0.90744 0.25335 0.91616 0.0
O461 O 0.84073 0.24239 0.94063 0.0
O462 O 0.83864 0.11771 0.93787 0.0
O463 O 0.81231 0.15092 0.97075 0.0
O464 O 0.7752 0.16896 0.89641 0.0
O465 O 0.74265 0.08625 0.89059 0.0
O466 O 0.77765 1.01593 0.91076 0.0
O467 O 0.79386 1.02451 0.85277 0.0
O468 O 0.8224 0.15219 0.86333 0.0
O469 O 0.84935 0.11351 0.83529 0.0
O470 O 0.88882 0.10733 0.8972 0.0
O471 O 0.9148 0.18885 0.90355 0.0
H472 H 0.94968 0.33007 0.87679 0.0
H473 H 0.971 0.41249 0.85822 0.0
H474 H 0.86414 0.40924 0.93259 0.0
H475 H 0.84249 0.32691 0.95127 0.0
H476 H 0.86184 1.013 0.91912 0.0
H477 H 0.8994 0.96149 0.92295 0.0
H478 H 0.78789 0.85607 0.85245 0.0
H479 H 0.75026 0.90751 0.84858 0.0
C480 C 0.21295 0.98377 0.09292 0.0
C481 C 0.17969 0.95329 0.11998 0.0
C482 C 0.17846 1.0244 0.14604 0.0
C483 C 0.2172 0.05533 0.12264 0.0
N484 N 0.27374 0.06514 0.07494 0.0
N485 N 0.13259 0.94535 0.17408 0.0
C486 C 0.23486 0.03515 0.09618 0.0
C487 C 0.16232 0.97368 0.14672 0.0
N488 N 0.22251 0.96334 0.06343 0.0
N489 N 0.15671 0.04354 0.16739 0.0
H490 H 0.11861 0.90811 0.1751 0.0
H491 H 0.12399 0.95908 0.197 0.0
H492 H 0.16811 0.08051 0.16797 0.0
H493 H 0.12489 1.02252 0.18204 0.0
H494 H 0.24269 0.98307 0.04094 0.0
H495 H 0.20598 0.92591 0.05969 0.0
H496 H 0.29208 0.05292 0.05827 0.0
H497 H 0.28994 0.10284 0.07583 0.0
C498 C 0.23638 0.17447 0.67592 0.0
C499 C 0.25397 0.17518 0.63999 0.0
C500 C 0.20867 0.21409 0.61721 0.0
C501 C 0.19096 0.21303 0.65311 0.0
N502 N 0.18132 0.18588 0.71551 0.0
N503 N 0.25102 0.18808 0.57548 0.0
C504 C 0.20265 0.19105 0.68207 0.0
C505 C 0.23838 0.19287 0.61036 0.0
N506 N 0.25396 0.16044 0.70462 0.0
N507 N 0.19759 0.23611 0.58975 0.0
H508 H 0.2731 0.17326 0.56957 0.0
H509 H 0.23699 0.19527 0.55215 0.0
H510 H 0.1733 0.24899 0.59296 0.0
H511 H 0.21399 0.24383 0.56415 0.0
H512 H 0.24844 0.16559 0.73193 0.0
H513 H 0.27654 0.14583 0.70119 0.0
H514 H 0.1833 0.16488 0.73649 0.0
H515 H 0.15878 0.20009 0.72174 0.0
C516 C 1.03875 0.18934 0.0942 0.0
C517 C 1.02151 0.16896 0.12915 0.0
C518 C 0.1058 0.20199 0.14983 0.0
C519 C 0.12247 0.23073 0.11773 0.0
N520 N 0.10395 0.2521 0.05893 0.0
N521 N 1.03865 0.1591 0.19178 0.0
C522 C 0.08869 0.22413 0.08964 0.0
C523 C 0.05504 0.17562 0.15732 0.0
N524 N 1.00754 0.17463 0.06515 0.0
N525 N 0.1381 0.19965 0.17318 0.0
H526 H 1.00187 0.14012 0.19853 0.0
H527 H 0.06156 0.16786 0.21434 0.0
H528 H 0.17516 0.2166 0.16794 0.0
H529 H 0.12757 0.17621 0.19542 0.0
H530 H 1.01904 0.18427 0.03829 0.0
H531 H 0.97082 0.14874 0.0674 0.0
H532 H 0.08017 0.25386 0.0402 0.0
H533 H 0.14042 0.27566 0.05319 0.0
C534 C 0.90092 1.0293 0.59948 0.0
C535 C 0.87237 1.0008 0.6293 0.0
C536 C 0.88853 0.07469 0.66194 0.0
C537 C 0.91097 0.10276 0.63026 0.0
N538 N 0.93671 0.10668 0.56782 0.0
N539 N 0.83396 0.99568 0.68729 0.0
C540 C 0.91723 0.08012 0.59881 0.0
C541 C 0.86497 1.02335 0.66015 0.0
N542 N 0.9127 1.00775 0.57201 0.0
N543 N 0.89132 0.09727 0.69431 0.0
H544 H 0.81655 0.9579 0.68749 0.0
H545 H 0.82234 1.00993 0.70812 0.0
H546 H 0.91114 0.1346 0.69701 0.0
H547 H 0.87957 0.07925 0.71917 0.0
H548 H 0.93721 1.02696 0.55128 0.0
H549 H 0.90074 0.97066 0.57155 0.0
H550 H 0.93708 0.09148 0.54267 0.0
H551 H 0.95025 0.14403 0.56677 0.0
C552 C 0.87033 0.8471 0.11606 0.0
C553 C 0.89983 0.86047 0.14794 0.0
C554 C 0.86778 0.9137 0.16698 0.0
C555 C 0.83743 0.89953 0.13544 0.0
N556 N 0.81852 0.86244 0.07585 0.0
N557 N 0.93348 0.9126 0.20044 0.0
C558 C 0.84139 0.86905 0.10878 0.0
C559 C 0.90082 0.89591 0.17225 0.0
N560 N 0.86944 0.81276 0.09292 0.0
N561 N 0.86327 0.94213 0.19292 0.0
H562 H 0.95602 0.89837 0.20654 0.0
H563 H 0.9406 0.94249 0.2165 0.0
H564 H 0.84195 0.9581 0.18916 0.0
H565 H 0.879 0.94851 0.21875 0.0
H566 H 0.84441 0.79671 0.07182 0.0
H567 H 0.89229 0.79814 0.09587 0.0
H568 H 0.82352 0.84489 0.05362 0.0
H569 H 0.79777 0.87857 0.06951 0.0
C570 C 1.00602 0.83147 0.58733 0.0
C571 C 0.97181 0.82542 0.61501 0.0
C572 C 1.03851 0.8904 0.6508 0.0
C573 C 0.07287 0.8911 0.62559 0.0
N574 N 0.08997 0.85925 0.5713 0.0
N575 N 0.95724 0.84573 0.67582 0.0
C576 C 0.05674 0.86109 0.5941 0.0
C577 C 0.98835 0.85451 0.64728 0.0
N578 N 0.98999 0.80951 0.55409 0.0
N579 N 0.05385 0.92425 0.67812 0.0
H580 H 0.92066 0.81945 0.67523 0.0
H581 H 0.96858 0.86151 0.70153 0.0
H582 H 0.09029 0.95027 0.68187 0.0
H583 H 1.03021 0.92925 0.69498 0.0
H584 H 1.01255 0.81704 0.53148 0.0
H585 H 0.95341 0.78698 0.54802 0.0
H586 H 0.08058 0.83311 0.55097 0.0
H587 H 0.12741 0.88137 0.57448 0.0
C588 C 0.08589 0.85711 0.43849 0.0
C589 C 0.11809 0.89474 0.41466 0.0
C590 C 0.04836 0.89866 0.38902 0.0
C591 C 1.01631 0.85589 0.40838 0.0
N592 N 1.0036 0.79333 0.45125 0.0
N593 N 0.12986 0.95083 0.36605 0.0
C594 C 1.03484 0.83511 0.43334 0.0
C595 C 0.09944 0.91613 0.39006 0.0
N596 N 0.10437 0.8429 0.46654 0.0
N597 N 1.02984 0.92252 0.36967 0.0
H598 H 0.16736 0.96552 0.36634 0.0
H599 H 0.1178 0.96328 0.3444 0.0
H600 H 0.99266 0.91008 0.36783 0.0
H601 H 0.05123 0.95657 0.35807 0.0
H602 H 0.08322 0.81845 0.48666 0.0
H603 H 0.14144 0.85897 0.47167 0.0
H604 H 1.01474 0.77268 0.46608 0.0
H605 H 0.96591 0.77745 0.44961 0.0
C606 C 0.24009 1.02246 0.85278 0.0
C607 C 0.19252 1.00233 0.8672 0.0
C608 C 0.21294 0.08159 0.8934 0.0
C609 C 0.26039 0.10222 0.87803 0.0
N610 N 0.31194 0.09494 0.83278 0.0
N611 N 0.12986 1.01452 0.89351 0.0
C612 C 0.27184 0.07338 0.85467 0.0
C613 C 0.17776 0.03258 0.88503 0.0
N614 N 0.25575 0.99288 0.83837 0.0
N615 N 0.20188 0.10765 0.91741 0.0
H616 H 0.10335 0.97882 0.88779 0.0
H617 H 0.11571 0.03592 0.90295 0.0
H618 H 0.22571 0.14362 0.924 0.0
H619 H 0.17018 0.09259 0.9329 0.0
H620 H 0.29188 1.00511 0.83148 0.0
H621 H 0.23358 0.95541 0.836 0.0
H622 H 0.31963 0.07637 0.81273 0.0
H623 H 0.33427 0.13236 0.83154 0.0
C624 C 0.17314 0.20556 0.41081 0.0
C625 C 0.19409 0.24693 0.38766 0.0
C626 C 0.25019 0.22131 0.36281 0.0
C627 C 0.22792 0.17913 0.38476 0.0
N628 N 0.16277 0.12611 0.42464 0.0
N629 N 0.24535 0.288 0.33575 0.0
C630 C 0.18751 0.16963 0.40708 0.0
C631 C 0.23055 0.25298 0.36199 0.0
N632 N 0.14179 0.20197 0.43788 0.0
N633 N 0.29118 0.23198 0.3434 0.0
H634 H 0.23256 0.31232 0.334 0.0
H635 H 0.26692 0.29019 0.31355 0.0
H636 H 0.30553 0.20876 0.34183 0.0
H637 H 0.31296 0.26532 0.33089 0.0
H638 H 0.12943 0.17558 0.45814 0.0
H639 H 0.13114 0.22779 0.44211 0.0
H640 H 0.12994 0.1146 0.43812 0.0
H641 H 0.17309 0.09966 0.42318 0.0
C642 C 0.04773 0.18684 0.85859 0.0
C643 C 0.07852 0.20702 0.88949 0.0
C644 C 1.00734 0.18833 0.92746 0.0
C645 C 0.97626 0.16586 0.897 0.0
N646 N 0.96638 0.13413 0.83565 0.0
N647 N 0.08658 0.21668 0.95489 0.0
C648 C 0.9963 0.16184 0.86328 0.0
C649 C 0.05798 0.20477 0.92441 0.0
N650 N 0.06754 0.19367 0.82443 0.0
N651 N 0.98866 0.19477 0.95929 0.0
H652 H 0.12365 0.22836 0.95383 0.0
H653 H 0.07276 0.21054 0.98134 0.0
H654 H 0.95153 0.18031 0.96372 0.0
H655 H 1.01028 0.21706 0.98042 0.0
H656 H 0.0471 0.1848 0.8005 0.0
H657 H 0.10489 0.2123 0.81972 0.0
H658 H 0.97887 0.12596 0.81183 0.0
H659 H 0.92878 0.11514 0.83801 0.0
C660 C 0.92362 1.01522 0.38322 0.0
C661 C 0.90982 0.04822 0.36911 0.0
C662 C 0.82636 0.98148 0.36177 0.0
C663 C 0.83836 0.94964 0.3806 0.0
N664 N 0.89787 0.93884 0.41406 0.0
N665 N 0.84571 0.06425 0.35172 0.0
C666 C 0.88701 0.96706 0.39239 0.0
C667 C 0.86057 0.03174 0.36018 0.0
N668 N 0.97173 0.02971 0.38738 0.0
N669 N 0.78277 0.96367 0.34418 0.0
H670 H 0.86916 0.10161 0.35077 0.0
H671 H 0.80927 0.05454 0.34916 0.0
H672 H 0.75667 0.92708 0.34372 0.0
H673 H 0.77467 0.98446 0.32663 0.0
H674 H 0.98434 1.00601 0.39394 0.0
H675 H 0.99929 0.06467 0.38103 0.0
H676 H 0.93154 0.95128 0.4265 0.0
H677 H 0.87187 0.90432 0.42247 0.0
C678 C 0.88413 0.81477 0.92347 0.0
C679 C 0.90483 0.80706 0.89148 0.0
C680 C 0.89525 0.87008 0.85982 0.0
C681 C 0.86902 0.87324 0.89018 0.0
N682 N 0.83438 0.84545 0.94994 0.0
N683 N 0.92522 0.82331 0.82769 0.0
C684 C 0.86264 0.84496 0.92189 0.0
C685 C 0.90953 0.83398 0.85932 0.0
N686 N 0.88597 0.79393 0.95561 0.0
N687 N 0.90725 0.90221 0.83167 0.0
H688 H 0.936 0.79729 0.82633 0.0
H689 H 0.92404 0.8374 0.80231 0.0
H690 H 0.89725 0.92892 0.83106 0.0
H691 H 0.9306 0.90522 0.81055 0.0
H692 H 0.87609 0.80184 0.98074 0.0
H693 H 0.90169 0.77195 0.9577 0.0
H694 H 0.8237 0.82168 0.97196 0.0
H695 H 0.81845 0.86733 0.94999 0.0
C696 C 0.17329 0.66364 0.17294 0.0
C697 C 0.14594 0.67203 0.14609 0.0
C698 C 0.1325 0.59805 0.1137 0.0
C699 C 0.16592 0.59406 0.13723 0.0
N700 N 0.22071 0.62507 0.1885 0.0
N701 N 0.10605 0.65077 0.08733 0.0
C702 C 0.18658 0.62708 0.16699 0.0
C703 C 0.12672 0.63978 0.11575 0.0
N704 N 0.18653 0.69083 0.20421 0.0
N705 N 0.10583 0.56161 0.08941 0.0
H706 H 0.10247 0.68154 0.08705 0.0
H707 H 0.09662 0.63187 0.06263 0.0
H708 H 0.1089 0.5305 0.08721 0.0
H709 H 0.07735 0.56001 0.07414 0.0
H710 H 0.20254 0.684 0.22653 0.0
H711 H 0.1774 0.7177 0.20905 0.0
H712 H 0.24116 0.65117 0.20806 0.0
H713 H 0.23114 0.59892 0.18508 0.0
C714 C 0.56006 0.12755 0.5928 0.0
C715 C 0.60002 0.16502 0.61261 0.0
C716 C 0.54139 0.17857 0.64731 0.0
C717 C 0.50153 0.13842 0.63013 0.0
N718 N 0.47437 0.06795 0.59153 0.0
N719 N 0.6206 0.24466 0.63446 0.0
C720 C 0.51128 0.1106 0.60466 0.0
C721 C 0.58924 0.19594 0.63398 0.0
N722 N 0.56783 0.11464 0.55892 0.0
N723 N 0.53353 0.20135 0.676 0.0
H724 H 0.64928 0.26078 0.61591 0.0
H725 H 0.61271 0.26917 0.64751 0.0
H726 H 0.49903 0.18895 0.6871 0.0
H727 H 0.56198 0.22904 0.69075 0.0
H728 H 0.5398 0.09111 0.54164 0.0
H729 H 0.60148 0.1335 0.54596 0.0
H730 H 0.48041 0.04442 0.5753 0.0
H731 H 0.43851 0.05368 0.59996 0.0
C732 C 0.47841 0.54954 0.14043 0.0
C733 C 0.4768 0.58422 0.1169 0.0
C734 C 0.39786 0.52167 0.09359 0.0
C735 C 0.39629 0.48857 0.12045 0.0
N736 N 0.4328 0.47342 0.1729 0.0
N737 N 0.43098 0.60542 0.07572 0.0
C738 C 0.43616 0.50296 0.14467 0.0
C739 C 0.43548 0.57083 0.09468 0.0
N740 N 0.52057 0.56092 0.1583 0.0
N741 N 0.36429 0.50591 0.06608 0.0
H742 H 0.45749 0.642 0.07574 0.0
H743 H 0.399 0.5986 0.06267 0.0
H744 H 0.3365 0.47014 0.06359 0.0
H745 H 0.36693 0.52711 0.04359 0.0
H746 H 0.52568 0.53572 0.1729 0.0
H747 H 0.55196 0.59465 0.15587 0.0
H748 H 0.45843 0.48413 0.19376 0.0
H749 H 0.40234 0.43954 0.17728 0.0
C750 C 0.9219 0.4349 0.59502 0.0
C751 C 0.9185 0.4598 0.62615 0.0
C752 C 0.92962 0.40399 0.66635 0.0
C753 C 0.93508 0.38052 0.63512 0.0
N754 N 0.94591 0.37927 0.56999 0.0
N755 N 0.92631 0.47347 0.69117 0.0
C756 C 0.93418 0.39784 0.59955 0.0
C757 C 0.92463 0.446 0.66179 0.0
N758 N 0.91169 0.44553 0.56109 0.0
N759 N 0.92734 0.38498 0.70019 0.0
H760 H 0.9216 0.50359 0.68877 0.0
H761 H 0.93557 0.46854 0.71745 0.0
H762 H 0.93212 0.35517 0.70429 0.0
H763 H 0.91806 0.39682 0.72383 0.0
H764 H 0.90761 0.42478 0.5379 0.0
H765 H 0.90337 0.47296 0.5564 0.0
H766 H 0.95129 0.39384 0.54384 0.0
H767 H 0.95468 0.35183 0.57211 0.0
C768 C 0.57364 0.95822 0.10814 0.0
C769 C 0.58795 0.93763 0.13652 0.0
C770 C 0.50337 0.89151 0.15782 0.0
C771 C 0.48847 0.91082 0.12885 0.0
N772 N 0.51048 0.97118 0.0819 0.0
N773 N 0.57011 0.89958 0.1953 0.0
C774 C 0.52406 0.94698 0.10569 0.0
C775 C 0.5538 0.90886 0.16352 0.0
N776 N 0.60716 0.98743 0.083 0.0
N777 N 0.46934 0.85501 0.17893 0.0
H778 H 0.60713 0.91474 0.20075 0.0
H779 H 0.54782 0.88215 0.21758 0.0
H780 H 0.4321 0.84122 0.17568 0.0
H781 H 0.47786 0.83583 0.19775 0.0
H782 H 0.59848 0.99893 0.059 0.0
H783 H 0.64406 0.99916 0.08581 0.0
H784 H 0.5349 1.0009 0.06656 0.0
H785 H 0.47472 0.96399 0.07961 0.0
C786 C 0.66246 0.55155 0.65183 0.0
C787 C 0.69695 0.56868 0.62286 0.0
C788 C 0.64476 0.49312 0.58848 0.0
C789 C 0.61333 0.4739 0.61899 0.0
N790 N 0.5945 0.4825 0.68131 0.0
N791 N 0.72263 0.55299 0.56443 0.0
C792 C 0.62267 0.50264 0.65107 0.0
C793 C 0.68859 0.53855 0.59154 0.0
N794 N 0.66755 0.58195 0.68007 0.0
N795 N 0.63163 0.46892 0.55579 0.0
H796 H 0.75299 0.58742 0.56306 0.0
H797 H 0.72217 0.52979 0.54407 0.0
H798 H 0.59994 0.43568 0.55222 0.0
H799 H 0.64964 0.4837 0.53132 0.0
H800 H 0.64123 0.57366 0.70006 0.0
H801 H 0.69662 0.61722 0.68213 0.0
H802 H 0.60224 0.49918 0.70685 0.0
H803 H 0.56514 0.44719 0.68157 0.0
C804 C 0.42378 0.92875 0.36173 0.0
C805 C 0.3948 0.91762 0.39376 0.0
C806 C 0.45274 0.90055 0.42626 0.0
C807 C 0.47817 0.90568 0.39323 0.0
N808 N 0.48558 0.92016 0.32838 0.0
N809 N 0.37823 0.88532 0.45532 0.0
C810 C 0.46328 0.91895 0.36065 0.0
C811 C 0.40832 0.90135 0.42564 0.0
N812 N 0.41327 0.94813 0.33223 0.0
N813 N 0.47196 0.89668 0.45869 0.0
H814 H 0.34615 0.88652 0.45723 0.0
H815 H 0.38316 0.86716 0.4771 0.0
H816 H 0.50466 0.89646 0.46054 0.0
H817 H 0.45811 0.89864 0.48407 0.0
H818 H 0.43563 0.96167 0.30942 0.0
H819 H 0.38371 0.95391 0.33166 0.0
H820 H 0.47342 0.92446 0.30301 0.0
H821 H 0.51433 0.91313 0.32665 0.0
C822 C 0.56377 0.4689 0.90942 0.0
C823 C 0.60275 0.46609 0.8926 0.0
C824 C 0.54339 0.38863 0.86438 0.0
C825 C 0.50584 0.38671 0.88676 0.0
N826 N 0.48015 0.42657 0.93042 0.0
N827 N 0.62967 0.42004 0.85658 0.0
C828 C 0.51577 0.42764 0.90883 0.0
C829 C 0.59251 0.42533 0.87039 0.0
N830 N 0.57259 0.51145 0.9254 0.0
N831 N 0.53179 0.35584 0.83659 0.0
H832 H 0.66619 0.44544 0.86061 0.0
H833 H 0.62429 0.3884 0.8438 0.0
H834 H 0.49596 0.33001 0.83039 0.0
H835 H 0.55685 0.35793 0.81722 0.0
H836 H 0.54534 0.51781 0.93498 0.0
H837 H 0.60709 0.54214 0.92605 0.0
H838 H 0.48663 0.45202 0.9508 0.0
H839 H 0.44414 0.39898 0.92913 0.0
C840 C 0.14742 0.54865 0.4224 0.0
C841 C 0.16062 0.5805 0.39203 0.0
C842 C 0.15377 0.51498 0.35162 0.0
C843 C 0.1395 0.48292 0.3819 0.0
N844 N 0.11381 0.46621 0.44463 0.0
N845 N 0.16808 0.59204 0.32687 0.0
C846 C 0.13327 0.49887 0.41676 0.0
C847 C 0.16116 0.56297 0.35632 0.0
N848 N 0.15054 0.56654 0.45696 0.0
N849 N 0.1618 0.49995 0.31864 0.0
H850 H 0.17442 0.62744 0.32947 0.0
H851 H 0.16413 0.58017 0.2999 0.0
H852 H 0.15421 0.46444 0.31399 0.0
H853 H 0.17787 0.52291 0.29648 0.0
H854 H 0.14728 0.54698 0.48057 0.0
H855 H 0.16014 0.60247 0.4623 0.0
H856 H 0.10358 0.4739 0.4697 0.0
H857 H 0.10377 0.42983 0.44157 0.0
C858 C 0.64788 0.09246 0.91101 0.0
C859 C 0.68831 0.12241 0.88829 0.0
C860 C 0.64832 0.16915 0.87062 0.0
C861 C 0.60905 0.14084 0.8945 0.0
N862 N 0.56608 0.06942 0.93158 0.0
N863 N 0.71836 0.1774 0.83743 0.0
C864 C 0.60711 0.10038 0.9127 0.0
C865 C 0.68572 0.15713 0.86533 0.0
N866 N 0.6491 0.05778 0.93217 0.0
N867 N 0.65058 0.20846 0.85362 0.0
H868 H 0.74468 0.16769 0.83187 0.0
H869 H 0.71617 0.19954 0.8175 0.0
H870 H 0.62292 0.2171 0.85539 0.0
H871 H 0.68106 0.23419 0.83958 0.0
H872 H 0.62451 0.03936 0.95303 0.0
H873 H 0.6758 0.04806 0.92972 0.0
H874 H 0.55952 0.03637 0.94218 0.0
H875 H 0.53662 0.07515 0.93461 0.0
C876 C 0.52461 0.60943 0.43218 0.0
C877 C 0.48648 0.60172 0.40751 0.0
C878 C 0.5483 0.66701 0.36921 0.0
C879 C 0.58628 0.6707 0.39168 0.0
N880 N 0.60965 0.63488 0.43985 0.0
N881 N 0.46645 0.65204 0.37029 0.0
C882 C 0.57418 0.63826 0.4214 0.0
C883 C 0.4991 0.6381 0.3803 0.0
N884 N 0.5146 0.59895 0.46833 0.0
N885 N 0.55928 0.69104 0.33675 0.0
H886 H 0.43381 0.64009 0.3843 0.0
H887 H 0.47522 0.68112 0.35282 0.0
H888 H 0.59489 0.70971 0.32701 0.0
H889 H 0.53272 0.68713 0.31807 0.0
H890 H 0.5415 0.60739 0.48794 0.0
H891 H 0.481 0.59065 0.47935 0.0
H892 H 0.60179 0.60881 0.45997 0.0
H893 H 0.6461 0.65437 0.4324 0.0
C894 C 0.93236 0.53225 0.84848 0.0
C895 C 0.95399 0.56619 0.87749 0.0
C896 C 0.96359 0.50518 0.91225 0.0
C897 C 0.93534 0.46931 0.88589 0.0
N898 N 0.89108 0.44772 0.82911 0.0
N899 N 0.98407 0.58246 0.93948 0.0
C900 C 0.91973 0.48271 0.85377 0.0
C901 C 0.96865 0.55223 0.90985 0.0
N902 N 0.92396 0.54763 0.81587 0.0
N903 N 0.98576 0.49425 0.93968 0.0
H904 H 0.98719 0.6166 0.93935 0.0
H905 H 0.98966 0.5721 0.96519 0.0
H906 H 0.98262 0.46013 0.94239 0.0
H907 H 1.01092 0.52015 0.95752 0.0
H908 H 0.91228 0.52621 0.79242 0.0
H909 H 0.93284 0.58354 0.81145 0.0
H910 H 0.87391 0.4538 0.8072 0.0
H911 H 0.882 0.41151 0.83181 0.0
C912 C 0.23681 0.42022 0.27217 0.0
C913 C 0.20553 0.3761 0.29034 0.0
C914 C 0.21512 0.33045 0.23961 0.0
C915 C 0.24279 0.37416 0.21987 0.0
N916 N 0.27615 0.46049 0.21545 0.0
N917 N 0.15772 0.28851 0.28793 0.0
C918 C 0.25261 0.41908 0.23567 0.0
C919 C 0.19262 0.33107 0.27304 0.0
N920 N 0.25203 0.46318 0.29014 0.0
N921 N 0.21183 0.28826 0.22727 0.0
H922 H 0.14262 0.28628 0.31355 0.0
H923 H 0.14181 0.25556 0.27393 0.0
H924 H 0.22703 0.28564 0.20275 0.0
H925 H 0.19766 0.25675 0.24285 0.0
H926 H 0.27834 0.49662 0.28007 0.0
H927 H 0.24096 0.46497 0.31669 0.0
H928 H 0.28025 0.49372 0.22362 0.0
H929 H 0.28855 0.46082 0.18902 0.0
C930 C 0.83813 0.1683 0.73474 0.0
C931 C 0.88322 0.21084 0.72836 0.0
C932 C 0.89576 0.22488 0.79459 0.0
C933 C 0.85321 0.17985 0.80104 0.0
N934 N 0.77691 0.11577 0.77872 0.0
N935 N 0.94709 0.28707 0.75109 0.0
C936 C 0.82189 0.15411 0.77144 0.0
C937 C 0.90918 0.24176 0.75807 0.0
N938 N 0.81224 0.14033 0.70574 0.0
N939 N 0.92487 0.24996 0.82332 0.0
H940 H 0.95779 0.29991 0.72457 0.0
H941 H 0.96514 0.31329 0.77114 0.0
H942 H 0.91424 0.23958 0.85017 0.0
H943 H 0.95965 0.27964 0.82066 0.0
H944 H 0.78215 0.10581 0.70807 0.0
H945 H 0.82203 0.15177 0.67888 0.0
H946 H 0.75053 0.09718 0.7589 0.0
H947 H 0.76453 0.1051 0.80537 0.0
C948 C 0.66005 0.85083 0.24768 0.0
C949 C 0.70351 0.88889 0.2325 0.0
C950 C 0.7505 0.87743 0.28049 0.0
C951 C 0.70698 0.84079 0.29694 0.0
N952 N 0.62026 0.80419 0.30208 0.0
N953 N 0.78693 0.94976 0.24384 0.0
C954 C 0.66161 0.83126 0.28247 0.0
C955 C 0.74773 0.90572 0.25177 0.0
N956 N 0.61759 0.83252 0.22863 0.0
N957 N 0.79496 0.88559 0.29181 0.0
H958 H 0.78692 0.97202 0.22309 0.0
H959 H 0.81793 0.96618 0.26022 0.0
H960 H 0.80013 0.86872 0.31419 0.0
H961 H 0.82687 0.90756 0.27746 0.0
H962 H 0.5857 0.80175 0.23671 0.0
H963 H 0.61549 0.84586 0.20315 0.0
H964 H 0.58637 0.79877 0.29418 0.0
H965 H 0.62122 0.79223 0.32838 0.0
C966 C 0.9148 0.72 0.72312 0.0
C967 C 0.86523 0.69045 0.71413 0.0
C968 C 0.85214 0.6514 0.7747 0.0
C969 C 0.90014 0.68634 0.78518 0.0
N970 N 0.97249 0.76226 0.77118 0.0
N971 N 0.78529 0.62844 0.73201 0.0
C972 C 0.9302 0.72292 0.75985 0.0
C973 C 0.83345 0.65615 0.7402 0.0
N974 N 0.9476 0.74497 0.69643 0.0
N975 N 0.8249 0.61321 0.79723 0.0
H976 H 0.77165 0.62864 0.70614 0.0
H977 H 0.75899 0.60683 0.75102 0.0
H978 H 0.83744 0.60939 0.82265 0.0
H979 H 0.79148 0.58389 0.78977 0.0
H980 H 0.985 0.76435 0.70082 0.0
H981 H 0.93744 0.74056 0.66918 0.0
H982 H 0.99333 0.79202 0.75448 0.0
H983 H 0.9833 0.76817 0.79842 0.0
C984 C 0.24259 0.89416 0.2387 0.0
C985 C 0.19953 0.85029 0.2304 0.0
C986 C 0.18459 0.83222 0.29625 0.0
C987 C 0.22544 0.87796 0.30457 0.0
N988 N 0.30087 0.94593 0.28468 0.0
N989 N 0.13676 0.77171 0.25016 0.0
C990 C 0.25696 0.90673 0.27598 0.0
C991 C 0.17306 0.8173 0.25894 0.0
N992 N 0.26856 0.9247 0.21092 0.0
N993 N 0.15562 0.8041 0.32401 0.0
H994 H 0.12749 0.75999 0.22322 0.0
H995 H 0.11854 0.74421 0.26915 0.0
H996 H 0.16497 0.81281 0.35136 0.0
H997 H 0.12193 0.77321 0.32022 0.0
H998 H 0.29677 0.96003 0.21478 0.0
H999 H 0.26068 0.9148 0.18352 0.0
H1000 H 0.32763 0.96623 0.26559 0.0
H1001 H 0.31231 0.95573 0.31162 0.0
C1002 C 0.40305 0.25897 0.76474 0.0
C1003 C 0.40548 0.23216 0.79468 0.0
C1004 C 0.41566 0.17782 0.75244 0.0
C1005 C 0.40285 0.19825 0.72287 0.0
N1006 N 0.39286 0.26302 0.69928 0.0
N1007 N 0.43375 0.1803 0.81749 0.0
C1008 C 0.40052 0.24123 0.7285 0.0
C1009 C 0.41859 0.19628 0.78859 0.0
N1010 N 0.4032 0.30136 0.77147 0.0
N1011 N 0.42212 0.13904 0.74595 0.0
H1012 H 0.43789 0.1958 0.84331 0.0
H1013 H 0.44625 0.1557 0.81542 0.0
H1014 H 0.42223 0.12661 0.71952 0.0
H1015 H 0.42656 0.11882 0.76631 0.0
H1016 H 0.40386 0.32465 0.7513 0.0
H1017 H 0.40666 0.31512 0.79795 0.0
H1018 H 0.38522 0.29123 0.701 0.0
H1019 H 0.3942 0.25198 0.6728 0.0
C1020 C 0.28788 0.24972 0.99403 0.0
C1021 C 0.33822 0.27808 0.98493 0.0
C1022 C 0.33993 0.34844 0.01573 0.0
C1023 C 0.29066 0.31969 0.02673 0.0
N1024 N 0.21812 0.24174 0.0282 0.0
N1025 N 0.41398 0.35288 0.9938 0.0
C1026 C 0.26455 0.27008 0.01591 0.0
C1027 C 0.36472 0.32679 0.99793 0.0
N1028 N 0.26277 0.20241 0.98301 0.0
N1029 N 0.36247 0.39759 0.02015 0.0
H1030 H 0.43392 0.34113 0.97864 0.0
H1031 H 0.43583 0.38541 1.00747 0.0
H1032 H 0.34469 0.41487 0.03092 0.0
H1033 H 0.39638 0.42157 1.00924 0.0
H1034 H 0.22518 0.18095 0.98412 0.0
H1035 H 0.2798 0.18427 0.97229 0.0
H1036 H 0.19779 0.20436 0.02485 0.0
H1037 H 0.20029 0.25544 0.04388 0.0
C1038 C 0.08862 0.33329 0.52141 0.0
C1039 C 0.08035 0.3262 0.483 0.0
C1040 C 0.99281 0.27474 0.4965 0.0
C1041 C 1.00052 0.28286 0.53498 0.0
N1042 N 0.05489 0.34902 0.57496 0.0
N1043 N 1.01895 0.32037 0.44099 0.0
C1044 C 0.04823 0.32024 0.54536 0.0
C1045 C 1.03087 0.3052 0.47197 0.0
N1046 N 0.13441 0.35626 0.53563 0.0
N1047 N 0.94918 0.24118 0.48218 0.0
H1048 H 1.04463 0.34904 0.42558 0.0
H1049 H 0.983 0.30892 0.43379 0.0
H1050 H 0.91826 0.21957 0.49734 0.0
H1051 H 0.94501 0.23357 0.4542 0.0
H1052 H 0.14048 0.35726 0.56375 0.0
H1053 H 0.16586 0.37374 0.52009 0.0
H1054 H 0.08847 0.37902 0.58139 0.0
H1055 H 1.02642 0.34754 0.58988 0.0
C1056 C 0.72275 1.00116 0.02288 0.0
C1057 C 0.7521 0.98334 0.03768 0.0
C1058 C 0.82193 0.04641 1.00283 0.0
C1059 C 0.79362 0.0678 0.99154 0.0
N1060 N 0.71769 0.06825 0.99692 0.0
N1061 N 0.83129 0.99165 0.04418 0.0
C1062 C 0.74437 0.04609 1.0035 0.0
C1063 C 0.80206 1.00639 0.02795 0.0
N1064 N 0.67339 0.9735 0.02536 0.0
N1065 N 0.86831 0.06473 0.99023 0.0
H1066 H 0.81791 0.96189 0.06156 0.0
H1067 H 0.86902 1.01056 0.04241 0.0
H1068 H 0.88657 0.0969 0.97561 0.0
H1069 H 0.8882 0.0469 0.99295 0.0
H1070 H 0.64968 0.98139 0.01117 0.0
H1071 H 0.65613 0.93997 0.03849 0.0
H1072 H 0.6844 0.05753 1.00952 0.0
H1073 H 0.72956 0.09896 0.98081 0.0
C1074 C 0.82243 0.78309 0.51258 0.0
C1075 C 0.79466 0.73473 0.52576 0.0
C1076 C 0.72066 0.73046 0.49929 0.0
C1077 C 0.74892 0.77744 0.48394 0.0
N1078 N 0.82349 0.8537 0.48583 0.0
N1079 N 0.71828 0.65983 0.52638 0.0
C1080 C 0.79912 0.80505 0.49302 0.0
C1081 C 0.74393 0.70807 0.51808 0.0
N1082 N 0.87129 0.80825 0.51886 0.0
N1083 N 0.67117 0.70743 0.49708 0.0
H1084 H 0.73394 0.6416 0.53887 0.0
H1085 H 0.68289 0.63662 0.51759 0.0
H1086 H 0.65227 0.72031 0.4819 0.0
H1087 H 0.64838 0.67703 0.51252 0.0
H1088 H 0.89508 0.84083 0.5062 0.0
H1089 H 0.88863 0.7952 0.53562 0.0
H1090 H 0.85857 0.87754 0.49479 0.0
H1091 H 0.80706 0.87147 0.47354 0.0
C1092 C 0.05704 0.73595 0.97302 0.0
C1093 C 1.0072 0.71798 0.98245 0.0
C1094 C 1.03569 0.72925 0.04652 0.0
C1095 C 0.08492 0.76268 0.03637 0.0
N1096 N 0.1408 0.79426 0.98481 0.0
N1097 N 0.9506 0.69551 0.03323 0.0
C1098 C 0.09496 0.76585 0.99809 0.0
C1099 C 0.99707 0.71507 0.02063 0.0
N1100 N 0.0691 0.71988 0.94241 0.0
N1101 N 1.02521 0.70548 0.07908 0.0
H1102 H 0.91982 0.67586 0.01726 0.0
H1103 H 0.94314 0.69903 0.06051 0.0
H1104 H 0.05126 0.7096 0.09792 0.0
H1105 H 0.99066 0.67717 0.08558 0.0
H1106 H 0.10457 0.7281 0.93655 0.0
H1107 H 1.0435 0.69372 0.9254 0.0
H1108 H 0.14745 0.80106 0.95691 0.0
H1109 H 0.17194 0.81136 1.0007 0.0
C1110 C 0.33863 1.00499 0.50704 0.0
C1111 C 0.28827 0.98008 0.49805 0.0
C1112 C 0.27986 0.04386 0.53129 0.0
C1113 C 0.33066 0.06954 0.53939 0.0
N1114 N 0.40929 0.07604 0.53137 0.0
N1115 N 0.20925 0.97138 0.5076 0.0
C1116 C 0.36016 0.0505 0.52613 0.0
C1117 C 0.25842 0.99814 0.51215 0.0
N1118 N 0.36533 0.98286 0.50007 0.0
N1119 N 0.25262 0.0652 0.53909 0.0
H1120 H 0.19255 0.93957 0.49229 0.0
H1121 H 0.18459 0.97847 0.52115 0.0
H1122 H 0.26672 0.09874 0.55198 0.0
H1123 H 0.21706 0.05193 0.53027 0.0
H1124 H 0.40066 0.99556 0.50925 0.0
H1125 H 0.3502 0.94843 0.48861 0.0
H1126 H 0.43368 0.06927 0.51704 0.0
H1127 H 0.42649 0.10543 0.54908 0.0
loop_
_geom_bond_atom_site_label_1
_geom_bond_atom_site_label_2
_geom_bond_distance
_geom_bond_site_symmetry_2
_ccdc_geom_bond_type
Tb0 C2 2.809 . S
Tb0 O20 2.484 . S
Tb0 O21 2.440 . S
Tb0 O22 2.658 . S
Tb0 O23 2.409 . S
Tb0 O24 2.378 . S
Tb0 O28 2.325 . S
Tb0 O31 2.341 . S
Tb1 C11 2.809 . S
Tb1 O22 2.325 . S
Tb1 O25 2.341 . S
Tb1 O26 2.484 . S
Tb1 O27 2.440 . S
Tb1 O28 2.658 . S
Tb1 O29 2.409 . S
Tb1 O30 2.378 . S
C2 Tb0 2.809 . S
C2 C3 1.514 . S
C2 O20 1.248 . S
C2 O21 1.266 . S
C3 C2 1.514 . S
C3 C4 1.359 . S
C3 C8 1.348 . S
C4 C3 1.359 . S
C4 C5 1.380 . S
C4 H32 0.929 . S
C5 C4 1.380 . S
C5 C6 1.347 . S
C5 H33 0.931 . S
C6 C5 1.347 . S
C6 C7 1.369 . S
C7 C6 1.369 . S
C7 C8 1.408 . S
C7 H34 0.930 . S
C8 C3 1.348 . S
C8 C7 1.408 . S
C8 H35 0.930 . S
C9 O22 1.281 . S
C9 O23 1.254 . S
C10 O24 1.236 . S
C10 O25 1.266 . S
C11 Tb1 2.809 . S
C11 C12 1.514 . S
C11 O26 1.248 . S
C11 O27 1.266 . S
C12 C11 1.514 . S
C12 C13 1.359 . S
C12 C17 1.348 . S
C13 C12 1.359 . S
C13 C14 1.380 . S
C13 H36 0.929 . S
C14 C13 1.380 . S
C14 C15 1.347 . S
C14 H37 0.931 . S
C15 C14 1.347 . S
C15 C16 1.369 . S
C16 C15 1.369 . S
C16 C17 1.408 . S
C16 H38 0.930 . S
C17 C12 1.348 . S
C17 C16 1.408 . S
C17 H39 0.930 . S
C18 O28 1.281 . S
C18 O29 1.254 . S
C19 O30 1.236 . S
C19 O31 1.266 . S
O20 Tb0 2.484 . S
O20 C2 1.248 . S
O21 Tb0 2.440 . S
O21 C2 1.266 . S
O22 Tb0 2.658 . S
O22 Tb1 2.325 . S
O22 C9 1.281 . S
O23 Tb0 2.409 . S
O23 C9 1.254 . S
O24 Tb0 2.378 . S
O24 C10 1.236 . S
O25 Tb1 2.341 . S
O25 C10 1.266 . S
O26 Tb1 2.484 . S
O26 C11 1.248 . S
O27 Tb1 2.440 . S
O27 C11 1.266 . S
O28 Tb0 2.325 . S
O28 Tb1 2.658 . S
O28 C18 1.281 . S
O29 Tb1 2.409 . S
O29 C18 1.254 . S
O30 Tb1 2.378 . S
O30 C19 1.236 . S
O31 Tb0 2.341 . S
O31 C19 1.266 . S
H32 C4 0.929 . S
H33 C5 0.931 . S
H34 C7 0.930 . S
H35 C8 0.930 . S
H36 C13 0.929 . S
H37 C14 0.931 . S
H38 C16 0.930 . S
H39 C17 0.930 . S
Tb40 C42 2.809 . S
Tb40 O60 2.484 . S
Tb40 O61 2.440 . S
Tb40 O62 2.658 . S
Tb40 O63 2.409 . S
Tb40 O64 2.378 . S
Tb40 O68 2.325 . S
Tb40 O71 2.341 . S
Tb41 C51 2.809 . S
Tb41 O62 2.325 . S
Tb41 O65 2.341 . S
Tb41 O66 2.484 . S
Tb41 O67 2.440 . S
Tb41 O68 2.658 . S
Tb41 O69 2.409 . S
Tb41 O70 2.378 . S
C42 Tb40 2.809 . S
C42 C43 1.514 . S
C42 O60 1.248 . S
C42 O61 1.266 . S
C43 C42 1.514 . S
C43 C44 1.359 . S
C43 C48 1.348 . S
C44 C43 1.359 . S
C44 C45 1.380 . S
C44 H72 0.929 . S
C45 C44 1.380 . S
C45 C46 1.347 . S
C45 H73 0.931 . S
C46 C45 1.347 . S
C46 C47 1.369 . S
C47 C46 1.369 . S
C47 C48 1.408 . S
C47 H74 0.930 . S
C48 C43 1.348 . S
C48 C47 1.408 . S
C48 H75 0.930 . S
C49 O62 1.281 . S
C49 O63 1.254 . S
C50 O64 1.236 . S
C50 O65 1.266 . S
C51 Tb41 2.809 . S
C51 C52 1.514 1_655 S
C51 O66 1.248 . S
C51 O67 1.266 . S
C52 C51 1.514 1_455 S
C52 C53 1.359 . S
C52 C57 1.348 . S
C53 C52 1.359 . S
C53 C54 1.380 . S
C53 H76 0.929 . S
C54 C53 1.380 . S
C54 C55 1.347 . S
C54 H77 0.931 . S
C55 C54 1.347 . S
C55 C56 1.369 . S
C56 C55 1.369 . S
C56 C57 1.408 . S
C56 H78 0.930 . S
C57 C52 1.348 . S
C57 C56 1.408 . S
C57 H79 0.930 . S
C58 O68 1.281 . S
C58 O69 1.254 . S
C59 O70 1.236 . S
C59 O71 1.266 . S
O60 Tb40 2.484 . S
O60 C42 1.248 . S
O61 Tb40 2.440 . S
O61 C42 1.266 . S
O62 Tb40 2.658 . S
O62 Tb41 2.325 . S
O62 C49 1.281 . S
O63 Tb40 2.409 . S
O63 C49 1.254 . S
O64 Tb40 2.378 . S
O64 C50 1.236 . S
O65 Tb41 2.341 . S
O65 C50 1.266 . S
O66 Tb41 2.484 . S
O66 C51 1.248 . S
O67 Tb41 2.440 . S
O67 C51 1.266 . S
O68 Tb40 2.325 . S
O68 Tb41 2.658 . S
O68 C58 1.281 . S
O69 Tb41 2.409 . S
O69 C58 1.254 . S
O70 Tb41 2.378 . S
O70 C59 1.236 . S
O71 Tb40 2.341 . S
O71 C59 1.266 . S
H72 C44 0.929 . S
H73 C45 0.931 . S
H74 C47 0.930 . S
H75 C48 0.930 . S
H76 C53 0.929 . S
H77 C54 0.931 . S
H78 C56 0.930 . S
H79 C57 0.930 . S
Tb80 C82 2.809 . S
Tb80 O100 2.484 . S
Tb80 O101 2.440 . S
Tb80 O102 2.658 . S
Tb80 O103 2.409 . S
Tb80 O104 2.378 . S
Tb80 O108 2.325 . S
Tb80 O111 2.341 . S
Tb81 C91 2.809 . S
Tb81 O102 2.325 . S
Tb81 O105 2.341 . S
Tb81 O106 2.484 . S
Tb81 O107 2.440 . S
Tb81 O108 2.658 . S
Tb81 O109 2.409 . S
Tb81 O110 2.378 . S
C82 Tb80 2.809 . S
C82 C83 1.514 . S
C82 O100 1.248 . S
C82 O101 1.266 . S
C83 C82 1.514 . S
C83 C84 1.359 . S
C83 C88 1.348 . S
C84 C83 1.359 . S
C84 C85 1.380 . S
C84 H112 0.929 . S
C85 C84 1.380 . S
C85 C86 1.347 . S
C85 H113 0.931 . S
C86 C85 1.347 . S
C86 C87 1.369 . S
C87 C86 1.369 . S
C87 C88 1.408 . S
C87 H114 0.930 . S
C88 C83 1.348 . S
C88 C87 1.408 . S
C88 H115 0.930 . S
C89 O102 1.281 . S
C89 O103 1.254 . S
C90 O104 1.236 . S
C90 O105 1.266 . S
C91 Tb81 2.809 . S
C91 C92 1.514 1_565 S
C91 O106 1.248 . S
C91 O107 1.266 . S
C92 C91 1.514 1_545 S
C92 C93 1.359 . S
C92 C97 1.348 . S
C93 C92 1.359 . S
C93 C94 1.380 . S
C93 H116 0.929 . S
C94 C93 1.380 . S
C94 C95 1.347 . S
C94 H117 0.931 . S
C95 C94 1.347 . S
C95 C96 1.369 . S
C96 C95 1.369 . S
C96 C97 1.408 . S
C96 H118 0.930 . S
C97 C92 1.348 . S
C97 C96 1.408 . S
C97 H119 0.930 . S
C98 O108 1.281 . S
C98 O109 1.254 . S
C99 O110 1.236 . S
C99 O111 1.266 . S
O100 Tb80 2.484 . S
O100 C82 1.248 . S
O101 Tb80 2.440 . S
O101 C82 1.266 . S
O102 Tb80 2.658 . S
O102 Tb81 2.325 . S
O102 C89 1.281 . S
O103 Tb80 2.409 . S
O103 C89 1.254 . S
O104 Tb80 2.378 . S
O104 C90 1.236 . S
O105 Tb81 2.341 . S
O105 C90 1.266 . S
O106 Tb81 2.484 . S
O106 C91 1.248 . S
O107 Tb81 2.440 . S
O107 C91 1.266 . S
O108 Tb80 2.325 . S
O108 Tb81 2.658 . S
O108 C98 1.281 . S
O109 Tb81 2.409 . S
O109 C98 1.254 . S
O110 Tb81 2.378 . S
O110 C99 1.236 . S
O111 Tb80 2.341 . S
O111 C99 1.266 . S
H112 C84 0.929 . S
H113 C85 0.931 . S
H114 C87 0.930 . S
H115 C88 0.930 . S
H116 C93 0.929 . S
H117 C94 0.931 . S
H118 C96 0.930 . S
H119 C97 0.930 . S
Tb120 C122 2.809 . S
Tb120 O140 2.484 . S
Tb120 O141 2.440 . S
Tb120 O142 2.658 . S
Tb120 O143 2.409 . S
Tb120 O144 2.378 . S
Tb120 O148 2.325 . S
Tb120 O151 2.341 . S
Tb121 C131 2.809 . S
Tb121 O142 2.325 . S
Tb121 O145 2.341 . S
Tb121 O146 2.484 . S
Tb121 O147 2.440 . S
Tb121 O148 2.658 . S
Tb121 O149 2.409 . S
Tb121 O150 2.378 . S
C122 Tb120 2.809 . S
C122 C123 1.514 . S
C122 O140 1.248 . S
C122 O141 1.266 . S
C123 C122 1.514 . S
C123 C124 1.359 . S
C123 C128 1.348 . S
C124 C123 1.359 . S
C124 C125 1.380 . S
C124 H152 0.929 . S
C125 C124 1.380 . S
C125 C126 1.347 . S
C125 H153 0.931 . S
C126 C125 1.347 . S
C126 C127 1.369 . S
C127 C126 1.369 . S
C127 C128 1.408 . S
C127 H154 0.930 . S
C128 C123 1.348 . S
C128 C127 1.408 . S
C128 H155 0.930 . S
C129 O142 1.281 . S
C129 O143 1.254 . S
C130 O144 1.236 . S
C130 O145 1.266 . S
C131 Tb121 2.809 . S
C131 C132 1.514 . S
C131 O146 1.248 . S
C131 O147 1.266 . S
C132 C131 1.514 . S
C132 C133 1.359 . S
C132 C137 1.348 . S
C133 C132 1.359 . S
C133 C134 1.380 . S
C133 H156 0.929 . S
C134 C133 1.380 . S
C134 C135 1.347 . S
C134 H157 0.931 . S
C135 C134 1.347 . S
C135 C136 1.369 . S
C136 C135 1.369 . S
C136 C137 1.408 . S
C136 H158 0.930 . S
C137 C132 1.348 . S
C137 C136 1.408 . S
C137 H159 0.930 . S
C138 O148 1.281 . S
C138 O149 1.254 . S
C139 O150 1.236 . S
C139 O151 1.266 . S
O140 Tb120 2.484 . S
O140 C122 1.248 . S
O141 Tb120 2.440 . S
O141 C122 1.266 . S
O142 Tb120 2.658 . S
O142 Tb121 2.325 . S
O142 C129 1.281 . S
O143 Tb120 2.409 . S
O143 C129 1.254 . S
O144 Tb120 2.378 . S
O144 C130 1.236 . S
O145 Tb121 2.341 . S
O145 C130 1.266 . S
O146 Tb121 2.484 . S
O146 C131 1.248 . S
O147 Tb121 2.440 . S
O147 C131 1.266 . S
O148 Tb120 2.325 . S
O148 Tb121 2.658 . S
O148 C138 1.281 . S
O149 Tb121 2.409 . S
O149 C138 1.254 . S
O150 Tb121 2.378 . S
O150 C139 1.236 . S
O151 Tb120 2.341 . S
O151 C139 1.266 . S
H152 C124 0.929 . S
H153 C125 0.931 . S
H154 C127 0.930 . S
H155 C128 0.930 . S
H156 C133 0.929 . S
H157 C134 0.931 . S
H158 C136 0.930 . S
H159 C137 0.930 . S
Tb160 C162 2.809 . S
Tb160 O180 2.484 . S
Tb160 O181 2.440 . S
Tb160 O182 2.658 . S
Tb160 O183 2.409 . S
Tb160 O184 2.378 . S
Tb160 O188 2.325 . S
Tb160 O191 2.341 . S
Tb161 C171 2.809 . S
Tb161 O182 2.325 . S
Tb161 O185 2.341 . S
Tb161 O186 2.484 . S
Tb161 O187 2.440 . S
Tb161 O188 2.658 . S
Tb161 O189 2.409 . S
Tb161 O190 2.378 . S
C162 Tb160 2.809 . S
C162 C163 1.514 . S
C162 O180 1.248 . S
C162 O181 1.266 . S
C163 C162 1.514 . S
C163 C164 1.359 . S
C163 C168 1.348 . S
C164 C163 1.359 . S
C164 C165 1.380 . S
C164 H192 0.929 . S
C165 C164 1.380 . S
C165 C166 1.347 . S
C165 H193 0.931 . S
C166 C165 1.347 . S
C166 C167 1.369 . S
C167 C166 1.369 . S
C167 C168 1.408 . S
C167 H194 0.930 . S
C168 C163 1.348 . S
C168 C167 1.408 . S
C168 H195 0.930 . S
C169 O182 1.281 . S
C169 O183 1.254 . S
C170 O184 1.236 . S
C170 O185 1.266 . S
C171 Tb161 2.809 . S
C171 C172 1.514 1_455 S
C171 O186 1.248 . S
C171 O187 1.266 . S
C172 C171 1.514 1_655 S
C172 C173 1.359 . S
C172 C177 1.348 . S
C173 C172 1.359 . S
C173 C174 1.380 . S
C173 H196 0.929 . S
C174 C173 1.380 . S
C174 C175 1.347 . S
C174 H197 0.931 . S
C175 C174 1.347 . S
C175 C176 1.369 . S
C176 C175 1.369 . S
C176 C177 1.408 . S
C176 H198 0.930 . S
C177 C172 1.348 . S
C177 C176 1.408 . S
C177 H199 0.930 . S
C178 O188 1.281 . S
C178 O189 1.254 . S
C179 O190 1.236 . S
C179 O191 1.266 . S
O180 Tb160 2.484 . S
O180 C162 1.248 . S
O181 Tb160 2.440 . S
O181 C162 1.266 . S
O182 Tb160 2.658 . S
O182 Tb161 2.325 . S
O182 C169 1.281 . S
O183 Tb160 2.409 . S
O183 C169 1.254 . S
O184 Tb160 2.378 . S
O184 C170 1.236 . S
O185 Tb161 2.341 . S
O185 C170 1.266 . S
O186 Tb161 2.484 . S
O186 C171 1.248 . S
O187 Tb161 2.440 . S
O187 C171 1.266 . S
O188 Tb160 2.325 . S
O188 Tb161 2.658 . S
O188 C178 1.281 . S
O189 Tb161 2.409 . S
O189 C178 1.254 . S
O190 Tb161 2.378 . S
O190 C179 1.236 . S
O191 Tb160 2.341 . S
O191 C179 1.266 . S
H192 C164 0.929 . S
H193 C165 0.931 . S
H194 C167 0.930 . S
H195 C168 0.930 . S
H196 C173 0.929 . S
H197 C174 0.931 . S
H198 C176 0.930 . S
H199 C177 0.930 . S
Tb200 C202 2.809 . S
Tb200 O220 2.484 . S
Tb200 O221 2.440 . S
Tb200 O222 2.658 . S
Tb200 O223 2.409 . S
Tb200 O224 2.378 . S
Tb200 O228 2.325 . S
Tb200 O231 2.341 . S
Tb201 C211 2.809 . S
Tb201 O222 2.325 . S
Tb201 O225 2.341 . S
Tb201 O226 2.484 . S
Tb201 O227 2.440 . S
Tb201 O228 2.658 . S
Tb201 O229 2.409 . S
Tb201 O230 2.378 . S
C202 Tb200 2.809 . S
C202 C203 1.514 . S
C202 O220 1.248 . S
C202 O221 1.266 . S
C203 C202 1.514 . S
C203 C204 1.359 . S
C203 C208 1.348 . S
C204 C203 1.359 . S
C204 C205 1.380 . S
C204 H232 0.929 . S
C205 C204 1.380 . S
C205 C206 1.347 . S
C205 H233 0.931 . S
C206 C205 1.347 . S
C206 C207 1.369 . S
C207 C206 1.369 . S
C207 C208 1.408 . S
C207 H234 0.930 . S
C208 C203 1.348 . S
C208 C207 1.408 . S
C208 H235 0.930 . S
C209 O222 1.281 . S
C209 O223 1.254 . S
C210 O224 1.236 . S
C210 O225 1.266 . S
C211 Tb201 2.809 . S
C211 C212 1.514 1_545 S
C211 O226 1.248 . S
C211 O227 1.266 . S
C212 C211 1.514 1_565 S
C212 C213 1.359 . S
C212 C217 1.348 . S
C213 C212 1.359 . S
C213 C214 1.380 . S
C213 H236 0.929 . S
C214 C213 1.380 . S
C214 C215 1.347 . S
C214 H237 0.931 . S
C215 C214 1.347 . S
C215 C216 1.369 . S
C216 C215 1.369 . S
C216 C217 1.408 . S
C216 H238 0.930 . S
C217 C212 1.348 . S
C217 C216 1.408 . S
C217 H239 0.930 . S
C218 O228 1.281 . S
C218 O229 1.254 . S
C219 O230 1.236 . S
C219 O231 1.266 . S
O220 Tb200 2.484 . S
O220 C202 1.248 . S
O221 Tb200 2.440 . S
O221 C202 1.266 . S
O222 Tb200 2.658 . S
O222 Tb201 2.325 . S
O222 C209 1.281 . S
O223 Tb200 2.409 . S
O223 C209 1.254 . S
O224 Tb200 2.378 . S
O224 C210 1.236 . S
O225 Tb201 2.341 . S
O225 C210 1.266 . S
O226 Tb201 2.484 . S
O226 C211 1.248 . S
O227 Tb201 2.440 . S
O227 C211 1.266 . S
O228 Tb200 2.325 . S
O228 Tb201 2.658 . S
O228 C218 1.281 . S
O229 Tb201 2.409 . S
O229 C218 1.254 . S
O230 Tb201 2.378 . S
O230 C219 1.236 . S
O231 Tb200 2.341 . S
O231 C219 1.266 . S
H232 C204 0.929 . S
H233 C205 0.931 . S
H234 C207 0.930 . S
H235 C208 0.930 . S
H236 C213 0.929 . S
H237 C214 0.931 . S
H238 C216 0.930 . S
H239 C217 0.930 . S
Tb240 C242 2.809 . S
Tb240 O260 2.484 . S
Tb240 O261 2.440 . S
Tb240 O262 2.658 . S
Tb240 O263 2.409 . S
Tb240 O264 2.378 . S
Tb240 O268 2.325 . S
Tb240 O271 2.341 . S
Tb241 C251 2.809 . S
Tb241 O262 2.325 . S
Tb241 O265 2.341 . S
Tb241 O266 2.484 . S
Tb241 O267 2.440 . S
Tb241 O268 2.658 . S
Tb241 O269 2.409 . S
Tb241 O270 2.378 . S
C242 Tb240 2.809 . S
C242 C243 1.514 . S
C242 O260 1.248 . S
C242 O261 1.266 . S
C243 C242 1.514 . S
C243 C244 1.359 . S
C243 C248 1.348 . S
C244 C243 1.359 . S
C244 C245 1.380 . S
C244 H272 0.929 . S
C245 C244 1.380 . S
C245 C246 1.347 . S
C245 H273 0.931 . S
C246 C245 1.347 . S
C246 C247 1.369 . S
C247 C246 1.369 . S
C247 C248 1.408 . S
C247 H274 0.930 . S
C248 C243 1.348 . S
C248 C247 1.408 . S
C248 H275 0.930 . S
C249 O262 1.281 . S
C249 O263 1.254 . S
C250 O264 1.236 . S
C250 O265 1.266 . S
C251 Tb241 2.809 . S
C251 C252 1.514 . S
C251 O266 1.248 . S
C251 O267 1.266 . S
C252 C251 1.514 . S
C252 C253 1.359 . S
C252 C257 1.348 . S
C253 C252 1.359 . S
C253 C254 1.380 . S
C253 H276 0.929 . S
C254 C253 1.380 . S
C254 C255 1.347 . S
C254 H277 0.931 . S
C255 C254 1.347 . S
C255 C256 1.369 . S
C256 C255 1.369 . S
C256 C257 1.408 . S
C256 H278 0.930 . S
C257 C252 1.348 . S
C257 C256 1.408 . S
C257 H279 0.930 . S
C258 O268 1.281 . S
C258 O269 1.254 . S
C259 O270 1.236 . S
C259 O271 1.266 . S
O260 Tb240 2.484 . S
O260 C242 1.248 . S
O261 Tb240 2.440 . S
O261 C242 1.266 . S
O262 Tb240 2.658 . S
O262 Tb241 2.325 . S
O262 C249 1.281 . S
O263 Tb240 2.409 . S
O263 C249 1.254 . S
O264 Tb240 2.378 . S
O264 C250 1.236 . S
O265 Tb241 2.341 . S
O265 C250 1.266 . S
O266 Tb241 2.484 . S
O266 C251 1.248 . S
O267 Tb241 2.440 . S
O267 C251 1.266 . S
O268 Tb240 2.325 . S
O268 Tb241 2.658 . S
O268 C258 1.281 . S
O269 Tb241 2.409 . S
O269 C258 1.254 . S
O270 Tb241 2.378 . S
O270 C259 1.236 . S
O271 Tb240 2.341 . S
O271 C259 1.266 . S
H272 C244 0.929 . S
H273 C245 0.931 . S
H274 C247 0.930 . S
H275 C248 0.930 . S
H276 C253 0.929 . S
H277 C254 0.931 . S
H278 C256 0.930 . S
H279 C257 0.930 . S
Tb280 C282 2.809 . S
Tb280 O300 2.484 . S
Tb280 O301 2.440 . S
Tb280 O302 2.658 . S
Tb280 O303 2.409 . S
Tb280 O304 2.378 . S
Tb280 O308 2.325 . S
Tb280 O311 2.341 . S
Tb281 C291 2.809 . S
Tb281 O302 2.325 . S
Tb281 O305 2.341 . S
Tb281 O306 2.484 . S
Tb281 O307 2.440 . S
Tb281 O308 2.658 . S
Tb281 O309 2.409 . S
Tb281 O310 2.378 . S
C282 Tb280 2.809 . S
C282 C283 1.514 . S
C282 O300 1.248 . S
C282 O301 1.266 . S
C283 C282 1.514 . S
C283 C284 1.359 . S
C283 C288 1.348 . S
C284 C283 1.359 . S
C284 C285 1.380 . S
C284 H312 0.929 . S
C285 C284 1.380 . S
C285 C286 1.347 . S
C285 H313 0.931 . S
C286 C285 1.347 . S
C286 C287 1.369 . S
C287 C286 1.369 . S
C287 C288 1.408 . S
C287 H314 0.930 . S
C288 C283 1.348 . S
C288 C287 1.408 . S
C288 H315 0.930 . S
C289 O302 1.281 . S
C289 O303 1.254 . S
C290 O304 1.236 . S
C290 O305 1.266 . S
C291 Tb281 2.809 . S
C291 C292 1.514 1_655 S
C291 O306 1.248 . S
C291 O307 1.266 . S
C292 C291 1.514 1_455 S
C292 C293 1.359 . S
C292 C297 1.348 . S
C293 C292 1.359 . S
C293 C294 1.380 . S
C293 H316 0.929 . S
C294 C293 1.380 . S
C294 C295 1.347 . S
C294 H317 0.931 . S
C295 C294 1.347 . S
C295 C296 1.369 . S
C296 C295 1.369 . S
C296 C297 1.408 . S
C296 H318 0.930 . S
C297 C292 1.348 . S
C297 C296 1.408 . S
C297 H319 0.930 . S
C298 O308 1.281 . S
C298 O309 1.254 . S
C299 O310 1.236 . S
C299 O311 1.266 . S
O300 Tb280 2.484 . S
O300 C282 1.248 . S
O301 Tb280 2.440 . S
O301 C282 1.266 . S
O302 Tb280 2.658 . S
O302 Tb281 2.325 . S
O302 C289 1.281 . S
O303 Tb280 2.409 . S
O303 C289 1.254 . S
O304 Tb280 2.378 . S
O304 C290 1.236 . S
O305 Tb281 2.341 . S
O305 C290 1.266 . S
O306 Tb281 2.484 . S
O306 C291 1.248 . S
O307 Tb281 2.440 . S
O307 C291 1.266 . S
O308 Tb280 2.325 . S
O308 Tb281 2.658 . S
O308 C298 1.281 . S
O309 Tb281 2.409 . S
O309 C298 1.254 . S
O310 Tb281 2.378 . S
O310 C299 1.236 . S
O311 Tb280 2.341 . S
O311 C299 1.266 . S
H312 C284 0.929 . S
H313 C285 0.931 . S
H314 C287 0.930 . S
H315 C288 0.930 . S
H316 C293 0.929 . S
H317 C294 0.931 . S
H318 C296 0.930 . S
H319 C297 0.930 . S
Tb320 C322 2.809 . S
Tb320 O340 2.484 . S
Tb320 O341 2.440 . S
Tb320 O342 2.658 . S
Tb320 O343 2.409 . S
Tb320 O344 2.378 . S
Tb320 O348 2.325 . S
Tb320 O351 2.341 . S
Tb321 C331 2.809 . S
Tb321 O342 2.325 . S
Tb321 O345 2.341 . S
Tb321 O346 2.484 . S
Tb321 O347 2.440 . S
Tb321 O348 2.658 . S
Tb321 O349 2.409 . S
Tb321 O350 2.378 . S
C322 Tb320 2.809 . S
C322 C323 1.514 . S
C322 O340 1.248 . S
C322 O341 1.266 . S
C323 C322 1.514 . S
C323 C324 1.359 . S
C323 C328 1.348 . S
C324 C323 1.359 . S
C324 C325 1.380 . S
C324 H352 0.929 . S
C325 C324 1.380 . S
C325 C326 1.347 . S
C325 H353 0.931 . S
C326 C325 1.347 . S
C326 C327 1.369 . S
C327 C326 1.369 . S
C327 C328 1.408 . S
C327 H354 0.930 . S
C328 C323 1.348 . S
C328 C327 1.408 . S
C328 H355 0.930 . S
C329 O342 1.281 . S
C329 O343 1.254 . S
C330 O344 1.236 . S
C330 O345 1.266 . S
C331 Tb321 2.809 . S
C331 C332 1.514 1_565 S
C331 O346 1.248 . S
C331 O347 1.266 . S
C332 C331 1.514 1_545 S
C332 C333 1.359 . S
C332 C337 1.348 . S
C333 C332 1.359 . S
C333 C334 1.380 . S
C333 H356 0.929 . S
C334 C333 1.380 . S
C334 C335 1.347 . S
C334 H357 0.931 . S
C335 C334 1.347 . S
C335 C336 1.369 . S
C336 C335 1.369 . S
C336 C337 1.408 . S
C336 H358 0.930 . S
C337 C332 1.348 . S
C337 C336 1.408 . S
C337 H359 0.930 . S
C338 O348 1.281 . S
C338 O349 1.254 . S
C339 O350 1.236 . S
C339 O351 1.266 . S
O340 Tb320 2.484 . S
O340 C322 1.248 . S
O341 Tb320 2.440 . S
O341 C322 1.266 . S
O342 Tb320 2.658 . S
O342 Tb321 2.325 . S
O342 C329 1.281 . S
O343 Tb320 2.409 . S
O343 C329 1.254 . S
O344 Tb320 2.378 . S
O344 C330 1.236 . S
O345 Tb321 2.341 . S
O345 C330 1.266 . S
O346 Tb321 2.484 . S
O346 C331 1.248 . S
O347 Tb321 2.440 . S
O347 C331 1.266 . S
O348 Tb320 2.325 . S
O348 Tb321 2.658 . S
O348 C338 1.281 . S
O349 Tb321 2.409 . S
O349 C338 1.254 . S
O350 Tb321 2.378 . S
O350 C339 1.236 . S
O351 Tb320 2.341 . S
O351 C339 1.266 . S
H352 C324 0.929 . S
H353 C325 0.931 . S
H354 C327 0.930 . S
H355 C328 0.930 . S
H356 C333 0.929 . S
H357 C334 0.931 . S
H358 C336 0.930 . S
H359 C337 0.930 . S
Tb360 C362 2.809 . S
Tb360 O380 2.484 . S
Tb360 O381 2.440 . S
Tb360 O382 2.658 . S
Tb360 O383 2.409 . S
Tb360 O384 2.378 . S
Tb360 O388 2.325 . S
Tb360 O391 2.341 . S
Tb361 C371 2.809 . S
Tb361 O382 2.325 . S
Tb361 O385 2.341 . S
Tb361 O386 2.484 . S
Tb361 O387 2.440 . S
Tb361 O388 2.658 . S
Tb361 O389 2.409 . S
Tb361 O390 2.378 . S
C362 Tb360 2.809 . S
C362 C363 1.514 . S
C362 O380 1.248 . S
C362 O381 1.266 . S
C363 C362 1.514 . S
C363 C364 1.359 . S
C363 C368 1.348 . S
C364 C363 1.359 . S
C364 C365 1.380 . S
C364 H392 0.929 . S
C365 C364 1.380 . S
C365 C366 1.347 . S
C365 H393 0.931 . S
C366 C365 1.347 . S
C366 C367 1.369 . S
C367 C366 1.369 . S
C367 C368 1.408 . S
C367 H394 0.930 . S
C368 C363 1.348 . S
C368 C367 1.408 . S
C368 H395 0.930 . S
C369 O382 1.281 . S
C369 O383 1.254 . S
C370 O384 1.236 . S
C370 O385 1.266 . S
C371 Tb361 2.809 . S
C371 C372 1.514 . S
C371 O386 1.248 . S
C371 O387 1.266 . S
C372 C371 1.514 . S
C372 C373 1.359 . S
C372 C377 1.348 . S
C373 C372 1.359 . S
C373 C374 1.380 . S
C373 H396 0.929 . S
C374 C373 1.380 . S
C374 C375 1.347 . S
C374 H397 0.931 . S
C375 C374 1.347 . S
C375 C376 1.369 . S
C376 C375 1.369 . S
C376 C377 1.408 . S
C376 H398 0.930 . S
C377 C372 1.348 . S
C377 C376 1.408 . S
C377 H399 0.930 . S
C378 O388 1.281 . S
C378 O389 1.254 . S
C379 O390 1.236 . S
C379 O391 1.266 . S
O380 Tb360 2.484 . S
O380 C362 1.248 . S
O381 Tb360 2.440 . S
O381 C362 1.266 . S
O382 Tb360 2.658 . S
O382 Tb361 2.325 . S
O382 C369 1.281 . S
O383 Tb360 2.409 . S
O383 C369 1.254 . S
O384 Tb360 2.378 . S
O384 C370 1.236 . S
O385 Tb361 2.341 . S
O385 C370 1.266 . S
O386 Tb361 2.484 . S
O386 C371 1.248 . S
O387 Tb361 2.440 . S
O387 C371 1.266 . S
O388 Tb360 2.325 . S
O388 Tb361 2.658 . S
O388 C378 1.281 . S
O389 Tb361 2.409 . S
O389 C378 1.254 . S
O390 Tb361 2.378 . S
O390 C379 1.236 . S
O391 Tb360 2.341 . S
O391 C379 1.266 . S
H392 C364 0.929 . S
H393 C365 0.931 . S
H394 C367 0.930 . S
H395 C368 0.930 . S
H396 C373 0.929 . S
H397 C374 0.931 . S
H398 C376 0.930 . S
H399 C377 0.930 . S
Tb400 C402 2.809 . S
Tb400 O420 2.484 . S
Tb400 O421 2.440 . S
Tb400 O422 2.658 . S
Tb400 O423 2.409 . S
Tb400 O424 2.378 . S
Tb400 O428 2.325 . S
Tb400 O431 2.341 . S
Tb401 C411 2.809 . S
Tb401 O422 2.325 . S
Tb401 O425 2.341 . S
Tb401 O426 2.484 . S
Tb401 O427 2.440 . S
Tb401 O428 2.658 . S
Tb401 O429 2.409 . S
Tb401 O430 2.378 . S
C402 Tb400 2.809 . S
C402 C403 1.514 . S
C402 O420 1.248 . S
C402 O421 1.266 . S
C403 C402 1.514 . S
C403 C404 1.359 . S
C403 C408 1.348 . S
C404 C403 1.359 . S
C404 C405 1.380 . S
C404 H432 0.929 . S
C405 C404 1.380 . S
C405 C406 1.347 . S
C405 H433 0.931 . S
C406 C405 1.347 . S
C406 C407 1.369 . S
C407 C406 1.369 . S
C407 C408 1.408 . S
C407 H434 0.930 . S
C408 C403 1.348 . S
C408 C407 1.408 . S
C408 H435 0.930 . S
C409 O422 1.281 . S
C409 O423 1.254 . S
C410 O424 1.236 . S
C410 O425 1.266 . S
C411 Tb401 2.809 . S
C411 C412 1.514 1_455 S
C411 O426 1.248 . S
C411 O427 1.266 . S
C412 C411 1.514 1_655 S
C412 C413 1.359 . S
C412 C417 1.348 . S
C413 C412 1.359 . S
C413 C414 1.380 . S
C413 H436 0.929 . S
C414 C413 1.380 . S
C414 C415 1.347 . S
C414 H437 0.931 . S
C415 C414 1.347 . S
C415 C416 1.369 . S
C416 C415 1.369 . S
C416 C417 1.408 . S
C416 H438 0.930 . S
C417 C412 1.348 . S
C417 C416 1.408 . S
C417 H439 0.930 . S
C418 O428 1.281 . S
C418 O429 1.254 . S
C419 O430 1.236 . S
C419 O431 1.266 . S
O420 Tb400 2.484 . S
O420 C402 1.248 . S
O421 Tb400 2.440 . S
O421 C402 1.266 . S
O422 Tb400 2.658 . S
O422 Tb401 2.325 . S
O422 C409 1.281 . S
O423 Tb400 2.409 . S
O423 C409 1.254 . S
O424 Tb400 2.378 . S
O424 C410 1.236 . S
O425 Tb401 2.341 . S
O425 C410 1.266 . S
O426 Tb401 2.484 . S
O426 C411 1.248 . S
O427 Tb401 2.440 . S
O427 C411 1.266 . S
O428 Tb400 2.325 . S
O428 Tb401 2.658 . S
O428 C418 1.281 . S
O429 Tb401 2.409 . S
O429 C418 1.254 . S
O430 Tb401 2.378 . S
O430 C419 1.236 . S
O431 Tb400 2.341 . S
O431 C419 1.266 . S
H432 C404 0.929 . S
H433 C405 0.931 . S
H434 C407 0.930 . S
H435 C408 0.930 . S
H436 C413 0.929 . S
H437 C414 0.931 . S
H438 C416 0.930 . S
H439 C417 0.930 . S
Tb440 C442 2.809 . S
Tb440 O460 2.484 . S
Tb440 O461 2.440 . S
Tb440 O462 2.658 . S
Tb440 O463 2.409 . S
Tb440 O464 2.378 . S
Tb440 O468 2.325 . S
Tb440 O471 2.341 . S
Tb441 C451 2.809 . S
Tb441 O462 2.325 . S
Tb441 O465 2.341 . S
Tb441 O466 2.484 . S
Tb441 O467 2.440 . S
Tb441 O468 2.658 . S
Tb441 O469 2.409 . S
Tb441 O470 2.378 . S
C442 Tb440 2.809 . S
C442 C443 1.514 . S
C442 O460 1.248 . S
C442 O461 1.266 . S
C443 C442 1.514 . S
C443 C444 1.359 . S
C443 C448 1.348 . S
C444 C443 1.359 . S
C444 C445 1.380 . S
C444 H472 0.929 . S
C445 C444 1.380 . S
C445 C446 1.347 . S
C445 H473 0.931 . S
C446 C445 1.347 . S
C446 C447 1.369 . S
C447 C446 1.369 . S
C447 C448 1.408 . S
C447 H474 0.930 . S
C448 C443 1.348 . S
C448 C447 1.408 . S
C448 H475 0.930 . S
C449 O462 1.281 . S
C449 O463 1.254 . S
C450 O464 1.236 . S
C450 O465 1.266 . S
C451 Tb441 2.809 . S
C451 C452 1.514 1_545 S
C451 O466 1.248 . S
C451 O467 1.266 . S
C452 C451 1.514 1_565 S
C452 C453 1.359 . S
C452 C457 1.348 . S
C453 C452 1.359 . S
C453 C454 1.380 . S
C453 H476 0.929 . S
C454 C453 1.380 . S
C454 C455 1.347 . S
C454 H477 0.931 . S
C455 C454 1.347 . S
C455 C456 1.369 . S
C456 C455 1.369 . S
C456 C457 1.408 . S
C456 H478 0.930 . S
C457 C452 1.348 . S
C457 C456 1.408 . S
C457 H479 0.930 . S
C458 O468 1.281 . S
C458 O469 1.254 . S
C459 O470 1.236 . S
C459 O471 1.266 . S
O460 Tb440 2.484 . S
O460 C442 1.248 . S
O461 Tb440 2.440 . S
O461 C442 1.266 . S
O462 Tb440 2.658 . S
O462 Tb441 2.325 . S
O462 C449 1.281 . S
O463 Tb440 2.409 . S
O463 C449 1.254 . S
O464 Tb440 2.378 . S
O464 C450 1.236 . S
O465 Tb441 2.341 . S
O465 C450 1.266 . S
O466 Tb441 2.484 . S
O466 C451 1.248 . S
O467 Tb441 2.440 . S
O467 C451 1.266 . S
O468 Tb440 2.325 . S
O468 Tb441 2.658 . S
O468 C458 1.281 . S
O469 Tb441 2.409 . S
O469 C458 1.254 . S
O470 Tb441 2.378 . S
O470 C459 1.236 . S
O471 Tb440 2.341 . S
O471 C459 1.266 . S
H472 C444 0.929 . S
H473 C445 0.931 . S
H474 C447 0.930 . S
H475 C448 0.930 . S
H476 C453 0.929 . S
H477 C454 0.931 . S
H478 C456 0.930 . S
H479 C457 0.930 . S
C480 C481 1.363 . S
C480 C486 1.379 1_565 S
C480 N488 1.356 . S
C481 C480 1.363 . S
C481 C487 1.363 . S
C482 C483 1.363 1_565 S
C482 C487 1.379 . S
C482 N489 1.356 . S
C483 C482 1.363 1_545 S
C483 C486 1.363 . S
N484 C486 1.356 . S
N484 H496 0.984 . S
N484 H497 0.985 . S
N485 C487 1.356 . S
N485 H490 0.984 . S
N485 H491 0.985 . S
C486 C480 1.379 1_545 S
C486 C483 1.363 . S
C486 N484 1.356 . S
C487 C481 1.363 . S
C487 C482 1.379 . S
C487 N485 1.356 . S
N488 C480 1.356 . S
N488 H494 0.984 . S
N488 H495 0.984 . S
N489 C482 1.356 . S
N489 H492 0.984 1_565 S
N489 H493 0.985 . S
H490 N485 0.984 . S
H491 N485 0.985 . S
H492 N489 0.984 1_545 S
H493 N489 0.985 . S
H494 N488 0.984 . S
H495 N488 0.984 . S
H496 N484 0.984 . S
H497 N484 0.985 . S
C498 C499 1.363 . S
C498 C504 1.379 . S
C498 N506 1.356 . S
C499 C498 1.363 . S
C499 C505 1.363 . S
C500 C501 1.363 . S
C500 C505 1.379 . S
C500 N507 1.356 . S
C501 C500 1.363 . S
C501 C504 1.363 . S
N502 C504 1.356 . S
N502 H514 0.984 . S
N502 H515 0.985 . S
N503 C505 1.356 . S
N503 H508 0.984 . S
N503 H509 0.985 . S
C504 C498 1.379 . S
C504 C501 1.363 . S
C504 N502 1.356 . S
C505 C499 1.363 . S
C505 C500 1.379 . S
C505 N503 1.356 . S
N506 C498 1.356 . S
N506 H512 0.984 . S
N506 H513 0.984 . S
N507 C500 1.356 . S
N507 H510 0.984 . S
N507 H511 0.985 . S
H508 N503 0.984 . S
H509 N503 0.985 . S
H510 N507 0.984 . S
H511 N507 0.985 . S
H512 N506 0.984 . S
H513 N506 0.984 . S
H514 N502 0.984 . S
H515 N502 0.985 . S
C516 C517 1.371 . S
C516 C522 1.370 1_655 S
C516 N524 1.361 . S
C517 C516 1.371 . S
C517 C523 1.363 1_655 S
C518 C519 1.363 . S
C518 C523 1.379 . S
C518 N525 1.356 . S
C519 C518 1.363 . S
C519 C522 1.363 . S
N520 C522 1.356 . S
N520 H532 0.984 . S
N520 H533 0.985 . S
N521 C523 1.356 1_655 S
N521 H526 0.984 . S
N521 H527 0.985 . S
C522 C516 1.370 1_455 S
C522 C519 1.363 . S
C522 N520 1.356 . S
C523 C517 1.363 1_455 S
C523 C518 1.379 . S
C523 N521 1.356 1_455 S
N524 C516 1.361 . S
N524 H530 0.984 . S
N524 H531 0.984 . S
N525 C518 1.356 . S
N525 H528 0.984 . S
N525 H529 0.985 . S
H526 N521 0.984 . S
H527 N521 0.985 . S
H528 N525 0.984 . S
H529 N525 0.985 . S
H530 N524 0.984 . S
H531 N524 0.984 . S
H532 N520 0.984 . S
H533 N520 0.985 . S
C534 C535 1.363 . S
C534 C540 1.379 1_565 S
C534 N542 1.356 . S
C535 C534 1.363 . S
C535 C541 1.363 1_565 S
C536 C537 1.363 . S
C536 C541 1.379 . S
C536 N543 1.356 . S
C537 C536 1.363 . S
C537 C540 1.363 . S
N538 C540 1.356 . S
N538 H550 0.984 . S
N538 H551 0.985 . S
N539 C541 1.356 1_565 S
N539 H544 0.984 . S
N539 H545 1.002 . S
C540 C534 1.379 1_545 S
C540 C537 1.363 . S
C540 N538 1.356 . S
C541 C535 1.363 1_545 S
C541 C536 1.379 . S
C541 N539 1.356 1_545 S
N542 C534 1.356 . S
N542 H548 0.984 . S
N542 H549 0.984 . S
N543 C536 1.356 . S
N543 H546 0.984 . S
N543 H547 0.985 . S
H544 N539 0.984 . S
H545 N539 1.002 . S
H546 N543 0.984 . S
H547 N543 0.985 . S
H548 N542 0.984 . S
H549 N542 0.984 . S
H550 N538 0.984 . S
H551 N538 0.985 . S
C552 C553 1.363 . S
C552 C558 1.379 . S
C552 N560 1.356 . S
C553 C552 1.363 . S
C553 C559 1.363 . S
C554 C555 1.363 . S
C554 C559 1.379 . S
C554 N561 1.356 . S
C555 C554 1.363 . S
C555 C558 1.363 . S
N556 C558 1.356 . S
N556 H568 0.984 . S
N556 H569 0.985 . S
N557 C559 1.356 . S
N557 H562 0.984 . S
N557 H563 0.985 . S
C558 C552 1.379 . S
C558 C555 1.363 . S
C558 N556 1.356 . S
C559 C553 1.363 . S
C559 C554 1.379 . S
C559 N557 1.356 . S
N560 C552 1.356 . S
N560 H566 0.984 . S
N560 H567 0.984 . S
N561 C554 1.356 . S
N561 H564 0.984 . S
N561 H565 0.985 . S
H562 N557 0.984 . S
H563 N557 0.985 . S
H564 N561 0.984 . S
H565 N561 0.985 . S
H566 N560 0.984 . S
H567 N560 0.984 . S
H568 N556 0.984 . S
H569 N556 0.985 . S
C570 C571 1.363 . S
C570 C576 1.379 1_655 S
C570 N578 1.356 . S
C571 C570 1.363 . S
C571 C577 1.363 . S
C572 C573 1.363 1_655 S
C572 C577 1.379 . S
C572 N579 1.356 1_655 S
C573 C572 1.363 1_455 S
C573 C576 1.363 . S
N574 C576 1.356 . S
N574 H586 0.984 . S
N574 H587 0.985 . S
N575 C577 1.356 . S
N575 H580 0.984 . S
N575 H581 0.985 . S
C576 C570 1.379 1_455 S
C576 C573 1.363 . S
C576 N574 1.356 . S
C577 C571 1.363 . S
C577 C572 1.379 . S
C577 N575 1.356 . S
N578 C570 1.356 . S
N578 H584 0.984 . S
N578 H585 0.984 . S
N579 C572 1.356 1_455 S
N579 H582 1.000 . S
N579 H583 0.969 1_455 S
H580 N575 0.984 . S
H581 N575 0.985 . S
H582 N579 1.000 . S
H583 N579 0.969 1_655 S
H584 N578 0.984 . S
H585 N578 0.984 . S
H586 N574 0.984 . S
H587 N574 0.985 . S
C588 C589 1.363 . S
C588 C594 1.379 1_455 S
C588 N596 1.356 . S
C589 C588 1.363 . S
C589 C595 1.363 . S
C590 C591 1.363 1_455 S
C590 C595 1.379 . S
C590 N597 1.356 1_455 S
C591 C590 1.363 1_655 S
C591 C594 1.363 . S
N592 C594 1.356 . S
N592 H604 0.984 . S
N592 H605 0.985 . S
N593 C595 1.356 . S
N593 H598 0.984 . S
N593 H599 0.985 . S
C594 C588 1.379 1_655 S
C594 C591 1.363 . S
C594 N592 1.356 . S
C595 C589 1.363 . S
C595 C590 1.379 . S
C595 N593 1.356 . S
N596 C588 1.356 . S
N596 H602 0.984 . S
N596 H603 0.984 . S
N597 C590 1.356 1_655 S
N597 H600 0.984 . S
N597 H601 0.985 1_655 S
H598 N593 0.984 . S
H599 N593 0.985 . S
H600 N597 0.984 . S
H601 N597 0.985 1_455 S
H602 N596 0.984 . S
H603 N596 0.984 . S
H604 N592 0.984 . S
H605 N592 0.985 . S
C606 C607 1.363 1_545 S
C606 C612 1.379 . S
C606 N614 1.356 1_545 S
C607 C606 1.363 1_565 S
C607 C613 1.346 1_565 S
C608 C609 1.363 . S
C608 C613 1.398 . S
C608 N615 1.356 . S
C609 C608 1.363 . S
C609 C612 1.363 . S
N610 C612 1.356 . S
N610 H622 0.984 . S
N610 H623 0.985 . S
N611 C613 1.348 1_565 S
N611 H616 0.984 . S
N611 H617 0.985 . S
C612 C606 1.379 . S
C612 C609 1.363 . S
C612 N610 1.356 . S
C613 C607 1.346 1_545 S
C613 C608 1.398 . S
C613 N611 1.348 1_545 S
N614 C606 1.356 1_565 S
N614 H620 0.984 . S
N614 H621 0.984 . S
N615 C608 1.356 . S
N615 H618 0.984 . S
N615 H619 0.985 . S
H616 N611 0.984 . S
H617 N611 0.985 . S
H618 N615 0.984 . S
H619 N615 0.985 . S
H620 N614 0.984 . S
H621 N614 0.984 . S
H622 N610 0.984 . S
H623 N610 0.985 . S
C624 C625 1.363 . S
C624 C630 1.379 . S
C624 N632 1.356 . S
C625 C624 1.363 . S
C625 C631 1.363 . S
C626 C627 1.363 . S
C626 C631 1.379 . S
C626 N633 1.356 . S
C627 C626 1.363 . S
C627 C630 1.363 . S
N628 C630 1.356 . S
N628 H640 0.984 . S
N628 H641 0.985 . S
N629 C631 1.356 . S
N629 H634 0.984 . S
N629 H635 0.985 . S
C630 C624 1.379 . S
C630 C627 1.363 . S
C630 N628 1.356 . S
C631 C625 1.363 . S
C631 C626 1.379 . S
C631 N629 1.356 . S
N632 C624 1.356 . S
N632 H638 0.984 . S
N632 H639 0.984 . S
N633 C626 1.356 . S
N633 H636 0.984 . S
N633 H637 0.985 . S
H634 N629 0.984 . S
H635 N629 0.985 . S
H636 N633 0.984 . S
H637 N633 0.985 . S
H638 N632 0.984 . S
H639 N632 0.984 . S
H640 N628 0.984 . S
H641 N628 0.985 . S
C642 C643 1.363 1_655 S
C642 C648 1.379 . S
C642 N650 1.356 1_655 S
C643 C642 1.363 1_455 S
C643 C649 1.363 . S
C644 C645 1.363 . S
C644 C649 1.379 1_655 S
C644 N651 1.356 . S
C645 C644 1.363 . S
C645 C648 1.363 . S
N646 C648 1.356 . S
N646 H658 0.984 . S
N646 H659 0.985 . S
N647 C649 1.356 . S
N647 H652 0.984 . S
N647 H653 0.985 . S
C648 C642 1.379 . S
C648 C645 1.363 . S
C648 N646 1.356 . S
C649 C643 1.363 . S
C649 C644 1.379 1_455 S
C649 N647 1.356 . S
N650 C642 1.356 1_455 S
N650 H656 0.984 1_455 S
N650 H657 0.984 . S
N651 C644 1.356 . S
N651 H654 0.984 . S
N651 H655 0.985 . S
H652 N647 0.984 . S
H653 N647 0.985 . S
H654 N651 0.984 . S
H655 N651 0.985 . S
H656 N650 0.984 1_655 S
H657 N650 0.984 . S
H658 N646 0.984 . S
H659 N646 0.985 . S
C660 C661 1.363 1_565 S
C660 C666 1.379 . S
C660 N668 1.356 1_565 S
C661 C660 1.363 1_545 S
C661 C667 1.363 1_545 S
C662 C663 1.363 . S
C662 C667 1.379 . S
C662 N669 1.356 . S
C663 C662 1.363 . S
C663 C666 1.363 . S
N664 C666 1.356 . S
N664 H676 0.984 . S
N664 H677 0.985 . S
N665 C667 1.356 1_545 S
N665 H670 0.984 . S
N665 H671 0.985 . S
C666 C660 1.379 . S
C666 C663 1.363 . S
C666 N664 1.356 . S
C667 C661 1.363 1_565 S
C667 C662 1.379 . S
C667 N665 1.356 1_565 S
N668 C660 1.356 1_545 S
N668 H674 0.984 . S
N668 H675 0.984 . S
N669 C662 1.356 . S
N669 H672 0.984 . S
N669 H673 0.985 . S
H670 N665 0.984 . S
H671 N665 0.985 . S
H672 N669 0.984 . S
H673 N669 0.985 . S
H674 N668 0.984 . S
H675 N668 0.984 . S
H676 N664 0.984 . S
H677 N664 0.985 . S
C678 C679 1.363 . S
C678 C684 1.379 . S
C678 N686 1.356 . S
C679 C678 1.363 . S
C679 C685 1.363 . S
C680 C681 1.363 . S
C680 C685 1.379 . S
C680 N687 1.356 . S
C681 C680 1.363 . S
C681 C684 1.363 . S
N682 C684 1.356 . S
N682 H694 0.984 . S
N682 H695 0.985 . S
N683 C685 1.356 . S
N683 H688 0.984 . S
N683 H689 0.985 . S
C684 C678 1.379 . S
C684 C681 1.363 . S
C684 N682 1.356 . S
C685 C679 1.363 . S
C685 C680 1.379 . S
C685 N683 1.356 . S
N686 C678 1.356 . S
N686 H692 0.984 . S
N686 H693 0.984 . S
N687 C680 1.356 . S
N687 H690 0.984 . S
N687 H691 0.985 . S
H688 N683 0.984 . S
H689 N683 0.985 . S
H690 N687 0.984 . S
H691 N687 0.985 . S
H692 N686 0.984 . S
H693 N686 0.984 . S
H694 N682 0.984 . S
H695 N682 0.985 . S
C696 C697 1.363 . S
C696 C702 1.379 . S
C696 N704 1.356 . S
C697 C696 1.363 . S
C697 C703 1.363 . S
C698 C699 1.363 . S
C698 C703 1.379 . S
C698 N705 1.356 . S
C699 C698 1.363 . S
C699 C702 1.363 . S
N700 C702 1.356 . S
N700 H712 0.984 . S
N700 H713 0.985 . S
N701 C703 1.356 . S
N701 H706 0.984 . S
N701 H707 0.985 . S
C702 C696 1.379 . S
C702 C699 1.363 . S
C702 N700 1.356 . S
C703 C697 1.363 . S
C703 C698 1.379 . S
C703 N701 1.356 . S
N704 C696 1.356 . S
N704 H710 0.984 . S
N704 H711 0.984 . S
N705 C698 1.356 . S
N705 H708 0.984 . S
N705 H709 0.985 . S
H706 N701 0.984 . S
H707 N701 0.985 . S
H708 N705 0.984 . S
H709 N705 0.985 . S
H710 N704 0.984 . S
H711 N704 0.984 . S
H712 N700 0.984 . S
H713 N700 0.985 . S
C714 C715 1.363 . S
C714 C720 1.379 . S
C714 N722 1.356 . S
C715 C714 1.363 . S
C715 C721 1.363 . S
C716 C717 1.363 . S
C716 C721 1.379 . S
C716 N723 1.356 . S
C717 C716 1.363 . S
C717 C720 1.363 . S
N718 C720 1.356 . S
N718 H730 0.984 . S
N718 H731 0.985 . S
N719 C721 1.356 . S
N719 H724 0.984 . S
N719 H725 0.985 . S
C720 C714 1.379 . S
C720 C717 1.363 . S
C720 N718 1.356 . S
C721 C715 1.363 . S
C721 C716 1.379 . S
C721 N719 1.356 . S
N722 C714 1.356 . S
N722 H728 0.984 . S
N722 H729 0.984 . S
N723 C716 1.356 . S
N723 H726 0.984 . S
N723 H727 0.985 . S
H724 N719 0.984 . S
H725 N719 0.985 . S
H726 N723 0.984 . S
H727 N723 0.985 . S
H728 N722 0.984 . S
H729 N722 0.984 . S
H730 N718 0.984 . S
H731 N718 0.985 . S
C732 C733 1.363 . S
C732 C738 1.379 . S
C732 N740 1.356 . S
C733 C732 1.363 . S
C733 C739 1.363 . S
C734 C735 1.363 . S
C734 C739 1.379 . S
C734 N741 1.356 . S
C735 C734 1.363 . S
C735 C738 1.363 . S
N736 C738 1.356 . S
N736 H748 0.984 . S
N736 H749 0.985 . S
N737 C739 1.356 . S
N737 H742 0.984 . S
N737 H743 0.985 . S
C738 C732 1.379 . S
C738 C735 1.363 . S
C738 N736 1.356 . S
C739 C733 1.363 . S
C739 C734 1.379 . S
C739 N737 1.356 . S
N740 C732 1.356 . S
N740 H746 0.984 . S
N740 H747 0.984 . S
N741 C734 1.356 . S
N741 H744 0.984 . S
N741 H745 0.985 . S
H742 N737 0.984 . S
H743 N737 0.985 . S
H744 N741 0.984 . S
H745 N741 0.985 . S
H746 N740 0.984 . S
H747 N740 0.984 . S
H748 N736 0.984 . S
H749 N736 0.985 . S
C750 C751 1.363 . S
C750 C756 1.379 . S
C750 N758 1.356 . S
C751 C750 1.363 . S
C751 C757 1.363 . S
C752 C753 1.363 . S
C752 C757 1.379 . S
C752 N759 1.356 . S
C753 C752 1.363 . S
C753 C756 1.363 . S
N754 C756 1.356 . S
N754 H766 0.984 . S
N754 H767 0.985 . S
N755 C757 1.356 . S
N755 H760 0.984 . S
N755 H761 0.985 . S
C756 C750 1.379 . S
C756 C753 1.363 . S
C756 N754 1.356 . S
C757 C751 1.363 . S
C757 C752 1.379 . S
C757 N755 1.356 . S
N758 C750 1.356 . S
N758 H764 0.984 . S
N758 H765 0.984 . S
N759 C752 1.356 . S
N759 H762 0.984 . S
N759 H763 0.985 . S
H760 N755 0.984 . S
H761 N755 0.985 . S
H762 N759 0.984 . S
H763 N759 0.985 . S
H764 N758 0.984 . S
H765 N758 0.984 . S
H766 N754 0.984 . S
H767 N754 0.985 . S
C768 C769 1.363 . S
C768 C774 1.379 . S
C768 N776 1.356 . S
C769 C768 1.363 . S
C769 C775 1.363 . S
C770 C771 1.363 . S
C770 C775 1.379 . S
C770 N777 1.356 . S
C771 C770 1.363 . S
C771 C774 1.363 . S
N772 C774 1.356 . S
N772 H784 0.984 . S
N772 H785 0.985 . S
N773 C775 1.356 . S
N773 H778 0.984 . S
N773 H779 0.985 . S
C774 C768 1.379 . S
C774 C771 1.363 . S
C774 N772 1.356 . S
C775 C769 1.363 . S
C775 C770 1.379 . S
C775 N773 1.356 . S
N776 C768 1.356 . S
N776 H782 0.984 . S
N776 H783 0.984 . S
N777 C770 1.356 . S
N777 H780 0.984 . S
N777 H781 0.985 . S
H778 N773 0.984 . S
H779 N773 0.985 . S
H780 N777 0.984 . S
H781 N777 0.985 . S
H782 N776 0.984 . S
H783 N776 0.984 . S
H784 N772 0.984 . S
H785 N772 0.985 . S
C786 C787 1.363 . S
C786 C792 1.379 . S
C786 N794 1.356 . S
C787 C786 1.363 . S
C787 C793 1.363 . S
C788 C789 1.363 . S
C788 C793 1.379 . S
C788 N795 1.356 . S
C789 C788 1.363 . S
C789 C792 1.363 . S
N790 C792 1.356 . S
N790 H802 0.984 . S
N790 H803 0.985 . S
N791 C793 1.356 . S
N791 H796 0.984 . S
N791 H797 0.985 . S
C792 C786 1.379 . S
C792 C789 1.363 . S
C792 N790 1.356 . S
C793 C787 1.363 . S
C793 C788 1.379 . S
C793 N791 1.356 . S
N794 C786 1.356 . S
N794 H800 0.984 . S
N794 H801 0.984 . S
N795 C788 1.356 . S
N795 H798 0.984 . S
N795 H799 0.985 . S
H796 N791 0.984 . S
H797 N791 0.985 . S
H798 N795 0.984 . S
H799 N795 0.985 . S
H800 N794 0.984 . S
H801 N794 0.984 . S
H802 N790 0.984 . S
H803 N790 0.985 . S
C804 C805 1.363 . S
C804 C810 1.379 . S
C804 N812 1.356 . S
C805 C804 1.363 . S
C805 C811 1.363 . S
C806 C807 1.363 . S
C806 C811 1.379 . S
C806 N813 1.356 . S
C807 C806 1.363 . S
C807 C810 1.363 . S
N808 C810 1.356 . S
N808 H820 0.984 . S
N808 H821 0.985 . S
N809 C811 1.356 . S
N809 H814 0.984 . S
N809 H815 0.985 . S
C810 C804 1.379 . S
C810 C807 1.363 . S
C810 N808 1.356 . S
C811 C805 1.363 . S
C811 C806 1.379 . S
C811 N809 1.356 . S
N812 C804 1.356 . S
N812 H818 0.984 . S
N812 H819 0.984 . S
N813 C806 1.356 . S
N813 H816 0.984 . S
N813 H817 0.985 . S
H814 N809 0.984 . S
H815 N809 0.985 . S
H816 N813 0.984 . S
H817 N813 0.985 . S
H818 N812 0.984 . S
H819 N812 0.984 . S
H820 N808 0.984 . S
H821 N808 0.985 . S
C822 C823 1.363 . S
C822 C828 1.379 . S
C822 N830 1.356 . S
C823 C822 1.363 . S
C823 C829 1.363 . S
C824 C825 1.363 . S
C824 C829 1.379 . S
C824 N831 1.356 . S
C825 C824 1.363 . S
C825 C828 1.363 . S
N826 C828 1.356 . S
N826 H838 0.984 . S
N826 H839 0.985 . S
N827 C829 1.356 . S
N827 H832 0.984 . S
N827 H833 0.985 . S
C828 C822 1.379 . S
C828 C825 1.363 . S
C828 N826 1.356 . S
C829 C823 1.363 . S
C829 C824 1.379 . S
C829 N827 1.356 . S
N830 C822 1.356 . S
N830 H836 0.984 . S
N830 H837 0.984 . S
N831 C824 1.356 . S
N831 H834 0.984 . S
N831 H835 0.985 . S
H832 N827 0.984 . S
H833 N827 0.985 . S
H834 N831 0.984 . S
H835 N831 0.985 . S
H836 N830 0.984 . S
H837 N830 0.984 . S
H838 N826 0.984 . S
H839 N826 0.985 . S
C840 C841 1.363 . S
C840 C846 1.379 . S
C840 N848 1.356 . S
C841 C840 1.363 . S
C841 C847 1.363 . S
C842 C843 1.363 . S
C842 C847 1.379 . S
C842 N849 1.356 . S
C843 C842 1.363 . S
C843 C846 1.363 . S
N844 C846 1.356 . S
N844 H856 0.984 . S
N844 H857 0.985 . S
N845 C847 1.356 . S
N845 H850 0.984 . S
N845 H851 0.985 . S
C846 C840 1.379 . S
C846 C843 1.363 . S
C846 N844 1.356 . S
C847 C841 1.363 . S
C847 C842 1.379 . S
C847 N845 1.356 . S
N848 C840 1.356 . S
N848 H854 0.984 . S
N848 H855 0.984 . S
N849 C842 1.356 . S
N849 H852 0.984 . S
N849 H853 0.985 . S
H850 N845 0.984 . S
H851 N845 0.985 . S
H852 N849 0.984 . S
H853 N849 0.985 . S
H854 N848 0.984 . S
H855 N848 0.984 . S
H856 N844 0.984 . S
H857 N844 0.985 . S
C858 C859 1.363 . S
C858 C864 1.379 . S
C858 N866 1.356 . S
C859 C858 1.363 . S
C859 C865 1.363 . S
C860 C861 1.363 . S
C860 C865 1.379 . S
C860 N867 1.356 . S
C861 C860 1.363 . S
C861 C864 1.363 . S
N862 C864 1.356 . S
N862 H874 0.984 . S
N862 H875 0.985 . S
N863 C865 1.356 . S
N863 H868 0.984 . S
N863 H869 0.985 . S
C864 C858 1.379 . S
C864 C861 1.363 . S
C864 N862 1.356 . S
C865 C859 1.363 . S
C865 C860 1.379 . S
C865 N863 1.356 . S
N866 C858 1.356 . S
N866 H872 0.984 . S
N866 H873 0.984 . S
N867 C860 1.356 . S
N867 H870 0.984 . S
N867 H871 0.985 . S
H868 N863 0.984 . S
H869 N863 0.985 . S
H870 N867 0.984 . S
H871 N867 0.985 . S
H872 N866 0.984 . S
H873 N866 0.984 . S
H874 N862 0.984 . S
H875 N862 0.985 . S
C876 C877 1.363 . S
C876 C882 1.379 . S
C876 N884 1.356 . S
C877 C876 1.363 . S
C877 C883 1.363 . S
C878 C879 1.363 . S
C878 C883 1.379 . S
C878 N885 1.356 . S
C879 C878 1.363 . S
C879 C882 1.363 . S
N880 C882 1.356 . S
N880 H892 0.984 . S
N880 H893 0.985 . S
N881 C883 1.356 . S
N881 H886 0.984 . S
N881 H887 0.985 . S
C882 C876 1.379 . S
C882 C879 1.363 . S
C882 N880 1.356 . S
C883 C877 1.363 . S
C883 C878 1.379 . S
C883 N881 1.356 . S
N884 C876 1.356 . S
N884 H890 0.984 . S
N884 H891 0.984 . S
N885 C878 1.356 . S
N885 H888 0.984 . S
N885 H889 0.985 . S
H886 N881 0.984 . S
H887 N881 0.985 . S
H888 N885 0.984 . S
H889 N885 0.985 . S
H890 N884 0.984 . S
H891 N884 0.984 . S
H892 N880 0.984 . S
H893 N880 0.985 . S
C894 C895 1.363 . S
C894 C900 1.379 . S
C894 N902 1.356 . S
C895 C894 1.363 . S
C895 C901 1.363 . S
C896 C897 1.363 . S
C896 C901 1.379 . S
C896 N903 1.356 . S
C897 C896 1.363 . S
C897 C900 1.363 . S
N898 C900 1.356 . S
N898 H910 0.984 . S
N898 H911 0.985 . S
N899 C901 1.356 . S
N899 H904 0.984 . S
N899 H905 0.985 . S
C900 C894 1.379 . S
C900 C897 1.363 . S
C900 N898 1.356 . S
C901 C895 1.363 . S
C901 C896 1.379 . S
C901 N899 1.356 . S
N902 C894 1.356 . S
N902 H908 0.984 . S
N902 H909 0.984 . S
N903 C896 1.356 . S
N903 H906 0.984 . S
N903 H907 0.985 . S
H904 N899 0.984 . S
H905 N899 0.985 . S
H906 N903 0.984 . S
H907 N903 0.985 . S
H908 N902 0.984 . S
H909 N902 0.984 . S
H910 N898 0.984 . S
H911 N898 0.985 . S
C912 C913 1.363 . S
C912 C918 1.379 . S
C912 N920 1.356 . S
C913 C912 1.363 . S
C913 C919 1.363 . S
C914 C915 1.363 . S
C914 C919 1.379 . S
C914 N921 1.356 . S
C915 C914 1.363 . S
C915 C918 1.363 . S
N916 C918 1.356 . S
N916 H928 0.984 . S
N916 H929 0.985 . S
N917 C919 1.356 . S
N917 H922 0.984 . S
N917 H923 0.985 . S
C918 C912 1.379 . S
C918 C915 1.363 . S
C918 N916 1.356 . S
C919 C913 1.363 . S
C919 C914 1.379 . S
C919 N917 1.356 . S
N920 C912 1.356 . S
N920 H926 0.984 . S
N920 H927 0.984 . S
N921 C914 1.356 . S
N921 H924 0.984 . S
N921 H925 0.985 . S
H922 N917 0.984 . S
H923 N917 0.985 . S
H924 N921 0.984 . S
H925 N921 0.985 . S
H926 N920 0.984 . S
H927 N920 0.984 . S
H928 N916 0.984 . S
H929 N916 0.985 . S
C930 C931 1.363 . S
C930 C936 1.379 . S
C930 N938 1.356 . S
C931 C930 1.363 . S
C931 C937 1.363 . S
C932 C933 1.363 . S
C932 C937 1.379 . S
C932 N939 1.356 . S
C933 C932 1.363 . S
C933 C936 1.363 . S
N934 C936 1.356 . S
N934 H946 0.984 . S
N934 H947 0.985 . S
N935 C937 1.356 . S
N935 H940 0.984 . S
N935 H941 0.985 . S
C936 C930 1.379 . S
C936 C933 1.363 . S
C936 N934 1.356 . S
C937 C931 1.363 . S
C937 C932 1.379 . S
C937 N935 1.356 . S
N938 C930 1.356 . S
N938 H944 0.984 . S
N938 H945 0.984 . S
N939 C932 1.356 . S
N939 H942 0.984 . S
N939 H943 0.985 . S
H940 N935 0.984 . S
H941 N935 0.985 . S
H942 N939 0.984 . S
H943 N939 0.985 . S
H944 N938 0.984 . S
H945 N938 0.984 . S
H946 N934 0.984 . S
H947 N934 0.985 . S
C948 C949 1.363 . S
C948 C954 1.379 . S
C948 N956 1.356 . S
C949 C948 1.363 . S
C949 C955 1.363 . S
C950 C951 1.363 . S
C950 C955 1.379 . S
C950 N957 1.356 . S
C951 C950 1.363 . S
C951 C954 1.363 . S
N952 C954 1.356 . S
N952 H964 0.984 . S
N952 H965 0.985 . S
N953 C955 1.356 . S
N953 H958 0.984 . S
N953 H959 0.985 . S
C954 C948 1.379 . S
C954 C951 1.363 . S
C954 N952 1.356 . S
C955 C949 1.363 . S
C955 C950 1.379 . S
C955 N953 1.356 . S
N956 C948 1.356 . S
N956 H962 0.984 . S
N956 H963 0.984 . S
N957 C950 1.356 . S
N957 H960 0.984 . S
N957 H961 0.985 . S
H958 N953 0.984 . S
H959 N953 0.985 . S
H960 N957 0.984 . S
H961 N957 0.985 . S
H962 N956 0.984 . S
H963 N956 0.984 . S
H964 N952 0.984 . S
H965 N952 0.985 . S
C966 C967 1.363 . S
C966 C972 1.379 . S
C966 N974 1.356 . S
C967 C966 1.363 . S
C967 C973 1.363 . S
C968 C969 1.363 . S
C968 C973 1.379 . S
C968 N975 1.356 . S
C969 C968 1.363 . S
C969 C972 1.363 . S
N970 C972 1.356 . S
N970 H982 0.984 . S
N970 H983 0.985 . S
N971 C973 1.356 . S
N971 H976 0.984 . S
N971 H977 0.985 . S
C972 C966 1.379 . S
C972 C969 1.363 . S
C972 N970 1.356 . S
C973 C967 1.363 . S
C973 C968 1.379 . S
C973 N971 1.356 . S
N974 C966 1.356 . S
N974 H980 0.984 . S
N974 H981 0.984 . S
N975 C968 1.356 . S
N975 H978 0.984 . S
N975 H979 0.985 . S
H976 N971 0.984 . S
H977 N971 0.985 . S
H978 N975 0.984 . S
H979 N975 0.985 . S
H980 N974 0.984 . S
H981 N974 0.984 . S
H982 N970 0.984 . S
H983 N970 0.985 . S
C984 C985 1.363 . S
C984 C990 1.379 . S
C984 N992 1.356 . S
C985 C984 1.363 . S
C985 C991 1.363 . S
C986 C987 1.363 . S
C986 C991 1.379 . S
C986 N993 1.356 . S
C987 C986 1.363 . S
C987 C990 1.363 . S
N988 C990 1.356 . S
N988 H1000 0.984 . S
N988 H1001 0.985 . S
N989 C991 1.356 . S
N989 H994 0.984 . S
N989 H995 0.985 . S
C990 C984 1.379 . S
C990 C987 1.363 . S
C990 N988 1.356 . S
C991 C985 1.363 . S
C991 C986 1.379 . S
C991 N989 1.356 . S
N992 C984 1.356 . S
N992 H998 0.984 . S
N992 H999 0.984 . S
N993 C986 1.356 . S
N993 H996 0.984 . S
N993 H997 0.985 . S
H994 N989 0.984 . S
H995 N989 0.985 . S
H996 N993 0.984 . S
H997 N993 0.985 . S
H998 N992 0.984 . S
H999 N992 0.984 . S
H1000 N988 0.984 . S
H1001 N988 0.985 . S
C1002 C1003 1.363 . S
C1002 C1008 1.379 . S
C1002 N1010 1.356 . S
C1003 C1002 1.363 . S
C1003 C1009 1.363 . S
C1004 C1005 1.363 . S
C1004 C1009 1.379 . S
C1004 N1011 1.356 . S
C1005 C1004 1.363 . S
C1005 C1008 1.363 . S
N1006 C1008 1.356 . S
N1006 H1018 0.984 . S
N1006 H1019 0.985 . S
N1007 C1009 1.356 . S
N1007 H1012 0.984 . S
N1007 H1013 0.985 . S
C1008 C1002 1.379 . S
C1008 C1005 1.363 . S
C1008 N1006 1.356 . S
C1009 C1003 1.363 . S
C1009 C1004 1.379 . S
C1009 N1007 1.356 . S
N1010 C1002 1.356 . S
N1010 H1016 0.984 . S
N1010 H1017 0.984 . S
N1011 C1004 1.356 . S
N1011 H1014 0.984 . S
N1011 H1015 0.985 . S
H1012 N1007 0.984 . S
H1013 N1007 0.985 . S
H1014 N1011 0.984 . S
H1015 N1011 0.985 . S
H1016 N1010 0.984 . S
H1017 N1010 0.984 . S
H1018 N1006 0.984 . S
H1019 N1006 0.985 . S
C1020 C1021 1.363 1_554 S
C1020 C1026 1.379 . S
C1020 N1028 1.356 . S
C1021 C1020 1.363 1_556 S
C1021 C1027 1.363 . S
C1022 C1023 1.363 1_556 S
C1022 C1027 1.379 . S
C1022 N1029 1.356 . S
C1023 C1022 1.363 1_554 S
C1023 C1026 1.363 . S
N1024 C1026 1.356 . S
N1024 H1036 0.984 . S
N1024 H1037 0.985 . S
N1025 C1027 1.356 . S
N1025 H1030 0.984 . S
N1025 H1031 0.985 . S
C1026 C1020 1.379 . S
C1026 C1023 1.363 . S
C1026 N1024 1.356 . S
C1027 C1021 1.363 . S
C1027 C1022 1.379 . S
C1027 N1025 1.356 . S
N1028 C1020 1.356 . S
N1028 H1034 0.984 . S
N1028 H1035 0.984 . S
N1029 C1022 1.356 . S
N1029 H1032 0.984 . S
N1029 H1033 0.985 . S
H1030 N1025 0.984 . S
H1031 N1025 0.985 . S
H1032 N1029 0.984 . S
H1033 N1029 0.985 . S
H1034 N1028 0.984 . S
H1035 N1028 0.984 . S
H1036 N1024 0.984 . S
H1037 N1024 0.985 . S
C1038 C1039 1.363 . S
C1038 C1044 1.379 1_455 S
C1038 N1046 1.356 . S
C1039 C1038 1.363 . S
C1039 C1045 1.363 . S
C1040 C1041 1.363 . S
C1040 C1045 1.379 1_655 S
C1040 N1047 1.356 . S
C1041 C1040 1.363 . S
C1041 C1044 1.363 . S
N1042 C1044 1.356 . S
N1042 H1054 0.984 . S
N1042 H1055 0.985 . S
N1043 C1045 1.356 . S
N1043 H1048 0.984 . S
N1043 H1049 0.985 . S
C1044 C1038 1.379 1_655 S
C1044 C1041 1.363 . S
C1044 N1042 1.356 . S
C1045 C1039 1.363 . S
C1045 C1040 1.379 1_455 S
C1045 N1043 1.356 . S
N1046 C1038 1.356 . S
N1046 H1052 0.984 . S
N1046 H1053 0.984 . S
N1047 C1040 1.356 . S
N1047 H1050 0.984 . S
N1047 H1051 0.985 . S
H1048 N1043 0.984 . S
H1049 N1043 0.985 . S
H1050 N1047 0.984 . S
H1051 N1047 0.985 . S
H1052 N1046 0.984 . S
H1053 N1046 0.984 . S
H1054 N1042 0.984 . S
H1055 N1042 0.985 . S
C1056 C1057 1.363 . S
C1056 C1062 1.379 1_565 S
C1056 N1064 1.356 . S
C1057 C1056 1.363 . S
C1057 C1063 1.363 1_554 S
C1058 C1059 1.363 . S
C1058 C1063 1.379 1_545 S
C1058 N1065 1.356 . S
C1059 C1058 1.363 . S
C1059 C1062 1.363 1_556 S
N1060 C1062 1.356 . S
N1060 H1072 0.984 . S
N1060 H1073 0.985 . S
N1061 C1063 1.356 . S
N1061 H1066 0.984 . S
N1061 H1067 0.985 . S
C1062 C1056 1.379 1_545 S
C1062 C1059 1.363 1_554 S
C1062 N1060 1.356 . S
C1063 C1057 1.363 1_556 S
C1063 C1058 1.379 1_565 S
C1063 N1061 1.356 . S
N1064 C1056 1.356 . S
N1064 H1070 0.984 . S
N1064 H1071 0.984 . S
N1065 C1058 1.356 . S
N1065 H1068 0.984 . S
N1065 H1069 0.985 . S
H1066 N1061 0.984 . S
H1067 N1061 0.985 . S
H1068 N1065 0.984 . S
H1069 N1065 0.985 . S
H1070 N1064 0.984 . S
H1071 N1064 0.984 . S
H1072 N1060 0.984 . S
H1073 N1060 0.985 . S
C1074 C1075 1.363 . S
C1074 C1080 1.379 . S
C1074 N1082 1.356 . S
C1075 C1074 1.363 . S
C1075 C1081 1.363 . S
C1076 C1077 1.363 . S
C1076 C1081 1.379 . S
C1076 N1083 1.356 . S
C1077 C1076 1.363 . S
C1077 C1080 1.363 . S
N1078 C1080 1.356 . S
N1078 H1090 0.984 . S
N1078 H1091 0.985 . S
N1079 C1081 1.356 . S
N1079 H1084 0.984 . S
N1079 H1085 0.985 . S
C1080 C1074 1.379 . S
C1080 C1077 1.363 . S
C1080 N1078 1.356 . S
C1081 C1075 1.363 . S
C1081 C1076 1.379 . S
C1081 N1079 1.356 . S
N1082 C1074 1.356 . S
N1082 H1088 0.984 . S
N1082 H1089 0.984 . S
N1083 C1076 1.356 . S
N1083 H1086 0.984 . S
N1083 H1087 0.985 . S
H1084 N1079 0.984 . S
H1085 N1079 0.985 . S
H1086 N1083 0.984 . S
H1087 N1083 0.985 . S
H1088 N1082 0.984 . S
H1089 N1082 0.984 . S
H1090 N1078 0.984 . S
H1091 N1078 0.985 . S
C1092 C1093 1.363 . S
C1092 C1098 1.379 1_655 S
C1092 N1100 1.356 . S
C1093 C1092 1.363 . S
C1093 C1099 1.363 1_556 S
C1094 C1095 1.363 . S
C1094 C1099 1.379 1_455 S
C1094 N1101 1.356 . S
C1095 C1094 1.363 . S
C1095 C1098 1.363 1_554 S
N1096 C1098 1.356 . S
N1096 H1108 0.984 . S
N1096 H1109 0.985 . S
N1097 C1099 1.356 . S
N1097 H1102 0.984 . S
N1097 H1103 0.985 . S
C1098 C1092 1.379 1_455 S
C1098 C1095 1.363 1_556 S
C1098 N1096 1.356 . S
C1099 C1093 1.363 1_554 S
C1099 C1094 1.379 1_655 S
C1099 N1097 1.356 . S
N1100 C1092 1.356 . S
N1100 H1106 0.984 . S
N1100 H1107 0.984 . S
N1101 C1094 1.356 . S
N1101 H1104 0.984 . S
N1101 H1105 0.985 . S
H1102 N1097 0.984 . S
H1103 N1097 0.985 . S
H1104 N1101 0.984 . S
H1105 N1101 0.985 . S
H1106 N1100 0.984 . S
H1107 N1100 0.984 . S
H1108 N1096 0.984 . S
H1109 N1096 0.985 . S
C1110 C1111 1.363 . S
C1110 C1116 1.379 1_565 S
C1110 N1118 1.356 . S
C1111 C1110 1.363 . S
C1111 C1117 1.363 . S
C1112 C1113 1.363 . S
C1112 C1117 1.379 1_545 S
C1112 N1119 1.356 . S
C1113 C1112 1.363 . S
C1113 C1116 1.363 . S
N1114 C1116 1.356 . S
N1114 H1126 0.984 . S
N1114 H1127 0.985 . S
N1115 C1117 1.356 . S
N1115 H1120 0.984 . S
N1115 H1121 0.985 . S
C1116 C1110 1.379 1_545 S
C1116 C1113 1.363 . S
C1116 N1114 1.356 . S
C1117 C1111 1.363 . S
C1117 C1112 1.379 1_565 S
C1117 N1115 1.356 . S
N1118 C1110 1.356 . S
N1118 H1124 0.984 . S
N1118 H1125 0.984 . S
N1119 C1112 1.356 . S
N1119 H1122 0.984 . S
N1119 H1123 0.985 . S
H1120 N1115 0.984 . S
H1121 N1115 0.985 . S
H1122 N1119 0.984 . S
H1123 N1119 0.985 . S
H1124 N1118 0.984 . S
H1125 N1118 0.984 . S
H1126 N1114 0.984 . S
H1127 N1114 0.985 . S
C481 C179 1.385 . S
C483 C15 1.442 . S
C499 C219 1.384 . S
C501 C55 1.442 . S
C517 C95 1.442 . S
C519 C19 1.385 . S
C535 C135 1.442 . S
C537 C59 1.384 . S
C553 C175 1.442 . S
C555 C99 1.384 . S
C571 C139 1.385 . S
C573 C215 1.442 . S
C589 C339 1.384 . S
C591 C255 1.442 . S
C607 C295 1.442 . S
C609 C379 1.385 . S
C625 C419 1.384 . S
C627 C335 1.442 . S
C643 C375 1.442 . S
C645 C459 1.384 . S
C661 C415 1.442 . S
C663 C259 1.385 . S
C679 C299 1.384 . S
C681 C455 1.442 . S
C697 C170 1.864 . S
C699 C6 1.834 . S
C715 C46 1.834 . S
C717 C210 1.864 . S
C733 C86 1.835 . S
C735 C10 1.865 . S
C751 C126 1.834 . S
C753 C50 1.864 . S
C769 C90 1.864 . S
C771 C166 1.834 . S
C787 C130 1.865 . S
C789 C206 1.835 . S
C805 C330 1.864 . S
C807 C246 1.834 . S
C823 C286 1.835 . S
C825 C370 1.865 . S
C841 C326 1.834 . S
C843 C410 1.864 . S
C859 C450 1.864 . S
C861 C366 1.834 . S
C877 C406 1.835 . S
C879 C250 1.865 . S
C895 C290 1.864 . S
C897 C446 1.834 . S
C913 C418 1.585 . S
C915 C18 1.585 . S
C931 C58 1.585 . S
C933 C458 1.585 . S
C949 C98 1.585 . S
C951 C258 1.585 . S
C967 C138 1.585 . S
C969 C298 1.585 . S
C985 C178 1.585 . S
C987 C338 1.585 . S
C1003 C378 1.585 . S
C1005 C218 1.585 . S
C1021 C369 2.382 . S
C1023 C9 2.382 . S
C1039 C409 2.382 . S
C1041 C49 2.382 . S
C1057 C89 2.382 . S
C1059 C449 2.382 . S
C1075 C129 2.382 . S
C1077 C249 2.382 . S
C1093 C289 2.382 . S
C1095 C169 2.382 . S
C1111 C329 2.382 . S
C1113 C209 2.382 . S
