# Generated by pormake.
# Topology wkj, (6)-cn, num edge types: 1
# Building blocks:
#     Node 0, Type 0, BuildingBlock: VOLQOD_clean_sbu_1, # of connection points: 6
#     Node 1, Type 0, BuildingBlock: VOLQOD_clean_sbu_1, # of connection points: 6
#     Node 2, Type 0, BuildingBlock: VOLQOD_clean_sbu_1, # of connection points: 6
#     Node 3, Type 0, BuildingBlock: VOLQOD_clean_sbu_1, # of connection points: 6
#     Node 4, Type 0, BuildingBlock: VOLQOD_clean_sbu_1, # of connection points: 6
#     Node 5, Type 0, BuildingBlock: VOLQOD_clean_sbu_1, # of connection points: 6
#     Node 6, Type 0, BuildingBlock: VOLQOD_clean_sbu_1, # of connection points: 6
#     Node 7, Type 0, BuildingBlock: VOLQOD_clean_sbu_1, # of connection points: 6
#     Node 8, Type 0, BuildingBlock: VOLQOD_clean_sbu_1, # of connection points: 6
#     Node 9, Type 0, BuildingBlock: VOLQOD_clean_sbu_1, # of connection points: 6
#     Node 10, Type 0, BuildingBlock: VOLQOD_clean_sbu_1, # of connection points: 6
#     Node 11, Type 0, BuildingBlock: VOLQOD_clean_sbu_1, # of connection points: 6
#     Edge 12, Type (0, 0), None
#     Edge 13, Type (0, 0), None
#     Edge 14, Type (0, 0), None
#     Edge 15, Type (0, 0), None
#     Edge 16, Type (0, 0), None
#     Edge 17, Type (0, 0), None
#     Edge 18, Type (0, 0), None
#     Edge 19, Type (0, 0), None
#     Edge 20, Type (0, 0), None
#     Edge 21, Type (0, 0), None
#     Edge 22, Type (0, 0), None
#     Edge 23, Type (0, 0), None
#     Edge 24, Type (0, 0), None
#     Edge 25, Type (0, 0), None
#     Edge 26, Type (0, 0), None
#     Edge 27, Type (0, 0), None
#     Edge 28, Type (0, 0), None
#     Edge 29, Type (0, 0), None
#     Edge 30, Type (0, 0), None
#     Edge 31, Type (0, 0), None
#     Edge 32, Type (0, 0), None
#     Edge 33, Type (0, 0), None
#     Edge 34, Type (0, 0), None
#     Edge 35, Type (0, 0), None
#     Edge 36, Type (0, 0), None
#     Edge 37, Type (0, 0), None
#     Edge 38, Type (0, 0), None
#     Edge 39, Type (0, 0), None
#     Edge 40, Type (0, 0), None
#     Edge 41, Type (0, 0), None
#     Edge 42, Type (0, 0), None
#     Edge 43, Type (0, 0), None
#     Edge 44, Type (0, 0), None
#     Edge 45, Type (0, 0), None
#     Edge 46, Type (0, 0), None
#     Edge 47, Type (0, 0), None
# Relax obj value: 0.767
# Max RMSD: 0.283
# Mean RMSD: 0.283
data_MOF--net-wkj--node1-VOLQOD_clean_sbu_1--edge1-none
_symmetry_space_group_name_H-M    P1
_symmetry_Int_Tables_number       1
_symmetry_cell_setting            triclinic
loop_
_symmetry_equiv_pos_as_xyz
'x, y, z'
_cell_length_a     30.399139
_cell_length_b     30.396432
_cell_length_c     12.258044
_cell_angle_alpha  90.025782
_cell_angle_beta   89.949847
_cell_angle_gamma 119.99573
loop_
_atom_site_label
_atom_site_type_symbol
_atom_site_fract_x
_atom_site_fract_y
_atom_site_fract_z
_atom_type_partial_charge
O0 O 0.33024 0.96074 0.37148 0.0
Zn1 Zn 0.35535 -0.00522 0.22992 0.0
O2 O 0.406 0.06379 0.23954 0.0
Zn3 Zn 0.47574 0.08348 0.2294 0.0
Zn4 Zn 0.39712 0.09079 0.36845 0.0
Zn5 Zn 0.39959 0.0814 0.09093 0.0
O6 O 0.51892 0.14398 0.14041 0.0
O7 O 0.46549 0.10719 1.00627 0.0
O8 O 0.39092 -0.03408 0.156 0.0
O9 O 0.47279 0.02667 0.15485 0.0
O10 O 0.51092 0.0923 0.36962 0.0
O11 O 0.46379 0.11482 0.46675 0.0
O12 O 0.38408 0.14584 0.2866 0.0
O13 O 0.29496 -0.02038 0.14238 0.0
O14 O 0.38409 0.13449 0.10389 0.0
O15 O 0.34472 0.02259 0.00676 0.0
C16 C 0.32359 -0.02017 0.45734 0.0
C17 C 0.51083 0.13563 0.03949 0.0
C18 C 0.50271 0.10864 0.45775 0.0
C19 C 0.43731 -0.01792 0.1329 0.0
C20 C 0.38005 0.15749 0.18598 0.0
C21 C 0.30291 -0.01408 0.04098 0.0
O22 O 0.34151 0.02833 0.46452 0.0
O23 O 0.33286 0.34887 0.70466 0.0
Zn24 Zn 0.32397 0.37404 0.56318 0.0
O25 O 0.30568 0.42476 0.57296 0.0
Zn26 Zn 0.35581 0.49447 0.56303 0.0
Zn27 Zn 0.26977 0.41585 0.70184 0.0
Zn28 Zn 0.28174 0.41846 0.42433 0.0
O29 O 0.33868 0.53781 0.4742 0.0
O30 O 0.32193 0.48439 0.33988 0.0
O31 O 0.38841 0.40954 0.48926 0.0
O32 O 0.40962 0.49144 0.48845 0.0
O33 O 0.38213 0.52954 0.70336 0.0
O34 O 0.31241 0.48252 0.80032 0.0
O35 O 0.20168 0.40276 0.61988 0.0
O36 O 0.27867 0.31372 0.4755 0.0
O37 O 0.21315 0.40293 0.43717 0.0
O38 O 0.28568 0.36359 0.34003 0.0
C39 C 0.30714 0.34225 0.79055 0.0
C40 C 0.33891 0.52974 0.37325 0.0
C41 C 0.35754 0.52137 0.79143 0.0
C42 C 0.41867 0.45593 0.4663 0.0
C43 C 0.18604 0.39877 0.51924 0.0
C44 C 0.28041 0.32172 0.37412 0.0
O45 O 0.27661 0.36022 0.79779 0.0
O46 O -0.05273 0.35121 0.03789 0.0
Zn47 Zn 0.91322 0.34231 0.8964 0.0
O48 O 0.84421 0.324 0.90617 0.0
Zn49 Zn 0.82461 0.37411 0.89628 0.0
Zn50 Zn 0.81721 0.28812 0.03505 0.0
Zn51 Zn 0.82656 0.30001 0.75754 0.0
O52 O 0.76415 0.35696 0.80743 0.0
O53 O 0.80087 0.34024 0.67312 0.0
O54 O 0.94214 0.40674 0.82256 0.0
O55 O 0.88144 0.42793 0.82177 0.0
O56 O 0.81583 0.40046 0.03662 0.0
O57 O 0.79323 0.33078 0.13357 0.0
O58 O 0.7621 0.22006 0.95313 0.0
O59 O 0.92827 0.297 0.80864 0.0
O60 O 0.77339 0.23145 0.77042 0.0
O61 O 0.88533 0.30387 0.6732 0.0
C62 C 0.92818 0.32549 0.12374 0.0
C63 C 0.7725 0.35721 0.70649 0.0
C64 C 0.79946 0.37589 0.1247 0.0
C65 C 0.926 0.43699 0.79964 0.0
C66 C 0.75039 0.20441 0.85249 0.0
C67 C 0.92198 0.29868 0.70727 0.0
O68 O 0.87968 0.29495 0.13097 0.0
O69 O 0.55902 -0.03414 0.37107 0.0
Zn70 Zn 0.5339 0.93179 0.22954 0.0
O71 O 0.48323 0.86276 0.23926 0.0
Zn72 Zn 0.4135 0.84313 0.22937 0.0
Zn73 Zn 0.49213 0.83581 0.36814 0.0
Zn74 Zn 0.4896 0.84507 0.09065 0.0
O75 O 0.37023 0.78263 0.14051 0.0
O76 O 0.42369 0.81929 1.00622 0.0
O77 O 0.49837 0.96068 0.15572 0.0
O78 O 0.41649 0.89992 0.15482 0.0
O79 O 0.37839 0.83437 0.36974 0.0
O80 O 0.42546 0.81177 0.46661 0.0
O81 O 0.50524 0.78079 0.28635 0.0
O82 O 0.59425 0.94688 0.14177 0.0
O83 O 0.50513 0.79198 0.10363 0.0
O84 O 0.54446 0.90389 1.00632 0.0
C85 C 0.56564 0.94678 0.45691 0.0
C86 C 0.37834 0.79095 0.03957 0.0
C87 C 0.38658 0.81799 0.45778 0.0
C88 C 0.45199 0.94448 0.13267 0.0
C89 C 0.50926 0.76907 0.18573 0.0
C90 C 0.58627 0.94058 0.04039 0.0
O91 O 0.5477 0.89828 0.4641 0.0
O92 O 0.55658 0.5776 0.70446 0.0
Zn93 Zn 0.56554 0.55247 0.56288 0.0
O94 O 0.58386 0.50178 0.57251 0.0
Zn95 Zn 0.53376 0.43204 0.5625 0.0
Zn96 Zn 0.61965 0.51064 0.70143 0.0
Zn97 Zn 0.60798 0.50819 0.42393 0.0
O98 O 0.55103 0.3888 0.47348 0.0
O99 O 0.56783 0.44229 0.33933 0.0
O100 O 0.50115 0.51695 0.489 0.0
O101 O 0.47996 0.43504 0.48803 0.0
O102 O 0.50737 0.39687 0.70279 0.0
O103 O 0.57699 0.44398 0.79979 0.0
O104 O 0.68778 0.52369 0.61976 0.0
O105 O 0.61082 0.61286 0.47525 0.0
O106 O 0.67655 0.52364 0.43703 0.0
O107 O 0.60411 0.56311 0.33969 0.0
C108 C 0.5823 0.58424 0.79027 0.0
C109 C 0.55081 0.39693 0.37256 0.0
C110 C 0.53191 0.40508 0.79087 0.0
C111 C 0.47094 0.47056 0.46595 0.0
C112 C 0.70354 0.52771 0.51917 0.0
C113 C 0.60921 0.60492 0.37386 0.0
O114 O 0.61283 0.56627 0.79742 0.0
O115 O 0.94223 0.57495 0.03799 0.0
Zn116 Zn -0.0237 0.58388 0.89641 0.0
O117 O 0.0453 0.60221 0.90603 0.0
Zn118 Zn 0.06495 0.55212 0.89598 0.0
Zn119 Zn 0.07225 0.63805 0.03494 0.0
Zn120 Zn 0.06298 0.62628 0.75745 0.0
O121 O 0.12545 0.56939 0.80696 0.0
O122 O 0.08876 0.58614 0.67282 0.0
O123 O -0.05257 0.51948 0.82246 0.0
O124 O 0.00816 0.4983 0.82146 0.0
O125 O 0.07371 0.52575 0.03626 0.0
O126 O 0.09625 0.5954 0.1333 0.0
O127 O 0.12726 0.70618 0.9532 0.0
O128 O -0.03881 0.62916 0.80886 0.0
O129 O 0.11605 0.69488 0.77048 0.0
O130 O 0.00418 0.62236 0.67326 0.0
C131 C -0.03869 0.60068 0.12382 0.0
C132 C 0.11711 0.56915 0.70605 0.0
C133 C 0.09005 0.5503 0.12435 0.0
C134 C -0.03638 0.48927 0.79937 0.0
C135 C 0.13896 0.72191 0.8526 0.0
C136 C -0.0325 0.62751 0.70746 0.0
O137 O 0.0098 0.63123 0.13096 0.0
O138 O -0.05261 0.57755 0.30856 0.0
Zn139 Zn 0.91343 0.5525 0.45022 0.0
O140 O 0.84438 0.50192 0.44077 0.0
Zn141 Zn 0.82464 0.43215 0.45088 0.0
Zn142 Zn 0.81739 0.51071 0.31184 0.0
Zn143 Zn 0.8267 0.50841 0.58934 0.0
O144 O 0.76411 0.38903 0.53989 0.0
O145 O 0.8009 0.44253 0.67403 0.0
O146 O 0.94224 0.51688 0.52385 0.0
O147 O 0.88138 0.43505 0.52541 0.0
O148 O 0.81582 0.3969 0.31065 0.0
O149 O 0.79334 0.44402 0.21361 0.0
O150 O 0.76229 0.52372 0.39351 0.0
O151 O 0.92873 0.61294 0.53788 0.0
O152 O 0.77357 0.52386 0.57624 0.0
O153 O 0.88552 0.5633 0.67351 0.0
C154 C 0.9283 0.58419 0.22278 0.0
C155 C 0.77246 0.39719 0.64079 0.0
C156 C 0.79947 0.40509 0.22259 0.0
C157 C 0.92601 0.4705 0.54713 0.0
C158 C 0.75058 0.5278 0.49409 0.0
C159 C 0.92231 0.60502 0.63927 0.0
O160 O 0.87981 0.56628 0.21567 0.0
O161 O 0.33278 -0.0341 0.64208 0.0
Zn162 Zn 0.32386 0.9319 0.78365 0.0
O163 O 0.30546 0.86286 0.77404 0.0
Zn164 Zn 0.35552 0.84315 0.78405 0.0
Zn165 Zn 0.26967 0.83586 0.64513 0.0
Zn166 Zn 0.28135 0.84518 0.92264 0.0
O167 O 0.33819 0.78263 0.87296 0.0
O168 O 0.32145 0.81939 0.00722 0.0
O169 O 0.3883 0.96075 0.85732 0.0
O170 O 0.40934 0.89994 0.85859 0.0
O171 O 0.38193 0.83434 0.64376 0.0
O172 O 0.31232 0.81184 0.54677 0.0
O173 O 0.20161 0.78071 0.72687 0.0
O174 O 0.27867 0.9471 0.8714 0.0
O175 O 0.2128 0.79201 0.9096 0.0
O176 O 0.28522 0.90397 0.00693 0.0
C177 C 0.30707 0.94681 0.55627 0.0
C178 C 0.33836 0.79096 0.97388 0.0
C179 C 0.35739 0.81799 0.55569 0.0
C180 C 0.41847 0.94455 0.88044 0.0
C181 C 0.18586 0.769 0.82747 0.0
C182 C 0.2802 0.9407 0.97277 0.0
O183 O 0.27651 0.89831 0.54909 0.0
O184 O 0.33029 0.35148 0.97527 0.0
Zn185 Zn 0.35537 0.34257 0.1168 0.0
O186 O 0.40596 0.32411 0.10714 0.0
Zn187 Zn 0.47572 0.37412 0.11714 0.0
Zn188 Zn 0.3971 0.28824 0.97825 0.0
Zn189 Zn 0.39955 0.30008 0.25576 0.0
O190 O 0.5189 0.35677 0.20593 0.0
O191 O 0.46545 0.34013 0.34026 0.0
O192 O 0.39099 0.40702 0.19053 0.0
O193 O 0.47281 0.42798 0.19179 0.0
O194 O 0.5109 0.40048 0.97684 0.0
O195 O 0.46379 0.33083 0.87985 0.0
O196 O 0.38406 0.22015 0.06014 0.0
O197 O 0.29498 0.2974 0.20456 0.0
O198 O 0.38402 0.23148 0.24285 0.0
O199 O 0.3447 0.30407 0.34007 0.0
C200 C 0.32363 0.32573 0.88945 0.0
C201 C 0.51077 0.35698 0.30687 0.0
C202 C 0.5027 0.37591 0.88877 0.0
C203 C 0.43737 0.43716 0.21369 0.0
C204 C 0.38 0.20445 0.16077 0.0
C205 C 0.30293 0.299 0.30592 0.0
O206 O 0.34153 0.29514 0.88223 0.0
O207 O 0.9421 0.34866 0.30849 0.0
Zn208 Zn -0.02391 0.37372 0.45006 0.0
O209 O 0.04513 0.42432 0.44042 0.0
Zn210 Zn 0.06489 0.4941 0.45057 0.0
Zn211 Zn 0.07216 0.4155 0.31149 0.0
Zn212 Zn 0.06272 0.41788 0.58902 0.0
O213 O 0.12543 0.53722 0.53941 0.0
O214 O 0.08852 0.48378 0.67363 0.0
O215 O -0.05272 0.40935 0.52397 0.0
O216 O 0.00815 0.4912 0.52538 0.0
O217 O 0.0737 0.52932 0.31035 0.0
O218 O 0.09619 0.48218 0.21319 0.0
O219 O 0.12732 0.40261 0.39338 0.0
O220 O -0.03916 0.3133 0.53765 0.0
O221 O 0.11587 0.40247 0.57609 0.0
O222 O 0.00391 0.36299 0.67325 0.0
C223 C -0.03881 0.34199 0.22264 0.0
C224 C 0.11705 0.5291 0.64033 0.0
C225 C 0.09004 0.52111 0.22221 0.0
C226 C -0.03646 0.45573 0.5473 0.0
C227 C 0.13896 0.39857 0.494 0.0
C228 C -0.0328 0.32122 0.63903 0.0
O229 O 0.00969 0.35989 0.21543 0.0
O230 O 0.5564 0.9607 0.64168 0.0
Zn231 Zn 0.56532 -0.0053 0.78329 0.0
O232 O 0.58374 0.06374 0.77373 0.0
Zn233 Zn 0.5337 0.08346 0.7839 0.0
Zn234 Zn 0.6196 0.09076 0.6448 0.0
Zn235 Zn 0.60779 0.08134 0.92232 0.0
O236 O 0.55107 0.144 0.87282 0.0
O237 O 0.56772 0.10719 0.00698 0.0
O238 O 0.5009 -0.03412 0.85723 0.0
O239 O 0.47987 0.02671 0.85861 0.0
O240 O 0.50731 0.09226 0.64369 0.0
O241 O 0.57697 0.11481 0.54656 0.0
O242 O 0.68769 0.1458 0.72666 0.0
O243 O 0.61049 -0.02055 0.87082 0.0
O244 O 0.67638 0.13442 0.90937 0.0
O245 O 0.6038 0.0225 1.00648 0.0
C246 C 0.58215 -0.0202 0.55583 0.0
C247 C 0.55085 0.13565 0.97373 0.0
C248 C 0.53188 0.10864 0.55558 0.0
C249 C 0.47076 -0.01788 0.88056 0.0
C250 C 0.7034 0.15743 0.82727 0.0
C251 C 0.6089 -0.01419 0.97222 0.0
O252 O 0.61273 0.02829 0.54866 0.0
O253 O 0.55917 0.57504 0.97505 0.0
Zn254 Zn 0.53415 0.58399 0.11673 0.0
O255 O 0.48358 0.60248 0.10731 0.0
Zn256 Zn 0.4138 0.55247 0.11757 0.0
Zn257 Zn 0.49236 0.63826 0.97835 0.0
Zn258 Zn 0.4901 0.62665 0.25586 0.0
O259 O 0.37074 0.56996 0.20661 0.0
O260 O 0.42423 0.5866 0.34065 0.0
O261 O 0.49851 0.51957 0.19054 0.0
O262 O 0.41668 0.49862 0.19224 0.0
O263 O 0.37852 0.52602 0.9774 0.0
O264 O 0.42566 0.59561 0.88023 0.0
O265 O 0.50532 0.70636 0.06003 0.0
O266 O 0.59461 0.62909 0.20425 0.0
O267 O 0.50554 0.69523 0.24276 0.0
O268 O 0.54499 0.62269 0.33996 0.0
C269 C 0.56581 0.60077 0.88923 0.0
C270 C 0.3789 0.56975 0.3075 0.0
C271 C 0.38672 0.55055 0.88929 0.0
C272 C 0.45214 0.48947 0.21398 0.0
C273 C 0.50942 0.72215 0.16061 0.0
C274 C 0.5867 0.62761 0.30565 0.0
O275 O 0.54792 0.63137 0.88212 0.0
loop_
_geom_bond_atom_site_label_1
_geom_bond_atom_site_label_2
_geom_bond_distance
_geom_bond_site_symmetry_2
_ccdc_geom_bond_type
O0 Zn1 1.954 1_565 S
O0 C16 1.214 1_565 S
Zn1 O0 1.954 1_545 S
Zn1 O2 1.949 . S
Zn1 O8 1.919 1_545 S
Zn1 O13 1.924 1_545 S
O2 Zn1 1.949 . S
O2 Zn3 1.923 . S
O2 Zn4 1.950 . S
O2 Zn5 1.945 . S
Zn3 O2 1.923 . S
Zn3 O6 1.933 . S
Zn3 O9 1.941 . S
Zn3 O10 1.965 . S
Zn4 O2 1.950 . S
Zn4 O11 1.938 . S
Zn4 O12 1.906 . S
Zn4 O22 1.953 . S
Zn5 O2 1.945 . S
Zn5 O7 1.932 . S
Zn5 O14 1.977 . S
Zn5 O15 1.910 . S
O6 Zn3 1.933 . S
O6 C17 1.226 . S
O7 Zn5 1.932 . S
O7 C17 1.307 . S
O8 Zn1 1.919 1_565 S
O8 C19 1.253 1_565 S
O9 Zn3 1.941 . S
O9 C19 1.286 . S
O10 Zn3 1.965 . S
O10 C18 1.303 . S
O11 Zn4 1.938 . S
O11 C18 1.247 . S
O12 Zn4 1.906 . S
O12 C20 1.304 . S
O13 Zn1 1.924 1_565 S
O13 C21 1.311 1_565 S
O14 Zn5 1.977 . S
O14 C20 1.272 . S
O15 Zn5 1.910 . S
O15 C21 1.231 . S
C16 O0 1.214 1_545 S
C16 O22 1.298 . S
C17 O6 1.226 . S
C17 O7 1.307 . S
C18 O10 1.303 . S
C18 O11 1.247 . S
C19 O8 1.253 1_545 S
C19 O9 1.286 . S
C20 O12 1.304 . S
C20 O14 1.272 . S
C21 O13 1.311 1_545 S
C21 O15 1.231 . S
O22 Zn4 1.953 . S
O22 C16 1.298 . S
O23 Zn24 1.953 . S
O23 C39 1.225 . S
Zn24 O23 1.953 . S
Zn24 O25 1.949 . S
Zn24 O31 1.919 . S
Zn24 O36 1.924 . S
O25 Zn24 1.949 . S
O25 Zn26 1.923 . S
O25 Zn27 1.950 . S
O25 Zn28 1.945 . S
Zn26 O25 1.923 . S
Zn26 O29 1.933 . S
Zn26 O32 1.941 . S
Zn26 O33 1.965 . S
Zn27 O25 1.950 . S
Zn27 O34 1.938 . S
Zn27 O35 1.906 . S
Zn27 O45 1.953 . S
Zn28 O25 1.945 . S
Zn28 O30 1.932 . S
Zn28 O37 1.977 . S
Zn28 O38 1.910 . S
O29 Zn26 1.933 . S
O29 C40 1.226 . S
O30 Zn28 1.932 . S
O30 C40 1.307 . S
O31 Zn24 1.919 . S
O31 C42 1.253 . S
O32 Zn26 1.941 . S
O32 C42 1.283 . S
O33 Zn26 1.965 . S
O33 C41 1.303 . S
O34 Zn27 1.938 . S
O34 C41 1.247 . S
O35 Zn27 1.906 . S
O35 C43 1.304 . S
O36 Zn24 1.924 . S
O36 C44 1.311 . S
O37 Zn28 1.977 . S
O37 C43 1.272 . S
O38 Zn28 1.910 . S
O38 C44 1.231 . S
C39 O23 1.225 . S
C39 O45 1.298 . S
C40 O29 1.226 . S
C40 O30 1.307 . S
C41 O33 1.303 . S
C41 O34 1.247 . S
C42 O31 1.253 . S
C42 O32 1.283 . S
C43 O35 1.304 . S
C43 O37 1.272 . S
C44 O36 1.311 . S
C44 O38 1.231 . S
O45 Zn27 1.953 . S
O45 C39 1.298 . S
O46 Zn47 1.947 1_454 S
O46 C62 1.222 1_455 S
Zn47 O46 1.947 1_656 S
Zn47 O48 1.949 . S
Zn47 O54 1.919 1_655 S
Zn47 O59 1.924 1_655 S
O48 Zn47 1.949 . S
O48 Zn49 1.923 . S
O48 Zn50 1.950 1_556 S
O48 Zn51 1.945 . S
Zn49 O48 1.923 . S
Zn49 O52 1.933 . S
Zn49 O55 1.941 . S
Zn49 O56 1.965 1_556 S
Zn50 O48 1.950 1_554 S
Zn50 O57 1.938 . S
Zn50 O58 1.906 1_554 S
Zn50 O68 1.953 . S
Zn51 O48 1.945 . S
Zn51 O53 1.932 . S
Zn51 O60 1.977 . S
Zn51 O61 1.910 . S
O52 Zn49 1.933 . S
O52 C63 1.226 . S
O53 Zn51 1.932 . S
O53 C63 1.307 . S
O54 Zn47 1.919 1_455 S
O54 C65 1.250 1_455 S
O55 Zn49 1.941 . S
O55 C65 1.287 . S
O56 Zn49 1.965 1_554 S
O56 C64 1.303 . S
O57 Zn50 1.938 . S
O57 C64 1.247 . S
O58 Zn50 1.906 1_556 S
O58 C66 1.304 . S
O59 Zn47 1.924 1_455 S
O59 C67 1.311 1_455 S
O60 Zn51 1.977 . S
O60 C66 1.272 . S
O61 Zn51 1.910 . S
O61 C67 1.231 . S
C62 O46 1.222 1_655 S
C62 O68 1.298 . S
C63 O52 1.226 . S
C63 O53 1.307 . S
C64 O56 1.303 . S
C64 O57 1.247 . S
C65 O54 1.250 1_655 S
C65 O55 1.287 . S
C66 O58 1.304 . S
C66 O60 1.272 . S
C67 O59 1.311 1_655 S
C67 O61 1.231 . S
O68 Zn50 1.953 . S
O68 C62 1.298 . S
O69 Zn70 1.954 1_545 S
O69 C85 1.214 1_545 S
Zn70 O69 1.954 1_565 S
Zn70 O71 1.949 . S
Zn70 O77 1.919 1_565 S
Zn70 O82 1.924 1_565 S
O71 Zn70 1.949 . S
O71 Zn72 1.923 . S
O71 Zn73 1.950 . S
O71 Zn74 1.945 . S
Zn72 O71 1.923 . S
Zn72 O75 1.933 . S
Zn72 O78 1.941 . S
Zn72 O79 1.965 . S
Zn73 O71 1.950 . S
Zn73 O80 1.938 . S
Zn73 O81 1.906 . S
Zn73 O91 1.953 . S
Zn74 O71 1.945 . S
Zn74 O76 1.932 . S
Zn74 O83 1.977 . S
Zn74 O84 1.910 . S
O75 Zn72 1.933 . S
O75 C86 1.226 . S
O76 Zn74 1.932 . S
O76 C86 1.307 . S
O77 Zn70 1.919 1_545 S
O77 C88 1.253 1_545 S
O78 Zn72 1.941 . S
O78 C88 1.286 . S
O79 Zn72 1.965 . S
O79 C87 1.303 . S
O80 Zn73 1.938 . S
O80 C87 1.247 . S
O81 Zn73 1.906 . S
O81 C89 1.304 . S
O82 Zn70 1.924 1_545 S
O82 C90 1.311 1_545 S
O83 Zn74 1.977 . S
O83 C89 1.272 . S
O84 Zn74 1.910 . S
O84 C90 1.231 . S
C85 O69 1.214 1_565 S
C85 O91 1.298 . S
C86 O75 1.226 . S
C86 O76 1.307 . S
C87 O79 1.303 . S
C87 O80 1.247 . S
C88 O77 1.253 1_565 S
C88 O78 1.286 . S
C89 O81 1.304 . S
C89 O83 1.272 . S
C90 O82 1.311 1_565 S
C90 O84 1.231 . S
O91 Zn73 1.953 . S
O91 C85 1.298 . S
O92 Zn93 1.953 . S
O92 C108 1.225 . S
Zn93 O92 1.953 . S
Zn93 O94 1.949 . S
Zn93 O100 1.919 . S
Zn93 O105 1.924 . S
O94 Zn93 1.949 . S
O94 Zn95 1.923 . S
O94 Zn96 1.950 . S
O94 Zn97 1.945 . S
Zn95 O94 1.923 . S
Zn95 O98 1.933 . S
Zn95 O101 1.941 . S
Zn95 O102 1.965 . S
Zn96 O94 1.950 . S
Zn96 O103 1.938 . S
Zn96 O104 1.906 . S
Zn96 O114 1.953 . S
Zn97 O94 1.945 . S
Zn97 O99 1.932 . S
Zn97 O106 1.977 . S
Zn97 O107 1.910 . S
O98 Zn95 1.933 . S
O98 C109 1.226 . S
O99 Zn97 1.932 . S
O99 C109 1.307 . S
O100 Zn93 1.919 . S
O100 C111 1.253 . S
O101 Zn95 1.941 . S
O101 C111 1.283 . S
O102 Zn95 1.965 . S
O102 C110 1.303 . S
O103 Zn96 1.938 . S
O103 C110 1.247 . S
O104 Zn96 1.906 . S
O104 C112 1.304 . S
O105 Zn93 1.924 . S
O105 C113 1.311 . S
O106 Zn97 1.977 . S
O106 C112 1.272 . S
O107 Zn97 1.910 . S
O107 C113 1.231 . S
C108 O92 1.225 . S
C108 O114 1.298 . S
C109 O98 1.226 . S
C109 O99 1.307 . S
C110 O102 1.303 . S
C110 O103 1.247 . S
C111 O100 1.253 . S
C111 O101 1.283 . S
C112 O104 1.304 . S
C112 O106 1.272 . S
C113 O105 1.311 . S
C113 O107 1.231 . S
O114 Zn96 1.953 . S
O114 C108 1.298 . S
O115 Zn116 1.947 1_654 S
O115 C131 1.222 1_655 S
Zn116 O115 1.947 1_456 S
Zn116 O117 1.949 . S
Zn116 O123 1.919 1_455 S
Zn116 O128 1.924 1_455 S
O117 Zn116 1.949 . S
O117 Zn118 1.923 . S
O117 Zn119 1.950 1_556 S
O117 Zn120 1.945 . S
Zn118 O117 1.923 . S
Zn118 O121 1.933 . S
Zn118 O124 1.941 . S
Zn118 O125 1.965 1_556 S
Zn119 O117 1.950 1_554 S
Zn119 O126 1.938 . S
Zn119 O127 1.906 1_554 S
Zn119 O137 1.953 . S
Zn120 O117 1.945 . S
Zn120 O122 1.932 . S
Zn120 O129 1.977 . S
Zn120 O130 1.910 . S
O121 Zn118 1.933 . S
O121 C132 1.226 . S
O122 Zn120 1.932 . S
O122 C132 1.307 . S
O123 Zn116 1.919 1_655 S
O123 C134 1.250 1_655 S
O124 Zn118 1.941 . S
O124 C134 1.287 . S
O125 Zn118 1.965 1_554 S
O125 C133 1.303 . S
O126 Zn119 1.938 . S
O126 C133 1.247 . S
O127 Zn119 1.906 1_556 S
O127 C135 1.304 . S
O128 Zn116 1.924 1_655 S
O128 C136 1.311 1_655 S
O129 Zn120 1.977 . S
O129 C135 1.272 . S
O130 Zn120 1.910 . S
O130 C136 1.231 . S
C131 O115 1.222 1_455 S
C131 O137 1.298 . S
C132 O121 1.226 . S
C132 O122 1.307 . S
C133 O125 1.303 . S
C133 O126 1.247 . S
C134 O123 1.250 1_455 S
C134 O124 1.287 . S
C135 O127 1.304 . S
C135 O129 1.272 . S
C136 O128 1.311 1_455 S
C136 O130 1.231 . S
O137 Zn119 1.953 . S
O137 C131 1.298 . S
O138 Zn139 1.954 1_455 S
O138 C154 1.214 1_455 S
Zn139 O138 1.954 1_655 S
Zn139 O140 1.949 . S
Zn139 O146 1.919 1_655 S
Zn139 O151 1.924 1_655 S
O140 Zn139 1.949 . S
O140 Zn141 1.923 . S
O140 Zn142 1.950 . S
O140 Zn143 1.945 . S
Zn141 O140 1.923 . S
Zn141 O144 1.933 . S
Zn141 O147 1.941 . S
Zn141 O148 1.965 . S
Zn142 O140 1.950 . S
Zn142 O149 1.938 . S
Zn142 O150 1.906 . S
Zn142 O160 1.953 . S
Zn143 O140 1.945 . S
Zn143 O145 1.932 . S
Zn143 O152 1.977 . S
Zn143 O153 1.910 . S
O144 Zn141 1.933 . S
O144 C155 1.226 . S
O145 Zn143 1.932 . S
O145 C155 1.307 . S
O146 Zn139 1.919 1_455 S
O146 C157 1.253 1_455 S
O147 Zn141 1.941 . S
O147 C157 1.286 . S
O148 Zn141 1.965 . S
O148 C156 1.303 . S
O149 Zn142 1.938 . S
O149 C156 1.247 . S
O150 Zn142 1.906 . S
O150 C158 1.304 . S
O151 Zn139 1.924 1_455 S
O151 C159 1.311 1_455 S
O152 Zn143 1.977 . S
O152 C158 1.272 . S
O153 Zn143 1.910 . S
O153 C159 1.231 . S
C154 O138 1.214 1_655 S
C154 O160 1.298 . S
C155 O144 1.226 . S
C155 O145 1.307 . S
C156 O148 1.303 . S
C156 O149 1.247 . S
C157 O146 1.253 1_655 S
C157 O147 1.286 . S
C158 O150 1.304 . S
C158 O152 1.272 . S
C159 O151 1.311 1_655 S
C159 O153 1.231 . S
O160 Zn142 1.953 . S
O160 C154 1.298 . S
O161 Zn162 1.947 1_545 S
O161 C177 1.222 1_545 S
Zn162 O161 1.947 1_565 S
Zn162 O163 1.949 . S
Zn162 O169 1.919 1_565 S
Zn162 O174 1.924 1_565 S
O163 Zn162 1.949 . S
O163 Zn164 1.923 . S
O163 Zn165 1.950 . S
O163 Zn166 1.945 . S
Zn164 O163 1.923 . S
Zn164 O167 1.933 . S
Zn164 O170 1.941 . S
Zn164 O171 1.965 . S
Zn165 O163 1.950 . S
Zn165 O172 1.938 . S
Zn165 O173 1.906 . S
Zn165 O183 1.953 . S
Zn166 O163 1.945 . S
Zn166 O168 1.932 . S
Zn166 O175 1.977 . S
Zn166 O176 1.910 . S
O167 Zn164 1.933 . S
O167 C178 1.226 . S
O168 Zn166 1.932 . S
O168 C178 1.307 . S
O169 Zn162 1.919 1_545 S
O169 C180 1.250 1_545 S
O170 Zn164 1.941 . S
O170 C180 1.287 . S
O171 Zn164 1.965 . S
O171 C179 1.303 . S
O172 Zn165 1.938 . S
O172 C179 1.247 . S
O173 Zn165 1.906 . S
O173 C181 1.304 . S
O174 Zn162 1.924 1_545 S
O174 C182 1.311 1_545 S
O175 Zn166 1.977 . S
O175 C181 1.272 . S
O176 Zn166 1.910 . S
O176 C182 1.231 . S
C177 O161 1.222 1_565 S
C177 O183 1.298 . S
C178 O167 1.226 . S
C178 O168 1.307 . S
C179 O171 1.303 . S
C179 O172 1.247 . S
C180 O169 1.250 1_565 S
C180 O170 1.287 . S
C181 O173 1.304 . S
C181 O175 1.272 . S
C182 O174 1.311 1_565 S
C182 O176 1.231 . S
O183 Zn165 1.953 . S
O183 C177 1.298 . S
O184 Zn185 1.953 1_556 S
O184 C200 1.225 . S
Zn185 O184 1.953 1_554 S
Zn185 O186 1.949 . S
Zn185 O192 1.919 . S
Zn185 O197 1.924 . S
O186 Zn185 1.949 . S
O186 Zn187 1.923 . S
O186 Zn188 1.950 1_554 S
O186 Zn189 1.945 . S
Zn187 O186 1.923 . S
Zn187 O190 1.933 . S
Zn187 O193 1.941 . S
Zn187 O194 1.965 1_554 S
Zn188 O186 1.950 1_556 S
Zn188 O195 1.938 . S
Zn188 O196 1.906 1_556 S
Zn188 O206 1.953 . S
Zn189 O186 1.945 . S
Zn189 O191 1.932 . S
Zn189 O198 1.977 . S
Zn189 O199 1.910 . S
O190 Zn187 1.933 . S
O190 C201 1.226 . S
O191 Zn189 1.932 . S
O191 C201 1.307 . S
O192 Zn185 1.919 . S
O192 C203 1.253 . S
O193 Zn187 1.941 . S
O193 C203 1.283 . S
O194 Zn187 1.965 1_556 S
O194 C202 1.303 . S
O195 Zn188 1.938 . S
O195 C202 1.247 . S
O196 Zn188 1.906 1_554 S
O196 C204 1.304 . S
O197 Zn185 1.924 . S
O197 C205 1.311 . S
O198 Zn189 1.977 . S
O198 C204 1.272 . S
O199 Zn189 1.910 . S
O199 C205 1.231 . S
C200 O184 1.225 . S
C200 O206 1.298 . S
C201 O190 1.226 . S
C201 O191 1.307 . S
C202 O194 1.303 . S
C202 O195 1.247 . S
C203 O192 1.253 . S
C203 O193 1.283 . S
C204 O196 1.304 . S
C204 O198 1.272 . S
C205 O197 1.311 . S
C205 O199 1.231 . S
O206 Zn188 1.953 . S
O206 C200 1.298 . S
O207 Zn208 1.954 1_655 S
O207 C223 1.214 1_655 S
Zn208 O207 1.954 1_455 S
Zn208 O209 1.949 . S
Zn208 O215 1.919 1_455 S
Zn208 O220 1.924 1_455 S
O209 Zn208 1.949 . S
O209 Zn210 1.923 . S
O209 Zn211 1.950 . S
O209 Zn212 1.945 . S
Zn210 O209 1.923 . S
Zn210 O213 1.933 . S
Zn210 O216 1.941 . S
Zn210 O217 1.965 . S
Zn211 O209 1.950 . S
Zn211 O218 1.938 . S
Zn211 O219 1.906 . S
Zn211 O229 1.953 . S
Zn212 O209 1.945 . S
Zn212 O214 1.932 . S
Zn212 O221 1.977 . S
Zn212 O222 1.910 . S
O213 Zn210 1.933 . S
O213 C224 1.226 . S
O214 Zn212 1.932 . S
O214 C224 1.307 . S
O215 Zn208 1.919 1_655 S
O215 C226 1.253 1_655 S
O216 Zn210 1.941 . S
O216 C226 1.286 . S
O217 Zn210 1.965 . S
O217 C225 1.303 . S
O218 Zn211 1.938 . S
O218 C225 1.247 . S
O219 Zn211 1.906 . S
O219 C227 1.304 . S
O220 Zn208 1.924 1_655 S
O220 C228 1.311 1_655 S
O221 Zn212 1.977 . S
O221 C227 1.272 . S
O222 Zn212 1.910 . S
O222 C228 1.231 . S
C223 O207 1.214 1_455 S
C223 O229 1.298 . S
C224 O213 1.226 . S
C224 O214 1.307 . S
C225 O217 1.303 . S
C225 O218 1.247 . S
C226 O215 1.253 1_455 S
C226 O216 1.286 . S
C227 O219 1.304 . S
C227 O221 1.272 . S
C228 O220 1.311 1_455 S
C228 O222 1.231 . S
O229 Zn211 1.953 . S
O229 C223 1.298 . S
O230 Zn231 1.947 1_565 S
O230 C246 1.222 1_565 S
Zn231 O230 1.947 1_545 S
Zn231 O232 1.949 . S
Zn231 O238 1.919 1_545 S
Zn231 O243 1.924 1_545 S
O232 Zn231 1.949 . S
O232 Zn233 1.923 . S
O232 Zn234 1.950 . S
O232 Zn235 1.945 . S
Zn233 O232 1.923 . S
Zn233 O236 1.933 . S
Zn233 O239 1.941 . S
Zn233 O240 1.965 . S
Zn234 O232 1.950 . S
Zn234 O241 1.938 . S
Zn234 O242 1.906 . S
Zn234 O252 1.953 . S
Zn235 O232 1.945 . S
Zn235 O237 1.932 . S
Zn235 O244 1.977 . S
Zn235 O245 1.910 . S
O236 Zn233 1.933 . S
O236 C247 1.226 . S
O237 Zn235 1.932 . S
O237 C247 1.307 . S
O238 Zn231 1.919 1_565 S
O238 C249 1.250 1_565 S
O239 Zn233 1.941 . S
O239 C249 1.287 . S
O240 Zn233 1.965 . S
O240 C248 1.303 . S
O241 Zn234 1.938 . S
O241 C248 1.247 . S
O242 Zn234 1.906 . S
O242 C250 1.304 . S
O243 Zn231 1.924 1_565 S
O243 C251 1.311 1_565 S
O244 Zn235 1.977 . S
O244 C250 1.272 . S
O245 Zn235 1.910 . S
O245 C251 1.231 . S
C246 O230 1.222 1_545 S
C246 O252 1.298 . S
C247 O236 1.226 . S
C247 O237 1.307 . S
C248 O240 1.303 . S
C248 O241 1.247 . S
C249 O238 1.250 1_545 S
C249 O239 1.287 . S
C250 O242 1.304 . S
C250 O244 1.272 . S
C251 O243 1.311 1_545 S
C251 O245 1.231 . S
O252 Zn234 1.953 . S
O252 C246 1.298 . S
O253 Zn254 1.953 1_556 S
O253 C269 1.225 . S
Zn254 O253 1.953 1_554 S
Zn254 O255 1.949 . S
Zn254 O261 1.919 . S
Zn254 O266 1.924 . S
O255 Zn254 1.949 . S
O255 Zn256 1.923 . S
O255 Zn257 1.950 1_554 S
O255 Zn258 1.945 . S
Zn256 O255 1.923 . S
Zn256 O259 1.933 . S
Zn256 O262 1.941 . S
Zn256 O263 1.965 1_554 S
Zn257 O255 1.950 1_556 S
Zn257 O264 1.938 . S
Zn257 O265 1.906 1_556 S
Zn257 O275 1.953 . S
Zn258 O255 1.945 . S
Zn258 O260 1.932 . S
Zn258 O267 1.977 . S
Zn258 O268 1.910 . S
O259 Zn256 1.933 . S
O259 C270 1.226 . S
O260 Zn258 1.932 . S
O260 C270 1.307 . S
O261 Zn254 1.919 . S
O261 C272 1.253 . S
O262 Zn256 1.941 . S
O262 C272 1.283 . S
O263 Zn256 1.965 1_556 S
O263 C271 1.303 . S
O264 Zn257 1.938 . S
O264 C271 1.247 . S
O265 Zn257 1.906 1_554 S
O265 C273 1.304 . S
O266 Zn254 1.924 . S
O266 C274 1.311 . S
O267 Zn258 1.977 . S
O267 C273 1.272 . S
O268 Zn258 1.910 . S
O268 C274 1.231 . S
C269 O253 1.225 . S
C269 O275 1.298 . S
C270 O259 1.226 . S
C270 O260 1.307 . S
C271 O263 1.303 . S
C271 O264 1.247 . S
C272 O261 1.253 . S
C272 O262 1.283 . S
C273 O265 1.304 . S
C273 O267 1.272 . S
C274 O266 1.311 . S
C274 O268 1.231 . S
O275 Zn257 1.953 . S
O275 C269 1.298 . S
C20 C204 0.967 . S
C43 C227 0.967 . S
C66 C250 0.967 . S
C273 C89 0.967 . S
C112 C158 0.967 . S
C181 C135 0.967 . S
C247 C17 1.307 1_556 S
C270 C40 1.307 . S
C63 C155 1.307 . S
C178 C86 1.307 1_556 S
C201 C109 1.307 . S
C132 C224 1.307 . S
C182 C21 1.848 1_566 S
C205 C44 1.848 . S
C228 C67 1.848 1_455 S
C90 C251 1.848 1_564 S
C113 C274 1.848 . S
C136 C159 1.848 1_455 S
C19 C88 0.288 1_545 S
C42 C111 0.284 . S
C65 C134 0.280 1_655 S
C226 C157 0.288 1_455 S
C180 C249 0.280 1_565 S
C272 C203 0.284 . S
C177 C16 1.943 1_565 S
C200 C39 1.943 . S
C62 C223 1.943 1_655 S
C246 C85 1.943 1_545 S
C269 C108 1.943 . S
C131 C154 1.943 1_455 S
C18 C248 2.265 . S
C41 C271 2.265 . S
C64 C156 2.265 . S
C87 C179 2.265 . S
C110 C202 2.265 . S
C225 C133 2.265 . S
