# Generated by pormake.
# Topology snz, (6)-cn, num edge types: 1
# Building blocks:
#     Node 0, Type 0, BuildingBlock: UKALOJ_clean_sbu_0, # of connection points: 6
#     Node 1, Type 0, BuildingBlock: UKALOJ_clean_sbu_0, # of connection points: 6
#     Node 2, Type 0, BuildingBlock: UKALOJ_clean_sbu_0, # of connection points: 6
#     Node 3, Type 0, BuildingBlock: UKALOJ_clean_sbu_0, # of connection points: 6
#     Node 4, Type 0, BuildingBlock: UKALOJ_clean_sbu_0, # of connection points: 6
#     Node 5, Type 0, BuildingBlock: UKALOJ_clean_sbu_0, # of connection points: 6
#     Node 6, Type 0, BuildingBlock: UKALOJ_clean_sbu_0, # of connection points: 6
#     Node 7, Type 0, BuildingBlock: UKALOJ_clean_sbu_0, # of connection points: 6
#     Node 8, Type 0, BuildingBlock: UKALOJ_clean_sbu_0, # of connection points: 6
#     Edge 9, Type (0, 0), BuildingBlock: KIFKEQ_clean_linker_1, # of connection points: 2
#     Edge 10, Type (0, 0), BuildingBlock: KIFKEQ_clean_linker_1, # of connection points: 2
#     Edge 11, Type (0, 0), BuildingBlock: KIFKEQ_clean_linker_1, # of connection points: 2
#     Edge 12, Type (0, 0), BuildingBlock: KIFKEQ_clean_linker_1, # of connection points: 2
#     Edge 13, Type (0, 0), BuildingBlock: KIFKEQ_clean_linker_1, # of connection points: 2
#     Edge 14, Type (0, 0), BuildingBlock: KIFKEQ_clean_linker_1, # of connection points: 2
#     Edge 15, Type (0, 0), BuildingBlock: KIFKEQ_clean_linker_1, # of connection points: 2
#     Edge 16, Type (0, 0), BuildingBlock: KIFKEQ_clean_linker_1, # of connection points: 2
#     Edge 17, Type (0, 0), BuildingBlock: KIFKEQ_clean_linker_1, # of connection points: 2
#     Edge 18, Type (0, 0), BuildingBlock: KIFKEQ_clean_linker_1, # of connection points: 2
#     Edge 19, Type (0, 0), BuildingBlock: KIFKEQ_clean_linker_1, # of connection points: 2
#     Edge 20, Type (0, 0), BuildingBlock: KIFKEQ_clean_linker_1, # of connection points: 2
#     Edge 21, Type (0, 0), BuildingBlock: KIFKEQ_clean_linker_1, # of connection points: 2
#     Edge 22, Type (0, 0), BuildingBlock: KIFKEQ_clean_linker_1, # of connection points: 2
#     Edge 23, Type (0, 0), BuildingBlock: KIFKEQ_clean_linker_1, # of connection points: 2
#     Edge 24, Type (0, 0), BuildingBlock: KIFKEQ_clean_linker_1, # of connection points: 2
#     Edge 25, Type (0, 0), BuildingBlock: KIFKEQ_clean_linker_1, # of connection points: 2
#     Edge 26, Type (0, 0), BuildingBlock: KIFKEQ_clean_linker_1, # of connection points: 2
#     Edge 27, Type (0, 0), BuildingBlock: KIFKEQ_clean_linker_1, # of connection points: 2
#     Edge 28, Type (0, 0), BuildingBlock: KIFKEQ_clean_linker_1, # of connection points: 2
#     Edge 29, Type (0, 0), BuildingBlock: KIFKEQ_clean_linker_1, # of connection points: 2
#     Edge 30, Type (0, 0), BuildingBlock: KIFKEQ_clean_linker_1, # of connection points: 2
#     Edge 31, Type (0, 0), BuildingBlock: KIFKEQ_clean_linker_1, # of connection points: 2
#     Edge 32, Type (0, 0), BuildingBlock: KIFKEQ_clean_linker_1, # of connection points: 2
#     Edge 33, Type (0, 0), BuildingBlock: KIFKEQ_clean_linker_1, # of connection points: 2
#     Edge 34, Type (0, 0), BuildingBlock: KIFKEQ_clean_linker_1, # of connection points: 2
#     Edge 35, Type (0, 0), BuildingBlock: KIFKEQ_clean_linker_1, # of connection points: 2
# Relax obj value: 0.468
# Max RMSD: 0.298
# Mean RMSD: 0.257
data_MOF--net-snz--node1-UKALOJ_clean_sbu_0--edge1-KIFKEQ_clean_linker_1
_symmetry_space_group_name_H-M    P1
_symmetry_Int_Tables_number       1
_symmetry_cell_setting            triclinic
loop_
_symmetry_equiv_pos_as_xyz
'x, y, z'
_cell_length_a     51.242325
_cell_length_b     56.270234
_cell_length_c     15.727784
_cell_angle_alpha  90.17942
_cell_angle_beta   90.741151
_cell_angle_gamma 120.64557
loop_
_atom_site_label
_atom_site_type_symbol
_atom_site_fract_x
_atom_site_fract_y
_atom_site_fract_z
_atom_type_partial_charge
Zn0 Zn 0.98799 0.46901 0.13811 0.0
O1 O 0.95955 0.43057 0.07747 0.0
C2 C 0.03614 0.45545 0.17779 0.0
Zn3 Zn 0.0216 0.48118 0.0346 0.0
C4 C 0.96723 0.42463 1.00789 0.0
O5 O -0.00732 0.44176 0.97672 0.0
C6 C 0.04224 0.52605 0.16137 0.0
O7 O -0.00261 0.49698 0.96749 0.0
O8 O 0.96444 0.48481 0.07058 0.0
N9 N 0.05189 0.48926 0.93976 0.0
C10 C 0.04521 0.48368 0.85661 0.0
C11 C 0.08264 0.47833 0.88352 0.0
N12 N 0.07579 0.4867 0.95586 0.0
N13 N 0.06366 0.47618 0.82014 0.0
C14 C 0.94864 0.43397 0.28145 0.0
C15 C 0.95673 0.46461 0.37341 0.0
N16 N 0.95966 0.45806 0.23993 0.0
N17 N 0.96386 0.47701 0.29715 0.0
N18 N 0.9478 0.43758 0.36594 0.0
H19 H 0.92109 0.4032 0.18923 0.0
H20 H 0.92681 0.38945 0.28589 0.0
H21 H 0.95725 0.40591 0.21085 0.0
C22 C 0.93795 0.40649 0.23963 0.0
C23 C 0.01848 0.48263 0.81251 0.0
H24 H -0.003 0.46701 0.84166 0.0
H25 H 0.01749 0.47784 0.7437 0.0
H26 H 0.02064 0.50315 0.8192 0.0
O27 O 0.05 0.52025 0.09139 0.0
O28 O 0.0173 0.50842 0.1947 0.0
C29 C 0.97349 0.49525 0.9975 0.0
O30 O 0.01221 0.4536 0.20681 0.0
O31 O 0.04486 0.46546 0.10463 0.0
Zn32 Zn 0.53791 0.52073 0.10427 0.0
O33 O 0.50318 0.51304 0.19437 0.0
C34 C 0.50163 0.46535 0.02882 0.0
Zn35 Zn 0.50893 0.52114 0.99965 0.0
C36 C 0.47818 0.50991 0.16657 0.0
O37 O 0.47488 0.51214 0.08749 0.0
C38 C 0.56836 0.53124 0.93663 0.0
O39 O 0.5251 0.56344 1.01702 0.0
O40 O 0.55533 0.56392 0.11812 0.0
N41 N 0.47935 0.51745 0.90621 0.0
C42 C 0.48637 0.52726 0.82715 0.0
C43 C 0.4445 0.48945 0.81896 0.0
N44 N 0.45253 0.49451 0.90172 0.0
N45 N 0.46599 0.50918 0.76985 0.0
C46 C 0.5617 0.50785 0.26742 0.0
C47 C 0.60815 0.53959 0.27164 0.0
N48 N 0.56704 0.52262 0.19626 0.0
N49 N 0.59612 0.54195 0.19772 0.0
N50 N 0.58708 0.51817 0.31678 0.0
H51 H 0.514 0.47814 0.24063 0.0
H52 H 0.52264 0.49261 0.34659 0.0
H53 H 0.53186 0.46704 0.31509 0.0
C54 C 0.53075 0.48521 0.29329 0.0
C55 C 0.51562 0.55259 0.80369 0.0
H56 H 0.52798 0.56535 0.86011 0.0
H57 H 0.51069 0.56514 0.75928 0.0
H58 H 0.53017 0.54659 0.7695 0.0
O59 O 0.54406 0.52983 0.91012 0.0
O60 O 0.57147 0.52831 1.01534 0.0
C61 C 0.54559 0.57667 0.07322 0.0
O62 O 0.52072 0.4779 0.08855 0.0
O63 O 0.49297 0.47858 0.98273 0.0
Zn64 Zn 0.47725 0.01987 0.05081 0.0
O65 O 0.45664 0.04384 0.03197 0.0
C66 C 0.41986 0.97185 0.11497 0.0
Zn67 Zn 0.44958 0.99078 0.94748 0.0
C68 C 0.4361 0.0362 0.97467 0.0
O69 O 0.42861 0.01456 0.93078 0.0
C70 C 0.49022 0.97398 0.02371 0.0
O71 O 0.48363 0.01674 0.85737 0.0
O72 O 0.51022 0.04436 0.96286 0.0
N73 N 0.4221 0.96395 0.85561 0.0
C74 C 0.42903 0.95524 0.78453 0.0
C75 C 0.38165 0.94024 0.7791 0.0
N76 N 0.39248 0.95402 0.85343 0.0
N77 N 0.4041 0.94054 0.73427 0.0
C78 C 0.49755 0.04795 0.22283 0.0
C79 C 0.54139 0.05305 0.23143 0.0
N80 N 0.50543 0.04553 0.14384 0.0
N81 N 0.53337 0.05002 0.14859 0.0
N82 N 0.51875 0.0507 0.28033 0.0
H83 H 0.45391 0.04325 0.18929 0.0
H84 H 0.4702 0.06025 0.28985 0.0
H85 H 0.45405 0.02384 0.28064 0.0
C86 C 0.46703 0.04346 0.24595 0.0
C87 C 0.46085 0.96373 0.75976 0.0
H88 H 0.47715 0.9729 0.81332 0.0
H89 H 0.46811 0.97885 0.70733 0.0
H90 H 0.46174 0.94549 0.73715 0.0
O91 O 0.47014 0.96703 0.96579 0.0
O92 O 0.49779 -0.00456 0.06837 0.0
C93 C 0.50739 0.03843 0.88419 0.0
O94 O 0.44322 -0.00599 0.14092 0.0
O95 O 0.41683 0.96593 0.03625 0.0
Zn96 Zn 0.69622 0.84093 0.1536 0.0
O97 O 0.72124 0.88421 0.16926 0.0
C98 C 0.67111 0.83518 0.32901 0.0
Zn99 Zn 0.65163 0.83868 0.15123 0.0
C100 C 0.70589 0.89606 0.1764 0.0
O101 O 0.6772 0.88189 0.16868 0.0
C102 C 0.64179 0.78314 0.13467 0.0
O103 O 0.65449 0.8425 1.01538 0.0
O104 O 0.69825 0.84423 1.01821 0.0
N105 N 0.61277 0.84047 0.15172 0.0
C106 C 0.60607 0.85786 0.11149 0.0
C107 C 0.57041 0.83453 0.19807 0.0
N108 N 0.59055 0.82592 0.20528 0.0
N109 N 0.57972 0.85461 0.13979 0.0
C110 C 0.75799 0.84849 0.21206 0.0
C111 C 0.76008 0.8183 0.13561 0.0
N112 N 0.7346 0.83855 0.1559 0.0
N113 N 0.73626 0.82011 0.10747 0.0
N114 N 0.7741 0.83578 0.20168 0.0
H115 H 0.77052 0.89046 0.23373 0.0
H116 H 0.78814 0.87832 0.30686 0.0
H117 H 0.74854 0.86761 0.31677 0.0
C118 C 0.7668 0.87242 0.27139 0.0
C119 C 0.62363 0.87584 0.03853 0.0
H120 H 0.64833 0.88636 0.05109 0.0
H121 H 0.61725 0.8914 0.02309 0.0
H122 H 0.61845 0.86248 0.98149 0.0
O123 O 0.62653 0.79522 0.13666 0.0
O124 O 0.67055 0.79745 0.14049 0.0
C125 C 0.67679 0.84399 0.97578 0.0
O126 O 0.69346 0.83718 0.2886 0.0
O127 O 0.64938 0.83464 0.28722 0.0
Zn128 Zn 0.16785 0.83295 0.43888 0.0
O129 O 0.12041 0.80871 0.44735 0.0
C130 C 0.17402 0.81432 0.615 0.0
Zn131 Zn 0.17153 0.79521 0.43744 0.0
C132 C 0.1074 0.78262 0.45147 0.0
O133 O 0.12327 0.77119 0.44689 0.0
C134 C 0.23201 0.84625 0.42523 0.0
O135 O 0.16911 0.7961 0.30215 0.0
O136 O 0.16405 0.83252 0.30231 0.0
N137 N 0.17351 0.75976 0.43071 0.0
C138 C 0.15411 0.73524 0.39343 0.0
C139 C 0.18888 0.73101 0.4545 0.0
N140 N 0.19519 0.75714 0.46838 0.0
N141 N 0.16305 0.71686 0.40821 0.0
C142 C 0.15431 0.87705 0.50803 0.0
C143 C 0.17709 0.90993 0.42051 0.0
N144 N 0.16581 0.86823 0.44712 0.0
N145 N 0.17975 0.88861 0.39246 0.0
N146 N 0.16138 0.90329 0.4933 0.0
H147 H 0.12253 0.83752 0.56274 0.0
H148 H 0.11878 0.86597 0.59898 0.0
H149 H 0.14992 0.86221 0.6355 0.0
C150 C 0.13517 0.85964 0.57995 0.0
C151 C 0.12714 0.72941 0.33909 0.0
H152 H 0.10643 0.71872 0.37769 0.0
H153 H 0.12449 0.71555 0.28514 0.0
H154 H 0.12895 0.74846 0.31385 0.0
O155 O 0.21973 0.82009 0.42867 0.0
O156 O 0.21542 0.85697 0.42969 0.0
C157 C 0.16611 0.81403 0.26109 0.0
O158 O 0.17221 0.83293 0.57441 0.0
O159 O 0.17443 0.79508 0.57339 0.0
Zn160 Zn 0.14396 0.32632 0.51015 0.0
O161 O 0.15631 0.29663 0.52872 0.0
C162 C 0.16483 0.34693 0.68741 0.0
Zn163 Zn 0.19177 0.36144 0.51167 0.0
C164 C 0.18438 0.30505 0.53683 0.0
O165 O 0.20368 0.33064 0.52903 0.0
C166 C 0.15014 0.38207 0.48757 0.0
O167 O 0.19402 0.35891 0.37639 0.0
O168 O 0.14736 0.32399 0.3741 0.0
N169 N 0.23718 0.39081 0.52084 0.0
C170 C 0.25677 0.40903 0.4647 0.0
C171 C 0.28291 0.40915 0.57124 0.0
N172 N 0.2535 0.39114 0.58732 0.0
N173 N 0.28568 0.42055 0.49425 0.0
C174 C 0.07879 0.27752 0.5512 0.0
C175 C 0.05604 0.27366 0.43305 0.0
N176 N 0.09933 0.29639 0.49829 0.0
N177 N 0.08513 0.29381 0.42487 0.0
N178 N 0.05141 0.26305 0.51173 0.0
H179 H 0.10928 0.27572 0.64268 0.0
H180 H 0.06955 0.25086 0.65887 0.0
H181 H 0.08458 0.28683 0.68415 0.0
C182 C 0.08597 0.27229 0.63929 0.0
C183 C 0.24739 0.41634 0.38297 0.0
H184 H 0.24682 0.40254 0.33172 0.0
H185 H 0.26386 0.438 0.36569 0.0
H186 H 0.22446 0.41359 0.38812 0.0
O187 O 0.17857 0.3915 0.49429 0.0
O188 O 0.13174 0.35626 0.49323 0.0
C189 C 0.17099 0.34094 0.33412 0.0
O190 O 0.14136 0.32935 0.64552 0.0
O191 O 0.1887 0.36331 0.64713 0.0
Zn192 Zn 0.31899 0.18864 0.84249 0.0
O193 O 0.31665 0.19004 0.97801 0.0
C194 C 0.33023 0.14304 0.86287 0.0
Zn195 Zn 0.27507 0.14888 0.84028 0.0
C196 C 0.29433 0.17106 1.01803 0.0
O197 O 0.27269 0.15133 0.97594 0.0
C198 C 0.29921 0.16634 0.66451 0.0
O199 O 0.24986 0.16852 0.82214 0.0
O200 O 0.29302 0.20792 0.82826 0.0
N201 N 0.23593 0.11132 0.83824 0.0
C202 C 0.23015 0.08714 0.8039 0.0
C203 C 0.18883 0.08045 0.85675 0.0
N204 N 0.21023 0.10718 0.87098 0.0
N205 N 0.20099 0.06752 0.81542 0.0
C206 C 0.37825 0.24388 0.89562 0.0
C207 C 0.38752 0.26574 0.77912 0.0
N208 N 0.35732 0.22678 0.83788 0.0
N209 N 0.36334 0.24039 0.76549 0.0
N210 N 0.39734 0.26858 0.8604 0.0
H211 H 0.37486 0.21385 0.98553 0.0
H212 H 0.36517 0.23839 0.02561 0.0
H213 H 0.40441 0.24894 1.00992 0.0
C214 C 0.38097 0.23581 0.98438 0.0
C215 C 0.25232 0.08281 0.75448 0.0
H216 H 0.24077 0.06908 0.69873 0.0
H217 H 0.26119 0.07246 0.79556 0.0
H218 H 0.27165 0.10235 0.7321 0.0
O219 O 0.27739 0.14696 0.70446 0.0
O220 O 0.32029 0.18634 0.7068 0.0
C221 C 0.26437 0.1947 0.8181 0.0
O222 O 0.34474 0.16918 0.85594 0.0
O223 O 0.3014 0.12988 0.85854 0.0
Zn224 Zn 0.77593 0.17353 0.6255 0.0
O225 O 0.72902 0.16074 0.63226 0.0
C226 C 0.77316 0.15062 0.8016 0.0
Zn227 Zn 0.76661 0.13034 0.62383 0.0
C228 C 0.7103 0.13476 0.63006 0.0
O229 O 0.72028 0.11823 0.62483 0.0
C230 C 0.83203 0.16887 0.62206 0.0
O231 O 0.76565 0.13193 0.48843 0.0
O232 O 0.77349 0.17392 0.48885 0.0
N233 N 0.75511 0.08992 0.61567 0.0
C234 C 0.76448 0.07702 0.56238 0.0
C235 C 0.72665 0.04588 0.62927 0.0
N236 N 0.73184 0.07053 0.65791 0.0
N237 N 0.74689 0.04934 0.56948 0.0
C238 C 0.79477 0.2324 0.69248 0.0
C239 C 0.82069 0.25676 0.58858 0.0
N240 N 0.79015 0.21487 0.62768 0.0
N241 N 0.80597 0.23015 0.56283 0.0
N242 N 0.81437 0.2588 0.6702 0.0
H243 H 0.75575 0.20499 0.76567 0.0
H244 H 0.77547 0.24083 0.80091 0.0
H245 H 0.79154 0.21961 0.82187 0.0
C246 C 0.77831 0.22393 0.77493 0.0
C247 C 0.78941 0.09127 0.49911 0.0
H248 H 0.78113 0.08205 0.43486 0.0
H249 H 0.80848 0.08824 0.5173 0.0
H250 H 0.79854 0.11369 0.4965 0.0
O251 O 0.8132 0.14311 0.62452 0.0
O252 O 0.82226 0.18556 0.62024 0.0
C253 C 0.76921 0.15275 0.44744 0.0
O254 O 0.77856 0.17224 0.76154 0.0
O255 O 0.76684 0.12891 0.7596 0.0
Zn256 Zn 0.8266 0.6158 0.62382 0.0
O257 O 0.83004 0.61973 0.75941 0.0
C258 C 0.76264 0.60215 0.63567 0.0
Zn259 Zn 0.82323 0.65368 0.62365 0.0
C260 C 0.82796 0.63814 0.80059 0.0
O261 O 0.82489 0.65605 0.75964 0.0
C262 C 0.82112 0.63084 0.44659 0.0
O263 O 0.8708 0.67878 0.61972 0.0
O264 O 0.87442 0.64173 0.61049 0.0
N265 N 0.81901 0.68789 0.61785 0.0
C266 C 0.82987 0.70882 0.56201 0.0
C267 C 0.80192 0.7149 0.64792 0.0
N268 N 0.80182 0.69183 0.67156 0.0
N269 N 0.81934 0.72588 0.57922 0.0
C270 C 0.85325 0.57913 0.67173 0.0
C271 C 0.82125 0.53972 0.61889 0.0
N272 N 0.83145 0.58187 0.63202 0.0
N273 N 0.81156 0.55734 0.59921 0.0
N274 N 0.84754 0.55305 0.66357 0.0
H275 H 0.87546 0.61821 0.74202 0.0
H276 H 0.90011 0.61007 0.68575 0.0
H277 H 0.88294 0.59235 0.78197 0.0
C278 C 0.87916 0.60127 0.72353 0.0
C279 C 0.85198 0.71357 0.49313 0.0
H280 H 0.86289 0.70117 0.50151 0.0
H281 H 0.86964 0.73581 0.49122 0.0
H282 H 0.84007 0.70798 0.43082 0.0
O283 O 0.82109 0.65035 0.48774 0.0
O284 O 0.82245 0.61201 0.48776 0.0
C285 C 0.88702 0.66788 0.61079 0.0
O286 O 0.77861 0.5907 0.63576 0.0
O287 O 0.77563 0.62823 0.62838 0.0
H288 H 0.07902 0.48623 0.65647 0.0
H289 H 0.0235 0.42241 0.83268 0.0
H290 H 0.04451 0.45885 0.54015 0.0
H291 H 0.98802 0.3954 0.71722 0.0
H292 H 0.98045 0.41199 0.34798 0.0
H293 H 0.00838 0.40547 0.46058 0.0
H294 H 0.96271 0.42731 0.64583 0.0
H295 H 0.93385 0.4336 0.53197 0.0
C296 C 0.06053 0.46554 0.669 0.0
C297 C 0.05361 0.45632 0.75253 0.0
C298 C 0.04067 0.44991 0.60295 0.0
C299 C 0.01355 0.42526 0.62071 0.0
C300 C 0.00885 0.41428 0.70247 0.0
C301 C 0.0292 0.42958 0.76799 0.0
C302 C 0.97452 0.41363 0.41241 0.0
C303 C 0.95481 0.42354 0.43075 0.0
C304 C -0.00911 0.41 0.47705 0.0
C305 C 0.9879 0.41624 0.56094 0.0
C306 C 0.96517 0.42221 0.58103 0.0
C307 C 0.94878 0.42596 0.51609 0.0
H308 H 0.48096 0.47022 0.7618 0.0
H309 H 0.47903 0.53444 0.61845 0.0
H310 H 0.52048 0.47291 0.67165 0.0
H311 H 0.51762 0.53632 0.5243 0.0
H312 H 0.6026 0.56081 0.42379 0.0
H313 H 0.57163 0.55483 0.54631 0.0
H314 H 0.53621 0.46681 0.53541 0.0
H315 H 0.56931 0.47345 0.41674 0.0
C316 C 0.48781 0.48378 0.70756 0.0
C317 C 0.4771 0.50221 0.69669 0.0
C318 C 0.51088 0.4857 0.65704 0.0
C319 C 0.52309 0.50568 0.59352 0.0
C320 C 0.50958 0.5216 0.57564 0.0
C321 C 0.48683 0.51997 0.62728 0.0
C322 C 0.58978 0.54046 0.45119 0.0
C323 C 0.5864 0.51722 0.40773 0.0
C324 C 0.57134 0.5369 0.51977 0.0
C325 C 0.54974 0.51014 0.54534 0.0
C326 C 0.55178 0.48765 0.51477 0.0
C327 C 0.57091 0.49143 0.44729 0.0
H328 H 0.4267 0.91651 0.63248 0.0
H329 H 0.38471 0.96611 0.62905 0.0
H330 H 0.45845 0.94274 0.51405 0.0
H331 H 0.41435 0.99084 0.50672 0.0
H332 H 0.5034 0.06172 0.43194 0.0
H333 H 0.46726 0.02607 0.52664 0.0
H334 H 0.47185 0.96358 0.37783 0.0
H335 H 0.50898 -0.00062 0.28704 0.0
C336 C 0.42302 0.93193 0.60292 0.0
C337 C 0.40526 0.9409 0.64331 0.0
C338 C 0.44133 0.94712 0.53551 0.0
C339 C 0.44038 0.9702 0.50582 0.0
C340 C 0.4169 0.97429 0.53252 0.0
C341 C 0.39926 0.95957 0.60101 0.0
C342 C 0.49781 0.04054 0.42285 0.0
C343 C 0.50897 0.03327 0.35306 0.0
C344 C 0.47643 0.02 0.47485 0.0
C345 C 0.4657 0.9919 0.45693 0.0
C346 C 0.47935 0.98495 0.39263 0.0
C347 C 0.50106 0.00552 0.34171 0.0
H348 H 0.71818 0.8454 0.43681 0.0
H349 H 0.62475 0.82497 0.43648 0.0
H350 H 0.72021 0.8488 0.59066 0.0
H351 H 0.62603 0.82661 0.59142 0.0
H352 H 0.64449 0.85732 0.86518 0.0
H353 H 0.64323 0.85515 0.71054 0.0
H354 H 0.70648 0.82576 0.71751 0.0
H355 H 0.70885 0.82947 0.87183 0.0
C356 C 0.69789 0.84129 0.46959 0.0
C357 C 0.67136 0.83508 0.42377 0.0
C358 C 0.69895 0.84301 0.55853 0.0
C359 C 0.67331 0.83804 0.60481 0.0
C360 C 0.64652 0.83121 0.55875 0.0
C361 C 0.64564 0.82996 0.46955 0.0
C362 C 0.65825 0.85057 0.83362 0.0
C363 C 0.67684 0.84369 0.88114 0.0
C364 C 0.65735 0.84905 0.74453 0.0
C365 C 0.67462 0.84011 0.70025 0.0
C366 C 0.69324 0.83325 0.74829 0.0
C367 C 0.69454 0.83526 0.83727 0.0
H368 H 0.18811 0.85777 0.72236 0.0
H369 H 0.15977 0.77122 0.72201 0.0
H370 H 0.18611 0.85774 0.87698 0.0
H371 H 0.15651 0.77074 0.87644 0.0
H372 H 0.18079 0.78363 0.15784 0.0
H373 H 0.18379 0.78426 1.00393 0.0
H374 H 0.1542 0.84374 0.99435 0.0
H375 H 0.15262 0.844 0.14943 0.0
C376 C 0.18125 0.83865 0.75535 0.0
C377 C 0.17411 0.81449 0.70964 0.0
C378 C 0.17987 0.83856 0.84432 0.0
C379 C 0.17098 0.8142 0.89027 0.0
C380 C 0.16397 0.79006 0.84414 0.0
C381 C 0.16573 0.79026 0.75521 0.0
C382 C 0.17484 0.79683 0.12302 0.0
C383 C 0.16644 0.81378 0.16636 0.0
C384 C 0.17638 0.79707 0.0342 0.0
C385 C 0.16919 0.814 0.98556 0.0
C386 C 0.16045 0.83075 0.02907 0.0
C387 C 0.15927 0.83076 0.11825 0.0
H388 H 0.1167 0.32064 0.7957 0.0
H389 H 0.21418 0.37291 0.79445 0.0
H390 H 0.11817 0.31901 0.95062 0.0
H391 H 0.21589 0.37048 0.94845 0.0
H392 H 0.20799 0.38334 0.22974 0.0
H393 H 0.20595 0.38524 0.07589 0.0
H394 H 0.13099 0.30093 0.06818 0.0
H395 H 0.13258 0.29951 0.22332 0.0
C396 C 0.13847 0.33175 0.8284 0.0
C397 C 0.16528 0.347 0.78227 0.0
C398 C 0.13937 0.33063 0.91752 0.0
C399 C 0.16717 0.34454 0.9631 0.0
C400 C 0.19395 0.35987 0.91654 0.0
C401 C 0.193 0.36121 0.82769 0.0
C402 C 0.1914 0.36504 0.1954 0.0
C403 C 0.17078 0.34115 0.23929 0.0
C404 C 0.19015 0.36611 0.10656 0.0
C405 C 0.16837 0.34321 0.05843 0.0
C406 C 0.14783 0.31918 0.10249 0.0
C407 C 0.1489 0.31824 0.19166 0.0
H408 H 0.26349 0.12377 0.5538 0.0
H409 H 0.33432 0.20961 0.56064 0.0
H410 H 0.26226 0.12485 0.39876 0.0
H411 H 0.33222 0.21118 0.40643 0.0
H412 H 0.34289 0.19974 0.12623 0.0
H413 H 0.34435 0.19792 0.28022 0.0
H414 H 0.24757 0.14054 0.27985 0.0
H415 H 0.24653 0.14163 0.12472 0.0
C416 C 0.27877 0.14291 0.52219 0.0
C417 C 0.29914 0.16655 0.56983 0.0
C418 C 0.27788 0.14364 0.43305 0.0
C419 C 0.29709 0.16814 0.38901 0.0
C420 C 0.31745 0.19175 0.43716 0.0
C421 C 0.31859 0.1909 0.52607 0.0
C422 C 0.32185 0.18696 0.15887 0.0
C423 C 0.29456 0.17103 0.11277 0.0
C424 C 0.32264 0.18592 0.24776 0.0
C425 C 0.29607 0.16914 0.29364 0.0
C426 C 0.26866 0.15338 0.24733 0.0
C427 C 0.26796 0.15418 0.15814 0.0
H428 H 0.76632 0.11256 0.34273 0.0
H429 H 0.77227 0.1919 0.3372 0.0
H430 H 0.76805 0.1121 0.18843 0.0
H431 H 0.7729 0.19104 0.18206 0.0
H432 H 0.80489 0.19456 0.9103 0.0
H433 H 0.80358 0.19509 0.065 0.0
H434 H 0.74036 0.10703 0.06199 0.0
H435 H 0.74224 0.10661 0.90703 0.0
C436 C 0.76773 0.12985 0.30857 0.0
C437 C 0.76919 0.1523 0.35273 0.0
C438 C 0.76853 0.1295 0.21964 0.0
C439 C 0.77059 0.15151 0.17197 0.0
C440 C 0.7718 0.17389 0.21625 0.0
C441 C 0.7712 0.17432 0.30541 0.0
C442 C 0.79047 0.17538 0.94262 0.0
C443 C 0.77336 0.15062 0.89615 0.0
C444 C 0.78969 0.17565 0.03161 0.0
C445 C 0.77166 0.15115 0.07676 0.0
C446 C 0.75482 0.12629 0.02999 0.0
C447 C 0.7558 0.12602 0.94093 0.0
H448 H 0.82637 0.67163 0.34211 0.0
H449 H 0.81547 0.59043 0.33544 0.0
H450 H 0.82922 0.67387 0.18888 0.0
H451 H 0.81634 0.59173 0.18029 0.0
H452 H 0.84831 0.61244 0.90693 0.0
H453 H 0.84648 0.61037 0.06155 0.0
H454 H 0.80289 0.65901 0.06211 0.0
H455 H 0.80638 0.66227 0.90804 0.0
C456 C 0.82427 0.65407 0.30792 0.0
C457 C 0.82091 0.63097 0.35177 0.0
C458 C 0.82558 0.65521 0.2192 0.0
C459 C 0.82294 0.63297 0.17084 0.0
C460 C 0.81904 0.60956 0.21471 0.0
C461 C 0.81825 0.60865 0.30397 0.0
C462 C 0.83855 0.62286 0.9403 0.0
C463 C 0.82769 0.6377 0.89509 0.0
C464 C 0.83719 0.62145 0.02924 0.0
C465 C 0.82446 0.63445 0.07553 0.0
C466 C 0.81347 0.64918 0.02972 0.0
C467 C 0.81534 0.65099 0.94094 0.0
H468 H 0.17738 0.42926 0.39347 0.0
H469 H 0.09456 0.37383 0.52279 0.0
H470 H 0.15201 0.45134 0.32512 0.0
H471 H 0.06931 0.39562 0.45479 0.0
H472 H 0.08039 0.44566 0.12514 0.0
H473 H 0.11161 0.43365 0.21255 0.0
H474 H 0.0665 0.43766 0.43749 0.0
H475 H 0.03534 0.44978 0.34997 0.0
C476 C 0.15408 0.42239 0.40925 0.0
C477 C 0.13786 0.39977 0.46295 0.0
C478 C 0.13947 0.43478 0.36944 0.0
C479 C 0.10855 0.42495 0.38372 0.0
C480 C 0.09313 0.40375 0.44266 0.0
C481 C 0.10759 0.39122 0.48149 0.0
C482 C 0.07715 0.44398 0.19326 0.0
C483 C 0.05482 0.44788 0.23052 0.0
C484 C 0.09526 0.43741 0.24343 0.0
C485 C 0.09148 0.4347 0.33194 0.0
C486 C 0.06962 0.43924 0.36935 0.0
C487 C 0.05155 0.44585 0.31918 0.0
H488 H 0.53017 0.61006 0.98741 0.0
H489 H 0.58977 0.61118 0.18653 0.0
H490 H 0.55247 0.65985 1.00409 0.0
H491 H 0.61169 0.66086 0.20387 0.0
H492 H 0.66853 0.75194 0.1338 0.0
H493 H 0.64422 0.70205 0.12097 0.0
H494 H 0.55645 0.69529 0.10551 0.0
H495 H 0.58088 0.74556 0.11722 0.0
C496 C 0.54787 0.62088 0.03513 0.0
C497 C 0.55831 0.60668 0.08538 0.0
C498 C 0.56051 0.64938 0.04497 0.0
C499 C 0.58389 0.66428 0.10507 0.0
C500 C 0.59398 0.65 0.15619 0.0
C501 C 0.58133 0.62151 0.14649 0.0
C502 C 0.64404 0.73989 0.12768 0.0
C503 C 0.62663 0.75275 0.12656 0.0
C504 C 0.6301 0.71124 0.12091 0.0
C505 C 0.59842 0.69472 0.11272 0.0
C506 C 0.58095 0.70753 0.11113 0.0
C507 C 0.59492 0.73628 0.11818 0.0
H508 H 0.41423 0.97925 0.28609 0.0
H509 H 0.37204 0.92066 0.07859 0.0
H510 H 0.37298 0.94816 0.37908 0.0
H511 H 0.33139 0.88977 0.17124 0.0
H512 H 0.26678 0.90237 0.44011 0.0
H513 H 0.31654 0.93222 0.37922 0.0
H514 H 0.32038 0.86043 0.30161 0.0
H515 H 0.27053 0.83045 0.36264 0.0
C516 C 0.39637 0.95979 0.26034 0.0
C517 C 0.39626 0.95273 0.17438 0.0
C518 C 0.37281 0.94195 0.31372 0.0
C519 C 0.34903 0.9165 0.28249 0.0
C520 C 0.34959 0.90905 0.19756 0.0
C521 C 0.3728 0.92695 0.14417 0.0
C522 C 0.27854 0.89294 0.41189 0.0
C523 C 0.26453 0.86403 0.40517 0.0
C524 C 0.30714 0.91008 0.37743 0.0
C525 C 0.32216 0.89865 0.33474 0.0
C526 C 0.30913 0.86978 0.33336 0.0
C527 C 0.28066 0.85262 0.3687 0.0
H528 H 0.44868 0.08509 0.04914 0.0
H529 H 0.38983 0.02396 0.86229 0.0
H530 H 0.42374 0.11154 0.02103 0.0
H531 H 0.36524 0.05049 0.83395 0.0
H532 H 0.39161 0.16423 0.87782 0.0
H533 H 0.41788 0.13884 0.90462 0.0
H534 H 0.33168 0.06246 0.91075 0.0
H535 H 0.30551 0.08762 0.8841 0.0
C536 C 0.43049 0.07732 1.00204 0.0
C537 C 0.42117 0.05237 0.95816 0.0
C538 C 0.41636 0.09256 0.98559 0.0
C539 C 0.39253 0.08305 0.9254 0.0
C540 C 0.38331 0.05817 0.88142 0.0
C541 C 0.3975 0.04303 0.89748 0.0
C542 C 0.37829 0.14202 0.88462 0.0
C543 C 0.34646 0.12792 0.87793 0.0
C544 C 0.39333 0.12752 0.90045 0.0
C545 C 0.37683 0.09866 0.90938 0.0
C546 C 0.34504 0.08464 0.90282 0.0
C547 C 0.33004 0.0991 0.88758 0.0
H548 H 0.83496 0.3122 0.63384 0.0
H549 H 0.83854 0.25898 0.82447 0.0
H550 H 0.87253 0.35275 0.71609 0.0
H551 H 0.87514 0.29896 0.90698 0.0
H552 H 0.91884 0.37784 0.06971 0.0
H553 H 0.88001 0.33824 0.98945 0.0
H554 H 0.92736 0.37444 0.7568 0.0
H555 H 0.966 0.41449 0.83742 0.0
C556 C 0.8432 0.30922 0.69428 0.0
C557 C 0.83287 0.28242 0.7242 0.0
C558 C 0.86488 0.33232 0.74084 0.0
C559 C 0.87669 0.32902 0.81822 0.0
C560 C 0.86602 0.30222 0.84858 0.0
C561 C 0.84458 0.27923 0.80183 0.0
C562 C 0.92102 0.37739 1.0016 0.0
C563 C 0.94549 0.39934 0.96006 0.0
C564 C 0.89883 0.35461 0.95556 0.0
C565 C 0.90049 0.35329 0.86673 0.0
C566 C 0.92522 0.37504 0.8251 0.0
C567 C 0.94758 0.39779 0.87139 0.0
H568 H 0.73015 0.54968 0.69779 0.0
H569 H 0.72112 0.6186 0.6181 0.0
H570 H 0.67912 0.5274 0.75584 0.0
H571 H 0.67026 0.59636 0.67627 0.0
H572 H 0.57317 0.5435 0.76562 0.0
H573 H 0.61648 0.55559 0.67454 0.0
H574 H 0.6626 0.54228 0.88421 0.0
H575 H 0.61981 0.53047 0.97486 0.0
C576 C 0.71703 0.55976 0.69073 0.0
C577 C 0.72985 0.58609 0.65447 0.0
C578 C 0.68787 0.54706 0.72434 0.0
C579 C 0.67087 0.56031 0.72156 0.0
C580 C 0.68274 0.58558 0.67911 0.0
C581 C 0.71198 0.5984 0.64624 0.0
C582 C 0.59245 0.54304 0.79213 0.0
C583 C 0.59317 0.53649 0.87807 0.0
C584 C 0.61722 0.54989 0.73985 0.0
C585 C 0.64292 0.54986 0.77222 0.0
C586 C 0.643 0.54215 0.85699 0.0
C587 C 0.61852 0.53564 0.90925 0.0
H588 H 0.82602 0.50767 0.76037 0.0
H589 H 0.90728 0.57259 0.64775 0.0
H590 H 0.85616 0.49191 0.83793 0.0
H591 H 0.93775 0.5581 0.7277 0.0
H592 H 0.98248 0.51292 0.83279 0.0
H593 H 0.95064 0.52353 0.74457 0.0
H594 H 0.89132 0.50776 0.95663 0.0
H595 H 0.92265 0.49602 0.04408 0.0
C596 C 0.85033 0.51833 0.75184 0.0
C597 C 0.86453 0.54157 0.69971 0.0
C598 C 0.86765 0.50963 0.7969 0.0
C599 C 0.89947 0.52402 0.7902 0.0
C600 C 0.91335 0.54644 0.73435 0.0
C601 C 0.89601 0.55498 0.68922 0.0
C602 C 0.9627 0.51168 0.86078 0.0
C603 C 0.9552 0.50359 0.94561 0.0
C604 C 0.94443 0.51788 0.81012 0.0
C605 C 0.91832 0.51644 0.84328 0.0
C606 C 0.91094 0.50859 0.92845 0.0
C607 C 0.92911 0.50216 0.97894 0.0
H608 H 0.50039 0.42655 0.13623 0.0
H609 H 0.47725 0.43783 0.88027 0.0
H610 H 0.48017 0.37734 0.10466 0.0
H611 H 0.45775 0.38919 0.84879 0.0
H612 H 0.44906 0.3079 0.79195 0.0
H613 H 0.47937 0.35601 0.84006 0.0
H614 H 0.42413 0.3366 0.06289 0.0
H615 H 0.39329 0.28885 1.01353 0.0
C616 C 0.49124 0.41857 0.07323 0.0
C617 C 0.49022 0.43591 1.01075 0.0
C618 C 0.47973 0.39053 0.05533 0.0
C619 C 0.46776 0.37968 0.97415 0.0
C620 C 0.46729 0.39717 0.9115 0.0
C621 C 0.47818 0.42493 0.92978 0.0
C622 C 0.444 0.3138 0.85238 0.0
C623 C 0.41906 0.29454 0.89935 0.0
C624 C 0.46124 0.34125 0.87972 0.0
C625 C 0.45392 0.3499 0.9549 0.0
C626 C 0.43043 0.3303 1.00525 0.0
C627 C 0.41294 0.30287 0.97731 0.0
H628 H 0.68082 0.1622 0.67461 0.0
H629 H 0.66512 0.08108 0.6116 0.0
H630 H 0.62781 0.1415 0.71579 0.0
H631 H 0.61273 0.06049 0.65435 0.0
H632 H 0.55633 0.08897 0.92018 0.0
H633 H 0.60207 0.11452 0.83858 0.0
H634 H 0.5622 0.05356 0.63634 0.0
H635 H 0.51618 0.02743 0.71966 0.0
C636 C 0.66597 0.14005 0.66804 0.0
C637 C 0.67733 0.12327 0.64112 0.0
C638 C 0.63564 0.12816 0.69202 0.0
C639 C 0.61607 0.09928 0.68941 0.0
C640 C 0.62698 0.08278 0.65662 0.0
C641 C 0.65721 0.09462 0.63282 0.0
C642 C 0.55702 0.08115 0.85774 0.0
C643 C 0.53277 0.05588 0.82709 0.0
C644 C 0.58325 0.09602 0.8104 0.0
C645 C 0.58598 0.08604 0.73104 0.0
C646 C 0.56097 0.06162 0.69782 0.0
C647 C 0.53456 0.04671 0.74533 0.0
H648 H 0.52955 0.97998 0.15247 0.0
H649 H 0.48133 0.92878 0.93385 0.0
H650 H 0.55044 0.95046 0.18314 0.0
H651 H 0.50272 0.89963 0.96358 0.0
H652 H 0.60788 0.90984 0.15479 0.0
H653 H 0.58628 0.93901 0.12593 0.0
H654 H 0.49961 0.86613 0.06724 0.0
H655 H 0.52193 0.83717 0.09368 0.0
C656 C 0.5236 0.96256 0.11059 0.0
C657 C 0.50382 0.95674 0.04069 0.0
C658 C 0.53563 0.94568 0.12803 0.0
C659 C 0.52821 0.92267 0.07585 0.0
C660 C 0.50852 0.91695 1.00574 0.0
C661 C 0.49645 0.93378 0.98837 0.0
C662 C 0.58433 0.90024 0.13459 0.0
C663 C 0.56666 0.87148 0.12395 0.0
C664 C 0.57184 0.91682 0.11914 0.0
C665 C 0.54126 0.9049 0.09378 0.0
C666 C 0.52338 0.87597 0.08521 0.0
C667 C 0.53597 0.85939 0.10069 0.0
H668 H 0.10459 0.67885 0.4345 0.0
H669 H 0.18734 0.69022 0.32934 0.0
H670 H 0.07683 0.63181 0.37847 0.0
H671 H 0.15998 0.64234 0.27609 0.0
H672 H 0.09218 0.57125 0.09734 0.0
H673 H 0.12331 0.61637 0.16509 0.0
H674 H 0.06892 0.58659 0.3906 0.0
H675 H 0.03721 0.54181 0.32176 0.0
C676 C 0.11678 0.67108 0.39944 0.0
C677 C 0.14781 0.6882 0.38393 0.0
C678 C 0.10104 0.644 0.36844 0.0
C679 C 0.11611 0.63329 0.32211 0.0
C680 C 0.14758 0.6501 0.31019 0.0
C681 C 0.16332 0.67733 0.34117 0.0
C682 C 0.08695 0.57432 0.1615 0.0
C683 C 0.06202 0.55305 0.2038 0.0
C684 C 0.10496 0.60013 0.20066 0.0
C685 C 0.09858 0.60518 0.28325 0.0
C686 C 0.07417 0.5836 0.32639 0.0
C687 C 0.05602 0.55788 0.28699 0.0
H688 H 0.47245 0.49524 0.33551 0.0
H689 H 0.42481 0.50662 0.12535 0.0
H690 H 0.42636 0.47646 0.42044 0.0
H691 H 0.37938 0.4882 0.20978 0.0
H692 H 0.29716 0.41435 0.33073 0.0
H693 H 0.34501 0.43992 0.25802 0.0
H694 H 0.38761 0.48682 0.48768 0.0
H695 H 0.33875 0.46144 0.56038 0.0
C696 C 0.45238 0.49416 0.30793 0.0
C697 C 0.45217 0.50202 0.2232 0.0
C698 C 0.42606 0.4835 0.35662 0.0
C699 C 0.39916 0.48047 0.32114 0.0
C700 C 0.39958 0.48979 0.23823 0.0
C701 C 0.42571 0.50041 0.18994 0.0
C702 C 0.31627 0.43084 0.36493 0.0
C703 C 0.3138 0.43675 0.45022 0.0
C704 C 0.34389 0.44529 0.32355 0.0
C705 C 0.36998 0.46569 0.36675 0.0
C706 C 0.36783 0.47127 0.45273 0.0
C707 C 0.33995 0.45691 0.49406 0.0
H708 H 0.83172 0.77616 0.63373 0.0
H709 H 0.80841 0.72403 0.41094 0.0
H710 H 0.83105 0.81221 0.54696 0.0
H711 H 0.80898 0.75982 0.32438 0.0
H712 H 0.82085 0.82823 0.17057 0.0
H713 H 0.84144 0.80802 0.26909 0.0
H714 H 0.78735 0.81235 0.47006 0.0
H715 H 0.76666 0.83197 0.37203 0.0
C716 C 0.82726 0.77278 0.56596 0.0
C717 C 0.82124 0.74781 0.52826 0.0
C718 C 0.82699 0.79331 0.51645 0.0
C719 C 0.82073 0.78908 0.42856 0.0
C720 C 0.81506 0.76416 0.39122 0.0
C721 C 0.81495 0.74367 0.44068 0.0
C722 C 0.81439 0.82584 0.23668 0.0
C723 C 0.79244 0.83194 0.26366 0.0
C724 C 0.82602 0.81422 0.29288 0.0
C725 C 0.81576 0.80842 0.37696 0.0
C726 C 0.79599 0.81692 0.40602 0.0
C727 C 0.78425 0.82837 0.34975 0.0
H728 H 0.1518 0.04124 0.71208 0.0
H729 H 0.21753 0.03086 0.85454 0.0
H730 H 0.13363 -0.00358 0.64111 0.0
H731 H 0.20106 0.98724 0.78202 0.0
H732 H 0.16647 0.90727 0.66572 0.0
H733 H 0.16514 0.9414 0.75558 0.0
H734 H 0.15361 0.98037 0.53329 0.0
H735 H 0.15154 0.94389 0.44366 0.0
C736 C 0.1618 0.02895 0.72928 0.0
C737 C 0.1862 0.03932 0.78742 0.0
C738 C 0.15177 0.00356 0.68815 0.0
C739 C 0.1661 0.9883 0.70489 0.0
C740 C 0.18913 -0.00193 0.76787 0.0
C741 C 0.19888 0.0232 0.80902 0.0
C742 C 0.16184 0.92202 0.63605 0.0
C743 C 0.15807 0.92224 0.54748 0.0
C744 C 0.16189 0.94218 0.6877 0.0
C745 C 0.1596 0.9639 0.65191 0.0
C746 C 0.15496 0.96375 0.56343 0.0
C747 C 0.15415 0.94308 0.51184 0.0
H748 H 0.87743 0.22195 0.64827 0.0
H749 H 0.86111 0.14017 0.59228 0.0
H750 H 0.9317 0.2407 0.63688 0.0
H751 H 0.91586 0.1591 0.58124 0.0
H752 H 0.00749 0.21704 0.43512 0.0
H753 H 0.95429 0.19048 0.47608 0.0
H754 H 0.97578 0.24069 0.70358 0.0
H755 H 0.02873 0.26753 0.66117 0.0
C756 C 0.88547 0.20792 0.63431 0.0
C757 C 0.86499 0.17962 0.6205 0.0
C758 C 0.91661 0.21864 0.62869 0.0
C759 C 0.92804 0.20134 0.60857 0.0
C760 C 0.90764 0.1729 0.59664 0.0
C761 C 0.87637 0.16209 0.60309 0.0
C762 C 0.00085 0.22178 0.49499 0.0
C763 C 0.02215 0.24408 0.54538 0.0
C764 C 0.9705 0.20656 0.51867 0.0
C765 C 0.96087 0.21364 0.59278 0.0
C766 C 0.98256 0.23491 0.64582 0.0
C767 C 0.01294 0.25003 0.62225 0.0
H768 H 0.20894 0.17284 0.73937 0.0
H769 H 0.2858 0.24999 0.82755 0.0
H770 H 0.18855 0.19807 0.66591 0.0
H771 H 0.26488 0.27519 0.75696 0.0
H772 H 0.14933 0.25386 0.60435 0.0
H773 H 0.16671 0.22648 0.6789 0.0
H774 H 0.25922 0.28605 0.61413 0.0
H775 H 0.24193 0.31394 0.54243 0.0
C776 C 0.22106 0.19516 0.74497 0.0
C777 C 0.24907 0.20947 0.78874 0.0
C778 C 0.2094 0.20964 0.70267 0.0
C779 C 0.22538 0.23869 0.70407 0.0
C780 C 0.25245 0.25285 0.75237 0.0
C781 C 0.26426 0.23841 0.79379 0.0
C782 C 0.17334 0.26088 0.60483 0.0
C783 C 0.1943 0.28614 0.56786 0.0
C784 C 0.18331 0.24518 0.64773 0.0
C785 C 0.21441 0.2543 0.65387 0.0
C786 C 0.23517 0.27882 0.61278 0.0
C787 C 0.22525 0.29465 0.57069 0.0
H788 H 0.68623 0.93237 0.15553 0.0
H789 H 0.75573 0.92266 0.28025 0.0
H790 H 0.69993 0.97266 0.24474 0.0
H791 H 0.76856 0.96205 0.37211 0.0
H792 H 0.79184 0.04173 0.51102 0.0
H793 H 0.78713 0.00958 0.39881 0.0
H794 H 0.6901 0.9759 0.38961 0.0
H795 H 0.69539 0.00934 0.49693 0.0
C796 C 0.70496 0.9393 0.2006 0.0
C797 C 0.71983 0.92434 0.21124 0.0
C798 C 0.71254 0.96212 0.2526 0.0
C799 C 0.73473 0.9701 0.31742 0.0
C800 C 0.75139 0.95656 0.3229 0.0
C801 C 0.74412 0.93398 0.26986 0.0
C802 C 0.76968 0.0278 0.48357 0.0
C803 C 0.74407 0.02846 0.51094 0.0
C804 C 0.76688 0.00915 0.42003 0.0
C805 C 0.73831 0.99051 0.38367 0.0
C806 C 0.7126 0.99054 0.41391 0.0
C807 C 0.71548 0.00932 0.47659 0.0
H808 H 0.91683 0.72118 0.55714 0.0
H809 H 0.93091 0.654 0.62197 0.0
H810 H 0.96918 0.74854 0.51341 0.0
H811 H 0.98395 0.68196 0.58368 0.0
H812 H 0.06922 0.72688 0.43044 0.0
H813 H 0.0161 0.69958 0.46859 0.0
H814 H 0.01917 0.77379 0.55789 0.0
H815 H 0.07152 0.80103 0.5145 0.0
C816 C 0.9313 0.71243 0.56365 0.0
C817 C 0.91969 0.68538 0.59298 0.0
C818 C 0.96147 0.72821 0.53889 0.0
C819 C 0.98103 0.71756 0.54456 0.0
C820 C 0.96953 0.69072 0.57634 0.0
C821 C 0.93914 0.67473 0.5994 0.0
C822 C 0.05841 0.73733 0.45732 0.0
C823 C 0.07462 0.7661 0.46928 0.0
C824 C 0.02798 0.72165 0.48021 0.0
C825 C 0.01318 0.73433 0.51726 0.0
C826 C 0.02945 0.76322 0.52834 0.0
C827 C 0.05965 0.77891 0.50381 0.0
loop_
_geom_bond_atom_site_label_1
_geom_bond_atom_site_label_2
_geom_bond_distance
_geom_bond_site_symmetry_2
_ccdc_geom_bond_type
Zn0 O1 2.055 1_455 S
Zn0 O8 2.046 1_455 S
Zn0 N16 2.036 . S
Zn0 O28 2.053 . S
Zn0 O30 2.066 . S
O1 Zn0 2.055 1_655 S
O1 C4 1.259 . S
C2 O30 1.256 . S
C2 O31 1.244 . S
Zn3 O5 2.046 . S
Zn3 O7 2.055 . S
Zn3 N9 2.036 . S
Zn3 O27 2.066 . S
Zn3 O31 2.053 1_556 S
C4 O1 1.259 . S
C4 O5 1.254 1_654 S
O5 Zn3 2.046 . S
O5 C4 1.254 1_456 S
C6 O27 1.256 1_554 S
C6 O28 1.244 . S
O7 Zn3 2.055 . S
O7 C29 1.259 1_456 S
O8 Zn0 2.046 1_655 S
O8 C29 1.254 . S
N9 Zn3 2.036 . S
N9 C10 1.298 . S
N9 N12 1.398 . S
C10 N9 1.298 . S
C10 N13 1.367 . S
C10 C23 1.481 . S
C11 N12 1.299 . S
C11 N13 1.379 . S
N12 N9 1.398 . S
N12 C11 1.299 . S
N13 C10 1.367 . S
N13 C11 1.379 . S
C14 N16 1.298 . S
C14 N18 1.367 . S
C14 C22 1.481 1_455 S
C15 N17 1.299 . S
C15 N18 1.379 . S
N16 Zn0 2.036 . S
N16 C14 1.298 . S
N16 N17 1.398 . S
N17 C15 1.299 . S
N17 N16 1.398 . S
N18 C14 1.367 . S
N18 C15 1.379 . S
H19 C22 0.980 . S
H20 C22 0.981 . S
H21 C22 0.981 1_455 S
C22 C14 1.481 1_655 S
C22 H19 0.980 . S
C22 H20 0.981 . S
C22 H21 0.981 1_655 S
C23 C10 1.481 . S
C23 H24 0.980 . S
C23 H25 0.981 . S
C23 H26 0.981 . S
H24 C23 0.980 . S
H25 C23 0.981 . S
H26 C23 0.981 . S
O27 Zn3 2.066 . S
O27 C6 1.256 1_556 S
O28 Zn0 2.053 . S
O28 C6 1.244 . S
C29 O7 1.259 1_654 S
C29 O8 1.254 . S
O30 Zn0 2.066 . S
O30 C2 1.256 . S
O31 C2 1.244 . S
O31 Zn3 2.053 1_554 S
Zn32 O33 2.055 . S
Zn32 O40 2.046 . S
Zn32 N48 2.036 . S
Zn32 O60 2.053 . S
Zn32 O62 2.066 . S
O33 Zn32 2.055 . S
O33 C36 1.259 . S
C34 O62 1.256 . S
C34 O63 1.244 1_554 S
Zn35 O37 2.046 . S
Zn35 O39 2.055 . S
Zn35 N41 2.036 . S
Zn35 O59 2.066 . S
Zn35 O63 2.053 . S
C36 O33 1.259 . S
C36 O37 1.254 1_554 S
O37 Zn35 2.046 . S
O37 C36 1.254 1_556 S
C38 O59 1.256 . S
C38 O60 1.244 1_556 S
O39 Zn35 2.055 . S
O39 C61 1.259 1_556 S
O40 Zn32 2.046 . S
O40 C61 1.254 . S
N41 Zn35 2.036 . S
N41 C42 1.298 . S
N41 N44 1.398 . S
C42 N41 1.298 . S
C42 N45 1.367 . S
C42 C55 1.481 . S
C43 N44 1.299 . S
C43 N45 1.379 . S
N44 N41 1.398 . S
N44 C43 1.299 . S
N45 C42 1.367 . S
N45 C43 1.379 . S
C46 N48 1.298 . S
C46 N50 1.367 . S
C46 C54 1.481 . S
C47 N49 1.299 . S
C47 N50 1.379 . S
N48 Zn32 2.036 . S
N48 C46 1.298 . S
N48 N49 1.398 . S
N49 C47 1.299 . S
N49 N48 1.398 . S
N50 C46 1.367 . S
N50 C47 1.379 . S
H51 C54 0.980 . S
H52 C54 0.981 . S
H53 C54 0.981 . S
C54 C46 1.481 . S
C54 H51 0.980 . S
C54 H52 0.981 . S
C54 H53 0.981 . S
C55 C42 1.481 . S
C55 H56 0.980 . S
C55 H57 0.981 . S
C55 H58 0.981 . S
H56 C55 0.980 . S
H57 C55 0.981 . S
H58 C55 0.981 . S
O59 Zn35 2.066 . S
O59 C38 1.256 . S
O60 Zn32 2.053 . S
O60 C38 1.244 1_554 S
C61 O39 1.259 1_554 S
C61 O40 1.254 . S
O62 Zn32 2.066 . S
O62 C34 1.256 . S
O63 C34 1.244 1_556 S
O63 Zn35 2.053 . S
Zn64 O65 2.055 . S
Zn64 O72 2.046 . S
Zn64 N80 2.036 . S
Zn64 O92 2.053 1_545 S
Zn64 O94 2.066 1_545 S
O65 Zn64 2.055 . S
O65 C68 1.259 1_554 S
C66 O94 1.256 . S
C66 O95 1.244 1_554 S
Zn67 O69 2.046 . S
Zn67 O71 2.055 . S
Zn67 N73 2.036 1_545 S
Zn67 O91 2.066 1_545 S
Zn67 O95 2.053 1_545 S
C68 O65 1.259 1_556 S
C68 O69 1.254 . S
O69 Zn67 2.046 . S
O69 C68 1.254 . S
C70 O91 1.256 1_554 S
C70 O92 1.244 . S
O71 Zn67 2.055 . S
O71 C93 1.259 . S
O72 Zn64 2.046 . S
O72 C93 1.254 1_554 S
N73 Zn67 2.036 1_565 S
N73 C74 1.298 . S
N73 N76 1.398 . S
C74 N73 1.298 . S
C74 N77 1.367 . S
C74 C87 1.481 1_565 S
C75 N76 1.299 . S
C75 N77 1.379 . S
N76 N73 1.398 . S
N76 C75 1.299 . S
N77 C74 1.367 . S
N77 C75 1.379 . S
C78 N80 1.298 . S
C78 N82 1.367 . S
C78 C86 1.481 . S
C79 N81 1.299 . S
C79 N82 1.379 . S
N80 Zn64 2.036 . S
N80 C78 1.298 . S
N80 N81 1.398 . S
N81 C79 1.299 . S
N81 N80 1.398 . S
N82 C78 1.367 . S
N82 C79 1.379 . S
H83 C86 0.980 . S
H84 C86 0.981 . S
H85 C86 0.981 . S
C86 C78 1.481 . S
C86 H83 0.980 . S
C86 H84 0.981 . S
C86 H85 0.981 . S
C87 C74 1.481 1_545 S
C87 H88 0.980 . S
C87 H89 0.981 . S
C87 H90 0.981 1_545 S
H88 C87 0.980 . S
H89 C87 0.981 . S
H90 C87 0.981 1_565 S
O91 Zn67 2.066 1_565 S
O91 C70 1.256 1_556 S
O92 Zn64 2.053 1_565 S
O92 C70 1.244 . S
C93 O71 1.259 . S
C93 O72 1.254 1_556 S
O94 Zn64 2.066 1_565 S
O94 C66 1.256 . S
O95 C66 1.244 1_556 S
O95 Zn67 2.053 1_565 S
Zn96 O97 2.055 . S
Zn96 O104 2.046 . S
Zn96 N112 2.036 . S
Zn96 O124 2.053 . S
Zn96 O126 2.066 . S
O97 Zn96 2.055 . S
O97 C100 1.259 . S
C98 O126 1.256 . S
C98 O127 1.244 . S
Zn99 O101 2.046 . S
Zn99 O103 2.055 . S
Zn99 N105 2.036 . S
Zn99 O123 2.066 . S
Zn99 O127 2.053 . S
C100 O97 1.259 . S
C100 O101 1.254 . S
O101 Zn99 2.046 . S
O101 C100 1.254 . S
C102 O123 1.256 . S
C102 O124 1.244 . S
O103 Zn99 2.055 . S
O103 C125 1.259 . S
O104 Zn96 2.046 . S
O104 C125 1.254 . S
N105 Zn99 2.036 . S
N105 C106 1.298 . S
N105 N108 1.398 . S
C106 N105 1.298 . S
C106 N109 1.367 . S
C106 C119 1.481 . S
C107 N108 1.299 . S
C107 N109 1.379 . S
N108 N105 1.398 . S
N108 C107 1.299 . S
N109 C106 1.367 . S
N109 C107 1.379 . S
C110 N112 1.298 . S
C110 N114 1.367 . S
C110 C118 1.481 . S
C111 N113 1.299 . S
C111 N114 1.379 . S
N112 Zn96 2.036 . S
N112 C110 1.298 . S
N112 N113 1.398 . S
N113 C111 1.299 . S
N113 N112 1.398 . S
N114 C110 1.367 . S
N114 C111 1.379 . S
H115 C118 0.980 . S
H116 C118 0.981 . S
H117 C118 0.981 . S
C118 C110 1.481 . S
C118 H115 0.980 . S
C118 H116 0.981 . S
C118 H117 0.981 . S
C119 C106 1.481 . S
C119 H120 0.980 . S
C119 H121 0.981 1_554 S
C119 H122 0.981 . S
H120 C119 0.980 . S
H121 C119 0.981 1_556 S
H122 C119 0.981 . S
O123 Zn99 2.066 . S
O123 C102 1.256 . S
O124 Zn96 2.053 . S
O124 C102 1.244 . S
C125 O103 1.259 . S
C125 O104 1.254 . S
O126 Zn96 2.066 . S
O126 C98 1.256 . S
O127 C98 1.244 . S
O127 Zn99 2.053 . S
Zn128 O129 2.055 . S
Zn128 O136 2.046 . S
Zn128 N144 2.036 . S
Zn128 O156 2.053 . S
Zn128 O158 2.066 . S
O129 Zn128 2.055 . S
O129 C132 1.259 . S
C130 O158 1.256 . S
C130 O159 1.244 . S
Zn131 O133 2.046 . S
Zn131 O135 2.055 . S
Zn131 N137 2.036 . S
Zn131 O155 2.066 . S
Zn131 O159 2.053 . S
C132 O129 1.259 . S
C132 O133 1.254 . S
O133 Zn131 2.046 . S
O133 C132 1.254 . S
C134 O155 1.256 . S
C134 O156 1.244 . S
O135 Zn131 2.055 . S
O135 C157 1.259 . S
O136 Zn128 2.046 . S
O136 C157 1.254 . S
N137 Zn131 2.036 . S
N137 C138 1.298 . S
N137 N140 1.398 . S
C138 N137 1.298 . S
C138 N141 1.367 . S
C138 C151 1.481 . S
C139 N140 1.299 . S
C139 N141 1.379 . S
N140 N137 1.398 . S
N140 C139 1.299 . S
N141 C138 1.367 . S
N141 C139 1.379 . S
C142 N144 1.298 . S
C142 N146 1.367 . S
C142 C150 1.481 . S
C143 N145 1.299 . S
C143 N146 1.379 . S
N144 Zn128 2.036 . S
N144 C142 1.298 . S
N144 N145 1.398 . S
N145 C143 1.299 . S
N145 N144 1.398 . S
N146 C142 1.367 . S
N146 C143 1.379 . S
H147 C150 0.980 . S
H148 C150 0.981 . S
H149 C150 0.981 . S
C150 C142 1.481 . S
C150 H147 0.980 . S
C150 H148 0.981 . S
C150 H149 0.981 . S
C151 C138 1.481 . S
C151 H152 0.980 . S
C151 H153 0.981 . S
C151 H154 0.981 . S
H152 C151 0.980 . S
H153 C151 0.981 . S
H154 C151 0.981 . S
O155 Zn131 2.066 . S
O155 C134 1.256 . S
O156 Zn128 2.053 . S
O156 C134 1.244 . S
C157 O135 1.259 . S
C157 O136 1.254 . S
O158 Zn128 2.066 . S
O158 C130 1.256 . S
O159 C130 1.244 . S
O159 Zn131 2.053 . S
Zn160 O161 2.055 . S
Zn160 O168 2.046 . S
Zn160 N176 2.036 . S
Zn160 O188 2.053 . S
Zn160 O190 2.066 . S
O161 Zn160 2.055 . S
O161 C164 1.259 . S
C162 O190 1.256 . S
C162 O191 1.244 . S
Zn163 O165 2.046 . S
Zn163 O167 2.055 . S
Zn163 N169 2.036 . S
Zn163 O187 2.066 . S
Zn163 O191 2.053 . S
C164 O161 1.259 . S
C164 O165 1.254 . S
O165 Zn163 2.046 . S
O165 C164 1.254 . S
C166 O187 1.256 . S
C166 O188 1.244 . S
O167 Zn163 2.055 . S
O167 C189 1.259 . S
O168 Zn160 2.046 . S
O168 C189 1.254 . S
N169 Zn163 2.036 . S
N169 C170 1.298 . S
N169 N172 1.398 . S
C170 N169 1.298 . S
C170 N173 1.367 . S
C170 C183 1.481 . S
C171 N172 1.299 . S
C171 N173 1.379 . S
N172 N169 1.398 . S
N172 C171 1.299 . S
N173 C170 1.367 . S
N173 C171 1.379 . S
C174 N176 1.298 . S
C174 N178 1.367 . S
C174 C182 1.481 . S
C175 N177 1.299 . S
C175 N178 1.379 . S
N176 Zn160 2.036 . S
N176 C174 1.298 . S
N176 N177 1.398 . S
N177 C175 1.299 . S
N177 N176 1.398 . S
N178 C174 1.367 . S
N178 C175 1.379 . S
H179 C182 0.980 . S
H180 C182 0.981 . S
H181 C182 0.981 . S
C182 C174 1.481 . S
C182 H179 0.980 . S
C182 H180 0.981 . S
C182 H181 0.981 . S
C183 C170 1.481 . S
C183 H184 0.980 . S
C183 H185 0.981 . S
C183 H186 0.981 . S
H184 C183 0.980 . S
H185 C183 0.981 . S
H186 C183 0.981 . S
O187 Zn163 2.066 . S
O187 C166 1.256 . S
O188 Zn160 2.053 . S
O188 C166 1.244 . S
C189 O167 1.259 . S
C189 O168 1.254 . S
O190 Zn160 2.066 . S
O190 C162 1.256 . S
O191 C162 1.244 . S
O191 Zn163 2.053 . S
Zn192 O193 2.055 . S
Zn192 O200 2.046 . S
Zn192 N208 2.036 . S
Zn192 O220 2.053 . S
Zn192 O222 2.066 . S
O193 Zn192 2.055 . S
O193 C196 1.259 . S
C194 O222 1.256 . S
C194 O223 1.244 . S
Zn195 O197 2.046 . S
Zn195 O199 2.055 . S
Zn195 N201 2.036 . S
Zn195 O219 2.066 . S
Zn195 O223 2.053 . S
C196 O193 1.259 . S
C196 O197 1.254 . S
O197 Zn195 2.046 . S
O197 C196 1.254 . S
C198 O219 1.256 . S
C198 O220 1.244 . S
O199 Zn195 2.055 . S
O199 C221 1.259 . S
O200 Zn192 2.046 . S
O200 C221 1.254 . S
N201 Zn195 2.036 . S
N201 C202 1.298 . S
N201 N204 1.398 . S
C202 N201 1.298 . S
C202 N205 1.367 . S
C202 C215 1.481 . S
C203 N204 1.299 . S
C203 N205 1.379 . S
N204 N201 1.398 . S
N204 C203 1.299 . S
N205 C202 1.367 . S
N205 C203 1.379 . S
C206 N208 1.298 . S
C206 N210 1.367 . S
C206 C214 1.481 . S
C207 N209 1.299 . S
C207 N210 1.379 . S
N208 Zn192 2.036 . S
N208 C206 1.298 . S
N208 N209 1.398 . S
N209 C207 1.299 . S
N209 N208 1.398 . S
N210 C206 1.367 . S
N210 C207 1.379 . S
H211 C214 0.980 . S
H212 C214 0.981 1_554 S
H213 C214 0.981 . S
C214 C206 1.481 . S
C214 H211 0.980 . S
C214 H212 0.981 1_556 S
C214 H213 0.981 . S
C215 C202 1.481 . S
C215 H216 0.980 . S
C215 H217 0.981 . S
C215 H218 0.981 . S
H216 C215 0.980 . S
H217 C215 0.981 . S
H218 C215 0.981 . S
O219 Zn195 2.066 . S
O219 C198 1.256 . S
O220 Zn192 2.053 . S
O220 C198 1.244 . S
C221 O199 1.259 . S
C221 O200 1.254 . S
O222 Zn192 2.066 . S
O222 C194 1.256 . S
O223 C194 1.244 . S
O223 Zn195 2.053 . S
Zn224 O225 2.055 . S
Zn224 O232 2.046 . S
Zn224 N240 2.036 . S
Zn224 O252 2.053 . S
Zn224 O254 2.066 . S
O225 Zn224 2.055 . S
O225 C228 1.259 . S
C226 O254 1.256 . S
C226 O255 1.244 . S
Zn227 O229 2.046 . S
Zn227 O231 2.055 . S
Zn227 N233 2.036 . S
Zn227 O251 2.066 . S
Zn227 O255 2.053 . S
C228 O225 1.259 . S
C228 O229 1.254 . S
O229 Zn227 2.046 . S
O229 C228 1.254 . S
C230 O251 1.256 . S
C230 O252 1.244 . S
O231 Zn227 2.055 . S
O231 C253 1.259 . S
O232 Zn224 2.046 . S
O232 C253 1.254 . S
N233 Zn227 2.036 . S
N233 C234 1.298 . S
N233 N236 1.398 . S
C234 N233 1.298 . S
C234 N237 1.367 . S
C234 C247 1.481 . S
C235 N236 1.299 . S
C235 N237 1.379 . S
N236 N233 1.398 . S
N236 C235 1.299 . S
N237 C234 1.367 . S
N237 C235 1.379 . S
C238 N240 1.298 . S
C238 N242 1.367 . S
C238 C246 1.481 . S
C239 N241 1.299 . S
C239 N242 1.379 . S
N240 Zn224 2.036 . S
N240 C238 1.298 . S
N240 N241 1.398 . S
N241 C239 1.299 . S
N241 N240 1.398 . S
N242 C238 1.367 . S
N242 C239 1.379 . S
H243 C246 0.980 . S
H244 C246 0.981 . S
H245 C246 0.981 . S
C246 C238 1.481 . S
C246 H243 0.980 . S
C246 H244 0.981 . S
C246 H245 0.981 . S
C247 C234 1.481 . S
C247 H248 0.980 . S
C247 H249 0.981 . S
C247 H250 0.981 . S
H248 C247 0.980 . S
H249 C247 0.981 . S
H250 C247 0.981 . S
O251 Zn227 2.066 . S
O251 C230 1.256 . S
O252 Zn224 2.053 . S
O252 C230 1.244 . S
C253 O231 1.259 . S
C253 O232 1.254 . S
O254 Zn224 2.066 . S
O254 C226 1.256 . S
O255 C226 1.244 . S
O255 Zn227 2.053 . S
Zn256 O257 2.055 . S
Zn256 O264 2.046 . S
Zn256 N272 2.036 . S
Zn256 O284 2.053 . S
Zn256 O286 2.066 . S
O257 Zn256 2.055 . S
O257 C260 1.259 . S
C258 O286 1.256 . S
C258 O287 1.244 . S
Zn259 O261 2.046 . S
Zn259 O263 2.055 . S
Zn259 N265 2.036 . S
Zn259 O283 2.066 . S
Zn259 O287 2.053 . S
C260 O257 1.259 . S
C260 O261 1.254 . S
O261 Zn259 2.046 . S
O261 C260 1.254 . S
C262 O283 1.256 . S
C262 O284 1.244 . S
O263 Zn259 2.055 . S
O263 C285 1.259 . S
O264 Zn256 2.046 . S
O264 C285 1.254 . S
N265 Zn259 2.036 . S
N265 C266 1.298 . S
N265 N268 1.398 . S
C266 N265 1.298 . S
C266 N269 1.367 . S
C266 C279 1.481 . S
C267 N268 1.299 . S
C267 N269 1.379 . S
N268 N265 1.398 . S
N268 C267 1.299 . S
N269 C266 1.367 . S
N269 C267 1.379 . S
C270 N272 1.298 . S
C270 N274 1.367 . S
C270 C278 1.481 . S
C271 N273 1.299 . S
C271 N274 1.379 . S
N272 Zn256 2.036 . S
N272 C270 1.298 . S
N272 N273 1.398 . S
N273 C271 1.299 . S
N273 N272 1.398 . S
N274 C270 1.367 . S
N274 C271 1.379 . S
H275 C278 0.980 . S
H276 C278 0.981 . S
H277 C278 0.981 . S
C278 C270 1.481 . S
C278 H275 0.980 . S
C278 H276 0.981 . S
C278 H277 0.981 . S
C279 C266 1.481 . S
C279 H280 0.980 . S
C279 H281 0.981 . S
C279 H282 0.981 . S
H280 C279 0.980 . S
H281 C279 0.981 . S
H282 C279 0.981 . S
O283 Zn259 2.066 . S
O283 C262 1.256 . S
O284 Zn256 2.053 . S
O284 C262 1.244 . S
C285 O263 1.259 . S
C285 O264 1.254 . S
O286 Zn256 2.066 . S
O286 C258 1.256 . S
O287 C258 1.244 . S
O287 Zn259 2.053 . S
H288 C296 0.950 . S
H289 C301 0.950 . S
H290 C298 0.950 . S
H291 C300 0.950 . S
H292 C302 0.950 . S
H293 C304 0.950 . S
H294 C306 0.950 1_655 S
H295 C307 0.950 . S
C296 H288 0.950 . S
C296 C297 1.386 . S
C296 C298 1.391 . S
C297 C296 1.386 . S
C297 C301 1.393 . S
C298 H290 0.950 . S
C298 C296 1.391 . S
C298 C299 1.400 . S
C299 C298 1.400 . S
C299 C300 1.398 . S
C299 C305 1.491 . S
C300 H291 0.950 . S
C300 C299 1.398 . S
C300 C301 1.391 . S
C301 H289 0.950 . S
C301 C297 1.393 . S
C301 C300 1.391 . S
C302 H292 0.950 . S
C302 C303 1.386 1_455 S
C302 C304 1.391 . S
C303 C302 1.386 1_655 S
C303 C307 1.393 . S
C304 H293 0.950 . S
C304 C302 1.391 . S
C304 C305 1.400 . S
C305 C299 1.491 . S
C305 C304 1.400 . S
C305 C306 1.398 . S
C306 H294 0.950 1_455 S
C306 C305 1.398 . S
C306 C307 1.391 1_455 S
C307 H295 0.950 . S
C307 C303 1.393 . S
C307 C306 1.391 1_655 S
H308 C316 0.950 . S
H309 C321 0.950 . S
H310 C318 0.950 . S
H311 C320 0.950 . S
H312 C322 0.950 . S
H313 C324 0.950 . S
H314 C326 0.950 . S
H315 C327 0.950 . S
C316 H308 0.950 . S
C316 C317 1.386 . S
C316 C318 1.391 . S
C317 C316 1.386 . S
C317 C321 1.393 . S
C318 H310 0.950 . S
C318 C316 1.391 . S
C318 C319 1.400 . S
C319 C318 1.400 . S
C319 C320 1.398 . S
C319 C325 1.491 . S
C320 H311 0.950 . S
C320 C319 1.398 . S
C320 C321 1.391 . S
C321 H309 0.950 . S
C321 C317 1.393 . S
C321 C320 1.391 . S
C322 H312 0.950 . S
C322 C323 1.386 . S
C322 C324 1.391 . S
C323 C322 1.386 . S
C323 C327 1.393 . S
C324 H313 0.950 . S
C324 C322 1.391 . S
C324 C325 1.400 . S
C325 C319 1.491 . S
C325 C324 1.400 . S
C325 C326 1.398 . S
C326 H314 0.950 . S
C326 C325 1.398 . S
C326 C327 1.391 . S
C327 H315 0.950 . S
C327 C323 1.393 . S
C327 C326 1.391 . S
H328 C336 0.950 . S
H329 C341 0.950 . S
H330 C338 0.950 . S
H331 C340 0.950 . S
H332 C342 0.950 . S
H333 C344 0.950 . S
H334 C346 0.950 . S
H335 C347 0.950 . S
C336 H328 0.950 . S
C336 C337 1.386 . S
C336 C338 1.391 . S
C337 C336 1.386 . S
C337 C341 1.393 . S
C338 H330 0.950 . S
C338 C336 1.391 . S
C338 C339 1.400 . S
C339 C338 1.400 . S
C339 C340 1.398 . S
C339 C345 1.491 1_565 S
C340 H331 0.950 . S
C340 C339 1.398 . S
C340 C341 1.391 . S
C341 H329 0.950 . S
C341 C337 1.393 . S
C341 C340 1.391 . S
C342 H332 0.950 . S
C342 C343 1.386 . S
C342 C344 1.391 . S
C343 C342 1.386 . S
C343 C347 1.393 . S
C344 H333 0.950 . S
C344 C342 1.391 . S
C344 C345 1.400 . S
C345 C339 1.491 1_545 S
C345 C344 1.400 . S
C345 C346 1.398 . S
C346 H334 0.950 . S
C346 C345 1.398 . S
C346 C347 1.391 . S
C347 H335 0.950 . S
C347 C343 1.393 . S
C347 C346 1.391 . S
H348 C356 0.950 . S
H349 C361 0.950 . S
H350 C358 0.950 . S
H351 C360 0.950 . S
H352 C362 0.950 . S
H353 C364 0.950 . S
H354 C366 0.950 . S
H355 C367 0.950 . S
C356 H348 0.950 . S
C356 C357 1.386 . S
C356 C358 1.391 . S
C357 C356 1.386 . S
C357 C361 1.393 . S
C358 H350 0.950 . S
C358 C356 1.391 . S
C358 C359 1.400 . S
C359 C358 1.400 . S
C359 C360 1.398 . S
C359 C365 1.491 . S
C360 H351 0.950 . S
C360 C359 1.398 . S
C360 C361 1.391 . S
C361 H349 0.950 . S
C361 C357 1.393 . S
C361 C360 1.391 . S
C362 H352 0.950 . S
C362 C363 1.386 . S
C362 C364 1.391 . S
C363 C362 1.386 . S
C363 C367 1.393 . S
C364 H353 0.950 . S
C364 C362 1.391 . S
C364 C365 1.400 . S
C365 C359 1.491 . S
C365 C364 1.400 . S
C365 C366 1.398 . S
C366 H354 0.950 . S
C366 C365 1.398 . S
C366 C367 1.391 . S
C367 H355 0.950 . S
C367 C363 1.393 . S
C367 C366 1.391 . S
H368 C376 0.950 . S
H369 C381 0.950 . S
H370 C378 0.950 . S
H371 C380 0.950 . S
H372 C382 0.950 . S
H373 C384 0.950 . S
H374 C386 0.950 . S
H375 C387 0.950 . S
C376 H368 0.950 . S
C376 C377 1.386 . S
C376 C378 1.391 . S
C377 C376 1.386 . S
C377 C381 1.393 . S
C378 H370 0.950 . S
C378 C376 1.391 . S
C378 C379 1.400 . S
C379 C378 1.400 . S
C379 C380 1.398 . S
C379 C385 1.491 . S
C380 H371 0.950 . S
C380 C379 1.398 . S
C380 C381 1.391 . S
C381 H369 0.950 . S
C381 C377 1.393 . S
C381 C380 1.391 . S
C382 H372 0.950 . S
C382 C383 1.386 . S
C382 C384 1.391 . S
C383 C382 1.386 . S
C383 C387 1.393 . S
C384 H373 0.950 . S
C384 C382 1.391 . S
C384 C385 1.400 . S
C385 C379 1.491 . S
C385 C384 1.400 . S
C385 C386 1.398 . S
C386 H374 0.950 . S
C386 C385 1.398 . S
C386 C387 1.391 . S
C387 H375 0.950 . S
C387 C383 1.393 . S
C387 C386 1.391 . S
H388 C396 0.950 . S
H389 C401 0.950 . S
H390 C398 0.950 . S
H391 C400 0.950 . S
H392 C402 0.950 . S
H393 C404 0.950 . S
H394 C406 0.950 . S
H395 C407 0.950 . S
C396 H388 0.950 . S
C396 C397 1.386 . S
C396 C398 1.391 . S
C397 C396 1.386 . S
C397 C401 1.393 . S
C398 H390 0.950 . S
C398 C396 1.391 . S
C398 C399 1.400 . S
C399 C398 1.400 . S
C399 C400 1.398 . S
C399 C405 1.491 . S
C400 H391 0.950 . S
C400 C399 1.398 . S
C400 C401 1.391 . S
C401 H389 0.950 . S
C401 C397 1.393 . S
C401 C400 1.391 . S
C402 H392 0.950 . S
C402 C403 1.386 . S
C402 C404 1.391 1_554 S
C403 C402 1.386 . S
C403 C407 1.393 . S
C404 H393 0.950 . S
C404 C402 1.391 1_556 S
C404 C405 1.400 . S
C405 C399 1.491 . S
C405 C404 1.400 . S
C405 C406 1.398 . S
C406 H394 0.950 . S
C406 C405 1.398 . S
C406 C407 1.391 1_556 S
C407 H395 0.950 . S
C407 C403 1.393 . S
C407 C406 1.391 1_554 S
H408 C416 0.950 . S
H409 C421 0.950 . S
H410 C418 0.950 . S
H411 C420 0.950 . S
H412 C422 0.950 . S
H413 C424 0.950 . S
H414 C426 0.950 . S
H415 C427 0.950 . S
C416 H408 0.950 . S
C416 C417 1.386 . S
C416 C418 1.391 . S
C417 C416 1.386 . S
C417 C421 1.393 . S
C418 H410 0.950 . S
C418 C416 1.391 . S
C418 C419 1.400 . S
C419 C418 1.400 . S
C419 C420 1.398 . S
C419 C425 1.491 . S
C420 H411 0.950 . S
C420 C419 1.398 . S
C420 C421 1.391 . S
C421 H409 0.950 . S
C421 C417 1.393 . S
C421 C420 1.391 . S
C422 H412 0.950 . S
C422 C423 1.386 . S
C422 C424 1.391 . S
C423 C422 1.386 . S
C423 C427 1.393 . S
C424 H413 0.950 . S
C424 C422 1.391 . S
C424 C425 1.400 . S
C425 C419 1.491 . S
C425 C424 1.400 . S
C425 C426 1.398 . S
C426 H414 0.950 . S
C426 C425 1.398 . S
C426 C427 1.391 . S
C427 H415 0.950 . S
C427 C423 1.393 . S
C427 C426 1.391 . S
H428 C436 0.950 . S
H429 C441 0.950 . S
H430 C438 0.950 . S
H431 C440 0.950 . S
H432 C442 0.950 . S
H433 C444 0.950 . S
H434 C446 0.950 . S
H435 C447 0.950 . S
C436 H428 0.950 . S
C436 C437 1.386 . S
C436 C438 1.391 . S
C437 C436 1.386 . S
C437 C441 1.393 . S
C438 H430 0.950 . S
C438 C436 1.391 . S
C438 C439 1.400 . S
C439 C438 1.400 . S
C439 C440 1.398 . S
C439 C445 1.491 . S
C440 H431 0.950 . S
C440 C439 1.398 . S
C440 C441 1.391 . S
C441 H429 0.950 . S
C441 C437 1.393 . S
C441 C440 1.391 . S
C442 H432 0.950 . S
C442 C443 1.386 . S
C442 C444 1.391 . S
C443 C442 1.386 . S
C443 C447 1.393 . S
C444 H433 0.950 . S
C444 C442 1.391 . S
C444 C445 1.400 . S
C445 C439 1.491 . S
C445 C444 1.400 . S
C445 C446 1.398 . S
C446 H434 0.950 . S
C446 C445 1.398 . S
C446 C447 1.391 . S
C447 H435 0.950 . S
C447 C443 1.393 . S
C447 C446 1.391 . S
H448 C456 0.950 . S
H449 C461 0.950 . S
H450 C458 0.950 . S
H451 C460 0.950 . S
H452 C462 0.950 1_556 S
H453 C464 0.950 . S
H454 C466 0.950 . S
H455 C467 0.950 . S
C456 H448 0.950 . S
C456 C457 1.386 . S
C456 C458 1.391 . S
C457 C456 1.386 . S
C457 C461 1.393 . S
C458 H450 0.950 . S
C458 C456 1.391 . S
C458 C459 1.400 . S
C459 C458 1.400 . S
C459 C460 1.398 . S
C459 C465 1.491 . S
C460 H451 0.950 . S
C460 C459 1.398 . S
C460 C461 1.391 . S
C461 H449 0.950 . S
C461 C457 1.393 . S
C461 C460 1.391 . S
C462 H452 0.950 1_554 S
C462 C463 1.386 1_554 S
C462 C464 1.391 . S
C463 C462 1.386 1_556 S
C463 C467 1.393 1_556 S
C464 H453 0.950 . S
C464 C462 1.391 . S
C464 C465 1.400 . S
C465 C459 1.491 . S
C465 C464 1.400 . S
C465 C466 1.398 . S
C466 H454 0.950 . S
C466 C465 1.398 . S
C466 C467 1.391 . S
C467 H455 0.950 . S
C467 C463 1.393 1_554 S
C467 C466 1.391 . S
H468 C476 0.950 . S
H469 C481 0.950 . S
H470 C478 0.950 . S
H471 C480 0.950 . S
H472 C482 0.950 . S
H473 C484 0.950 . S
H474 C486 0.950 . S
H475 C487 0.950 . S
C476 H468 0.950 . S
C476 C477 1.386 . S
C476 C478 1.391 . S
C477 C476 1.386 . S
C477 C481 1.393 . S
C478 H470 0.950 . S
C478 C476 1.391 . S
C478 C479 1.400 . S
C479 C478 1.400 . S
C479 C480 1.398 . S
C479 C485 1.491 . S
C480 H471 0.950 . S
C480 C479 1.398 . S
C480 C481 1.391 . S
C481 H469 0.950 . S
C481 C477 1.393 . S
C481 C480 1.391 . S
C482 H472 0.950 . S
C482 C483 1.386 . S
C482 C484 1.391 . S
C483 C482 1.386 . S
C483 C487 1.393 . S
C484 H473 0.950 . S
C484 C482 1.391 . S
C484 C485 1.400 . S
C485 C479 1.491 . S
C485 C484 1.400 . S
C485 C486 1.398 . S
C486 H474 0.950 . S
C486 C485 1.398 . S
C486 C487 1.391 . S
C487 H475 0.950 . S
C487 C483 1.393 . S
C487 C486 1.391 . S
H488 C496 0.950 . S
H489 C501 0.950 1_556 S
H490 C498 0.950 . S
H491 C500 0.950 . S
H492 C502 0.950 . S
H493 C504 0.950 . S
H494 C506 0.950 . S
H495 C507 0.950 . S
C496 H488 0.950 . S
C496 C497 1.386 . S
C496 C498 1.391 . S
C497 C496 1.386 . S
C497 C501 1.393 . S
C498 H490 0.950 . S
C498 C496 1.391 . S
C498 C499 1.400 . S
C499 C498 1.400 . S
C499 C500 1.398 . S
C499 C505 1.491 . S
C500 H491 0.950 . S
C500 C499 1.398 . S
C500 C501 1.391 . S
C501 H489 0.950 1_554 S
C501 C497 1.393 . S
C501 C500 1.391 . S
C502 H492 0.950 . S
C502 C503 1.386 . S
C502 C504 1.391 . S
C503 C502 1.386 . S
C503 C507 1.393 . S
C504 H493 0.950 . S
C504 C502 1.391 . S
C504 C505 1.400 . S
C505 C499 1.491 . S
C505 C504 1.400 . S
C505 C506 1.398 . S
C506 H494 0.950 . S
C506 C505 1.398 . S
C506 C507 1.391 . S
C507 H495 0.950 . S
C507 C503 1.393 . S
C507 C506 1.391 . S
H508 C516 0.950 . S
H509 C521 0.950 1_556 S
H510 C518 0.950 . S
H511 C520 0.950 . S
H512 C522 0.950 . S
H513 C524 0.950 . S
H514 C526 0.950 . S
H515 C527 0.950 . S
C516 H508 0.950 . S
C516 C517 1.386 . S
C516 C518 1.391 . S
C517 C516 1.386 . S
C517 C521 1.393 . S
C518 H510 0.950 . S
C518 C516 1.391 . S
C518 C519 1.400 . S
C519 C518 1.400 . S
C519 C520 1.398 . S
C519 C525 1.491 . S
C520 H511 0.950 . S
C520 C519 1.398 . S
C520 C521 1.391 . S
C521 H509 0.950 1_554 S
C521 C517 1.393 . S
C521 C520 1.391 . S
C522 H512 0.950 . S
C522 C523 1.386 . S
C522 C524 1.391 . S
C523 C522 1.386 . S
C523 C527 1.393 . S
C524 H513 0.950 . S
C524 C522 1.391 . S
C524 C525 1.400 . S
C525 C519 1.491 . S
C525 C524 1.400 . S
C525 C526 1.398 . S
C526 H514 0.950 . S
C526 C525 1.398 . S
C526 C527 1.391 . S
C527 H515 0.950 . S
C527 C523 1.393 . S
C527 C526 1.391 . S
H528 C536 0.950 . S
H529 C541 0.950 . S
H530 C538 0.951 . S
H531 C540 0.950 . S
H532 C542 0.950 . S
H533 C544 0.950 . S
H534 C546 0.950 . S
H535 C547 0.950 . S
C536 H528 0.950 . S
C536 C537 1.386 1_554 S
C536 C538 1.392 . S
C537 C536 1.386 1_556 S
C537 C541 1.393 . S
C538 H530 0.951 . S
C538 C536 1.392 . S
C538 C539 1.399 1_554 S
C539 C538 1.399 1_556 S
C539 C540 1.398 . S
C539 C545 1.491 . S
C540 H531 0.950 . S
C540 C539 1.398 . S
C540 C541 1.391 . S
C541 H529 0.950 . S
C541 C537 1.393 . S
C541 C540 1.391 . S
C542 H532 0.950 . S
C542 C543 1.386 . S
C542 C544 1.391 . S
C543 C542 1.386 . S
C543 C547 1.393 . S
C544 H533 0.950 . S
C544 C542 1.391 . S
C544 C545 1.400 . S
C545 C539 1.491 . S
C545 C544 1.400 . S
C545 C546 1.398 . S
C546 H534 0.950 . S
C546 C545 1.398 . S
C546 C547 1.391 . S
C547 H535 0.950 . S
C547 C543 1.393 . S
C547 C546 1.391 . S
H548 C556 0.950 . S
H549 C561 0.950 . S
H550 C558 0.950 . S
H551 C560 0.950 1_554 S
H552 C562 0.950 . S
H553 C564 0.950 . S
H554 C566 0.950 . S
H555 C567 0.950 . S
C556 H548 0.950 . S
C556 C557 1.386 . S
C556 C558 1.391 . S
C557 C556 1.386 . S
C557 C561 1.393 . S
C558 H550 0.950 . S
C558 C556 1.391 . S
C558 C559 1.400 . S
C559 C558 1.400 . S
C559 C560 1.398 . S
C559 C565 1.491 . S
C560 H551 0.950 1_556 S
C560 C559 1.398 . S
C560 C561 1.391 . S
C561 H549 0.950 . S
C561 C557 1.393 . S
C561 C560 1.391 . S
C562 H552 0.950 . S
C562 C563 1.386 . S
C562 C564 1.391 . S
C563 C562 1.386 . S
C563 C567 1.393 1_554 S
C564 H553 0.950 . S
C564 C562 1.391 . S
C564 C565 1.400 1_554 S
C565 C559 1.491 . S
C565 C564 1.400 1_556 S
C565 C566 1.398 . S
C566 H554 0.950 . S
C566 C565 1.398 . S
C566 C567 1.391 . S
C567 H555 0.950 . S
C567 C563 1.393 1_556 S
C567 C566 1.391 . S
H568 C576 0.950 . S
H569 C581 0.950 . S
H570 C578 0.950 . S
H571 C580 0.950 . S
H572 C582 0.950 . S
H573 C584 0.950 . S
H574 C586 0.950 . S
H575 C587 0.950 . S
C576 H568 0.950 . S
C576 C577 1.386 . S
C576 C578 1.391 . S
C577 C576 1.386 . S
C577 C581 1.393 . S
C578 H570 0.950 . S
C578 C576 1.391 . S
C578 C579 1.400 . S
C579 C578 1.400 . S
C579 C580 1.398 . S
C579 C585 1.491 . S
C580 H571 0.950 . S
C580 C579 1.398 . S
C580 C581 1.391 . S
C581 H569 0.950 . S
C581 C577 1.393 . S
C581 C580 1.391 . S
C582 H572 0.950 . S
C582 C583 1.386 . S
C582 C584 1.391 . S
C583 C582 1.386 . S
C583 C587 1.393 . S
C584 H573 0.950 . S
C584 C582 1.391 . S
C584 C585 1.400 . S
C585 C579 1.491 . S
C585 C584 1.400 . S
C585 C586 1.398 . S
C586 H574 0.950 . S
C586 C585 1.398 . S
C586 C587 1.391 . S
C587 H575 0.950 . S
C587 C583 1.393 . S
C587 C586 1.391 . S
H588 C596 0.950 . S
H589 C601 0.950 . S
H590 C598 0.950 . S
H591 C600 0.950 . S
H592 C602 0.950 1_455 S
H593 C604 0.950 . S
H594 C606 0.950 . S
H595 C607 0.950 1_554 S
C596 H588 0.950 . S
C596 C597 1.386 . S
C596 C598 1.391 . S
C597 C596 1.386 . S
C597 C601 1.393 . S
C598 H590 0.950 . S
C598 C596 1.391 . S
C598 C599 1.400 . S
C599 C598 1.400 . S
C599 C600 1.398 . S
C599 C605 1.491 . S
C600 H591 0.950 . S
C600 C599 1.398 . S
C600 C601 1.391 . S
C601 H589 0.950 . S
C601 C597 1.393 . S
C601 C600 1.391 . S
C602 H592 0.950 1_655 S
C602 C603 1.386 . S
C602 C604 1.391 . S
C603 C602 1.386 . S
C603 C607 1.393 . S
C604 H593 0.950 . S
C604 C602 1.391 . S
C604 C605 1.400 . S
C605 C599 1.491 . S
C605 C604 1.400 . S
C605 C606 1.398 . S
C606 H594 0.950 . S
C606 C605 1.398 . S
C606 C607 1.391 . S
C607 H595 0.950 1_556 S
C607 C603 1.393 . S
C607 C606 1.391 . S
H608 C616 0.950 . S
H609 C621 0.950 . S
H610 C618 0.950 . S
H611 C620 0.950 . S
H612 C622 0.950 . S
H613 C624 0.950 . S
H614 C626 0.950 1_554 S
H615 C627 0.950 1_554 S
C616 H608 0.950 . S
C616 C617 1.393 . S
C616 C618 1.391 . S
C617 C616 1.393 . S
C617 C621 1.383 1_554 S
C618 H610 0.950 . S
C618 C616 1.391 . S
C618 C619 1.400 1_554 S
C619 C618 1.400 1_556 S
C619 C620 1.398 . S
C619 C625 1.491 . S
C620 H611 0.950 . S
C620 C619 1.398 . S
C620 C621 1.391 . S
C621 H609 0.950 . S
C621 C617 1.383 1_556 S
C621 C620 1.391 . S
C622 H612 0.950 . S
C622 C623 1.386 . S
C622 C624 1.391 . S
C623 C622 1.386 . S
C623 C627 1.393 . S
C624 H613 0.950 . S
C624 C622 1.391 . S
C624 C625 1.400 . S
C625 C619 1.491 . S
C625 C624 1.400 . S
C625 C626 1.398 . S
C626 H614 0.950 1_556 S
C626 C625 1.398 . S
C626 C627 1.391 . S
C627 H615 0.950 1_556 S
C627 C623 1.393 . S
C627 C626 1.391 . S
H628 C636 0.950 . S
H629 C641 0.950 . S
H630 C638 0.950 . S
H631 C640 0.950 . S
H632 C642 0.950 1_554 S
H633 C644 0.950 . S
H634 C646 0.950 . S
H635 C647 0.950 . S
C636 H628 0.950 . S
C636 C637 1.386 . S
C636 C638 1.391 . S
C637 C636 1.386 . S
C637 C641 1.393 . S
C638 H630 0.950 . S
C638 C636 1.391 . S
C638 C639 1.400 . S
C639 C638 1.400 . S
C639 C640 1.398 . S
C639 C645 1.491 . S
C640 H631 0.950 . S
C640 C639 1.398 . S
C640 C641 1.391 . S
C641 H629 0.950 . S
C641 C637 1.393 . S
C641 C640 1.391 . S
C642 H632 0.950 1_556 S
C642 C643 1.386 . S
C642 C644 1.391 . S
C643 C642 1.386 . S
C643 C647 1.393 . S
C644 H633 0.950 . S
C644 C642 1.391 . S
C644 C645 1.400 . S
C645 C639 1.491 . S
C645 C644 1.400 . S
C645 C646 1.398 . S
C646 H634 0.950 . S
C646 C645 1.398 . S
C646 C647 1.391 . S
C647 H635 0.950 . S
C647 C643 1.393 . S
C647 C646 1.391 . S
H648 C656 0.950 . S
H649 C661 0.950 . S
H650 C658 0.950 . S
H651 C660 0.950 . S
H652 C662 0.950 . S
H653 C664 0.950 1_556 S
H654 C666 0.950 . S
H655 C667 0.950 . S
C656 H648 0.950 . S
C656 C657 1.386 . S
C656 C658 1.391 . S
C657 C656 1.386 . S
C657 C661 1.393 1_554 S
C658 H650 0.950 . S
C658 C656 1.391 . S
C658 C659 1.400 . S
C659 C658 1.400 . S
C659 C660 1.398 1_554 S
C659 C665 1.491 . S
C660 H651 0.950 . S
C660 C659 1.398 1_556 S
C660 C661 1.391 . S
C661 H649 0.950 . S
C661 C657 1.393 1_556 S
C661 C660 1.391 . S
C662 H652 0.950 . S
C662 C663 1.386 . S
C662 C664 1.391 . S
C663 C662 1.386 . S
C663 C667 1.393 . S
C664 H653 0.950 1_554 S
C664 C662 1.391 . S
C664 C665 1.400 . S
C665 C659 1.491 . S
C665 C664 1.400 . S
C665 C666 1.398 . S
C666 H654 0.950 . S
C666 C665 1.398 . S
C666 C667 1.391 . S
C667 H655 0.950 . S
C667 C663 1.393 . S
C667 C666 1.391 . S
H668 C676 0.950 . S
H669 C681 0.950 . S
H670 C678 0.950 . S
H671 C680 0.950 . S
H672 C682 0.950 . S
H673 C684 0.950 . S
H674 C686 0.950 . S
H675 C687 0.950 . S
C676 H668 0.950 . S
C676 C677 1.386 . S
C676 C678 1.391 . S
C677 C676 1.386 . S
C677 C681 1.393 . S
C678 H670 0.950 . S
C678 C676 1.391 . S
C678 C679 1.400 . S
C679 C678 1.400 . S
C679 C680 1.398 . S
C679 C685 1.491 . S
C680 H671 0.950 . S
C680 C679 1.398 . S
C680 C681 1.391 . S
C681 H669 0.950 . S
C681 C677 1.393 . S
C681 C680 1.391 . S
C682 H672 0.950 . S
C682 C683 1.386 . S
C682 C684 1.391 . S
C683 C682 1.386 . S
C683 C687 1.393 . S
C684 H673 0.950 . S
C684 C682 1.391 . S
C684 C685 1.400 . S
C685 C679 1.491 . S
C685 C684 1.400 . S
C685 C686 1.398 . S
C686 H674 0.950 . S
C686 C685 1.398 . S
C686 C687 1.391 . S
C687 H675 0.950 . S
C687 C683 1.393 . S
C687 C686 1.391 . S
H688 C696 0.950 . S
H689 C701 0.950 . S
H690 C698 0.950 . S
H691 C700 0.950 . S
H692 C702 0.950 . S
H693 C704 0.950 . S
H694 C706 0.950 . S
H695 C707 0.950 . S
C696 H688 0.950 . S
C696 C697 1.386 . S
C696 C698 1.391 . S
C697 C696 1.386 . S
C697 C701 1.393 . S
C698 H690 0.950 . S
C698 C696 1.391 . S
C698 C699 1.400 . S
C699 C698 1.400 . S
C699 C700 1.398 . S
C699 C705 1.491 . S
C700 H691 0.950 . S
C700 C699 1.398 . S
C700 C701 1.391 . S
C701 H689 0.950 . S
C701 C697 1.393 . S
C701 C700 1.391 . S
C702 H692 0.950 . S
C702 C703 1.386 . S
C702 C704 1.391 . S
C703 C702 1.386 . S
C703 C707 1.393 . S
C704 H693 0.950 . S
C704 C702 1.391 . S
C704 C705 1.400 . S
C705 C699 1.491 . S
C705 C704 1.400 . S
C705 C706 1.398 . S
C706 H694 0.950 . S
C706 C705 1.398 . S
C706 C707 1.391 . S
C707 H695 0.950 . S
C707 C703 1.393 . S
C707 C706 1.391 . S
H708 C716 0.950 . S
H709 C721 0.950 . S
H710 C718 0.950 . S
H711 C720 0.950 . S
H712 C722 0.950 . S
H713 C724 0.950 . S
H714 C726 0.950 . S
H715 C727 0.950 . S
C716 H708 0.950 . S
C716 C717 1.386 . S
C716 C718 1.391 . S
C717 C716 1.386 . S
C717 C721 1.393 . S
C718 H710 0.950 . S
C718 C716 1.391 . S
C718 C719 1.400 . S
C719 C718 1.400 . S
C719 C720 1.398 . S
C719 C725 1.491 . S
C720 H711 0.950 . S
C720 C719 1.398 . S
C720 C721 1.391 . S
C721 H709 0.950 . S
C721 C717 1.393 . S
C721 C720 1.391 . S
C722 H712 0.950 . S
C722 C723 1.386 . S
C722 C724 1.391 . S
C723 C722 1.386 . S
C723 C727 1.393 . S
C724 H713 0.950 . S
C724 C722 1.391 . S
C724 C725 1.400 . S
C725 C719 1.491 . S
C725 C724 1.400 . S
C725 C726 1.398 . S
C726 H714 0.950 . S
C726 C725 1.398 . S
C726 C727 1.391 . S
C727 H715 0.950 . S
C727 C723 1.393 . S
C727 C726 1.391 . S
H728 C736 0.950 . S
H729 C741 0.950 . S
H730 C738 0.950 . S
H731 C740 0.950 . S
H732 C742 0.950 . S
H733 C744 0.950 . S
H734 C746 0.950 . S
H735 C747 0.950 . S
C736 H728 0.950 . S
C736 C737 1.386 . S
C736 C738 1.391 . S
C737 C736 1.386 . S
C737 C741 1.393 . S
C738 H730 0.950 . S
C738 C736 1.391 . S
C738 C739 1.400 . S
C739 C738 1.400 . S
C739 C740 1.398 . S
C739 C745 1.491 1_545 S
C740 H731 0.950 . S
C740 C739 1.398 . S
C740 C741 1.391 . S
C741 H729 0.950 . S
C741 C737 1.393 . S
C741 C740 1.391 . S
C742 H732 0.950 . S
C742 C743 1.386 . S
C742 C744 1.391 . S
C743 C742 1.386 . S
C743 C747 1.393 . S
C744 H733 0.950 . S
C744 C742 1.391 . S
C744 C745 1.400 . S
C745 C739 1.491 1_565 S
C745 C744 1.400 . S
C745 C746 1.398 . S
C746 H734 0.950 . S
C746 C745 1.398 . S
C746 C747 1.391 . S
C747 H735 0.950 . S
C747 C743 1.393 . S
C747 C746 1.391 . S
H748 C756 0.950 . S
H749 C761 0.950 . S
H750 C758 0.950 . S
H751 C760 0.950 . S
H752 C762 0.950 . S
H753 C764 0.950 . S
H754 C766 0.950 . S
H755 C767 0.950 . S
C756 H748 0.950 . S
C756 C757 1.386 . S
C756 C758 1.391 . S
C757 C756 1.386 . S
C757 C761 1.393 . S
C758 H750 0.950 . S
C758 C756 1.391 . S
C758 C759 1.400 . S
C759 C758 1.400 . S
C759 C760 1.398 . S
C759 C765 1.491 . S
C760 H751 0.950 . S
C760 C759 1.398 . S
C760 C761 1.391 . S
C761 H749 0.950 . S
C761 C757 1.393 . S
C761 C760 1.391 . S
C762 H752 0.950 . S
C762 C763 1.386 . S
C762 C764 1.391 1_455 S
C763 C762 1.386 . S
C763 C767 1.393 . S
C764 H753 0.950 . S
C764 C762 1.391 1_655 S
C764 C765 1.400 . S
C765 C759 1.491 . S
C765 C764 1.400 . S
C765 C766 1.398 . S
C766 H754 0.950 . S
C766 C765 1.398 . S
C766 C767 1.391 1_655 S
C767 H755 0.950 . S
C767 C763 1.393 . S
C767 C766 1.391 1_455 S
H768 C776 0.950 . S
H769 C781 0.950 . S
H770 C778 0.950 . S
H771 C780 0.950 . S
H772 C782 0.950 . S
H773 C784 0.950 . S
H774 C786 0.950 . S
H775 C787 0.950 . S
C776 H768 0.950 . S
C776 C777 1.386 . S
C776 C778 1.391 . S
C777 C776 1.386 . S
C777 C781 1.393 . S
C778 H770 0.950 . S
C778 C776 1.391 . S
C778 C779 1.400 . S
C779 C778 1.400 . S
C779 C780 1.398 . S
C779 C785 1.491 . S
C780 H771 0.950 . S
C780 C779 1.398 . S
C780 C781 1.391 . S
C781 H769 0.950 . S
C781 C777 1.393 . S
C781 C780 1.391 . S
C782 H772 0.950 . S
C782 C783 1.386 . S
C782 C784 1.391 . S
C783 C782 1.386 . S
C783 C787 1.393 . S
C784 H773 0.950 . S
C784 C782 1.391 . S
C784 C785 1.400 . S
C785 C779 1.491 . S
C785 C784 1.400 . S
C785 C786 1.398 . S
C786 H774 0.950 . S
C786 C785 1.398 . S
C786 C787 1.391 . S
C787 H775 0.950 . S
C787 C783 1.393 . S
C787 C786 1.391 . S
H788 C796 0.950 . S
H789 C801 0.950 . S
H790 C798 0.950 . S
H791 C800 0.950 . S
H792 C802 0.960 1_545 S
H793 C804 0.950 . S
H794 C806 0.950 . S
H795 C807 0.950 . S
C796 H788 0.950 . S
C796 C797 1.386 . S
C796 C798 1.391 . S
C797 C796 1.386 . S
C797 C801 1.393 . S
C798 H790 0.950 . S
C798 C796 1.391 . S
C798 C799 1.400 . S
C799 C798 1.400 . S
C799 C800 1.398 . S
C799 C805 1.491 . S
C800 H791 0.950 . S
C800 C799 1.398 . S
C800 C801 1.391 . S
C801 H789 0.950 . S
C801 C797 1.393 . S
C801 C800 1.391 . S
C802 H792 0.960 1_565 S
C802 C803 1.386 1_565 S
C802 C804 1.391 . S
C803 C802 1.386 1_545 S
C803 C807 1.393 . S
C804 H793 0.950 . S
C804 C802 1.391 . S
C804 C805 1.400 . S
C805 C799 1.491 . S
C805 C804 1.400 . S
C805 C806 1.398 . S
C806 H794 0.950 . S
C806 C805 1.398 . S
C806 C807 1.391 1_565 S
C807 H795 0.950 . S
C807 C803 1.393 . S
C807 C806 1.391 1_545 S
H808 C816 0.950 . S
H809 C821 0.950 . S
H810 C818 0.950 . S
H811 C820 0.950 . S
H812 C822 0.950 . S
H813 C824 0.950 . S
H814 C826 0.950 . S
H815 C827 0.950 . S
C816 H808 0.950 . S
C816 C817 1.386 . S
C816 C818 1.391 . S
C817 C816 1.386 . S
C817 C821 1.393 . S
C818 H810 0.950 . S
C818 C816 1.391 . S
C818 C819 1.400 . S
C819 C818 1.400 . S
C819 C820 1.398 . S
C819 C825 1.491 1_655 S
C820 H811 0.950 . S
C820 C819 1.398 . S
C820 C821 1.391 . S
C821 H809 0.950 . S
C821 C817 1.393 . S
C821 C820 1.391 . S
C822 H812 0.950 . S
C822 C823 1.386 . S
C822 C824 1.391 . S
C823 C822 1.386 . S
C823 C827 1.393 . S
C824 H813 0.950 . S
C824 C822 1.391 . S
C824 C825 1.400 . S
C825 C819 1.491 1_455 S
C825 C824 1.400 . S
C825 C826 1.398 . S
C826 H814 0.950 . S
C826 C825 1.398 . S
C826 C827 1.391 . S
C827 H815 0.950 . S
C827 C823 1.393 . S
C827 C826 1.391 . S
C297 N13 0.989 . S
C303 N18 0.872 1_655 S
C317 N45 0.889 . S
C323 N50 1.016 . S
C337 N77 1.047 . S
C343 N82 0.925 . S
C357 C98 2.166 . S
C363 C125 2.180 1_556 S
C377 C130 2.170 . S
C383 C157 2.184 1_556 S
C397 C162 2.168 . S
C403 C189 2.182 . S
C417 C198 2.150 . S
C423 C196 2.163 1_554 S
C437 C253 2.191 . S
C443 C226 2.180 1_554 S
C457 C262 2.198 . S
C463 C260 2.213 . S
C477 C166 1.570 . S
C483 C2 1.544 . S
C497 C61 1.570 . S
C503 C102 1.552 . S
C517 C66 1.615 . S
C523 C134 1.608 . S
C537 C68 1.748 . S
C543 C194 1.723 . S
C557 N242 1.081 . S
C563 C4 1.147 . S
C577 C258 1.656 . S
C583 C38 1.675 . S
C597 N274 1.150 . S
C603 C29 1.212 1_556 S
C617 C34 1.214 . S
C623 N210 1.172 . S
C637 C228 1.589 . S
C643 C93 1.593 . S
C657 C70 1.336 . S
C663 N109 1.174 . S
C677 N141 1.171 . S
C683 C6 1.190 . S
C697 C36 1.464 . S
C703 N173 1.420 . S
C717 N269 0.580 . S
C723 N114 0.539 . S
C737 N205 0.733 . S
C743 N146 0.760 . S
C757 C230 1.030 . S
C763 N178 0.996 . S
C777 C221 1.313 . S
C783 C164 1.295 . S
C797 C100 1.059 . S
C803 N237 1.055 . S
C817 C285 0.974 . S
C823 C132 0.973 . S
