# Generated by pormake.
# Topology ukf, (4)-cn, num edge types: 1
# Building blocks:
#     Node 0, Type 0, BuildingBlock: ICAMEG_clean_sbu_1, # of connection points: 4
#     Node 1, Type 0, BuildingBlock: ICAMEG_clean_sbu_1, # of connection points: 4
#     Node 2, Type 0, BuildingBlock: ICAMEG_clean_sbu_1, # of connection points: 4
#     Node 3, Type 0, BuildingBlock: ICAMEG_clean_sbu_1, # of connection points: 4
#     Node 4, Type 0, BuildingBlock: ICAMEG_clean_sbu_1, # of connection points: 4
#     Node 5, Type 0, BuildingBlock: ICAMEG_clean_sbu_1, # of connection points: 4
#     Node 6, Type 0, BuildingBlock: ICAMEG_clean_sbu_1, # of connection points: 4
#     Node 7, Type 0, BuildingBlock: ICAMEG_clean_sbu_1, # of connection points: 4
#     Node 8, Type 0, BuildingBlock: ICAMEG_clean_sbu_1, # of connection points: 4
#     Node 9, Type 0, BuildingBlock: ICAMEG_clean_sbu_1, # of connection points: 4
#     Node 10, Type 0, BuildingBlock: ICAMEG_clean_sbu_1, # of connection points: 4
#     Node 11, Type 0, BuildingBlock: ICAMEG_clean_sbu_1, # of connection points: 4
#     Edge 12, Type (0, 0), BuildingBlock: AJUNOK_clean_linker_0, # of connection points: 2
#     Edge 13, Type (0, 0), BuildingBlock: AJUNOK_clean_linker_0, # of connection points: 2
#     Edge 14, Type (0, 0), BuildingBlock: AJUNOK_clean_linker_0, # of connection points: 2
#     Edge 15, Type (0, 0), BuildingBlock: AJUNOK_clean_linker_0, # of connection points: 2
#     Edge 16, Type (0, 0), BuildingBlock: AJUNOK_clean_linker_0, # of connection points: 2
#     Edge 17, Type (0, 0), BuildingBlock: AJUNOK_clean_linker_0, # of connection points: 2
#     Edge 18, Type (0, 0), BuildingBlock: AJUNOK_clean_linker_0, # of connection points: 2
#     Edge 19, Type (0, 0), BuildingBlock: AJUNOK_clean_linker_0, # of connection points: 2
#     Edge 20, Type (0, 0), BuildingBlock: AJUNOK_clean_linker_0, # of connection points: 2
#     Edge 21, Type (0, 0), BuildingBlock: AJUNOK_clean_linker_0, # of connection points: 2
#     Edge 22, Type (0, 0), BuildingBlock: AJUNOK_clean_linker_0, # of connection points: 2
#     Edge 23, Type (0, 0), BuildingBlock: AJUNOK_clean_linker_0, # of connection points: 2
#     Edge 24, Type (0, 0), BuildingBlock: AJUNOK_clean_linker_0, # of connection points: 2
#     Edge 25, Type (0, 0), BuildingBlock: AJUNOK_clean_linker_0, # of connection points: 2
#     Edge 26, Type (0, 0), BuildingBlock: AJUNOK_clean_linker_0, # of connection points: 2
#     Edge 27, Type (0, 0), BuildingBlock: AJUNOK_clean_linker_0, # of connection points: 2
#     Edge 28, Type (0, 0), BuildingBlock: AJUNOK_clean_linker_0, # of connection points: 2
#     Edge 29, Type (0, 0), BuildingBlock: AJUNOK_clean_linker_0, # of connection points: 2
#     Edge 30, Type (0, 0), BuildingBlock: AJUNOK_clean_linker_0, # of connection points: 2
#     Edge 31, Type (0, 0), BuildingBlock: AJUNOK_clean_linker_0, # of connection points: 2
#     Edge 32, Type (0, 0), BuildingBlock: AJUNOK_clean_linker_0, # of connection points: 2
#     Edge 33, Type (0, 0), BuildingBlock: AJUNOK_clean_linker_0, # of connection points: 2
#     Edge 34, Type (0, 0), BuildingBlock: AJUNOK_clean_linker_0, # of connection points: 2
#     Edge 35, Type (0, 0), BuildingBlock: AJUNOK_clean_linker_0, # of connection points: 2
# Relax obj value: 0.109
# Max RMSD: 0.106
# Mean RMSD: 0.106
data_MOF--net-ukf--node1-ICAMEG_clean_sbu_1--edge1-AJUNOK_clean_linker_0
_symmetry_space_group_name_H-M    P1
_symmetry_Int_Tables_number       1
_symmetry_cell_setting            triclinic
loop_
_symmetry_equiv_pos_as_xyz
'x, y, z'
_cell_length_a     25.40452
_cell_length_b     25.345474
_cell_length_c     52.244277
_cell_angle_alpha  90.067676
_cell_angle_beta   89.766447
_cell_angle_gamma 119.97109
loop_
_atom_site_label
_atom_site_type_symbol
_atom_site_fract_x
_atom_site_fract_y
_atom_site_fract_z
_atom_type_partial_charge
Co0 Co 0.43375 0.26344 0.04252 0.0
Co1 Co 0.46129 0.19407 0.09321 0.0
O2 O 0.43231 0.24686 0.07934 0.0
C3 C 0.49336 0.38589 0.06623 0.0
O4 O 0.52286 0.36803 0.08114 0.0
C5 C 0.35913 0.17855 0.12869 0.0
O6 O 0.34428 0.20958 0.11317 0.0
O7 O 0.40386 0.1259 0.07006 0.0
O8 O 0.41182 0.17745 0.03387 0.0
H9 H 0.55785 0.06374 0.08628 0.0
H10 H 0.35966 0.29537 0.07624 0.0
O11 O 0.45577 0.34973 0.04979 0.0
H12 H 0.2145 0.14356 1.01564 0.0
H13 H 0.39031 0.35256 0.96476 0.0
H14 H 0.48644 0.23805 0.99664 0.0
H15 H 0.32365 0.17701 1.01291 0.0
H16 H 0.38708 0.32895 1.01072 0.0
O17 O 0.39872 0.16419 0.12188 0.0
H18 H 0.50537 0.1162 0.06988 0.0
H19 H 0.47998 0.15992 0.14583 0.0
H20 H 0.49042 0.26017 0.95051 0.0
H21 H 0.25094 0.26376 0.07945 0.0
H22 H 0.44201 0.31782 0.93428 0.0
H23 H 0.1775 0.18717 0.04904 0.0
O24 O 0.52167 0.28971 0.04035 0.0
H25 H 0.52412 0.36922 0.15476 0.0
H26 H 0.59256 0.24755 0.10616 0.0
H27 H 0.6648 0.33027 0.13402 0.0
H28 H 0.63059 0.39134 0.15888 0.0
H29 H 0.45426 0.28782 0.12607 0.0
H30 H 0.52813 0.10399 0.16304 0.0
H31 H 0.56959 0.05736 0.13317 0.0
O32 O 0.52615 0.2222 0.06632 0.0
C33 C 0.39594 0.1277 0.04586 0.0
C34 C 0.53988 0.08375 0.0995 0.0
C35 C 0.52332 0.10646 0.14257 0.0
N36 N 0.49024 0.14185 0.10681 0.0
C37 C 0.51031 0.11377 0.09032 0.0
C38 C 0.49524 0.13733 0.13268 0.0
C39 C 0.54663 0.08039 0.1258 0.0
C40 C 0.32803 0.26227 0.06286 0.0
N41 N 0.34799 0.23791 0.0445 0.0
C42 C 0.2665 0.24442 0.06481 0.0
C43 C 0.22531 0.2014 0.04776 0.0
C44 C 0.24602 0.17685 0.02904 0.0
C45 C 0.30787 0.19574 0.02768 0.0
C46 C 0.4112 0.32704 0.97156 0.0
C47 C 0.46457 0.26237 0.98967 0.0
C48 C 0.40946 0.31348 0.99757 0.0
N49 N 0.43542 0.28093 1.00628 0.0
C50 C 0.46729 0.27512 0.96355 0.0
C51 C 0.44023 0.30756 0.95447 0.0
C52 C 0.54905 0.26305 0.04903 0.0
C53 C 0.53939 0.34236 0.14433 0.0
C54 C 0.57713 0.27389 0.11677 0.0
C55 C 0.61835 0.32071 0.13259 0.0
C56 C 0.59915 0.35492 0.14655 0.0
N57 N 0.5181 0.26087 0.11502 0.0
C58 C 0.4995 0.29524 0.12829 0.0
Co59 Co 0.15065 0.40053 0.37527 0.0
Co60 Co 0.25427 0.44524 0.42501 0.0
O61 O 0.17146 0.41071 0.41184 0.0
C62 C 0.09341 0.46879 0.39596 0.0
O63 O 0.14329 0.50207 0.40901 0.0
C64 C 0.1735 0.34351 0.46184 0.0
O65 O 0.12832 0.32195 0.44559 0.0
O66 O 0.26771 0.38684 0.40348 0.0
O67 O 0.21323 0.37613 0.36788 0.0
H68 H 0.4809 0.5466 0.41566 0.0
H69 H 0.04877 0.3391 0.41243 0.0
O70 O 0.08863 0.42617 0.38149 0.0
H71 H 0.04661 0.17378 0.36176 0.0
H72 H 1.00318 0.33303 0.30188 0.0
H73 H 0.21867 0.43128 0.32619 0.0
H74 H 0.12268 0.28098 0.35299 0.0
H75 H 0.03294 0.34684 0.34731 0.0
O76 O 0.22578 0.38691 0.45517 0.0
H77 H 0.37497 0.49075 0.40058 0.0
H78 H 0.31088 0.47473 0.47704 0.0
H79 H 0.19144 0.41809 0.28047 0.0
H80 H 0.9712 0.23257 0.42152 0.0
H81 H 0.0827 0.36855 0.26806 0.0
H82 H 0.96997 0.14899 0.39617 0.0
O83 O 0.21293 0.48665 0.36766 0.0
H84 H 0.13781 0.50692 0.4847 0.0
H85 H 0.32767 0.57837 0.43568 0.0
H86 H 0.31345 0.65149 0.46166 0.0
H87 H 0.21818 0.61578 0.48666 0.0
H88 H 0.15302 0.43596 0.45789 0.0
H89 H 0.41598 0.52758 0.493 0.0
H90 H 0.50195 0.56605 0.46214 0.0
O91 O 0.28602 0.50637 0.3965 0.0
C92 C 0.25323 0.36992 0.38016 0.0
C93 C 0.44381 0.53033 0.42928 0.0
C94 C 0.40739 0.51964 0.47268 0.0
N95 N 0.33667 0.47994 0.43784 0.0
C96 C 0.38371 0.49877 0.42085 0.0
C97 C 0.34787 0.48896 0.46353 0.0
C98 C 0.45559 0.54119 0.45536 0.0
C99 C 0.0482 0.30307 0.40114 0.0
N100 N 0.09039 0.31631 0.38227 0.0
C101 C 1.00432 0.24278 0.40646 0.0
C102 C 1.00372 0.19591 0.39226 0.0
C103 C 0.04678 0.20978 0.37299 0.0
C104 C 0.09001 0.27058 0.36822 0.0
C105 C 0.0507 0.35456 0.30702 0.0
C106 C 0.17165 0.40945 0.32091 0.0
C107 C 0.06788 0.36261 0.33273 0.0
N108 N 0.1278 0.3895 0.3394 0.0
C109 C 0.1563 0.4022 0.295 0.0
C110 C 0.09532 0.37447 0.28806 0.0
C111 C 0.26598 0.52021 0.37679 0.0
C112 C 0.17974 0.52297 0.47406 0.0
C113 C 0.28581 0.56248 0.44626 0.0
C114 C 0.27815 0.60411 0.46106 0.0
C115 C 0.22475 0.58406 0.4751 0.0
N116 N 0.24172 0.50243 0.44547 0.0
C117 C 0.18895 0.4827 0.459 0.0
Co118 Co 0.7638 0.17966 0.71108 0.0
Co119 Co 0.83026 0.27887 0.76174 0.0
O120 O 0.77722 0.19651 0.74808 0.0
C121 C 0.64048 0.10525 0.73614 0.0
O122 O 0.66162 0.13332 0.75793 0.0
C123 C 0.84397 0.19251 0.79797 0.0
O124 O 0.81444 0.14666 0.78226 0.0
O125 O 0.89902 0.28728 0.73978 0.0
O126 O 0.8513 0.24091 0.70348 0.0
H127 H 0.96618 0.50495 0.75359 0.0
H128 H 0.7273 0.07486 0.74648 0.0
O129 O 0.67522 0.11785 0.71668 0.0
H130 H 0.8777 0.07106 0.68778 0.0
H131 H 0.67645 0.04701 0.63316 0.0
H132 H 0.80239 0.25724 0.66459 0.0
H133 H 0.84841 0.14975 0.68339 0.0
H134 H 0.69573 0.06743 0.67934 0.0
O135 O 0.8575 0.2463 0.79126 0.0
H136 H 0.91105 0.39937 0.73786 0.0
H137 H 0.86218 0.33392 0.81409 0.0
H138 H 0.78465 0.23882 0.61826 0.0
H139 H 0.75459 0.99487 0.75132 0.0
H140 H 0.72117 0.13306 0.60226 0.0
H141 H 0.83048 0.99267 0.72188 0.0
O142 O 0.74067 0.24338 0.7071 0.0
H143 H 0.65676 0.17666 0.82493 0.0
H144 H 0.7767 0.35837 0.77135 0.0
H145 H 0.69424 0.35222 0.79831 0.0
H146 H 0.63396 0.26119 0.82565 0.0
H147 H 0.73786 0.18369 0.79703 0.0
H148 H 0.92105 0.43852 0.83069 0.0
H149 H 0.97223 0.52518 0.80033 0.0
O150 O 0.805 0.31547 0.73383 0.0
C151 C 0.89969 0.27559 0.71593 0.0
C152 C 0.94448 0.4676 0.76703 0.0
C153 C 0.919 0.43032 0.81029 0.0
N154 N 0.88276 0.36038 0.77496 0.0
C155 C 0.91281 0.40766 0.75822 0.0
C156 C 0.88635 0.37103 0.80075 0.0
C157 C 0.94759 0.47891 0.79325 0.0
C158 C 0.75986 0.07399 0.73343 0.0
N159 N 0.78603 0.11699 0.71466 0.0
C160 C 0.77538 0.02868 0.73634 0.0
C161 C 0.81803 0.02753 0.71985 0.0
C162 C 0.84459 0.07153 0.70074 0.0
C163 C 0.82799 0.11618 0.69843 0.0
C164 C 0.70428 0.09328 0.63989 0.0
C165 C 0.77515 0.21104 0.65778 0.0
C166 C 0.71528 0.10514 0.66602 0.0
N167 N 0.75046 0.16346 0.67466 0.0
C168 C 0.76509 0.20091 0.63152 0.0
C169 C 0.72941 0.14158 0.62256 0.0
C170 C 0.76656 0.29757 0.71569 0.0
C171 C 0.68294 0.21679 0.81324 0.0
C172 C 0.75028 0.31811 0.78282 0.0
C173 C 0.70378 0.31511 0.79822 0.0
C174 C 0.67006 0.26411 0.81358 0.0
N175 N 0.76318 0.27174 0.78269 0.0
C176 C 0.72971 0.22138 0.79755 0.0
Co177 Co 0.60894 0.75976 0.04373 0.0
Co178 Co 0.5663 0.82463 0.09146 0.0
O179 O 0.5998 0.77357 0.08009 0.0
C180 C 0.54435 0.63574 0.06606 0.0
O181 O 0.51106 0.65232 0.07928 0.0
C182 C 0.66242 0.84319 0.13043 0.0
O183 O 0.68523 0.8191 0.11488 0.0
O184 O 0.6293 0.8948 0.0707 0.0
O185 O 0.63209 0.84627 0.03505 0.0
H186 H 0.47103 0.9542 0.07728 0.0
H187 H 0.67369 0.72573 0.08155 0.0
O188 O 0.5858 0.67318 0.05106 0.0
H189 H 0.83427 0.88397 0.0274 0.0
H190 H 0.67731 0.67837 0.97062 0.0
H191 H 0.56842 0.78645 0.99466 0.0
H192 H 0.72641 0.84982 0.0193 0.0
H193 H 0.66636 0.69834 1.01597 0.0
O194 O 0.61987 0.85234 0.12294 0.0
H195 H 0.52953 0.90464 0.06481 0.0
H196 H 0.5299 0.85212 0.14202 0.0
H197 H 0.57858 0.76796 0.94908 0.0
H198 H 0.78099 0.75786 0.09007 0.0
H199 H 0.63355 0.71362 0.93678 0.0
H200 H 0.86217 0.83772 0.06295 0.0
O201 O 0.52197 0.73285 0.03706 0.0
H202 H 0.4893 0.6474 0.15268 0.0
H203 H 0.43139 0.76569 0.09624 0.0
H204 H 0.35221 0.67914 0.12067 0.0
H205 H 0.38098 0.61966 0.14937 0.0
H206 H 0.5666 0.73289 0.12739 0.0
H207 H 0.47437 0.9041 0.15547 0.0
H208 H 0.44217 0.95328 0.12283 0.0
O209 O 0.51077 0.79917 0.06147 0.0
C210 C 0.64336 0.89493 0.04703 0.0
C211 C 0.48442 0.93253 0.09165 0.0
C212 C 0.48633 0.90444 0.13553 0.0
N213 N 0.53244 0.8747 0.10258 0.0
C214 C 0.51756 0.90434 0.08471 0.0
C215 C 0.51854 0.87578 0.12783 0.0
C216 C 0.46825 0.93199 0.11721 0.0
C217 C 0.70872 0.76016 0.06954 0.0
N218 N 0.69376 0.786 0.05004 0.0
C219 C 0.76942 0.77834 0.07452 0.0
C220 C 0.81494 0.82321 0.05932 0.0
C221 C 0.79933 0.84925 0.0394 0.0
C222 C 0.73816 0.82998 0.03501 0.0
C223 C 0.65365 0.7025 0.97571 0.0
C224 C 0.59289 0.76342 0.98946 0.0
C225 C 0.64739 0.71404 1.00136 0.0
N226 N 0.61797 0.74491 1.00794 0.0
C227 C 0.59827 0.75278 0.96361 0.0
C228 C 0.62905 0.72224 0.95673 0.0
C229 C 0.49304 0.75956 0.0438 0.0
C230 C 0.47623 0.67338 0.14047 0.0
C231 C 0.44444 0.73997 0.10857 0.0
C232 C 0.39931 0.69103 0.12242 0.0
C233 C 0.41547 0.65771 0.13853 0.0
N234 N 0.50417 0.75569 0.11079 0.0
C235 C 0.5201 0.72256 0.1263 0.0
Co236 Co 0.83127 0.57945 0.37479 0.0
Co237 Co 0.73646 0.55183 0.42636 0.0
O238 O 0.8175 0.58008 0.41178 0.0
C239 C 0.89439 0.51899 0.39721 0.0
O240 O 0.84754 0.48926 0.41248 0.0
C241 C 0.82519 0.65282 0.46145 0.0
O242 O 0.87009 0.6678 0.44529 0.0
O243 O 0.72661 0.61099 0.40405 0.0
O244 O 0.76719 0.60179 0.36714 0.0
H245 H 0.51069 0.46446 0.42132 0.0
H246 H 0.93868 0.65277 0.40756 0.0
O247 O 0.89546 0.55697 0.38102 0.0
H248 H 0.93029 0.79982 0.3484 0.0
H249 H 0.96075 0.62445 0.29563 0.0
H250 H 0.75166 0.52732 0.32955 0.0
H251 H 0.85421 0.69056 0.34582 0.0
H252 H 0.94208 0.62676 0.34188 0.0
O253 O 0.77091 0.61339 0.45525 0.0
H254 H 0.61495 0.51231 0.40413 0.0
H255 H 0.685 0.53111 0.4794 0.0
H256 H 0.76806 0.52433 0.28316 0.0
H257 H 0.01618 0.76157 0.41058 0.0
H258 H 0.87335 0.57323 0.2659 0.0
H259 H 0.01216 0.83597 0.38091 0.0
O260 O 0.76924 0.49154 0.37285 0.0
H261 H 0.84711 0.48367 0.48592 0.0
H262 H 0.65715 0.41997 0.43868 0.0
H263 H 0.66659 0.34545 0.46554 0.0
H264 H 0.7618 0.37726 0.48971 0.0
H265 H 0.83653 0.55585 0.45823 0.0
H266 H 0.58178 0.48654 0.49743 0.0
H267 H 0.4935 0.45092 0.46829 0.0
O268 O 0.69805 0.48796 0.39919 0.0
C269 C 0.73458 0.61832 0.37975 0.0
C270 C 0.54877 0.47981 0.43423 0.0
C271 C 0.58867 0.4921 0.47693 0.0
N272 N 0.65608 0.52392 0.44067 0.0
C273 C 0.60794 0.50674 0.42459 0.0
C274 C 0.64714 0.51799 0.46659 0.0
C275 C 0.53917 0.47215 0.46057 0.0
C276 C 0.93682 0.68481 0.39449 0.0
N277 N 0.8918 0.66532 0.37663 0.0
C278 C 0.98074 0.74639 0.39633 0.0
C279 C 0.97841 0.78812 0.3797 0.0
C280 C 0.93244 0.76788 0.36148 0.0
C281 C 0.88926 0.70596 0.36022 0.0
C282 C 0.91467 0.60338 0.30288 0.0
C283 C 0.7975 0.54951 0.32214 0.0
C284 C 0.90381 0.6046 0.32905 0.0
N285 N 0.84573 0.57843 0.33833 0.0
C286 C 0.80656 0.54731 0.29587 0.0
C287 C 0.86562 0.57462 0.28621 0.0
C288 C 0.71525 0.46479 0.38168 0.0
C289 C 0.80503 0.46941 0.47578 0.0
C290 C 0.6989 0.43433 0.44899 0.0
C291 C 0.7039 0.39183 0.46425 0.0
C292 C 0.75728 0.4097 0.47782 0.0
N293 N 0.74551 0.49327 0.4474 0.0
C294 C 0.79839 0.5106 0.46031 0.0
Co295 Co 0.26337 0.86135 0.70962 0.0
Co296 Co 0.19936 0.74598 0.75477 0.0
O297 O 0.24933 0.83181 0.74515 0.0
C298 C 0.38804 0.91256 0.73013 0.0
O299 O 0.37053 0.85991 0.74123 0.0
C300 C 0.17083 0.8166 0.79389 0.0
O301 O 0.18967 0.86269 0.77807 0.0
O302 O 0.12979 0.73866 0.73378 0.0
O303 O 0.17685 0.80108 0.70034 0.0
H304 H 0.07404 0.52238 0.73613 0.0
H305 H 0.30112 0.95367 0.75093 0.0
O306 O 0.35037 0.92137 0.71751 0.0
H307 H 0.14304 0.96947 0.70275 0.0
H308 H 0.34768 0.02707 0.6429 0.0
H309 H 0.23713 0.80578 0.65781 0.0
H310 H 0.17427 0.89544 0.68991 0.0
H311 H 0.32618 0.98585 0.68677 0.0
O312 O 0.16804 0.76722 0.7866 0.0
H313 H 0.124 0.63178 0.72575 0.0
H314 H 0.17021 0.67664 0.80397 0.0
H315 H 0.25688 0.84453 0.61353 0.0
H316 H 0.27206 0.02911 0.76413 0.0
H317 H 0.31261 0.95624 0.60585 0.0
H318 H 0.19226 0.03717 0.74003 0.0
O319 O 0.28737 0.80049 0.69899 0.0
H320 H 0.37093 0.84498 0.81797 0.0
H321 H 0.26204 0.67308 0.7584 0.0
H322 H 0.34861 0.68177 0.78294 0.0
H323 H 0.40343 0.76791 0.81316 0.0
H324 H 0.28516 0.8354 0.79266 0.0
H325 H 0.11859 0.56772 0.81528 0.0
H326 H 0.0721 0.48978 0.78112 0.0
O327 O 0.22902 0.72086 0.72447 0.0
C328 C 0.12929 0.75843 0.71119 0.0
C329 C 0.09477 0.55597 0.75115 0.0
C330 C 0.11962 0.58141 0.79558 0.0
N331 N 0.1507 0.66067 0.76416 0.0
C332 C 0.12299 0.618 0.7454 0.0
C333 C 0.14812 0.64306 0.78909 0.0
C334 C 0.09364 0.5377 0.77639 0.0
C335 C 0.26687 0.95736 0.74016 0.0
N336 N 0.23938 0.92009 0.71971 0.0
C337 C 0.25036 0.99996 0.74781 0.0
C338 C 0.20549 1.00436 0.73432 0.0
C339 C 0.17777 0.9663 0.71343 0.0
C340 C 0.19537 0.92418 0.70636 0.0
C341 C 0.32287 0.97831 0.64596 0.0
C342 C 0.26051 0.85404 0.65459 0.0
C343 C 0.31039 0.95463 0.67079 0.0
N344 N 0.27885 0.89307 0.67486 0.0
C345 C 0.27197 0.87594 0.62949 0.0
C346 C 0.30328 0.93857 0.62519 0.0
C347 C 0.2651 0.74499 0.70568 0.0
C348 C 0.3471 0.80695 0.80502 0.0
C349 C 0.28573 0.7109 0.77141 0.0
C350 C 0.33469 0.71548 0.78531 0.0
C351 C 0.3654 0.76379 0.80227 0.0
N352 N 0.26754 0.75305 0.7744 0.0
C353 C 0.29799 0.80093 0.79079 0.0
Co354 Co 0.76765 0.61418 0.66012 0.0
Co355 Co 0.82142 0.55996 0.61168 0.0
O356 O 0.77572 0.59832 0.62395 0.0
C357 C 0.63912 0.5412 0.64399 0.0
O358 O 0.65094 0.49867 0.63658 0.0
C359 C 0.84233 0.65654 0.57203 0.0
O360 O 0.81574 0.67846 0.58663 0.0
O361 O 0.8947 0.61951 0.63192 0.0
O362 O 0.85408 0.6378 0.66693 0.0
H363 H 0.93964 0.45176 0.62346 0.0
H364 H 0.72887 0.67237 0.62083 0.0
O365 O 0.68065 0.59026 0.65394 0.0
H366 H 0.89293 0.8421 0.66881 0.0
H367 H 0.69277 0.69259 0.73193 0.0
H368 H 0.80874 0.5906 0.70974 0.0
H369 H 0.86063 0.73569 0.67998 0.0
H370 H 0.70577 0.67232 0.68685 0.0
O371 O 0.85158 0.61451 0.58036 0.0
H372 H 0.89373 0.5128 0.63723 0.0
H373 H 0.84616 0.52401 0.56033 0.0
H374 H 0.79733 0.6103 0.75507 0.0
H375 H 0.75882 0.77807 0.60938 0.0
H376 H 0.73892 0.66169 0.76641 0.0
H377 H 0.84166 0.86387 0.63337 0.0
O378 O 0.74299 0.52894 0.67009 0.0
H379 H 0.63805 0.49435 0.55541 0.0
H380 H 0.75932 0.42566 0.60356 0.0
H381 H 0.66926 0.35069 0.57981 0.0
H382 H 0.60813 0.38491 0.55529 0.0
H383 H 0.72753 0.56746 0.57974 0.0
H384 H 0.89532 0.46676 0.54558 0.0
H385 H 0.94045 0.42814 0.57733 0.0
O386 O 0.79208 0.5027 0.64141 0.0
C387 C 0.89904 0.64092 0.65459 0.0
C388 C 0.91998 0.4682 0.60943 0.0
C389 C 0.89512 0.47663 0.56573 0.0
N390 N 0.86664 0.52148 0.59969 0.0
C391 C 0.8937 0.50262 0.61714 0.0
C392 C 0.86809 0.50984 0.57419 0.0
C393 C 0.92043 0.45498 0.58356 0.0
C394 C 0.76444 0.7094 0.63156 0.0
N395 N 0.79288 0.69778 0.65106 0.0
C396 C 0.78146 0.7692 0.62489 0.0
C397 C 0.82799 0.81731 0.63833 0.0
C398 C 0.85684 0.80512 0.65819 0.0
C399 C 0.83858 0.74474 0.66433 0.0
C400 C 0.71836 0.6702 0.72724 0.0
C401 C 0.78353 0.61312 0.71452 0.0
C402 C 0.72575 0.65845 0.70174 0.0
N403 N 0.75825 0.63044 0.69566 0.0
C404 C 0.77709 0.6241 0.74022 0.0
C405 C 0.74428 0.65288 0.74657 0.0
C406 C 0.7602 0.4928 0.66159 0.0
C407 C 0.66464 0.47894 0.56581 0.0
C408 C 0.73309 0.4411 0.59298 0.0
C409 C 0.68207 0.39834 0.57953 0.0
C410 C 0.64779 0.41754 0.5658 0.0
N411 N 0.75002 0.5015 0.59264 0.0
C412 C 0.71594 0.52039 0.5795 0.0
Co413 Co 0.18469 0.76217 0.9939 0.0
Co414 Co 0.27553 0.82917 0.94145 0.0
O415 O 0.19594 0.77314 0.95664 0.0
C416 C 0.12352 0.63567 0.97356 0.0
O417 O 0.1678 0.65266 0.95689 0.0
C418 C 0.18268 0.82952 0.90457 0.0
O419 O 0.13693 0.7937 0.91947 0.0
O420 O 0.28016 0.8978 0.96246 0.0
O421 O 0.24584 0.85033 1.00013 0.0
H422 H 0.49596 0.98873 0.94404 0.0
H423 H 0.07571 0.72113 0.96149 0.0
O424 O 0.12309 0.67375 0.98933 0.0
H425 H 0.07632 0.87501 0.01952 0.0
H426 H 0.0628 0.67803 0.07492 0.0
H427 H 0.26812 0.80306 0.03835 0.0
H428 H 0.15659 0.84761 0.02228 0.0
H429 H 0.07719 0.69493 0.02833 0.0
O430 O 0.23727 0.84954 0.91194 0.0
H431 H 0.39304 0.92641 0.96181 0.0
H432 H 0.32547 0.85431 0.8881 0.0
H433 H 0.25573 0.78781 0.08506 0.0
H434 H 0.99417 0.74672 0.95822 0.0
H435 H 0.15246 0.72484 0.10364 0.0
H436 H 0.99423 0.82428 0.98735 0.0
O437 O 0.25005 0.74095 0.99586 0.0
H438 H 0.17759 0.64321 0.88449 0.0
H439 H 0.36266 0.78527 0.9316 0.0
H440 H 0.36113 0.70202 0.90674 0.0
H441 H 0.2684 0.63064 0.88265 0.0
H442 H 0.18031 0.72552 0.91017 0.0
H443 H 0.42657 0.92022 0.86912 0.0
H444 H 0.51331 0.98694 0.89725 0.0
O445 O 0.31852 0.81142 0.96946 0.0
C446 C 0.27475 0.89892 0.98684 0.0
C447 C 0.45868 0.96043 0.93151 0.0
C448 C 0.41978 0.92152 0.88953 0.0
N449 N 0.3538 0.88518 0.92624 0.0
C450 C 0.40046 0.92419 0.94157 0.0
C451 C 0.36249 0.88462 0.90039 0.0
C452 C 0.46836 0.95902 0.9053 0.0
C453 C 0.0759 0.75476 0.97428 0.0
N454 N 0.12095 0.78295 0.99198 0.0
C455 C 0.02968 0.76915 0.97232 0.0
C456 C 0.02978 0.8127 0.98865 0.0
C457 C 0.07586 0.84123 1.00668 0.0
C458 C 0.12136 0.82571 1.00808 0.0
C459 C 0.10801 0.70569 0.06707 0.0
C460 C 0.22299 0.77596 0.04629 0.0
C461 C 0.11646 0.71535 0.04069 0.0
N462 N 0.17341 0.75035 0.03063 0.0
C463 C 0.21628 0.76735 0.07276 0.0
C464 C 0.15834 0.73197 0.08317 0.0
C465 C 0.30405 0.77186 0.9872 0.0
C466 C 0.21858 0.67451 0.89462 0.0
C467 C 0.32188 0.75435 0.92132 0.0
C468 C 0.32141 0.7073 0.9072 0.0
C469 C 0.26943 0.66732 0.89367 0.0
N470 N 0.27218 0.76195 0.92184 0.0
C471 C 0.22071 0.72208 0.90896 0.0
Co472 Co 0.39659 0.15016 0.32743 0.0
Co473 Co 0.44992 0.25965 0.27932 0.0
O474 O 0.41248 0.1748 0.29115 0.0
C475 C 0.46771 0.09386 0.30849 0.0
O476 O 0.50132 0.14339 0.29511 0.0
C477 C 0.35367 0.18487 0.23958 0.0
O478 O 0.33283 0.13551 0.2536 0.0
O479 O 0.39067 0.27274 0.30029 0.0
O480 O 0.37001 0.21104 0.33424 0.0
H481 H 0.5503 0.48559 0.29271 0.0
H482 H 0.34224 0.05296 0.28815 0.0
O483 O 0.4236 0.08881 0.322 0.0
H484 H 0.16862 0.04192 0.33543 0.0
H485 H 0.32187 0.99804 0.39963 0.0
H486 H 0.41775 0.21549 0.37687 0.0
H487 H 0.27367 0.11787 0.34711 0.0
H488 H 0.34099 0.03048 0.35446 0.0
O489 O 0.3949 0.23603 0.24831 0.0
H490 H 0.49398 0.37783 0.30579 0.0
H491 H 0.486 0.32254 0.22839 0.0
H492 H 0.39898 0.18506 0.42227 0.0
H493 H 0.23791 0.97567 0.27607 0.0
H494 H 0.35075 0.07559 0.43391 0.0
H495 H 0.15019 0.96997 0.29973 0.0
O496 O 0.48093 0.21175 0.33736 0.0
H497 H 0.51624 0.14728 0.21931 0.0
H498 H 0.58383 0.33234 0.2713 0.0
H499 H 0.65895 0.31984 0.24609 0.0
H500 H 0.62527 0.22705 0.2196 0.0
H501 H 0.44309 0.16079 0.24525 0.0
H502 H 0.5401 0.42972 0.21442 0.0
H503 H 0.57452 0.51221 0.24678 0.0
O504 O 0.50761 0.28706 0.30869 0.0
C505 C 0.36771 0.25409 0.32263 0.0
C506 C 0.53607 0.45009 0.27845 0.0
C507 C 0.53021 0.41872 0.23451 0.0
N508 N 0.48726 0.3438 0.26795 0.0
C509 C 0.50418 0.38894 0.28575 0.0
C510 C 0.49895 0.35803 0.24254 0.0
C511 C 0.54952 0.46497 0.25267 0.0
C512 C 0.30433 0.05044 0.29866 0.0
N513 N 0.31407 0.09 0.31825 0.0
C514 C 0.24534 0.00674 0.29167 0.0
C515 C 0.19615 1.00362 0.30493 0.0
C516 C 0.20645 0.04404 0.32494 0.0
C517 C 0.26606 0.08718 0.33137 0.0
C518 C 0.34287 0.04588 0.39481 0.0
C519 C 0.39657 0.16781 0.38176 0.0
C520 C 0.35396 0.06456 0.36926 0.0
N521 N 0.3804 0.12489 0.36301 0.0
C522 C 0.38611 0.15083 0.40752 0.0
C523 C 0.35908 0.08941 0.41403 0.0
C524 C 0.51725 0.26486 0.32878 0.0
C525 C 0.53141 0.18824 0.23055 0.0
C526 C 0.56864 0.29166 0.25993 0.0
C527 C 0.61149 0.28492 0.24563 0.0
C528 C 0.59258 0.2329 0.23078 0.0
N529 N 0.50846 0.24809 0.25938 0.0
C530 C 0.48987 0.19654 0.24511 0.0
Co531 Co 0.26619 0.43051 0.66359 0.0
Co532 Co 0.19962 0.44837 0.61038 0.0
O533 O 0.25298 0.42452 0.6269 0.0
C534 C 0.39192 0.49806 0.64362 0.0
O535 O 0.37614 0.53313 0.63133 0.0
C536 C 0.13534 0.35043 0.5709 0.0
O537 O 0.08313 0.34313 0.57909 0.0
O538 O 0.12977 0.38868 0.63269 0.0
O539 O 0.17891 0.40611 0.67028 0.0
H540 H 0.04481 0.51565 0.60767 0.0
H541 H 0.30128 0.35487 0.63248 0.0
O542 O 0.35329 0.45428 0.65743 0.0
H543 H 0.15255 0.21418 0.69558 0.0
H544 H 0.35223 0.39993 0.74525 0.0
H545 H 0.23722 0.48858 0.70655 0.0
H546 H 0.18241 0.32292 0.69534 0.0
H547 H 0.33137 0.39037 0.69889 0.0
O548 O 0.18377 0.38535 0.58321 0.0
H549 H 0.10416 0.4747 0.62787 0.0
H550 H 0.18108 0.47237 0.55582 0.0
H551 H 0.25666 0.49896 0.75298 0.0
H552 H 0.27321 0.24657 0.63223 0.0
H553 H 0.31443 0.45423 0.77266 0.0
H554 H 0.1983 0.17542 0.66394 0.0
O555 O 0.28799 0.51774 0.66314 0.0
H556 H 0.3864 0.51797 0.55572 0.0
H557 H 0.25046 0.57985 0.59663 0.0
H558 H 0.33811 0.65475 0.57135 0.0
H559 H 0.40649 0.62383 0.55042 0.0
H560 H 0.29917 0.44505 0.58176 0.0
H561 H 0.11894 0.50903 0.53459 0.0
H562 H 0.05078 0.53196 0.56061 0.0
O563 O 0.21746 0.51337 0.63641 0.0
C564 C 0.12982 0.3856 0.65732 0.0
C565 C 0.07316 0.5046 0.59602 0.0
C566 C 0.11536 0.50157 0.55506 0.0
N567 N 0.14629 0.47134 0.59314 0.0
C568 C 0.10732 0.48181 0.6074 0.0
C569 C 0.15012 0.48038 0.5672 0.0
C570 C 0.07708 0.51432 0.56966 0.0
C571 C 0.26897 0.32426 0.64645 0.0
N572 N 0.24383 0.34526 0.664 0.0
C573 C 0.25311 0.26295 0.64616 0.0
C574 C 0.21101 0.22304 0.66394 0.0
C575 C 0.18531 0.24475 0.68169 0.0
C576 C 0.20225 0.30633 0.68141 0.0
C577 C 0.32652 0.41911 0.73695 0.0
C578 C 0.26162 0.46828 0.71501 0.0
C579 C 0.31443 0.41371 0.71072 0.0
N580 N 0.2815 0.43733 0.70014 0.0
C581 C 0.27286 0.47464 0.7413 0.0
C582 C 0.30535 0.44963 0.75231 0.0
C583 C 0.25787 0.5407 0.65352 0.0
C584 C 0.35662 0.53186 0.56453 0.0
C585 C 0.28011 0.56602 0.58776 0.0
C586 C 0.32963 0.60865 0.57338 0.0
C587 C 0.36796 0.59128 0.56163 0.0
N588 N 0.26865 0.50748 0.59021 0.0
C589 C 0.30671 0.49052 0.57909 0.0
Co590 Co 0.86484 0.25936 0.99636 0.0
Co591 Co 0.75812 0.20613 0.94752 0.0
O592 O 0.84208 0.25091 0.95994 0.0
C593 C 0.92389 0.3863 0.97707 0.0
O594 O 0.87434 0.37115 0.96403 0.0
C595 C 0.83256 0.18094 0.90868 0.0
O596 O 0.88102 0.20779 0.92314 0.0
O597 O 0.74192 0.13278 0.96851 0.0
O598 O 0.8018 0.17246 1.0031 0.0
H599 H 0.53193 0.09544 0.95944 0.0
H600 H 0.96356 0.29931 0.95772 0.0
O601 O 0.92799 0.34703 0.9908 0.0
H602 H 0.96613 0.13305 1.00558 0.0
H603 H 0.01445 0.33371 0.06902 0.0
H604 H 0.79791 0.21807 0.04564 0.0
H605 H 0.89229 0.16575 1.01656 0.0
H606 H 0.98346 0.32061 0.02374 0.0
O607 O 0.78172 0.17328 0.91682 0.0
H608 H 0.63804 0.13729 0.97319 0.0
H609 H 0.6985 0.18059 0.89607 0.0
H610 H 0.82674 0.22945 0.09117 0.0
H611 H 0.03881 0.26869 0.94637 0.0
H612 H 0.93582 0.28776 0.10311 0.0
H613 H 0.04025 0.1848 0.97032 0.0
O614 O 0.80466 0.28471 1.0058 0.0
H615 H 0.87801 0.38401 0.88802 0.0
H616 H 0.68999 0.27198 0.93881 0.0
H617 H 0.70718 0.36128 0.91364 0.0
H618 H 0.80149 0.41767 0.88775 0.0
H619 H 0.85988 0.29579 0.91396 0.0
H620 H 0.59272 0.13546 0.88139 0.0
H621 H 0.50869 0.09483 0.91327 0.0
O622 O 0.73088 0.23791 0.97661 0.0
C623 C 0.75918 0.12782 0.99101 0.0
C624 C 0.56819 0.1134 0.94538 0.0
C625 C 0.6023 0.13576 0.90158 0.0
N626 N 0.67465 0.16218 0.93554 0.0
C627 C 0.62841 0.13724 0.95305 0.0
C628 C 0.66213 0.16044 0.91 0.0
C629 C 0.55519 0.11303 0.91947 0.0
C630 C 0.96423 0.26314 0.96838 0.0
N631 N 0.92345 0.23428 0.98772 0.0
C632 C 1.00679 0.24582 0.96179 0.0
C633 C 1.00751 0.19869 0.97521 0.0
C634 C 0.96588 0.16957 0.99497 0.0
C635 C 0.92394 0.18808 1.001 0.0
C636 C 0.96679 0.30814 0.06407 0.0
C637 C 0.84534 0.24314 0.05069 0.0
C638 C 0.94893 0.30067 0.03846 0.0
N639 N 0.88881 0.26833 0.03204 0.0
C640 C 0.86146 0.24959 0.0765 0.0
C641 C 0.92265 0.28234 0.08319 0.0
C642 C 0.75239 0.26933 0.99685 0.0
C643 C 0.83643 0.35944 0.89901 0.0
C644 C 0.73134 0.29632 0.92775 0.0
C645 C 0.74072 0.34684 0.91345 0.0
C646 C 0.79359 0.37843 0.89892 0.0
N647 N 0.77317 0.27734 0.92754 0.0
C648 C 0.8255 0.30874 0.91357 0.0
Co649 Co 0.58545 0.83499 0.32886 0.0
Co650 Co 0.55125 0.73796 0.27733 0.0
O651 O 0.5814 0.81969 0.29175 0.0
C652 C 0.52066 0.89602 0.30824 0.0
O653 O 0.49134 0.84967 0.29275 0.0
C654 C 0.65157 0.82436 0.24092 0.0
O655 O 0.66641 0.87108 0.25601 0.0
O656 O 0.61044 0.72686 0.29869 0.0
O657 O 0.61061 0.77266 0.33551 0.0
H658 H 0.46647 0.51201 0.28305 0.0
H659 H 0.65203 0.94099 0.29429 0.0
O660 O 0.56017 0.8977 0.32364 0.0
H661 H 0.80861 0.94065 0.34964 0.0
H662 H 0.63353 0.96673 0.40729 0.0
H663 H 0.54738 0.75669 0.37517 0.0
H664 H 0.70079 0.86247 0.35491 0.0
H665 H 0.63089 0.94677 0.36097 0.0
O666 O 0.61138 0.77084 0.24791 0.0
H667 H 0.51204 0.61641 0.29988 0.0
H668 H 0.52689 0.6854 0.22447 0.0
H669 H 0.54957 0.77463 0.42164 0.0
H670 H 0.7593 0.02052 0.28856 0.0
H671 H 0.59279 0.88029 0.43798 0.0
H672 H 0.83847 0.02056 0.31632 0.0
O673 O 0.49865 0.77163 0.33331 0.0
H674 H 0.48291 0.84993 0.21848 0.0
H675 H 0.41903 0.66015 0.26657 0.0
H676 H 0.34402 0.67062 0.24071 0.0
H677 H 0.37588 0.76579 0.21616 0.0
H678 H 0.55582 0.83833 0.2451 0.0
H679 H 0.48405 0.58194 0.20678 0.0
H680 H 0.45196 0.49405 0.23619 0.0
O681 O 0.48899 0.70084 0.30517 0.0
C682 C 0.62297 0.73744 0.32254 0.0
C683 C 0.4801 0.54982 0.27003 0.0
C684 C 0.48995 0.58909 0.22724 0.0
N685 N 0.5216 0.65701 0.26325 0.0
C686 C 0.50576 0.6091 0.27947 0.0
C687 C 0.51476 0.6477 0.23738 0.0
C688 C 0.47195 0.53982 0.24374 0.0
C689 C 0.68618 0.94091 0.30652 0.0
N690 N 0.67016 0.897 0.32482 0.0
C691 C 0.74687 0.98596 0.30315 0.0
C692 C 0.79127 0.98591 0.31871 0.0
C693 C 0.77456 0.94104 0.33739 0.0
C694 C 0.71344 0.89669 0.34019 0.0
C695 C 0.61469 0.9205 0.40041 0.0
C696 C 0.56675 0.80285 0.38213 0.0
C697 C 0.61297 0.9089 0.3742 0.0
N698 N 0.58929 0.85063 0.36537 0.0
C699 C 0.56768 0.8127 0.40847 0.0
C700 C 0.59185 0.87198 0.41762 0.0
C701 C 0.4695 0.71807 0.32409 0.0
C702 C 0.4686 0.80794 0.22885 0.0
C703 C 0.4334 0.70192 0.25612 0.0
C704 C 0.39063 0.70748 0.24142 0.0
C705 C 0.40852 0.76083 0.22763 0.0
N706 N 0.4926 0.74795 0.25697 0.0
C707 C 0.5101 0.80075 0.24377 0.0
C708 C 0.29964 0.95892 0.02811 0.0
C709 C 0.3055 0.95829 1.00116 0.0
C710 C 0.32949 0.01321 0.04241 0.0
C711 C 0.36648 0.06982 0.0305 0.0
H712 H 0.27175 0.91695 0.03848 0.0
H713 H 0.3228 0.01074 0.06295 0.0
S714 S 0.4003 0.0938 0.96064 0.0
N715 N 0.35335 0.01988 0.96337 0.0
N716 N 0.40931 0.12113 0.98997 0.0
C717 C 0.37333 0.06982 1.00359 0.0
C718 C 0.34299 0.01451 0.98904 0.0
C719 C 0.29078 0.29505 0.37632 0.0
C720 C 0.28502 0.34289 0.36587 0.0
C721 C 0.31664 0.26639 0.36207 0.0
C722 C 0.33867 0.28474 0.33678 0.0
H723 H 0.27391 0.27868 0.39544 0.0
H724 H 0.31926 0.22937 0.37111 0.0
S725 S 0.33892 0.41223 0.30165 0.0
N726 N 0.30688 0.41016 0.32945 0.0
N727 N 0.3551 0.35678 0.30267 0.0
C728 C 0.33435 0.33373 0.32642 0.0
C729 C 0.30771 0.36258 0.34093 0.0
C730 C 0.96011 0.29361 0.67483 0.0
C731 C 0.9589 0.3042 0.70141 0.0
C732 C 0.01483 0.32036 0.66062 0.0
C733 C 0.07119 0.35867 0.67229 0.0
H734 H 0.91831 0.26431 0.66474 0.0
H735 H 0.0129 0.31026 0.64038 0.0
S736 S 0.09351 0.40406 0.74106 0.0
N737 N 0.01965 0.3579 0.73846 0.0
N738 N 0.12139 0.40769 0.71216 0.0
C739 C 0.07042 0.37024 0.69879 0.0
C740 C 0.01481 0.34325 0.7132 0.0
C741 C 0.69667 0.01002 0.04502 0.0
C742 C 0.67257 0.95378 0.03222 0.0
C743 C 0.72432 0.06558 0.03153 0.0
C744 C 0.72815 0.06773 1.00453 0.0
H745 H 0.69477 0.01138 0.06571 0.0
H746 H 0.7424 0.10731 0.04245 0.0
S747 S 0.67175 0.93424 0.96145 0.0
N748 N 0.65519 0.90465 0.99048 0.0
N749 N 0.70499 0.00863 0.96548 0.0
C750 C 0.70352 0.01211 0.99141 0.0
C751 C 0.67651 0.95547 1.00513 0.0
C752 C 0.66306 0.71588 0.36312 0.0
C753 C 0.65168 0.70649 0.33652 0.0
C754 C 0.68872 0.6867 0.37701 0.0
C755 C 0.70484 0.64708 0.36498 0.0
H756 H 0.65202 0.74612 0.3735 0.0
H757 H 0.69681 0.69607 0.39728 0.0
S758 S 0.6817 0.60363 0.2961 0.0
N759 N 0.65685 0.6523 0.29903 0.0
N760 N 0.70467 0.59786 0.32491 0.0
C761 C 0.693 0.63662 0.33848 0.0
C762 C 0.66664 0.6661 0.32436 0.0
C763 C 0.96013 0.66429 0.69498 0.0
C764 C 0.95857 0.67003 0.66816 0.0
C765 C 0.01508 0.6926 0.70865 0.0
C766 C 0.07112 0.72916 0.69622 0.0
H767 H 0.91843 0.63708 0.70559 0.0
H768 H 0.0134 0.6861 0.72919 0.0
S769 S 0.09179 0.75919 0.62603 0.0
N770 N 0.01781 0.71432 0.62963 0.0
N771 N 0.12069 0.76911 0.65504 0.0
C772 C 0.06996 0.73536 0.66931 0.0
C773 C 0.01399 0.70537 0.65537 0.0
C774 C 0.68949 0.25059 0.03573 0.0
C775 C 0.71032 0.28059 1.01221 0.0
C776 C 0.63923 0.24796 0.04806 0.0
C777 C 0.60781 0.27546 0.0374 0.0
H778 H 0.70951 0.22548 0.04388 0.0
H779 H 0.62346 0.22167 0.06556 0.0
S780 S 0.65093 0.36725 0.9776 0.0
N781 N 0.7005 0.34339 0.97978 0.0
N782 N 0.6066 0.33992 1.00306 0.0
C783 C 0.63127 0.30947 1.01469 0.0
C784 C 0.6822 0.31143 1.00202 0.0
C785 C 0.32808 0.566 0.33774 0.0
C786 C 0.31002 0.57412 0.36211 0.0
C787 C 0.37808 0.61354 0.32526 0.0
C788 C 0.41208 0.67155 0.33659 0.0
H789 H 0.30578 0.52173 0.32877 0.0
H790 H 0.39132 0.60365 0.30695 0.0
S791 S 0.3779 0.71775 0.39922 0.0
N792 N 0.32588 0.64513 0.39636 0.0
N793 N 0.41974 0.73537 0.37296 0.0
C794 C 0.39202 0.68116 0.36044 0.0
C795 C 0.34121 0.63222 0.37322 0.0
C796 C 0.78214 0.40324 0.71355 0.0
C797 C 0.75533 0.34389 0.70323 0.0
C798 C 0.77928 0.45029 0.70082 0.0
C799 C 0.74972 0.44012 0.67723 0.0
H800 H 0.80788 0.41449 0.73114 0.0
H801 H 0.8037 0.49572 0.70877 0.0
S802 S 0.66613 0.29291 0.64304 0.0
N803 N 0.69315 0.27703 0.66879 0.0
N804 N 0.68871 0.36623 0.64491 0.0
C805 C 0.71998 0.38082 0.66725 0.0
C806 C 0.72237 0.3325 0.68027 0.0
C807 C 0.33928 0.71509 1.01558 0.0
C808 C 0.35325 0.76539 0.99959 0.0
C809 C 0.38508 0.71097 0.02898 0.0
C810 C 0.44606 0.7571 0.02683 0.0
H811 H 0.29257 0.67927 1.01818 0.0
H812 H 0.37255 0.67285 0.04176 0.0
S813 S 0.50764 0.89826 0.98835 0.0
N814 N 0.43401 0.86178 0.98264 0.0
N815 N 0.51849 0.85429 1.00828 0.0
C816 C 0.4608 0.80683 1.01085 0.0
C817 C 0.41483 0.81085 0.99705 0.0
C818 C 0.56095 0.32711 0.36775 0.0
C819 C 0.57022 0.3064 0.34422 0.0
C820 C 0.6089 0.37643 0.3803 0.0
C821 C 0.66817 0.40685 0.36984 0.0
H822 H 0.51566 0.3076 0.37577 0.0
H823 H 0.59852 0.39226 0.39783 0.0
S824 S 0.71676 0.36319 0.31008 0.0
N825 N 0.64297 0.31503 0.31197 0.0
N826 N 0.73396 0.40702 0.33566 0.0
C827 C 0.67859 0.38336 0.34709 0.0
C828 C 0.62935 0.33347 0.33421 0.0
C829 C 0.30705 0.62846 0.68446 0.0
C830 C 0.26622 0.59906 0.66412 0.0
C831 C 0.31002 0.67913 0.69684 0.0
C832 C 0.273 0.70269 0.68909 0.0
H833 H 0.33521 0.61082 0.69161 0.0
H834 H 0.33944 0.69831 0.71329 0.0
S835 S 0.15875 0.64403 0.63728 0.0
N836 N 0.18934 0.59997 0.63655 0.0
N837 N 0.1937 0.69291 0.66062 0.0
C838 C 0.23333 0.67512 0.66857 0.0
C839 C 0.23044 0.62405 0.65581 0.0
C840 C 0.33739 0.12621 0.17138 0.0
C841 C 0.34496 0.17581 0.15651 0.0
C842 C 0.33529 0.12757 0.19829 0.0
C843 C 0.34261 0.17941 0.21145 0.0
H844 H 0.33528 0.08688 0.16217 0.0
H845 H 0.33189 0.08921 0.20884 0.0
S846 S 0.36243 0.32093 0.18154 0.0
N847 N 0.35707 0.27728 0.15705 0.0
N848 N 0.35552 0.28067 0.20745 0.0
C849 C 0.34825 0.22851 0.19679 0.0
C850 C 0.34879 0.2265 0.1694 0.0
C851 C 0.10347 0.3171 0.49975 0.0
C852 C 0.16058 0.33091 0.48974 0.0
C853 C 0.09414 0.31876 0.52626 0.0
C854 C 0.14137 0.33382 0.54393 0.0
H855 H 0.06674 0.30908 0.48697 0.0
H856 H 0.05059 0.31191 0.53271 0.0
S857 S 0.29588 0.36157 0.52781 0.0
N858 N 0.26252 0.3521 0.49978 0.0
N859 N 0.24465 0.35314 0.54943 0.0
C860 C 0.19694 0.34203 0.53423 0.0
C861 C 0.20664 0.3412 0.50724 0.0
C862 C 0.89173 0.2196 0.86779 0.0
C863 C 0.83943 0.17511 0.88068 0.0
C864 C 0.89432 0.22301 0.8409 0.0
C865 C 0.84557 0.18093 0.82579 0.0
H866 H 0.92942 0.25461 0.87854 0.0
H867 H 0.9339 0.26027 0.83186 0.0
S868 S 0.69988 0.05322 0.85012 0.0
N869 N 0.73874 0.08672 0.87623 0.0
N870 N 0.74449 0.09145 0.82583 0.0
C871 C 0.79449 0.13403 0.83843 0.0
C872 C 0.7912 0.13158 0.8658 0.0
C873 C 0.6732 0.88984 0.17385 0.0
C874 C 0.67276 0.84402 0.15845 0.0
C875 C 0.6716 0.88565 0.20073 0.0
C876 C 0.66755 0.8345 0.21323 0.0
H877 H 0.67252 0.92815 0.16502 0.0
H878 H 0.66935 0.92081 0.21167 0.0
S879 S 0.6663 0.70259 0.18177 0.0
N880 N 0.67077 0.74711 0.15781 0.0
N881 N 0.66552 0.73824 0.20812 0.0
C882 C 0.66915 0.7894 0.19808 0.0
C883 C 0.67233 0.7944 0.17076 0.0
C884 C 0.80225 0.67639 0.53157 0.0
C885 C 0.8467 0.66792 0.54394 0.0
C886 C 0.7975 0.67478 0.50473 0.0
C887 C 0.83818 0.66661 0.48915 0.0
H888 H 0.7683 0.68032 0.5427 0.0
H889 H 0.76032 0.67773 0.49612 0.0
S890 S 0.9652 0.64627 0.51198 0.0
N891 N 0.9336 0.65339 0.53846 0.0
N892 N 0.92629 0.65277 0.48815 0.0
C893 C 0.88503 0.66168 0.50124 0.0
C894 C 0.88886 0.6617 0.52858 0.0
C895 C 0.12654 0.78108 0.86403 0.0
C896 C 0.17259 0.83257 0.87668 0.0
C897 C 0.12434 0.77736 0.83714 0.0
C898 C 0.16692 0.82566 0.82182 0.0
H899 H 0.09438 0.74163 0.87494 0.0
H900 H 0.09032 0.73547 0.82827 0.0
S901 S 0.29423 0.97198 0.84543 0.0
N902 N 0.26035 0.93375 0.87173 0.0
N903 N 0.25492 0.92769 0.82135 0.0
C904 C 0.21103 0.87874 0.83421 0.0
C905 C 0.21418 0.88193 0.86156 0.0
C906 C 0.52906 0.54224 0.04395 0.0
C907 C 0.53119 0.57215 0.06692 0.0
C908 C 0.51592 0.48158 0.04396 0.0
C909 C 0.5066 0.44949 0.06701 0.0
H910 H 0.53661 0.5656 0.02578 0.0
H911 H 0.51395 0.45991 0.02581 0.0
S912 S 0.50874 0.50769 0.13233 0.0
N913 N 0.5226 0.56531 0.11329 0.0
N914 N 0.50079 0.45189 0.11339 0.0
C915 C 0.50958 0.4791 0.09015 0.0
C916 C 0.52106 0.54034 0.09009 0.0
C917 C 0.967 0.49627 0.37447 0.0
C918 C 0.94495 0.50619 0.39762 0.0
C919 C 0.0146 0.48336 0.37419 0.0
C920 C 0.04319 0.48214 0.39699 0.0
H921 H 0.94663 0.49752 0.35645 0.0
H922 H 0.02978 0.47519 0.35597 0.0
S923 S 1.00333 0.50667 0.46256 0.0
N924 N 0.9548 0.51372 0.4439 0.0
N925 N 0.04644 0.49234 0.4433 0.0
C926 C 0.02225 0.49298 0.42024 0.0
C927 C 0.97245 0.50421 0.42058 0.0
C928 C 0.54675 0.01852 0.75544 0.0
C929 C 0.57617 0.05654 0.73431 0.0
C930 C 0.48607 0.9712 0.75387 0.0
C931 C 0.4523 0.96155 0.73136 0.0
H932 H 0.57107 0.02473 0.7732 0.0
H933 H 0.46517 0.94266 0.77051 0.0
S934 S 0.50815 0.04877 0.67074 0.0
N935 N 0.56709 0.08098 0.69015 0.0
N936 N 0.45278 0.99351 0.68745 0.0
C937 C 0.48107 0.99958 0.71019 0.0
C938 C 0.54311 0.04668 0.71159 0.0
C939 C 0.52647 0.47174 0.64425 0.0
C940 C 0.57657 0.53103 0.64222 0.0
C941 C 0.46683 0.46146 0.64455 0.0
C942 C 0.45509 0.50994 0.64213 0.0
H943 H 0.53336 0.4331 0.6464 0.0
H944 H 0.42963 0.41517 0.6467 0.0
S945 S 0.57031 0.67348 0.635 0.0
N946 N 0.61043 0.63874 0.63715 0.0
N947 N 0.49842 0.6192 0.63689 0.0
C948 C 0.50468 0.56922 0.63928 0.0
C949 C 0.56541 0.57983 0.63957 0.0
C950 C 0.04414 0.54101 0.95205 0.0
C951 C 0.07388 0.57173 0.97456 0.0
C952 C 0.99471 0.48114 0.95299 0.0
C953 C 0.97501 0.44957 0.97637 0.0
H954 H 0.05827 0.56387 0.9337 0.0
H955 H 0.97235 0.4591 0.9353 0.0
S956 S 0.03893 0.50947 0.04053 0.0
N957 N 0.08017 0.56641 0.02078 0.0
N958 N 0.98933 0.45317 0.02242 0.0
C959 C 1.00519 0.4795 0.9989 0.0
C960 C 0.05412 0.54084 0.99803 0.0
C961 C 0.50407 0.97334 0.28546 0.0
C962 C 0.50686 0.9461 0.30847 0.0
C963 C 0.49277 0.02231 0.28556 0.0
C964 C 0.48177 0.04395 0.30862 0.0
H965 H 0.51174 0.95741 0.26733 0.0
H966 H 0.49147 0.04257 0.2675 0.0
S967 S 0.48273 0.98709 0.37387 0.0
N968 N 0.49817 0.94448 0.35482 0.0
N969 N 0.47406 0.03432 0.35494 0.0
C970 C 0.48358 0.01643 0.33167 0.0
C971 C 0.49691 0.96804 0.33162 0.0
loop_
_geom_bond_atom_site_label_1
_geom_bond_atom_site_label_2
_geom_bond_distance
_geom_bond_site_symmetry_2
_ccdc_geom_bond_type
Co0 O2 2.143 . S
Co0 O8 2.074 . S
Co0 O11 2.093 . S
Co0 O24 2.097 . S
Co0 N41 2.151 . S
Co0 N49 2.214 1_554 S
Co1 O2 2.160 . S
Co1 O7 2.058 . S
Co1 O17 2.057 . S
Co1 O32 2.037 . S
Co1 N36 2.145 . S
Co1 N57 2.257 . S
O2 Co0 2.143 . S
O2 Co1 2.160 . S
C3 O4 1.278 . S
C3 O11 1.224 . S
O4 C3 1.278 . S
C5 O6 1.245 . S
C5 O17 1.232 . S
O6 C5 1.245 . S
O7 Co1 2.058 . S
O7 C33 1.269 . S
O8 Co0 2.074 . S
O8 C33 1.257 . S
H9 C34 0.930 . S
H10 C40 0.930 . S
O11 Co0 2.093 . S
O11 C3 1.224 . S
H12 C44 0.929 . S
H13 C46 0.930 . S
H14 C47 0.930 . S
H15 C45 0.929 1_556 S
H16 C48 0.928 . S
O17 Co1 2.057 . S
O17 C5 1.232 . S
H18 C37 0.929 . S
H19 C38 0.929 . S
H20 C50 0.931 . S
H21 C42 0.929 . S
H22 C51 0.930 . S
H23 C43 0.931 . S
O24 Co0 2.097 . S
O24 C52 1.214 . S
H25 C53 0.929 . S
H26 C54 0.929 . S
H27 C55 0.930 . S
H28 C56 0.929 . S
H29 C58 0.930 . S
H30 C35 0.930 . S
H31 C39 0.930 . S
O32 Co1 2.037 . S
O32 C52 1.234 . S
C33 O7 1.269 . S
C33 O8 1.257 . S
C34 H9 0.930 . S
C34 C37 1.388 . S
C34 C39 1.418 . S
C35 H30 0.930 . S
C35 C38 1.404 . S
C35 C39 1.353 . S
N36 Co1 2.145 . S
N36 C37 1.397 . S
N36 C38 1.334 . S
C37 H18 0.929 . S
C37 C34 1.388 . S
C37 N36 1.397 . S
C38 H19 0.929 . S
C38 C35 1.404 . S
C38 N36 1.334 . S
C39 H31 0.930 . S
C39 C34 1.418 . S
C39 C35 1.353 . S
C40 H10 0.930 . S
C40 N41 1.330 . S
C40 C42 1.446 . S
N41 Co0 2.151 . S
N41 C40 1.330 . S
N41 C45 1.418 . S
C42 H21 0.929 . S
C42 C40 1.446 . S
C42 C43 1.332 . S
C43 H23 0.931 . S
C43 C42 1.332 . S
C43 C44 1.267 . S
C44 H12 0.929 . S
C44 C43 1.267 . S
C44 C45 1.251 . S
C45 H15 0.929 1_554 S
C45 N41 1.418 . S
C45 C44 1.251 . S
C46 H13 0.930 . S
C46 C48 1.406 . S
C46 C51 1.261 . S
C47 H14 0.930 . S
C47 N49 1.325 . S
C47 C50 1.357 . S
C48 H16 0.928 . S
C48 C46 1.406 . S
C48 N49 1.261 . S
N49 Co0 2.214 1_556 S
N49 C47 1.325 . S
N49 C48 1.261 . S
C50 H20 0.931 . S
C50 C47 1.357 . S
C50 C51 1.312 . S
C51 H22 0.930 . S
C51 C46 1.261 . S
C51 C50 1.312 . S
C52 O24 1.214 . S
C52 O32 1.234 . S
C53 H25 0.929 . S
C53 C56 1.391 . S
C53 C58 1.391 . S
C54 H26 0.929 . S
C54 C55 1.390 . S
C54 N57 1.391 . S
C55 H27 0.930 . S
C55 C54 1.390 . S
C55 C56 1.392 . S
C56 H28 0.929 . S
C56 C53 1.391 . S
C56 C55 1.392 . S
N57 Co1 2.257 . S
N57 C54 1.391 . S
N57 C58 1.388 . S
C58 H29 0.930 . S
C58 C53 1.391 . S
C58 N57 1.388 . S
Co59 O61 2.143 . S
Co59 O67 2.074 . S
Co59 O70 2.093 . S
Co59 O83 2.097 . S
Co59 N100 2.151 . S
Co59 N108 2.214 . S
Co60 O61 2.160 . S
Co60 O66 2.058 . S
Co60 O76 2.057 . S
Co60 O91 2.037 . S
Co60 N95 2.145 . S
Co60 N116 2.257 . S
O61 Co59 2.143 . S
O61 Co60 2.160 . S
C62 O63 1.278 . S
C62 O70 1.224 . S
O63 C62 1.278 . S
C64 O65 1.245 . S
C64 O76 1.232 . S
O65 C64 1.245 . S
O66 Co60 2.058 . S
O66 C92 1.269 . S
O67 Co59 2.074 . S
O67 C92 1.257 . S
H68 C93 0.930 . S
H69 C99 0.930 . S
O70 Co59 2.093 . S
O70 C62 1.224 . S
H71 C103 0.935 1_655 S
H72 C105 0.930 . S
H73 C106 0.930 . S
H74 C104 0.929 . S
H75 C107 0.928 . S
O76 Co60 2.057 . S
O76 C64 1.232 . S
H77 C96 0.929 . S
H78 C97 0.929 . S
H79 C109 0.931 . S
H80 C101 0.929 . S
H81 C110 0.930 . S
H82 C102 0.931 . S
O83 Co59 2.097 . S
O83 C111 1.214 . S
H84 C112 0.929 . S
H85 C113 0.929 . S
H86 C114 0.930 . S
H87 C115 0.929 . S
H88 C117 0.930 . S
H89 C94 0.930 . S
H90 C98 0.930 . S
O91 Co60 2.037 . S
O91 C111 1.234 . S
C92 O66 1.269 . S
C92 O67 1.257 . S
C93 H68 0.930 . S
C93 C96 1.388 . S
C93 C98 1.418 . S
C94 H89 0.930 . S
C94 C97 1.404 . S
C94 C98 1.353 . S
N95 Co60 2.145 . S
N95 C96 1.397 . S
N95 C97 1.334 . S
C96 H77 0.929 . S
C96 C93 1.388 . S
C96 N95 1.397 . S
C97 H78 0.929 . S
C97 C94 1.404 . S
C97 N95 1.334 . S
C98 H90 0.930 . S
C98 C93 1.418 . S
C98 C94 1.353 . S
C99 H69 0.930 . S
C99 N100 1.330 . S
C99 C101 1.446 1_455 S
N100 Co59 2.151 . S
N100 C99 1.330 . S
N100 C104 1.418 . S
C101 H80 0.929 . S
C101 C99 1.446 1_655 S
C101 C102 1.332 . S
C102 H82 0.931 . S
C102 C101 1.332 . S
C102 C103 1.254 1_655 S
C103 H71 0.935 1_455 S
C103 C102 1.254 1_455 S
C103 C104 1.259 . S
C104 H74 0.929 . S
C104 N100 1.418 . S
C104 C103 1.259 . S
C105 H72 0.930 . S
C105 C107 1.406 . S
C105 C110 1.261 . S
C106 H73 0.930 . S
C106 N108 1.325 . S
C106 C109 1.357 . S
C107 H75 0.928 . S
C107 C105 1.406 . S
C107 N108 1.261 . S
N108 Co59 2.214 . S
N108 C106 1.325 . S
N108 C107 1.261 . S
C109 H79 0.931 . S
C109 C106 1.357 . S
C109 C110 1.312 . S
C110 H81 0.930 . S
C110 C105 1.261 . S
C110 C109 1.312 . S
C111 O83 1.214 . S
C111 O91 1.234 . S
C112 H84 0.929 . S
C112 C115 1.391 . S
C112 C117 1.391 . S
C113 H85 0.929 . S
C113 C114 1.390 . S
C113 N116 1.391 . S
C114 H86 0.930 . S
C114 C113 1.390 . S
C114 C115 1.392 . S
C115 H87 0.929 . S
C115 C112 1.391 . S
C115 C114 1.392 . S
N116 Co60 2.257 . S
N116 C113 1.391 . S
N116 C117 1.388 . S
C117 H88 0.930 . S
C117 C112 1.391 . S
C117 N116 1.388 . S
Co118 O120 2.143 . S
Co118 O126 2.074 . S
Co118 O129 2.093 . S
Co118 O142 2.097 . S
Co118 N159 2.151 . S
Co118 N167 2.214 . S
Co119 O120 2.160 . S
Co119 O125 2.058 . S
Co119 O135 2.057 . S
Co119 O150 2.037 . S
Co119 N154 2.145 . S
Co119 N175 2.257 . S
O120 Co118 2.143 . S
O120 Co119 2.160 . S
C121 O122 1.278 . S
C121 O129 1.224 . S
O122 C121 1.278 . S
C123 O124 1.245 . S
C123 O135 1.232 . S
O124 C123 1.245 . S
O125 Co119 2.058 . S
O125 C151 1.269 . S
O126 Co118 2.074 . S
O126 C151 1.257 . S
H127 C152 0.930 . S
H128 C158 0.930 . S
O129 Co118 2.093 . S
O129 C121 1.224 . S
H130 C162 0.921 1_565 S
H131 C164 0.930 . S
H132 C165 0.930 . S
H133 C163 0.929 . S
H134 C166 0.928 . S
O135 Co119 2.057 . S
O135 C123 1.232 . S
H136 C155 0.929 . S
H137 C156 0.929 . S
H138 C168 0.931 . S
H139 C160 0.929 . S
H140 C169 0.930 . S
H141 C161 0.931 . S
O142 Co118 2.097 . S
O142 C170 1.214 . S
H143 C171 0.929 . S
H144 C172 0.929 . S
H145 C173 0.930 . S
H146 C174 0.929 . S
H147 C176 0.930 . S
H148 C153 0.930 . S
H149 C157 0.930 . S
O150 Co119 2.037 . S
O150 C170 1.234 . S
C151 O125 1.269 . S
C151 O126 1.257 . S
C152 H127 0.930 . S
C152 C155 1.388 . S
C152 C157 1.418 . S
C153 H148 0.930 . S
C153 C156 1.404 . S
C153 C157 1.353 . S
N154 Co119 2.145 . S
N154 C155 1.397 . S
N154 C156 1.334 . S
C155 H136 0.929 . S
C155 C152 1.388 . S
C155 N154 1.397 . S
C156 H137 0.929 . S
C156 C153 1.404 . S
C156 N154 1.334 . S
C157 H149 0.930 . S
C157 C152 1.418 . S
C157 C153 1.353 . S
C158 H128 0.930 . S
C158 N159 1.330 . S
C158 C160 1.446 1_545 S
N159 Co118 2.151 . S
N159 C158 1.330 . S
N159 C163 1.418 . S
C160 H139 0.929 . S
C160 C158 1.446 1_565 S
C160 C161 1.332 . S
C161 H141 0.931 . S
C161 C160 1.332 . S
C161 C162 1.259 1_565 S
C162 H130 0.921 1_545 S
C162 C161 1.259 1_545 S
C162 C163 1.267 . S
C163 H133 0.929 . S
C163 N159 1.418 . S
C163 C162 1.267 . S
C164 H131 0.930 . S
C164 C166 1.406 . S
C164 C169 1.261 . S
C165 H132 0.930 . S
C165 N167 1.325 . S
C165 C168 1.357 . S
C166 H134 0.928 . S
C166 C164 1.406 . S
C166 N167 1.261 . S
N167 Co118 2.214 . S
N167 C165 1.325 . S
N167 C166 1.261 . S
C168 H138 0.931 . S
C168 C165 1.357 . S
C168 C169 1.312 . S
C169 H140 0.930 . S
C169 C164 1.261 . S
C169 C168 1.312 . S
C170 O142 1.214 . S
C170 O150 1.234 . S
C171 H143 0.929 . S
C171 C174 1.391 . S
C171 C176 1.391 . S
C172 H144 0.929 . S
C172 C173 1.390 . S
C172 N175 1.391 . S
C173 H145 0.930 . S
C173 C172 1.390 . S
C173 C174 1.392 . S
C174 H146 0.929 . S
C174 C171 1.391 . S
C174 C173 1.392 . S
N175 Co119 2.257 . S
N175 C172 1.391 . S
N175 C176 1.388 . S
C176 H147 0.930 . S
C176 C171 1.391 . S
C176 N175 1.388 . S
Co177 O179 2.143 . S
Co177 O185 2.074 . S
Co177 O188 2.093 . S
Co177 O201 2.097 . S
Co177 N218 2.151 . S
Co177 N226 2.214 1_554 S
Co178 O179 2.160 . S
Co178 O184 2.058 . S
Co178 O194 2.057 . S
Co178 O209 2.037 . S
Co178 N213 2.145 . S
Co178 N234 2.257 . S
O179 Co177 2.143 . S
O179 Co178 2.160 . S
C180 O181 1.278 . S
C180 O188 1.224 . S
O181 C180 1.278 . S
C182 O183 1.245 . S
C182 O194 1.232 . S
O183 C182 1.245 . S
O184 Co178 2.058 . S
O184 C210 1.269 . S
O185 Co177 2.074 . S
O185 C210 1.257 . S
H186 C211 0.930 . S
H187 C217 0.930 . S
O188 Co177 2.093 . S
O188 C180 1.224 . S
H189 C221 0.929 . S
H190 C223 0.930 . S
H191 C224 0.930 . S
H192 C222 0.929 1_556 S
H193 C225 0.928 . S
O194 Co178 2.057 . S
O194 C182 1.232 . S
H195 C214 0.929 . S
H196 C215 0.929 . S
H197 C227 0.931 . S
H198 C219 0.929 . S
H199 C228 0.930 . S
H200 C220 0.931 . S
O201 Co177 2.097 . S
O201 C229 1.214 . S
H202 C230 0.929 . S
H203 C231 0.929 . S
H204 C232 0.930 . S
H205 C233 0.929 . S
H206 C235 0.930 . S
H207 C212 0.930 . S
H208 C216 0.930 . S
O209 Co178 2.037 . S
O209 C229 1.234 . S
C210 O184 1.269 . S
C210 O185 1.257 . S
C211 H186 0.930 . S
C211 C214 1.388 . S
C211 C216 1.418 . S
C212 H207 0.930 . S
C212 C215 1.404 . S
C212 C216 1.353 . S
N213 Co178 2.145 . S
N213 C214 1.397 . S
N213 C215 1.334 . S
C214 H195 0.929 . S
C214 C211 1.388 . S
C214 N213 1.397 . S
C215 H196 0.929 . S
C215 C212 1.404 . S
C215 N213 1.334 . S
C216 H208 0.930 . S
C216 C211 1.418 . S
C216 C212 1.353 . S
C217 H187 0.930 . S
C217 N218 1.330 . S
C217 C219 1.446 . S
N218 Co177 2.151 . S
N218 C217 1.330 . S
N218 C222 1.418 . S
C219 H198 0.929 . S
C219 C217 1.446 . S
C219 C220 1.332 . S
C220 H200 0.931 . S
C220 C219 1.332 . S
C220 C221 1.267 . S
C221 H189 0.929 . S
C221 C220 1.267 . S
C221 C222 1.251 . S
C222 H192 0.929 1_554 S
C222 N218 1.418 . S
C222 C221 1.251 . S
C223 H190 0.930 . S
C223 C225 1.406 . S
C223 C228 1.261 . S
C224 H191 0.930 . S
C224 N226 1.325 . S
C224 C227 1.357 . S
C225 H193 0.928 . S
C225 C223 1.406 . S
C225 N226 1.261 . S
N226 Co177 2.214 1_556 S
N226 C224 1.325 . S
N226 C225 1.261 . S
C227 H197 0.931 . S
C227 C224 1.357 . S
C227 C228 1.312 . S
C228 H199 0.930 . S
C228 C223 1.261 . S
C228 C227 1.312 . S
C229 O201 1.214 . S
C229 O209 1.234 . S
C230 H202 0.929 . S
C230 C233 1.391 . S
C230 C235 1.391 . S
C231 H203 0.929 . S
C231 C232 1.390 . S
C231 N234 1.391 . S
C232 H204 0.930 . S
C232 C231 1.390 . S
C232 C233 1.392 . S
C233 H205 0.929 . S
C233 C230 1.391 . S
C233 C232 1.392 . S
N234 Co178 2.257 . S
N234 C231 1.391 . S
N234 C235 1.388 . S
C235 H206 0.930 . S
C235 C230 1.391 . S
C235 N234 1.388 . S
Co236 O238 2.143 . S
Co236 O244 2.074 . S
Co236 O247 2.093 . S
Co236 O260 2.097 . S
Co236 N277 2.151 . S
Co236 N285 2.214 . S
Co237 O238 2.160 . S
Co237 O243 2.058 . S
Co237 O253 2.057 . S
Co237 O268 2.037 . S
Co237 N272 2.145 . S
Co237 N293 2.257 . S
O238 Co236 2.143 . S
O238 Co237 2.160 . S
C239 O240 1.278 . S
C239 O247 1.224 . S
O240 C239 1.278 . S
C241 O242 1.245 . S
C241 O253 1.232 . S
O242 C241 1.245 . S
O243 Co237 2.058 . S
O243 C269 1.269 . S
O244 Co236 2.074 . S
O244 C269 1.257 . S
H245 C270 0.930 . S
H246 C276 0.930 . S
O247 Co236 2.093 . S
O247 C239 1.224 . S
H248 C280 0.935 1_455 S
H249 C282 0.930 . S
H250 C283 0.930 . S
H251 C281 0.929 . S
H252 C284 0.928 . S
O253 Co237 2.057 . S
O253 C241 1.232 . S
H254 C273 0.929 . S
H255 C274 0.929 . S
H256 C286 0.931 . S
H257 C278 0.929 . S
H258 C287 0.930 . S
H259 C279 0.931 . S
O260 Co236 2.097 . S
O260 C288 1.214 . S
H261 C289 0.929 . S
H262 C290 0.929 . S
H263 C291 0.930 . S
H264 C292 0.929 . S
H265 C294 0.930 . S
H266 C271 0.930 . S
H267 C275 0.930 . S
O268 Co237 2.037 . S
O268 C288 1.234 . S
C269 O243 1.269 . S
C269 O244 1.257 . S
C270 H245 0.930 . S
C270 C273 1.388 . S
C270 C275 1.418 . S
C271 H266 0.930 . S
C271 C274 1.404 . S
C271 C275 1.353 . S
N272 Co237 2.145 . S
N272 C273 1.397 . S
N272 C274 1.334 . S
C273 H254 0.929 . S
C273 C270 1.388 . S
C273 N272 1.397 . S
C274 H255 0.929 . S
C274 C271 1.404 . S
C274 N272 1.334 . S
C275 H267 0.930 . S
C275 C270 1.418 . S
C275 C271 1.353 . S
C276 H246 0.930 . S
C276 N277 1.330 . S
C276 C278 1.446 1_655 S
N277 Co236 2.151 . S
N277 C276 1.330 . S
N277 C281 1.418 . S
C278 H257 0.929 . S
C278 C276 1.446 1_455 S
C278 C279 1.332 . S
C279 H259 0.931 . S
C279 C278 1.332 . S
C279 C280 1.254 1_455 S
C280 H248 0.935 1_655 S
C280 C279 1.254 1_655 S
C280 C281 1.259 . S
C281 H251 0.929 . S
C281 N277 1.418 . S
C281 C280 1.259 . S
C282 H249 0.930 . S
C282 C284 1.406 . S
C282 C287 1.261 . S
C283 H250 0.930 . S
C283 N285 1.325 . S
C283 C286 1.357 . S
C284 H252 0.928 . S
C284 C282 1.406 . S
C284 N285 1.261 . S
N285 Co236 2.214 . S
N285 C283 1.325 . S
N285 C284 1.261 . S
C286 H256 0.931 . S
C286 C283 1.357 . S
C286 C287 1.312 . S
C287 H258 0.930 . S
C287 C282 1.261 . S
C287 C286 1.312 . S
C288 O260 1.214 . S
C288 O268 1.234 . S
C289 H261 0.929 . S
C289 C292 1.391 . S
C289 C294 1.391 . S
C290 H262 0.929 . S
C290 C291 1.390 . S
C290 N293 1.391 . S
C291 H263 0.930 . S
C291 C290 1.390 . S
C291 C292 1.392 . S
C292 H264 0.929 . S
C292 C289 1.391 . S
C292 C291 1.392 . S
N293 Co237 2.257 . S
N293 C290 1.391 . S
N293 C294 1.388 . S
C294 H265 0.930 . S
C294 C289 1.391 . S
C294 N293 1.388 . S
Co295 O297 2.143 . S
Co295 O303 2.074 . S
Co295 O306 2.093 . S
Co295 O319 2.097 . S
Co295 N336 2.151 . S
Co295 N344 2.214 . S
Co296 O297 2.160 . S
Co296 O302 2.058 . S
Co296 O312 2.057 . S
Co296 O327 2.037 . S
Co296 N331 2.145 . S
Co296 N352 2.257 . S
O297 Co295 2.143 . S
O297 Co296 2.160 . S
C298 O299 1.278 . S
C298 O306 1.224 . S
O299 C298 1.278 . S
C300 O301 1.245 . S
C300 O312 1.232 . S
O301 C300 1.245 . S
O302 Co296 2.058 . S
O302 C328 1.269 . S
O303 Co295 2.074 . S
O303 C328 1.257 . S
H304 C329 0.930 . S
H305 C335 0.930 . S
O306 Co295 2.093 . S
O306 C298 1.224 . S
H307 C339 0.921 1_545 S
H308 C341 0.930 . S
H309 C342 0.930 . S
H310 C340 0.929 . S
H311 C343 0.928 . S
O312 Co296 2.057 . S
O312 C300 1.232 . S
H313 C332 0.929 . S
H314 C333 0.929 . S
H315 C345 0.931 . S
H316 C337 0.929 . S
H317 C346 0.930 . S
H318 C338 0.931 . S
O319 Co295 2.097 . S
O319 C347 1.214 . S
H320 C348 0.929 . S
H321 C349 0.929 . S
H322 C350 0.930 . S
H323 C351 0.929 . S
H324 C353 0.930 . S
H325 C330 0.930 . S
H326 C334 0.930 . S
O327 Co296 2.037 . S
O327 C347 1.234 . S
C328 O302 1.269 . S
C328 O303 1.257 . S
C329 H304 0.930 . S
C329 C332 1.388 . S
C329 C334 1.418 . S
C330 H325 0.930 . S
C330 C333 1.404 . S
C330 C334 1.353 . S
N331 Co296 2.145 . S
N331 C332 1.397 . S
N331 C333 1.334 . S
C332 H313 0.929 . S
C332 C329 1.388 . S
C332 N331 1.397 . S
C333 H314 0.929 . S
C333 C330 1.404 . S
C333 N331 1.334 . S
C334 H326 0.930 . S
C334 C329 1.418 . S
C334 C330 1.353 . S
C335 H305 0.930 . S
C335 N336 1.330 . S
C335 C337 1.446 1_565 S
N336 Co295 2.151 . S
N336 C335 1.330 . S
N336 C340 1.418 . S
C337 H316 0.929 . S
C337 C335 1.446 1_545 S
C337 C338 1.332 . S
C338 H318 0.931 . S
C338 C337 1.332 . S
C338 C339 1.259 1_545 S
C339 H307 0.921 1_565 S
C339 C338 1.259 1_565 S
C339 C340 1.267 . S
C340 H310 0.929 . S
C340 N336 1.418 . S
C340 C339 1.267 . S
C341 H308 0.930 . S
C341 C343 1.406 . S
C341 C346 1.261 . S
C342 H309 0.930 . S
C342 N344 1.325 . S
C342 C345 1.357 . S
C343 H311 0.928 . S
C343 C341 1.406 . S
C343 N344 1.261 . S
N344 Co295 2.214 . S
N344 C342 1.325 . S
N344 C343 1.261 . S
C345 H315 0.931 . S
C345 C342 1.357 . S
C345 C346 1.312 . S
C346 H317 0.930 . S
C346 C341 1.261 . S
C346 C345 1.312 . S
C347 O319 1.214 . S
C347 O327 1.234 . S
C348 H320 0.929 . S
C348 C351 1.391 . S
C348 C353 1.391 . S
C349 H321 0.929 . S
C349 C350 1.390 . S
C349 N352 1.391 . S
C350 H322 0.930 . S
C350 C349 1.390 . S
C350 C351 1.392 . S
C351 H323 0.929 . S
C351 C348 1.391 . S
C351 C350 1.392 . S
N352 Co296 2.257 . S
N352 C349 1.391 . S
N352 C353 1.388 . S
C353 H324 0.930 . S
C353 C348 1.391 . S
C353 N352 1.388 . S
Co354 O356 2.143 . S
Co354 O362 2.074 . S
Co354 O365 2.093 . S
Co354 O378 2.097 . S
Co354 N395 2.151 . S
Co354 N403 2.214 . S
Co355 O356 2.160 . S
Co355 O361 2.058 . S
Co355 O371 2.057 . S
Co355 O386 2.037 . S
Co355 N390 2.145 . S
Co355 N411 2.257 . S
O356 Co354 2.143 . S
O356 Co355 2.160 . S
C357 O358 1.278 . S
C357 O365 1.224 . S
O358 C357 1.278 . S
C359 O360 1.245 . S
C359 O371 1.232 . S
O360 C359 1.245 . S
O361 Co355 2.058 . S
O361 C387 1.269 . S
O362 Co354 2.074 . S
O362 C387 1.257 . S
H363 C388 0.930 . S
H364 C394 0.930 . S
O365 Co354 2.093 . S
O365 C357 1.224 . S
H366 C398 0.929 . S
H367 C400 0.930 . S
H368 C401 0.930 . S
H369 C399 0.929 . S
H370 C402 0.928 . S
O371 Co355 2.057 . S
O371 C359 1.232 . S
H372 C391 0.929 . S
H373 C392 0.929 . S
H374 C404 0.931 . S
H375 C396 0.929 . S
H376 C405 0.930 . S
H377 C397 0.931 . S
O378 Co354 2.097 . S
O378 C406 1.214 . S
H379 C407 0.929 . S
H380 C408 0.929 . S
H381 C409 0.930 . S
H382 C410 0.929 . S
H383 C412 0.930 . S
H384 C389 0.930 . S
H385 C393 0.930 . S
O386 Co355 2.037 . S
O386 C406 1.234 . S
C387 O361 1.269 . S
C387 O362 1.257 . S
C388 H363 0.930 . S
C388 C391 1.388 . S
C388 C393 1.418 . S
C389 H384 0.930 . S
C389 C392 1.404 . S
C389 C393 1.353 . S
N390 Co355 2.145 . S
N390 C391 1.397 . S
N390 C392 1.334 . S
C391 H372 0.929 . S
C391 C388 1.388 . S
C391 N390 1.397 . S
C392 H373 0.929 . S
C392 C389 1.404 . S
C392 N390 1.334 . S
C393 H385 0.930 . S
C393 C388 1.418 . S
C393 C389 1.353 . S
C394 H364 0.930 . S
C394 N395 1.330 . S
C394 C396 1.446 . S
N395 Co354 2.151 . S
N395 C394 1.330 . S
N395 C399 1.418 . S
C396 H375 0.929 . S
C396 C394 1.446 . S
C396 C397 1.332 . S
C397 H377 0.931 . S
C397 C396 1.332 . S
C397 C398 1.267 . S
C398 H366 0.929 . S
C398 C397 1.267 . S
C398 C399 1.251 . S
C399 H369 0.929 . S
C399 N395 1.418 . S
C399 C398 1.251 . S
C400 H367 0.930 . S
C400 C402 1.406 . S
C400 C405 1.261 . S
C401 H368 0.930 . S
C401 N403 1.325 . S
C401 C404 1.357 . S
C402 H370 0.928 . S
C402 C400 1.406 . S
C402 N403 1.261 . S
N403 Co354 2.214 . S
N403 C401 1.325 . S
N403 C402 1.261 . S
C404 H374 0.931 . S
C404 C401 1.357 . S
C404 C405 1.312 . S
C405 H376 0.930 . S
C405 C400 1.261 . S
C405 C404 1.312 . S
C406 O378 1.214 . S
C406 O386 1.234 . S
C407 H379 0.929 . S
C407 C410 1.391 . S
C407 C412 1.391 . S
C408 H380 0.929 . S
C408 C409 1.390 . S
C408 N411 1.391 . S
C409 H381 0.930 . S
C409 C408 1.390 . S
C409 C410 1.392 . S
C410 H382 0.929 . S
C410 C407 1.391 . S
C410 C409 1.392 . S
N411 Co355 2.257 . S
N411 C408 1.391 . S
N411 C412 1.388 . S
C412 H383 0.930 . S
C412 C407 1.391 . S
C412 N411 1.388 . S
Co413 O415 2.143 . S
Co413 O421 2.074 . S
Co413 O424 2.093 . S
Co413 O437 2.097 . S
Co413 N454 2.151 . S
Co413 N462 2.214 1_556 S
Co414 O415 2.160 . S
Co414 O420 2.058 . S
Co414 O430 2.057 . S
Co414 O445 2.037 . S
Co414 N449 2.145 . S
Co414 N470 2.257 . S
O415 Co413 2.143 . S
O415 Co414 2.160 . S
C416 O417 1.278 . S
C416 O424 1.224 . S
O417 C416 1.278 . S
C418 O419 1.245 . S
C418 O430 1.232 . S
O419 C418 1.245 . S
O420 Co414 2.058 . S
O420 C446 1.269 . S
O421 Co413 2.074 . S
O421 C446 1.257 . S
H422 C447 0.930 . S
H423 C453 0.930 . S
O424 Co413 2.093 . S
O424 C416 1.224 . S
H425 C457 0.922 1_655 S
H426 C459 0.930 . S
H427 C460 0.930 . S
H428 C458 0.929 1_554 S
H429 C461 0.928 . S
O430 Co414 2.057 . S
O430 C418 1.232 . S
H431 C450 0.929 . S
H432 C451 0.929 . S
H433 C463 0.931 . S
H434 C455 0.929 . S
H435 C464 0.930 . S
H436 C456 0.931 . S
O437 Co413 2.097 . S
O437 C465 1.214 . S
H438 C466 0.929 . S
H439 C467 0.929 . S
H440 C468 0.930 . S
H441 C469 0.929 . S
H442 C471 0.930 . S
H443 C448 0.930 . S
H444 C452 0.930 . S
O445 Co414 2.037 . S
O445 C465 1.234 . S
C446 O420 1.269 . S
C446 O421 1.257 . S
C447 H422 0.930 . S
C447 C450 1.388 . S
C447 C452 1.418 . S
C448 H443 0.930 . S
C448 C451 1.404 . S
C448 C452 1.353 . S
N449 Co414 2.145 . S
N449 C450 1.397 . S
N449 C451 1.334 . S
C450 H431 0.929 . S
C450 C447 1.388 . S
C450 N449 1.397 . S
C451 H432 0.929 . S
C451 C448 1.404 . S
C451 N449 1.334 . S
C452 H444 0.930 . S
C452 C447 1.418 . S
C452 C448 1.353 . S
C453 H423 0.930 . S
C453 N454 1.330 . S
C453 C455 1.446 1_455 S
N454 Co413 2.151 . S
N454 C453 1.330 . S
N454 C458 1.418 . S
C455 H434 0.929 . S
C455 C453 1.446 1_655 S
C455 C456 1.332 . S
C456 H436 0.931 . S
C456 C455 1.332 . S
C456 C457 1.259 1_655 S
C457 H425 0.922 1_455 S
C457 C456 1.259 1_455 S
C457 C458 1.267 . S
C458 H428 0.929 1_556 S
C458 N454 1.418 . S
C458 C457 1.267 . S
C459 H426 0.930 . S
C459 C461 1.406 . S
C459 C464 1.261 . S
C460 H427 0.930 . S
C460 N462 1.325 . S
C460 C463 1.357 . S
C461 H429 0.928 . S
C461 C459 1.406 . S
C461 N462 1.261 . S
N462 Co413 2.214 1_554 S
N462 C460 1.325 . S
N462 C461 1.261 . S
C463 H433 0.931 . S
C463 C460 1.357 . S
C463 C464 1.312 . S
C464 H435 0.930 . S
C464 C459 1.261 . S
C464 C463 1.312 . S
C465 O437 1.214 . S
C465 O445 1.234 . S
C466 H438 0.929 . S
C466 C469 1.391 . S
C466 C471 1.391 . S
C467 H439 0.929 . S
C467 C468 1.390 . S
C467 N470 1.391 . S
C468 H440 0.930 . S
C468 C467 1.390 . S
C468 C469 1.392 . S
C469 H441 0.929 . S
C469 C466 1.391 . S
C469 C468 1.392 . S
N470 Co414 2.257 . S
N470 C467 1.391 . S
N470 C471 1.388 . S
C471 H442 0.930 . S
C471 C466 1.391 . S
C471 N470 1.388 . S
Co472 O474 2.143 . S
Co472 O480 2.074 . S
Co472 O483 2.093 . S
Co472 O496 2.097 . S
Co472 N513 2.151 . S
Co472 N521 2.214 . S
Co473 O474 2.160 . S
Co473 O479 2.058 . S
Co473 O489 2.057 . S
Co473 O504 2.037 . S
Co473 N508 2.145 . S
Co473 N529 2.257 . S
O474 Co472 2.143 . S
O474 Co473 2.160 . S
C475 O476 1.278 . S
C475 O483 1.224 . S
O476 C475 1.278 . S
C477 O478 1.245 . S
C477 O489 1.232 . S
O478 C477 1.245 . S
O479 Co473 2.058 . S
O479 C505 1.269 . S
O480 Co472 2.074 . S
O480 C505 1.257 . S
H481 C506 0.930 . S
H482 C512 0.930 . S
O483 Co472 2.093 . S
O483 C475 1.224 . S
H484 C516 0.935 1_565 S
H485 C518 0.930 . S
H486 C519 0.930 . S
H487 C517 0.929 . S
H488 C520 0.928 . S
O489 Co473 2.057 . S
O489 C477 1.232 . S
H490 C509 0.929 . S
H491 C510 0.929 . S
H492 C522 0.931 . S
H493 C514 0.929 . S
H494 C523 0.930 . S
H495 C515 0.931 . S
O496 Co472 2.097 . S
O496 C524 1.214 . S
H497 C525 0.929 . S
H498 C526 0.929 . S
H499 C527 0.930 . S
H500 C528 0.929 . S
H501 C530 0.930 . S
H502 C507 0.930 . S
H503 C511 0.930 . S
O504 Co473 2.037 . S
O504 C524 1.234 . S
C505 O479 1.269 . S
C505 O480 1.257 . S
C506 H481 0.930 . S
C506 C509 1.388 . S
C506 C511 1.418 . S
C507 H502 0.930 . S
C507 C510 1.404 . S
C507 C511 1.353 . S
N508 Co473 2.145 . S
N508 C509 1.397 . S
N508 C510 1.334 . S
C509 H490 0.929 . S
C509 C506 1.388 . S
C509 N508 1.397 . S
C510 H491 0.929 . S
C510 C507 1.404 . S
C510 N508 1.334 . S
C511 H503 0.930 . S
C511 C506 1.418 . S
C511 C507 1.353 . S
C512 H482 0.930 . S
C512 N513 1.330 . S
C512 C514 1.446 1_545 S
N513 Co472 2.151 . S
N513 C512 1.330 . S
N513 C517 1.418 . S
C514 H493 0.929 . S
C514 C512 1.446 1_565 S
C514 C515 1.332 . S
C515 H495 0.931 . S
C515 C514 1.332 . S
C515 C516 1.255 1_565 S
C516 H484 0.935 1_545 S
C516 C515 1.255 1_545 S
C516 C517 1.258 . S
C517 H487 0.929 . S
C517 N513 1.418 . S
C517 C516 1.258 . S
C518 H485 0.930 . S
C518 C520 1.406 . S
C518 C523 1.261 . S
C519 H486 0.930 . S
C519 N521 1.325 . S
C519 C522 1.357 . S
C520 H488 0.928 . S
C520 C518 1.406 . S
C520 N521 1.261 . S
N521 Co472 2.214 . S
N521 C519 1.325 . S
N521 C520 1.261 . S
C522 H492 0.931 . S
C522 C519 1.357 . S
C522 C523 1.312 . S
C523 H494 0.930 . S
C523 C518 1.261 . S
C523 C522 1.312 . S
C524 O496 1.214 . S
C524 O504 1.234 . S
C525 H497 0.929 . S
C525 C528 1.391 . S
C525 C530 1.391 . S
C526 H498 0.929 . S
C526 C527 1.390 . S
C526 N529 1.391 . S
C527 H499 0.930 . S
C527 C526 1.390 . S
C527 C528 1.392 . S
C528 H500 0.929 . S
C528 C525 1.391 . S
C528 C527 1.392 . S
N529 Co473 2.257 . S
N529 C526 1.391 . S
N529 C530 1.388 . S
C530 H501 0.930 . S
C530 C525 1.391 . S
C530 N529 1.388 . S
Co531 O533 2.143 . S
Co531 O539 2.074 . S
Co531 O542 2.093 . S
Co531 O555 2.097 . S
Co531 N572 2.151 . S
Co531 N580 2.214 . S
Co532 O533 2.160 . S
Co532 O538 2.058 . S
Co532 O548 2.057 . S
Co532 O563 2.037 . S
Co532 N567 2.145 . S
Co532 N588 2.257 . S
O533 Co531 2.143 . S
O533 Co532 2.160 . S
C534 O535 1.278 . S
C534 O542 1.224 . S
O535 C534 1.278 . S
C536 O537 1.245 . S
C536 O548 1.232 . S
O537 C536 1.245 . S
O538 Co532 2.058 . S
O538 C564 1.269 . S
O539 Co531 2.074 . S
O539 C564 1.257 . S
H540 C565 0.930 . S
H541 C571 0.930 . S
O542 Co531 2.093 . S
O542 C534 1.224 . S
H543 C575 0.929 . S
H544 C577 0.930 . S
H545 C578 0.930 . S
H546 C576 0.929 . S
H547 C579 0.928 . S
O548 Co532 2.057 . S
O548 C536 1.232 . S
H549 C568 0.929 . S
H550 C569 0.929 . S
H551 C581 0.931 . S
H552 C573 0.929 . S
H553 C582 0.930 . S
H554 C574 0.931 . S
O555 Co531 2.097 . S
O555 C583 1.214 . S
H556 C584 0.929 . S
H557 C585 0.929 . S
H558 C586 0.930 . S
H559 C587 0.929 . S
H560 C589 0.930 . S
H561 C566 0.930 . S
H562 C570 0.930 . S
O563 Co532 2.037 . S
O563 C583 1.234 . S
C564 O538 1.269 . S
C564 O539 1.257 . S
C565 H540 0.930 . S
C565 C568 1.388 . S
C565 C570 1.418 . S
C566 H561 0.930 . S
C566 C569 1.404 . S
C566 C570 1.353 . S
N567 Co532 2.145 . S
N567 C568 1.397 . S
N567 C569 1.334 . S
C568 H549 0.929 . S
C568 C565 1.388 . S
C568 N567 1.397 . S
C569 H550 0.929 . S
C569 C566 1.404 . S
C569 N567 1.334 . S
C570 H562 0.930 . S
C570 C565 1.418 . S
C570 C566 1.353 . S
C571 H541 0.930 . S
C571 N572 1.330 . S
C571 C573 1.446 . S
N572 Co531 2.151 . S
N572 C571 1.330 . S
N572 C576 1.418 . S
C573 H552 0.929 . S
C573 C571 1.446 . S
C573 C574 1.332 . S
C574 H554 0.931 . S
C574 C573 1.332 . S
C574 C575 1.267 . S
C575 H543 0.929 . S
C575 C574 1.267 . S
C575 C576 1.251 . S
C576 H546 0.929 . S
C576 N572 1.418 . S
C576 C575 1.251 . S
C577 H544 0.930 . S
C577 C579 1.406 . S
C577 C582 1.261 . S
C578 H545 0.930 . S
C578 N580 1.325 . S
C578 C581 1.357 . S
C579 H547 0.928 . S
C579 C577 1.406 . S
C579 N580 1.261 . S
N580 Co531 2.214 . S
N580 C578 1.325 . S
N580 C579 1.261 . S
C581 H551 0.931 . S
C581 C578 1.357 . S
C581 C582 1.312 . S
C582 H553 0.930 . S
C582 C577 1.261 . S
C582 C581 1.312 . S
C583 O555 1.214 . S
C583 O563 1.234 . S
C584 H556 0.929 . S
C584 C587 1.391 . S
C584 C589 1.391 . S
C585 H557 0.929 . S
C585 C586 1.390 . S
C585 N588 1.391 . S
C586 H558 0.930 . S
C586 C585 1.390 . S
C586 C587 1.392 . S
C587 H559 0.929 . S
C587 C584 1.391 . S
C587 C586 1.392 . S
N588 Co532 2.257 . S
N588 C585 1.391 . S
N588 C589 1.388 . S
C589 H560 0.930 . S
C589 C584 1.391 . S
C589 N588 1.388 . S
Co590 O592 2.143 . S
Co590 O598 2.074 . S
Co590 O601 2.093 . S
Co590 O614 2.097 . S
Co590 N631 2.151 . S
Co590 N639 2.214 1_556 S
Co591 O592 2.160 . S
Co591 O597 2.058 . S
Co591 O607 2.057 . S
Co591 O622 2.037 . S
Co591 N626 2.145 . S
Co591 N647 2.257 . S
O592 Co590 2.143 . S
O592 Co591 2.160 . S
C593 O594 1.278 . S
C593 O601 1.224 . S
O594 C593 1.278 . S
C595 O596 1.245 . S
C595 O607 1.232 . S
O596 C595 1.245 . S
O597 Co591 2.058 . S
O597 C623 1.269 . S
O598 Co590 2.074 . S
O598 C623 1.257 . S
H599 C624 0.930 . S
H600 C630 0.930 . S
O601 Co590 2.093 . S
O601 C593 1.224 . S
H602 C634 0.921 1_455 S
H603 C636 0.930 . S
H604 C637 0.930 . S
H605 C635 0.929 1_554 S
H606 C638 0.928 . S
O607 Co591 2.057 . S
O607 C595 1.232 . S
H608 C627 0.929 . S
H609 C628 0.929 . S
H610 C640 0.931 . S
H611 C632 0.929 . S
H612 C641 0.930 . S
H613 C633 0.931 . S
O614 Co590 2.097 . S
O614 C642 1.214 . S
H615 C643 0.929 . S
H616 C644 0.929 . S
H617 C645 0.930 . S
H618 C646 0.929 . S
H619 C648 0.930 . S
H620 C625 0.930 . S
H621 C629 0.930 . S
O622 Co591 2.037 . S
O622 C642 1.234 . S
C623 O597 1.269 . S
C623 O598 1.257 . S
C624 H599 0.930 . S
C624 C627 1.388 . S
C624 C629 1.418 . S
C625 H620 0.930 . S
C625 C628 1.404 . S
C625 C629 1.353 . S
N626 Co591 2.145 . S
N626 C627 1.397 . S
N626 C628 1.334 . S
C627 H608 0.929 . S
C627 C624 1.388 . S
C627 N626 1.397 . S
C628 H609 0.929 . S
C628 C625 1.404 . S
C628 N626 1.334 . S
C629 H621 0.930 . S
C629 C624 1.418 . S
C629 C625 1.353 . S
C630 H600 0.930 . S
C630 N631 1.330 . S
C630 C632 1.446 1_655 S
N631 Co590 2.151 . S
N631 C630 1.330 . S
N631 C635 1.418 . S
C632 H611 0.929 . S
C632 C630 1.446 1_455 S
C632 C633 1.332 . S
C633 H613 0.931 . S
C633 C632 1.332 . S
C633 C634 1.259 1_455 S
C634 H602 0.921 1_655 S
C634 C633 1.259 1_655 S
C634 C635 1.267 . S
C635 H605 0.929 1_556 S
C635 N631 1.418 . S
C635 C634 1.267 . S
C636 H603 0.930 . S
C636 C638 1.406 . S
C636 C641 1.261 . S
C637 H604 0.930 . S
C637 N639 1.325 . S
C637 C640 1.357 . S
C638 H606 0.928 . S
C638 C636 1.406 . S
C638 N639 1.261 . S
N639 Co590 2.214 1_554 S
N639 C637 1.325 . S
N639 C638 1.261 . S
C640 H610 0.931 . S
C640 C637 1.357 . S
C640 C641 1.312 . S
C641 H612 0.930 . S
C641 C636 1.261 . S
C641 C640 1.312 . S
C642 O614 1.214 . S
C642 O622 1.234 . S
C643 H615 0.929 . S
C643 C646 1.391 . S
C643 C648 1.391 . S
C644 H616 0.929 . S
C644 C645 1.390 . S
C644 N647 1.391 . S
C645 H617 0.930 . S
C645 C644 1.390 . S
C645 C646 1.392 . S
C646 H618 0.929 . S
C646 C643 1.391 . S
C646 C645 1.392 . S
N647 Co591 2.257 . S
N647 C644 1.391 . S
N647 C648 1.388 . S
C648 H619 0.930 . S
C648 C643 1.391 . S
C648 N647 1.388 . S
Co649 O651 2.143 . S
Co649 O657 2.074 . S
Co649 O660 2.093 . S
Co649 O673 2.097 . S
Co649 N690 2.151 . S
Co649 N698 2.214 . S
Co650 O651 2.160 . S
Co650 O656 2.058 . S
Co650 O666 2.057 . S
Co650 O681 2.037 . S
Co650 N685 2.145 . S
Co650 N706 2.257 . S
O651 Co649 2.143 . S
O651 Co650 2.160 . S
C652 O653 1.278 . S
C652 O660 1.224 . S
O653 C652 1.278 . S
C654 O655 1.245 . S
C654 O666 1.232 . S
O655 C654 1.245 . S
O656 Co650 2.058 . S
O656 C682 1.269 . S
O657 Co649 2.074 . S
O657 C682 1.257 . S
H658 C683 0.930 . S
H659 C689 0.930 . S
O660 Co649 2.093 . S
O660 C652 1.224 . S
H661 C693 0.935 1_545 S
H662 C695 0.930 . S
H663 C696 0.930 . S
H664 C694 0.929 . S
H665 C697 0.928 . S
O666 Co650 2.057 . S
O666 C654 1.232 . S
H667 C686 0.929 . S
H668 C687 0.929 . S
H669 C699 0.931 . S
H670 C691 0.929 . S
H671 C700 0.930 . S
H672 C692 0.931 . S
O673 Co649 2.097 . S
O673 C701 1.214 . S
H674 C702 0.929 . S
H675 C703 0.929 . S
H676 C704 0.930 . S
H677 C705 0.929 . S
H678 C707 0.930 . S
H679 C684 0.930 . S
H680 C688 0.930 . S
O681 Co650 2.037 . S
O681 C701 1.234 . S
C682 O656 1.269 . S
C682 O657 1.257 . S
C683 H658 0.930 . S
C683 C686 1.388 . S
C683 C688 1.418 . S
C684 H679 0.930 . S
C684 C687 1.404 . S
C684 C688 1.353 . S
N685 Co650 2.145 . S
N685 C686 1.397 . S
N685 C687 1.334 . S
C686 H667 0.929 . S
C686 C683 1.388 . S
C686 N685 1.397 . S
C687 H668 0.929 . S
C687 C684 1.404 . S
C687 N685 1.334 . S
C688 H680 0.930 . S
C688 C683 1.418 . S
C688 C684 1.353 . S
C689 H659 0.930 . S
C689 N690 1.330 . S
C689 C691 1.446 1_565 S
N690 Co649 2.151 . S
N690 C689 1.330 . S
N690 C694 1.418 . S
C691 H670 0.929 . S
C691 C689 1.446 1_545 S
C691 C692 1.332 . S
C692 H672 0.931 . S
C692 C691 1.332 . S
C692 C693 1.255 1_545 S
C693 H661 0.935 1_565 S
C693 C692 1.255 1_565 S
C693 C694 1.258 . S
C694 H664 0.929 . S
C694 N690 1.418 . S
C694 C693 1.258 . S
C695 H662 0.930 . S
C695 C697 1.406 . S
C695 C700 1.261 . S
C696 H663 0.930 . S
C696 N698 1.325 . S
C696 C699 1.357 . S
C697 H665 0.928 . S
C697 C695 1.406 . S
C697 N698 1.261 . S
N698 Co649 2.214 . S
N698 C696 1.325 . S
N698 C697 1.261 . S
C699 H669 0.931 . S
C699 C696 1.357 . S
C699 C700 1.312 . S
C700 H671 0.930 . S
C700 C695 1.261 . S
C700 C699 1.312 . S
C701 O673 1.214 . S
C701 O681 1.234 . S
C702 H674 0.929 . S
C702 C705 1.391 . S
C702 C707 1.391 . S
C703 H675 0.929 . S
C703 C704 1.390 . S
C703 N706 1.391 . S
C704 H676 0.930 . S
C704 C703 1.390 . S
C704 C705 1.392 . S
C705 H677 0.929 . S
C705 C702 1.391 . S
C705 C704 1.392 . S
N706 Co650 2.257 . S
N706 C703 1.391 . S
N706 C707 1.388 . S
C707 H678 0.930 . S
C707 C702 1.391 . S
C707 N706 1.388 . S
C708 C709 1.369 1_554 S
C708 C710 1.419 1_565 S
C708 H712 0.930 . S
C709 C708 1.369 1_556 S
C709 C718 1.429 . S
C710 C708 1.419 1_545 S
C710 C711 1.363 . S
C710 H713 0.929 . S
C711 C710 1.363 . S
C711 C717 1.428 1_554 S
H712 C708 0.930 . S
H713 C710 0.929 . S
S714 N715 1.613 1_545 S
S714 N716 1.610 . S
N715 S714 1.613 1_565 S
N715 C718 1.350 . S
N716 S714 1.610 . S
N716 C717 1.351 . S
C717 C711 1.428 1_556 S
C717 N716 1.351 . S
C717 C718 1.434 1_545 S
C718 C709 1.429 . S
C718 N715 1.350 . S
C718 C717 1.434 1_565 S
C719 C720 1.369 . S
C719 C721 1.419 . S
C719 H723 0.930 . S
C720 C719 1.369 . S
C720 C729 1.429 . S
C721 C719 1.419 . S
C721 C722 1.363 . S
C721 H724 0.929 . S
C722 C721 1.363 . S
C722 C728 1.428 . S
H723 C719 0.930 . S
H724 C721 0.929 . S
S725 N726 1.613 . S
S725 N727 1.610 . S
N726 S725 1.613 . S
N726 C729 1.350 . S
N727 S725 1.610 . S
N727 C728 1.351 . S
C728 C722 1.428 . S
C728 N727 1.351 . S
C728 C729 1.434 . S
C729 C720 1.429 . S
C729 N726 1.350 . S
C729 C728 1.434 . S
C730 C731 1.369 . S
C730 C732 1.419 1_655 S
C730 H734 0.930 . S
C731 C730 1.369 . S
C731 C740 1.429 . S
C732 C730 1.419 1_455 S
C732 C733 1.363 . S
C732 H735 0.929 . S
C733 C732 1.363 . S
C733 C739 1.428 . S
H734 C730 0.930 . S
H735 C732 0.929 . S
S736 N737 1.613 1_455 S
S736 N738 1.610 . S
N737 S736 1.613 1_655 S
N737 C740 1.350 . S
N738 S736 1.610 . S
N738 C739 1.351 . S
C739 C733 1.428 . S
C739 N738 1.351 . S
C739 C740 1.434 1_455 S
C740 C731 1.429 . S
C740 N737 1.350 . S
C740 C739 1.434 1_655 S
C741 C742 1.369 . S
C741 C743 1.419 1_564 S
C741 H745 0.930 . S
C742 C741 1.369 . S
C742 C751 1.429 . S
C743 C741 1.419 1_546 S
C743 C744 1.363 . S
C743 H746 0.929 . S
C744 C743 1.363 . S
C744 C750 1.428 . S
H745 C741 0.930 . S
H746 C743 0.929 . S
S747 N748 1.613 1_545 S
S747 N749 1.610 1_554 S
N748 S747 1.613 1_565 S
N748 C751 1.350 . S
N749 S747 1.610 1_556 S
N749 C750 1.351 . S
C750 C744 1.428 . S
C750 N749 1.351 . S
C750 C751 1.434 1_546 S
C751 C742 1.429 . S
C751 N748 1.350 . S
C751 C750 1.434 1_564 S
C752 C753 1.369 . S
C752 C754 1.419 . S
C752 H756 0.930 . S
C753 C752 1.369 . S
C753 C762 1.429 . S
C754 C752 1.419 . S
C754 C755 1.363 . S
C754 H757 0.929 . S
C755 C754 1.363 . S
C755 C761 1.428 . S
H756 C752 0.930 . S
H757 C754 0.929 . S
S758 N759 1.613 . S
S758 N760 1.610 . S
N759 S758 1.613 . S
N759 C762 1.350 . S
N760 S758 1.610 . S
N760 C761 1.351 . S
C761 C755 1.428 . S
C761 N760 1.351 . S
C761 C762 1.434 . S
C762 C753 1.429 . S
C762 N759 1.350 . S
C762 C761 1.434 . S
C763 C764 1.369 . S
C763 C765 1.419 1_655 S
C763 H767 0.930 . S
C764 C763 1.369 . S
C764 C773 1.429 . S
C765 C763 1.419 1_455 S
C765 C766 1.363 . S
C765 H768 0.929 . S
C766 C765 1.363 . S
C766 C772 1.428 . S
H767 C763 0.930 . S
H768 C765 0.929 . S
S769 N770 1.613 1_455 S
S769 N771 1.610 . S
N770 S769 1.613 1_655 S
N770 C773 1.350 . S
N771 S769 1.610 . S
N771 C772 1.351 . S
C772 C766 1.428 . S
C772 N771 1.351 . S
C772 C773 1.434 1_455 S
C773 C764 1.429 . S
C773 N770 1.350 . S
C773 C772 1.434 1_655 S
C774 C775 1.369 1_554 S
C774 C776 1.419 . S
C774 H778 0.930 . S
C775 C774 1.369 1_556 S
C775 C784 1.429 . S
C776 C774 1.419 . S
C776 C777 1.363 . S
C776 H779 0.929 . S
C777 C776 1.363 . S
C777 C783 1.428 1_554 S
H778 C774 0.930 . S
H779 C776 0.929 . S
S780 N781 1.613 . S
S780 N782 1.610 . S
N781 S780 1.613 . S
N781 C784 1.350 . S
N782 S780 1.610 . S
N782 C783 1.351 . S
C783 C777 1.428 1_556 S
C783 N782 1.351 . S
C783 C784 1.434 . S
C784 C775 1.429 . S
C784 N781 1.350 . S
C784 C783 1.434 . S
C785 C786 1.369 . S
C785 C787 1.419 . S
C785 H789 0.930 . S
C786 C785 1.369 . S
C786 C795 1.429 . S
C787 C785 1.419 . S
C787 C788 1.363 . S
C787 H790 0.929 . S
C788 C787 1.363 . S
C788 C794 1.428 . S
H789 C785 0.930 . S
H790 C787 0.929 . S
S791 N792 1.613 . S
S791 N793 1.610 . S
N792 S791 1.613 . S
N792 C795 1.350 . S
N793 S791 1.610 . S
N793 C794 1.351 . S
C794 C788 1.428 . S
C794 N793 1.351 . S
C794 C795 1.434 . S
C795 C786 1.429 . S
C795 N792 1.350 . S
C795 C794 1.434 . S
C796 C797 1.369 . S
C796 C798 1.419 . S
C796 H800 0.930 . S
C797 C796 1.369 . S
C797 C806 1.429 . S
C798 C796 1.419 . S
C798 C799 1.363 . S
C798 H801 0.929 . S
C799 C798 1.363 . S
C799 C805 1.428 . S
H800 C796 0.930 . S
H801 C798 0.929 . S
S802 N803 1.613 . S
S802 N804 1.610 . S
N803 S802 1.613 . S
N803 C806 1.350 . S
N804 S802 1.610 . S
N804 C805 1.351 . S
C805 C799 1.428 . S
C805 N804 1.351 . S
C805 C806 1.434 . S
C806 C797 1.429 . S
C806 N803 1.350 . S
C806 C805 1.434 . S
C807 C808 1.369 1_554 S
C807 C809 1.419 . S
C807 H811 0.930 . S
C808 C807 1.369 1_556 S
C808 C817 1.429 . S
C809 C807 1.419 . S
C809 C810 1.363 . S
C809 H812 0.929 . S
C810 C809 1.363 . S
C810 C816 1.428 1_554 S
H811 C807 0.930 . S
H812 C809 0.929 . S
S813 N814 1.613 . S
S813 N815 1.610 . S
N814 S813 1.613 . S
N814 C817 1.350 . S
N815 S813 1.610 . S
N815 C816 1.351 . S
C816 C810 1.428 1_556 S
C816 N815 1.351 . S
C816 C817 1.434 . S
C817 C808 1.429 . S
C817 N814 1.350 . S
C817 C816 1.434 . S
C818 C819 1.369 . S
C818 C820 1.419 . S
C818 H822 0.930 . S
C819 C818 1.369 . S
C819 C828 1.429 . S
C820 C818 1.419 . S
C820 C821 1.363 . S
C820 H823 0.929 . S
C821 C820 1.363 . S
C821 C827 1.428 . S
H822 C818 0.930 . S
H823 C820 0.929 . S
S824 N825 1.613 . S
S824 N826 1.610 . S
N825 S824 1.613 . S
N825 C828 1.350 . S
N826 S824 1.610 . S
N826 C827 1.351 . S
C827 C821 1.428 . S
C827 N826 1.351 . S
C827 C828 1.434 . S
C828 C819 1.429 . S
C828 N825 1.350 . S
C828 C827 1.434 . S
C829 C830 1.369 . S
C829 C831 1.419 . S
C829 H833 0.930 . S
C830 C829 1.369 . S
C830 C839 1.429 . S
C831 C829 1.419 . S
C831 C832 1.363 . S
C831 H834 0.929 . S
C832 C831 1.363 . S
C832 C838 1.428 . S
H833 C829 0.930 . S
H834 C831 0.929 . S
S835 N836 1.613 . S
S835 N837 1.610 . S
N836 S835 1.613 . S
N836 C839 1.350 . S
N837 S835 1.610 . S
N837 C838 1.351 . S
C838 C832 1.428 . S
C838 N837 1.351 . S
C838 C839 1.434 . S
C839 C830 1.429 . S
C839 N836 1.350 . S
C839 C838 1.434 . S
C840 C841 1.369 . S
C840 C842 1.419 . S
C840 H844 0.930 . S
C841 C840 1.369 . S
C841 C850 1.429 . S
C842 C840 1.419 . S
C842 C843 1.363 . S
C842 H845 0.929 . S
C843 C842 1.363 . S
C843 C849 1.428 . S
H844 C840 0.930 . S
H845 C842 0.929 . S
S846 N847 1.613 . S
S846 N848 1.610 . S
N847 S846 1.613 . S
N847 C850 1.350 . S
N848 S846 1.610 . S
N848 C849 1.351 . S
C849 C843 1.428 . S
C849 N848 1.351 . S
C849 C850 1.434 . S
C850 C841 1.429 . S
C850 N847 1.350 . S
C850 C849 1.434 . S
C851 C852 1.369 . S
C851 C853 1.419 . S
C851 H855 0.930 . S
C852 C851 1.369 . S
C852 C861 1.429 . S
C853 C851 1.419 . S
C853 C854 1.363 . S
C853 H856 0.929 . S
C854 C853 1.363 . S
C854 C860 1.428 . S
H855 C851 0.930 . S
H856 C853 0.929 . S
S857 N858 1.613 . S
S857 N859 1.610 . S
N858 S857 1.613 . S
N858 C861 1.350 . S
N859 S857 1.610 . S
N859 C860 1.351 . S
C860 C854 1.428 . S
C860 N859 1.351 . S
C860 C861 1.434 . S
C861 C852 1.429 . S
C861 N858 1.350 . S
C861 C860 1.434 . S
C862 C863 1.369 . S
C862 C864 1.419 . S
C862 H866 0.930 . S
C863 C862 1.369 . S
C863 C872 1.429 . S
C864 C862 1.419 . S
C864 C865 1.363 . S
C864 H867 0.929 . S
C865 C864 1.363 . S
C865 C871 1.428 . S
H866 C862 0.930 . S
H867 C864 0.929 . S
S868 N869 1.613 . S
S868 N870 1.610 . S
N869 S868 1.613 . S
N869 C872 1.350 . S
N870 S868 1.610 . S
N870 C871 1.351 . S
C871 C865 1.428 . S
C871 N870 1.351 . S
C871 C872 1.434 . S
C872 C863 1.429 . S
C872 N869 1.350 . S
C872 C871 1.434 . S
C873 C874 1.369 . S
C873 C875 1.419 . S
C873 H877 0.930 . S
C874 C873 1.369 . S
C874 C883 1.429 . S
C875 C873 1.419 . S
C875 C876 1.363 . S
C875 H878 0.929 . S
C876 C875 1.363 . S
C876 C882 1.428 . S
H877 C873 0.930 . S
H878 C875 0.929 . S
S879 N880 1.613 . S
S879 N881 1.610 . S
N880 S879 1.613 . S
N880 C883 1.350 . S
N881 S879 1.610 . S
N881 C882 1.351 . S
C882 C876 1.428 . S
C882 N881 1.351 . S
C882 C883 1.434 . S
C883 C874 1.429 . S
C883 N880 1.350 . S
C883 C882 1.434 . S
C884 C885 1.369 . S
C884 C886 1.419 . S
C884 H888 0.930 . S
C885 C884 1.369 . S
C885 C894 1.429 . S
C886 C884 1.419 . S
C886 C887 1.363 . S
C886 H889 0.929 . S
C887 C886 1.363 . S
C887 C893 1.428 . S
H888 C884 0.930 . S
H889 C886 0.929 . S
S890 N891 1.613 . S
S890 N892 1.610 . S
N891 S890 1.613 . S
N891 C894 1.350 . S
N892 S890 1.610 . S
N892 C893 1.351 . S
C893 C887 1.428 . S
C893 N892 1.351 . S
C893 C894 1.434 . S
C894 C885 1.429 . S
C894 N891 1.350 . S
C894 C893 1.434 . S
C895 C896 1.369 . S
C895 C897 1.419 . S
C895 H899 0.930 . S
C896 C895 1.369 . S
C896 C905 1.429 . S
C897 C895 1.419 . S
C897 C898 1.363 . S
C897 H900 0.929 . S
C898 C897 1.363 . S
C898 C904 1.428 . S
H899 C895 0.930 . S
H900 C897 0.929 . S
S901 N902 1.613 . S
S901 N903 1.610 . S
N902 S901 1.613 . S
N902 C905 1.350 . S
N903 S901 1.610 . S
N903 C904 1.351 . S
C904 C898 1.428 . S
C904 N903 1.351 . S
C904 C905 1.434 . S
C905 C896 1.429 . S
C905 N902 1.350 . S
C905 C904 1.434 . S
C906 C907 1.369 . S
C906 C908 1.419 . S
C906 H910 0.930 . S
C907 C906 1.369 . S
C907 C916 1.429 . S
C908 C906 1.419 . S
C908 C909 1.363 . S
C908 H911 0.929 . S
C909 C908 1.363 . S
C909 C915 1.428 . S
H910 C906 0.930 . S
H911 C908 0.929 . S
S912 N913 1.613 . S
S912 N914 1.610 . S
N913 S912 1.613 . S
N913 C916 1.350 . S
N914 S912 1.610 . S
N914 C915 1.351 . S
C915 C909 1.428 . S
C915 N914 1.351 . S
C915 C916 1.434 . S
C916 C907 1.429 . S
C916 N913 1.350 . S
C916 C915 1.434 . S
C917 C918 1.369 . S
C917 C919 1.419 1_655 S
C917 H921 0.930 . S
C918 C917 1.369 . S
C918 C927 1.429 . S
C919 C917 1.419 1_455 S
C919 C920 1.363 . S
C919 H922 0.929 . S
C920 C919 1.363 . S
C920 C926 1.428 . S
H921 C917 0.930 . S
H922 C919 0.929 . S
S923 N924 1.613 . S
S923 N925 1.610 1_655 S
N924 S923 1.613 . S
N924 C927 1.350 . S
N925 S923 1.610 1_455 S
N925 C926 1.351 . S
C926 C920 1.428 . S
C926 N925 1.351 . S
C926 C927 1.434 1_455 S
C927 C918 1.429 . S
C927 N924 1.350 . S
C927 C926 1.434 1_655 S
C928 C929 1.369 1_565 S
C928 C930 1.419 . S
C928 H932 0.930 . S
C929 C928 1.369 1_545 S
C929 C938 1.429 . S
C930 C928 1.419 . S
C930 C931 1.363 . S
C930 H933 0.929 . S
C931 C930 1.363 . S
C931 C937 1.428 1_565 S
H932 C928 0.930 . S
H933 C930 0.929 . S
S934 N935 1.613 . S
S934 N936 1.610 . S
N935 S934 1.613 . S
N935 C938 1.350 . S
N936 S934 1.610 . S
N936 C937 1.351 . S
C937 C931 1.428 1_545 S
C937 N936 1.351 . S
C937 C938 1.434 . S
C938 C929 1.429 . S
C938 N935 1.350 . S
C938 C937 1.434 . S
C939 C940 1.369 . S
C939 C941 1.419 . S
C939 H943 0.930 . S
C940 C939 1.369 . S
C940 C949 1.429 . S
C941 C939 1.419 . S
C941 C942 1.363 . S
C941 H944 0.929 . S
C942 C941 1.363 . S
C942 C948 1.428 . S
H943 C939 0.930 . S
H944 C941 0.929 . S
S945 N946 1.613 . S
S945 N947 1.610 . S
N946 S945 1.613 . S
N946 C949 1.350 . S
N947 S945 1.610 . S
N947 C948 1.351 . S
C948 C942 1.428 . S
C948 N947 1.351 . S
C948 C949 1.434 . S
C949 C940 1.429 . S
C949 N946 1.350 . S
C949 C948 1.434 . S
C950 C951 1.369 . S
C950 C952 1.419 1_455 S
C950 H954 0.930 . S
C951 C950 1.369 . S
C951 C960 1.429 . S
C952 C950 1.419 1_655 S
C952 C953 1.363 . S
C952 H955 0.929 . S
C953 C952 1.363 . S
C953 C959 1.428 . S
H954 C950 0.930 . S
H955 C952 0.929 . S
S956 N957 1.613 . S
S956 N958 1.610 1_455 S
N957 S956 1.613 . S
N957 C960 1.350 1_554 S
N958 S956 1.610 1_655 S
N958 C959 1.351 1_554 S
C959 C953 1.428 . S
C959 N958 1.351 1_556 S
C959 C960 1.434 1_655 S
C960 C951 1.429 . S
C960 N957 1.350 1_556 S
C960 C959 1.434 1_455 S
C961 C962 1.369 . S
C961 C963 1.419 1_565 S
C961 H965 0.930 . S
C962 C961 1.369 . S
C962 C971 1.429 . S
C963 C961 1.419 1_545 S
C963 C964 1.363 . S
C963 H966 0.929 . S
C964 C963 1.363 . S
C964 C970 1.428 . S
H965 C961 0.930 . S
H966 C963 0.929 . S
S967 N968 1.613 1_545 S
S967 N969 1.610 . S
N968 S967 1.613 1_565 S
N968 C971 1.350 . S
N969 S967 1.610 . S
N969 C970 1.351 . S
C970 C964 1.428 . S
C970 N969 1.351 . S
C970 C971 1.434 1_545 S
C971 C962 1.429 . S
C971 N968 1.350 . S
C971 C970 1.434 1_565 S
C709 C446 1.558 . S
C711 C33 1.558 . S
C720 C92 1.560 . S
C722 C505 1.561 . S
C731 C151 1.557 . S
C733 C564 1.558 . S
C742 C210 1.562 . S
C744 C623 1.561 . S
C753 C682 1.561 . S
C755 C269 1.559 . S
C764 C387 1.562 . S
C766 C328 1.561 . S
C775 C642 1.761 . S
C777 C52 1.765 . S
C786 C111 1.761 . S
C788 C701 1.765 . S
C797 C170 1.765 . S
C799 C406 1.762 . S
C808 C465 1.761 . S
C810 C229 1.765 . S
C819 C524 1.762 . S
C821 C288 1.764 . S
C830 C583 1.759 . S
C832 C347 1.766 . S
C841 C5 1.720 . S
C843 C477 1.719 . S
C852 C64 1.718 . S
C854 C536 1.718 . S
C863 C595 1.720 . S
C865 C123 1.721 . S
C874 C182 1.720 . S
C876 C654 1.719 . S
C885 C359 1.720 . S
C887 C241 1.721 . S
C896 C418 1.720 . S
C898 C300 1.720 . S
C907 C180 1.339 . S
C909 C3 1.337 . S
C918 C239 1.339 . S
C920 C62 1.338 . S
C929 C121 1.333 . S
C931 C298 1.340 . S
C940 C357 1.342 . S
C942 C534 1.334 . S
C951 C416 1.335 . S
C953 C593 1.338 . S
C962 C652 1.335 . S
C964 C475 1.337 . S
