# Generated by pormake.
# Topology uob, (4)-cn, num edge types: 1
# Building blocks:
#     Node 0, Type 0, BuildingBlock: QUQFOY_clean_sbu_1, # of connection points: 4
#     Node 1, Type 0, BuildingBlock: QUQFOY_clean_sbu_1, # of connection points: 4
#     Node 2, Type 0, BuildingBlock: QUQFOY_clean_sbu_1, # of connection points: 4
#     Node 3, Type 0, BuildingBlock: QUQFOY_clean_sbu_1, # of connection points: 4
#     Node 4, Type 0, BuildingBlock: QUQFOY_clean_sbu_1, # of connection points: 4
#     Node 5, Type 0, BuildingBlock: QUQFOY_clean_sbu_1, # of connection points: 4
#     Node 6, Type 0, BuildingBlock: QUQFOY_clean_sbu_1, # of connection points: 4
#     Node 7, Type 0, BuildingBlock: QUQFOY_clean_sbu_1, # of connection points: 4
#     Node 8, Type 0, BuildingBlock: QUQFOY_clean_sbu_1, # of connection points: 4
#     Node 9, Type 0, BuildingBlock: QUQFOY_clean_sbu_1, # of connection points: 4
#     Node 10, Type 0, BuildingBlock: QUQFOY_clean_sbu_1, # of connection points: 4
#     Node 11, Type 0, BuildingBlock: QUQFOY_clean_sbu_1, # of connection points: 4
#     Node 12, Type 0, BuildingBlock: QUQFOY_clean_sbu_1, # of connection points: 4
#     Node 13, Type 0, BuildingBlock: QUQFOY_clean_sbu_1, # of connection points: 4
#     Node 14, Type 0, BuildingBlock: QUQFOY_clean_sbu_1, # of connection points: 4
#     Node 15, Type 0, BuildingBlock: QUQFOY_clean_sbu_1, # of connection points: 4
#     Edge 16, Type (0, 0), BuildingBlock: XIVTED_clean_linker_0, # of connection points: 2
#     Edge 17, Type (0, 0), BuildingBlock: XIVTED_clean_linker_0, # of connection points: 2
#     Edge 18, Type (0, 0), BuildingBlock: XIVTED_clean_linker_0, # of connection points: 2
#     Edge 19, Type (0, 0), BuildingBlock: XIVTED_clean_linker_0, # of connection points: 2
#     Edge 20, Type (0, 0), BuildingBlock: XIVTED_clean_linker_0, # of connection points: 2
#     Edge 21, Type (0, 0), BuildingBlock: XIVTED_clean_linker_0, # of connection points: 2
#     Edge 22, Type (0, 0), BuildingBlock: XIVTED_clean_linker_0, # of connection points: 2
#     Edge 23, Type (0, 0), BuildingBlock: XIVTED_clean_linker_0, # of connection points: 2
#     Edge 24, Type (0, 0), BuildingBlock: XIVTED_clean_linker_0, # of connection points: 2
#     Edge 25, Type (0, 0), BuildingBlock: XIVTED_clean_linker_0, # of connection points: 2
#     Edge 26, Type (0, 0), BuildingBlock: XIVTED_clean_linker_0, # of connection points: 2
#     Edge 27, Type (0, 0), BuildingBlock: XIVTED_clean_linker_0, # of connection points: 2
#     Edge 28, Type (0, 0), BuildingBlock: XIVTED_clean_linker_0, # of connection points: 2
#     Edge 29, Type (0, 0), BuildingBlock: XIVTED_clean_linker_0, # of connection points: 2
#     Edge 30, Type (0, 0), BuildingBlock: XIVTED_clean_linker_0, # of connection points: 2
#     Edge 31, Type (0, 0), BuildingBlock: XIVTED_clean_linker_0, # of connection points: 2
#     Edge 32, Type (0, 0), BuildingBlock: XIVTED_clean_linker_0, # of connection points: 2
#     Edge 33, Type (0, 0), BuildingBlock: XIVTED_clean_linker_0, # of connection points: 2
#     Edge 34, Type (0, 0), BuildingBlock: XIVTED_clean_linker_0, # of connection points: 2
#     Edge 35, Type (0, 0), BuildingBlock: XIVTED_clean_linker_0, # of connection points: 2
#     Edge 36, Type (0, 0), BuildingBlock: XIVTED_clean_linker_0, # of connection points: 2
#     Edge 37, Type (0, 0), BuildingBlock: XIVTED_clean_linker_0, # of connection points: 2
#     Edge 38, Type (0, 0), BuildingBlock: XIVTED_clean_linker_0, # of connection points: 2
#     Edge 39, Type (0, 0), BuildingBlock: XIVTED_clean_linker_0, # of connection points: 2
#     Edge 40, Type (0, 0), BuildingBlock: XIVTED_clean_linker_0, # of connection points: 2
#     Edge 41, Type (0, 0), BuildingBlock: XIVTED_clean_linker_0, # of connection points: 2
#     Edge 42, Type (0, 0), BuildingBlock: XIVTED_clean_linker_0, # of connection points: 2
#     Edge 43, Type (0, 0), BuildingBlock: XIVTED_clean_linker_0, # of connection points: 2
#     Edge 44, Type (0, 0), BuildingBlock: XIVTED_clean_linker_0, # of connection points: 2
#     Edge 45, Type (0, 0), BuildingBlock: XIVTED_clean_linker_0, # of connection points: 2
#     Edge 46, Type (0, 0), BuildingBlock: XIVTED_clean_linker_0, # of connection points: 2
#     Edge 47, Type (0, 0), BuildingBlock: XIVTED_clean_linker_0, # of connection points: 2
# Relax obj value: 0.047
# Max RMSD: 0.119
# Mean RMSD: 0.119
data_MOF--net-uob--node1-QUQFOY_clean_sbu_1--edge1-XIVTED_clean_linker_0
_symmetry_space_group_name_H-M    P1
_symmetry_Int_Tables_number       1
_symmetry_cell_setting            triclinic
loop_
_symmetry_equiv_pos_as_xyz
'x, y, z'
_cell_length_a     56.217319
_cell_length_b     56.242201
_cell_length_c     28.527753
_cell_angle_alpha  89.998286
_cell_angle_beta   90.003033
_cell_angle_gamma 90.023062
loop_
_atom_site_label
_atom_site_type_symbol
_atom_site_fract_x
_atom_site_fract_y
_atom_site_fract_z
_atom_type_partial_charge
O0 O 0.13993 0.07424 0.38596 0.0
Cd1 Cd 0.13995 0.04644 0.33933 0.0
Cd2 Cd 0.1199 0.08611 0.28669 0.0
O3 O 0.1308 0.10588 0.34383 0.0
O4 O 0.15722 0.0226 0.37883 0.0
O5 O 0.17252 0.03769 0.3142 0.0
C6 C 0.17533 0.02506 0.35163 0.0
C7 C 0.1239 0.10077 0.21007 0.0
C8 C 0.13735 0.09658 0.38232 0.0
C9 C 0.0889 0.04276 0.30845 0.0
O10 O 0.09069 0.06443 0.29618 0.0
O11 O 0.10711 0.03123 0.32246 0.0
O12 O 0.10869 0.10962 0.23898 0.0
O13 O 0.13773 0.08413 0.2253 0.0
O14 O 0.93648 0.6409 0.62218 0.0
Cd15 Cd 0.96615 0.64084 0.5803 0.0
Cd16 Cd 0.92755 0.62007 0.52197 0.0
O17 O 0.90628 0.62981 0.57767 0.0
O18 O 0.98841 0.65692 0.6251 0.0
O19 O 0.97716 0.67342 0.55866 0.0
C20 C 0.98798 0.67536 0.59842 0.0
C21 C 0.91348 0.62372 0.44477 0.0
C22 C 0.91439 0.6372 0.6166 0.0
C23 C 0.97088 0.58975 0.54903 0.0
O24 O 0.94984 0.5915 0.53295 0.0
O25 O 0.98161 0.60788 0.5657 0.0
O26 O 0.90507 0.608 0.47311 0.0
O27 O 0.92946 0.63812 0.46075 0.0
O28 O 0.37263 0.44082 0.87609 0.0
Cd29 Cd 0.37252 0.46888 0.83015 0.0
Cd30 Cd 0.39158 0.42918 0.77588 0.0
O31 O 0.38179 0.40933 0.83352 0.0
O32 O 0.35591 0.49258 0.87098 0.0
O33 O 0.3399 0.47822 0.80633 0.0
C34 C 0.33756 0.49054 0.84429 0.0
C35 C 0.38656 0.4141 0.69991 0.0
C36 C 0.37541 0.41852 0.87218 0.0
C37 C 0.42318 0.47227 0.7968 0.0
O38 O 0.42092 0.45079 0.78357 0.0
O39 O 0.40537 0.48381 0.81263 0.0
O40 O 0.40227 0.40554 0.72809 0.0
O41 O 0.37285 0.43074 0.71553 0.0
O42 O 0.56556 0.87887 0.15664 0.0
Cd43 Cd 0.54419 0.87536 0.09899 0.0
Cd44 Cd 0.58435 0.89111 0.05836 0.0
O45 O 0.59994 0.87865 0.11949 0.0
O46 O 0.51886 0.85331 0.12189 0.0
O47 O 0.54677 0.84279 0.07109 0.0
C48 C 0.52967 0.83672 0.09903 0.0
C49 C 0.59964 0.88423 0.98336 0.0
C50 C 0.58806 0.87694 0.15731 0.0
C51 C 0.54253 0.9245 0.0642 0.0
O52 O 0.56501 0.92222 0.06253 0.0
O53 O 0.52945 0.90642 0.07207 0.0
O54 O 0.60999 0.89856 0.01218 0.0
O55 O 0.58138 0.87249 0.99836 0.0
O56 O 0.14152 0.43831 0.94915 0.0
Cd57 Cd 0.1412 0.46682 0.99405 0.0
Cd58 Cd 0.12101 0.42711 0.04845 0.0
O59 O 0.1313 0.40699 0.99132 0.0
O60 O 0.15745 0.49026 0.95204 0.0
O61 O 0.17371 0.47705 0.01733 0.0
C62 C 0.17583 0.48895 0.97882 0.0
C63 C 0.12531 0.41292 0.12534 0.0
C64 C 0.13839 0.41605 0.95298 0.0
C65 C 0.09017 0.47052 0.02574 0.0
O66 O 0.09202 0.44904 0.03922 0.0
O67 O 0.10827 0.48181 0.01043 0.0
O68 O 0.10983 0.40403 0.09701 0.0
O69 O 0.13927 0.42928 0.10932 0.0
O70 O 0.57333 0.63546 0.20041 0.0
Cd71 Cd 0.54839 0.63852 0.25233 0.0
Cd72 Cd 0.58731 0.61969 0.30116 0.0
O73 O 0.60593 0.62974 0.24207 0.0
O74 O 0.52411 0.65915 0.22109 0.0
O75 O 0.5471 0.67153 0.27911 0.0
C76 C 0.53201 0.67646 0.2463 0.0
C77 C 0.60337 0.62481 0.37621 0.0
C78 C 0.59581 0.63403 0.20316 0.0
C79 C 0.54344 0.58888 0.28666 0.0
O80 O 0.5656 0.5903 0.29517 0.0
O81 O 0.53182 0.60728 0.27418 0.0
O82 O 0.61177 0.60926 0.34748 0.0
O83 O 0.5864 0.63839 0.3615 0.0
O84 O 0.37433 0.07624 0.45807 0.0
Cd85 Cd 0.37409 0.04557 0.4964 0.0
Cd86 Cd 0.39444 0.08283 0.56198 0.0
O87 O 0.38748 0.10464 0.505 0.0
O88 O 0.35762 0.02448 0.44998 0.0
O89 O 0.34153 0.03438 0.51768 0.0
C90 C 0.3393 0.02445 0.47707 0.0
C91 C 0.39047 0.09838 0.63815 0.0
C92 C 0.37945 0.09787 0.46554 0.0
C93 C 0.42405 0.03875 0.53399 0.0
O94 O 0.42171 0.05845 0.55541 0.0
O95 O 0.4071 0.02999 0.50974 0.0
O96 O 0.40727 0.10509 0.6105 0.0
O97 O 0.3752 0.08327 0.62205 0.0
O98 O 0.94077 0.87347 0.68972 0.0
Cd99 Cd 0.96818 0.8738 0.73719 0.0
Cd100 Cd 0.92811 0.89253 0.78893 0.0
O101 O 0.90868 0.88106 0.73175 0.0
O102 O 0.9925 0.85682 0.69847 0.0
O103 O 0.97696 0.84133 0.76254 0.0
C104 C 0.98987 0.83865 0.72544 0.0
C105 C 0.91374 0.88801 0.86559 0.0
C106 C 0.91832 0.87516 0.69319 0.0
C107 C 0.97063 0.92474 0.7681 0.0
O108 O 0.94889 0.92239 0.77958 0.0
O109 O 0.98274 0.90681 0.75465 0.0
O110 O 0.90431 0.90291 0.83676 0.0
O111 O 0.93079 0.87472 0.8502 0.0
O112 O 0.63558 0.56634 0.89117 0.0
Cd113 Cd 0.63831 0.54336 0.83582 0.0
Cd114 Cd 0.6216 0.58305 0.79182 0.0
O115 O 0.63335 0.59999 0.85169 0.0
O116 O 0.66004 0.51842 0.8615 0.0
O117 O 0.67079 0.5443 0.80692 0.0
C118 C 0.67671 0.52808 0.83691 0.0
C119 C 0.62794 0.59896 0.71714 0.0
C120 C 0.63625 0.58889 0.89006 0.0
C121 C 0.58868 0.54078 0.80224 0.0
O122 O 0.59089 0.56314 0.79726 0.0
O123 O 0.60681 0.52806 0.81184 0.0
O124 O 0.61307 0.60845 0.74601 0.0
O125 O 0.64023 0.58098 0.73161 0.0
O126 O 0.44767 0.13454 0.15269 0.0
Cd127 Cd 0.46939 0.13782 0.09552 0.0
Cd128 Cd 0.42942 0.12171 0.05418 0.0
O129 O 0.41344 0.13403 0.11502 0.0
O130 O 0.4944 0.16016 0.11868 0.0
O131 O 0.46693 0.17016 0.06658 0.0
C132 C 0.48372 0.17653 0.09497 0.0
C133 C 0.4142 0.12835 0.97901 0.0
C134 C 0.42515 0.1361 0.15297 0.0
C135 C 0.47149 0.08855 0.06139 0.0
O136 O 0.44902 0.09077 0.05877 0.0
O137 O 0.48444 0.10667 0.06972 0.0
O138 O 0.40397 0.11391 0.0078 0.0
O139 O 0.43231 0.14029 0.99409 0.0
O140 O 0.87373 0.93892 0.38463 0.0
Cd141 Cd 0.87371 0.96677 0.33815 0.0
Cd142 Cd 0.89383 0.92727 0.28538 0.0
O143 O 0.88294 0.90736 0.34232 0.0
O144 O 0.85615 0.99045 0.3775 0.0
O145 O 0.84119 0.97532 0.31258 0.0
C146 C 0.83815 0.98787 0.35005 0.0
C147 C 0.88984 0.91269 0.20872 0.0
C148 C 0.87634 0.91659 0.38084 0.0
C149 C 0.92477 0.97062 0.30757 0.0
O150 O 0.92301 0.94898 0.29508 0.0
O151 O 0.90653 0.98209 0.32163 0.0
O152 O 0.90509 0.90385 0.23757 0.0
O153 O 0.87599 0.9293 0.22402 0.0
O154 O 0.07148 0.37409 0.64301 0.0
Cd155 Cd 0.04436 0.37452 0.59482 0.0
Cd156 Cd 0.08478 0.39369 0.54455 0.0
O157 O 0.10386 0.38237 0.60233 0.0
O158 O 0.0198 0.35754 0.63299 0.0
O159 O 0.03562 0.34211 0.56911 0.0
C160 C 0.0225 0.33941 0.60593 0.0
C161 C 0.09911 0.38857 0.46802 0.0
C162 C 0.09393 0.37608 0.64039 0.0
C163 C 0.0419 0.42551 0.56359 0.0
O164 O 0.06378 0.42343 0.55306 0.0
O165 O 0.02985 0.40745 0.57664 0.0
O166 O 0.10857 0.40371 0.49636 0.0
O167 O 0.08207 0.37539 0.48389 0.0
O168 O 0.63973 0.93605 0.46225 0.0
Cd169 Cd 0.64012 0.96689 0.50006 0.0
Cd170 Cd 0.61955 0.93001 0.56642 0.0
O171 O 0.62611 0.90801 0.50953 0.0
O172 O 0.65681 0.9877 0.45344 0.0
O173 O 0.67267 0.97803 0.52148 0.0
C174 C 0.67504 0.98779 0.48075 0.0
C175 C 0.62338 0.91441 0.64261 0.0
C176 C 0.63428 0.91453 0.47001 0.0
C177 C 0.59027 0.97423 0.53782 0.0
O178 O 0.59255 0.95469 0.55985 0.0
O179 O 0.60717 0.98266 0.51301 0.0
O180 O 0.60646 0.90793 0.61502 0.0
O181 O 0.63883 0.92932 0.62646 0.0
O182 O 0.07275 0.1404 0.69091 0.0
Cd183 Cd 0.04496 0.13987 0.73754 0.0
Cd184 Cd 0.08504 0.121 0.79031 0.0
O185 O 0.10463 0.13227 0.73317 0.0
O186 O 0.02084 0.1566 0.69788 0.0
O187 O 0.03551 0.17222 0.76263 0.0
C188 C 0.02292 0.17476 0.72507 0.0
C189 C 0.09949 0.1254 0.867 0.0
C190 C 0.09516 0.13843 0.6946 0.0
C191 C 0.04245 0.0889 0.76869 0.0
O192 O 0.06408 0.09127 0.78094 0.0
O193 O 0.03047 0.10677 0.75454 0.0
O194 O 0.10877 0.11042 0.83815 0.0
O195 O 0.08253 0.13882 0.85164 0.0
O196 O 0.87914 0.56765 0.92742 0.0
Cd197 Cd 0.87625 0.54445 0.98246 0.0
Cd198 Cd 0.89331 0.58396 0.02681 0.0
O199 O 0.88103 0.60116 0.96741 0.0
O200 O 0.85505 0.51929 0.95578 0.0
O201 O 0.84347 0.54483 0.01027 0.0
C202 C 0.83805 0.52856 0.98003 0.0
C203 C 0.88719 0.59866 0.10259 0.0
C204 C 0.87821 0.59019 0.92882 0.0
C205 C 0.92588 0.5416 0.01592 0.0
O206 O 0.92395 0.56402 0.02036 0.0
O207 O 0.90757 0.52903 0.00686 0.0
O208 O 0.90183 0.60875 0.07404 0.0
O209 O 0.87489 0.58088 0.08713 0.0
O210 O 0.44422 0.37962 0.1848 0.0
Cd211 Cd 0.4671 0.37627 0.24029 0.0
Cd212 Cd 0.4274 0.39362 0.28412 0.0
O213 O 0.41043 0.38242 0.22373 0.0
O214 O 0.49222 0.35502 0.2137 0.0
O215 O 0.46631 0.34338 0.2675 0.0
C216 C 0.48271 0.33799 0.2375 0.0
C217 C 0.41174 0.38713 0.35896 0.0
C218 C 0.42164 0.3794 0.1855 0.0
C219 C 0.47039 0.42561 0.27557 0.0
O220 O 0.44793 0.42393 0.27971 0.0
O221 O 0.48274 0.40727 0.26573 0.0
O222 O 0.40228 0.40223 0.33053 0.0
O223 O 0.42941 0.37459 0.34382 0.0
H224 H 0.32771 0.01192 0.38729 0.0
H225 H 0.18775 1.00633 0.43665 0.0
H226 H 0.29699 0.01997 0.52501 0.0
H227 H 0.21764 0.02614 0.30288 0.0
H228 H 0.22794 1.00056 0.46731 0.0
H229 H 0.28782 1.00643 0.35484 0.0
C230 C 0.31264 0.01203 0.41095 0.0
C231 C 0.31576 0.01659 0.45904 0.0
C232 C 0.22568 1.00582 0.43106 0.0
C233 C 0.26996 0.01033 0.42181 0.0
C234 C 0.20272 0.00897 0.41332 0.0
C235 C 0.19924 0.01692 0.36708 0.0
C236 C 0.2454 0.01037 0.4023 0.0
C237 C 0.21943 0.02011 0.33874 0.0
C238 C 0.28985 0.00905 0.39225 0.0
C239 C 0.29547 0.01661 0.48776 0.0
N240 N 0.24163 0.01697 0.35688 0.0
N241 N 0.27344 0.01368 0.46868 0.0
H242 H 0.00862 0.82641 0.64036 0.0
H243 H 1.00191 0.68644 0.68761 0.0
H244 H 0.9886 0.79624 0.77376 0.0
H245 H 0.99222 0.71781 0.55087 0.0
H246 H 0.0082 0.72611 0.72039 0.0
H247 H 0.01389 0.7863 0.60908 0.0
C248 C 1.00586 0.81139 0.6635 0.0
C249 C 0.99796 0.81477 0.7098 0.0
C250 C 1.00506 0.72426 0.68311 0.0
C251 C 1.00395 0.76872 0.67386 0.0
C252 C 1.00162 0.70159 0.66419 0.0
C253 C 0.99635 0.69873 0.61632 0.0
C254 C 1.00356 0.74427 0.65394 0.0
C255 C 0.99612 0.71913 0.58794 0.0
C256 C 0.00871 0.78848 0.64539 0.0
C257 C 0.9946 0.79453 0.73787 0.0
N258 N 0.99953 0.74104 0.60721 0.0
N259 N 0.99747 0.77237 0.71938 0.0
H260 H 0.29514 0.4914 0.79607 0.0
H261 H 0.21821 0.49129 0.02698 0.0
H262 H 0.32573 0.50701 0.93137 0.0
H263 H 0.18727 0.50489 0.89117 0.0
H264 H 0.25778 0.4979 0.99326 0.0
H265 H 0.25542 0.49719 0.8296 0.0
C266 C 0.29355 0.49651 0.83254 0.0
C267 C 0.31385 0.4986 0.86091 0.0
C268 C 0.24228 0.49985 0.97106 0.0
C269 C 0.2684 0.50466 0.89984 0.0
C270 C 0.21968 0.49613 0.99034 0.0
C271 C 0.19935 0.49742 0.9619 0.0
C272 C 0.24462 0.50442 0.92279 0.0
C273 C 0.20239 0.50366 0.91452 0.0
C274 C 0.27086 0.49977 0.85172 0.0
C275 C 0.31064 0.50517 0.90808 0.0
N276 N 0.22458 0.5065 0.8963 0.0
N277 N 0.28838 0.50754 0.92623 0.0
H278 H 0.48945 0.81554 0.13483 0.0
H279 H 0.56096 0.71469 0.25919 0.0
H280 H 0.56241 0.8012 0.09758 0.0
H281 H 0.494 0.69443 0.19696 0.0
H282 H 0.55833 0.75315 0.21921 0.0
H283 H 0.48734 0.77624 0.17302 0.0
C284 C 0.50481 0.80394 0.13377 0.0
C285 C 0.52607 0.81155 0.11258 0.0
C286 C 0.54405 0.74037 0.21503 0.0
C287 C 0.52408 0.76747 0.15803 0.0
C288 C 0.54535 0.71857 0.23828 0.0
C289 C 0.52763 0.70134 0.2315 0.0
C290 C 0.52463 0.74525 0.18574 0.0
C291 C 0.50801 0.70726 0.20319 0.0
C292 C 0.50362 0.78168 0.15576 0.0
C293 C 0.54558 0.79596 0.11287 0.0
N294 N 0.50697 0.72881 0.18135 0.0
N295 N 0.54427 0.7749 0.13611 0.0
H296 H 0.71353 0.55902 0.82622 0.0
H297 H 0.81856 0.48864 0.93958 0.0
H298 H 0.6969 0.48938 0.88059 0.0
H299 H 0.80109 0.55956 0.98563 0.0
H300 H 0.77917 0.48587 0.90182 0.0
H301 H 0.75242 0.55694 0.86469 0.0
C302 C 0.71831 0.54298 0.84502 0.0
C303 C 0.70194 0.52431 0.85011 0.0
C304 C 0.78396 0.50183 0.92087 0.0
C305 C 0.74636 0.52194 0.89417 0.0
C306 C 0.80628 0.50339 0.94261 0.0
C307 C 0.81301 0.52429 0.9662 0.0
C308 C 0.7688 0.52162 0.92129 0.0
C309 C 0.79655 0.54302 0.96843 0.0
C310 C 0.74035 0.54198 0.86744 0.0
C311 C 0.70902 0.50414 0.87572 0.0
N312 N 0.77542 0.54143 0.94543 0.0
N313 N 0.73079 0.50343 0.89681 0.0
H314 H 0.52257 0.31858 0.19675 0.0
H315 H 0.45177 0.21259 0.08612 0.0
H316 H 0.45165 0.30103 0.24297 0.0
H317 H 0.52272 0.1977 0.13581 0.0
H318 H 0.45364 0.25156 0.12419 0.0
H319 H 0.52531 0.27926 0.15884 0.0
C320 C 0.50781 0.30629 0.19976 0.0
C321 C 0.48693 0.31298 0.22345 0.0
C322 C 0.46891 0.23985 0.12603 0.0
C323 C 0.48956 0.26884 0.17839 0.0
C324 C 0.46803 0.21777 0.10379 0.0
C325 C 0.48715 0.20185 0.10772 0.0
C326 C 0.48926 0.24637 0.1514 0.0
C327 C 0.5076 0.20945 0.13189 0.0
C328 C 0.50935 0.28402 0.17793 0.0
C329 C 0.46819 0.29652 0.22568 0.0
N330 N 0.50817 0.23124 0.15283 0.0
N331 N 0.46976 0.27542 0.20263 0.0
H332 H 0.79613 0.98674 0.30047 0.0
H333 H 0.71706 0.99273 0.52941 0.0
H334 H 0.82516 1.00589 0.43532 0.0
H335 H 0.68708 0.99962 0.39083 0.0
H336 H 0.75679 0.99859 0.49595 0.0
H337 H 0.756 0.99248 0.3321 0.0
C338 C 0.79411 0.9926 0.33641 0.0
C339 C 0.81411 0.99572 0.36525 0.0
C340 C 0.74147 0.99921 0.47298 0.0
C341 C 0.76817 1.00176 0.40207 0.0
C342 C 0.71876 0.9959 0.49211 0.0
C343 C 0.69865 0.99558 0.46295 0.0
C344 C 0.74416 1.00175 0.4242 0.0
C345 C 0.70202 0.99971 0.41475 0.0
C346 C 0.77118 0.99582 0.35453 0.0
C347 C 0.81033 1.00324 0.4117 0.0
N348 N 0.72431 1.00222 0.39683 0.0
N349 N 0.78786 1.0056 0.42884 0.0
H350 H 1.00484 0.32672 0.69161 0.0
H351 H 1.00622 0.18721 0.63851 0.0
H352 H 0.02222 0.29747 0.55601 0.0
H353 H 0.02145 0.2167 0.77492 0.0
H354 H 1.00027 0.22743 0.60817 0.0
H355 H 0.99911 0.28641 0.72168 0.0
C356 C 0.00691 0.31188 0.66777 0.0
C357 C 0.0142 0.31554 0.62116 0.0
C358 C 1.00453 0.22504 0.6449 0.0
C359 C 0.00763 0.2693 0.65567 0.0
C360 C 0.00777 0.20208 0.66245 0.0
C361 C 0.01452 0.19852 0.7094 0.0
C362 C 0.0077 0.24466 0.67458 0.0
C363 C 0.01637 0.21857 0.73851 0.0
C364 C 1.00379 0.28886 0.68517 0.0
C365 C 0.0167 0.29552 0.59217 0.0
N366 N 0.01311 0.24079 0.72057 0.0
N367 N 0.01355 0.27325 0.60995 0.0
H368 H 0.07722 0.99534 0.31811 0.0
H369 H 0.93643 0.01802 0.31786 0.0
H370 H 0.0458 0.0646 0.29768 0.0
H371 H 0.96788 0.94883 0.29671 0.0
H372 H 0.97644 0.03549 0.31797 0.0
H373 H 0.0372 0.97787 0.31778 0.0
C374 C 0.06197 0.00687 0.31353 0.0
C375 C 0.06497 0.03147 0.30774 0.0
C376 C 0.97452 0.01648 0.3132 0.0
C377 C 0.01911 0.01165 0.30781 0.0
C378 C 0.95168 1.00651 0.31321 0.0
C379 C 0.9487 0.98192 0.3071 0.0
C380 C 0.99455 1.00175 0.30767 0.0
C381 C 0.96922 0.96789 0.30128 0.0
C382 C 0.03913 0.99689 0.31327 0.0
C383 C 0.04446 0.04553 0.30199 0.0
N384 N 0.9912 0.97796 0.30192 0.0
N385 N 0.02247 0.03545 0.30239 0.0
H386 H 0.01761 0.57808 0.56783 0.0
H387 H 0.99435 0.4375 0.56646 0.0
H388 H 0.94966 0.54671 0.53379 0.0
H389 H 0.06447 0.46841 0.55633 0.0
H390 H 0.97723 0.47758 0.56276 0.0
H391 H 0.03487 0.53805 0.57167 0.0
C392 C 1.00634 0.56284 0.56107 0.0
C393 C 0.98216 0.56585 0.55027 0.0
C394 C 0.99636 0.47554 0.56127 0.0
C395 C 1.00171 0.52 0.55521 0.0
C396 C 1.00614 0.45266 0.56351 0.0
C397 C 0.03088 0.44951 0.56151 0.0
C398 C 0.01144 0.49543 0.55767 0.0
C399 C 0.04528 0.4699 0.55769 0.0
C400 C 0.0162 0.54 0.56322 0.0
C401 C 0.96841 0.54536 0.54195 0.0
N402 N 0.03537 0.49193 0.5561 0.0
N403 N 0.97833 0.52337 0.54483 0.0
H404 H 0.43593 0.51904 0.81206 0.0
H405 H 0.57604 0.49338 0.80113 0.0
H406 H 0.46557 0.45022 0.77913 0.0
H407 H 0.54607 0.56402 0.79664 0.0
H408 H 0.53567 0.47689 0.79847 0.0
H409 H 0.47627 0.53571 0.81198 0.0
C410 C 0.45085 0.50745 0.80469 0.0
C411 C 0.44726 0.4832 0.79549 0.0
C412 C 0.53798 0.49601 0.79789 0.0
C413 C 0.49349 0.50209 0.79581 0.0
C414 C 0.56103 0.50542 0.79945 0.0
C415 C 0.56454 0.53012 0.79901 0.0
C416 C 0.51827 0.5114 0.79644 0.0
C417 C 0.54433 0.54485 0.79687 0.0
C418 C 0.47388 0.51697 0.80459 0.0
C419 C 0.46737 0.46904 0.78623 0.0
N420 N 0.52213 0.53528 0.79592 0.0
N421 N 0.48955 0.47865 0.78687 0.0
H422 H 0.56606 0.96673 0.05343 0.0
H423 H 0.44818 0.04629 0.04933 0.0
H424 H 0.49521 0.93751 0.06376 0.0
H425 H 0.51881 0.07559 0.06382 0.0
H426 H 0.46521 1.00648 0.04662 0.0
H427 H 0.5491 0.00655 0.0493 0.0
C428 C 0.54689 0.96862 0.05459 0.0
C429 C 0.53205 0.94862 0.05914 0.0
C430 C 0.47701 0.0216 0.05026 0.0
C431 C 0.5125 0.99445 0.05441 0.0
C432 C 0.46732 0.04442 0.0517 0.0
C433 C 0.48207 0.06444 0.057 0.0
C434 C 0.50171 0.01861 0.05393 0.0
C435 C 0.50673 0.06074 0.05982 0.0
C436 C 0.53724 0.99145 0.05235 0.0
C437 C 0.50736 0.95234 0.0604 0.0
N438 N 0.51576 0.03828 0.05832 0.0
N439 N 0.49837 0.9748 0.05812 0.0
H440 H 0.0783 0.51739 0.00932 0.0
H441 H 0.93773 0.49406 0.01873 0.0
H442 H 0.04731 0.44923 0.04294 0.0
H443 H 0.96887 0.56423 0.02077 0.0
H444 H 0.97779 0.47695 0.02245 0.0
H445 H 0.03827 0.53471 0.00824 0.0
C446 C 0.06314 0.50608 0.01659 0.0
C447 C 0.06627 0.48181 0.0263 0.0
C448 C 0.97581 0.4961 0.02225 0.0
C449 C 0.02038 0.50146 0.02469 0.0
C450 C 0.95293 0.50587 0.02006 0.0
C451 C 0.94985 0.53063 0.01951 0.0
C452 C 0.99578 0.51118 0.02335 0.0
C453 C 0.9703 0.54504 0.02128 0.0
C454 C 0.04029 0.51598 0.01602 0.0
C455 C 0.04588 0.46804 0.03542 0.0
N456 N 0.99233 0.53513 0.02288 0.0
N457 N 0.02387 0.47801 0.03416 0.0
H458 H 0.5181 0.43697 0.27697 0.0
H459 H 0.49593 0.5777 0.27633 0.0
H460 H 0.44827 0.46866 0.28466 0.0
H461 H 0.56461 0.54574 0.30115 0.0
H462 H 0.47813 0.5379 0.27587 0.0
H463 H 0.53567 0.47678 0.2822 0.0
C464 C 0.50647 0.45224 0.2799 0.0
C465 C 0.48166 0.44938 0.28038 0.0
C466 C 0.49708 0.53965 0.28166 0.0
C467 C 0.50163 0.49504 0.28601 0.0
C468 C 0.50725 0.56238 0.28192 0.0
C469 C 0.53182 0.56516 0.28879 0.0
C470 C 0.51161 0.51952 0.28782 0.0
C471 C 0.54559 0.54457 0.29579 0.0
C472 C 0.5165 0.47497 0.28295 0.0
C473 C 0.46748 0.4699 0.28424 0.0
N474 N 0.53534 0.52269 0.29484 0.0
N475 N 0.47764 0.4918 0.28664 0.0
H476 H 0.44671 0.01432 0.4637 0.0
H477 H 0.56007 0.97791 0.61203 0.0
H478 H 0.45543 0.03758 0.60672 0.0
H479 H 0.56654 0.99613 0.46578 0.0
H480 H 0.51914 0.993 0.61147 0.0
H481 H 0.48805 0.9998 0.46429 0.0
C482 C 0.45717 0.01597 0.49542 0.0
C483 C 0.44765 0.02707 0.5353 0.0
C484 C 0.5296 0.99385 0.57963 0.0
C485 C 0.49466 0.01056 0.53617 0.0
C486 C 0.55292 0.98533 0.57994 0.0
C487 C 0.56675 0.98603 0.53901 0.0
C488 C 0.51974 1.00243 0.53774 0.0
C489 C 0.55657 0.99561 0.49823 0.0
C490 C 0.48077 0.00797 0.49554 0.0
C491 C 0.4621 0.02912 0.57526 0.0
N492 N 0.53352 1.00315 0.49842 0.0
N493 N 0.4848 0.0208 0.57481 0.0
H494 H 0.06534 0.04646 0.7808 0.0
H495 H 0.94759 0.96721 0.77842 0.0
H496 H 0.99536 0.07593 0.75829 0.0
H497 H 0.01783 0.93768 0.75975 0.0
H498 H 0.96476 0.00703 0.77873 0.0
H499 H 0.04817 0.00664 0.78081 0.0
C500 C 0.04632 0.04461 0.77603 0.0
C501 C 0.03178 0.0647 0.76958 0.0
C502 C 0.97642 0.99187 0.77453 0.0
C503 C 0.01199 0.01888 0.76968 0.0
C504 C 0.96667 0.96904 0.77455 0.0
C505 C 0.98128 0.94893 0.7691 0.0
C506 C 1.00107 0.99477 0.76955 0.0
C507 C 1.00586 0.95259 0.76399 0.0
C508 C 0.03656 0.02179 0.77584 0.0
C509 C 0.00727 0.06103 0.76333 0.0
N510 N 0.01498 0.97505 0.76455 0.0
N511 N 0.99814 0.03858 0.76374 0.0
H512 H 0.1389 0.11916 0.6746 0.0
H513 H 0.11723 0.13993 0.40225 0.0
H514 H 0.08391 0.16385 0.61656 0.0
H515 H 0.16305 0.0859 0.46034 0.0
H516 H 0.1143 0.15816 0.48006 0.0
H517 H 0.15706 0.11644 0.59668 0.0
C518 C 0.13101 0.1289 0.64576 0.0
C519 C 0.10957 0.14123 0.65169 0.0
C520 C 0.12541 0.1426 0.47551 0.0
C521 C 0.13002 0.13807 0.56273 0.0
C522 C 0.12716 0.13227 0.43107 0.0
C523 C 0.13989 0.11106 0.42519 0.0
C524 C 0.13651 0.1316 0.51404 0.0
C525 C 0.15254 0.10195 0.46365 0.0
C526 C 0.1413 0.12726 0.60127 0.0
C527 C 0.10016 0.15365 0.61321 0.0
N528 N 0.15022 0.11203 0.5066 0.0
N529 N 0.11021 0.15143 0.57022 0.0
H530 H 0.87364 0.61216 0.63535 0.0
H531 H 0.89046 0.63634 0.90821 0.0
H532 H 0.92075 0.66505 0.69353 0.0
H533 H 0.85792 0.57374 0.84865 0.0
H534 H 0.89039 0.65475 0.83024 0.0
H535 H 0.85615 0.60647 0.71319 0.0
C536 C 0.87976 0.62312 0.66415 0.0
C537 C 0.89904 0.63865 0.65839 0.0
C538 C 0.88286 0.63716 0.83451 0.0
C539 C 0.87945 0.63206 0.74724 0.0
C540 C 0.88289 0.62668 0.87894 0.0
C541 C 0.87477 0.60328 0.88453 0.0
C542 C 0.87451 0.62415 0.79574 0.0
C543 C 0.86493 0.59161 0.84558 0.0
C544 C 0.86992 0.61975 0.70863 0.0
C545 C 0.90626 0.65247 0.69683 0.0
N546 N 0.86536 0.60204 0.80274 0.0
N547 N 0.89677 0.64854 0.73985 0.0
H548 H 0.43735 0.35726 0.10675 0.0
H549 H 0.34801 0.42714 0.94882 0.0
H550 H 0.37693 0.39515 0.16246 0.0
H551 H 0.39934 0.37751 0.89364 0.0
H552 H 0.3531 0.40976 0.02644 0.0
H553 H 0.41935 0.35851 0.02913 0.0
C554 C 0.4201 0.3656 0.10266 0.0
C555 C 0.40883 0.37662 0.14077 0.0
C556 C 0.36287 0.40225 0.99727 0.0
C557 C 0.38822 0.37836 0.05186 0.0
C558 C 0.35997 0.41217 0.95292 0.0
C559 C 0.37368 0.40405 0.91508 0.0
C560 C 0.38 0.38443 1.00397 0.0
C561 C 0.38862 0.38444 0.92205 0.0
C562 C 0.40976 0.36619 0.05835 0.0
C563 C 0.38632 0.38671 0.13382 0.0
N564 N 0.39183 0.37565 0.96599 0.0
N565 N 0.37697 0.38781 0.08991 0.0
H566 H 0.60503 0.87654 0.4526 0.0
H567 H 0.63474 0.88574 0.1804 0.0
H568 H 0.664 0.91596 0.39494 0.0
H569 H 0.56853 0.86007 0.23795 0.0
H570 H 0.65186 0.88548 0.25948 0.0
H571 H 0.59845 0.85843 0.37556 0.0
C572 C 0.61708 0.88076 0.42416 0.0
C573 C 0.63471 0.89815 0.4297 0.0
C574 C 0.63371 0.87951 0.25458 0.0
C575 C 0.62711 0.87793 0.34171 0.0
C576 C 0.62395 0.87967 0.20951 0.0
C577 C 0.60002 0.87353 0.20288 0.0
C578 C 0.61942 0.87305 0.29302 0.0
C579 C 0.5869 0.86555 0.24171 0.0
C580 C 0.61321 0.8706 0.38011 0.0
C581 C 0.64986 0.90298 0.39174 0.0
N582 N 0.59667 0.86583 0.28517 0.0
N583 N 0.64544 0.89328 0.3491 0.0
H584 H 0.08205 0.34946 0.71644 0.0
H585 H 0.16664 0.4248 0.87758 0.0
H586 H 0.13719 0.39558 0.66351 0.0
H587 H 0.11505 0.37473 0.93039 0.0
H588 H 0.16283 0.40721 0.79988 0.0
H589 H 0.10014 0.35121 0.79396 0.0
C590 C 0.09826 0.35964 0.72101 0.0
C591 C 0.10786 0.37285 0.68379 0.0
C592 C 0.15269 0.39968 0.82855 0.0
C593 C 0.12847 0.37524 0.77273 0.0
C594 C 0.15487 0.40971 0.87298 0.0
C595 C 0.14073 0.40152 0.91018 0.0
C596 C 0.13591 0.3816 0.82105 0.0
C597 C 0.12609 0.38173 0.90252 0.0
C598 C 0.10861 0.3606 0.76532 0.0
C599 C 0.12908 0.38535 0.6914 0.0
N600 N 0.12363 0.37279 0.85849 0.0
N601 N 0.1384 0.38668 0.73534 0.0
H602 H 0.58484 0.65943 0.12521 0.0
H603 H 0.65854 0.57351 0.96889 0.0
H604 H 0.63794 0.61212 0.18178 0.0
H605 H 0.62037 0.63355 0.9124 0.0
H606 H 0.65665 0.59147 0.04652 0.0
H607 H 0.60262 0.6551 0.04778 0.0
C608 C 0.60057 0.64846 0.12137 0.0
C609 C 0.60967 0.63566 0.15955 0.0
C610 C 0.64909 0.60101 0.0171 0.0
C611 C 0.62983 0.63026 0.07099 0.0
C612 C 0.65006 0.5907 0.97281 0.0
C613 C 0.63908 0.60184 0.93453 0.0
C614 C 0.63656 0.62235 0.02333 0.0
C615 C 0.62877 0.62426 0.94121 0.0
C616 C 0.61077 0.64605 0.07719 0.0
C617 C 0.63026 0.62206 0.15303 0.0
N618 N 0.62727 0.63355 0.98509 0.0
N619 N 0.63934 0.61923 0.10922 0.0
H620 H 0.40783 0.13652 0.44798 0.0
H621 H 0.37866 0.12616 0.17576 0.0
H622 H 0.34993 0.09555 0.39025 0.0
H623 H 0.444 0.1539 0.23343 0.0
H624 H 0.36142 0.12613 0.25474 0.0
H625 H 0.41399 0.15475 0.37091 0.0
C626 C 0.39592 0.13196 0.41951 0.0
C627 C 0.37874 0.11413 0.42505 0.0
C628 C 0.37939 0.13262 0.24988 0.0
C629 C 0.38586 0.13449 0.33703 0.0
C630 C 0.38921 0.13264 0.20486 0.0
C631 C 0.41297 0.13944 0.19833 0.0
C632 C 0.39344 0.13956 0.28834 0.0
C633 C 0.42579 0.14791 0.23714 0.0
C634 C 0.39955 0.1422 0.37544 0.0
C635 C 0.36375 0.10888 0.38706 0.0
N636 N 0.41597 0.14744 0.28055 0.0
N637 N 0.36794 0.11867 0.3444 0.0
H638 H 0.87437 0.89387 0.67293 0.0
H639 H 0.89673 0.87337 0.40075 0.0
H640 H 0.93008 0.85 0.61515 0.0
H641 H 0.85031 0.92695 0.45856 0.0
H642 H 0.89965 0.85512 0.47854 0.0
H643 H 0.85627 0.89633 0.59492 0.0
C644 C 0.88244 0.88426 0.64412 0.0
C645 C 0.90405 0.87224 0.65014 0.0
C646 C 0.8884 0.87058 0.47393 0.0
C647 C 0.88366 0.87509 0.5611 0.0
C648 C 0.88666 0.88091 0.4295 0.0
C649 C 0.87376 0.90202 0.42358 0.0
C650 C 0.87715 0.88147 0.5124 0.0
C651 C 0.86094 0.91099 0.46194 0.0
C652 C 0.87218 0.88574 0.59958 0.0
C653 C 0.91369 0.85997 0.61172 0.0
N654 N 0.86327 0.90091 0.50488 0.0
N655 N 0.90365 0.86203 0.56868 0.0
H656 H 0.13518 0.0998 0.90822 0.0
H657 H 0.09725 0.13573 0.16897 0.0
H658 H 0.08051 0.15121 0.93982 0.0
H659 H 0.15044 0.08282 0.13727 0.0
H660 H 0.09413 0.1449 0.08556 0.0
H661 H 0.14418 0.09672 0.99171 0.0
C662 C 0.12522 0.11066 0.93266 0.0
C663 C 0.10692 0.12568 0.91691 0.0
C664 C 0.10665 0.13143 0.09681 0.0
C665 C 0.11706 0.12206 0.01293 0.0
C666 C 0.10848 0.12619 0.14453 0.0
C667 C 0.12402 0.10833 0.16022 0.0
C668 C 0.12038 0.11867 0.06429 0.0
C669 C 0.13816 0.09666 0.12683 0.0
C670 C 0.13036 0.10885 0.98042 0.0
C671 C 0.0947 0.13935 0.95031 0.0
N672 N 0.13586 0.10189 0.08045 0.0
N673 N 0.09986 0.13706 0.99674 0.0
H674 H 0.9301 0.65207 0.37338 0.0
H675 H 0.8613 0.57879 0.17428 0.0
H676 H 0.88013 0.59566 0.40217 0.0
H677 H 0.91167 0.6348 0.14511 0.0
H678 H 0.86456 0.58778 0.25795 0.0
H679 H 0.92036 0.64901 0.28993 0.0
C680 C 0.9169 0.63923 0.36226 0.0
C681 C 0.90606 0.62398 0.39485 0.0
C682 C 0.87472 0.59827 0.23322 0.0
C683 C 0.89492 0.62026 0.29927 0.0
C684 C 0.87279 0.59319 0.18537 0.0
C685 C 0.88636 0.60593 0.15257 0.0
C686 C 0.8904 0.61617 0.24848 0.0
C687 C 0.90097 0.6244 0.16909 0.0
C688 C 0.91136 0.63745 0.31457 0.0
C689 C 0.88906 0.60769 0.37834 0.0
N690 N 0.90276 0.62882 0.21583 0.0
N691 N 0.88416 0.60614 0.33177 0.0
H692 H 0.35846 0.43108 0.62853 0.0
H693 H 0.43036 0.36032 0.4306 0.0
H694 H 0.41314 0.37936 0.65806 0.0
H695 H 0.37575 0.41208 0.40078 0.0
H696 H 0.42087 0.36345 0.51407 0.0
H697 H 0.36113 0.42091 0.54526 0.0
C698 C 0.37081 0.41738 0.61762 0.0
C699 C 0.38573 0.40622 0.65033 0.0
C700 C 0.41077 0.37393 0.48922 0.0
C701 C 0.38905 0.39459 0.55497 0.0
C702 C 0.41614 0.37208 0.44149 0.0
C703 C 0.40398 0.3861 0.40861 0.0
C704 C 0.39318 0.38999 0.50425 0.0
C705 C 0.38572 0.40103 0.42485 0.0
C706 C 0.37238 0.41161 0.57003 0.0
C707 C 0.40139 0.38857 0.6341 0.0
N708 N 0.38104 0.40275 0.47149 0.0
N709 N 0.40278 0.38347 0.58761 0.0
H710 H 0.65356 0.9281 0.71358 0.0
H711 H 0.57899 0.85945 0.91107 0.0
H712 H 0.5941 0.88187 0.68433 0.0
H713 H 0.63667 0.90771 0.94148 0.0
H714 H 0.58774 0.86337 0.82743 0.0
H715 H 0.65099 0.91702 0.79649 0.0
C716 C 0.64015 0.91542 0.72445 0.0
C717 C 0.62391 0.90607 0.69195 0.0
C718 C 0.59866 0.8729 0.85242 0.0
C719 C 0.62076 0.89338 0.78687 0.0
C720 C 0.59373 0.87058 0.90026 0.0
C721 C 0.60698 0.88341 0.93341 0.0
C722 C 0.61694 0.88823 0.83752 0.0
C723 C 0.62587 0.89758 0.91721 0.0
C724 C 0.63865 0.90913 0.77184 0.0
C725 C 0.6069 0.88969 0.70812 0.0
N726 N 0.63013 0.89979 0.87048 0.0
N727 N 0.60567 0.88402 0.75438 0.0
H728 H 0.08032 0.36164 0.39665 0.0
H729 H 0.15283 0.4308 0.19678 0.0
H730 H 0.13423 0.41434 0.42518 0.0
H731 H 0.09804 0.37901 0.16832 0.0
H732 H 0.1494 0.42182 0.28049 0.0
H733 H 0.08964 0.36452 0.31302 0.0
C734 C 0.09431 0.3736 0.38543 0.0
C735 C 0.10638 0.38788 0.41803 0.0
C736 C 0.13828 0.41225 0.25588 0.0
C737 C 0.11704 0.39143 0.32219 0.0
C738 C 0.14029 0.41734 0.20803 0.0
C739 C 0.12559 0.40578 0.17543 0.0
C740 C 0.12141 0.39552 0.27133 0.0
C741 C 0.10965 0.38848 0.19214 0.0
C742 C 0.09959 0.37529 0.33762 0.0
C743 C 0.12436 0.40307 0.40136 0.0
N744 N 0.10786 0.38403 0.23886 0.0
N745 N 0.12899 0.40457 0.35466 0.0
H746 H 0.60424 0.63633 0.67732 0.0
H747 H 0.63905 0.5987 0.41609 0.0
H748 H 0.65376 0.58014 0.64429 0.0
H749 H 0.5863 0.65187 0.44901 0.0
H750 H 0.64891 0.59578 0.4992 0.0
H751 H 0.60183 0.64625 0.59416 0.0
C752 C 0.61487 0.62625 0.65266 0.0
C753 C 0.62907 0.6072 0.66784 0.0
C754 C 0.63535 0.60827 0.48826 0.0
C755 C 0.62621 0.6184 0.57227 0.0
C756 C 0.62972 0.61 0.44072 0.0
C757 C 0.61164 0.62541 0.42553 0.0
C758 C 0.62276 0.62198 0.52106 0.0
C759 C 0.60027 0.63967 0.45912 0.0
C760 C 0.61343 0.63192 0.60509 0.0
C761 C 0.64249 0.59489 0.63421 0.0
N762 N 0.60586 0.63744 0.50533 0.0
N763 N 0.64055 0.60055 0.58798 0.0
H764 H 0.36052 0.08428 0.70916 0.0
H765 H 0.43462 0.15336 0.90677 0.0
H766 H 0.41944 0.13119 0.67989 0.0
H767 H 0.37741 0.10453 0.93707 0.0
H768 H 0.42585 0.14946 0.82313 0.0
H769 H 0.36309 0.09525 0.79212 0.0
C770 C 0.37381 0.09709 0.72005 0.0
C771 C 0.3899 0.10667 0.68752 0.0
C772 C 0.41503 0.1398 0.8481 0.0
C773 C 0.39305 0.11923 0.7825 0.0
C774 C 0.41998 0.1421 0.89593 0.0
C775 C 0.40686 0.12911 0.92906 0.0
C776 C 0.39688 0.12433 0.83317 0.0
C777 C 0.3881 0.11478 0.91283 0.0
C778 C 0.37531 0.10332 0.76746 0.0
C779 C 0.40675 0.12321 0.70371 0.0
N780 N 0.38382 0.11261 0.8661 0.0
N781 N 0.40799 0.12881 0.75 0.0
H782 H 0.91655 0.87781 0.16751 0.0
H783 H 0.87795 0.91341 0.90696 0.0
H784 H 0.86314 0.93056 0.13607 0.0
H785 H 0.93297 0.86234 0.93833 0.0
H786 H 0.86908 0.91649 0.9905 0.0
H787 H 0.91953 0.86861 0.0841 0.0
C788 C 0.90524 0.88731 0.14313 0.0
C789 C 0.88967 0.90513 0.15888 0.0
C790 C 0.88295 0.90444 0.97915 0.0
C791 C 0.89316 0.89474 0.06297 0.0
C792 C 0.88801 0.90262 0.93136 0.0
C793 C 0.90637 0.8877 0.91553 0.0
C794 C 0.89639 0.89132 0.0116 0.0
C795 C 0.91873 0.87412 0.94888 0.0
C796 C 0.907 0.88205 0.09541 0.0
C797 C 0.87544 0.91675 0.12556 0.0
N798 N 0.91365 0.87641 0.99533 0.0
N799 N 0.87767 0.91149 0.07919 0.0
loop_
_geom_bond_atom_site_label_1
_geom_bond_atom_site_label_2
_geom_bond_distance
_geom_bond_site_symmetry_2
_ccdc_geom_bond_type
O0 Cd1 2.223 . S
O0 C8 1.315 . S
Cd1 O0 2.223 . S
Cd1 O4 2.297 . S
Cd1 O5 2.439 . S
Cd1 O11 2.240 . S
Cd2 O3 2.240 . S
Cd2 O10 2.223 . S
Cd2 O12 2.297 . S
Cd2 O13 2.439 . S
O3 Cd2 2.240 . S
O3 C8 1.279 . S
O4 Cd1 2.297 . S
O4 C6 1.247 . S
O5 Cd1 2.439 . S
O5 C6 1.208 . S
C6 O4 1.247 . S
C6 O5 1.208 . S
C7 O12 1.247 . S
C7 O13 1.208 . S
C8 O0 1.315 . S
C8 O3 1.279 . S
C9 O10 1.315 . S
C9 O11 1.279 . S
O10 Cd2 2.223 . S
O10 C9 1.315 . S
O11 Cd1 2.240 . S
O11 C9 1.279 . S
O12 Cd2 2.297 . S
O12 C7 1.247 . S
O13 Cd2 2.439 . S
O13 C7 1.208 . S
O14 Cd15 2.223 . S
O14 C22 1.315 . S
Cd15 O14 2.223 . S
Cd15 O18 2.297 . S
Cd15 O19 2.439 . S
Cd15 O25 2.240 . S
Cd16 O17 2.240 . S
Cd16 O24 2.223 . S
Cd16 O26 2.297 . S
Cd16 O27 2.439 . S
O17 Cd16 2.240 . S
O17 C22 1.279 . S
O18 Cd15 2.297 . S
O18 C20 1.247 . S
O19 Cd15 2.439 . S
O19 C20 1.208 . S
C20 O18 1.247 . S
C20 O19 1.208 . S
C21 O26 1.247 . S
C21 O27 1.208 . S
C22 O14 1.315 . S
C22 O17 1.279 . S
C23 O24 1.315 . S
C23 O25 1.279 . S
O24 Cd16 2.223 . S
O24 C23 1.315 . S
O25 Cd15 2.240 . S
O25 C23 1.279 . S
O26 Cd16 2.297 . S
O26 C21 1.247 . S
O27 Cd16 2.439 . S
O27 C21 1.208 . S
O28 Cd29 2.223 . S
O28 C36 1.315 . S
Cd29 O28 2.223 . S
Cd29 O32 2.297 . S
Cd29 O33 2.439 . S
Cd29 O39 2.240 . S
Cd30 O31 2.240 . S
Cd30 O38 2.223 . S
Cd30 O40 2.297 . S
Cd30 O41 2.439 . S
O31 Cd30 2.240 . S
O31 C36 1.279 . S
O32 Cd29 2.297 . S
O32 C34 1.247 . S
O33 Cd29 2.439 . S
O33 C34 1.208 . S
C34 O32 1.247 . S
C34 O33 1.208 . S
C35 O40 1.247 . S
C35 O41 1.208 . S
C36 O28 1.315 . S
C36 O31 1.279 . S
C37 O38 1.315 . S
C37 O39 1.279 . S
O38 Cd30 2.223 . S
O38 C37 1.315 . S
O39 Cd29 2.240 . S
O39 C37 1.279 . S
O40 Cd30 2.297 . S
O40 C35 1.247 . S
O41 Cd30 2.439 . S
O41 C35 1.208 . S
O42 Cd43 2.223 . S
O42 C50 1.315 . S
Cd43 O42 2.223 . S
Cd43 O46 2.297 . S
Cd43 O47 2.439 . S
Cd43 O53 2.240 . S
Cd44 O45 2.240 . S
Cd44 O52 2.223 . S
Cd44 O54 2.297 1_554 S
Cd44 O55 2.439 1_554 S
O45 Cd44 2.240 . S
O45 C50 1.279 . S
O46 Cd43 2.297 . S
O46 C48 1.247 . S
O47 Cd43 2.439 . S
O47 C48 1.208 . S
C48 O46 1.247 . S
C48 O47 1.208 . S
C49 O54 1.247 . S
C49 O55 1.208 . S
C50 O42 1.315 . S
C50 O45 1.279 . S
C51 O52 1.315 . S
C51 O53 1.279 . S
O52 Cd44 2.223 . S
O52 C51 1.315 . S
O53 Cd43 2.240 . S
O53 C51 1.279 . S
O54 Cd44 2.297 1_556 S
O54 C49 1.247 . S
O55 Cd44 2.439 1_556 S
O55 C49 1.208 . S
O56 Cd57 2.223 . S
O56 C64 1.315 . S
Cd57 O56 2.223 . S
Cd57 O60 2.297 . S
Cd57 O61 2.439 1_556 S
Cd57 O67 2.240 1_556 S
Cd58 O59 2.240 1_554 S
Cd58 O66 2.223 . S
Cd58 O68 2.297 . S
Cd58 O69 2.439 . S
O59 Cd58 2.240 1_556 S
O59 C64 1.279 . S
O60 Cd57 2.297 . S
O60 C62 1.247 . S
O61 Cd57 2.439 1_554 S
O61 C62 1.208 1_554 S
C62 O60 1.247 . S
C62 O61 1.208 1_556 S
C63 O68 1.247 . S
C63 O69 1.208 . S
C64 O56 1.315 . S
C64 O59 1.279 . S
C65 O66 1.315 . S
C65 O67 1.279 . S
O66 Cd58 2.223 . S
O66 C65 1.315 . S
O67 Cd57 2.240 1_554 S
O67 C65 1.279 . S
O68 Cd58 2.297 . S
O68 C63 1.247 . S
O69 Cd58 2.439 . S
O69 C63 1.208 . S
O70 Cd71 2.223 . S
O70 C78 1.315 . S
Cd71 O70 2.223 . S
Cd71 O74 2.297 . S
Cd71 O75 2.439 . S
Cd71 O81 2.240 . S
Cd72 O73 2.240 . S
Cd72 O80 2.223 . S
Cd72 O82 2.297 . S
Cd72 O83 2.439 . S
O73 Cd72 2.240 . S
O73 C78 1.279 . S
O74 Cd71 2.297 . S
O74 C76 1.247 . S
O75 Cd71 2.439 . S
O75 C76 1.208 . S
C76 O74 1.247 . S
C76 O75 1.208 . S
C77 O82 1.247 . S
C77 O83 1.208 . S
C78 O70 1.315 . S
C78 O73 1.279 . S
C79 O80 1.315 . S
C79 O81 1.279 . S
O80 Cd72 2.223 . S
O80 C79 1.315 . S
O81 Cd71 2.240 . S
O81 C79 1.279 . S
O82 Cd72 2.297 . S
O82 C77 1.247 . S
O83 Cd72 2.439 . S
O83 C77 1.208 . S
O84 Cd85 2.223 . S
O84 C92 1.315 . S
Cd85 O84 2.223 . S
Cd85 O88 2.297 . S
Cd85 O89 2.439 . S
Cd85 O95 2.240 . S
Cd86 O87 2.240 . S
Cd86 O94 2.223 . S
Cd86 O96 2.297 . S
Cd86 O97 2.439 . S
O87 Cd86 2.240 . S
O87 C92 1.279 . S
O88 Cd85 2.297 . S
O88 C90 1.247 . S
O89 Cd85 2.439 . S
O89 C90 1.208 . S
C90 O88 1.247 . S
C90 O89 1.208 . S
C91 O96 1.247 . S
C91 O97 1.208 . S
C92 O84 1.315 . S
C92 O87 1.279 . S
C93 O94 1.315 . S
C93 O95 1.279 . S
O94 Cd86 2.223 . S
O94 C93 1.315 . S
O95 Cd85 2.240 . S
O95 C93 1.279 . S
O96 Cd86 2.297 . S
O96 C91 1.247 . S
O97 Cd86 2.439 . S
O97 C91 1.208 . S
O98 Cd99 2.223 . S
O98 C106 1.315 . S
Cd99 O98 2.223 . S
Cd99 O102 2.297 . S
Cd99 O103 2.439 . S
Cd99 O109 2.240 . S
Cd100 O101 2.240 . S
Cd100 O108 2.223 . S
Cd100 O110 2.297 . S
Cd100 O111 2.439 . S
O101 Cd100 2.240 . S
O101 C106 1.279 . S
O102 Cd99 2.297 . S
O102 C104 1.247 . S
O103 Cd99 2.439 . S
O103 C104 1.208 . S
C104 O102 1.247 . S
C104 O103 1.208 . S
C105 O110 1.247 . S
C105 O111 1.208 . S
C106 O98 1.315 . S
C106 O101 1.279 . S
C107 O108 1.315 . S
C107 O109 1.279 . S
O108 Cd100 2.223 . S
O108 C107 1.315 . S
O109 Cd99 2.240 . S
O109 C107 1.279 . S
O110 Cd100 2.297 . S
O110 C105 1.247 . S
O111 Cd100 2.439 . S
O111 C105 1.208 . S
O112 Cd113 2.223 . S
O112 C120 1.315 . S
Cd113 O112 2.223 . S
Cd113 O116 2.297 . S
Cd113 O117 2.439 . S
Cd113 O123 2.240 . S
Cd114 O115 2.240 . S
Cd114 O122 2.223 . S
Cd114 O124 2.297 . S
Cd114 O125 2.439 . S
O115 Cd114 2.240 . S
O115 C120 1.279 . S
O116 Cd113 2.297 . S
O116 C118 1.247 . S
O117 Cd113 2.439 . S
O117 C118 1.208 . S
C118 O116 1.247 . S
C118 O117 1.208 . S
C119 O124 1.247 . S
C119 O125 1.208 . S
C120 O112 1.315 . S
C120 O115 1.279 . S
C121 O122 1.315 . S
C121 O123 1.279 . S
O122 Cd114 2.223 . S
O122 C121 1.315 . S
O123 Cd113 2.240 . S
O123 C121 1.279 . S
O124 Cd114 2.297 . S
O124 C119 1.247 . S
O125 Cd114 2.439 . S
O125 C119 1.208 . S
O126 Cd127 2.223 . S
O126 C134 1.315 . S
Cd127 O126 2.223 . S
Cd127 O130 2.297 . S
Cd127 O131 2.439 . S
Cd127 O137 2.240 . S
Cd128 O129 2.240 . S
Cd128 O136 2.223 . S
Cd128 O138 2.297 1_554 S
Cd128 O139 2.439 1_554 S
O129 Cd128 2.240 . S
O129 C134 1.279 . S
O130 Cd127 2.297 . S
O130 C132 1.247 . S
O131 Cd127 2.439 . S
O131 C132 1.208 . S
C132 O130 1.247 . S
C132 O131 1.208 . S
C133 O138 1.247 . S
C133 O139 1.208 . S
C134 O126 1.315 . S
C134 O129 1.279 . S
C135 O136 1.315 . S
C135 O137 1.279 . S
O136 Cd128 2.223 . S
O136 C135 1.315 . S
O137 Cd127 2.240 . S
O137 C135 1.279 . S
O138 Cd128 2.297 1_556 S
O138 C133 1.247 . S
O139 Cd128 2.439 1_556 S
O139 C133 1.208 . S
O140 Cd141 2.223 . S
O140 C148 1.315 . S
Cd141 O140 2.223 . S
Cd141 O144 2.297 . S
Cd141 O145 2.439 . S
Cd141 O151 2.240 . S
Cd142 O143 2.240 . S
Cd142 O150 2.223 . S
Cd142 O152 2.297 . S
Cd142 O153 2.439 . S
O143 Cd142 2.240 . S
O143 C148 1.279 . S
O144 Cd141 2.297 . S
O144 C146 1.247 . S
O145 Cd141 2.439 . S
O145 C146 1.208 . S
C146 O144 1.247 . S
C146 O145 1.208 . S
C147 O152 1.247 . S
C147 O153 1.208 . S
C148 O140 1.315 . S
C148 O143 1.279 . S
C149 O150 1.315 . S
C149 O151 1.279 . S
O150 Cd142 2.223 . S
O150 C149 1.315 . S
O151 Cd141 2.240 . S
O151 C149 1.279 . S
O152 Cd142 2.297 . S
O152 C147 1.247 . S
O153 Cd142 2.439 . S
O153 C147 1.208 . S
O154 Cd155 2.223 . S
O154 C162 1.315 . S
Cd155 O154 2.223 . S
Cd155 O158 2.297 . S
Cd155 O159 2.439 . S
Cd155 O165 2.240 . S
Cd156 O157 2.240 . S
Cd156 O164 2.223 . S
Cd156 O166 2.297 . S
Cd156 O167 2.439 . S
O157 Cd156 2.240 . S
O157 C162 1.279 . S
O158 Cd155 2.297 . S
O158 C160 1.247 . S
O159 Cd155 2.439 . S
O159 C160 1.208 . S
C160 O158 1.247 . S
C160 O159 1.208 . S
C161 O166 1.247 . S
C161 O167 1.208 . S
C162 O154 1.315 . S
C162 O157 1.279 . S
C163 O164 1.315 . S
C163 O165 1.279 . S
O164 Cd156 2.223 . S
O164 C163 1.315 . S
O165 Cd155 2.240 . S
O165 C163 1.279 . S
O166 Cd156 2.297 . S
O166 C161 1.247 . S
O167 Cd156 2.439 . S
O167 C161 1.208 . S
O168 Cd169 2.223 . S
O168 C176 1.315 . S
Cd169 O168 2.223 . S
Cd169 O172 2.297 . S
Cd169 O173 2.439 . S
Cd169 O179 2.240 . S
Cd170 O171 2.240 . S
Cd170 O178 2.223 . S
Cd170 O180 2.297 . S
Cd170 O181 2.439 . S
O171 Cd170 2.240 . S
O171 C176 1.279 . S
O172 Cd169 2.297 . S
O172 C174 1.247 . S
O173 Cd169 2.439 . S
O173 C174 1.208 . S
C174 O172 1.247 . S
C174 O173 1.208 . S
C175 O180 1.247 . S
C175 O181 1.208 . S
C176 O168 1.315 . S
C176 O171 1.279 . S
C177 O178 1.315 . S
C177 O179 1.279 . S
O178 Cd170 2.223 . S
O178 C177 1.315 . S
O179 Cd169 2.240 . S
O179 C177 1.279 . S
O180 Cd170 2.297 . S
O180 C175 1.247 . S
O181 Cd170 2.439 . S
O181 C175 1.208 . S
O182 Cd183 2.223 . S
O182 C190 1.315 . S
Cd183 O182 2.223 . S
Cd183 O186 2.297 . S
Cd183 O187 2.439 . S
Cd183 O193 2.240 . S
Cd184 O185 2.240 . S
Cd184 O192 2.223 . S
Cd184 O194 2.297 . S
Cd184 O195 2.439 . S
O185 Cd184 2.240 . S
O185 C190 1.279 . S
O186 Cd183 2.297 . S
O186 C188 1.247 . S
O187 Cd183 2.439 . S
O187 C188 1.208 . S
C188 O186 1.247 . S
C188 O187 1.208 . S
C189 O194 1.247 . S
C189 O195 1.208 . S
C190 O182 1.315 . S
C190 O185 1.279 . S
C191 O192 1.315 . S
C191 O193 1.279 . S
O192 Cd184 2.223 . S
O192 C191 1.315 . S
O193 Cd183 2.240 . S
O193 C191 1.279 . S
O194 Cd184 2.297 . S
O194 C189 1.247 . S
O195 Cd184 2.439 . S
O195 C189 1.208 . S
O196 Cd197 2.223 . S
O196 C204 1.315 . S
Cd197 O196 2.223 . S
Cd197 O200 2.297 . S
Cd197 O201 2.439 1_556 S
Cd197 O207 2.240 1_556 S
Cd198 O199 2.240 1_554 S
Cd198 O206 2.223 . S
Cd198 O208 2.297 . S
Cd198 O209 2.439 . S
O199 Cd198 2.240 1_556 S
O199 C204 1.279 . S
O200 Cd197 2.297 . S
O200 C202 1.247 . S
O201 Cd197 2.439 1_554 S
O201 C202 1.208 1_554 S
C202 O200 1.247 . S
C202 O201 1.208 1_556 S
C203 O208 1.247 . S
C203 O209 1.208 . S
C204 O196 1.315 . S
C204 O199 1.279 . S
C205 O206 1.315 . S
C205 O207 1.279 . S
O206 Cd198 2.223 . S
O206 C205 1.315 . S
O207 Cd197 2.240 1_554 S
O207 C205 1.279 . S
O208 Cd198 2.297 . S
O208 C203 1.247 . S
O209 Cd198 2.439 . S
O209 C203 1.208 . S
O210 Cd211 2.223 . S
O210 C218 1.315 . S
Cd211 O210 2.223 . S
Cd211 O214 2.297 . S
Cd211 O215 2.439 . S
Cd211 O221 2.240 . S
Cd212 O213 2.240 . S
Cd212 O220 2.223 . S
Cd212 O222 2.297 . S
Cd212 O223 2.439 . S
O213 Cd212 2.240 . S
O213 C218 1.279 . S
O214 Cd211 2.297 . S
O214 C216 1.247 . S
O215 Cd211 2.439 . S
O215 C216 1.208 . S
C216 O214 1.247 . S
C216 O215 1.208 . S
C217 O222 1.247 . S
C217 O223 1.208 . S
C218 O210 1.315 . S
C218 O213 1.279 . S
C219 O220 1.315 . S
C219 O221 1.279 . S
O220 Cd212 2.223 . S
O220 C219 1.315 . S
O221 Cd211 2.240 . S
O221 C219 1.279 . S
O222 Cd212 2.297 . S
O222 C217 1.247 . S
O223 Cd212 2.439 . S
O223 C217 1.208 . S
H224 C230 0.930 . S
H225 C234 0.930 . S
H226 C239 0.929 . S
H227 C237 0.929 . S
H228 C232 0.929 . S
H229 C238 0.929 . S
C230 H224 0.930 . S
C230 C231 1.367 . S
C230 C238 1.378 . S
C231 C230 1.367 . S
C231 C239 1.433 . S
C232 H228 0.929 . S
C232 C234 1.378 . S
C232 C236 1.350 . S
C233 C236 1.463 . S
C233 C238 1.350 . S
C233 N241 1.427 . S
C234 H225 0.930 . S
C234 C232 1.378 . S
C234 C235 1.367 . S
C235 C234 1.367 . S
C235 C237 1.433 . S
C236 C232 1.350 . S
C236 C233 1.463 . S
C236 N240 1.427 . S
C237 H227 0.929 . S
C237 C235 1.433 . S
C237 N240 1.384 . S
C238 H229 0.929 . S
C238 C230 1.378 . S
C238 C233 1.350 . S
C239 H226 0.929 . S
C239 C231 1.433 . S
C239 N241 1.384 . S
N240 C236 1.427 . S
N240 C237 1.384 . S
N241 C233 1.427 . S
N241 C239 1.384 . S
H242 C248 0.930 . S
H243 C252 0.930 . S
H244 C257 0.929 . S
H245 C255 0.929 . S
H246 C250 0.929 . S
H247 C256 0.929 . S
C248 H242 0.930 . S
C248 C249 1.367 . S
C248 C256 1.378 . S
C249 C248 1.367 . S
C249 C257 1.433 . S
C250 H246 0.929 . S
C250 C252 1.378 . S
C250 C254 1.350 . S
C251 C254 1.463 . S
C251 C256 1.350 . S
C251 N259 1.427 . S
C252 H243 0.930 . S
C252 C250 1.378 . S
C252 C253 1.367 . S
C253 C252 1.367 . S
C253 C255 1.433 . S
C254 C250 1.350 . S
C254 C251 1.463 . S
C254 N258 1.427 . S
C255 H245 0.929 . S
C255 C253 1.433 . S
C255 N258 1.384 . S
C256 H247 0.929 . S
C256 C248 1.378 . S
C256 C251 1.350 . S
C257 H244 0.929 . S
C257 C249 1.433 . S
C257 N259 1.384 . S
N258 C254 1.427 . S
N258 C255 1.384 . S
N259 C251 1.427 . S
N259 C257 1.384 . S
H260 C266 0.930 . S
H261 C270 0.930 1_554 S
H262 C275 0.929 . S
H263 C273 0.929 . S
H264 C268 0.929 . S
H265 C274 0.929 . S
C266 H260 0.930 . S
C266 C267 1.367 . S
C266 C274 1.378 . S
C267 C266 1.367 . S
C267 C275 1.433 . S
C268 H264 0.929 . S
C268 C270 1.378 . S
C268 C272 1.350 . S
C269 C272 1.463 . S
C269 C274 1.350 . S
C269 N277 1.427 . S
C270 H261 0.930 1_556 S
C270 C268 1.378 . S
C270 C271 1.367 . S
C271 C270 1.367 . S
C271 C273 1.433 . S
C272 C268 1.350 . S
C272 C269 1.463 . S
C272 N276 1.427 . S
C273 H263 0.929 . S
C273 C271 1.433 . S
C273 N276 1.384 . S
C274 H265 0.929 . S
C274 C266 1.378 . S
C274 C269 1.350 . S
C275 H262 0.929 . S
C275 C267 1.433 . S
C275 N277 1.384 . S
N276 C272 1.427 . S
N276 C273 1.384 . S
N277 C269 1.427 . S
N277 C275 1.384 . S
H278 C284 0.930 . S
H279 C288 0.930 . S
H280 C293 0.929 . S
H281 C291 0.929 . S
H282 C286 0.929 . S
H283 C292 0.929 . S
C284 H278 0.930 . S
C284 C285 1.367 . S
C284 C292 1.378 . S
C285 C284 1.367 . S
C285 C293 1.433 . S
C286 H282 0.929 . S
C286 C288 1.378 . S
C286 C290 1.350 . S
C287 C290 1.463 . S
C287 C292 1.350 . S
C287 N295 1.427 . S
C288 H279 0.930 . S
C288 C286 1.378 . S
C288 C289 1.367 . S
C289 C288 1.367 . S
C289 C291 1.433 . S
C290 C286 1.350 . S
C290 C287 1.463 . S
C290 N294 1.427 . S
C291 H281 0.929 . S
C291 C289 1.433 . S
C291 N294 1.384 . S
C292 H283 0.929 . S
C292 C284 1.378 . S
C292 C287 1.350 . S
C293 H280 0.929 . S
C293 C285 1.433 . S
C293 N295 1.384 . S
N294 C290 1.427 . S
N294 C291 1.384 . S
N295 C287 1.427 . S
N295 C293 1.384 . S
H296 C302 0.930 . S
H297 C306 0.930 . S
H298 C311 0.929 . S
H299 C309 0.940 . S
H300 C304 0.929 . S
H301 C310 0.929 . S
C302 H296 0.930 . S
C302 C303 1.367 . S
C302 C310 1.378 . S
C303 C302 1.367 . S
C303 C311 1.433 . S
C304 H300 0.929 . S
C304 C306 1.378 . S
C304 C308 1.350 . S
C305 C308 1.463 . S
C305 C310 1.350 . S
C305 N313 1.427 . S
C306 H297 0.930 . S
C306 C304 1.378 . S
C306 C307 1.367 . S
C307 C306 1.367 . S
C307 C309 1.433 . S
C308 C304 1.350 . S
C308 C305 1.463 . S
C308 N312 1.427 . S
C309 H299 0.940 . S
C309 C307 1.433 . S
C309 N312 1.384 . S
C310 H301 0.929 . S
C310 C302 1.378 . S
C310 C305 1.350 . S
C311 H298 0.929 . S
C311 C303 1.433 . S
C311 N313 1.384 . S
N312 C308 1.427 . S
N312 C309 1.384 . S
N313 C305 1.427 . S
N313 C311 1.384 . S
H314 C320 0.930 . S
H315 C324 0.930 . S
H316 C329 0.929 . S
H317 C327 0.929 . S
H318 C322 0.929 . S
H319 C328 0.929 . S
C320 H314 0.930 . S
C320 C321 1.367 . S
C320 C328 1.378 . S
C321 C320 1.367 . S
C321 C329 1.433 . S
C322 H318 0.929 . S
C322 C324 1.378 . S
C322 C326 1.350 . S
C323 C326 1.463 . S
C323 C328 1.350 . S
C323 N331 1.427 . S
C324 H315 0.930 . S
C324 C322 1.378 . S
C324 C325 1.367 . S
C325 C324 1.367 . S
C325 C327 1.433 . S
C326 C322 1.350 . S
C326 C323 1.463 . S
C326 N330 1.427 . S
C327 H317 0.929 . S
C327 C325 1.433 . S
C327 N330 1.384 . S
C328 H319 0.929 . S
C328 C320 1.378 . S
C328 C323 1.350 . S
C329 H316 0.929 . S
C329 C321 1.433 . S
C329 N331 1.384 . S
N330 C326 1.427 . S
N330 C327 1.384 . S
N331 C323 1.427 . S
N331 C329 1.384 . S
H332 C338 0.930 . S
H333 C342 0.930 . S
H334 C347 0.929 . S
H335 C345 0.929 . S
H336 C340 0.929 . S
H337 C346 0.929 . S
C338 H332 0.930 . S
C338 C339 1.367 . S
C338 C346 1.378 . S
C339 C338 1.367 . S
C339 C347 1.433 . S
C340 H336 0.929 . S
C340 C342 1.378 . S
C340 C344 1.350 . S
C341 C344 1.463 . S
C341 C346 1.350 . S
C341 N349 1.427 . S
C342 H333 0.930 . S
C342 C340 1.378 . S
C342 C343 1.367 . S
C343 C342 1.367 . S
C343 C345 1.433 . S
C344 C340 1.350 . S
C344 C341 1.463 . S
C344 N348 1.427 . S
C345 H335 0.929 . S
C345 C343 1.433 . S
C345 N348 1.384 . S
C346 H337 0.929 . S
C346 C338 1.378 . S
C346 C341 1.350 . S
C347 H334 0.929 . S
C347 C339 1.433 . S
C347 N349 1.384 . S
N348 C344 1.427 . S
N348 C345 1.384 . S
N349 C341 1.427 . S
N349 C347 1.384 . S
H350 C356 0.930 . S
H351 C360 0.930 . S
H352 C365 0.929 . S
H353 C363 0.929 . S
H354 C358 0.929 . S
H355 C364 0.929 . S
C356 H350 0.930 . S
C356 C357 1.367 . S
C356 C364 1.378 . S
C357 C356 1.367 . S
C357 C365 1.433 . S
C358 H354 0.929 . S
C358 C360 1.378 . S
C358 C362 1.350 . S
C359 C362 1.463 . S
C359 C364 1.350 . S
C359 N367 1.427 . S
C360 H351 0.930 . S
C360 C358 1.378 . S
C360 C361 1.367 . S
C361 C360 1.367 . S
C361 C363 1.433 . S
C362 C358 1.350 . S
C362 C359 1.463 . S
C362 N366 1.427 . S
C363 H353 0.929 . S
C363 C361 1.433 . S
C363 N366 1.384 . S
C364 H355 0.929 . S
C364 C356 1.378 . S
C364 C359 1.350 . S
C365 H352 0.929 . S
C365 C357 1.433 . S
C365 N367 1.384 . S
N366 C362 1.427 . S
N366 C363 1.384 . S
N367 C359 1.427 . S
N367 C365 1.384 . S
H368 C374 0.930 . S
H369 C378 0.930 . S
H370 C383 0.929 . S
H371 C381 0.929 . S
H372 C376 0.929 1_545 S
H373 C382 0.929 1_565 S
C374 H368 0.930 . S
C374 C375 1.367 . S
C374 C382 1.378 . S
C375 C374 1.367 . S
C375 C383 1.433 . S
C376 H372 0.929 1_565 S
C376 C378 1.378 . S
C376 C380 1.350 . S
C377 C380 1.463 1_445 S
C377 C382 1.350 . S
C377 N385 1.427 . S
C378 H369 0.930 . S
C378 C376 1.378 . S
C378 C379 1.367 . S
C379 C378 1.367 . S
C379 C381 1.433 . S
C380 C376 1.350 . S
C380 C377 1.463 1_665 S
C380 N384 1.427 . S
C381 H371 0.929 . S
C381 C379 1.433 . S
C381 N384 1.384 . S
C382 H373 0.929 1_545 S
C382 C374 1.378 . S
C382 C377 1.350 . S
C383 H370 0.929 . S
C383 C375 1.433 . S
C383 N385 1.384 . S
N384 C380 1.427 . S
N384 C381 1.384 . S
N385 C377 1.427 . S
N385 C383 1.384 . S
H386 C392 0.930 . S
H387 C396 0.930 . S
H388 C401 0.929 . S
H389 C399 0.929 . S
H390 C394 0.929 . S
H391 C400 0.929 . S
C392 H386 0.930 . S
C392 C393 1.367 . S
C392 C400 1.378 1_655 S
C393 C392 1.367 . S
C393 C401 1.433 . S
C394 H390 0.929 . S
C394 C396 1.378 1_655 S
C394 C398 1.350 1_655 S
C395 C398 1.463 1_655 S
C395 C400 1.350 1_655 S
C395 N403 1.427 . S
C396 H387 0.930 . S
C396 C394 1.378 1_455 S
C396 C397 1.367 . S
C397 C396 1.367 . S
C397 C399 1.433 . S
C398 C394 1.350 1_455 S
C398 C395 1.463 1_455 S
C398 N402 1.427 . S
C399 H389 0.929 . S
C399 C397 1.433 . S
C399 N402 1.384 . S
C400 H391 0.929 . S
C400 C392 1.378 1_455 S
C400 C395 1.350 1_455 S
C401 H388 0.929 . S
C401 C393 1.433 . S
C401 N403 1.384 . S
N402 C398 1.427 . S
N402 C399 1.384 . S
N403 C395 1.427 . S
N403 C401 1.384 . S
H404 C410 0.930 . S
H405 C414 0.930 . S
H406 C419 0.929 . S
H407 C417 0.929 . S
H408 C412 0.929 . S
H409 C418 0.929 . S
C410 H404 0.930 . S
C410 C411 1.367 . S
C410 C418 1.378 . S
C411 C410 1.367 . S
C411 C419 1.433 . S
C412 H408 0.929 . S
C412 C414 1.378 . S
C412 C416 1.350 . S
C413 C416 1.463 . S
C413 C418 1.350 . S
C413 N421 1.427 . S
C414 H405 0.930 . S
C414 C412 1.378 . S
C414 C415 1.367 . S
C415 C414 1.367 . S
C415 C417 1.433 . S
C416 C412 1.350 . S
C416 C413 1.463 . S
C416 N420 1.427 . S
C417 H407 0.929 . S
C417 C415 1.433 . S
C417 N420 1.384 . S
C418 H409 0.929 . S
C418 C410 1.378 . S
C418 C413 1.350 . S
C419 H406 0.929 . S
C419 C411 1.433 . S
C419 N421 1.384 . S
N420 C416 1.427 . S
N420 C417 1.384 . S
N421 C413 1.427 . S
N421 C419 1.384 . S
H422 C428 0.930 . S
H423 C432 0.930 . S
H424 C437 0.929 . S
H425 C435 0.929 . S
H426 C430 0.929 . S
H427 C436 0.929 . S
C428 H422 0.930 . S
C428 C429 1.367 . S
C428 C436 1.378 . S
C429 C428 1.367 . S
C429 C437 1.433 . S
C430 H426 0.929 . S
C430 C432 1.378 . S
C430 C434 1.350 . S
C431 C434 1.463 1_565 S
C431 C436 1.350 . S
C431 N439 1.427 . S
C432 H423 0.930 . S
C432 C430 1.378 . S
C432 C433 1.367 . S
C433 C432 1.367 . S
C433 C435 1.433 . S
C434 C430 1.350 . S
C434 C431 1.463 1_545 S
C434 N438 1.427 . S
C435 H425 0.929 . S
C435 C433 1.433 . S
C435 N438 1.384 . S
C436 H427 0.929 . S
C436 C428 1.378 . S
C436 C431 1.350 . S
C437 H424 0.929 . S
C437 C429 1.433 . S
C437 N439 1.384 . S
N438 C434 1.427 . S
N438 C435 1.384 . S
N439 C431 1.427 . S
N439 C437 1.384 . S
H440 C446 0.930 . S
H441 C450 0.930 . S
H442 C455 0.929 . S
H443 C453 0.929 . S
H444 C448 0.929 . S
H445 C454 0.929 . S
C446 H440 0.930 . S
C446 C447 1.367 . S
C446 C454 1.378 . S
C447 C446 1.367 . S
C447 C455 1.433 1_554 S
C448 H444 0.929 . S
C448 C450 1.378 . S
C448 C452 1.337 1_556 S
C449 C452 1.463 1_455 S
C449 C454 1.350 . S
C449 N457 1.427 1_554 S
C450 H441 0.930 . S
C450 C448 1.378 . S
C450 C451 1.367 1_556 S
C451 C450 1.367 1_554 S
C451 C453 1.433 . S
C452 C448 1.337 1_554 S
C452 C449 1.463 1_655 S
C452 N456 1.440 . S
C453 H443 0.929 . S
C453 C451 1.433 . S
C453 N456 1.384 . S
C454 H445 0.929 . S
C454 C446 1.378 . S
C454 C449 1.350 . S
C455 H442 0.929 . S
C455 C447 1.433 1_556 S
C455 N457 1.384 . S
N456 C452 1.440 . S
N456 C453 1.384 . S
N457 C449 1.427 1_556 S
N457 C455 1.384 . S
H458 C464 0.930 . S
H459 C468 0.930 . S
H460 C473 0.929 . S
H461 C471 0.929 . S
H462 C466 0.929 . S
H463 C472 0.929 . S
C464 H458 0.930 . S
C464 C465 1.367 . S
C464 C472 1.378 . S
C465 C464 1.367 . S
C465 C473 1.433 . S
C466 H462 0.929 . S
C466 C468 1.378 . S
C466 C470 1.350 . S
C467 C470 1.463 . S
C467 C472 1.350 . S
C467 N475 1.427 . S
C468 H459 0.930 . S
C468 C466 1.378 . S
C468 C469 1.367 . S
C469 C468 1.367 . S
C469 C471 1.433 . S
C470 C466 1.350 . S
C470 C467 1.463 . S
C470 N474 1.427 . S
C471 H461 0.929 . S
C471 C469 1.433 . S
C471 N474 1.384 . S
C472 H463 0.929 . S
C472 C464 1.378 . S
C472 C467 1.350 . S
C473 H460 0.929 . S
C473 C465 1.433 . S
C473 N475 1.384 . S
N474 C470 1.427 . S
N474 C471 1.384 . S
N475 C467 1.427 . S
N475 C473 1.384 . S
H476 C482 0.930 . S
H477 C486 0.930 . S
H478 C491 0.929 . S
H479 C489 0.929 . S
H480 C484 0.929 . S
H481 C490 0.929 . S
C482 H476 0.930 . S
C482 C483 1.367 . S
C482 C490 1.378 . S
C483 C482 1.367 . S
C483 C491 1.433 . S
C484 H480 0.929 . S
C484 C486 1.378 . S
C484 C488 1.350 . S
C485 C488 1.463 1_545 S
C485 C490 1.350 . S
C485 N493 1.427 . S
C486 H477 0.930 . S
C486 C484 1.378 . S
C486 C487 1.367 . S
C487 C486 1.367 . S
C487 C489 1.433 . S
C488 C484 1.350 . S
C488 C485 1.463 1_565 S
C488 N492 1.427 . S
C489 H479 0.929 . S
C489 C487 1.433 . S
C489 N492 1.384 . S
C490 H481 0.929 . S
C490 C482 1.378 . S
C490 C485 1.350 . S
C491 H478 0.929 . S
C491 C483 1.433 . S
C491 N493 1.384 . S
N492 C488 1.427 . S
N492 C489 1.384 . S
N493 C485 1.427 . S
N493 C491 1.384 . S
H494 C500 0.930 . S
H495 C504 0.930 . S
H496 C509 0.929 . S
H497 C507 0.929 . S
H498 C502 0.929 . S
H499 C508 0.929 . S
C500 H494 0.930 . S
C500 C501 1.367 . S
C500 C508 1.378 . S
C501 C500 1.367 . S
C501 C509 1.433 . S
C502 H498 0.929 . S
C502 C504 1.378 . S
C502 C506 1.350 . S
C503 C506 1.463 1_445 S
C503 C508 1.350 . S
C503 N511 1.432 . S
C504 H495 0.930 . S
C504 C502 1.378 . S
C504 C505 1.367 . S
C505 C504 1.367 . S
C505 C507 1.433 . S
C506 C502 1.350 . S
C506 C503 1.463 1_665 S
C506 N510 1.432 . S
C507 H497 0.929 . S
C507 C505 1.433 . S
C507 N510 1.393 . S
C508 H499 0.929 . S
C508 C500 1.378 . S
C508 C503 1.350 . S
C509 H496 0.929 . S
C509 C501 1.433 . S
C509 N511 1.393 . S
N510 C506 1.432 . S
N510 C507 1.393 . S
N511 C503 1.432 . S
N511 C509 1.393 . S
H512 C518 0.930 . S
H513 C522 0.930 . S
H514 C527 0.929 . S
H515 C525 0.929 . S
H516 C520 0.929 . S
H517 C526 0.929 . S
C518 H512 0.930 . S
C518 C519 1.367 . S
C518 C526 1.378 . S
C519 C518 1.367 . S
C519 C527 1.433 . S
C520 H516 0.929 . S
C520 C522 1.378 . S
C520 C524 1.350 . S
C521 C524 1.463 . S
C521 C526 1.350 . S
C521 N529 1.427 . S
C522 H513 0.930 . S
C522 C520 1.378 . S
C522 C523 1.367 . S
C523 C522 1.367 . S
C523 C525 1.433 . S
C524 C520 1.350 . S
C524 C521 1.463 . S
C524 N528 1.427 . S
C525 H515 0.929 . S
C525 C523 1.433 . S
C525 N528 1.384 . S
C526 H517 0.929 . S
C526 C518 1.378 . S
C526 C521 1.350 . S
C527 H514 0.929 . S
C527 C519 1.433 . S
C527 N529 1.384 . S
N528 C524 1.427 . S
N528 C525 1.384 . S
N529 C521 1.427 . S
N529 C527 1.384 . S
H530 C536 0.930 . S
H531 C540 0.930 . S
H532 C545 0.929 . S
H533 C543 0.929 . S
H534 C538 0.929 . S
H535 C544 0.929 . S
C536 H530 0.930 . S
C536 C537 1.367 . S
C536 C544 1.378 . S
C537 C536 1.367 . S
C537 C545 1.433 . S
C538 H534 0.929 . S
C538 C540 1.378 . S
C538 C542 1.350 . S
C539 C542 1.463 . S
C539 C544 1.350 . S
C539 N547 1.427 . S
C540 H531 0.930 . S
C540 C538 1.378 . S
C540 C541 1.367 . S
C541 C540 1.367 . S
C541 C543 1.433 . S
C542 C538 1.350 . S
C542 C539 1.463 . S
C542 N546 1.427 . S
C543 H533 0.929 . S
C543 C541 1.433 . S
C543 N546 1.384 . S
C544 H535 0.929 . S
C544 C536 1.378 . S
C544 C539 1.350 . S
C545 H532 0.929 . S
C545 C537 1.433 . S
C545 N547 1.384 . S
N546 C542 1.427 . S
N546 C543 1.384 . S
N547 C539 1.427 . S
N547 C545 1.384 . S
H548 C554 0.930 . S
H549 C558 0.930 . S
H550 C563 0.929 . S
H551 C561 0.929 . S
H552 C556 0.929 1_554 S
H553 C562 0.929 . S
C554 H548 0.930 . S
C554 C555 1.367 . S
C554 C562 1.378 . S
C555 C554 1.367 . S
C555 C563 1.433 . S
C556 H552 0.929 1_556 S
C556 C558 1.378 . S
C556 C560 1.350 1_556 S
C557 C560 1.463 . S
C557 C562 1.350 . S
C557 N565 1.427 . S
C558 H549 0.930 . S
C558 C556 1.378 . S
C558 C559 1.367 . S
C559 C558 1.367 . S
C559 C561 1.433 . S
C560 C556 1.350 1_554 S
C560 C557 1.463 . S
C560 N564 1.427 1_554 S
C561 H551 0.929 . S
C561 C559 1.433 . S
C561 N564 1.384 . S
C562 H553 0.929 . S
C562 C554 1.378 . S
C562 C557 1.350 . S
C563 H550 0.929 . S
C563 C555 1.433 . S
C563 N565 1.384 . S
N564 C560 1.427 1_556 S
N564 C561 1.384 . S
N565 C557 1.427 . S
N565 C563 1.384 . S
H566 C572 0.930 . S
H567 C576 0.930 . S
H568 C581 0.929 . S
H569 C579 0.929 . S
H570 C574 0.929 . S
H571 C580 0.929 . S
C572 H566 0.930 . S
C572 C573 1.367 . S
C572 C580 1.378 . S
C573 C572 1.367 . S
C573 C581 1.433 . S
C574 H570 0.929 . S
C574 C576 1.378 . S
C574 C578 1.350 . S
C575 C578 1.463 . S
C575 C580 1.350 . S
C575 N583 1.427 . S
C576 H567 0.930 . S
C576 C574 1.378 . S
C576 C577 1.367 . S
C577 C576 1.367 . S
C577 C579 1.433 . S
C578 C574 1.350 . S
C578 C575 1.463 . S
C578 N582 1.427 . S
C579 H569 0.929 . S
C579 C577 1.433 . S
C579 N582 1.384 . S
C580 H571 0.929 . S
C580 C572 1.378 . S
C580 C575 1.350 . S
C581 H568 0.929 . S
C581 C573 1.433 . S
C581 N583 1.384 . S
N582 C578 1.427 . S
N582 C579 1.384 . S
N583 C575 1.427 . S
N583 C581 1.384 . S
H584 C590 0.930 . S
H585 C594 0.930 . S
H586 C599 0.929 . S
H587 C597 0.929 . S
H588 C592 0.929 . S
H589 C598 0.929 . S
C590 H584 0.930 . S
C590 C591 1.367 . S
C590 C598 1.378 . S
C591 C590 1.367 . S
C591 C599 1.433 . S
C592 H588 0.929 . S
C592 C594 1.378 . S
C592 C596 1.350 . S
C593 C596 1.463 . S
C593 C598 1.350 . S
C593 N601 1.427 . S
C594 H585 0.930 . S
C594 C592 1.378 . S
C594 C595 1.367 . S
C595 C594 1.367 . S
C595 C597 1.433 . S
C596 C592 1.350 . S
C596 C593 1.463 . S
C596 N600 1.427 . S
C597 H587 0.929 . S
C597 C595 1.433 . S
C597 N600 1.384 . S
C598 H589 0.929 . S
C598 C590 1.378 . S
C598 C593 1.350 . S
C599 H586 0.929 . S
C599 C591 1.433 . S
C599 N601 1.384 . S
N600 C596 1.427 . S
N600 C597 1.384 . S
N601 C593 1.427 . S
N601 C599 1.384 . S
H602 C608 0.930 . S
H603 C612 0.930 . S
H604 C617 0.929 . S
H605 C615 0.929 . S
H606 C610 0.929 1_554 S
H607 C616 0.929 . S
C608 H602 0.930 . S
C608 C609 1.367 . S
C608 C616 1.378 . S
C609 C608 1.367 . S
C609 C617 1.433 . S
C610 H606 0.929 1_556 S
C610 C612 1.378 . S
C610 C614 1.350 1_556 S
C611 C614 1.463 . S
C611 C616 1.350 . S
C611 N619 1.427 . S
C612 H603 0.930 . S
C612 C610 1.378 . S
C612 C613 1.367 . S
C613 C612 1.367 . S
C613 C615 1.433 . S
C614 C610 1.350 1_554 S
C614 C611 1.463 . S
C614 N618 1.427 1_554 S
C615 H605 0.929 . S
C615 C613 1.433 . S
C615 N618 1.384 . S
C616 H607 0.929 . S
C616 C608 1.378 . S
C616 C611 1.350 . S
C617 H604 0.929 . S
C617 C609 1.433 . S
C617 N619 1.384 . S
N618 C614 1.427 1_556 S
N618 C615 1.384 . S
N619 C611 1.427 . S
N619 C617 1.384 . S
H620 C626 0.930 . S
H621 C630 0.930 . S
H622 C635 0.929 . S
H623 C633 0.929 . S
H624 C628 0.929 . S
H625 C634 0.929 . S
C626 H620 0.930 . S
C626 C627 1.367 . S
C626 C634 1.378 . S
C627 C626 1.367 . S
C627 C635 1.433 . S
C628 H624 0.929 . S
C628 C630 1.378 . S
C628 C632 1.350 . S
C629 C632 1.463 . S
C629 C634 1.350 . S
C629 N637 1.427 . S
C630 H621 0.930 . S
C630 C628 1.378 . S
C630 C631 1.367 . S
C631 C630 1.367 . S
C631 C633 1.433 . S
C632 C628 1.350 . S
C632 C629 1.463 . S
C632 N636 1.427 . S
C633 H623 0.929 . S
C633 C631 1.433 . S
C633 N636 1.384 . S
C634 H625 0.929 . S
C634 C626 1.378 . S
C634 C629 1.350 . S
C635 H622 0.929 . S
C635 C627 1.433 . S
C635 N637 1.384 . S
N636 C632 1.427 . S
N636 C633 1.384 . S
N637 C629 1.427 . S
N637 C635 1.384 . S
H638 C644 0.930 . S
H639 C648 0.930 . S
H640 C653 0.929 . S
H641 C651 0.929 . S
H642 C646 0.929 . S
H643 C652 0.929 . S
C644 H638 0.930 . S
C644 C645 1.367 . S
C644 C652 1.378 . S
C645 C644 1.367 . S
C645 C653 1.433 . S
C646 H642 0.929 . S
C646 C648 1.378 . S
C646 C650 1.350 . S
C647 C650 1.463 . S
C647 C652 1.350 . S
C647 N655 1.427 . S
C648 H639 0.930 . S
C648 C646 1.378 . S
C648 C649 1.367 . S
C649 C648 1.367 . S
C649 C651 1.433 . S
C650 C646 1.350 . S
C650 C647 1.463 . S
C650 N654 1.427 . S
C651 H641 0.929 . S
C651 C649 1.433 . S
C651 N654 1.384 . S
C652 H643 0.929 . S
C652 C644 1.378 . S
C652 C647 1.350 . S
C653 H640 0.929 . S
C653 C645 1.433 . S
C653 N655 1.384 . S
N654 C650 1.427 . S
N654 C651 1.384 . S
N655 C647 1.427 . S
N655 C653 1.384 . S
H656 C662 0.930 . S
H657 C666 0.930 . S
H658 C671 0.929 . S
H659 C669 0.929 . S
H660 C664 0.929 . S
H661 C670 0.929 . S
C662 H656 0.930 . S
C662 C663 1.367 . S
C662 C670 1.378 . S
C663 C662 1.367 . S
C663 C671 1.433 . S
C664 H660 0.929 . S
C664 C666 1.378 . S
C664 C668 1.350 . S
C665 C668 1.463 . S
C665 C670 1.350 1_554 S
C665 N673 1.427 1_554 S
C666 H657 0.930 . S
C666 C664 1.378 . S
C666 C667 1.367 . S
C667 C666 1.367 . S
C667 C669 1.433 . S
C668 C664 1.350 . S
C668 C665 1.463 . S
C668 N672 1.427 . S
C669 H659 0.929 . S
C669 C667 1.433 . S
C669 N672 1.384 . S
C670 H661 0.929 . S
C670 C662 1.378 . S
C670 C665 1.350 1_556 S
C671 H658 0.929 . S
C671 C663 1.433 . S
C671 N673 1.384 . S
N672 C668 1.427 . S
N672 C669 1.384 . S
N673 C665 1.427 1_556 S
N673 C671 1.384 . S
H674 C680 0.930 . S
H675 C684 0.930 . S
H676 C689 0.929 . S
H677 C687 0.929 . S
H678 C682 0.929 . S
H679 C688 0.929 . S
C680 H674 0.930 . S
C680 C681 1.367 . S
C680 C688 1.378 . S
C681 C680 1.367 . S
C681 C689 1.433 . S
C682 H678 0.929 . S
C682 C684 1.378 . S
C682 C686 1.350 . S
C683 C686 1.463 . S
C683 C688 1.350 . S
C683 N691 1.427 . S
C684 H675 0.930 . S
C684 C682 1.378 . S
C684 C685 1.367 . S
C685 C684 1.367 . S
C685 C687 1.433 . S
C686 C682 1.350 . S
C686 C683 1.463 . S
C686 N690 1.427 . S
C687 H677 0.929 . S
C687 C685 1.433 . S
C687 N690 1.384 . S
C688 H679 0.929 . S
C688 C680 1.378 . S
C688 C683 1.350 . S
C689 H676 0.929 . S
C689 C681 1.433 . S
C689 N691 1.384 . S
N690 C686 1.427 . S
N690 C687 1.384 . S
N691 C683 1.427 . S
N691 C689 1.384 . S
H692 C698 0.930 . S
H693 C702 0.930 . S
H694 C707 0.929 . S
H695 C705 0.929 . S
H696 C700 0.929 . S
H697 C706 0.929 . S
C698 H692 0.930 . S
C698 C699 1.367 . S
C698 C706 1.378 . S
C699 C698 1.367 . S
C699 C707 1.433 . S
C700 H696 0.929 . S
C700 C702 1.378 . S
C700 C704 1.350 . S
C701 C704 1.463 . S
C701 C706 1.350 . S
C701 N709 1.427 . S
C702 H693 0.930 . S
C702 C700 1.378 . S
C702 C703 1.367 . S
C703 C702 1.367 . S
C703 C705 1.433 . S
C704 C700 1.350 . S
C704 C701 1.463 . S
C704 N708 1.427 . S
C705 H695 0.929 . S
C705 C703 1.433 . S
C705 N708 1.384 . S
C706 H697 0.929 . S
C706 C698 1.378 . S
C706 C701 1.350 . S
C707 H694 0.929 . S
C707 C699 1.433 . S
C707 N709 1.384 . S
N708 C704 1.427 . S
N708 C705 1.384 . S
N709 C701 1.427 . S
N709 C707 1.384 . S
H710 C716 0.930 . S
H711 C720 0.930 . S
H712 C725 0.929 . S
H713 C723 0.929 . S
H714 C718 0.929 . S
H715 C724 0.929 . S
C716 H710 0.930 . S
C716 C717 1.367 . S
C716 C724 1.378 . S
C717 C716 1.367 . S
C717 C725 1.433 . S
C718 H714 0.929 . S
C718 C720 1.378 . S
C718 C722 1.350 . S
C719 C722 1.463 . S
C719 C724 1.350 . S
C719 N727 1.427 . S
C720 H711 0.930 . S
C720 C718 1.378 . S
C720 C721 1.367 . S
C721 C720 1.367 . S
C721 C723 1.433 . S
C722 C718 1.350 . S
C722 C719 1.463 . S
C722 N726 1.427 . S
C723 H713 0.929 . S
C723 C721 1.433 . S
C723 N726 1.384 . S
C724 H715 0.929 . S
C724 C716 1.378 . S
C724 C719 1.350 . S
C725 H712 0.929 . S
C725 C717 1.433 . S
C725 N727 1.384 . S
N726 C722 1.427 . S
N726 C723 1.384 . S
N727 C719 1.427 . S
N727 C725 1.384 . S
H728 C734 0.930 . S
H729 C738 0.930 . S
H730 C743 0.929 . S
H731 C741 0.929 . S
H732 C736 0.929 . S
H733 C742 0.929 . S
C734 H728 0.930 . S
C734 C735 1.367 . S
C734 C742 1.378 . S
C735 C734 1.367 . S
C735 C743 1.433 . S
C736 H732 0.929 . S
C736 C738 1.378 . S
C736 C740 1.350 . S
C737 C740 1.463 . S
C737 C742 1.350 . S
C737 N745 1.427 . S
C738 H729 0.930 . S
C738 C736 1.378 . S
C738 C739 1.367 . S
C739 C738 1.367 . S
C739 C741 1.433 . S
C740 C736 1.350 . S
C740 C737 1.463 . S
C740 N744 1.427 . S
C741 H731 0.929 . S
C741 C739 1.433 . S
C741 N744 1.384 . S
C742 H733 0.929 . S
C742 C734 1.378 . S
C742 C737 1.350 . S
C743 H730 0.929 . S
C743 C735 1.433 . S
C743 N745 1.384 . S
N744 C740 1.427 . S
N744 C741 1.384 . S
N745 C737 1.427 . S
N745 C743 1.384 . S
H746 C752 0.930 . S
H747 C756 0.930 . S
H748 C761 0.929 . S
H749 C759 0.929 . S
H750 C754 0.929 . S
H751 C760 0.929 . S
C752 H746 0.930 . S
C752 C753 1.367 . S
C752 C760 1.378 . S
C753 C752 1.367 . S
C753 C761 1.433 . S
C754 H750 0.929 . S
C754 C756 1.378 . S
C754 C758 1.350 . S
C755 C758 1.463 . S
C755 C760 1.350 . S
C755 N763 1.427 . S
C756 H747 0.930 . S
C756 C754 1.378 . S
C756 C757 1.367 . S
C757 C756 1.367 . S
C757 C759 1.433 . S
C758 C754 1.350 . S
C758 C755 1.463 . S
C758 N762 1.427 . S
C759 H749 0.929 . S
C759 C757 1.433 . S
C759 N762 1.384 . S
C760 H751 0.929 . S
C760 C752 1.378 . S
C760 C755 1.350 . S
C761 H748 0.929 . S
C761 C753 1.433 . S
C761 N763 1.384 . S
N762 C758 1.427 . S
N762 C759 1.384 . S
N763 C755 1.427 . S
N763 C761 1.384 . S
H764 C770 0.930 . S
H765 C774 0.930 . S
H766 C779 0.929 . S
H767 C777 0.929 . S
H768 C772 0.929 . S
H769 C778 0.929 . S
C770 H764 0.930 . S
C770 C771 1.367 . S
C770 C778 1.378 . S
C771 C770 1.367 . S
C771 C779 1.433 . S
C772 H768 0.929 . S
C772 C774 1.378 . S
C772 C776 1.350 . S
C773 C776 1.463 . S
C773 C778 1.350 . S
C773 N781 1.427 . S
C774 H765 0.930 . S
C774 C772 1.378 . S
C774 C775 1.367 . S
C775 C774 1.367 . S
C775 C777 1.433 . S
C776 C772 1.350 . S
C776 C773 1.463 . S
C776 N780 1.427 . S
C777 H767 0.929 . S
C777 C775 1.433 . S
C777 N780 1.384 . S
C778 H769 0.929 . S
C778 C770 1.378 . S
C778 C773 1.350 . S
C779 H766 0.929 . S
C779 C771 1.433 . S
C779 N781 1.384 . S
N780 C776 1.427 . S
N780 C777 1.384 . S
N781 C773 1.427 . S
N781 C779 1.384 . S
H782 C788 0.930 . S
H783 C792 0.930 . S
H784 C797 0.929 . S
H785 C795 0.929 . S
H786 C790 0.929 . S
H787 C796 0.929 . S
C788 H782 0.930 . S
C788 C789 1.367 . S
C788 C796 1.378 . S
C789 C788 1.367 . S
C789 C797 1.433 . S
C790 H786 0.929 . S
C790 C792 1.378 . S
C790 C794 1.350 1_556 S
C791 C794 1.463 . S
C791 C796 1.350 . S
C791 N799 1.427 . S
C792 H783 0.930 . S
C792 C790 1.378 . S
C792 C793 1.367 . S
C793 C792 1.367 . S
C793 C795 1.433 . S
C794 C790 1.350 1_554 S
C794 C791 1.463 . S
C794 N798 1.427 1_554 S
C795 H785 0.929 . S
C795 C793 1.433 . S
C795 N798 1.384 . S
C796 H787 0.929 . S
C796 C788 1.378 . S
C796 C791 1.350 . S
C797 H784 0.929 . S
C797 C789 1.433 . S
C797 N799 1.384 . S
N798 C794 1.427 1_556 S
N798 C795 1.384 . S
N799 C791 1.427 . S
N799 C797 1.384 . S
C231 C90 1.410 . S
C235 C6 1.406 . S
C249 C104 1.406 . S
C253 C20 1.410 . S
C267 C34 1.419 . S
C271 C62 1.418 . S
C285 C48 1.408 . S
C289 C76 1.413 . S
C303 C118 1.411 . S
C307 C202 1.406 . S
C321 C216 1.407 . S
C325 C132 1.412 . S
C339 C146 1.414 . S
C343 C174 1.419 . S
C357 C160 1.407 . S
C361 C188 1.406 . S
C375 C9 1.356 . S
C379 C149 1.351 . S
C393 C23 1.353 . S
C397 C163 1.358 . S
C411 C37 1.357 . S
C415 C121 1.352 . S
C429 C51 1.346 . S
C433 C135 1.343 . S
C447 C65 1.354 . S
C451 C205 1.358 . S
C465 C219 1.357 . S
C469 C79 1.351 . S
C483 C93 1.353 . S
C487 C177 1.347 . S
C501 C191 1.345 . S
C505 C107 1.351 . S
C519 C190 0.837 . S
C523 C8 0.834 . S
C537 C22 0.832 . S
C541 C204 0.836 . S
C555 C218 0.827 . S
C559 C36 0.823 . S
C573 C176 0.837 . S
C577 C50 0.840 . S
C591 C162 0.824 . S
C595 C64 0.828 . S
C609 C78 0.824 . S
C613 C120 0.821 . S
C627 C92 0.843 . S
C631 C134 0.844 . S
C645 C106 0.832 . S
C649 C148 0.828 . S
C663 C189 1.501 . S
C667 C7 1.501 . S
C681 C21 1.509 . S
C685 C203 1.509 . S
C699 C35 1.509 . S
C703 C217 1.505 . S
C717 C175 1.505 . S
C721 C49 1.509 . S
C735 C161 1.509 . S
C739 C63 1.510 . S
C753 C119 1.503 . S
C757 C77 1.500 . S
C771 C91 1.505 . S
C775 C133 1.509 . S
C789 C147 1.503 . S
C793 C105 1.500 . S
