# Generated by pormake.
# Topology ukd, (4)-cn, num edge types: 1
# Building blocks:
#     Node 0, Type 0, BuildingBlock: QUQFOY_clean_sbu_1, # of connection points: 4
#     Node 1, Type 0, BuildingBlock: QUQFOY_clean_sbu_1, # of connection points: 4
#     Node 2, Type 0, BuildingBlock: QUQFOY_clean_sbu_1, # of connection points: 4
#     Node 3, Type 0, BuildingBlock: QUQFOY_clean_sbu_1, # of connection points: 4
#     Node 4, Type 0, BuildingBlock: QUQFOY_clean_sbu_1, # of connection points: 4
#     Node 5, Type 0, BuildingBlock: QUQFOY_clean_sbu_1, # of connection points: 4
#     Node 6, Type 0, BuildingBlock: QUQFOY_clean_sbu_1, # of connection points: 4
#     Node 7, Type 0, BuildingBlock: QUQFOY_clean_sbu_1, # of connection points: 4
#     Node 8, Type 0, BuildingBlock: QUQFOY_clean_sbu_1, # of connection points: 4
#     Node 9, Type 0, BuildingBlock: QUQFOY_clean_sbu_1, # of connection points: 4
#     Node 10, Type 0, BuildingBlock: QUQFOY_clean_sbu_1, # of connection points: 4
#     Node 11, Type 0, BuildingBlock: QUQFOY_clean_sbu_1, # of connection points: 4
#     Node 12, Type 0, BuildingBlock: QUQFOY_clean_sbu_1, # of connection points: 4
#     Node 13, Type 0, BuildingBlock: QUQFOY_clean_sbu_1, # of connection points: 4
#     Node 14, Type 0, BuildingBlock: QUQFOY_clean_sbu_1, # of connection points: 4
#     Node 15, Type 0, BuildingBlock: QUQFOY_clean_sbu_1, # of connection points: 4
#     Node 16, Type 0, BuildingBlock: QUQFOY_clean_sbu_1, # of connection points: 4
#     Node 17, Type 0, BuildingBlock: QUQFOY_clean_sbu_1, # of connection points: 4
#     Node 18, Type 0, BuildingBlock: QUQFOY_clean_sbu_1, # of connection points: 4
#     Node 19, Type 0, BuildingBlock: QUQFOY_clean_sbu_1, # of connection points: 4
#     Node 20, Type 0, BuildingBlock: QUQFOY_clean_sbu_1, # of connection points: 4
#     Node 21, Type 0, BuildingBlock: QUQFOY_clean_sbu_1, # of connection points: 4
#     Node 22, Type 0, BuildingBlock: QUQFOY_clean_sbu_1, # of connection points: 4
#     Node 23, Type 0, BuildingBlock: QUQFOY_clean_sbu_1, # of connection points: 4
#     Node 24, Type 0, BuildingBlock: QUQFOY_clean_sbu_1, # of connection points: 4
#     Node 25, Type 0, BuildingBlock: QUQFOY_clean_sbu_1, # of connection points: 4
#     Node 26, Type 0, BuildingBlock: QUQFOY_clean_sbu_1, # of connection points: 4
#     Node 27, Type 0, BuildingBlock: QUQFOY_clean_sbu_1, # of connection points: 4
#     Node 28, Type 0, BuildingBlock: QUQFOY_clean_sbu_1, # of connection points: 4
#     Node 29, Type 0, BuildingBlock: QUQFOY_clean_sbu_1, # of connection points: 4
#     Node 30, Type 0, BuildingBlock: QUQFOY_clean_sbu_1, # of connection points: 4
#     Node 31, Type 0, BuildingBlock: QUQFOY_clean_sbu_1, # of connection points: 4
#     Edge 32, Type (0, 0), BuildingBlock: UVAHIK_clean_linker_0, # of connection points: 2
#     Edge 33, Type (0, 0), BuildingBlock: UVAHIK_clean_linker_0, # of connection points: 2
#     Edge 34, Type (0, 0), BuildingBlock: UVAHIK_clean_linker_0, # of connection points: 2
#     Edge 35, Type (0, 0), BuildingBlock: UVAHIK_clean_linker_0, # of connection points: 2
#     Edge 36, Type (0, 0), BuildingBlock: UVAHIK_clean_linker_0, # of connection points: 2
#     Edge 37, Type (0, 0), BuildingBlock: UVAHIK_clean_linker_0, # of connection points: 2
#     Edge 38, Type (0, 0), BuildingBlock: UVAHIK_clean_linker_0, # of connection points: 2
#     Edge 39, Type (0, 0), BuildingBlock: UVAHIK_clean_linker_0, # of connection points: 2
#     Edge 40, Type (0, 0), BuildingBlock: UVAHIK_clean_linker_0, # of connection points: 2
#     Edge 41, Type (0, 0), BuildingBlock: UVAHIK_clean_linker_0, # of connection points: 2
#     Edge 42, Type (0, 0), BuildingBlock: UVAHIK_clean_linker_0, # of connection points: 2
#     Edge 43, Type (0, 0), BuildingBlock: UVAHIK_clean_linker_0, # of connection points: 2
#     Edge 44, Type (0, 0), BuildingBlock: UVAHIK_clean_linker_0, # of connection points: 2
#     Edge 45, Type (0, 0), BuildingBlock: UVAHIK_clean_linker_0, # of connection points: 2
#     Edge 46, Type (0, 0), BuildingBlock: UVAHIK_clean_linker_0, # of connection points: 2
#     Edge 47, Type (0, 0), BuildingBlock: UVAHIK_clean_linker_0, # of connection points: 2
#     Edge 48, Type (0, 0), BuildingBlock: UVAHIK_clean_linker_0, # of connection points: 2
#     Edge 49, Type (0, 0), BuildingBlock: UVAHIK_clean_linker_0, # of connection points: 2
#     Edge 50, Type (0, 0), BuildingBlock: UVAHIK_clean_linker_0, # of connection points: 2
#     Edge 51, Type (0, 0), BuildingBlock: UVAHIK_clean_linker_0, # of connection points: 2
#     Edge 52, Type (0, 0), BuildingBlock: UVAHIK_clean_linker_0, # of connection points: 2
#     Edge 53, Type (0, 0), BuildingBlock: UVAHIK_clean_linker_0, # of connection points: 2
#     Edge 54, Type (0, 0), BuildingBlock: UVAHIK_clean_linker_0, # of connection points: 2
#     Edge 55, Type (0, 0), BuildingBlock: UVAHIK_clean_linker_0, # of connection points: 2
#     Edge 56, Type (0, 0), BuildingBlock: UVAHIK_clean_linker_0, # of connection points: 2
#     Edge 57, Type (0, 0), BuildingBlock: UVAHIK_clean_linker_0, # of connection points: 2
#     Edge 58, Type (0, 0), BuildingBlock: UVAHIK_clean_linker_0, # of connection points: 2
#     Edge 59, Type (0, 0), BuildingBlock: UVAHIK_clean_linker_0, # of connection points: 2
#     Edge 60, Type (0, 0), BuildingBlock: UVAHIK_clean_linker_0, # of connection points: 2
#     Edge 61, Type (0, 0), BuildingBlock: UVAHIK_clean_linker_0, # of connection points: 2
#     Edge 62, Type (0, 0), BuildingBlock: UVAHIK_clean_linker_0, # of connection points: 2
#     Edge 63, Type (0, 0), BuildingBlock: UVAHIK_clean_linker_0, # of connection points: 2
#     Edge 64, Type (0, 0), BuildingBlock: UVAHIK_clean_linker_0, # of connection points: 2
#     Edge 65, Type (0, 0), BuildingBlock: UVAHIK_clean_linker_0, # of connection points: 2
#     Edge 66, Type (0, 0), BuildingBlock: UVAHIK_clean_linker_0, # of connection points: 2
#     Edge 67, Type (0, 0), BuildingBlock: UVAHIK_clean_linker_0, # of connection points: 2
#     Edge 68, Type (0, 0), BuildingBlock: UVAHIK_clean_linker_0, # of connection points: 2
#     Edge 69, Type (0, 0), BuildingBlock: UVAHIK_clean_linker_0, # of connection points: 2
#     Edge 70, Type (0, 0), BuildingBlock: UVAHIK_clean_linker_0, # of connection points: 2
#     Edge 71, Type (0, 0), BuildingBlock: UVAHIK_clean_linker_0, # of connection points: 2
#     Edge 72, Type (0, 0), BuildingBlock: UVAHIK_clean_linker_0, # of connection points: 2
#     Edge 73, Type (0, 0), BuildingBlock: UVAHIK_clean_linker_0, # of connection points: 2
#     Edge 74, Type (0, 0), BuildingBlock: UVAHIK_clean_linker_0, # of connection points: 2
#     Edge 75, Type (0, 0), BuildingBlock: UVAHIK_clean_linker_0, # of connection points: 2
#     Edge 76, Type (0, 0), BuildingBlock: UVAHIK_clean_linker_0, # of connection points: 2
#     Edge 77, Type (0, 0), BuildingBlock: UVAHIK_clean_linker_0, # of connection points: 2
#     Edge 78, Type (0, 0), BuildingBlock: UVAHIK_clean_linker_0, # of connection points: 2
#     Edge 79, Type (0, 0), BuildingBlock: UVAHIK_clean_linker_0, # of connection points: 2
#     Edge 80, Type (0, 0), BuildingBlock: UVAHIK_clean_linker_0, # of connection points: 2
#     Edge 81, Type (0, 0), BuildingBlock: UVAHIK_clean_linker_0, # of connection points: 2
#     Edge 82, Type (0, 0), BuildingBlock: UVAHIK_clean_linker_0, # of connection points: 2
#     Edge 83, Type (0, 0), BuildingBlock: UVAHIK_clean_linker_0, # of connection points: 2
#     Edge 84, Type (0, 0), BuildingBlock: UVAHIK_clean_linker_0, # of connection points: 2
#     Edge 85, Type (0, 0), BuildingBlock: UVAHIK_clean_linker_0, # of connection points: 2
#     Edge 86, Type (0, 0), BuildingBlock: UVAHIK_clean_linker_0, # of connection points: 2
#     Edge 87, Type (0, 0), BuildingBlock: UVAHIK_clean_linker_0, # of connection points: 2
#     Edge 88, Type (0, 0), BuildingBlock: UVAHIK_clean_linker_0, # of connection points: 2
#     Edge 89, Type (0, 0), BuildingBlock: UVAHIK_clean_linker_0, # of connection points: 2
#     Edge 90, Type (0, 0), BuildingBlock: UVAHIK_clean_linker_0, # of connection points: 2
#     Edge 91, Type (0, 0), BuildingBlock: UVAHIK_clean_linker_0, # of connection points: 2
#     Edge 92, Type (0, 0), BuildingBlock: UVAHIK_clean_linker_0, # of connection points: 2
#     Edge 93, Type (0, 0), BuildingBlock: UVAHIK_clean_linker_0, # of connection points: 2
#     Edge 94, Type (0, 0), BuildingBlock: UVAHIK_clean_linker_0, # of connection points: 2
#     Edge 95, Type (0, 0), BuildingBlock: UVAHIK_clean_linker_0, # of connection points: 2
# Relax obj value: 0.007
# Max RMSD: 0.048
# Mean RMSD: 0.048
data_MOF--net-ukd--node1-QUQFOY_clean_sbu_1--edge1-UVAHIK_clean_linker_0
_symmetry_space_group_name_H-M    P1
_symmetry_Int_Tables_number       1
_symmetry_cell_setting            triclinic
loop_
_symmetry_equiv_pos_as_xyz
'x, y, z'
_cell_length_a     59.750662
_cell_length_b     59.741407
_cell_length_c     101.42622
_cell_angle_alpha  89.999426
_cell_angle_beta   89.997501
_cell_angle_gamma 90.003482
loop_
_atom_site_label
_atom_site_type_symbol
_atom_site_fract_x
_atom_site_fract_y
_atom_site_fract_z
_atom_type_partial_charge
O0 O 0.19704 0.17161 0.36317 0.0
Cd1 Cd 0.2243 0.19265 0.36254 0.0
Cd2 Cd 0.20287 0.20604 0.33945 0.0
O3 O 0.18197 0.17927 0.34383 0.0
O4 O 0.24517 0.18011 0.37599 0.0
O5 O 0.25314 0.18104 0.35472 0.0
C6 C 0.25876 0.17528 0.36655 0.0
C7 C 0.21473 0.21247 0.31775 0.0
C8 C 0.18206 0.16812 0.35452 0.0
C9 C 0.20736 0.23969 0.36179 0.0
O10 O 0.19934 0.23484 0.35054 0.0
O11 O 0.21889 0.22544 0.36817 0.0
O12 O 0.19434 0.21593 0.32134 0.0
O13 O 0.22839 0.20441 0.32642 0.0
O14 O 0.08681 0.9462 0.6124 0.0
Cd15 Cd 0.06451 0.97243 0.61228 0.0
Cd16 Cd 0.0531 0.95294 0.58824 0.0
O17 O 0.08087 0.93319 0.59233 0.0
O18 O 0.07589 0.99351 0.62597 0.0
O19 O 0.07469 1.00198 0.60476 0.0
C20 C 0.08013 0.00755 0.61665 0.0
C21 C 0.04632 0.96545 0.56669 0.0
C22 C 0.09151 0.93254 0.6032 0.0
C23 C 0.01846 0.95365 0.61032 0.0
O24 O 0.02418 0.94712 0.59887 0.0
O25 O 0.03185 0.96505 0.61737 0.0
O26 O 0.04406 0.94472 0.56992 0.0
O27 O 0.05344 0.97913 0.57562 0.0
O28 O 0.3085 0.83687 0.86147 0.0
Cd29 Cd 0.28261 0.81413 0.85979 0.0
Cd30 Cd 0.30556 0.80435 0.83739 0.0
O31 O 0.32335 0.83314 0.84169 0.0
O32 O 0.25987 0.82493 0.87272 0.0
O33 O 0.25392 0.82436 0.85121 0.0
C34 C 0.24696 0.82948 0.8629 0.0
C35 C 0.29257 0.79681 0.81607 0.0
C36 C 0.32272 0.84288 0.85283 0.0
C37 C 0.30444 0.76951 0.85905 0.0
O38 O 0.31339 0.77642 0.84843 0.0
O39 O 0.28972 0.78132 0.86486 0.0
O40 O 0.31354 0.79566 0.81899 0.0
O41 O 0.2789 0.80318 0.82521 0.0
O42 O 0.41746 0.06065 0.11169 0.0
Cd43 Cd 0.44037 0.03479 0.11083 0.0
Cd44 Cd 0.45119 0.05653 0.08811 0.0
O45 O 0.42196 0.0741 0.09162 0.0
O46 O 0.42907 0.01253 0.12389 0.0
O47 O 0.43077 0.00569 0.1025 0.0
C48 C 0.42515 0.99916 0.11419 0.0
C49 C 0.45984 0.04318 0.06701 0.0
C50 C 0.41172 0.07417 0.10261 0.0
C51 C 0.485 0.05659 0.11034 0.0
O52 O 0.47855 0.06502 0.09948 0.0
O53 O 0.47295 0.04218 0.11623 0.0
O54 O 0.46065 0.06421 0.06979 0.0
O55 O 0.45323 0.02962 0.07614 0.0
O56 O 0.19901 0.83648 0.14452 0.0
Cd57 Cd 0.22599 0.81509 0.14524 0.0
Cd58 Cd 0.20587 0.80383 0.16904 0.0
O59 O 0.18499 0.83042 0.16433 0.0
O60 O 0.24698 0.82667 0.13155 0.0
O61 O 0.25507 0.82645 0.15282 0.0
C62 C 0.26072 0.83163 0.1409 0.0
C63 C 0.2182 0.79852 0.19074 0.0
C64 C 0.18457 0.84077 0.15336 0.0
C65 C 0.20873 0.76843 0.14751 0.0
O66 O 0.20157 0.77428 0.15879 0.0
O67 O 0.21988 0.78203 0.14044 0.0
O68 O 0.19766 0.79525 0.18742 0.0
O69 O 0.23175 0.80585 0.1818 0.0
O70 O 0.41501 0.9433 0.39885 0.0
Cd71 Cd 0.43687 0.96983 0.39729 0.0
Cd72 Cd 0.45228 0.95242 0.42127 0.0
O73 O 0.42604 0.93031 0.41818 0.0
O74 O 0.42328 0.99033 0.38399 0.0
O75 O 0.4278 0.99959 0.40494 0.0
C76 C 0.42055 0.00475 0.39332 0.0
C77 C 0.45983 0.96508 0.44271 0.0
C78 C 0.41319 0.92923 0.40819 0.0
C79 C 0.48422 0.95367 0.39786 0.0
O80 O 0.48053 0.94856 0.40983 0.0
O81 O 0.46904 0.96277 0.3909 0.0
O82 O 0.46348 0.94468 0.43924 0.0
O83 O 0.45104 0.97835 0.43409 0.0
O84 O 0.30775 0.16626 0.648 0.0
Cd85 Cd 0.28169 0.1888 0.64725 0.0
Cd86 Cd 0.30152 0.20302 0.67079 0.0
O87 O 0.32287 0.17643 0.66695 0.0
O88 O 0.26048 0.17601 0.63406 0.0
O89 O 0.2521 0.17977 0.65518 0.0
C90 C 0.24643 0.17299 0.64355 0.0
C91 C 0.2893 0.21004 0.69237 0.0
C92 C 0.32261 0.1638 0.65685 0.0
C93 C 0.29921 0.23572 0.64783 0.0
O94 O 0.30532 0.23151 0.65957 0.0
O95 O 0.28903 0.22102 0.64103 0.0
O96 O 0.30974 0.21343 0.68886 0.0
O97 O 0.27579 0.20172 0.68371 0.0
O98 O 0.0898 0.05736 0.89679 0.0
Cd99 Cd 0.06715 0.03141 0.89575 0.0
Cd100 Cd 0.0532 0.05096 0.91972 0.0
O101 O 0.07992 0.07214 0.9159 0.0
O102 O 0.07937 0.01139 0.88175 0.0
O103 O 0.07656 1.00112 0.90262 0.0
C104 C 0.08278 0.9965 0.89072 0.0
C105 C 0.04609 0.03882 0.94131 0.0
C106 C 0.09244 0.072 0.90575 0.0
C107 C 0.02028 0.04927 0.89683 0.0
O108 O 0.02467 0.05511 0.9086 0.0
O109 O 0.03482 0.03915 0.88988 0.0
O110 O 0.04289 0.05928 0.93779 0.0
O111 O 0.05429 0.02523 0.93265 0.0
O112 O 0.80476 0.77126 0.65732 0.0
Cd113 Cd 0.80099 0.79997 0.66846 0.0
Cd114 Cd 0.77957 0.81336 0.64532 0.0
O115 O 0.78536 0.78066 0.63964 0.0
O116 O 0.80953 0.79005 0.68657 0.0
O117 O 0.77542 0.80136 0.68147 0.0
C118 C 0.7891 0.79335 0.69014 0.0
C119 C 0.745 0.83041 0.64112 0.0
C120 C 0.79691 0.76645 0.64602 0.0
C121 C 0.82162 0.83812 0.65351 0.0
O122 O 0.80666 0.83463 0.64484 0.0
O123 O 0.82176 0.82687 0.66416 0.0
O124 O 0.75884 0.82582 0.63176 0.0
O125 O 0.75045 0.8246 0.65297 0.0
O126 O 0.91755 0.05951 0.3961 0.0
Cd127 Cd 0.93972 0.03318 0.39614 0.0
Cd128 Cd 0.95148 0.05241 0.4201 0.0
O129 O 0.92379 0.07237 0.41616 0.0
O130 O 0.92767 0.01163 0.3829 0.0
O131 O 0.92985 0.00399 0.4042 0.0
C132 C 0.92379 0.99798 0.39248 0.0
C133 C 0.95846 0.03991 0.44164 0.0
C134 C 0.91304 0.07315 0.40534 0.0
C135 C 0.98584 0.05164 0.39784 0.0
O136 O 0.98029 0.05808 0.40933 0.0
O137 O 0.9723 0.04038 0.3908 0.0
O138 O 0.96082 0.06061 0.43837 0.0
O139 O 0.95115 0.02625 0.43275 0.0
O140 O 0.7014 0.23349 0.15826 0.0
Cd141 Cd 0.70394 0.20576 0.17027 0.0
Cd142 Cd 0.72281 0.18845 0.1471 0.0
O143 O 0.71694 0.22046 0.14006 0.0
O144 O 0.69594 0.21788 0.188 0.0
O145 O 0.72933 0.2041 0.18343 0.0
C146 C 0.71605 0.21359 0.19179 0.0
C147 C 0.75728 0.17097 0.14338 0.0
C148 C 0.70756 0.23627 0.14638 0.0
C149 C 0.68078 0.16646 0.15745 0.0
O150 O 0.69564 0.16734 0.14849 0.0
O151 O 0.68138 0.17993 0.16716 0.0
O152 O 0.74302 0.1739 0.134 0.0
O153 O 0.75224 0.17861 0.15493 0.0
O154 O 0.58505 0.94817 0.89599 0.0
Cd155 Cd 0.56373 0.97516 0.89698 0.0
Cd156 Cd 0.55226 0.95451 0.92044 0.0
O157 O 0.57889 0.93368 0.91567 0.0
O158 O 0.57583 0.99701 0.88393 0.0
O159 O 0.57482 0.00365 0.90537 0.0
C160 C 0.5805 0.01008 0.89366 0.0
C161 C 0.54677 0.96662 0.94218 0.0
C162 C 0.58928 0.9335 0.90471 0.0
C163 C 0.51708 0.95793 0.89881 0.0
O164 O 0.52282 0.95044 0.91004 0.0
O165 O 0.53074 0.96929 0.89191 0.0
O166 O 0.54352 0.9461 0.93878 0.0
O167 O 0.55418 0.98025 0.93331 0.0
O168 O 0.80803 0.23163 0.84903 0.0
Cd169 Cd 0.80321 0.20261 0.83835 0.0
Cd170 Cd 0.78317 0.19061 0.86217 0.0
O171 O 0.79009 0.22333 0.86743 0.0
O172 O 0.81143 0.21193 0.82009 0.0
O173 O 0.77724 0.2015 0.8256 0.0
C174 C 0.79083 0.20906 0.81675 0.0
C175 C 0.74828 0.17454 0.86669 0.0
C176 C 0.80126 0.23707 0.86048 0.0
C177 C 0.82403 0.16458 0.85335 0.0
O178 O 0.8097 0.16864 0.8623 0.0
O179 O 0.82377 0.17553 0.84259 0.0
O180 O 0.76243 0.17886 0.87594 0.0
O181 O 0.75362 0.18011 0.85479 0.0
O182 O 0.58743 0.06057 0.61282 0.0
Cd183 Cd 0.56507 0.03426 0.61194 0.0
Cd184 Cd 0.55436 0.05514 0.58874 0.0
O185 O 0.58283 0.0737 0.59268 0.0
O186 O 0.57657 0.01203 0.62496 0.0
O187 O 0.57526 0.00548 0.60351 0.0
C188 C 0.58081 0.99886 0.6152 0.0
C189 C 0.54693 0.0422 0.56739 0.0
C190 C 0.59292 0.07413 0.60371 0.0
C191 C 0.51962 0.05428 0.61058 0.0
O192 O 0.52606 0.06234 0.59962 0.0
O193 O 0.53219 0.04095 0.61696 0.0
O194 O 0.54536 0.0631 0.57039 0.0
O195 O 0.55368 0.02857 0.57645 0.0
O196 O 0.69774 0.77303 0.34925 0.0
Cd197 Cd 0.70136 0.80184 0.33821 0.0
Cd198 Cd 0.72267 0.8153 0.36136 0.0
O199 O 0.71688 0.78254 0.36701 0.0
O200 O 0.69304 0.79198 0.32007 0.0
O201 O 0.727 0.8036 0.32529 0.0
C202 C 0.71346 0.79553 0.31656 0.0
C203 C 0.75733 0.83216 0.36561 0.0
C204 C 0.70552 0.76824 0.36057 0.0
C205 C 0.68061 0.84 0.35309 0.0
O206 O 0.69564 0.8367 0.36175 0.0
O207 O 0.68039 0.82854 0.34252 0.0
O208 O 0.74341 0.82767 0.37495 0.0
O209 O 0.75188 0.82641 0.35376 0.0
O210 O 0.91688 0.94285 0.11147 0.0
Cd211 Cd 0.93883 0.9694 0.11181 0.0
Cd212 Cd 0.95122 0.95071 0.08764 0.0
O213 O 0.92384 0.93028 0.09142 0.0
O214 O 0.92683 0.99006 0.12555 0.0
O215 O 0.92848 0.99896 0.1044 0.0
C216 C 0.92269 0.00425 0.11628 0.0
C217 C 0.95821 0.96329 0.06612 0.0
C218 C 0.91279 0.92926 0.10213 0.0
C219 C 0.98539 0.95176 0.10997 0.0
O220 O 0.98006 0.94548 0.09842 0.0
O221 O 0.97153 0.96251 0.11707 0.0
O222 O 0.96086 0.94264 0.06941 0.0
O223 O 0.95058 0.97685 0.07497 0.0
O224 O 0.69343 0.66728 0.86105 0.0
Cd225 Cd 0.71981 0.68943 0.86158 0.0
Cd226 Cd 0.70103 0.70204 0.8374 0.0
O227 O 0.68061 0.6746 0.8411 0.0
O228 O 0.74015 0.67746 0.87549 0.0
O229 O 0.7497 0.67939 0.85446 0.0
C230 C 0.75467 0.67354 0.86637 0.0
C231 C 0.71373 0.70907 0.8159 0.0
C232 C 0.67975 0.66334 0.85174 0.0
C233 C 0.7018 0.73592 0.8599 0.0
O234 O 0.69567 0.73077 0.84828 0.0
O235 O 0.71255 0.722 0.86695 0.0
O236 O 0.69307 0.71177 0.81916 0.0
O237 O 0.72723 0.70143 0.82478 0.0
O238 O 0.58808 0.44259 0.11163 0.0
Cd239 Cd 0.56594 0.46897 0.11197 0.0
Cd240 Cd 0.55353 0.45014 0.08788 0.0
O241 O 0.58093 0.42973 0.09166 0.0
O242 O 0.5779 0.48978 0.12563 0.0
O243 O 0.57604 0.49856 0.10448 0.0
C244 C 0.5819 0.50394 0.11633 0.0
C245 C 0.54677 0.46292 0.06638 0.0
C246 C 0.59211 0.42889 0.10233 0.0
C247 C 0.51946 0.45102 0.11027 0.0
O248 O 0.52469 0.44484 0.09868 0.0
O249 O 0.53334 0.4618 0.11734 0.0
O250 O 0.54395 0.44226 0.06961 0.0
O251 O 0.55436 0.47638 0.07529 0.0
O252 O 0.80803 0.33584 0.36379 0.0
Cd253 Cd 0.78093 0.31458 0.36336 0.0
Cd254 Cd 0.80218 0.30117 0.34015 0.0
O255 O 0.82312 0.3279 0.34448 0.0
O256 O 0.76031 0.32699 0.37699 0.0
O257 O 0.75174 0.3258 0.35581 0.0
C258 C 0.74638 0.33157 0.36768 0.0
C259 C 0.79029 0.29487 0.31845 0.0
C260 C 0.823 0.33923 0.35511 0.0
C261 C 0.79801 0.26756 0.36255 0.0
O262 O 0.80575 0.27234 0.35122 0.0
O263 O 0.78668 0.28185 0.369 0.0
O264 O 0.81066 0.29129 0.32203 0.0
O265 O 0.77666 0.30293 0.32713 0.0
O266 O 0.91868 0.55991 0.61225 0.0
Cd267 Cd 0.94102 0.53372 0.61232 0.0
Cd268 Cd 0.95263 0.55309 0.5882 0.0
O269 O 0.92483 0.57285 0.59219 0.0
O270 O 0.92953 0.51293 0.62614 0.0
O271 O 0.93093 0.50399 0.605 0.0
C272 C 0.92538 0.49868 0.61691 0.0
C273 C 0.95959 0.54069 0.56663 0.0
C274 C 0.91407 0.57353 0.60301 0.0
C275 C 0.98709 0.55249 0.61039 0.0
O276 O 0.98147 0.5589 0.59891 0.0
O277 O 0.97363 0.54119 0.61745 0.0
O278 O 0.96184 0.56139 0.56991 0.0
O279 O 0.9524 0.52696 0.57552 0.0
O280 O 0.69851 0.33558 0.64587 0.0
Cd281 Cd 0.72561 0.31436 0.64676 0.0
Cd282 Cd 0.70395 0.30138 0.66968 0.0
O283 O 0.68322 0.32821 0.6652 0.0
O284 O 0.74735 0.32702 0.63383 0.0
O285 O 0.7541 0.32536 0.65524 0.0
C286 C 0.76047 0.3314 0.64359 0.0
C287 C 0.71579 0.29493 0.69136 0.0
C288 C 0.68346 0.33925 0.65446 0.0
C289 C 0.70849 0.26748 0.64748 0.0
O290 O 0.70032 0.27252 0.65867 0.0
O291 O 0.72019 0.28158 0.64111 0.0
O292 O 0.69535 0.29166 0.6878 0.0
O293 O 0.72949 0.30288 0.68269 0.0
O294 O 0.91942 0.44869 0.89616 0.0
Cd295 Cd 0.94066 0.47577 0.89707 0.0
Cd296 Cd 0.95339 0.45425 0.92002 0.0
O297 O 0.92652 0.43356 0.91556 0.0
O298 O 0.92811 0.49746 0.88408 0.0
O299 O 0.92954 0.50427 0.90548 0.0
C300 C 0.92358 0.51058 0.89381 0.0
C301 C 0.9596 0.4666 0.94163 0.0
C302 C 0.9156 0.43373 0.90479 0.0
C303 C 0.98748 0.45847 0.89792 0.0
O304 O 0.98231 0.45033 0.9091 0.0
O305 O 0.97348 0.47026 0.89152 0.0
O306 O 0.96285 0.44606 0.93826 0.0
O307 O 0.95184 0.48012 0.93279 0.0
O308 O 0.80942 0.66657 0.14719 0.0
Cd309 Cd 0.78237 0.68787 0.14593 0.0
Cd310 Cd 0.80126 0.7047 0.16913 0.0
O311 O 0.8236 0.67869 0.16599 0.0
O312 O 0.76183 0.67351 0.13293 0.0
O313 O 0.75303 0.67818 0.15393 0.0
C314 C 0.74773 0.67061 0.1424 0.0
C315 C 0.78899 0.71247 0.19061 0.0
C316 C 0.82418 0.6654 0.15619 0.0
C317 C 0.79792 0.73556 0.14539 0.0
O318 O 0.80412 0.73254 0.15724 0.0
O319 O 0.78836 0.71993 0.139 0.0
O320 O 0.80919 0.71658 0.18692 0.0
O321 O 0.77572 0.70316 0.18218 0.0
O322 O 0.58631 0.56032 0.39648 0.0
Cd323 Cd 0.56449 0.53357 0.3976 0.0
Cd324 Cd 0.55355 0.55476 0.42065 0.0
O325 O 0.58173 0.5737 0.41657 0.0
O326 O 0.5762 0.51151 0.38455 0.0
O327 O 0.57537 0.50502 0.40601 0.0
C328 C 0.58083 0.49845 0.3943 0.0
C329 C 0.54634 0.54176 0.44201 0.0
C330 C 0.59168 0.57412 0.40549 0.0
C331 C 0.51869 0.55282 0.39896 0.0
O332 O 0.52511 0.56139 0.40979 0.0
O333 O 0.53141 0.53947 0.3927 0.0
O334 O 0.54454 0.56264 0.43901 0.0
O335 O 0.55325 0.5282 0.43295 0.0
O336 O 0.30396 0.27162 0.15842 0.0
Cd337 Cd 0.30055 0.30052 0.16942 0.0
Cd338 Cd 0.27914 0.31386 0.14618 0.0
O339 O 0.28459 0.28098 0.14073 0.0
O340 O 0.30913 0.29074 0.18755 0.0
O341 O 0.2751 0.30234 0.18249 0.0
C342 C 0.28877 0.29429 0.19116 0.0
C343 C 0.24473 0.33102 0.14162 0.0
C344 C 0.29598 0.26672 0.14717 0.0
C345 C 0.32148 0.3383 0.15427 0.0
O346 O 0.30643 0.33489 0.14564 0.0
O347 O 0.32159 0.32712 0.16495 0.0
O348 O 0.25875 0.32618 0.1324 0.0
O349 O 0.24993 0.32546 0.15355 0.0
O350 O 0.41706 0.56002 0.89745 0.0
Cd351 Cd 0.43849 0.53309 0.8961 0.0
Cd352 Cd 0.45542 0.55222 0.91929 0.0
O353 O 0.4293 0.57444 0.91616 0.0
O354 O 0.4242 0.51275 0.88297 0.0
O355 O 0.42894 0.50353 0.90389 0.0
C356 C 0.42138 0.49844 0.89233 0.0
C357 C 0.46329 0.53989 0.94076 0.0
C358 C 0.4159 0.57485 0.90641 0.0
C359 C 0.48613 0.54891 0.89547 0.0
O360 O 0.48319 0.55513 0.90733 0.0
O361 O 0.47049 0.53929 0.88913 0.0
O362 O 0.46733 0.56013 0.93709 0.0
O363 O 0.45401 0.52663 0.93231 0.0
O364 O 0.20071 0.7346 0.65777 0.0
Cd365 Cd 0.20462 0.70581 0.66882 0.0
Cd366 Cd 0.22597 0.69262 0.64566 0.0
O367 O 0.22015 0.72537 0.64006 0.0
O368 O 0.19623 0.7155 0.687 0.0
O369 O 0.23033 0.70436 0.68172 0.0
C370 C 0.21671 0.71222 0.69048 0.0
C371 C 0.26056 0.6756 0.64145 0.0
C372 C 0.20856 0.73951 0.64648 0.0
C373 C 0.18397 0.66776 0.65379 0.0
O374 O 0.19889 0.67135 0.64511 0.0
O375 O 0.18386 0.67892 0.66448 0.0
O376 O 0.24675 0.68028 0.63209 0.0
O377 O 0.25507 0.68132 0.65331 0.0
O378 O 0.08807 0.44769 0.39572 0.0
Cd379 Cd 0.06584 0.47398 0.39583 0.0
Cd380 Cd 0.05429 0.45469 0.41983 0.0
O381 O 0.08196 0.43476 0.41579 0.0
O382 O 0.07769 0.49556 0.38255 0.0
O383 O 0.07567 0.50321 0.40385 0.0
C384 C 0.08159 0.50923 0.39211 0.0
C385 C 0.04744 0.46704 0.44141 0.0
C386 C 0.09265 0.43403 0.40494 0.0
C387 C 0.01974 0.45548 0.39767 0.0
O388 O 0.02539 0.44905 0.40915 0.0
O389 O 0.03323 0.46672 0.39059 0.0
O390 O 0.04509 0.44636 0.43811 0.0
O391 O 0.05468 0.48077 0.43254 0.0
O392 O 0.31309 0.72927 0.34877 0.0
Cd393 Cd 0.30599 0.70226 0.33692 0.0
Cd394 Cd 0.28341 0.68907 0.35954 0.0
O395 O 0.29119 0.72133 0.36565 0.0
O396 O 0.31415 0.71276 0.31888 0.0
O397 O 0.27959 0.70377 0.32453 0.0
C398 C 0.29331 0.71123 0.31572 0.0
C399 C 0.24809 0.67389 0.36413 0.0
C400 C 0.30488 0.73442 0.35992 0.0
C401 C 0.32369 0.66183 0.3506 0.0
O402 O 0.30902 0.66574 0.35939 0.0
O403 O 0.32472 0.67383 0.34027 0.0
O404 O 0.26257 0.67744 0.3733 0.0
O405 O 0.25332 0.67976 0.35226 0.0
O406 O 0.08728 0.55927 0.11167 0.0
Cd407 Cd 0.06455 0.53333 0.1102 0.0
Cd408 Cd 0.05458 0.55603 0.08769 0.0
O409 O 0.0834 0.57385 0.09183 0.0
O410 O 0.07541 0.51094 0.12331 0.0
O411 O 0.07473 0.50442 0.10187 0.0
C412 C 0.07988 0.49775 0.11361 0.0
C413 C 0.04683 0.54297 0.06641 0.0
C414 C 0.09322 0.57337 0.10295 0.0
C415 C 0.01989 0.55509 0.10942 0.0
O416 O 0.02673 0.56396 0.09876 0.0
O417 O 0.03175 0.54047 0.11527 0.0
O418 O 0.04574 0.56395 0.0693 0.0
O419 O 0.05327 0.52931 0.07554 0.0
O420 O 0.19305 0.27629 0.84925 0.0
Cd421 Cd 0.20014 0.30477 0.83852 0.0
Cd422 Cd 0.22105 0.31527 0.86184 0.0
O423 O 0.21469 0.28216 0.86651 0.0
O424 O 0.19217 0.29597 0.82013 0.0
O425 O 0.2267 0.30426 0.82621 0.0
C426 C 0.21307 0.29757 0.81713 0.0
C427 C 0.25609 0.33135 0.86585 0.0
C428 C 0.20132 0.26966 0.86012 0.0
C429 C 0.18092 0.34292 0.85375 0.0
O430 O 0.19446 0.33728 0.86283 0.0
O431 O 0.18147 0.33311 0.84262 0.0
O432 O 0.24262 0.32638 0.87534 0.0
O433 O 0.25001 0.32637 0.85398 0.0
O434 O 0.41836 0.44561 0.61194 0.0
Cd435 Cd 0.44054 0.47195 0.61155 0.0
Cd436 Cd 0.45228 0.45165 0.588 0.0
O437 O 0.42507 0.43127 0.59229 0.0
O438 O 0.4286 0.49376 0.62468 0.0
O439 O 0.43062 0.50102 0.60333 0.0
C440 C 0.42469 0.50725 0.61503 0.0
C441 C 0.45864 0.46427 0.56645 0.0
C442 C 0.41416 0.4312 0.60306 0.0
C443 C 0.4868 0.45356 0.61007 0.0
O444 O 0.48129 0.44666 0.59866 0.0
O445 O 0.47316 0.46495 0.61696 0.0
O446 O 0.46141 0.4436 0.56968 0.0
O447 O 0.45124 0.47779 0.57539 0.0
C448 C 0.1192 0.41386 0.39001 0.0
C449 C 0.10966 0.41637 0.4026 0.0
C450 C 0.13383 0.39624 0.38733 0.0
C451 C 0.14885 0.33971 0.39917 0.0
H452 H 0.19544 0.34562 0.37277 0.0
C453 C 0.20247 0.26459 0.38152 0.0
C454 C 0.20192 0.26163 0.36777 0.0
C455 C 0.19484 0.28455 0.38719 0.0
C456 C 0.18255 0.34376 0.3802 0.0
H457 H 0.10879 0.40271 0.4224 0.0
H458 H 0.13482 0.37215 0.4178 0.0
H459 H 0.1758 0.37889 0.38055 0.0
H460 H 0.19397 0.27765 0.34916 0.0
H461 H 0.18113 0.31258 0.35904 0.0
H462 H 0.15565 0.30448 0.39871 0.0
C463 C 0.13056 0.3836 0.40991 0.0
C464 C 0.17119 0.36278 0.38462 0.0
C465 C 0.11573 0.4012 0.41258 0.0
C466 C 0.19454 0.27939 0.35979 0.0
C467 C 0.1873 0.29944 0.36544 0.0
C468 C 0.16043 0.32071 0.39486 0.0
C469 C 0.13954 0.3807 0.39719 0.0
C470 C 0.15373 0.36094 0.39388 0.0
C471 C 0.18696 0.30207 0.3792 0.0
C472 C 0.17697 0.32249 0.38508 0.0
H473 H 0.11487 0.42516 0.38206 0.0
H474 H 0.14001 0.3944 0.37736 0.0
H475 H 0.13537 0.33754 0.40619 0.0
H476 H 0.20798 0.25117 0.38794 0.0
H477 H 0.19483 0.2862 0.39783 0.0
C478 C 0.993 0.9445 0.62927 0.0
C479 C 0.99648 0.94662 0.61562 0.0
C480 C 0.97312 0.93516 0.63411 0.0
C481 C 0.92666 0.89845 0.62293 0.0
H482 H 0.89906 0.91542 0.65607 0.0
C483 C 0.84105 0.86437 0.63808 0.0
C484 C 0.83986 0.85424 0.65058 0.0
C485 C 0.85938 0.87757 0.63461 0.0
C486 C 0.9067 0.91049 0.64683 0.0
H487 H 0.98134 0.94207 0.59639 0.0
H488 H 0.94644 0.9268 0.60477 0.0
H489 H 0.93224 0.93557 0.64828 0.0
H490 H 0.85655 0.85109 0.66949 0.0
H491 H 0.88862 0.87452 0.6634 0.0
H492 H 0.90096 0.87369 0.62137 0.0
C493 C 0.95931 0.93141 0.61178 0.0
C494 C 0.92572 0.92196 0.64237 0.0
C495 C 0.97927 0.94035 0.60696 0.0
C496 C 0.85698 0.85857 0.65977 0.0
C497 C 0.87529 0.87203 0.65632 0.0
C498 C 0.90757 0.88726 0.6273 0.0
C499 C 0.9562 0.92804 0.62539 0.0
C500 C 0.93589 0.91614 0.63031 0.0
C501 C 0.8769 0.88117 0.64358 0.0
C502 C 0.89732 0.89319 0.63924 0.0
H503 H 0.00602 0.94911 0.63618 0.0
H504 H 0.97143 0.93272 0.64464 0.0
H505 H 0.93433 0.89297 0.61382 0.0
H506 H 0.82815 0.86155 0.63076 0.0
H507 H 0.86005 0.88467 0.62479 0.0
C508 C 0.38303 0.5927 0.89522 0.0
C509 C 0.39998 0.5937 0.90484 0.0
C510 C 0.36978 0.61144 0.89254 0.0
C511 C 0.37393 0.672 0.8928 0.0
H512 H 0.3105 0.6706 0.88461 0.0
C513 C 0.33217 0.73826 0.86027 0.0
C514 C 0.31254 0.74839 0.86507 0.0
C515 C 0.34108 0.71943 0.86647 0.0
C516 C 0.32817 0.67126 0.88698 0.0
H517 H 0.41553 0.61486 0.91961 0.0
H518 H 0.39252 0.64767 0.91477 0.0
H519 H 0.32866 0.6373 0.89391 0.0
H520 H 0.2865 0.74615 0.87992 0.0
H521 H 0.30198 0.71271 0.89061 0.0
H522 H 0.37367 0.70562 0.8855 0.0
C523 C 0.38957 0.63236 0.90932 0.0
C524 C 0.33856 0.65222 0.89223 0.0
C525 C 0.40267 0.61354 0.91212 0.0
C526 C 0.30166 0.73877 0.87599 0.0
C527 C 0.31046 0.71964 0.8821 0.0
C528 C 0.36363 0.69086 0.8874 0.0
C529 C 0.37333 0.63164 0.8993 0.0
C530 C 0.36162 0.65233 0.89504 0.0
C531 C 0.33048 0.71006 0.87751 0.0
C532 C 0.34074 0.69058 0.88425 0.0
H533 H 0.38043 0.57764 0.88948 0.0
H534 H 0.35751 0.61042 0.8847 0.0
H535 H 0.39176 0.67254 0.89473 0.0
H536 H 0.34102 0.74519 0.85189 0.0
H537 H 0.35637 0.71218 0.86262 0.0
C538 C 0.51624 0.08433 0.11161 0.0
C539 C 0.50597 0.06481 0.11647 0.0
C540 C 0.53509 0.0932 0.11781 0.0
C541 C 0.58311 0.07995 0.13836 0.0
H542 H 0.58275 0.14366 0.1458 0.0
C543 C 0.66244 0.13378 0.14634 0.0
C544 C 0.66171 0.15081 0.15591 0.0
C545 C 0.64351 0.12079 0.14369 0.0
C546 C 0.58303 0.1258 0.14395 0.0
H547 H 0.50793 0.03896 0.13145 0.0
H548 H 0.54139 0.05436 0.14214 0.0
H549 H 0.5494 0.12591 0.13667 0.0
H550 H 0.64078 0.16681 0.17064 0.0
H551 H 0.60763 0.14426 0.16587 0.0
H552 H 0.61707 0.08004 0.14527 0.0
C553 C 0.53456 0.06279 0.13358 0.0
C554 C 0.56401 0.1157 0.13862 0.0
C555 C 0.51541 0.05403 0.12748 0.0
C556 C 0.64191 0.15387 0.16319 0.0
C557 C 0.62289 0.14103 0.16043 0.0
C558 C 0.6023 0.09014 0.14354 0.0
C559 C 0.54434 0.08266 0.12891 0.0
C560 C 0.56396 0.09276 0.13559 0.0
C561 C 0.62337 0.1247 0.15045 0.0
C562 C 0.60252 0.11324 0.14624 0.0
H563 H 0.50944 0.09309 0.10317 0.0
H564 H 0.54248 0.10838 0.1139 0.0
H565 H 0.5835 0.06224 0.13608 0.0
H566 H 0.67746 0.1309 0.1406 0.0
H567 H 0.64434 0.10843 0.13589 0.0
C568 C 0.20116 0.74215 0.12872 0.0
C569 C 0.20262 0.74609 0.14235 0.0
C570 C 0.19246 0.72193 0.12396 0.0
C571 C 0.15586 0.67544 0.13505 0.0
H572 H 0.17399 0.64749 0.10223 0.0
C573 C 0.11942 0.59118 0.11909 0.0
C574 C 0.11032 0.59047 0.10631 0.0
C575 C 0.13331 0.6088 0.12292 0.0
C576 C 0.16875 0.6552 0.1114 0.0
H577 H 0.19766 0.73138 0.16166 0.0
H578 H 0.18348 0.69591 0.15343 0.0
H579 H 0.19401 0.6806 0.11022 0.0
H580 H 0.10978 0.60713 0.08729 0.0
H581 H 0.13426 0.63793 0.09403 0.0
H582 H 0.13078 0.65002 0.1363 0.0
C583 C 0.18812 0.70867 0.14636 0.0
C584 C 0.18015 0.67419 0.11596 0.0
C585 C 0.19644 0.72896 0.1511 0.0
C586 C 0.11644 0.6072 0.09722 0.0
C587 C 0.13051 0.6248 0.10105 0.0
C588 C 0.14471 0.6564 0.13058 0.0
C589 C 0.18534 0.70512 0.13274 0.0
C590 C 0.17383 0.68456 0.12787 0.0
C591 C 0.13857 0.62607 0.11405 0.0
C592 C 0.151 0.64606 0.11872 0.0
H593 H 0.20572 0.75509 0.12173 0.0
H594 H 0.19045 0.7199 0.11342 0.0
H595 H 0.15003 0.68325 0.14405 0.0
H596 H 0.11524 0.57852 0.12632 0.0
H597 H 0.13956 0.60918 0.13294 0.0
C598 C 0.50801 0.94319 0.37838 0.0
C599 C 0.50601 0.94751 0.39195 0.0
C600 C 0.52789 0.93432 0.37324 0.0
C601 C 0.57737 0.90216 0.3845 0.0
H602 H 0.60057 0.91462 0.34955 0.0
C603 C 0.66206 0.86768 0.36803 0.0
C604 C 0.6624 0.85621 0.35592 0.0
C605 C 0.64381 0.881 0.37151 0.0
C606 C 0.59418 0.91094 0.35931 0.0
H607 H 0.52375 0.94754 0.41059 0.0
H608 H 0.55853 0.93303 0.40161 0.0
H609 H 0.56733 0.93457 0.35746 0.0
H610 H 0.64425 0.85076 0.33767 0.0
H611 H 0.61228 0.87423 0.34379 0.0
H612 H 0.6042 0.87874 0.38642 0.0
C613 C 0.54456 0.93556 0.39497 0.0
C614 C 0.57513 0.9223 0.36384 0.0
C615 C 0.52466 0.94406 0.40012 0.0
C616 C 0.64449 0.8593 0.34709 0.0
C617 C 0.62622 0.87279 0.35056 0.0
C618 C 0.59643 0.89104 0.38004 0.0
C619 C 0.54624 0.92986 0.38155 0.0
C620 C 0.56656 0.91812 0.37654 0.0
C621 C 0.62547 0.8833 0.36295 0.0
C622 C 0.60512 0.89535 0.36744 0.0
H623 H 0.49387 0.94563 0.37185 0.0
H624 H 0.5285 0.93006 0.36287 0.0
H625 H 0.57094 0.89793 0.39417 0.0
H626 H 0.6756 0.86589 0.37505 0.0
H627 H 0.64385 0.88919 0.38104 0.0
C628 C 0.30889 0.25981 0.62834 0.0
C629 C 0.3054 0.25754 0.64198 0.0
C630 C 0.31785 0.27965 0.62318 0.0
C631 C 0.35171 0.32816 0.63423 0.0
H632 H 0.33767 0.35266 0.5998 0.0
C633 C 0.38657 0.41278 0.6181 0.0
C634 C 0.39761 0.41328 0.60586 0.0
C635 C 0.37306 0.39467 0.62156 0.0
C636 C 0.34178 0.3459 0.60941 0.0
H637 H 0.3069 0.27476 0.66076 0.0
H638 H 0.32152 0.3095 0.65178 0.0
H639 H 0.31755 0.31954 0.60777 0.0
H640 H 0.40201 0.39562 0.58734 0.0
H641 H 0.37818 0.36388 0.59344 0.0
H642 H 0.37571 0.35451 0.63595 0.0
C643 C 0.3183 0.29576 0.64508 0.0
C644 C 0.33033 0.32692 0.61397 0.0
C645 C 0.30973 0.27589 0.65023 0.0
C646 C 0.39383 0.39573 0.59687 0.0
C647 C 0.38013 0.3776 0.60033 0.0
C648 C 0.36291 0.34715 0.62974 0.0
C649 C 0.32321 0.29768 0.63156 0.0
C650 C 0.33508 0.31789 0.62649 0.0
C651 C 0.37013 0.37663 0.61286 0.0
C652 C 0.35802 0.35632 0.61733 0.0
H653 H 0.30577 0.24589 0.62175 0.0
H654 H 0.32148 0.28046 0.61273 0.0
H655 H 0.35638 0.32135 0.64373 0.0
H656 H 0.38889 0.42606 0.62524 0.0
H657 H 0.36526 0.39454 0.63121 0.0
C658 C 0.99593 0.05924 0.8775 0.0
C659 C 0.99842 0.05568 0.89112 0.0
C660 C 0.97605 0.06834 0.87247 0.0
C661 C 0.9279 0.10241 0.88382 0.0
H662 H 0.90264 0.08831 0.84959 0.0
C663 C 0.84291 0.13716 0.86831 0.0
C664 C 0.84209 0.14814 0.85605 0.0
C665 C 0.86113 0.12373 0.87165 0.0
C666 C 0.90962 0.09245 0.85914 0.0
H667 H 0.98154 0.05726 0.91001 0.0
H668 H 0.94676 0.07215 0.90126 0.0
H669 H 0.93588 0.06816 0.85733 0.0
H670 H 0.85933 0.15252 0.8374 0.0
H671 H 0.89127 0.12882 0.84328 0.0
H672 H 0.90163 0.12646 0.88572 0.0
C673 C 0.96035 0.06885 0.89447 0.0
C674 C 0.92867 0.08097 0.86357 0.0
C675 C 0.98025 0.06014 0.8995 0.0
C676 C 0.85946 0.14438 0.84694 0.0
C677 C 0.87771 0.13076 0.85028 0.0
C678 C 0.90884 0.11364 0.87947 0.0
C679 C 0.95821 0.07378 0.88096 0.0
C680 C 0.93796 0.08573 0.87603 0.0
C681 C 0.87898 0.12081 0.86281 0.0
C682 C 0.8994 0.10872 0.86713 0.0
H683 H 0.0097 0.05603 0.87082 0.0
H684 H 0.97508 0.07198 0.86204 0.0
H685 H 0.93491 0.10709 0.89327 0.0
H686 H 0.82977 0.13946 0.87555 0.0
H687 H 0.86149 0.11597 0.8813 0.0
C688 C 0.88715 0.59341 0.61784 0.0
C689 C 0.89689 0.59105 0.6053 0.0
C690 C 0.8723 0.61087 0.62047 0.0
C691 C 0.85687 0.6673 0.60866 0.0
H692 H 0.80992 0.66071 0.63479 0.0
C693 C 0.80228 0.74176 0.62624 0.0
C694 C 0.8026 0.7446 0.64001 0.0
C695 C 0.81017 0.72191 0.62055 0.0
C696 C 0.82291 0.66276 0.62744 0.0
H697 H 0.89791 0.6048 0.58552 0.0
H698 H 0.87152 0.63509 0.59004 0.0
H699 H 0.83002 0.6277 0.62703 0.0
H700 H 0.8104 0.72847 0.65861 0.0
H701 H 0.8237 0.69375 0.64869 0.0
H702 H 0.84971 0.70245 0.60918 0.0
C703 C 0.87578 0.62365 0.59793 0.0
C704 C 0.83453 0.64389 0.62303 0.0
C705 C 0.89081 0.6062 0.59531 0.0
C706 C 0.81 0.72683 0.64797 0.0
C707 C 0.8175 0.7069 0.6423 0.0
C708 C 0.84503 0.68614 0.61296 0.0
C709 C 0.86657 0.62639 0.61061 0.0
C710 C 0.85213 0.64598 0.61388 0.0
C711 C 0.81809 0.7044 0.62853 0.0
C712 C 0.82835 0.68412 0.62264 0.0
H713 H 0.89146 0.58212 0.6258 0.0
H714 H 0.86596 0.6126 0.63042 0.0
H715 H 0.87044 0.66965 0.60173 0.0
H716 H 0.79676 0.75518 0.61984 0.0
H717 H 0.81036 0.72036 0.60991 0.0
C718 C 0.16261 0.14194 0.36998 0.0
C719 C 0.16379 0.15205 0.35747 0.0
C720 C 0.14432 0.12867 0.37344 0.0
C721 C 0.09713 0.09559 0.36115 0.0
H722 H 0.06962 0.11254 0.3943 0.0
C723 C 0.01108 0.06101 0.37882 0.0
C724 C 0.00777 0.05867 0.39247 0.0
C725 C 0.03089 0.07046 0.37395 0.0
C726 C 0.07726 0.10722 0.38514 0.0
H727 H 0.14709 0.15514 0.33856 0.0
H728 H 0.11509 0.13163 0.34464 0.0
H729 H 0.10282 0.13212 0.38675 0.0
H730 H 0.02315 0.06292 0.41165 0.0
H731 H 0.05791 0.0784 0.40321 0.0
H732 H 0.07171 0.07039 0.35965 0.0
C733 C 0.1284 0.13417 0.35174 0.0
C734 C 0.09625 0.11858 0.38078 0.0
C735 C 0.14668 0.14768 0.34829 0.0
C736 C 0.02509 0.0648 0.40109 0.0
C737 C 0.04496 0.07387 0.39624 0.0
C738 C 0.07819 0.08397 0.3656 0.0
C739 C 0.12682 0.125 0.36447 0.0
C740 C 0.10646 0.11284 0.36879 0.0
C741 C 0.04789 0.07748 0.38263 0.0
C742 C 0.06808 0.08957 0.37771 0.0
H743 H 0.17551 0.14478 0.37729 0.0
H744 H 0.14368 0.12156 0.38326 0.0
H745 H 0.10474 0.09081 0.35187 0.0
H746 H 0.99797 0.0565 0.37194 0.0
H747 H 0.03245 0.07308 0.36343 0.0
C748 C 0.61381 0.39528 0.09449 0.0
C749 C 0.60916 0.41115 0.10436 0.0
C750 C 0.6287 0.37762 0.09692 0.0
C751 C 0.67229 0.35793 0.12068 0.0
H752 H 0.65346 0.29886 0.10939 0.0
C753 C 0.69723 0.27678 0.14726 0.0
C754 C 0.70233 0.25771 0.13973 0.0
C755 C 0.68995 0.29643 0.14118 0.0
C756 C 0.65918 0.31528 0.11242 0.0
H757 H 0.61702 0.42118 0.12441 0.0
H758 H 0.64238 0.3904 0.12869 0.0
H759 H 0.63293 0.33171 0.10184 0.0
H760 H 0.70442 0.24451 0.11985 0.0
H761 H 0.69128 0.27891 0.1092 0.0
H762 H 0.69786 0.34129 0.13179 0.0
C763 C 0.63495 0.39169 0.11899 0.0
C764 C 0.64744 0.33415 0.10808 0.0
C765 C 0.6202 0.40931 0.11655 0.0
C766 C 0.70067 0.25896 0.12592 0.0
C767 C 0.69304 0.27857 0.11983 0.0
C768 C 0.68388 0.33906 0.12512 0.0
C769 C 0.63921 0.37544 0.10927 0.0
C770 C 0.65349 0.35569 0.11242 0.0
C771 C 0.68733 0.2974 0.12742 0.0
C772 C 0.67712 0.31751 0.12127 0.0
H773 H 0.60569 0.39624 0.08497 0.0
H774 H 0.6318 0.36558 0.08915 0.0
H775 H 0.67777 0.37427 0.12399 0.0
H776 H 0.69839 0.2764 0.15792 0.0
H777 H 0.68547 0.3106 0.1473 0.0
C778 C 0.47757 0.94559 0.90214 0.0
C779 C 0.49481 0.95192 0.89351 0.0
C780 C 0.45736 0.93733 0.89726 0.0
C781 C 0.42334 0.9297 0.86664 0.0
H782 H 0.39892 0.88007 0.88665 0.0
C783 C 0.35664 0.86613 0.84734 0.0
C784 C 0.33977 0.85994 0.85632 0.0
C785 C 0.37418 0.88017 0.8513 0.0
C786 C 0.40537 0.89407 0.88102 0.0
H787 H 0.5041 0.95534 0.87295 0.0
H788 H 0.46905 0.94015 0.86438 0.0
H789 H 0.43202 0.89925 0.89465 0.0
H790 H 0.32755 0.8647 0.87629 0.0
H791 H 0.35811 0.88894 0.88314 0.0
H792 H 0.39685 0.92368 0.85276 0.0
C793 C 0.47092 0.94202 0.87494 0.0
C794 C 0.42433 0.90519 0.88564 0.0
C795 C 0.49107 0.95066 0.87985 0.0
C796 C 0.34031 0.86894 0.86913 0.0
C797 C 0.35787 0.88278 0.87309 0.0
C798 C 0.40442 0.91834 0.86193 0.0
C799 C 0.454 0.93474 0.88361 0.0
C800 C 0.43354 0.92326 0.87858 0.0
C801 C 0.37527 0.88812 0.86433 0.0
C802 C 0.3952 0.9005 0.86914 0.0
H803 H 0.47984 0.94666 0.91272 0.0
H804 H 0.4445 0.93257 0.90424 0.0
H805 H 0.42982 0.94364 0.86099 0.0
H806 H 0.3567 0.85957 0.83739 0.0
H807 H 0.38741 0.88398 0.84435 0.0
C808 C 0.895 0.39833 0.9108 0.0
C809 C 0.89949 0.41556 0.9017 0.0
C810 C 0.88153 0.3801 0.90722 0.0
C811 C 0.86639 0.34832 0.87795 0.0
H812 H 0.81833 0.32305 0.89888 0.0
C813 C 0.81374 0.27657 0.85732 0.0
C814 C 0.80782 0.2591 0.8659 0.0
C815 C 0.82243 0.29657 0.86224 0.0
C816 C 0.83187 0.32974 0.89298 0.0
H817 H 0.89245 0.42754 0.88191 0.0
H818 H 0.86929 0.39578 0.87571 0.0
H819 H 0.83837 0.35619 0.90683 0.0
H820 H 0.80561 0.24917 0.88641 0.0
H821 H 0.82155 0.28387 0.89502 0.0
H822 H 0.86071 0.32178 0.86432 0.0
C823 C 0.87629 0.3963 0.88556 0.0
C824 C 0.84328 0.34875 0.89754 0.0
C825 C 0.88951 0.41455 0.88916 0.0
C826 C 0.80996 0.2624 0.87956 0.0
C827 C 0.81904 0.28233 0.88449 0.0
C828 C 0.85524 0.32926 0.87349 0.0
C829 C 0.87253 0.37868 0.89444 0.0
C830 C 0.8605 0.35832 0.88997 0.0
C831 C 0.82588 0.29949 0.87586 0.0
C832 C 0.83766 0.31981 0.88085 0.0
H833 H 0.90235 0.39862 0.92056 0.0
H834 H 0.87893 0.36669 0.91424 0.0
H835 H 0.87991 0.35507 0.87204 0.0
H836 H 0.81199 0.27465 0.84675 0.0
H837 H 0.82682 0.30962 0.8553 0.0
C838 C 0.36157 0.14971 0.66088 0.0
C839 C 0.34064 0.14719 0.65474 0.0
C840 C 0.37953 0.13588 0.65739 0.0
C841 C 0.39827 0.10111 0.62928 0.0
H842 H 0.44732 0.0864 0.65274 0.0
C843 C 0.48978 0.05282 0.62813 0.0
C844 C 0.49771 0.06135 0.61607 0.0
C845 C 0.4695 0.06044 0.63344 0.0
C846 C 0.43363 0.09007 0.64609 0.0
H847 H 0.32165 0.1271 0.64089 0.0
H848 H 0.35261 0.10249 0.63519 0.0
H849 H 0.41353 0.10366 0.66163 0.0
H850 H 0.49043 0.08453 0.60015 0.0
H851 H 0.45561 0.09799 0.60946 0.0
H852 H 0.4181 0.08727 0.61378 0.0
C853 C 0.35549 0.11566 0.64232 0.0
C854 C 0.41435 0.10025 0.65116 0.0
C855 C 0.33767 0.12968 0.64566 0.0
C856 C 0.48482 0.07746 0.60941 0.0
C857 C 0.4647 0.0851 0.61473 0.0
C858 C 0.4174 0.09081 0.62424 0.0
C859 C 0.37687 0.11902 0.64781 0.0
C860 C 0.39656 0.10626 0.64278 0.0
C861 C 0.45676 0.07675 0.62682 0.0
C862 C 0.43555 0.0856 0.63251 0.0
H863 H 0.3644 0.1631 0.66788 0.0
H864 H 0.39574 0.13916 0.66175 0.0
H865 H 0.38513 0.10571 0.62245 0.0
H866 H 0.49927 0.04038 0.63351 0.0
H867 H 0.46378 0.05349 0.64271 0.0
C868 C 0.69233 0.72865 0.35853 0.0
C869 C 0.70006 0.74626 0.36651 0.0
C870 C 0.68513 0.70857 0.36415 0.0
C871 C 0.65943 0.687 0.39397 0.0
H872 H 0.67322 0.62897 0.3789 0.0
C873 C 0.61569 0.60663 0.41251 0.0
C874 C 0.60866 0.59161 0.40267 0.0
C875 C 0.63039 0.62415 0.40947 0.0
C876 C 0.66905 0.64504 0.38318 0.0
H877 H 0.70683 0.75638 0.38666 0.0
H878 H 0.69383 0.72128 0.39652 0.0
H879 H 0.69269 0.6622 0.37091 0.0
H880 H 0.61206 0.58296 0.38198 0.0
H881 H 0.63705 0.61361 0.37665 0.0
H882 H 0.63502 0.67018 0.40577 0.0
C883 C 0.69348 0.72309 0.38589 0.0
C884 C 0.68031 0.66405 0.37863 0.0
C885 C 0.70102 0.7431 0.38024 0.0
C886 C 0.61715 0.59415 0.38983 0.0
C887 C 0.63167 0.6117 0.38678 0.0
C888 C 0.64798 0.66803 0.39842 0.0
C889 C 0.68522 0.70573 0.3779 0.0
C890 C 0.67531 0.68527 0.3838 0.0
C891 C 0.6383 0.62712 0.39651 0.0
C892 C 0.6523 0.64686 0.39288 0.0
H893 H 0.69144 0.73053 0.34792 0.0
H894 H 0.67866 0.69557 0.35776 0.0
H895 H 0.65507 0.70319 0.39804 0.0
H896 H 0.60958 0.60509 0.42252 0.0
H897 H 0.63539 0.63548 0.41726 0.0
C898 C 0.14924 0.86129 0.15959 0.0
C899 C 0.16621 0.8567 0.15034 0.0
C900 C 0.13074 0.87443 0.15607 0.0
C901 C 0.09795 0.88835 0.12695 0.0
H902 H 0.07224 0.93622 0.14785 0.0
C903 C 0.02494 0.9396 0.10663 0.0
C904 C 0.00752 0.94529 0.1153 0.0
C905 C 0.04514 0.93122 0.11145 0.0
C906 C 0.07906 0.92272 0.14197 0.0
H907 H 0.17749 0.86332 0.13036 0.0
H908 H 0.1453 0.88596 0.12429 0.0
H909 H 0.10597 0.91698 0.15562 0.0
H910 H 0.99787 0.94738 0.13586 0.0
H911 H 0.03295 0.93201 0.1443 0.0
H912 H 0.07098 0.89331 0.11352 0.0
C913 C 0.1462 0.87925 0.1342 0.0
C914 C 0.0984 0.91178 0.14641 0.0
C915 C 0.1647 0.86632 0.13772 0.0
C916 C 0.01104 0.94319 0.12894 0.0
C917 C 0.03119 0.93444 0.13378 0.0
C918 C 0.07858 0.89905 0.1226 0.0
C919 C 0.1288 0.88304 0.14323 0.0
C920 C 0.10814 0.89463 0.13886 0.0
C921 C 0.04833 0.92788 0.12506 0.0
C922 C 0.06896 0.91655 0.12995 0.0
H923 H 0.14991 0.8542 0.16941 0.0
H924 H 0.11753 0.87706 0.16322 0.0
H925 H 0.10481 0.87487 0.12106 0.0
H926 H 0.02286 0.94132 0.09607 0.0
H927 H 0.05816 0.92702 0.10445 0.0
C928 C 0.68917 0.77541 0.85682 0.0
C929 C 0.69508 0.75789 0.86536 0.0
C930 C 0.68055 0.79542 0.86178 0.0
C931 C 0.67176 0.82863 0.89255 0.0
H932 H 0.62365 0.85437 0.87185 0.0
C933 C 0.60984 0.89805 0.91068 0.0
C934 C 0.60521 0.9152 0.90156 0.0
C935 C 0.62304 0.87967 0.90703 0.0
C936 C 0.63719 0.8475 0.87769 0.0
H937 H 0.69731 0.74787 0.88586 0.0
H938 H 0.68155 0.7826 0.89455 0.0
H939 H 0.6424 0.82086 0.86405 0.0
H940 H 0.61178 0.9269 0.88165 0.0
H941 H 0.63451 0.8949 0.87535 0.0
H942 H 0.66578 0.85521 0.9064 0.0
C943 C 0.68398 0.78107 0.88401 0.0
C944 C 0.64807 0.82832 0.87319 0.0
C945 C 0.69296 0.76112 0.87903 0.0
C946 C 0.61482 0.91397 0.88892 0.0
C947 C 0.6278 0.89558 0.88526 0.0
C948 C 0.66063 0.84777 0.89714 0.0
C949 C 0.67721 0.7983 0.87542 0.0
C950 C 0.66567 0.81872 0.88046 0.0
C951 C 0.63166 0.87801 0.89417 0.0
C952 C 0.64339 0.85751 0.88966 0.0
H953 H 0.69089 0.77356 0.84625 0.0
H954 H 0.67618 0.80853 0.85487 0.0
H955 H 0.68532 0.82182 0.89838 0.0
H956 H 0.60277 0.8985 0.9205 0.0
H957 H 0.62573 0.86632 0.91408 0.0
C958 C 0.4799 0.43869 0.10712 0.0
C959 C 0.49746 0.44433 0.11569 0.0
C960 C 0.45986 0.43006 0.11202 0.0
C961 C 0.42675 0.42056 0.14278 0.0
H962 H 0.40054 0.3733 0.1216 0.0
C963 C 0.35722 0.35825 0.16035 0.0
C964 C 0.33988 0.3542 0.15126 0.0
C965 C 0.37565 0.37147 0.15681 0.0
C966 C 0.40754 0.3866 0.12758 0.0
H967 H 0.50753 0.44603 0.1362 0.0
H968 H 0.47277 0.43021 0.14478 0.0
H969 H 0.4341 0.3921 0.11393 0.0
H970 H 0.32792 0.36181 0.13153 0.0
H971 H 0.36002 0.38454 0.12542 0.0
H972 H 0.40027 0.41424 0.15664 0.0
C973 C 0.47427 0.43289 0.13426 0.0
C974 C 0.42675 0.39751 0.12315 0.0
C975 C 0.49425 0.44191 0.12934 0.0
C976 C 0.34099 0.3644 0.13877 0.0
C977 C 0.35943 0.37738 0.13523 0.0
C978 C 0.40759 0.40938 0.1473 0.0
C979 C 0.45699 0.4264 0.12563 0.0
C980 C 0.43653 0.41482 0.1306 0.0
C981 C 0.37716 0.38068 0.14409 0.0
C982 C 0.3977 0.39245 0.13966 0.0
H983 H 0.48176 0.44065 0.09656 0.0
H984 H 0.44673 0.42593 0.10508 0.0
H985 H 0.43368 0.43389 0.14875 0.0
H986 H 0.35686 0.35072 0.17006 0.0
H987 H 0.38914 0.37373 0.16383 0.0
C988 C 0.88637 0.09334 0.3905 0.0
C989 C 0.89603 0.09083 0.40305 0.0
C990 C 0.87174 0.11097 0.38786 0.0
C991 C 0.85691 0.16753 0.39973 0.0
H992 H 0.81002 0.16164 0.37351 0.0
C993 C 0.8032 0.2427 0.38227 0.0
C994 C 0.80355 0.24563 0.36851 0.0
C995 C 0.81089 0.22273 0.38791 0.0
C996 C 0.82301 0.1635 0.38089 0.0
H997 H 0.8971 0.1045 0.42285 0.0
H998 H 0.87107 0.13508 0.41833 0.0
H999 H 0.82971 0.12836 0.38123 0.0
H1000 H 0.8112 0.22956 0.34987 0.0
H1001 H 0.82416 0.19464 0.35971 0.0
H1002 H 0.85017 0.20276 0.39927 0.0
C1003 C 0.87524 0.12363 0.41043 0.0
C1004 C 0.83439 0.14447 0.38527 0.0
C1005 C 0.89007 0.10601 0.41305 0.0
C1006 C 0.81079 0.22785 0.3605 0.0
C1007 C 0.81809 0.2078 0.36613 0.0
C1008 C 0.84532 0.18654 0.39545 0.0
C1009 C 0.86613 0.12652 0.39774 0.0
C1010 C 0.85195 0.1463 0.39447 0.0
C1011 C 0.81864 0.20519 0.37989 0.0
C1012 C 0.82867 0.18477 0.38573 0.0
H1013 H 0.89061 0.08204 0.38253 0.0
H1014 H 0.86546 0.11282 0.37791 0.0
H1015 H 0.87048 0.16969 0.40669 0.0
H1016 H 0.7978 0.25612 0.3887 0.0
H1017 H 0.81105 0.2211 0.39855 0.0
C1018 C 0.14859 0.64731 0.66002 0.0
C1019 C 0.16572 0.65167 0.65084 0.0
C1020 C 0.13027 0.63388 0.65654 0.0
C1021 C 0.09802 0.61876 0.62748 0.0
H1022 H 0.0732 0.5705 0.64844 0.0
C1023 C 0.02631 0.56575 0.60708 0.0
C1024 C 0.00905 0.55953 0.61572 0.0
C1025 C 0.04626 0.57468 0.61192 0.0
C1026 C 0.07975 0.58411 0.64254 0.0
H1027 H 0.17743 0.64443 0.63101 0.0
H1028 H 0.14551 0.62136 0.625 0.0
H1029 H 0.1064 0.59059 0.65626 0.0
H1030 H 0.99942 0.55711 0.63627 0.0
H1031 H 0.034 0.57346 0.64476 0.0
H1032 H 0.07128 0.6131 0.61398 0.0
C1033 C 0.14619 0.62842 0.63484 0.0
C1034 C 0.09879 0.59553 0.64702 0.0
C1035 C 0.16452 0.64159 0.63832 0.0
C1036 C 0.01248 0.56168 0.62937 0.0
C1037 C 0.03235 0.571 0.63423 0.0
C1038 C 0.07892 0.60761 0.6231 0.0
C1039 C 0.12866 0.6248 0.6438 0.0
C1040 C 0.10822 0.61281 0.63944 0.0
C1041 C 0.04932 0.57807 0.62554 0.0
C1042 C 0.06963 0.58994 0.63047 0.0
H1043 H 0.14902 0.65474 0.66975 0.0
H1044 H 0.11693 0.63137 0.66363 0.0
H1045 H 0.10466 0.63232 0.62156 0.0
H1046 H 0.02429 0.564 0.59651 0.0
H1047 H 0.05917 0.57925 0.60493 0.0
C1048 C 0.61741 0.10608 0.59639 0.0
C1049 C 0.61023 0.09136 0.60635 0.0
C1050 C 0.63242 0.12341 0.59926 0.0
C1051 C 0.67158 0.14425 0.6253 0.0
H1052 H 0.65809 0.20233 0.6102 0.0
C1053 C 0.69518 0.22797 0.64964 0.0
C1054 C 0.70307 0.24545 0.64161 0.0
C1055 C 0.68797 0.20785 0.64407 0.0
C1056 C 0.66232 0.18615 0.61433 0.0
H1057 H 0.61371 0.08303 0.62708 0.0
H1058 H 0.63924 0.11337 0.63213 0.0
H1059 H 0.63769 0.16942 0.60265 0.0
H1060 H 0.71015 0.25529 0.62145 0.0
H1061 H 0.69711 0.22013 0.61169 0.0
H1062 H 0.69542 0.16135 0.63747 0.0
C1063 C 0.63374 0.11136 0.62202 0.0
C1064 C 0.65067 0.16724 0.60999 0.0
C1065 C 0.6189 0.09399 0.61914 0.0
C1066 C 0.70421 0.24211 0.6279 0.0
C1067 C 0.69665 0.22207 0.6223 0.0
C1068 C 0.68304 0.1632 0.62974 0.0
C1069 C 0.6405 0.12649 0.61217 0.0
C1070 C 0.65479 0.1461 0.61563 0.0
C1071 C 0.68821 0.20485 0.63033 0.0
C1072 C 0.6782 0.1844 0.62449 0.0
H1073 H 0.61117 0.10444 0.58641 0.0
H1074 H 0.63752 0.13451 0.59137 0.0
H1075 H 0.67559 0.1282 0.62966 0.0
H1076 H 0.69416 0.22998 0.66024 0.0
H1077 H 0.68136 0.19495 0.65049 0.0
C1078 C 0.14886 0.36741 0.8466 0.0
C1079 C 0.16358 0.36007 0.85651 0.0
C1080 C 0.13148 0.38231 0.84957 0.0
C1081 C 0.1106 0.42095 0.87587 0.0
H1082 H 0.05257 0.40792 0.86057 0.0
C1083 C 0.02685 0.44478 0.90012 0.0
C1084 C 0.0095 0.4529 0.89208 0.0
C1085 C 0.04695 0.43746 0.89458 0.0
C1086 C 0.06873 0.41202 0.86477 0.0
H1087 H 0.17184 0.36311 0.87728 0.0
H1088 H 0.14142 0.38844 0.88249 0.0
H1089 H 0.08544 0.38754 0.85296 0.0
H1090 H 0.99985 0.46022 0.87192 0.0
H1091 H 0.03496 0.44699 0.8622 0.0
H1092 H 0.09352 0.44466 0.88814 0.0
C1093 C 0.14346 0.38316 0.87235 0.0
C1094 C 0.08763 0.40038 0.86039 0.0
C1095 C 0.16088 0.36844 0.86937 0.0
C1096 C 0.01293 0.45412 0.87838 0.0
C1097 C 0.03295 0.44644 0.87281 0.0
C1098 C 0.09166 0.4324 0.88034 0.0
C1099 C 0.12835 0.39011 0.86254 0.0
C1100 C 0.10874 0.40434 0.86608 0.0
C1101 C 0.05005 0.4378 0.88085 0.0
C1102 C 0.07048 0.42774 0.87501 0.0
H1103 H 0.15054 0.3614 0.83657 0.0
H1104 H 0.12039 0.38756 0.84171 0.0
H1105 H 0.12664 0.42485 0.88027 0.0
H1106 H 0.02476 0.44369 0.91071 0.0
H1107 H 0.05975 0.4307 0.90101 0.0
C1108 C 0.8911 0.89569 0.0942 0.0
C1109 C 0.89584 0.91141 0.10414 0.0
C1110 C 0.87632 0.87794 0.0966 0.0
C1111 C 0.83311 0.85769 0.12044 0.0
H1112 H 0.85188 0.79888 0.10865 0.0
C1113 C 0.80845 0.776 0.14652 0.0
C1114 C 0.80323 0.7571 0.13887 0.0
C1115 C 0.81571 0.79576 0.14055 0.0
C1116 C 0.84618 0.81523 0.11182 0.0
H1117 H 0.88824 0.92106 0.12429 0.0
H1118 H 0.86306 0.89009 0.12851 0.0
H1119 H 0.87228 0.83192 0.10124 0.0
H1120 H 0.80094 0.7443 0.1189 0.0
H1121 H 0.81407 0.77889 0.10846 0.0
H1122 H 0.8077 0.84078 0.13153 0.0
C1123 C 0.87034 0.89158 0.11878 0.0
C1124 C 0.85785 0.83421 0.10756 0.0
C1125 C 0.88499 0.90931 0.11638 0.0
C1126 C 0.80478 0.75861 0.12506 0.0
C1127 C 0.8124 0.77834 0.11909 0.0
C1128 C 0.8216 0.83871 0.12478 0.0
C1129 C 0.86599 0.87549 0.10899 0.0
C1130 C 0.85181 0.85565 0.11208 0.0
C1131 C 0.81821 0.79701 0.1268 0.0
C1132 C 0.82834 0.81725 0.12076 0.0
H1133 H 0.89908 0.89686 0.08464 0.0
H1134 H 0.87314 0.86603 0.08877 0.0
H1135 H 0.82764 0.87396 0.12388 0.0
H1136 H 0.80736 0.7754 0.15717 0.0
H1137 H 0.82027 0.80979 0.14676 0.0
C1138 C 0.48382 0.57593 0.39973 0.0
C1139 C 0.49663 0.55932 0.39345 0.0
C1140 C 0.46356 0.58305 0.39434 0.0
C1141 C 0.4162 0.58835 0.3849 0.0
H1142 H 0.41192 0.59764 0.34716 0.0
C1143 C 0.33737 0.62802 0.36275 0.0
C1144 C 0.34089 0.6445 0.35309 0.0
C1145 C 0.35466 0.61354 0.36641 0.0
C1146 C 0.41284 0.59523 0.35773 0.0
H1147 H 0.49788 0.53686 0.37666 0.0
H1148 H 0.46214 0.54903 0.36737 0.0
H1149 H 0.44553 0.5807 0.35642 0.0
H1150 H 0.36502 0.65805 0.33926 0.0
H1151 H 0.39539 0.63342 0.34595 0.0
H1152 H 0.38426 0.60405 0.38638 0.0
C1153 C 0.46803 0.5568 0.37637 0.0
C1154 C 0.43203 0.58522 0.36303 0.0
C1155 C 0.48845 0.54973 0.38174 0.0
C1156 C 0.36175 0.64548 0.34672 0.0
C1157 C 0.37916 0.63123 0.35052 0.0
C1158 C 0.39717 0.59852 0.37963 0.0
C1159 C 0.45539 0.57365 0.38258 0.0
C1160 C 0.43413 0.58208 0.37672 0.0
C1161 C 0.37603 0.61545 0.36067 0.0
C1162 C 0.39535 0.60247 0.36599 0.0
H1163 H 0.48962 0.58381 0.40872 0.0
H1164 H 0.45457 0.59638 0.39928 0.0
H1165 H 0.41701 0.58581 0.39546 0.0
H1166 H 0.32139 0.62665 0.36772 0.0
H1167 H 0.3514 0.60122 0.374 0.0
C1168 C 0.38536 0.09341 0.11808 0.0
C1169 C 0.39411 0.09107 0.10529 0.0
C1170 C 0.37043 0.11066 0.12105 0.0
C1171 C 0.35353 0.16673 0.10932 0.0
H1172 H 0.30894 0.16057 0.13687 0.0
C1173 C 0.30019 0.24146 0.12754 0.0
C1174 C 0.30134 0.2447 0.14126 0.0
C1175 C 0.3077 0.22144 0.12189 0.0
C1176 C 0.32128 0.1625 0.12913 0.0
H1177 H 0.39315 0.10447 0.08542 0.0
H1178 H 0.36661 0.13429 0.09053 0.0
H1179 H 0.32866 0.12748 0.12887 0.0
H1180 H 0.31023 0.22908 0.15984 0.0
H1181 H 0.32296 0.19409 0.15 0.0
H1182 H 0.34617 0.20182 0.10969 0.0
C1183 C 0.37173 0.12308 0.09836 0.0
C1184 C 0.33267 0.14358 0.12458 0.0
C1185 C 0.38685 0.10588 0.0954 0.0
C1186 C 0.30919 0.22714 0.14924 0.0
C1187 C 0.31636 0.20705 0.14361 0.0
C1188 C 0.34194 0.1856 0.11377 0.0
C1189 C 0.36364 0.12595 0.11128 0.0
C1190 C 0.3494 0.14552 0.11487 0.0
C1191 C 0.31612 0.20415 0.12987 0.0
C1192 C 0.32611 0.18376 0.12395 0.0
H1193 H 0.39061 0.08237 0.12596 0.0
H1194 H 0.36492 0.11248 0.13116 0.0
H1195 H 0.36647 0.16899 0.10196 0.0
H1196 H 0.29427 0.25469 0.12112 0.0
H1197 H 0.30723 0.21959 0.11127 0.0
C1198 C 0.52658 0.55945 0.89648 0.0
C1199 C 0.5076 0.55425 0.88889 0.0
C1200 C 0.5463 0.56668 0.89045 0.0
C1201 C 0.56561 0.59712 0.86169 0.0
H1202 H 0.62437 0.57812 0.87342 0.0
C1203 C 0.64604 0.64181 0.84385 0.0
C1204 C 0.66193 0.64636 0.85373 0.0
C1205 C 0.62827 0.62707 0.84626 0.0
C1206 C 0.6081 0.58372 0.87007 0.0
H1207 H 0.49462 0.55201 0.86896 0.0
H1208 H 0.52913 0.56509 0.85841 0.0
H1209 H 0.59118 0.55836 0.8812 0.0
H1210 H 0.67184 0.63842 0.87379 0.0
H1211 H 0.64084 0.61332 0.87805 0.0
H1212 H 0.58232 0.62318 0.85109 0.0
C1213 C 0.52867 0.56341 0.86904 0.0
C1214 C 0.58911 0.57231 0.87449 0.0
C1215 C 0.50899 0.55582 0.87508 0.0
C1216 C 0.65997 0.63533 0.86592 0.0
C1217 C 0.64222 0.62072 0.86834 0.0
C1218 C 0.5846 0.60869 0.85736 0.0
C1219 C 0.54742 0.56917 0.87669 0.0
C1220 C 0.56764 0.57921 0.87058 0.0
C1221 C 0.62596 0.61658 0.85862 0.0
C1222 C 0.60606 0.60249 0.86177 0.0
H1223 H 0.52608 0.55835 0.90714 0.0
H1224 H 0.5604 0.57119 0.89661 0.0
H1225 H 0.54926 0.60294 0.8586 0.0
H1226 H 0.64709 0.64993 0.83432 0.0
H1227 H 0.61623 0.62405 0.83849 0.0
C1228 C 0.19524 0.77905 0.64849 0.0
C1229 C 0.2028 0.76138 0.6405 0.0
C1230 C 0.1877 0.799 0.64285 0.0
C1231 C 0.16042 0.81988 0.61343 0.0
H1232 H 0.17509 0.87827 0.6277 0.0
C1233 C 0.11486 0.89985 0.59562 0.0
C1234 C 0.10863 0.915 0.60558 0.0
C1235 C 0.12984 0.88239 0.59832 0.0
C1236 C 0.17067 0.8621 0.62365 0.0
H1237 H 0.20887 0.75097 0.62033 0.0
H1238 H 0.1952 0.7858 0.61045 0.0
H1239 H 0.19515 0.84527 0.63549 0.0
H1240 H 0.11371 0.92389 0.62612 0.0
H1241 H 0.13912 0.89338 0.63087 0.0
H1242 H 0.13515 0.83638 0.6021 0.0
C1243 C 0.1953 0.78417 0.62108 0.0
C1244 C 0.18227 0.84323 0.62808 0.0
C1245 C 0.20322 0.76432 0.62675 0.0
C1246 C 0.11815 0.91261 0.61818 0.0
C1247 C 0.13294 0.89513 0.62089 0.0
C1248 C 0.1486 0.83872 0.60912 0.0
C1249 C 0.18723 0.8016 0.62908 0.0
C1250 C 0.17695 0.82188 0.62321 0.0
C1251 C 0.13883 0.87962 0.61105 0.0
C1252 C 0.15323 0.86003 0.61439 0.0
H1253 H 0.19476 0.77733 0.65912 0.0
H1254 H 0.18139 0.81207 0.64925 0.0
H1255 H 0.15583 0.80359 0.6096 0.0
H1256 H 0.10793 0.90127 0.58579 0.0
H1257 H 0.13422 0.87096 0.59045 0.0
C1258 C 0.99432 0.44608 0.37875 0.0
C1259 C 0.99775 0.4485 0.39238 0.0
C1260 C 0.97443 0.43669 0.37395 0.0
C1261 C 0.92795 0.40025 0.38536 0.0
H1262 H 0.90037 0.41649 0.3521 0.0
C1263 C 0.84245 0.36564 0.37043 0.0
C1264 C 0.84125 0.35536 0.35797 0.0
C1265 C 0.86076 0.37892 0.37383 0.0
C1266 C 0.90801 0.41176 0.36137 0.0
H1267 H 0.9825 0.44446 0.41162 0.0
H1268 H 0.94759 0.42909 0.40331 0.0
H1269 H 0.93353 0.43683 0.35975 0.0
H1270 H 0.8579 0.35203 0.33906 0.0
H1271 H 0.88994 0.37559 0.34502 0.0
H1272 H 0.9023 0.37548 0.3871 0.0
C1273 C 0.96051 0.4335 0.39628 0.0
C1274 C 0.92702 0.42334 0.36576 0.0
C1275 C 0.98047 0.4425 0.40107 0.0
C1276 C 0.85834 0.35961 0.34875 0.0
C1277 C 0.87663 0.37315 0.35213 0.0
C1278 C 0.90889 0.38894 0.38108 0.0
C1279 C 0.95746 0.42981 0.3827 0.0
C1280 C 0.93717 0.41779 0.37786 0.0
C1281 C 0.87825 0.38246 0.36482 0.0
C1282 C 0.89865 0.39461 0.36908 0.0
H1283 H 0.0074 0.45048 0.37182 0.0
H1284 H 0.97278 0.434 0.36344 0.0
H1285 H 0.93562 0.39497 0.39452 0.0
H1286 H 0.82957 0.36289 0.37777 0.0
H1287 H 0.86144 0.38615 0.38362 0.0
C1288 C 0.30156 0.76377 0.37767 0.0
C1289 C 0.31266 0.75512 0.36654 0.0
C1290 C 0.30988 0.78276 0.38416 0.0
C1291 C 0.36206 0.81257 0.39026 0.0
H1292 H 0.32629 0.86588 0.39593 0.0
C1293 C 0.39959 0.89098 0.41454 0.0
C1294 C 0.39721 0.91039 0.40683 0.0
C1295 C 0.38659 0.87201 0.41194 0.0
C1296 C 0.33639 0.85102 0.39451 0.0
H1297 H 0.3411 0.75974 0.35349 0.0
H1298 H 0.35568 0.79242 0.36492 0.0
H1299 H 0.30884 0.83219 0.38662 0.0
H1300 H 0.37828 0.92559 0.39092 0.0
H1301 H 0.35549 0.89256 0.38648 0.0
H1302 H 0.3897 0.83134 0.39782 0.0
C1303 C 0.34055 0.78459 0.36859 0.0
C1304 C 0.3264 0.83177 0.38926 0.0
C1305 C 0.33208 0.76595 0.362 0.0
C1306 C 0.38062 0.91086 0.39699 0.0
C1307 C 0.36745 0.89199 0.3945 0.0
C1308 C 0.37194 0.83163 0.39568 0.0
C1309 C 0.32966 0.79309 0.37978 0.0
C1310 C 0.33931 0.81258 0.38679 0.0
C1311 C 0.37074 0.87217 0.40169 0.0
C1312 C 0.35935 0.85122 0.39759 0.0
H1313 H 0.28654 0.75583 0.3814 0.0
H1314 H 0.30119 0.78905 0.39277 0.0
H1315 H 0.37233 0.79791 0.38852 0.0
H1316 H 0.41218 0.89006 0.4222 0.0
H1317 H 0.38935 0.85699 0.4177 0.0
C1318 C 0.98861 0.58278 0.11062 0.0
C1319 C 0.99874 0.56315 0.11541 0.0
C1320 C 0.96967 0.59159 0.11676 0.0
C1321 C 0.92127 0.5783 0.13696 0.0
H1322 H 0.92214 0.64183 0.14492 0.0
C1323 C 0.84236 0.63278 0.14493 0.0
C1324 C 0.84312 0.64959 0.15463 0.0
C1325 C 0.86119 0.61964 0.14229 0.0
C1326 C 0.92171 0.62402 0.14293 0.0
H1327 H 0.99643 0.53701 0.1302 0.0
H1328 H 0.96281 0.55231 0.14079 0.0
H1329 H 0.95546 0.62397 0.13583 0.0
H1330 H 0.86397 0.66503 0.1696 0.0
H1331 H 0.89695 0.64223 0.16485 0.0
H1332 H 0.8872 0.57858 0.14368 0.0
C1333 C 0.96982 0.56087 0.13233 0.0
C1334 C 0.94071 0.61386 0.13762 0.0
C1335 C 0.98904 0.55217 0.12628 0.0
C1336 C 0.86283 0.65227 0.16204 0.0
C1337 C 0.88174 0.63929 0.15929 0.0
C1338 C 0.9021 0.58857 0.14212 0.0
C1339 C 0.96021 0.58088 0.12774 0.0
C1340 C 0.94058 0.59099 0.13439 0.0
C1341 C 0.88126 0.62318 0.14919 0.0
C1342 C 0.90206 0.6116 0.14501 0.0
H1343 H 0.99559 0.59169 0.10228 0.0
H1344 H 0.96241 0.60687 0.11291 0.0
H1345 H 0.92074 0.56065 0.13453 0.0
H1346 H 0.82741 0.63019 0.13908 0.0
H1347 H 0.86036 0.60747 0.13439 0.0
C1348 C 0.20316 0.23951 0.87747 0.0
C1349 C 0.19444 0.24761 0.8655 0.0
C1350 C 0.19569 0.21913 0.88271 0.0
C1351 C 0.16532 0.16707 0.8734 0.0
H1352 H 0.15293 0.1627 0.91083 0.0
C1353 C 0.12656 0.08709 0.89457 0.0
C1354 C 0.10914 0.08998 0.90371 0.0
C1355 C 0.14061 0.10493 0.89128 0.0
C1356 C 0.15621 0.16365 0.90035 0.0
H1357 H 0.17108 0.24049 0.84965 0.0
H1358 H 0.15788 0.20547 0.85883 0.0
H1359 H 0.17006 0.19662 0.90202 0.0
H1360 H 0.09344 0.11359 0.91704 0.0
H1361 H 0.11742 0.14495 0.911 0.0
H1362 H 0.15042 0.13481 0.87152 0.0
C1363 C 0.1708 0.21452 0.86409 0.0
C1364 C 0.16632 0.18301 0.89531 0.0
C1365 C 0.1783 0.23476 0.85885 0.0
C1366 C 0.10675 0.11082 0.90998 0.0
C1367 C 0.12061 0.12879 0.90654 0.0
C1368 C 0.15509 0.14786 0.87839 0.0
C1369 C 0.17933 0.20643 0.8761 0.0
C1370 C 0.17061 0.18512 0.88173 0.0
C1371 C 0.13736 0.12623 0.89689 0.0
C1372 C 0.1501 0.14598 0.89191 0.0
H1373 H 0.21564 0.24898 0.88285 0.0
H1374 H 0.20278 0.21329 0.89191 0.0
H1375 H 0.16873 0.16792 0.86293 0.0
H1376 H 0.12903 0.07114 0.8897 0.0
H1377 H 0.1537 0.10211 0.88409 0.0
C1378 C 0.52622 0.44084 0.60693 0.0
C1379 C 0.5088 0.44693 0.6155 0.0
C1380 C 0.54619 0.4321 0.61187 0.0
C1381 C 0.57938 0.42284 0.64262 0.0
H1382 H 0.6046 0.37462 0.62177 0.0
C1383 C 0.64803 0.35978 0.66048 0.0
C1384 C 0.66525 0.35531 0.65138 0.0
C1385 C 0.62976 0.3732 0.65689 0.0
C1386 C 0.59787 0.38819 0.62765 0.0
H1387 H 0.49891 0.44936 0.63601 0.0
H1388 H 0.53355 0.43334 0.64466 0.0
H1389 H 0.57129 0.39379 0.61404 0.0
H1390 H 0.67718 0.36234 0.63157 0.0
H1391 H 0.64536 0.38541 0.62537 0.0
H1392 H 0.60587 0.41642 0.65646 0.0
C1393 C 0.532 0.43576 0.63412 0.0
C1394 C 0.57882 0.39931 0.62319 0.0
C1395 C 0.5121 0.44489 0.62917 0.0
C1396 C 0.6642 0.36527 0.63882 0.0
C1397 C 0.64592 0.37844 0.63523 0.0
C1398 C 0.59839 0.41145 0.64718 0.0
C1399 C 0.54911 0.42877 0.6255 0.0
C1400 C 0.56941 0.41697 0.63051 0.0
C1401 C 0.6283 0.38218 0.64412 0.0
C1402 C 0.60793 0.39417 0.63965 0.0
H1403 H 0.52429 0.44251 0.59636 0.0
H1404 H 0.55921 0.4276 0.60493 0.0
H1405 H 0.57273 0.43644 0.64849 0.0
H1406 H 0.64834 0.35244 0.67024 0.0
H1407 H 0.61636 0.37579 0.66392 0.0
C1408 C 0.29666 0.27922 0.21371 0.0
C1409 C 0.28124 0.28794 0.20458 0.0
C1410 C 0.2895 0.27136 0.22599 0.0
C1411 C 0.24249 0.27341 0.24976 0.0
H1412 H 0.26835 0.21796 0.26257 0.0
C1413 C 0.2069 0.22768 0.29522 0.0
C1414 C 0.2223 0.21892 0.30435 0.0
C1415 C 0.21408 0.23559 0.28296 0.0
C1416 C 0.26113 0.23358 0.25922 0.0
H1417 H 0.24623 0.29573 0.20135 0.0
H1418 H 0.23369 0.2819 0.22279 0.0
H1419 H 0.28083 0.23349 0.24159 0.0
H1420 H 0.2573 0.21114 0.30761 0.0
H1421 H 0.26989 0.22506 0.2862 0.0
H1422 H 0.22279 0.2735 0.26739 0.0
C1423 C 0.25138 0.2813 0.22048 0.0
C1424 C 0.26829 0.24252 0.24718 0.0
C1425 C 0.25855 0.28918 0.20817 0.0
C1426 C 0.245 0.21772 0.30079 0.0
C1427 C 0.2522 0.22565 0.28849 0.0
C1428 C 0.23533 0.26448 0.2618 0.0
C1429 C 0.26674 0.272 0.22947 0.0
C1430 C 0.25908 0.26256 0.2423 0.0
C1431 C 0.23685 0.23497 0.2795 0.0
C1432 C 0.24453 0.24443 0.26668 0.0
H1433 H 0.31428 0.2781 0.21131 0.0
H1434 H 0.30186 0.26472 0.23275 0.0
H1435 H 0.23526 0.28903 0.24641 0.0
H1436 H 0.18927 0.22878 0.29761 0.0
H1437 H 0.20174 0.24226 0.2762 0.0
C1438 C 0.03925 0.99616 0.55023 0.0
C1439 C 0.03951 0.97326 0.55339 0.0
C1440 C 0.03084 0.00346 0.53807 0.0
C1441 C 0.01635 0.98388 0.50434 0.0
H1442 H 0.97762 0.03594 0.50409 0.0
C1443 C 0.96556 0.0092 0.45809 0.0
C1444 C 0.96534 0.0321 0.45492 0.0
C1445 C 0.974 1.00191 0.47025 0.0
C1446 C 0.98856 0.02149 0.50396 0.0
H1447 H 0.03164 0.94003 0.5461 0.0
H1448 H 0.01696 0.95271 0.52502 0.0
H1449 H 0.99481 0.02386 0.5247 0.0
H1450 H 0.9733 0.06533 0.46219 0.0
H1451 H 0.98802 0.05265 0.48325 0.0
H1452 H 0.01009 0.98151 0.4836 0.0
C1453 C 0.0234 0.96507 0.53185 0.0
C1454 C 0.99848 0.0146 0.51577 0.0
C1455 C 0.03175 0.9578 0.54399 0.0
C1456 C 0.97317 0.04756 0.4643 0.0
C1457 C 0.98154 0.04029 0.47644 0.0
C1458 C 0.00642 0.99077 0.49252 0.0
C1459 C 0.02257 0.988 0.52879 0.0
C1460 C 0.0125 0.9957 0.51612 0.0
C1461 C 0.98233 0.01736 0.47951 0.0
C1462 C 0.9924 0.00967 0.49217 0.0
H1463 H 0.0451 0.00851 0.55725 0.0
H1464 H 0.03075 0.02123 0.53596 0.0
H1465 H 0.02729 0.96943 0.5042 0.0
H1466 H 0.95965 0.99686 0.45109 0.0
H1467 H 0.97407 0.98414 0.47237 0.0
C1468 C 0.24724 0.71829 0.70718 0.0
C1469 C 0.2244 0.71863 0.70386 0.0
C1470 C 0.25449 0.7263 0.71944 0.0
C1471 C 0.23671 0.76385 0.74661 0.0
H1472 H 0.28493 0.73525 0.76582 0.0
C1473 C 0.26158 0.78932 0.79987 0.0
C1474 C 0.28454 0.78974 0.80287 0.0
C1475 C 0.2541 0.78097 0.78773 0.0
C1476 C 0.27159 0.74359 0.76051 0.0
H1477 H 0.19121 0.72695 0.71102 0.0
H1478 H 0.20377 0.74048 0.7324 0.0
H1479 H 0.27221 0.71926 0.74501 0.0
H1480 H 0.31768 0.78224 0.79531 0.0
H1481 H 0.30469 0.76797 0.77418 0.0
H1482 H 0.23607 0.78816 0.76214 0.0
C1483 C 0.21617 0.7345 0.72546 0.0
C1484 C 0.2643 0.73441 0.74857 0.0
C1485 C 0.20894 0.72655 0.71322 0.0
C1486 C 0.29986 0.7821 0.79335 0.0
C1487 C 0.2924 0.77373 0.78126 0.0
C1488 C 0.24397 0.77301 0.75856 0.0
C1489 C 0.23906 0.7348 0.72867 0.0
C1490 C 0.24677 0.74442 0.74145 0.0
C1491 C 0.26943 0.77281 0.77835 0.0
C1492 C 0.26154 0.76303 0.76565 0.0
H1493 H 0.25959 0.71239 0.70017 0.0
H1494 H 0.27226 0.72645 0.72152 0.0
H1495 H 0.22342 0.77226 0.74129 0.0
H1496 H 0.24933 0.795 0.807 0.0
H1497 H 0.23627 0.78036 0.78585 0.0
C1498 C 0.46832 0.01196 0.05112 0.0
C1499 C 0.46747 0.03498 0.05395 0.0
C1500 C 0.47709 0.00437 0.03912 0.0
C1501 C 0.51473 0.02192 0.01201 0.0
H1502 H 0.48712 0.97296 0.99295 0.0
C1503 C 0.54062 0.99723 0.95881 0.0
C1504 C 0.54062 0.97435 0.9556 0.0
C1505 C 0.53259 0.0045 0.97107 0.0
C1506 C 0.49523 0.98646 0.99823 0.0
H1507 H 0.47469 0.06808 0.04623 0.0
H1508 H 0.48969 0.05488 0.02532 0.0
H1509 H 0.47073 0.9857 0.01364 0.0
H1510 H 0.53298 0.9411 0.96295 0.0
H1511 H 0.5194 0.95371 0.98431 0.0
H1512 H 0.53924 0.02269 0.9966 0.0
C1513 C 0.48393 0.04265 0.03244 0.0
C1514 C 0.4858 0.99378 0.01009 0.0
C1515 C 0.47515 0.05022 0.04441 0.0
C1516 C 0.5331 0.95887 0.96506 0.0
C1517 C 0.52513 0.96612 0.97729 0.0
C1518 C 0.52419 0.01458 1.00015 0.0
C1519 C 0.48525 0.01963 0.02969 0.0
C1520 C 0.49539 0.01165 0.01712 0.0
C1521 C 0.5244 0.98905 0.98038 0.0
C1522 C 0.51455 0.99676 0.9931 0.0
H1523 H 0.46261 0.99977 0.05828 0.0
H1524 H 0.47801 0.98651 0.03736 0.0
H1525 H 0.52278 0.03549 0.01727 0.0
H1526 H 0.54621 0.00959 0.95173 0.0
H1527 H 0.53212 0.0223 0.97307 0.0
C1528 C 0.30093 0.72714 0.29333 0.0
C1529 C 0.28548 0.71893 0.30261 0.0
C1530 C 0.29367 0.7359 0.2813 0.0
C1531 C 0.24405 0.76069 0.26522 0.0
H1532 H 0.27728 0.74936 0.23306 0.0
C1533 C 0.21072 0.78466 0.21361 0.0
C1534 C 0.22606 0.79248 0.20415 0.0
C1535 C 0.21812 0.77682 0.22584 0.0
C1536 C 0.26798 0.75296 0.24198 0.0
H1537 H 0.25024 0.7131 0.30637 0.0
H1538 H 0.23754 0.72817 0.28525 0.0
H1539 H 0.28951 0.73232 0.25367 0.0
H1540 H 0.26118 0.7988 0.2003 0.0
H1541 H 0.27411 0.78529 0.22174 0.0
H1542 H 0.22247 0.78128 0.2535 0.0
C1543 C 0.25529 0.72811 0.28739 0.0
C1544 C 0.27496 0.74313 0.2538 0.0
C1545 C 0.26258 0.7193 0.29945 0.0
C1546 C 0.24893 0.79288 0.20736 0.0
C1547 C 0.25635 0.78496 0.2196 0.0
C1548 C 0.23706 0.77052 0.25339 0.0
C1549 C 0.27075 0.73669 0.27821 0.0
C1550 C 0.26307 0.74685 0.26557 0.0
C1551 C 0.24105 0.77654 0.22892 0.0
C1552 C 0.24892 0.76675 0.24161 0.0
H1553 H 0.3187 0.72719 0.29545 0.0
H1554 H 0.30603 0.74259 0.27455 0.0
H1555 H 0.23472 0.76425 0.27413 0.0
H1556 H 0.19297 0.78408 0.21147 0.0
H1557 H 0.20588 0.77026 0.2327 0.0
C1558 C 0.46616 0.9959 0.45919 0.0
C1559 C 0.46679 0.97305 0.45594 0.0
C1560 C 0.47458 0.0034 0.47131 0.0
C1561 C 0.51353 0.98645 0.49799 0.0
H1562 H 0.48462 0.03401 0.51761 0.0
C1563 C 0.53979 0.01125 0.55111 0.0
C1564 C 0.53987 0.03419 0.55419 0.0
C1565 C 0.53136 0.00377 0.53899 0.0
C1566 C 0.49304 0.02087 0.51218 0.0
H1567 H 0.47605 0.94007 0.46305 0.0
H1568 H 0.49027 0.95305 0.48418 0.0
H1569 H 0.46821 0.02109 0.49695 0.0
H1570 H 0.53171 0.06729 0.54679 0.0
H1571 H 0.51728 0.05427 0.5257 0.0
H1572 H 0.53831 0.98618 0.51325 0.0
C1573 C 0.48377 0.96528 0.47729 0.0
C1574 C 0.48362 0.01347 0.50033 0.0
C1575 C 0.47542 0.95782 0.4652 0.0
C1576 C 0.53183 0.04949 0.54477 0.0
C1577 C 0.52338 0.04202 0.5327 0.0
C1578 C 0.52292 0.99382 0.50985 0.0
C1579 C 0.48377 0.9882 0.48044 0.0
C1580 C 0.49373 0.99615 0.49308 0.0
C1581 C 0.52277 0.01906 0.52972 0.0
C1582 C 0.51281 0.01114 0.51709 0.0
H1583 H 0.4597 0.00808 0.45226 0.0
H1584 H 0.47447 0.02119 0.47336 0.0
H1585 H 0.52201 0.97335 0.49255 0.0
H1586 H 0.54579 0.99903 0.55815 0.0
H1587 H 0.53099 0.98595 0.53705 0.0
C1588 C 0.24404 0.29023 0.80089 0.0
C1589 C 0.22109 0.29052 0.80393 0.0
C1590 C 0.25152 0.28171 0.78879 0.0
C1591 C 0.23415 0.24348 0.76198 0.0
H1592 H 0.28211 0.27181 0.74241 0.0
C1593 C 0.25869 0.2165 0.70896 0.0
C1594 C 0.28153 0.21685 0.70566 0.0
C1595 C 0.25137 0.2249 0.72112 0.0
C1596 C 0.26889 0.2635 0.74783 0.0
H1597 H 0.18796 0.28267 0.79646 0.0
H1598 H 0.20096 0.2681 0.7754 0.0
H1599 H 0.2694 0.28831 0.76308 0.0
H1600 H 0.31466 0.22561 0.71275 0.0
H1601 H 0.30197 0.23983 0.73394 0.0
H1602 H 0.23366 0.21864 0.74676 0.0
C1603 C 0.21323 0.27409 0.78243 0.0
C1604 C 0.26159 0.273 0.75968 0.0
C1605 C 0.20577 0.28263 0.79448 0.0
C1606 C 0.29692 0.22519 0.71493 0.0
C1607 C 0.28962 0.23353 0.72706 0.0
C1608 C 0.24148 0.23395 0.75014 0.0
C1609 C 0.23621 0.27324 0.77949 0.0
C1610 C 0.24409 0.26314 0.76689 0.0
C1611 C 0.26673 0.23382 0.73025 0.0
C1612 C 0.25894 0.24384 0.74291 0.0
H1613 H 0.25628 0.2961 0.80796 0.0
H1614 H 0.26934 0.28116 0.78689 0.0
H1615 H 0.22088 0.23522 0.76739 0.0
H1616 H 0.2464 0.21028 0.70202 0.0
H1617 H 0.23359 0.22502 0.72319 0.0
C1618 C 0.03966 0.00832 0.95799 0.0
C1619 C 0.03918 0.03113 0.9546 0.0
C1620 C 0.03118 1.00106 0.97014 0.0
C1621 C 0.99208 0.01845 0.99659 0.0
H1622 H 0.02083 0.97125 0.01658 0.0
C1623 C 0.96489 0.99406 0.04964 0.0
C1624 C 0.96515 0.97118 0.05287 0.0
C1625 C 0.97341 1.00146 0.03753 0.0
C1626 C 0.01244 0.98428 0.01104 0.0
H1627 H 0.03008 0.06427 0.96154 0.0
H1628 H 0.01569 0.05168 0.98271 0.0
H1629 H 0.03749 0.98391 0.99594 0.0
H1630 H 0.9739 0.93808 0.04571 0.0
H1631 H 0.98841 0.95094 0.02462 0.0
H1632 H 0.96704 0.01883 0.0117 0.0
C1633 C 0.02218 0.03932 0.9759 0.0
C1634 C 0.02201 0.99154 0.9992 0.0
C1635 C 0.03062 0.04656 0.96378 0.0
C1636 C 0.97353 0.95584 0.04358 0.0
C1637 C 0.98203 0.96323 0.03151 0.0
C1638 C 0.98251 0.0112 0.00843 0.0
C1639 C 0.02204 0.01645 0.97917 0.0
C1640 C 0.01196 0.00873 0.99182 0.0
C1641 C 0.9824 0.98615 0.0284 0.0
C1642 C 0.99255 0.99399 0.0158 0.0
H1643 H 0.04606 0.996 0.95112 0.0
H1644 H 0.03119 0.9833 0.97228 0.0
H1645 H 0.98366 0.03146 0.99105 0.0
H1646 H 0.95863 0.00631 0.0566 0.0
H1647 H 0.97356 0.01926 0.03549 0.0
C1648 C 0.79698 0.77831 0.71271 0.0
C1649 C 0.78153 0.7868 0.70352 0.0
C1650 C 0.78982 0.77029 0.72495 0.0
C1651 C 0.74235 0.77134 0.74847 0.0
H1652 H 0.76914 0.71642 0.76141 0.0
C1653 C 0.7064 0.7243 0.79332 0.0
C1654 C 0.72167 0.71587 0.80264 0.0
C1655 C 0.71383 0.73252 0.78119 0.0
C1656 C 0.76166 0.73189 0.75802 0.0
H1657 H 0.74643 0.79396 0.70014 0.0
H1658 H 0.73387 0.77981 0.7215 0.0
H1659 H 0.78176 0.73232 0.74055 0.0
H1660 H 0.75673 0.70903 0.80635 0.0
H1661 H 0.76976 0.72348 0.78514 0.0
H1662 H 0.7222 0.77087 0.76591 0.0
C1663 C 0.75159 0.77955 0.71927 0.0
C1664 C 0.7689 0.74104 0.74605 0.0
C1665 C 0.75878 0.78761 0.70701 0.0
C1666 C 0.74453 0.71533 0.79938 0.0
C1667 C 0.75198 0.72357 0.78721 0.0
C1668 C 0.73509 0.76218 0.76042 0.0
C1669 C 0.76701 0.7705 0.72833 0.0
C1670 C 0.75934 0.76088 0.74112 0.0
C1671 C 0.73673 0.73255 0.77804 0.0
C1672 C 0.74462 0.74231 0.76534 0.0
H1673 H 0.81466 0.77753 0.71038 0.0
H1674 H 0.80221 0.76385 0.73176 0.0
H1675 H 0.73485 0.7868 0.74507 0.0
H1676 H 0.68865 0.72489 0.79547 0.0
H1677 H 0.70158 0.73891 0.77428 0.0
C1678 C 0.74624 0.21825 0.20887 0.0
C1679 C 0.7237 0.22039 0.20511 0.0
C1680 C 0.75352 0.22618 0.22114 0.0
C1681 C 0.73313 0.24292 0.25427 0.0
H1682 H 0.78884 0.27606 0.25595 0.0
C1683 C 0.76013 0.29053 0.30133 0.0
C1684 C 0.78273 0.28863 0.30501 0.0
C1685 C 0.7529 0.28289 0.28898 0.0
C1686 C 0.77335 0.26666 0.25569 0.0
H1687 H 0.69105 0.23214 0.21144 0.0
H1688 H 0.70371 0.24594 0.23273 0.0
H1689 H 0.77657 0.26022 0.23501 0.0
H1690 H 0.81552 0.27762 0.29848 0.0
H1691 H 0.80292 0.26421 0.2771 0.0
H1692 H 0.72992 0.24929 0.27495 0.0
C1693 C 0.71577 0.23801 0.22627 0.0
C1694 C 0.76634 0.25753 0.24368 0.0
C1695 C 0.70853 0.23017 0.21401 0.0
C1696 C 0.79799 0.27941 0.29596 0.0
C1697 C 0.79078 0.2718 0.28364 0.0
C1698 C 0.74015 0.25202 0.26629 0.0
C1699 C 0.73839 0.23631 0.22995 0.0
C1700 C 0.74613 0.24555 0.24281 0.0
C1701 C 0.76811 0.2732 0.28004 0.0
C1702 C 0.76035 0.26401 0.26716 0.0
H1703 H 0.75835 0.21079 0.20224 0.0
H1704 H 0.771 0.22435 0.22374 0.0
H1705 H 0.71763 0.23354 0.254 0.0
H1706 H 0.74795 0.29757 0.30806 0.0
H1707 H 0.73537 0.28453 0.28646 0.0
C1708 C 0.76016 0.21531 0.80016 0.0
C1709 C 0.78301 0.21574 0.80344 0.0
C1710 C 0.75279 0.22363 0.78799 0.0
C1711 C 0.76995 0.26246 0.76139 0.0
H1712 H 0.72297 0.23328 0.74142 0.0
C1713 C 0.74614 0.28892 0.70817 0.0
C1714 C 0.72337 0.28831 0.70473 0.0
C1715 C 0.75334 0.28065 0.72038 0.0
C1716 C 0.73592 0.24181 0.74695 0.0
H1717 H 0.81611 0.22457 0.79631 0.0
H1718 H 0.80332 0.23874 0.77513 0.0
H1719 H 0.73558 0.21692 0.76216 0.0
H1720 H 0.69021 0.2792 0.71162 0.0
H1721 H 0.70269 0.26516 0.73291 0.0
H1722 H 0.77029 0.28735 0.7462 0.0
C1723 C 0.79102 0.23238 0.78202 0.0
C1724 C 0.74316 0.23239 0.75884 0.0
C1725 C 0.79836 0.22407 0.79415 0.0
C1726 C 0.7079 0.27984 0.71392 0.0
C1727 C 0.71508 0.2716 0.7261 0.0
C1728 C 0.7627 0.27188 0.74951 0.0
C1729 C 0.76812 0.23259 0.77886 0.0
C1730 C 0.7603 0.24257 0.7662 0.0
C1731 C 0.73792 0.27158 0.72942 0.0
C1732 C 0.74559 0.26168 0.74213 0.0
H1733 H 0.7479 0.20908 0.80711 0.0
H1734 H 0.73502 0.22367 0.78591 0.0
H1735 H 0.78292 0.27097 0.76691 0.0
H1736 H 0.7585 0.29525 0.7013 0.0
H1737 H 0.77108 0.28074 0.72257 0.0
C1738 C 0.70598 0.78004 0.29406 0.0
C1739 C 0.72117 0.78919 0.30318 0.0
C1740 C 0.71333 0.77226 0.28181 0.0
C1741 C 0.76405 0.75176 0.26486 0.0
H1742 H 0.72831 0.76002 0.23332 0.0
C1743 C 0.79635 0.72899 0.21287 0.0
C1744 C 0.78122 0.71934 0.2039 0.0
C1745 C 0.78899 0.73699 0.22506 0.0
C1746 C 0.73835 0.75731 0.24206 0.0
H1747 H 0.75598 0.79785 0.30641 0.0
H1748 H 0.76881 0.78451 0.28491 0.0
H1749 H 0.71584 0.77625 0.25412 0.0
H1750 H 0.74651 0.71013 0.20084 0.0
H1751 H 0.73365 0.72397 0.22223 0.0
H1752 H 0.78657 0.73286 0.2528 0.0
C1753 C 0.75122 0.78306 0.28734 0.0
C1754 C 0.73123 0.76667 0.25399 0.0
C1755 C 0.74384 0.79088 0.29962 0.0
C1756 C 0.75859 0.71748 0.20752 0.0
C1757 C 0.7512 0.72557 0.21974 0.0
C1758 C 0.77118 0.74243 0.25293 0.0
C1759 C 0.73608 0.77342 0.27834 0.0
C1760 C 0.74397 0.764 0.26555 0.0
C1761 C 0.76629 0.7356 0.22861 0.0
C1762 C 0.75842 0.74508 0.24138 0.0
H1763 H 0.6884 0.77842 0.29648 0.0
H1764 H 0.70124 0.76472 0.27521 0.0
H1765 H 0.77408 0.74902 0.27361 0.0
H1766 H 0.81389 0.73074 0.21039 0.0
H1767 H 0.80103 0.74483 0.23157 0.0
C1768 C 0.54125 0.49373 0.04978 0.0
C1769 C 0.54015 0.47091 0.0531 0.0
C1770 C 0.53324 0.50128 0.03757 0.0
C1771 C 0.49418 0.48524 0.01088 0.0
H1772 H 0.52547 0.53063 0.99075 0.0
C1773 C 0.46863 0.50941 0.95758 0.0
C1774 C 0.47022 0.53209 0.95403 0.0
C1775 C 0.47678 0.50199 0.96978 0.0
C1776 C 0.51635 0.51814 0.99632 0.0
H1777 H 0.53035 0.43806 0.04602 0.0
H1778 H 0.51666 0.45115 0.02479 0.0
H1779 H 0.54104 0.51777 0.01164 0.0
H1780 H 0.48101 0.56488 0.96069 0.0
H1781 H 0.49478 0.55206 0.98196 0.0
H1782 H 0.46945 0.48565 0.99561 0.0
C1783 C 0.52335 0.4633 0.03167 0.0
C1784 C 0.52532 0.51075 0.0083 0.0
C1785 C 0.53138 0.45577 0.04382 0.0
C1786 C 0.47963 0.54726 0.96307 0.0
C1787 C 0.4877 0.53987 0.97525 0.0
C1788 C 0.48519 0.49266 0.99892 0.0
C1789 C 0.5239 0.48617 0.02845 0.0
C1790 C 0.51437 0.49418 0.01572 0.0
C1791 C 0.48665 0.51711 0.9787 0.0
C1792 C 0.49616 0.5092 0.99147 0.0
H1793 H 0.54784 0.50584 0.05671 0.0
H1794 H 0.53378 0.51903 0.03544 0.0
H1795 H 0.4851 0.47272 0.01645 0.0
H1796 H 0.46157 0.49728 0.95082 0.0
H1797 H 0.47586 0.48431 0.97206 0.0
C1798 C 0.03282 0.45924 0.46408 0.0
C1799 C 0.04061 0.47476 0.45472 0.0
C1800 C 0.02447 0.46643 0.47624 0.0
C1801 C 0.99956 0.51583 0.49243 0.0
H1802 H 0.01121 0.48256 0.52453 0.0
C1803 C 0.97423 0.54847 0.54397 0.0
C1804 C 0.96646 0.53296 0.55334 0.0
C1805 C 0.98259 0.54128 0.53182 0.0
C1806 C 0.00753 0.49187 0.51563 0.0
H1807 H 0.04625 0.51003 0.45096 0.0
H1808 H 0.03187 0.52261 0.47228 0.0
H1809 H 0.0284 0.47062 0.5039 0.0
H1810 H 0.96086 0.49768 0.55712 0.0
H1811 H 0.97525 0.4851 0.5358 0.0
H1812 H 0.97868 0.53709 0.50416 0.0
C1813 C 0.03196 0.50485 0.47012 0.0
C1814 C 0.01746 0.48506 0.5038 0.0
C1815 C 0.04037 0.49764 0.45794 0.0
C1816 C 0.96673 0.51007 0.55013 0.0
C1817 C 0.97515 0.50285 0.53795 0.0
C1818 C 0.98963 0.52264 0.50427 0.0
C1819 C 0.02366 0.48934 0.47936 0.0
C1820 C 0.01359 0.49695 0.49204 0.0
C1821 C 0.98343 0.51837 0.52871 0.0
C1822 C 0.9935 0.51076 0.51602 0.0
H1823 H 0.0327 0.44148 0.46193 0.0
H1824 H 0.01801 0.45402 0.48303 0.0
H1825 H 0.99588 0.52515 0.48353 0.0
H1826 H 0.97433 0.56623 0.54611 0.0
H1827 H 0.98904 0.55369 0.52502 0.0
C1828 C 0.03195 0.55021 0.04374 0.0
C1829 C 0.0396 0.5349 0.05325 0.0
C1830 C 0.02343 0.54274 0.03168 0.0
C1831 C 0.99833 0.49292 0.01589 0.0
H1832 H 0.01009 0.52553 0.98357 0.0
C1833 C 0.97401 0.45917 0.96439 0.0
C1834 C 0.96606 0.47449 0.95496 0.0
C1835 C 0.98209 0.4666 0.97656 0.0
C1836 C 0.00639 0.5164 0.99253 0.0
H1837 H 0.04478 0.49969 0.05741 0.0
H1838 H 0.03019 0.48661 0.03625 0.0
H1839 H 0.02716 0.53794 0.00413 0.0
H1840 H 0.95983 0.50963 0.95109 0.0
H1841 H 0.97381 0.52262 0.97241 0.0
H1842 H 0.97764 0.47131 0.00426 0.0
C1843 C 0.03046 0.50443 0.03822 0.0
C1844 C 0.01623 0.52349 0.00433 0.0
C1845 C 0.039 0.51192 0.0503 0.0
C1846 C 0.96584 0.49739 0.95813 0.0
C1847 C 0.97402 0.50485 0.9703 0.0
C1848 C 0.98852 0.4858 1.00408 0.0
C1849 C 0.02235 0.51974 0.02881 0.0
C1850 C 0.01231 0.51186 0.01617 0.0
C1851 C 0.98251 0.48955 0.97961 0.0
C1852 C 0.99243 0.49746 0.99225 0.0
H1853 H 0.03208 0.56804 0.04569 0.0
H1854 H 0.0171 0.55501 0.02477 0.0
H1855 H 0.99461 0.48378 0.02485 0.0
H1856 H 0.97446 0.44141 0.96228 0.0
H1857 H 0.98869 0.45437 0.98342 0.0
C1858 C 0.53155 0.54891 0.46472 0.0
C1859 C 0.53928 0.53365 0.4552 0.0
C1860 C 0.52298 0.54137 0.47674 0.0
C1861 C 0.52134 0.49255 0.4992 0.0
H1862 H 0.46755 0.52113 0.51245 0.0
C1863 C 0.47305 0.45694 0.54368 0.0
C1864 C 0.46528 0.47225 0.55317 0.0
C1865 C 0.48138 0.4644 0.53158 0.0
C1866 C 0.4827 0.51312 0.50897 0.0
H1867 H 0.54455 0.49846 0.451 0.0
H1868 H 0.52951 0.48525 0.47201 0.0
H1869 H 0.48424 0.53408 0.49188 0.0
H1870 H 0.45966 0.50744 0.55721 0.0
H1871 H 0.47434 0.52051 0.53608 0.0
H1872 H 0.51983 0.47161 0.51629 0.0
C1873 C 0.53022 0.5031 0.4702 0.0
C1874 C 0.49229 0.52055 0.49717 0.0
C1875 C 0.5388 0.51066 0.45813 0.0
C1876 C 0.46543 0.4952 0.5501 0.0
C1877 C 0.47381 0.50268 0.53797 0.0
C1878 C 0.51175 0.48512 0.511 0.0
C1879 C 0.52191 0.51836 0.47957 0.0
C1880 C 0.51175 0.51038 0.49214 0.0
C1881 C 0.48221 0.48738 0.52864 0.0
C1882 C 0.4923 0.49529 0.51604 0.0
H1883 H 0.53175 0.56675 0.46281 0.0
H1884 H 0.51713 0.55361 0.48383 0.0
H1885 H 0.53649 0.48454 0.49571 0.0
H1886 H 0.47308 0.43913 0.54568 0.0
H1887 H 0.48728 0.45212 0.52454 0.0
C1888 C 0.28641 0.15884 0.38232 0.0
C1889 C 0.27935 0.16224 0.36926 0.0
C1890 C 0.30433 0.1446 0.38513 0.0
C1891 C 0.35208 0.11362 0.37003 0.0
H1892 H 0.34373 0.07446 0.40013 0.0
C1893 C 0.40197 0.03169 0.37789 0.0
C1894 C 0.40831 0.02591 0.39081 0.0
C1895 C 0.38862 0.05049 0.37554 0.0
C1896 C 0.34652 0.08549 0.39181 0.0
H1897 H 0.28608 0.15391 0.34885 0.0
H1898 H 0.3171 0.12864 0.35374 0.0
H1899 H 0.31608 0.1032 0.39539 0.0
H1900 H 0.40619 0.0358 0.41133 0.0
H1901 H 0.38284 0.06867 0.40721 0.0
H1902 H 0.38228 0.0953 0.36628 0.0
C1903 C 0.30902 0.13726 0.36183 0.0
C1904 C 0.33065 0.10203 0.38909 0.0
C1905 C 0.29116 0.1517 0.35901 0.0
C1906 C 0.40158 0.03977 0.40128 0.0
C1907 C 0.38809 0.05852 0.39892 0.0
C1908 C 0.36792 0.09696 0.37272 0.0
C1909 C 0.31555 0.13318 0.37496 0.0
C1910 C 0.33312 0.11626 0.37812 0.0
C1911 C 0.38118 0.0639 0.38604 0.0
C1912 C 0.36524 0.0826 0.3836 0.0
H1913 H 0.27781 0.16687 0.39045 0.0
H1914 H 0.30919 0.14231 0.39533 0.0
H1915 H 0.35472 0.12446 0.36161 0.0
H1916 H 0.40688 0.02139 0.36959 0.0
H1917 H 0.38345 0.05402 0.36552 0.0
C1918 C 0.09561 0.03538 0.63267 0.0
C1919 C 0.09228 0.02862 0.61954 0.0
C1920 C 0.10916 0.05378 0.63561 0.0
C1921 C 0.13806 0.10317 0.62088 0.0
H1922 H 0.17833 0.09508 0.65048 0.0
C1923 C 0.21895 0.15483 0.62829 0.0
C1924 C 0.22521 0.16076 0.64119 0.0
C1925 C 0.20028 0.14126 0.62604 0.0
C1926 C 0.16697 0.09781 0.64232 0.0
H1927 H 0.09998 0.03637 0.59917 0.0
H1928 H 0.12404 0.06823 0.60429 0.0
H1929 H 0.15032 0.06671 0.64572 0.0
H1930 H 0.21623 0.15777 0.66182 0.0
H1931 H 0.18356 0.13404 0.65789 0.0
H1932 H 0.15533 0.13404 0.61729 0.0
C1933 C 0.11589 0.05954 0.61233 0.0
C1934 C 0.15084 0.08152 0.63957 0.0
C1935 C 0.10215 0.0412 0.60938 0.0
C1936 C 0.21189 0.15347 0.65177 0.0
C1937 C 0.19326 0.13976 0.64952 0.0
C1938 C 0.1543 0.11944 0.62359 0.0
C1939 C 0.11994 0.06579 0.62551 0.0
C1940 C 0.13627 0.08387 0.62876 0.0
C1941 C 0.18746 0.13319 0.63664 0.0
C1942 C 0.16907 0.11685 0.63428 0.0
H1943 H 0.08809 0.02618 0.64074 0.0
H1944 H 0.11145 0.05838 0.64585 0.0
H1945 H 0.12692 0.10573 0.61259 0.0
H1946 H 0.22883 0.16017 0.6199 0.0
H1947 H 0.19643 0.13636 0.61601 0.0
C1948 C 0.21366 0.85067 0.85435 0.0
C1949 C 0.22568 0.84174 0.86503 0.0
C1950 C 0.19517 0.86461 0.85653 0.0
C1951 C 0.15434 0.88326 0.88195 0.0
H1952 H 0.15413 0.93841 0.86182 0.0
C1953 C 0.1034 0.96164 0.89745 0.0
C1954 C 0.09477 0.97548 0.88747 0.0
C1955 C 0.1169 0.94323 0.89426 0.0
C1956 C 0.15362 0.92295 0.86739 0.0
H1957 H 0.22706 0.83959 0.88637 0.0
H1958 H 0.19495 0.86382 0.89015 0.0
H1959 H 0.18163 0.90965 0.85685 0.0
H1960 H 0.09252 0.98014 0.8663 0.0
H1961 H 0.11549 0.94786 0.86076 0.0
H1962 H 0.12645 0.89674 0.8926 0.0
C1963 C 0.19969 0.86003 0.88008 0.0
C1964 C 0.16944 0.90643 0.86452 0.0
C1965 C 0.2182 0.84622 0.87791 0.0
C1966 C 0.09909 0.96995 0.87424 0.0
C1967 C 0.11241 0.9515 0.87106 0.0
C1968 C 0.13842 0.89978 0.88478 0.0
C1969 C 0.18824 0.8698 0.86943 0.0
C1970 C 0.17017 0.88648 0.87185 0.0
C1971 C 0.12193 0.93819 0.88103 0.0
C1972 C 0.13799 0.91995 0.87762 0.0
H1973 H 0.21896 0.84752 0.8443 0.0
H1974 H 0.18653 0.87163 0.8481 0.0
H1975 H 0.1543 0.86797 0.88769 0.0
H1976 H 0.10045 0.9655 0.90774 0.0
H1977 H 0.12408 0.9335 0.90221 0.0
C1978 C 0.29417 0.854 0.14814 0.0
C1979 C 0.28156 0.84416 0.13798 0.0
C1980 C 0.31238 0.86791 0.14518 0.0
C1981 C 0.33375 0.90351 0.11811 0.0
H1982 H 0.38697 0.90717 0.13986 0.0
C1983 C 0.4052 0.965 0.10576 0.0
C1984 C 0.41309 0.9778 0.11642 0.0
C1985 C 0.39156 0.94629 0.10795 0.0
C1986 C 0.37217 0.90639 0.13371 0.0
H1987 H 0.27889 0.84027 0.11678 0.0
H1988 H 0.3108 0.86401 0.11165 0.0
H1989 H 0.3587 0.87875 0.14459 0.0
H1990 H 0.41364 0.98039 0.13776 0.0
H1991 H 0.3899 0.94792 0.14155 0.0
H1992 H 0.34701 0.9313 0.10735 0.0
C1993 C 0.30635 0.86151 0.12189 0.0
C1994 C 0.35593 0.89013 0.13644 0.0
C1995 C 0.28812 0.84775 0.12484 0.0
C1996 C 0.40783 0.97092 0.12931 0.0
C1997 C 0.3943 0.9522 0.1315 0.0
C1998 C 0.34999 0.91969 0.11536 0.0
C1999 C 0.31842 0.87219 0.132 0.0
C2000 C 0.3364 0.88862 0.12875 0.0
C2001 C 0.38561 0.93992 0.12085 0.0
C2002 C 0.36929 0.9215 0.1232 0.0
H2003 H 0.28951 0.85163 0.15836 0.0
H2004 H 0.32115 0.87599 0.15322 0.0
H2005 H 0.31876 0.90317 0.11211 0.0
H2006 H 0.40897 0.96981 0.09571 0.0
H2007 H 0.38538 0.93701 0.09953 0.0
C2008 C 0.71785 0.84725 0.62519 0.0
C2009 C 0.72428 0.8432 0.6383 0.0
C2010 C 0.69974 0.86123 0.62234 0.0
C2011 C 0.65022 0.8897 0.63706 0.0
H2012 H 0.65948 0.9315 0.60831 0.0
C2013 C 0.59827 0.97059 0.63025 0.0
C2014 C 0.59307 0.9776 0.61737 0.0
C2015 C 0.61188 0.95191 0.63239 0.0
C2016 C 0.65642 0.91972 0.61623 0.0
H2017 H 0.71624 0.85008 0.65874 0.0
H2018 H 0.68481 0.87483 0.65378 0.0
H2019 H 0.68763 0.90321 0.61295 0.0
H2020 H 0.59743 0.96991 0.59664 0.0
H2021 H 0.62115 0.9372 0.60038 0.0
H2022 H 0.61918 0.90673 0.64051 0.0
C2023 C 0.69359 0.86695 0.64568 0.0
C2024 C 0.67259 0.90345 0.6189 0.0
C2025 C 0.71167 0.85281 0.64853 0.0
C2026 C 0.60114 0.96499 0.60668 0.0
C2027 C 0.61486 0.94634 0.60882 0.0
C2028 C 0.63404 0.90606 0.63441 0.0
C2029 C 0.68767 0.87168 0.63253 0.0
C2030 C 0.6698 0.8883 0.6294 0.0
C2031 C 0.62071 0.93981 0.62171 0.0
C2032 C 0.63704 0.92138 0.62402 0.0
H2033 H 0.72708 0.83995 0.61706 0.0
H2034 H 0.69537 0.86407 0.61211 0.0
H2035 H 0.64735 0.87813 0.6451 0.0
H2036 H 0.59232 0.9799 0.63872 0.0
H2037 H 0.6162 0.9475 0.64243 0.0
C2038 C 0.90577 0.97044 0.37719 0.0
C2039 C 0.91133 0.9769 0.39012 0.0
C2040 C 0.89192 0.95198 0.37491 0.0
C2041 C 0.84731 0.9198 0.39096 0.0
H2042 H 0.85539 0.87897 0.36162 0.0
C2043 C 0.78474 0.84845 0.38159 0.0
C2044 C 0.77817 0.84472 0.36847 0.0
C2045 C 0.80305 0.86214 0.38449 0.0
C2046 C 0.85279 0.89033 0.36979 0.0
H2047 H 0.90737 0.96846 0.41078 0.0
H2048 H 0.8832 0.93614 0.40679 0.0
H2049 H 0.88399 0.90708 0.36634 0.0
H2050 H 0.78614 0.85192 0.34806 0.0
H2051 H 0.81789 0.87621 0.3531 0.0
H2052 H 0.81592 0.90362 0.39424 0.0
C2053 C 0.88941 0.94554 0.39842 0.0
C2054 C 0.86922 0.90641 0.37252 0.0
C2055 C 0.90338 0.96396 0.40071 0.0
C2056 C 0.79082 0.8544 0.35827 0.0
C2057 C 0.80909 0.86826 0.36118 0.0
C2058 C 0.83087 0.90383 0.38821 0.0
C2059 C 0.88319 0.93957 0.38551 0.0
C2060 C 0.86659 0.92144 0.38309 0.0
C2061 C 0.81517 0.87265 0.37434 0.0
C2062 C 0.8333 0.88896 0.37754 0.0
H2063 H 0.91162 0.98002 0.36881 0.0
H2064 H 0.88732 0.94799 0.36485 0.0
H2065 H 0.84454 0.93137 0.39902 0.0
H2066 H 0.77549 0.84108 0.38969 0.0
H2067 H 0.80752 0.8647 0.39472 0.0
C2068 C 0.78403 0.1518 0.1281 0.0
C2069 C 0.77812 0.15811 0.141 0.0
C2070 C 0.80248 0.13795 0.12583 0.0
C2071 C 0.83571 0.09447 0.14206 0.0
H2072 H 0.87572 0.10221 0.1123 0.0
C2073 C 0.9069 0.03181 0.13236 0.0
C2074 C 0.91037 0.02519 0.11922 0.0
C2075 C 0.8933 0.05016 0.13531 0.0
C2076 C 0.86458 0.09969 0.12059 0.0
H2077 H 0.7874 0.15538 0.1616 0.0
H2078 H 0.81966 0.13109 0.15762 0.0
H2079 H 0.84741 0.13062 0.117 0.0
H2080 H 0.90283 0.03312 0.09884 0.0
H2081 H 0.87868 0.06487 0.10399 0.0
H2082 H 0.85224 0.0633 0.14546 0.0
C2083 C 0.80989 0.13679 0.14928 0.0
C2084 C 0.84841 0.11602 0.12331 0.0
C2085 C 0.7915 0.15081 0.15155 0.0
C2086 C 0.90056 0.03784 0.10907 0.0
C2087 C 0.88676 0.05612 0.11203 0.0
C2088 C 0.85176 0.0781 0.13931 0.0
C2089 C 0.8154 0.12994 0.1364 0.0
C2090 C 0.83367 0.1135 0.13402 0.0
C2091 C 0.88261 0.06226 0.12522 0.0
C2092 C 0.86632 0.08039 0.12848 0.0
H2093 H 0.7741 0.15715 0.11974 0.0
H2094 H 0.80612 0.13283 0.11581 0.0
H2095 H 0.82437 0.09181 0.15025 0.0
H2096 H 0.91437 0.02255 0.14041 0.0
H2097 H 0.89094 0.05468 0.14556 0.0
C2098 C 0.60186 0.04337 0.90209 0.0
C2099 C 0.59332 0.031 0.89144 0.0
C2100 C 0.61602 0.06168 0.89988 0.0
C2101 C 0.6357 0.10156 0.87422 0.0
H2102 H 0.68973 0.10314 0.89534 0.0
C2103 C 0.71424 0.15296 0.85956 0.0
C2104 C 0.72732 0.16226 0.86969 0.0
C2105 C 0.69589 0.13927 0.86255 0.0
C2106 C 0.67458 0.10326 0.88948 0.0
H2107 H 0.59221 0.02874 0.8701 0.0
H2108 H 0.61683 0.06054 0.86627 0.0
H2109 H 0.66101 0.0755 0.90014 0.0
H2110 H 0.73068 0.16541 0.8909 0.0
H2111 H 0.69851 0.14206 0.8961 0.0
H2112 H 0.64945 0.1292 0.86346 0.0
C2113 C 0.61255 0.05622 0.87633 0.0
C2114 C 0.65808 0.08736 0.89225 0.0
C2115 C 0.59851 0.03788 0.87854 0.0
C2116 C 0.72109 0.15835 0.88285 0.0
C2117 C 0.70271 0.14481 0.88584 0.0
C2118 C 0.6522 0.11755 0.87147 0.0
C2119 C 0.62183 0.06809 0.88697 0.0
C2120 C 0.63853 0.08615 0.88458 0.0
C2121 C 0.69015 0.13467 0.87575 0.0
C2122 C 0.67195 0.11848 0.879 0.0
H2123 H 0.59817 0.03853 0.91215 0.0
H2124 H 0.62266 0.07066 0.9083 0.0
H2125 H 0.62072 0.10125 0.86821 0.0
H2126 H 0.71865 0.15559 0.84932 0.0
H2127 H 0.68675 0.13161 0.85451 0.0
C2128 C 0.78159 0.6574 0.88271 0.0
C2129 C 0.77567 0.66144 0.86951 0.0
C2130 C 0.80007 0.64406 0.88579 0.0
C2131 C 0.85129 0.61766 0.87171 0.0
H2132 H 0.84243 0.57518 0.90015 0.0
C2133 C 0.90548 0.53836 0.87871 0.0
C2134 C 0.91063 0.53142 0.89161 0.0
C2135 C 0.89133 0.55661 0.87652 0.0
C2136 C 0.84536 0.58716 0.89232 0.0
H2137 H 0.78498 0.65521 0.84918 0.0
H2138 H 0.81703 0.63155 0.85455 0.0
H2139 H 0.81347 0.60253 0.89526 0.0
H2140 H 0.90557 0.53876 0.91233 0.0
H2141 H 0.88084 0.57072 0.9085 0.0
H2142 H 0.883 0.60174 0.86858 0.0
C2143 C 0.80758 0.63897 0.86254 0.0
C2144 C 0.82873 0.6029 0.88951 0.0
C2145 C 0.78914 0.65248 0.85945 0.0
C2146 C 0.90191 0.54365 0.90228 0.0
C2147 C 0.88763 0.56187 0.90008 0.0
C2148 C 0.86791 0.60182 0.87449 0.0
C2149 C 0.81303 0.63424 0.87577 0.0
C2150 C 0.83137 0.61827 0.8791 0.0
C2151 C 0.88188 0.56833 0.88717 0.0
C2152 C 0.86506 0.58626 0.88477 0.0
H2153 H 0.77169 0.66421 0.8907 0.0
H2154 H 0.80402 0.64121 0.89608 0.0
H2155 H 0.85406 0.62943 0.86375 0.0
H2156 H 0.91192 0.52933 0.87027 0.0
H2157 H 0.8871 0.56098 0.86646 0.0
C2158 C 0.71358 0.65058 0.15078 0.0
C2159 C 0.7268 0.65784 0.14015 0.0
C2160 C 0.69512 0.6366 0.14863 0.0
C2161 C 0.65614 0.61582 0.12289 0.0
H2162 H 0.6526 0.56317 0.14511 0.0
C2163 C 0.60384 0.53758 0.10898 0.0
C2164 C 0.59418 0.52494 0.11919 0.0
C2165 C 0.61764 0.55589 0.11186 0.0
C2166 C 0.653 0.57796 0.13894 0.0
H2167 H 0.73045 0.65685 0.11887 0.0
H2168 H 0.6983 0.63261 0.11514 0.0
H2169 H 0.68056 0.59168 0.14973 0.0
H2170 H 0.59043 0.52237 0.1404 0.0
H2171 H 0.61389 0.55456 0.14541 0.0
H2172 H 0.62866 0.602 0.11203 0.0
C2173 C 0.70212 0.63773 0.12514 0.0
C2174 C 0.6691 0.59432 0.1416 0.0
C2175 C 0.72065 0.65154 0.12729 0.0
C2176 C 0.59779 0.53162 0.1323 0.0
C2177 C 0.6114 0.55001 0.13518 0.0
C2178 C 0.63991 0.5995 0.12027 0.0
C2179 C 0.68938 0.62975 0.13579 0.0
C2180 C 0.67104 0.61332 0.13352 0.0
C2181 C 0.62195 0.56208 0.12502 0.0
C2182 C 0.63828 0.58022 0.12818 0.0
H2183 H 0.71787 0.65515 0.1608 0.0
H2184 H 0.68548 0.63093 0.15703 0.0
H2185 H 0.65705 0.63041 0.11657 0.0
H2186 H 0.60145 0.53281 0.09877 0.0
H2187 H 0.62562 0.56462 0.10377 0.0
C2188 C 0.71931 0.34826 0.38371 0.0
C2189 C 0.72563 0.34426 0.37057 0.0
C2190 C 0.70113 0.36211 0.38662 0.0
C2191 C 0.65121 0.39012 0.37211 0.0
H2192 H 0.66045 0.43204 0.4008 0.0
C2193 C 0.59847 0.47043 0.37917 0.0
C2194 C 0.59338 0.47738 0.39207 0.0
C2195 C 0.61228 0.45191 0.37696 0.0
C2196 C 0.65739 0.42022 0.3929 0.0
H2197 H 0.71732 0.35107 0.35016 0.0
H2198 H 0.68576 0.37559 0.35524 0.0
H2199 H 0.68882 0.40402 0.39604 0.0
H2200 H 0.59812 0.46976 0.41278 0.0
H2201 H 0.62219 0.43734 0.40893 0.0
H2202 H 0.61995 0.40683 0.36881 0.0
C2203 C 0.69468 0.36778 0.36331 0.0
C2204 C 0.67369 0.40411 0.39016 0.0
C2205 C 0.71284 0.35378 0.36039 0.0
C2206 C 0.60176 0.46489 0.40272 0.0
C2207 C 0.61567 0.4464 0.40051 0.0
C2208 C 0.63491 0.40632 0.37484 0.0
C2209 C 0.68887 0.37246 0.37648 0.0
C2210 C 0.6709 0.38892 0.37968 0.0
C2211 C 0.62141 0.43993 0.3876 0.0
C2212 C 0.63789 0.42168 0.38521 0.0
H2213 H 0.72868 0.34103 0.3918 0.0
H2214 H 0.69686 0.36492 0.39687 0.0
H2215 H 0.64834 0.37851 0.36409 0.0
H2216 H 0.59229 0.47966 0.37073 0.0
H2217 H 0.61651 0.44755 0.3669 0.0
C2218 C 0.90394 0.46455 0.60981 0.0
C2219 C 0.91323 0.47766 0.61993 0.0
C2220 C 0.89026 0.44619 0.61282 0.0
C2221 C 0.85423 0.42499 0.63976 0.0
H2222 H 0.85193 0.37122 0.61842 0.0
C2223 C 0.79381 0.35255 0.65214 0.0
C2224 C 0.78141 0.34421 0.64144 0.0
C2225 C 0.81222 0.36661 0.65 0.0
C2226 C 0.85233 0.38617 0.62445 0.0
H2227 H 0.91641 0.48105 0.64114 0.0
H2228 H 0.89309 0.44886 0.64636 0.0
H2229 H 0.88007 0.39979 0.61372 0.0
H2230 H 0.77919 0.34336 0.62009 0.0
H2231 H 0.81116 0.36781 0.61639 0.0
H2232 H 0.82638 0.41154 0.65038 0.0
C2233 C 0.89583 0.45304 0.6361 0.0
C2234 C 0.86843 0.40258 0.62173 0.0
C2235 C 0.90935 0.47143 0.6331 0.0
C2236 C 0.78835 0.34952 0.62856 0.0
C2237 C 0.80679 0.36345 0.62643 0.0
C2238 C 0.83823 0.40857 0.6425 0.0
C2239 C 0.88567 0.44048 0.62601 0.0
C2240 C 0.86945 0.42232 0.62928 0.0
C2241 C 0.81871 0.37251 0.63712 0.0
C2242 C 0.83691 0.38907 0.63479 0.0
H2243 H 0.90654 0.46895 0.59956 0.0
H2244 H 0.88259 0.43705 0.60478 0.0
H2245 H 0.85419 0.44013 0.64563 0.0
H2246 H 0.78893 0.34876 0.66218 0.0
H2247 H 0.82122 0.37309 0.65844 0.0
C2248 C 0.09684 0.4695 0.12886 0.0
C2249 C 0.09207 0.47649 0.11592 0.0
C2250 C 0.11052 0.45093 0.13116 0.0
C2251 C 0.15596 0.41925 0.11553 0.0
H2252 H 0.14655 0.37774 0.14441 0.0
C2253 C 0.21797 0.34758 0.12536 0.0
C2254 C 0.22406 0.34372 0.13855 0.0
C2255 C 0.19982 0.36136 0.12228 0.0
C2256 C 0.14951 0.38929 0.13637 0.0
H2257 H 0.0972 0.46885 0.09524 0.0
H2258 H 0.12103 0.43631 0.09927 0.0
H2259 H 0.11813 0.4059 0.13943 0.0
H2260 H 0.21536 0.35073 0.15888 0.0
H2261 H 0.18383 0.37512 0.15351 0.0
H2262 H 0.1875 0.40314 0.11264 0.0
C2263 C 0.11437 0.44539 0.10764 0.0
C2264 C 0.13319 0.4054 0.13349 0.0
C2265 C 0.10058 0.46394 0.10533 0.0
C2266 C 0.21107 0.35332 0.14862 0.0
C2267 C 0.19293 0.36724 0.14553 0.0
C2268 C 0.17227 0.40322 0.11843 0.0
C2269 C 0.11984 0.43892 0.12059 0.0
C2270 C 0.13631 0.42069 0.1231 0.0
C2271 C 0.18734 0.37177 0.1323 0.0
C2272 C 0.16936 0.38812 0.12894 0.0
H2273 H 0.09055 0.47877 0.13725 0.0
H2274 H 0.11454 0.44656 0.14125 0.0
H2275 H 0.15912 0.43101 0.10763 0.0
H2276 H 0.2275 0.34028 0.11735 0.0
H2277 H 0.19573 0.36405 0.112 0.0
C2278 C 0.40213 0.47175 0.87705 0.0
C2279 C 0.40874 0.47747 0.88992 0.0
C2280 C 0.38848 0.45315 0.87477 0.0
C2281 C 0.34611 0.41873 0.89126 0.0
H2282 H 0.35322 0.37991 0.8609 0.0
C2283 C 0.28436 0.34672 0.88164 0.0
C2284 C 0.27706 0.34378 0.86858 0.0
C2285 C 0.30264 0.3605 0.88447 0.0
C2286 C 0.35088 0.3907 0.86936 0.0
H2287 H 0.40674 0.46769 0.91047 0.0
H2288 H 0.38284 0.43515 0.90649 0.0
H2289 H 0.38135 0.40852 0.86553 0.0
H2290 H 0.28373 0.3524 0.8482 0.0
H2291 H 0.3154 0.37681 0.85314 0.0
H2292 H 0.3154 0.4015 0.89492 0.0
C2293 C 0.38812 0.4452 0.89817 0.0
C2294 C 0.36705 0.40706 0.87204 0.0
C2295 C 0.40193 0.46375 0.90044 0.0
C2296 C 0.28899 0.35426 0.85836 0.0
C2297 C 0.30722 0.36821 0.86121 0.0
C2298 C 0.32991 0.40248 0.88855 0.0
C2299 C 0.38098 0.43987 0.88532 0.0
C2300 C 0.36474 0.42139 0.88296 0.0
C2301 C 0.314 0.37186 0.87433 0.0
C2302 C 0.33197 0.38834 0.87752 0.0
H2303 H 0.40709 0.48194 0.86871 0.0
H2304 H 0.38311 0.44968 0.86478 0.0
H2305 H 0.3436 0.42973 0.89961 0.0
H2306 H 0.27567 0.33873 0.88974 0.0
H2307 H 0.30768 0.36248 0.89466 0.0
C2308 C 0.40456 0.54137 0.60669 0.0
C2309 C 0.41239 0.52846 0.61732 0.0
C2310 C 0.39084 0.55999 0.60891 0.0
C2311 C 0.37133 0.59969 0.63471 0.0
H2312 H 0.31808 0.60322 0.61299 0.0
C2313 C 0.29375 0.65298 0.64884 0.0
C2314 C 0.28127 0.66281 0.63863 0.0
C2315 C 0.31181 0.63884 0.64597 0.0
C2316 C 0.33303 0.6028 0.61902 0.0
H2317 H 0.4127 0.52558 0.63864 0.0
H2318 H 0.38882 0.55795 0.64249 0.0
H2319 H 0.34622 0.57494 0.60828 0.0
H2320 H 0.2787 0.66644 0.6174 0.0
H2321 H 0.31039 0.64233 0.61242 0.0
H2322 H 0.35797 0.62744 0.64554 0.0
C2323 C 0.39334 0.55379 0.63244 0.0
C2324 C 0.3492 0.58653 0.61631 0.0
C2325 C 0.40694 0.53513 0.63022 0.0
C2326 C 0.28783 0.65897 0.62551 0.0
C2327 C 0.30593 0.64499 0.62265 0.0
C2328 C 0.35518 0.61606 0.6374 0.0
C2329 C 0.38475 0.5662 0.62181 0.0
C2330 C 0.36845 0.58462 0.62418 0.0
C2331 C 0.31786 0.63432 0.63281 0.0
C2332 C 0.33571 0.6177 0.62965 0.0
H2333 H 0.40847 0.53671 0.59663 0.0
H2334 H 0.38473 0.56937 0.60051 0.0
H2335 H 0.3861 0.59883 0.64088 0.0
H2336 H 0.28907 0.65555 0.65905 0.0
H2337 H 0.32047 0.63078 0.65406 0.0
C2338 C 0.09921 0.53692 0.37675 0.0
C2339 C 0.09389 0.5304 0.3897 0.0
C2340 C 0.11291 0.55547 0.37441 0.0
C2341 C 0.15767 0.58771 0.39022 0.0
H2342 H 0.14904 0.62858 0.36094 0.0
C2343 C 0.22055 0.65849 0.38033 0.0
C2344 C 0.22691 0.66204 0.36715 0.0
C2345 C 0.20208 0.64513 0.38339 0.0
C2346 C 0.15179 0.61721 0.3691 0.0
H2347 H 0.09812 0.53881 0.41034 0.0
H2348 H 0.12206 0.57127 0.40625 0.0
H2349 H 0.12053 0.60047 0.36585 0.0
H2350 H 0.21834 0.65496 0.34682 0.0
H2351 H 0.18631 0.63123 0.35213 0.0
H2352 H 0.18914 0.60385 0.39328 0.0
C2353 C 0.11576 0.56186 0.39791 0.0
C2354 C 0.13541 0.60114 0.37193 0.0
C2355 C 0.10193 0.54336 0.40025 0.0
C2356 C 0.21382 0.65262 0.35707 0.0
C2357 C 0.1954 0.63906 0.36013 0.0
C2358 C 0.17406 0.60368 0.38736 0.0
C2359 C 0.12174 0.56789 0.38496 0.0
C2360 C 0.13825 0.58608 0.38247 0.0
C2361 C 0.18958 0.63476 0.37335 0.0
C2362 C 0.17144 0.61856 0.37671 0.0
H2363 H 0.09329 0.52733 0.36839 0.0
H2364 H 0.11733 0.5595 0.36433 0.0
H2365 H 0.1606 0.57612 0.39824 0.0
H2366 H 0.23015 0.66568 0.38834 0.0
H2367 H 0.19782 0.64265 0.39366 0.0
loop_
_geom_bond_atom_site_label_1
_geom_bond_atom_site_label_2
_geom_bond_distance
_geom_bond_site_symmetry_2
_ccdc_geom_bond_type
O0 Cd1 2.223 . S
O0 C8 1.315 . S
Cd1 O0 2.223 . S
Cd1 O4 2.297 . S
Cd1 O5 2.439 . S
Cd1 O11 2.240 . S
Cd2 O3 2.240 . S
Cd2 O10 2.223 . S
Cd2 O12 2.297 . S
Cd2 O13 2.439 . S
O3 Cd2 2.240 . S
O3 C8 1.279 . S
O4 Cd1 2.297 . S
O4 C6 1.247 . S
O5 Cd1 2.439 . S
O5 C6 1.208 . S
C6 O4 1.247 . S
C6 O5 1.208 . S
C7 O12 1.247 . S
C7 O13 1.208 . S
C8 O0 1.315 . S
C8 O3 1.279 . S
C9 O10 1.315 . S
C9 O11 1.279 . S
O10 Cd2 2.223 . S
O10 C9 1.315 . S
O11 Cd1 2.240 . S
O11 C9 1.279 . S
O12 Cd2 2.297 . S
O12 C7 1.247 . S
O13 Cd2 2.439 . S
O13 C7 1.208 . S
O14 Cd15 2.223 . S
O14 C22 1.315 . S
Cd15 O14 2.223 . S
Cd15 O18 2.297 . S
Cd15 O19 2.439 . S
Cd15 O25 2.240 . S
Cd16 O17 2.240 . S
Cd16 O24 2.223 . S
Cd16 O26 2.297 . S
Cd16 O27 2.439 . S
O17 Cd16 2.240 . S
O17 C22 1.279 . S
O18 Cd15 2.297 . S
O18 C20 1.247 . S
O19 Cd15 2.439 . S
O19 C20 1.208 . S
C20 O18 1.247 . S
C20 O19 1.208 . S
C21 O26 1.247 . S
C21 O27 1.208 . S
C22 O14 1.315 . S
C22 O17 1.279 . S
C23 O24 1.315 . S
C23 O25 1.279 . S
O24 Cd16 2.223 . S
O24 C23 1.315 . S
O25 Cd15 2.240 . S
O25 C23 1.279 . S
O26 Cd16 2.297 . S
O26 C21 1.247 . S
O27 Cd16 2.439 . S
O27 C21 1.208 . S
O28 Cd29 2.223 . S
O28 C36 1.315 . S
Cd29 O28 2.223 . S
Cd29 O32 2.297 . S
Cd29 O33 2.439 . S
Cd29 O39 2.240 . S
Cd30 O31 2.240 . S
Cd30 O38 2.223 . S
Cd30 O40 2.297 . S
Cd30 O41 2.439 . S
O31 Cd30 2.240 . S
O31 C36 1.279 . S
O32 Cd29 2.297 . S
O32 C34 1.247 . S
O33 Cd29 2.439 . S
O33 C34 1.208 . S
C34 O32 1.247 . S
C34 O33 1.208 . S
C35 O40 1.247 . S
C35 O41 1.208 . S
C36 O28 1.315 . S
C36 O31 1.279 . S
C37 O38 1.315 . S
C37 O39 1.279 . S
O38 Cd30 2.223 . S
O38 C37 1.315 . S
O39 Cd29 2.240 . S
O39 C37 1.279 . S
O40 Cd30 2.297 . S
O40 C35 1.247 . S
O41 Cd30 2.439 . S
O41 C35 1.208 . S
O42 Cd43 2.223 . S
O42 C50 1.315 . S
Cd43 O42 2.223 . S
Cd43 O46 2.297 . S
Cd43 O47 2.439 . S
Cd43 O53 2.240 . S
Cd44 O45 2.240 . S
Cd44 O52 2.223 . S
Cd44 O54 2.297 . S
Cd44 O55 2.439 . S
O45 Cd44 2.240 . S
O45 C50 1.279 . S
O46 Cd43 2.297 . S
O46 C48 1.247 . S
O47 Cd43 2.439 . S
O47 C48 1.208 . S
C48 O46 1.247 . S
C48 O47 1.208 . S
C49 O54 1.247 . S
C49 O55 1.208 . S
C50 O42 1.315 . S
C50 O45 1.279 . S
C51 O52 1.315 . S
C51 O53 1.279 . S
O52 Cd44 2.223 . S
O52 C51 1.315 . S
O53 Cd43 2.240 . S
O53 C51 1.279 . S
O54 Cd44 2.297 . S
O54 C49 1.247 . S
O55 Cd44 2.439 . S
O55 C49 1.208 . S
O56 Cd57 2.223 . S
O56 C64 1.315 . S
Cd57 O56 2.223 . S
Cd57 O60 2.297 . S
Cd57 O61 2.439 . S
Cd57 O67 2.240 . S
Cd58 O59 2.240 . S
Cd58 O66 2.223 . S
Cd58 O68 2.297 . S
Cd58 O69 2.439 . S
O59 Cd58 2.240 . S
O59 C64 1.279 . S
O60 Cd57 2.297 . S
O60 C62 1.247 . S
O61 Cd57 2.439 . S
O61 C62 1.208 . S
C62 O60 1.247 . S
C62 O61 1.208 . S
C63 O68 1.247 . S
C63 O69 1.208 . S
C64 O56 1.315 . S
C64 O59 1.279 . S
C65 O66 1.315 . S
C65 O67 1.279 . S
O66 Cd58 2.223 . S
O66 C65 1.315 . S
O67 Cd57 2.240 . S
O67 C65 1.279 . S
O68 Cd58 2.297 . S
O68 C63 1.247 . S
O69 Cd58 2.439 . S
O69 C63 1.208 . S
O70 Cd71 2.223 . S
O70 C78 1.315 . S
Cd71 O70 2.223 . S
Cd71 O74 2.297 . S
Cd71 O75 2.439 . S
Cd71 O81 2.240 . S
Cd72 O73 2.240 . S
Cd72 O80 2.223 . S
Cd72 O82 2.297 . S
Cd72 O83 2.439 . S
O73 Cd72 2.240 . S
O73 C78 1.279 . S
O74 Cd71 2.297 . S
O74 C76 1.247 . S
O75 Cd71 2.439 . S
O75 C76 1.208 . S
C76 O74 1.247 . S
C76 O75 1.208 . S
C77 O82 1.247 . S
C77 O83 1.208 . S
C78 O70 1.315 . S
C78 O73 1.279 . S
C79 O80 1.315 . S
C79 O81 1.279 . S
O80 Cd72 2.223 . S
O80 C79 1.315 . S
O81 Cd71 2.240 . S
O81 C79 1.279 . S
O82 Cd72 2.297 . S
O82 C77 1.247 . S
O83 Cd72 2.439 . S
O83 C77 1.208 . S
O84 Cd85 2.223 . S
O84 C92 1.315 . S
Cd85 O84 2.223 . S
Cd85 O88 2.297 . S
Cd85 O89 2.439 . S
Cd85 O95 2.240 . S
Cd86 O87 2.240 . S
Cd86 O94 2.223 . S
Cd86 O96 2.297 . S
Cd86 O97 2.439 . S
O87 Cd86 2.240 . S
O87 C92 1.279 . S
O88 Cd85 2.297 . S
O88 C90 1.247 . S
O89 Cd85 2.439 . S
O89 C90 1.208 . S
C90 O88 1.247 . S
C90 O89 1.208 . S
C91 O96 1.247 . S
C91 O97 1.208 . S
C92 O84 1.315 . S
C92 O87 1.279 . S
C93 O94 1.315 . S
C93 O95 1.279 . S
O94 Cd86 2.223 . S
O94 C93 1.315 . S
O95 Cd85 2.240 . S
O95 C93 1.279 . S
O96 Cd86 2.297 . S
O96 C91 1.247 . S
O97 Cd86 2.439 . S
O97 C91 1.208 . S
O98 Cd99 2.223 . S
O98 C106 1.315 . S
Cd99 O98 2.223 . S
Cd99 O102 2.297 . S
Cd99 O103 2.439 . S
Cd99 O109 2.240 . S
Cd100 O101 2.240 . S
Cd100 O108 2.223 . S
Cd100 O110 2.297 . S
Cd100 O111 2.439 . S
O101 Cd100 2.240 . S
O101 C106 1.279 . S
O102 Cd99 2.297 . S
O102 C104 1.247 . S
O103 Cd99 2.439 . S
O103 C104 1.208 . S
C104 O102 1.247 . S
C104 O103 1.208 . S
C105 O110 1.247 . S
C105 O111 1.208 . S
C106 O98 1.315 . S
C106 O101 1.279 . S
C107 O108 1.315 . S
C107 O109 1.279 . S
O108 Cd100 2.223 . S
O108 C107 1.315 . S
O109 Cd99 2.240 . S
O109 C107 1.279 . S
O110 Cd100 2.297 . S
O110 C105 1.247 . S
O111 Cd100 2.439 . S
O111 C105 1.208 . S
O112 Cd113 2.223 . S
O112 C120 1.315 . S
Cd113 O112 2.223 . S
Cd113 O116 2.297 . S
Cd113 O117 2.439 . S
Cd113 O123 2.240 . S
Cd114 O115 2.240 . S
Cd114 O122 2.223 . S
Cd114 O124 2.297 . S
Cd114 O125 2.439 . S
O115 Cd114 2.240 . S
O115 C120 1.279 . S
O116 Cd113 2.297 . S
O116 C118 1.247 . S
O117 Cd113 2.439 . S
O117 C118 1.208 . S
C118 O116 1.247 . S
C118 O117 1.208 . S
C119 O124 1.247 . S
C119 O125 1.208 . S
C120 O112 1.315 . S
C120 O115 1.279 . S
C121 O122 1.315 . S
C121 O123 1.279 . S
O122 Cd114 2.223 . S
O122 C121 1.315 . S
O123 Cd113 2.240 . S
O123 C121 1.279 . S
O124 Cd114 2.297 . S
O124 C119 1.247 . S
O125 Cd114 2.439 . S
O125 C119 1.208 . S
O126 Cd127 2.223 . S
O126 C134 1.315 . S
Cd127 O126 2.223 . S
Cd127 O130 2.297 . S
Cd127 O131 2.439 . S
Cd127 O137 2.240 . S
Cd128 O129 2.240 . S
Cd128 O136 2.223 . S
Cd128 O138 2.297 . S
Cd128 O139 2.439 . S
O129 Cd128 2.240 . S
O129 C134 1.279 . S
O130 Cd127 2.297 . S
O130 C132 1.247 . S
O131 Cd127 2.439 . S
O131 C132 1.208 . S
C132 O130 1.247 . S
C132 O131 1.208 . S
C133 O138 1.247 . S
C133 O139 1.208 . S
C134 O126 1.315 . S
C134 O129 1.279 . S
C135 O136 1.315 . S
C135 O137 1.279 . S
O136 Cd128 2.223 . S
O136 C135 1.315 . S
O137 Cd127 2.240 . S
O137 C135 1.279 . S
O138 Cd128 2.297 . S
O138 C133 1.247 . S
O139 Cd128 2.439 . S
O139 C133 1.208 . S
O140 Cd141 2.223 . S
O140 C148 1.315 . S
Cd141 O140 2.223 . S
Cd141 O144 2.297 . S
Cd141 O145 2.439 . S
Cd141 O151 2.240 . S
Cd142 O143 2.240 . S
Cd142 O150 2.223 . S
Cd142 O152 2.297 . S
Cd142 O153 2.439 . S
O143 Cd142 2.240 . S
O143 C148 1.279 . S
O144 Cd141 2.297 . S
O144 C146 1.247 . S
O145 Cd141 2.439 . S
O145 C146 1.208 . S
C146 O144 1.247 . S
C146 O145 1.208 . S
C147 O152 1.247 . S
C147 O153 1.208 . S
C148 O140 1.315 . S
C148 O143 1.279 . S
C149 O150 1.315 . S
C149 O151 1.279 . S
O150 Cd142 2.223 . S
O150 C149 1.315 . S
O151 Cd141 2.240 . S
O151 C149 1.279 . S
O152 Cd142 2.297 . S
O152 C147 1.247 . S
O153 Cd142 2.439 . S
O153 C147 1.208 . S
O154 Cd155 2.223 . S
O154 C162 1.315 . S
Cd155 O154 2.223 . S
Cd155 O158 2.297 . S
Cd155 O159 2.439 . S
Cd155 O165 2.240 . S
Cd156 O157 2.240 . S
Cd156 O164 2.223 . S
Cd156 O166 2.297 . S
Cd156 O167 2.439 . S
O157 Cd156 2.240 . S
O157 C162 1.279 . S
O158 Cd155 2.297 . S
O158 C160 1.247 . S
O159 Cd155 2.439 . S
O159 C160 1.208 . S
C160 O158 1.247 . S
C160 O159 1.208 . S
C161 O166 1.247 . S
C161 O167 1.208 . S
C162 O154 1.315 . S
C162 O157 1.279 . S
C163 O164 1.315 . S
C163 O165 1.279 . S
O164 Cd156 2.223 . S
O164 C163 1.315 . S
O165 Cd155 2.240 . S
O165 C163 1.279 . S
O166 Cd156 2.297 . S
O166 C161 1.247 . S
O167 Cd156 2.439 . S
O167 C161 1.208 . S
O168 Cd169 2.223 . S
O168 C176 1.315 . S
Cd169 O168 2.223 . S
Cd169 O172 2.297 . S
Cd169 O173 2.439 . S
Cd169 O179 2.240 . S
Cd170 O171 2.240 . S
Cd170 O178 2.223 . S
Cd170 O180 2.297 . S
Cd170 O181 2.439 . S
O171 Cd170 2.240 . S
O171 C176 1.279 . S
O172 Cd169 2.297 . S
O172 C174 1.247 . S
O173 Cd169 2.439 . S
O173 C174 1.208 . S
C174 O172 1.247 . S
C174 O173 1.208 . S
C175 O180 1.247 . S
C175 O181 1.208 . S
C176 O168 1.315 . S
C176 O171 1.279 . S
C177 O178 1.315 . S
C177 O179 1.279 . S
O178 Cd170 2.223 . S
O178 C177 1.315 . S
O179 Cd169 2.240 . S
O179 C177 1.279 . S
O180 Cd170 2.297 . S
O180 C175 1.247 . S
O181 Cd170 2.439 . S
O181 C175 1.208 . S
O182 Cd183 2.223 . S
O182 C190 1.315 . S
Cd183 O182 2.223 . S
Cd183 O186 2.297 . S
Cd183 O187 2.439 . S
Cd183 O193 2.240 . S
Cd184 O185 2.240 . S
Cd184 O192 2.223 . S
Cd184 O194 2.297 . S
Cd184 O195 2.439 . S
O185 Cd184 2.240 . S
O185 C190 1.279 . S
O186 Cd183 2.297 . S
O186 C188 1.247 . S
O187 Cd183 2.439 . S
O187 C188 1.208 . S
C188 O186 1.247 . S
C188 O187 1.208 . S
C189 O194 1.247 . S
C189 O195 1.208 . S
C190 O182 1.315 . S
C190 O185 1.279 . S
C191 O192 1.315 . S
C191 O193 1.279 . S
O192 Cd184 2.223 . S
O192 C191 1.315 . S
O193 Cd183 2.240 . S
O193 C191 1.279 . S
O194 Cd184 2.297 . S
O194 C189 1.247 . S
O195 Cd184 2.439 . S
O195 C189 1.208 . S
O196 Cd197 2.223 . S
O196 C204 1.315 . S
Cd197 O196 2.223 . S
Cd197 O200 2.297 . S
Cd197 O201 2.439 . S
Cd197 O207 2.240 . S
Cd198 O199 2.240 . S
Cd198 O206 2.223 . S
Cd198 O208 2.297 . S
Cd198 O209 2.439 . S
O199 Cd198 2.240 . S
O199 C204 1.279 . S
O200 Cd197 2.297 . S
O200 C202 1.247 . S
O201 Cd197 2.439 . S
O201 C202 1.208 . S
C202 O200 1.247 . S
C202 O201 1.208 . S
C203 O208 1.247 . S
C203 O209 1.208 . S
C204 O196 1.315 . S
C204 O199 1.279 . S
C205 O206 1.315 . S
C205 O207 1.279 . S
O206 Cd198 2.223 . S
O206 C205 1.315 . S
O207 Cd197 2.240 . S
O207 C205 1.279 . S
O208 Cd198 2.297 . S
O208 C203 1.247 . S
O209 Cd198 2.439 . S
O209 C203 1.208 . S
O210 Cd211 2.223 . S
O210 C218 1.315 . S
Cd211 O210 2.223 . S
Cd211 O214 2.297 . S
Cd211 O215 2.439 . S
Cd211 O221 2.240 . S
Cd212 O213 2.240 . S
Cd212 O220 2.223 . S
Cd212 O222 2.297 . S
Cd212 O223 2.439 . S
O213 Cd212 2.240 . S
O213 C218 1.279 . S
O214 Cd211 2.297 . S
O214 C216 1.247 . S
O215 Cd211 2.439 . S
O215 C216 1.208 . S
C216 O214 1.247 . S
C216 O215 1.208 . S
C217 O222 1.247 . S
C217 O223 1.208 . S
C218 O210 1.315 . S
C218 O213 1.279 . S
C219 O220 1.315 . S
C219 O221 1.279 . S
O220 Cd212 2.223 . S
O220 C219 1.315 . S
O221 Cd211 2.240 . S
O221 C219 1.279 . S
O222 Cd212 2.297 . S
O222 C217 1.247 . S
O223 Cd212 2.439 . S
O223 C217 1.208 . S
O224 Cd225 2.223 . S
O224 C232 1.315 . S
Cd225 O224 2.223 . S
Cd225 O228 2.297 . S
Cd225 O229 2.439 . S
Cd225 O235 2.240 . S
Cd226 O227 2.240 . S
Cd226 O234 2.223 . S
Cd226 O236 2.297 . S
Cd226 O237 2.439 . S
O227 Cd226 2.240 . S
O227 C232 1.279 . S
O228 Cd225 2.297 . S
O228 C230 1.247 . S
O229 Cd225 2.439 . S
O229 C230 1.208 . S
C230 O228 1.247 . S
C230 O229 1.208 . S
C231 O236 1.247 . S
C231 O237 1.208 . S
C232 O224 1.315 . S
C232 O227 1.279 . S
C233 O234 1.315 . S
C233 O235 1.279 . S
O234 Cd226 2.223 . S
O234 C233 1.315 . S
O235 Cd225 2.240 . S
O235 C233 1.279 . S
O236 Cd226 2.297 . S
O236 C231 1.247 . S
O237 Cd226 2.439 . S
O237 C231 1.208 . S
O238 Cd239 2.223 . S
O238 C246 1.315 . S
Cd239 O238 2.223 . S
Cd239 O242 2.297 . S
Cd239 O243 2.439 . S
Cd239 O249 2.240 . S
Cd240 O241 2.240 . S
Cd240 O248 2.223 . S
Cd240 O250 2.297 . S
Cd240 O251 2.439 . S
O241 Cd240 2.240 . S
O241 C246 1.279 . S
O242 Cd239 2.297 . S
O242 C244 1.247 . S
O243 Cd239 2.439 . S
O243 C244 1.208 . S
C244 O242 1.247 . S
C244 O243 1.208 . S
C245 O250 1.247 . S
C245 O251 1.208 . S
C246 O238 1.315 . S
C246 O241 1.279 . S
C247 O248 1.315 . S
C247 O249 1.279 . S
O248 Cd240 2.223 . S
O248 C247 1.315 . S
O249 Cd239 2.240 . S
O249 C247 1.279 . S
O250 Cd240 2.297 . S
O250 C245 1.247 . S
O251 Cd240 2.439 . S
O251 C245 1.208 . S
O252 Cd253 2.223 . S
O252 C260 1.315 . S
Cd253 O252 2.223 . S
Cd253 O256 2.297 . S
Cd253 O257 2.439 . S
Cd253 O263 2.240 . S
Cd254 O255 2.240 . S
Cd254 O262 2.223 . S
Cd254 O264 2.297 . S
Cd254 O265 2.439 . S
O255 Cd254 2.240 . S
O255 C260 1.279 . S
O256 Cd253 2.297 . S
O256 C258 1.247 . S
O257 Cd253 2.439 . S
O257 C258 1.208 . S
C258 O256 1.247 . S
C258 O257 1.208 . S
C259 O264 1.247 . S
C259 O265 1.208 . S
C260 O252 1.315 . S
C260 O255 1.279 . S
C261 O262 1.315 . S
C261 O263 1.279 . S
O262 Cd254 2.223 . S
O262 C261 1.315 . S
O263 Cd253 2.240 . S
O263 C261 1.279 . S
O264 Cd254 2.297 . S
O264 C259 1.247 . S
O265 Cd254 2.439 . S
O265 C259 1.208 . S
O266 Cd267 2.223 . S
O266 C274 1.315 . S
Cd267 O266 2.223 . S
Cd267 O270 2.297 . S
Cd267 O271 2.439 . S
Cd267 O277 2.240 . S
Cd268 O269 2.240 . S
Cd268 O276 2.223 . S
Cd268 O278 2.297 . S
Cd268 O279 2.439 . S
O269 Cd268 2.240 . S
O269 C274 1.279 . S
O270 Cd267 2.297 . S
O270 C272 1.247 . S
O271 Cd267 2.439 . S
O271 C272 1.208 . S
C272 O270 1.247 . S
C272 O271 1.208 . S
C273 O278 1.247 . S
C273 O279 1.208 . S
C274 O266 1.315 . S
C274 O269 1.279 . S
C275 O276 1.315 . S
C275 O277 1.279 . S
O276 Cd268 2.223 . S
O276 C275 1.315 . S
O277 Cd267 2.240 . S
O277 C275 1.279 . S
O278 Cd268 2.297 . S
O278 C273 1.247 . S
O279 Cd268 2.439 . S
O279 C273 1.208 . S
O280 Cd281 2.223 . S
O280 C288 1.315 . S
Cd281 O280 2.223 . S
Cd281 O284 2.297 . S
Cd281 O285 2.439 . S
Cd281 O291 2.240 . S
Cd282 O283 2.240 . S
Cd282 O290 2.223 . S
Cd282 O292 2.297 . S
Cd282 O293 2.439 . S
O283 Cd282 2.240 . S
O283 C288 1.279 . S
O284 Cd281 2.297 . S
O284 C286 1.247 . S
O285 Cd281 2.439 . S
O285 C286 1.208 . S
C286 O284 1.247 . S
C286 O285 1.208 . S
C287 O292 1.247 . S
C287 O293 1.208 . S
C288 O280 1.315 . S
C288 O283 1.279 . S
C289 O290 1.315 . S
C289 O291 1.279 . S
O290 Cd282 2.223 . S
O290 C289 1.315 . S
O291 Cd281 2.240 . S
O291 C289 1.279 . S
O292 Cd282 2.297 . S
O292 C287 1.247 . S
O293 Cd282 2.439 . S
O293 C287 1.208 . S
O294 Cd295 2.223 . S
O294 C302 1.315 . S
Cd295 O294 2.223 . S
Cd295 O298 2.297 . S
Cd295 O299 2.439 . S
Cd295 O305 2.240 . S
Cd296 O297 2.240 . S
Cd296 O304 2.223 . S
Cd296 O306 2.297 . S
Cd296 O307 2.439 . S
O297 Cd296 2.240 . S
O297 C302 1.279 . S
O298 Cd295 2.297 . S
O298 C300 1.247 . S
O299 Cd295 2.439 . S
O299 C300 1.208 . S
C300 O298 1.247 . S
C300 O299 1.208 . S
C301 O306 1.247 . S
C301 O307 1.208 . S
C302 O294 1.315 . S
C302 O297 1.279 . S
C303 O304 1.315 . S
C303 O305 1.279 . S
O304 Cd296 2.223 . S
O304 C303 1.315 . S
O305 Cd295 2.240 . S
O305 C303 1.279 . S
O306 Cd296 2.297 . S
O306 C301 1.247 . S
O307 Cd296 2.439 . S
O307 C301 1.208 . S
O308 Cd309 2.223 . S
O308 C316 1.315 . S
Cd309 O308 2.223 . S
Cd309 O312 2.297 . S
Cd309 O313 2.439 . S
Cd309 O319 2.240 . S
Cd310 O311 2.240 . S
Cd310 O318 2.223 . S
Cd310 O320 2.297 . S
Cd310 O321 2.439 . S
O311 Cd310 2.240 . S
O311 C316 1.279 . S
O312 Cd309 2.297 . S
O312 C314 1.247 . S
O313 Cd309 2.439 . S
O313 C314 1.208 . S
C314 O312 1.247 . S
C314 O313 1.208 . S
C315 O320 1.247 . S
C315 O321 1.208 . S
C316 O308 1.315 . S
C316 O311 1.279 . S
C317 O318 1.315 . S
C317 O319 1.279 . S
O318 Cd310 2.223 . S
O318 C317 1.315 . S
O319 Cd309 2.240 . S
O319 C317 1.279 . S
O320 Cd310 2.297 . S
O320 C315 1.247 . S
O321 Cd310 2.439 . S
O321 C315 1.208 . S
O322 Cd323 2.223 . S
O322 C330 1.315 . S
Cd323 O322 2.223 . S
Cd323 O326 2.297 . S
Cd323 O327 2.439 . S
Cd323 O333 2.240 . S
Cd324 O325 2.240 . S
Cd324 O332 2.223 . S
Cd324 O334 2.297 . S
Cd324 O335 2.439 . S
O325 Cd324 2.240 . S
O325 C330 1.279 . S
O326 Cd323 2.297 . S
O326 C328 1.247 . S
O327 Cd323 2.439 . S
O327 C328 1.208 . S
C328 O326 1.247 . S
C328 O327 1.208 . S
C329 O334 1.247 . S
C329 O335 1.208 . S
C330 O322 1.315 . S
C330 O325 1.279 . S
C331 O332 1.315 . S
C331 O333 1.279 . S
O332 Cd324 2.223 . S
O332 C331 1.315 . S
O333 Cd323 2.240 . S
O333 C331 1.279 . S
O334 Cd324 2.297 . S
O334 C329 1.247 . S
O335 Cd324 2.439 . S
O335 C329 1.208 . S
O336 Cd337 2.223 . S
O336 C344 1.315 . S
Cd337 O336 2.223 . S
Cd337 O340 2.297 . S
Cd337 O341 2.439 . S
Cd337 O347 2.240 . S
Cd338 O339 2.240 . S
Cd338 O346 2.223 . S
Cd338 O348 2.297 . S
Cd338 O349 2.439 . S
O339 Cd338 2.240 . S
O339 C344 1.279 . S
O340 Cd337 2.297 . S
O340 C342 1.247 . S
O341 Cd337 2.439 . S
O341 C342 1.208 . S
C342 O340 1.247 . S
C342 O341 1.208 . S
C343 O348 1.247 . S
C343 O349 1.208 . S
C344 O336 1.315 . S
C344 O339 1.279 . S
C345 O346 1.315 . S
C345 O347 1.279 . S
O346 Cd338 2.223 . S
O346 C345 1.315 . S
O347 Cd337 2.240 . S
O347 C345 1.279 . S
O348 Cd338 2.297 . S
O348 C343 1.247 . S
O349 Cd338 2.439 . S
O349 C343 1.208 . S
O350 Cd351 2.223 . S
O350 C358 1.315 . S
Cd351 O350 2.223 . S
Cd351 O354 2.297 . S
Cd351 O355 2.439 . S
Cd351 O361 2.240 . S
Cd352 O353 2.240 . S
Cd352 O360 2.223 . S
Cd352 O362 2.297 . S
Cd352 O363 2.439 . S
O353 Cd352 2.240 . S
O353 C358 1.279 . S
O354 Cd351 2.297 . S
O354 C356 1.247 . S
O355 Cd351 2.439 . S
O355 C356 1.208 . S
C356 O354 1.247 . S
C356 O355 1.208 . S
C357 O362 1.247 . S
C357 O363 1.208 . S
C358 O350 1.315 . S
C358 O353 1.279 . S
C359 O360 1.315 . S
C359 O361 1.279 . S
O360 Cd352 2.223 . S
O360 C359 1.315 . S
O361 Cd351 2.240 . S
O361 C359 1.279 . S
O362 Cd352 2.297 . S
O362 C357 1.247 . S
O363 Cd352 2.439 . S
O363 C357 1.208 . S
O364 Cd365 2.223 . S
O364 C372 1.315 . S
Cd365 O364 2.223 . S
Cd365 O368 2.297 . S
Cd365 O369 2.439 . S
Cd365 O375 2.240 . S
Cd366 O367 2.240 . S
Cd366 O374 2.223 . S
Cd366 O376 2.297 . S
Cd366 O377 2.439 . S
O367 Cd366 2.240 . S
O367 C372 1.279 . S
O368 Cd365 2.297 . S
O368 C370 1.247 . S
O369 Cd365 2.439 . S
O369 C370 1.208 . S
C370 O368 1.247 . S
C370 O369 1.208 . S
C371 O376 1.247 . S
C371 O377 1.208 . S
C372 O364 1.315 . S
C372 O367 1.279 . S
C373 O374 1.315 . S
C373 O375 1.279 . S
O374 Cd366 2.223 . S
O374 C373 1.315 . S
O375 Cd365 2.240 . S
O375 C373 1.279 . S
O376 Cd366 2.297 . S
O376 C371 1.247 . S
O377 Cd366 2.439 . S
O377 C371 1.208 . S
O378 Cd379 2.223 . S
O378 C386 1.315 . S
Cd379 O378 2.223 . S
Cd379 O382 2.297 . S
Cd379 O383 2.439 . S
Cd379 O389 2.240 . S
Cd380 O381 2.240 . S
Cd380 O388 2.223 . S
Cd380 O390 2.297 . S
Cd380 O391 2.439 . S
O381 Cd380 2.240 . S
O381 C386 1.279 . S
O382 Cd379 2.297 . S
O382 C384 1.247 . S
O383 Cd379 2.439 . S
O383 C384 1.208 . S
C384 O382 1.247 . S
C384 O383 1.208 . S
C385 O390 1.247 . S
C385 O391 1.208 . S
C386 O378 1.315 . S
C386 O381 1.279 . S
C387 O388 1.315 . S
C387 O389 1.279 . S
O388 Cd380 2.223 . S
O388 C387 1.315 . S
O389 Cd379 2.240 . S
O389 C387 1.279 . S
O390 Cd380 2.297 . S
O390 C385 1.247 . S
O391 Cd380 2.439 . S
O391 C385 1.208 . S
O392 Cd393 2.223 . S
O392 C400 1.315 . S
Cd393 O392 2.223 . S
Cd393 O396 2.297 . S
Cd393 O397 2.439 . S
Cd393 O403 2.240 . S
Cd394 O395 2.240 . S
Cd394 O402 2.223 . S
Cd394 O404 2.297 . S
Cd394 O405 2.439 . S
O395 Cd394 2.240 . S
O395 C400 1.279 . S
O396 Cd393 2.297 . S
O396 C398 1.247 . S
O397 Cd393 2.439 . S
O397 C398 1.208 . S
C398 O396 1.247 . S
C398 O397 1.208 . S
C399 O404 1.247 . S
C399 O405 1.208 . S
C400 O392 1.315 . S
C400 O395 1.279 . S
C401 O402 1.315 . S
C401 O403 1.279 . S
O402 Cd394 2.223 . S
O402 C401 1.315 . S
O403 Cd393 2.240 . S
O403 C401 1.279 . S
O404 Cd394 2.297 . S
O404 C399 1.247 . S
O405 Cd394 2.439 . S
O405 C399 1.208 . S
O406 Cd407 2.223 . S
O406 C414 1.315 . S
Cd407 O406 2.223 . S
Cd407 O410 2.297 . S
Cd407 O411 2.439 . S
Cd407 O417 2.240 . S
Cd408 O409 2.240 . S
Cd408 O416 2.223 . S
Cd408 O418 2.297 . S
Cd408 O419 2.439 . S
O409 Cd408 2.240 . S
O409 C414 1.279 . S
O410 Cd407 2.297 . S
O410 C412 1.247 . S
O411 Cd407 2.439 . S
O411 C412 1.208 . S
C412 O410 1.247 . S
C412 O411 1.208 . S
C413 O418 1.247 . S
C413 O419 1.208 . S
C414 O406 1.315 . S
C414 O409 1.279 . S
C415 O416 1.315 . S
C415 O417 1.279 . S
O416 Cd408 2.223 . S
O416 C415 1.315 . S
O417 Cd407 2.240 . S
O417 C415 1.279 . S
O418 Cd408 2.297 . S
O418 C413 1.247 . S
O419 Cd408 2.439 . S
O419 C413 1.208 . S
O420 Cd421 2.223 . S
O420 C428 1.315 . S
Cd421 O420 2.223 . S
Cd421 O424 2.297 . S
Cd421 O425 2.439 . S
Cd421 O431 2.240 . S
Cd422 O423 2.240 . S
Cd422 O430 2.223 . S
Cd422 O432 2.297 . S
Cd422 O433 2.439 . S
O423 Cd422 2.240 . S
O423 C428 1.279 . S
O424 Cd421 2.297 . S
O424 C426 1.247 . S
O425 Cd421 2.439 . S
O425 C426 1.208 . S
C426 O424 1.247 . S
C426 O425 1.208 . S
C427 O432 1.247 . S
C427 O433 1.208 . S
C428 O420 1.315 . S
C428 O423 1.279 . S
C429 O430 1.315 . S
C429 O431 1.279 . S
O430 Cd422 2.223 . S
O430 C429 1.315 . S
O431 Cd421 2.240 . S
O431 C429 1.279 . S
O432 Cd422 2.297 . S
O432 C427 1.247 . S
O433 Cd422 2.439 . S
O433 C427 1.208 . S
O434 Cd435 2.223 . S
O434 C442 1.315 . S
Cd435 O434 2.223 . S
Cd435 O438 2.297 . S
Cd435 O439 2.439 . S
Cd435 O445 2.240 . S
Cd436 O437 2.240 . S
Cd436 O444 2.223 . S
Cd436 O446 2.297 . S
Cd436 O447 2.439 . S
O437 Cd436 2.240 . S
O437 C442 1.279 . S
O438 Cd435 2.297 . S
O438 C440 1.247 . S
O439 Cd435 2.439 . S
O439 C440 1.208 . S
C440 O438 1.247 . S
C440 O439 1.208 . S
C441 O446 1.247 . S
C441 O447 1.208 . S
C442 O434 1.315 . S
C442 O437 1.279 . S
C443 O444 1.315 . S
C443 O445 1.279 . S
O444 Cd436 2.223 . S
O444 C443 1.315 . S
O445 Cd435 2.240 . S
O445 C443 1.279 . S
O446 Cd436 2.297 . S
O446 C441 1.247 . S
O447 Cd436 2.439 . S
O447 C441 1.208 . S
C448 C449 1.349 . S
C448 C450 1.327 . S
C448 H473 0.950 . S
C449 C448 1.349 . S
C449 C465 1.349 . S
C450 C448 1.327 . S
C450 C469 1.429 . S
C450 H474 0.950 . S
C451 C468 1.574 . S
C451 C470 1.368 . S
C451 H475 0.949 . S
H452 C456 0.949 . S
C453 C454 1.349 . S
C453 C455 1.327 . S
C453 H476 0.950 . S
C454 C453 1.349 . S
C454 C466 1.349 . S
C455 C453 1.327 . S
C455 C471 1.429 . S
C455 H477 0.950 . S
C456 H452 0.949 . S
C456 C464 1.574 . S
C456 C472 1.368 . S
H457 C465 0.950 . S
H458 C463 0.950 . S
H459 C464 0.949 . S
H460 C466 0.950 . S
H461 C467 0.950 . S
H462 C468 0.949 . S
C463 H458 0.950 . S
C463 C465 1.327 . S
C463 C469 1.429 . S
C464 C456 1.574 . S
C464 H459 0.949 . S
C464 C470 1.368 . S
C465 C449 1.349 . S
C465 H457 0.950 . S
C465 C463 1.327 . S
C466 C454 1.349 . S
C466 H460 0.950 . S
C466 C467 1.327 . S
C467 H461 0.950 . S
C467 C466 1.327 . S
C467 C471 1.429 . S
C468 C451 1.574 . S
C468 H462 0.949 . S
C468 C472 1.368 . S
C469 C450 1.429 . S
C469 C463 1.429 . S
C469 C470 1.523 . S
C470 C451 1.368 . S
C470 C464 1.368 . S
C470 C469 1.523 . S
C471 C455 1.429 . S
C471 C467 1.429 . S
C471 C472 1.523 . S
C472 C456 1.368 . S
C472 C468 1.368 . S
C472 C471 1.523 . S
H473 C448 0.950 . S
H474 C450 0.950 . S
H475 C451 0.949 . S
H476 C453 0.950 . S
H477 C455 0.950 . S
C478 C479 1.349 1_655 S
C478 C480 1.327 . S
C478 H503 0.950 . S
C479 C478 1.349 1_455 S
C479 C495 1.349 . S
C480 C478 1.327 . S
C480 C499 1.429 . S
C480 H504 0.950 . S
C481 C498 1.574 . S
C481 C500 1.368 . S
C481 H505 0.949 . S
H482 C486 0.949 . S
C483 C484 1.349 . S
C483 C485 1.327 . S
C483 H506 0.950 . S
C484 C483 1.349 . S
C484 C496 1.349 . S
C485 C483 1.327 . S
C485 C501 1.429 . S
C485 H507 0.950 . S
C486 H482 0.949 . S
C486 C494 1.574 . S
C486 C502 1.368 . S
H487 C495 0.950 . S
H488 C493 0.950 . S
H489 C494 0.949 . S
H490 C496 0.950 . S
H491 C497 0.950 . S
H492 C498 0.949 . S
C493 H488 0.950 . S
C493 C495 1.327 1_655 S
C493 C499 1.429 . S
C494 C486 1.574 . S
C494 H489 0.949 . S
C494 C500 1.368 . S
C495 C479 1.349 . S
C495 H487 0.950 . S
C495 C493 1.327 1_455 S
C496 C484 1.349 . S
C496 H490 0.950 . S
C496 C497 1.327 . S
C497 H491 0.950 . S
C497 C496 1.327 . S
C497 C501 1.429 . S
C498 C481 1.574 . S
C498 H492 0.949 . S
C498 C502 1.368 . S
C499 C480 1.429 . S
C499 C493 1.429 . S
C499 C500 1.523 . S
C500 C481 1.368 . S
C500 C494 1.368 . S
C500 C499 1.523 . S
C501 C485 1.429 . S
C501 C497 1.429 . S
C501 C502 1.523 . S
C502 C486 1.368 . S
C502 C498 1.368 . S
C502 C501 1.523 . S
H503 C478 0.950 . S
H504 C480 0.950 . S
H505 C481 0.949 . S
H506 C483 0.950 . S
H507 C485 0.950 . S
C508 C509 1.349 . S
C508 C510 1.327 . S
C508 H533 0.950 . S
C509 C508 1.349 . S
C509 C525 1.349 . S
C510 C508 1.327 . S
C510 C529 1.429 . S
C510 H534 0.950 . S
C511 C528 1.574 . S
C511 C530 1.368 . S
C511 H535 0.949 . S
H512 C516 0.949 . S
C513 C514 1.349 . S
C513 C515 1.327 . S
C513 H536 0.950 . S
C514 C513 1.349 . S
C514 C526 1.349 . S
C515 C513 1.327 . S
C515 C531 1.429 . S
C515 H537 0.950 . S
C516 H512 0.949 . S
C516 C524 1.574 . S
C516 C532 1.368 . S
H517 C525 0.950 . S
H518 C523 0.950 . S
H519 C524 0.949 . S
H520 C526 0.950 . S
H521 C527 0.950 . S
H522 C528 0.949 . S
C523 H518 0.950 . S
C523 C525 1.327 . S
C523 C529 1.429 . S
C524 C516 1.574 . S
C524 H519 0.949 . S
C524 C530 1.368 . S
C525 C509 1.349 . S
C525 H517 0.950 . S
C525 C523 1.327 . S
C526 C514 1.349 . S
C526 H520 0.950 . S
C526 C527 1.327 . S
C527 H521 0.950 . S
C527 C526 1.327 . S
C527 C531 1.429 . S
C528 C511 1.574 . S
C528 H522 0.949 . S
C528 C532 1.368 . S
C529 C510 1.429 . S
C529 C523 1.429 . S
C529 C530 1.523 . S
C530 C511 1.368 . S
C530 C524 1.368 . S
C530 C529 1.523 . S
C531 C515 1.429 . S
C531 C527 1.429 . S
C531 C532 1.523 . S
C532 C516 1.368 . S
C532 C528 1.368 . S
C532 C531 1.523 . S
H533 C508 0.950 . S
H534 C510 0.950 . S
H535 C511 0.949 . S
H536 C513 0.950 . S
H537 C515 0.950 . S
C538 C539 1.349 . S
C538 C540 1.327 . S
C538 H563 0.950 . S
C539 C538 1.349 . S
C539 C555 1.349 . S
C540 C538 1.327 . S
C540 C559 1.429 . S
C540 H564 0.950 . S
C541 C558 1.574 . S
C541 C560 1.368 . S
C541 H565 0.949 . S
H542 C546 0.949 . S
C543 C544 1.349 . S
C543 C545 1.327 . S
C543 H566 0.950 . S
C544 C543 1.349 . S
C544 C556 1.349 . S
C545 C543 1.327 . S
C545 C561 1.429 . S
C545 H567 0.950 . S
C546 H542 0.949 . S
C546 C554 1.574 . S
C546 C562 1.368 . S
H547 C555 0.950 . S
H548 C553 0.950 . S
H549 C554 0.949 . S
H550 C556 0.950 . S
H551 C557 0.950 . S
H552 C558 0.949 . S
C553 H548 0.950 . S
C553 C555 1.327 . S
C553 C559 1.429 . S
C554 C546 1.574 . S
C554 H549 0.949 . S
C554 C560 1.368 . S
C555 C539 1.349 . S
C555 H547 0.950 . S
C555 C553 1.327 . S
C556 C544 1.349 . S
C556 H550 0.950 . S
C556 C557 1.327 . S
C557 H551 0.950 . S
C557 C556 1.327 . S
C557 C561 1.429 . S
C558 C541 1.574 . S
C558 H552 0.949 . S
C558 C562 1.368 . S
C559 C540 1.429 . S
C559 C553 1.429 . S
C559 C560 1.523 . S
C560 C541 1.368 . S
C560 C554 1.368 . S
C560 C559 1.523 . S
C561 C545 1.429 . S
C561 C557 1.429 . S
C561 C562 1.523 . S
C562 C546 1.368 . S
C562 C558 1.368 . S
C562 C561 1.523 . S
H563 C538 0.950 . S
H564 C540 0.950 . S
H565 C541 0.949 . S
H566 C543 0.950 . S
H567 C545 0.950 . S
C568 C569 1.349 . S
C568 C570 1.327 . S
C568 H593 0.950 . S
C569 C568 1.349 . S
C569 C585 1.349 . S
C570 C568 1.327 . S
C570 C589 1.429 . S
C570 H594 0.950 . S
C571 C588 1.574 . S
C571 C590 1.368 . S
C571 H595 0.949 . S
H572 C576 0.949 . S
C573 C574 1.349 . S
C573 C575 1.327 . S
C573 H596 0.950 . S
C574 C573 1.349 . S
C574 C586 1.349 . S
C575 C573 1.327 . S
C575 C591 1.429 . S
C575 H597 0.950 . S
C576 H572 0.949 . S
C576 C584 1.574 . S
C576 C592 1.368 . S
H577 C585 0.950 . S
H578 C583 0.950 . S
H579 C584 0.949 . S
H580 C586 0.950 . S
H581 C587 0.950 . S
H582 C588 0.949 . S
C583 H578 0.950 . S
C583 C585 1.327 . S
C583 C589 1.429 . S
C584 C576 1.574 . S
C584 H579 0.949 . S
C584 C590 1.368 . S
C585 C569 1.349 . S
C585 H577 0.950 . S
C585 C583 1.327 . S
C586 C574 1.349 . S
C586 H580 0.950 . S
C586 C587 1.327 . S
C587 H581 0.950 . S
C587 C586 1.327 . S
C587 C591 1.429 . S
C588 C571 1.574 . S
C588 H582 0.949 . S
C588 C592 1.368 . S
C589 C570 1.429 . S
C589 C583 1.429 . S
C589 C590 1.523 . S
C590 C571 1.368 . S
C590 C584 1.368 . S
C590 C589 1.523 . S
C591 C575 1.429 . S
C591 C587 1.429 . S
C591 C592 1.523 . S
C592 C576 1.368 . S
C592 C588 1.368 . S
C592 C591 1.523 . S
H593 C568 0.950 . S
H594 C570 0.950 . S
H595 C571 0.949 . S
H596 C573 0.950 . S
H597 C575 0.950 . S
C598 C599 1.349 . S
C598 C600 1.327 . S
C598 H623 0.950 . S
C599 C598 1.349 . S
C599 C615 1.349 . S
C600 C598 1.327 . S
C600 C619 1.429 . S
C600 H624 0.950 . S
C601 C618 1.574 . S
C601 C620 1.368 . S
C601 H625 0.949 . S
H602 C606 0.949 . S
C603 C604 1.349 . S
C603 C605 1.327 . S
C603 H626 0.950 . S
C604 C603 1.349 . S
C604 C616 1.349 . S
C605 C603 1.327 . S
C605 C621 1.429 . S
C605 H627 0.950 . S
C606 H602 0.949 . S
C606 C614 1.574 . S
C606 C622 1.368 . S
H607 C615 0.950 . S
H608 C613 0.950 . S
H609 C614 0.949 . S
H610 C616 0.950 . S
H611 C617 0.950 . S
H612 C618 0.949 . S
C613 H608 0.950 . S
C613 C615 1.327 . S
C613 C619 1.429 . S
C614 C606 1.574 . S
C614 H609 0.949 . S
C614 C620 1.368 . S
C615 C599 1.349 . S
C615 H607 0.950 . S
C615 C613 1.327 . S
C616 C604 1.349 . S
C616 H610 0.950 . S
C616 C617 1.327 . S
C617 H611 0.950 . S
C617 C616 1.327 . S
C617 C621 1.429 . S
C618 C601 1.574 . S
C618 H612 0.949 . S
C618 C622 1.368 . S
C619 C600 1.429 . S
C619 C613 1.429 . S
C619 C620 1.523 . S
C620 C601 1.368 . S
C620 C614 1.368 . S
C620 C619 1.523 . S
C621 C605 1.429 . S
C621 C617 1.429 . S
C621 C622 1.523 . S
C622 C606 1.368 . S
C622 C618 1.368 . S
C622 C621 1.523 . S
H623 C598 0.950 . S
H624 C600 0.950 . S
H625 C601 0.949 . S
H626 C603 0.950 . S
H627 C605 0.950 . S
C628 C629 1.349 . S
C628 C630 1.327 . S
C628 H653 0.950 . S
C629 C628 1.349 . S
C629 C645 1.349 . S
C630 C628 1.327 . S
C630 C649 1.429 . S
C630 H654 0.950 . S
C631 C648 1.574 . S
C631 C650 1.368 . S
C631 H655 0.949 . S
H632 C636 0.949 . S
C633 C634 1.349 . S
C633 C635 1.327 . S
C633 H656 0.950 . S
C634 C633 1.349 . S
C634 C646 1.349 . S
C635 C633 1.327 . S
C635 C651 1.429 . S
C635 H657 0.950 . S
C636 H632 0.949 . S
C636 C644 1.574 . S
C636 C652 1.368 . S
H637 C645 0.950 . S
H638 C643 0.950 . S
H639 C644 0.949 . S
H640 C646 0.950 . S
H641 C647 0.950 . S
H642 C648 0.949 . S
C643 H638 0.950 . S
C643 C645 1.327 . S
C643 C649 1.429 . S
C644 C636 1.574 . S
C644 H639 0.949 . S
C644 C650 1.368 . S
C645 C629 1.349 . S
C645 H637 0.950 . S
C645 C643 1.327 . S
C646 C634 1.349 . S
C646 H640 0.950 . S
C646 C647 1.327 . S
C647 H641 0.950 . S
C647 C646 1.327 . S
C647 C651 1.429 . S
C648 C631 1.574 . S
C648 H642 0.949 . S
C648 C652 1.368 . S
C649 C630 1.429 . S
C649 C643 1.429 . S
C649 C650 1.523 . S
C650 C631 1.368 . S
C650 C644 1.368 . S
C650 C649 1.523 . S
C651 C635 1.429 . S
C651 C647 1.429 . S
C651 C652 1.523 . S
C652 C636 1.368 . S
C652 C648 1.368 . S
C652 C651 1.523 . S
H653 C628 0.950 . S
H654 C630 0.950 . S
H655 C631 0.949 . S
H656 C633 0.950 . S
H657 C635 0.950 . S
C658 C659 1.349 1_655 S
C658 C660 1.327 . S
C658 H683 0.950 . S
C659 C658 1.349 1_455 S
C659 C675 1.349 . S
C660 C658 1.327 . S
C660 C679 1.429 . S
C660 H684 0.950 . S
C661 C678 1.574 . S
C661 C680 1.368 . S
C661 H685 0.949 . S
H662 C666 0.949 . S
C663 C664 1.349 . S
C663 C665 1.327 . S
C663 H686 0.950 . S
C664 C663 1.349 . S
C664 C676 1.349 . S
C665 C663 1.327 . S
C665 C681 1.429 . S
C665 H687 0.950 . S
C666 H662 0.949 . S
C666 C674 1.574 . S
C666 C682 1.368 . S
H667 C675 0.950 . S
H668 C673 0.950 . S
H669 C674 0.949 . S
H670 C676 0.950 . S
H671 C677 0.950 . S
H672 C678 0.949 . S
C673 H668 0.950 . S
C673 C675 1.327 1_655 S
C673 C679 1.429 . S
C674 C666 1.574 . S
C674 H669 0.949 . S
C674 C680 1.368 . S
C675 C659 1.349 . S
C675 H667 0.950 . S
C675 C673 1.327 1_455 S
C676 C664 1.349 . S
C676 H670 0.950 . S
C676 C677 1.327 . S
C677 H671 0.950 . S
C677 C676 1.327 . S
C677 C681 1.429 . S
C678 C661 1.574 . S
C678 H672 0.949 . S
C678 C682 1.368 . S
C679 C660 1.429 . S
C679 C673 1.429 . S
C679 C680 1.523 . S
C680 C661 1.368 . S
C680 C674 1.368 . S
C680 C679 1.523 . S
C681 C665 1.429 . S
C681 C677 1.429 . S
C681 C682 1.523 . S
C682 C666 1.368 . S
C682 C678 1.368 . S
C682 C681 1.523 . S
H683 C658 0.950 . S
H684 C660 0.950 . S
H685 C661 0.949 . S
H686 C663 0.950 . S
H687 C665 0.950 . S
C688 C689 1.349 . S
C688 C690 1.327 . S
C688 H713 0.950 . S
C689 C688 1.349 . S
C689 C705 1.349 . S
C690 C688 1.327 . S
C690 C709 1.429 . S
C690 H714 0.950 . S
C691 C708 1.574 . S
C691 C710 1.368 . S
C691 H715 0.949 . S
H692 C696 0.949 . S
C693 C694 1.349 . S
C693 C695 1.327 . S
C693 H716 0.950 . S
C694 C693 1.349 . S
C694 C706 1.349 . S
C695 C693 1.327 . S
C695 C711 1.429 . S
C695 H717 0.950 . S
C696 H692 0.949 . S
C696 C704 1.574 . S
C696 C712 1.368 . S
H697 C705 0.950 . S
H698 C703 0.950 . S
H699 C704 0.949 . S
H700 C706 0.950 . S
H701 C707 0.950 . S
H702 C708 0.949 . S
C703 H698 0.950 . S
C703 C705 1.327 . S
C703 C709 1.429 . S
C704 C696 1.574 . S
C704 H699 0.949 . S
C704 C710 1.368 . S
C705 C689 1.349 . S
C705 H697 0.950 . S
C705 C703 1.327 . S
C706 C694 1.349 . S
C706 H700 0.950 . S
C706 C707 1.327 . S
C707 H701 0.950 . S
C707 C706 1.327 . S
C707 C711 1.429 . S
C708 C691 1.574 . S
C708 H702 0.949 . S
C708 C712 1.368 . S
C709 C690 1.429 . S
C709 C703 1.429 . S
C709 C710 1.523 . S
C710 C691 1.368 . S
C710 C704 1.368 . S
C710 C709 1.523 . S
C711 C695 1.429 . S
C711 C707 1.429 . S
C711 C712 1.523 . S
C712 C696 1.368 . S
C712 C708 1.368 . S
C712 C711 1.523 . S
H713 C688 0.950 . S
H714 C690 0.950 . S
H715 C691 0.949 . S
H716 C693 0.950 . S
H717 C695 0.950 . S
C718 C719 1.349 . S
C718 C720 1.327 . S
C718 H743 0.950 . S
C719 C718 1.349 . S
C719 C735 1.349 . S
C720 C718 1.327 . S
C720 C739 1.429 . S
C720 H744 0.950 . S
C721 C738 1.574 . S
C721 C740 1.368 . S
C721 H745 0.949 . S
H722 C726 0.949 . S
C723 C724 1.349 1_455 S
C723 C725 1.327 . S
C723 H746 0.950 . S
C724 C723 1.349 1_655 S
C724 C736 1.349 . S
C725 C723 1.327 . S
C725 C741 1.429 . S
C725 H747 0.950 . S
C726 H722 0.949 . S
C726 C734 1.574 . S
C726 C742 1.368 . S
H727 C735 0.950 . S
H728 C733 0.950 . S
H729 C734 0.949 . S
H730 C736 0.950 . S
H731 C737 0.950 . S
H732 C738 0.949 . S
C733 H728 0.950 . S
C733 C735 1.327 . S
C733 C739 1.429 . S
C734 C726 1.574 . S
C734 H729 0.949 . S
C734 C740 1.368 . S
C735 C719 1.349 . S
C735 H727 0.950 . S
C735 C733 1.327 . S
C736 C724 1.349 . S
C736 H730 0.950 . S
C736 C737 1.327 1_655 S
C737 H731 0.950 . S
C737 C736 1.327 1_455 S
C737 C741 1.429 . S
C738 C721 1.574 . S
C738 H732 0.949 . S
C738 C742 1.368 . S
C739 C720 1.429 . S
C739 C733 1.429 . S
C739 C740 1.523 . S
C740 C721 1.368 . S
C740 C734 1.368 . S
C740 C739 1.523 . S
C741 C725 1.429 . S
C741 C737 1.429 . S
C741 C742 1.523 . S
C742 C726 1.368 . S
C742 C738 1.368 . S
C742 C741 1.523 . S
H743 C718 0.950 . S
H744 C720 0.950 . S
H745 C721 0.949 . S
H746 C723 0.950 . S
H747 C725 0.950 . S
C748 C749 1.349 . S
C748 C750 1.327 . S
C748 H773 0.950 . S
C749 C748 1.349 . S
C749 C765 1.349 . S
C750 C748 1.327 . S
C750 C769 1.429 . S
C750 H774 0.950 . S
C751 C768 1.574 . S
C751 C770 1.368 . S
C751 H775 0.949 . S
H752 C756 0.949 . S
C753 C754 1.349 . S
C753 C755 1.327 . S
C753 H776 0.950 . S
C754 C753 1.349 . S
C754 C766 1.349 . S
C755 C753 1.327 . S
C755 C771 1.429 . S
C755 H777 0.950 . S
C756 H752 0.949 . S
C756 C764 1.574 . S
C756 C772 1.368 . S
H757 C765 0.950 . S
H758 C763 0.950 . S
H759 C764 0.949 . S
H760 C766 0.950 . S
H761 C767 0.950 . S
H762 C768 0.949 . S
C763 H758 0.950 . S
C763 C765 1.327 . S
C763 C769 1.429 . S
C764 C756 1.574 . S
C764 H759 0.949 . S
C764 C770 1.368 . S
C765 C749 1.349 . S
C765 H757 0.950 . S
C765 C763 1.327 . S
C766 C754 1.349 . S
C766 H760 0.950 . S
C766 C767 1.327 . S
C767 H761 0.950 . S
C767 C766 1.327 . S
C767 C771 1.429 . S
C768 C751 1.574 . S
C768 H762 0.949 . S
C768 C772 1.368 . S
C769 C750 1.429 . S
C769 C763 1.429 . S
C769 C770 1.523 . S
C770 C751 1.368 . S
C770 C764 1.368 . S
C770 C769 1.523 . S
C771 C755 1.429 . S
C771 C767 1.429 . S
C771 C772 1.523 . S
C772 C756 1.368 . S
C772 C768 1.368 . S
C772 C771 1.523 . S
H773 C748 0.950 . S
H774 C750 0.950 . S
H775 C751 0.949 . S
H776 C753 0.950 . S
H777 C755 0.950 . S
C778 C779 1.349 . S
C778 C780 1.327 . S
C778 H803 0.950 . S
C779 C778 1.349 . S
C779 C795 1.349 . S
C780 C778 1.327 . S
C780 C799 1.429 . S
C780 H804 0.950 . S
C781 C798 1.574 . S
C781 C800 1.368 . S
C781 H805 0.949 . S
H782 C786 0.949 . S
C783 C784 1.349 . S
C783 C785 1.327 . S
C783 H806 0.950 . S
C784 C783 1.349 . S
C784 C796 1.349 . S
C785 C783 1.327 . S
C785 C801 1.429 . S
C785 H807 0.950 . S
C786 H782 0.949 . S
C786 C794 1.574 . S
C786 C802 1.368 . S
H787 C795 0.950 . S
H788 C793 0.950 . S
H789 C794 0.949 . S
H790 C796 0.950 . S
H791 C797 0.950 . S
H792 C798 0.949 . S
C793 H788 0.950 . S
C793 C795 1.327 . S
C793 C799 1.429 . S
C794 C786 1.574 . S
C794 H789 0.949 . S
C794 C800 1.368 . S
C795 C779 1.349 . S
C795 H787 0.950 . S
C795 C793 1.327 . S
C796 C784 1.349 . S
C796 H790 0.950 . S
C796 C797 1.327 . S
C797 H791 0.950 . S
C797 C796 1.327 . S
C797 C801 1.429 . S
C798 C781 1.574 . S
C798 H792 0.949 . S
C798 C802 1.368 . S
C799 C780 1.429 . S
C799 C793 1.429 . S
C799 C800 1.523 . S
C800 C781 1.368 . S
C800 C794 1.368 . S
C800 C799 1.523 . S
C801 C785 1.429 . S
C801 C797 1.429 . S
C801 C802 1.523 . S
C802 C786 1.368 . S
C802 C798 1.368 . S
C802 C801 1.523 . S
H803 C778 0.950 . S
H804 C780 0.950 . S
H805 C781 0.949 . S
H806 C783 0.950 . S
H807 C785 0.950 . S
C808 C809 1.349 . S
C808 C810 1.327 . S
C808 H833 0.950 . S
C809 C808 1.349 . S
C809 C825 1.349 . S
C810 C808 1.327 . S
C810 C829 1.429 . S
C810 H834 0.950 . S
C811 C828 1.574 . S
C811 C830 1.368 . S
C811 H835 0.949 . S
H812 C816 0.949 . S
C813 C814 1.349 . S
C813 C815 1.327 . S
C813 H836 0.950 . S
C814 C813 1.349 . S
C814 C826 1.349 . S
C815 C813 1.327 . S
C815 C831 1.429 . S
C815 H837 0.950 . S
C816 H812 0.949 . S
C816 C824 1.574 . S
C816 C832 1.368 . S
H817 C825 0.950 . S
H818 C823 0.950 . S
H819 C824 0.949 . S
H820 C826 0.950 . S
H821 C827 0.950 . S
H822 C828 0.949 . S
C823 H818 0.950 . S
C823 C825 1.327 . S
C823 C829 1.429 . S
C824 C816 1.574 . S
C824 H819 0.949 . S
C824 C830 1.368 . S
C825 C809 1.349 . S
C825 H817 0.950 . S
C825 C823 1.327 . S
C826 C814 1.349 . S
C826 H820 0.950 . S
C826 C827 1.327 . S
C827 H821 0.950 . S
C827 C826 1.327 . S
C827 C831 1.429 . S
C828 C811 1.574 . S
C828 H822 0.949 . S
C828 C832 1.368 . S
C829 C810 1.429 . S
C829 C823 1.429 . S
C829 C830 1.523 . S
C830 C811 1.368 . S
C830 C824 1.368 . S
C830 C829 1.523 . S
C831 C815 1.429 . S
C831 C827 1.429 . S
C831 C832 1.523 . S
C832 C816 1.368 . S
C832 C828 1.368 . S
C832 C831 1.523 . S
H833 C808 0.950 . S
H834 C810 0.950 . S
H835 C811 0.949 . S
H836 C813 0.950 . S
H837 C815 0.950 . S
C838 C839 1.349 . S
C838 C840 1.327 . S
C838 H863 0.950 . S
C839 C838 1.349 . S
C839 C855 1.349 . S
C840 C838 1.327 . S
C840 C859 1.429 . S
C840 H864 0.950 . S
C841 C858 1.574 . S
C841 C860 1.368 . S
C841 H865 0.949 . S
H842 C846 0.949 . S
C843 C844 1.349 . S
C843 C845 1.327 . S
C843 H866 0.950 . S
C844 C843 1.349 . S
C844 C856 1.349 . S
C845 C843 1.327 . S
C845 C861 1.429 . S
C845 H867 0.950 . S
C846 H842 0.949 . S
C846 C854 1.574 . S
C846 C862 1.368 . S
H847 C855 0.950 . S
H848 C853 0.950 . S
H849 C854 0.949 . S
H850 C856 0.950 . S
H851 C857 0.950 . S
H852 C858 0.949 . S
C853 H848 0.950 . S
C853 C855 1.327 . S
C853 C859 1.429 . S
C854 C846 1.574 . S
C854 H849 0.949 . S
C854 C860 1.368 . S
C855 C839 1.349 . S
C855 H847 0.950 . S
C855 C853 1.327 . S
C856 C844 1.349 . S
C856 H850 0.950 . S
C856 C857 1.327 . S
C857 H851 0.950 . S
C857 C856 1.327 . S
C857 C861 1.429 . S
C858 C841 1.574 . S
C858 H852 0.949 . S
C858 C862 1.368 . S
C859 C840 1.429 . S
C859 C853 1.429 . S
C859 C860 1.523 . S
C860 C841 1.368 . S
C860 C854 1.368 . S
C860 C859 1.523 . S
C861 C845 1.429 . S
C861 C857 1.429 . S
C861 C862 1.523 . S
C862 C846 1.368 . S
C862 C858 1.368 . S
C862 C861 1.523 . S
H863 C838 0.950 . S
H864 C840 0.950 . S
H865 C841 0.949 . S
H866 C843 0.950 . S
H867 C845 0.950 . S
C868 C869 1.349 . S
C868 C870 1.327 . S
C868 H893 0.950 . S
C869 C868 1.349 . S
C869 C885 1.349 . S
C870 C868 1.327 . S
C870 C889 1.429 . S
C870 H894 0.950 . S
C871 C888 1.574 . S
C871 C890 1.368 . S
C871 H895 0.949 . S
H872 C876 0.949 . S
C873 C874 1.349 . S
C873 C875 1.327 . S
C873 H896 0.950 . S
C874 C873 1.349 . S
C874 C886 1.349 . S
C875 C873 1.327 . S
C875 C891 1.429 . S
C875 H897 0.950 . S
C876 H872 0.949 . S
C876 C884 1.574 . S
C876 C892 1.368 . S
H877 C885 0.950 . S
H878 C883 0.950 . S
H879 C884 0.949 . S
H880 C886 0.950 . S
H881 C887 0.950 . S
H882 C888 0.949 . S
C883 H878 0.950 . S
C883 C885 1.327 . S
C883 C889 1.429 . S
C884 C876 1.574 . S
C884 H879 0.949 . S
C884 C890 1.368 . S
C885 C869 1.349 . S
C885 H877 0.950 . S
C885 C883 1.327 . S
C886 C874 1.349 . S
C886 H880 0.950 . S
C886 C887 1.327 . S
C887 H881 0.950 . S
C887 C886 1.327 . S
C887 C891 1.429 . S
C888 C871 1.574 . S
C888 H882 0.949 . S
C888 C892 1.368 . S
C889 C870 1.429 . S
C889 C883 1.429 . S
C889 C890 1.523 . S
C890 C871 1.368 . S
C890 C884 1.368 . S
C890 C889 1.523 . S
C891 C875 1.429 . S
C891 C887 1.429 . S
C891 C892 1.523 . S
C892 C876 1.368 . S
C892 C888 1.368 . S
C892 C891 1.523 . S
H893 C868 0.950 . S
H894 C870 0.950 . S
H895 C871 0.949 . S
H896 C873 0.950 . S
H897 C875 0.950 . S
C898 C899 1.349 . S
C898 C900 1.327 . S
C898 H923 0.950 . S
C899 C898 1.349 . S
C899 C915 1.349 . S
C900 C898 1.327 . S
C900 C919 1.429 . S
C900 H924 0.950 . S
C901 C918 1.574 . S
C901 C920 1.368 . S
C901 H925 0.949 . S
H902 C906 0.949 . S
C903 C904 1.349 . S
C903 C905 1.327 1_655 S
C903 H926 0.950 . S
C904 C903 1.349 . S
C904 C916 1.349 1_655 S
C905 C903 1.327 1_455 S
C905 C921 1.429 . S
C905 H927 0.950 . S
C906 H902 0.949 . S
C906 C914 1.574 . S
C906 C922 1.368 . S
H907 C915 0.950 . S
H908 C913 0.950 . S
H909 C914 0.949 . S
H910 C916 0.938 1_655 S
H911 C917 0.950 . S
H912 C918 0.949 . S
C913 H908 0.950 . S
C913 C915 1.327 . S
C913 C919 1.429 . S
C914 C906 1.574 . S
C914 H909 0.949 . S
C914 C920 1.368 . S
C915 C899 1.349 . S
C915 H907 0.950 . S
C915 C913 1.327 . S
C916 C904 1.349 1_455 S
C916 H910 0.938 1_455 S
C916 C917 1.327 . S
C917 H911 0.950 . S
C917 C916 1.327 . S
C917 C921 1.429 . S
C918 C901 1.574 . S
C918 H912 0.949 . S
C918 C922 1.368 . S
C919 C900 1.429 . S
C919 C913 1.429 . S
C919 C920 1.523 . S
C920 C901 1.368 . S
C920 C914 1.368 . S
C920 C919 1.523 . S
C921 C905 1.429 . S
C921 C917 1.429 . S
C921 C922 1.523 . S
C922 C906 1.368 . S
C922 C918 1.368 . S
C922 C921 1.523 . S
H923 C898 0.950 . S
H924 C900 0.950 . S
H925 C901 0.949 . S
H926 C903 0.950 . S
H927 C905 0.950 . S
C928 C929 1.349 . S
C928 C930 1.327 . S
C928 H953 0.950 . S
C929 C928 1.349 . S
C929 C945 1.349 . S
C930 C928 1.327 . S
C930 C949 1.429 . S
C930 H954 0.950 . S
C931 C948 1.574 . S
C931 C950 1.368 . S
C931 H955 0.949 . S
H932 C936 0.949 . S
C933 C934 1.349 . S
C933 C935 1.327 . S
C933 H956 0.950 . S
C934 C933 1.349 . S
C934 C946 1.349 . S
C935 C933 1.327 . S
C935 C951 1.429 . S
C935 H957 0.950 . S
C936 H932 0.949 . S
C936 C944 1.574 . S
C936 C952 1.368 . S
H937 C945 0.950 . S
H938 C943 0.950 . S
H939 C944 0.949 . S
H940 C946 0.950 . S
H941 C947 0.950 . S
H942 C948 0.949 . S
C943 H938 0.950 . S
C943 C945 1.327 . S
C943 C949 1.429 . S
C944 C936 1.574 . S
C944 H939 0.949 . S
C944 C950 1.368 . S
C945 C929 1.349 . S
C945 H937 0.950 . S
C945 C943 1.327 . S
C946 C934 1.349 . S
C946 H940 0.950 . S
C946 C947 1.327 . S
C947 H941 0.950 . S
C947 C946 1.327 . S
C947 C951 1.429 . S
C948 C931 1.574 . S
C948 H942 0.949 . S
C948 C952 1.368 . S
C949 C930 1.429 . S
C949 C943 1.429 . S
C949 C950 1.523 . S
C950 C931 1.368 . S
C950 C944 1.368 . S
C950 C949 1.523 . S
C951 C935 1.429 . S
C951 C947 1.429 . S
C951 C952 1.523 . S
C952 C936 1.368 . S
C952 C948 1.368 . S
C952 C951 1.523 . S
H953 C928 0.950 . S
H954 C930 0.950 . S
H955 C931 0.949 . S
H956 C933 0.950 . S
H957 C935 0.950 . S
C958 C959 1.349 . S
C958 C960 1.327 . S
C958 H983 0.950 . S
C959 C958 1.349 . S
C959 C975 1.349 . S
C960 C958 1.327 . S
C960 C979 1.429 . S
C960 H984 0.950 . S
C961 C978 1.574 . S
C961 C980 1.368 . S
C961 H985 0.949 . S
H962 C966 0.949 . S
C963 C964 1.349 . S
C963 C965 1.327 . S
C963 H986 0.950 . S
C964 C963 1.349 . S
C964 C976 1.349 . S
C965 C963 1.327 . S
C965 C981 1.429 . S
C965 H987 0.950 . S
C966 H962 0.949 . S
C966 C974 1.574 . S
C966 C982 1.368 . S
H967 C975 0.950 . S
H968 C973 0.950 . S
H969 C974 0.949 . S
H970 C976 0.950 . S
H971 C977 0.950 . S
H972 C978 0.949 . S
C973 H968 0.950 . S
C973 C975 1.327 . S
C973 C979 1.429 . S
C974 C966 1.574 . S
C974 H969 0.949 . S
C974 C980 1.368 . S
C975 C959 1.349 . S
C975 H967 0.950 . S
C975 C973 1.327 . S
C976 C964 1.349 . S
C976 H970 0.950 . S
C976 C977 1.327 . S
C977 H971 0.950 . S
C977 C976 1.327 . S
C977 C981 1.429 . S
C978 C961 1.574 . S
C978 H972 0.949 . S
C978 C982 1.368 . S
C979 C960 1.429 . S
C979 C973 1.429 . S
C979 C980 1.523 . S
C980 C961 1.368 . S
C980 C974 1.368 . S
C980 C979 1.523 . S
C981 C965 1.429 . S
C981 C977 1.429 . S
C981 C982 1.523 . S
C982 C966 1.368 . S
C982 C978 1.368 . S
C982 C981 1.523 . S
H983 C958 0.950 . S
H984 C960 0.950 . S
H985 C961 0.949 . S
H986 C963 0.950 . S
H987 C965 0.950 . S
C988 C989 1.349 . S
C988 C990 1.327 . S
C988 H1013 0.950 . S
C989 C988 1.349 . S
C989 C1005 1.349 . S
C990 C988 1.327 . S
C990 C1009 1.429 . S
C990 H1014 0.950 . S
C991 C1008 1.574 . S
C991 C1010 1.368 . S
C991 H1015 0.949 . S
H992 C996 0.949 . S
C993 C994 1.349 . S
C993 C995 1.327 . S
C993 H1016 0.950 . S
C994 C993 1.349 . S
C994 C1006 1.349 . S
C995 C993 1.327 . S
C995 C1011 1.429 . S
C995 H1017 0.950 . S
C996 H992 0.949 . S
C996 C1004 1.574 . S
C996 C1012 1.368 . S
H997 C1005 0.950 . S
H998 C1003 0.950 . S
H999 C1004 0.949 . S
H1000 C1006 0.950 . S
H1001 C1007 0.950 . S
H1002 C1008 0.949 . S
C1003 H998 0.950 . S
C1003 C1005 1.327 . S
C1003 C1009 1.429 . S
C1004 C996 1.574 . S
C1004 H999 0.949 . S
C1004 C1010 1.368 . S
C1005 C989 1.349 . S
C1005 H997 0.950 . S
C1005 C1003 1.327 . S
C1006 C994 1.349 . S
C1006 H1000 0.950 . S
C1006 C1007 1.327 . S
C1007 H1001 0.950 . S
C1007 C1006 1.327 . S
C1007 C1011 1.429 . S
C1008 C991 1.574 . S
C1008 H1002 0.949 . S
C1008 C1012 1.368 . S
C1009 C990 1.429 . S
C1009 C1003 1.429 . S
C1009 C1010 1.523 . S
C1010 C991 1.368 . S
C1010 C1004 1.368 . S
C1010 C1009 1.523 . S
C1011 C995 1.429 . S
C1011 C1007 1.429 . S
C1011 C1012 1.523 . S
C1012 C996 1.368 . S
C1012 C1008 1.368 . S
C1012 C1011 1.523 . S
H1013 C988 0.950 . S
H1014 C990 0.950 . S
H1015 C991 0.949 . S
H1016 C993 0.950 . S
H1017 C995 0.950 . S
C1018 C1019 1.349 . S
C1018 C1020 1.327 . S
C1018 H1043 0.950 . S
C1019 C1018 1.349 . S
C1019 C1035 1.349 . S
C1020 C1018 1.327 . S
C1020 C1039 1.429 . S
C1020 H1044 0.950 . S
C1021 C1038 1.574 . S
C1021 C1040 1.368 . S
C1021 H1045 0.949 . S
H1022 C1026 0.949 . S
C1023 C1024 1.349 1_455 S
C1023 C1025 1.327 . S
C1023 H1046 0.950 1_455 S
C1024 C1023 1.349 1_655 S
C1024 C1036 1.349 . S
C1025 C1023 1.327 . S
C1025 C1041 1.429 . S
C1025 H1047 0.950 . S
C1026 H1022 0.949 . S
C1026 C1034 1.574 . S
C1026 C1042 1.368 . S
H1027 C1035 0.950 . S
H1028 C1033 0.950 . S
H1029 C1034 0.949 . S
H1030 C1036 0.950 . S
H1031 C1037 0.950 . S
H1032 C1038 0.949 . S
C1033 H1028 0.950 . S
C1033 C1035 1.327 . S
C1033 C1039 1.429 . S
C1034 C1026 1.574 . S
C1034 H1029 0.949 . S
C1034 C1040 1.368 . S
C1035 C1019 1.349 . S
C1035 H1027 0.950 . S
C1035 C1033 1.327 . S
C1036 C1024 1.349 . S
C1036 H1030 0.950 . S
C1036 C1037 1.327 1_655 S
C1037 H1031 0.950 . S
C1037 C1036 1.327 1_455 S
C1037 C1041 1.429 . S
C1038 C1021 1.574 . S
C1038 H1032 0.949 . S
C1038 C1042 1.368 . S
C1039 C1020 1.429 . S
C1039 C1033 1.429 . S
C1039 C1040 1.523 . S
C1040 C1021 1.368 . S
C1040 C1034 1.368 . S
C1040 C1039 1.523 . S
C1041 C1025 1.429 . S
C1041 C1037 1.429 . S
C1041 C1042 1.523 . S
C1042 C1026 1.368 . S
C1042 C1038 1.368 . S
C1042 C1041 1.523 . S
H1043 C1018 0.950 . S
H1044 C1020 0.950 . S
H1045 C1021 0.949 . S
H1046 C1023 0.950 1_655 S
H1047 C1025 0.950 . S
C1048 C1049 1.349 . S
C1048 C1050 1.327 . S
C1048 H1073 0.950 . S
C1049 C1048 1.349 . S
C1049 C1065 1.349 . S
C1050 C1048 1.327 . S
C1050 C1069 1.429 . S
C1050 H1074 0.950 . S
C1051 C1068 1.574 . S
C1051 C1070 1.368 . S
C1051 H1075 0.949 . S
H1052 C1056 0.949 . S
C1053 C1054 1.349 . S
C1053 C1055 1.327 . S
C1053 H1076 0.950 . S
C1054 C1053 1.349 . S
C1054 C1066 1.349 . S
C1055 C1053 1.327 . S
C1055 C1071 1.429 . S
C1055 H1077 0.950 . S
C1056 H1052 0.949 . S
C1056 C1064 1.574 . S
C1056 C1072 1.368 . S
H1057 C1065 0.950 . S
H1058 C1063 0.950 . S
H1059 C1064 0.949 . S
H1060 C1066 0.950 . S
H1061 C1067 0.950 . S
H1062 C1068 0.949 . S
C1063 H1058 0.950 . S
C1063 C1065 1.327 . S
C1063 C1069 1.429 . S
C1064 C1056 1.574 . S
C1064 H1059 0.949 . S
C1064 C1070 1.368 . S
C1065 C1049 1.349 . S
C1065 H1057 0.950 . S
C1065 C1063 1.327 . S
C1066 C1054 1.349 . S
C1066 H1060 0.950 . S
C1066 C1067 1.327 . S
C1067 H1061 0.950 . S
C1067 C1066 1.327 . S
C1067 C1071 1.429 . S
C1068 C1051 1.574 . S
C1068 H1062 0.949 . S
C1068 C1072 1.368 . S
C1069 C1050 1.429 . S
C1069 C1063 1.429 . S
C1069 C1070 1.523 . S
C1070 C1051 1.368 . S
C1070 C1064 1.368 . S
C1070 C1069 1.523 . S
C1071 C1055 1.429 . S
C1071 C1067 1.429 . S
C1071 C1072 1.523 . S
C1072 C1056 1.368 . S
C1072 C1068 1.368 . S
C1072 C1071 1.523 . S
H1073 C1048 0.950 . S
H1074 C1050 0.950 . S
H1075 C1051 0.949 . S
H1076 C1053 0.950 . S
H1077 C1055 0.950 . S
C1078 C1079 1.349 . S
C1078 C1080 1.327 . S
C1078 H1103 0.950 . S
C1079 C1078 1.349 . S
C1079 C1095 1.349 . S
C1080 C1078 1.327 . S
C1080 C1099 1.429 . S
C1080 H1104 0.950 . S
C1081 C1098 1.574 . S
C1081 C1100 1.368 . S
C1081 H1105 0.949 . S
H1082 C1086 0.949 . S
C1083 C1084 1.349 1_455 S
C1083 C1085 1.327 . S
C1083 H1106 0.950 . S
C1084 C1083 1.349 1_655 S
C1084 C1096 1.349 . S
C1085 C1083 1.327 . S
C1085 C1101 1.429 . S
C1085 H1107 0.950 . S
C1086 H1082 0.949 . S
C1086 C1094 1.574 . S
C1086 C1102 1.368 . S
H1087 C1095 0.950 . S
H1088 C1093 0.950 . S
H1089 C1094 0.949 . S
H1090 C1096 0.950 . S
H1091 C1097 0.950 . S
H1092 C1098 0.949 . S
C1093 H1088 0.950 . S
C1093 C1095 1.327 . S
C1093 C1099 1.429 . S
C1094 C1086 1.574 . S
C1094 H1089 0.949 . S
C1094 C1100 1.368 . S
C1095 C1079 1.349 . S
C1095 H1087 0.950 . S
C1095 C1093 1.327 . S
C1096 C1084 1.349 . S
C1096 H1090 0.950 . S
C1096 C1097 1.327 1_655 S
C1097 H1091 0.950 . S
C1097 C1096 1.327 1_455 S
C1097 C1101 1.429 . S
C1098 C1081 1.574 . S
C1098 H1092 0.949 . S
C1098 C1102 1.368 . S
C1099 C1080 1.429 . S
C1099 C1093 1.429 . S
C1099 C1100 1.523 . S
C1100 C1081 1.368 . S
C1100 C1094 1.368 . S
C1100 C1099 1.523 . S
C1101 C1085 1.429 . S
C1101 C1097 1.429 . S
C1101 C1102 1.523 . S
C1102 C1086 1.368 . S
C1102 C1098 1.368 . S
C1102 C1101 1.523 . S
H1103 C1078 0.950 . S
H1104 C1080 0.950 . S
H1105 C1081 0.949 . S
H1106 C1083 0.950 . S
H1107 C1085 0.950 . S
C1108 C1109 1.349 . S
C1108 C1110 1.327 . S
C1108 H1133 0.950 . S
C1109 C1108 1.349 . S
C1109 C1125 1.349 . S
C1110 C1108 1.327 . S
C1110 C1129 1.429 . S
C1110 H1134 0.950 . S
C1111 C1128 1.574 . S
C1111 C1130 1.368 . S
C1111 H1135 0.949 . S
H1112 C1116 0.949 . S
C1113 C1114 1.349 . S
C1113 C1115 1.327 . S
C1113 H1136 0.950 . S
C1114 C1113 1.349 . S
C1114 C1126 1.349 . S
C1115 C1113 1.327 . S
C1115 C1131 1.429 . S
C1115 H1137 0.950 . S
C1116 H1112 0.949 . S
C1116 C1124 1.574 . S
C1116 C1132 1.368 . S
H1117 C1125 0.950 . S
H1118 C1123 0.950 . S
H1119 C1124 0.949 . S
H1120 C1126 0.950 . S
H1121 C1127 0.950 . S
H1122 C1128 0.949 . S
C1123 H1118 0.950 . S
C1123 C1125 1.327 . S
C1123 C1129 1.429 . S
C1124 C1116 1.574 . S
C1124 H1119 0.949 . S
C1124 C1130 1.368 . S
C1125 C1109 1.349 . S
C1125 H1117 0.950 . S
C1125 C1123 1.327 . S
C1126 C1114 1.349 . S
C1126 H1120 0.950 . S
C1126 C1127 1.327 . S
C1127 H1121 0.950 . S
C1127 C1126 1.327 . S
C1127 C1131 1.429 . S
C1128 C1111 1.574 . S
C1128 H1122 0.949 . S
C1128 C1132 1.368 . S
C1129 C1110 1.429 . S
C1129 C1123 1.429 . S
C1129 C1130 1.523 . S
C1130 C1111 1.368 . S
C1130 C1124 1.368 . S
C1130 C1129 1.523 . S
C1131 C1115 1.429 . S
C1131 C1127 1.429 . S
C1131 C1132 1.523 . S
C1132 C1116 1.368 . S
C1132 C1128 1.368 . S
C1132 C1131 1.523 . S
H1133 C1108 0.950 . S
H1134 C1110 0.950 . S
H1135 C1111 0.949 . S
H1136 C1113 0.950 . S
H1137 C1115 0.950 . S
C1138 C1139 1.349 . S
C1138 C1140 1.327 . S
C1138 H1163 0.950 . S
C1139 C1138 1.349 . S
C1139 C1155 1.349 . S
C1140 C1138 1.327 . S
C1140 C1159 1.429 . S
C1140 H1164 0.950 . S
C1141 C1158 1.574 . S
C1141 C1160 1.368 . S
C1141 H1165 0.949 . S
H1142 C1146 0.949 . S
C1143 C1144 1.349 . S
C1143 C1145 1.327 . S
C1143 H1166 0.950 . S
C1144 C1143 1.349 . S
C1144 C1156 1.349 . S
C1145 C1143 1.327 . S
C1145 C1161 1.429 . S
C1145 H1167 0.950 . S
C1146 H1142 0.949 . S
C1146 C1154 1.574 . S
C1146 C1162 1.368 . S
H1147 C1155 0.950 . S
H1148 C1153 0.950 . S
H1149 C1154 0.949 . S
H1150 C1156 0.950 . S
H1151 C1157 0.950 . S
H1152 C1158 0.949 . S
C1153 H1148 0.950 . S
C1153 C1155 1.327 . S
C1153 C1159 1.429 . S
C1154 C1146 1.574 . S
C1154 H1149 0.949 . S
C1154 C1160 1.368 . S
C1155 C1139 1.349 . S
C1155 H1147 0.950 . S
C1155 C1153 1.327 . S
C1156 C1144 1.349 . S
C1156 H1150 0.950 . S
C1156 C1157 1.327 . S
C1157 H1151 0.950 . S
C1157 C1156 1.327 . S
C1157 C1161 1.429 . S
C1158 C1141 1.574 . S
C1158 H1152 0.949 . S
C1158 C1162 1.368 . S
C1159 C1140 1.429 . S
C1159 C1153 1.429 . S
C1159 C1160 1.523 . S
C1160 C1141 1.368 . S
C1160 C1154 1.368 . S
C1160 C1159 1.523 . S
C1161 C1145 1.429 . S
C1161 C1157 1.429 . S
C1161 C1162 1.523 . S
C1162 C1146 1.368 . S
C1162 C1158 1.368 . S
C1162 C1161 1.523 . S
H1163 C1138 0.950 . S
H1164 C1140 0.950 . S
H1165 C1141 0.949 . S
H1166 C1143 0.950 . S
H1167 C1145 0.950 . S
C1168 C1169 1.349 . S
C1168 C1170 1.327 . S
C1168 H1193 0.950 . S
C1169 C1168 1.349 . S
C1169 C1185 1.349 . S
C1170 C1168 1.327 . S
C1170 C1189 1.429 . S
C1170 H1194 0.950 . S
C1171 C1188 1.574 . S
C1171 C1190 1.368 . S
C1171 H1195 0.949 . S
H1172 C1176 0.949 . S
C1173 C1174 1.349 . S
C1173 C1175 1.327 . S
C1173 H1196 0.950 . S
C1174 C1173 1.349 . S
C1174 C1186 1.349 . S
C1175 C1173 1.327 . S
C1175 C1191 1.429 . S
C1175 H1197 0.950 . S
C1176 H1172 0.949 . S
C1176 C1184 1.574 . S
C1176 C1192 1.368 . S
H1177 C1185 0.950 . S
H1178 C1183 0.950 . S
H1179 C1184 0.949 . S
H1180 C1186 0.950 . S
H1181 C1187 0.950 . S
H1182 C1188 0.949 . S
C1183 H1178 0.950 . S
C1183 C1185 1.327 . S
C1183 C1189 1.429 . S
C1184 C1176 1.574 . S
C1184 H1179 0.949 . S
C1184 C1190 1.368 . S
C1185 C1169 1.349 . S
C1185 H1177 0.950 . S
C1185 C1183 1.327 . S
C1186 C1174 1.349 . S
C1186 H1180 0.950 . S
C1186 C1187 1.327 . S
C1187 H1181 0.950 . S
C1187 C1186 1.327 . S
C1187 C1191 1.429 . S
C1188 C1171 1.574 . S
C1188 H1182 0.949 . S
C1188 C1192 1.368 . S
C1189 C1170 1.429 . S
C1189 C1183 1.429 . S
C1189 C1190 1.523 . S
C1190 C1171 1.368 . S
C1190 C1184 1.368 . S
C1190 C1189 1.523 . S
C1191 C1175 1.429 . S
C1191 C1187 1.429 . S
C1191 C1192 1.523 . S
C1192 C1176 1.368 . S
C1192 C1188 1.368 . S
C1192 C1191 1.523 . S
H1193 C1168 0.950 . S
H1194 C1170 0.950 . S
H1195 C1171 0.949 . S
H1196 C1173 0.950 . S
H1197 C1175 0.950 . S
C1198 C1199 1.349 . S
C1198 C1200 1.327 . S
C1198 H1223 0.950 . S
C1199 C1198 1.349 . S
C1199 C1215 1.349 . S
C1200 C1198 1.327 . S
C1200 C1219 1.429 . S
C1200 H1224 0.950 . S
C1201 C1218 1.574 . S
C1201 C1220 1.368 . S
C1201 H1225 0.949 . S
H1202 C1206 0.949 . S
C1203 C1204 1.349 . S
C1203 C1205 1.327 . S
C1203 H1226 0.950 . S
C1204 C1203 1.349 . S
C1204 C1216 1.349 . S
C1205 C1203 1.327 . S
C1205 C1221 1.429 . S
C1205 H1227 0.950 . S
C1206 H1202 0.949 . S
C1206 C1214 1.574 . S
C1206 C1222 1.368 . S
H1207 C1215 0.950 . S
H1208 C1213 0.950 . S
H1209 C1214 0.949 . S
H1210 C1216 0.950 . S
H1211 C1217 0.950 . S
H1212 C1218 0.949 . S
C1213 H1208 0.950 . S
C1213 C1215 1.327 . S
C1213 C1219 1.429 . S
C1214 C1206 1.574 . S
C1214 H1209 0.949 . S
C1214 C1220 1.368 . S
C1215 C1199 1.349 . S
C1215 H1207 0.950 . S
C1215 C1213 1.327 . S
C1216 C1204 1.349 . S
C1216 H1210 0.950 . S
C1216 C1217 1.327 . S
C1217 H1211 0.950 . S
C1217 C1216 1.327 . S
C1217 C1221 1.429 . S
C1218 C1201 1.574 . S
C1218 H1212 0.949 . S
C1218 C1222 1.368 . S
C1219 C1200 1.429 . S
C1219 C1213 1.429 . S
C1219 C1220 1.523 . S
C1220 C1201 1.368 . S
C1220 C1214 1.368 . S
C1220 C1219 1.523 . S
C1221 C1205 1.429 . S
C1221 C1217 1.429 . S
C1221 C1222 1.523 . S
C1222 C1206 1.368 . S
C1222 C1218 1.368 . S
C1222 C1221 1.523 . S
H1223 C1198 0.950 . S
H1224 C1200 0.950 . S
H1225 C1201 0.949 . S
H1226 C1203 0.950 . S
H1227 C1205 0.950 . S
C1228 C1229 1.349 . S
C1228 C1230 1.327 . S
C1228 H1253 0.950 . S
C1229 C1228 1.349 . S
C1229 C1245 1.349 . S
C1230 C1228 1.327 . S
C1230 C1249 1.429 . S
C1230 H1254 0.950 . S
C1231 C1248 1.574 . S
C1231 C1250 1.368 . S
C1231 H1255 0.949 . S
H1232 C1236 0.949 . S
C1233 C1234 1.349 . S
C1233 C1235 1.327 . S
C1233 H1256 0.950 . S
C1234 C1233 1.349 . S
C1234 C1246 1.349 . S
C1235 C1233 1.327 . S
C1235 C1251 1.429 . S
C1235 H1257 0.950 . S
C1236 H1232 0.949 . S
C1236 C1244 1.574 . S
C1236 C1252 1.368 . S
H1237 C1245 0.950 . S
H1238 C1243 0.950 . S
H1239 C1244 0.949 . S
H1240 C1246 0.950 . S
H1241 C1247 0.950 . S
H1242 C1248 0.949 . S
C1243 H1238 0.950 . S
C1243 C1245 1.327 . S
C1243 C1249 1.429 . S
C1244 C1236 1.574 . S
C1244 H1239 0.949 . S
C1244 C1250 1.368 . S
C1245 C1229 1.349 . S
C1245 H1237 0.950 . S
C1245 C1243 1.327 . S
C1246 C1234 1.349 . S
C1246 H1240 0.950 . S
C1246 C1247 1.327 . S
C1247 H1241 0.950 . S
C1247 C1246 1.327 . S
C1247 C1251 1.429 . S
C1248 C1231 1.574 . S
C1248 H1242 0.949 . S
C1248 C1252 1.368 . S
C1249 C1230 1.429 . S
C1249 C1243 1.429 . S
C1249 C1250 1.523 . S
C1250 C1231 1.368 . S
C1250 C1244 1.368 . S
C1250 C1249 1.523 . S
C1251 C1235 1.429 . S
C1251 C1247 1.429 . S
C1251 C1252 1.523 . S
C1252 C1236 1.368 . S
C1252 C1248 1.368 . S
C1252 C1251 1.523 . S
H1253 C1228 0.950 . S
H1254 C1230 0.950 . S
H1255 C1231 0.949 . S
H1256 C1233 0.950 . S
H1257 C1235 0.950 . S
C1258 C1259 1.349 1_655 S
C1258 C1260 1.327 . S
C1258 H1283 0.950 1_655 S
C1259 C1258 1.349 1_455 S
C1259 C1275 1.349 . S
C1260 C1258 1.327 . S
C1260 C1279 1.429 . S
C1260 H1284 0.950 . S
C1261 C1278 1.574 . S
C1261 C1280 1.368 . S
C1261 H1285 0.949 . S
H1262 C1266 0.949 . S
C1263 C1264 1.349 . S
C1263 C1265 1.327 . S
C1263 H1286 0.950 . S
C1264 C1263 1.349 . S
C1264 C1276 1.349 . S
C1265 C1263 1.327 . S
C1265 C1281 1.429 . S
C1265 H1287 0.950 . S
C1266 H1262 0.949 . S
C1266 C1274 1.574 . S
C1266 C1282 1.368 . S
H1267 C1275 0.950 . S
H1268 C1273 0.950 . S
H1269 C1274 0.949 . S
H1270 C1276 0.950 . S
H1271 C1277 0.950 . S
H1272 C1278 0.949 . S
C1273 H1268 0.950 . S
C1273 C1275 1.327 1_655 S
C1273 C1279 1.429 . S
C1274 C1266 1.574 . S
C1274 H1269 0.949 . S
C1274 C1280 1.368 . S
C1275 C1259 1.349 . S
C1275 H1267 0.950 . S
C1275 C1273 1.327 1_455 S
C1276 C1264 1.349 . S
C1276 H1270 0.950 . S
C1276 C1277 1.327 . S
C1277 H1271 0.950 . S
C1277 C1276 1.327 . S
C1277 C1281 1.429 . S
C1278 C1261 1.574 . S
C1278 H1272 0.949 . S
C1278 C1282 1.368 . S
C1279 C1260 1.429 . S
C1279 C1273 1.429 . S
C1279 C1280 1.523 . S
C1280 C1261 1.368 . S
C1280 C1274 1.368 . S
C1280 C1279 1.523 . S
C1281 C1265 1.429 . S
C1281 C1277 1.429 . S
C1281 C1282 1.523 . S
C1282 C1266 1.368 . S
C1282 C1278 1.368 . S
C1282 C1281 1.523 . S
H1283 C1258 0.950 1_455 S
H1284 C1260 0.950 . S
H1285 C1261 0.949 . S
H1286 C1263 0.950 . S
H1287 C1265 0.950 . S
C1288 C1289 1.349 . S
C1288 C1290 1.327 . S
C1288 H1313 0.950 . S
C1289 C1288 1.349 . S
C1289 C1305 1.349 . S
C1290 C1288 1.327 . S
C1290 C1309 1.429 . S
C1290 H1314 0.950 . S
C1291 C1308 1.574 . S
C1291 C1310 1.368 . S
C1291 H1315 0.949 . S
H1292 C1296 0.949 . S
C1293 C1294 1.349 . S
C1293 C1295 1.327 . S
C1293 H1316 0.950 . S
C1294 C1293 1.349 . S
C1294 C1306 1.349 . S
C1295 C1293 1.327 . S
C1295 C1311 1.429 . S
C1295 H1317 0.950 . S
C1296 H1292 0.949 . S
C1296 C1304 1.574 . S
C1296 C1312 1.368 . S
H1297 C1305 0.950 . S
H1298 C1303 0.950 . S
H1299 C1304 0.949 . S
H1300 C1306 0.950 . S
H1301 C1307 0.950 . S
H1302 C1308 0.949 . S
C1303 H1298 0.950 . S
C1303 C1305 1.327 . S
C1303 C1309 1.429 . S
C1304 C1296 1.574 . S
C1304 H1299 0.949 . S
C1304 C1310 1.368 . S
C1305 C1289 1.349 . S
C1305 H1297 0.950 . S
C1305 C1303 1.327 . S
C1306 C1294 1.349 . S
C1306 H1300 0.950 . S
C1306 C1307 1.327 . S
C1307 H1301 0.950 . S
C1307 C1306 1.327 . S
C1307 C1311 1.429 . S
C1308 C1291 1.574 . S
C1308 H1302 0.949 . S
C1308 C1312 1.368 . S
C1309 C1290 1.429 . S
C1309 C1303 1.429 . S
C1309 C1310 1.523 . S
C1310 C1291 1.368 . S
C1310 C1304 1.368 . S
C1310 C1309 1.523 . S
C1311 C1295 1.429 . S
C1311 C1307 1.429 . S
C1311 C1312 1.523 . S
C1312 C1296 1.368 . S
C1312 C1308 1.368 . S
C1312 C1311 1.523 . S
H1313 C1288 0.950 . S
H1314 C1290 0.950 . S
H1315 C1291 0.949 . S
H1316 C1293 0.950 . S
H1317 C1295 0.950 . S
C1318 C1319 1.349 . S
C1318 C1320 1.327 1_455 S
C1318 H1343 0.950 . S
C1319 C1318 1.349 . S
C1319 C1335 1.349 1_455 S
C1320 C1318 1.327 1_655 S
C1320 C1339 1.429 . S
C1320 H1344 0.950 . S
C1321 C1338 1.574 . S
C1321 C1340 1.368 . S
C1321 H1345 0.949 . S
H1322 C1326 0.949 . S
C1323 C1324 1.349 . S
C1323 C1325 1.327 . S
C1323 H1346 0.950 . S
C1324 C1323 1.349 . S
C1324 C1336 1.349 . S
C1325 C1323 1.327 . S
C1325 C1341 1.429 . S
C1325 H1347 0.950 . S
C1326 H1322 0.949 . S
C1326 C1334 1.574 . S
C1326 C1342 1.368 . S
H1327 C1335 0.950 . S
H1328 C1333 0.950 . S
H1329 C1334 0.949 . S
H1330 C1336 0.950 . S
H1331 C1337 0.950 . S
H1332 C1338 0.949 . S
C1333 H1328 0.950 . S
C1333 C1335 1.327 . S
C1333 C1339 1.429 . S
C1334 C1326 1.574 . S
C1334 H1329 0.949 . S
C1334 C1340 1.368 . S
C1335 C1319 1.349 1_655 S
C1335 H1327 0.950 . S
C1335 C1333 1.327 . S
C1336 C1324 1.349 . S
C1336 H1330 0.950 . S
C1336 C1337 1.327 . S
C1337 H1331 0.950 . S
C1337 C1336 1.327 . S
C1337 C1341 1.429 . S
C1338 C1321 1.574 . S
C1338 H1332 0.949 . S
C1338 C1342 1.368 . S
C1339 C1320 1.429 . S
C1339 C1333 1.429 . S
C1339 C1340 1.523 . S
C1340 C1321 1.368 . S
C1340 C1334 1.368 . S
C1340 C1339 1.523 . S
C1341 C1325 1.429 . S
C1341 C1337 1.429 . S
C1341 C1342 1.523 . S
C1342 C1326 1.368 . S
C1342 C1338 1.368 . S
C1342 C1341 1.523 . S
H1343 C1318 0.950 . S
H1344 C1320 0.950 . S
H1345 C1321 0.949 . S
H1346 C1323 0.950 . S
H1347 C1325 0.950 . S
C1348 C1349 1.349 . S
C1348 C1350 1.327 . S
C1348 H1373 0.950 . S
C1349 C1348 1.349 . S
C1349 C1365 1.349 . S
C1350 C1348 1.327 . S
C1350 C1369 1.429 . S
C1350 H1374 0.950 . S
C1351 C1368 1.574 . S
C1351 C1370 1.368 . S
C1351 H1375 0.949 . S
H1352 C1356 0.949 . S
C1353 C1354 1.349 . S
C1353 C1355 1.327 . S
C1353 H1376 0.950 . S
C1354 C1353 1.349 . S
C1354 C1366 1.349 . S
C1355 C1353 1.327 . S
C1355 C1371 1.429 . S
C1355 H1377 0.950 . S
C1356 H1352 0.949 . S
C1356 C1364 1.574 . S
C1356 C1372 1.368 . S
H1357 C1365 0.950 . S
H1358 C1363 0.950 . S
H1359 C1364 0.949 . S
H1360 C1366 0.950 . S
H1361 C1367 0.950 . S
H1362 C1368 0.949 . S
C1363 H1358 0.950 . S
C1363 C1365 1.327 . S
C1363 C1369 1.429 . S
C1364 C1356 1.574 . S
C1364 H1359 0.949 . S
C1364 C1370 1.368 . S
C1365 C1349 1.349 . S
C1365 H1357 0.950 . S
C1365 C1363 1.327 . S
C1366 C1354 1.349 . S
C1366 H1360 0.950 . S
C1366 C1367 1.327 . S
C1367 H1361 0.950 . S
C1367 C1366 1.327 . S
C1367 C1371 1.429 . S
C1368 C1351 1.574 . S
C1368 H1362 0.949 . S
C1368 C1372 1.368 . S
C1369 C1350 1.429 . S
C1369 C1363 1.429 . S
C1369 C1370 1.523 . S
C1370 C1351 1.368 . S
C1370 C1364 1.368 . S
C1370 C1369 1.523 . S
C1371 C1355 1.429 . S
C1371 C1367 1.429 . S
C1371 C1372 1.523 . S
C1372 C1356 1.368 . S
C1372 C1368 1.368 . S
C1372 C1371 1.523 . S
H1373 C1348 0.950 . S
H1374 C1350 0.950 . S
H1375 C1351 0.949 . S
H1376 C1353 0.950 . S
H1377 C1355 0.950 . S
C1378 C1379 1.349 . S
C1378 C1380 1.327 . S
C1378 H1403 0.950 . S
C1379 C1378 1.349 . S
C1379 C1395 1.349 . S
C1380 C1378 1.327 . S
C1380 C1399 1.429 . S
C1380 H1404 0.950 . S
C1381 C1398 1.574 . S
C1381 C1400 1.368 . S
C1381 H1405 0.949 . S
H1382 C1386 0.949 . S
C1383 C1384 1.349 . S
C1383 C1385 1.327 . S
C1383 H1406 0.950 . S
C1384 C1383 1.349 . S
C1384 C1396 1.349 . S
C1385 C1383 1.327 . S
C1385 C1401 1.429 . S
C1385 H1407 0.950 . S
C1386 H1382 0.949 . S
C1386 C1394 1.574 . S
C1386 C1402 1.368 . S
H1387 C1395 0.950 . S
H1388 C1393 0.950 . S
H1389 C1394 0.949 . S
H1390 C1396 0.950 . S
H1391 C1397 0.950 . S
H1392 C1398 0.949 . S
C1393 H1388 0.950 . S
C1393 C1395 1.327 . S
C1393 C1399 1.429 . S
C1394 C1386 1.574 . S
C1394 H1389 0.949 . S
C1394 C1400 1.368 . S
C1395 C1379 1.349 . S
C1395 H1387 0.950 . S
C1395 C1393 1.327 . S
C1396 C1384 1.349 . S
C1396 H1390 0.950 . S
C1396 C1397 1.327 . S
C1397 H1391 0.950 . S
C1397 C1396 1.327 . S
C1397 C1401 1.429 . S
C1398 C1381 1.574 . S
C1398 H1392 0.949 . S
C1398 C1402 1.368 . S
C1399 C1380 1.429 . S
C1399 C1393 1.429 . S
C1399 C1400 1.523 . S
C1400 C1381 1.368 . S
C1400 C1394 1.368 . S
C1400 C1399 1.523 . S
C1401 C1385 1.429 . S
C1401 C1397 1.429 . S
C1401 C1402 1.523 . S
C1402 C1386 1.368 . S
C1402 C1398 1.368 . S
C1402 C1401 1.523 . S
H1403 C1378 0.950 . S
H1404 C1380 0.950 . S
H1405 C1381 0.949 . S
H1406 C1383 0.950 . S
H1407 C1385 0.950 . S
C1408 C1409 1.349 . S
C1408 C1410 1.327 . S
C1408 H1433 0.950 . S
C1409 C1408 1.349 . S
C1409 C1425 1.349 . S
C1410 C1408 1.327 . S
C1410 C1429 1.429 . S
C1410 H1434 0.950 . S
C1411 C1428 1.574 . S
C1411 C1430 1.368 . S
C1411 H1435 0.949 . S
H1412 C1416 0.949 . S
C1413 C1414 1.349 . S
C1413 C1415 1.327 . S
C1413 H1436 0.950 . S
C1414 C1413 1.349 . S
C1414 C1426 1.349 . S
C1415 C1413 1.327 . S
C1415 C1431 1.429 . S
C1415 H1437 0.950 . S
C1416 H1412 0.949 . S
C1416 C1424 1.574 . S
C1416 C1432 1.368 . S
H1417 C1425 0.950 . S
H1418 C1423 0.950 . S
H1419 C1424 0.949 . S
H1420 C1426 0.950 . S
H1421 C1427 0.950 . S
H1422 C1428 0.949 . S
C1423 H1418 0.950 . S
C1423 C1425 1.327 . S
C1423 C1429 1.429 . S
C1424 C1416 1.574 . S
C1424 H1419 0.949 . S
C1424 C1430 1.368 . S
C1425 C1409 1.349 . S
C1425 H1417 0.950 . S
C1425 C1423 1.327 . S
C1426 C1414 1.349 . S
C1426 H1420 0.950 . S
C1426 C1427 1.327 . S
C1427 H1421 0.950 . S
C1427 C1426 1.327 . S
C1427 C1431 1.429 . S
C1428 C1411 1.574 . S
C1428 H1422 0.949 . S
C1428 C1432 1.368 . S
C1429 C1410 1.429 . S
C1429 C1423 1.429 . S
C1429 C1430 1.523 . S
C1430 C1411 1.368 . S
C1430 C1424 1.368 . S
C1430 C1429 1.523 . S
C1431 C1415 1.429 . S
C1431 C1427 1.429 . S
C1431 C1432 1.523 . S
C1432 C1416 1.368 . S
C1432 C1428 1.368 . S
C1432 C1431 1.523 . S
H1433 C1408 0.950 . S
H1434 C1410 0.950 . S
H1435 C1411 0.949 . S
H1436 C1413 0.950 . S
H1437 C1415 0.950 . S
C1438 C1439 1.349 . S
C1438 C1440 1.327 1_565 S
C1438 H1463 0.950 1_565 S
C1439 C1438 1.349 . S
C1439 C1455 1.349 . S
C1440 C1438 1.327 1_545 S
C1440 C1459 1.429 1_545 S
C1440 H1464 0.950 . S
C1441 C1458 1.574 . S
C1441 C1460 1.368 1_655 S
C1441 H1465 0.949 . S
H1442 C1446 0.949 . S
C1443 C1444 1.349 . S
C1443 C1445 1.327 1_545 S
C1443 H1466 0.950 1_545 S
C1444 C1443 1.349 . S
C1444 C1456 1.349 . S
C1445 C1443 1.327 1_565 S
C1445 C1461 1.429 1_565 S
C1445 H1467 0.950 . S
C1446 H1442 0.949 . S
C1446 C1454 1.574 . S
C1446 C1462 1.368 1_455 S
H1447 C1455 0.950 . S
H1448 C1453 0.950 . S
H1449 C1454 0.949 . S
H1450 C1456 0.950 . S
H1451 C1457 0.950 . S
H1452 C1458 0.949 . S
C1453 H1448 0.950 . S
C1453 C1455 1.327 . S
C1453 C1459 1.429 . S
C1454 C1446 1.574 . S
C1454 H1449 0.949 . S
C1454 C1460 1.368 1_545 S
C1455 C1439 1.349 . S
C1455 H1447 0.950 . S
C1455 C1453 1.327 . S
C1456 C1444 1.349 . S
C1456 H1450 0.950 . S
C1456 C1457 1.327 . S
C1457 H1451 0.950 . S
C1457 C1456 1.327 . S
C1457 C1461 1.429 . S
C1458 C1441 1.574 . S
C1458 H1452 0.949 . S
C1458 C1462 1.368 1_565 S
C1459 C1440 1.429 1_565 S
C1459 C1453 1.429 . S
C1459 C1460 1.523 . S
C1460 C1441 1.368 1_455 S
C1460 C1454 1.368 1_565 S
C1460 C1459 1.523 . S
C1461 C1445 1.429 1_545 S
C1461 C1457 1.429 . S
C1461 C1462 1.523 . S
C1462 C1446 1.368 1_655 S
C1462 C1458 1.368 1_545 S
C1462 C1461 1.523 . S
H1463 C1438 0.950 1_545 S
H1464 C1440 0.950 . S
H1465 C1441 0.949 . S
H1466 C1443 0.950 1_565 S
H1467 C1445 0.950 . S
C1468 C1469 1.349 . S
C1468 C1470 1.327 . S
C1468 H1493 0.950 . S
C1469 C1468 1.349 . S
C1469 C1485 1.349 . S
C1470 C1468 1.327 . S
C1470 C1489 1.429 . S
C1470 H1494 0.950 . S
C1471 C1488 1.574 . S
C1471 C1490 1.368 . S
C1471 H1495 0.949 . S
H1472 C1476 0.949 . S
C1473 C1474 1.349 . S
C1473 C1475 1.327 . S
C1473 H1496 0.950 . S
C1474 C1473 1.349 . S
C1474 C1486 1.349 . S
C1475 C1473 1.327 . S
C1475 C1491 1.429 . S
C1475 H1497 0.950 . S
C1476 H1472 0.949 . S
C1476 C1484 1.574 . S
C1476 C1492 1.368 . S
H1477 C1485 0.950 . S
H1478 C1483 0.950 . S
H1479 C1484 0.949 . S
H1480 C1486 0.950 . S
H1481 C1487 0.950 . S
H1482 C1488 0.949 . S
C1483 H1478 0.950 . S
C1483 C1485 1.327 . S
C1483 C1489 1.429 . S
C1484 C1476 1.574 . S
C1484 H1479 0.949 . S
C1484 C1490 1.368 . S
C1485 C1469 1.349 . S
C1485 H1477 0.950 . S
C1485 C1483 1.327 . S
C1486 C1474 1.349 . S
C1486 H1480 0.950 . S
C1486 C1487 1.327 . S
C1487 H1481 0.950 . S
C1487 C1486 1.327 . S
C1487 C1491 1.429 . S
C1488 C1471 1.574 . S
C1488 H1482 0.949 . S
C1488 C1492 1.368 . S
C1489 C1470 1.429 . S
C1489 C1483 1.429 . S
C1489 C1490 1.523 . S
C1490 C1471 1.368 . S
C1490 C1484 1.368 . S
C1490 C1489 1.523 . S
C1491 C1475 1.429 . S
C1491 C1487 1.429 . S
C1491 C1492 1.523 . S
C1492 C1476 1.368 . S
C1492 C1488 1.368 . S
C1492 C1491 1.523 . S
H1493 C1468 0.950 . S
H1494 C1470 0.950 . S
H1495 C1471 0.949 . S
H1496 C1473 0.950 . S
H1497 C1475 0.950 . S
C1498 C1499 1.349 . S
C1498 C1500 1.327 . S
C1498 H1523 0.950 . S
C1499 C1498 1.349 . S
C1499 C1515 1.349 . S
C1500 C1498 1.327 . S
C1500 C1519 1.429 . S
C1500 H1524 0.950 1_545 S
C1501 C1518 1.574 1_554 S
C1501 C1520 1.368 . S
C1501 H1525 0.949 . S
H1502 C1506 0.949 . S
C1503 C1504 1.349 . S
C1503 C1505 1.327 . S
C1503 H1526 0.950 . S
C1504 C1503 1.349 . S
C1504 C1516 1.349 . S
C1505 C1503 1.327 . S
C1505 C1521 1.429 . S
C1505 H1527 0.950 1_565 S
C1506 H1502 0.949 . S
C1506 C1514 1.574 1_556 S
C1506 C1522 1.368 . S
H1507 C1515 0.950 . S
H1508 C1513 0.950 . S
H1509 C1514 0.949 . S
H1510 C1516 0.950 . S
H1511 C1517 0.950 . S
H1512 C1518 0.949 . S
C1513 H1508 0.950 . S
C1513 C1515 1.327 . S
C1513 C1519 1.429 . S
C1514 C1506 1.574 1_554 S
C1514 H1509 0.949 . S
C1514 C1520 1.368 1_565 S
C1515 C1499 1.349 . S
C1515 H1507 0.950 . S
C1515 C1513 1.327 . S
C1516 C1504 1.349 . S
C1516 H1510 0.950 . S
C1516 C1517 1.327 . S
C1517 H1511 0.950 . S
C1517 C1516 1.327 . S
C1517 C1521 1.429 . S
C1518 C1501 1.574 1_556 S
C1518 H1512 0.949 . S
C1518 C1522 1.368 1_545 S
C1519 C1500 1.429 . S
C1519 C1513 1.429 . S
C1519 C1520 1.523 . S
C1520 C1501 1.368 . S
C1520 C1514 1.368 1_545 S
C1520 C1519 1.523 . S
C1521 C1505 1.429 . S
C1521 C1517 1.429 . S
C1521 C1522 1.523 . S
C1522 C1506 1.368 . S
C1522 C1518 1.368 1_565 S
C1522 C1521 1.523 . S
H1523 C1498 0.950 . S
H1524 C1500 0.950 1_565 S
H1525 C1501 0.949 . S
H1526 C1503 0.950 . S
H1527 C1505 0.950 1_545 S
C1528 C1529 1.349 . S
C1528 C1530 1.327 . S
C1528 H1553 0.950 . S
C1529 C1528 1.349 . S
C1529 C1545 1.349 . S
C1530 C1528 1.327 . S
C1530 C1549 1.429 . S
C1530 H1554 0.950 . S
C1531 C1548 1.574 . S
C1531 C1550 1.368 . S
C1531 H1555 0.949 . S
H1532 C1536 0.949 . S
C1533 C1534 1.349 . S
C1533 C1535 1.327 . S
C1533 H1556 0.950 . S
C1534 C1533 1.349 . S
C1534 C1546 1.349 . S
C1535 C1533 1.327 . S
C1535 C1551 1.429 . S
C1535 H1557 0.950 . S
C1536 H1532 0.949 . S
C1536 C1544 1.574 . S
C1536 C1552 1.368 . S
H1537 C1545 0.950 . S
H1538 C1543 0.950 . S
H1539 C1544 0.949 . S
H1540 C1546 0.950 . S
H1541 C1547 0.950 . S
H1542 C1548 0.949 . S
C1543 H1538 0.950 . S
C1543 C1545 1.327 . S
C1543 C1549 1.429 . S
C1544 C1536 1.574 . S
C1544 H1539 0.949 . S
C1544 C1550 1.368 . S
C1545 C1529 1.349 . S
C1545 H1537 0.950 . S
C1545 C1543 1.327 . S
C1546 C1534 1.349 . S
C1546 H1540 0.950 . S
C1546 C1547 1.327 . S
C1547 H1541 0.950 . S
C1547 C1546 1.327 . S
C1547 C1551 1.429 . S
C1548 C1531 1.574 . S
C1548 H1542 0.949 . S
C1548 C1552 1.368 . S
C1549 C1530 1.429 . S
C1549 C1543 1.429 . S
C1549 C1550 1.523 . S
C1550 C1531 1.368 . S
C1550 C1544 1.368 . S
C1550 C1549 1.523 . S
C1551 C1535 1.429 . S
C1551 C1547 1.429 . S
C1551 C1552 1.523 . S
C1552 C1536 1.368 . S
C1552 C1548 1.368 . S
C1552 C1551 1.523 . S
H1553 C1528 0.950 . S
H1554 C1530 0.950 . S
H1555 C1531 0.949 . S
H1556 C1533 0.950 . S
H1557 C1535 0.950 . S
C1558 C1559 1.349 . S
C1558 C1560 1.327 . S
C1558 H1583 0.950 1_565 S
C1559 C1558 1.349 . S
C1559 C1575 1.349 . S
C1560 C1558 1.327 . S
C1560 C1579 1.428 . S
C1560 H1584 0.951 1_565 S
C1561 C1578 1.574 . S
C1561 C1580 1.368 . S
C1561 H1585 0.949 . S
H1562 C1566 0.949 . S
C1563 C1564 1.349 . S
C1563 C1565 1.327 . S
C1563 H1586 0.950 1_545 S
C1564 C1563 1.349 . S
C1564 C1576 1.349 . S
C1565 C1563 1.327 . S
C1565 C1581 1.428 . S
C1565 H1587 0.951 1_545 S
C1566 H1562 0.949 . S
C1566 C1574 1.574 . S
C1566 C1582 1.368 . S
H1567 C1575 0.950 . S
H1568 C1573 0.950 . S
H1569 C1574 0.949 . S
H1570 C1576 0.950 . S
H1571 C1577 0.950 . S
H1572 C1578 0.949 . S
C1573 H1568 0.950 . S
C1573 C1575 1.327 . S
C1573 C1579 1.429 . S
C1574 C1566 1.574 . S
C1574 H1569 0.949 . S
C1574 C1580 1.368 1_545 S
C1575 C1559 1.349 . S
C1575 H1567 0.950 . S
C1575 C1573 1.327 . S
C1576 C1564 1.349 . S
C1576 H1570 0.950 . S
C1576 C1577 1.327 . S
C1577 H1571 0.950 . S
C1577 C1576 1.327 . S
C1577 C1581 1.429 . S
C1578 C1561 1.574 . S
C1578 H1572 0.949 . S
C1578 C1582 1.368 1_565 S
C1579 C1560 1.428 . S
C1579 C1573 1.429 . S
C1579 C1580 1.523 . S
C1580 C1561 1.368 . S
C1580 C1574 1.368 1_565 S
C1580 C1579 1.523 . S
C1581 C1565 1.428 . S
C1581 C1577 1.429 . S
C1581 C1582 1.523 . S
C1582 C1566 1.368 . S
C1582 C1578 1.368 1_545 S
C1582 C1581 1.523 . S
H1583 C1558 0.950 1_545 S
H1584 C1560 0.951 1_545 S
H1585 C1561 0.949 . S
H1586 C1563 0.950 1_565 S
H1587 C1565 0.951 1_565 S
C1588 C1589 1.349 . S
C1588 C1590 1.327 . S
C1588 H1613 0.950 . S
C1589 C1588 1.349 . S
C1589 C1605 1.349 . S
C1590 C1588 1.327 . S
C1590 C1609 1.429 . S
C1590 H1614 0.950 . S
C1591 C1608 1.574 . S
C1591 C1610 1.368 . S
C1591 H1615 0.949 . S
H1592 C1596 0.949 . S
C1593 C1594 1.349 . S
C1593 C1595 1.327 . S
C1593 H1616 0.950 . S
C1594 C1593 1.349 . S
C1594 C1606 1.349 . S
C1595 C1593 1.327 . S
C1595 C1611 1.429 . S
C1595 H1617 0.950 . S
C1596 H1592 0.949 . S
C1596 C1604 1.574 . S
C1596 C1612 1.368 . S
H1597 C1605 0.950 . S
H1598 C1603 0.950 . S
H1599 C1604 0.949 . S
H1600 C1606 0.950 . S
H1601 C1607 0.950 . S
H1602 C1608 0.949 . S
C1603 H1598 0.950 . S
C1603 C1605 1.327 . S
C1603 C1609 1.429 . S
C1604 C1596 1.574 . S
C1604 H1599 0.949 . S
C1604 C1610 1.368 . S
C1605 C1589 1.349 . S
C1605 H1597 0.950 . S
C1605 C1603 1.327 . S
C1606 C1594 1.349 . S
C1606 H1600 0.950 . S
C1606 C1607 1.327 . S
C1607 H1601 0.950 . S
C1607 C1606 1.327 . S
C1607 C1611 1.429 . S
C1608 C1591 1.574 . S
C1608 H1602 0.949 . S
C1608 C1612 1.368 . S
C1609 C1590 1.429 . S
C1609 C1603 1.429 . S
C1609 C1610 1.523 . S
C1610 C1591 1.368 . S
C1610 C1604 1.368 . S
C1610 C1609 1.523 . S
C1611 C1595 1.429 . S
C1611 C1607 1.429 . S
C1611 C1612 1.523 . S
C1612 C1596 1.368 . S
C1612 C1608 1.368 . S
C1612 C1611 1.523 . S
H1613 C1588 0.950 . S
H1614 C1590 0.950 . S
H1615 C1591 0.949 . S
H1616 C1593 0.950 . S
H1617 C1595 0.950 . S
C1618 C1619 1.349 . S
C1618 C1620 1.329 . S
C1618 H1643 0.950 1_545 S
C1619 C1618 1.349 . S
C1619 C1635 1.349 . S
C1620 C1618 1.329 . S
C1620 C1639 1.432 . S
C1620 H1644 0.944 1_545 S
C1621 C1638 1.574 1_556 S
C1621 C1640 1.368 1_655 S
C1621 H1645 0.949 . S
H1622 C1626 0.949 . S
C1623 C1624 1.349 . S
C1623 C1625 1.329 . S
C1623 H1646 0.950 1_565 S
C1624 C1623 1.349 . S
C1624 C1636 1.349 . S
C1625 C1623 1.329 . S
C1625 C1641 1.432 . S
C1625 H1647 0.944 1_565 S
C1626 H1622 0.949 . S
C1626 C1634 1.574 1_554 S
C1626 C1642 1.368 1_455 S
H1627 C1635 0.950 . S
H1628 C1633 0.959 . S
H1629 C1634 0.949 . S
H1630 C1636 0.950 . S
H1631 C1637 0.959 . S
H1632 C1638 0.949 . S
C1633 H1628 0.959 . S
C1633 C1635 1.327 . S
C1633 C1639 1.429 . S
C1634 C1626 1.574 1_556 S
C1634 H1629 0.949 . S
C1634 C1640 1.368 1_565 S
C1635 C1619 1.349 . S
C1635 H1627 0.950 . S
C1635 C1633 1.327 . S
C1636 C1624 1.349 . S
C1636 H1630 0.950 . S
C1636 C1637 1.327 . S
C1637 H1631 0.959 . S
C1637 C1636 1.327 . S
C1637 C1641 1.429 . S
C1638 C1621 1.574 1_554 S
C1638 H1632 0.949 . S
C1638 C1642 1.368 1_545 S
C1639 C1620 1.432 . S
C1639 C1633 1.429 . S
C1639 C1640 1.523 . S
C1640 C1621 1.368 1_455 S
C1640 C1634 1.368 1_545 S
C1640 C1639 1.523 . S
C1641 C1625 1.432 . S
C1641 C1637 1.429 . S
C1641 C1642 1.523 . S
C1642 C1626 1.368 1_655 S
C1642 C1638 1.368 1_565 S
C1642 C1641 1.523 . S
H1643 C1618 0.950 1_565 S
H1644 C1620 0.944 1_565 S
H1645 C1621 0.949 . S
H1646 C1623 0.950 1_545 S
H1647 C1625 0.944 1_545 S
C1648 C1649 1.349 . S
C1648 C1650 1.327 . S
C1648 H1673 0.950 . S
C1649 C1648 1.349 . S
C1649 C1665 1.349 . S
C1650 C1648 1.327 . S
C1650 C1669 1.429 . S
C1650 H1674 0.950 . S
C1651 C1668 1.574 . S
C1651 C1670 1.368 . S
C1651 H1675 0.949 . S
H1652 C1656 0.949 . S
C1653 C1654 1.349 . S
C1653 C1655 1.327 . S
C1653 H1676 0.950 . S
C1654 C1653 1.349 . S
C1654 C1666 1.349 . S
C1655 C1653 1.327 . S
C1655 C1671 1.429 . S
C1655 H1677 0.950 . S
C1656 H1652 0.949 . S
C1656 C1664 1.574 . S
C1656 C1672 1.368 . S
H1657 C1665 0.950 . S
H1658 C1663 0.950 . S
H1659 C1664 0.949 . S
H1660 C1666 0.950 . S
H1661 C1667 0.950 . S
H1662 C1668 0.949 . S
C1663 H1658 0.950 . S
C1663 C1665 1.327 . S
C1663 C1669 1.429 . S
C1664 C1656 1.574 . S
C1664 H1659 0.949 . S
C1664 C1670 1.368 . S
C1665 C1649 1.349 . S
C1665 H1657 0.950 . S
C1665 C1663 1.327 . S
C1666 C1654 1.349 . S
C1666 H1660 0.950 . S
C1666 C1667 1.327 . S
C1667 H1661 0.950 . S
C1667 C1666 1.327 . S
C1667 C1671 1.429 . S
C1668 C1651 1.574 . S
C1668 H1662 0.949 . S
C1668 C1672 1.368 . S
C1669 C1650 1.429 . S
C1669 C1663 1.429 . S
C1669 C1670 1.523 . S
C1670 C1651 1.368 . S
C1670 C1664 1.368 . S
C1670 C1669 1.523 . S
C1671 C1655 1.429 . S
C1671 C1667 1.429 . S
C1671 C1672 1.523 . S
C1672 C1656 1.368 . S
C1672 C1668 1.368 . S
C1672 C1671 1.523 . S
H1673 C1648 0.950 . S
H1674 C1650 0.950 . S
H1675 C1651 0.949 . S
H1676 C1653 0.950 . S
H1677 C1655 0.950 . S
C1678 C1679 1.349 . S
C1678 C1680 1.327 . S
C1678 H1703 0.950 . S
C1679 C1678 1.349 . S
C1679 C1695 1.349 . S
C1680 C1678 1.327 . S
C1680 C1699 1.429 . S
C1680 H1704 0.950 . S
C1681 C1698 1.574 . S
C1681 C1700 1.368 . S
C1681 H1705 0.949 . S
H1682 C1686 0.949 . S
C1683 C1684 1.349 . S
C1683 C1685 1.327 . S
C1683 H1706 0.950 . S
C1684 C1683 1.349 . S
C1684 C1696 1.349 . S
C1685 C1683 1.327 . S
C1685 C1701 1.429 . S
C1685 H1707 0.950 . S
C1686 H1682 0.949 . S
C1686 C1694 1.574 . S
C1686 C1702 1.368 . S
H1687 C1695 0.950 . S
H1688 C1693 0.950 . S
H1689 C1694 0.949 . S
H1690 C1696 0.950 . S
H1691 C1697 0.950 . S
H1692 C1698 0.949 . S
C1693 H1688 0.950 . S
C1693 C1695 1.327 . S
C1693 C1699 1.429 . S
C1694 C1686 1.574 . S
C1694 H1689 0.949 . S
C1694 C1700 1.368 . S
C1695 C1679 1.349 . S
C1695 H1687 0.950 . S
C1695 C1693 1.327 . S
C1696 C1684 1.349 . S
C1696 H1690 0.950 . S
C1696 C1697 1.327 . S
C1697 H1691 0.950 . S
C1697 C1696 1.327 . S
C1697 C1701 1.429 . S
C1698 C1681 1.574 . S
C1698 H1692 0.949 . S
C1698 C1702 1.368 . S
C1699 C1680 1.429 . S
C1699 C1693 1.429 . S
C1699 C1700 1.523 . S
C1700 C1681 1.368 . S
C1700 C1694 1.368 . S
C1700 C1699 1.523 . S
C1701 C1685 1.429 . S
C1701 C1697 1.429 . S
C1701 C1702 1.523 . S
C1702 C1686 1.368 . S
C1702 C1698 1.368 . S
C1702 C1701 1.523 . S
H1703 C1678 0.950 . S
H1704 C1680 0.950 . S
H1705 C1681 0.949 . S
H1706 C1683 0.950 . S
H1707 C1685 0.950 . S
C1708 C1709 1.349 . S
C1708 C1710 1.327 . S
C1708 H1733 0.950 . S
C1709 C1708 1.349 . S
C1709 C1725 1.349 . S
C1710 C1708 1.327 . S
C1710 C1729 1.429 . S
C1710 H1734 0.950 . S
C1711 C1728 1.574 . S
C1711 C1730 1.368 . S
C1711 H1735 0.949 . S
H1712 C1716 0.949 . S
C1713 C1714 1.349 . S
C1713 C1715 1.327 . S
C1713 H1736 0.950 . S
C1714 C1713 1.349 . S
C1714 C1726 1.349 . S
C1715 C1713 1.327 . S
C1715 C1731 1.429 . S
C1715 H1737 0.950 . S
C1716 H1712 0.949 . S
C1716 C1724 1.574 . S
C1716 C1732 1.368 . S
H1717 C1725 0.950 . S
H1718 C1723 0.950 . S
H1719 C1724 0.949 . S
H1720 C1726 0.950 . S
H1721 C1727 0.950 . S
H1722 C1728 0.949 . S
C1723 H1718 0.950 . S
C1723 C1725 1.327 . S
C1723 C1729 1.429 . S
C1724 C1716 1.574 . S
C1724 H1719 0.949 . S
C1724 C1730 1.368 . S
C1725 C1709 1.349 . S
C1725 H1717 0.950 . S
C1725 C1723 1.327 . S
C1726 C1714 1.349 . S
C1726 H1720 0.950 . S
C1726 C1727 1.327 . S
C1727 H1721 0.950 . S
C1727 C1726 1.327 . S
C1727 C1731 1.429 . S
C1728 C1711 1.574 . S
C1728 H1722 0.949 . S
C1728 C1732 1.368 . S
C1729 C1710 1.429 . S
C1729 C1723 1.429 . S
C1729 C1730 1.523 . S
C1730 C1711 1.368 . S
C1730 C1724 1.368 . S
C1730 C1729 1.523 . S
C1731 C1715 1.429 . S
C1731 C1727 1.429 . S
C1731 C1732 1.523 . S
C1732 C1716 1.368 . S
C1732 C1728 1.368 . S
C1732 C1731 1.523 . S
H1733 C1708 0.950 . S
H1734 C1710 0.950 . S
H1735 C1711 0.949 . S
H1736 C1713 0.950 . S
H1737 C1715 0.950 . S
C1738 C1739 1.349 . S
C1738 C1740 1.327 . S
C1738 H1763 0.950 . S
C1739 C1738 1.349 . S
C1739 C1755 1.349 . S
C1740 C1738 1.327 . S
C1740 C1759 1.429 . S
C1740 H1764 0.950 . S
C1741 C1758 1.574 . S
C1741 C1760 1.368 . S
C1741 H1765 0.949 . S
H1742 C1746 0.949 . S
C1743 C1744 1.349 . S
C1743 C1745 1.327 . S
C1743 H1766 0.950 . S
C1744 C1743 1.349 . S
C1744 C1756 1.349 . S
C1745 C1743 1.327 . S
C1745 C1761 1.429 . S
C1745 H1767 0.950 . S
C1746 H1742 0.949 . S
C1746 C1754 1.574 . S
C1746 C1762 1.368 . S
H1747 C1755 0.950 . S
H1748 C1753 0.950 . S
H1749 C1754 0.949 . S
H1750 C1756 0.950 . S
H1751 C1757 0.950 . S
H1752 C1758 0.949 . S
C1753 H1748 0.950 . S
C1753 C1755 1.327 . S
C1753 C1759 1.429 . S
C1754 C1746 1.574 . S
C1754 H1749 0.949 . S
C1754 C1760 1.368 . S
C1755 C1739 1.349 . S
C1755 H1747 0.950 . S
C1755 C1753 1.327 . S
C1756 C1744 1.349 . S
C1756 H1750 0.950 . S
C1756 C1757 1.327 . S
C1757 H1751 0.950 . S
C1757 C1756 1.327 . S
C1757 C1761 1.429 . S
C1758 C1741 1.574 . S
C1758 H1752 0.949 . S
C1758 C1762 1.368 . S
C1759 C1740 1.429 . S
C1759 C1753 1.429 . S
C1759 C1760 1.523 . S
C1760 C1741 1.368 . S
C1760 C1754 1.368 . S
C1760 C1759 1.523 . S
C1761 C1745 1.429 . S
C1761 C1757 1.429 . S
C1761 C1762 1.523 . S
C1762 C1746 1.368 . S
C1762 C1758 1.368 . S
C1762 C1761 1.523 . S
H1763 C1738 0.950 . S
H1764 C1740 0.950 . S
H1765 C1741 0.949 . S
H1766 C1743 0.950 . S
H1767 C1745 0.950 . S
C1768 C1769 1.349 . S
C1768 C1770 1.327 . S
C1768 H1793 0.950 . S
C1769 C1768 1.349 . S
C1769 C1785 1.349 . S
C1770 C1768 1.327 . S
C1770 C1789 1.429 . S
C1770 H1794 0.950 . S
C1771 C1788 1.574 1_554 S
C1771 C1790 1.368 . S
C1771 H1795 0.949 . S
H1772 C1776 0.949 . S
C1773 C1774 1.349 . S
C1773 C1775 1.327 . S
C1773 H1796 0.950 . S
C1774 C1773 1.349 . S
C1774 C1786 1.349 . S
C1775 C1773 1.327 . S
C1775 C1791 1.429 . S
C1775 H1797 0.950 . S
C1776 H1772 0.949 . S
C1776 C1784 1.574 1_556 S
C1776 C1792 1.368 . S
H1777 C1785 0.950 . S
H1778 C1783 0.950 . S
H1779 C1784 0.949 . S
H1780 C1786 0.950 . S
H1781 C1787 0.950 . S
H1782 C1788 0.949 . S
C1783 H1778 0.950 . S
C1783 C1785 1.327 . S
C1783 C1789 1.429 . S
C1784 C1776 1.574 1_554 S
C1784 H1779 0.949 . S
C1784 C1790 1.368 . S
C1785 C1769 1.349 . S
C1785 H1777 0.950 . S
C1785 C1783 1.327 . S
C1786 C1774 1.349 . S
C1786 H1780 0.950 . S
C1786 C1787 1.327 . S
C1787 H1781 0.950 . S
C1787 C1786 1.327 . S
C1787 C1791 1.429 . S
C1788 C1771 1.574 1_556 S
C1788 H1782 0.949 . S
C1788 C1792 1.368 . S
C1789 C1770 1.429 . S
C1789 C1783 1.429 . S
C1789 C1790 1.523 . S
C1790 C1771 1.368 . S
C1790 C1784 1.368 . S
C1790 C1789 1.523 . S
C1791 C1775 1.429 . S
C1791 C1787 1.429 . S
C1791 C1792 1.523 . S
C1792 C1776 1.368 . S
C1792 C1788 1.368 . S
C1792 C1791 1.523 . S
H1793 C1768 0.950 . S
H1794 C1770 0.950 . S
H1795 C1771 0.949 . S
H1796 C1773 0.950 . S
H1797 C1775 0.950 . S
C1798 C1799 1.349 . S
C1798 C1800 1.327 . S
C1798 H1823 0.950 . S
C1799 C1798 1.349 . S
C1799 C1815 1.349 . S
C1800 C1798 1.327 . S
C1800 C1819 1.429 . S
C1800 H1824 0.950 . S
C1801 C1818 1.574 1_455 S
C1801 C1820 1.368 . S
C1801 H1825 0.949 . S
H1802 C1806 0.949 . S
C1803 C1804 1.349 . S
C1803 C1805 1.327 . S
C1803 H1826 0.950 . S
C1804 C1803 1.349 . S
C1804 C1816 1.349 . S
C1805 C1803 1.327 . S
C1805 C1821 1.429 . S
C1805 H1827 0.950 . S
C1806 H1802 0.949 . S
C1806 C1814 1.574 1_655 S
C1806 C1822 1.368 . S
H1807 C1815 0.950 . S
H1808 C1813 0.950 . S
H1809 C1814 0.949 . S
H1810 C1816 0.950 . S
H1811 C1817 0.950 . S
H1812 C1818 0.949 . S
C1813 H1808 0.950 . S
C1813 C1815 1.327 . S
C1813 C1819 1.429 . S
C1814 C1806 1.574 1_455 S
C1814 H1809 0.949 . S
C1814 C1820 1.368 . S
C1815 C1799 1.349 . S
C1815 H1807 0.950 . S
C1815 C1813 1.327 . S
C1816 C1804 1.349 . S
C1816 H1810 0.950 . S
C1816 C1817 1.327 . S
C1817 H1811 0.950 . S
C1817 C1816 1.327 . S
C1817 C1821 1.429 . S
C1818 C1801 1.574 1_655 S
C1818 H1812 0.949 . S
C1818 C1822 1.368 . S
C1819 C1800 1.429 . S
C1819 C1813 1.429 . S
C1819 C1820 1.523 . S
C1820 C1801 1.368 . S
C1820 C1814 1.368 . S
C1820 C1819 1.523 . S
C1821 C1805 1.429 . S
C1821 C1817 1.429 . S
C1821 C1822 1.523 . S
C1822 C1806 1.368 . S
C1822 C1818 1.368 . S
C1822 C1821 1.523 . S
H1823 C1798 0.950 . S
H1824 C1800 0.950 . S
H1825 C1801 0.949 . S
H1826 C1803 0.950 . S
H1827 C1805 0.950 . S
C1828 C1829 1.349 . S
C1828 C1830 1.327 . S
C1828 H1853 0.950 . S
C1829 C1828 1.349 . S
C1829 C1845 1.349 . S
C1830 C1828 1.327 . S
C1830 C1849 1.429 . S
C1830 H1854 0.950 . S
C1831 C1848 1.574 1_454 S
C1831 C1850 1.368 . S
C1831 H1855 0.949 . S
H1832 C1836 0.949 . S
C1833 C1834 1.349 . S
C1833 C1835 1.327 . S
C1833 H1856 0.950 . S
C1834 C1833 1.349 . S
C1834 C1846 1.349 . S
C1835 C1833 1.327 . S
C1835 C1851 1.429 . S
C1835 H1857 0.950 . S
C1836 H1832 0.949 . S
C1836 C1844 1.574 1_656 S
C1836 C1852 1.368 . S
H1837 C1845 0.950 . S
H1838 C1843 0.950 . S
H1839 C1844 0.949 . S
H1840 C1846 0.950 . S
H1841 C1847 0.950 . S
H1842 C1848 0.949 . S
C1843 H1838 0.950 . S
C1843 C1845 1.327 . S
C1843 C1849 1.429 . S
C1844 C1836 1.574 1_454 S
C1844 H1839 0.949 . S
C1844 C1850 1.368 . S
C1845 C1829 1.349 . S
C1845 H1837 0.950 . S
C1845 C1843 1.327 . S
C1846 C1834 1.349 . S
C1846 H1840 0.950 . S
C1846 C1847 1.327 . S
C1847 H1841 0.950 . S
C1847 C1846 1.327 . S
C1847 C1851 1.429 . S
C1848 C1831 1.574 1_656 S
C1848 H1842 0.949 . S
C1848 C1852 1.368 . S
C1849 C1830 1.429 . S
C1849 C1843 1.429 . S
C1849 C1850 1.523 . S
C1850 C1831 1.368 . S
C1850 C1844 1.368 . S
C1850 C1849 1.523 . S
C1851 C1835 1.429 . S
C1851 C1847 1.429 . S
C1851 C1852 1.523 . S
C1852 C1836 1.368 . S
C1852 C1848 1.368 . S
C1852 C1851 1.523 . S
H1853 C1828 0.950 . S
H1854 C1830 0.950 . S
H1855 C1831 0.949 . S
H1856 C1833 0.950 . S
H1857 C1835 0.950 . S
C1858 C1859 1.349 . S
C1858 C1860 1.327 . S
C1858 H1883 0.950 . S
C1859 C1858 1.349 . S
C1859 C1875 1.349 . S
C1860 C1858 1.327 . S
C1860 C1879 1.429 . S
C1860 H1884 0.950 . S
C1861 C1878 1.574 . S
C1861 C1880 1.368 . S
C1861 H1885 0.949 . S
H1862 C1866 0.949 . S
C1863 C1864 1.349 . S
C1863 C1865 1.327 . S
C1863 H1886 0.950 . S
C1864 C1863 1.349 . S
C1864 C1876 1.349 . S
C1865 C1863 1.327 . S
C1865 C1881 1.429 . S
C1865 H1887 0.950 . S
C1866 H1862 0.949 . S
C1866 C1874 1.574 . S
C1866 C1882 1.368 . S
H1867 C1875 0.950 . S
H1868 C1873 0.950 . S
H1869 C1874 0.949 . S
H1870 C1876 0.950 . S
H1871 C1877 0.950 . S
H1872 C1878 0.949 . S
C1873 H1868 0.950 . S
C1873 C1875 1.327 . S
C1873 C1879 1.429 . S
C1874 C1866 1.574 . S
C1874 H1869 0.949 . S
C1874 C1880 1.368 . S
C1875 C1859 1.349 . S
C1875 H1867 0.950 . S
C1875 C1873 1.327 . S
C1876 C1864 1.349 . S
C1876 H1870 0.950 . S
C1876 C1877 1.327 . S
C1877 H1871 0.950 . S
C1877 C1876 1.327 . S
C1877 C1881 1.429 . S
C1878 C1861 1.574 . S
C1878 H1872 0.949 . S
C1878 C1882 1.368 . S
C1879 C1860 1.429 . S
C1879 C1873 1.429 . S
C1879 C1880 1.523 . S
C1880 C1861 1.368 . S
C1880 C1874 1.368 . S
C1880 C1879 1.523 . S
C1881 C1865 1.429 . S
C1881 C1877 1.429 . S
C1881 C1882 1.523 . S
C1882 C1866 1.368 . S
C1882 C1878 1.368 . S
C1882 C1881 1.523 . S
H1883 C1858 0.950 . S
H1884 C1860 0.950 . S
H1885 C1861 0.949 . S
H1886 C1863 0.950 . S
H1887 C1865 0.950 . S
C1888 C1889 1.349 . S
C1888 C1890 1.327 . S
C1888 H1913 0.950 . S
C1889 C1888 1.349 . S
C1889 C1905 1.349 . S
C1890 C1888 1.327 . S
C1890 C1909 1.429 . S
C1890 H1914 0.950 . S
C1891 C1908 1.574 . S
C1891 C1910 1.368 . S
C1891 H1915 0.949 . S
H1892 C1896 0.949 . S
C1893 C1894 1.349 . S
C1893 C1895 1.327 . S
C1893 H1916 0.950 . S
C1894 C1893 1.349 . S
C1894 C1906 1.349 . S
C1895 C1893 1.327 . S
C1895 C1911 1.429 . S
C1895 H1917 0.950 . S
C1896 H1892 0.949 . S
C1896 C1904 1.574 . S
C1896 C1912 1.368 . S
H1897 C1905 0.950 . S
H1898 C1903 0.950 . S
H1899 C1904 0.949 . S
H1900 C1906 0.950 . S
H1901 C1907 0.950 . S
H1902 C1908 0.949 . S
C1903 H1898 0.950 . S
C1903 C1905 1.327 . S
C1903 C1909 1.429 . S
C1904 C1896 1.574 . S
C1904 H1899 0.949 . S
C1904 C1910 1.368 . S
C1905 C1889 1.349 . S
C1905 H1897 0.950 . S
C1905 C1903 1.327 . S
C1906 C1894 1.349 . S
C1906 H1900 0.950 . S
C1906 C1907 1.327 . S
C1907 H1901 0.950 . S
C1907 C1906 1.327 . S
C1907 C1911 1.429 . S
C1908 C1891 1.574 . S
C1908 H1902 0.949 . S
C1908 C1912 1.368 . S
C1909 C1890 1.429 . S
C1909 C1903 1.429 . S
C1909 C1910 1.523 . S
C1910 C1891 1.368 . S
C1910 C1904 1.368 . S
C1910 C1909 1.523 . S
C1911 C1895 1.429 . S
C1911 C1907 1.429 . S
C1911 C1912 1.523 . S
C1912 C1896 1.368 . S
C1912 C1908 1.368 . S
C1912 C1911 1.523 . S
H1913 C1888 0.950 . S
H1914 C1890 0.950 . S
H1915 C1891 0.949 . S
H1916 C1893 0.950 . S
H1917 C1895 0.950 . S
C1918 C1919 1.349 1_565 S
C1918 C1920 1.327 1_565 S
C1918 H1943 0.950 . S
C1919 C1918 1.349 1_545 S
C1919 C1935 1.349 . S
C1920 C1918 1.327 1_545 S
C1920 C1939 1.429 . S
C1920 H1944 0.950 . S
C1921 C1938 1.574 . S
C1921 C1940 1.368 . S
C1921 H1945 0.949 . S
H1922 C1926 0.949 . S
C1923 C1924 1.349 . S
C1923 C1925 1.327 . S
C1923 H1946 0.950 . S
C1924 C1923 1.349 . S
C1924 C1936 1.349 . S
C1925 C1923 1.327 . S
C1925 C1941 1.429 . S
C1925 H1947 0.950 . S
C1926 H1922 0.949 . S
C1926 C1934 1.574 . S
C1926 C1942 1.368 . S
H1927 C1935 0.950 . S
H1928 C1933 0.950 . S
H1929 C1934 0.949 . S
H1930 C1936 0.950 . S
H1931 C1937 0.950 . S
H1932 C1938 0.949 . S
C1933 H1928 0.950 . S
C1933 C1935 1.327 . S
C1933 C1939 1.429 . S
C1934 C1926 1.574 . S
C1934 H1929 0.949 . S
C1934 C1940 1.368 . S
C1935 C1919 1.349 . S
C1935 H1927 0.950 . S
C1935 C1933 1.327 . S
C1936 C1924 1.349 . S
C1936 H1930 0.950 . S
C1936 C1937 1.327 . S
C1937 H1931 0.950 . S
C1937 C1936 1.327 . S
C1937 C1941 1.429 . S
C1938 C1921 1.574 . S
C1938 H1932 0.949 . S
C1938 C1942 1.368 . S
C1939 C1920 1.429 . S
C1939 C1933 1.429 . S
C1939 C1940 1.523 . S
C1940 C1921 1.368 . S
C1940 C1934 1.368 . S
C1940 C1939 1.523 . S
C1941 C1925 1.429 . S
C1941 C1937 1.429 . S
C1941 C1942 1.523 . S
C1942 C1926 1.368 . S
C1942 C1938 1.368 . S
C1942 C1941 1.523 . S
H1943 C1918 0.950 . S
H1944 C1920 0.950 . S
H1945 C1921 0.949 . S
H1946 C1923 0.950 . S
H1947 C1925 0.950 . S
C1948 C1949 1.349 . S
C1948 C1950 1.327 . S
C1948 H1973 0.950 . S
C1949 C1948 1.349 . S
C1949 C1965 1.349 . S
C1950 C1948 1.327 . S
C1950 C1969 1.429 . S
C1950 H1974 0.950 . S
C1951 C1968 1.574 . S
C1951 C1970 1.368 . S
C1951 H1975 0.949 . S
H1952 C1956 0.949 . S
C1953 C1954 1.349 . S
C1953 C1955 1.327 . S
C1953 H1976 0.950 . S
C1954 C1953 1.349 . S
C1954 C1966 1.339 1_565 S
C1955 C1953 1.327 . S
C1955 C1971 1.429 . S
C1955 H1977 0.950 . S
C1956 H1952 0.949 . S
C1956 C1964 1.574 . S
C1956 C1972 1.368 . S
H1957 C1965 0.950 . S
H1958 C1963 0.950 . S
H1959 C1964 0.949 . S
H1960 C1966 0.996 . S
H1961 C1967 0.950 . S
H1962 C1968 0.949 . S
C1963 H1958 0.950 . S
C1963 C1965 1.327 . S
C1963 C1969 1.429 . S
C1964 C1956 1.574 . S
C1964 H1959 0.949 . S
C1964 C1970 1.368 . S
C1965 C1949 1.349 . S
C1965 H1957 0.950 . S
C1965 C1963 1.327 . S
C1966 C1954 1.339 1_545 S
C1966 H1960 0.996 . S
C1966 C1967 1.293 1_545 S
C1967 H1961 0.950 . S
C1967 C1966 1.293 1_565 S
C1967 C1971 1.429 . S
C1968 C1951 1.574 . S
C1968 H1962 0.949 . S
C1968 C1972 1.368 . S
C1969 C1950 1.429 . S
C1969 C1963 1.429 . S
C1969 C1970 1.523 . S
C1970 C1951 1.368 . S
C1970 C1964 1.368 . S
C1970 C1969 1.523 . S
C1971 C1955 1.429 . S
C1971 C1967 1.429 . S
C1971 C1972 1.523 . S
C1972 C1956 1.368 . S
C1972 C1968 1.368 . S
C1972 C1971 1.523 . S
H1973 C1948 0.950 . S
H1974 C1950 0.950 . S
H1975 C1951 0.949 . S
H1976 C1953 0.950 . S
H1977 C1955 0.950 . S
C1978 C1979 1.349 . S
C1978 C1980 1.327 . S
C1978 H2003 0.950 . S
C1979 C1978 1.349 . S
C1979 C1995 1.349 . S
C1980 C1978 1.327 . S
C1980 C1999 1.429 . S
C1980 H2004 0.950 . S
C1981 C1998 1.574 . S
C1981 C2000 1.368 . S
C1981 H2005 0.949 . S
H1982 C1986 0.949 . S
C1983 C1984 1.349 . S
C1983 C1985 1.327 . S
C1983 H2006 0.950 . S
C1984 C1983 1.349 . S
C1984 C1996 1.349 . S
C1985 C1983 1.327 . S
C1985 C2001 1.429 . S
C1985 H2007 0.950 . S
C1986 H1982 0.949 . S
C1986 C1994 1.574 . S
C1986 C2002 1.368 . S
H1987 C1995 0.950 . S
H1988 C1993 0.950 . S
H1989 C1994 0.949 . S
H1990 C1996 0.950 . S
H1991 C1997 0.950 . S
H1992 C1998 0.949 . S
C1993 H1988 0.950 . S
C1993 C1995 1.327 . S
C1993 C1999 1.429 . S
C1994 C1986 1.574 . S
C1994 H1989 0.949 . S
C1994 C2000 1.368 . S
C1995 C1979 1.349 . S
C1995 H1987 0.950 . S
C1995 C1993 1.327 . S
C1996 C1984 1.349 . S
C1996 H1990 0.950 . S
C1996 C1997 1.327 . S
C1997 H1991 0.950 . S
C1997 C1996 1.327 . S
C1997 C2001 1.429 . S
C1998 C1981 1.574 . S
C1998 H1992 0.949 . S
C1998 C2002 1.368 . S
C1999 C1980 1.429 . S
C1999 C1993 1.429 . S
C1999 C2000 1.523 . S
C2000 C1981 1.368 . S
C2000 C1994 1.368 . S
C2000 C1999 1.523 . S
C2001 C1985 1.429 . S
C2001 C1997 1.429 . S
C2001 C2002 1.523 . S
C2002 C1986 1.368 . S
C2002 C1998 1.368 . S
C2002 C2001 1.523 . S
H2003 C1978 0.950 . S
H2004 C1980 0.950 . S
H2005 C1981 0.949 . S
H2006 C1983 0.950 . S
H2007 C1985 0.950 . S
C2008 C2009 1.349 . S
C2008 C2010 1.327 . S
C2008 H2033 0.950 . S
C2009 C2008 1.349 . S
C2009 C2025 1.349 . S
C2010 C2008 1.327 . S
C2010 C2029 1.429 . S
C2010 H2034 0.950 . S
C2011 C2028 1.574 . S
C2011 C2030 1.368 . S
C2011 H2035 0.949 . S
H2012 C2016 0.949 . S
C2013 C2014 1.349 . S
C2013 C2015 1.327 . S
C2013 H2036 0.950 . S
C2014 C2013 1.349 . S
C2014 C2026 1.349 1_565 S
C2015 C2013 1.327 . S
C2015 C2031 1.429 . S
C2015 H2037 0.950 . S
C2016 H2012 0.949 . S
C2016 C2024 1.574 . S
C2016 C2032 1.368 . S
H2017 C2025 0.950 . S
H2018 C2023 0.950 . S
H2019 C2024 0.949 . S
H2020 C2026 0.950 . S
H2021 C2027 0.950 . S
H2022 C2028 0.949 . S
C2023 H2018 0.950 . S
C2023 C2025 1.327 . S
C2023 C2029 1.429 . S
C2024 C2016 1.574 . S
C2024 H2019 0.949 . S
C2024 C2030 1.368 . S
C2025 C2009 1.349 . S
C2025 H2017 0.950 . S
C2025 C2023 1.327 . S
C2026 C2014 1.349 1_545 S
C2026 H2020 0.950 . S
C2026 C2027 1.327 1_545 S
C2027 H2021 0.950 . S
C2027 C2026 1.327 1_565 S
C2027 C2031 1.429 . S
C2028 C2011 1.574 . S
C2028 H2022 0.949 . S
C2028 C2032 1.368 . S
C2029 C2010 1.429 . S
C2029 C2023 1.429 . S
C2029 C2030 1.523 . S
C2030 C2011 1.368 . S
C2030 C2024 1.368 . S
C2030 C2029 1.523 . S
C2031 C2015 1.429 . S
C2031 C2027 1.429 . S
C2031 C2032 1.523 . S
C2032 C2016 1.368 . S
C2032 C2028 1.368 . S
C2032 C2031 1.523 . S
H2033 C2008 0.950 . S
H2034 C2010 0.950 . S
H2035 C2011 0.949 . S
H2036 C2013 0.950 . S
H2037 C2015 0.950 . S
C2038 C2039 1.349 . S
C2038 C2040 1.327 . S
C2038 H2063 0.950 . S
C2039 C2038 1.349 . S
C2039 C2055 1.349 . S
C2040 C2038 1.327 . S
C2040 C2059 1.429 . S
C2040 H2064 0.950 . S
C2041 C2058 1.574 . S
C2041 C2060 1.368 . S
C2041 H2065 0.949 . S
H2042 C2046 0.949 . S
C2043 C2044 1.349 . S
C2043 C2045 1.327 . S
C2043 H2066 0.950 . S
C2044 C2043 1.349 . S
C2044 C2056 1.349 . S
C2045 C2043 1.327 . S
C2045 C2061 1.429 . S
C2045 H2067 0.950 . S
C2046 H2042 0.949 . S
C2046 C2054 1.574 . S
C2046 C2062 1.368 . S
H2047 C2055 0.950 1_545 S
H2048 C2053 0.950 . S
H2049 C2054 0.949 . S
H2050 C2056 0.950 . S
H2051 C2057 0.950 . S
H2052 C2058 0.949 . S
C2053 H2048 0.950 . S
C2053 C2055 1.327 . S
C2053 C2059 1.429 . S
C2054 C2046 1.574 . S
C2054 H2049 0.949 . S
C2054 C2060 1.368 . S
C2055 C2039 1.349 . S
C2055 H2047 0.950 1_565 S
C2055 C2053 1.327 . S
C2056 C2044 1.349 . S
C2056 H2050 0.950 . S
C2056 C2057 1.327 . S
C2057 H2051 0.950 . S
C2057 C2056 1.327 . S
C2057 C2061 1.429 . S
C2058 C2041 1.574 . S
C2058 H2052 0.949 . S
C2058 C2062 1.368 . S
C2059 C2040 1.429 . S
C2059 C2053 1.429 . S
C2059 C2060 1.523 . S
C2060 C2041 1.368 . S
C2060 C2054 1.368 . S
C2060 C2059 1.523 . S
C2061 C2045 1.429 . S
C2061 C2057 1.429 . S
C2061 C2062 1.523 . S
C2062 C2046 1.368 . S
C2062 C2058 1.368 . S
C2062 C2061 1.523 . S
H2063 C2038 0.950 . S
H2064 C2040 0.950 . S
H2065 C2041 0.949 . S
H2066 C2043 0.950 . S
H2067 C2045 0.950 . S
C2068 C2069 1.349 . S
C2068 C2070 1.327 . S
C2068 H2093 0.950 . S
C2069 C2068 1.349 . S
C2069 C2085 1.349 . S
C2070 C2068 1.327 . S
C2070 C2089 1.429 . S
C2070 H2094 0.950 . S
C2071 C2088 1.574 . S
C2071 C2090 1.368 . S
C2071 H2095 0.949 . S
H2072 C2076 0.949 . S
C2073 C2074 1.349 . S
C2073 C2075 1.327 . S
C2073 H2096 0.950 1_545 S
C2074 C2073 1.349 . S
C2074 C2086 1.349 . S
C2075 C2073 1.327 . S
C2075 C2091 1.429 . S
C2075 H2097 0.950 . S
C2076 H2072 0.949 . S
C2076 C2084 1.574 . S
C2076 C2092 1.368 . S
H2077 C2085 0.950 . S
H2078 C2083 0.950 . S
H2079 C2084 0.949 . S
H2080 C2086 0.950 . S
H2081 C2087 0.950 . S
H2082 C2088 0.949 . S
C2083 H2078 0.950 . S
C2083 C2085 1.327 . S
C2083 C2089 1.429 . S
C2084 C2076 1.574 . S
C2084 H2079 0.949 . S
C2084 C2090 1.368 . S
C2085 C2069 1.349 . S
C2085 H2077 0.950 . S
C2085 C2083 1.327 . S
C2086 C2074 1.349 . S
C2086 H2080 0.950 . S
C2086 C2087 1.327 . S
C2087 H2081 0.950 . S
C2087 C2086 1.327 . S
C2087 C2091 1.429 . S
C2088 C2071 1.574 . S
C2088 H2082 0.949 . S
C2088 C2092 1.368 . S
C2089 C2070 1.429 . S
C2089 C2083 1.429 . S
C2089 C2090 1.523 . S
C2090 C2071 1.368 . S
C2090 C2084 1.368 . S
C2090 C2089 1.523 . S
C2091 C2075 1.429 . S
C2091 C2087 1.429 . S
C2091 C2092 1.523 . S
C2092 C2076 1.368 . S
C2092 C2088 1.368 . S
C2092 C2091 1.523 . S
H2093 C2068 0.950 . S
H2094 C2070 0.950 . S
H2095 C2071 0.949 . S
H2096 C2073 0.950 1_565 S
H2097 C2075 0.950 . S
C2098 C2099 1.349 1_565 S
C2098 C2100 1.327 1_565 S
C2098 H2123 0.950 . S
C2099 C2098 1.349 1_545 S
C2099 C2115 1.349 . S
C2100 C2098 1.327 1_545 S
C2100 C2119 1.429 . S
C2100 H2124 0.950 . S
C2101 C2118 1.574 . S
C2101 C2120 1.368 . S
C2101 H2125 0.949 . S
H2102 C2106 0.949 . S
C2103 C2104 1.349 . S
C2103 C2105 1.327 . S
C2103 H2126 0.950 . S
C2104 C2103 1.349 . S
C2104 C2116 1.349 . S
C2105 C2103 1.327 . S
C2105 C2121 1.429 . S
C2105 H2127 0.950 . S
C2106 H2102 0.949 . S
C2106 C2114 1.574 . S
C2106 C2122 1.368 . S
H2107 C2115 0.950 . S
H2108 C2113 0.950 . S
H2109 C2114 0.949 . S
H2110 C2116 0.950 . S
H2111 C2117 0.950 . S
H2112 C2118 0.949 . S
C2113 H2108 0.950 . S
C2113 C2115 1.327 . S
C2113 C2119 1.429 . S
C2114 C2106 1.574 . S
C2114 H2109 0.949 . S
C2114 C2120 1.368 . S
C2115 C2099 1.349 . S
C2115 H2107 0.950 . S
C2115 C2113 1.327 . S
C2116 C2104 1.349 . S
C2116 H2110 0.950 . S
C2116 C2117 1.327 . S
C2117 H2111 0.950 . S
C2117 C2116 1.327 . S
C2117 C2121 1.429 . S
C2118 C2101 1.574 . S
C2118 H2112 0.949 . S
C2118 C2122 1.368 . S
C2119 C2100 1.429 . S
C2119 C2113 1.429 . S
C2119 C2120 1.523 . S
C2120 C2101 1.368 . S
C2120 C2114 1.368 . S
C2120 C2119 1.523 . S
C2121 C2105 1.429 . S
C2121 C2117 1.429 . S
C2121 C2122 1.523 . S
C2122 C2106 1.368 . S
C2122 C2118 1.368 . S
C2122 C2121 1.523 . S
H2123 C2098 0.950 . S
H2124 C2100 0.950 . S
H2125 C2101 0.949 . S
H2126 C2103 0.950 . S
H2127 C2105 0.950 . S
C2128 C2129 1.349 . S
C2128 C2130 1.327 . S
C2128 H2153 0.950 . S
C2129 C2128 1.349 . S
C2129 C2145 1.349 . S
C2130 C2128 1.327 . S
C2130 C2149 1.429 . S
C2130 H2154 0.950 . S
C2131 C2148 1.574 . S
C2131 C2150 1.368 . S
C2131 H2155 0.949 . S
H2132 C2136 0.949 . S
C2133 C2134 1.349 . S
C2133 C2135 1.327 . S
C2133 H2156 0.950 . S
C2134 C2133 1.349 . S
C2134 C2146 1.349 . S
C2135 C2133 1.327 . S
C2135 C2151 1.429 . S
C2135 H2157 0.950 . S
C2136 H2132 0.949 . S
C2136 C2144 1.574 . S
C2136 C2152 1.368 . S
H2137 C2145 0.950 . S
H2138 C2143 0.950 . S
H2139 C2144 0.949 . S
H2140 C2146 0.950 . S
H2141 C2147 0.950 . S
H2142 C2148 0.949 . S
C2143 H2138 0.950 . S
C2143 C2145 1.327 . S
C2143 C2149 1.429 . S
C2144 C2136 1.574 . S
C2144 H2139 0.949 . S
C2144 C2150 1.368 . S
C2145 C2129 1.349 . S
C2145 H2137 0.950 . S
C2145 C2143 1.327 . S
C2146 C2134 1.349 . S
C2146 H2140 0.950 . S
C2146 C2147 1.327 . S
C2147 H2141 0.950 . S
C2147 C2146 1.327 . S
C2147 C2151 1.429 . S
C2148 C2131 1.574 . S
C2148 H2142 0.949 . S
C2148 C2152 1.368 . S
C2149 C2130 1.429 . S
C2149 C2143 1.429 . S
C2149 C2150 1.523 . S
C2150 C2131 1.368 . S
C2150 C2144 1.368 . S
C2150 C2149 1.523 . S
C2151 C2135 1.429 . S
C2151 C2147 1.429 . S
C2151 C2152 1.523 . S
C2152 C2136 1.368 . S
C2152 C2148 1.368 . S
C2152 C2151 1.523 . S
H2153 C2128 0.950 . S
H2154 C2130 0.950 . S
H2155 C2131 0.949 . S
H2156 C2133 0.950 . S
H2157 C2135 0.950 . S
C2158 C2159 1.349 . S
C2158 C2160 1.327 . S
C2158 H2183 0.950 . S
C2159 C2158 1.349 . S
C2159 C2175 1.349 . S
C2160 C2158 1.327 . S
C2160 C2179 1.429 . S
C2160 H2184 0.950 . S
C2161 C2178 1.574 . S
C2161 C2180 1.368 . S
C2161 H2185 0.949 . S
H2162 C2166 0.949 . S
C2163 C2164 1.349 . S
C2163 C2165 1.327 . S
C2163 H2186 0.950 . S
C2164 C2163 1.349 . S
C2164 C2176 1.349 . S
C2165 C2163 1.327 . S
C2165 C2181 1.429 . S
C2165 H2187 0.950 . S
C2166 H2162 0.949 . S
C2166 C2174 1.574 . S
C2166 C2182 1.368 . S
H2167 C2175 0.950 . S
H2168 C2173 0.950 . S
H2169 C2174 0.949 . S
H2170 C2176 0.950 . S
H2171 C2177 0.950 . S
H2172 C2178 0.949 . S
C2173 H2168 0.950 . S
C2173 C2175 1.327 . S
C2173 C2179 1.429 . S
C2174 C2166 1.574 . S
C2174 H2169 0.949 . S
C2174 C2180 1.368 . S
C2175 C2159 1.349 . S
C2175 H2167 0.950 . S
C2175 C2173 1.327 . S
C2176 C2164 1.349 . S
C2176 H2170 0.950 . S
C2176 C2177 1.327 . S
C2177 H2171 0.950 . S
C2177 C2176 1.327 . S
C2177 C2181 1.429 . S
C2178 C2161 1.574 . S
C2178 H2172 0.949 . S
C2178 C2182 1.368 . S
C2179 C2160 1.429 . S
C2179 C2173 1.429 . S
C2179 C2180 1.523 . S
C2180 C2161 1.368 . S
C2180 C2174 1.368 . S
C2180 C2179 1.523 . S
C2181 C2165 1.429 . S
C2181 C2177 1.429 . S
C2181 C2182 1.523 . S
C2182 C2166 1.368 . S
C2182 C2178 1.368 . S
C2182 C2181 1.523 . S
H2183 C2158 0.950 . S
H2184 C2160 0.950 . S
H2185 C2161 0.949 . S
H2186 C2163 0.950 . S
H2187 C2165 0.950 . S
C2188 C2189 1.349 . S
C2188 C2190 1.327 . S
C2188 H2213 0.950 . S
C2189 C2188 1.349 . S
C2189 C2205 1.349 . S
C2190 C2188 1.327 . S
C2190 C2209 1.429 . S
C2190 H2214 0.950 . S
C2191 C2208 1.574 . S
C2191 C2210 1.368 . S
C2191 H2215 0.949 . S
H2192 C2196 0.949 . S
C2193 C2194 1.349 . S
C2193 C2195 1.327 . S
C2193 H2216 0.950 . S
C2194 C2193 1.349 . S
C2194 C2206 1.349 . S
C2195 C2193 1.327 . S
C2195 C2211 1.429 . S
C2195 H2217 0.950 . S
C2196 H2192 0.949 . S
C2196 C2204 1.574 . S
C2196 C2212 1.368 . S
H2197 C2205 0.950 . S
H2198 C2203 0.950 . S
H2199 C2204 0.949 . S
H2200 C2206 0.950 . S
H2201 C2207 0.950 . S
H2202 C2208 0.949 . S
C2203 H2198 0.950 . S
C2203 C2205 1.327 . S
C2203 C2209 1.429 . S
C2204 C2196 1.574 . S
C2204 H2199 0.949 . S
C2204 C2210 1.368 . S
C2205 C2189 1.349 . S
C2205 H2197 0.950 . S
C2205 C2203 1.327 . S
C2206 C2194 1.349 . S
C2206 H2200 0.950 . S
C2206 C2207 1.327 . S
C2207 H2201 0.950 . S
C2207 C2206 1.327 . S
C2207 C2211 1.429 . S
C2208 C2191 1.574 . S
C2208 H2202 0.949 . S
C2208 C2212 1.368 . S
C2209 C2190 1.429 . S
C2209 C2203 1.429 . S
C2209 C2210 1.523 . S
C2210 C2191 1.368 . S
C2210 C2204 1.368 . S
C2210 C2209 1.523 . S
C2211 C2195 1.429 . S
C2211 C2207 1.429 . S
C2211 C2212 1.523 . S
C2212 C2196 1.368 . S
C2212 C2208 1.368 . S
C2212 C2211 1.523 . S
H2213 C2188 0.950 . S
H2214 C2190 0.950 . S
H2215 C2191 0.949 . S
H2216 C2193 0.950 . S
H2217 C2195 0.950 . S
C2218 C2219 1.349 . S
C2218 C2220 1.327 . S
C2218 H2243 0.950 . S
C2219 C2218 1.349 . S
C2219 C2235 1.349 . S
C2220 C2218 1.327 . S
C2220 C2239 1.429 . S
C2220 H2244 0.950 . S
C2221 C2238 1.574 . S
C2221 C2240 1.368 . S
C2221 H2245 0.949 . S
H2222 C2226 0.949 . S
C2223 C2224 1.349 . S
C2223 C2225 1.327 . S
C2223 H2246 0.950 . S
C2224 C2223 1.349 . S
C2224 C2236 1.349 . S
C2225 C2223 1.327 . S
C2225 C2241 1.429 . S
C2225 H2247 0.950 . S
C2226 H2222 0.949 . S
C2226 C2234 1.574 . S
C2226 C2242 1.368 . S
H2227 C2235 0.950 . S
H2228 C2233 0.950 . S
H2229 C2234 0.949 . S
H2230 C2236 0.950 . S
H2231 C2237 0.950 . S
H2232 C2238 0.949 . S
C2233 H2228 0.950 . S
C2233 C2235 1.327 . S
C2233 C2239 1.429 . S
C2234 C2226 1.574 . S
C2234 H2229 0.949 . S
C2234 C2240 1.368 . S
C2235 C2219 1.349 . S
C2235 H2227 0.950 . S
C2235 C2233 1.327 . S
C2236 C2224 1.349 . S
C2236 H2230 0.950 . S
C2236 C2237 1.327 . S
C2237 H2231 0.950 . S
C2237 C2236 1.327 . S
C2237 C2241 1.429 . S
C2238 C2221 1.574 . S
C2238 H2232 0.949 . S
C2238 C2242 1.368 . S
C2239 C2220 1.429 . S
C2239 C2233 1.429 . S
C2239 C2240 1.523 . S
C2240 C2221 1.368 . S
C2240 C2234 1.368 . S
C2240 C2239 1.523 . S
C2241 C2225 1.429 . S
C2241 C2237 1.429 . S
C2241 C2242 1.523 . S
C2242 C2226 1.368 . S
C2242 C2238 1.368 . S
C2242 C2241 1.523 . S
H2243 C2218 0.950 . S
H2244 C2220 0.950 . S
H2245 C2221 0.949 . S
H2246 C2223 0.950 . S
H2247 C2225 0.950 . S
C2248 C2249 1.349 . S
C2248 C2250 1.327 . S
C2248 H2273 0.950 . S
C2249 C2248 1.349 . S
C2249 C2265 1.349 . S
C2250 C2248 1.327 . S
C2250 C2269 1.429 . S
C2250 H2274 0.950 . S
C2251 C2268 1.574 . S
C2251 C2270 1.368 . S
C2251 H2275 0.949 . S
H2252 C2256 0.949 . S
C2253 C2254 1.349 . S
C2253 C2255 1.327 . S
C2253 H2276 0.950 . S
C2254 C2253 1.349 . S
C2254 C2266 1.349 . S
C2255 C2253 1.327 . S
C2255 C2271 1.429 . S
C2255 H2277 0.950 . S
C2256 H2252 0.949 . S
C2256 C2264 1.574 . S
C2256 C2272 1.368 . S
H2257 C2265 0.950 . S
H2258 C2263 0.950 . S
H2259 C2264 0.949 . S
H2260 C2266 0.950 . S
H2261 C2267 0.950 . S
H2262 C2268 0.949 . S
C2263 H2258 0.950 . S
C2263 C2265 1.327 . S
C2263 C2269 1.429 . S
C2264 C2256 1.574 . S
C2264 H2259 0.949 . S
C2264 C2270 1.368 . S
C2265 C2249 1.349 . S
C2265 H2257 0.950 . S
C2265 C2263 1.327 . S
C2266 C2254 1.349 . S
C2266 H2260 0.950 . S
C2266 C2267 1.327 . S
C2267 H2261 0.950 . S
C2267 C2266 1.327 . S
C2267 C2271 1.429 . S
C2268 C2251 1.574 . S
C2268 H2262 0.949 . S
C2268 C2272 1.368 . S
C2269 C2250 1.429 . S
C2269 C2263 1.429 . S
C2269 C2270 1.523 . S
C2270 C2251 1.368 . S
C2270 C2264 1.368 . S
C2270 C2269 1.523 . S
C2271 C2255 1.429 . S
C2271 C2267 1.429 . S
C2271 C2272 1.523 . S
C2272 C2256 1.368 . S
C2272 C2268 1.368 . S
C2272 C2271 1.523 . S
H2273 C2248 0.950 . S
H2274 C2250 0.950 . S
H2275 C2251 0.949 . S
H2276 C2253 0.950 . S
H2277 C2255 0.950 . S
C2278 C2279 1.349 . S
C2278 C2280 1.327 . S
C2278 H2303 0.950 . S
C2279 C2278 1.349 . S
C2279 C2295 1.349 . S
C2280 C2278 1.327 . S
C2280 C2299 1.429 . S
C2280 H2304 0.950 . S
C2281 C2298 1.574 . S
C2281 C2300 1.368 . S
C2281 H2305 0.949 . S
H2282 C2286 0.949 . S
C2283 C2284 1.349 . S
C2283 C2285 1.327 . S
C2283 H2306 0.950 . S
C2284 C2283 1.349 . S
C2284 C2296 1.349 . S
C2285 C2283 1.327 . S
C2285 C2301 1.429 . S
C2285 H2307 0.950 . S
C2286 H2282 0.949 . S
C2286 C2294 1.574 . S
C2286 C2302 1.368 . S
H2287 C2295 0.950 . S
H2288 C2293 0.950 . S
H2289 C2294 0.949 . S
H2290 C2296 0.950 . S
H2291 C2297 0.950 . S
H2292 C2298 0.949 . S
C2293 H2288 0.950 . S
C2293 C2295 1.327 . S
C2293 C2299 1.429 . S
C2294 C2286 1.574 . S
C2294 H2289 0.949 . S
C2294 C2300 1.368 . S
C2295 C2279 1.349 . S
C2295 H2287 0.950 . S
C2295 C2293 1.327 . S
C2296 C2284 1.349 . S
C2296 H2290 0.950 . S
C2296 C2297 1.327 . S
C2297 H2291 0.950 . S
C2297 C2296 1.327 . S
C2297 C2301 1.429 . S
C2298 C2281 1.574 . S
C2298 H2292 0.949 . S
C2298 C2302 1.368 . S
C2299 C2280 1.429 . S
C2299 C2293 1.429 . S
C2299 C2300 1.523 . S
C2300 C2281 1.368 . S
C2300 C2294 1.368 . S
C2300 C2299 1.523 . S
C2301 C2285 1.429 . S
C2301 C2297 1.429 . S
C2301 C2302 1.523 . S
C2302 C2286 1.368 . S
C2302 C2298 1.368 . S
C2302 C2301 1.523 . S
H2303 C2278 0.950 . S
H2304 C2280 0.950 . S
H2305 C2281 0.949 . S
H2306 C2283 0.950 . S
H2307 C2285 0.950 . S
C2308 C2309 1.349 . S
C2308 C2310 1.327 . S
C2308 H2333 0.950 . S
C2309 C2308 1.349 . S
C2309 C2325 1.349 . S
C2310 C2308 1.327 . S
C2310 C2329 1.429 . S
C2310 H2334 0.950 . S
C2311 C2328 1.574 . S
C2311 C2330 1.368 . S
C2311 H2335 0.949 . S
H2312 C2316 0.949 . S
C2313 C2314 1.349 . S
C2313 C2315 1.327 . S
C2313 H2336 0.950 . S
C2314 C2313 1.349 . S
C2314 C2326 1.349 . S
C2315 C2313 1.327 . S
C2315 C2331 1.429 . S
C2315 H2337 0.950 . S
C2316 H2312 0.949 . S
C2316 C2324 1.574 . S
C2316 C2332 1.368 . S
H2317 C2325 0.950 . S
H2318 C2323 0.950 . S
H2319 C2324 0.949 . S
H2320 C2326 0.950 . S
H2321 C2327 0.950 . S
H2322 C2328 0.949 . S
C2323 H2318 0.950 . S
C2323 C2325 1.327 . S
C2323 C2329 1.429 . S
C2324 C2316 1.574 . S
C2324 H2319 0.949 . S
C2324 C2330 1.368 . S
C2325 C2309 1.349 . S
C2325 H2317 0.950 . S
C2325 C2323 1.327 . S
C2326 C2314 1.349 . S
C2326 H2320 0.950 . S
C2326 C2327 1.327 . S
C2327 H2321 0.950 . S
C2327 C2326 1.327 . S
C2327 C2331 1.429 . S
C2328 C2311 1.574 . S
C2328 H2322 0.949 . S
C2328 C2332 1.368 . S
C2329 C2310 1.429 . S
C2329 C2323 1.429 . S
C2329 C2330 1.523 . S
C2330 C2311 1.368 . S
C2330 C2324 1.368 . S
C2330 C2329 1.523 . S
C2331 C2315 1.429 . S
C2331 C2327 1.429 . S
C2331 C2332 1.523 . S
C2332 C2316 1.368 . S
C2332 C2328 1.368 . S
C2332 C2331 1.523 . S
H2333 C2308 0.950 . S
H2334 C2310 0.950 . S
H2335 C2311 0.949 . S
H2336 C2313 0.950 . S
H2337 C2315 0.950 . S
C2338 C2339 1.349 . S
C2338 C2340 1.327 . S
C2338 H2363 0.950 . S
C2339 C2338 1.349 . S
C2339 C2355 1.349 . S
C2340 C2338 1.327 . S
C2340 C2359 1.429 . S
C2340 H2364 0.950 . S
C2341 C2358 1.574 . S
C2341 C2360 1.368 . S
C2341 H2365 0.949 . S
H2342 C2346 0.949 . S
C2343 C2344 1.349 . S
C2343 C2345 1.327 . S
C2343 H2366 0.950 . S
C2344 C2343 1.349 . S
C2344 C2356 1.349 . S
C2345 C2343 1.327 . S
C2345 C2361 1.429 . S
C2345 H2367 0.950 . S
C2346 H2342 0.949 . S
C2346 C2354 1.574 . S
C2346 C2362 1.368 . S
H2347 C2355 0.950 . S
H2348 C2353 0.950 . S
H2349 C2354 0.949 . S
H2350 C2356 0.950 . S
H2351 C2357 0.950 . S
H2352 C2358 0.949 . S
C2353 H2348 0.950 . S
C2353 C2355 1.327 . S
C2353 C2359 1.429 . S
C2354 C2346 1.574 . S
C2354 H2349 0.949 . S
C2354 C2360 1.368 . S
C2355 C2339 1.349 . S
C2355 H2347 0.950 . S
C2355 C2353 1.327 . S
C2356 C2344 1.349 . S
C2356 H2350 0.950 . S
C2356 C2357 1.327 . S
C2357 H2351 0.950 . S
C2357 C2356 1.327 . S
C2357 C2361 1.429 . S
C2358 C2341 1.574 . S
C2358 H2352 0.949 . S
C2358 C2362 1.368 . S
C2359 C2340 1.429 . S
C2359 C2353 1.429 . S
C2359 C2360 1.523 . S
C2360 C2341 1.368 . S
C2360 C2354 1.368 . S
C2360 C2359 1.523 . S
C2361 C2345 1.429 . S
C2361 C2357 1.429 . S
C2361 C2362 1.523 . S
C2362 C2346 1.368 . S
C2362 C2358 1.368 . S
C2362 C2361 1.523 . S
H2363 C2338 0.950 . S
H2364 C2340 0.950 . S
H2365 C2341 0.949 . S
H2366 C2343 0.950 . S
H2367 C2345 0.950 . S
C449 C386 1.544 . S
C454 C9 1.543 . S
C479 C23 1.543 . S
C484 C121 1.544 . S
C509 C358 1.544 . S
C514 C37 1.543 . S
C539 C51 1.543 . S
C544 C149 1.544 . S
C569 C65 1.543 . S
C574 C414 1.544 . S
C599 C79 1.543 . S
C604 C205 1.544 . S
C629 C93 1.543 . S
C634 C442 1.544 . S
C659 C107 1.543 . S
C664 C177 1.544 . S
C689 C274 1.544 . S
C694 C120 1.543 . S
C719 C8 1.544 . S
C724 C135 1.543 . S
C749 C246 1.544 . S
C754 C148 1.543 . S
C779 C163 1.543 . S
C784 C36 1.544 . S
C809 C302 1.544 . S
C814 C176 1.543 . S
C839 C92 1.544 . S
C844 C191 1.543 . S
C869 C204 1.543 . S
C874 C330 1.544 . S
C899 C64 1.544 . S
C904 C219 1.543 . S
C929 C233 1.543 . S
C934 C162 1.544 . S
C959 C247 1.543 . S
C964 C345 1.544 . S
C989 C134 1.544 . S
C994 C261 1.543 . S
C1019 C373 1.544 . S
C1024 C275 1.543 . S
C1049 C190 1.544 . S
C1054 C289 1.543 . S
C1079 C429 1.544 . S
C1084 C303 1.543 . S
C1109 C218 1.544 . S
C1114 C317 1.543 . S
C1139 C331 1.543 . S
C1144 C401 1.544 . S
C1169 C50 1.544 . S
C1174 C344 1.543 . S
C1199 C359 1.543 . S
C1204 C232 1.544 . S
C1229 C372 1.543 . S
C1234 C22 1.544 . S
C1259 C387 1.543 . S
C1264 C260 1.544 . S
C1289 C400 1.543 . S
C1294 C78 1.544 . S
C1319 C415 1.543 . S
C1324 C316 1.544 . S
C1349 C428 1.543 . S
C1354 C106 1.544 . S
C1379 C443 1.543 . S
C1384 C288 1.544 . S
C1409 C342 1.477 . S
C1414 C7 1.477 . S
C1439 C21 1.477 . S
C1444 C133 1.477 . S
C1469 C370 1.477 . S
C1474 C35 1.477 . S
C1499 C49 1.478 . S
C1504 C161 1.478 . S
C1529 C398 1.478 . S
C1534 C63 1.478 . S
C1559 C77 1.477 . S
C1564 C189 1.477 . S
C1589 C426 1.477 . S
C1594 C91 1.477 . S
C1619 C105 1.477 . S
C1624 C217 1.477 . S
C1649 C118 1.477 . S
C1654 C231 1.477 . S
C1679 C146 1.477 . S
C1684 C259 1.477 . S
C1709 C174 1.477 . S
C1714 C287 1.477 . S
C1739 C202 1.477 . S
C1744 C315 1.477 . S
C1769 C245 1.477 . S
C1774 C357 1.477 . S
C1799 C385 1.477 . S
C1804 C273 1.477 . S
C1829 C413 1.477 . S
C1834 C301 1.477 . S
C1859 C329 1.477 . S
C1864 C441 1.477 . S
C1889 C6 1.410 . S
C1894 C76 1.410 1_545 S
C1919 C20 1.410 1_545 S
C1924 C90 1.410 . S
C1949 C34 1.410 . S
C1954 C104 1.410 1_565 S
C1979 C62 1.410 . S
C1984 C48 1.410 1_565 S
C2009 C119 1.410 . S
C2014 C188 1.410 1_565 S
C2039 C132 1.410 1_565 S
C2044 C203 1.410 . S
C2069 C147 1.410 . S
C2074 C216 1.410 1_545 S
C2099 C160 1.410 1_545 S
C2104 C175 1.410 . S
C2129 C230 1.410 . S
C2134 C300 1.410 . S
C2159 C314 1.410 . S
C2164 C244 1.410 . S
C2189 C258 1.410 . S
C2194 C328 1.410 . S
C2219 C272 1.410 . S
C2224 C286 1.410 . S
C2249 C412 1.410 . S
C2254 C343 1.410 . S
C2279 C356 1.410 . S
C2284 C427 1.410 . S
C2309 C440 1.410 . S
C2314 C371 1.410 . S
C2339 C384 1.410 . S
C2344 C399 1.410 . S
