# Generated by pormake.
# Topology umc, (4)-cn, num edge types: 1
# Building blocks:
#     Node 0, Type 0, BuildingBlock: ESEHIV_clean_sbu_0, # of connection points: 4
#     Node 1, Type 0, BuildingBlock: ESEHIV_clean_sbu_0, # of connection points: 4
#     Node 2, Type 0, BuildingBlock: ESEHIV_clean_sbu_0, # of connection points: 4
#     Node 3, Type 0, BuildingBlock: ESEHIV_clean_sbu_0, # of connection points: 4
#     Node 4, Type 0, BuildingBlock: ESEHIV_clean_sbu_0, # of connection points: 4
#     Node 5, Type 0, BuildingBlock: ESEHIV_clean_sbu_0, # of connection points: 4
#     Node 6, Type 0, BuildingBlock: ESEHIV_clean_sbu_0, # of connection points: 4
#     Node 7, Type 0, BuildingBlock: ESEHIV_clean_sbu_0, # of connection points: 4
#     Node 8, Type 0, BuildingBlock: ESEHIV_clean_sbu_0, # of connection points: 4
#     Node 9, Type 0, BuildingBlock: ESEHIV_clean_sbu_0, # of connection points: 4
#     Node 10, Type 0, BuildingBlock: ESEHIV_clean_sbu_0, # of connection points: 4
#     Node 11, Type 0, BuildingBlock: ESEHIV_clean_sbu_0, # of connection points: 4
#     Node 12, Type 0, BuildingBlock: ESEHIV_clean_sbu_0, # of connection points: 4
#     Node 13, Type 0, BuildingBlock: ESEHIV_clean_sbu_0, # of connection points: 4
#     Node 14, Type 0, BuildingBlock: ESEHIV_clean_sbu_0, # of connection points: 4
#     Node 15, Type 0, BuildingBlock: ESEHIV_clean_sbu_0, # of connection points: 4
#     Edge 16, Type (0, 0), BuildingBlock: EZIPEK_clean_linker_0, # of connection points: 2
#     Edge 17, Type (0, 0), BuildingBlock: EZIPEK_clean_linker_0, # of connection points: 2
#     Edge 18, Type (0, 0), BuildingBlock: EZIPEK_clean_linker_0, # of connection points: 2
#     Edge 19, Type (0, 0), BuildingBlock: EZIPEK_clean_linker_0, # of connection points: 2
#     Edge 20, Type (0, 0), BuildingBlock: EZIPEK_clean_linker_0, # of connection points: 2
#     Edge 21, Type (0, 0), BuildingBlock: EZIPEK_clean_linker_0, # of connection points: 2
#     Edge 22, Type (0, 0), BuildingBlock: EZIPEK_clean_linker_0, # of connection points: 2
#     Edge 23, Type (0, 0), BuildingBlock: EZIPEK_clean_linker_0, # of connection points: 2
#     Edge 24, Type (0, 0), BuildingBlock: EZIPEK_clean_linker_0, # of connection points: 2
#     Edge 25, Type (0, 0), BuildingBlock: EZIPEK_clean_linker_0, # of connection points: 2
#     Edge 26, Type (0, 0), BuildingBlock: EZIPEK_clean_linker_0, # of connection points: 2
#     Edge 27, Type (0, 0), BuildingBlock: EZIPEK_clean_linker_0, # of connection points: 2
#     Edge 28, Type (0, 0), BuildingBlock: EZIPEK_clean_linker_0, # of connection points: 2
#     Edge 29, Type (0, 0), BuildingBlock: EZIPEK_clean_linker_0, # of connection points: 2
#     Edge 30, Type (0, 0), BuildingBlock: EZIPEK_clean_linker_0, # of connection points: 2
#     Edge 31, Type (0, 0), BuildingBlock: EZIPEK_clean_linker_0, # of connection points: 2
#     Edge 32, Type (0, 0), BuildingBlock: EZIPEK_clean_linker_0, # of connection points: 2
#     Edge 33, Type (0, 0), BuildingBlock: EZIPEK_clean_linker_0, # of connection points: 2
#     Edge 34, Type (0, 0), BuildingBlock: EZIPEK_clean_linker_0, # of connection points: 2
#     Edge 35, Type (0, 0), BuildingBlock: EZIPEK_clean_linker_0, # of connection points: 2
#     Edge 36, Type (0, 0), BuildingBlock: EZIPEK_clean_linker_0, # of connection points: 2
#     Edge 37, Type (0, 0), BuildingBlock: EZIPEK_clean_linker_0, # of connection points: 2
#     Edge 38, Type (0, 0), BuildingBlock: EZIPEK_clean_linker_0, # of connection points: 2
#     Edge 39, Type (0, 0), BuildingBlock: EZIPEK_clean_linker_0, # of connection points: 2
#     Edge 40, Type (0, 0), BuildingBlock: EZIPEK_clean_linker_0, # of connection points: 2
#     Edge 41, Type (0, 0), BuildingBlock: EZIPEK_clean_linker_0, # of connection points: 2
#     Edge 42, Type (0, 0), BuildingBlock: EZIPEK_clean_linker_0, # of connection points: 2
#     Edge 43, Type (0, 0), BuildingBlock: EZIPEK_clean_linker_0, # of connection points: 2
#     Edge 44, Type (0, 0), BuildingBlock: EZIPEK_clean_linker_0, # of connection points: 2
#     Edge 45, Type (0, 0), BuildingBlock: EZIPEK_clean_linker_0, # of connection points: 2
#     Edge 46, Type (0, 0), BuildingBlock: EZIPEK_clean_linker_0, # of connection points: 2
#     Edge 47, Type (0, 0), BuildingBlock: EZIPEK_clean_linker_0, # of connection points: 2
# Relax obj value: 0.038
# Max RMSD: 0.094
# Mean RMSD: 0.093
data_MOF--net-umc--node1-ESEHIV_clean_sbu_0--edge1-EZIPEK_clean_linker_0
_symmetry_space_group_name_H-M    P1
_symmetry_Int_Tables_number       1
_symmetry_cell_setting            triclinic
loop_
_symmetry_equiv_pos_as_xyz
'x, y, z'
_cell_length_a     45.171855
_cell_length_b     26.536645
_cell_length_c     40.73062
_cell_angle_alpha  90.050638
_cell_angle_beta   89.854068
_cell_angle_gamma 89.963365
loop_
_atom_site_label
_atom_site_type_symbol
_atom_site_fract_x
_atom_site_fract_y
_atom_site_fract_z
_atom_type_partial_charge
Cu0 Cu 0.4026 0.1095 0.38039 0.0
N1 N 0.44407 0.11159 0.37991 0.0
N2 N 0.49075 0.08422 0.38195 0.0
C3 C 0.46206 0.07237 0.38648 0.0
C4 C 0.49109 0.13292 0.37259 0.0
C5 C 0.46215 0.14979 0.37139 0.0
O6 O 0.38917 0.07715 0.34064 0.0
C7 C 0.40007 0.09647 0.44631 0.0
O8 O 0.41735 0.13607 0.44386 0.0
H9 H 0.45433 0.03543 0.3937 0.0
H10 H 0.45484 0.18689 0.36408 0.0
N11 N 0.38577 0.17346 0.37865 0.0
N12 N 0.34754 0.22684 0.3784 0.0
C13 C 0.36015 0.18683 0.39328 0.0
C14 C 0.38975 0.20679 0.35415 0.0
C15 C 0.36624 0.23988 0.35401 0.0
C16 C 0.4 0.03657 0.32942 0.0
O17 O 0.41924 0.01106 0.34682 0.0
H18 H 0.34927 0.16437 0.41184 0.0
H19 H 0.40677 0.20385 0.33552 0.0
O20 O 0.39005 0.07622 0.42034 0.0
H21 H 0.51073 0.15408 0.36616 0.0
H22 H 0.36195 0.26865 0.33579 0.0
Cu23 Cu 0.67415 0.91513 0.38946 0.0
N24 N 0.6327 0.91485 0.3878 0.0
N25 N 0.58638 0.94412 0.38744 0.0
C26 C 0.61483 0.95414 0.39483 0.0
C27 C 0.58606 0.89644 0.37603 0.0
C28 C 0.61472 0.87834 0.37643 0.0
O29 O 0.69015 0.95105 0.3512 0.0
C30 C 0.70835 0.96056 0.44275 0.0
O31 O 0.72798 0.97583 0.4211 0.0
H32 H 0.62274 0.99041 0.40325 0.0
H33 H 0.62206 0.84198 0.36761 0.0
N34 N 0.68906 0.85041 0.38324 0.0
N35 N 0.72541 0.79343 0.38009 0.0
C36 C 0.71293 0.8305 0.39825 0.0
C37 C 0.68601 0.82431 0.35512 0.0
C38 C 0.70833 0.78914 0.35314 0.0
C39 C 0.67491 0.97999 0.33289 0.0
O40 O 0.64965 0.99786 0.34372 0.0
H41 H 0.7229 0.84656 0.42002 0.0
H42 H 0.6707 0.83399 0.33574 0.0
O43 O 0.68521 0.93747 0.43337 0.0
H44 H 0.56676 0.8772 0.36656 0.0
H45 H 0.71311 0.76507 0.3323 0.0
Cu46 Cu 0.40683 0.88652 0.15732 0.0
N47 N 0.44807 0.88395 0.15786 0.0
N48 N 0.49439 0.91274 0.1571 0.0
C49 C 0.46566 0.92406 0.1526 0.0
C50 C 0.49516 0.86361 0.16541 0.0
C51 C 0.46638 0.84581 0.16585 0.0
O52 O 0.39545 0.92856 0.19355 0.0
C53 C 0.40269 0.88503 0.09077 0.0
O54 O 0.41775 0.8435 0.0961 0.0
H55 H 0.45754 0.96117 0.1463 0.0
H56 H 0.45928 0.80819 0.17231 0.0
N57 N 0.38908 0.82458 0.16557 0.0
N58 N 0.35014 0.77371 0.17186 0.0
C59 C 0.36294 0.80955 0.15311 0.0
C60 C 0.3932 0.79664 0.19273 0.0
C61 C 0.3692 0.76515 0.19666 0.0
C62 C 0.39712 0.97617 0.19439 0.0
O63 O 0.40396 1.0016 0.16778 0.0
H64 H 0.352 0.82833 0.13293 0.0
H65 H 0.41082 0.80251 0.21026 0.0
O66 O 0.39463 0.9119 0.11502 0.0
H67 H 0.51498 0.84264 0.1714 0.0
H68 H 0.36496 0.7407 0.21741 0.0
Cu69 Cu 0.6758 0.08611 0.1457 0.0
N70 N 0.63454 0.0857 0.14739 0.0
N71 N 0.58876 0.05469 0.15023 0.0
C72 C 0.61759 0.0441 0.14539 0.0
C73 C 0.58729 0.10482 0.1553 0.0
C74 C 0.6157 0.12396 0.15353 0.0
O75 O 0.68879 0.05043 0.18476 0.0
C76 C 0.7106 0.03935 0.09309 0.0
O77 O 0.73028 0.02505 0.11486 0.0
H78 H 0.62625 0.00659 0.14127 0.0
H79 H 0.62224 0.16273 0.15729 0.0
N80 N 0.6909 0.15068 0.15174 0.0
N81 N 0.72752 0.20697 0.15539 0.0
C82 C 0.71539 0.16957 0.13732 0.0
C83 C 0.68702 0.17785 0.17931 0.0
C84 C 0.70955 0.21255 0.18163 0.0
C85 C 0.68543 0.00431 0.19212 0.0
O86 O 0.6776 0.97186 0.16937 0.0
H87 H 0.72594 0.1526 0.11613 0.0
H88 H 0.67086 0.16932 0.19814 0.0
O89 O 0.68726 0.06222 0.10223 0.0
H90 H 0.56724 0.12567 0.16067 0.0
H91 H 0.71376 0.23728 0.20226 0.0
Cu92 Cu 0.67741 0.92403 0.64079 0.0
N93 N 0.63612 0.92133 0.64115 0.0
N94 N 0.5896 0.94921 0.64159 0.0
C95 C 0.61839 0.96206 0.64248 0.0
C96 C 0.58894 0.89857 0.63936 0.0
C97 C 0.61784 0.88136 0.63903 0.0
O98 O 0.68876 0.96792 0.67753 0.0
C99 C 0.71243 0.96024 0.58464 0.0
O100 O 0.73523 0.96657 0.60416 0.0
H101 H 0.62643 1.00043 0.64379 0.0
H102 H 0.62499 0.84258 0.63702 0.0
N103 N 0.69422 0.86063 0.64842 0.0
N104 N 0.72993 0.80303 0.65441 0.0
C105 C 0.72163 0.84609 0.63937 0.0
C106 C 0.6846 0.82479 0.66927 0.0
C107 C 0.70666 0.78946 0.6732 0.0
C108 C 0.67845 0.95465 0.70549 0.0
O109 O 0.66131 0.91486 0.70721 0.0
H110 H 0.73604 0.86834 0.62393 0.0
H111 H 0.66366 0.8256 0.68216 0.0
O112 O 0.68768 0.94588 0.59634 0.0
H113 H 0.56907 0.87594 0.63788 0.0
H114 H 0.70614 0.75731 0.68954 0.0
Cu115 Cu 0.40314 0.10062 0.64763 0.0
N116 N 0.44423 0.10776 0.64657 0.0
N117 N 0.49157 0.08411 0.64503 0.0
C118 C 0.46332 0.06892 0.64854 0.0
C119 C 0.49044 0.13441 0.64063 0.0
C120 C 0.46105 0.14899 0.64157 0.0
O121 O 0.39416 0.05843 0.68507 0.0
C122 C 0.39662 0.09647 0.58138 0.0
O123 O 0.40795 0.14168 0.58495 0.0
H124 H 0.4566 0.03008 0.65171 0.0
H125 H 0.45252 0.18667 0.638 0.0
N126 N 0.38315 0.16199 0.65194 0.0
N127 N 0.34476 0.21498 0.65401 0.0
C128 C 0.35505 0.17059 0.64247 0.0
C129 C 0.3912 0.20299 0.66923 0.0
C130 C 0.36745 0.23553 0.67081 0.0
C131 C 0.39892 0.07689 0.7134 0.0
O132 O 0.40793 0.1237 0.71606 0.0
H133 H 0.34185 0.14359 0.62901 0.0
H134 H 0.41231 0.20777 0.68128 0.0
O135 O 0.39178 0.0696 0.60661 0.0
H136 H 0.50941 0.15844 0.63634 0.0
H137 H 0.36654 0.27082 0.68414 0.0
Cu138 Cu 0.67929 0.08122 0.89656 0.0
N139 N 0.63802 0.08522 0.89686 0.0
N140 N 0.59123 0.0585 0.89626 0.0
C141 C 0.61984 0.04567 0.89215 0.0
C142 C 0.59118 0.10784 0.90407 0.0
C143 C 0.62022 0.12431 0.90449 0.0
O144 O 0.68949 0.03956 0.85822 0.0
C145 C 0.71431 0.04116 0.95134 0.0
O146 O 0.73712 0.03626 0.93152 0.0
H147 H 0.62747 0.00792 0.88658 0.0
H148 H 0.62784 0.16168 0.91083 0.0
N149 N 0.69679 0.14477 0.89118 0.0
N150 N 0.73276 0.2021 0.88574 0.0
C151 C 0.72513 0.15662 0.89799 0.0
C152 C 0.68592 0.18477 0.87482 0.0
C153 C 0.70812 0.21991 0.87114 0.0
C154 C 0.68227 0.05839 0.83047 0.0
O155 O 0.67002 0.10321 0.82981 0.0
H156 H 0.74043 0.13122 0.90984 0.0
H157 H 0.66388 0.18711 0.86465 0.0
O158 O 0.68947 0.05582 0.94017 0.0
H159 H 0.57165 0.1299 0.9097 0.0
H160 H 0.70662 0.25512 0.85783 0.0
Cu161 Cu 0.40515 0.90285 0.8866 0.0
N162 N 0.4464 0.89803 0.88696 0.0
N163 N 0.49327 0.92391 0.88892 0.0
C164 C 0.46464 0.93778 0.89022 0.0
C165 C 0.49328 0.87351 0.88485 0.0
C166 C 0.46415 0.85752 0.88365 0.0
O167 O 0.39483 0.95274 0.854 0.0
C168 C 0.40036 0.89178 0.95288 0.0
O169 O 0.41429 0.84998 0.94511 0.0
H170 H 0.45708 0.97622 0.89329 0.0
H171 H 0.45647 0.81925 0.8804 0.0
N172 N 0.38639 0.84279 0.87494 0.0
N173 N 0.34829 0.79065 0.86683 0.0
C174 C 0.35934 0.82843 0.88531 0.0
C175 C 0.39291 0.81236 0.84947 0.0
C176 C 0.36937 0.7803 0.84431 0.0
C177 C 0.4066 0.94683 0.82586 0.0
O178 O 0.42497 0.90925 0.82091 0.0
H179 H 0.34703 0.84786 0.90431 0.0
H180 H 0.41255 0.81531 0.83438 0.0
O181 O 0.39306 0.92236 0.93033 0.0
H182 H 0.51287 0.85024 0.88266 0.0
H183 H 0.36727 0.75308 0.82463 0.0
Cu184 Cu 0.89505 0.5823 0.39449 0.0
N185 N 0.9362 0.58842 0.39481 0.0
N186 N 0.9834 0.56407 0.39614 0.0
C187 C 0.95503 0.5491 0.39389 0.0
C188 C 0.98263 0.61467 0.3988 0.0
C189 C 0.95332 0.62969 0.39801 0.0
O190 O 0.88549 0.53819 0.35736 0.0
C191 C 0.86084 0.53998 0.44911 0.0
O192 O 0.83888 0.53083 0.4289 0.0
H193 H 0.94804 0.51017 0.39216 0.0
H194 H 0.94509 0.6678 0.40028 0.0
N195 N 0.87631 0.64438 0.38787 0.0
N196 N 0.83931 0.70001 0.38398 0.0
C197 C 0.84864 0.65642 0.39755 0.0
C198 C 0.885 0.68234 0.36815 0.0
C199 C 0.86215 0.71651 0.36554 0.0
C200 C 0.89499 0.55339 0.32951 0.0
O201 O 0.90975 0.5959 0.32799 0.0
H202 H 0.83493 0.63232 0.4126 0.0
H203 H 0.90595 0.68402 0.35533 0.0
O204 O 0.88502 0.55812 0.43829 0.0
H205 H 1.00181 0.63872 0.40157 0.0
H206 H 0.86191 0.75006 0.35043 0.0
Cu207 Cu 0.17217 0.41728 0.39909 0.0
N208 N 0.13117 0.41072 0.39984 0.0
N209 N 0.08387 0.43443 0.39926 0.0
C210 C 0.11223 0.44979 0.39816 0.0
C211 C 0.08477 0.3838 0.40172 0.0
C212 C 0.11417 0.36916 0.40205 0.0
O213 O 0.1802 0.46449 0.36361 0.0
C214 C 0.20728 0.46469 0.44923 0.0
O215 O 0.22524 0.48015 0.42593 0.0
H216 H 0.11909 0.48876 0.39626 0.0
H217 H 0.12256 0.33108 0.40383 0.0
N218 N 0.1909 0.35596 0.3906 0.0
N219 N 0.2297 0.30457 0.3845 0.0
C220 C 0.21755 0.34217 0.40237 0.0
C221 C 0.18542 0.32469 0.36531 0.0
C222 C 0.20942 0.29315 0.36136 0.0
C223 C 0.19739 0.45483 0.33957 0.0
O224 O 0.21514 0.41583 0.34071 0.0
H225 H 0.22903 0.36242 0.42157 0.0
H226 H 0.16667 0.32794 0.34898 0.0
O227 O 0.184 0.44028 0.4421 0.0
H228 H 0.06561 0.35944 0.40325 0.0
H229 H 0.21261 0.26609 0.34175 0.0
Cu230 Cu 0.89873 0.4143 0.14183 0.0
N231 N 0.9399 0.40777 0.14268 0.0
N232 N 0.98724 0.43135 0.14423 0.0
C233 C 0.95885 0.44679 0.14469 0.0
C234 C 0.98636 0.38076 0.14158 0.0
C235 C 0.95698 0.36623 0.14054 0.0
O236 O 0.8883 0.45867 0.17861 0.0
C237 C 0.86551 0.45669 0.08678 0.0
O238 O 0.84329 0.46561 0.10683 0.0
H239 H 0.95197 0.48581 0.14635 0.0
H240 H 0.94871 0.3282 0.13807 0.0
N241 N 0.87966 0.35244 0.14832 0.0
N242 N 0.84229 0.29755 0.1523 0.0
C243 C 0.85196 0.34089 0.13865 0.0
C244 C 0.88799 0.31442 0.16814 0.0
C245 C 0.86493 0.28072 0.17081 0.0
C246 C 0.89687 0.44342 0.20678 0.0
O247 O 0.91142 0.40074 0.20881 0.0
H248 H 0.83845 0.36524 0.12362 0.0
H249 H 0.90881 0.31248 0.1811 0.0
O250 O 0.88958 0.43849 0.09778 0.0
H251 H 1.00554 0.35636 0.14028 0.0
H252 H 0.86438 0.24731 0.18604 0.0
Cu253 Cu 0.17422 0.58745 0.15279 0.0
N254 N 0.13295 0.5908 0.15254 0.0
N255 N 0.08637 0.5634 0.1511 0.0
C256 C 0.11514 0.55033 0.15003 0.0
C257 C 0.08584 0.61394 0.15432 0.0
C258 C 0.11477 0.63087 0.15516 0.0
O259 O 0.18564 0.54334 0.18842 0.0
C260 C 0.17879 0.59237 0.0862 0.0
O261 O 0.16438 0.63424 0.09257 0.0
H262 H 0.12311 0.51201 0.1477 0.0
H263 H 0.12202 0.66951 0.15759 0.0
N264 N 0.19247 0.64914 0.1612 0.0
N265 N 0.23124 0.70006 0.1686 0.0
C266 C 0.22011 0.66095 0.15143 0.0
C267 C 0.18565 0.68259 0.18492 0.0
C268 C 0.20959 0.71401 0.18959 0.0
C269 C 0.17376 0.55254 0.21618 0.0
O270 O 0.15391 0.58844 0.2188 0.0
H271 H 0.23285 0.63841 0.13434 0.0
H272 H 0.16569 0.68175 0.19958 0.0
O273 O 0.18641 0.56384 0.1098 0.0
H274 H 0.066 0.63671 0.15596 0.0
H275 H 0.21163 0.74292 0.20821 0.0
Cu276 Cu 0.17157 0.41238 0.63852 0.0
N277 N 0.13058 0.40576 0.63835 0.0
N278 N 0.08326 0.42916 0.64012 0.0
C279 C 0.11153 0.44475 0.63789 0.0
C280 C 0.08434 0.3785 0.64209 0.0
C281 C 0.11375 0.36407 0.64101 0.0
O282 O 0.17965 0.46063 0.67326 0.0
C283 C 0.2082 0.45573 0.58825 0.0
O284 O 0.22785 0.46461 0.61125 0.0
H285 H 0.11827 0.48384 0.63661 0.0
H286 H 0.12227 0.32606 0.64266 0.0
N287 N 0.18986 0.3511 0.64828 0.0
N288 N 0.22792 0.29807 0.65417 0.0
C289 C 0.21528 0.33369 0.63509 0.0
C290 C 0.18558 0.32403 0.6758 0.0
C291 C 0.20915 0.29166 0.67965 0.0
C292 C 0.19846 0.45342 0.69601 0.0
O293 O 0.2178 0.41675 0.69358 0.0
H294 H 0.22571 0.35008 0.61369 0.0
H295 H 0.16811 0.33088 0.69344 0.0
O296 O 0.18353 0.43554 0.59548 0.0
H297 H 0.06531 0.35403 0.64458 0.0
H298 H 0.21318 0.26759 0.70062 0.0
Cu299 Cu 0.89622 0.58713 0.64417 0.0
N300 N 0.93746 0.58908 0.6448 0.0
N301 N 0.98389 0.56092 0.64472 0.0
C302 C 0.95512 0.54837 0.64234 0.0
C303 C 0.98458 0.6113 0.64876 0.0
C304 C 0.95573 0.62871 0.64876 0.0
O305 O 0.88341 0.54195 0.67924 0.0
C306 C 0.86462 0.53859 0.59048 0.0
O307 O 0.84786 0.51573 0.61224 0.0
H308 H 0.94704 0.51026 0.63927 0.0
H309 H 0.94858 0.66734 0.65176 0.0
N310 N 0.87945 0.64979 0.65359 0.0
N311 N 0.84302 0.70626 0.65878 0.0
C312 C 0.85408 0.66779 0.64077 0.0
C313 C 0.88496 0.67865 0.68007 0.0
C314 C 0.86247 0.71331 0.68342 0.0
C315 C 0.89578 0.54825 0.7071 0.0
O316 O 0.91719 0.58129 0.71006 0.0
H317 H 0.84267 0.65038 0.62036 0.0
H318 H 0.90292 0.67276 0.69709 0.0
O319 O 0.88521 0.56792 0.59973 0.0
H320 H 1.00445 0.63362 0.65165 0.0
H321 H 0.85975 0.73998 0.70334 0.0
Cu322 Cu 0.17561 0.59242 0.88134 0.0
N323 N 0.13433 0.5954 0.88089 0.0
N324 N 0.08774 0.56799 0.88106 0.0
C325 C 0.11647 0.55491 0.88278 0.0
C326 C 0.08726 0.61854 0.87805 0.0
C327 C 0.1162 0.63548 0.87801 0.0
O328 O 0.18778 0.548 0.84609 0.0
C329 C 0.1792 0.59593 0.94825 0.0
O330 O 0.16461 0.63777 0.94241 0.0
H331 H 0.12439 0.51657 0.88513 0.0
H332 H 0.1235 0.67414 0.87588 0.0
N333 N 0.19352 0.65453 0.87309 0.0
N334 N 0.2314 0.70777 0.86671 0.0
C335 C 0.22054 0.66828 0.8838 0.0
C336 C 0.18683 0.68712 0.8489 0.0
C337 C 0.2102 0.71988 0.84483 0.0
C338 C 0.1764 0.55647 0.81808 0.0
O339 O 0.15653 0.59218 0.81478 0.0
H340 H 0.23306 0.64711 0.90172 0.0
H341 H 0.16733 0.68495 0.83365 0.0
O342 O 0.18722 0.56834 0.9243 0.0
H343 H 0.06747 0.64132 0.87602 0.0
H344 H 0.21221 0.74863 0.82612 0.0
Cu345 Cu 0.90066 0.41559 0.89028 0.0
N346 N 0.94175 0.41039 0.8883 0.0
N347 N 0.98877 0.4353 0.88539 0.0
C348 C 0.96038 0.44995 0.88863 0.0
C349 C 0.98819 0.38467 0.88289 0.0
C350 C 0.95899 0.3693 0.88469 0.0
O351 O 0.8908 0.46423 0.85588 0.0
C352 C 0.86939 0.46159 0.94516 0.0
O353 O 0.85127 0.48243 0.92397 0.0
H354 H 0.95325 0.48877 0.8908 0.0
H355 H 0.95087 0.33104 0.88307 0.0
N356 N 0.88287 0.35374 0.8807 0.0
N357 N 0.84614 0.29764 0.87681 0.0
C358 C 0.85832 0.33487 0.89499 0.0
C359 C 0.88703 0.32629 0.85328 0.0
C360 C 0.86426 0.29205 0.85065 0.0
C361 C 0.87259 0.45513 0.83271 0.0
O362 O 0.85389 0.41758 0.83541 0.0
H363 H 0.8482 0.35093 0.91674 0.0
H364 H 0.90391 0.33365 0.83505 0.0
O365 O 0.89084 0.43457 0.93517 0.0
H366 H 1.00744 0.36081 0.87974 0.0
H367 H 0.86036 0.26684 0.83019 0.0
C368 C 0.41825 0.05455 0.49668 0.0
C369 C 0.39416 0.07561 0.47928 0.0
C370 C 0.36667 0.08732 0.53056 0.0
C371 C 0.39298 0.0763 0.54791 0.0
N372 N 0.44212 0.04166 0.5495 0.0
N373 N 0.34354 0.10317 0.47762 0.0
C374 C 0.41809 0.05635 0.53154 0.0
C375 C 0.36743 0.08813 0.49561 0.0
N376 N 0.44128 0.0339 0.47948 0.0
N377 N 0.34141 0.09793 0.54777 0.0
H378 H 0.34329 0.10087 0.45207 0.0
H379 H 0.32407 0.11756 0.48757 0.0
H380 H 0.34071 0.09679 0.57337 0.0
H381 H 0.32089 0.10462 0.53712 0.0
H382 H 0.45933 0.01596 0.49011 0.0
H383 H 0.44116 0.03171 0.45389 0.0
H384 H 0.46229 0.03078 0.53941 0.0
H385 H 0.44183 0.04078 0.57512 0.0
C386 C 0.69608 1.00068 0.53191 0.0
C387 C 0.71534 0.96679 0.54834 0.0
C388 C 0.73532 0.939 0.49494 0.0
C389 C 0.71322 0.96764 0.47865 0.0
N390 N 0.67184 0.0249 0.48116 0.0
N391 N 0.75154 0.89985 0.54555 0.0
C392 C 0.69347 0.99843 0.49704 0.0
C393 C 0.73489 0.93554 0.52991 0.0
N394 N 0.68091 0.03604 0.54969 0.0
N395 N 0.75645 0.91423 0.47702 0.0
H396 H 0.75206 0.89576 0.57095 0.0
H397 H 0.7632 0.87159 0.53337 0.0
H398 H 0.75665 0.91325 0.45145 0.0
H399 H 0.77515 0.89776 0.48738 0.0
H400 H 0.66865 0.06503 0.53918 0.0
H401 H 0.68279 0.03927 0.57513 0.0
H402 H 0.65434 0.04271 0.49315 0.0
H403 H 0.67053 0.02708 0.45563 0.0
C404 C 0.37177 0.89164 0.04027 0.0
C405 C 0.39867 0.90224 0.05664 0.0
C406 C 0.42215 0.92486 1.00447 0.0
C407 C 0.3972 0.9052 0.98785 0.0
N408 N 0.34741 0.8732 0.98845 0.0
N409 N 0.44879 0.93297 0.05593 0.0
C410 C 0.37146 0.89048 1.00533 0.0
C411 C 0.42354 0.92095 0.03921 0.0
N412 N 0.34681 0.88217 0.05824 0.0
N413 N 0.44444 0.94689 0.98681 0.0
H414 H 0.44976 0.93332 0.08152 0.0
H415 H 0.46895 0.94115 0.04474 0.0
H416 H 0.44373 0.95025 0.9613 0.0
H417 H 0.4624 0.96536 0.99728 0.0
H418 H 0.32587 0.87756 0.0481 0.0
H419 H 0.34668 0.88303 0.08385 0.0
H420 H 0.32908 0.85648 0.99945 0.0
H421 H 0.34624 0.87425 0.96289 0.0
C422 C 0.73677 0.06561 1.00594 0.0
C423 C 0.71751 0.03399 0.98753 0.0
C424 C 0.69631 1.00089 0.03888 0.0
C425 C 0.71576 0.03208 0.05723 0.0
N426 N 0.75854 0.08648 0.05864 0.0
N427 N 0.68384 0.96377 0.98612 0.0
C428 C 0.7375 0.06152 0.04085 0.0
C429 C 0.69875 0.99923 1.00397 0.0
N430 N 0.75275 0.10232 0.99038 0.0
N431 N 0.67508 0.97353 0.05488 0.0
H432 H 0.68557 0.9611 0.96063 0.0
H433 H 0.67194 0.93426 0.99657 0.0
H434 H 0.67395 0.97101 0.08042 0.0
H435 H 0.65776 0.95524 0.04301 0.0
H436 H 0.76411 0.13073 1.00267 0.0
H437 H 0.7529 0.10716 0.96504 0.0
H438 H 0.77698 0.10361 0.04811 0.0
H439 H 0.75899 0.08683 0.08421 0.0
C440 C 0.88163 0.50384 0.53624 0.0
C441 C 0.86009 0.5307 0.5547 0.0
C442 C 0.83626 0.55876 0.50372 0.0
C443 C 0.85776 0.53162 0.48517 0.0
N444 N 0.89618 0.46872 0.48353 0.0
N445 N 0.81351 0.57489 0.55681 0.0
C446 C 0.879 0.50117 0.50143 0.0
C447 C 0.83614 0.55487 0.53865 0.0
N448 N 0.905 0.4818 0.55196 0.0
N449 N 0.81733 0.59116 0.48826 0.0
H450 H 0.81328 0.57473 0.58241 0.0
H451 H 0.79385 0.58803 0.54662 0.0
H452 H 0.81646 0.59534 0.46288 0.0
H453 H 0.80385 0.61678 0.50062 0.0
H454 H 0.92345 0.46735 0.53981 0.0
H455 H 0.90669 0.48023 0.57749 0.0
H456 H 0.9102 0.44207 0.49396 0.0
H457 H 0.8943 0.46511 0.4581 0.0
C458 C 0.19494 0.50347 0.53772 0.0
C459 C 0.21409 0.46883 0.55346 0.0
C460 C 0.23637 0.44686 0.50028 0.0
C461 C 0.21359 0.47437 0.48437 0.0
N462 N 0.17216 0.53137 0.48696 0.0
N463 N 0.2536 0.40778 0.55062 0.0
C464 C 0.19339 0.50401 0.50286 0.0
C465 C 0.23551 0.44147 0.53508 0.0
N466 N 0.17851 0.53611 0.55631 0.0
N467 N 0.25839 0.42504 0.48209 0.0
H468 H 0.2543 0.40387 0.57605 0.0
H469 H 0.26693 0.38179 0.53841 0.0
H470 H 0.25921 0.42688 0.45656 0.0
H471 H 0.27719 0.40864 0.49224 0.0
H472 H 0.16584 0.56525 0.5466 0.0
H473 H 0.17966 0.53684 0.5819 0.0
H474 H 0.15437 0.54865 0.49873 0.0
H475 H 0.17178 0.53534 0.46147 0.0
C476 C 0.88617 0.49514 0.99978 0.0
C477 C 0.86495 0.46802 0.98114 0.0
C478 C 0.84158 0.43776 0.03201 0.0
C479 C 0.8627 0.46524 0.05071 0.0
N480 N 0.90046 0.52913 0.05281 0.0
N481 N 0.81909 0.42168 0.97893 0.0
C482 C 0.88361 0.4967 0.03465 0.0
C483 C 0.84139 0.4424 0.99712 0.0
N484 N 0.90914 0.51864 0.98413 0.0
N485 N 0.82305 0.40441 0.04728 0.0
H486 H 0.8189 0.42188 0.95334 0.0
H487 H 0.79961 0.40766 0.98912 0.0
H488 H 0.8222 0.39975 0.07262 0.0
H489 H 0.80993 0.3785 0.0348 0.0
H490 H 0.92744 0.53342 0.99626 0.0
H491 H 0.91066 0.52123 0.95862 0.0
H492 H 0.91416 0.55651 0.04262 0.0
H493 H 0.89866 0.53188 0.0783 0.0
C494 C 0.2089 0.59242 0.03454 0.0
C495 C 0.18297 0.57735 0.05156 0.0
C496 C 0.15778 0.56001 0.99963 0.0
C497 C 0.18275 0.57932 0.98264 0.0
N498 N 0.23432 0.60147 0.98209 0.0
N499 N 0.13597 0.53495 0.05183 0.0
C500 C 0.20921 0.59106 0.99958 0.0
C501 C 0.1585 0.55686 0.03448 0.0
N502 N 0.23252 0.61032 0.05188 0.0
N503 N 0.13306 0.54672 0.98235 0.0
H504 H 0.13625 0.53217 0.07739 0.0
H505 H 0.11821 0.5162 0.04117 0.0
H506 H 0.13261 0.54601 0.95674 0.0
H507 H 0.11282 0.53768 0.99306 0.0
H508 H 0.25094 0.62732 0.04126 0.0
H509 H 0.23327 0.60929 0.07746 0.0
H510 H 0.25502 0.60702 0.99261 0.0
H511 H 0.23486 0.60065 0.95648 0.0
C512 C 0.54798 0.99472 0.41551 0.0
C513 C 0.56248 0.98002 0.38617 0.0
C514 C 0.52873 0.0326 0.35396 0.0
C515 C 0.51545 0.04992 0.38343 0.0
N516 N 0.51392 0.05283 0.44231 0.0
N517 N 0.57048 0.99062 0.3282 0.0
C518 C 0.52551 0.03238 0.4143 0.0
C519 C 0.55391 1.00059 0.35555 0.0
N520 N 0.55535 0.97155 0.44428 0.0
N521 N 0.51646 0.04524 0.32448 0.0
H522 H 0.58914 0.96751 0.32872 0.0
H523 H 0.56727 0.00837 0.3057 0.0
H524 H 0.49791 0.06844 0.32261 0.0
H525 H 0.52307 0.02965 0.30217 0.0
H526 H 0.54399 0.97686 0.46626 0.0
H527 H 0.57189 0.94415 0.44558 0.0
H528 H 0.52178 0.0451 0.46576 0.0
H529 H 0.49754 0.08057 0.44185 0.0
C530 C 0.52947 0.96998 0.18472 0.0
C531 C 0.5188 0.94747 0.15552 0.0
C532 C 0.55304 0.99857 0.12271 0.0
C533 C 0.56488 0.01889 0.15203 0.0
N534 N 0.56771 0.02016 0.2109 0.0
N535 N 0.52161 0.93526 0.09725 0.0
C536 C 0.55397 0.00356 0.18309 0.0
C537 C 0.53096 0.96041 0.12459 0.0
N538 N 0.51549 0.96014 0.21379 0.0
N539 N 0.56252 0.017 0.09321 0.0
H540 H 0.50536 0.90735 0.09824 0.0
H541 H 0.53106 0.93946 0.0741 0.0
H542 H 0.57872 0.04489 0.0914 0.0
H543 H 0.55318 0.00734 0.07075 0.0
H544 H 0.5201 0.97888 0.23563 0.0
H545 H 0.49764 0.93533 0.21556 0.0
H546 H 0.56282 0.00696 0.23435 0.0
H547 H 0.58572 0.04475 0.21027 0.0
C548 C 0.55308 0.99889 0.67298 0.0
C549 C 0.56478 0.98318 0.64236 0.0
C550 C 0.52812 0.03463 0.61337 0.0
C551 C 0.51727 0.05205 0.644 0.0
N552 N 0.52126 0.05739 0.70258 0.0
N553 N 0.56643 0.98895 0.58361 0.0
C554 C 0.53031 0.03597 0.67376 0.0
C555 C 0.55311 0.00193 0.61255 0.0
N556 N 0.5635 0.97737 0.70112 0.0
N557 N 0.51391 0.04859 0.58525 0.0
H558 H 0.58432 0.96409 0.58249 0.0
H559 H 0.56104 0.00469 0.56101 0.0
H560 H 0.49608 0.07359 0.5853 0.0
H561 H 0.51862 0.03368 0.56219 0.0
H562 H 0.55441 0.98356 0.72426 0.0
H563 H 0.58039 0.95051 0.70098 0.0
H564 H 0.53121 0.05069 0.72516 0.0
H565 H 0.50491 0.08517 0.7034 0.0
C566 C 0.55179 0.01748 0.86414 0.0
C567 C 0.56615 0.02516 0.89458 0.0
C568 C 0.53172 0.96679 0.92149 0.0
C569 C 0.51847 0.95694 0.8907 0.0
N570 N 0.51688 0.96779 0.83226 0.0
N571 N 0.57237 0.00504 0.95159 0.0
C572 C 0.52882 0.98094 0.86183 0.0
C573 C 0.55679 0.99919 0.92315 0.0
N574 N 0.55991 0.04608 0.83775 0.0
N575 N 0.51971 0.94588 0.94912 0.0
H576 H 0.59032 0.02959 0.9535 0.0
H577 H 0.5687 0.98387 0.9727 0.0
H578 H 0.5018 0.92111 0.94825 0.0
H579 H 0.52624 0.95498 0.97287 0.0
H580 H 0.54894 0.04583 0.81533 0.0
H581 H 0.57682 0.07278 0.83904 0.0
H582 H 0.5248 0.98044 0.80972 0.0
H583 H 0.49987 0.94141 0.83019 0.0
C584 C 1.01894 0.51253 0.42744 0.0
C585 C 1.00906 0.53194 0.397 0.0
C586 C 0.04731 0.48371 0.36789 0.0
C587 C 0.05808 0.46625 0.39846 0.0
N588 N 0.05708 0.46712 0.45736 0.0
N589 N 1.01443 0.54083 0.3387 0.0
C590 C 0.04462 0.48145 0.4283 0.0
C591 C 1.02346 0.51882 0.36728 0.0
N592 N 1.0033 0.52337 0.45532 0.0
N593 N 0.05974 0.4657 0.3396 0.0
H594 H 0.99679 0.56621 0.33784 0.0
H595 H 1.02515 0.5364 0.31626 0.0
H596 H 0.07738 0.44029 0.33967 0.0
H597 H 0.05173 0.47335 0.31621 0.0
H598 H 1.00736 0.50687 0.47803 0.0
H599 H 0.98494 0.54725 0.45532 0.0
H600 H 0.05028 0.48041 0.48021 0.0
H601 H 0.07566 0.4438 0.45847 0.0
C602 C 0.04793 0.52045 0.11858 0.0
C603 C 0.06144 0.52979 0.14934 0.0
C604 C 1.0265 0.47258 0.17653 0.0
C605 C 1.01306 0.46304 0.14577 0.0
N606 N 1.01101 0.4737 0.08738 0.0
N607 N 0.06612 0.51351 0.20701 0.0
C608 C 1.02383 0.4859 0.11668 0.0
C609 C 0.05141 0.50538 0.17821 0.0
N610 N 0.05837 0.54497 0.09142 0.0
N611 N 1.0148 0.45087 0.20406 0.0
H612 H 0.08373 0.53877 0.20888 0.0
H613 H 0.06186 0.49438 0.22877 0.0
H614 H 0.99704 0.4258 0.20312 0.0
H615 H 1.02169 0.45864 0.22786 0.0
H616 H 0.04909 0.54247 0.06816 0.0
H617 H 0.07646 0.56937 0.09233 0.0
H618 H 1.01809 0.48678 0.06465 0.0
H619 H 0.99338 0.44843 0.08567 0.0
C620 C 1.02122 0.51382 0.61284 0.0
C621 C 1.00873 0.52705 0.64358 0.0
C622 C 0.04569 0.47568 0.6721 0.0
C623 C 0.05744 0.46083 0.64131 0.0
N624 N 0.05554 0.46043 0.58248 0.0
N625 N 1.00582 0.51699 0.70204 0.0
C626 C 0.0449 0.47844 0.61164 0.0
C627 C 1.02007 0.50688 0.67315 0.0
N628 N 1.01061 0.53607 0.58501 0.0
N629 N 0.05971 0.46096 0.70019 0.0
H630 H 0.98732 0.54052 0.70333 0.0
H631 H 1.01101 0.49991 0.72428 0.0
H632 H 0.07826 0.43749 0.69991 0.0
H633 H 0.05422 0.47412 0.72349 0.0
H634 H 1.02007 0.53181 0.56188 0.0
H635 H 0.99291 0.56139 0.58542 0.0
H636 H 0.04611 0.46814 0.55976 0.0
H637 H 0.0731 0.43492 0.58121 0.0
C638 C 0.05003 0.52162 0.91278 0.0
C639 C 0.06276 0.53443 0.88211 0.0
C640 C 1.02617 0.48232 0.85351 0.0
C641 C 1.01429 0.46769 0.88426 0.0
N642 N 1.01588 0.46805 0.94312 0.0
N643 N 0.06601 0.52378 0.82369 0.0
C644 C 1.02653 0.48593 0.91395 0.0
C645 C 0.05167 0.51379 0.85253 0.0
N646 N 0.0603 0.54446 0.94058 0.0
N647 N 1.01237 0.46716 0.82538 0.0
H648 H 0.08429 0.54774 0.82241 0.0
H649 H 0.06107 0.5063 0.8015 0.0
H650 H 0.99386 0.44366 0.82562 0.0
H651 H 1.01797 0.48005 0.80206 0.0
H652 H 0.05068 0.54042 0.96365 0.0
H653 H 0.0778 0.5701 0.94018 0.0
H654 H 1.02516 0.47619 0.96585 0.0
H655 H 0.99852 0.44218 0.94438 0.0
C656 C 0.26429 0.23247 0.38638 0.0
C657 C 0.25962 0.28524 0.38612 0.0
C658 C 0.31336 0.29791 0.38808 0.0
C659 C 0.31783 0.24577 0.38286 0.0
N660 N 0.29659 0.16488 0.36918 0.0
N661 N 0.28071 0.36848 0.37923 0.0
C662 C 0.29305 0.21319 0.38004 0.0
C663 C 0.28441 0.31828 0.3852 0.0
N664 N 0.24131 0.20079 0.39321 0.0
N665 N 0.3368 0.32788 0.39607 0.0
H666 H 0.26025 0.38462 0.37425 0.0
H667 H 0.29838 0.39304 0.37541 0.0
H668 H 0.35816 0.3136 0.39901 0.0
H669 H 0.33442 0.36547 0.40304 0.0
H670 H 0.24406 0.16209 0.39638 0.0
H671 H 0.22023 0.214 0.39926 0.0
H672 H 0.27879 0.14119 0.36406 0.0
H673 H 0.31692 0.15044 0.36156 0.0
C674 C 0.77996 0.79893 0.38879 0.0
C675 C 0.75392 0.76963 0.38453 0.0
C676 C 0.78458 0.69413 0.37791 0.0
C677 C 0.8102 0.72246 0.38599 0.0
N678 N 0.83066 0.79921 0.4078 0.0
N679 N 0.73133 0.68758 0.38327 0.0
C680 C 0.80734 0.77409 0.39427 0.0
C681 C 0.75624 0.71656 0.38181 0.0
N682 N 0.77917 0.85005 0.38522 0.0
N683 N 0.7872 0.64725 0.3644 0.0
H684 H 0.71037 0.70301 0.38719 0.0
H685 H 0.73197 0.64833 0.38412 0.0
H686 H 0.80755 0.63109 0.35848 0.0
H687 H 0.76915 0.62701 0.35552 0.0
H688 H 0.79818 0.8723 0.38546 0.0
H689 H 0.76028 0.86957 0.37801 0.0
H690 H 0.82893 0.83589 0.41679 0.0
H691 H 0.85063 0.7814 0.41331 0.0
C692 C 0.2854 0.68473 0.17327 0.0
C693 C 0.26135 0.71836 0.16831 0.0
C694 C 0.29589 0.78935 0.16947 0.0
C695 C 0.32013 0.75526 0.16979 0.0
N696 N 0.33779 0.67 0.16507 0.0
N697 N 0.2446 0.80178 0.15446 0.0
C698 C 0.3148 0.70271 0.16954 0.0
C699 C 0.26689 0.77048 0.16417 0.0
N700 N 0.28033 0.63652 0.18348 0.0
N701 N 0.30019 0.8392 0.17622 0.0
H702 H 0.22336 0.7887 0.14923 0.0
H703 H 0.24808 0.83944 0.14831 0.0
H704 H 0.32069 0.85383 0.18298 0.0
H705 H 0.2828 0.8647 0.17899 0.0
H706 H 0.29727 0.61196 0.1902 0.0
H707 H 0.25925 0.62302 0.18895 0.0
H708 H 0.3348 0.63139 0.16179 0.0
H709 H 0.35947 0.68221 0.16126 0.0
C710 C 0.75907 0.28306 0.15391 0.0
C711 C 0.75634 0.23 0.15154 0.0
C712 C 0.80984 0.22402 0.14245 0.0
C713 C 0.81303 0.27571 0.15035 0.0
N714 N 0.79036 0.35173 0.17138 0.0
N715 N 0.781 0.14899 0.15204 0.0
C716 C 0.78754 0.30478 0.15805 0.0
C717 C 0.78221 0.19998 0.14791 0.0
N718 N 0.73447 0.31273 0.15182 0.0
N719 N 0.83308 0.19804 0.12926 0.0
H720 H 0.7619 0.13016 0.15943 0.0
H721 H 0.79984 0.12629 0.15219 0.0
H722 H 0.85323 0.21525 0.12368 0.0
H723 H 0.83113 0.16123 0.12056 0.0
H724 H 0.73551 0.35193 0.15072 0.0
H725 H 0.71344 0.29787 0.14758 0.0
H726 H 0.77234 0.37251 0.17996 0.0
H727 H 0.81076 0.36738 0.17751 0.0
C728 C 0.76087 0.72661 0.64773 0.0
C729 C 0.75869 0.77911 0.65363 0.0
C730 C 0.81275 0.78389 0.65615 0.0
C731 C 0.81454 0.7306 0.65553 0.0
N732 N 0.78868 0.65108 0.65945 0.0
N733 N 0.78283 0.85529 0.67205 0.0
C734 C 0.78816 0.7017 0.65358 0.0
C735 C 0.78472 0.80733 0.6601 0.0
N736 N 0.73711 0.70071 0.63587 0.0
N737 N 0.83774 0.81216 0.65233 0.0
H738 H 0.76276 0.87228 0.67819 0.0
H739 H 0.80129 0.87571 0.67964 0.0
H740 H 0.85843 0.79603 0.64789 0.0
H741 H 0.83726 0.85126 0.64994 0.0
H742 H 0.73837 0.66307 0.62864 0.0
H743 H 0.71723 0.71839 0.62983 0.0
H744 H 0.76951 0.62934 0.66089 0.0
H745 H 0.80768 0.63202 0.66688 0.0
C746 C 0.28247 0.30795 0.64629 0.0
C747 C 0.2573 0.2767 0.65132 0.0
C748 C 0.29028 0.20497 0.66081 0.0
C749 C 0.31503 0.23476 0.65162 0.0
N750 N 0.333 0.31113 0.62668 0.0
N751 N 0.23759 0.19249 0.65442 0.0
C752 C 0.31057 0.28519 0.64146 0.0
C753 C 0.26133 0.22417 0.65571 0.0
N754 N 0.28023 0.35913 0.64845 0.0
N755 N 0.2942 0.15991 0.67633 0.0
H756 H 0.21629 0.2052 0.64905 0.0
H757 H 0.23972 0.15337 0.65494 0.0
H758 H 0.31494 0.14651 0.68327 0.0
H759 H 0.27665 0.13897 0.68585 0.0
H760 H 0.2986 0.38285 0.6475 0.0
H761 H 0.26085 0.3775 0.65536 0.0
H762 H 0.33005 0.34676 0.61642 0.0
H763 H 0.35344 0.29464 0.62141 0.0
C764 C 0.76488 0.2765 0.89474 0.0
C765 C 0.76175 0.2253 0.8855 0.0
C766 C 0.81545 0.22028 0.87782 0.0
C767 C 0.81776 0.27327 0.88142 0.0
N768 N 0.792 0.35319 0.88469 0.0
N769 N 0.78397 0.15226 0.85982 0.0
C770 C 0.79177 0.30197 0.88768 0.0
C771 C 0.78703 0.19797 0.8748 0.0
N772 N 0.74248 0.30059 0.91089 0.0
N773 N 0.84031 0.19109 0.87797 0.0
H774 H 0.76343 0.13668 0.85422 0.0
H775 H 0.80175 0.13299 0.84932 0.0
H776 H 0.86135 0.20605 0.88197 0.0
H777 H 0.83955 0.15182 0.87796 0.0
H778 H 0.7447 0.33687 0.92043 0.0
H779 H 0.72311 0.28217 0.91802 0.0
H780 H 0.77287 0.37499 0.88658 0.0
H781 H 0.81029 0.37317 0.87618 0.0
C782 C 0.28605 0.6965 0.86467 0.0
C783 C 0.26097 0.72839 0.868 0.0
C784 C 0.29362 0.80194 0.86656 0.0
C785 C 0.31874 0.76985 0.86797 0.0
N786 N 0.33826 0.6863 0.87598 0.0
N787 N 0.24161 0.81109 0.87959 0.0
C788 C 0.31477 0.71695 0.86936 0.0
C789 C 0.26499 0.78109 0.87126 0.0
N790 N 0.28271 0.64755 0.85507 0.0
N791 N 0.29683 0.85166 0.85877 0.0
H792 H 0.2206 0.79661 0.88451 0.0
H793 H 0.24391 0.84929 0.885 0.0
H794 H 0.31716 0.86747 0.85242 0.0
H795 H 0.27888 0.87555 0.85477 0.0
H796 H 0.30059 0.62411 0.84964 0.0
H797 H 0.26228 0.63225 0.84871 0.0
H798 H 0.33602 0.6477 0.88001 0.0
H799 H 0.35935 0.70033 0.88094 0.0
C800 C 0.3717 0.00415 0.28087 0.0
C801 C 0.39754 0.02665 0.29392 0.0
C802 C 0.42195 0.02253 0.24032 0.0
C803 C 0.39594 1.00072 0.22692 0.0
N804 N 0.34419 0.98034 0.23209 0.0
N805 N 0.44369 0.07021 0.2848 0.0
C806 C 0.37016 0.99462 0.24654 0.0
C807 C 0.42152 0.04002 0.2732 0.0
N808 N 0.34916 0.99043 0.30145 0.0
N809 N 0.44768 0.02356 0.22256 0.0
H810 H 0.44412 0.08396 0.30879 0.0
H811 H 0.46009 0.08561 0.26985 0.0
H812 H 0.44936 0.01102 0.19841 0.0
H813 H 0.46808 0.0332 0.23265 0.0
H814 H 0.33109 0.96891 0.29411 0.0
H815 H 0.34942 0.99802 0.32659 0.0
H816 H 0.32395 0.97935 0.24433 0.0
H817 H 0.34243 0.97374 0.2069 0.0
C818 C 0.65933 0.96861 0.24189 0.0
C819 C 0.68508 0.99049 0.22765 0.0
C820 C 0.70562 0.00378 0.28304 0.0
C821 C 0.68039 0.98005 0.29682 0.0
N822 N 0.63843 0.92529 0.28869 0.0
N823 N 0.73542 0.01881 0.23423 0.0
C824 C 0.65894 0.95778 0.27599 0.0
C825 C 0.70911 0.00494 0.24816 0.0
N826 N 0.63431 0.9614 0.22366 0.0
N827 N 0.72566 0.02675 0.30316 0.0
H828 H 0.73881 0.01902 0.20888 0.0
H829 H 0.75459 0.02545 0.24768 0.0
H830 H 0.72396 0.02568 0.3287 0.0
H831 H 0.74276 0.04954 0.2946 0.0
H832 H 0.61412 0.95078 0.23396 0.0
H833 H 0.63255 0.97092 0.19898 0.0
H834 H 0.62411 0.90417 0.27412 0.0
H835 H 0.63797 0.91513 0.31341 0.0
C836 C 0.70935 0.01306 0.78437 0.0
C837 C 0.68243 0.02856 0.79947 0.0
C838 C 0.6553 0.00662 0.74939 0.0
C839 C 0.68146 0.98619 0.7355 0.0
N840 N 0.73298 0.9644 0.74092 0.0
N841 N 0.62902 0.02956 0.79888 0.0
C842 C 0.70847 0.98799 0.75326 0.0
C843 C 0.6552 0.02234 0.78264 0.0
N844 N 0.73571 0.02375 0.79918 0.0
N845 N 0.63061 0.01222 0.73042 0.0
H846 H 0.62796 0.03943 0.82361 0.0
H847 H 0.60849 0.0205 0.78889 0.0
H848 H 0.63017 0.00226 0.70567 0.0
H849 H 0.61178 0.03161 0.73817 0.0
H850 H 0.75616 0.01838 0.78786 0.0
H851 H 0.73706 0.04121 0.82208 0.0
H852 H 0.75241 0.95938 0.75422 0.0
H853 H 0.73324 0.94709 0.7179 0.0
C854 C 0.37592 0.98676 0.78162 0.0
C855 C 0.40273 0.98441 0.79962 0.0
C856 C 0.42718 0.03857 0.75948 0.0
C857 C 0.39993 0.04404 0.74259 0.0
N858 N 0.34723 0.03028 0.74001 0.0
N859 N 0.45151 0.01703 0.81035 0.0
C860 C 0.3739 0.02008 0.75433 0.0
C861 C 0.42763 0.01317 0.78997 0.0
N862 N 0.35287 0.95589 0.78988 0.0
N863 N 0.45295 0.05532 0.74559 0.0
H864 H 0.45231 0.99952 0.83323 0.0
H865 H 0.4691 0.04159 0.80614 0.0
H866 H 0.45385 0.07257 0.72263 0.0
H867 H 0.47378 0.04748 0.75524 0.0
H868 H 0.33401 0.95162 0.77551 0.0
H869 H 0.35339 0.93196 0.81018 0.0
H870 H 0.32706 0.01809 0.74953 0.0
H871 H 0.34504 0.05429 0.71989 0.0
C872 C 0.92187 0.48935 0.25223 0.0
C873 C 0.89504 0.47544 0.2367 0.0
C874 C 0.86702 0.51214 0.28282 0.0
C875 C 0.89405 0.52139 0.29955 0.0
N876 N 0.94676 0.50844 0.30317 0.0
N877 N 0.84193 0.46764 0.23868 0.0
C878 C 0.92133 0.50693 0.28508 0.0
C879 C 0.86749 0.48531 0.25234 0.0
N880 N 0.94791 0.48743 0.23512 0.0
N881 N 0.8411 0.5304 0.29546 0.0
H882 H 0.84148 0.4489 0.21615 0.0
H883 H 0.82151 0.46867 0.25057 0.0
H884 H 0.83996 0.54913 0.31796 0.0
H885 H 0.82113 0.52985 0.28276 0.0
H886 H 0.96773 0.50207 0.24402 0.0
H887 H 0.94905 0.47623 0.21062 0.0
H888 H 0.96681 0.49346 0.29506 0.0
H889 H 0.9471 0.51974 0.32768 0.0
C890 C 0.16547 0.46784 0.29017 0.0
C891 C 0.19203 0.47903 0.30745 0.0
C892 C 0.20787 0.53569 0.26325 0.0
C893 C 0.1817 0.52357 0.24575 0.0
N894 N 0.13802 0.47286 0.23903 0.0
N895 N 0.24057 0.51661 0.30882 0.0
C896 C 0.16115 0.48815 0.25826 0.0
C897 C 0.21395 0.51067 0.29339 0.0
N898 N 0.14436 0.43781 0.30429 0.0
N899 N 0.22617 0.57279 0.25175 0.0
H900 H 0.24522 0.50085 0.33169 0.0
H901 H 0.25872 0.53448 0.29819 0.0
H902 H 0.22264 0.59121 0.22949 0.0
H903 H 0.24377 0.58764 0.26504 0.0
H904 H 0.12302 0.43366 0.29513 0.0
H905 H 0.14752 0.41842 0.32624 0.0
H906 H 0.12368 0.44363 0.24509 0.0
H907 H 0.13445 0.4868 0.21542 0.0
C908 C 0.21026 0.53675 0.77108 0.0
C909 C 0.18421 0.52569 0.7892 0.0
C910 C 0.16767 0.46727 0.74647 0.0
C911 C 0.19389 0.47799 0.72827 0.0
N912 N 0.24219 0.5163 0.72485 0.0
N913 N 0.1407 0.47522 0.79793 0.0
C914 C 0.21592 0.51051 0.7412 0.0
C915 C 0.16363 0.48943 0.77794 0.0
N916 N 0.22884 0.57399 0.78177 0.0
N917 N 0.14658 0.43594 0.73365 0.0
H918 H 0.13726 0.49068 0.8212 0.0
H919 H 0.12637 0.44555 0.7929 0.0
H920 H 0.14966 0.4148 0.71236 0.0
H921 H 0.12535 0.43214 0.74329 0.0
H922 H 0.24637 0.58822 0.76801 0.0
H923 H 0.22577 0.59294 0.80397 0.0
H924 H 0.26045 0.53486 0.7346 0.0
H925 H 0.24644 0.49995 0.70203 0.0
C926 C 0.86103 0.53136 0.75411 0.0
C927 C 0.88717 0.51882 0.7365 0.0
C928 C 0.90395 0.4656 0.78206 0.0
C929 C 0.87758 0.47764 0.79971 0.0
N930 N 0.82891 0.5149 0.80084 0.0
N931 N 0.93074 0.46766 0.73021 0.0
C932 C 0.85538 0.50813 0.78508 0.0
C933 C 0.90783 0.48408 0.74954 0.0
N934 N 0.84238 0.56742 0.74196 0.0
N935 N 0.92535 0.43652 0.79638 0.0
H936 H 0.9339 0.48009 0.70615 0.0
H937 H 0.94516 0.43877 0.73666 0.0
H938 H 0.92256 0.41819 0.81876 0.0
H939 H 0.94659 0.43212 0.78688 0.0
H940 H 0.82488 0.58293 0.75521 0.0
H941 H 0.84539 0.58415 0.71903 0.0
H942 H 0.81055 0.53175 0.79003 0.0
H943 H 0.82462 0.50092 0.8243 0.0
loop_
_geom_bond_atom_site_label_1
_geom_bond_atom_site_label_2
_geom_bond_distance
_geom_bond_site_symmetry_2
_ccdc_geom_bond_type
Cu0 N1 1.999 . S
Cu0 O6 1.974 . S
Cu0 N11 1.985 . S
Cu0 O20 1.959 . S
N1 Cu0 1.999 . S
N1 C3 1.263 . S
N1 C5 1.389 . S
N2 C3 1.358 . S
N2 C4 1.400 . S
C3 N1 1.263 . S
C3 N2 1.358 . S
C3 H9 0.930 . S
C4 N2 1.400 . S
C4 C5 1.351 . S
C4 H21 0.930 . S
C5 N1 1.389 . S
C5 C4 1.351 . S
C5 H10 0.930 . S
O6 Cu0 1.974 . S
O6 C16 1.282 . S
C7 O8 1.261 . S
C7 O20 1.251 . S
O8 C7 1.261 . S
H9 C3 0.930 . S
H10 C5 0.930 . S
N11 Cu0 1.985 . S
N11 C13 1.335 . S
N11 C14 1.390 . S
N12 C13 1.345 . S
N12 C15 1.336 . S
C13 N11 1.335 . S
C13 N12 1.345 . S
C13 H18 0.930 . S
C14 N11 1.390 . S
C14 C15 1.346 . S
C14 H19 0.930 . S
C15 N12 1.336 . S
C15 C14 1.346 . S
C15 H22 0.929 . S
C16 O6 1.282 . S
C16 O17 1.216 . S
O17 C16 1.216 . S
H18 C13 0.930 . S
H19 C14 0.930 . S
O20 Cu0 1.959 . S
O20 C7 1.251 . S
H21 C4 0.930 . S
H22 C15 0.929 . S
Cu23 N24 1.999 . S
Cu23 O29 1.974 . S
Cu23 N34 1.985 . S
Cu23 O43 1.959 . S
N24 Cu23 1.999 . S
N24 C26 1.263 . S
N24 C28 1.389 . S
N25 C26 1.358 . S
N25 C27 1.400 . S
C26 N24 1.263 . S
C26 N25 1.358 . S
C26 H32 0.930 . S
C27 N25 1.400 . S
C27 C28 1.351 . S
C27 H44 0.930 . S
C28 N24 1.389 . S
C28 C27 1.351 . S
C28 H33 0.930 . S
O29 Cu23 1.974 . S
O29 C39 1.282 . S
C30 O31 1.261 . S
C30 O43 1.251 . S
O31 C30 1.261 . S
H32 C26 0.930 . S
H33 C28 0.930 . S
N34 Cu23 1.985 . S
N34 C36 1.335 . S
N34 C37 1.390 . S
N35 C36 1.345 . S
N35 C38 1.336 . S
C36 N34 1.335 . S
C36 N35 1.345 . S
C36 H41 0.930 . S
C37 N34 1.390 . S
C37 C38 1.346 . S
C37 H42 0.930 . S
C38 N35 1.336 . S
C38 C37 1.346 . S
C38 H45 0.929 . S
C39 O29 1.282 . S
C39 O40 1.216 . S
O40 C39 1.216 . S
H41 C36 0.930 . S
H42 C37 0.930 . S
O43 Cu23 1.959 . S
O43 C30 1.251 . S
H44 C27 0.930 . S
H45 C38 0.929 . S
Cu46 N47 1.999 . S
Cu46 O52 1.974 . S
Cu46 N57 1.985 . S
Cu46 O66 1.959 . S
N47 Cu46 1.999 . S
N47 C49 1.263 . S
N47 C51 1.389 . S
N48 C49 1.358 . S
N48 C50 1.400 . S
C49 N47 1.263 . S
C49 N48 1.358 . S
C49 H55 0.930 . S
C50 N48 1.400 . S
C50 C51 1.351 . S
C50 H67 0.930 . S
C51 N47 1.389 . S
C51 C50 1.351 . S
C51 H56 0.930 . S
O52 Cu46 1.974 . S
O52 C62 1.282 . S
C53 O54 1.261 . S
C53 O66 1.251 . S
O54 C53 1.261 . S
H55 C49 0.930 . S
H56 C51 0.930 . S
N57 Cu46 1.985 . S
N57 C59 1.335 . S
N57 C60 1.390 . S
N58 C59 1.345 . S
N58 C61 1.336 . S
C59 N57 1.335 . S
C59 N58 1.345 . S
C59 H64 0.930 . S
C60 N57 1.390 . S
C60 C61 1.346 . S
C60 H65 0.930 . S
C61 N58 1.336 . S
C61 C60 1.346 . S
C61 H68 0.929 . S
C62 O52 1.282 . S
C62 O63 1.216 . S
O63 C62 1.216 . S
H64 C59 0.930 . S
H65 C60 0.930 . S
O66 Cu46 1.959 . S
O66 C53 1.251 . S
H67 C50 0.930 . S
H68 C61 0.929 . S
Cu69 N70 1.999 . S
Cu69 O75 1.974 . S
Cu69 N80 1.985 . S
Cu69 O89 1.959 . S
N70 Cu69 1.999 . S
N70 C72 1.263 . S
N70 C74 1.389 . S
N71 C72 1.358 . S
N71 C73 1.400 . S
C72 N70 1.263 . S
C72 N71 1.358 . S
C72 H78 0.930 . S
C73 N71 1.400 . S
C73 C74 1.351 . S
C73 H90 0.930 . S
C74 N70 1.389 . S
C74 C73 1.351 . S
C74 H79 0.930 . S
O75 Cu69 1.974 . S
O75 C85 1.282 . S
C76 O77 1.261 . S
C76 O89 1.251 . S
O77 C76 1.261 . S
H78 C72 0.930 . S
H79 C74 0.930 . S
N80 Cu69 1.985 . S
N80 C82 1.335 . S
N80 C83 1.390 . S
N81 C82 1.345 . S
N81 C84 1.336 . S
C82 N80 1.335 . S
C82 N81 1.345 . S
C82 H87 0.930 . S
C83 N80 1.390 . S
C83 C84 1.346 . S
C83 H88 0.930 . S
C84 N81 1.336 . S
C84 C83 1.346 . S
C84 H91 0.929 . S
C85 O75 1.282 . S
C85 O86 1.216 . S
O86 C85 1.216 . S
H87 C82 0.930 . S
H88 C83 0.930 . S
O89 Cu69 1.959 . S
O89 C76 1.251 . S
H90 C73 0.930 . S
H91 C84 0.929 . S
Cu92 N93 1.999 . S
Cu92 O98 1.974 . S
Cu92 N103 1.985 . S
Cu92 O112 1.959 . S
N93 Cu92 1.999 . S
N93 C95 1.263 . S
N93 C97 1.389 . S
N94 C95 1.358 . S
N94 C96 1.400 . S
C95 N93 1.263 . S
C95 N94 1.358 . S
C95 H101 0.930 . S
C96 N94 1.400 . S
C96 C97 1.351 . S
C96 H113 0.930 . S
C97 N93 1.389 . S
C97 C96 1.351 . S
C97 H102 0.930 . S
O98 Cu92 1.974 . S
O98 C108 1.282 . S
C99 O100 1.261 . S
C99 O112 1.251 . S
O100 C99 1.261 . S
H101 C95 0.930 . S
H102 C97 0.930 . S
N103 Cu92 1.985 . S
N103 C105 1.335 . S
N103 C106 1.390 . S
N104 C105 1.345 . S
N104 C107 1.336 . S
C105 N103 1.335 . S
C105 N104 1.345 . S
C105 H110 0.930 . S
C106 N103 1.390 . S
C106 C107 1.346 . S
C106 H111 0.930 . S
C107 N104 1.336 . S
C107 C106 1.346 . S
C107 H114 0.929 . S
C108 O98 1.282 . S
C108 O109 1.216 . S
O109 C108 1.216 . S
H110 C105 0.930 . S
H111 C106 0.930 . S
O112 Cu92 1.959 . S
O112 C99 1.251 . S
H113 C96 0.930 . S
H114 C107 0.929 . S
Cu115 N116 1.999 . S
Cu115 O121 1.974 . S
Cu115 N126 1.985 . S
Cu115 O135 1.959 . S
N116 Cu115 1.999 . S
N116 C118 1.263 . S
N116 C120 1.389 . S
N117 C118 1.358 . S
N117 C119 1.400 . S
C118 N116 1.263 . S
C118 N117 1.358 . S
C118 H124 0.930 . S
C119 N117 1.400 . S
C119 C120 1.351 . S
C119 H136 0.930 . S
C120 N116 1.389 . S
C120 C119 1.351 . S
C120 H125 0.930 . S
O121 Cu115 1.974 . S
O121 C131 1.282 . S
C122 O123 1.261 . S
C122 O135 1.251 . S
O123 C122 1.261 . S
H124 C118 0.930 . S
H125 C120 0.930 . S
N126 Cu115 1.985 . S
N126 C128 1.335 . S
N126 C129 1.390 . S
N127 C128 1.345 . S
N127 C130 1.336 . S
C128 N126 1.335 . S
C128 N127 1.345 . S
C128 H133 0.930 . S
C129 N126 1.390 . S
C129 C130 1.346 . S
C129 H134 0.930 . S
C130 N127 1.336 . S
C130 C129 1.346 . S
C130 H137 0.929 . S
C131 O121 1.282 . S
C131 O132 1.216 . S
O132 C131 1.216 . S
H133 C128 0.930 . S
H134 C129 0.930 . S
O135 Cu115 1.959 . S
O135 C122 1.251 . S
H136 C119 0.930 . S
H137 C130 0.929 . S
Cu138 N139 1.999 . S
Cu138 O144 1.974 . S
Cu138 N149 1.985 . S
Cu138 O158 1.959 . S
N139 Cu138 1.999 . S
N139 C141 1.263 . S
N139 C143 1.389 . S
N140 C141 1.358 . S
N140 C142 1.400 . S
C141 N139 1.263 . S
C141 N140 1.358 . S
C141 H147 0.930 . S
C142 N140 1.400 . S
C142 C143 1.351 . S
C142 H159 0.930 . S
C143 N139 1.389 . S
C143 C142 1.351 . S
C143 H148 0.930 . S
O144 Cu138 1.974 . S
O144 C154 1.282 . S
C145 O146 1.261 . S
C145 O158 1.251 . S
O146 C145 1.261 . S
H147 C141 0.930 . S
H148 C143 0.930 . S
N149 Cu138 1.985 . S
N149 C151 1.335 . S
N149 C152 1.390 . S
N150 C151 1.345 . S
N150 C153 1.336 . S
C151 N149 1.335 . S
C151 N150 1.345 . S
C151 H156 0.930 . S
C152 N149 1.390 . S
C152 C153 1.346 . S
C152 H157 0.930 . S
C153 N150 1.336 . S
C153 C152 1.346 . S
C153 H160 0.929 . S
C154 O144 1.282 . S
C154 O155 1.216 . S
O155 C154 1.216 . S
H156 C151 0.930 . S
H157 C152 0.930 . S
O158 Cu138 1.959 . S
O158 C145 1.251 . S
H159 C142 0.930 . S
H160 C153 0.929 . S
Cu161 N162 1.999 . S
Cu161 O167 1.974 . S
Cu161 N172 1.985 . S
Cu161 O181 1.959 . S
N162 Cu161 1.999 . S
N162 C164 1.263 . S
N162 C166 1.389 . S
N163 C164 1.358 . S
N163 C165 1.400 . S
C164 N162 1.263 . S
C164 N163 1.358 . S
C164 H170 0.930 . S
C165 N163 1.400 . S
C165 C166 1.351 . S
C165 H182 0.930 . S
C166 N162 1.389 . S
C166 C165 1.351 . S
C166 H171 0.930 . S
O167 Cu161 1.974 . S
O167 C177 1.282 . S
C168 O169 1.261 . S
C168 O181 1.251 . S
O169 C168 1.261 . S
H170 C164 0.930 . S
H171 C166 0.930 . S
N172 Cu161 1.985 . S
N172 C174 1.335 . S
N172 C175 1.390 . S
N173 C174 1.345 . S
N173 C176 1.336 . S
C174 N172 1.335 . S
C174 N173 1.345 . S
C174 H179 0.930 . S
C175 N172 1.390 . S
C175 C176 1.346 . S
C175 H180 0.930 . S
C176 N173 1.336 . S
C176 C175 1.346 . S
C176 H183 0.929 . S
C177 O167 1.282 . S
C177 O178 1.216 . S
O178 C177 1.216 . S
H179 C174 0.930 . S
H180 C175 0.930 . S
O181 Cu161 1.959 . S
O181 C168 1.251 . S
H182 C165 0.930 . S
H183 C176 0.929 . S
Cu184 N185 1.999 . S
Cu184 O190 1.974 . S
Cu184 N195 1.985 . S
Cu184 O204 1.959 . S
N185 Cu184 1.999 . S
N185 C187 1.263 . S
N185 C189 1.389 . S
N186 C187 1.358 . S
N186 C188 1.400 . S
C187 N185 1.263 . S
C187 N186 1.358 . S
C187 H193 0.930 . S
C188 N186 1.400 . S
C188 C189 1.351 . S
C188 H205 0.930 . S
C189 N185 1.389 . S
C189 C188 1.351 . S
C189 H194 0.930 . S
O190 Cu184 1.974 . S
O190 C200 1.282 . S
C191 O192 1.261 . S
C191 O204 1.251 . S
O192 C191 1.261 . S
H193 C187 0.930 . S
H194 C189 0.930 . S
N195 Cu184 1.985 . S
N195 C197 1.335 . S
N195 C198 1.390 . S
N196 C197 1.345 . S
N196 C199 1.336 . S
C197 N195 1.335 . S
C197 N196 1.345 . S
C197 H202 0.930 . S
C198 N195 1.390 . S
C198 C199 1.346 . S
C198 H203 0.930 . S
C199 N196 1.336 . S
C199 C198 1.346 . S
C199 H206 0.929 . S
C200 O190 1.282 . S
C200 O201 1.216 . S
O201 C200 1.216 . S
H202 C197 0.930 . S
H203 C198 0.930 . S
O204 Cu184 1.959 . S
O204 C191 1.251 . S
H205 C188 0.930 . S
H206 C199 0.929 . S
Cu207 N208 1.999 . S
Cu207 O213 1.974 . S
Cu207 N218 1.985 . S
Cu207 O227 1.959 . S
N208 Cu207 1.999 . S
N208 C210 1.263 . S
N208 C212 1.389 . S
N209 C210 1.358 . S
N209 C211 1.400 . S
C210 N208 1.263 . S
C210 N209 1.358 . S
C210 H216 0.930 . S
C211 N209 1.400 . S
C211 C212 1.351 . S
C211 H228 0.930 . S
C212 N208 1.389 . S
C212 C211 1.351 . S
C212 H217 0.930 . S
O213 Cu207 1.974 . S
O213 C223 1.282 . S
C214 O215 1.261 . S
C214 O227 1.251 . S
O215 C214 1.261 . S
H216 C210 0.930 . S
H217 C212 0.930 . S
N218 Cu207 1.985 . S
N218 C220 1.335 . S
N218 C221 1.390 . S
N219 C220 1.345 . S
N219 C222 1.336 . S
C220 N218 1.335 . S
C220 N219 1.345 . S
C220 H225 0.930 . S
C221 N218 1.390 . S
C221 C222 1.346 . S
C221 H226 0.930 . S
C222 N219 1.336 . S
C222 C221 1.346 . S
C222 H229 0.929 . S
C223 O213 1.282 . S
C223 O224 1.216 . S
O224 C223 1.216 . S
H225 C220 0.930 . S
H226 C221 0.930 . S
O227 Cu207 1.959 . S
O227 C214 1.251 . S
H228 C211 0.930 . S
H229 C222 0.929 . S
Cu230 N231 1.999 . S
Cu230 O236 1.974 . S
Cu230 N241 1.985 . S
Cu230 O250 1.959 . S
N231 Cu230 1.999 . S
N231 C233 1.263 . S
N231 C235 1.389 . S
N232 C233 1.358 . S
N232 C234 1.400 . S
C233 N231 1.263 . S
C233 N232 1.358 . S
C233 H239 0.930 . S
C234 N232 1.400 . S
C234 C235 1.351 . S
C234 H251 0.930 . S
C235 N231 1.389 . S
C235 C234 1.351 . S
C235 H240 0.930 . S
O236 Cu230 1.974 . S
O236 C246 1.282 . S
C237 O238 1.261 . S
C237 O250 1.251 . S
O238 C237 1.261 . S
H239 C233 0.930 . S
H240 C235 0.930 . S
N241 Cu230 1.985 . S
N241 C243 1.335 . S
N241 C244 1.390 . S
N242 C243 1.345 . S
N242 C245 1.336 . S
C243 N241 1.335 . S
C243 N242 1.345 . S
C243 H248 0.930 . S
C244 N241 1.390 . S
C244 C245 1.346 . S
C244 H249 0.930 . S
C245 N242 1.336 . S
C245 C244 1.346 . S
C245 H252 0.929 . S
C246 O236 1.282 . S
C246 O247 1.216 . S
O247 C246 1.216 . S
H248 C243 0.930 . S
H249 C244 0.930 . S
O250 Cu230 1.959 . S
O250 C237 1.251 . S
H251 C234 0.930 . S
H252 C245 0.929 . S
Cu253 N254 1.999 . S
Cu253 O259 1.974 . S
Cu253 N264 1.985 . S
Cu253 O273 1.959 . S
N254 Cu253 1.999 . S
N254 C256 1.263 . S
N254 C258 1.389 . S
N255 C256 1.358 . S
N255 C257 1.400 . S
C256 N254 1.263 . S
C256 N255 1.358 . S
C256 H262 0.930 . S
C257 N255 1.400 . S
C257 C258 1.351 . S
C257 H274 0.930 . S
C258 N254 1.389 . S
C258 C257 1.351 . S
C258 H263 0.930 . S
O259 Cu253 1.974 . S
O259 C269 1.282 . S
C260 O261 1.261 . S
C260 O273 1.251 . S
O261 C260 1.261 . S
H262 C256 0.930 . S
H263 C258 0.930 . S
N264 Cu253 1.985 . S
N264 C266 1.335 . S
N264 C267 1.390 . S
N265 C266 1.345 . S
N265 C268 1.336 . S
C266 N264 1.335 . S
C266 N265 1.345 . S
C266 H271 0.930 . S
C267 N264 1.390 . S
C267 C268 1.346 . S
C267 H272 0.930 . S
C268 N265 1.336 . S
C268 C267 1.346 . S
C268 H275 0.929 . S
C269 O259 1.282 . S
C269 O270 1.216 . S
O270 C269 1.216 . S
H271 C266 0.930 . S
H272 C267 0.930 . S
O273 Cu253 1.959 . S
O273 C260 1.251 . S
H274 C257 0.930 . S
H275 C268 0.929 . S
Cu276 N277 1.999 . S
Cu276 O282 1.974 . S
Cu276 N287 1.985 . S
Cu276 O296 1.959 . S
N277 Cu276 1.999 . S
N277 C279 1.263 . S
N277 C281 1.389 . S
N278 C279 1.358 . S
N278 C280 1.400 . S
C279 N277 1.263 . S
C279 N278 1.358 . S
C279 H285 0.930 . S
C280 N278 1.400 . S
C280 C281 1.351 . S
C280 H297 0.930 . S
C281 N277 1.389 . S
C281 C280 1.351 . S
C281 H286 0.930 . S
O282 Cu276 1.974 . S
O282 C292 1.282 . S
C283 O284 1.261 . S
C283 O296 1.251 . S
O284 C283 1.261 . S
H285 C279 0.930 . S
H286 C281 0.930 . S
N287 Cu276 1.985 . S
N287 C289 1.335 . S
N287 C290 1.390 . S
N288 C289 1.345 . S
N288 C291 1.336 . S
C289 N287 1.335 . S
C289 N288 1.345 . S
C289 H294 0.930 . S
C290 N287 1.390 . S
C290 C291 1.346 . S
C290 H295 0.930 . S
C291 N288 1.336 . S
C291 C290 1.346 . S
C291 H298 0.929 . S
C292 O282 1.282 . S
C292 O293 1.216 . S
O293 C292 1.216 . S
H294 C289 0.930 . S
H295 C290 0.930 . S
O296 Cu276 1.959 . S
O296 C283 1.251 . S
H297 C280 0.930 . S
H298 C291 0.929 . S
Cu299 N300 1.999 . S
Cu299 O305 1.974 . S
Cu299 N310 1.985 . S
Cu299 O319 1.959 . S
N300 Cu299 1.999 . S
N300 C302 1.263 . S
N300 C304 1.389 . S
N301 C302 1.358 . S
N301 C303 1.400 . S
C302 N300 1.263 . S
C302 N301 1.358 . S
C302 H308 0.930 . S
C303 N301 1.400 . S
C303 C304 1.351 . S
C303 H320 0.930 . S
C304 N300 1.389 . S
C304 C303 1.351 . S
C304 H309 0.930 . S
O305 Cu299 1.974 . S
O305 C315 1.282 . S
C306 O307 1.261 . S
C306 O319 1.251 . S
O307 C306 1.261 . S
H308 C302 0.930 . S
H309 C304 0.930 . S
N310 Cu299 1.985 . S
N310 C312 1.335 . S
N310 C313 1.390 . S
N311 C312 1.345 . S
N311 C314 1.336 . S
C312 N310 1.335 . S
C312 N311 1.345 . S
C312 H317 0.930 . S
C313 N310 1.390 . S
C313 C314 1.346 . S
C313 H318 0.930 . S
C314 N311 1.336 . S
C314 C313 1.346 . S
C314 H321 0.929 . S
C315 O305 1.282 . S
C315 O316 1.216 . S
O316 C315 1.216 . S
H317 C312 0.930 . S
H318 C313 0.930 . S
O319 Cu299 1.959 . S
O319 C306 1.251 . S
H320 C303 0.930 . S
H321 C314 0.929 . S
Cu322 N323 1.999 . S
Cu322 O328 1.974 . S
Cu322 N333 1.985 . S
Cu322 O342 1.959 . S
N323 Cu322 1.999 . S
N323 C325 1.263 . S
N323 C327 1.389 . S
N324 C325 1.358 . S
N324 C326 1.400 . S
C325 N323 1.263 . S
C325 N324 1.358 . S
C325 H331 0.930 . S
C326 N324 1.400 . S
C326 C327 1.351 . S
C326 H343 0.930 . S
C327 N323 1.389 . S
C327 C326 1.351 . S
C327 H332 0.930 . S
O328 Cu322 1.974 . S
O328 C338 1.282 . S
C329 O330 1.261 . S
C329 O342 1.251 . S
O330 C329 1.261 . S
H331 C325 0.930 . S
H332 C327 0.930 . S
N333 Cu322 1.985 . S
N333 C335 1.335 . S
N333 C336 1.390 . S
N334 C335 1.345 . S
N334 C337 1.336 . S
C335 N333 1.335 . S
C335 N334 1.345 . S
C335 H340 0.930 . S
C336 N333 1.390 . S
C336 C337 1.346 . S
C336 H341 0.930 . S
C337 N334 1.336 . S
C337 C336 1.346 . S
C337 H344 0.929 . S
C338 O328 1.282 . S
C338 O339 1.216 . S
O339 C338 1.216 . S
H340 C335 0.930 . S
H341 C336 0.930 . S
O342 Cu322 1.959 . S
O342 C329 1.251 . S
H343 C326 0.930 . S
H344 C337 0.929 . S
Cu345 N346 1.999 . S
Cu345 O351 1.974 . S
Cu345 N356 1.985 . S
Cu345 O365 1.959 . S
N346 Cu345 1.999 . S
N346 C348 1.263 . S
N346 C350 1.389 . S
N347 C348 1.358 . S
N347 C349 1.400 . S
C348 N346 1.263 . S
C348 N347 1.358 . S
C348 H354 0.930 . S
C349 N347 1.400 . S
C349 C350 1.351 . S
C349 H366 0.930 . S
C350 N346 1.389 . S
C350 C349 1.351 . S
C350 H355 0.930 . S
O351 Cu345 1.974 . S
O351 C361 1.282 . S
C352 O353 1.261 . S
C352 O365 1.251 . S
O353 C352 1.261 . S
H354 C348 0.930 . S
H355 C350 0.930 . S
N356 Cu345 1.985 . S
N356 C358 1.335 . S
N356 C359 1.390 . S
N357 C358 1.345 . S
N357 C360 1.336 . S
C358 N356 1.335 . S
C358 N357 1.345 . S
C358 H363 0.930 . S
C359 N356 1.390 . S
C359 C360 1.346 . S
C359 H364 0.930 . S
C360 N357 1.336 . S
C360 C359 1.346 . S
C360 H367 0.929 . S
C361 O351 1.282 . S
C361 O362 1.216 . S
O362 C361 1.216 . S
H363 C358 0.930 . S
H364 C359 0.930 . S
O365 Cu345 1.959 . S
O365 C352 1.251 . S
H366 C349 0.930 . S
H367 C360 0.929 . S
C368 C369 1.363 . S
C368 C374 1.379 . S
C368 N376 1.356 . S
C369 C368 1.363 . S
C369 C375 1.363 . S
C370 C371 1.363 . S
C370 C375 1.379 . S
C370 N377 1.356 . S
C371 C370 1.363 . S
C371 C374 1.363 . S
N372 C374 1.356 . S
N372 H384 0.984 . S
N372 H385 0.985 . S
N373 C375 1.356 . S
N373 H378 0.984 . S
N373 H379 0.985 . S
C374 C368 1.379 . S
C374 C371 1.363 . S
C374 N372 1.356 . S
C375 C369 1.363 . S
C375 C370 1.379 . S
C375 N373 1.356 . S
N376 C368 1.356 . S
N376 H382 0.984 . S
N376 H383 0.984 . S
N377 C370 1.356 . S
N377 H380 0.984 . S
N377 H381 0.985 . S
H378 N373 0.984 . S
H379 N373 0.985 . S
H380 N377 0.984 . S
H381 N377 0.985 . S
H382 N376 0.984 . S
H383 N376 0.984 . S
H384 N372 0.984 . S
H385 N372 0.985 . S
C386 C387 1.363 . S
C386 C392 1.379 . S
C386 N394 1.356 . S
C387 C386 1.363 . S
C387 C393 1.363 . S
C388 C389 1.363 . S
C388 C393 1.379 . S
C388 N395 1.356 . S
C389 C388 1.363 . S
C389 C392 1.363 . S
N390 C392 1.356 . S
N390 H402 0.984 . S
N390 H403 0.985 . S
N391 C393 1.356 . S
N391 H396 0.984 . S
N391 H397 0.985 . S
C392 C386 1.379 . S
C392 C389 1.363 . S
C392 N390 1.356 . S
C393 C387 1.363 . S
C393 C388 1.379 . S
C393 N391 1.356 . S
N394 C386 1.356 . S
N394 H400 0.984 . S
N394 H401 0.984 . S
N395 C388 1.356 . S
N395 H398 0.984 . S
N395 H399 0.985 . S
H396 N391 0.984 . S
H397 N391 0.985 . S
H398 N395 0.984 . S
H399 N395 0.985 . S
H400 N394 0.984 . S
H401 N394 0.984 . S
H402 N390 0.984 . S
H403 N390 0.985 . S
C404 C405 1.363 . S
C404 C410 1.379 1_554 S
C404 N412 1.356 . S
C405 C404 1.363 . S
C405 C411 1.363 . S
C406 C407 1.363 . S
C406 C411 1.379 1_556 S
C406 N413 1.356 . S
C407 C406 1.363 . S
C407 C410 1.363 . S
N408 C410 1.356 . S
N408 H420 0.984 . S
N408 H421 0.985 . S
N409 C411 1.356 . S
N409 H414 0.984 . S
N409 H415 0.985 . S
C410 C404 1.379 1_556 S
C410 C407 1.363 . S
C410 N408 1.356 . S
C411 C405 1.363 . S
C411 C406 1.379 1_554 S
C411 N409 1.356 . S
N412 C404 1.356 . S
N412 H418 0.984 . S
N412 H419 0.984 . S
N413 C406 1.356 . S
N413 H416 0.984 . S
N413 H417 0.985 . S
H414 N409 0.984 . S
H415 N409 0.985 . S
H416 N413 0.984 . S
H417 N413 0.985 . S
H418 N412 0.984 . S
H419 N412 0.984 . S
H420 N408 0.984 . S
H421 N408 0.985 . S
C422 C423 1.363 . S
C422 C428 1.379 1_556 S
C422 N430 1.356 . S
C423 C422 1.363 . S
C423 C429 1.363 . S
C424 C425 1.363 . S
C424 C429 1.379 1_554 S
C424 N431 1.356 . S
C425 C424 1.363 . S
C425 C428 1.363 . S
N426 C428 1.356 . S
N426 H438 0.984 . S
N426 H439 0.985 . S
N427 C429 1.356 . S
N427 H432 0.984 . S
N427 H433 0.985 . S
C428 C422 1.379 1_554 S
C428 C425 1.363 . S
C428 N426 1.356 . S
C429 C423 1.363 . S
C429 C424 1.379 1_556 S
C429 N427 1.356 . S
N430 C422 1.356 . S
N430 H436 0.984 . S
N430 H437 0.984 . S
N431 C424 1.356 . S
N431 H434 0.984 . S
N431 H435 0.985 . S
H432 N427 0.984 . S
H433 N427 0.985 . S
H434 N431 0.984 . S
H435 N431 0.985 . S
H436 N430 0.984 . S
H437 N430 0.984 . S
H438 N426 0.984 . S
H439 N426 0.985 . S
C440 C441 1.363 . S
C440 C446 1.379 . S
C440 N448 1.356 . S
C441 C440 1.363 . S
C441 C447 1.363 . S
C442 C443 1.363 . S
C442 C447 1.379 . S
C442 N449 1.356 . S
C443 C442 1.363 . S
C443 C446 1.363 . S
N444 C446 1.356 . S
N444 H456 0.984 . S
N444 H457 0.985 . S
N445 C447 1.356 . S
N445 H450 0.984 . S
N445 H451 0.985 . S
C446 C440 1.379 . S
C446 C443 1.363 . S
C446 N444 1.356 . S
C447 C441 1.363 . S
C447 C442 1.379 . S
C447 N445 1.356 . S
N448 C440 1.356 . S
N448 H454 0.984 . S
N448 H455 0.984 . S
N449 C442 1.356 . S
N449 H452 0.984 . S
N449 H453 0.985 . S
H450 N445 0.984 . S
H451 N445 0.985 . S
H452 N449 0.984 . S
H453 N449 0.985 . S
H454 N448 0.984 . S
H455 N448 0.984 . S
H456 N444 0.984 . S
H457 N444 0.985 . S
C458 C459 1.363 . S
C458 C464 1.379 . S
C458 N466 1.356 . S
C459 C458 1.363 . S
C459 C465 1.363 . S
C460 C461 1.363 . S
C460 C465 1.379 . S
C460 N467 1.356 . S
C461 C460 1.363 . S
C461 C464 1.363 . S
N462 C464 1.356 . S
N462 H474 0.984 . S
N462 H475 0.985 . S
N463 C465 1.356 . S
N463 H468 0.984 . S
N463 H469 0.985 . S
C464 C458 1.379 . S
C464 C461 1.363 . S
C464 N462 1.356 . S
C465 C459 1.363 . S
C465 C460 1.379 . S
C465 N463 1.356 . S
N466 C458 1.356 . S
N466 H472 0.984 . S
N466 H473 0.984 . S
N467 C460 1.356 . S
N467 H470 0.984 . S
N467 H471 0.985 . S
H468 N463 0.984 . S
H469 N463 0.985 . S
H470 N467 0.984 . S
H471 N467 0.985 . S
H472 N466 0.984 . S
H473 N466 0.984 . S
H474 N462 0.984 . S
H475 N462 0.985 . S
C476 C477 1.363 . S
C476 C482 1.379 1_556 S
C476 N484 1.356 . S
C477 C476 1.363 . S
C477 C483 1.363 . S
C478 C479 1.363 . S
C478 C483 1.379 1_554 S
C478 N485 1.356 . S
C479 C478 1.363 . S
C479 C482 1.363 . S
N480 C482 1.356 . S
N480 H492 0.984 . S
N480 H493 0.985 . S
N481 C483 1.356 . S
N481 H486 0.984 . S
N481 H487 0.985 . S
C482 C476 1.379 1_554 S
C482 C479 1.363 . S
C482 N480 1.356 . S
C483 C477 1.363 . S
C483 C478 1.379 1_556 S
C483 N481 1.356 . S
N484 C476 1.356 . S
N484 H490 0.984 . S
N484 H491 0.984 . S
N485 C478 1.356 . S
N485 H488 0.984 . S
N485 H489 0.985 . S
H486 N481 0.984 . S
H487 N481 0.985 . S
H488 N485 0.984 . S
H489 N485 0.985 . S
H490 N484 0.984 . S
H491 N484 0.984 . S
H492 N480 0.984 . S
H493 N480 0.985 . S
C494 C495 1.363 . S
C494 C500 1.379 1_554 S
C494 N502 1.356 . S
C495 C494 1.363 . S
C495 C501 1.363 . S
C496 C497 1.363 . S
C496 C501 1.379 1_556 S
C496 N503 1.356 . S
C497 C496 1.363 . S
C497 C500 1.363 . S
N498 C500 1.356 . S
N498 H510 0.984 . S
N498 H511 0.985 . S
N499 C501 1.356 . S
N499 H504 0.984 . S
N499 H505 0.985 . S
C500 C494 1.379 1_556 S
C500 C497 1.363 . S
C500 N498 1.356 . S
C501 C495 1.363 . S
C501 C496 1.379 1_554 S
C501 N499 1.356 . S
N502 C494 1.356 . S
N502 H508 0.984 . S
N502 H509 0.984 . S
N503 C496 1.356 . S
N503 H506 0.984 . S
N503 H507 0.985 . S
H504 N499 0.984 . S
H505 N499 0.985 . S
H506 N503 0.984 . S
H507 N503 0.985 . S
H508 N502 0.984 . S
H509 N502 0.984 . S
H510 N498 0.984 . S
H511 N498 0.985 . S
C512 C513 1.363 . S
C512 C518 1.379 . S
C512 N520 1.356 . S
C513 C512 1.363 . S
C513 C519 1.363 1_565 S
C514 C515 1.363 . S
C514 C519 1.379 . S
C514 N521 1.356 . S
C515 C514 1.363 . S
C515 C518 1.363 1_545 S
N516 C518 1.356 . S
N516 H528 0.984 . S
N516 H529 0.985 1_565 S
N517 C519 1.356 . S
N517 H522 0.984 1_545 S
N517 H523 0.985 . S
C518 C512 1.379 . S
C518 C515 1.363 1_565 S
C518 N516 1.356 . S
C519 C513 1.363 1_545 S
C519 C514 1.379 . S
C519 N517 1.356 . S
N520 C512 1.356 . S
N520 H526 0.984 . S
N520 H527 0.984 . S
N521 C514 1.356 . S
N521 H524 0.984 . S
N521 H525 0.985 . S
H522 N517 0.984 1_565 S
H523 N517 0.985 . S
H524 N521 0.984 . S
H525 N521 0.985 . S
H526 N520 0.984 . S
H527 N520 0.984 . S
H528 N516 0.984 . S
H529 N516 0.985 1_545 S
C530 C531 1.363 1_545 S
C530 C536 1.379 . S
C530 N538 1.356 . S
C531 C530 1.363 1_565 S
C531 C537 1.363 . S
C532 C533 1.363 1_565 S
C532 C537 1.379 . S
C532 N539 1.356 . S
C533 C532 1.363 1_545 S
C533 C536 1.363 . S
N534 C536 1.356 . S
N534 H546 0.984 . S
N534 H547 0.985 . S
N535 C537 1.356 . S
N535 H540 0.984 . S
N535 H541 0.985 . S
C536 C530 1.379 . S
C536 C533 1.363 . S
C536 N534 1.356 . S
C537 C531 1.363 . S
C537 C532 1.379 . S
C537 N535 1.356 . S
N538 C530 1.356 . S
N538 H544 0.984 . S
N538 H545 0.984 1_545 S
N539 C532 1.356 . S
N539 H542 0.984 1_565 S
N539 H543 0.985 . S
H540 N535 0.984 . S
H541 N535 0.985 . S
H542 N539 0.984 1_545 S
H543 N539 0.985 . S
H544 N538 0.984 . S
H545 N538 0.984 1_565 S
H546 N534 0.984 . S
H547 N534 0.985 . S
C548 C549 1.363 . S
C548 C554 1.379 . S
C548 N556 1.356 . S
C549 C548 1.363 . S
C549 C555 1.363 1_565 S
C550 C551 1.363 . S
C550 C555 1.379 . S
C550 N557 1.356 . S
C551 C550 1.363 . S
C551 C554 1.363 1_545 S
N552 C554 1.356 . S
N552 H564 0.984 . S
N552 H565 0.985 1_565 S
N553 C555 1.356 . S
N553 H558 0.984 1_545 S
N553 H559 0.985 . S
C554 C548 1.379 . S
C554 C551 1.363 1_565 S
C554 N552 1.356 . S
C555 C549 1.363 1_545 S
C555 C550 1.379 . S
C555 N553 1.356 . S
N556 C548 1.356 . S
N556 H562 0.984 . S
N556 H563 0.984 . S
N557 C550 1.356 . S
N557 H560 0.984 . S
N557 H561 0.985 . S
H558 N553 0.984 1_565 S
H559 N553 0.985 . S
H560 N557 0.984 . S
H561 N557 0.985 . S
H562 N556 0.984 . S
H563 N556 0.984 . S
H564 N552 0.984 . S
H565 N552 0.985 1_545 S
C566 C567 1.363 . S
C566 C572 1.379 . S
C566 N574 1.356 . S
C567 C566 1.363 . S
C567 C573 1.363 1_545 S
C568 C569 1.363 . S
C568 C573 1.379 . S
C568 N575 1.356 . S
C569 C568 1.363 . S
C569 C572 1.363 1_565 S
N570 C572 1.356 . S
N570 H582 0.984 . S
N570 H583 0.985 1_545 S
N571 C573 1.356 . S
N571 H576 0.984 1_565 S
N571 H577 0.985 . S
C572 C566 1.379 . S
C572 C569 1.363 1_545 S
C572 N570 1.356 . S
C573 C567 1.363 1_565 S
C573 C568 1.379 . S
C573 N571 1.356 . S
N574 C566 1.356 . S
N574 H580 0.984 . S
N574 H581 0.984 . S
N575 C568 1.356 . S
N575 H578 0.984 . S
N575 H579 0.985 . S
H576 N571 0.984 1_545 S
H577 N571 0.985 . S
H578 N575 0.984 . S
H579 N575 0.985 . S
H580 N574 0.984 . S
H581 N574 0.984 . S
H582 N570 0.984 . S
H583 N570 0.985 1_565 S
C584 C585 1.363 . S
C584 C590 1.379 1_655 S
C584 N592 1.356 . S
C585 C584 1.363 . S
C585 C591 1.363 . S
C586 C587 1.363 . S
C586 C591 1.379 1_455 S
C586 N593 1.356 . S
C587 C586 1.363 . S
C587 C590 1.363 . S
N588 C590 1.356 . S
N588 H600 0.984 . S
N588 H601 0.985 . S
N589 C591 1.356 . S
N589 H594 0.984 . S
N589 H595 0.985 . S
C590 C584 1.379 1_455 S
C590 C587 1.363 . S
C590 N588 1.356 . S
C591 C585 1.363 . S
C591 C586 1.379 1_655 S
C591 N589 1.356 . S
N592 C584 1.356 . S
N592 H598 0.984 . S
N592 H599 0.984 . S
N593 C586 1.356 . S
N593 H596 0.984 . S
N593 H597 0.985 . S
H594 N589 0.984 . S
H595 N589 0.985 . S
H596 N593 0.984 . S
H597 N593 0.985 . S
H598 N592 0.984 . S
H599 N592 0.984 . S
H600 N588 0.984 . S
H601 N588 0.985 . S
C602 C603 1.363 . S
C602 C608 1.379 1_455 S
C602 N610 1.356 . S
C603 C602 1.363 . S
C603 C609 1.363 . S
C604 C605 1.363 . S
C604 C609 1.379 1_655 S
C604 N611 1.356 . S
C605 C604 1.363 . S
C605 C608 1.363 . S
N606 C608 1.356 . S
N606 H618 0.984 . S
N606 H619 0.985 . S
N607 C609 1.356 . S
N607 H612 0.984 . S
N607 H613 0.985 . S
C608 C602 1.379 1_655 S
C608 C605 1.363 . S
C608 N606 1.356 . S
C609 C603 1.363 . S
C609 C604 1.379 1_455 S
C609 N607 1.356 . S
N610 C602 1.356 . S
N610 H616 0.984 . S
N610 H617 0.984 . S
N611 C604 1.356 . S
N611 H614 0.984 . S
N611 H615 0.985 . S
H612 N607 0.984 . S
H613 N607 0.985 . S
H614 N611 0.984 . S
H615 N611 0.985 . S
H616 N610 0.984 . S
H617 N610 0.984 . S
H618 N606 0.984 . S
H619 N606 0.985 . S
C620 C621 1.363 . S
C620 C626 1.379 1_655 S
C620 N628 1.356 . S
C621 C620 1.363 . S
C621 C627 1.363 . S
C622 C623 1.363 . S
C622 C627 1.379 1_455 S
C622 N629 1.356 . S
C623 C622 1.363 . S
C623 C626 1.363 . S
N624 C626 1.356 . S
N624 H636 0.984 . S
N624 H637 0.985 . S
N625 C627 1.356 . S
N625 H630 0.984 . S
N625 H631 0.985 . S
C626 C620 1.379 1_455 S
C626 C623 1.363 . S
C626 N624 1.356 . S
C627 C621 1.363 . S
C627 C622 1.379 1_655 S
C627 N625 1.356 . S
N628 C620 1.356 . S
N628 H634 0.984 . S
N628 H635 0.984 . S
N629 C622 1.356 . S
N629 H632 0.984 . S
N629 H633 0.985 . S
H630 N625 0.984 . S
H631 N625 0.985 . S
H632 N629 0.984 . S
H633 N629 0.985 . S
H634 N628 0.984 . S
H635 N628 0.984 . S
H636 N624 0.984 . S
H637 N624 0.985 . S
C638 C639 1.363 . S
C638 C644 1.379 1_455 S
C638 N646 1.356 . S
C639 C638 1.363 . S
C639 C645 1.363 . S
C640 C641 1.363 . S
C640 C645 1.379 1_655 S
C640 N647 1.356 . S
C641 C640 1.363 . S
C641 C644 1.363 . S
N642 C644 1.356 . S
N642 H654 0.984 . S
N642 H655 0.985 . S
N643 C645 1.356 . S
N643 H648 0.984 . S
N643 H649 0.985 . S
C644 C638 1.379 1_655 S
C644 C641 1.363 . S
C644 N642 1.356 . S
C645 C639 1.363 . S
C645 C640 1.379 1_455 S
C645 N643 1.356 . S
N646 C638 1.356 . S
N646 H652 0.984 . S
N646 H653 0.984 . S
N647 C640 1.356 . S
N647 H650 0.984 . S
N647 H651 0.985 . S
H648 N643 0.984 . S
H649 N643 0.985 . S
H650 N647 0.984 . S
H651 N647 0.985 . S
H652 N646 0.984 . S
H653 N646 0.984 . S
H654 N642 0.984 . S
H655 N642 0.985 . S
C656 C657 1.363 . S
C656 C662 1.379 . S
C656 N664 1.356 . S
C657 C656 1.363 . S
C657 C663 1.363 . S
C658 C659 1.363 . S
C658 C663 1.379 . S
C658 N665 1.356 . S
C659 C658 1.363 . S
C659 C662 1.363 . S
N660 C662 1.356 . S
N660 H672 0.984 . S
N660 H673 0.985 . S
N661 C663 1.356 . S
N661 H666 0.984 . S
N661 H667 0.985 . S
C662 C656 1.379 . S
C662 C659 1.363 . S
C662 N660 1.356 . S
C663 C657 1.363 . S
C663 C658 1.379 . S
C663 N661 1.356 . S
N664 C656 1.356 . S
N664 H670 0.984 . S
N664 H671 0.984 . S
N665 C658 1.356 . S
N665 H668 0.984 . S
N665 H669 0.985 . S
H666 N661 0.984 . S
H667 N661 0.985 . S
H668 N665 0.984 . S
H669 N665 0.985 . S
H670 N664 0.984 . S
H671 N664 0.984 . S
H672 N660 0.984 . S
H673 N660 0.985 . S
C674 C675 1.363 . S
C674 C680 1.379 . S
C674 N682 1.356 . S
C675 C674 1.363 . S
C675 C681 1.363 . S
C676 C677 1.363 . S
C676 C681 1.379 . S
C676 N683 1.356 . S
C677 C676 1.363 . S
C677 C680 1.363 . S
N678 C680 1.356 . S
N678 H690 0.984 . S
N678 H691 0.985 . S
N679 C681 1.356 . S
N679 H684 0.984 . S
N679 H685 0.985 . S
C680 C674 1.379 . S
C680 C677 1.363 . S
C680 N678 1.356 . S
C681 C675 1.363 . S
C681 C676 1.379 . S
C681 N679 1.356 . S
N682 C674 1.356 . S
N682 H688 0.984 . S
N682 H689 0.984 . S
N683 C676 1.356 . S
N683 H686 0.984 . S
N683 H687 0.985 . S
H684 N679 0.984 . S
H685 N679 0.985 . S
H686 N683 0.984 . S
H687 N683 0.985 . S
H688 N682 0.984 . S
H689 N682 0.984 . S
H690 N678 0.984 . S
H691 N678 0.985 . S
C692 C693 1.363 . S
C692 C698 1.379 . S
C692 N700 1.356 . S
C693 C692 1.363 . S
C693 C699 1.363 . S
C694 C695 1.363 . S
C694 C699 1.379 . S
C694 N701 1.356 . S
C695 C694 1.363 . S
C695 C698 1.363 . S
N696 C698 1.356 . S
N696 H708 0.984 . S
N696 H709 0.985 . S
N697 C699 1.356 . S
N697 H702 0.984 . S
N697 H703 0.985 . S
C698 C692 1.379 . S
C698 C695 1.363 . S
C698 N696 1.356 . S
C699 C693 1.363 . S
C699 C694 1.379 . S
C699 N697 1.356 . S
N700 C692 1.356 . S
N700 H706 0.984 . S
N700 H707 0.984 . S
N701 C694 1.356 . S
N701 H704 0.984 . S
N701 H705 0.985 . S
H702 N697 0.984 . S
H703 N697 0.985 . S
H704 N701 0.984 . S
H705 N701 0.985 . S
H706 N700 0.984 . S
H707 N700 0.984 . S
H708 N696 0.984 . S
H709 N696 0.985 . S
C710 C711 1.363 . S
C710 C716 1.379 . S
C710 N718 1.356 . S
C711 C710 1.363 . S
C711 C717 1.363 . S
C712 C713 1.363 . S
C712 C717 1.379 . S
C712 N719 1.356 . S
C713 C712 1.363 . S
C713 C716 1.363 . S
N714 C716 1.356 . S
N714 H726 0.984 . S
N714 H727 0.985 . S
N715 C717 1.356 . S
N715 H720 0.984 . S
N715 H721 0.985 . S
C716 C710 1.379 . S
C716 C713 1.363 . S
C716 N714 1.356 . S
C717 C711 1.363 . S
C717 C712 1.379 . S
C717 N715 1.356 . S
N718 C710 1.356 . S
N718 H724 0.984 . S
N718 H725 0.984 . S
N719 C712 1.356 . S
N719 H722 0.984 . S
N719 H723 0.985 . S
H720 N715 0.984 . S
H721 N715 0.985 . S
H722 N719 0.984 . S
H723 N719 0.985 . S
H724 N718 0.984 . S
H725 N718 0.984 . S
H726 N714 0.984 . S
H727 N714 0.985 . S
C728 C729 1.363 . S
C728 C734 1.379 . S
C728 N736 1.356 . S
C729 C728 1.363 . S
C729 C735 1.363 . S
C730 C731 1.363 . S
C730 C735 1.379 . S
C730 N737 1.356 . S
C731 C730 1.363 . S
C731 C734 1.363 . S
N732 C734 1.356 . S
N732 H744 0.984 . S
N732 H745 0.985 . S
N733 C735 1.356 . S
N733 H738 0.984 . S
N733 H739 0.985 . S
C734 C728 1.379 . S
C734 C731 1.363 . S
C734 N732 1.356 . S
C735 C729 1.363 . S
C735 C730 1.379 . S
C735 N733 1.356 . S
N736 C728 1.356 . S
N736 H742 0.984 . S
N736 H743 0.984 . S
N737 C730 1.356 . S
N737 H740 0.984 . S
N737 H741 0.985 . S
H738 N733 0.984 . S
H739 N733 0.985 . S
H740 N737 0.984 . S
H741 N737 0.985 . S
H742 N736 0.984 . S
H743 N736 0.984 . S
H744 N732 0.984 . S
H745 N732 0.985 . S
C746 C747 1.363 . S
C746 C752 1.379 . S
C746 N754 1.356 . S
C747 C746 1.363 . S
C747 C753 1.363 . S
C748 C749 1.363 . S
C748 C753 1.379 . S
C748 N755 1.356 . S
C749 C748 1.363 . S
C749 C752 1.363 . S
N750 C752 1.356 . S
N750 H762 0.984 . S
N750 H763 0.985 . S
N751 C753 1.356 . S
N751 H756 0.984 . S
N751 H757 0.985 . S
C752 C746 1.379 . S
C752 C749 1.363 . S
C752 N750 1.356 . S
C753 C747 1.363 . S
C753 C748 1.379 . S
C753 N751 1.356 . S
N754 C746 1.356 . S
N754 H760 0.984 . S
N754 H761 0.984 . S
N755 C748 1.356 . S
N755 H758 0.984 . S
N755 H759 0.985 . S
H756 N751 0.984 . S
H757 N751 0.985 . S
H758 N755 0.984 . S
H759 N755 0.985 . S
H760 N754 0.984 . S
H761 N754 0.984 . S
H762 N750 0.984 . S
H763 N750 0.985 . S
C764 C765 1.363 . S
C764 C770 1.379 . S
C764 N772 1.356 . S
C765 C764 1.363 . S
C765 C771 1.363 . S
C766 C767 1.363 . S
C766 C771 1.379 . S
C766 N773 1.356 . S
C767 C766 1.363 . S
C767 C770 1.363 . S
N768 C770 1.356 . S
N768 H780 0.984 . S
N768 H781 0.985 . S
N769 C771 1.356 . S
N769 H774 0.984 . S
N769 H775 0.985 . S
C770 C764 1.379 . S
C770 C767 1.363 . S
C770 N768 1.356 . S
C771 C765 1.363 . S
C771 C766 1.379 . S
C771 N769 1.356 . S
N772 C764 1.356 . S
N772 H778 0.984 . S
N772 H779 0.984 . S
N773 C766 1.356 . S
N773 H776 0.984 . S
N773 H777 0.985 . S
H774 N769 0.984 . S
H775 N769 0.985 . S
H776 N773 0.984 . S
H777 N773 0.985 . S
H778 N772 0.984 . S
H779 N772 0.984 . S
H780 N768 0.984 . S
H781 N768 0.985 . S
C782 C783 1.363 . S
C782 C788 1.379 . S
C782 N790 1.356 . S
C783 C782 1.363 . S
C783 C789 1.363 . S
C784 C785 1.363 . S
C784 C789 1.379 . S
C784 N791 1.356 . S
C785 C784 1.363 . S
C785 C788 1.363 . S
N786 C788 1.356 . S
N786 H798 0.984 . S
N786 H799 0.985 . S
N787 C789 1.356 . S
N787 H792 0.984 . S
N787 H793 0.985 . S
C788 C782 1.379 . S
C788 C785 1.363 . S
C788 N786 1.356 . S
C789 C783 1.363 . S
C789 C784 1.379 . S
C789 N787 1.356 . S
N790 C782 1.356 . S
N790 H796 0.984 . S
N790 H797 0.984 . S
N791 C784 1.356 . S
N791 H794 0.984 . S
N791 H795 0.985 . S
H792 N787 0.984 . S
H793 N787 0.985 . S
H794 N791 0.984 . S
H795 N791 0.985 . S
H796 N790 0.984 . S
H797 N790 0.984 . S
H798 N786 0.984 . S
H799 N786 0.985 . S
C800 C801 1.363 . S
C800 C806 1.379 1_545 S
C800 N808 1.356 . S
C801 C800 1.363 . S
C801 C807 1.363 . S
C802 C803 1.363 . S
C802 C807 1.379 1_565 S
C802 N809 1.356 . S
C803 C802 1.363 . S
C803 C806 1.363 . S
N804 C806 1.356 . S
N804 H816 0.984 . S
N804 H817 0.985 . S
N805 C807 1.356 . S
N805 H810 0.984 . S
N805 H811 0.985 . S
C806 C800 1.379 1_565 S
C806 C803 1.363 . S
C806 N804 1.356 . S
C807 C801 1.363 . S
C807 C802 1.379 1_545 S
C807 N805 1.356 . S
N808 C800 1.356 . S
N808 H814 0.984 . S
N808 H815 0.984 . S
N809 C802 1.356 . S
N809 H812 0.984 . S
N809 H813 0.985 . S
H810 N805 0.984 . S
H811 N805 0.985 . S
H812 N809 0.984 . S
H813 N809 0.985 . S
H814 N808 0.984 . S
H815 N808 0.984 . S
H816 N804 0.984 . S
H817 N804 0.985 . S
C818 C819 1.366 . S
C818 C824 1.376 1_545 S
C818 N826 1.357 . S
C819 C818 1.366 . S
C819 C825 1.363 . S
C820 C821 1.366 . S
C820 C825 1.375 1_565 S
C820 N827 1.357 . S
C821 C820 1.366 . S
C821 C824 1.363 . S
N822 C824 1.356 . S
N822 H834 0.984 . S
N822 H835 0.985 . S
N823 C825 1.356 . S
N823 H828 0.984 . S
N823 H829 0.985 . S
C824 C818 1.376 1_565 S
C824 C821 1.363 . S
C824 N822 1.356 . S
C825 C819 1.363 . S
C825 C820 1.375 1_545 S
C825 N823 1.356 . S
N826 C818 1.357 . S
N826 H832 0.984 1_545 S
N826 H833 0.984 . S
N827 C820 1.357 . S
N827 H830 0.984 . S
N827 H831 0.985 1_565 S
H828 N823 0.984 . S
H829 N823 0.985 . S
H830 N827 0.984 . S
H831 N827 0.985 1_545 S
H832 N826 0.984 1_565 S
H833 N826 0.984 . S
H834 N822 0.984 . S
H835 N822 0.985 . S
C836 C837 1.371 . S
C836 C842 1.371 1_545 S
C836 N844 1.359 . S
C837 C836 1.371 . S
C837 C843 1.363 . S
C838 C839 1.371 . S
C838 C843 1.371 1_565 S
C838 N845 1.359 . S
C839 C838 1.371 . S
C839 C842 1.363 . S
N840 C842 1.356 . S
N840 H852 0.984 . S
N840 H853 0.985 . S
N841 C843 1.356 . S
N841 H846 0.984 . S
N841 H847 0.985 . S
C842 C836 1.371 1_565 S
C842 C839 1.363 . S
C842 N840 1.356 . S
C843 C837 1.363 . S
C843 C838 1.371 1_545 S
C843 N841 1.356 . S
N844 C836 1.359 . S
N844 H850 0.984 1_545 S
N844 H851 0.984 . S
N845 C838 1.359 . S
N845 H848 0.984 . S
N845 H849 0.985 1_565 S
H846 N841 0.984 . S
H847 N841 0.985 . S
H848 N845 0.984 . S
H849 N845 0.985 1_545 S
H850 N844 0.984 1_565 S
H851 N844 0.984 . S
H852 N840 0.984 . S
H853 N840 0.985 . S
C854 C855 1.363 . S
C854 C860 1.379 . S
C854 N862 1.356 . S
C855 C854 1.363 . S
C855 C861 1.363 1_565 S
C856 C857 1.363 . S
C856 C861 1.379 . S
C856 N863 1.356 . S
C857 C856 1.363 . S
C857 C860 1.363 1_545 S
N858 C860 1.358 . S
N858 H870 0.992 . S
N858 H871 0.976 1_565 S
N859 C861 1.358 . S
N859 H864 0.975 1_545 S
N859 H865 0.992 . S
C860 C854 1.379 . S
C860 C857 1.363 1_565 S
C860 N858 1.358 . S
C861 C855 1.363 1_545 S
C861 C856 1.379 . S
C861 N859 1.358 . S
N862 C854 1.356 . S
N862 H868 0.984 . S
N862 H869 0.984 . S
N863 C856 1.356 . S
N863 H866 0.984 . S
N863 H867 0.985 . S
H864 N859 0.975 1_565 S
H865 N859 0.992 . S
H866 N863 0.984 . S
H867 N863 0.985 . S
H868 N862 0.984 . S
H869 N862 0.984 . S
H870 N858 0.992 . S
H871 N858 0.976 1_545 S
C872 C873 1.363 . S
C872 C878 1.379 . S
C872 N880 1.356 . S
C873 C872 1.363 . S
C873 C879 1.363 . S
C874 C875 1.363 . S
C874 C879 1.379 . S
C874 N881 1.356 . S
C875 C874 1.363 . S
C875 C878 1.363 . S
N876 C878 1.356 . S
N876 H888 0.984 . S
N876 H889 0.985 . S
N877 C879 1.356 . S
N877 H882 0.984 . S
N877 H883 0.985 . S
C878 C872 1.379 . S
C878 C875 1.363 . S
C878 N876 1.356 . S
C879 C873 1.363 . S
C879 C874 1.379 . S
C879 N877 1.356 . S
N880 C872 1.356 . S
N880 H886 0.984 . S
N880 H887 0.984 . S
N881 C874 1.356 . S
N881 H884 0.984 . S
N881 H885 0.985 . S
H882 N877 0.984 . S
H883 N877 0.985 . S
H884 N881 0.984 . S
H885 N881 0.985 . S
H886 N880 0.984 . S
H887 N880 0.984 . S
H888 N876 0.984 . S
H889 N876 0.985 . S
C890 C891 1.363 . S
C890 C896 1.379 . S
C890 N898 1.356 . S
C891 C890 1.363 . S
C891 C897 1.363 . S
C892 C893 1.363 . S
C892 C897 1.379 . S
C892 N899 1.356 . S
C893 C892 1.363 . S
C893 C896 1.363 . S
N894 C896 1.356 . S
N894 H906 0.984 . S
N894 H907 0.985 . S
N895 C897 1.356 . S
N895 H900 0.984 . S
N895 H901 0.985 . S
C896 C890 1.379 . S
C896 C893 1.363 . S
C896 N894 1.356 . S
C897 C891 1.363 . S
C897 C892 1.379 . S
C897 N895 1.356 . S
N898 C890 1.356 . S
N898 H904 0.984 . S
N898 H905 0.984 . S
N899 C892 1.356 . S
N899 H902 0.984 . S
N899 H903 0.985 . S
H900 N895 0.984 . S
H901 N895 0.985 . S
H902 N899 0.984 . S
H903 N899 0.985 . S
H904 N898 0.984 . S
H905 N898 0.984 . S
H906 N894 0.984 . S
H907 N894 0.985 . S
C908 C909 1.363 . S
C908 C914 1.379 . S
C908 N916 1.356 . S
C909 C908 1.363 . S
C909 C915 1.363 . S
C910 C911 1.363 . S
C910 C915 1.379 . S
C910 N917 1.356 . S
C911 C910 1.363 . S
C911 C914 1.363 . S
N912 C914 1.356 . S
N912 H924 0.984 . S
N912 H925 0.985 . S
N913 C915 1.356 . S
N913 H918 0.984 . S
N913 H919 0.985 . S
C914 C908 1.379 . S
C914 C911 1.363 . S
C914 N912 1.356 . S
C915 C909 1.363 . S
C915 C910 1.379 . S
C915 N913 1.356 . S
N916 C908 1.356 . S
N916 H922 0.984 . S
N916 H923 0.984 . S
N917 C910 1.356 . S
N917 H920 0.984 . S
N917 H921 0.985 . S
H918 N913 0.984 . S
H919 N913 0.985 . S
H920 N917 0.984 . S
H921 N917 0.985 . S
H922 N916 0.984 . S
H923 N916 0.984 . S
H924 N912 0.984 . S
H925 N912 0.985 . S
C926 C927 1.363 . S
C926 C932 1.379 . S
C926 N934 1.356 . S
C927 C926 1.363 . S
C927 C933 1.363 . S
C928 C929 1.363 . S
C928 C933 1.379 . S
C928 N935 1.356 . S
C929 C928 1.363 . S
C929 C932 1.363 . S
N930 C932 1.356 . S
N930 H942 0.984 . S
N930 H943 0.985 . S
N931 C933 1.356 . S
N931 H936 0.984 . S
N931 H937 0.985 . S
C932 C926 1.379 . S
C932 C929 1.363 . S
C932 N930 1.356 . S
C933 C927 1.363 . S
C933 C928 1.379 . S
C933 N931 1.356 . S
N934 C926 1.356 . S
N934 H940 0.984 . S
N934 H941 0.984 . S
N935 C928 1.356 . S
N935 H938 0.984 . S
N935 H939 0.985 . S
H936 N931 0.984 . S
H937 N931 0.985 . S
H938 N935 0.984 . S
H939 N935 0.985 . S
H940 N934 0.984 . S
H941 N934 0.984 . S
H942 N930 0.984 . S
H943 N930 0.985 . S
C369 C7 1.646 . S
C371 C122 1.646 . S
C387 C99 1.646 . S
C389 C30 1.646 . S
C405 C53 1.646 . S
C407 C168 1.646 . S
C423 C145 1.646 . S
C425 C76 1.646 . S
C441 C306 1.646 . S
C443 C191 1.646 . S
C459 C283 1.646 . S
C461 C214 1.646 . S
C477 C352 1.646 . S
C479 C237 1.646 . S
C495 C260 1.646 . S
C497 C329 1.646 . S
C513 N25 1.455 . S
C515 N2 1.455 . S
C531 N48 1.455 . S
C533 N71 1.455 . S
C549 N94 1.455 . S
C551 N117 1.455 . S
C567 N140 1.455 . S
C569 N163 1.455 . S
C585 N186 1.455 . S
C587 N209 1.455 . S
C603 N255 1.455 . S
C605 N232 1.455 . S
C621 N301 1.455 . S
C623 N278 1.455 . S
C639 N324 1.455 . S
C641 N347 1.455 . S
C657 N219 1.468 . S
C659 N12 1.468 . S
C675 N35 1.468 . S
C677 N196 1.468 . S
C693 N265 1.468 . S
C695 N58 1.468 . S
C711 N81 1.468 . S
C713 N242 1.468 . S
C729 N104 1.468 . S
C731 N311 1.468 . S
C747 N288 1.468 . S
C749 N127 1.468 . S
C765 N150 1.468 . S
C767 N357 1.468 . S
C783 N334 1.468 . S
C785 N173 1.468 . S
C801 C16 1.617 . S
C803 C62 1.617 . S
C819 C85 1.617 . S
C821 C39 1.617 . S
C837 C154 1.617 . S
C839 C108 1.617 . S
C855 C177 1.617 . S
C857 C131 1.617 . S
C873 C246 1.617 . S
C875 C200 1.617 . S
C891 C223 1.617 . S
C893 C269 1.617 . S
C909 C338 1.617 . S
C911 C292 1.617 . S
C927 C315 1.617 . S
C929 C361 1.617 . S
