# Generated by pormake.
# Topology sra, (4)-cn, num edge types: 1
# Building blocks:
#     Node 0, Type 0, BuildingBlock: UXUYUI_clean_sbu_0, # of connection points: 4
#     Node 1, Type 0, BuildingBlock: UXUYUI_clean_sbu_0, # of connection points: 4
#     Node 2, Type 0, BuildingBlock: UXUYUI_clean_sbu_0, # of connection points: 4
#     Node 3, Type 0, BuildingBlock: UXUYUI_clean_sbu_0, # of connection points: 4
#     Node 4, Type 0, BuildingBlock: UXUYUI_clean_sbu_0, # of connection points: 4
#     Node 5, Type 0, BuildingBlock: UXUYUI_clean_sbu_0, # of connection points: 4
#     Node 6, Type 0, BuildingBlock: UXUYUI_clean_sbu_0, # of connection points: 4
#     Node 7, Type 0, BuildingBlock: UXUYUI_clean_sbu_0, # of connection points: 4
#     Edge 8, Type (0, 0), BuildingBlock: AJUNOK_clean_linker_0, # of connection points: 2
#     Edge 9, Type (0, 0), BuildingBlock: AJUNOK_clean_linker_0, # of connection points: 2
#     Edge 10, Type (0, 0), BuildingBlock: AJUNOK_clean_linker_0, # of connection points: 2
#     Edge 11, Type (0, 0), BuildingBlock: AJUNOK_clean_linker_0, # of connection points: 2
#     Edge 12, Type (0, 0), BuildingBlock: AJUNOK_clean_linker_0, # of connection points: 2
#     Edge 13, Type (0, 0), BuildingBlock: AJUNOK_clean_linker_0, # of connection points: 2
#     Edge 14, Type (0, 0), BuildingBlock: AJUNOK_clean_linker_0, # of connection points: 2
#     Edge 15, Type (0, 0), BuildingBlock: AJUNOK_clean_linker_0, # of connection points: 2
#     Edge 16, Type (0, 0), BuildingBlock: AJUNOK_clean_linker_0, # of connection points: 2
#     Edge 17, Type (0, 0), BuildingBlock: AJUNOK_clean_linker_0, # of connection points: 2
#     Edge 18, Type (0, 0), BuildingBlock: AJUNOK_clean_linker_0, # of connection points: 2
#     Edge 19, Type (0, 0), BuildingBlock: AJUNOK_clean_linker_0, # of connection points: 2
#     Edge 20, Type (0, 0), BuildingBlock: AJUNOK_clean_linker_0, # of connection points: 2
#     Edge 21, Type (0, 0), BuildingBlock: AJUNOK_clean_linker_0, # of connection points: 2
#     Edge 22, Type (0, 0), BuildingBlock: AJUNOK_clean_linker_0, # of connection points: 2
#     Edge 23, Type (0, 0), BuildingBlock: AJUNOK_clean_linker_0, # of connection points: 2
# Relax obj value: 0.133
# Max RMSD: 0.099
# Mean RMSD: 0.099
data_MOF--net-sra--node1-UXUYUI_clean_sbu_0--edge1-AJUNOK_clean_linker_0
_symmetry_space_group_name_H-M    P1
_symmetry_Int_Tables_number       1
_symmetry_cell_setting            triclinic
loop_
_symmetry_equiv_pos_as_xyz
'x, y, z'
_cell_length_a     30.869978
_cell_length_b     52.10167
_cell_length_c     51.332772
_cell_angle_alpha  89.983963
_cell_angle_beta   90.019198
_cell_angle_gamma 90.021784
loop_
_atom_site_label
_atom_site_type_symbol
_atom_site_fract_x
_atom_site_fract_y
_atom_site_fract_z
_atom_type_partial_charge
Li0 Li 0.00998 0.10505 0.16105 0.0
Li1 Li 0.04799 0.06839 0.18333 0.0
Li2 Li 1.00735 0.06333 0.14237 0.0
Li3 Li 0.9663 0.07043 0.18091 0.0
C4 C 0.08839 0.10148 0.13926 0.0
N5 N 0.14512 0.13812 0.12053 0.0
C6 C 0.12556 0.10782 0.15343 0.0
C7 C 0.08035 0.11354 0.11543 0.0
C8 C 0.15379 0.12645 0.14366 0.0
C9 C 0.10933 0.13209 0.10634 0.0
C10 C 0.9867 0.10158 0.2199 0.0
C11 C 0.96497 0.09294 0.26414 0.0
N12 N 0.93897 0.11401 0.26359 0.0
C13 C 0.95992 0.12319 0.21977 0.0
C14 C 0.98941 0.08634 0.24224 0.0
C15 C 0.936 0.12914 0.24206 0.0
C16 C 0.97894 0.15332 0.14435 0.0
N17 N 0.01232 0.14124 0.15653 0.0
C18 C 0.04623 0.18144 0.16595 0.0
C19 C 0.04553 0.15468 0.16736 0.0
C20 C 0.01182 0.19439 0.15389 0.0
C21 C 0.97803 0.18006 0.1428 0.0
H22 H 0.95244 0.14222 0.13645 0.0
H23 H 0.07093 0.14464 0.17767 0.0
C24 C 0.12514 0.04145 0.19818 0.0
N25 N 0.09776 0.06106 0.20407 0.0
C26 C 0.16379 0.03833 0.2121 0.0
C27 C 0.14494 0.07537 0.23804 0.0
C28 C 0.10677 0.07777 0.22366 0.0
C29 C 0.17436 0.05568 0.23209 0.0
H30 H 0.11751 0.02863 0.18229 0.0
H31 H 0.08492 0.09351 0.2276 0.0
C32 C 0.93349 0.08537 0.12556 0.0
N33 N 0.88311 0.08029 0.08137 0.0
C34 C 0.89502 0.07123 0.12643 0.0
C35 C 0.94607 0.09717 0.10231 0.0
C36 C 0.87004 0.06884 0.10385 0.0
C37 C 0.92026 0.09428 0.08015 0.0
C38 C 0.99739 0.01752 0.16337 0.0
C39 C 0.9553 0.00769 0.16217 0.0
C40 C 0.03161 0.00364 0.15248 0.0
C41 C 0.94812 0.98411 0.14995 0.0
C42 C 0.02308 0.98017 0.14036 0.0
N43 N 0.98186 0.97097 0.13937 0.0
C44 C 0.04536 0.04742 0.09477 0.0
C45 C 0.97359 0.03241 0.10042 0.0
C46 C 0.0474 0.03626 0.07005 0.0
N47 N 0.00859 0.04569 0.10926 0.0
C48 C 0.97404 0.0212 0.07571 0.0
C49 C 0.01107 0.02337 0.05998 0.0
H50 H 0.07316 0.05757 0.10237 0.0
H51 H 0.94504 0.03069 0.11238 0.0
C52 C 0.88201 0.08289 0.19581 0.0
N53 N 0.91395 0.06546 0.20011 0.0
C54 C 0.84321 0.0815 0.20964 0.0
C55 C 0.87087 0.04435 0.2324 0.0
C56 C 0.90927 0.04642 0.21803 0.0
C57 C 0.83719 0.06205 0.22822 0.0
H58 H 0.8869 0.09805 0.18172 0.0
H59 H 0.93554 0.03309 0.22138 0.0
O60 O 0.06015 0.08345 0.14859 0.0
O61 O 0.00912 0.0949 0.19798 0.0
O62 O 0.95835 0.08795 0.14747 0.0
O63 O 1.00494 0.04071 0.17499 0.0
H64 H 0.13246 0.09859 0.17183 0.0
H65 H 0.05201 0.10865 0.1041 0.0
H66 H 0.18256 0.13165 0.15448 0.0
H67 H 0.10338 0.14167 0.08798 0.0
H68 H 0.96652 0.08124 0.28153 0.0
H69 H 0.95725 0.13506 0.20253 0.0
H70 H 0.00973 0.06941 0.24253 0.0
H71 H 0.91494 0.14573 0.24222 0.0
H72 H 0.07254 0.19195 0.17496 0.0
H73 H 0.951 0.18949 0.13333 0.0
H74 H 0.18533 0.02268 0.20714 0.0
H75 H 0.15203 0.0893 0.25311 0.0
H76 H 0.88489 0.06184 0.14421 0.0
H77 H 0.9755 0.10837 0.10137 0.0
H78 H 0.84037 0.0578 0.10418 0.0
H79 H 0.92974 0.10318 0.06198 0.0
H80 H 0.92838 0.01829 0.17028 0.0
H81 H 0.06429 0.01111 0.153 0.0
H82 H 0.91569 0.97632 0.14876 0.0
H83 H 0.0492 0.9693 0.13167 0.0
H84 H 0.07715 0.03767 0.05898 0.0
H85 H 0.94534 0.01135 0.06881 0.0
H86 H 0.81809 0.09551 0.20578 0.0
H87 H 0.86793 0.02941 0.24696 0.0
Li88 Li 0.0123 0.43855 0.14129 0.0
Li89 Li 0.04788 0.43273 0.18368 0.0
Li90 Li 0.00841 0.39563 0.1625 0.0
Li91 Li 0.96949 0.43188 0.18259 0.0
C92 C 0.08826 0.40702 0.13118 0.0
N93 N 0.1449 0.39114 0.0927 0.0
C94 C 0.13017 0.41715 0.12997 0.0
C95 C 0.07553 0.38842 0.11311 0.0
C96 C 0.15821 0.409 0.11028 0.0
C97 C 0.10452 0.38075 0.09373 0.0
C98 C 0.02974 0.48222 0.18137 0.0
C99 C 0.05272 0.50992 0.21636 0.0
N100 N 0.07564 0.52427 0.19903 0.0
C101 C 0.05324 0.49732 0.16387 0.0
C102 C 0.02915 0.48864 0.2078 0.0
C103 C 0.07633 0.51849 0.1732 0.0
C104 C 0.97539 0.46286 0.09731 0.0
N105 N 0.01366 0.45556 0.10817 0.0
C106 C 0.05246 0.47049 0.07079 0.0
C107 C 0.05189 0.45965 0.09568 0.0
C108 C 0.01332 0.47732 0.05869 0.0
C109 C 0.97446 0.4738 0.07244 0.0
H110 H 0.94546 0.45973 0.10779 0.0
H111 H 0.08198 0.4545 0.10498 0.0
C112 C 0.10403 0.42911 0.22709 0.0
N113 N 0.09871 0.44076 0.2036 0.0
C114 C 0.14233 0.43247 0.2412 0.0
C115 C 0.16888 0.46006 0.20691 0.0
C116 C 0.12998 0.45623 0.19349 0.0
C117 C 0.17568 0.44773 0.2309 0.0
H118 H 0.07904 0.41661 0.23457 0.0
H119 H 0.1252 0.46513 0.1747 0.0
C120 C 0.93569 0.40637 0.12812 0.0
N121 N 0.88529 0.3861 0.08863 0.0
C122 C 0.89151 0.40196 0.13213 0.0
C123 C 0.95406 0.40076 0.1039 0.0
C124 C 0.86663 0.3916 0.11197 0.0
C125 C 0.92809 0.39047 0.08422 0.0
C126 C 0.9878 0.39987 0.22176 0.0
C127 C 0.96819 0.37576 0.22369 0.0
C128 C 0.98474 0.41714 0.24251 0.0
C129 C 0.94519 0.36948 0.24625 0.0
C130 C 0.96136 0.41015 0.26471 0.0
N131 N 0.94221 0.38668 0.26609 0.0
C132 C 0.04501 0.34643 0.16435 0.0
C133 C 0.97208 0.34676 0.14993 0.0
C134 C 0.04614 0.31965 0.16307 0.0
N135 N 0.00828 0.35935 0.15794 0.0
C136 C 0.97191 0.32004 0.14812 0.0
C137 C 0.00904 0.30609 0.15518 0.0
H138 H 0.0732 0.35695 0.17091 0.0
H139 H 0.94301 0.35732 0.14539 0.0
C140 C 0.90636 0.46269 0.20972 0.0
N141 N 0.91669 0.4389 0.20072 0.0
C142 C 0.86792 0.46649 0.22372 0.0
C143 C 0.85191 0.42131 0.21893 0.0
C144 C 0.89005 0.41849 0.2047 0.0
C145 C 0.84064 0.4455 0.22866 0.0
H146 H 0.92805 0.47863 0.2062 0.0
H147 H 0.89879 0.39986 0.19706 0.0
O148 O 0.06049 0.41472 0.15046 0.0
O149 O 1.00737 0.46127 0.17266 0.0
O150 O 0.96049 0.41644 0.14774 0.0
O151 O 0.00959 0.4066 0.19958 0.0
H152 H 0.14087 0.4313 0.14393 0.0
H153 H 0.04383 0.37973 0.11415 0.0
H154 H 0.19059 0.41685 0.10901 0.0
H155 H 0.09498 0.36643 0.07959 0.0
H156 H 0.05279 0.51503 0.23679 0.0
H157 H 0.05391 0.49265 0.14334 0.0
H158 H 0.01089 0.47723 0.22155 0.0
H159 H 0.09486 0.53028 0.15991 0.0
H160 H 0.08322 0.47357 0.06113 0.0
H161 H 0.94362 0.47894 0.06383 0.0
H162 H 0.14643 0.42251 0.25956 0.0
H163 H 0.19356 0.47228 0.19848 0.0
H164 H 0.87656 0.40643 0.15062 0.0
H165 H 0.9878 0.40469 0.10016 0.0
H166 H 0.83246 0.38798 0.11486 0.0
H167 H 0.94194 0.38607 0.06539 0.0
H168 H 0.97031 0.36214 0.20784 0.0
H169 H 0.99986 0.43582 0.24137 0.0
H170 H 0.9296 0.35096 0.24794 0.0
H171 H 0.95838 0.42341 0.28082 0.0
H172 H 0.07536 0.30963 0.16881 0.0
H173 H 0.9429 0.3104 0.1414 0.0
H174 H 0.85995 0.48542 0.23099 0.0
H175 H 0.83133 0.40479 0.22229 0.0
Li176 Li 1.00505 0.93861 0.87391 0.0
Li177 Li 0.96904 0.93299 0.83149 0.0
Li178 Li 0.0092 0.89599 0.8523 0.0
Li179 Li 0.04758 0.93235 0.83238 0.0
C180 C 0.92934 0.90724 0.88418 0.0
N181 N 0.87339 0.89204 0.92331 0.0
C182 C 0.88701 0.91673 0.88496 0.0
C183 C 0.94293 0.88967 0.90307 0.0
C184 C 0.85929 0.90893 0.90496 0.0
C185 C 0.91425 0.88231 0.92275 0.0
C186 C 0.98671 0.98268 0.83483 0.0
C187 C 0.96365 0.01192 0.80117 0.0
N188 N 0.94017 0.02521 0.81908 0.0
C189 C 0.96264 0.99671 0.85295 0.0
C190 C 0.98754 0.99042 0.80877 0.0
C191 C 0.93924 0.01814 0.84458 0.0
C192 C 0.04306 0.96483 0.91603 0.0
N193 N 1.00464 0.95558 0.90705 0.0
C194 C 0.96879 0.96915 0.94599 0.0
C195 C 0.96771 0.95786 0.92132 0.0
C196 C 0.00807 0.97859 0.95585 0.0
C197 C 0.04553 0.97648 0.94051 0.0
H198 H 0.07193 0.96283 0.90427 0.0
H199 H 0.93737 0.95097 0.91364 0.0
C200 C 0.91358 0.92959 0.78789 0.0
N201 N 0.91831 0.94109 0.81149 0.0
C202 C 0.87595 0.93331 0.77326 0.0
C203 C 0.84849 0.96071 0.80742 0.0
C204 C 0.88678 0.95652 0.82137 0.0
C205 C 0.8427 0.94896 0.78304 0.0
H206 H 0.93853 0.91694 0.78067 0.0
H207 H 0.89092 0.96515 0.84034 0.0
C208 C 0.08182 0.90536 0.88595 0.0
N209 N 0.13232 0.88245 0.92388 0.0
C210 C 0.12486 0.89884 0.88065 0.0
C211 C 0.06476 0.90062 0.9107 0.0
C212 C 0.14977 0.88715 0.90003 0.0
C213 C 0.09072 0.88894 0.92958 0.0
C214 C 0.02805 0.9014 0.79242 0.0
C215 C 0.04642 0.87716 0.78872 0.0
C216 C 0.03094 0.91979 0.77266 0.0
C217 C 0.06807 0.87186 0.76544 0.0
C218 C 0.05293 0.91377 0.74968 0.0
N219 N 0.07093 0.89014 0.74659 0.0
C220 C 0.97268 0.84644 0.85659 0.0
C221 C 0.04941 0.84751 0.85818 0.0
C222 C 0.9729 0.81967 0.85811 0.0
N223 N 0.0106 0.85974 0.8567 0.0
C224 C 0.05114 0.82078 0.8597 0.0
C225 C 0.01254 0.80653 0.85935 0.0
H226 H 0.9423 0.85663 0.85485 0.0
H227 H 0.0791 0.85842 0.85747 0.0
C228 C 0.11106 0.96398 0.8066 0.0
N229 N 0.10011 0.9398 0.81418 0.0
C230 C 0.14941 0.96823 0.79263 0.0
C231 C 0.164 0.92267 0.79449 0.0
C232 C 0.12601 0.91939 0.80876 0.0
C233 C 0.17593 0.94729 0.78622 0.0
H234 H 0.08996 0.9799 0.81127 0.0
H235 H 0.11683 0.90044 0.81532 0.0
O236 O 0.95686 0.91473 0.86469 0.0
O237 O 0.00945 0.96151 0.8426 0.0
O238 O 0.05704 0.91688 0.86715 0.0
O239 O 0.00757 0.90713 0.81533 0.0
H240 H 0.8757 0.93011 0.87038 0.0
H241 H 0.97504 0.8815 0.90239 0.0
H242 H 0.82656 0.91627 0.90589 0.0
H243 H 0.92442 0.86877 0.93751 0.0
H244 H 0.96378 0.01805 0.78103 0.0
H245 H 0.96173 0.99101 0.8732 0.0
H246 H 1.00631 0.97989 0.79457 0.0
H247 H 0.92026 0.0291 0.85835 0.0
H248 H 0.93916 0.97068 0.95719 0.0
H249 H 0.0765 0.98336 0.94758 0.0
H250 H 0.87234 0.92337 0.75486 0.0
H251 H 0.82351 0.97282 0.81568 0.0
H252 H 0.13888 0.90267 0.86176 0.0
H253 H 0.03205 0.9062 0.91547 0.0
H254 H 0.18302 0.88185 0.89612 0.0
H255 H 0.07785 0.88514 0.94879 0.0
H256 H 0.04427 0.86265 0.80373 0.0
H257 H 0.01672 0.93858 0.77517 0.0
H258 H 0.08269 0.85324 0.76238 0.0
H259 H 0.05576 0.92789 0.73433 0.0
H260 H 0.94247 0.80932 0.85758 0.0
H261 H 0.08234 0.81136 0.8609 0.0
H262 H 0.15791 0.98749 0.78654 0.0
H263 H 0.18401 0.90617 0.79004 0.0
Li264 Li 0.96658 0.57037 0.83144 0.0
Li265 Li 0.0075 0.60545 0.85194 0.0
Li266 Li 0.04558 0.56807 0.83008 0.0
Li267 Li 0.00962 0.56239 0.87258 0.0
C268 C 0.98985 0.60101 0.79131 0.0
N269 N 0.95253 0.61303 0.74393 0.0
C270 C 0.97065 0.62501 0.78751 0.0
C271 C 0.99068 0.58328 0.7709 0.0
C272 C 0.9518 0.63068 0.76344 0.0
C273 C 0.97147 0.58967 0.74712 0.0
C274 C 0.9364 0.59889 0.88527 0.0
C275 C 0.9327 0.61848 0.92777 0.0
N276 N 0.89155 0.6263 0.92262 0.0
C277 C 0.8939 0.60687 0.8805 0.0
C278 C 0.95583 0.60453 0.90917 0.0
C279 C 0.87184 0.62081 0.89959 0.0
C280 C 0.9003 0.5409 0.80536 0.0
N281 N 0.9135 0.56459 0.81319 0.0
C282 C 0.85023 0.58381 0.79479 0.0
C283 C 0.88912 0.58578 0.80842 0.0
C284 C 0.8356 0.55969 0.78627 0.0
C285 C 0.86108 0.53797 0.79191 0.0
H286 H 0.92002 0.52429 0.80969 0.0
H287 H 0.90007 0.60432 0.81519 0.0
C288 C 0.0479 0.65354 0.85855 0.0
N289 N 0.00882 0.64161 0.8569 0.0
C290 C 0.05019 0.68026 0.86019 0.0
C291 C 0.97199 0.68193 0.85839 0.0
C292 C 0.97122 0.65519 0.85679 0.0
C293 C 0.01189 0.69479 0.85976 0.0
H294 H 0.07734 0.64231 0.85809 0.0
H295 H 0.94066 0.64534 0.85456 0.0
C296 C 0.02168 0.51812 0.83169 0.0
N297 N 0.05844 0.4733 0.81335 0.0
C298 C 0.04349 0.50169 0.84875 0.0
C299 C 0.01799 0.51159 0.80539 0.0
C300 C 0.06198 0.47915 0.83908 0.0
C301 C 0.03699 0.4889 0.79646 0.0
C302 C 0.08933 0.58896 0.88254 0.0
C303 C 0.12853 0.57558 0.88141 0.0
C304 C 0.08209 0.60635 0.9028 0.0
C305 C 0.15941 0.57936 0.90093 0.0
C306 C 0.11378 0.60962 0.92195 0.0
N307 N 0.15144 0.59614 0.92065 0.0
C308 C 0.10472 0.57662 0.78962 0.0
C309 C 0.12324 0.54067 0.81557 0.0
C310 C 0.14248 0.57377 0.77495 0.0
N311 N 0.09577 0.56021 0.8095 0.0
C312 C 0.16144 0.5371 0.80136 0.0
C313 C 0.1715 0.55383 0.78077 0.0
H314 H 0.08315 0.59246 0.78561 0.0
H315 H 0.11627 0.52832 0.83193 0.0
C316 C 0.97276 0.54117 0.91833 0.0
N317 N 0.01081 0.5449 0.9055 0.0
C318 C 0.97233 0.52954 0.94288 0.0
C319 C 0.05008 0.52507 0.9403 0.0
C320 C 0.04899 0.53677 0.91582 0.0
C321 C 0.01139 0.52137 0.95419 0.0
H322 H 0.9427 0.54742 0.90957 0.0
H323 H 0.07869 0.53929 0.90507 0.0
O324 O 0.00784 0.59494 0.81488 0.0
O325 O 0.95855 0.58533 0.86672 0.0
O326 O 1.00345 0.54029 0.8408 0.0
O327 O 0.05882 0.58555 0.86348 0.0
H328 H 0.96999 0.63902 0.80303 0.0
H329 H 1.00597 0.56479 0.77341 0.0
H330 H 0.93654 0.64911 0.76028 0.0
H331 H 0.97165 0.57607 0.73121 0.0
H332 H 0.94741 0.623 0.94635 0.0
H333 H 0.87813 0.60243 0.86224 0.0
H334 H 0.9882 0.59795 0.91345 0.0
H335 H 0.83903 0.62723 0.89609 0.0
H336 H 0.83192 0.60109 0.79078 0.0
H337 H 0.8506 0.51892 0.78633 0.0
H338 H 0.08157 0.68947 0.86151 0.0
H339 H 0.9418 0.6925 0.8577 0.0
H340 H 0.04634 0.50634 0.8692 0.0
H341 H 1.00061 0.52386 0.79202 0.0
H342 H 0.07919 0.46632 0.85203 0.0
H343 H 0.03459 0.48368 0.77612 0.0
H344 H 0.13489 0.56224 0.86577 0.0
H345 H 0.0526 0.61748 0.9036 0.0
H346 H 0.18972 0.56897 0.90041 0.0
H347 H 0.10852 0.62297 0.93777 0.0
H348 H 0.14958 0.5876 0.75978 0.0
H349 H 0.18317 0.52162 0.80662 0.0
H350 H 0.94175 0.52685 0.95285 0.0
H351 H 0.08098 0.51934 0.94843 0.0
Li352 Li 0.54531 0.57241 0.681 0.0
Li353 Li 0.50388 0.60937 0.6614 0.0
Li354 Li 0.46698 0.56997 0.68122 0.0
Li355 Li 0.50493 0.56706 0.64066 0.0
C356 C 0.52446 0.6039 0.7204 0.0
N357 N 0.56872 0.61829 0.76485 0.0
C358 C 0.54513 0.62775 0.72157 0.0
C359 C 0.52582 0.58752 0.74194 0.0
C360 C 0.56744 0.63464 0.7442 0.0
C361 C 0.54853 0.5951 0.7642 0.0
C362 C 0.58098 0.58527 0.62713 0.0
C363 C 0.60391 0.59237 0.58281 0.0
N364 N 0.63127 0.572 0.58473 0.0
C365 C 0.60938 0.56445 0.6287 0.0
C366 C 0.57823 0.59941 0.60405 0.0
C367 C 0.63453 0.55804 0.60704 0.0
C368 C 0.60871 0.54237 0.70896 0.0
N369 N 0.59794 0.56595 0.69956 0.0
C370 C 0.66262 0.58416 0.71726 0.0
C371 C 0.62444 0.58652 0.70294 0.0
C372 C 0.67426 0.56022 0.72754 0.0
C373 C 0.6472 0.53902 0.72303 0.0
H374 H 0.58747 0.52621 0.70561 0.0
H375 H 0.61562 0.60488 0.69468 0.0
C376 C 0.46794 0.6584 0.66859 0.0
N377 N 0.50162 0.64553 0.65767 0.0
C378 C 0.46659 0.68519 0.66774 0.0
C379 C 0.53432 0.68489 0.64411 0.0
C380 C 0.53453 0.65812 0.6456 0.0
C381 C 0.50009 0.6988 0.65534 0.0
H382 H 0.44262 0.64783 0.67845 0.0
H383 H 0.56131 0.6474 0.63752 0.0
C384 C 0.48968 0.52148 0.68039 0.0
N385 N 0.44909 0.47877 0.70098 0.0
C386 C 0.46675 0.50477 0.66414 0.0
C387 C 0.49222 0.51637 0.70707 0.0
C388 C 0.44642 0.48329 0.67493 0.0
C389 C 0.47137 0.49472 0.71712 0.0
C390 C 0.42481 0.58766 0.62886 0.0
C391 C 0.40583 0.56418 0.62235 0.0
C392 C 0.41381 0.60974 0.61489 0.0
C393 C 0.37614 0.56315 0.60183 0.0
C394 C 0.38392 0.60793 0.59453 0.0
N395 N 0.36588 0.58486 0.58847 0.0
C396 C 0.40794 0.57471 0.72281 0.0
C397 C 0.38666 0.54371 0.6916 0.0
C398 C 0.36914 0.57138 0.73643 0.0
N399 N 0.41584 0.56113 0.70069 0.0
C400 C 0.34756 0.53966 0.7047 0.0
C401 C 0.33796 0.55402 0.72712 0.0
H402 H 0.43114 0.5888 0.72944 0.0
H403 H 0.39311 0.53334 0.67386 0.0
C404 C 0.52343 0.52741 0.60443 0.0
N405 N 0.5069 0.55151 0.60663 0.0
C406 C 0.52648 0.51562 0.58004 0.0
C407 C 0.49606 0.55377 0.56052 0.0
C408 C 0.49399 0.56491 0.58523 0.0
C409 C 0.51254 0.52884 0.55773 0.0
H410 H 0.5346 0.51741 0.62163 0.0
H411 H 0.48262 0.5844 0.58725 0.0
O412 O 0.50321 0.59658 0.69822 0.0
O413 O 0.55496 0.59122 0.64781 0.0
O414 O 0.50966 0.54268 0.67023 0.0
O415 O 0.45415 0.58913 0.64875 0.0
H416 H 0.54443 0.64067 0.70509 0.0
H417 H 0.50966 0.56912 0.74146 0.0
H418 H 0.58385 0.65296 0.74531 0.0
H419 H 0.55009 0.58253 0.78095 0.0
H420 H 0.6019 0.60302 0.56475 0.0
H421 H 0.61155 0.55315 0.64635 0.0
H422 H 0.55592 0.61534 0.60238 0.0
H423 H 0.65648 0.54188 0.60792 0.0
H424 H 0.68302 0.60084 0.72018 0.0
H425 H 0.65539 0.52026 0.73067 0.0
H426 H 0.44022 0.69514 0.67728 0.0
H427 H 0.5608 0.69462 0.63441 0.0
H428 H 0.46415 0.50848 0.64348 0.0
H429 H 0.50994 0.52903 0.71989 0.0
H430 H 0.42836 0.47028 0.66261 0.0
H431 H 0.47292 0.4906 0.73776 0.0
H432 H 0.41465 0.54685 0.63262 0.0
H433 H 0.42831 0.62806 0.6197 0.0
H434 H 0.36142 0.54506 0.59645 0.0
H435 H 0.37511 0.62485 0.58352 0.0
H436 H 0.36293 0.58298 0.75353 0.0
H437 H 0.3248 0.52571 0.69712 0.0
H438 H 0.53924 0.49631 0.57866 0.0
H439 H 0.48557 0.56469 0.5437 0.0
Li440 Li 0.50694 0.94104 0.64266 0.0
Li441 Li 0.54782 0.93677 0.68157 0.0
Li442 Li 0.50827 0.90023 0.66454 0.0
Li443 Li 0.46861 0.93674 0.68604 0.0
C444 C 0.57781 0.92292 0.62533 0.0
N445 N 0.61564 0.93403 0.57784 0.0
C446 C 0.60803 0.94281 0.62328 0.0
C447 C 0.56697 0.90862 0.60322 0.0
C448 C 0.62681 0.94811 0.59911 0.0
C449 C 0.58638 0.91457 0.57939 0.0
C450 C 0.52262 0.98565 0.68641 0.0
C451 C 0.51816 0.01586 0.72191 0.0
N452 N 0.55518 0.02728 0.71342 0.0
C453 C 0.56051 0.99777 0.67796 0.0
C454 C 0.50116 0.9948 0.70851 0.0
C455 C 0.57651 0.01875 0.69192 0.0
C456 C 0.48023 0.94625 0.58974 0.0
N457 N 0.50324 0.95758 0.60919 0.0
C458 C 0.5255 0.99123 0.58039 0.0
C459 C 0.52507 0.9799 0.60507 0.0
C460 C 0.50323 0.97946 0.55976 0.0
C461 C 0.47986 0.95687 0.56474 0.0
H462 H 0.46263 0.92876 0.59349 0.0
H463 H 0.54297 0.98862 0.6208 0.0
C464 C 0.63734 0.93256 0.69055 0.0
N465 N 0.60127 0.94453 0.69969 0.0
C466 C 0.67698 0.9353 0.70333 0.0
C467 C 0.64186 0.96226 0.73519 0.0
C468 C 0.6028 0.95903 0.72174 0.0
C469 C 0.67964 0.95036 0.72593 0.0
H470 H 0.63515 0.92024 0.67368 0.0
H471 H 0.57355 0.96753 0.72936 0.0
C472 C 0.42895 0.89961 0.6453 0.0
N473 N 0.37547 0.85878 0.63294 0.0
C474 C 0.39258 0.89423 0.66061 0.0
C475 C 0.43795 0.88423 0.62364 0.0
C476 C 0.36596 0.87353 0.65403 0.0
C477 C 0.41061 0.86366 0.61776 0.0
C478 C 0.53674 0.90473 0.72095 0.0
C479 C 0.56757 0.88555 0.71668 0.0
C480 C 0.53484 0.91698 0.74515 0.0
C481 C 0.59607 0.87894 0.73674 0.0
C482 C 0.5639 0.9098 0.76471 0.0
N483 N 0.59367 0.8911 0.76013 0.0
C484 C 0.53726 0.85118 0.64697 0.0
C485 C 0.47683 0.85063 0.67545 0.0
C486 C 0.53629 0.82443 0.64503 0.0
N487 N 0.50742 0.86368 0.66174 0.0
C488 C 0.47436 0.82393 0.67384 0.0
C489 C 0.50423 0.81055 0.65836 0.0
H490 H 0.562 0.86194 0.63685 0.0
H491 H 0.45426 0.86102 0.68762 0.0
C492 C 0.38601 0.95869 0.69388 0.0
N493 N 0.41805 0.94499 0.70562 0.0
C494 C 0.3462 0.96216 0.70639 0.0
C495 C 0.37389 0.93845 0.7433 0.0
C496 C 0.41287 0.93506 0.72992 0.0
C497 C 0.33975 0.95168 0.73127 0.0
H498 H 0.39085 0.96604 0.67439 0.0
H499 H 0.43835 0.92367 0.73852 0.0
O500 O 0.55799 0.91799 0.64867 0.0
O501 O 0.50616 0.96521 0.67293 0.0
O502 O 0.45585 0.91957 0.65168 0.0
O503 O 0.50954 0.91203 0.70125 0.0
H504 H 0.61645 0.9543 0.64007 0.0
H505 H 0.54327 0.89339 0.60432 0.0
H506 H 0.65006 0.96354 0.59724 0.0
H507 H 0.57799 0.90381 0.56209 0.0
H508 H 0.50195 0.0231 0.73908 0.0
H509 H 0.57785 0.99081 0.6611 0.0
H510 H 0.47174 0.98573 0.7153 0.0
H511 H 0.60597 0.02819 0.68572 0.0
H512 H 0.54389 0.00868 0.57733 0.0
H513 H 0.46147 0.94752 0.54948 0.0
H514 H 0.705 0.92507 0.69602 0.0
H515 H 0.64244 0.97376 0.75276 0.0
H516 H 0.38509 0.90572 0.67752 0.0
H517 H 0.46628 0.88775 0.61181 0.0
H518 H 0.33781 0.86913 0.66576 0.0
H519 H 0.41747 0.85148 0.6012 0.0
H520 H 0.56995 0.87613 0.69797 0.0
H521 H 0.51186 0.93226 0.74863 0.0
H522 H 0.62024 0.86422 0.73366 0.0
H523 H 0.563 0.91924 0.78347 0.0
H524 H 0.5601 0.8147 0.6331 0.0
H525 H 0.4498 0.81381 0.68487 0.0
H526 H 0.32044 0.97243 0.69656 0.0
H527 H 0.36976 0.92985 0.76236 0.0
Li528 Li 0.46878 0.43657 0.33438 0.0
Li529 Li 0.51012 0.4405 0.37319 0.0
Li530 Li 0.54806 0.43509 0.32985 0.0
Li531 Li 0.50645 0.39957 0.35178 0.0
C532 C 0.4968 0.48493 0.32884 0.0
N533 N 0.46695 0.5269 0.30122 0.0
C534 C 0.45977 0.49804 0.33713 0.0
C535 C 0.51879 0.49328 0.30658 0.0
C536 C 0.44514 0.51917 0.32286 0.0
C537 C 0.50316 0.51452 0.29288 0.0
C538 C 0.43783 0.42459 0.39051 0.0
C539 C 0.42742 0.41791 0.4366 0.0
N540 N 0.39972 0.43819 0.43723 0.0
C541 C 0.4092 0.44534 0.39162 0.0
C542 C 0.44699 0.41072 0.41318 0.0
C543 C 0.39026 0.45191 0.41542 0.0
C544 C 0.3793 0.43294 0.32494 0.0
N545 N 0.4157 0.44482 0.31611 0.0
C546 C 0.37639 0.46213 0.27989 0.0
C547 C 0.41487 0.45925 0.29398 0.0
C548 C 0.33854 0.44975 0.28842 0.0
C549 C 0.34021 0.4353 0.31147 0.0
H550 H 0.3809 0.42084 0.342 0.0
H551 H 0.44433 0.46777 0.28668 0.0
C552 C 0.53469 0.44536 0.42663 0.0
N553 N 0.51495 0.45749 0.40639 0.0
C554 C 0.53612 0.45679 0.45125 0.0
C555 C 0.49806 0.49338 0.43364 0.0
C556 C 0.49719 0.48118 0.4094 0.0
C557 C 0.51761 0.48114 0.455 0.0
H558 H 0.54858 0.42659 0.42384 0.0
H559 H 0.48184 0.4905 0.39306 0.0
C560 C 0.47829 0.40408 0.29523 0.0
N561 N 0.42058 0.3914 0.25612 0.0
C562 C 0.44659 0.38538 0.29953 0.0
C563 C 0.48068 0.41629 0.27102 0.0
C564 C 0.41771 0.37925 0.27951 0.0
C565 C 0.4512 0.40961 0.2515 0.0
C566 C 0.58545 0.39735 0.37063 0.0
C567 C 0.62104 0.39097 0.35509 0.0
C568 C 0.57566 0.38228 0.3924 0.0
C569 C 0.64619 0.36961 0.36157 0.0
C570 C 0.60153 0.36103 0.39818 0.0
N571 N 0.63598 0.35519 0.38278 0.0
C572 C 0.63168 0.45557 0.32202 0.0
C573 C 0.60368 0.43273 0.28578 0.0
C574 C 0.67147 0.45877 0.30941 0.0
N575 N 0.59904 0.44243 0.3102 0.0
C576 C 0.64264 0.43587 0.27229 0.0
C577 C 0.67732 0.4486 0.28434 0.0
H578 H 0.62723 0.46278 0.34159 0.0
H579 H 0.57769 0.42181 0.27709 0.0
C580 C 0.47616 0.35122 0.37075 0.0
N581 N 0.50514 0.36303 0.35481 0.0
C582 C 0.47522 0.32446 0.37252 0.0
C583 C 0.53352 0.32253 0.34115 0.0
C584 C 0.53324 0.34929 0.33994 0.0
C585 C 0.50409 0.30979 0.35752 0.0
H586 H 0.45353 0.36254 0.38193 0.0
H587 H 0.5554 0.35919 0.32707 0.0
O588 O 0.51193 0.46432 0.34262 0.0
O589 O 0.45778 0.41839 0.36754 0.0
O590 O 0.5058 0.411 0.31493 0.0
O591 O 0.56001 0.41799 0.36437 0.0
H592 H 0.44209 0.49176 0.35414 0.0
H593 H 0.54755 0.48346 0.2999 0.0
H594 H 0.41636 0.52937 0.32895 0.0
H595 H 0.51979 0.52114 0.27559 0.0
H596 H 0.43449 0.40747 0.45431 0.0
H597 H 0.40204 0.45647 0.37437 0.0
H598 H 0.46964 0.39491 0.41284 0.0
H599 H 0.36822 0.46801 0.41657 0.0
H600 H 0.37643 0.4736 0.26229 0.0
H601 H 0.31192 0.42515 0.31851 0.0
H602 H 0.55072 0.44641 0.46728 0.0
H603 H 0.48358 0.5122 0.43565 0.0
H604 H 0.44382 0.376 0.31825 0.0
H605 H 0.50433 0.43122 0.26752 0.0
H606 H 0.39286 0.36493 0.28263 0.0
H607 H 0.45243 0.41907 0.23275 0.0
H608 H 0.62908 0.40221 0.33808 0.0
H609 H 0.54775 0.38651 0.40435 0.0
H610 H 0.67375 0.36444 0.34966 0.0
H611 H 0.59405 0.34909 0.41483 0.0
H612 H 0.69761 0.46868 0.31925 0.0
H613 H 0.64627 0.42754 0.25308 0.0
H614 H 0.45233 0.31536 0.38556 0.0
H615 H 0.55601 0.31188 0.32911 0.0
Li616 Li 0.50824 0.10848 0.35316 0.0
Li617 Li 0.46804 0.07128 0.33396 0.0
Li618 Li 0.51043 0.06481 0.37404 0.0
Li619 Li 0.54507 0.07149 0.33327 0.0
C620 C 0.43478 0.08267 0.38927 0.0
N621 N 0.38805 0.06902 0.43303 0.0
C622 C 0.40369 0.06321 0.38784 0.0
C623 C 0.44215 0.09517 0.41295 0.0
C624 C 0.38035 0.05662 0.41017 0.0
C625 C 0.4182 0.08798 0.43486 0.0
C626 C 0.48223 0.10316 0.2956 0.0
C627 C 0.45607 0.09433 0.25226 0.0
N628 N 0.42907 0.11488 0.25398 0.0
C629 C 0.45443 0.12429 0.29691 0.0
C630 C 0.48331 0.08813 0.27307 0.0
C631 C 0.42776 0.12988 0.27566 0.0
C632 C 0.53627 0.15843 0.3424 0.0
N633 N 0.50804 0.14471 0.35719 0.0
C634 C 0.47753 0.18327 0.37449 0.0
C635 C 0.47891 0.15649 0.37304 0.0
C636 C 0.50611 0.19796 0.35927 0.0
C637 C 0.53604 0.18522 0.34326 0.0
H638 H 0.55834 0.14854 0.3295 0.0
H639 H 0.45627 0.14513 0.38421 0.0
C640 C 0.41045 0.04387 0.29961 0.0
N641 N 0.41495 0.06413 0.31609 0.0
C642 C 0.37178 0.04034 0.28582 0.0
C643 C 0.34292 0.07822 0.30671 0.0
C644 C 0.38209 0.08106 0.31998 0.0
C645 C 0.33755 0.05781 0.28917 0.0
H646 H 0.43696 0.03061 0.29694 0.0
H647 H 0.38664 0.09706 0.33312 0.0
C648 C 0.60201 0.08661 0.36898 0.0
N649 N 0.69101 0.08129 0.37074 0.0
C650 C 0.62059 0.06543 0.38141 0.0
C651 C 0.62867 0.10517 0.35758 0.0
C652 C 0.66567 0.0631 0.38211 0.0
C653 C 0.6736 0.10208 0.3586 0.0
C654 C 0.52853 0.02162 0.33387 0.0
C655 C 0.54953 0.00493 0.35106 0.0
C656 C 0.53044 0.01704 0.30707 0.0
C657 C 0.57234 0.98396 0.34109 0.0
C658 C 0.5537 0.9959 0.29787 0.0
N659 N 0.57398 0.97994 0.31493 0.0
C660 C 0.48838 0.02597 0.41049 0.0
C661 C 0.53156 0.05967 0.42751 0.0
C662 C 0.48686 0.01409 0.43488 0.0
N663 N 0.51065 0.04827 0.40727 0.0
C664 C 0.5309 0.04844 0.45223 0.0
C665 C 0.50851 0.02528 0.45612 0.0
H666 H 0.47141 0.01759 0.39413 0.0
H667 H 0.5485 0.07759 0.42446 0.0
C668 C 0.60386 0.08115 0.2927 0.0
N669 N 0.59641 0.06474 0.31281 0.0
C670 C 0.64231 0.07971 0.27845 0.0
C671 C 0.66478 0.0442 0.30551 0.0
C672 C 0.62594 0.04641 0.31933 0.0
C673 C 0.67348 0.06116 0.28491 0.0
H674 H 0.58046 0.0959 0.28815 0.0
H675 H 0.6202 0.03405 0.33583 0.0
O676 O 0.459 0.08879 0.36784 0.0
O677 O 0.50745 0.09681 0.31653 0.0
O678 O 0.55795 0.089 0.3677 0.0
O679 O 0.50575 0.04212 0.34328 0.0
H680 H 0.39805 0.05307 0.36977 0.0
H681 H 0.46671 0.10991 0.41453 0.0
H682 H 0.35629 0.04154 0.40937 0.0
H683 H 0.42377 0.09736 0.45336 0.0
H684 H 0.45631 0.08275 0.23477 0.0
H685 H 0.45298 0.13601 0.31428 0.0
H686 H 0.50465 0.07171 0.27178 0.0
H687 H 0.40586 0.14606 0.27645 0.0
H688 H 0.45431 0.19238 0.38731 0.0
H689 H 0.55829 0.19587 0.33103 0.0
H690 H 0.36863 0.02414 0.27274 0.0
H691 H 0.31741 0.09217 0.30972 0.0
H692 H 0.60046 0.05073 0.39005 0.0
H693 H 0.61483 0.12161 0.34781 0.0
H694 H 0.68049 0.04673 0.39152 0.0
H695 H 0.69462 0.11619 0.34969 0.0
H696 H 0.54858 0.00824 0.37184 0.0
H697 H 0.51465 0.02985 0.29349 0.0
H698 H 0.58889 0.97095 0.35415 0.0
H699 H 0.5557 0.99223 0.27717 0.0
H700 H 0.46839 0.99656 0.43719 0.0
H701 H 0.54794 0.05768 0.46811 0.0
H702 H 0.64786 0.09316 0.26271 0.0
H703 H 0.6884 0.03 0.31146 0.0
C704 C 0.04402 0.26404 0.1439 0.0
C705 C 0.0089 0.27756 0.15479 0.0
C706 C 0.04476 0.23711 0.1436 0.0
C707 C 0.01026 0.22278 0.15397 0.0
H708 H 0.07099 0.27435 0.13537 0.0
H709 H 0.07232 0.22743 0.13501 0.0
S710 S 0.91258 0.24864 0.18667 0.0
N711 N 0.94012 0.27435 0.17773 0.0
N712 N 0.94121 0.22381 0.17656 0.0
C713 C 0.9752 0.23596 0.1651 0.0
C714 C 0.97458 0.26333 0.16564 0.0
C715 C 0.98721 0.76422 0.87694 0.0
C716 C 0.01356 0.77806 0.85953 0.0
C717 C 0.98713 0.7373 0.87707 0.0
C718 C 0.0134 0.72325 0.85981 0.0
H719 H 0.96669 0.77429 0.89066 0.0
H720 H 0.96651 0.72739 0.89088 0.0
S721 S 0.08547 0.75035 0.80894 0.0
N722 N 0.06481 0.77572 0.82366 0.0
N723 N 0.06467 0.72516 0.82393 0.0
C724 C 0.03957 0.73686 0.84214 0.0
C725 C 0.03964 0.76424 0.842 0.0
C726 C 0.53872 0.7407 0.66159 0.0
C727 C 0.50049 0.72736 0.65514 0.0
C728 C 0.5398 0.76759 0.66226 0.0
C729 C 0.50263 0.78216 0.65668 0.0
H730 H 0.56788 0.73027 0.66666 0.0
H731 H 0.56972 0.77705 0.66771 0.0
S732 S 0.39553 0.75685 0.63646 0.0
N733 N 0.42532 0.73097 0.64134 0.0
N734 N 0.42728 0.78152 0.64307 0.0
C735 C 0.46442 0.76917 0.64978 0.0
C736 C 0.46336 0.74179 0.64891 0.0
C737 C 0.54242 0.26764 0.36202 0.0
C738 C 0.5035 0.2813 0.35868 0.0
C739 C 0.54291 0.24073 0.36249 0.0
C740 C 0.50449 0.22646 0.35963 0.0
H741 H 0.57275 0.27785 0.3644 0.0
H742 H 0.5736 0.23101 0.3652 0.0
S743 S 0.3945 0.25301 0.34856 0.0
N744 N 0.42584 0.27855 0.35138 0.0
N745 N 0.42674 0.22798 0.35223 0.0
C746 C 0.46537 0.23988 0.35618 0.0
C747 C 0.46488 0.26728 0.35571 0.0
C748 C 0.25645 0.05671 0.28735 0.0
C749 C 0.29645 0.0552 0.2743 0.0
C750 C 0.21718 0.05612 0.27361 0.0
C751 C 0.21633 0.05405 0.24628 0.0
H752 H 0.25551 0.05856 0.30836 0.0
H753 H 0.1872 0.05754 0.28448 0.0
S754 S 0.31223 0.05052 0.20284 0.0
N755 N 0.33288 0.052 0.23248 0.0
N756 N 0.25911 0.051 0.20662 0.0
C757 C 0.25611 0.05221 0.23301 0.0
C758 C 0.29612 0.05277 0.24702 0.0
C759 C 0.72446 0.46114 0.24665 0.0
C760 C 0.72015 0.4497 0.27136 0.0
C761 C 0.7642 0.46072 0.23332 0.0
C762 C 0.80054 0.44842 0.24409 0.0
H763 H 0.69679 0.47021 0.23749 0.0
H764 H 0.76618 0.46931 0.21413 0.0
S765 S 0.80617 0.41561 0.30801 0.0
N766 N 0.75574 0.42607 0.30612 0.0
N767 N 0.83007 0.42482 0.28078 0.0
C768 C 0.79678 0.43718 0.26883 0.0
C769 C 0.75665 0.43795 0.28256 0.0
C770 C 0.25215 0.96304 0.78198 0.0
C771 C 0.21605 0.95074 0.77091 0.0
C772 C 0.29203 0.9638 0.76882 0.0
C773 C 0.2967 0.95273 0.74397 0.0
H774 H 0.24992 0.97131 0.8013 0.0
H775 H 0.31955 0.97278 0.77824 0.0
S776 S 0.21137 0.91897 0.70642 0.0
N777 N 0.1871 0.92767 0.7337 0.0
N778 N 0.26169 0.92955 0.70869 0.0
C779 C 0.26042 0.94106 0.73244 0.0
C780 C 0.22015 0.93994 0.74599 0.0
C781 C 0.71891 0.57232 0.7661 0.0
C782 C 0.71431 0.55781 0.74322 0.0
C783 C 0.7577 0.57207 0.78028 0.0
C784 C 0.79371 0.55762 0.77192 0.0
H785 H 0.69238 0.58414 0.77295 0.0
H786 H 0.75961 0.58357 0.79783 0.0
S787 S 0.79805 0.51681 0.71266 0.0
N788 N 0.74831 0.5285 0.71276 0.0
N789 N 0.82194 0.52859 0.73887 0.0
C790 C 0.78918 0.54273 0.74916 0.0
C791 C 0.74935 0.54274 0.73492 0.0
C792 C 0.72225 0.94749 0.76746 0.0
C793 C 0.72118 0.95235 0.74049 0.0
C794 C 0.76156 0.94718 0.78122 0.0
C795 C 0.80126 0.95168 0.76852 0.0
H796 H 0.69265 0.94305 0.77786 0.0
H797 H 0.76098 0.94251 0.80178 0.0
S798 S 0.81553 0.96852 0.69884 0.0
N799 N 0.76285 0.96402 0.70209 0.0
N800 N 0.83665 0.96336 0.72793 0.0
C801 C 0.80044 0.95755 0.74179 0.0
C802 C 0.76046 0.95789 0.72779 0.0
C803 C 0.29255 0.54986 0.76749 0.0
C804 C 0.29504 0.55193 0.74018 0.0
C805 C 0.25245 0.54962 0.78038 0.0
C806 C 0.21328 0.55164 0.76648 0.0
H807 H 0.32187 0.54868 0.77902 0.0
H808 H 0.25221 0.54865 0.80146 0.0
S809 S 0.20182 0.55653 0.6947 0.0
N810 N 0.25464 0.55558 0.69965 0.0
N811 N 0.17941 0.55455 0.72384 0.0
C812 C 0.21526 0.55307 0.73914 0.0
C813 C 0.25605 0.55331 0.72601 0.0
C814 C 0.73959 0.08328 0.26788 0.0
C815 C 0.71565 0.06051 0.27099 0.0
C816 C 0.77907 0.08346 0.25441 0.0
C817 C 0.79618 0.06088 0.24343 0.0
H818 H 0.72779 0.10113 0.27605 0.0
H819 H 0.7964 0.10146 0.25264 0.0
S820 S 0.74519 0.99639 0.2452 0.0
N821 N 0.71138 0.01488 0.2616 0.0
N822 N 0.78548 0.01521 0.23605 0.0
C823 C 0.77266 0.03793 0.24649 0.0
C824 C 0.73244 0.03775 0.26031 0.0
C825 C 0.21888 0.45552 0.27156 0.0
C826 C 0.21785 0.44983 0.24477 0.0
C827 C 0.2581 0.45604 0.28539 0.0
C828 C 0.2978 0.45085 0.27298 0.0
H829 H 0.18908 0.45948 0.28194 0.0
H830 H 0.25731 0.46039 0.30602 0.0
S831 S 0.31249 0.43342 0.20346 0.0
N832 N 0.25984 0.43811 0.20652 0.0
N833 N 0.33344 0.43896 0.23252 0.0
C834 C 0.29724 0.44523 0.24617 0.0
C835 C 0.25733 0.44475 0.23208 0.0
C836 C 0.99456 0.98748 0.02886 0.0
C837 C 0.01153 0.01221 0.03326 0.0
C838 C 0.9936 0.97677 1.0038 0.0
C839 C 0.00988 0.99028 0.98219 0.0
H840 H 0.98213 0.97622 0.04494 0.0
H841 H 0.98035 0.95767 1.00133 0.0
S842 S 0.05517 0.05617 0.9827 0.0
N843 N 0.04296 0.05037 0.01346 0.0
N844 N 0.04197 0.02992 0.96651 0.0
C845 C 0.02685 0.01497 0.98622 0.0
C846 C 0.0275 0.026 0.01169 0.0
C847 C 0.98905 0.52113 1.00119 0.0
C848 C 0.01179 0.5095 0.98056 0.0
C849 C 0.98959 0.51059 0.02635 0.0
C850 C 0.01296 0.48805 0.03185 0.0
H851 H 0.97123 0.53875 0.99796 0.0
H852 H 0.97208 0.52037 0.0417 0.0
S853 S 0.07452 0.44886 0.98423 0.0
N854 N 0.05604 0.47329 0.96701 0.0
N855 N 0.05719 0.45357 0.01428 0.0
C856 C 0.0352 0.47599 0.01132 0.0
C857 C 0.03459 0.48668 0.98571 0.0
C858 C 0.47911 0.50446 0.49092 0.0
C859 C 0.51747 0.49343 0.48118 0.0
C860 C 0.47786 0.51593 0.51562 0.0
C861 C 0.51485 0.5167 0.53161 0.0
H862 H 0.4496 0.5039 0.47951 0.0
H863 H 0.44754 0.52396 0.52243 0.0
S864 S 0.62416 0.49253 0.51455 0.0
N865 N 0.59402 0.48542 0.48895 0.0
N866 N 0.59141 0.50671 0.53551 0.0
C867 C 0.55352 0.50605 0.52205 0.0
C868 C 0.55489 0.49449 0.49683 0.0
C869 C 0.49595 0.01693 0.52938 0.0
C870 C 0.50462 0.99068 0.53315 0.0
C871 C 0.49722 0.02793 0.50444 0.0
C872 C 0.50731 0.01312 0.48232 0.0
H873 H 0.48763 0.029 0.54581 0.0
H874 H 0.48978 0.04815 0.50241 0.0
S875 S 0.53625 0.944 0.48202 0.0
N876 N 0.52598 0.95047 0.5129 0.0
N877 N 0.52847 0.97114 0.46605 0.0
C878 C 0.51662 0.98692 0.48588 0.0
C879 C 0.51528 0.97572 0.51127 0.0
loop_
_geom_bond_atom_site_label_1
_geom_bond_atom_site_label_2
_geom_bond_distance
_geom_bond_site_symmetry_2
_ccdc_geom_bond_type
Li0 N17 1.990 . S
Li0 O60 1.956 . S
Li0 O61 1.970 1_455 S
Li0 O62 1.961 1_455 S
Li1 N25 1.990 . S
Li1 O60 1.970 . S
Li1 O61 1.941 1_455 S
Li1 O63 1.961 . S
Li2 N47 1.991 . S
Li2 O60 1.945 1_655 S
Li2 O62 1.971 . S
Li2 O63 1.970 1_655 S
Li3 N53 1.990 . S
Li3 O61 1.975 . S
Li3 O62 1.970 . S
Li3 O63 1.956 1_655 S
C4 C6 1.348 . S
C4 C7 1.356 . S
C4 O60 1.325 . S
N5 C8 1.314 . S
N5 C9 1.279 . S
C6 C4 1.348 . S
C6 C8 1.353 . S
C6 H64 0.929 . S
C7 C4 1.356 . S
C7 C9 1.358 . S
C7 H65 0.930 . S
C8 N5 1.314 . S
C8 C6 1.353 . S
C8 H66 0.930 . S
C9 N5 1.279 . S
C9 C7 1.358 . S
C9 H67 0.930 . S
C10 C13 1.349 . S
C10 C14 1.355 1_455 S
C10 O61 1.324 1_455 S
C11 N12 1.279 1_655 S
C11 C14 1.358 . S
C11 H68 0.930 . S
N12 C11 1.279 1_455 S
N12 C15 1.314 . S
C13 C10 1.349 . S
C13 C15 1.353 . S
C13 H69 0.929 . S
C14 C10 1.355 1_655 S
C14 C11 1.358 . S
C14 H70 0.930 . S
C15 N12 1.314 . S
C15 C13 1.353 . S
C15 H71 0.930 . S
C16 N17 1.314 1_655 S
C16 C21 1.353 . S
C16 H22 0.930 . S
N17 Li0 1.990 . S
N17 C16 1.314 1_455 S
N17 C19 1.279 . S
C18 C19 1.358 . S
C18 C20 1.366 . S
C18 H72 0.930 . S
C19 N17 1.279 . S
C19 C18 1.358 . S
C19 H23 0.930 . S
C20 C18 1.366 . S
C20 C21 1.337 1_455 S
C21 C16 1.353 . S
C21 C20 1.337 1_655 S
C21 H73 0.929 . S
H22 C16 0.930 . S
H23 C19 0.930 . S
C24 N25 1.314 . S
C24 C26 1.353 . S
C24 H30 0.930 . S
N25 Li1 1.990 . S
N25 C24 1.314 . S
N25 C28 1.279 . S
C26 C24 1.353 . S
C26 C29 1.348 . S
C26 H74 0.929 . S
C27 C28 1.358 . S
C27 C29 1.356 . S
C27 H75 0.930 . S
C28 N25 1.279 . S
C28 C27 1.358 . S
C28 H31 0.930 . S
C29 C26 1.348 . S
C29 C27 1.356 . S
H30 C24 0.930 . S
H31 C28 0.930 . S
C32 C34 1.348 . S
C32 C35 1.356 . S
C32 O62 1.325 . S
N33 C36 1.314 . S
N33 C37 1.279 . S
C34 C32 1.348 . S
C34 C36 1.353 . S
C34 H76 0.929 . S
C35 C32 1.356 . S
C35 C37 1.358 . S
C35 H77 0.930 . S
C36 N33 1.314 . S
C36 C34 1.353 . S
C36 H78 0.930 . S
C37 N33 1.279 . S
C37 C35 1.358 . S
C37 H79 0.930 . S
C38 C39 1.344 1_445 S
C38 C40 1.359 . S
C38 O63 1.325 . S
C39 C38 1.344 1_665 S
C39 C41 1.353 . S
C39 H80 0.919 1_565 S
C40 C38 1.359 . S
C40 C42 1.358 1_545 S
C40 H81 0.930 . S
C41 C39 1.353 . S
C41 N43 1.314 . S
C41 H82 0.930 . S
C42 C40 1.358 1_565 S
C42 N43 1.279 1_455 S
C42 H83 0.930 . S
N43 C41 1.314 . S
N43 C42 1.279 1_655 S
C44 C46 1.353 . S
C44 N47 1.314 1_455 S
C44 H50 0.930 . S
C45 N47 1.279 . S
C45 C48 1.358 . S
C45 H51 0.930 . S
C46 C44 1.353 . S
C46 C49 1.354 . S
C46 H84 0.929 . S
N47 Li2 1.991 . S
N47 C44 1.314 1_655 S
N47 C45 1.279 . S
C48 C45 1.358 . S
C48 C49 1.350 1_655 S
C48 H85 0.930 . S
C49 C46 1.354 . S
C49 C48 1.350 1_455 S
H50 C44 0.930 . S
H51 C45 0.930 . S
C52 N53 1.314 . S
C52 C54 1.353 . S
C52 H58 0.930 . S
N53 Li3 1.990 . S
N53 C52 1.314 . S
N53 C56 1.279 . S
C54 C52 1.353 . S
C54 C57 1.348 . S
C54 H86 0.929 . S
C55 C56 1.358 . S
C55 C57 1.356 . S
C55 H87 0.930 . S
C56 N53 1.279 . S
C56 C55 1.358 . S
C56 H59 0.930 . S
C57 C54 1.348 . S
C57 C55 1.356 . S
H58 C52 0.930 . S
H59 C56 0.930 . S
O60 Li0 1.956 . S
O60 Li1 1.970 . S
O60 Li2 1.945 1_455 S
O60 C4 1.325 . S
O61 Li0 1.970 1_655 S
O61 Li1 1.941 1_655 S
O61 Li3 1.975 . S
O61 C10 1.324 1_655 S
O62 Li0 1.961 1_655 S
O62 Li2 1.971 . S
O62 Li3 1.970 . S
O62 C32 1.325 . S
O63 Li1 1.961 . S
O63 Li2 1.970 1_455 S
O63 Li3 1.956 1_455 S
O63 C38 1.325 . S
H64 C6 0.929 . S
H65 C7 0.930 . S
H66 C8 0.930 . S
H67 C9 0.930 . S
H68 C11 0.930 . S
H69 C13 0.929 . S
H70 C14 0.930 . S
H71 C15 0.930 . S
H72 C18 0.930 . S
H73 C21 0.929 . S
H74 C26 0.929 . S
H75 C27 0.930 . S
H76 C34 0.929 . S
H77 C35 0.930 . S
H78 C36 0.930 . S
H79 C37 0.930 . S
H80 C39 0.919 1_545 S
H81 C40 0.930 . S
H82 C41 0.930 . S
H83 C42 0.930 . S
H84 C46 0.929 . S
H85 C48 0.930 . S
H86 C54 0.929 . S
H87 C55 0.930 . S
Li88 N105 1.990 . S
Li88 O148 1.956 . S
Li88 O149 1.970 1_455 S
Li88 O150 1.961 1_455 S
Li89 N113 1.990 . S
Li89 O148 1.970 . S
Li89 O149 1.956 1_455 S
Li89 O151 1.961 . S
Li90 N135 1.990 . S
Li90 O148 1.961 1_655 S
Li90 O150 1.956 . S
Li90 O151 1.970 1_655 S
Li91 N141 1.990 . S
Li91 O149 1.961 . S
Li91 O150 1.970 . S
Li91 O151 1.956 1_655 S
C92 C94 1.348 . S
C92 C95 1.356 . S
C92 O148 1.325 . S
N93 C96 1.314 . S
N93 C97 1.279 . S
C94 C92 1.348 . S
C94 C96 1.353 . S
C94 H152 0.929 . S
C95 C92 1.356 . S
C95 C97 1.358 . S
C95 H153 0.930 . S
C96 N93 1.314 . S
C96 C94 1.353 . S
C96 H154 0.930 . S
C97 N93 1.279 . S
C97 C95 1.358 . S
C97 H155 0.930 . S
C98 C101 1.347 . S
C98 C102 1.356 1_455 S
C98 O149 1.325 1_455 S
C99 N100 1.279 1_655 S
C99 C102 1.358 . S
C99 H156 0.930 . S
N100 C99 1.279 1_455 S
N100 C103 1.314 . S
C101 C98 1.347 . S
C101 C103 1.353 . S
C101 H157 0.929 . S
C102 C98 1.356 1_655 S
C102 C99 1.358 . S
C102 H158 0.930 . S
C103 N100 1.314 . S
C103 C101 1.353 . S
C103 H159 0.930 . S
C104 N105 1.314 1_655 S
C104 C109 1.353 . S
C104 H110 0.930 . S
N105 Li88 1.990 . S
N105 C104 1.314 1_455 S
N105 C107 1.279 . S
C106 C107 1.358 . S
C106 C108 1.359 . S
C106 H160 0.930 . S
C107 N105 1.279 . S
C107 C106 1.358 . S
C107 H111 0.930 . S
C108 C106 1.359 . S
C108 C109 1.344 1_455 S
C109 C104 1.353 . S
C109 C108 1.344 1_655 S
C109 H161 0.929 . S
H110 C104 0.930 . S
H111 C107 0.930 . S
C112 N113 1.314 . S
C112 C114 1.353 . S
C112 H118 0.930 . S
N113 Li89 1.990 . S
N113 C112 1.314 . S
N113 C116 1.279 . S
C114 C112 1.353 . S
C114 C117 1.348 . S
C114 H162 0.929 . S
C115 C116 1.358 . S
C115 C117 1.356 . S
C115 H163 0.930 . S
C116 N113 1.279 . S
C116 C115 1.358 . S
C116 H119 0.930 . S
C117 C114 1.348 . S
C117 C115 1.356 . S
H118 C112 0.930 . S
H119 C116 0.930 . S
C120 C122 1.348 . S
C120 C123 1.356 . S
C120 O150 1.325 . S
N121 C124 1.314 . S
N121 C125 1.279 . S
C122 C120 1.348 . S
C122 C124 1.353 . S
C122 H164 0.929 . S
C123 C120 1.356 . S
C123 C125 1.358 . S
C123 H165 0.930 . S
C124 N121 1.314 . S
C124 C122 1.353 . S
C124 H166 0.930 . S
C125 N121 1.279 . S
C125 C123 1.358 . S
C125 H167 0.930 . S
C126 C127 1.346 1_455 S
C126 C128 1.357 . S
C126 O151 1.325 . S
C127 C126 1.346 1_655 S
C127 C129 1.353 . S
C127 H168 0.929 . S
C128 C126 1.357 . S
C128 C130 1.358 . S
C128 H169 0.930 . S
C129 C127 1.353 . S
C129 N131 1.314 . S
C129 H170 0.930 . S
C130 C128 1.358 . S
C130 N131 1.279 1_455 S
C130 H171 0.930 . S
N131 C129 1.314 . S
N131 C130 1.279 1_655 S
C132 C134 1.353 . S
C132 N135 1.314 1_455 S
C132 H138 0.930 . S
C133 N135 1.279 . S
C133 C136 1.358 . S
C133 H139 0.930 . S
C134 C132 1.353 . S
C134 C137 1.347 . S
C134 H172 0.929 . S
N135 Li90 1.990 . S
N135 C132 1.314 1_655 S
N135 C133 1.279 . S
C136 C133 1.358 . S
C136 C137 1.357 1_655 S
C136 H173 0.930 . S
C137 C134 1.347 . S
C137 C136 1.357 1_455 S
H138 C132 0.930 . S
H139 C133 0.930 . S
C140 N141 1.314 . S
C140 C142 1.353 . S
C140 H146 0.930 . S
N141 Li91 1.990 . S
N141 C140 1.314 . S
N141 C144 1.279 . S
C142 C140 1.353 . S
C142 C145 1.348 . S
C142 H174 0.929 . S
C143 C144 1.358 . S
C143 C145 1.356 . S
C143 H175 0.930 . S
C144 N141 1.279 . S
C144 C143 1.358 . S
C144 H147 0.930 . S
C145 C142 1.348 . S
C145 C143 1.356 . S
H146 C140 0.930 . S
H147 C144 0.930 . S
O148 Li88 1.956 . S
O148 Li89 1.970 . S
O148 Li90 1.961 1_455 S
O148 C92 1.325 . S
O149 Li88 1.970 1_655 S
O149 Li89 1.956 1_655 S
O149 Li91 1.961 . S
O149 C98 1.325 1_655 S
O150 Li88 1.961 1_655 S
O150 Li90 1.956 . S
O150 Li91 1.970 . S
O150 C120 1.325 . S
O151 Li89 1.961 . S
O151 Li90 1.970 1_455 S
O151 Li91 1.956 1_455 S
O151 C126 1.325 . S
H152 C94 0.929 . S
H153 C95 0.930 . S
H154 C96 0.930 . S
H155 C97 0.930 . S
H156 C99 0.930 . S
H157 C101 0.929 . S
H158 C102 0.930 . S
H159 C103 0.930 . S
H160 C106 0.930 . S
H161 C109 0.929 . S
H162 C114 0.929 . S
H163 C115 0.930 . S
H164 C122 0.929 . S
H165 C123 0.930 . S
H166 C124 0.930 . S
H167 C125 0.930 . S
H168 C127 0.929 . S
H169 C128 0.930 . S
H170 C129 0.930 . S
H171 C130 0.930 . S
H172 C134 0.929 . S
H173 C136 0.930 . S
H174 C142 0.929 . S
H175 C143 0.930 . S
Li176 N193 1.991 . S
Li176 O236 1.971 . S
Li176 O237 1.970 1_655 S
Li176 O238 1.945 1_655 S
Li177 N201 1.990 . S
Li177 O236 1.970 . S
Li177 O237 1.956 1_655 S
Li177 O239 1.975 . S
Li178 N223 1.990 . S
Li178 O236 1.961 1_455 S
Li178 O238 1.956 . S
Li178 O239 1.970 1_455 S
Li179 N229 1.990 . S
Li179 O237 1.961 . S
Li179 O238 1.970 . S
Li179 O239 1.941 1_455 S
C180 C182 1.348 . S
C180 C183 1.356 . S
C180 O236 1.325 . S
N181 C184 1.314 . S
N181 C185 1.279 . S
C182 C180 1.348 . S
C182 C184 1.353 . S
C182 H240 0.929 . S
C183 C180 1.356 . S
C183 C185 1.358 . S
C183 H241 0.930 . S
C184 N181 1.314 . S
C184 C182 1.353 . S
C184 H242 0.930 . S
C185 N181 1.279 . S
C185 C183 1.358 . S
C185 H243 0.930 . S
C186 C189 1.344 1_465 S
C186 C190 1.359 . S
C186 O237 1.325 . S
C187 N188 1.279 1_455 S
C187 C190 1.358 1_545 S
C187 H244 0.930 . S
N188 C187 1.279 1_655 S
N188 C191 1.314 . S
C189 C186 1.344 1_645 S
C189 C191 1.353 . S
C189 H245 0.919 1_545 S
C190 C186 1.359 . S
C190 C187 1.358 1_565 S
C190 H246 0.930 . S
C191 N188 1.314 . S
C191 C189 1.353 . S
C191 H247 0.930 . S
C192 N193 1.314 1_455 S
C192 C197 1.353 . S
C192 H198 0.930 . S
N193 Li176 1.991 . S
N193 C192 1.314 1_655 S
N193 C195 1.279 . S
C194 C195 1.358 . S
C194 C196 1.350 1_655 S
C194 H248 0.930 . S
C195 N193 1.279 . S
C195 C194 1.358 . S
C195 H199 0.930 . S
C196 C194 1.350 1_455 S
C196 C197 1.354 . S
C197 C192 1.353 . S
C197 C196 1.354 . S
C197 H249 0.929 . S
H198 C192 0.930 . S
H199 C195 0.930 . S
C200 N201 1.314 . S
C200 C202 1.353 . S
C200 H206 0.930 . S
N201 Li177 1.990 . S
N201 C200 1.314 . S
N201 C204 1.279 . S
C202 C200 1.353 . S
C202 C205 1.348 . S
C202 H250 0.929 . S
C203 C204 1.358 . S
C203 C205 1.356 . S
C203 H251 0.930 . S
C204 N201 1.279 . S
C204 C203 1.358 . S
C204 H207 0.930 . S
C205 C202 1.348 . S
C205 C203 1.356 . S
H206 C200 0.930 . S
H207 C204 0.930 . S
C208 C210 1.348 . S
C208 C211 1.356 . S
C208 O238 1.325 . S
N209 C212 1.314 . S
N209 C213 1.279 . S
C210 C208 1.348 . S
C210 C212 1.353 . S
C210 H252 0.929 . S
C211 C208 1.356 . S
C211 C213 1.358 . S
C211 H253 0.930 . S
C212 N209 1.314 . S
C212 C210 1.353 . S
C212 H254 0.930 . S
C213 N209 1.279 . S
C213 C211 1.358 . S
C213 H255 0.930 . S
C214 C215 1.349 . S
C214 C216 1.355 1_455 S
C214 O239 1.324 1_455 S
C215 C214 1.349 . S
C215 C217 1.353 . S
C215 H256 0.929 . S
C216 C214 1.355 1_655 S
C216 C218 1.358 . S
C216 H257 0.930 . S
C217 C215 1.353 . S
C217 N219 1.314 . S
C217 H258 0.930 . S
C218 C216 1.358 . S
C218 N219 1.279 1_655 S
C218 H259 0.930 . S
N219 C217 1.314 . S
N219 C218 1.279 1_455 S
C220 C222 1.353 . S
C220 N223 1.314 1_655 S
C220 H226 0.930 . S
C221 N223 1.279 . S
C221 C224 1.358 . S
C221 H227 0.930 . S
C222 C220 1.353 . S
C222 C225 1.337 1_655 S
C222 H260 0.929 . S
N223 Li178 1.990 . S
N223 C220 1.314 1_455 S
N223 C221 1.279 . S
C224 C221 1.358 . S
C224 C225 1.366 . S
C224 H261 0.930 . S
C225 C222 1.337 1_455 S
C225 C224 1.366 . S
H226 C220 0.930 . S
H227 C221 0.930 . S
C228 N229 1.314 . S
C228 C230 1.353 . S
C228 H234 0.930 . S
N229 Li179 1.990 . S
N229 C228 1.314 . S
N229 C232 1.279 . S
C230 C228 1.353 . S
C230 C233 1.348 . S
C230 H262 0.929 . S
C231 C232 1.358 . S
C231 C233 1.356 . S
C231 H263 0.930 . S
C232 N229 1.279 . S
C232 C231 1.358 . S
C232 H235 0.930 . S
C233 C230 1.348 . S
C233 C231 1.356 . S
H234 C228 0.930 . S
H235 C232 0.930 . S
O236 Li176 1.971 . S
O236 Li177 1.970 . S
O236 Li178 1.961 1_655 S
O236 C180 1.325 . S
O237 Li176 1.970 1_455 S
O237 Li177 1.956 1_455 S
O237 Li179 1.961 . S
O237 C186 1.325 . S
O238 Li176 1.945 1_455 S
O238 Li178 1.956 . S
O238 Li179 1.970 . S
O238 C208 1.325 . S
O239 Li177 1.975 . S
O239 Li178 1.970 1_655 S
O239 Li179 1.941 1_655 S
O239 C214 1.324 1_655 S
H240 C182 0.929 . S
H241 C183 0.930 . S
H242 C184 0.930 . S
H243 C185 0.930 . S
H244 C187 0.930 . S
H245 C189 0.919 1_565 S
H246 C190 0.930 . S
H247 C191 0.930 . S
H248 C194 0.930 . S
H249 C197 0.929 . S
H250 C202 0.929 . S
H251 C203 0.930 . S
H252 C210 0.929 . S
H253 C211 0.930 . S
H254 C212 0.930 . S
H255 C213 0.930 . S
H256 C215 0.929 . S
H257 C216 0.930 . S
H258 C217 0.930 . S
H259 C218 0.930 . S
H260 C222 0.929 . S
H261 C224 0.930 . S
H262 C230 0.929 . S
H263 C231 0.930 . S
Li264 N281 1.990 . S
Li264 O324 1.956 1_655 S
Li264 O325 1.970 . S
Li264 O326 1.961 . S
Li265 N289 1.990 . S
Li265 O324 1.970 1_655 S
Li265 O325 1.956 . S
Li265 O327 1.961 1_655 S
Li266 N311 1.990 . S
Li266 O324 1.961 . S
Li266 O326 1.956 1_455 S
Li266 O327 1.970 . S
Li267 N317 1.990 . S
Li267 O325 1.961 1_455 S
Li267 O326 1.970 1_455 S
Li267 O327 1.956 . S
C268 C270 1.346 1_455 S
C268 C271 1.357 . S
C268 O324 1.325 . S
N269 C272 1.314 . S
N269 C273 1.279 1_655 S
C270 C268 1.346 1_655 S
C270 C272 1.353 . S
C270 H328 0.929 . S
C271 C268 1.357 . S
C271 C273 1.358 . S
C271 H329 0.930 . S
C272 N269 1.314 . S
C272 C270 1.353 . S
C272 H330 0.930 . S
C273 N269 1.279 1_455 S
C273 C271 1.358 . S
C273 H331 0.930 . S
C274 C277 1.348 . S
C274 C278 1.356 . S
C274 O325 1.325 . S
C275 N276 1.279 . S
C275 C278 1.358 . S
C275 H332 0.930 . S
N276 C275 1.279 . S
N276 C279 1.314 . S
C277 C274 1.348 . S
C277 C279 1.353 . S
C277 H333 0.929 . S
C278 C274 1.356 . S
C278 C275 1.358 . S
C278 H334 0.930 . S
C279 N276 1.314 . S
C279 C277 1.353 . S
C279 H335 0.930 . S
C280 N281 1.314 . S
C280 C285 1.353 . S
C280 H286 0.930 . S
N281 Li264 1.990 . S
N281 C280 1.314 . S
N281 C283 1.279 . S
C282 C283 1.358 . S
C282 C284 1.356 . S
C282 H336 0.930 . S
C283 N281 1.279 . S
C283 C282 1.358 . S
C283 H287 0.930 . S
C284 C282 1.356 . S
C284 C285 1.348 . S
C285 C280 1.353 . S
C285 C284 1.348 . S
C285 H337 0.929 . S
H286 C280 0.930 . S
H287 C283 0.930 . S
C288 N289 1.314 1_455 S
C288 C290 1.353 . S
C288 H294 0.930 . S
N289 Li265 1.990 . S
N289 C288 1.314 1_655 S
N289 C292 1.279 . S
C290 C288 1.353 . S
C290 C293 1.347 . S
C290 H338 0.929 . S
C291 C292 1.358 . S
C291 C293 1.357 1_655 S
C291 H339 0.930 . S
C292 N289 1.279 . S
C292 C291 1.358 . S
C292 H295 0.930 . S
C293 C290 1.347 . S
C293 C291 1.357 1_455 S
H294 C288 0.930 . S
H295 C292 0.930 . S
C296 C298 1.347 . S
C296 C299 1.356 1_455 S
C296 O326 1.325 1_455 S
N297 C300 1.314 . S
N297 C301 1.279 1_455 S
C298 C296 1.347 . S
C298 C300 1.353 . S
C298 H340 0.929 . S
C299 C296 1.356 1_655 S
C299 C301 1.358 . S
C299 H341 0.930 . S
C300 N297 1.314 . S
C300 C298 1.353 . S
C300 H342 0.930 . S
C301 N297 1.279 1_655 S
C301 C299 1.358 . S
C301 H343 0.930 . S
C302 C303 1.348 . S
C302 C304 1.356 . S
C302 O327 1.325 . S
C303 C302 1.348 . S
C303 C305 1.353 . S
C303 H344 0.929 . S
C304 C302 1.356 . S
C304 C306 1.358 . S
C304 H345 0.930 . S
C305 C303 1.353 . S
C305 N307 1.314 . S
C305 H346 0.930 . S
C306 C304 1.358 . S
C306 N307 1.279 . S
C306 H347 0.930 . S
N307 C305 1.314 . S
N307 C306 1.279 . S
C308 C310 1.353 . S
C308 N311 1.314 . S
C308 H314 0.930 . S
C309 N311 1.279 . S
C309 C312 1.358 . S
C309 H315 0.930 . S
C310 C308 1.353 . S
C310 C313 1.348 . S
C310 H348 0.929 . S
N311 Li266 1.990 . S
N311 C308 1.314 . S
N311 C309 1.279 . S
C312 C309 1.358 . S
C312 C313 1.356 . S
C312 H349 0.930 . S
C313 C310 1.348 . S
C313 C312 1.356 . S
H314 C308 0.930 . S
H315 C309 0.930 . S
C316 N317 1.314 1_655 S
C316 C318 1.353 . S
C316 H322 0.930 . S
N317 Li267 1.990 . S
N317 C316 1.314 1_455 S
N317 C320 1.279 . S
C318 C316 1.353 . S
C318 C321 1.344 1_655 S
C318 H350 0.929 . S
C319 C320 1.358 . S
C319 C321 1.359 . S
C319 H351 0.930 . S
C320 N317 1.279 . S
C320 C319 1.358 . S
C320 H323 0.930 . S
C321 C318 1.344 1_455 S
C321 C319 1.359 . S
H322 C316 0.930 . S
H323 C320 0.930 . S
O324 Li264 1.956 1_455 S
O324 Li265 1.970 1_455 S
O324 Li266 1.961 . S
O324 C268 1.325 . S
O325 Li264 1.970 . S
O325 Li265 1.956 . S
O325 Li267 1.961 1_655 S
O325 C274 1.325 . S
O326 Li264 1.961 . S
O326 Li266 1.956 1_655 S
O326 Li267 1.970 1_655 S
O326 C296 1.325 1_655 S
O327 Li265 1.961 1_455 S
O327 Li266 1.970 . S
O327 Li267 1.956 . S
O327 C302 1.325 . S
H328 C270 0.929 . S
H329 C271 0.930 . S
H330 C272 0.930 . S
H331 C273 0.930 . S
H332 C275 0.930 . S
H333 C277 0.929 . S
H334 C278 0.930 . S
H335 C279 0.930 . S
H336 C282 0.930 . S
H337 C285 0.929 . S
H338 C290 0.929 . S
H339 C291 0.930 . S
H340 C298 0.929 . S
H341 C299 0.930 . S
H342 C300 0.930 . S
H343 C301 0.930 . S
H344 C303 0.929 . S
H345 C304 0.930 . S
H346 C305 0.930 . S
H347 C306 0.930 . S
H348 C310 0.929 . S
H349 C312 0.930 . S
H350 C318 0.929 . S
H351 C319 0.930 . S
Li352 N369 1.990 . S
Li352 O412 1.956 . S
Li352 O413 1.970 . S
Li352 O414 1.961 . S
Li353 N377 1.990 . S
Li353 O412 1.970 . S
Li353 O413 1.956 . S
Li353 O415 1.961 . S
Li354 N399 1.990 . S
Li354 O412 1.961 . S
Li354 O414 1.956 . S
Li354 O415 1.970 . S
Li355 N405 1.990 . S
Li355 O413 1.961 . S
Li355 O414 1.970 . S
Li355 O415 1.956 . S
C356 C358 1.348 . S
C356 C359 1.356 . S
C356 O412 1.325 . S
N357 C360 1.314 . S
N357 C361 1.279 . S
C358 C356 1.348 . S
C358 C360 1.353 . S
C358 H416 0.929 . S
C359 C356 1.356 . S
C359 C361 1.358 . S
C359 H417 0.930 . S
C360 N357 1.314 . S
C360 C358 1.353 . S
C360 H418 0.930 . S
C361 N357 1.279 . S
C361 C359 1.358 . S
C361 H419 0.930 . S
C362 C365 1.348 . S
C362 C366 1.356 . S
C362 O413 1.325 . S
C363 N364 1.279 . S
C363 C366 1.358 . S
C363 H420 0.930 . S
N364 C363 1.279 . S
N364 C367 1.314 . S
C365 C362 1.348 . S
C365 C367 1.353 . S
C365 H421 0.929 . S
C366 C362 1.356 . S
C366 C363 1.358 . S
C366 H422 0.930 . S
C367 N364 1.314 . S
C367 C365 1.353 . S
C367 H423 0.930 . S
C368 N369 1.314 . S
C368 C373 1.353 . S
C368 H374 0.930 . S
N369 Li352 1.990 . S
N369 C368 1.314 . S
N369 C371 1.279 . S
C370 C371 1.358 . S
C370 C372 1.356 . S
C370 H424 0.930 . S
C371 N369 1.279 . S
C371 C370 1.358 . S
C371 H375 0.930 . S
C372 C370 1.356 . S
C372 C373 1.348 . S
C373 C368 1.353 . S
C373 C372 1.348 . S
C373 H425 0.929 . S
H374 C368 0.930 . S
H375 C371 0.930 . S
C376 N377 1.314 . S
C376 C378 1.353 . S
C376 H382 0.930 . S
N377 Li353 1.990 . S
N377 C376 1.314 . S
N377 C380 1.279 . S
C378 C376 1.353 . S
C378 C381 1.348 . S
C378 H426 0.929 . S
C379 C380 1.358 . S
C379 C381 1.356 . S
C379 H427 0.930 . S
C380 N377 1.279 . S
C380 C379 1.358 . S
C380 H383 0.930 . S
C381 C378 1.348 . S
C381 C379 1.356 . S
H382 C376 0.930 . S
H383 C380 0.930 . S
C384 C386 1.348 . S
C384 C387 1.356 . S
C384 O414 1.325 . S
N385 C388 1.314 . S
N385 C389 1.279 . S
C386 C384 1.348 . S
C386 C388 1.353 . S
C386 H428 0.929 . S
C387 C384 1.356 . S
C387 C389 1.358 . S
C387 H429 0.930 . S
C388 N385 1.314 . S
C388 C386 1.353 . S
C388 H430 0.930 . S
C389 N385 1.279 . S
C389 C387 1.358 . S
C389 H431 0.930 . S
C390 C391 1.348 . S
C390 C392 1.356 . S
C390 O415 1.325 . S
C391 C390 1.348 . S
C391 C393 1.353 . S
C391 H432 0.929 . S
C392 C390 1.356 . S
C392 C394 1.358 . S
C392 H433 0.930 . S
C393 C391 1.353 . S
C393 N395 1.314 . S
C393 H434 0.930 . S
C394 C392 1.358 . S
C394 N395 1.279 . S
C394 H435 0.930 . S
N395 C393 1.314 . S
N395 C394 1.279 . S
C396 C398 1.353 . S
C396 N399 1.314 . S
C396 H402 0.930 . S
C397 N399 1.279 . S
C397 C400 1.358 . S
C397 H403 0.930 . S
C398 C396 1.353 . S
C398 C401 1.348 . S
C398 H436 0.929 . S
N399 Li354 1.990 . S
N399 C396 1.314 . S
N399 C397 1.279 . S
C400 C397 1.358 . S
C400 C401 1.356 . S
C400 H437 0.930 . S
C401 C398 1.348 . S
C401 C400 1.356 . S
H402 C396 0.930 . S
H403 C397 0.930 . S
C404 N405 1.314 . S
C404 C406 1.353 . S
C404 H410 0.930 . S
N405 Li355 1.990 . S
N405 C404 1.314 . S
N405 C408 1.279 . S
C406 C404 1.353 . S
C406 C409 1.348 . S
C406 H438 0.929 . S
C407 C408 1.358 . S
C407 C409 1.356 . S
C407 H439 0.930 . S
C408 N405 1.279 . S
C408 C407 1.358 . S
C408 H411 0.930 . S
C409 C406 1.348 . S
C409 C407 1.356 . S
H410 C404 0.930 . S
H411 C408 0.930 . S
O412 Li352 1.956 . S
O412 Li353 1.970 . S
O412 Li354 1.961 . S
O412 C356 1.325 . S
O413 Li352 1.970 . S
O413 Li353 1.956 . S
O413 Li355 1.961 . S
O413 C362 1.325 . S
O414 Li352 1.961 . S
O414 Li354 1.956 . S
O414 Li355 1.970 . S
O414 C384 1.325 . S
O415 Li353 1.961 . S
O415 Li354 1.970 . S
O415 Li355 1.956 . S
O415 C390 1.325 . S
H416 C358 0.929 . S
H417 C359 0.930 . S
H418 C360 0.930 . S
H419 C361 0.930 . S
H420 C363 0.930 . S
H421 C365 0.929 . S
H422 C366 0.930 . S
H423 C367 0.930 . S
H424 C370 0.930 . S
H425 C373 0.929 . S
H426 C378 0.929 . S
H427 C379 0.930 . S
H428 C386 0.929 . S
H429 C387 0.930 . S
H430 C388 0.930 . S
H431 C389 0.930 . S
H432 C391 0.929 . S
H433 C392 0.930 . S
H434 C393 0.930 . S
H435 C394 0.930 . S
H436 C398 0.929 . S
H437 C400 0.930 . S
H438 C406 0.929 . S
H439 C407 0.930 . S
Li440 N457 1.990 . S
Li440 O500 1.956 . S
Li440 O501 1.970 . S
Li440 O502 1.961 . S
Li441 N465 1.990 . S
Li441 O500 1.970 . S
Li441 O501 1.956 . S
Li441 O503 1.961 . S
Li442 N487 1.990 . S
Li442 O500 1.961 . S
Li442 O502 1.956 . S
Li442 O503 1.970 . S
Li443 N493 1.990 . S
Li443 O501 1.961 . S
Li443 O502 1.970 . S
Li443 O503 1.956 . S
C444 C446 1.348 . S
C444 C447 1.356 . S
C444 O500 1.325 . S
N445 C448 1.314 . S
N445 C449 1.279 . S
C446 C444 1.348 . S
C446 C448 1.353 . S
C446 H504 0.929 . S
C447 C444 1.356 . S
C447 C449 1.358 . S
C447 H505 0.930 . S
C448 N445 1.314 . S
C448 C446 1.353 . S
C448 H506 0.930 . S
C449 N445 1.279 . S
C449 C447 1.358 . S
C449 H507 0.930 . S
C450 C453 1.348 1_565 S
C450 C454 1.356 . S
C450 O501 1.325 . S
C451 N452 1.279 . S
C451 C454 1.358 1_545 S
C451 H508 0.930 . S
N452 C451 1.279 . S
N452 C455 1.314 . S
C453 C450 1.348 1_545 S
C453 C455 1.353 . S
C453 H509 0.919 1_545 S
C454 C450 1.356 . S
C454 C451 1.358 1_565 S
C454 H510 0.930 . S
C455 N452 1.314 . S
C455 C453 1.353 . S
C455 H511 0.930 . S
C456 N457 1.314 . S
C456 C461 1.353 . S
C456 H462 0.930 . S
N457 Li440 1.990 . S
N457 C456 1.314 . S
N457 C459 1.279 . S
C458 C459 1.358 . S
C458 C460 1.356 . S
C458 H512 0.930 . S
C459 N457 1.279 . S
C459 C458 1.358 . S
C459 H463 0.930 . S
C460 C458 1.356 . S
C460 C461 1.348 . S
C461 C456 1.353 . S
C461 C460 1.348 . S
C461 H513 0.929 . S
H462 C456 0.930 . S
H463 C459 0.930 . S
C464 N465 1.314 . S
C464 C466 1.353 . S
C464 H470 0.930 . S
N465 Li441 1.990 . S
N465 C464 1.314 . S
N465 C468 1.279 . S
C466 C464 1.353 . S
C466 C469 1.348 . S
C466 H514 0.929 . S
C467 C468 1.358 . S
C467 C469 1.356 . S
C467 H515 0.930 . S
C468 N465 1.279 . S
C468 C467 1.358 . S
C468 H471 0.930 . S
C469 C466 1.348 . S
C469 C467 1.356 . S
H470 C464 0.930 . S
H471 C468 0.930 . S
C472 C474 1.348 . S
C472 C475 1.356 . S
C472 O502 1.325 . S
N473 C476 1.314 . S
N473 C477 1.279 . S
C474 C472 1.348 . S
C474 C476 1.353 . S
C474 H516 0.929 . S
C475 C472 1.356 . S
C475 C477 1.358 . S
C475 H517 0.930 . S
C476 N473 1.314 . S
C476 C474 1.353 . S
C476 H518 0.930 . S
C477 N473 1.279 . S
C477 C475 1.358 . S
C477 H519 0.930 . S
C478 C479 1.348 . S
C478 C480 1.356 . S
C478 O503 1.325 . S
C479 C478 1.348 . S
C479 C481 1.353 . S
C479 H520 0.929 . S
C480 C478 1.356 . S
C480 C482 1.358 . S
C480 H521 0.930 . S
C481 C479 1.353 . S
C481 N483 1.314 . S
C481 H522 0.930 . S
C482 C480 1.358 . S
C482 N483 1.279 . S
C482 H523 0.930 . S
N483 C481 1.314 . S
N483 C482 1.279 . S
C484 C486 1.353 . S
C484 N487 1.314 . S
C484 H490 0.930 . S
C485 N487 1.279 . S
C485 C488 1.358 . S
C485 H491 0.930 . S
C486 C484 1.353 . S
C486 C489 1.348 . S
C486 H524 0.929 . S
N487 Li442 1.990 . S
N487 C484 1.314 . S
N487 C485 1.279 . S
C488 C485 1.358 . S
C488 C489 1.356 . S
C488 H525 0.930 . S
C489 C486 1.348 . S
C489 C488 1.356 . S
H490 C484 0.930 . S
H491 C485 0.930 . S
C492 N493 1.314 . S
C492 C494 1.353 . S
C492 H498 0.930 . S
N493 Li443 1.990 . S
N493 C492 1.314 . S
N493 C496 1.279 . S
C494 C492 1.353 . S
C494 C497 1.348 . S
C494 H526 0.929 . S
C495 C496 1.358 . S
C495 C497 1.356 . S
C495 H527 0.930 . S
C496 N493 1.279 . S
C496 C495 1.358 . S
C496 H499 0.930 . S
C497 C494 1.348 . S
C497 C495 1.356 . S
H498 C492 0.930 . S
H499 C496 0.930 . S
O500 Li440 1.956 . S
O500 Li441 1.970 . S
O500 Li442 1.961 . S
O500 C444 1.325 . S
O501 Li440 1.970 . S
O501 Li441 1.956 . S
O501 Li443 1.961 . S
O501 C450 1.325 . S
O502 Li440 1.961 . S
O502 Li442 1.956 . S
O502 Li443 1.970 . S
O502 C472 1.325 . S
O503 Li441 1.961 . S
O503 Li442 1.970 . S
O503 Li443 1.956 . S
O503 C478 1.325 . S
H504 C446 0.929 . S
H505 C447 0.930 . S
H506 C448 0.930 . S
H507 C449 0.930 . S
H508 C451 0.930 . S
H509 C453 0.919 1_565 S
H510 C454 0.930 . S
H511 C455 0.930 . S
H512 C458 0.930 . S
H513 C461 0.929 . S
H514 C466 0.929 . S
H515 C467 0.930 . S
H516 C474 0.929 . S
H517 C475 0.930 . S
H518 C476 0.930 . S
H519 C477 0.930 . S
H520 C479 0.929 . S
H521 C480 0.930 . S
H522 C481 0.930 . S
H523 C482 0.930 . S
H524 C486 0.929 . S
H525 C488 0.930 . S
H526 C494 0.929 . S
H527 C495 0.930 . S
Li528 N545 1.990 . S
Li528 O588 1.956 . S
Li528 O589 1.970 . S
Li528 O590 1.961 . S
Li529 N553 1.990 . S
Li529 O588 1.970 . S
Li529 O589 1.956 . S
Li529 O591 1.961 . S
Li530 N575 1.990 . S
Li530 O588 1.961 . S
Li530 O590 1.956 . S
Li530 O591 1.970 . S
Li531 N581 1.990 . S
Li531 O589 1.961 . S
Li531 O590 1.970 . S
Li531 O591 1.956 . S
C532 C534 1.348 . S
C532 C535 1.356 . S
C532 O588 1.325 . S
N533 C536 1.314 . S
N533 C537 1.279 . S
C534 C532 1.348 . S
C534 C536 1.353 . S
C534 H592 0.929 . S
C535 C532 1.356 . S
C535 C537 1.358 . S
C535 H593 0.930 . S
C536 N533 1.314 . S
C536 C534 1.353 . S
C536 H594 0.930 . S
C537 N533 1.279 . S
C537 C535 1.358 . S
C537 H595 0.930 . S
C538 C541 1.348 . S
C538 C542 1.356 . S
C538 O589 1.325 . S
C539 N540 1.279 . S
C539 C542 1.358 . S
C539 H596 0.930 . S
N540 C539 1.279 . S
N540 C543 1.314 . S
C541 C538 1.348 . S
C541 C543 1.353 . S
C541 H597 0.929 . S
C542 C538 1.356 . S
C542 C539 1.358 . S
C542 H598 0.930 . S
C543 N540 1.314 . S
C543 C541 1.353 . S
C543 H599 0.930 . S
C544 N545 1.314 . S
C544 C549 1.353 . S
C544 H550 0.930 . S
N545 Li528 1.990 . S
N545 C544 1.314 . S
N545 C547 1.279 . S
C546 C547 1.358 . S
C546 C548 1.356 . S
C546 H600 0.930 . S
C547 N545 1.279 . S
C547 C546 1.358 . S
C547 H551 0.930 . S
C548 C546 1.356 . S
C548 C549 1.348 . S
C549 C544 1.353 . S
C549 C548 1.348 . S
C549 H601 0.929 . S
H550 C544 0.930 . S
H551 C547 0.930 . S
C552 N553 1.314 . S
C552 C554 1.353 . S
C552 H558 0.930 . S
N553 Li529 1.990 . S
N553 C552 1.314 . S
N553 C556 1.279 . S
C554 C552 1.353 . S
C554 C557 1.348 . S
C554 H602 0.929 . S
C555 C556 1.358 . S
C555 C557 1.356 . S
C555 H603 0.930 . S
C556 N553 1.279 . S
C556 C555 1.358 . S
C556 H559 0.930 . S
C557 C554 1.348 . S
C557 C555 1.356 . S
H558 C552 0.930 . S
H559 C556 0.930 . S
C560 C562 1.348 . S
C560 C563 1.356 . S
C560 O590 1.325 . S
N561 C564 1.314 . S
N561 C565 1.279 . S
C562 C560 1.348 . S
C562 C564 1.353 . S
C562 H604 0.929 . S
C563 C560 1.356 . S
C563 C565 1.358 . S
C563 H605 0.930 . S
C564 N561 1.314 . S
C564 C562 1.353 . S
C564 H606 0.930 . S
C565 N561 1.279 . S
C565 C563 1.358 . S
C565 H607 0.930 . S
C566 C567 1.348 . S
C566 C568 1.356 . S
C566 O591 1.325 . S
C567 C566 1.348 . S
C567 C569 1.353 . S
C567 H608 0.929 . S
C568 C566 1.356 . S
C568 C570 1.358 . S
C568 H609 0.930 . S
C569 C567 1.353 . S
C569 N571 1.314 . S
C569 H610 0.930 . S
C570 C568 1.358 . S
C570 N571 1.279 . S
C570 H611 0.930 . S
N571 C569 1.314 . S
N571 C570 1.279 . S
C572 C574 1.353 . S
C572 N575 1.314 . S
C572 H578 0.930 . S
C573 N575 1.279 . S
C573 C576 1.358 . S
C573 H579 0.930 . S
C574 C572 1.353 . S
C574 C577 1.348 . S
C574 H612 0.929 . S
N575 Li530 1.990 . S
N575 C572 1.314 . S
N575 C573 1.279 . S
C576 C573 1.358 . S
C576 C577 1.356 . S
C576 H613 0.930 . S
C577 C574 1.348 . S
C577 C576 1.356 . S
H578 C572 0.930 . S
H579 C573 0.930 . S
C580 N581 1.314 . S
C580 C582 1.353 . S
C580 H586 0.930 . S
N581 Li531 1.990 . S
N581 C580 1.314 . S
N581 C584 1.279 . S
C582 C580 1.353 . S
C582 C585 1.348 . S
C582 H614 0.929 . S
C583 C584 1.358 . S
C583 C585 1.356 . S
C583 H615 0.930 . S
C584 N581 1.279 . S
C584 C583 1.358 . S
C584 H587 0.930 . S
C585 C582 1.348 . S
C585 C583 1.356 . S
H586 C580 0.930 . S
H587 C584 0.930 . S
O588 Li528 1.956 . S
O588 Li529 1.970 . S
O588 Li530 1.961 . S
O588 C532 1.325 . S
O589 Li528 1.970 . S
O589 Li529 1.956 . S
O589 Li531 1.961 . S
O589 C538 1.325 . S
O590 Li528 1.961 . S
O590 Li530 1.956 . S
O590 Li531 1.970 . S
O590 C560 1.325 . S
O591 Li529 1.961 . S
O591 Li530 1.970 . S
O591 Li531 1.956 . S
O591 C566 1.325 . S
H592 C534 0.929 . S
H593 C535 0.930 . S
H594 C536 0.930 . S
H595 C537 0.930 . S
H596 C539 0.930 . S
H597 C541 0.929 . S
H598 C542 0.930 . S
H599 C543 0.930 . S
H600 C546 0.930 . S
H601 C549 0.929 . S
H602 C554 0.929 . S
H603 C555 0.930 . S
H604 C562 0.929 . S
H605 C563 0.930 . S
H606 C564 0.930 . S
H607 C565 0.930 . S
H608 C567 0.929 . S
H609 C568 0.930 . S
H610 C569 0.930 . S
H611 C570 0.930 . S
H612 C574 0.929 . S
H613 C576 0.930 . S
H614 C582 0.929 . S
H615 C583 0.930 . S
Li616 N633 1.990 . S
Li616 O676 1.956 . S
Li616 O677 1.970 . S
Li616 O678 1.961 . S
Li617 N641 1.990 . S
Li617 O676 1.970 . S
Li617 O677 1.956 . S
Li617 O679 1.961 . S
Li618 N663 1.990 . S
Li618 O676 1.961 . S
Li618 O678 1.956 . S
Li618 O679 1.970 . S
Li619 N669 1.990 . S
Li619 O677 1.961 . S
Li619 O678 1.970 . S
Li619 O679 1.956 . S
C620 C622 1.348 . S
C620 C623 1.356 . S
C620 O676 1.325 . S
N621 C624 1.314 . S
N621 C625 1.279 . S
C622 C620 1.348 . S
C622 C624 1.353 . S
C622 H680 0.929 . S
C623 C620 1.356 . S
C623 C625 1.358 . S
C623 H681 0.930 . S
C624 N621 1.314 . S
C624 C622 1.353 . S
C624 H682 0.930 . S
C625 N621 1.279 . S
C625 C623 1.358 . S
C625 H683 0.930 . S
C626 C629 1.348 . S
C626 C630 1.356 . S
C626 O677 1.325 . S
C627 N628 1.279 . S
C627 C630 1.358 . S
C627 H684 0.930 . S
N628 C627 1.279 . S
N628 C631 1.314 . S
C629 C626 1.348 . S
C629 C631 1.353 . S
C629 H685 0.929 . S
C630 C626 1.356 . S
C630 C627 1.358 . S
C630 H686 0.930 . S
C631 N628 1.314 . S
C631 C629 1.353 . S
C631 H687 0.930 . S
C632 N633 1.314 . S
C632 C637 1.353 . S
C632 H638 0.930 . S
N633 Li616 1.990 . S
N633 C632 1.314 . S
N633 C635 1.279 . S
C634 C635 1.358 . S
C634 C636 1.356 . S
C634 H688 0.930 . S
C635 N633 1.279 . S
C635 C634 1.358 . S
C635 H639 0.930 . S
C636 C634 1.356 . S
C636 C637 1.348 . S
C637 C632 1.353 . S
C637 C636 1.348 . S
C637 H689 0.929 . S
H638 C632 0.930 . S
H639 C635 0.930 . S
C640 N641 1.314 . S
C640 C642 1.353 . S
C640 H646 0.930 . S
N641 Li617 1.990 . S
N641 C640 1.314 . S
N641 C644 1.279 . S
C642 C640 1.353 . S
C642 C645 1.348 . S
C642 H690 0.929 . S
C643 C644 1.358 . S
C643 C645 1.356 . S
C643 H691 0.930 . S
C644 N641 1.279 . S
C644 C643 1.358 . S
C644 H647 0.930 . S
C645 C642 1.348 . S
C645 C643 1.356 . S
H646 C640 0.930 . S
H647 C644 0.930 . S
C648 C650 1.348 . S
C648 C651 1.356 . S
C648 O678 1.325 . S
N649 C652 1.314 . S
N649 C653 1.279 . S
C650 C648 1.348 . S
C650 C652 1.353 . S
C650 H692 0.929 . S
C651 C648 1.356 . S
C651 C653 1.358 . S
C651 H693 0.930 . S
C652 N649 1.314 . S
C652 C650 1.353 . S
C652 H694 0.930 . S
C653 N649 1.279 . S
C653 C651 1.358 . S
C653 H695 0.930 . S
C654 C655 1.348 1_545 S
C654 C656 1.356 . S
C654 O679 1.325 . S
C655 C654 1.348 1_565 S
C655 C657 1.353 . S
C655 H696 0.919 1_565 S
C656 C654 1.356 . S
C656 C658 1.358 1_545 S
C656 H697 0.930 . S
C657 C655 1.353 . S
C657 N659 1.314 . S
C657 H698 0.930 . S
C658 C656 1.358 1_565 S
C658 N659 1.279 . S
C658 H699 0.930 . S
N659 C657 1.314 . S
N659 C658 1.279 . S
C660 C662 1.353 . S
C660 N663 1.314 . S
C660 H666 0.930 . S
C661 N663 1.279 . S
C661 C664 1.358 . S
C661 H667 0.930 . S
C662 C660 1.353 . S
C662 C665 1.348 . S
C662 H700 0.929 . S
N663 Li618 1.990 . S
N663 C660 1.314 . S
N663 C661 1.279 . S
C664 C661 1.358 . S
C664 C665 1.356 . S
C664 H701 0.930 . S
C665 C662 1.348 . S
C665 C664 1.356 . S
H666 C660 0.930 . S
H667 C661 0.930 . S
C668 N669 1.314 . S
C668 C670 1.353 . S
C668 H674 0.930 . S
N669 Li619 1.990 . S
N669 C668 1.314 . S
N669 C672 1.279 . S
C670 C668 1.353 . S
C670 C673 1.348 . S
C670 H702 0.929 . S
C671 C672 1.358 . S
C671 C673 1.356 . S
C671 H703 0.930 . S
C672 N669 1.279 . S
C672 C671 1.358 . S
C672 H675 0.930 . S
C673 C670 1.348 . S
C673 C671 1.356 . S
H674 C668 0.930 . S
H675 C672 0.930 . S
O676 Li616 1.956 . S
O676 Li617 1.970 . S
O676 Li618 1.961 . S
O676 C620 1.325 . S
O677 Li616 1.970 . S
O677 Li617 1.956 . S
O677 Li619 1.961 . S
O677 C626 1.325 . S
O678 Li616 1.961 . S
O678 Li618 1.956 . S
O678 Li619 1.970 . S
O678 C648 1.325 . S
O679 Li617 1.961 . S
O679 Li618 1.970 . S
O679 Li619 1.956 . S
O679 C654 1.325 . S
H680 C622 0.929 . S
H681 C623 0.930 . S
H682 C624 0.930 . S
H683 C625 0.930 . S
H684 C627 0.930 . S
H685 C629 0.929 . S
H686 C630 0.930 . S
H687 C631 0.930 . S
H688 C634 0.930 . S
H689 C637 0.929 . S
H690 C642 0.929 . S
H691 C643 0.930 . S
H692 C650 0.929 . S
H693 C651 0.930 . S
H694 C652 0.930 . S
H695 C653 0.930 . S
H696 C655 0.919 1_545 S
H697 C656 0.930 . S
H698 C657 0.930 . S
H699 C658 0.930 . S
H700 C662 0.929 . S
H701 C664 0.930 . S
H702 C670 0.929 . S
H703 C671 0.930 . S
C704 C705 1.369 . S
C704 C706 1.419 . S
C704 H708 0.930 . S
C705 C704 1.369 . S
C705 C714 1.429 1_455 S
C706 C704 1.419 . S
C706 C707 1.364 1_455 S
C706 H709 0.929 . S
C707 C706 1.364 1_655 S
C707 C713 1.427 . S
H708 C704 0.930 . S
H709 C706 0.929 . S
S710 N711 1.613 . S
S710 N712 1.610 . S
N711 S710 1.613 . S
N711 C714 1.350 . S
N712 S710 1.610 . S
N712 C713 1.351 . S
C713 C707 1.427 . S
C713 N712 1.351 . S
C713 C714 1.434 . S
C714 C705 1.429 1_655 S
C714 N711 1.350 . S
C714 C713 1.434 . S
C715 C716 1.363 1_655 S
C715 C717 1.419 . S
C715 H719 0.930 . S
C716 C715 1.363 1_455 S
C716 C725 1.434 . S
C717 C715 1.419 . S
C717 C718 1.355 1_655 S
C717 H720 0.929 . S
C718 C717 1.355 1_455 S
C718 C724 1.437 . S
H719 C715 0.930 . S
H720 C717 0.929 . S
S721 N722 1.613 . S
S721 N723 1.610 . S
N722 S721 1.613 . S
N722 C725 1.350 . S
N723 S721 1.610 . S
N723 C724 1.351 . S
C724 C718 1.437 . S
C724 N723 1.351 . S
C724 C725 1.434 . S
C725 C716 1.434 . S
C725 N722 1.350 . S
C725 C724 1.434 . S
C726 C727 1.369 . S
C726 C728 1.419 . S
C726 H730 0.930 . S
C727 C726 1.369 . S
C727 C736 1.429 . S
C728 C726 1.419 . S
C728 C729 1.363 . S
C728 H731 0.929 . S
C729 C728 1.363 . S
C729 C735 1.428 . S
H730 C726 0.930 . S
H731 C728 0.929 . S
S732 N733 1.613 . S
S732 N734 1.610 . S
N733 S732 1.613 . S
N733 C736 1.350 . S
N734 S732 1.610 . S
N734 C735 1.351 . S
C735 C729 1.428 . S
C735 N734 1.351 . S
C735 C736 1.434 . S
C736 C727 1.429 . S
C736 N733 1.350 . S
C736 C735 1.434 . S
C737 C738 1.369 . S
C737 C739 1.419 . S
C737 H741 0.930 . S
C738 C737 1.369 . S
C738 C747 1.429 . S
C739 C737 1.419 . S
C739 C740 1.363 . S
C739 H742 0.929 . S
C740 C739 1.363 . S
C740 C746 1.428 . S
H741 C737 0.930 . S
H742 C739 0.929 . S
S743 N744 1.613 . S
S743 N745 1.610 . S
N744 S743 1.613 . S
N744 C747 1.350 . S
N745 S743 1.610 . S
N745 C746 1.351 . S
C746 C740 1.428 . S
C746 N745 1.351 . S
C746 C747 1.434 . S
C747 C738 1.429 . S
C747 N744 1.350 . S
C747 C746 1.434 . S
C748 C749 1.369 . S
C748 C750 1.419 . S
C748 H752 0.930 . S
C749 C748 1.369 . S
C749 C758 1.429 . S
C750 C748 1.419 . S
C750 C751 1.363 . S
C750 H753 0.929 . S
C751 C750 1.363 . S
C751 C757 1.428 . S
H752 C748 0.930 . S
H753 C750 0.929 . S
S754 N755 1.613 1_565 S
S754 N756 1.610 1_565 S
N755 S754 1.613 1_545 S
N755 C758 1.350 . S
N756 S754 1.610 1_545 S
N756 C757 1.351 . S
C757 C751 1.428 . S
C757 N756 1.351 . S
C757 C758 1.434 . S
C758 C749 1.429 . S
C758 N755 1.350 . S
C758 C757 1.434 . S
C759 C760 1.369 . S
C759 C761 1.419 . S
C759 H763 0.930 . S
C760 C759 1.369 . S
C760 C769 1.429 . S
C761 C759 1.419 . S
C761 C762 1.363 . S
C761 H764 0.929 . S
C762 C761 1.363 . S
C762 C768 1.428 . S
H763 C759 0.930 . S
H764 C761 0.929 . S
S765 N766 1.613 . S
S765 N767 1.610 . S
N766 S765 1.613 . S
N766 C769 1.350 . S
N767 S765 1.610 . S
N767 C768 1.351 . S
C768 C762 1.428 . S
C768 N767 1.351 . S
C768 C769 1.434 . S
C769 C760 1.429 . S
C769 N766 1.350 . S
C769 C768 1.434 . S
C770 C771 1.369 . S
C770 C772 1.419 . S
C770 H774 0.930 . S
C771 C770 1.369 . S
C771 C780 1.429 . S
C772 C770 1.419 . S
C772 C773 1.363 . S
C772 H775 0.929 . S
C773 C772 1.363 . S
C773 C779 1.428 . S
H774 C770 0.930 . S
H775 C772 0.929 . S
S776 N777 1.613 . S
S776 N778 1.610 . S
N777 S776 1.613 . S
N777 C780 1.350 . S
N778 S776 1.610 . S
N778 C779 1.351 . S
C779 C773 1.428 . S
C779 N778 1.351 . S
C779 C780 1.434 . S
C780 C771 1.429 . S
C780 N777 1.350 . S
C780 C779 1.434 . S
C781 C782 1.369 . S
C781 C783 1.419 . S
C781 H785 0.930 . S
C782 C781 1.369 . S
C782 C791 1.429 . S
C783 C781 1.419 . S
C783 C784 1.363 . S
C783 H786 0.929 . S
C784 C783 1.363 . S
C784 C790 1.428 . S
H785 C781 0.930 . S
H786 C783 0.929 . S
S787 N788 1.613 . S
S787 N789 1.610 . S
N788 S787 1.613 . S
N788 C791 1.350 . S
N789 S787 1.610 . S
N789 C790 1.351 . S
C790 C784 1.428 . S
C790 N789 1.351 . S
C790 C791 1.434 . S
C791 C782 1.429 . S
C791 N788 1.350 . S
C791 C790 1.434 . S
C792 C793 1.369 . S
C792 C794 1.419 . S
C792 H796 0.930 . S
C793 C792 1.369 . S
C793 C802 1.429 . S
C794 C792 1.419 . S
C794 C795 1.363 . S
C794 H797 0.929 . S
C795 C794 1.363 . S
C795 C801 1.428 . S
H796 C792 0.930 . S
H797 C794 0.929 . S
S798 N799 1.613 . S
S798 N800 1.610 . S
N799 S798 1.613 . S
N799 C802 1.350 . S
N800 S798 1.610 . S
N800 C801 1.351 . S
C801 C795 1.428 . S
C801 N800 1.351 . S
C801 C802 1.434 . S
C802 C793 1.429 . S
C802 N799 1.350 . S
C802 C801 1.434 . S
C803 C804 1.369 . S
C803 C805 1.419 . S
C803 H807 0.930 . S
C804 C803 1.369 . S
C804 C813 1.429 . S
C805 C803 1.419 . S
C805 C806 1.363 . S
C805 H808 0.929 . S
C806 C805 1.363 . S
C806 C812 1.428 . S
H807 C803 0.930 . S
H808 C805 0.929 . S
S809 N810 1.613 . S
S809 N811 1.610 . S
N810 S809 1.613 . S
N810 C813 1.350 . S
N811 S809 1.610 . S
N811 C812 1.351 . S
C812 C806 1.428 . S
C812 N811 1.351 . S
C812 C813 1.434 . S
C813 C804 1.429 . S
C813 N810 1.350 . S
C813 C812 1.434 . S
C814 C815 1.369 . S
C814 C816 1.419 . S
C814 H818 0.930 . S
C815 C814 1.369 . S
C815 C824 1.429 . S
C816 C814 1.419 . S
C816 C817 1.363 . S
C816 H819 0.929 . S
C817 C816 1.363 . S
C817 C823 1.428 . S
H818 C814 0.930 . S
H819 C816 0.929 . S
S820 N821 1.613 . S
S820 N822 1.610 . S
N821 S820 1.613 . S
N821 C824 1.350 1_565 S
N822 S820 1.610 . S
N822 C823 1.351 1_565 S
C823 C817 1.428 . S
C823 N822 1.351 1_545 S
C823 C824 1.434 . S
C824 C815 1.429 . S
C824 N821 1.350 1_545 S
C824 C823 1.434 . S
C825 C826 1.369 . S
C825 C827 1.419 . S
C825 H829 0.930 . S
C826 C825 1.369 . S
C826 C835 1.429 . S
C827 C825 1.419 . S
C827 C828 1.363 . S
C827 H830 0.929 . S
C828 C827 1.363 . S
C828 C834 1.428 . S
H829 C825 0.930 . S
H830 C827 0.929 . S
S831 N832 1.613 . S
S831 N833 1.610 . S
N832 S831 1.613 . S
N832 C835 1.350 . S
N833 S831 1.610 . S
N833 C834 1.351 . S
C834 C828 1.428 . S
C834 N833 1.351 . S
C834 C835 1.434 . S
C835 C826 1.429 . S
C835 N832 1.350 . S
C835 C834 1.434 . S
C836 C837 1.361 1_665 S
C836 C838 1.419 1_554 S
C836 H840 0.930 . S
C837 C836 1.361 1_445 S
C837 C846 1.437 . S
C838 C836 1.419 1_556 S
C838 C839 1.355 1_655 S
C838 H841 0.929 . S
C839 C838 1.355 1_455 S
C839 C845 1.437 1_565 S
H840 C836 0.930 . S
H841 C838 0.929 . S
S842 N843 1.613 1_556 S
S842 N844 1.610 . S
N843 S842 1.613 1_554 S
N843 C846 1.350 . S
N844 S842 1.610 . S
N844 C845 1.351 . S
C845 C839 1.437 1_545 S
C845 N844 1.351 . S
C845 C846 1.434 1_556 S
C846 C837 1.437 . S
C846 N843 1.350 . S
C846 C845 1.434 1_554 S
C847 C848 1.365 1_655 S
C847 C849 1.419 1_556 S
C847 H851 0.930 . S
C848 C847 1.365 1_455 S
C848 C857 1.433 . S
C849 C847 1.419 1_554 S
C849 C850 1.360 1_655 S
C849 H852 0.929 . S
C850 C849 1.360 1_455 S
C850 C856 1.431 . S
H851 C847 0.930 . S
H852 C849 0.929 . S
S853 N854 1.613 . S
S853 N855 1.610 1_556 S
N854 S853 1.613 . S
N854 C857 1.350 . S
N855 S853 1.610 1_554 S
N855 C856 1.351 . S
C856 C850 1.431 . S
C856 N855 1.351 . S
C856 C857 1.434 1_554 S
C857 C848 1.433 . S
C857 N854 1.350 . S
C857 C856 1.434 1_556 S
C858 C859 1.369 . S
C858 C860 1.419 . S
C858 H862 0.930 . S
C859 C858 1.369 . S
C859 C868 1.429 . S
C860 C858 1.419 . S
C860 C861 1.363 . S
C860 H863 0.929 . S
C861 C860 1.363 . S
C861 C867 1.428 . S
H862 C858 0.930 . S
H863 C860 0.929 . S
S864 N865 1.613 . S
S864 N866 1.610 . S
N865 S864 1.613 . S
N865 C868 1.350 . S
N866 S864 1.610 . S
N866 C867 1.351 . S
C867 C861 1.428 . S
C867 N866 1.351 . S
C867 C868 1.434 . S
C868 C859 1.429 . S
C868 N865 1.350 . S
C868 C867 1.434 . S
C869 C870 1.369 1_545 S
C869 C871 1.419 . S
C869 H873 0.930 . S
C870 C869 1.369 1_565 S
C870 C879 1.429 . S
C871 C869 1.419 . S
C871 C872 1.363 . S
C871 H874 0.929 . S
C872 C871 1.363 . S
C872 C878 1.428 1_545 S
H873 C869 0.930 . S
H874 C871 0.929 . S
S875 N876 1.613 . S
S875 N877 1.610 . S
N876 S875 1.613 . S
N876 C879 1.350 . S
N877 S875 1.610 . S
N877 C878 1.351 . S
C878 C872 1.428 1_565 S
C878 N877 1.351 . S
C878 C879 1.434 . S
C879 C870 1.429 . S
C879 N876 1.350 . S
C879 C878 1.434 . S
C705 C137 1.536 . S
C707 C20 1.536 1_655 S
C716 C225 1.536 . S
C718 C293 1.536 . S
C727 C381 1.538 . S
C729 C489 1.537 . S
C738 C585 1.536 . S
C740 C636 1.536 . S
C749 C645 1.484 . S
C751 C29 1.484 . S
C760 C577 1.483 . S
C762 C145 1.483 . S
C771 C233 1.482 . S
C773 C497 1.482 . S
C782 C372 1.485 . S
C784 C284 1.485 . S
C793 C469 1.486 . S
C795 C205 1.487 . S
C804 C401 1.487 . S
C806 C313 1.488 . S
C815 C673 1.490 . S
C817 C57 1.490 . S
C826 C117 1.487 . S
C828 C548 1.488 . S
C837 C49 1.269 . S
C839 C196 1.277 . S
C848 C321 1.276 . S
C850 C108 1.271 . S
C859 C557 1.273 . S
C861 C409 1.274 . S
C870 C460 1.270 . S
C872 C665 1.276 . S
