# Generated by pormake.
# Topology qtz-e, (6)-cn, num edge types: 1
# Building blocks:
#     Node 0, Type 0, BuildingBlock: CUKXOW_clean_sbu_0, # of connection points: 6
#     Node 1, Type 0, BuildingBlock: CUKXOW_clean_sbu_0, # of connection points: 6
#     Node 2, Type 0, BuildingBlock: CUKXOW_clean_sbu_0, # of connection points: 6
#     Node 3, Type 0, BuildingBlock: CUKXOW_clean_sbu_0, # of connection points: 6
#     Node 4, Type 0, BuildingBlock: CUKXOW_clean_sbu_0, # of connection points: 6
#     Node 5, Type 0, BuildingBlock: CUKXOW_clean_sbu_0, # of connection points: 6
#     Edge 6, Type (0, 0), BuildingBlock: EZIPEK_clean_linker_0, # of connection points: 2
#     Edge 7, Type (0, 0), BuildingBlock: EZIPEK_clean_linker_0, # of connection points: 2
#     Edge 8, Type (0, 0), BuildingBlock: EZIPEK_clean_linker_0, # of connection points: 2
#     Edge 9, Type (0, 0), BuildingBlock: EZIPEK_clean_linker_0, # of connection points: 2
#     Edge 10, Type (0, 0), BuildingBlock: EZIPEK_clean_linker_0, # of connection points: 2
#     Edge 11, Type (0, 0), BuildingBlock: EZIPEK_clean_linker_0, # of connection points: 2
#     Edge 12, Type (0, 0), BuildingBlock: EZIPEK_clean_linker_0, # of connection points: 2
#     Edge 13, Type (0, 0), BuildingBlock: EZIPEK_clean_linker_0, # of connection points: 2
#     Edge 14, Type (0, 0), BuildingBlock: EZIPEK_clean_linker_0, # of connection points: 2
#     Edge 15, Type (0, 0), BuildingBlock: EZIPEK_clean_linker_0, # of connection points: 2
#     Edge 16, Type (0, 0), BuildingBlock: EZIPEK_clean_linker_0, # of connection points: 2
#     Edge 17, Type (0, 0), BuildingBlock: EZIPEK_clean_linker_0, # of connection points: 2
#     Edge 18, Type (0, 0), BuildingBlock: EZIPEK_clean_linker_0, # of connection points: 2
#     Edge 19, Type (0, 0), BuildingBlock: EZIPEK_clean_linker_0, # of connection points: 2
#     Edge 20, Type (0, 0), BuildingBlock: EZIPEK_clean_linker_0, # of connection points: 2
#     Edge 21, Type (0, 0), BuildingBlock: EZIPEK_clean_linker_0, # of connection points: 2
#     Edge 22, Type (0, 0), BuildingBlock: EZIPEK_clean_linker_0, # of connection points: 2
#     Edge 23, Type (0, 0), BuildingBlock: EZIPEK_clean_linker_0, # of connection points: 2
# Relax obj value: 0.108
# Max RMSD: 0.162
# Mean RMSD: 0.162
data_MOF--net-qtz-e--node1-CUKXOW_clean_sbu_0--edge1-EZIPEK_clean_linker_0
_symmetry_space_group_name_H-M    P1
_symmetry_Int_Tables_number       1
_symmetry_cell_setting            triclinic
loop_
_symmetry_equiv_pos_as_xyz
'x, y, z'
_cell_length_a     19.794985
_cell_length_b     19.521686
_cell_length_c     27.872279
_cell_angle_alpha  90.314412
_cell_angle_beta   89.377586
_cell_angle_gamma 120.11544
loop_
_atom_site_label
_atom_site_type_symbol
_atom_site_fract_x
_atom_site_fract_y
_atom_site_fract_z
_atom_type_partial_charge
Tb0 Tb 0.12365 0.34374 0.07349 0.0
C1 C 0.30081 0.39003 0.0863 0.0
Tb2 Tb 0.25034 0.46016 1.00574 0.0
O3 O 0.06966 0.25813 1.01377 0.0
O4 O 0.18788 0.33659 1.01425 0.0
O5 O 0.23324 0.36804 0.10851 0.0
C6 C 0.32599 0.51992 0.92308 0.0
O7 O 0.31281 0.41062 0.04049 0.0
C8 C 0.25032 0.52287 0.08988 0.0
C9 C 0.08807 0.45503 1.0084 0.0
O10 O 0.34939 0.55207 0.96507 0.0
O11 O 0.26052 0.45401 0.92784 0.0
O12 O 0.31137 0.54736 0.06202 0.0
O13 O 0.19157 0.47009 0.06763 0.0
O14 O 0.15176 0.47323 0.98288 0.0
O15 O 0.07091 0.41321 0.04876 0.0
C16 C 0.02551 0.26067 0.14655 0.0
O17 O 0.01221 0.29769 0.11289 0.0
O18 O 0.09418 0.2694 0.1387 0.0
C19 C 0.13367 0.28691 0.98883 0.0
Tb20 Tb 0.79986 0.1444 0.41492 0.0
C21 C 0.86853 0.32928 0.39516 0.0
Tb22 Tb 0.7363 0.1953 0.33095 0.0
O23 O 0.90575 0.16737 0.37458 0.0
O24 O 0.8025 0.13828 0.33959 0.0
O25 O 0.87398 0.27494 0.42114 0.0
C26 C 0.74497 0.26265 0.24637 0.0
O27 O 0.81591 0.30897 0.36129 0.0
C28 C 0.65877 0.17282 0.41284 0.0
C29 C 0.64718 0.02405 0.35439 0.0
O30 O 0.80206 0.26079 0.26735 0.0
O31 O 0.68246 0.2265 0.27324 0.0
O32 O 0.62828 0.16556 0.37041 0.0
O33 O 0.73127 0.19953 0.40732 0.0
O34 O 0.6813 0.07116 0.31758 0.0
O35 O 0.68264 0.04283 0.39671 0.0
C36 C 0.8114 0.08636 0.50114 0.0
O37 O 0.79592 0.04985 0.46003 0.0
O38 O 0.8203 0.15576 0.49274 0.0
C39 C 0.87385 0.16183 0.33314 0.0
Tb40 Tb 0.62378 0.81757 0.7537 0.0
C41 C 0.52298 0.9009 0.7381 0.0
Tb42 Tb 0.51915 0.77683 0.6655 0.0
O43 O 0.71029 0.93206 0.72263 0.0
O44 O 0.64115 0.83564 0.67841 0.0
O45 O 0.55819 0.87905 0.77034 0.0
C46 C 0.45358 0.78097 0.58384 0.0
O47 O 0.51804 0.88059 0.69248 0.0
C48 C 0.45163 0.68693 0.7427 0.0
C49 C 0.59531 0.67895 0.68054 0.0
O50 O 0.43447 0.71759 0.60846 0.0
O51 O 0.51011 0.84199 0.60476 0.0
O52 O 0.4264 0.66587 0.69929 0.0
O53 O 0.50372 0.75835 0.74045 0.0
O54 O 0.58089 0.71651 0.64666 0.0
O55 O 0.60167 0.70237 0.72608 0.0
C56 C 0.68329 0.79426 0.83457 0.0
O57 O 0.70761 0.79432 0.79117 0.0
O58 O 0.62791 0.81143 0.83248 0.0
C59 C 0.68982 0.9089 0.6785 0.0
Tb60 Tb 0.79915 0.6278 0.08319 0.0
C61 C 0.61178 0.51831 0.08616 0.0
Tb62 Tb 0.71476 0.50089 1.00667 0.0
O63 O 0.82922 0.72281 1.03061 0.0
O64 O 0.72942 0.61343 1.02265 0.0
O65 O 0.67584 0.57613 0.10701 0.0
C66 C 0.65263 0.42846 0.92417 0.0
O67 O 0.61308 0.48608 0.0445 0.0
C68 C 0.73573 0.44728 0.08867 0.0
C69 C 0.89498 0.59032 1.00587 0.0
O70 O 0.68769 0.40661 0.95433 0.0
O71 O 0.65202 0.49047 0.9405 0.0
O72 O 0.68258 0.40423 0.05755 0.0
O73 O 0.78174 0.51323 0.06922 0.0
O74 O 0.83286 0.56153 0.97849 0.0
O75 O 0.8907 0.60902 0.05137 0.0
C76 C 0.8744 0.7082 0.16294 0.0
O77 O 0.88643 0.73652 0.11971 0.0
O78 O 0.81902 0.63466 0.16103 0.0
C79 C 0.77172 0.67898 1.00227 0.0
Tb80 Tb 0.16875 0.84685 0.40609 0.0
C81 C 0.07772 0.66238 0.40262 0.0
Tb82 Tb 0.22121 0.76768 0.33376 0.0
O83 O 0.0642 0.82226 0.36551 0.0
O84 O 0.15992 0.83144 0.32954 0.0
O85 O 0.09706 0.7243 0.43095 0.0
C86 C 0.24612 0.69961 0.25735 0.0
O87 O 0.11303 0.6683 0.36102 0.0
C88 C 0.29645 0.79941 0.41579 0.0
C89 C 0.3304 0.9421 0.3493 0.0
O90 O 0.24031 0.6763 0.30144 0.0
O91 O 0.237 0.76063 0.25612 0.0
O92 O 0.32607 0.79748 0.37435 0.0
O93 O 0.22554 0.77857 0.41003 0.0
O94 O 0.29673 0.88941 0.31524 0.0
O95 O 0.29146 0.93483 0.38966 0.0
C96 C 0.1676 0.93561 0.48078 0.0
O97 O 0.20694 0.96208 0.44105 0.0
O98 O 0.12583 0.85918 0.47705 0.0
C99 C 0.0883 0.8095 0.32479 0.0
Tb100 Tb 0.31205 0.19079 0.73768 0.0
C101 C 0.35956 0.05716 0.74199 0.0
Tb102 Tb 0.43625 0.19217 0.66999 0.0
O103 O 0.23249 0.16656 0.67669 0.0
O104 O 0.31333 0.12976 0.67515 0.0
O105 O 0.33468 0.09875 0.76685 0.0
C106 C 0.50458 0.18964 0.58773 0.0
O107 O 0.38353 0.07361 0.69692 0.0
C108 C 0.48594 0.24225 0.75805 0.0
C109 C 0.42455 0.34733 0.67835 0.0
O110 O 0.53013 0.18833 0.63031 0.0
O111 O 0.43988 0.19107 0.59142 0.0
O112 O 0.51675 0.21247 0.72908 0.0
O113 O 0.43585 0.2496 0.73458 0.0
O114 O 0.45265 0.30839 0.65427 0.0
O115 O 0.36967 0.31381 0.71222 0.0
C116 C 0.23268 0.20198 0.81368 0.0
O117 O 0.29144 0.26023 0.79208 0.0
O118 O 0.2173 0.13658 0.79204 0.0
C119 C 0.26486 0.13614 0.64984 0.0
C120 C 0.19452 0.57328 0.21187 0.0
C121 C 0.24775 0.65534 0.21466 0.0
C122 C 0.29254 0.65364 0.13259 0.0
C123 C 0.24626 0.56922 0.1319 0.0
N124 N 0.16195 0.44902 0.17574 0.0
N125 N 0.35824 0.77197 0.18154 0.0
C126 C 0.1997 0.52931 0.17289 0.0
C127 C 0.29989 0.69515 0.17613 0.0
N128 N 0.13575 0.53732 0.24511 0.0
N129 N 0.32604 0.69516 0.0914 0.0
H130 H 0.36624 0.80397 0.21314 0.0
H131 H 0.4033 0.80121 0.15657 0.0
H132 H 0.31836 0.66909 0.05777 0.0
H133 H 0.35347 0.75666 0.08948 0.0
H134 H 0.09251 0.4785 0.24283 0.0
H135 H 0.12471 0.5671 0.2724 0.0
H136 H 0.14088 0.41806 0.20787 0.0
H137 H 0.15643 0.41394 0.14666 0.0
C138 C 0.56133 0.24298 0.50562 0.0
C139 C 0.54164 0.18541 0.5422 0.0
C140 C 0.60975 0.12957 0.49802 0.0
C141 C 0.62212 0.18049 0.45847 0.0
N142 N 0.60778 0.28597 0.42427 0.0
N143 N 0.52997 0.06197 0.5673 0.0
C144 C 0.59662 0.23684 0.46201 0.0
C145 C 0.5612 0.12552 0.53681 0.0
N146 N 0.55061 0.30609 0.51362 0.0
N147 N 0.64542 0.08568 0.49938 0.0
H148 H 0.49132 0.05479 0.59514 0.0
H149 H 0.53511 0.01195 0.56162 0.0
H150 H 0.68215 0.08811 0.47221 0.0
H151 H 0.6449 0.05377 0.52937 0.0
H152 H 0.57152 0.35469 0.4908 0.0
H153 H 0.52625 0.31339 0.54522 0.0
H154 H 0.58098 0.32005 0.42187 0.0
H155 H 0.64202 0.29108 0.39435 0.0
C156 C 0.36311 0.63583 0.86982 0.0
C157 C 0.35672 0.56112 0.87674 0.0
C158 C 0.39664 0.56153 0.79288 0.0
C159 C 0.41413 0.64143 0.78793 0.0
N160 N 0.41187 0.75398 0.82292 0.0
N161 N 0.37259 0.45407 0.84687 0.0
C162 C 0.39773 0.67853 0.82702 0.0
C163 C 0.37419 0.5239 0.83869 0.0
N164 N 0.32979 0.66334 0.90228 0.0
N165 N 0.4002 0.52074 0.75393 0.0
H166 H 0.35682 0.42505 0.87991 0.0
H167 H 0.39279 0.42801 0.82227 0.0
H168 H 0.42103 0.54632 0.72044 0.0
H169 H 0.37661 0.45957 0.75395 0.0
H170 H 0.32455 0.71313 0.89655 0.0
H171 H 0.29924 0.63217 0.93281 0.0
H172 H 0.41666 0.78955 0.8522 0.0
H173 H 0.41764 0.78023 0.79001 0.0
C174 C 0.78001 0.30898 0.16032 0.0
C175 C 0.7556 0.31771 0.20691 0.0
C176 C 0.73144 0.4209 0.178 0.0
C177 C 0.75398 0.41213 0.13072 0.0
N178 N 0.81831 0.36231 0.07943 0.0
N179 N 0.73773 0.40167 0.26303 0.0
C180 C 0.78453 0.3608 0.12273 0.0
C181 C 0.74075 0.37992 0.21664 0.0
N182 N 0.79598 0.24955 0.15168 0.0
N183 N 0.69683 0.46493 0.1861 0.0
H184 H 0.74585 0.37408 0.29256 0.0
H185 H 0.73602 0.45266 0.27206 0.0
H186 H 0.69042 0.49686 0.1592 0.0
H187 H 0.66938 0.46458 0.21829 0.0
H188 H 0.80653 0.23466 0.11762 0.0
H189 H 0.79463 0.212 0.17864 0.0
H190 H 0.84796 0.33183 0.07242 0.0
H191 H 0.82268 0.39995 0.05161 0.0
C192 C 0.37382 0.83008 0.54365 0.0
C193 C 0.41092 0.78403 0.54176 0.0
C194 C 0.35473 0.73338 0.46295 0.0
C195 C 0.32818 0.78867 0.46137 0.0
N196 N 0.31201 0.8901 0.50027 0.0
N197 N 0.44534 0.69909 0.49766 0.0
C198 C 0.33708 0.83674 0.50192 0.0
C199 C 0.4036 0.73742 0.50094 0.0
N200 N 0.37048 0.86442 0.58588 0.0
N201 N 0.32965 0.67411 0.42964 0.0
H202 H 0.4824 0.70106 0.52464 0.0
H203 H 0.44873 0.67139 0.46641 0.0
H204 H 0.28885 0.66539 0.40345 0.0
H205 H 0.34157 0.62794 0.43162 0.0
H206 H 0.33712 0.89154 0.59087 0.0
H207 H 0.39568 0.86017 0.61752 0.0
H208 H 0.32744 0.93533 0.52525 0.0
H209 H 0.27891 0.89146 0.47219 0.0
C210 C 0.52757 0.3401 0.88239 0.0
C211 C 0.61014 0.38327 0.88133 0.0
C212 C 0.60976 0.34689 0.79708 0.0
C213 C 0.52797 0.29322 0.80021 0.0
N214 N 0.40911 0.23739 0.84751 0.0
N215 N 0.73142 0.42348 0.83944 0.0
C216 C 0.48685 0.2901 0.84319 0.0
C217 C 0.65172 0.38486 0.8393 0.0
N218 N 0.48768 0.34707 0.92078 0.0
N219 N 0.64643 0.36709 0.75331 0.0
H220 H 0.76408 0.45571 0.86887 0.0
H221 H 0.76457 0.4189 0.81164 0.0
H222 H 0.61671 0.34745 0.72099 0.0
H223 H 0.70439 0.41152 0.74865 0.0
H224 H 0.42784 0.32623 0.92068 0.0
H225 H 0.51482 0.37856 0.9518 0.0
H226 H 0.37845 0.22371 0.8799 0.0
H227 H 0.37614 0.20363 0.81907 0.0
C228 C 0.41632 0.48547 0.1316 0.0
C229 C 0.37088 0.40758 0.1137 0.0
C230 C 0.48795 0.39764 0.10934 0.0
C231 C 0.53395 0.48176 0.11014 0.0
N232 N 0.5408 0.607 0.12622 0.0
N233 N 0.3614 0.28469 0.09074 0.0
C234 C 0.49839 0.52639 0.12381 0.0
C235 C 0.40596 0.36146 0.10518 0.0
N236 N 0.38051 0.51969 0.15542 0.0
N237 N 0.52299 0.35309 0.11256 0.0
H238 H 0.30054 0.2569 0.08943 0.0
H239 H 0.38501 0.25051 0.07854 0.0
H240 H 0.58229 0.37913 0.11959 0.0
H241 H 0.49212 0.29148 0.11465 0.0
H242 H 0.41077 0.57535 0.17145 0.0
H243 H 0.32116 0.48694 0.16393 0.0
H244 H 0.51507 0.64192 0.13078 0.0
H245 H 0.60109 0.6391 0.12123 0.0
C246 C 0.01295 0.53385 0.4492 0.0
C247 C 0.01043 0.58358 0.41335 0.0
C248 C 0.92552 0.46998 0.36562 0.0
C249 C 0.91975 0.41697 0.40297 0.0
N250 N 0.94067 0.40611 0.48795 0.0
N251 N 0.93832 0.59692 0.34904 0.0
C252 C 0.95819 0.45076 0.44733 0.0
C253 C 0.95586 0.5503 0.37642 0.0
N254 N 0.0683 0.565 0.48399 0.0
N255 N 0.91005 0.44707 0.31872 0.0
H256 H 0.96076 0.65685 0.35675 0.0
H257 H 0.89551 0.57378 0.32264 0.0
H258 H 0.9004 0.39296 0.30594 0.0
H259 H 0.91917 0.48675 0.29109 0.0
H260 H 0.07772 0.52988 0.50796 0.0
H261 H 0.10727 0.62571 0.48686 0.0
H262 H 0.96437 0.43055 0.52121 0.0
H263 H 0.89531 0.34774 0.49016 0.0
C264 C 0.34451 0.9256 0.74373 0.0
C265 C 0.37647 0.00011 0.76544 0.0
C266 C 0.49768 -0.00014 0.78201 0.0
C267 C 0.46984 0.93 0.75398 0.0
N268 N 0.35602 0.81723 0.71649 0.0
N269 N 0.46595 0.09081 0.82288 0.0
C270 C 0.39026 0.88954 0.73818 0.0
C271 C 0.44726 0.03106 0.79088 0.0
N272 N 0.27044 0.89055 0.7262 0.0
N273 N 0.57349 0.03963 0.79685 0.0
H274 H 0.42708 0.11067 0.83076 0.0
H275 H 0.5145 0.11385 0.84505 0.0
H276 H 0.61253 0.01951 0.79029 0.0
H277 H 0.59935 0.09533 0.81282 0.0
H278 H 0.24455 0.83649 0.70802 0.0
H279 H 0.23505 0.91552 0.73165 0.0
H280 H 0.3824 0.78319 0.71082 0.0
H281 H 0.3824 0.78319 0.71082 0.0
C282 C 0.58382 0.55426 0.70953 0.0
C283 C 0.57987 0.59742 0.67066 0.0
C284 C 0.48173 0.47465 0.63256 0.0
C285 C 0.47331 0.43444 0.67649 0.0
N286 N 0.51373 0.43946 0.75923 0.0
N287 N 0.55811 0.59518 0.58599 0.0
C288 C 0.52444 0.47471 0.71547 0.0
C289 C 0.53871 0.55656 0.62902 0.0
N290 N 0.6453 0.58976 0.74024 0.0
N291 N 0.43298 0.43535 0.5953 0.0
H292 H 0.6062 0.65215 0.5824 0.0
H293 H 0.53371 0.56849 0.55339 0.0
H294 H 0.39012 0.37566 0.59727 0.0
H295 H 0.43099 0.46264 0.56382 0.0
H296 H 0.65552 0.55943 0.76724 0.0
H297 H 0.69097 0.64756 0.73443 0.0
H298 H 0.54489 0.46957 0.78962 0.0
H299 H 0.46785 0.3834 0.76719 0.0
C300 C 0.07779 0.57749 1.01827 0.0
C301 C 0.04769 0.50001 0.99886 0.0
C302 C 0.94509 0.51318 0.9603 0.0
C303 C 0.96069 0.5775 0.9911 0.0
N304 N 0.0527 0.68308 0.04118 0.0
N305 N 0.94999 0.39252 0.95184 0.0
C306 C 0.03102 0.6139 1.01734 0.0
C307 C -0.01934 0.46737 0.96977 0.0
N308 N 0.15145 0.61673 0.03644 0.0
N309 N 0.9005 0.49887 0.92052 0.0
H310 H 0.97453 0.35712 0.95833 0.0
H311 H 0.89672 0.36383 0.93404 0.0
H312 H 0.88448 0.53925 0.90866 0.0
H313 H 0.891 0.45492 0.89563 0.0
H314 H 0.1791 0.67534 0.04793 0.0
H315 H 0.18803 0.59295 1.03542 0.0
H316 H 0.097 0.70733 0.06649 0.0
H317 H 0.02477 0.71569 0.03568 0.0
C318 C 0.4564 0.98211 0.30673 0.0
C319 C 0.41766 0.98148 0.35002 0.0
C320 C 0.51801 0.97326 0.39581 0.0
C321 C 0.55976 0.97948 0.35309 0.0
N322 N 0.55303 0.95794 0.26807 0.0
N323 N 0.43261 0.01174 0.43447 0.0
C324 C 0.52378 0.97397 0.30843 0.0
C325 C 0.45466 0.98759 0.39433 0.0
N326 N 0.43018 -0.0059 0.26425 0.0
N327 N 0.53646 0.94999 0.43727 0.0
H328 H 0.39505 0.03463 0.43301 0.0
H329 H 0.45922 0.01865 0.46753 0.0
H330 H 0.57782 0.93176 0.43789 0.0
H331 H 0.50409 0.93939 0.46889 0.0
H332 H 0.45889 0.00133 0.23154 0.0
H333 H 0.38387 0.0053 0.26299 0.0
H334 H 0.52635 0.94671 0.2347 0.0
H335 H 0.59981 0.94748 0.26966 0.0
C336 C 0.16105 0.26129 0.85592 0.0
C337 C 0.1937 0.21096 0.85748 0.0
C338 C 0.1788 0.20318 0.94543 0.0
C339 C 0.14586 0.25311 0.94369 0.0
N340 N 0.09068 0.31646 0.89759 0.0
N341 N 0.21935 0.12116 0.9024 0.0
C342 C 0.132 0.27765 0.89891 0.0
C343 C 0.1975 0.17738 0.90181 0.0
N344 N 0.15921 0.29477 0.81334 0.0
N345 N 0.19467 0.1826 0.98894 0.0
H346 H 0.23644 0.10279 0.87177 0.0
H347 H 0.21525 0.08828 0.93268 0.0
H348 H 0.17778 0.19645 1.02147 0.0
H349 H 0.22814 0.15559 0.9931 0.0
H350 H 0.14656 0.34031 0.81061 0.0
H351 H 0.17372 0.27933 0.78053 0.0
H352 H 0.07161 0.32947 0.86611 0.0
H353 H 0.07001 0.33032 0.92853 0.0
C354 C 0.95538 0.26446 0.27238 0.0
C355 C 0.91542 0.18418 0.28595 0.0
C356 C 0.95017 0.15118 0.2075 0.0
C357 C -0.02022 0.23075 0.19219 0.0
N358 N -0.01994 0.35341 0.20696 0.0
N359 N 0.86746 0.04784 0.26456 0.0
C360 C 0.9729 0.28445 0.22344 0.0
C361 C 0.91024 0.1262 0.25283 0.0
N362 N -0.02009 0.32243 0.30623 0.0
N363 N 0.9597 0.09965 0.17885 0.0
H364 H 0.84035 0.02847 0.29801 0.0
H365 H 0.85519 0.00235 0.24032 0.0
H366 H -0.01533 0.11497 0.14461 0.0
H367 H 0.9466 0.04343 0.19001 0.0
H368 H 0.01495 0.3822 0.29773 0.0
H369 H 0.97331 0.31009 0.34283 0.0
H370 H 0.96468 0.38765 0.22832 0.0
H371 H -0.00719 0.37214 0.17149 0.0
C372 C 0.73965 0.03424 0.62989 0.0
C373 C 0.72969 0.9574 0.6348 0.0
C374 C 0.79031 0.97137 0.55487 0.0
C375 C 0.79891 0.04798 0.54993 0.0
N376 N 0.81658 0.16319 0.59367 0.0
N377 N 0.76685 0.86306 0.60796 0.0
C378 C 0.78431 0.08296 0.59072 0.0
C379 C 0.76077 0.92854 0.59887 0.0
N380 N 0.70429 0.06028 0.66157 0.0
N381 N 0.81268 0.9403 0.51816 0.0
H382 H 0.75072 0.83312 0.64064 0.0
H383 H 0.79526 0.8429 0.58527 0.0
H384 H 0.84857 0.97468 0.49002 0.0
H385 H 0.79612 0.88064 0.51583 0.0
H386 H 0.70255 0.1122 0.65625 0.0
H387 H 0.67033 0.02663 0.69054 0.0
H388 H 0.81137 0.19155 0.62409 0.0
H389 H 0.85891 0.20194 0.56953 0.0
C390 C 0.64796 0.71074 0.90989 0.0
C391 C 0.7062 0.76614 0.87804 0.0
C392 C 0.80604 0.75597 0.92441 0.0
C393 C 0.749 0.70914 0.9596 0.0
N394 N 0.61838 0.66129 0.9911 0.0
N395 N 0.84322 0.85276 0.86071 0.0
C396 C 0.67065 0.69186 0.95388 0.0
C397 C 0.78604 0.79191 0.88689 0.0
N398 N 0.57097 0.67263 0.89739 0.0
N399 N 0.87859 0.76379 0.9255 0.0
H400 H 0.83131 0.88231 0.83401 0.0
H401 H 0.90234 0.87923 0.86885 0.0
H402 H 0.89516 0.7369 0.95141 0.0
H403 H 0.91961 0.79027 0.89795 0.0
H404 H 0.52753 0.62623 0.91749 0.0
H405 H 0.55147 0.68024 0.86437 0.0
H406 H 0.56262 0.65424 0.98974 0.0
H407 H 0.63352 0.65263 1.02526 0.0
C408 C 0.00257 0.83326 0.26772 0.0
C409 C 0.04318 0.79213 0.27839 0.0
C410 C -0.01623 0.70842 0.20691 0.0
C411 C 0.93441 0.74074 0.20135 0.0
N412 N 0.89398 0.83258 0.22689 0.0
N413 N 0.06525 0.68441 0.25872 0.0
C414 C 0.94328 0.80318 0.23174 0.0
C415 C 0.03238 0.72873 0.24775 0.0
N416 N 0.02317 0.90312 0.29049 0.0
N417 N -0.0137 0.65975 0.17225 0.0
H418 H 0.10645 0.70157 0.28503 0.0
H419 H 0.04895 0.62963 0.24322 0.0
H420 H 0.95179 0.64297 0.14166 0.0
H421 H 0.02808 0.64217 0.17138 0.0
H422 H 0.00093 0.93965 0.28158 0.0
H423 H 0.06904 0.92899 0.3148 0.0
H424 H 0.89136 0.87204 0.25108 0.0
H425 H 0.85181 0.81324 0.20015 0.0
C426 C 0.19511 0.00101 0.61301 0.0
C427 C 0.22659 0.08362 0.60783 0.0
C428 C 0.19743 0.06375 0.52175 0.0
C429 C 0.18059 0.98387 0.52549 0.0
N430 N 0.17769 0.88141 0.57654 0.0
N431 N 0.26164 0.19563 0.55674 0.0
C432 C 0.18229 0.95329 0.57164 0.0
C433 C 0.22838 0.11559 0.56205 0.0
N434 N 0.17609 0.96758 0.65762 0.0
N435 N 0.18119 0.08944 0.48029 0.0
H436 H 0.28219 0.23462 0.58575 0.0
H437 H 0.27324 0.22343 0.52342 0.0
H438 H 0.15456 0.05228 0.45105 0.0
H439 H 0.18594 0.1448 0.47686 0.0
H440 H 0.14522 0.9065 0.66306 0.0
H441 H 0.18301 0.00047 0.68868 0.0
H442 H 0.18795 0.86199 0.60896 0.0
H443 H 0.17269 0.84454 0.54818 0.0
loop_
_geom_bond_atom_site_label_1
_geom_bond_atom_site_label_2
_geom_bond_distance
_geom_bond_site_symmetry_2
_ccdc_geom_bond_type
Tb0 O3 2.453 1_554 S
Tb0 O4 2.596 1_554 S
Tb0 O5 2.374 . S
Tb0 O13 2.343 . S
Tb0 O15 2.353 1_554 S
Tb0 O17 2.427 . S
Tb0 O18 2.513 . S
C1 O5 1.251 . S
C1 O7 1.263 . S
Tb2 O4 2.343 . S
Tb2 O7 2.353 1_556 S
Tb2 O10 2.427 . S
Tb2 O11 2.513 . S
Tb2 O12 2.453 1_556 S
Tb2 O13 2.596 1_556 S
Tb2 O14 2.374 . S
O3 Tb0 2.453 1_556 S
O3 C19 1.245 . S
O4 Tb0 2.596 1_556 S
O4 Tb2 2.343 . S
O4 C19 1.259 . S
O5 Tb0 2.374 . S
O5 C1 1.251 . S
C6 O10 1.275 . S
C6 O11 1.246 . S
O7 C1 1.263 . S
O7 Tb2 2.353 1_554 S
C8 O12 1.245 . S
C8 O13 1.259 . S
C9 O14 1.250 . S
C9 O15 1.263 . S
O10 Tb2 2.427 . S
O10 C6 1.275 . S
O11 Tb2 2.513 . S
O11 C6 1.246 . S
O12 Tb2 2.453 1_554 S
O12 C8 1.245 . S
O13 Tb0 2.343 . S
O13 Tb2 2.596 1_554 S
O13 C8 1.259 . S
O14 Tb2 2.374 . S
O14 C9 1.250 . S
O15 Tb0 2.353 1_556 S
O15 C9 1.263 . S
C16 O17 1.275 . S
C16 O18 1.246 . S
O17 Tb0 2.427 . S
O17 C16 1.275 . S
O18 Tb0 2.513 . S
O18 C16 1.246 . S
C19 O3 1.245 . S
C19 O4 1.259 . S
Tb20 O23 2.453 . S
Tb20 O24 2.596 . S
Tb20 O25 2.374 . S
Tb20 O33 2.343 . S
Tb20 O35 2.353 . S
Tb20 O37 2.427 . S
Tb20 O38 2.513 . S
C21 O25 1.251 . S
C21 O27 1.263 . S
Tb22 O24 2.343 . S
Tb22 O27 2.353 . S
Tb22 O30 2.427 . S
Tb22 O31 2.513 . S
Tb22 O32 2.453 . S
Tb22 O33 2.596 . S
Tb22 O34 2.374 . S
O23 Tb20 2.453 . S
O23 C39 1.245 . S
O24 Tb20 2.596 . S
O24 Tb22 2.343 . S
O24 C39 1.259 . S
O25 Tb20 2.374 . S
O25 C21 1.251 . S
C26 O30 1.275 . S
C26 O31 1.246 . S
O27 C21 1.263 . S
O27 Tb22 2.353 . S
C28 O32 1.245 . S
C28 O33 1.259 . S
C29 O34 1.250 . S
C29 O35 1.263 . S
O30 Tb22 2.427 . S
O30 C26 1.275 . S
O31 Tb22 2.513 . S
O31 C26 1.246 . S
O32 Tb22 2.453 . S
O32 C28 1.245 . S
O33 Tb20 2.343 . S
O33 Tb22 2.596 . S
O33 C28 1.259 . S
O34 Tb22 2.374 . S
O34 C29 1.250 . S
O35 Tb20 2.353 . S
O35 C29 1.263 . S
C36 O37 1.275 . S
C36 O38 1.246 . S
O37 Tb20 2.427 . S
O37 C36 1.275 . S
O38 Tb20 2.513 . S
O38 C36 1.246 . S
C39 O23 1.245 . S
C39 O24 1.259 . S
Tb40 O43 2.453 . S
Tb40 O44 2.596 . S
Tb40 O45 2.374 . S
Tb40 O53 2.343 . S
Tb40 O55 2.353 . S
Tb40 O57 2.427 . S
Tb40 O58 2.513 . S
C41 O45 1.251 . S
C41 O47 1.263 . S
Tb42 O44 2.343 . S
Tb42 O47 2.353 . S
Tb42 O50 2.427 . S
Tb42 O51 2.513 . S
Tb42 O52 2.453 . S
Tb42 O53 2.596 . S
Tb42 O54 2.374 . S
O43 Tb40 2.453 . S
O43 C59 1.245 . S
O44 Tb40 2.596 . S
O44 Tb42 2.343 . S
O44 C59 1.259 . S
O45 Tb40 2.374 . S
O45 C41 1.251 . S
C46 O50 1.275 . S
C46 O51 1.246 . S
O47 C41 1.263 . S
O47 Tb42 2.353 . S
C48 O52 1.245 . S
C48 O53 1.259 . S
C49 O54 1.250 . S
C49 O55 1.263 . S
O50 Tb42 2.427 . S
O50 C46 1.275 . S
O51 Tb42 2.513 . S
O51 C46 1.246 . S
O52 Tb42 2.453 . S
O52 C48 1.245 . S
O53 Tb40 2.343 . S
O53 Tb42 2.596 . S
O53 C48 1.259 . S
O54 Tb42 2.374 . S
O54 C49 1.250 . S
O55 Tb40 2.353 . S
O55 C49 1.263 . S
C56 O57 1.275 . S
C56 O58 1.246 . S
O57 Tb40 2.427 . S
O57 C56 1.275 . S
O58 Tb40 2.513 . S
O58 C56 1.246 . S
C59 O43 1.245 . S
C59 O44 1.259 . S
Tb60 O63 2.453 1_554 S
Tb60 O64 2.596 1_554 S
Tb60 O65 2.374 . S
Tb60 O73 2.343 . S
Tb60 O75 2.353 1_554 S
Tb60 O77 2.427 . S
Tb60 O78 2.513 . S
C61 O65 1.251 . S
C61 O67 1.263 . S
Tb62 O64 2.343 . S
Tb62 O67 2.353 1_556 S
Tb62 O70 2.427 . S
Tb62 O71 2.513 . S
Tb62 O72 2.453 1_556 S
Tb62 O73 2.596 1_556 S
Tb62 O74 2.374 . S
O63 Tb60 2.453 1_556 S
O63 C79 1.245 . S
O64 Tb60 2.596 1_556 S
O64 Tb62 2.343 . S
O64 C79 1.259 . S
O65 Tb60 2.374 . S
O65 C61 1.251 . S
C66 O70 1.275 . S
C66 O71 1.246 . S
O67 C61 1.263 . S
O67 Tb62 2.353 1_554 S
C68 O72 1.245 . S
C68 O73 1.259 . S
C69 O74 1.250 . S
C69 O75 1.263 . S
O70 Tb62 2.427 . S
O70 C66 1.275 . S
O71 Tb62 2.513 . S
O71 C66 1.246 . S
O72 Tb62 2.453 1_554 S
O72 C68 1.245 . S
O73 Tb60 2.343 . S
O73 Tb62 2.596 1_554 S
O73 C68 1.259 . S
O74 Tb62 2.374 . S
O74 C69 1.250 . S
O75 Tb60 2.353 1_556 S
O75 C69 1.263 . S
C76 O77 1.275 . S
C76 O78 1.246 . S
O77 Tb60 2.427 . S
O77 C76 1.275 . S
O78 Tb60 2.513 . S
O78 C76 1.246 . S
C79 O63 1.245 . S
C79 O64 1.259 . S
Tb80 O83 2.453 . S
Tb80 O84 2.596 . S
Tb80 O85 2.374 . S
Tb80 O93 2.343 . S
Tb80 O95 2.353 . S
Tb80 O97 2.427 . S
Tb80 O98 2.513 . S
C81 O85 1.251 . S
C81 O87 1.263 . S
Tb82 O84 2.343 . S
Tb82 O87 2.353 . S
Tb82 O90 2.427 . S
Tb82 O91 2.513 . S
Tb82 O92 2.453 . S
Tb82 O93 2.596 . S
Tb82 O94 2.374 . S
O83 Tb80 2.453 . S
O83 C99 1.245 . S
O84 Tb80 2.596 . S
O84 Tb82 2.343 . S
O84 C99 1.259 . S
O85 Tb80 2.374 . S
O85 C81 1.251 . S
C86 O90 1.275 . S
C86 O91 1.246 . S
O87 C81 1.263 . S
O87 Tb82 2.353 . S
C88 O92 1.245 . S
C88 O93 1.259 . S
C89 O94 1.250 . S
C89 O95 1.263 . S
O90 Tb82 2.427 . S
O90 C86 1.275 . S
O91 Tb82 2.513 . S
O91 C86 1.246 . S
O92 Tb82 2.453 . S
O92 C88 1.245 . S
O93 Tb80 2.343 . S
O93 Tb82 2.596 . S
O93 C88 1.259 . S
O94 Tb82 2.374 . S
O94 C89 1.250 . S
O95 Tb80 2.353 . S
O95 C89 1.263 . S
C96 O97 1.275 . S
C96 O98 1.246 . S
O97 Tb80 2.427 . S
O97 C96 1.275 . S
O98 Tb80 2.513 . S
O98 C96 1.246 . S
C99 O83 1.245 . S
C99 O84 1.259 . S
Tb100 O103 2.453 . S
Tb100 O104 2.596 . S
Tb100 O105 2.374 . S
Tb100 O113 2.343 . S
Tb100 O115 2.353 . S
Tb100 O117 2.427 . S
Tb100 O118 2.513 . S
C101 O105 1.251 . S
C101 O107 1.263 . S
Tb102 O104 2.343 . S
Tb102 O107 2.353 . S
Tb102 O110 2.427 . S
Tb102 O111 2.513 . S
Tb102 O112 2.453 . S
Tb102 O113 2.596 . S
Tb102 O114 2.374 . S
O103 Tb100 2.453 . S
O103 C119 1.245 . S
O104 Tb100 2.596 . S
O104 Tb102 2.343 . S
O104 C119 1.259 . S
O105 Tb100 2.374 . S
O105 C101 1.251 . S
C106 O110 1.275 . S
C106 O111 1.246 . S
O107 C101 1.263 . S
O107 Tb102 2.353 . S
C108 O112 1.245 . S
C108 O113 1.259 . S
C109 O114 1.250 . S
C109 O115 1.263 . S
O110 Tb102 2.427 . S
O110 C106 1.275 . S
O111 Tb102 2.513 . S
O111 C106 1.246 . S
O112 Tb102 2.453 . S
O112 C108 1.245 . S
O113 Tb100 2.343 . S
O113 Tb102 2.596 . S
O113 C108 1.259 . S
O114 Tb102 2.374 . S
O114 C109 1.250 . S
O115 Tb100 2.353 . S
O115 C109 1.263 . S
C116 O117 1.275 . S
C116 O118 1.246 . S
O117 Tb100 2.427 . S
O117 C116 1.275 . S
O118 Tb100 2.513 . S
O118 C116 1.246 . S
C119 O103 1.245 . S
C119 O104 1.259 . S
C120 C121 1.363 . S
C120 C126 1.379 . S
C120 N128 1.356 . S
C121 C120 1.363 . S
C121 C127 1.363 . S
C122 C123 1.363 . S
C122 C127 1.379 . S
C122 N129 1.356 . S
C123 C122 1.363 . S
C123 C126 1.363 . S
N124 C126 1.356 . S
N124 H136 0.984 . S
N124 H137 0.985 . S
N125 C127 1.356 . S
N125 H130 0.984 . S
N125 H131 0.985 . S
C126 C120 1.379 . S
C126 C123 1.363 . S
C126 N124 1.356 . S
C127 C121 1.363 . S
C127 C122 1.379 . S
C127 N125 1.356 . S
N128 C120 1.356 . S
N128 H134 0.984 . S
N128 H135 0.984 . S
N129 C122 1.356 . S
N129 H132 0.984 . S
N129 H133 0.985 . S
H130 N125 0.984 . S
H131 N125 0.985 . S
H132 N129 0.984 . S
H133 N129 0.985 . S
H134 N128 0.984 . S
H135 N128 0.984 . S
H136 N124 0.984 . S
H137 N124 0.985 . S
C138 C139 1.363 . S
C138 C144 1.379 . S
C138 N146 1.356 . S
C139 C138 1.363 . S
C139 C145 1.363 . S
C140 C141 1.363 . S
C140 C145 1.379 . S
C140 N147 1.356 . S
C141 C140 1.363 . S
C141 C144 1.363 . S
N142 C144 1.356 . S
N142 H154 0.984 . S
N142 H155 0.985 . S
N143 C145 1.356 . S
N143 H148 0.984 . S
N143 H149 0.985 . S
C144 C138 1.379 . S
C144 C141 1.363 . S
C144 N142 1.356 . S
C145 C139 1.363 . S
C145 C140 1.379 . S
C145 N143 1.356 . S
N146 C138 1.356 . S
N146 H152 0.984 . S
N146 H153 0.984 . S
N147 C140 1.356 . S
N147 H150 0.984 . S
N147 H151 0.985 . S
H148 N143 0.984 . S
H149 N143 0.985 . S
H150 N147 0.984 . S
H151 N147 0.985 . S
H152 N146 0.984 . S
H153 N146 0.984 . S
H154 N142 0.984 . S
H155 N142 0.985 . S
C156 C157 1.363 . S
C156 C162 1.379 . S
C156 N164 1.356 . S
C157 C156 1.363 . S
C157 C163 1.363 . S
C158 C159 1.363 . S
C158 C163 1.379 . S
C158 N165 1.356 . S
C159 C158 1.363 . S
C159 C162 1.363 . S
N160 C162 1.356 . S
N160 H172 0.984 . S
N160 H173 0.985 . S
N161 C163 1.356 . S
N161 H166 0.984 . S
N161 H167 0.985 . S
C162 C156 1.379 . S
C162 C159 1.363 . S
C162 N160 1.356 . S
C163 C157 1.363 . S
C163 C158 1.379 . S
C163 N161 1.356 . S
N164 C156 1.356 . S
N164 H170 0.984 . S
N164 H171 0.984 . S
N165 C158 1.356 . S
N165 H168 0.984 . S
N165 H169 0.985 . S
H166 N161 0.984 . S
H167 N161 0.985 . S
H168 N165 0.984 . S
H169 N165 0.985 . S
H170 N164 0.984 . S
H171 N164 0.984 . S
H172 N160 0.984 . S
H173 N160 0.985 . S
C174 C175 1.363 . S
C174 C180 1.379 . S
C174 N182 1.356 . S
C175 C174 1.363 . S
C175 C181 1.363 . S
C176 C177 1.363 . S
C176 C181 1.379 . S
C176 N183 1.356 . S
C177 C176 1.363 . S
C177 C180 1.363 . S
N178 C180 1.356 . S
N178 H190 0.984 . S
N178 H191 0.985 . S
N179 C181 1.356 . S
N179 H184 0.984 . S
N179 H185 0.985 . S
C180 C174 1.379 . S
C180 C177 1.363 . S
C180 N178 1.356 . S
C181 C175 1.363 . S
C181 C176 1.379 . S
C181 N179 1.356 . S
N182 C174 1.356 . S
N182 H188 0.984 . S
N182 H189 0.984 . S
N183 C176 1.356 . S
N183 H186 0.984 . S
N183 H187 0.985 . S
H184 N179 0.984 . S
H185 N179 0.985 . S
H186 N183 0.984 . S
H187 N183 0.985 . S
H188 N182 0.984 . S
H189 N182 0.984 . S
H190 N178 0.984 . S
H191 N178 0.985 . S
C192 C193 1.363 . S
C192 C198 1.379 . S
C192 N200 1.356 . S
C193 C192 1.363 . S
C193 C199 1.363 . S
C194 C195 1.363 . S
C194 C199 1.379 . S
C194 N201 1.356 . S
C195 C194 1.363 . S
C195 C198 1.363 . S
N196 C198 1.356 . S
N196 H208 0.984 . S
N196 H209 0.985 . S
N197 C199 1.356 . S
N197 H202 0.984 . S
N197 H203 0.985 . S
C198 C192 1.379 . S
C198 C195 1.363 . S
C198 N196 1.356 . S
C199 C193 1.363 . S
C199 C194 1.379 . S
C199 N197 1.356 . S
N200 C192 1.356 . S
N200 H206 0.984 . S
N200 H207 0.984 . S
N201 C194 1.356 . S
N201 H204 0.984 . S
N201 H205 0.985 . S
H202 N197 0.984 . S
H203 N197 0.985 . S
H204 N201 0.984 . S
H205 N201 0.985 . S
H206 N200 0.984 . S
H207 N200 0.984 . S
H208 N196 0.984 . S
H209 N196 0.985 . S
C210 C211 1.363 . S
C210 C216 1.379 . S
C210 N218 1.356 . S
C211 C210 1.363 . S
C211 C217 1.363 . S
C212 C213 1.363 . S
C212 C217 1.379 . S
C212 N219 1.356 . S
C213 C212 1.363 . S
C213 C216 1.363 . S
N214 C216 1.356 . S
N214 H226 0.984 . S
N214 H227 0.985 . S
N215 C217 1.356 . S
N215 H220 0.984 . S
N215 H221 0.985 . S
C216 C210 1.379 . S
C216 C213 1.363 . S
C216 N214 1.356 . S
C217 C211 1.363 . S
C217 C212 1.379 . S
C217 N215 1.356 . S
N218 C210 1.356 . S
N218 H224 0.984 . S
N218 H225 0.984 . S
N219 C212 1.356 . S
N219 H222 0.984 . S
N219 H223 0.985 . S
H220 N215 0.984 . S
H221 N215 0.985 . S
H222 N219 0.984 . S
H223 N219 0.985 . S
H224 N218 0.984 . S
H225 N218 0.984 . S
H226 N214 0.984 . S
H227 N214 0.985 . S
C228 C229 1.363 . S
C228 C234 1.379 . S
C228 N236 1.356 . S
C229 C228 1.363 . S
C229 C235 1.363 1_554 S
C230 C231 1.363 1_556 S
C230 C235 1.379 . S
C230 N237 1.356 . S
C231 C230 1.363 1_554 S
C231 C234 1.363 . S
N232 C234 1.356 . S
N232 H244 0.984 . S
N232 H245 0.985 . S
N233 C235 1.356 . S
N233 H238 0.984 . S
N233 H239 0.985 . S
C234 C228 1.379 . S
C234 C231 1.363 . S
C234 N232 1.356 . S
C235 C229 1.363 1_556 S
C235 C230 1.379 . S
C235 N233 1.356 . S
N236 C228 1.356 . S
N236 H242 0.984 . S
N236 H243 0.984 . S
N237 C230 1.356 . S
N237 H240 0.984 . S
N237 H241 0.985 . S
H238 N233 0.984 . S
H239 N233 0.985 . S
H240 N237 0.984 . S
H241 N237 0.985 . S
H242 N236 0.984 . S
H243 N236 0.984 . S
H244 N232 0.984 . S
H245 N232 0.985 . S
C246 C247 1.363 . S
C246 C252 1.379 . S
C246 N254 1.356 . S
C247 C246 1.363 . S
C247 C253 1.363 1_455 S
C248 C249 1.363 . S
C248 C253 1.379 . S
C248 N255 1.356 . S
C249 C248 1.363 . S
C249 C252 1.363 1_655 S
N250 C252 1.356 . S
N250 H262 0.984 . S
N250 H263 0.985 . S
N251 C253 1.356 . S
N251 H256 0.984 . S
N251 H257 0.985 . S
C252 C246 1.379 . S
C252 C249 1.363 1_455 S
C252 N250 1.356 . S
C253 C247 1.363 1_655 S
C253 C248 1.379 . S
C253 N251 1.356 . S
N254 C246 1.356 . S
N254 H260 0.984 . S
N254 H261 0.984 . S
N255 C248 1.356 . S
N255 H258 0.984 . S
N255 H259 0.985 . S
H256 N251 0.984 . S
H257 N251 0.985 . S
H258 N255 0.984 . S
H259 N255 0.985 . S
H260 N254 0.984 . S
H261 N254 0.984 . S
H262 N250 0.984 . S
H263 N250 0.985 . S
C264 C265 1.363 1_565 S
C264 C270 1.379 . S
C264 N272 1.356 . S
C265 C264 1.363 1_545 S
C265 C271 1.363 . S
C266 C267 1.363 1_545 S
C266 C271 1.379 . S
C266 N273 1.356 . S
C267 C266 1.363 1_565 S
C267 C270 1.363 . S
N268 C270 1.356 . S
N268 H280 0.984 . S
N268 H281 0.985 . S
N269 C271 1.356 . S
N269 H274 0.984 . S
N269 H275 0.985 . S
C270 C264 1.379 . S
C270 C267 1.363 . S
C270 N268 1.356 . S
C271 C265 1.363 . S
C271 C266 1.379 . S
C271 N269 1.356 . S
N272 C264 1.356 . S
N272 H278 0.984 . S
N272 H279 0.984 . S
N273 C266 1.356 . S
N273 H276 0.984 . S
N273 H277 0.985 . S
H274 N269 0.984 . S
H275 N269 0.985 . S
H276 N273 0.984 . S
H277 N273 0.985 . S
H278 N272 0.984 . S
H279 N272 0.984 . S
H280 N268 0.984 . S
H281 N268 0.985 . S
C282 C283 1.363 . S
C282 C288 1.379 . S
C282 N290 1.356 . S
C283 C282 1.363 . S
C283 C289 1.363 . S
C284 C285 1.363 . S
C284 C289 1.379 . S
C284 N291 1.356 . S
C285 C284 1.363 . S
C285 C288 1.363 . S
N286 C288 1.356 . S
N286 H298 0.984 . S
N286 H299 0.985 . S
N287 C289 1.356 . S
N287 H292 0.984 . S
N287 H293 0.985 . S
C288 C282 1.379 . S
C288 C285 1.363 . S
C288 N286 1.356 . S
C289 C283 1.363 . S
C289 C284 1.379 . S
C289 N287 1.356 . S
N290 C282 1.356 . S
N290 H296 0.984 . S
N290 H297 0.984 . S
N291 C284 1.356 . S
N291 H294 0.984 . S
N291 H295 0.985 . S
H292 N287 0.984 . S
H293 N287 0.985 . S
H294 N291 0.984 . S
H295 N291 0.985 . S
H296 N290 0.984 . S
H297 N290 0.984 . S
H298 N286 0.984 . S
H299 N286 0.985 . S
C300 C301 1.363 . S
C300 C306 1.379 . S
C300 N308 1.356 . S
C301 C300 1.363 . S
C301 C307 1.363 1_456 S
C302 C303 1.363 1_554 S
C302 C307 1.379 . S
C302 N309 1.356 . S
C303 C302 1.363 1_556 S
C303 C306 1.363 1_655 S
N304 C306 1.356 . S
N304 H316 0.984 . S
N304 H317 0.985 1_455 S
N305 C307 1.356 . S
N305 H310 0.984 1_655 S
N305 H311 0.985 . S
C306 C300 1.379 . S
C306 C303 1.363 1_455 S
C306 N304 1.356 . S
C307 C301 1.363 1_654 S
C307 C302 1.379 . S
C307 N305 1.356 . S
N308 C300 1.356 . S
N308 H314 0.984 . S
N308 H315 0.984 . S
N309 C302 1.356 . S
N309 H312 0.984 . S
N309 H313 0.985 . S
H310 N305 0.984 1_455 S
H311 N305 0.985 . S
H312 N309 0.984 . S
H313 N309 0.985 . S
H314 N308 0.984 . S
H315 N308 0.984 . S
H316 N304 0.984 . S
H317 N304 0.985 1_655 S
C318 C319 1.363 . S
C318 C324 1.379 . S
C318 N326 1.356 . S
C319 C318 1.363 . S
C319 C325 1.363 1_565 S
C320 C321 1.363 . S
C320 C325 1.379 . S
C320 N327 1.356 . S
C321 C320 1.363 . S
C321 C324 1.363 1_545 S
N322 C324 1.356 . S
N322 H334 0.984 . S
N322 H335 0.985 1_565 S
N323 C325 1.356 . S
N323 H328 0.984 1_545 S
N323 H329 0.985 . S
C324 C318 1.379 . S
C324 C321 1.363 1_565 S
C324 N322 1.356 . S
C325 C319 1.363 1_545 S
C325 C320 1.379 . S
C325 N323 1.356 . S
N326 C318 1.356 . S
N326 H332 0.984 . S
N326 H333 0.984 . S
N327 C320 1.356 . S
N327 H330 0.984 . S
N327 H331 0.985 . S
H328 N323 0.984 1_565 S
H329 N323 0.985 . S
H330 N327 0.984 . S
H331 N327 0.985 . S
H332 N326 0.984 . S
H333 N326 0.984 . S
H334 N322 0.984 . S
H335 N322 0.985 1_545 S
C336 C337 1.363 . S
C336 C342 1.379 . S
C336 N344 1.356 . S
C337 C336 1.363 . S
C337 C343 1.363 . S
C338 C339 1.363 . S
C338 C343 1.379 . S
C338 N345 1.356 . S
C339 C338 1.363 . S
C339 C342 1.363 . S
N340 C342 1.356 . S
N340 H352 0.984 . S
N340 H353 0.985 . S
N341 C343 1.356 . S
N341 H346 0.984 . S
N341 H347 0.985 . S
C342 C336 1.379 . S
C342 C339 1.363 . S
C342 N340 1.356 . S
C343 C337 1.363 . S
C343 C338 1.379 . S
C343 N341 1.356 . S
N344 C336 1.356 . S
N344 H350 0.984 . S
N344 H351 0.984 . S
N345 C338 1.356 . S
N345 H348 0.984 . S
N345 H349 0.985 . S
H346 N341 0.984 . S
H347 N341 0.985 . S
H348 N345 0.984 . S
H349 N345 0.985 . S
H350 N344 0.984 . S
H351 N344 0.984 . S
H352 N340 0.984 . S
H353 N340 0.985 . S
C354 C355 1.363 . S
C354 C360 1.379 1_655 S
C354 N362 1.356 . S
C355 C354 1.363 . S
C355 C361 1.363 . S
C356 C357 1.363 . S
C356 C361 1.379 1_455 S
C356 N363 1.356 . S
C357 C356 1.363 . S
C357 C360 1.363 . S
N358 C360 1.356 . S
N358 H370 0.984 . S
N358 H371 0.985 . S
N359 C361 1.356 . S
N359 H364 0.984 . S
N359 H365 0.985 . S
C360 C354 1.379 1_455 S
C360 C357 1.363 . S
C360 N358 1.356 . S
C361 C355 1.363 . S
C361 C356 1.379 1_655 S
C361 N359 1.356 . S
N362 C354 1.356 . S
N362 H368 0.984 . S
N362 H369 0.984 . S
N363 C356 1.356 . S
N363 H366 0.984 . S
N363 H367 0.985 . S
H364 N359 0.984 . S
H365 N359 0.985 . S
H366 N363 0.984 . S
H367 N363 0.985 . S
H368 N362 0.984 . S
H369 N362 0.984 . S
H370 N358 0.984 . S
H371 N358 0.985 . S
C372 C373 1.363 1_545 S
C372 C378 1.379 . S
C372 N380 1.358 1_545 S
C373 C372 1.363 1_565 S
C373 C379 1.363 . S
C374 C375 1.363 1_565 S
C374 C379 1.379 . S
C374 N381 1.356 . S
C375 C374 1.363 1_545 S
C375 C378 1.363 . S
N376 C378 1.356 . S
N376 H388 0.984 . S
N376 H389 0.985 . S
N377 C379 1.356 . S
N377 H382 0.984 . S
N377 H383 0.985 . S
C378 C372 1.379 . S
C378 C375 1.363 . S
C378 N376 1.356 . S
C379 C373 1.363 . S
C379 C374 1.379 . S
C379 N377 1.356 . S
N380 C372 1.358 1_565 S
N380 H386 0.977 1_565 S
N380 H387 0.990 . S
N381 C374 1.356 . S
N381 H384 0.984 1_565 S
N381 H385 0.985 . S
H382 N377 0.984 . S
H383 N377 0.985 . S
H384 N381 0.984 1_545 S
H385 N381 0.985 . S
H386 N380 0.977 1_545 S
H387 N380 0.990 . S
H388 N376 0.984 . S
H389 N376 0.985 . S
C390 C391 1.363 . S
C390 C396 1.379 . S
C390 N398 1.356 . S
C391 C390 1.363 . S
C391 C397 1.363 . S
C392 C393 1.363 . S
C392 C397 1.379 . S
C392 N399 1.356 . S
C393 C392 1.363 . S
C393 C396 1.363 . S
N394 C396 1.356 . S
N394 H406 0.984 . S
N394 H407 0.985 . S
N395 C397 1.356 . S
N395 H400 0.984 . S
N395 H401 0.985 . S
C396 C390 1.379 . S
C396 C393 1.363 . S
C396 N394 1.356 . S
C397 C391 1.363 . S
C397 C392 1.379 . S
C397 N395 1.356 . S
N398 C390 1.356 . S
N398 H404 0.984 . S
N398 H405 0.984 . S
N399 C392 1.356 . S
N399 H402 0.984 . S
N399 H403 0.985 . S
H400 N395 0.984 . S
H401 N395 0.985 . S
H402 N399 0.984 . S
H403 N399 0.985 . S
H404 N398 0.984 . S
H405 N398 0.984 . S
H406 N394 0.984 . S
H407 N394 0.985 . S
C408 C409 1.363 . S
C408 C414 1.379 1_455 S
C408 N416 1.356 . S
C409 C408 1.363 . S
C409 C415 1.363 . S
C410 C411 1.363 . S
C410 C415 1.379 1_655 S
C410 N417 1.356 . S
C411 C410 1.363 . S
C411 C414 1.363 . S
N412 C414 1.356 . S
N412 H424 0.984 . S
N412 H425 0.985 . S
N413 C415 1.356 . S
N413 H418 0.984 . S
N413 H419 0.985 . S
C414 C408 1.379 1_655 S
C414 C411 1.363 . S
C414 N412 1.356 . S
C415 C409 1.363 . S
C415 C410 1.379 1_455 S
C415 N413 1.356 . S
N416 C408 1.356 . S
N416 H422 0.984 . S
N416 H423 0.984 . S
N417 C410 1.356 . S
N417 H420 0.984 . S
N417 H421 0.985 . S
H418 N413 0.984 . S
H419 N413 0.985 . S
H420 N417 0.984 . S
H421 N417 0.985 . S
H422 N416 0.984 . S
H423 N416 0.984 . S
H424 N412 0.984 . S
H425 N412 0.985 . S
C426 C427 1.363 1_565 S
C426 C432 1.379 . S
C426 N434 1.356 1_565 S
C427 C426 1.363 1_545 S
C427 C433 1.363 . S
C428 C429 1.363 1_545 S
C428 C433 1.379 . S
C428 N435 1.356 . S
C429 C428 1.363 1_565 S
C429 C432 1.363 . S
N430 C432 1.356 . S
N430 H442 0.984 . S
N430 H443 0.985 . S
N431 C433 1.356 . S
N431 H436 0.984 . S
N431 H437 0.985 . S
C432 C426 1.379 . S
C432 C429 1.363 . S
C432 N430 1.356 . S
C433 C427 1.363 . S
C433 C428 1.379 . S
C433 N431 1.356 . S
N434 C426 1.356 1_545 S
N434 H440 0.984 1_545 S
N434 H441 0.984 . S
N435 C428 1.356 . S
N435 H438 0.984 1_545 S
N435 H439 0.985 . S
H436 N431 0.984 . S
H437 N431 0.985 . S
H438 N435 0.984 1_565 S
H439 N435 0.985 . S
H440 N434 0.984 1_565 S
H441 N434 0.984 . S
H442 N430 0.984 . S
H443 N430 0.985 . S
C121 C86 1.391 . S
C123 C8 1.332 . S
C139 C106 1.391 . S
C141 C28 1.333 . S
C157 C6 1.391 . S
C159 C48 1.333 . S
C175 C26 1.391 . S
C177 C68 1.332 . S
C193 C46 1.391 . S
C195 C88 1.333 . S
C211 C66 1.391 . S
C213 C108 1.333 . S
C229 C1 1.149 . S
C231 C61 1.149 . S
C247 C81 1.149 . S
C249 C21 1.149 . S
C265 C101 1.149 . S
C267 C41 1.149 . S
C283 C49 1.126 . S
C285 C109 1.126 . S
C301 C9 1.126 . S
C303 C69 1.126 . S
C319 C89 1.126 . S
C321 C29 1.126 . S
C337 C116 1.563 . S
C339 C19 1.533 . S
C355 C39 1.533 . S
C357 C16 1.563 . S
C373 C59 1.533 . S
C375 C36 1.563 . S
C391 C56 1.563 . S
C393 C79 1.533 . S
C409 C99 1.533 . S
C411 C76 1.563 . S
C427 C119 1.533 . S
C429 C96 1.563 . S
