# Generated by pormake.
# Topology gsi, (4)-cn, num edge types: 1
# Building blocks:
#     Node 0, Type 0, BuildingBlock: NAHDIM_clean_sbu_0, # of connection points: 4
#     Node 1, Type 0, BuildingBlock: NAHDIM_clean_sbu_0, # of connection points: 4
#     Node 2, Type 0, BuildingBlock: NAHDIM_clean_sbu_0, # of connection points: 4
#     Node 3, Type 0, BuildingBlock: NAHDIM_clean_sbu_0, # of connection points: 4
#     Node 4, Type 0, BuildingBlock: NAHDIM_clean_sbu_0, # of connection points: 4
#     Node 5, Type 0, BuildingBlock: NAHDIM_clean_sbu_0, # of connection points: 4
#     Node 6, Type 0, BuildingBlock: NAHDIM_clean_sbu_0, # of connection points: 4
#     Node 7, Type 0, BuildingBlock: NAHDIM_clean_sbu_0, # of connection points: 4
#     Node 8, Type 0, BuildingBlock: NAHDIM_clean_sbu_0, # of connection points: 4
#     Node 9, Type 0, BuildingBlock: NAHDIM_clean_sbu_0, # of connection points: 4
#     Node 10, Type 0, BuildingBlock: NAHDIM_clean_sbu_0, # of connection points: 4
#     Node 11, Type 0, BuildingBlock: NAHDIM_clean_sbu_0, # of connection points: 4
#     Node 12, Type 0, BuildingBlock: NAHDIM_clean_sbu_0, # of connection points: 4
#     Node 13, Type 0, BuildingBlock: NAHDIM_clean_sbu_0, # of connection points: 4
#     Node 14, Type 0, BuildingBlock: NAHDIM_clean_sbu_0, # of connection points: 4
#     Node 15, Type 0, BuildingBlock: NAHDIM_clean_sbu_0, # of connection points: 4
#     Edge 16, Type (0, 0), BuildingBlock: EZIPEK_clean_linker_0, # of connection points: 2
#     Edge 17, Type (0, 0), BuildingBlock: EZIPEK_clean_linker_0, # of connection points: 2
#     Edge 18, Type (0, 0), BuildingBlock: EZIPEK_clean_linker_0, # of connection points: 2
#     Edge 19, Type (0, 0), BuildingBlock: EZIPEK_clean_linker_0, # of connection points: 2
#     Edge 20, Type (0, 0), BuildingBlock: EZIPEK_clean_linker_0, # of connection points: 2
#     Edge 21, Type (0, 0), BuildingBlock: EZIPEK_clean_linker_0, # of connection points: 2
#     Edge 22, Type (0, 0), BuildingBlock: EZIPEK_clean_linker_0, # of connection points: 2
#     Edge 23, Type (0, 0), BuildingBlock: EZIPEK_clean_linker_0, # of connection points: 2
#     Edge 24, Type (0, 0), BuildingBlock: EZIPEK_clean_linker_0, # of connection points: 2
#     Edge 25, Type (0, 0), BuildingBlock: EZIPEK_clean_linker_0, # of connection points: 2
#     Edge 26, Type (0, 0), BuildingBlock: EZIPEK_clean_linker_0, # of connection points: 2
#     Edge 27, Type (0, 0), BuildingBlock: EZIPEK_clean_linker_0, # of connection points: 2
#     Edge 28, Type (0, 0), BuildingBlock: EZIPEK_clean_linker_0, # of connection points: 2
#     Edge 29, Type (0, 0), BuildingBlock: EZIPEK_clean_linker_0, # of connection points: 2
#     Edge 30, Type (0, 0), BuildingBlock: EZIPEK_clean_linker_0, # of connection points: 2
#     Edge 31, Type (0, 0), BuildingBlock: EZIPEK_clean_linker_0, # of connection points: 2
#     Edge 32, Type (0, 0), BuildingBlock: EZIPEK_clean_linker_0, # of connection points: 2
#     Edge 33, Type (0, 0), BuildingBlock: EZIPEK_clean_linker_0, # of connection points: 2
#     Edge 34, Type (0, 0), BuildingBlock: EZIPEK_clean_linker_0, # of connection points: 2
#     Edge 35, Type (0, 0), BuildingBlock: EZIPEK_clean_linker_0, # of connection points: 2
#     Edge 36, Type (0, 0), BuildingBlock: EZIPEK_clean_linker_0, # of connection points: 2
#     Edge 37, Type (0, 0), BuildingBlock: EZIPEK_clean_linker_0, # of connection points: 2
#     Edge 38, Type (0, 0), BuildingBlock: EZIPEK_clean_linker_0, # of connection points: 2
#     Edge 39, Type (0, 0), BuildingBlock: EZIPEK_clean_linker_0, # of connection points: 2
#     Edge 40, Type (0, 0), BuildingBlock: EZIPEK_clean_linker_0, # of connection points: 2
#     Edge 41, Type (0, 0), BuildingBlock: EZIPEK_clean_linker_0, # of connection points: 2
#     Edge 42, Type (0, 0), BuildingBlock: EZIPEK_clean_linker_0, # of connection points: 2
#     Edge 43, Type (0, 0), BuildingBlock: EZIPEK_clean_linker_0, # of connection points: 2
#     Edge 44, Type (0, 0), BuildingBlock: EZIPEK_clean_linker_0, # of connection points: 2
#     Edge 45, Type (0, 0), BuildingBlock: EZIPEK_clean_linker_0, # of connection points: 2
#     Edge 46, Type (0, 0), BuildingBlock: EZIPEK_clean_linker_0, # of connection points: 2
#     Edge 47, Type (0, 0), BuildingBlock: EZIPEK_clean_linker_0, # of connection points: 2
# Relax obj value: 0.047
# Max RMSD: 0.061
# Mean RMSD: 0.054
data_MOF--net-gsi--node1-NAHDIM_clean_sbu_0--edge1-EZIPEK_clean_linker_0
_symmetry_space_group_name_H-M    P1
_symmetry_Int_Tables_number       1
_symmetry_cell_setting            triclinic
loop_
_symmetry_equiv_pos_as_xyz
'x, y, z'
_cell_length_a     30.667624
_cell_length_b     31.635424
_cell_length_c     31.667447
_cell_angle_alpha  90.003292
_cell_angle_beta   89.937336
_cell_angle_gamma 95.763095
loop_
_atom_site_label
_atom_site_type_symbol
_atom_site_fract_x
_atom_site_fract_y
_atom_site_fract_z
_atom_type_partial_charge
C0 C 0.07267 0.20828 0.11748 0.0
O1 O 0.10566 0.22163 0.09282 0.0
O2 O 0.15663 0.14107 0.08638 0.0
Zn3 Zn 0.13213 0.14838 0.14543 0.0
O4 O 0.17526 0.18913 0.17786 0.0
C5 C 0.14541 0.06259 0.17545 0.0
O6 O 0.17947 0.06652 0.15012 0.0
O7 O 0.07588 0.17681 0.14191 0.0
C8 C 0.20493 0.17752 0.20202 0.0
O9 O 0.20874 0.13696 0.20752 0.0
C10 C 0.19751 0.13881 0.08156 0.0
O11 O 0.22301 0.13915 0.11477 0.0
O12 O 0.12034 0.09225 0.17729 0.0
C13 C 0.91679 0.29766 0.12412 0.0
O14 O 0.87881 0.27508 0.11927 0.0
O15 O 0.82918 0.37196 0.08698 0.0
Zn16 Zn 0.86144 0.36417 0.1423 0.0
O17 O 0.82368 0.32625 0.18177 0.0
C18 C 0.8457 0.4473 0.17277 0.0
O19 O 0.81059 0.44014 0.14922 0.0
O20 O 0.91796 0.33701 0.13298 0.0
C21 C 0.78374 0.33153 0.18847 0.0
O22 O 0.76526 0.36073 0.16749 0.0
C23 C 0.80254 0.34221 0.07212 0.0
O24 O 0.79709 0.30559 0.09191 0.0
O25 O 0.87371 0.42026 0.17351 0.0
C26 C 0.13381 0.91241 0.28128 0.0
O27 O 0.10832 0.87774 0.27215 0.0
O28 O 0.10169 0.8283 0.35387 0.0
Zn29 Zn 0.16253 0.85897 0.34694 0.0
O30 O 0.19737 0.82013 0.3136 0.0
C31 C 0.19755 0.84211 0.42895 0.0
O32 O 0.18123 0.8033 0.4197 0.0
O33 O 0.15947 0.91255 0.31283 0.0
C34 C 0.23892 0.82305 0.31243 0.0
O35 O 0.26189 0.85348 0.3333 0.0
C36 C 0.09709 0.78787 0.35429 0.0
O37 O 0.13189 0.7669 0.35327 0.0
O38 O 0.1929 0.87203 0.40303 0.0
C39 C 0.84877 0.59791 0.27665 0.0
O40 O 0.85009 0.63408 0.25614 0.0
O41 O 0.9019 0.67829 0.36525 0.0
Zn42 Zn 0.8411 0.65235 0.34924 0.0
O43 O 0.81289 0.69384 0.31232 0.0
C44 C 0.80784 0.6652 0.43326 0.0
O45 O 0.8404 0.69546 0.43442 0.0
O46 O 0.84523 0.59761 0.31671 0.0
C47 C 0.81396 0.73274 0.32262 0.0
O48 O 0.83347 0.74631 0.35761 0.0
C49 C 0.92463 0.69769 0.33631 0.0
O50 O 0.90868 0.69832 0.29788 0.0
O51 O 0.80224 0.6418 0.4007 0.0
C52 C 0.41437 0.78756 0.62933 0.0
O53 O 0.37617 0.76666 0.621 0.0
O54 O 0.33114 0.85913 0.59234 0.0
Zn55 Zn 0.36008 0.85329 0.64938 0.0
O56 O 0.32149 0.81311 0.68693 0.0
C57 C 0.34737 0.93873 0.67899 0.0
O58 O 0.31063 0.93258 0.6576 0.0
O59 O 0.41628 0.82604 0.64137 0.0
C60 C 0.29335 0.8251 0.71262 0.0
O61 O 0.28767 0.86549 0.71586 0.0
C62 C 0.28974 0.85764 0.58827 0.0
O63 O 0.26471 0.85474 0.62199 0.0
O64 O 0.37388 0.91028 0.67861 0.0
C65 C 0.84439 0.93362 0.81874 0.0
O66 O 0.80971 0.92851 0.8433 0.0
O67 O 0.82865 0.86168 0.90632 0.0
Zn68 Zn 0.85674 0.85039 0.84996 0.0
O69 O 0.81437 0.81376 0.81274 0.0
C70 C 0.91619 0.79199 0.8836 0.0
O71 O 0.88232 0.77803 0.9069 0.0
O72 O 0.87058 0.90497 0.81759 0.0
C73 C 0.8138 0.77371 0.80902 0.0
O74 O 0.84145 0.75313 0.83049 0.0
C75 C 0.80155 0.8336 0.92319 0.0
O76 O 0.7917 0.7972 0.9039 0.0
O77 O 0.91302 0.82286 0.85841 0.0
C78 C 0.14997 0.5704 0.80895 0.0
O79 O 0.18899 0.59168 0.80809 0.0
O80 O 0.15856 0.63862 0.91389 0.0
Zn81 Zn 0.13108 0.64297 0.85638 0.0
O82 O 0.1723 0.67884 0.81815 0.0
C83 C 0.07038 0.69974 0.88854 0.0
O84 O 0.10177 0.70988 0.91596 0.0
O85 O 0.11908 0.58529 0.82915 0.0
C86 C 0.18281 0.71814 0.82461 0.0
O87 O 0.16713 0.73673 0.85756 0.0
C88 C 0.19978 0.63888 0.91821 0.0
O89 O 0.22524 0.6409 0.88477 0.0
O90 O 0.07499 0.67102 0.86123 0.0
C91 C 0.80533 0.15648 0.56329 0.0
O92 O 0.817 0.19501 0.57734 0.0
O93 O 0.90999 0.16267 0.62917 0.0
Zn94 Zn 0.84876 0.13404 0.63906 0.0
O95 O 0.81616 0.17093 0.67701 0.0
C96 C 0.86558 0.08011 0.70779 0.0
O97 O 0.88144 0.11678 0.72376 0.0
O98 O 0.81575 0.12462 0.58405 0.0
C99 C 0.7757 0.16204 0.68489 0.0
O100 O 0.75414 0.12845 0.66772 0.0
C101 C 0.91786 0.20255 0.63447 0.0
O102 O 0.88616 0.22509 0.64587 0.0
O103 O 0.85121 0.07868 0.67009 0.0
C104 C 0.18187 0.36054 0.56095 0.0
O105 O 0.13957 0.35313 0.55415 0.0
O106 O 0.09902 0.32806 0.64085 0.0
Zn107 Zn 0.16071 0.35445 0.65158 0.0
O108 O 0.19158 0.31208 0.68434 0.0
C109 C 0.13039 0.41555 0.71074 0.0
O110 O 0.0967 0.38684 0.7153 0.0
O111 O 0.19631 0.36403 0.59847 0.0
C112 C 0.18366 0.30295 0.72275 0.0
O113 O 0.15444 0.32211 0.74375 0.0
C114 C 0.09286 0.28937 0.62948 0.0
O115 O 0.12671 0.26818 0.62189 0.0
O116 O 0.161 0.40893 0.68518 0.0
C117 C 0.65165 0.0868 0.29765 0.0
O118 O 0.6852 0.1127 0.28492 0.0
O119 O 0.67013 0.15656 0.40594 0.0
Zn120 Zn 0.63744 0.15794 0.35076 0.0
O121 O 0.67448 0.19441 0.30997 0.0
C122 C 0.57376 0.21062 0.38692 0.0
O123 O 0.6033 0.21888 0.41656 0.0
O124 O 0.62605 0.09878 0.32592 0.0
C125 C 0.68649 0.23323 0.31756 0.0
O126 O 0.67541 0.25018 0.35338 0.0
C127 C 0.70706 0.14157 0.4071 0.0
O128 O 0.72275 0.1255 0.3727 0.0
O129 O 0.58072 0.18495 0.35731 0.0
C130 C 0.57346 0.7035 0.62959 0.0
O131 O 0.61072 0.72787 0.62968 0.0
O132 O 0.66449 0.63253 0.58874 0.0
Zn133 Zn 0.63088 0.63836 0.64334 0.0
O134 O 0.66747 0.67799 0.68185 0.0
C135 C 0.64548 0.55306 0.66998 0.0
O136 O 0.67789 0.55804 0.64274 0.0
O137 O 0.57358 0.66348 0.63356 0.0
C138 C 0.70429 0.66838 0.69501 0.0
O139 O 0.71867 0.63254 0.68311 0.0
C140 C 0.68987 0.66407 0.57553 0.0
O141 O 0.69227 0.70014 0.59629 0.0
O142 O 0.61992 0.58207 0.67405 0.0
C143 C 0.63604 0.40372 0.77708 0.0
O144 O 0.60859 0.37024 0.76844 0.0
O145 O 0.6035 0.31903 0.84884 0.0
Zn146 Zn 0.66523 0.34542 0.83648 0.0
O147 O 0.69193 0.30752 0.79496 0.0
C148 C 0.69197 0.357 0.92538 0.0
O149 O 0.65113 0.36431 0.93215 0.0
O150 O 0.66336 0.40181 0.80706 0.0
C151 C 0.69426 0.26854 0.8032 0.0
O152 O 0.67934 0.25278 0.83935 0.0
C153 C 0.59286 0.29074 0.87656 0.0
O154 O 0.62268 0.27819 0.9021 0.0
O155 O 0.70455 0.35001 0.888 0.0
C156 C 0.36697 0.08956 0.7839 0.0
O157 O 0.38909 0.12511 0.77148 0.0
O158 O 0.40938 0.16759 0.86224 0.0
Zn159 Zn 0.34718 0.14254 0.85264 0.0
O160 O 0.3181 0.18424 0.81683 0.0
C161 C 0.29116 0.15865 0.92345 0.0
O162 O 0.28796 0.19414 0.90289 0.0
O163 O 0.3467 0.08853 0.81899 0.0
C164 C 0.27697 0.18009 0.81086 0.0
O165 O 0.25316 0.14734 0.82736 0.0
C166 C 0.41677 0.20553 0.87561 0.0
O167 O 0.38374 0.22712 0.88523 0.0
O168 O 0.31518 0.13162 0.90866 0.0
C169 C 0.34005 0.43073 0.29893 0.0
O170 O 0.29937 0.41551 0.3066 0.0
O171 O 0.32676 0.37488 0.40517 0.0
Zn172 Zn 0.3584 0.36078 0.35164 0.0
O173 O 0.31731 0.31902 0.31893 0.0
C174 C 0.41645 0.29708 0.37478 0.0
O175 O 0.37948 0.27304 0.38032 0.0
O176 O 0.3713 0.41311 0.31557 0.0
C177 C 0.32946 0.29662 0.2887 0.0
O178 O 0.37071 0.30043 0.27693 0.0
C179 C 0.2997 0.34583 0.42061 0.0
O180 O 0.29551 0.30805 0.40311 0.0
O181 O 0.41552 0.33577 0.36421 0.0
C182 C 0.27728 0.64567 0.08469 0.0
O183 O 0.25421 0.65549 0.1176 0.0
O184 O 0.41027 0.67492 0.13504 0.0
Zn185 Zn 0.34768 0.65086 0.14522 0.0
O186 O 0.31835 0.69484 0.17785 0.0
C187 C 0.37407 0.57391 0.18565 0.0
O188 O 0.41261 0.5843 0.16841 0.0
O189 O 0.31776 0.64126 0.08892 0.0
C190 C 0.31744 0.69387 0.21797 0.0
O191 O 0.3346 0.6633 0.23818 0.0
C192 C 0.43365 0.69084 0.1653 0.0
O193 O 0.4183 0.68831 0.204 0.0
O194 O 0.34289 0.59665 0.17921 0.0
C195 C 0.71966 0.84407 0.08645 0.0
O196 O 0.73188 0.8167 0.1141 0.0
O197 O 0.60184 0.83101 0.15013 0.0
Zn198 Zn 0.66153 0.86322 0.15391 0.0
O199 O 0.69604 0.82936 0.19283 0.0
C200 C 0.63743 0.92324 0.21498 0.0
O201 O 0.6175 0.88865 0.23197 0.0
O202 O 0.6903 0.86804 0.09628 0.0
C203 C 0.72791 0.84565 0.21488 0.0
O204 O 0.74008 0.88658 0.21248 0.0
C205 C 0.59992 0.79146 0.1423 0.0
O206 O 0.63613 0.77407 0.13405 0.0
O207 O 0.65773 0.92078 0.18017 0.0
C208 C 0.26353 0.23918 0.2006 0.0
C209 C 0.23533 0.20951 0.22406 0.0
C210 C 0.27136 0.23469 0.28959 0.0
C211 C 0.29699 0.26673 0.26651 0.0
N212 N 0.31125 0.30488 0.20108 0.0
N213 N 0.20591 0.1851 0.29142 0.0
C214 C 0.29131 0.27055 0.22228 0.0
C215 C 0.23735 0.20903 0.26876 0.0
N216 N 0.26535 0.23626 0.15764 0.0
N217 N 0.2808 0.22729 0.33093 0.0
H218 H 0.17992 0.16651 0.27729 0.0
H219 H 0.20307 0.18698 0.32414 0.0
H220 H 0.3062 0.24452 0.34709 0.0
H221 H 0.26633 0.2014 0.34795 0.0
H222 H 0.28886 0.25378 0.13923 0.0
H223 H 0.24586 0.21354 0.14065 0.0
H224 H 0.30417 0.31184 0.16983 0.0
H225 H 0.33195 0.32863 0.21565 0.0
C226 C 0.77395 0.30883 0.26397 0.0
C227 C 0.75879 0.30666 0.2216 0.0
C228 C 0.69315 0.26167 0.24377 0.0
C229 C 0.71088 0.25961 0.28505 0.0
N230 N 0.77134 0.27611 0.33308 0.0
N231 N 0.70757 0.27572 0.16968 0.0
C232 C 0.75212 0.28188 0.29486 0.0
C233 C 0.71932 0.28167 0.21106 0.0
N234 N 0.80804 0.33788 0.27515 0.0
N235 N 0.65064 0.24618 0.23617 0.0
H236 H 0.72599 0.28955 0.14469 0.0
H237 H 0.68175 0.254 0.15995 0.0
H238 H 0.62984 0.23233 0.25949 0.0
H239 H 0.63461 0.25091 0.20783 0.0
H240 H 0.8172 0.34413 0.30637 0.0
H241 H 0.82464 0.35872 0.2537 0.0
H242 H 0.80359 0.28752 0.34 0.0
H243 H 0.75648 0.25688 0.35677 0.0
C244 C 0.31239 0.77081 0.23529 0.0
C245 C 0.29774 0.72728 0.24203 0.0
C246 C 0.25069 0.74703 0.29967 0.0
C247 C 0.26094 0.79052 0.28933 0.0
N248 N 0.29604 0.84378 0.24251 0.0
N249 N 0.24623 0.67448 0.27492 0.0
C250 C 0.29037 0.8025 0.25584 0.0
C251 C 0.26504 0.71548 0.27268 0.0
N252 N 0.34842 0.78196 0.21074 0.0
N253 N 0.22873 0.73581 0.33619 0.0
H254 H 0.25467 0.65055 0.25473 0.0
H255 H 0.21911 0.66522 0.29382 0.0
H256 H 0.21927 0.75808 0.35772 0.0
H257 H 0.22418 0.70467 0.3473 0.0
H258 H 0.36312 0.81302 0.20837 0.0
H259 H 0.36632 0.75981 0.19603 0.0
H260 H 0.31339 0.85335 0.21527 0.0
H261 H 0.28017 0.8679 0.25641 0.0
C262 C 0.74616 0.76298 0.29816 0.0
C263 C 0.79226 0.76249 0.29587 0.0
C264 C 0.79613 0.81524 0.23906 0.0
C265 C 0.75052 0.81827 0.24368 0.0
N266 N 0.68366 0.80163 0.28327 0.0
N267 N 0.86243 0.79303 0.26986 0.0
C268 C 0.72588 0.7939 0.27478 0.0
C269 C 0.81769 0.79027 0.26817 0.0
N270 N 0.7217 0.73365 0.32237 0.0
N271 N 0.8184 0.83427 0.20556 0.0
H272 H 0.87941 0.77466 0.29023 0.0
H273 H 0.88267 0.81597 0.25365 0.0
H274 H 0.80366 0.8521 0.18296 0.0
H275 H 0.85051 0.82923 0.19793 0.0
H276 H 0.68759 0.72933 0.32154 0.0
H277 H 0.73548 0.71133 0.34105 0.0
H278 H 0.66556 0.78804 0.30853 0.0
H279 H 0.66795 0.82481 0.26761 0.0
C280 C 0.23169 0.76812 0.72368 0.0
C281 C 0.26805 0.79401 0.74028 0.0
C282 C 0.2525 0.76429 0.81082 0.0
C283 C 0.21287 0.74295 0.79523 0.0
N284 N 0.16127 0.72906 0.73811 0.0
N285 N 0.31276 0.81881 0.79962 0.0
C286 C 0.20165 0.7457 0.7519 0.0
C287 C 0.27836 0.7927 0.7839 0.0
N288 N 0.22593 0.76481 0.68098 0.0
N289 N 0.26635 0.75597 0.85074 0.0
H290 H 0.33448 0.83762 0.78042 0.0
H291 H 0.31852 0.82344 0.83176 0.0
H292 H 0.24879 0.73457 0.87105 0.0
H293 H 0.29705 0.76716 0.86247 0.0
H294 H 0.20264 0.74303 0.66691 0.0
H295 H 0.24709 0.78101 0.65935 0.0
H296 H 0.14942 0.73427 0.70795 0.0
H297 H 0.13779 0.71324 0.75786 0.0
C298 C 0.71412 0.71038 0.76212 0.0
C299 C 0.73134 0.69778 0.72296 0.0
C300 C 0.80253 0.73627 0.73979 0.0
C301 C 0.78461 0.7505 0.77794 0.0
N302 N 0.72136 0.75925 0.82116 0.0
N303 N 0.78837 0.70623 0.67016 0.0
C304 C 0.73968 0.74028 0.78766 0.0
C305 C 0.77462 0.71278 0.71054 0.0
N306 N 0.67444 0.692 0.77608 0.0
N307 N 0.84629 0.74502 0.73161 0.0
H308 H 0.76852 0.69008 0.64744 0.0
H309 H 0.8179 0.72014 0.65789 0.0
H310 H 0.86722 0.76471 0.75074 0.0
H311 H 0.86236 0.73097 0.70713 0.0
H312 H 0.66249 0.69643 0.80638 0.0
H313 H 0.65504 0.66914 0.7589 0.0
H314 H 0.6878 0.75641 0.82718 0.0
H315 H 0.73918 0.78109 0.84072 0.0
C316 C 0.75087 0.21964 0.7856 0.0
C317 C 0.71473 0.24119 0.77271 0.0
C318 C 0.72015 0.21268 0.7011 0.0
C319 C 0.75364 0.18828 0.71516 0.0
N320 N 0.79414 0.16109 0.77266 0.0
N321 N 0.65959 0.25234 0.72057 0.0
C322 C 0.76711 0.18962 0.75798 0.0
C323 C 0.69784 0.23617 0.73106 0.0
N324 N 0.77095 0.22914 0.82345 0.0
N325 N 0.71064 0.21453 0.65901 0.0
H326 H 0.64188 0.26925 0.74172 0.0
H327 H 0.64329 0.24578 0.69212 0.0
H328 H 0.72614 0.19758 0.63615 0.0
H329 H 0.69002 0.23548 0.64636 0.0
H330 H 0.80021 0.2176 0.83238 0.0
H331 H 0.7609 0.25185 0.84422 0.0
H332 H 0.80147 0.15776 0.80452 0.0
H333 H 0.80556 0.13772 0.75358 0.0
C334 C 0.19818 0.22784 0.73656 0.0
C335 C 0.20868 0.2718 0.74407 0.0
C336 C 0.26409 0.25634 0.79572 0.0
C337 C 0.25563 0.21224 0.78628 0.0
N338 N 0.22308 0.15772 0.73935 0.0
N339 N 0.25822 0.32852 0.77264 0.0
C340 C 0.22503 0.19842 0.75429 0.0
C341 C 0.24364 0.28626 0.7712 0.0
N342 N 0.16196 0.2141 0.71334 0.0
N343 N 0.28987 0.26988 0.82922 0.0
H344 H 0.2443 0.35131 0.75472 0.0
H345 H 0.28672 0.34039 0.78828 0.0
H346 H 0.30607 0.24977 0.84821 0.0
H347 H 0.29234 0.30097 0.84048 0.0
H348 H 0.15005 0.1822 0.71063 0.0
H349 H 0.14159 0.23482 0.69975 0.0
H350 H 0.20437 0.14714 0.71328 0.0
H351 H 0.24382 0.13578 0.74994 0.0
C352 C 0.12634 0.99029 0.27202 0.0
C353 C 0.13385 0.9506 0.25402 0.0
C354 C 0.13855 0.98343 0.18382 0.0
C355 C 0.13766 0.02411 0.20252 0.0
N356 N 0.1375 0.06675 0.26605 0.0
N357 N 0.15507 0.91092 0.19343 0.0
C358 C 0.13309 0.02776 0.24707 0.0
C359 C 0.14192 0.94747 0.21003 0.0
N360 N 0.11142 0.99212 0.31262 0.0
N361 N 0.13485 0.97887 0.14101 0.0
H362 H 0.15955 0.88422 0.2116 0.0
H363 H 0.16585 0.90858 0.16238 0.0
H364 H 0.13072 0.00423 0.12083 0.0
H365 H 0.13104 0.94939 0.12608 0.0
H366 H 0.10099 0.01951 0.32588 0.0
H367 H 0.10526 0.96528 0.33167 0.0
H368 H 0.13969 0.07077 0.29867 0.0
H369 H 0.14292 0.0952 0.24951 0.0
C370 C 0.81659 0.48674 0.23333 0.0
C371 C 0.84938 0.48402 0.20207 0.0
C372 C 0.88598 0.55247 0.2255 0.0
C373 C 0.85003 0.55769 0.25272 0.0
N374 N 0.7776 0.53252 0.27777 0.0
N375 N 0.91319 0.51582 0.16512 0.0
C376 C 0.81449 0.52543 0.25563 0.0
C377 C 0.88376 0.51716 0.19743 0.0
N378 N 0.7881 0.4519 0.24257 0.0
N379 N 0.92278 0.5806 0.22736 0.0
H380 H 0.91284 0.49034 0.14419 0.0
H381 H 0.93587 0.54127 0.15707 0.0
H382 H 0.92569 0.6066 0.24773 0.0
H383 H 0.9518 0.57612 0.21164 0.0
H384 H 0.76658 0.45059 0.26811 0.0
H385 H 0.78898 0.42279 0.22733 0.0
H386 H 0.74883 0.51202 0.27693 0.0
H387 H 0.77411 0.56071 0.29389 0.0
C388 C 0.27138 0.18481 0.99462 0.0
C389 C 0.26776 0.15166 0.96427 0.0
C390 C 0.21734 0.10868 0.01137 0.0
C391 C 0.21789 0.14367 0.03934 0.0
N392 N 0.23564 0.21854 0.05167 0.0
N393 N 0.23049 0.08503 0.9401 0.0
C394 C 0.24198 0.18283 0.02917 0.0
C395 C 0.23896 0.11422 0.9716 0.0
N396 N 0.3041 0.21737 0.99152 0.0
N397 N 0.19688 0.0701 0.02304 0.0
H398 H 0.24458 0.08837 0.91018 0.0
H399 H 0.20644 0.05943 0.94238 0.0
H400 H 0.17959 0.06542 0.05134 0.0
H401 H 0.19956 0.04228 0.00606 0.0
H402 H 0.31047 0.24019 0.01505 0.0
H403 H 0.32796 0.21888 0.96792 0.0
H404 H 0.2497 0.24875 0.0433 0.0
H405 H 0.21224 0.21861 0.07559 0.0
C406 C 0.77787 0.3186 0.99961 0.0
C407 C 0.77712 0.34839 0.03302 0.0
C408 C 0.72703 0.38794 0.99177 0.0
C409 C 0.72265 0.35472 0.96149 0.0
N410 N 0.73807 0.28389 0.94135 0.0
N411 N 0.74407 0.40725 0.06413 0.0
C412 C 0.74666 0.31884 0.96651 0.0
C413 C 0.75 0.38213 0.02995 0.0
N414 N 0.80914 0.29071 0.99886 0.0
N415 N 0.71046 0.42562 0.98362 0.0
H416 H 0.75868 0.403 0.09323 0.0
H417 H 0.72108 0.42937 0.06483 0.0
H418 H 0.69466 0.43168 0.95543 0.0
H419 H 0.71653 0.45231 0.00282 0.0
H420 H 0.81387 0.27117 0.9731 0.0
H421 H 0.83336 0.29033 0.02193 0.0
H422 H 0.75155 0.2554 0.94664 0.0
H423 H 0.71408 0.28155 0.918 0.0
C424 C 0.23838 0.88568 0.53582 0.0
C425 C 0.26928 0.85663 0.54577 0.0
C426 C 0.25965 0.82542 0.47517 0.0
C427 C 0.22402 0.84982 0.46788 0.0
N428 N 0.17551 0.89961 0.4937 0.0
N429 N 0.30359 0.79353 0.52726 0.0
C430 C 0.21244 0.87927 0.49872 0.0
C431 C 0.27866 0.82519 0.516 0.0
N432 N 0.23468 0.9201 0.56118 0.0
N433 N 0.2762 0.80333 0.44277 0.0
H434 H 0.31688 0.79089 0.5573 0.0
H435 H 0.30738 0.76737 0.5081 0.0
H436 H 0.26408 0.80383 0.41203 0.0
H437 H 0.30486 0.7884 0.44534 0.0
H438 H 0.21587 0.94458 0.55328 0.0
H439 H 0.25389 0.92641 0.58803 0.0
H440 H 0.16287 0.91774 0.51738 0.0
H441 H 0.15525 0.89545 0.46731 0.0
C442 C 0.75009 0.63234 0.53611 0.0
C443 C 0.71701 0.66072 0.53713 0.0
C444 C 0.74318 0.69154 0.46954 0.0
C445 C 0.77496 0.66191 0.46766 0.0
N446 N 0.8037 0.59907 0.49444 0.0
N447 N 0.67585 0.7108 0.50113 0.0
C448 C 0.77664 0.63052 0.49938 0.0
C449 C 0.71176 0.68846 0.50272 0.0
N450 N 0.758 0.60905 0.57115 0.0
N451 N 0.74351 0.7231 0.44 0.0
H452 H 0.65174 0.70868 0.52453 0.0
H453 H 0.66769 0.72828 0.47495 0.0
H454 H 0.76473 0.72533 0.41418 0.0
H455 H 0.72474 0.74864 0.44243 0.0
H456 H 0.78477 0.59146 0.57404 0.0
H457 H 0.73994 0.61005 0.59895 0.0
H458 H 0.80296 0.57267 0.51416 0.0
H459 H 0.82456 0.59759 0.46855 0.0
C460 C 0.96984 0.25777 0.08343 0.0
C461 C 0.95773 0.2764 0.12194 0.0
C462 C 0.02334 0.25385 0.15618 0.0
C463 C 0.03312 0.23172 0.11889 0.0
N464 N 0.01293 0.2076 0.04873 0.0
N465 N 0.96866 0.28631 0.1969 0.0
C466 C 0.00568 0.23242 0.08288 0.0
C467 C 0.98338 0.27298 0.15885 0.0
N468 N 0.94787 0.26544 0.0471 0.0
N469 N 0.05298 0.25793 0.18853 0.0
H470 H 0.9395 0.30033 0.20036 0.0
H471 H 0.98332 0.28018 0.2256 0.0
H472 H 0.08274 0.24462 0.18776 0.0
H473 H 0.04996 0.27767 0.21447 0.0
H474 H 0.95793 0.2566 0.01725 0.0
H475 H 0.92158 0.28395 0.04631 0.0
H476 H 0.99135 0.20302 0.02341 0.0
H477 H 0.03883 0.18865 0.04719 0.0
C478 C 0.97695 0.75066 0.37559 0.0
C479 C 0.96942 0.71822 0.34462 0.0
C480 C 0.04414 0.73442 0.31808 0.0
C481 C 0.053 0.76425 0.35122 0.0
N482 N 0.03064 0.79444 0.4168 0.0
N483 N 0.99951 0.6716 0.2945 0.0
C484 C 0.02021 0.77059 0.38157 0.0
C485 C 0.00417 0.70779 0.31833 0.0
N486 N 0.94273 0.76388 0.39797 0.0
N487 N 0.07277 0.7329 0.28511 0.0
H488 H 0.97131 0.65026 0.29544 0.0
H489 H 0.02526 0.66041 0.27777 0.0
H490 H 0.10152 0.75331 0.28235 0.0
H491 H 0.06562 0.71457 0.25817 0.0
H492 H 0.94566 0.79069 0.41728 0.0
H493 H 0.91059 0.75024 0.39475 0.0
H494 H 0.00922 0.79645 0.44209 0.0
H495 H 0.0621 0.80904 0.42259 0.0
C496 C 0.50293 0.71902 0.66386 0.0
C497 C 0.5316 0.72321 0.62852 0.0
C498 C 0.4846 0.77179 0.59472 0.0
C499 C 0.45447 0.76514 0.62867 0.0
N500 N 0.43127 0.72822 0.69278 0.0
N501 N 0.54682 0.74777 0.55747 0.0
C502 C 0.46243 0.73726 0.66228 0.0
C503 C 0.52169 0.74811 0.59316 0.0
N504 N 0.51553 0.69981 0.69995 0.0
N505 N 0.47794 0.80104 0.56422 0.0
H506 H 0.57387 0.73038 0.55505 0.0
H507 H 0.53888 0.76166 0.52907 0.0
H508 H 0.4502 0.81761 0.56338 0.0
H509 H 0.5011 0.81099 0.54131 0.0
H510 H 0.49844 0.7001 0.72835 0.0
H511 H 0.54524 0.68669 0.70286 0.0
H512 H 0.43276 0.70423 0.71509 0.0
H513 H 0.40221 0.7427 0.69418 0.0
C514 C 0.81915 0.01806 0.73958 0.0
C515 C 0.86078 0.04168 0.735 0.0
C516 C 0.89095 0.99673 0.78858 0.0
C517 C 0.85058 0.97048 0.78957 0.0
N518 N 0.78011 0.95029 0.75739 0.0
N519 N 0.93853 0.04819 0.74898 0.0
C520 C 0.81576 0.97941 0.76257 0.0
C521 C 0.89738 0.02951 0.75776 0.0
N522 N 0.78233 0.03343 0.72396 0.0
N523 N 0.92247 0.99164 0.8181 0.0
H524 H 0.94473 0.07151 0.72587 0.0
H525 H 0.96685 0.03758 0.76157 0.0
H526 H 0.91865 0.96872 0.84184 0.0
H527 H 0.95058 0.01274 0.82153 0.0
H528 H 0.75079 0.01943 0.73036 0.0
H529 H 0.78277 0.06257 0.70861 0.0
H530 H 0.75597 0.95364 0.73483 0.0
H531 H 0.77704 0.92066 0.77211 0.0
C532 C 0.16666 0.49561 0.79677 0.0
C533 C 0.14232 0.52974 0.78566 0.0
C534 C 0.10614 0.48686 0.72867 0.0
C535 C 0.13385 0.45451 0.73701 0.0
N536 N 0.19312 0.42891 0.77649 0.0
N537 N 0.09326 0.5607 0.73775 0.0
C538 C 0.16496 0.45918 0.77031 0.0
C539 C 0.11287 0.52604 0.75096 0.0
N540 N 0.19001 0.49735 0.83364 0.0
N541 N 0.0735 0.48021 0.69931 0.0
H542 H 0.0976 0.5901 0.75288 0.0
H543 H 0.0755 0.56151 0.70982 0.0
H544 H 0.06905 0.45295 0.68067 0.0
H545 H 0.04897 0.50035 0.69537 0.0
H546 H 0.20476 0.47178 0.84591 0.0
H547 H 0.19138 0.52323 0.85417 0.0
H548 H 0.22003 0.43282 0.79663 0.0
H549 H 0.19125 0.40066 0.75943 0.0
C550 C 0.71405 0.83693 0.0075 0.0
C551 C 0.74006 0.84635 0.04399 0.0
C552 C 0.80692 0.84858 0.00113 0.0
C553 C 0.78081 0.84138 0.96436 0.0
N554 N 0.70989 0.83874 0.9311 0.0
N555 N 0.81012 0.87085 0.0744 0.0
C556 C 0.73443 0.83865 0.96712 0.0
C557 C 0.78621 0.85516 0.04043 0.0
N558 N 0.6703 0.82412 0.01145 0.0
N559 N 0.85126 0.84695 0.99905 0.0
H560 H 0.79591 0.87677 0.10348 0.0
H561 H 0.84323 0.8819 0.07261 0.0
H562 H 0.86782 0.84196 0.97102 0.0
H563 H 0.87122 0.84697 0.02565 0.0
H564 H 0.65083 0.81219 0.98638 0.0
H565 H 0.65404 0.82187 0.04041 0.0
H566 H 0.67626 0.84113 0.93117 0.0
H567 H 0.72376 0.84069 0.90098 0.0
C568 C 0.22178 0.67876 0.98433 0.0
C569 C 0.2194 0.64035 0.96089 0.0
C570 C 0.25235 0.60457 0.01984 0.0
C571 C 0.25722 0.64366 0.04217 0.0
N572 N 0.25374 0.71948 0.04348 0.0
N573 N 0.23666 0.56807 0.95327 0.0
C574 C 0.24365 0.68116 0.02394 0.0
C575 C 0.23608 0.60366 0.97772 0.0
N576 N 0.20313 0.713 0.96868 0.0
N577 N 0.26162 0.56807 0.03958 0.0
H578 H 0.22322 0.5656 0.92302 0.0
H579 H 0.25285 0.54196 0.96172 0.0
H580 H 0.27357 0.56757 0.07039 0.0
H581 H 0.2544 0.53785 0.02686 0.0
H582 H 0.19875 0.73999 0.98636 0.0
H583 H 0.18951 0.71357 0.93858 0.0
H584 H 0.24924 0.74858 0.02968 0.0
H585 H 0.27018 0.72271 0.07229 0.0
C586 C 0.77541 0.16628 0.44749 0.0
C587 C 0.733 0.14363 0.44666 0.0
C588 C 0.73735 0.13049 0.52278 0.0
C589 C 0.7809 0.15052 0.523 0.0
N590 N 0.84462 0.17993 0.48434 0.0
N591 N 0.67723 0.09673 0.48131 0.0
C592 C 0.80088 0.16626 0.48497 0.0
C593 C 0.71496 0.1236 0.48371 0.0
N594 N 0.79069 0.1894 0.41312 0.0
N595 N 0.71664 0.11963 0.56003 0.0
H596 H 0.66026 0.09032 0.45313 0.0
H597 H 0.66501 0.07771 0.50633 0.0
H598 H 0.73187 0.12418 0.58926 0.0
H599 H 0.68333 0.10952 0.56221 0.0
H600 H 0.81899 0.21054 0.41361 0.0
H601 H 0.77324 0.19033 0.38499 0.0
H602 H 0.86211 0.18746 0.45669 0.0
H603 H 0.86446 0.17994 0.51107 0.0
C604 C 0.21391 0.38843 0.49207 0.0
C605 C 0.2133 0.35867 0.52562 0.0
C606 C 0.2757 0.3275 0.49412 0.0
C607 C 0.27278 0.35361 0.4581 0.0
N608 N 0.2354 0.40529 0.41985 0.0
N609 N 0.23825 0.29469 0.55477 0.0
C610 C 0.24109 0.38338 0.45632 0.0
C611 C 0.24289 0.32688 0.52577 0.0
N612 N 0.18941 0.4221 0.49486 0.0
N613 N 0.31046 0.30396 0.49853 0.0
H614 H 0.21375 0.29202 0.57774 0.0
H615 H 0.25592 0.26826 0.55346 0.0
H616 H 0.33558 0.30423 0.47624 0.0
H617 H 0.31671 0.28767 0.5261 0.0
H618 H 0.19204 0.44732 0.47356 0.0
H619 H 0.16911 0.42674 0.52056 0.0
H620 H 0.2095 0.42367 0.41512 0.0
H621 H 0.2545 0.40253 0.39294 0.0
C622 C 0.00798 0.7309 0.92506 0.0
C623 C 0.03137 0.72396 0.8874 0.0
C624 C 0.97707 0.75837 0.84665 0.0
C625 C 0.9567 0.76984 0.88477 0.0
N626 N 0.96036 0.77577 0.96084 0.0
N627 N 0.04458 0.7422 0.81397 0.0
C628 C 0.97434 0.75865 0.92421 0.0
C629 C 0.01785 0.74093 0.84861 0.0
N630 N 0.01647 0.70975 0.96129 0.0
N631 N 0.95681 0.76196 0.8086 0.0
H632 H 0.07587 0.73201 0.81445 0.0
H633 H 0.03773 0.75797 0.78622 0.0
H634 H 0.92588 0.77241 0.8054 0.0
H635 H 0.96864 0.74996 0.78064 0.0
H636 H 0.99731 0.71066 0.98842 0.0
H637 H 0.03957 0.68777 0.96294 0.0
H638 H 0.97515 0.77163 0.98995 0.0
H639 H 0.93744 0.79798 0.96152 0.0
C640 C 0.02727 0.25781 0.66994 0.0
C641 C 0.04823 0.26664 0.63041 0.0
C642 C 0.98346 0.23324 0.59323 0.0
C643 C 0.96336 0.22297 0.63277 0.0
N644 N 0.96785 0.21862 0.70855 0.0
N645 N 0.04958 0.25845 0.55474 0.0
C646 C 0.98572 0.23345 0.6711 0.0
C647 C 0.02733 0.2529 0.59211 0.0
N648 N 0.04705 0.27283 0.70641 0.0
N649 N 0.95995 0.22557 0.55687 0.0
H650 H 0.0809 0.2745 0.55249 0.0
H651 H 0.03828 0.24506 0.52629 0.0
H652 H 0.92811 0.21047 0.55661 0.0
H653 H 0.97065 0.23644 0.52725 0.0
H654 H 0.03135 0.2723 0.73558 0.0
H655 H 0.07873 0.28815 0.70739 0.0
H656 H 0.9844 0.22091 0.73725 0.0
H657 H 0.9374 0.20079 0.71063 0.0
C658 C 0.50333 0.23101 0.41817 0.0
C659 C 0.5348 0.23481 0.38518 0.0
C660 C 0.48915 0.28006 0.34526 0.0
C661 C 0.45875 0.2783 0.3793 0.0
N662 N 0.44207 0.26031 0.45197 0.0
N663 N 0.56301 0.27124 0.32242 0.0
C664 C 0.46736 0.25613 0.41692 0.0
C665 C 0.52928 0.26179 0.35021 0.0
N666 N 0.50684 0.20223 0.44988 0.0
N667 N 0.47903 0.29725 0.30735 0.0
H668 H 0.5932 0.25909 0.32526 0.0
H669 H 0.56266 0.29439 0.29906 0.0
H670 H 0.45033 0.31131 0.30195 0.0
H671 H 0.49749 0.29441 0.28004 0.0
H672 H 0.48234 0.19461 0.4722 0.0
H673 H 0.53267 0.18325 0.45186 0.0
H674 H 0.44935 0.24839 0.48151 0.0
H675 H 0.41626 0.27941 0.45262 0.0
C676 C 0.64088 0.51947 0.74227 0.0
C677 C 0.64075 0.51493 0.6976 0.0
C678 C 0.64216 0.43802 0.70544 0.0
C679 C 0.63739 0.44205 0.74986 0.0
N680 N 0.62325 0.48591 0.80973 0.0
N681 N 0.63178 0.46898 0.63675 0.0
C682 C 0.63415 0.4826 0.76808 0.0
C683 C 0.63859 0.47391 0.67919 0.0
N684 N 0.64969 0.55868 0.76026 0.0
N685 N 0.65238 0.40057 0.68834 0.0
H686 H 0.62789 0.49438 0.61656 0.0
H687 H 0.62548 0.43938 0.62236 0.0
H688 H 0.65726 0.37392 0.70644 0.0
H689 H 0.66064 0.39732 0.65666 0.0
H690 H 0.65479 0.56316 0.79254 0.0
H691 H 0.6563 0.58648 0.74275 0.0
H692 H 0.61597 0.51427 0.82352 0.0
H693 H 0.61722 0.45962 0.82953 0.0
C694 C 0.37621 0.01237 0.77283 0.0
C695 C 0.3644 0.05136 0.75651 0.0
C696 C 0.35063 0.01786 0.68737 0.0
C697 C 0.35617 0.97762 0.70528 0.0
N698 N 0.3665 0.93586 0.76798 0.0
N699 N 0.33211 0.08926 0.70018 0.0
C700 C 0.36711 0.9746 0.74878 0.0
C701 C 0.34948 0.05369 0.71423 0.0
N702 N 0.39733 0.01149 0.81076 0.0
N703 N 0.34786 0.02224 0.64455 0.0
H704 H 0.32905 0.11572 0.71918 0.0
H705 H 0.31659 0.09079 0.67104 0.0
H706 H 0.35027 0.99709 0.62365 0.0
H707 H 0.34804 0.05163 0.62966 0.0
H708 H 0.41075 0.98469 0.82203 0.0
H709 H 0.40547 0.03862 0.82895 0.0
H710 H 0.36931 0.93225 0.80054 0.0
H711 H 0.35892 0.9072 0.75228 0.0
C712 C 0.48678 0.2305 0.83834 0.0
C713 C 0.46205 0.22679 0.87629 0.0
C714 C 0.52173 0.26854 0.91378 0.0
C715 C 0.54793 0.2686 0.8768 0.0
N716 N 0.55878 0.24141 0.80665 0.0
N717 N 0.45823 0.23613 0.95176 0.0
C718 C 0.53142 0.24727 0.83981 0.0
C719 C 0.48013 0.24415 0.91453 0.0
N720 N 0.46719 0.21984 0.80051 0.0
N721 N 0.53585 0.29303 0.94761 0.0
H722 H 0.42788 0.2181 0.95359 0.0
H723 H 0.4718 0.24408 0.98118 0.0
H724 H 0.56595 0.31157 0.94811 0.0
H725 H 0.51623 0.29789 0.97367 0.0
H726 H 0.4825 0.22626 0.7715 0.0
H727 H 0.43419 0.20855 0.79771 0.0
H728 H 0.54953 0.22216 0.78083 0.0
H729 H 0.59203 0.25215 0.80674 0.0
C730 C 0.38526 0.53867 0.25516 0.0
C731 C 0.36698 0.53661 0.21395 0.0
C732 C 0.33432 0.46385 0.22731 0.0
C733 C 0.34944 0.46719 0.2697 0.0
N734 N 0.38321 0.50984 0.3262 0.0
N735 N 0.32025 0.49972 0.16176 0.0
C736 C 0.37358 0.50506 0.28419 0.0
C737 C 0.34025 0.49995 0.20037 0.0
N738 N 0.41362 0.57287 0.26664 0.0
N739 N 0.31612 0.42558 0.21219 0.0
H740 H 0.32584 0.52446 0.14003 0.0
H741 H 0.29604 0.47624 0.15221 0.0
H742 H 0.31142 0.39831 0.23075 0.0
H743 H 0.30906 0.41976 0.18045 0.0
H744 H 0.43212 0.57398 0.29423 0.0
H745 H 0.42104 0.59927 0.24726 0.0
H746 H 0.39641 0.53832 0.33962 0.0
H747 H 0.37445 0.48635 0.3486 0.0
C748 C 0.65529 0.00816 0.30043 0.0
C749 C 0.64367 0.04424 0.27817 0.0
C750 C 0.62179 0.99959 0.21692 0.0
C751 C 0.63821 0.96452 0.23731 0.0
N752 N 0.67683 0.93669 0.29593 0.0
N753 N 0.61912 0.07591 0.21431 0.0
C754 C 0.65625 0.96896 0.2786 0.0
C755 C 0.62787 0.04041 0.2361 0.0
N756 N 0.6657 0.0114 0.34236 0.0
N757 N 0.5988 0.99351 0.18006 0.0
H758 H 0.6206 0.106 0.22805 0.0
H759 H 0.61286 0.07605 0.182 0.0
H760 H 0.59296 0.96391 0.1655 0.0
H761 H 0.5821 0.0168 0.16587 0.0
H762 H 0.66962 0.98527 0.36146 0.0
H763 H 0.66702 0.03994 0.35903 0.0
H764 H 0.69483 0.93974 0.32381 0.0
H765 H 0.67951 0.9079 0.28064 0.0
C766 C 0.55385 0.73088 0.17644 0.0
C767 C 0.55784 0.76451 0.14653 0.0
C768 C 0.47966 0.75105 0.13009 0.0
C769 C 0.47671 0.71491 0.15698 0.0
N770 N 0.51289 0.66536 0.19907 0.0
N771 N 0.52693 0.80134 0.08886 0.0
C772 C 0.51441 0.7033 0.17817 0.0
C773 C 0.52142 0.77305 0.12153 0.0
N774 N 0.58676 0.72658 0.20477 0.0
N775 N 0.44249 0.76585 0.11451 0.0
H776 H 0.55716 0.81773 0.08133 0.0
H777 H 0.5025 0.80549 0.06684 0.0
H778 H 0.41106 0.75152 0.12084 0.0
H779 H 0.44253 0.79469 0.09864 0.0
H780 H 0.58358 0.70547 0.23009 0.0
H781 H 0.61569 0.74691 0.20567 0.0
H782 H 0.54057 0.65327 0.2114 0.0
H783 H 0.48472 0.64398 0.20049 0.0
loop_
_geom_bond_atom_site_label_1
_geom_bond_atom_site_label_2
_geom_bond_distance
_geom_bond_site_symmetry_2
_ccdc_geom_bond_type
C0 O1 1.160 . S
C0 O7 1.185 . S
O1 C0 1.160 . S
O2 Zn3 1.899 . S
O2 C10 1.284 . S
Zn3 O2 1.899 . S
Zn3 O4 2.032 . S
Zn3 O7 2.086 . S
Zn3 O12 1.977 . S
O4 Zn3 2.032 . S
O4 C8 1.278 . S
C5 O6 1.203 . S
C5 O12 1.267 . S
O6 C5 1.203 . S
O7 C0 1.185 . S
O7 Zn3 2.086 . S
C8 O4 1.278 . S
C8 O9 1.211 . S
O9 C8 1.211 . S
C10 O2 1.284 . S
C10 O11 1.273 . S
O11 C10 1.273 . S
O12 Zn3 1.977 . S
O12 C5 1.267 . S
C13 O14 1.160 . S
C13 O20 1.185 . S
O14 C13 1.160 . S
O15 Zn16 1.899 . S
O15 C23 1.284 . S
Zn16 O15 1.899 . S
Zn16 O17 2.032 . S
Zn16 O20 2.086 . S
Zn16 O25 1.977 . S
O17 Zn16 2.032 . S
O17 C21 1.278 . S
C18 O19 1.203 . S
C18 O25 1.267 . S
O19 C18 1.203 . S
O20 C13 1.185 . S
O20 Zn16 2.086 . S
C21 O17 1.278 . S
C21 O22 1.211 . S
O22 C21 1.211 . S
C23 O15 1.284 . S
C23 O24 1.273 . S
O24 C23 1.273 . S
O25 Zn16 1.977 . S
O25 C18 1.267 . S
C26 O27 1.160 . S
C26 O33 1.185 . S
O27 C26 1.160 . S
O28 Zn29 1.899 . S
O28 C36 1.284 . S
Zn29 O28 1.899 . S
Zn29 O30 2.032 . S
Zn29 O33 2.086 . S
Zn29 O38 1.977 . S
O30 Zn29 2.032 . S
O30 C34 1.278 . S
C31 O32 1.203 . S
C31 O38 1.267 . S
O32 C31 1.203 . S
O33 C26 1.185 . S
O33 Zn29 2.086 . S
C34 O30 1.278 . S
C34 O35 1.211 . S
O35 C34 1.211 . S
C36 O28 1.284 . S
C36 O37 1.273 . S
O37 C36 1.273 . S
O38 Zn29 1.977 . S
O38 C31 1.267 . S
C39 O40 1.160 . S
C39 O46 1.185 . S
O40 C39 1.160 . S
O41 Zn42 1.899 . S
O41 C49 1.284 . S
Zn42 O41 1.899 . S
Zn42 O43 2.032 . S
Zn42 O46 2.086 . S
Zn42 O51 1.977 . S
O43 Zn42 2.032 . S
O43 C47 1.278 . S
C44 O45 1.203 . S
C44 O51 1.267 . S
O45 C44 1.203 . S
O46 C39 1.185 . S
O46 Zn42 2.086 . S
C47 O43 1.278 . S
C47 O48 1.211 . S
O48 C47 1.211 . S
C49 O41 1.284 . S
C49 O50 1.273 . S
O50 C49 1.273 . S
O51 Zn42 1.977 . S
O51 C44 1.267 . S
C52 O53 1.160 . S
C52 O59 1.185 . S
O53 C52 1.160 . S
O54 Zn55 1.899 . S
O54 C62 1.284 . S
Zn55 O54 1.899 . S
Zn55 O56 2.032 . S
Zn55 O59 2.086 . S
Zn55 O64 1.977 . S
O56 Zn55 2.032 . S
O56 C60 1.278 . S
C57 O58 1.203 . S
C57 O64 1.267 . S
O58 C57 1.203 . S
O59 C52 1.185 . S
O59 Zn55 2.086 . S
C60 O56 1.278 . S
C60 O61 1.211 . S
O61 C60 1.211 . S
C62 O54 1.284 . S
C62 O63 1.273 . S
O63 C62 1.273 . S
O64 Zn55 1.977 . S
O64 C57 1.267 . S
C65 O66 1.160 . S
C65 O72 1.185 . S
O66 C65 1.160 . S
O67 Zn68 1.899 . S
O67 C75 1.284 . S
Zn68 O67 1.899 . S
Zn68 O69 2.032 . S
Zn68 O72 2.086 . S
Zn68 O77 1.977 . S
O69 Zn68 2.032 . S
O69 C73 1.278 . S
C70 O71 1.203 . S
C70 O77 1.267 . S
O71 C70 1.203 . S
O72 C65 1.185 . S
O72 Zn68 2.086 . S
C73 O69 1.278 . S
C73 O74 1.211 . S
O74 C73 1.211 . S
C75 O67 1.284 . S
C75 O76 1.273 . S
O76 C75 1.273 . S
O77 Zn68 1.977 . S
O77 C70 1.267 . S
C78 O79 1.160 . S
C78 O85 1.185 . S
O79 C78 1.160 . S
O80 Zn81 1.899 . S
O80 C88 1.284 . S
Zn81 O80 1.899 . S
Zn81 O82 2.032 . S
Zn81 O85 2.086 . S
Zn81 O90 1.977 . S
O82 Zn81 2.032 . S
O82 C86 1.278 . S
C83 O84 1.203 . S
C83 O90 1.267 . S
O84 C83 1.203 . S
O85 C78 1.185 . S
O85 Zn81 2.086 . S
C86 O82 1.278 . S
C86 O87 1.211 . S
O87 C86 1.211 . S
C88 O80 1.284 . S
C88 O89 1.273 . S
O89 C88 1.273 . S
O90 Zn81 1.977 . S
O90 C83 1.267 . S
C91 O92 1.160 . S
C91 O98 1.185 . S
O92 C91 1.160 . S
O93 Zn94 1.899 . S
O93 C101 1.284 . S
Zn94 O93 1.899 . S
Zn94 O95 2.032 . S
Zn94 O98 2.086 . S
Zn94 O103 1.977 . S
O95 Zn94 2.032 . S
O95 C99 1.278 . S
C96 O97 1.203 . S
C96 O103 1.267 . S
O97 C96 1.203 . S
O98 C91 1.185 . S
O98 Zn94 2.086 . S
C99 O95 1.278 . S
C99 O100 1.211 . S
O100 C99 1.211 . S
C101 O93 1.284 . S
C101 O102 1.273 . S
O102 C101 1.273 . S
O103 Zn94 1.977 . S
O103 C96 1.267 . S
C104 O105 1.160 . S
C104 O111 1.185 . S
O105 C104 1.160 . S
O106 Zn107 1.899 . S
O106 C114 1.284 . S
Zn107 O106 1.899 . S
Zn107 O108 2.032 . S
Zn107 O111 2.086 . S
Zn107 O116 1.977 . S
O108 Zn107 2.032 . S
O108 C112 1.278 . S
C109 O110 1.203 . S
C109 O116 1.267 . S
O110 C109 1.203 . S
O111 C104 1.185 . S
O111 Zn107 2.086 . S
C112 O108 1.278 . S
C112 O113 1.211 . S
O113 C112 1.211 . S
C114 O106 1.284 . S
C114 O115 1.273 . S
O115 C114 1.273 . S
O116 Zn107 1.977 . S
O116 C109 1.267 . S
C117 O118 1.160 . S
C117 O124 1.185 . S
O118 C117 1.160 . S
O119 Zn120 1.899 . S
O119 C127 1.284 . S
Zn120 O119 1.899 . S
Zn120 O121 2.032 . S
Zn120 O124 2.086 . S
Zn120 O129 1.977 . S
O121 Zn120 2.032 . S
O121 C125 1.278 . S
C122 O123 1.203 . S
C122 O129 1.267 . S
O123 C122 1.203 . S
O124 C117 1.185 . S
O124 Zn120 2.086 . S
C125 O121 1.278 . S
C125 O126 1.211 . S
O126 C125 1.211 . S
C127 O119 1.284 . S
C127 O128 1.273 . S
O128 C127 1.273 . S
O129 Zn120 1.977 . S
O129 C122 1.267 . S
C130 O131 1.160 . S
C130 O137 1.185 . S
O131 C130 1.160 . S
O132 Zn133 1.899 . S
O132 C140 1.284 . S
Zn133 O132 1.899 . S
Zn133 O134 2.032 . S
Zn133 O137 2.086 . S
Zn133 O142 1.977 . S
O134 Zn133 2.032 . S
O134 C138 1.278 . S
C135 O136 1.203 . S
C135 O142 1.267 . S
O136 C135 1.203 . S
O137 C130 1.185 . S
O137 Zn133 2.086 . S
C138 O134 1.278 . S
C138 O139 1.211 . S
O139 C138 1.211 . S
C140 O132 1.284 . S
C140 O141 1.273 . S
O141 C140 1.273 . S
O142 Zn133 1.977 . S
O142 C135 1.267 . S
C143 O144 1.160 . S
C143 O150 1.185 . S
O144 C143 1.160 . S
O145 Zn146 1.899 . S
O145 C153 1.284 . S
Zn146 O145 1.899 . S
Zn146 O147 2.032 . S
Zn146 O150 2.086 . S
Zn146 O155 1.977 . S
O147 Zn146 2.032 . S
O147 C151 1.278 . S
C148 O149 1.203 . S
C148 O155 1.267 . S
O149 C148 1.203 . S
O150 C143 1.185 . S
O150 Zn146 2.086 . S
C151 O147 1.278 . S
C151 O152 1.211 . S
O152 C151 1.211 . S
C153 O145 1.284 . S
C153 O154 1.273 . S
O154 C153 1.273 . S
O155 Zn146 1.977 . S
O155 C148 1.267 . S
C156 O157 1.160 . S
C156 O163 1.185 . S
O157 C156 1.160 . S
O158 Zn159 1.899 . S
O158 C166 1.284 . S
Zn159 O158 1.899 . S
Zn159 O160 2.032 . S
Zn159 O163 2.086 . S
Zn159 O168 1.977 . S
O160 Zn159 2.032 . S
O160 C164 1.278 . S
C161 O162 1.203 . S
C161 O168 1.267 . S
O162 C161 1.203 . S
O163 C156 1.185 . S
O163 Zn159 2.086 . S
C164 O160 1.278 . S
C164 O165 1.211 . S
O165 C164 1.211 . S
C166 O158 1.284 . S
C166 O167 1.273 . S
O167 C166 1.273 . S
O168 Zn159 1.977 . S
O168 C161 1.267 . S
C169 O170 1.160 . S
C169 O176 1.185 . S
O170 C169 1.160 . S
O171 Zn172 1.899 . S
O171 C179 1.284 . S
Zn172 O171 1.899 . S
Zn172 O173 2.032 . S
Zn172 O176 2.086 . S
Zn172 O181 1.977 . S
O173 Zn172 2.032 . S
O173 C177 1.278 . S
C174 O175 1.203 . S
C174 O181 1.267 . S
O175 C174 1.203 . S
O176 C169 1.185 . S
O176 Zn172 2.086 . S
C177 O173 1.278 . S
C177 O178 1.211 . S
O178 C177 1.211 . S
C179 O171 1.284 . S
C179 O180 1.273 . S
O180 C179 1.273 . S
O181 Zn172 1.977 . S
O181 C174 1.267 . S
C182 O183 1.160 . S
C182 O189 1.185 . S
O183 C182 1.160 . S
O184 Zn185 1.899 . S
O184 C192 1.284 . S
Zn185 O184 1.899 . S
Zn185 O186 2.032 . S
Zn185 O189 2.086 . S
Zn185 O194 1.977 . S
O186 Zn185 2.032 . S
O186 C190 1.278 . S
C187 O188 1.203 . S
C187 O194 1.267 . S
O188 C187 1.203 . S
O189 C182 1.185 . S
O189 Zn185 2.086 . S
C190 O186 1.278 . S
C190 O191 1.211 . S
O191 C190 1.211 . S
C192 O184 1.284 . S
C192 O193 1.273 . S
O193 C192 1.273 . S
O194 Zn185 1.977 . S
O194 C187 1.267 . S
C195 O196 1.160 . S
C195 O202 1.185 . S
O196 C195 1.160 . S
O197 Zn198 1.899 . S
O197 C205 1.284 . S
Zn198 O197 1.899 . S
Zn198 O199 2.032 . S
Zn198 O202 2.086 . S
Zn198 O207 1.977 . S
O199 Zn198 2.032 . S
O199 C203 1.278 . S
C200 O201 1.203 . S
C200 O207 1.267 . S
O201 C200 1.203 . S
O202 C195 1.185 . S
O202 Zn198 2.086 . S
C203 O199 1.278 . S
C203 O204 1.211 . S
O204 C203 1.211 . S
C205 O197 1.284 . S
C205 O206 1.273 . S
O206 C205 1.273 . S
O207 Zn198 1.977 . S
O207 C200 1.267 . S
C208 C209 1.363 . S
C208 C214 1.379 . S
C208 N216 1.356 . S
C209 C208 1.363 . S
C209 C215 1.363 . S
C210 C211 1.363 . S
C210 C215 1.379 . S
C210 N217 1.356 . S
C211 C210 1.363 . S
C211 C214 1.363 . S
N212 C214 1.356 . S
N212 H224 0.984 . S
N212 H225 0.985 . S
N213 C215 1.356 . S
N213 H218 0.984 . S
N213 H219 0.985 . S
C214 C208 1.379 . S
C214 C211 1.363 . S
C214 N212 1.356 . S
C215 C209 1.363 . S
C215 C210 1.379 . S
C215 N213 1.356 . S
N216 C208 1.356 . S
N216 H222 0.984 . S
N216 H223 0.984 . S
N217 C210 1.356 . S
N217 H220 0.984 . S
N217 H221 0.985 . S
H218 N213 0.984 . S
H219 N213 0.985 . S
H220 N217 0.984 . S
H221 N217 0.985 . S
H222 N216 0.984 . S
H223 N216 0.984 . S
H224 N212 0.984 . S
H225 N212 0.985 . S
C226 C227 1.363 . S
C226 C232 1.379 . S
C226 N234 1.356 . S
C227 C226 1.363 . S
C227 C233 1.363 . S
C228 C229 1.363 . S
C228 C233 1.379 . S
C228 N235 1.356 . S
C229 C228 1.363 . S
C229 C232 1.363 . S
N230 C232 1.356 . S
N230 H242 0.984 . S
N230 H243 0.985 . S
N231 C233 1.356 . S
N231 H236 0.984 . S
N231 H237 0.985 . S
C232 C226 1.379 . S
C232 C229 1.363 . S
C232 N230 1.356 . S
C233 C227 1.363 . S
C233 C228 1.379 . S
C233 N231 1.356 . S
N234 C226 1.356 . S
N234 H240 0.984 . S
N234 H241 0.984 . S
N235 C228 1.356 . S
N235 H238 0.984 . S
N235 H239 0.985 . S
H236 N231 0.984 . S
H237 N231 0.985 . S
H238 N235 0.984 . S
H239 N235 0.985 . S
H240 N234 0.984 . S
H241 N234 0.984 . S
H242 N230 0.984 . S
H243 N230 0.985 . S
C244 C245 1.363 . S
C244 C250 1.379 . S
C244 N252 1.356 . S
C245 C244 1.363 . S
C245 C251 1.363 . S
C246 C247 1.363 . S
C246 C251 1.379 . S
C246 N253 1.356 . S
C247 C246 1.363 . S
C247 C250 1.363 . S
N248 C250 1.356 . S
N248 H260 0.984 . S
N248 H261 0.985 . S
N249 C251 1.356 . S
N249 H254 0.984 . S
N249 H255 0.985 . S
C250 C244 1.379 . S
C250 C247 1.363 . S
C250 N248 1.356 . S
C251 C245 1.363 . S
C251 C246 1.379 . S
C251 N249 1.356 . S
N252 C244 1.356 . S
N252 H258 0.984 . S
N252 H259 0.984 . S
N253 C246 1.356 . S
N253 H256 0.984 . S
N253 H257 0.985 . S
H254 N249 0.984 . S
H255 N249 0.985 . S
H256 N253 0.984 . S
H257 N253 0.985 . S
H258 N252 0.984 . S
H259 N252 0.984 . S
H260 N248 0.984 . S
H261 N248 0.985 . S
C262 C263 1.363 . S
C262 C268 1.379 . S
C262 N270 1.356 . S
C263 C262 1.363 . S
C263 C269 1.363 . S
C264 C265 1.363 . S
C264 C269 1.379 . S
C264 N271 1.356 . S
C265 C264 1.363 . S
C265 C268 1.363 . S
N266 C268 1.356 . S
N266 H278 0.984 . S
N266 H279 0.985 . S
N267 C269 1.356 . S
N267 H272 0.984 . S
N267 H273 0.985 . S
C268 C262 1.379 . S
C268 C265 1.363 . S
C268 N266 1.356 . S
C269 C263 1.363 . S
C269 C264 1.379 . S
C269 N267 1.356 . S
N270 C262 1.356 . S
N270 H276 0.984 . S
N270 H277 0.984 . S
N271 C264 1.356 . S
N271 H274 0.984 . S
N271 H275 0.985 . S
H272 N267 0.984 . S
H273 N267 0.985 . S
H274 N271 0.984 . S
H275 N271 0.985 . S
H276 N270 0.984 . S
H277 N270 0.984 . S
H278 N266 0.984 . S
H279 N266 0.985 . S
C280 C281 1.363 . S
C280 C286 1.379 . S
C280 N288 1.356 . S
C281 C280 1.363 . S
C281 C287 1.363 . S
C282 C283 1.363 . S
C282 C287 1.379 . S
C282 N289 1.356 . S
C283 C282 1.363 . S
C283 C286 1.363 . S
N284 C286 1.356 . S
N284 H296 0.984 . S
N284 H297 0.985 . S
N285 C287 1.356 . S
N285 H290 0.984 . S
N285 H291 0.985 . S
C286 C280 1.379 . S
C286 C283 1.363 . S
C286 N284 1.356 . S
C287 C281 1.363 . S
C287 C282 1.379 . S
C287 N285 1.356 . S
N288 C280 1.356 . S
N288 H294 0.984 . S
N288 H295 0.984 . S
N289 C282 1.356 . S
N289 H292 0.984 . S
N289 H293 0.985 . S
H290 N285 0.984 . S
H291 N285 0.985 . S
H292 N289 0.984 . S
H293 N289 0.985 . S
H294 N288 0.984 . S
H295 N288 0.984 . S
H296 N284 0.984 . S
H297 N284 0.985 . S
C298 C299 1.363 . S
C298 C304 1.379 . S
C298 N306 1.356 . S
C299 C298 1.363 . S
C299 C305 1.363 . S
C300 C301 1.363 . S
C300 C305 1.379 . S
C300 N307 1.356 . S
C301 C300 1.363 . S
C301 C304 1.363 . S
N302 C304 1.356 . S
N302 H314 0.984 . S
N302 H315 0.985 . S
N303 C305 1.356 . S
N303 H308 0.984 . S
N303 H309 0.985 . S
C304 C298 1.379 . S
C304 C301 1.363 . S
C304 N302 1.356 . S
C305 C299 1.363 . S
C305 C300 1.379 . S
C305 N303 1.356 . S
N306 C298 1.356 . S
N306 H312 0.984 . S
N306 H313 0.984 . S
N307 C300 1.356 . S
N307 H310 0.984 . S
N307 H311 0.985 . S
H308 N303 0.984 . S
H309 N303 0.985 . S
H310 N307 0.984 . S
H311 N307 0.985 . S
H312 N306 0.984 . S
H313 N306 0.984 . S
H314 N302 0.984 . S
H315 N302 0.985 . S
C316 C317 1.363 . S
C316 C322 1.379 . S
C316 N324 1.356 . S
C317 C316 1.363 . S
C317 C323 1.363 . S
C318 C319 1.363 . S
C318 C323 1.379 . S
C318 N325 1.356 . S
C319 C318 1.363 . S
C319 C322 1.363 . S
N320 C322 1.356 . S
N320 H332 0.984 . S
N320 H333 0.985 . S
N321 C323 1.356 . S
N321 H326 0.984 . S
N321 H327 0.985 . S
C322 C316 1.379 . S
C322 C319 1.363 . S
C322 N320 1.356 . S
C323 C317 1.363 . S
C323 C318 1.379 . S
C323 N321 1.356 . S
N324 C316 1.356 . S
N324 H330 0.984 . S
N324 H331 0.984 . S
N325 C318 1.356 . S
N325 H328 0.984 . S
N325 H329 0.985 . S
H326 N321 0.984 . S
H327 N321 0.985 . S
H328 N325 0.984 . S
H329 N325 0.985 . S
H330 N324 0.984 . S
H331 N324 0.984 . S
H332 N320 0.984 . S
H333 N320 0.985 . S
C334 C335 1.363 . S
C334 C340 1.379 . S
C334 N342 1.356 . S
C335 C334 1.363 . S
C335 C341 1.363 . S
C336 C337 1.363 . S
C336 C341 1.379 . S
C336 N343 1.356 . S
C337 C336 1.363 . S
C337 C340 1.363 . S
N338 C340 1.356 . S
N338 H350 0.984 . S
N338 H351 0.985 . S
N339 C341 1.356 . S
N339 H344 0.984 . S
N339 H345 0.985 . S
C340 C334 1.379 . S
C340 C337 1.363 . S
C340 N338 1.356 . S
C341 C335 1.363 . S
C341 C336 1.379 . S
C341 N339 1.356 . S
N342 C334 1.356 . S
N342 H348 0.984 . S
N342 H349 0.984 . S
N343 C336 1.356 . S
N343 H346 0.984 . S
N343 H347 0.985 . S
H344 N339 0.984 . S
H345 N339 0.985 . S
H346 N343 0.984 . S
H347 N343 0.985 . S
H348 N342 0.984 . S
H349 N342 0.984 . S
H350 N338 0.984 . S
H351 N338 0.985 . S
C352 C353 1.363 1_545 S
C352 C358 1.379 . S
C352 N360 1.356 . S
C353 C352 1.363 1_565 S
C353 C359 1.363 . S
C354 C355 1.363 1_565 S
C354 C359 1.379 . S
C354 N361 1.356 1_565 S
C355 C354 1.363 1_545 S
C355 C358 1.363 . S
N356 C358 1.356 . S
N356 H368 0.984 . S
N356 H369 0.985 . S
N357 C359 1.356 . S
N357 H362 0.984 . S
N357 H363 0.985 . S
C358 C352 1.379 . S
C358 C355 1.363 . S
C358 N356 1.356 . S
C359 C353 1.363 . S
C359 C354 1.379 . S
C359 N357 1.356 . S
N360 C352 1.356 . S
N360 H366 0.984 . S
N360 H367 0.984 1_545 S
N361 C354 1.356 1_545 S
N361 H364 0.984 . S
N361 H365 0.985 1_545 S
H362 N357 0.984 . S
H363 N357 0.985 . S
H364 N361 0.984 . S
H365 N361 0.985 1_565 S
H366 N360 0.984 . S
H367 N360 0.984 1_565 S
H368 N356 0.984 . S
H369 N356 0.985 . S
C370 C371 1.363 . S
C370 C376 1.379 . S
C370 N378 1.356 . S
C371 C370 1.363 . S
C371 C377 1.363 . S
C372 C373 1.363 . S
C372 C377 1.379 . S
C372 N379 1.356 . S
C373 C372 1.363 . S
C373 C376 1.363 . S
N374 C376 1.356 . S
N374 H386 0.984 . S
N374 H387 0.985 . S
N375 C377 1.356 . S
N375 H380 0.984 . S
N375 H381 0.985 . S
C376 C370 1.379 . S
C376 C373 1.363 . S
C376 N374 1.356 . S
C377 C371 1.363 . S
C377 C372 1.379 . S
C377 N375 1.356 . S
N378 C370 1.356 . S
N378 H384 0.984 . S
N378 H385 0.984 . S
N379 C372 1.356 . S
N379 H382 0.984 . S
N379 H383 0.985 . S
H380 N375 0.984 . S
H381 N375 0.985 . S
H382 N379 0.984 . S
H383 N379 0.985 . S
H384 N378 0.984 . S
H385 N378 0.984 . S
H386 N374 0.984 . S
H387 N374 0.985 . S
C388 C389 1.371 . S
C388 C394 1.370 1_556 S
C388 N396 1.360 . S
C389 C388 1.371 . S
C389 C395 1.363 . S
C390 C391 1.363 . S
C390 C395 1.379 1_554 S
C390 N397 1.356 . S
C391 C390 1.363 . S
C391 C394 1.363 . S
N392 C394 1.356 . S
N392 H404 0.984 . S
N392 H405 0.985 . S
N393 C395 1.356 . S
N393 H398 0.984 . S
N393 H399 0.985 . S
C394 C388 1.370 1_554 S
C394 C391 1.363 . S
C394 N392 1.356 . S
C395 C389 1.363 . S
C395 C390 1.379 1_556 S
C395 N393 1.356 . S
N396 C388 1.360 . S
N396 H402 0.984 1_556 S
N396 H403 0.984 . S
N397 C390 1.356 . S
N397 H400 0.984 . S
N397 H401 0.985 . S
H398 N393 0.984 . S
H399 N393 0.985 . S
H400 N397 0.984 . S
H401 N397 0.985 . S
H402 N396 0.984 1_554 S
H403 N396 0.984 . S
H404 N392 0.984 . S
H405 N392 0.985 . S
C406 C407 1.363 . S
C406 C412 1.379 1_554 S
C406 N414 1.356 . S
C407 C406 1.363 . S
C407 C413 1.363 . S
C408 C409 1.380 . S
C408 C413 1.360 1_556 S
C408 N415 1.364 . S
C409 C408 1.380 . S
C409 C412 1.363 . S
N410 C412 1.356 . S
N410 H422 0.984 . S
N410 H423 0.985 . S
N411 C413 1.356 . S
N411 H416 0.984 . S
N411 H417 0.985 . S
C412 C406 1.379 1_556 S
C412 C409 1.363 . S
C412 N410 1.356 . S
C413 C407 1.363 . S
C413 C408 1.360 1_554 S
C413 N411 1.356 . S
N414 C406 1.356 . S
N414 H420 0.984 . S
N414 H421 0.984 . S
N415 C408 1.364 . S
N415 H418 0.984 . S
N415 H419 0.974 1_556 S
H416 N411 0.984 . S
H417 N411 0.985 . S
H418 N415 0.984 . S
H419 N415 0.974 1_554 S
H420 N414 0.984 . S
H421 N414 0.984 . S
H422 N410 0.984 . S
H423 N410 0.985 . S
C424 C425 1.363 . S
C424 C430 1.379 . S
C424 N432 1.356 . S
C425 C424 1.363 . S
C425 C431 1.363 . S
C426 C427 1.363 . S
C426 C431 1.379 . S
C426 N433 1.356 . S
C427 C426 1.363 . S
C427 C430 1.363 . S
N428 C430 1.356 . S
N428 H440 0.984 . S
N428 H441 0.985 . S
N429 C431 1.356 . S
N429 H434 0.984 . S
N429 H435 0.985 . S
C430 C424 1.379 . S
C430 C427 1.363 . S
C430 N428 1.356 . S
C431 C425 1.363 . S
C431 C426 1.379 . S
C431 N429 1.356 . S
N432 C424 1.356 . S
N432 H438 0.984 . S
N432 H439 0.984 . S
N433 C426 1.356 . S
N433 H436 0.984 . S
N433 H437 0.985 . S
H434 N429 0.984 . S
H435 N429 0.985 . S
H436 N433 0.984 . S
H437 N433 0.985 . S
H438 N432 0.984 . S
H439 N432 0.984 . S
H440 N428 0.984 . S
H441 N428 0.985 . S
C442 C443 1.363 . S
C442 C448 1.379 . S
C442 N450 1.356 . S
C443 C442 1.363 . S
C443 C449 1.363 . S
C444 C445 1.363 . S
C444 C449 1.379 . S
C444 N451 1.356 . S
C445 C444 1.363 . S
C445 C448 1.363 . S
N446 C448 1.356 . S
N446 H458 0.984 . S
N446 H459 0.985 . S
N447 C449 1.356 . S
N447 H452 0.984 . S
N447 H453 0.985 . S
C448 C442 1.379 . S
C448 C445 1.363 . S
C448 N446 1.356 . S
C449 C443 1.363 . S
C449 C444 1.379 . S
C449 N447 1.356 . S
N450 C442 1.356 . S
N450 H456 0.984 . S
N450 H457 0.984 . S
N451 C444 1.356 . S
N451 H454 0.984 . S
N451 H455 0.985 . S
H452 N447 0.984 . S
H453 N447 0.985 . S
H454 N451 0.984 . S
H455 N451 0.985 . S
H456 N450 0.984 . S
H457 N450 0.984 . S
H458 N446 0.984 . S
H459 N446 0.985 . S
C460 C461 1.363 . S
C460 C466 1.379 1_655 S
C460 N468 1.356 . S
C461 C460 1.363 . S
C461 C467 1.363 . S
C462 C463 1.363 . S
C462 C467 1.379 1_455 S
C462 N469 1.356 . S
C463 C462 1.363 . S
C463 C466 1.363 . S
N464 C466 1.356 . S
N464 H476 0.982 1_455 S
N464 H477 0.985 . S
N465 C467 1.356 . S
N465 H470 0.984 . S
N465 H471 0.982 1_655 S
C466 C460 1.379 1_455 S
C466 C463 1.363 . S
C466 N464 1.356 . S
C467 C461 1.363 . S
C467 C462 1.379 1_655 S
C467 N465 1.356 . S
N468 C460 1.356 . S
N468 H474 0.984 . S
N468 H475 0.984 . S
N469 C462 1.356 . S
N469 H472 0.984 . S
N469 H473 0.985 . S
H470 N465 0.984 . S
H471 N465 0.982 1_455 S
H472 N469 0.984 . S
H473 N469 0.985 . S
H474 N468 0.984 . S
H475 N468 0.984 . S
H476 N464 0.982 1_655 S
H477 N464 0.985 . S
C478 C479 1.363 . S
C478 C484 1.379 1_655 S
C478 N486 1.356 . S
C479 C478 1.363 . S
C479 C485 1.363 . S
C480 C481 1.363 . S
C480 C485 1.379 1_455 S
C480 N487 1.356 . S
C481 C480 1.363 . S
C481 C484 1.363 . S
N482 C484 1.356 . S
N482 H494 0.984 . S
N482 H495 0.985 . S
N483 C485 1.356 . S
N483 H488 0.984 . S
N483 H489 0.985 . S
C484 C478 1.379 1_455 S
C484 C481 1.363 . S
C484 N482 1.356 . S
C485 C479 1.363 . S
C485 C480 1.379 1_655 S
C485 N483 1.356 . S
N486 C478 1.356 . S
N486 H492 0.984 . S
N486 H493 0.984 . S
N487 C480 1.356 . S
N487 H490 0.984 . S
N487 H491 0.985 . S
H488 N483 0.984 . S
H489 N483 0.985 . S
H490 N487 0.984 . S
H491 N487 0.985 . S
H492 N486 0.984 . S
H493 N486 0.984 . S
H494 N482 0.984 . S
H495 N482 0.985 . S
C496 C497 1.363 . S
C496 C502 1.379 . S
C496 N504 1.356 . S
C497 C496 1.363 . S
C497 C503 1.363 . S
C498 C499 1.363 . S
C498 C503 1.379 . S
C498 N505 1.356 . S
C499 C498 1.363 . S
C499 C502 1.363 . S
N500 C502 1.356 . S
N500 H512 0.984 . S
N500 H513 0.985 . S
N501 C503 1.356 . S
N501 H506 0.984 . S
N501 H507 0.985 . S
C502 C496 1.379 . S
C502 C499 1.363 . S
C502 N500 1.356 . S
C503 C497 1.363 . S
C503 C498 1.379 . S
C503 N501 1.356 . S
N504 C496 1.356 . S
N504 H510 0.984 . S
N504 H511 0.984 . S
N505 C498 1.356 . S
N505 H508 0.984 . S
N505 H509 0.985 . S
H506 N501 0.984 . S
H507 N501 0.985 . S
H508 N505 0.984 . S
H509 N505 0.985 . S
H510 N504 0.984 . S
H511 N504 0.984 . S
H512 N500 0.984 . S
H513 N500 0.985 . S
C514 C515 1.363 . S
C514 C520 1.379 1_545 S
C514 N522 1.356 . S
C515 C514 1.363 . S
C515 C521 1.363 . S
C516 C517 1.363 1_545 S
C516 C521 1.379 . S
C516 N523 1.356 1_545 S
C517 C516 1.363 1_565 S
C517 C520 1.363 . S
N518 C520 1.356 . S
N518 H530 0.984 . S
N518 H531 0.985 . S
N519 C521 1.356 . S
N519 H524 0.984 . S
N519 H525 0.985 . S
C520 C514 1.379 1_565 S
C520 C517 1.363 . S
C520 N518 1.356 . S
C521 C515 1.363 . S
C521 C516 1.379 . S
C521 N519 1.356 . S
N522 C514 1.356 . S
N522 H528 0.984 . S
N522 H529 0.984 . S
N523 C516 1.356 1_565 S
N523 H526 0.984 . S
N523 H527 0.985 . S
H524 N519 0.984 . S
H525 N519 0.985 . S
H526 N523 0.984 . S
H527 N523 0.985 . S
H528 N522 0.984 . S
H529 N522 0.984 . S
H530 N518 0.984 . S
H531 N518 0.985 . S
C532 C533 1.363 . S
C532 C538 1.379 . S
C532 N540 1.356 . S
C533 C532 1.363 . S
C533 C539 1.363 . S
C534 C535 1.363 . S
C534 C539 1.379 . S
C534 N541 1.356 . S
C535 C534 1.363 . S
C535 C538 1.363 . S
N536 C538 1.356 . S
N536 H548 0.984 . S
N536 H549 0.985 . S
N537 C539 1.356 . S
N537 H542 0.984 . S
N537 H543 0.985 . S
C538 C532 1.379 . S
C538 C535 1.363 . S
C538 N536 1.356 . S
C539 C533 1.363 . S
C539 C534 1.379 . S
C539 N537 1.356 . S
N540 C532 1.356 . S
N540 H546 0.984 . S
N540 H547 0.984 . S
N541 C534 1.356 . S
N541 H544 0.984 . S
N541 H545 0.985 . S
H542 N537 0.984 . S
H543 N537 0.985 . S
H544 N541 0.984 . S
H545 N541 0.985 . S
H546 N540 0.984 . S
H547 N540 0.984 . S
H548 N536 0.984 . S
H549 N536 0.985 . S
C550 C551 1.363 1_556 S
C550 C556 1.379 . S
C550 N558 1.356 1_556 S
C551 C550 1.363 1_554 S
C551 C557 1.363 . S
C552 C553 1.363 . S
C552 C557 1.379 1_556 S
C552 N559 1.356 . S
C553 C552 1.363 . S
C553 C556 1.363 . S
N554 C556 1.356 . S
N554 H566 0.984 . S
N554 H567 0.985 . S
N555 C557 1.356 . S
N555 H560 0.984 . S
N555 H561 0.985 . S
C556 C550 1.379 . S
C556 C553 1.363 . S
C556 N554 1.356 . S
C557 C551 1.363 . S
C557 C552 1.379 1_554 S
C557 N555 1.356 . S
N558 C550 1.356 1_554 S
N558 H564 0.984 1_554 S
N558 H565 0.984 . S
N559 C552 1.356 . S
N559 H562 0.984 . S
N559 H563 0.985 1_556 S
H560 N555 0.984 . S
H561 N555 0.985 . S
H562 N559 0.984 . S
H563 N559 0.985 1_554 S
H564 N558 0.984 1_556 S
H565 N558 0.984 . S
H566 N554 0.984 . S
H567 N554 0.985 . S
C568 C569 1.363 . S
C568 C574 1.387 . S
C568 N576 1.356 . S
C569 C568 1.363 . S
C569 C575 1.363 . S
C570 C571 1.363 . S
C570 C575 1.379 1_554 S
C570 N577 1.356 . S
C571 C570 1.363 . S
C571 C574 1.355 1_554 S
N572 C574 1.353 1_554 S
N572 H584 0.984 1_554 S
N572 H585 0.985 . S
N573 C575 1.356 . S
N573 H578 0.984 . S
N573 H579 0.985 . S
C574 C568 1.387 . S
C574 C571 1.355 1_556 S
C574 N572 1.353 1_556 S
C575 C569 1.363 . S
C575 C570 1.379 1_556 S
C575 N573 1.356 . S
N576 C568 1.356 . S
N576 H582 0.984 . S
N576 H583 0.984 . S
N577 C570 1.356 . S
N577 H580 0.984 . S
N577 H581 0.985 . S
H578 N573 0.984 . S
H579 N573 0.985 . S
H580 N577 0.984 . S
H581 N577 0.985 . S
H582 N576 0.984 . S
H583 N576 0.984 . S
H584 N572 0.984 1_556 S
H585 N572 0.985 . S
C586 C587 1.363 . S
C586 C592 1.379 . S
C586 N594 1.356 . S
C587 C586 1.363 . S
C587 C593 1.363 . S
C588 C589 1.363 . S
C588 C593 1.379 . S
C588 N595 1.356 . S
C589 C588 1.363 . S
C589 C592 1.363 . S
N590 C592 1.356 . S
N590 H602 0.984 . S
N590 H603 0.985 . S
N591 C593 1.356 . S
N591 H596 0.984 . S
N591 H597 0.985 . S
C592 C586 1.379 . S
C592 C589 1.363 . S
C592 N590 1.356 . S
C593 C587 1.363 . S
C593 C588 1.379 . S
C593 N591 1.356 . S
N594 C586 1.356 . S
N594 H600 0.984 . S
N594 H601 0.984 . S
N595 C588 1.356 . S
N595 H598 0.984 . S
N595 H599 0.985 . S
H596 N591 0.984 . S
H597 N591 0.985 . S
H598 N595 0.984 . S
H599 N595 0.985 . S
H600 N594 0.984 . S
H601 N594 0.984 . S
H602 N590 0.984 . S
H603 N590 0.985 . S
C604 C605 1.363 . S
C604 C610 1.379 . S
C604 N612 1.356 . S
C605 C604 1.363 . S
C605 C611 1.363 . S
C606 C607 1.363 . S
C606 C611 1.379 . S
C606 N613 1.356 . S
C607 C606 1.363 . S
C607 C610 1.363 . S
N608 C610 1.356 . S
N608 H620 0.984 . S
N608 H621 0.985 . S
N609 C611 1.356 . S
N609 H614 0.984 . S
N609 H615 0.985 . S
C610 C604 1.379 . S
C610 C607 1.363 . S
C610 N608 1.356 . S
C611 C605 1.363 . S
C611 C606 1.379 . S
C611 N609 1.356 . S
N612 C604 1.356 . S
N612 H618 0.984 . S
N612 H619 0.984 . S
N613 C606 1.356 . S
N613 H616 0.984 . S
N613 H617 0.985 . S
H614 N609 0.984 . S
H615 N609 0.985 . S
H616 N613 0.984 . S
H617 N613 0.985 . S
H618 N612 0.984 . S
H619 N612 0.984 . S
H620 N608 0.984 . S
H621 N608 0.985 . S
C622 C623 1.363 1_655 S
C622 C628 1.379 . S
C622 N630 1.356 1_655 S
C623 C622 1.363 1_455 S
C623 C629 1.363 . S
C624 C625 1.363 1_455 S
C624 C629 1.379 . S
C624 N631 1.356 1_455 S
C625 C624 1.363 1_655 S
C625 C628 1.363 . S
N626 C628 1.356 . S
N626 H638 0.984 . S
N626 H639 0.985 . S
N627 C629 1.356 . S
N627 H632 0.984 . S
N627 H633 0.985 . S
C628 C622 1.379 . S
C628 C625 1.363 . S
C628 N626 1.356 . S
C629 C623 1.363 . S
C629 C624 1.379 . S
C629 N627 1.356 . S
N630 C622 1.356 1_455 S
N630 H636 0.984 1_455 S
N630 H637 0.984 . S
N631 C624 1.356 1_655 S
N631 H634 0.984 . S
N631 H635 0.985 1_655 S
H632 N627 0.984 . S
H633 N627 0.985 . S
H634 N631 0.984 . S
H635 N631 0.985 1_455 S
H636 N630 0.984 1_655 S
H637 N630 0.984 . S
H638 N626 0.984 . S
H639 N626 0.985 . S
C640 C641 1.363 . S
C640 C646 1.379 1_455 S
C640 N648 1.356 . S
C641 C640 1.363 . S
C641 C647 1.363 . S
C642 C643 1.363 . S
C642 C647 1.379 1_655 S
C642 N649 1.356 . S
C643 C642 1.363 . S
C643 C646 1.363 . S
N644 C646 1.356 . S
N644 H656 0.984 . S
N644 H657 0.985 . S
N645 C647 1.356 . S
N645 H650 0.984 . S
N645 H651 0.985 . S
C646 C640 1.379 1_655 S
C646 C643 1.363 . S
C646 N644 1.356 . S
C647 C641 1.363 . S
C647 C642 1.379 1_455 S
C647 N645 1.356 . S
N648 C640 1.356 . S
N648 H654 0.984 . S
N648 H655 0.984 . S
N649 C642 1.356 . S
N649 H652 0.984 . S
N649 H653 0.985 . S
H650 N645 0.984 . S
H651 N645 0.985 . S
H652 N649 0.984 . S
H653 N649 0.985 . S
H654 N648 0.984 . S
H655 N648 0.984 . S
H656 N644 0.984 . S
H657 N644 0.985 . S
C658 C659 1.363 . S
C658 C664 1.379 . S
C658 N666 1.356 . S
C659 C658 1.363 . S
C659 C665 1.363 . S
C660 C661 1.363 . S
C660 C665 1.379 . S
C660 N667 1.356 . S
C661 C660 1.363 . S
C661 C664 1.363 . S
N662 C664 1.356 . S
N662 H674 0.984 . S
N662 H675 0.985 . S
N663 C665 1.356 . S
N663 H668 0.984 . S
N663 H669 0.985 . S
C664 C658 1.379 . S
C664 C661 1.363 . S
C664 N662 1.356 . S
C665 C659 1.363 . S
C665 C660 1.379 . S
C665 N663 1.356 . S
N666 C658 1.356 . S
N666 H672 0.984 . S
N666 H673 0.984 . S
N667 C660 1.356 . S
N667 H670 0.984 . S
N667 H671 0.985 . S
H668 N663 0.984 . S
H669 N663 0.985 . S
H670 N667 0.984 . S
H671 N667 0.985 . S
H672 N666 0.984 . S
H673 N666 0.984 . S
H674 N662 0.984 . S
H675 N662 0.985 . S
C676 C677 1.363 . S
C676 C682 1.379 . S
C676 N684 1.356 . S
C677 C676 1.363 . S
C677 C683 1.363 . S
C678 C679 1.363 . S
C678 C683 1.379 . S
C678 N685 1.356 . S
C679 C678 1.363 . S
C679 C682 1.363 . S
N680 C682 1.356 . S
N680 H692 0.984 . S
N680 H693 0.985 . S
N681 C683 1.356 . S
N681 H686 0.984 . S
N681 H687 0.985 . S
C682 C676 1.379 . S
C682 C679 1.363 . S
C682 N680 1.356 . S
C683 C677 1.363 . S
C683 C678 1.379 . S
C683 N681 1.356 . S
N684 C676 1.356 . S
N684 H690 0.984 . S
N684 H691 0.984 . S
N685 C678 1.356 . S
N685 H688 0.984 . S
N685 H689 0.985 . S
H686 N681 0.984 . S
H687 N681 0.985 . S
H688 N685 0.984 . S
H689 N685 0.985 . S
H690 N684 0.984 . S
H691 N684 0.984 . S
H692 N680 0.984 . S
H693 N680 0.985 . S
C694 C695 1.363 1_565 S
C694 C700 1.379 . S
C694 N702 1.356 . S
C695 C694 1.363 1_545 S
C695 C701 1.363 . S
C696 C697 1.363 1_545 S
C696 C701 1.379 . S
C696 N703 1.357 . S
C697 C696 1.363 1_565 S
C697 C700 1.363 . S
N698 C700 1.356 . S
N698 H710 0.984 . S
N698 H711 0.985 . S
N699 C701 1.356 . S
N699 H704 0.984 . S
N699 H705 0.985 . S
C700 C694 1.379 . S
C700 C697 1.363 . S
C700 N698 1.356 . S
C701 C695 1.363 . S
C701 C696 1.379 . S
C701 N699 1.356 . S
N702 C694 1.356 . S
N702 H708 0.984 . S
N702 H709 0.984 1_565 S
N703 C696 1.357 . S
N703 H706 0.977 1_545 S
N703 H707 0.991 . S
H704 N699 0.984 . S
H705 N699 0.985 . S
H706 N703 0.977 1_565 S
H707 N703 0.991 . S
H708 N702 0.984 . S
H709 N702 0.984 1_545 S
H710 N698 0.984 . S
H711 N698 0.985 . S
C712 C713 1.363 . S
C712 C718 1.379 . S
C712 N720 1.356 . S
C713 C712 1.363 . S
C713 C719 1.363 . S
C714 C715 1.363 . S
C714 C719 1.379 . S
C714 N721 1.356 . S
C715 C714 1.363 . S
C715 C718 1.363 . S
N716 C718 1.356 . S
N716 H728 0.984 . S
N716 H729 0.985 . S
N717 C719 1.356 . S
N717 H722 0.984 . S
N717 H723 0.985 . S
C718 C712 1.379 . S
C718 C715 1.363 . S
C718 N716 1.356 . S
C719 C713 1.363 . S
C719 C714 1.379 . S
C719 N717 1.356 . S
N720 C712 1.356 . S
N720 H726 0.984 . S
N720 H727 0.984 . S
N721 C714 1.356 . S
N721 H724 0.984 . S
N721 H725 0.985 . S
H722 N717 0.984 . S
H723 N717 0.985 . S
H724 N721 0.984 . S
H725 N721 0.985 . S
H726 N720 0.984 . S
H727 N720 0.984 . S
H728 N716 0.984 . S
H729 N716 0.985 . S
C730 C731 1.363 . S
C730 C736 1.379 . S
C730 N738 1.356 . S
C731 C730 1.363 . S
C731 C737 1.363 . S
C732 C733 1.363 . S
C732 C737 1.379 . S
C732 N739 1.356 . S
C733 C732 1.363 . S
C733 C736 1.363 . S
N734 C736 1.356 . S
N734 H746 0.984 . S
N734 H747 0.985 . S
N735 C737 1.356 . S
N735 H740 0.984 . S
N735 H741 0.985 . S
C736 C730 1.379 . S
C736 C733 1.363 . S
C736 N734 1.356 . S
C737 C731 1.363 . S
C737 C732 1.379 . S
C737 N735 1.356 . S
N738 C730 1.356 . S
N738 H744 0.984 . S
N738 H745 0.984 . S
N739 C732 1.356 . S
N739 H742 0.984 . S
N739 H743 0.985 . S
H740 N735 0.984 . S
H741 N735 0.985 . S
H742 N739 0.984 . S
H743 N739 0.985 . S
H744 N738 0.984 . S
H745 N738 0.984 . S
H746 N734 0.984 . S
H747 N734 0.985 . S
C748 C749 1.363 1_565 S
C748 C754 1.379 . S
C748 N756 1.356 . S
C749 C748 1.363 1_545 S
C749 C755 1.363 . S
C750 C751 1.363 . S
C750 C755 1.379 1_565 S
C750 N757 1.356 . S
C751 C750 1.363 . S
C751 C754 1.363 . S
N752 C754 1.356 . S
N752 H764 0.984 . S
N752 H765 0.985 . S
N753 C755 1.356 . S
N753 H758 0.984 . S
N753 H759 0.985 . S
C754 C748 1.379 . S
C754 C751 1.363 . S
C754 N752 1.356 . S
C755 C749 1.363 . S
C755 C750 1.379 1_545 S
C755 N753 1.356 . S
N756 C748 1.356 . S
N756 H762 0.984 . S
N756 H763 0.984 1_565 S
N757 C750 1.356 . S
N757 H760 0.984 . S
N757 H761 0.985 1_565 S
H758 N753 0.984 . S
H759 N753 0.985 . S
H760 N757 0.984 . S
H761 N757 0.985 1_545 S
H762 N756 0.984 . S
H763 N756 0.984 1_545 S
H764 N752 0.984 . S
H765 N752 0.985 . S
C766 C767 1.363 . S
C766 C772 1.379 . S
C766 N774 1.356 . S
C767 C766 1.363 . S
C767 C773 1.363 . S
C768 C769 1.363 . S
C768 C773 1.379 . S
C768 N775 1.356 . S
C769 C768 1.363 . S
C769 C772 1.363 . S
N770 C772 1.356 . S
N770 H782 0.984 . S
N770 H783 0.985 . S
N771 C773 1.356 . S
N771 H776 0.984 . S
N771 H777 0.985 . S
C772 C766 1.379 . S
C772 C769 1.363 . S
C772 N770 1.356 . S
C773 C767 1.363 . S
C773 C768 1.379 . S
C773 N771 1.356 . S
N774 C766 1.356 . S
N774 H780 0.984 . S
N774 H781 0.984 . S
N775 C768 1.356 . S
N775 H778 0.984 . S
N775 H779 0.985 . S
H776 N771 0.984 . S
H777 N771 0.985 . S
H778 N775 0.984 . S
H779 N775 0.985 . S
H780 N774 0.984 . S
H781 N774 0.984 . S
H782 N770 0.984 . S
H783 N770 0.985 . S
C209 C8 1.143 . S
C211 C177 1.150 . S
C227 C21 1.143 . S
C229 C125 1.150 . S
C245 C190 1.198 . S
C247 C34 1.198 . S
C263 C47 1.198 . S
C265 C203 1.198 . S
C281 C60 1.143 . S
C283 C86 1.150 . S
C299 C138 1.143 . S
C301 C73 1.150 . S
C317 C151 1.198 . S
C319 C99 1.198 . S
C335 C112 1.198 . S
C337 C164 1.198 . S
C353 C26 1.542 . S
C355 C5 1.553 . S
C371 C18 1.553 . S
C373 C39 1.542 . S
C389 C161 1.575 . S
C391 C10 1.537 . S
C407 C23 1.537 . S
C409 C148 1.575 . S
C425 C62 1.537 . S
C427 C31 1.575 . S
C443 C140 1.537 . S
C445 C44 1.575 . S
C461 C13 1.510 . S
C463 C0 1.510 . S
C479 C49 1.518 . S
C481 C36 1.518 . S
C497 C130 1.510 . S
C499 C52 1.510 . S
C515 C96 1.564 . S
C517 C65 1.588 . S
C533 C78 1.588 . S
C535 C109 1.564 . S
C551 C195 1.564 . S
C553 C75 1.507 . S
C569 C88 1.507 . S
C571 C182 1.564 . S
C587 C127 1.507 . S
C589 C91 1.564 . S
C605 C104 1.564 . S
C607 C179 1.507 . S
C623 C83 1.565 . S
C625 C70 1.565 . S
C641 C114 1.464 . S
C643 C101 1.464 . S
C659 C122 1.565 . S
C661 C174 1.565 . S
C677 C135 1.553 . S
C679 C143 1.542 . S
C695 C156 1.542 . S
C697 C57 1.553 . S
C713 C166 1.518 . S
C715 C153 1.518 . S
C731 C187 1.564 . S
C733 C169 1.588 . S
C749 C117 1.588 . S
C751 C200 1.564 . S
C767 C205 1.464 . S
C769 C192 1.464 . S
