# Generated by pormake.
# Topology som, (6)-cn, num edge types: 1
# Building blocks:
#     Node 0, Type 0, BuildingBlock: MIFKUJ_clean_sbu_0, # of connection points: 6
#     Node 1, Type 0, BuildingBlock: MIFKUJ_clean_sbu_0, # of connection points: 6
#     Node 2, Type 0, BuildingBlock: MIFKUJ_clean_sbu_0, # of connection points: 6
#     Node 3, Type 0, BuildingBlock: MIFKUJ_clean_sbu_0, # of connection points: 6
#     Node 4, Type 0, BuildingBlock: MIFKUJ_clean_sbu_0, # of connection points: 6
#     Node 5, Type 0, BuildingBlock: MIFKUJ_clean_sbu_0, # of connection points: 6
#     Node 6, Type 0, BuildingBlock: MIFKUJ_clean_sbu_0, # of connection points: 6
#     Node 7, Type 0, BuildingBlock: MIFKUJ_clean_sbu_0, # of connection points: 6
#     Node 8, Type 0, BuildingBlock: MIFKUJ_clean_sbu_0, # of connection points: 6
#     Node 9, Type 0, BuildingBlock: MIFKUJ_clean_sbu_0, # of connection points: 6
#     Node 10, Type 0, BuildingBlock: MIFKUJ_clean_sbu_0, # of connection points: 6
#     Node 11, Type 0, BuildingBlock: MIFKUJ_clean_sbu_0, # of connection points: 6
#     Node 12, Type 0, BuildingBlock: MIFKUJ_clean_sbu_0, # of connection points: 6
#     Node 13, Type 0, BuildingBlock: MIFKUJ_clean_sbu_0, # of connection points: 6
#     Node 14, Type 0, BuildingBlock: MIFKUJ_clean_sbu_0, # of connection points: 6
#     Node 15, Type 0, BuildingBlock: MIFKUJ_clean_sbu_0, # of connection points: 6
#     Node 16, Type 0, BuildingBlock: MIFKUJ_clean_sbu_0, # of connection points: 6
#     Node 17, Type 0, BuildingBlock: MIFKUJ_clean_sbu_0, # of connection points: 6
#     Node 18, Type 0, BuildingBlock: MIFKUJ_clean_sbu_0, # of connection points: 6
#     Node 19, Type 0, BuildingBlock: MIFKUJ_clean_sbu_0, # of connection points: 6
#     Node 20, Type 0, BuildingBlock: MIFKUJ_clean_sbu_0, # of connection points: 6
#     Node 21, Type 0, BuildingBlock: MIFKUJ_clean_sbu_0, # of connection points: 6
#     Node 22, Type 0, BuildingBlock: MIFKUJ_clean_sbu_0, # of connection points: 6
#     Node 23, Type 0, BuildingBlock: MIFKUJ_clean_sbu_0, # of connection points: 6
#     Node 24, Type 0, BuildingBlock: MIFKUJ_clean_sbu_0, # of connection points: 6
#     Node 25, Type 0, BuildingBlock: MIFKUJ_clean_sbu_0, # of connection points: 6
#     Node 26, Type 0, BuildingBlock: MIFKUJ_clean_sbu_0, # of connection points: 6
#     Node 27, Type 0, BuildingBlock: MIFKUJ_clean_sbu_0, # of connection points: 6
#     Node 28, Type 0, BuildingBlock: MIFKUJ_clean_sbu_0, # of connection points: 6
#     Node 29, Type 0, BuildingBlock: MIFKUJ_clean_sbu_0, # of connection points: 6
#     Node 30, Type 0, BuildingBlock: MIFKUJ_clean_sbu_0, # of connection points: 6
#     Node 31, Type 0, BuildingBlock: MIFKUJ_clean_sbu_0, # of connection points: 6
#     Edge 32, Type (0, 0), BuildingBlock: OJICUG_clean_linker_0, # of connection points: 2
#     Edge 33, Type (0, 0), BuildingBlock: OJICUG_clean_linker_0, # of connection points: 2
#     Edge 34, Type (0, 0), BuildingBlock: OJICUG_clean_linker_0, # of connection points: 2
#     Edge 35, Type (0, 0), BuildingBlock: OJICUG_clean_linker_0, # of connection points: 2
#     Edge 36, Type (0, 0), BuildingBlock: OJICUG_clean_linker_0, # of connection points: 2
#     Edge 37, Type (0, 0), BuildingBlock: OJICUG_clean_linker_0, # of connection points: 2
#     Edge 38, Type (0, 0), BuildingBlock: OJICUG_clean_linker_0, # of connection points: 2
#     Edge 39, Type (0, 0), BuildingBlock: OJICUG_clean_linker_0, # of connection points: 2
#     Edge 40, Type (0, 0), BuildingBlock: OJICUG_clean_linker_0, # of connection points: 2
#     Edge 41, Type (0, 0), BuildingBlock: OJICUG_clean_linker_0, # of connection points: 2
#     Edge 42, Type (0, 0), BuildingBlock: OJICUG_clean_linker_0, # of connection points: 2
#     Edge 43, Type (0, 0), BuildingBlock: OJICUG_clean_linker_0, # of connection points: 2
#     Edge 44, Type (0, 0), BuildingBlock: OJICUG_clean_linker_0, # of connection points: 2
#     Edge 45, Type (0, 0), BuildingBlock: OJICUG_clean_linker_0, # of connection points: 2
#     Edge 46, Type (0, 0), BuildingBlock: OJICUG_clean_linker_0, # of connection points: 2
#     Edge 47, Type (0, 0), BuildingBlock: OJICUG_clean_linker_0, # of connection points: 2
#     Edge 48, Type (0, 0), BuildingBlock: OJICUG_clean_linker_0, # of connection points: 2
#     Edge 49, Type (0, 0), BuildingBlock: OJICUG_clean_linker_0, # of connection points: 2
#     Edge 50, Type (0, 0), BuildingBlock: OJICUG_clean_linker_0, # of connection points: 2
#     Edge 51, Type (0, 0), BuildingBlock: OJICUG_clean_linker_0, # of connection points: 2
#     Edge 52, Type (0, 0), BuildingBlock: OJICUG_clean_linker_0, # of connection points: 2
#     Edge 53, Type (0, 0), BuildingBlock: OJICUG_clean_linker_0, # of connection points: 2
#     Edge 54, Type (0, 0), BuildingBlock: OJICUG_clean_linker_0, # of connection points: 2
#     Edge 55, Type (0, 0), BuildingBlock: OJICUG_clean_linker_0, # of connection points: 2
#     Edge 56, Type (0, 0), BuildingBlock: OJICUG_clean_linker_0, # of connection points: 2
#     Edge 57, Type (0, 0), BuildingBlock: OJICUG_clean_linker_0, # of connection points: 2
#     Edge 58, Type (0, 0), BuildingBlock: OJICUG_clean_linker_0, # of connection points: 2
#     Edge 59, Type (0, 0), BuildingBlock: OJICUG_clean_linker_0, # of connection points: 2
#     Edge 60, Type (0, 0), BuildingBlock: OJICUG_clean_linker_0, # of connection points: 2
#     Edge 61, Type (0, 0), BuildingBlock: OJICUG_clean_linker_0, # of connection points: 2
#     Edge 62, Type (0, 0), BuildingBlock: OJICUG_clean_linker_0, # of connection points: 2
#     Edge 63, Type (0, 0), BuildingBlock: OJICUG_clean_linker_0, # of connection points: 2
#     Edge 64, Type (0, 0), BuildingBlock: OJICUG_clean_linker_0, # of connection points: 2
#     Edge 65, Type (0, 0), BuildingBlock: OJICUG_clean_linker_0, # of connection points: 2
#     Edge 66, Type (0, 0), BuildingBlock: OJICUG_clean_linker_0, # of connection points: 2
#     Edge 67, Type (0, 0), BuildingBlock: OJICUG_clean_linker_0, # of connection points: 2
#     Edge 68, Type (0, 0), BuildingBlock: OJICUG_clean_linker_0, # of connection points: 2
#     Edge 69, Type (0, 0), BuildingBlock: OJICUG_clean_linker_0, # of connection points: 2
#     Edge 70, Type (0, 0), BuildingBlock: OJICUG_clean_linker_0, # of connection points: 2
#     Edge 71, Type (0, 0), BuildingBlock: OJICUG_clean_linker_0, # of connection points: 2
#     Edge 72, Type (0, 0), BuildingBlock: OJICUG_clean_linker_0, # of connection points: 2
#     Edge 73, Type (0, 0), BuildingBlock: OJICUG_clean_linker_0, # of connection points: 2
#     Edge 74, Type (0, 0), BuildingBlock: OJICUG_clean_linker_0, # of connection points: 2
#     Edge 75, Type (0, 0), BuildingBlock: OJICUG_clean_linker_0, # of connection points: 2
#     Edge 76, Type (0, 0), BuildingBlock: OJICUG_clean_linker_0, # of connection points: 2
#     Edge 77, Type (0, 0), BuildingBlock: OJICUG_clean_linker_0, # of connection points: 2
#     Edge 78, Type (0, 0), BuildingBlock: OJICUG_clean_linker_0, # of connection points: 2
#     Edge 79, Type (0, 0), BuildingBlock: OJICUG_clean_linker_0, # of connection points: 2
#     Edge 80, Type (0, 0), BuildingBlock: OJICUG_clean_linker_0, # of connection points: 2
#     Edge 81, Type (0, 0), BuildingBlock: OJICUG_clean_linker_0, # of connection points: 2
#     Edge 82, Type (0, 0), BuildingBlock: OJICUG_clean_linker_0, # of connection points: 2
#     Edge 83, Type (0, 0), BuildingBlock: OJICUG_clean_linker_0, # of connection points: 2
#     Edge 84, Type (0, 0), BuildingBlock: OJICUG_clean_linker_0, # of connection points: 2
#     Edge 85, Type (0, 0), BuildingBlock: OJICUG_clean_linker_0, # of connection points: 2
#     Edge 86, Type (0, 0), BuildingBlock: OJICUG_clean_linker_0, # of connection points: 2
#     Edge 87, Type (0, 0), BuildingBlock: OJICUG_clean_linker_0, # of connection points: 2
#     Edge 88, Type (0, 0), BuildingBlock: OJICUG_clean_linker_0, # of connection points: 2
#     Edge 89, Type (0, 0), BuildingBlock: OJICUG_clean_linker_0, # of connection points: 2
#     Edge 90, Type (0, 0), BuildingBlock: OJICUG_clean_linker_0, # of connection points: 2
#     Edge 91, Type (0, 0), BuildingBlock: OJICUG_clean_linker_0, # of connection points: 2
#     Edge 92, Type (0, 0), BuildingBlock: OJICUG_clean_linker_0, # of connection points: 2
#     Edge 93, Type (0, 0), BuildingBlock: OJICUG_clean_linker_0, # of connection points: 2
#     Edge 94, Type (0, 0), BuildingBlock: OJICUG_clean_linker_0, # of connection points: 2
#     Edge 95, Type (0, 0), BuildingBlock: OJICUG_clean_linker_0, # of connection points: 2
#     Edge 96, Type (0, 0), BuildingBlock: OJICUG_clean_linker_0, # of connection points: 2
#     Edge 97, Type (0, 0), BuildingBlock: OJICUG_clean_linker_0, # of connection points: 2
#     Edge 98, Type (0, 0), BuildingBlock: OJICUG_clean_linker_0, # of connection points: 2
#     Edge 99, Type (0, 0), BuildingBlock: OJICUG_clean_linker_0, # of connection points: 2
#     Edge 100, Type (0, 0), BuildingBlock: OJICUG_clean_linker_0, # of connection points: 2
#     Edge 101, Type (0, 0), BuildingBlock: OJICUG_clean_linker_0, # of connection points: 2
#     Edge 102, Type (0, 0), BuildingBlock: OJICUG_clean_linker_0, # of connection points: 2
#     Edge 103, Type (0, 0), BuildingBlock: OJICUG_clean_linker_0, # of connection points: 2
#     Edge 104, Type (0, 0), BuildingBlock: OJICUG_clean_linker_0, # of connection points: 2
#     Edge 105, Type (0, 0), BuildingBlock: OJICUG_clean_linker_0, # of connection points: 2
#     Edge 106, Type (0, 0), BuildingBlock: OJICUG_clean_linker_0, # of connection points: 2
#     Edge 107, Type (0, 0), BuildingBlock: OJICUG_clean_linker_0, # of connection points: 2
#     Edge 108, Type (0, 0), BuildingBlock: OJICUG_clean_linker_0, # of connection points: 2
#     Edge 109, Type (0, 0), BuildingBlock: OJICUG_clean_linker_0, # of connection points: 2
#     Edge 110, Type (0, 0), BuildingBlock: OJICUG_clean_linker_0, # of connection points: 2
#     Edge 111, Type (0, 0), BuildingBlock: OJICUG_clean_linker_0, # of connection points: 2
#     Edge 112, Type (0, 0), BuildingBlock: OJICUG_clean_linker_0, # of connection points: 2
#     Edge 113, Type (0, 0), BuildingBlock: OJICUG_clean_linker_0, # of connection points: 2
#     Edge 114, Type (0, 0), BuildingBlock: OJICUG_clean_linker_0, # of connection points: 2
#     Edge 115, Type (0, 0), BuildingBlock: OJICUG_clean_linker_0, # of connection points: 2
#     Edge 116, Type (0, 0), BuildingBlock: OJICUG_clean_linker_0, # of connection points: 2
#     Edge 117, Type (0, 0), BuildingBlock: OJICUG_clean_linker_0, # of connection points: 2
#     Edge 118, Type (0, 0), BuildingBlock: OJICUG_clean_linker_0, # of connection points: 2
#     Edge 119, Type (0, 0), BuildingBlock: OJICUG_clean_linker_0, # of connection points: 2
#     Edge 120, Type (0, 0), BuildingBlock: OJICUG_clean_linker_0, # of connection points: 2
#     Edge 121, Type (0, 0), BuildingBlock: OJICUG_clean_linker_0, # of connection points: 2
#     Edge 122, Type (0, 0), BuildingBlock: OJICUG_clean_linker_0, # of connection points: 2
#     Edge 123, Type (0, 0), BuildingBlock: OJICUG_clean_linker_0, # of connection points: 2
#     Edge 124, Type (0, 0), BuildingBlock: OJICUG_clean_linker_0, # of connection points: 2
#     Edge 125, Type (0, 0), BuildingBlock: OJICUG_clean_linker_0, # of connection points: 2
#     Edge 126, Type (0, 0), BuildingBlock: OJICUG_clean_linker_0, # of connection points: 2
#     Edge 127, Type (0, 0), BuildingBlock: OJICUG_clean_linker_0, # of connection points: 2
# Relax obj value: 0.046
# Max RMSD: 0.096
# Mean RMSD: 0.096
data_MOF--net-som--node1-MIFKUJ_clean_sbu_0--edge1-OJICUG_clean_linker_0
_symmetry_space_group_name_H-M    P1
_symmetry_Int_Tables_number       1
_symmetry_cell_setting            triclinic
loop_
_symmetry_equiv_pos_as_xyz
'x, y, z'
_cell_length_a     14.702013
_cell_length_b     50.499432
_cell_length_c     80.59503
_cell_angle_alpha  90.005699
_cell_angle_beta   89.87352
_cell_angle_gamma 89.733405
loop_
_atom_site_label
_atom_site_type_symbol
_atom_site_fract_x
_atom_site_fract_y
_atom_site_fract_z
_atom_type_partial_charge
Zn0 Zn 0.16526 0.52354 0.03935 0.0
Zn1 Zn 0.9221 0.49202 0.04453 0.0
C2 C 0.15752 0.5771 0.0332 0.0
O3 O 0.19245 0.56687 0.0196 0.0
C4 C 0.89838 0.44007 0.05938 0.0
O5 O 0.8867 0.45387 0.07305 0.0
O6 O 0.29864 0.51908 0.03569 0.0
O7 O 0.1283 0.49796 0.05658 0.0
O8 O 0.98795 0.50605 0.06442 0.0
C9 C 0.35615 0.5241 0.04696 0.0
O10 O 0.32753 0.53279 0.06143 0.0
O11 O 0.1392 0.56173 0.04523 0.0
C12 C 0.73553 0.50026 0.03575 0.0
O13 O 0.76073 0.48739 0.02232 0.0
O14 O 0.79405 0.50503 0.04688 0.0
O15 O 0.96701 0.50112 0.02144 0.0
O16 O 0.10714 0.51654 0.01778 0.0
O17 O 0.91598 0.45212 0.04591 0.0
C18 C 0.07252 0.50614 0.06736 0.0
C19 C 0.03128 0.50901 0.01208 0.0
Zn20 Zn 0.08745 0.7431 0.04065 0.0
Zn21 Zn 0.33307 0.7917 0.04301 0.0
C22 C 0.07835 0.68924 0.03333 0.0
O23 O 0.04975 0.70032 0.01953 0.0
C24 C 0.38334 0.84268 0.05227 0.0
O25 O 0.40485 0.82837 0.06531 0.0
O26 O 0.95688 0.75565 0.03971 0.0
O27 O 0.16743 0.76441 0.05457 0.0
O28 O 0.27143 0.7888 0.06545 0.0
C29 C 0.89282 0.74783 0.0491 0.0
O30 O 0.91105 0.73128 0.06123 0.0
O31 O 0.09735 0.70401 0.0456 0.0
C32 C 0.52175 0.78011 0.03523 0.0
O33 O 0.50385 0.7946 0.02208 0.0
O34 O 0.45821 0.77534 0.04551 0.0
O35 O 0.26204 0.77428 0.02363 0.0
O36 O 0.14086 0.74936 0.01819 0.0
O37 O 0.35063 0.83109 0.03959 0.0
C38 C 0.19895 0.7757 0.06724 0.0
C39 C 0.2104 0.76226 0.01332 0.0
Zn40 Zn 0.16118 0.74785 0.16477 0.0
Zn41 Zn 0.93365 0.76012 0.15963 0.0
C42 C 0.14883 0.69407 0.17457 0.0
O43 O 0.17739 0.70539 0.18827 0.0
C44 C 0.92275 0.81435 0.14905 0.0
O45 O 0.90396 0.80281 0.13486 0.0
O46 O 0.29761 0.75116 0.16774 0.0
O47 O 0.12986 0.76902 0.14482 0.0
O48 O 1.00162 0.74897 0.13851 0.0
C49 C 0.35354 0.7477 0.15585 0.0
O50 O 0.32214 0.74161 0.14108 0.0
O51 O 0.13405 0.70855 0.16192 0.0
C52 C 0.74133 0.76012 0.16665 0.0
O53 O 0.77017 0.77171 0.18024 0.0
O54 O 0.79945 0.75266 0.15586 0.0
O55 O 0.96653 0.74547 0.18242 0.0
O56 O 0.10541 0.76141 0.18558 0.0
O57 O 0.94045 0.80004 0.16161 0.0
C58 C 0.07271 0.76143 0.1341 0.0
C59 C 0.02993 0.75416 0.19168 0.0
Zn60 Zn 0.09483 0.52614 0.16518 0.0
Zn61 Zn 0.32311 0.5147 0.15976 0.0
C62 C 0.10291 0.58001 0.17452 0.0
O63 O 0.07423 0.56866 0.18823 0.0
C64 C 0.33171 0.46085 0.14853 0.0
O65 O 0.35083 0.47285 0.13449 0.0
O66 O 0.95862 0.52194 0.168 0.0
O67 O 0.13089 0.50448 0.14573 0.0
O68 O 0.25342 0.52739 0.13956 0.0
C69 C 0.90328 0.52606 0.15614 0.0
O70 O 0.93538 0.53317 0.14159 0.0
O71 O 0.11897 0.56552 0.16192 0.0
C72 C 0.51485 0.5139 0.16649 0.0
O73 O 0.48517 0.50202 0.17994 0.0
O74 O 0.45731 0.52183 0.15578 0.0
O75 O 0.29159 0.52941 0.18231 0.0
O76 O 0.15163 0.51427 0.18615 0.0
O77 O 0.31425 0.47475 0.1613 0.0
C78 C 0.18353 0.51457 0.13505 0.0
C79 C 0.2276 0.52183 0.19183 0.0
Zn80 Zn 0.08897 0.52574 0.90838 0.0
Zn81 Zn 0.84845 0.49924 0.91358 0.0
C82 C 0.1061 0.57856 0.89396 0.0
O83 O 0.11594 0.56547 0.87998 0.0
C84 C 0.84697 0.44515 0.91868 0.0
O85 O 0.81224 0.45547 0.93227 0.0
O86 O 0.21829 0.51419 0.90555 0.0
O87 O 0.04819 0.51646 0.93172 0.0
O88 O 0.90428 0.50441 0.93549 0.0
C89 C 0.27692 0.5209 0.91627 0.0
O90 O 0.25048 0.53433 0.9294 0.0
O91 O 0.09149 0.56578 0.90729 0.0
C92 C 0.65891 0.50056 0.90515 0.0
O93 O 0.68889 0.49222 0.89068 0.0
O94 O 0.71524 0.50476 0.91674 0.0
O95 O 0.89039 0.52624 0.89745 0.0
O96 O 0.02162 0.51145 0.88861 0.0
O97 O 0.86994 0.4607 0.90698 0.0
C98 C 0.98236 0.50987 0.94114 0.0
C99 C 0.93888 0.51696 0.88588 0.0
Zn100 Zn 0.66542 0.24415 0.90765 0.0
Zn101 Zn 0.90547 0.27754 0.91277 0.0
C102 C 0.63812 0.19121 0.89376 0.0
O103 O 0.62414 0.20445 0.87996 0.0
C104 C 0.90474 0.33154 0.91836 0.0
O105 O 0.93863 0.32097 0.93192 0.0
O106 O 0.53613 0.25681 0.90537 0.0
O107 O 0.71075 0.25357 0.93091 0.0
O108 O 0.84763 0.27113 0.93461 0.0
C109 C 0.47743 0.25287 0.91668 0.0
O110 O 0.50271 0.24123 0.93052 0.0
O111 O 0.65869 0.20387 0.90687 0.0
C112 C 0.09702 0.27561 0.90491 0.0
O113 O 0.06822 0.28197 0.89 0.0
O114 O 0.0395 0.2729 0.91656 0.0
O115 O 0.87019 0.25027 0.89599 0.0
O116 O 0.73169 0.25744 0.88703 0.0
O117 O 0.88271 0.31618 0.9065 0.0
C118 C 0.77312 0.26245 0.94035 0.0
C119 C 0.81661 0.25609 0.88427 0.0
Zn120 Zn 0.08642 0.23298 0.79214 0.0
Zn121 Zn 0.83885 0.28164 0.79034 0.0
C122 C 0.13818 0.18155 0.80101 0.0
O123 O 0.16109 0.19556 0.81408 0.0
C124 C 0.82761 0.33585 0.78292 0.0
O125 O 0.80004 0.32498 0.76901 0.0
O126 O 0.21064 0.2497 0.79387 0.0
O127 O 0.00901 0.2507 0.77388 0.0
O128 O 0.889 0.27532 0.76744 0.0
C129 C 0.27686 0.24222 0.78483 0.0
O130 O 0.26263 0.22441 0.77325 0.0
O131 O 0.10366 0.19346 0.78858 0.0
C132 C 0.64322 0.27817 0.79825 0.0
O133 O 0.65829 0.29732 0.80891 0.0
O134 O 0.70931 0.2686 0.78997 0.0
O135 O 0.92016 0.26086 0.80499 0.0
O136 O 0.02924 0.23658 0.81485 0.0
O137 O 0.84643 0.32089 0.79513 0.0
C138 C 0.95893 0.26205 0.76302 0.0
C139 C 0.95679 0.24968 0.81734 0.0
Zn140 Zn 0.66366 0.536 0.79546 0.0
Zn141 Zn 0.90859 0.50173 0.79065 0.0
C142 C 0.63749 0.58798 0.81028 0.0
O143 O 0.62547 0.57427 0.82396 0.0
C144 C 0.90338 0.4481 0.78366 0.0
O145 O 0.93604 0.45874 0.77002 0.0
O146 O 0.53635 0.52269 0.79695 0.0
O147 O 0.71292 0.52705 0.77276 0.0
O148 O 0.85032 0.50941 0.76907 0.0
C149 C 0.47729 0.52806 0.78599 0.0
O150 O 0.50088 0.54221 0.77301 0.0
O151 O 0.65613 0.57584 0.79687 0.0
C152 C 0.10295 0.49843 0.79653 0.0
O153 O 0.07938 0.48386 0.80931 0.0
O154 O 0.04183 0.50756 0.78699 0.0
O155 O 0.86869 0.52663 0.80833 0.0
O156 O 0.7259 0.5215 0.81561 0.0
O157 O 0.88599 0.46311 0.79594 0.0
C158 C 0.77603 0.5184 0.76337 0.0
C159 C 0.80985 0.5197 0.81893 0.0
Zn160 Zn 0.16683 0.0312 0.53574 0.0
Zn161 Zn 0.92512 0.995 0.54088 0.0
C162 C 0.16623 0.08573 0.53112 0.0
O163 O 0.19714 0.07626 0.517 0.0
C164 C 0.89612 0.94316 0.55486 0.0
O165 O 0.87851 0.9573 0.56817 0.0
O166 O 0.30041 0.02556 0.53142 0.0
O167 O 0.1347 1.00542 0.55365 0.0
O168 O 0.9907 1.00785 0.56118 0.0
C169 C 0.35875 0.02949 0.54275 0.0
O170 O 0.33129 0.03832 0.55724 0.0
O171 O 0.14689 0.06951 0.54265 0.0
C172 C 0.73672 1.0019 0.53233 0.0
O173 O 0.76135 0.98813 0.51923 0.0
O174 O 0.79602 1.00768 0.54317 0.0
O175 O 0.97145 1.00598 0.51829 0.0
O176 O 0.10483 0.02532 0.51393 0.0
O177 O 0.91943 0.95493 0.54157 0.0
C178 C 0.0746 1.00982 0.56461 0.0
C179 C 0.03043 0.01596 0.50857 0.0
Zn180 Zn 0.10069 0.25217 0.54182 0.0
Zn181 Zn 0.34232 0.28415 0.54718 0.0
C182 C 0.10076 0.19872 0.53522 0.0
O183 O 0.06406 0.21003 0.52215 0.0
C184 C 0.36985 0.33677 0.56151 0.0
O185 O 0.38594 0.32343 0.5752 0.0
O186 O 0.96711 0.25725 0.53838 0.0
O187 O 0.14036 0.27866 0.5586 0.0
O188 O 0.27738 0.26954 0.56741 0.0
C189 C 0.90902 0.2522 0.54959 0.0
O190 O 0.93693 0.24321 0.56402 0.0
O191 O 0.12423 0.21335 0.54733 0.0
C192 C 0.52947 0.27545 0.53789 0.0
O193 O 0.50414 0.28728 0.52412 0.0
O194 O 0.47108 0.27149 0.54923 0.0
O195 O 0.29651 0.27552 0.52393 0.0
O196 O 0.15787 0.2592 0.52005 0.0
O197 O 0.34797 0.32425 0.54843 0.0
C198 C 0.19242 0.27074 0.57003 0.0
C199 C 0.23321 0.26745 0.51441 0.0
Zn200 Zn 0.16631 0.23287 0.66604 0.0
Zn201 Zn 0.91918 0.28047 0.66239 0.0
C202 C 0.17809 0.17886 0.67522 0.0
O203 O 0.19816 0.19044 0.68933 0.0
C204 C 0.87696 0.33196 0.65158 0.0
O205 O 0.85658 0.31781 0.63843 0.0
O206 O 0.29565 0.24584 0.66702 0.0
O207 O 0.09699 0.25122 0.64822 0.0
O208 O 0.97979 0.27492 0.64031 0.0
C209 C 0.35945 0.23836 0.65742 0.0
O210 O 0.3418 0.22137 0.64553 0.0
O211 O 0.1631 0.19321 0.66255 0.0
C212 C 0.72763 0.27388 0.66933 0.0
O213 O 0.74362 0.2922 0.68051 0.0
O214 O 0.79325 0.26508 0.6606 0.0
O215 O 0.98864 0.26502 0.68211 0.0
O216 O 0.11044 0.24092 0.68825 0.0
O217 O 0.90548 0.32016 0.66453 0.0
C218 C 0.05317 0.26287 0.63682 0.0
C219 C 0.04035 0.25394 0.69278 0.0
Zn220 Zn 0.10343 1.01244 0.66347 0.0
Zn221 Zn 0.32987 1.00403 0.6577 0.0
C222 C 0.12015 0.0656 0.67409 0.0
O223 O 0.0889 0.05426 0.68761 0.0
C224 C 0.34657 0.95142 0.64436 0.0
O225 O 0.36416 0.96487 0.63078 0.0
O226 O 0.9661 1.00981 0.66616 0.0
O227 O 0.13786 0.99287 0.64305 0.0
O228 O 0.25782 0.01744 0.63785 0.0
C229 C 0.91063 0.01699 0.65488 0.0
O230 O 0.94289 0.02628 0.64083 0.0
O231 O 0.13351 0.05143 0.66127 0.0
C232 C 0.5211 1.00602 0.66506 0.0
O233 O 0.49142 0.99423 0.67855 0.0
O234 O 0.46361 0.01303 0.65408 0.0
O235 O 0.29605 0.0163 0.68092 0.0
O236 O 0.15989 0.99838 0.68414 0.0
O237 O 0.32691 0.96396 0.65759 0.0
C238 C 0.1875 1.00525 0.63281 0.0
C239 C 0.23363 1.00704 0.69022 0.0
Zn240 Zn 0.08877 0.04172 0.40836 0.0
Zn241 Zn 0.84066 0.99536 0.41042 0.0
C242 C 0.13761 0.09297 0.3985 0.0
O243 O 0.15983 0.07895 0.38536 0.0
C244 C 0.83159 0.94182 0.41905 0.0
O245 O 0.80315 0.95328 0.43276 0.0
O246 O 0.21278 0.02484 0.40728 0.0
O247 O 0.0126 0.02572 0.42752 0.0
O248 O 0.8884 1.00235 0.43313 0.0
C249 C 0.2782 0.03307 0.41613 0.0
O250 O 0.26283 0.05181 0.42711 0.0
O251 O 0.10519 0.08115 0.41113 0.0
C252 C 0.64593 0.99726 0.40317 0.0
O253 O 0.66147 0.97585 0.39432 0.0
O254 O 0.71203 1.00896 0.41011 0.0
O255 O 0.92642 0.01476 0.39646 0.0
O256 O 0.03524 0.03712 0.38546 0.0
O257 O 0.84917 0.95612 0.40649 0.0
C258 C 0.9588 0.01478 0.43796 0.0
C259 C 0.9625 0.02425 0.38358 0.0
Zn260 Zn 0.66726 0.72947 0.41104 0.0
Zn261 Zn 0.91468 0.77644 0.41263 0.0
C262 C 0.61039 0.67891 0.40252 0.0
O263 O 0.58738 0.69312 0.38951 0.0
C264 C 0.91872 0.83033 0.42008 0.0
O265 O 0.94782 0.81969 0.43397 0.0
O266 O 0.54423 0.747 0.40885 0.0
O267 O 0.74226 0.74643 0.42997 0.0
O268 O 0.86554 0.77033 0.43536 0.0
C269 C 0.47894 0.74012 0.41824 0.0
O270 O 0.49457 0.7229 0.43012 0.0
O271 O 0.6466 0.69046 0.41487 0.0
C272 C 0.10998 0.77445 0.40485 0.0
O273 O 0.09317 0.79421 0.39468 0.0
O274 O 0.04474 0.76387 0.41276 0.0
O275 O 0.83203 0.75519 0.39927 0.0
O276 O 0.72701 0.73124 0.38844 0.0
O277 O 0.90251 0.81534 0.40779 0.0
C278 C 0.79516 0.75791 0.44028 0.0
C279 C 0.80037 0.74387 0.38663 0.0
Zn280 Zn 0.07927 0.75548 0.29595 0.0
Zn281 Zn 0.84887 0.77007 0.29028 0.0
C282 C 0.0986 0.70269 0.30953 0.0
O283 O 0.11586 0.71598 0.32318 0.0
C284 C 0.86051 0.82413 0.28232 0.0
O285 O 0.82962 0.81356 0.26855 0.0
O286 O 0.21141 0.76506 0.29973 0.0
O287 O 0.04853 0.7659 0.27211 0.0
O288 O 0.90076 0.75901 0.26864 0.0
C289 C 0.26983 0.75809 0.28888 0.0
O290 O 0.24178 0.74594 0.27543 0.0
O291 O 0.07873 0.71536 0.29638 0.0
C292 C 0.65685 0.77164 0.29948 0.0
O293 O 0.68845 0.77848 0.3141 0.0
O294 O 0.71253 0.76719 0.2877 0.0
O295 O 0.88346 0.74654 0.30899 0.0
O296 O 0.00644 0.76836 0.31604 0.0
O297 O 0.87704 0.80897 0.29457 0.0
C298 C 0.98008 0.762 0.26274 0.0
C299 C 0.93618 0.75526 0.3201 0.0
Zn300 Zn 0.6662 0.02416 0.29495 0.0
Zn301 Zn 0.90771 0.99175 0.28882 0.0
C302 C 0.6468 0.07739 0.30879 0.0
O303 O 0.63753 0.0645 0.32284 0.0
C304 C 0.91287 0.93786 0.28312 0.0
O305 O 0.94658 0.94873 0.26965 0.0
O306 O 0.53659 1.01245 0.29735 0.0
O307 O 0.7114 0.01398 0.27183 0.0
O308 O 0.8491 0.99727 0.26696 0.0
C309 C 0.47789 0.01828 0.28639 0.0
O310 O 0.50371 0.03119 0.27305 0.0
O311 O 0.66171 0.06438 0.29553 0.0
C312 C 0.09746 0.99517 0.29712 0.0
O313 O 0.06763 0.98831 0.31188 0.0
O314 O 0.04116 0.99756 0.28528 0.0
O315 O 0.86749 0.0189 0.30541 0.0
O316 O 0.73224 1.01067 0.31537 0.0
O317 O 0.88907 0.95297 0.29505 0.0
C318 C 0.77215 1.00528 0.26188 0.0
C319 C 0.81739 1.01243 0.31751 0.0
Zn320 Zn 0.65126 0.51677 0.54037 0.0
Zn321 Zn 0.42013 0.50345 0.54574 0.0
C322 C 0.644 0.57049 0.53164 0.0
O323 O 0.67759 0.55921 0.51826 0.0
C324 C 0.40722 0.45107 0.56035 0.0
O325 O 0.39138 0.46482 0.5739 0.0
O326 O 0.78719 0.51286 0.5381 0.0
O327 O 0.61128 0.49434 0.55916 0.0
O328 O 0.49136 0.51862 0.56491 0.0
C329 C 0.84274 0.51958 0.5494 0.0
O330 O 0.81106 0.52922 0.56342 0.0
O331 O 0.62462 0.55596 0.54403 0.0
C332 C 0.22993 0.5059 0.53861 0.0
O333 O 0.25868 0.49366 0.52518 0.0
O334 O 0.28781 0.51293 0.54944 0.0
O335 O 0.45171 0.51373 0.52214 0.0
O336 O 0.59954 0.50592 0.51882 0.0
O337 O 0.42419 0.46331 0.5469 0.0
C338 C 0.5634 0.50687 0.5696 0.0
C339 C 0.5207 0.50966 0.51288 0.0
Zn340 Zn 0.58789 0.73829 0.53766 0.0
Zn341 Zn 0.8293 0.77626 0.54321 0.0
C342 C 0.58906 0.68415 0.53014 0.0
O343 O 0.5634 0.69505 0.5161 0.0
C344 C 0.85418 0.82913 0.55666 0.0
O345 O 0.86886 0.81607 0.57051 0.0
O346 O 0.45461 0.74482 0.53316 0.0
O347 O 0.615 0.75991 0.55788 0.0
O348 O 0.7624 0.76364 0.56355 0.0
C349 C 0.39636 0.74189 0.54468 0.0
O350 O 0.42381 0.73363 0.55928 0.0
O351 O 0.60465 0.69912 0.54248 0.0
C352 C 0.01787 0.7691 0.53444 0.0
O353 O 0.9925 0.78186 0.521 0.0
O354 O 0.95901 0.76396 0.54554 0.0
O355 O 0.78506 0.76598 0.52055 0.0
O356 O 0.65201 0.74654 0.51641 0.0
O357 O 0.83423 0.81632 0.54359 0.0
C358 C 0.68068 0.75979 0.56809 0.0
C359 C 0.72556 0.75626 0.51093 0.0
Zn360 Zn 0.65992 0.75308 0.66334 0.0
Zn361 Zn 0.41662 0.78503 0.65857 0.0
C362 C 0.65798 0.69932 0.66882 0.0
O363 O 0.69384 0.70965 0.68225 0.0
C364 C 0.38836 0.83726 0.6442 0.0
O365 O 0.3728 0.82361 0.63063 0.0
O366 O 0.79317 0.75764 0.66692 0.0
O367 O 0.62013 0.78008 0.6469 0.0
O368 O 0.48255 0.77032 0.63871 0.0
C369 C 0.85124 0.753 0.65561 0.0
O370 O 0.82337 0.74478 0.64101 0.0
O371 O 0.63621 0.71475 0.65697 0.0
C372 C 0.22998 0.77555 0.66775 0.0
O373 O 0.25514 0.78632 0.68184 0.0
O374 O 0.28825 0.77253 0.65626 0.0
O375 O 0.46253 0.77559 0.68152 0.0
O376 O 0.6017 0.75909 0.68518 0.0
O377 O 0.4106 0.82503 0.65739 0.0
C378 C 0.56712 0.77171 0.6358 0.0
C379 C 0.52591 0.76708 0.69089 0.0
Zn380 Zn 0.58982 0.53275 0.66502 0.0
Zn381 Zn 0.83328 0.49947 0.66066 0.0
C382 C 0.58659 0.58677 0.67003 0.0
O383 O 0.5532 0.57672 0.68379 0.0
C384 C 0.85308 0.44612 0.64817 0.0
O385 O 0.87057 0.45838 0.63416 0.0
O386 O 0.45724 0.52673 0.66914 0.0
O387 O 0.62739 0.50685 0.64775 0.0
O388 O 0.7697 0.51243 0.64023 0.0
C389 C 0.39948 0.52953 0.6576 0.0
O390 O 0.42718 0.53714 0.64287 0.0
O391 O 0.60852 0.57106 0.65835 0.0
C392 C 0.02185 0.50443 0.66889 0.0
O393 O 0.99686 0.49118 0.68215 0.0
O394 O 0.96261 0.5106 0.65812 0.0
O395 O 0.78913 0.51068 0.68319 0.0
O396 O 0.65027 0.52732 0.68672 0.0
O397 O 0.83392 0.45967 0.66099 0.0
C398 C 0.68558 0.51309 0.63688 0.0
C399 C 0.72627 0.51973 0.69246 0.0
Zn400 Zn 0.57225 0.51127 0.41014 0.0
Zn401 Zn 0.34588 0.50295 0.41478 0.0
C402 C 0.58358 0.56497 0.3993 0.0
O403 O 0.60414 0.55304 0.38529 0.0
C404 C 0.35492 0.44896 0.4233 0.0
O405 O 0.32284 0.45981 0.43694 0.0
O406 O 0.70671 0.50361 0.4062 0.0
O407 O 0.53813 0.49673 0.43269 0.0
O408 O 0.40111 0.51451 0.4359 0.0
C409 C 0.76437 0.51191 0.41674 0.0
O410 O 0.73462 0.52415 0.43009 0.0
O411 O 0.56463 0.55104 0.41196 0.0
C412 C 0.15354 0.50142 0.40576 0.0
O413 O 0.18551 0.49321 0.39141 0.0
O414 O 0.2091 0.50685 0.41736 0.0
O415 O 0.38379 0.52497 0.39578 0.0
O416 O 0.50211 0.49999 0.38965 0.0
O417 O 0.37265 0.46386 0.411 0.0
C418 C 0.47506 0.50586 0.44196 0.0
C419 C 0.43415 0.51385 0.38508 0.0
Zn420 Zn 0.17919 0.26008 0.41011 0.0
Zn421 Zn 0.41451 0.28136 0.41564 0.0
C422 C 0.16812 0.20704 0.39628 0.0
O423 O 0.15241 0.21973 0.38234 0.0
C424 C 0.41166 0.33533 0.42286 0.0
O425 O 0.44359 0.32435 0.43645 0.0
O426 O 0.0471 0.26918 0.40657 0.0
O427 O 0.21006 0.26925 0.43387 0.0
O428 O 0.35905 0.27358 0.43754 0.0
C429 C 0.9886 0.26116 0.41704 0.0
O430 O 0.01634 0.2479 0.43013 0.0
O431 O 0.1841 0.2202 0.40938 0.0
C432 C 0.60409 0.27927 0.40675 0.0
O433 O 0.57265 0.28589 0.39206 0.0
O434 O 0.54876 0.27649 0.41874 0.0
O435 O 0.38038 0.25706 0.39714 0.0
O436 O 0.24917 0.27495 0.39045 0.0
O437 O 0.39215 0.32042 0.41065 0.0
C438 C 0.27896 0.27165 0.44327 0.0
C439 C 0.32697 0.26615 0.38623 0.0
Zn440 Zn 0.57748 0.24377 0.2928 0.0
Zn441 Zn 0.33531 0.28049 0.28773 0.0
C442 C 0.60278 0.19165 0.30719 0.0
O443 O 0.61834 0.20567 0.32061 0.0
C444 C 0.33593 0.33467 0.28141 0.0
O445 O 0.30626 0.32434 0.26748 0.0
O446 O 0.70717 0.25573 0.29498 0.0
O447 O 0.53395 0.25446 0.26994 0.0
O448 O 0.39923 0.27358 0.26612 0.0
C449 C 0.76576 0.25158 0.28365 0.0
O450 O 0.74068 0.23962 0.26994 0.0
O451 O 0.58168 0.2036 0.29383 0.0
C452 C 0.14241 0.27939 0.29422 0.0
O453 O 0.16807 0.28937 0.30849 0.0
O454 O 0.20211 0.27452 0.28321 0.0
O455 O 0.36674 0.25666 0.30684 0.0
O456 O 0.51284 0.25805 0.31308 0.0
O457 O 0.35362 0.31924 0.29345 0.0
C458 C 0.47358 0.26437 0.26046 0.0
C459 C 0.4299 0.26086 0.31719 0.0
Zn460 Zn 0.16949 0.5365 0.29452 0.0
Zn461 Zn 0.41442 0.50083 0.28918 0.0
C462 C 0.13985 0.58851 0.30888 0.0
O463 O 0.12708 0.57472 0.3225 0.0
C464 C 0.40829 0.44722 0.28268 0.0
O465 O 0.44241 0.45781 0.26915 0.0
O466 O 0.04216 0.52296 0.29653 0.0
O467 O 0.21897 0.52701 0.27193 0.0
O468 O 0.35558 0.50889 0.26771 0.0
C469 C 0.98397 0.5265 0.28512 0.0
O470 O 0.00864 0.53853 0.27139 0.0
O471 O 0.16035 0.57644 0.29553 0.0
C472 C 0.60642 0.5013 0.29665 0.0
O473 O 0.57878 0.49356 0.31135 0.0
O474 O 0.54819 0.50528 0.2853 0.0
O475 O 0.37768 0.52664 0.30648 0.0
O476 O 0.23546 0.52301 0.31454 0.0
O477 O 0.38923 0.46236 0.29483 0.0
C478 C 0.28089 0.51815 0.26234 0.0
C479 C 0.31977 0.52042 0.31739 0.0
Zn480 Zn 0.65457 0.02156 0.04129 0.0
Zn481 Zn 0.42741 1.01074 0.04649 0.0
C482 C 0.64363 0.0754 0.03231 0.0
O483 O 0.67401 0.06423 0.01864 0.0
C484 C 0.41148 0.95669 0.05656 0.0
O485 O 0.39011 0.96836 0.07063 0.0
O486 O 0.79129 0.01822 0.03832 0.0
O487 O 0.62177 0.9995 0.06072 0.0
O488 O 0.49623 0.02085 0.06761 0.0
C489 C 0.84686 0.02316 0.05 0.0
O490 O 0.81481 0.03061 0.06451 0.0
O491 O 0.62703 0.06075 0.04479 0.0
C492 C 0.23585 1.01144 0.03944 0.0
O493 O 0.26572 0.9998 0.02589 0.0
O494 O 0.29325 0.01876 0.05031 0.0
O495 O 0.46096 0.02587 0.0239 0.0
O496 O 0.59914 1.00919 0.02029 0.0
O497 O 0.43295 0.97089 0.04415 0.0
C498 C 0.5665 1.0076 0.07171 0.0
C499 C 0.52405 0.01731 0.01442 0.0
Zn500 Zn 0.59564 0.24347 0.03905 0.0
Zn501 Zn 0.83373 0.27358 0.045 0.0
C502 C 0.59769 0.18953 0.0323 0.0
O503 O 0.56715 0.20057 0.01862 0.0
C504 C 0.85545 0.326 0.05987 0.0
O505 O 0.86821 0.31248 0.0736 0.0
O506 O 0.46145 0.24809 0.0353 0.0
O507 O 0.62659 0.26955 0.05687 0.0
O508 O 0.76501 0.25972 0.06527 0.0
C509 C 0.40534 0.24644 0.04726 0.0
O510 O 0.4359 0.24108 0.0622 0.0
O511 O 0.61741 0.20448 0.0445 0.0
C512 C 0.02294 0.26782 0.03656 0.0
O513 O 0.99671 0.28065 0.0232 0.0
O514 O 0.96417 0.26189 0.04752 0.0
O515 O 0.79376 0.26573 0.02124 0.0
O516 O 0.65328 0.25099 0.0174 0.0
O517 O 0.83777 0.31363 0.04652 0.0
C518 C 0.68183 0.26441 0.06848 0.0
C519 C 0.72934 0.2585 0.01172 0.0
Zn520 Zn 0.66326 0.24717 0.1618 0.0
Zn521 Zn 0.41577 0.29526 0.16011 0.0
C522 C 0.67042 0.19336 0.16983 0.0
O523 O 0.69902 0.20453 0.18358 0.0
C524 C 0.36206 0.34662 0.1511 0.0
O525 O 0.33992 0.33267 0.13797 0.0
O526 O 0.79309 0.25996 0.16204 0.0
O527 O 0.58096 0.26794 0.14784 0.0
O528 O 0.47384 0.29185 0.13734 0.0
C529 C 0.85939 0.24951 0.15425 0.0
O530 O 0.84435 0.22955 0.14418 0.0
O531 O 0.65325 0.20796 0.15737 0.0
C532 C 0.22591 0.28554 0.16739 0.0
O533 O 0.24049 0.30302 0.17915 0.0
O534 O 0.2918 0.27843 0.15815 0.0
O535 O 0.48858 0.27828 0.17953 0.0
O536 O 0.61242 0.25387 0.18442 0.0
O537 O 0.39668 0.3347 0.16352 0.0
C538 C 0.5463 0.27867 0.13521 0.0
C539 C 0.54245 0.26643 0.1896 0.0
Zn540 Zn 0.58892 0.02767 0.16342 0.0
Zn541 Zn 0.8362 0.97927 0.16193 0.0
C542 C 0.58532 0.08179 0.17075 0.0
O543 O 0.55632 0.07126 0.18469 0.0
C544 C 0.89351 0.92845 0.15314 0.0
O545 O 0.91643 0.94277 0.14019 0.0
O546 O 0.45879 0.01508 0.16338 0.0
O547 O 0.67328 1.00588 0.15058 0.0
O548 O 0.77621 0.98131 0.13934 0.0
C549 C 0.39297 0.02524 0.15535 0.0
O550 O 0.40856 0.0449 0.14507 0.0
O551 O 0.60157 0.06667 0.15848 0.0
C552 C 0.02581 0.9895 0.16875 0.0
O553 O 0.01159 0.97185 0.18044 0.0
O554 O 0.95953 0.9967 0.15968 0.0
O555 O 0.7594 0.99645 0.18088 0.0
O556 O 0.63662 0.02116 0.1862 0.0
O557 O 0.85729 0.93999 0.16558 0.0
C558 C 0.70326 0.99442 0.13781 0.0
C559 C 0.70591 1.0081 0.19117 0.0
Zn560 Zn 0.57765 0.02449 0.91007 0.0
Zn561 Zn 0.34351 1.00542 0.91553 0.0
C562 C 0.59432 0.07693 0.89486 0.0
O563 O 0.60808 0.06314 0.88124 0.0
C564 C 0.35169 0.95117 0.92254 0.0
O565 O 0.31734 0.96161 0.93613 0.0
O566 O 0.70882 0.01389 0.90662 0.0
O567 O 0.5454 0.01597 0.93395 0.0
O568 O 0.39562 0.01416 0.93757 0.0
C569 C 0.76702 0.02005 0.91759 0.0
O570 O 0.73935 0.0323 0.93108 0.0
O571 O 0.57718 0.06474 0.90832 0.0
C572 C 0.15243 1.00355 0.90675 0.0
O573 O 0.18374 0.99547 0.89232 0.0
O574 O 0.20819 1.00886 0.91829 0.0
O575 O 0.37917 0.02987 0.89717 0.0
O576 O 0.50573 1.00868 0.89103 0.0
O577 O 0.37096 0.96651 0.91052 0.0
C578 C 0.47576 0.01501 0.94334 0.0
C579 C 0.43142 0.01934 0.88657 0.0
Zn580 Zn 0.1734 0.74454 0.91029 0.0
Zn581 Zn 0.41428 0.7835 0.91558 0.0
C582 C 0.1492 0.69264 0.89548 0.0
O583 O 0.13178 0.70679 0.88217 0.0
C584 C 0.4138 0.83767 0.92256 0.0
O585 O 0.44271 0.82675 0.93639 0.0
O586 O 0.0429 0.75624 0.90853 0.0
O587 O 0.22005 0.75474 0.93295 0.0
O588 O 0.3511 0.77551 0.93707 0.0
C589 C 0.98447 0.75232 0.9199 0.0
O590 O 0.00997 0.74081 0.93376 0.0
O591 O 0.17118 0.70444 0.90883 0.0
C592 C 0.60676 0.7792 0.90854 0.0
O593 O 0.58025 0.78649 0.89369 0.0
O594 O 0.54788 0.77706 0.92002 0.0
O595 O 0.38147 0.75984 0.89649 0.0
O596 O 0.23549 0.75971 0.89017 0.0
O597 O 0.39588 0.82264 0.91034 0.0
C598 C 0.27882 0.76496 0.94257 0.0
C599 C 0.31775 0.76397 0.8862 0.0
Zn600 Zn 0.57978 0.75428 0.79498 0.0
Zn601 Zn 0.33968 0.78328 0.78891 0.0
C602 C 0.59641 0.70214 0.81032 0.0
O603 O 0.61033 0.71579 0.82396 0.0
C604 C 0.34106 0.83713 0.78187 0.0
O605 O 0.30984 0.82599 0.7683 0.0
O606 O 0.71049 0.76481 0.79761 0.0
O607 O 0.54147 0.76237 0.77138 0.0
O608 O 0.39916 0.77601 0.76741 0.0
C609 C 0.76911 0.75851 0.78668 0.0
O610 O 0.74264 0.74588 0.77329 0.0
O611 O 0.57959 0.71438 0.79688 0.0
C612 C 0.15043 0.78007 0.79719 0.0
O613 O 0.1807 0.7864 0.81199 0.0
O614 O 0.20644 0.77796 0.78525 0.0
O615 O 0.37581 0.75777 0.80662 0.0
O616 O 0.51175 0.77019 0.81446 0.0
O617 O 0.36027 0.82233 0.79419 0.0
C618 C 0.47653 0.76921 0.76186 0.0
C619 C 0.42849 0.76623 0.81777 0.0
Zn620 Zn 0.18196 0.01331 0.79328 0.0
Zn621 Zn 0.40743 1.00505 0.78889 0.0
C622 C 0.1689 0.06732 0.80413 0.0
O623 O 0.14838 0.05544 0.81814 0.0
C624 C 0.39885 0.95063 0.7804 0.0
O625 O 0.43023 0.9611 0.76661 0.0
O626 O 0.04745 1.00575 0.79717 0.0
O627 O 0.21577 0.99847 0.77076 0.0
O628 O 0.35143 0.01664 0.76752 0.0
C629 C 0.98947 0.01329 0.78642 0.0
O630 O 0.01871 0.02485 0.77282 0.0
O631 O 0.18891 0.0533 0.79153 0.0
C632 C 0.60058 1.00267 0.79756 0.0
O633 O 0.5693 0.99403 0.81185 0.0
O634 O 0.54438 1.00869 0.78615 0.0
O635 O 0.37018 0.02649 0.80855 0.0
O636 O 0.25198 1.0011 0.81372 0.0
O637 O 0.38173 0.96585 0.7926 0.0
C638 C 0.27846 1.00746 0.76142 0.0
C639 C 0.31842 0.01492 0.8188 0.0
C640 C 0.88379 0.39693 0.07462 0.0
C641 C 0.88795 0.41088 0.05954 0.0
H642 H 0.87069 0.35924 0.08656 0.0
C643 C 0.8806 0.39671 0.04459 0.0
H644 H 0.88932 0.40726 0.08635 0.0
C645 C 0.86893 0.36923 0.04471 0.0
C646 C 0.86534 0.35523 0.05978 0.0
H647 H 0.88309 0.40685 0.03276 0.0
H648 H 0.86353 0.35894 0.03297 0.0
C649 C 0.87313 0.3694 0.07473 0.0
C650 C 0.40156 0.91497 0.03962 0.0
C651 C 0.4073 0.9275 0.05518 0.0
H652 H 0.3881 0.8782 0.02643 0.0
C653 C 0.40624 0.9119 0.06958 0.0
H654 H 0.40175 0.92651 0.02829 0.0
C655 C 0.39967 0.8844 0.06851 0.0
C656 C 0.39246 0.87182 0.05301 0.0
H657 H 0.41064 0.92092 0.08175 0.0
H658 H 0.39875 0.87301 0.0799 0.0
C659 C 0.39333 0.88736 0.03855 0.0
C660 C 0.90137 0.88375 0.16693 0.0
C661 C 0.90421 0.89931 0.15249 0.0
H662 H 0.90671 0.84457 0.17723 0.0
C663 C 0.91587 0.88672 0.13706 0.0
H664 H 0.89274 0.89291 0.17899 0.0
C665 C 0.92259 0.8592 0.13603 0.0
C666 C 0.91938 0.84357 0.15042 0.0
H667 H 0.918 0.89811 0.12568 0.0
H668 H 0.93018 0.85015 0.12391 0.0
C669 C 0.90976 0.85612 0.16592 0.0
C670 C 0.33224 0.41643 0.13491 0.0
C671 C 0.33512 0.43158 0.1495 0.0
H672 H 0.33751 0.37787 0.12404 0.0
C673 C 0.34486 0.41851 0.16483 0.0
H674 H 0.3246 0.42587 0.12292 0.0
C675 C 0.35367 0.39087 0.16546 0.0
C676 C 0.35122 0.37579 0.15081 0.0
H677 H 0.3477 0.42968 0.17629 0.0
H678 H 0.36233 0.38132 0.17739 0.0
C679 C 0.33944 0.38888 0.13557 0.0
C680 C 0.12453 0.62125 0.90953 0.0
C681 C 0.11615 0.60778 0.89434 0.0
H682 H 0.14263 0.65847 0.92181 0.0
C683 C 0.11946 0.62244 0.87953 0.0
H684 H 0.12266 0.61055 0.92118 0.0
C685 C 0.13034 0.64997 0.87991 0.0
C686 C 0.13929 0.66342 0.89509 0.0
H687 H 0.11326 0.61269 0.86762 0.0
H688 H 0.13218 0.66068 0.86827 0.0
C689 C 0.1365 0.64873 0.9099 0.0
C690 C 0.61842 0.14757 0.87926 0.0
C691 C 0.62714 0.16195 0.89411 0.0
H692 H 0.60148 0.1096 0.86783 0.0
C693 C 0.62365 0.14813 0.90925 0.0
H694 H 0.62074 0.15755 0.86737 0.0
C695 C 0.61146 0.12062 0.90952 0.0
C696 C 0.60357 0.10623 0.89465 0.0
H697 H 0.62971 0.15858 0.92093 0.0
H698 H 0.60936 0.11059 0.9214 0.0
C699 C 0.60735 0.12004 0.87952 0.0
C700 C 0.15937 0.13942 0.81674 0.0
C701 C 0.14837 0.15235 0.80142 0.0
H702 H 0.17391 0.10258 0.82957 0.0
C703 C 0.14656 0.13711 0.78683 0.0
H704 H 0.16076 0.15055 0.82823 0.0
C705 C 0.15557 0.10947 0.78761 0.0
C706 C 0.16478 0.09658 0.803 0.0
H707 H 0.13847 0.14653 0.77485 0.0
H708 H 0.15341 0.09816 0.77619 0.0
C709 C 0.16671 0.11189 0.81753 0.0
C710 C 0.61121 0.65881 0.82538 0.0
C711 C 0.6051 0.67287 0.81037 0.0
H712 H 0.62576 0.62097 0.83714 0.0
C713 C 0.60969 0.65876 0.79535 0.0
H714 H 0.60793 0.66908 0.83717 0.0
C715 C 0.62094 0.63125 0.79533 0.0
C716 C 0.62684 0.61717 0.81034 0.0
H717 H 0.60564 0.66898 0.78356 0.0
H718 H 0.62444 0.62102 0.78354 0.0
C719 C 0.62141 0.63123 0.82537 0.0
C720 C 0.88101 0.89929 0.54048 0.0
C721 C 0.88619 0.91396 0.55527 0.0
H722 H 0.86555 0.86108 0.52931 0.0
C723 C 0.88014 0.90052 0.57051 0.0
H724 H 0.88495 0.90907 0.52854 0.0
C725 C 0.86983 0.873 0.57095 0.0
C726 C 0.86402 0.85833 0.55617 0.0
H727 H 0.88401 0.91124 0.58213 0.0
H728 H 0.8659 0.86325 0.5829 0.0
C729 C 0.8694 0.8718 0.54093 0.0
C730 C 0.38786 0.38042 0.57603 0.0
C731 C 0.37986 0.36601 0.56119 0.0
H732 H 0.40244 0.4185 0.58742 0.0
C733 C 0.3828 0.37979 0.54603 0.0
H734 H 0.38598 0.37044 0.58792 0.0
C735 C 0.39346 0.40733 0.54573 0.0
C736 C 0.40023 0.42177 0.56059 0.0
H737 H 0.37739 0.36929 0.53435 0.0
H738 H 0.39506 0.41734 0.53385 0.0
C739 C 0.3973 0.40799 0.57574 0.0
C740 C 0.87128 0.37645 0.66545 0.0
C741 C 0.86975 0.36116 0.6509 0.0
H742 H 0.86605 0.41537 0.67601 0.0
C743 C 0.86194 0.37402 0.63549 0.0
H744 H 0.87709 0.36709 0.6775 0.0
C745 C 0.85676 0.40161 0.63462 0.0
C746 C 0.85783 0.41692 0.64915 0.0
H747 H 0.86094 0.3628 0.62404 0.0
H748 H 0.85139 0.41092 0.62255 0.0
C749 C 0.86464 0.40407 0.66459 0.0
C750 C 0.37234 0.88052 0.65933 0.0
C751 C 0.3772 0.86646 0.64428 0.0
H752 H 0.35745 0.9183 0.67118 0.0
C753 C 0.36994 0.88055 0.6293 0.0
H754 H 0.37709 0.87025 0.6711 0.0
C755 C 0.35941 0.9081 0.62935 0.0
C756 C 0.35459 0.92216 0.64439 0.0
H757 H 0.37329 0.87033 0.6175 0.0
H758 H 0.35492 0.91837 0.61758 0.0
C759 C 0.36052 0.90805 0.65938 0.0
C760 C 0.15688 0.13528 0.38287 0.0
C761 C 0.147 0.1221 0.39813 0.0
H762 H 0.17049 0.1724 0.37031 0.0
C763 C 0.14545 0.13703 0.41283 0.0
H764 H 0.15785 0.12433 0.37131 0.0
C765 C 0.15397 0.1646 0.41225 0.0
C766 C 0.16272 0.1778 0.39696 0.0
H767 H 0.1381 0.12741 0.42476 0.0
H768 H 0.15229 0.17561 0.42379 0.0
C769 C 0.16391 0.16284 0.38228 0.0
C770 C 0.60274 0.63459 0.41661 0.0
C771 C 0.60003 0.64983 0.40204 0.0
H772 H 0.59799 0.59565 0.42721 0.0
C773 C 0.58914 0.63699 0.3867 0.0
H774 H 0.61081 0.64398 0.4286 0.0
C775 C 0.58314 0.60946 0.38588 0.0
C776 C 0.58626 0.59416 0.4004 0.0
H777 H 0.58715 0.64817 0.37524 0.0
H778 H 0.57616 0.60017 0.37384 0.0
C779 C 0.59503 0.60698 0.41581 0.0
C780 C 0.12184 0.63196 0.29407 0.0
C781 C 0.1286 0.6177 0.30901 0.0
H782 H 0.1058 0.66989 0.28251 0.0
C783 C 0.12365 0.63159 0.32411 0.0
H784 H 0.12488 0.62184 0.28223 0.0
C785 C 0.11341 0.65915 0.32426 0.0
C786 C 0.10669 0.67341 0.30933 0.0
H787 H 0.12861 0.62121 0.33583 0.0
H788 H 0.11066 0.66926 0.3361 0.0
C789 C 0.11042 0.65949 0.29423 0.0
C790 C 0.63231 0.12137 0.32311 0.0
C791 C 0.63646 0.10666 0.30832 0.0
H792 H 0.61873 0.15961 0.33437 0.0
C793 C 0.62879 0.12016 0.29311 0.0
H794 H 0.63796 0.11163 0.33504 0.0
C795 C 0.61671 0.14769 0.29272 0.0
C796 C 0.61306 0.16239 0.30753 0.0
H797 H 0.63134 0.10944 0.28147 0.0
H798 H 0.6111 0.15746 0.28081 0.0
C799 C 0.62128 0.14891 0.32272 0.0
C800 C 0.16114 0.52866 0.08927 0.0
C801 C 0.10265 0.50823 0.08448 0.0
H802 H 0.23347 0.54676 0.10934 0.0
C803 C 0.07411 0.48943 0.09607 0.0
H804 H 0.18273 0.54346 0.08039 0.0
C805 C 0.10272 0.49122 0.11246 0.0
C806 C 0.16007 0.51191 0.11746 0.0
H807 H 0.03007 0.47331 0.09243 0.0
H808 H 0.07957 0.47645 0.12123 0.0
C809 C 0.19001 0.53049 0.10572 0.0
C810 C 0.18354 0.79081 0.09637 0.0
C811 C 0.15616 0.7735 0.08374 0.0
H812 H 0.17708 0.80076 0.12203 0.0
C813 C 0.09274 0.75355 0.08742 0.0
H814 H 0.2311 0.80666 0.09388 0.0
C815 C 0.06114 0.75019 0.10372 0.0
C816 C 0.09319 0.76666 0.11648 0.0
H817 H 0.07075 0.73992 0.07788 0.0
H818 H 0.01534 0.73402 0.10646 0.0
C819 C 0.15249 0.78743 0.11252 0.0
C820 C 0.91882 0.50342 0.84005 0.0
C821 C 0.83784 0.51679 0.83625 0.0
H822 H 0.01421 0.4926 0.8589 0.0
C823 C 0.78705 0.52871 0.84897 0.0
H824 H 0.95752 0.49364 0.83042 0.0
C825 C 0.81913 0.52823 0.86521 0.0
C826 C 0.90211 0.51566 0.86897 0.0
H827 H 0.72451 0.53927 0.84628 0.0
H828 H 0.78013 0.53837 0.87472 0.0
C829 C 0.95082 0.50279 0.85631 0.0
C830 C 0.96639 0.24005 0.84755 0.0
C831 C 0.91898 0.25177 0.83431 0.0
H832 H 0.97161 0.23238 0.87352 0.0
C833 C 0.83675 0.26514 0.83758 0.0
H834 H 0.0298 0.22953 0.8455 0.0
C835 C 0.80253 0.26655 0.85383 0.0
C836 C 0.85074 0.25491 0.86703 0.0
H837 H 0.79893 0.27441 0.82763 0.0
H838 H 0.73906 0.27693 0.85608 0.0
C839 C 0.93305 0.24174 0.86368 0.0
C840 C 0.17452 0.02484 0.58757 0.0
C841 C 0.10189 1.00925 0.58209 0.0
H842 H 0.259 0.03592 0.60801 0.0
C843 C 0.05755 0.99246 0.59329 0.0
H844 H 0.2079 0.03838 0.57917 0.0
C845 C 0.08628 0.99101 0.60972 0.0
C846 C 0.15947 1.00649 0.61528 0.0
H847 H 1.00184 0.98008 0.58928 0.0
H848 H 0.05115 0.97766 0.61805 0.0
C849 C 0.20325 0.02349 0.60405 0.0
C850 C 0.20767 0.25487 0.5994 0.0
C851 C 0.15598 0.26731 0.58697 0.0
H852 H 0.2151 0.24334 0.62495 0.0
C853 C 0.0692 0.27721 0.59093 0.0
H854 H 0.27455 0.24689 0.59666 0.0
C855 C 0.03561 0.27533 0.60705 0.0
C856 C 0.08767 0.26331 0.61959 0.0
H857 H 0.02772 0.28699 0.58165 0.0
H858 H 0.96909 0.28365 0.6097 0.0
C859 C 0.17358 0.25277 0.61556 0.0
C860 C 0.8411 1.00738 0.36435 0.0
C861 C 0.92441 0.02032 0.36683 0.0
H862 H 0.74127 0.99469 0.34666 0.0
C863 C 0.97233 0.02996 0.35303 0.0
H864 H 0.80293 0.99967 0.37477 0.0
C865 C 0.93791 0.02692 0.33709 0.0
C866 C 0.85411 0.01436 0.33452 0.0
H867 H 0.03672 0.04004 0.35449 0.0
H868 H 0.97661 0.03489 0.3268 0.0
C869 C 0.80592 1.00454 0.34829 0.0
C870 C 0.94584 0.76679 0.35047 0.0
C871 C 0.91109 0.75096 0.33762 0.0
H872 H 0.93739 0.77709 0.37631 0.0
C873 C 0.84632 0.73153 0.34141 0.0
H874 H 0.99608 0.78186 0.34788 0.0
C875 C 0.81322 0.72883 0.35747 0.0
C876 C 0.84399 0.74548 0.37018 0.0
H877 H 0.81937 0.71867 0.33187 0.0
H878 H 0.76176 0.71399 0.35982 0.0
C879 C 0.91232 0.76408 0.36669 0.0
C880 C 0.66781 0.49298 0.59224 0.0
C881 C 0.59551 0.50906 0.58678 0.0
H882 H 0.75334 0.48185 0.61253 0.0
C883 C 0.55568 0.52728 0.5978 0.0
H884 H 0.69975 0.4787 0.58402 0.0
C885 C 0.58702 0.52909 0.61408 0.0
C886 C 0.65802 0.51269 0.61951 0.0
H887 H 0.50078 0.54018 0.59386 0.0
H888 H 0.55655 0.54345 0.62238 0.0
C889 C 0.69895 0.49483 0.60848 0.0
C890 C 0.57712 0.74877 0.59143 0.0
C891 C 0.65835 0.76032 0.58589 0.0
H892 H 0.48462 0.74323 0.61159 0.0
C893 C 0.71409 0.77351 0.59732 0.0
H894 H 0.53463 0.7377 0.58303 0.0
C895 C 0.68593 0.77647 0.61378 0.0
C896 C 0.60177 0.76628 0.61901 0.0
H897 H 0.77743 0.78244 0.59342 0.0
H898 H 0.72838 0.78761 0.62222 0.0
C899 C 0.54879 0.75182 0.6078 0.0
C900 C 0.41476 0.49973 0.33924 0.0
C901 C 0.34955 0.51861 0.33458 0.0
H902 H 0.49362 0.48335 0.3591 0.0
C903 C 0.31439 0.53626 0.34635 0.0
H904 H 0.4409 0.48565 0.33028 0.0
C905 C 0.34391 0.535 0.36269 0.0
C906 C 0.40861 0.51593 0.36753 0.0
H907 H 0.26483 0.55119 0.34287 0.0
H908 H 0.31564 0.54894 0.37155 0.0
C909 C 0.44444 0.4984 0.35566 0.0
C910 C 0.43533 0.25248 0.36379 0.0
C911 C 0.35474 0.26557 0.3686 0.0
H912 H 0.52252 0.24078 0.34374 0.0
C913 C 0.30135 0.27795 0.35642 0.0
H914 H 0.47814 0.24275 0.37288 0.0
C915 C 0.32707 0.27678 0.33974 0.0
C916 C 0.4063 0.26321 0.33492 0.0
H917 H 0.23969 0.28854 0.35973 0.0
H918 H 0.28544 0.28669 0.33063 0.0
C919 C 0.46104 0.2514 0.34711 0.0
C920 C 0.59185 0.01579 0.11823 0.0
C921 C 0.65782 0.99626 0.12157 0.0
H922 H 0.51 0.0348 0.09959 0.0
C923 C 0.6848 0.97894 0.10886 0.0
H924 H 0.5697 0.02932 0.12787 0.0
C925 C 0.65098 0.982 0.09291 0.0
C926 C 0.58943 1.0025 0.08922 0.0
H927 H 0.73418 0.96336 0.11112 0.0
H928 H 0.67538 0.96871 0.08331 0.0
C929 C 0.55767 0.01889 0.10211 0.0
C930 C 0.57397 0.28416 0.08884 0.0
C931 C 0.65158 0.26859 0.08578 0.0
H932 H 0.48128 0.29978 0.10671 0.0
C933 C 0.69714 0.25688 0.09927 0.0
H934 H 0.53777 0.29371 0.07877 0.0
C935 C 0.66385 0.26021 0.11547 0.0
C936 C 0.58526 0.27553 0.1184 0.0
H937 H 0.75704 0.24472 0.09725 0.0
H938 H 0.69882 0.25058 0.12564 0.0
C939 C 0.54157 0.28769 0.10491 0.0
C940 C 0.3514 0.99249 0.84561 0.0
C941 C 0.34158 0.01592 0.83642 0.0
H942 H 0.39117 0.97527 0.86888 0.0
C943 C 0.361 0.04038 0.84383 0.0
H944 H 0.33762 0.97344 0.83998 0.0
C945 C 0.38949 0.04143 0.86031 0.0
C946 C 0.40188 0.01799 0.86932 0.0
H947 H 0.35394 0.05863 0.83687 0.0
H948 H 0.4035 0.06048 0.86592 0.0
C949 C 0.38274 0.9935 0.86195 0.0
C950 C 0.31561 0.75451 0.83975 0.0
C951 C 0.39656 0.7673 0.83509 0.0
H952 H 0.22711 0.74335 0.85965 0.0
C953 C 0.44748 0.78052 0.84721 0.0
H954 H 0.27474 0.74418 0.83067 0.0
C955 C 0.41952 0.78022 0.86375 0.0
C956 C 0.34114 0.76643 0.86851 0.0
H957 H 0.50908 0.791 0.84393 0.0
H958 H 0.45904 0.79081 0.87283 0.0
C959 C 0.28812 0.75408 0.85633 0.0
C960 C 0.10616 0.64657 0.0188 0.0
C961 C 0.09613 0.66043 0.03379 0.0
H962 H 0.13431 0.60967 0.00695 0.0
C963 C 0.10554 0.6466 0.04885 0.0
H964 H 0.09996 0.65664 0.00698 0.0
C965 C 0.12414 0.61931 0.04883 0.0
C966 C 0.13559 0.60567 0.03375 0.0
H967 H 0.09813 0.65682 0.06059 0.0
H968 H 0.13103 0.60901 0.06055 0.0
C969 C 0.12642 0.61962 0.01878 0.0
C970 C 0.13041 0.65091 0.15907 0.0
C971 C 0.13567 0.66495 0.17413 0.0
H972 H 0.11755 0.61287 0.14731 0.0
C973 C 0.1307 0.65076 0.1891 0.0
H974 H 0.13451 0.66127 0.14733 0.0
C975 C 0.12019 0.62331 0.18908 0.0
C976 C 0.11562 0.60915 0.1741 0.0
H977 H 0.1344 0.6609 0.20092 0.0
H978 H 0.1163 0.61314 0.2009 0.0
C979 C 0.12127 0.62321 0.15906 0.0
C980 C 0.88307 0.37463 0.93274 0.0
C981 C 0.88916 0.36057 0.91775 0.0
H982 H 0.86468 0.41193 0.94468 0.0
C983 C 0.88198 0.37462 0.90271 0.0
H984 H 0.88801 0.36448 0.94455 0.0
C985 C 0.86998 0.40231 0.90279 0.0
C986 C 0.86288 0.41616 0.9179 0.0
H987 H 0.88687 0.3643 0.89096 0.0
H988 H 0.86493 0.41278 0.8911 0.0
C989 C 0.86937 0.40192 0.93282 0.0
C990 C 0.87303 0.40583 0.7689 0.0
C991 C 0.88256 0.41947 0.78398 0.0
H992 H 0.84696 0.36908 0.75682 0.0
C993 C 0.87219 0.40548 0.79895 0.0
H994 H 0.88007 0.41604 0.75715 0.0
C995 C 0.85424 0.3782 0.79876 0.0
C996 C 0.84449 0.36469 0.78359 0.0
H997 H 0.87932 0.41551 0.81075 0.0
H998 H 0.84766 0.36773 0.81042 0.0
C999 C 0.85346 0.37888 0.76871 0.0
C1000 C 0.14242 0.1271 0.54839 0.0
C1001 C 0.14985 0.11458 0.53282 0.0
H1002 H 0.12282 0.16392 0.56148 0.0
C1003 C 0.14187 0.12999 0.51841 0.0
H1004 H 0.14855 0.1157 0.55972 0.0
C1005 C 0.12591 0.15713 0.51941 0.0
C1006 C 0.11903 0.16984 0.53486 0.0
H1007 H 0.14684 0.12102 0.50622 0.0
H1008 H 0.1197 0.16823 0.50796 0.0
C1009 C 0.12816 0.15464 0.5494 0.0
C1010 C 0.16045 0.13615 0.65938 0.0
C1011 C 0.16697 0.14974 0.67457 0.0
H1012 H 0.14177 0.09868 0.64725 0.0
C1013 C 0.16036 0.1353 0.68942 0.0
H1014 H 0.16543 0.14674 0.64773 0.0
C1015 C 0.14575 0.10804 0.68914 0.0
C1016 C 0.13864 0.0944 0.67402 0.0
H1017 H 0.16478 0.14513 0.70133 0.0
H1018 H 0.13996 0.09764 0.70085 0.0
C1019 C 0.14716 0.10866 0.65911 0.0
C1020 C 0.88594 0.873 0.43433 0.0
C1021 C 0.89721 0.85888 0.41946 0.0
H1022 H 0.85479 0.91003 0.44581 0.0
C1023 C 0.88526 0.87213 0.40428 0.0
H1024 H 0.89395 0.86331 0.44624 0.0
C1025 C 0.86361 0.89917 0.40403 0.0
C1026 C 0.85182 0.91317 0.41897 0.0
H1027 H 0.8934 0.86168 0.39263 0.0
H1028 H 0.85567 0.90906 0.39219 0.0
C1029 C 0.86274 0.89976 0.43409 0.0
C1030 C 0.88396 0.86745 0.26827 0.0
C1031 C 0.87578 0.85313 0.28312 0.0
H1032 H 0.90239 0.90504 0.25673 0.0
C1033 C 0.87978 0.86692 0.29829 0.0
H1034 H 0.88138 0.8575 0.25637 0.0
C1035 C 0.89047 0.8946 0.2985 0.0
C1036 C 0.89927 0.90877 0.28355 0.0
H1037 H 0.8732 0.8564 0.30994 0.0
H1038 H 0.89288 0.90484 0.3103 0.0
C1039 C 0.89626 0.89479 0.26849 0.0
C1040 C 0.62333 0.61317 0.51664 0.0
C1041 C 0.62811 0.5995 0.53178 0.0
H1042 H 0.60668 0.65025 0.50432 0.0
C1043 C 0.61959 0.61392 0.54666 0.0
H1044 H 0.62933 0.6027 0.50495 0.0
C1045 C 0.60778 0.64156 0.5463 0.0
C1046 C 0.60254 0.65508 0.53105 0.0
H1047 H 0.62344 0.60392 0.55853 0.0
H1048 H 0.60204 0.65228 0.5579 0.0
C1049 C 0.61003 0.6405 0.51627 0.0
C1050 C 0.61412 0.62891 0.65384 0.0
C1051 C 0.60411 0.61557 0.66907 0.0
H1052 H 0.63729 0.6663 0.6417 0.0
C1053 C 0.61111 0.63004 0.68388 0.0
H1054 H 0.60883 0.61821 0.64224 0.0
C1055 C 0.62874 0.65709 0.68357 0.0
C1056 C 0.63824 0.67061 0.66846 0.0
H1057 H 0.60423 0.6204 0.69582 0.0
H1058 H 0.63417 0.66747 0.69529 0.0
C1059 C 0.62999 0.65636 0.65353 0.0
C1060 C 0.37742 0.40613 0.40755 0.0
C1061 C 0.37067 0.41996 0.42267 0.0
H1062 H 0.39396 0.36822 0.39564 0.0
C1063 C 0.37719 0.40571 0.43758 0.0
H1064 H 0.37225 0.4166 0.39585 0.0
C1065 C 0.39066 0.37837 0.43745 0.0
C1066 C 0.39654 0.36437 0.42242 0.0
H1067 H 0.37257 0.41572 0.44944 0.0
H1068 H 0.3956 0.36815 0.44924 0.0
C1069 C 0.38931 0.37848 0.40742 0.0
C1070 C 0.36122 0.37797 0.26754 0.0
C1071 C 0.35345 0.3635 0.28233 0.0
H1072 H 0.38515 0.41539 0.25614 0.0
C1073 C 0.363 0.37685 0.29757 0.0
H1074 H 0.35465 0.36835 0.25559 0.0
C1075 C 0.37935 0.40426 0.29789 0.0
C1076 C 0.38833 0.41851 0.28298 0.0
H1077 H 0.35716 0.36618 0.30918 0.0
H1078 H 0.38636 0.41418 0.30973 0.0
C1079 C 0.37915 0.40501 0.26785 0.0
C1080 C 0.62429 0.11867 0.01788 0.0
C1081 C 0.63003 0.10452 0.03283 0.0
H1082 H 0.60943 0.15623 0.00606 0.0
C1083 C 0.62536 0.1186 0.0479 0.0
H1084 H 0.62742 0.1085 0.00605 0.0
C1085 C 0.61634 0.14635 0.04791 0.0
C1086 C 0.61008 0.16036 0.03286 0.0
H1087 H 0.63004 0.10823 0.05963 0.0
H1088 H 0.61323 0.15676 0.05965 0.0
C1089 C 0.6138 0.14612 0.01789 0.0
C1090 C 0.63871 0.15077 0.15469 0.0
C1091 C 0.65014 0.16473 0.16964 0.0
H1092 H 0.61006 0.11328 0.14325 0.0
C1093 C 0.63946 0.15123 0.18474 0.0
H1094 H 0.64646 0.16071 0.14286 0.0
C1095 C 0.61707 0.12447 0.18496 0.0
C1096 C 0.60631 0.11036 0.17009 0.0
H1097 H 0.64712 0.16143 0.19647 0.0
H1098 H 0.6093 0.11476 0.19686 0.0
C1099 C 0.61788 0.12369 0.15491 0.0
C1100 C 0.39181 0.88088 0.93688 0.0
C1101 C 0.39852 0.86673 0.92193 0.0
H1102 H 0.37149 0.91823 0.9487 0.0
C1103 C 0.39087 0.88066 0.90685 0.0
H1104 H 0.397 0.87084 0.94871 0.0
C1105 C 0.37745 0.90829 0.90684 0.0
C1106 C 0.36958 0.92224 0.92191 0.0
H1107 H 0.39599 0.87028 0.89512 0.0
H1108 H 0.37175 0.91862 0.89511 0.0
C1109 C 0.37684 0.90815 0.93687 0.0
C1110 C 0.36256 0.87979 0.76691 0.0
C1111 C 0.35642 0.86615 0.78207 0.0
H1112 H 0.38111 0.91677 0.75457 0.0
C1113 C 0.3638 0.88059 0.79694 0.0
H1114 H 0.35756 0.86931 0.75522 0.0
C1115 C 0.37605 0.90821 0.79655 0.0
C1116 C 0.38299 0.92167 0.7813 0.0
H1117 H 0.35902 0.87064 0.80881 0.0
H1118 H 0.38128 0.91893 0.80815 0.0
C1119 C 0.37635 0.90707 0.76653 0.0
C1120 C 0.60993 0.51781 0.05374 0.0
C1121 C 0.63927 0.50766 0.03837 0.0
H1122 H 0.49735 0.5309 0.06854 0.0
C1123 C 0.57522 0.50382 0.02571 0.0
H1124 H 0.65765 0.52095 0.06376 0.0
C1125 C 0.48349 0.50957 0.02845 0.0
C1126 C 0.45383 0.5192 0.04392 0.0
H1127 H 0.5957 0.49614 0.01372 0.0
H1128 H 0.43572 0.50615 0.01847 0.0
C1129 C 0.51806 0.52348 0.05649 0.0
C1130 C 0.68593 0.77593 0.0271 0.0
C1131 C 0.61613 0.77113 0.03864 0.0
H1132 H 0.82765 0.77248 0.02137 0.0
C1133 C 0.63816 0.75858 0.05371 0.0
H1134 H 0.67145 0.78549 0.01537 0.0
C1135 C 0.72799 0.7511 0.05716 0.0
C1136 C 0.7978 0.75609 0.04566 0.0
H1137 H 0.58616 0.75473 0.06293 0.0
H1138 H 0.74276 0.74157 0.0689 0.0
C1139 C 0.77568 0.76856 0.03058 0.0
C1140 C 0.60898 0.74858 0.14829 0.0
C1141 C 0.64232 0.75649 0.16386 0.0
H1142 H 0.49196 0.73979 0.13351 0.0
C1143 C 0.57983 0.7614 0.17674 0.0
H1144 H 0.65517 0.74479 0.13807 0.0
C1145 C 0.48634 0.75843 0.17416 0.0
C1146 C 0.45288 0.75063 0.15859 0.0
H1147 H 0.60306 0.76752 0.18889 0.0
H1148 H 0.4403 0.76236 0.18439 0.0
C1149 C 0.51532 0.74577 0.14567 0.0
C1150 C 0.76949 0.51475 0.17418 0.0
C1151 C 0.80381 0.52304 0.15874 0.0
H1152 H 0.65194 0.50541 0.1887 0.0
C1153 C 0.74205 0.52846 0.14585 0.0
H1154 H 0.81498 0.5104 0.18438 0.0
C1155 C 0.64822 0.52574 0.14836 0.0
C1156 C 0.61404 0.51736 0.16379 0.0
H1157 H 0.76608 0.53484 0.13379 0.0
H1158 H 0.60257 0.52998 0.13816 0.0
C1159 C 0.67584 0.51187 0.17665 0.0
C1160 C 0.4973 0.50047 0.89539 0.0
C1161 C 0.5609 0.50525 0.908 0.0
H1162 H 0.35742 0.50152 0.88814 0.0
C1163 C 0.53011 0.51473 0.92343 0.0
H1164 H 0.51889 0.49319 0.88336 0.0
C1165 C 0.43778 0.51958 0.92616 0.0
C1166 C 0.3742 0.51492 0.91354 0.0
H1167 H 0.57738 0.51859 0.93343 0.0
H1168 H 0.41635 0.52703 0.93816 0.0
C1169 C 0.40478 0.50518 0.89815 0.0
C1170 C 0.35105 0.26815 0.89812 0.0
C1171 C 0.38079 0.25985 0.91387 0.0
H1172 H 0.23825 0.27952 0.88291 0.0
C1173 C 0.31676 0.25746 0.92674 0.0
H1174 H 0.39861 0.27012 0.88792 0.0
C1175 C 0.22486 0.26293 0.92388 0.0
C1176 C 0.19487 0.27079 0.90806 0.0
H1177 H 0.33744 0.25118 0.93902 0.0
H1178 H 0.17721 0.26071 0.93405 0.0
C1179 C 0.25906 0.2735 0.89524 0.0
C1180 C 0.47672 0.27665 0.80528 0.0
C1181 C 0.5494 0.26889 0.79499 0.0
H1182 H 0.33368 0.27437 0.81016 0.0
C1183 C 0.53134 0.25266 0.78121 0.0
H1184 H 0.48833 0.2891 0.816 0.0
C1185 C 0.44278 0.24436 0.7778 0.0
C1186 C 0.37008 0.252 0.78811 0.0
H1187 H 0.5856 0.24649 0.77294 0.0
H1188 H 0.43144 0.23188 0.76708 0.0
C1189 C 0.38803 0.26826 0.80189 0.0
C1190 C 0.22569 0.51775 0.77879 0.0
C1191 C 0.19929 0.50506 0.79355 0.0
H1192 H 0.33439 0.53478 0.76475 0.0
C1193 C 0.26541 0.49937 0.80559 0.0
H1194 H 0.1763 0.52231 0.76925 0.0
C1195 C 0.35591 0.50655 0.80302 0.0
C1196 C 0.38217 0.51953 0.78835 0.0
H1197 H 0.24713 0.48973 0.81713 0.0
H1198 H 0.40503 0.50221 0.81266 0.0
C1199 C 0.31627 0.52488 0.77621 0.0
C1200 C 0.52012 0.02715 0.55251 0.0
C1201 C 0.45588 0.02318 0.53988 0.0
H1202 H 0.6591 0.02363 0.56003 0.0
C1203 C 0.48506 1.01258 0.52463 0.0
H1204 H 0.49986 0.03519 0.56443 0.0
C1205 C 0.57639 1.00585 0.52213 0.0
C1206 C 0.64052 1.00969 0.5348 0.0
H1207 H 0.43726 1.00925 0.51465 0.0
H1208 H 0.5966 0.99756 0.51028 0.0
C1209 C 0.61148 0.02054 0.54999 0.0
C1210 C 0.69025 0.27143 0.52792 0.0
C1211 C 0.62586 0.26829 0.54064 0.0
H1212 H 0.83002 0.26869 0.52073 0.0
C1213 C 0.65495 0.25907 0.55623 0.0
H1214 H 0.67002 0.2784 0.51575 0.0
C1215 C 0.74679 0.25356 0.55912 0.0
C1216 C 0.81136 0.25711 0.54646 0.0
H1217 H 0.60703 0.25649 0.56633 0.0
H1218 H 0.76719 0.24684 0.57132 0.0
C1219 C 0.78201 0.26588 0.53079 0.0
C1220 C 0.56264 0.27201 0.67707 0.0
C1221 C 0.63363 0.26463 0.6663 0.0
H1222 H 0.42075 0.26955 0.68272 0.0
C1223 C 0.61347 0.2489 0.65239 0.0
H1224 H 0.57578 0.28415 0.68787 0.0
C1225 C 0.52434 0.2406 0.64938 0.0
C1226 C 0.45348 0.2478 0.66024 0.0
H1227 H 0.66646 0.2431 0.64375 0.0
H1228 H 0.5111 0.22851 0.63856 0.0
C1229 C 0.47364 0.26368 0.67408 0.0
C1230 C 0.74912 0.02158 0.64486 0.0
C1231 C 0.81077 0.01481 0.65753 0.0
H1232 H 0.60958 0.02424 0.63725 0.0
C1233 C 0.77597 1.00581 0.67277 0.0
H1234 H 0.77345 0.0286 0.63296 0.0
C1235 C 0.68213 1.00333 0.67522 0.0
C1236 C 0.62044 1.00982 0.66251 0.0
H1237 H 0.82127 1.00053 0.68283 0.0
H1238 H 0.65804 0.99616 0.6871 0.0
C1239 C 0.65505 0.01913 0.64732 0.0
C1240 C 0.53365 0.02453 0.4192 0.0
C1241 C 0.55178 1.00649 0.4063 0.0
H1242 H 0.4332 0.04667 0.4326 0.0
C1243 C 0.47893 0.99679 0.39688 0.0
H1244 H 0.58815 0.03216 0.42682 0.0
C1245 C 0.38987 1.00514 0.4002 0.0
C1246 C 0.37182 0.02325 0.41308 0.0
H1247 H 0.49071 0.98287 0.38686 0.0
H1248 H 0.33531 0.99754 0.39258 0.0
C1249 C 0.44468 0.03275 0.42258 0.0
C1250 C 0.36614 0.7662 0.40137 0.0
C1251 C 0.38518 0.74969 0.415 0.0
H1252 H 0.26419 0.78687 0.38737 0.0
C1253 C 0.313 0.74146 0.42519 0.0
H1254 H 0.42014 0.77279 0.39321 0.0
C1255 C 0.22382 0.74932 0.42176 0.0
C1256 C 0.2046 0.76574 0.4081 0.0
H1257 H 0.32516 0.72878 0.4358 0.0
H1258 H 0.16996 0.74265 0.42992 0.0
C1259 C 0.27676 0.77421 0.39798 0.0
C1260 C 0.40153 0.77078 0.30706 0.0
C1261 C 0.36842 0.76248 0.29156 0.0
H1262 H 0.51842 0.78002 0.32177 0.0
C1263 C 0.43087 0.75763 0.27866 0.0
H1264 H 0.35529 0.77456 0.31728 0.0
C1265 C 0.52421 0.76083 0.28121 0.0
C1266 C 0.55755 0.76882 0.29676 0.0
H1267 H 0.40776 0.75128 0.26655 0.0
H1268 H 0.57025 0.75684 0.271 0.0
C1269 C 0.4951 0.77384 0.30964 0.0
C1270 C 0.25838 0.99728 0.3072 0.0
C1271 C 0.19512 1.00055 0.29431 0.0
H1272 H 0.39737 1.00016 0.31478 0.0
C1273 C 0.2259 1.00931 0.27873 0.0
H1274 H 0.23687 0.99062 0.31936 0.0
C1275 C 0.31781 0.0149 0.27612 0.0
C1276 C 0.38102 1.01168 0.28901 0.0
H1277 H 0.17893 1.01205 0.26853 0.0
H1278 H 0.33923 0.02176 0.264 0.0
C1279 C 0.35042 1.0027 0.30456 0.0
C1280 C 0.09808 0.51979 0.55659 0.0
C1281 C 0.13122 0.51029 0.54132 0.0
H1282 H 0.98105 0.53005 0.57119 0.0
C1283 C 0.06877 0.50426 0.52871 0.0
H1284 H 0.14435 0.52453 0.56659 0.0
C1285 C 0.97539 0.50741 0.53133 0.0
C1286 C 0.94203 0.51662 0.54665 0.0
H1287 H 0.0919 0.49698 0.51677 0.0
H1288 H 0.92934 0.50251 0.52133 0.0
C1289 C 0.00444 0.5229 0.55924 0.0
C1290 C 0.23578 0.7457 0.55485 0.0
C1291 C 0.29929 0.74839 0.5419 0.0
H1292 H 0.09734 0.75005 0.56264 0.0
C1293 C 0.26929 0.75774 0.52641 0.0
H1294 H 0.25664 0.7387 0.56696 0.0
C1295 C 0.17782 0.76435 0.52395 0.0
C1296 C 0.11437 0.76164 0.53691 0.0
H1297 H 0.31651 0.76009 0.51619 0.0
H1298 H 0.1569 0.77157 0.51189 0.0
C1299 C 0.14434 0.75219 0.55237 0.0
C1300 C 0.97794 0.76547 0.67468 0.0
C1301 C 0.94877 0.75763 0.65882 0.0
H1302 H 0.08957 0.77713 0.68996 0.0
C1303 C 0.01333 0.75483 0.64607 0.0
H1304 H 0.92993 0.7677 0.6848 0.0
C1305 C 0.10498 0.76019 0.64906 0.0
C1306 C 0.13387 0.76851 0.66485 0.0
H1307 H 0.99302 0.74883 0.63372 0.0
H1308 H 0.15292 0.75822 0.6389 0.0
C1309 C 0.0695 0.77087 0.67766 0.0
C1310 C 0.14675 0.5215 0.65078 0.0
C1311 C 0.11817 0.51134 0.66616 0.0
H1312 H 0.25805 0.53509 0.63598 0.0
C1313 C 0.18265 0.50747 0.67876 0.0
H1314 H 0.09874 0.52459 0.64078 0.0
C1315 C 0.27397 0.51361 0.67603 0.0
C1316 C 0.30264 0.52359 0.66061 0.0
H1317 H 0.16268 0.4997 0.69075 0.0
H1318 H 0.32213 0.51035 0.68598 0.0
C1319 C 0.2381 0.52749 0.64802 0.0
C1320 C 0.89784 0.49975 0.39856 0.0
C1321 C 0.86376 0.50874 0.41389 0.0
H1322 H 0.01574 0.49059 0.38391 0.0
C1323 C 0.92587 0.51529 0.42647 0.0
H1324 H 0.85197 0.49469 0.38856 0.0
C1325 C 0.01964 0.5129 0.42383 0.0
C1326 C 0.05386 0.504 0.4085 0.0
H1327 H 0.90213 0.52227 0.43844 0.0
H1328 H 0.0653 0.51807 0.43384 0.0
C1329 C 0.99182 0.49747 0.39588 0.0
C1330 C 0.8582 0.27506 0.39896 0.0
C1331 C 0.89044 0.26611 0.41439 0.0
H1332 H 0.74238 0.28603 0.38438 0.0
C1333 C 0.82779 0.26153 0.42725 0.0
H1334 H 0.90473 0.27858 0.38877 0.0
C1335 C 0.73496 0.26594 0.42477 0.0
C1336 C 0.70258 0.27482 0.40933 0.0
H1337 H 0.85043 0.25465 0.43929 0.0
H1338 H 0.68858 0.26227 0.43497 0.0
C1339 C 0.76515 0.27927 0.39643 0.0
C1340 C 0.01687 0.2632 0.27586 0.0
C1341 C 0.04568 0.27297 0.29131 0.0
H1342 H 0.90585 0.2489 0.26129 0.0
C1343 C 0.9814 0.27602 0.30411 0.0
H1344 H 0.06471 0.26064 0.26574 0.0
C1345 C 0.89045 0.26931 0.30156 0.0
C1346 C 0.8617 0.25935 0.28616 0.0
H1347 H 1.00137 0.28337 0.31618 0.0
H1348 H 0.84289 0.27169 0.31174 0.0
C1349 C 0.92582 0.25646 0.27331 0.0
C1350 C 0.85929 0.50959 0.30341 0.0
C1351 C 0.88829 0.51869 0.28779 0.0
H1352 H 0.74757 0.49704 0.31848 0.0
C1353 C 0.82437 0.52112 0.27495 0.0
H1354 H 0.90684 0.50754 0.31358 0.0
C1355 C 0.73305 0.51505 0.27776 0.0
C1356 C 0.70374 0.50648 0.29348 0.0
H1357 H 0.84461 0.52797 0.26276 0.0
H1358 H 0.68528 0.51739 0.26764 0.0
C1359 C 0.76794 0.50359 0.30623 0.0
C1360 C 0.00829 0.02619 0.06011 0.0
C1361 C 0.94651 0.02051 0.04729 0.0
H1362 H 0.14783 0.02793 0.06771 0.0
C1363 C 0.98098 1.0122 0.03185 0.0
H1364 H 0.98417 0.03262 0.07217 0.0
C1365 C 0.07475 1.00946 0.02932 0.0
C1366 C 0.13655 0.01507 0.04213 0.0
H1367 H 0.93552 1.00768 0.02169 0.0
H1368 H 0.09873 1.0029 0.01728 0.0
C1369 C 0.10222 0.02357 0.05755 0.0
C1370 C 0.1833 0.2645 0.02618 0.0
C1371 C 0.12029 0.26152 0.03917 0.0
H1372 H 0.32242 0.26189 0.01848 0.0
C1373 C 0.15162 0.25315 0.05479 0.0
H1374 H 0.16136 0.2709 0.01399 0.0
C1375 C 0.24411 0.24816 0.05741 0.0
C1376 C 0.30716 0.25122 0.04443 0.0
H1377 H 0.10489 0.25081 0.06509 0.0
H1378 H 0.26614 0.242 0.06964 0.0
C1379 C 0.27565 0.25931 0.02876 0.0
C1380 C 0.02617 0.25039 0.14737 0.0
C1381 C 0.95332 0.25872 0.15744 0.0
H1382 H 0.16939 0.25229 0.14258 0.0
C1383 C 0.97125 0.27551 0.17096 0.0
H1384 H 0.01463 0.23747 0.13686 0.0
C1385 C 0.05985 0.28382 0.17432 0.0
C1386 C 0.1327 0.27568 0.16419 0.0
H1387 H 0.91686 0.28211 0.17907 0.0
H1388 H 0.07103 0.29675 0.18483 0.0
C1389 C 0.1149 0.25883 0.15068 0.0
C1390 C 0.28058 0.99938 0.17212 0.0
C1391 C 0.29884 0.01609 0.15857 0.0
H1392 H 0.18054 0.97827 0.18608 0.0
C1393 C 0.22612 0.02443 0.14852 0.0
H1394 H 0.33481 0.99275 0.18022 0.0
C1395 C 0.13721 0.01608 0.1519 0.0
C1396 C 0.11912 0.99931 0.16545 0.0
H1397 H 0.23788 0.0373 0.13799 0.0
H1398 H 0.08282 0.02263 0.14382 0.0
C1399 C 0.19188 0.99115 0.17554 0.0
C1400 C 0.9278 0.01949 0.92769 0.0
C1401 C 0.86511 0.01474 0.91491 0.0
H1402 H 0.06717 0.01956 0.93518 0.0
C1403 C 0.8975 1.00569 0.89948 0.0
H1404 H 0.90516 0.02638 0.93975 0.0
C1405 C 0.99076 1.00186 0.89682 0.0
C1406 C 0.05347 1.00692 0.90957 0.0
H1407 H 0.85098 1.00192 0.88936 0.0
H1408 H 0.01365 0.99516 0.88474 0.0
C1409 C 0.02082 0.01558 0.92506 0.0
C1410 C 0.85892 0.76842 0.90151 0.0
C1411 C 0.88813 0.75976 0.9172 0.0
H1412 H 0.74753 0.78121 0.88647 0.0
C1413 C 0.82414 0.75785 0.93013 0.0
H1414 H 0.90633 0.76999 0.89125 0.0
C1415 C 0.73282 0.76438 0.92739 0.0
C1416 C 0.70361 0.77286 0.91165 0.0
H1417 H 0.84448 0.75127 0.94236 0.0
H1418 H 0.68508 0.76263 0.93758 0.0
C1419 C 0.76773 0.77484 0.89876 0.0
C1420 C 0.02147 0.76658 0.77885 0.0
C1421 C 0.05267 0.77494 0.79447 0.0
H1422 H 0.90754 0.75484 0.76414 0.0
C1423 C 0.98971 0.77806 0.80747 0.0
H1424 H 0.06825 0.76394 0.76857 0.0
C1425 C 0.89745 0.77299 0.80489 0.0
C1426 C 0.86637 0.76451 0.78929 0.0
H1427 H 0.01158 0.78438 0.81966 0.0
H1428 H 0.85068 0.77545 0.81518 0.0
C1429 C 0.92935 0.76133 0.77631 0.0
C1430 C 0.76265 0.99884 0.80736 0.0
C1431 C 0.70019 1.00516 0.79473 0.0
H1432 H 0.90264 0.99632 0.81468 0.0
C1433 C 0.73397 0.01383 0.77934 0.0
H1434 H 0.73912 0.99212 0.81938 0.0
C1435 C 0.82767 0.01626 0.77666 0.0
C1436 C 0.89017 1.01 0.78928 0.0
H1437 H 0.68801 0.01882 0.76932 0.0
H1438 H 0.85102 0.02307 0.76465 0.0
C1439 C 0.85653 1.00119 0.80466 0.0
C1440 C 0.93388 0.50293 -0.01301 0.0
C1441 C 0.01861 0.5091 -0.00606 0.0
H1442 H 0.85602 0.49829 0.9649 0.0
C1443 C 0.09169 0.51538 -0.01664 0.0
H1444 H 0.87619 0.49811 -0.00522 0.0
C1445 C 0.08028 0.51545 0.9662 0.0
C1446 C 0.9955 0.50933 0.95926 0.0
H1447 H 0.15802 0.5202 -0.01169 0.0
H1448 H 0.13789 0.52038 0.95841 0.0
C1449 C 0.92243 0.50305 0.96984 0.0
C1450 C 0.31935 0.77826 0.97172 0.0
C1451 C 0.26278 0.76429 0.96071 0.0
H1452 H 0.34738 0.7887 -0.00301 0.0
C1453 C 0.1903 0.74955 0.96721 0.0
H1454 H 0.37585 0.78985 0.96711 0.0
C1455 C 0.17423 0.74887 -0.01575 0.0
C1456 C 0.23006 0.76297 -0.00471 0.0
H1457 H 0.14582 0.73838 0.95916 0.0
H1458 H 0.11756 0.73723 -0.01127 0.0
C1459 C 0.30309 0.77763 -0.01116 0.0
C1460 C 0.91906 0.75395 0.23416 0.0
C1461 C 0.9928 0.76027 0.24454 0.0
H1462 H 0.87286 0.74686 0.20939 0.0
C1463 C 0.0787 0.76434 0.23737 0.0
H1464 H 0.85186 0.75063 0.23927 0.0
C1465 C 0.09057 0.7622 0.22023 0.0
C1466 C 0.01692 0.75581 0.20986 0.0
H1467 H 0.13696 0.76919 0.24497 0.0
H1468 H 0.15778 0.76551 0.21513 0.0
C1469 C 0.93104 0.75167 0.21702 0.0
C1470 C 0.16616 0.52052 0.22063 0.0
C1471 C 0.24137 0.52164 0.20987 0.0
H1472 H 0.11989 0.51864 0.24577 0.0
C1473 C 0.32955 0.52181 0.21649 0.0
H1474 H 0.09734 0.5204 0.21585 0.0
C1475 C 0.34232 0.52046 0.23359 0.0
C1476 C 0.26709 0.51941 0.24434 0.0
H1477 H 0.38869 0.52255 0.20847 0.0
H1478 H 0.41109 0.52047 0.23839 0.0
C1479 C 0.17893 0.51962 0.23774 0.0
C1480 C 0.68497 0.24949 0.96575 0.0
C1481 C 0.76094 0.26182 0.9586 0.0
H1482 H 0.61594 0.23855 -0.01196 0.0
C1483 C 0.82689 0.27302 0.96911 0.0
H1484 H 0.63319 0.24054 0.95806 0.0
C1485 C 0.81728 0.27179 -0.01365 0.0
C1486 C 0.74135 0.25942 -0.00652 0.0
H1487 H 0.88627 0.28275 0.96404 0.0
H1488 H 0.86905 0.28071 -0.00595 0.0
C1489 C 0.67529 0.24831 -0.01702 0.0
C1490 C 0.9259 0.27306 0.73329 0.0
C1491 C 0.98083 0.26005 0.74508 0.0
H1492 H 0.90124 0.28136 0.70764 0.0
C1493 C 0.05568 0.24512 0.7395 0.0
H1494 H 0.86771 0.2848 0.73713 0.0
C1495 C 0.07486 0.24317 0.72254 0.0
C1496 C 0.01965 0.2561 0.71075 0.0
H1497 H 0.09936 0.23487 0.74822 0.0
H1498 H 0.13302 0.23143 0.71868 0.0
C1499 C 0.94503 0.2711 0.71635 0.0
C1500 C 0.68315 0.52933 0.73831 0.0
C1501 C 0.76358 0.51912 0.74523 0.0
H1502 H 0.60848 0.53772 0.71623 0.0
C1503 C 0.83244 0.50961 0.73462 0.0
H1504 H 0.62891 0.53687 0.74613 0.0
C1505 C 0.82087 0.51015 0.71748 0.0
C1506 C 0.74013 0.52016 0.71057 0.0
H1507 H 0.89536 0.50162 0.73954 0.0
H1508 H 0.87498 0.50248 0.70968 0.0
C1509 C 0.67155 0.52986 0.72116 0.0
C1510 C 0.93464 1.00375 0.48418 0.0
C1511 C 0.0123 0.01626 0.49049 0.0
H1512 H 0.8572 0.99348 0.46285 0.0
C1513 C 0.07231 0.02875 0.47935 0.0
H1514 H 0.88702 0.99389 0.49235 0.0
C1515 C 0.05512 0.02855 0.46226 0.0
C1516 C 0.97765 0.01582 0.456 0.0
H1517 H 0.1327 0.03866 0.48381 0.0
H1518 H 0.10268 0.03822 0.45399 0.0
C1519 C 0.9176 1.00351 0.46719 0.0
C1520 C 0.1865 0.26086 0.46842 0.0
C1521 C 0.26642 0.27114 0.46144 0.0
H1522 H 0.11398 0.25123 0.49056 0.0
C1523 C 0.33568 0.28018 0.472 0.0
H1524 H 0.13228 0.25352 0.46062 0.0
C1525 C 0.32524 0.27895 0.48921 0.0
C1526 C 0.24553 0.26851 0.49621 0.0
H1527 H 0.39798 0.28832 0.46698 0.0
H1528 H 0.37958 0.28624 0.49699 0.0
C1529 C 0.17631 0.25946 0.48561 0.0
C1530 C 0.18633 0.99781 0.73605 0.0
C1531 C 0.26713 1.00711 0.74321 0.0
H1532 H 0.11232 0.99053 0.71375 0.0
C1533 C 0.33697 0.01635 0.73278 0.0
H1534 H 0.13112 0.99062 0.74372 0.0
C1535 C 0.32623 0.01632 0.71558 0.0
C1536 C 0.24541 1.00705 0.70843 0.0
H1537 H 0.40015 0.02367 0.73789 0.0
H1538 H 0.38134 0.02359 0.70792 0.0
C1539 C 0.17559 0.99778 0.71885 0.0
C1540 C 0.83387 0.77053 0.46935 0.0
C1541 C 0.77577 0.75726 0.4583 0.0
H1542 H 0.86359 0.78068 0.49444 0.0
C1543 C 0.70026 0.74367 0.46471 0.0
H1544 H 0.89255 0.78132 0.46489 0.0
C1545 C 0.68358 0.74333 0.48181 0.0
C1546 C 0.7422 0.75655 0.49282 0.0
H1547 H 0.65418 0.73327 0.45653 0.0
H1548 H 0.62503 0.73262 0.4864 0.0
C1549 C 0.81737 0.77015 0.48636 0.0
C1550 C 0.66186 0.01891 0.22038 0.0
C1551 C 0.7232 1.0068 0.20924 0.0
H1552 H 0.62887 0.02786 0.24559 0.0
C1553 C 0.80021 0.99379 0.2156 0.0
H1554 H 0.60172 0.02914 0.21595 0.0
C1555 C 0.81576 0.99311 0.23271 0.0
C1556 C 0.75446 1.00534 0.24381 0.0
H1557 H 0.84871 0.98427 0.20737 0.0
H1558 H 0.87598 0.98301 0.23722 0.0
C1559 C 0.67719 0.01813 0.23743 0.0
C1560 C 0.42408 0.51424 0.48758 0.0
C1561 C 0.5091 0.50883 0.49473 0.0
H1562 H 0.34666 0.51743 0.46532 0.0
C1563 C 0.58301 0.50227 0.48437 0.0
H1564 H 0.36584 0.51938 0.49521 0.0
C1565 C 0.57195 0.50101 0.46721 0.0
C1566 C 0.48693 0.50646 0.46009 0.0
H1567 H 0.64952 0.49798 0.48949 0.0
H1568 H 0.63016 0.49599 0.45955 0.0
C1569 C 0.41316 0.51312 0.47044 0.0
C1570 C 0.42547 0.78068 0.73323 0.0
C1571 C 0.48998 0.76874 0.74373 0.0
H1572 H 0.3862 0.78957 0.70835 0.0
C1573 C 0.56595 0.75603 0.73671 0.0
H1574 H 0.36631 0.79076 0.73825 0.0
C1575 C 0.57711 0.75526 0.71953 0.0
C1576 C 0.51266 0.76728 0.70903 0.0
H1577 H 0.61641 0.74646 0.74447 0.0
H1578 H 0.63626 0.7452 0.71449 0.0
C1579 C 0.43669 0.77996 0.71607 0.0
C1580 C 0.43007 0.2784 0.23153 0.0
C1581 C 0.4905 0.26521 0.24231 0.0
H1582 H 0.39888 0.28929 0.20643 0.0
C1583 C 0.56782 0.25279 0.23558 0.0
H1584 H 0.36992 0.28827 0.2363 0.0
C1585 C 0.5843 0.2534 0.21854 0.0
C1586 C 0.52401 0.26649 0.20771 0.0
H1587 H 0.61571 0.24239 0.24345 0.0
H1588 H 0.64458 0.24344 0.21389 0.0
C1589 C 0.4467 0.27905 0.2144 0.0
C1590 C 0.58578 1.0121 -0.01432 0.0
C1591 C 0.51133 0.01706 -0.00375 0.0
H1592 H 0.63308 1.0076 0.96073 0.0
C1593 C 0.42502 0.02122 -0.01072 0.0
H1594 H 0.65327 1.00878 -0.00935 0.0
C1595 C 0.41337 0.02032 0.9721 0.0
C1596 C 0.48798 0.01552 0.96153 0.0
H1597 H 0.36627 0.02494 -0.00291 0.0
H1598 H 0.34591 0.02359 0.9671 0.0
C1599 C 0.57431 1.01146 0.96851 0.0
loop_
_geom_bond_atom_site_label_1
_geom_bond_atom_site_label_2
_geom_bond_distance
_geom_bond_site_symmetry_2
_ccdc_geom_bond_type
Zn0 O6 1.969 . S
Zn0 O7 1.965 . S
Zn0 O11 2.024 . S
Zn0 O16 1.969 . S
Zn1 O8 1.969 . S
Zn1 O14 1.969 . S
Zn1 O15 1.965 . S
Zn1 O17 2.024 . S
C2 O3 1.229 . S
C2 O11 1.058 . S
O3 C2 1.229 . S
C4 O5 1.229 . S
C4 O17 1.058 . S
O5 C4 1.229 . S
O6 Zn0 1.969 . S
O6 C9 1.267 . S
O7 Zn0 1.965 . S
O7 C18 1.260 . S
O8 Zn1 1.969 . S
O8 C18 1.258 1_655 S
C9 O6 1.267 . S
C9 O10 1.228 . S
O10 C9 1.228 . S
O11 Zn0 2.024 . S
O11 C2 1.058 . S
C12 O13 1.228 . S
C12 O14 1.267 . S
O13 C12 1.228 . S
O14 Zn1 1.969 . S
O14 C12 1.267 . S
O15 Zn1 1.965 . S
O15 C19 1.260 1_655 S
O16 Zn0 1.969 . S
O16 C19 1.258 . S
O17 Zn1 2.024 . S
O17 C4 1.058 . S
C18 O7 1.260 . S
C18 O8 1.258 1_455 S
C19 O15 1.260 1_455 S
C19 O16 1.258 . S
Zn20 O26 1.969 1_455 S
Zn20 O27 1.965 . S
Zn20 O31 2.024 . S
Zn20 O36 1.969 . S
Zn21 O28 1.969 . S
Zn21 O34 1.969 . S
Zn21 O35 1.965 . S
Zn21 O37 2.024 . S
C22 O23 1.229 . S
C22 O31 1.058 . S
O23 C22 1.229 . S
C24 O25 1.229 . S
C24 O37 1.058 . S
O25 C24 1.229 . S
O26 Zn20 1.969 1_655 S
O26 C29 1.267 . S
O27 Zn20 1.965 . S
O27 C38 1.260 . S
O28 Zn21 1.969 . S
O28 C38 1.258 . S
C29 O26 1.267 . S
C29 O30 1.228 . S
O30 C29 1.228 . S
O31 Zn20 2.024 . S
O31 C22 1.058 . S
C32 O33 1.228 . S
C32 O34 1.267 . S
O33 C32 1.228 . S
O34 Zn21 1.969 . S
O34 C32 1.267 . S
O35 Zn21 1.965 . S
O35 C39 1.260 . S
O36 Zn20 1.969 . S
O36 C39 1.258 . S
O37 Zn21 2.024 . S
O37 C24 1.058 . S
C38 O27 1.260 . S
C38 O28 1.258 . S
C39 O35 1.260 . S
C39 O36 1.258 . S
Zn40 O46 1.969 . S
Zn40 O47 1.965 . S
Zn40 O51 2.024 . S
Zn40 O56 1.969 . S
Zn41 O48 1.969 . S
Zn41 O54 1.969 . S
Zn41 O55 1.965 . S
Zn41 O57 2.024 . S
C42 O43 1.229 . S
C42 O51 1.058 . S
O43 C42 1.229 . S
C44 O45 1.229 . S
C44 O57 1.058 . S
O45 C44 1.229 . S
O46 Zn40 1.969 . S
O46 C49 1.267 . S
O47 Zn40 1.965 . S
O47 C58 1.260 . S
O48 Zn41 1.969 . S
O48 C58 1.258 1_655 S
C49 O46 1.267 . S
C49 O50 1.228 . S
O50 C49 1.228 . S
O51 Zn40 2.024 . S
O51 C42 1.058 . S
C52 O53 1.228 . S
C52 O54 1.267 . S
O53 C52 1.228 . S
O54 Zn41 1.969 . S
O54 C52 1.267 . S
O55 Zn41 1.965 . S
O55 C59 1.260 1_655 S
O56 Zn40 1.969 . S
O56 C59 1.258 . S
O57 Zn41 2.024 . S
O57 C44 1.058 . S
C58 O47 1.260 . S
C58 O48 1.258 1_455 S
C59 O55 1.260 1_455 S
C59 O56 1.258 . S
Zn60 O66 1.969 1_455 S
Zn60 O67 1.965 . S
Zn60 O71 2.024 . S
Zn60 O76 1.969 . S
Zn61 O68 1.969 . S
Zn61 O74 1.969 . S
Zn61 O75 1.965 . S
Zn61 O77 2.024 . S
C62 O63 1.229 . S
C62 O71 1.058 . S
O63 C62 1.229 . S
C64 O65 1.229 . S
C64 O77 1.058 . S
O65 C64 1.229 . S
O66 Zn60 1.969 1_655 S
O66 C69 1.267 . S
O67 Zn60 1.965 . S
O67 C78 1.260 . S
O68 Zn61 1.969 . S
O68 C78 1.258 . S
C69 O66 1.267 . S
C69 O70 1.228 . S
O70 C69 1.228 . S
O71 Zn60 2.024 . S
O71 C62 1.058 . S
C72 O73 1.228 . S
C72 O74 1.267 . S
O73 C72 1.228 . S
O74 Zn61 1.969 . S
O74 C72 1.267 . S
O75 Zn61 1.965 . S
O75 C79 1.260 . S
O76 Zn60 1.969 . S
O76 C79 1.258 . S
O77 Zn61 2.024 . S
O77 C64 1.058 . S
C78 O67 1.260 . S
C78 O68 1.258 . S
C79 O75 1.260 . S
C79 O76 1.258 . S
Zn80 O86 1.969 . S
Zn80 O87 1.965 . S
Zn80 O91 2.024 . S
Zn80 O96 1.969 . S
Zn81 O88 1.969 . S
Zn81 O94 1.969 . S
Zn81 O95 1.965 . S
Zn81 O97 2.024 . S
C82 O83 1.229 . S
C82 O91 1.058 . S
O83 C82 1.229 . S
C84 O85 1.229 . S
C84 O97 1.058 . S
O85 C84 1.229 . S
O86 Zn80 1.969 . S
O86 C89 1.267 . S
O87 Zn80 1.965 . S
O87 C98 1.260 1_455 S
O88 Zn81 1.969 . S
O88 C98 1.258 . S
C89 O86 1.267 . S
C89 O90 1.228 . S
O90 C89 1.228 . S
O91 Zn80 2.024 . S
O91 C82 1.058 . S
C92 O93 1.228 . S
C92 O94 1.267 . S
O93 C92 1.228 . S
O94 Zn81 1.969 . S
O94 C92 1.267 . S
O95 Zn81 1.965 . S
O95 C99 1.260 . S
O96 Zn80 1.969 . S
O96 C99 1.258 1_455 S
O97 Zn81 2.024 . S
O97 C84 1.058 . S
C98 O87 1.260 1_655 S
C98 O88 1.258 . S
C99 O95 1.260 . S
C99 O96 1.258 1_655 S
Zn100 O106 1.969 . S
Zn100 O107 1.965 . S
Zn100 O111 2.024 . S
Zn100 O116 1.969 . S
Zn101 O108 1.969 . S
Zn101 O114 1.969 1_655 S
Zn101 O115 1.965 . S
Zn101 O117 2.024 . S
C102 O103 1.229 . S
C102 O111 1.058 . S
O103 C102 1.229 . S
C104 O105 1.229 . S
C104 O117 1.058 . S
O105 C104 1.229 . S
O106 Zn100 1.969 . S
O106 C109 1.267 . S
O107 Zn100 1.965 . S
O107 C118 1.260 . S
O108 Zn101 1.969 . S
O108 C118 1.258 . S
C109 O106 1.267 . S
C109 O110 1.228 . S
O110 C109 1.228 . S
O111 Zn100 2.024 . S
O111 C102 1.058 . S
C112 O113 1.228 . S
C112 O114 1.267 . S
O113 C112 1.228 . S
O114 Zn101 1.969 1_455 S
O114 C112 1.267 . S
O115 Zn101 1.965 . S
O115 C119 1.260 . S
O116 Zn100 1.969 . S
O116 C119 1.258 . S
O117 Zn101 2.024 . S
O117 C104 1.058 . S
C118 O107 1.260 . S
C118 O108 1.258 . S
C119 O115 1.260 . S
C119 O116 1.258 . S
Zn120 O126 1.969 . S
Zn120 O127 1.965 . S
Zn120 O131 2.024 . S
Zn120 O136 1.969 . S
Zn121 O128 1.969 . S
Zn121 O134 1.969 . S
Zn121 O135 1.965 . S
Zn121 O137 2.024 . S
C122 O123 1.229 . S
C122 O131 1.058 . S
O123 C122 1.229 . S
C124 O125 1.229 . S
C124 O137 1.058 . S
O125 C124 1.229 . S
O126 Zn120 1.969 . S
O126 C129 1.267 . S
O127 Zn120 1.965 . S
O127 C138 1.260 1_455 S
O128 Zn121 1.969 . S
O128 C138 1.258 . S
C129 O126 1.267 . S
C129 O130 1.228 . S
O130 C129 1.228 . S
O131 Zn120 2.024 . S
O131 C122 1.058 . S
C132 O133 1.228 . S
C132 O134 1.267 . S
O133 C132 1.228 . S
O134 Zn121 1.969 . S
O134 C132 1.267 . S
O135 Zn121 1.965 . S
O135 C139 1.260 . S
O136 Zn120 1.969 . S
O136 C139 1.258 1_455 S
O137 Zn121 2.024 . S
O137 C124 1.058 . S
C138 O127 1.260 1_655 S
C138 O128 1.258 . S
C139 O135 1.260 . S
C139 O136 1.258 1_655 S
Zn140 O146 1.969 . S
Zn140 O147 1.965 . S
Zn140 O151 2.024 . S
Zn140 O156 1.969 . S
Zn141 O148 1.969 . S
Zn141 O154 1.969 1_655 S
Zn141 O155 1.965 . S
Zn141 O157 2.024 . S
C142 O143 1.229 . S
C142 O151 1.058 . S
O143 C142 1.229 . S
C144 O145 1.229 . S
C144 O157 1.058 . S
O145 C144 1.229 . S
O146 Zn140 1.969 . S
O146 C149 1.267 . S
O147 Zn140 1.965 . S
O147 C158 1.260 . S
O148 Zn141 1.969 . S
O148 C158 1.258 . S
C149 O146 1.267 . S
C149 O150 1.228 . S
O150 C149 1.228 . S
O151 Zn140 2.024 . S
O151 C142 1.058 . S
C152 O153 1.228 . S
C152 O154 1.267 . S
O153 C152 1.228 . S
O154 Zn141 1.969 1_455 S
O154 C152 1.267 . S
O155 Zn141 1.965 . S
O155 C159 1.260 . S
O156 Zn140 1.969 . S
O156 C159 1.258 . S
O157 Zn141 2.024 . S
O157 C144 1.058 . S
C158 O147 1.260 . S
C158 O148 1.258 . S
C159 O155 1.260 . S
C159 O156 1.258 . S
Zn160 O166 1.969 . S
Zn160 O167 1.965 1_545 S
Zn160 O171 2.024 . S
Zn160 O176 1.969 . S
Zn161 O168 1.969 . S
Zn161 O174 1.969 . S
Zn161 O175 1.939 1_565 S
Zn161 O177 2.024 . S
C162 O163 1.229 . S
C162 O171 1.058 . S
O163 C162 1.229 . S
C164 O165 1.229 . S
C164 O177 1.058 . S
O165 C164 1.229 . S
O166 Zn160 1.969 . S
O166 C169 1.267 . S
O167 Zn160 1.965 1_565 S
O167 C178 1.260 . S
O168 Zn161 1.969 . S
O168 C178 1.258 1_655 S
C169 O166 1.267 . S
C169 O170 1.228 . S
O170 C169 1.228 . S
O171 Zn160 2.024 . S
O171 C162 1.058 . S
C172 O173 1.228 . S
C172 O174 1.267 . S
O173 C172 1.228 . S
O174 Zn161 1.969 . S
O174 C172 1.267 . S
O175 Zn161 1.939 1_545 S
O175 C179 1.265 1_655 S
O176 Zn160 1.969 . S
O176 C179 1.258 . S
O177 Zn161 2.024 . S
O177 C164 1.058 . S
C178 O167 1.260 . S
C178 O168 1.258 1_455 S
C179 O175 1.265 1_455 S
C179 O176 1.258 . S
Zn180 O186 1.969 1_455 S
Zn180 O187 1.965 . S
Zn180 O191 2.024 . S
Zn180 O196 1.969 . S
Zn181 O188 1.969 . S
Zn181 O194 1.969 . S
Zn181 O195 1.965 . S
Zn181 O197 2.024 . S
C182 O183 1.229 . S
C182 O191 1.058 . S
O183 C182 1.229 . S
C184 O185 1.229 . S
C184 O197 1.058 . S
O185 C184 1.229 . S
O186 Zn180 1.969 1_655 S
O186 C189 1.267 . S
O187 Zn180 1.965 . S
O187 C198 1.260 . S
O188 Zn181 1.969 . S
O188 C198 1.258 . S
C189 O186 1.267 . S
C189 O190 1.228 . S
O190 C189 1.228 . S
O191 Zn180 2.024 . S
O191 C182 1.058 . S
C192 O193 1.228 . S
C192 O194 1.267 . S
O193 C192 1.228 . S
O194 Zn181 1.969 . S
O194 C192 1.267 . S
O195 Zn181 1.965 . S
O195 C199 1.260 . S
O196 Zn180 1.969 . S
O196 C199 1.258 . S
O197 Zn181 2.024 . S
O197 C184 1.058 . S
C198 O187 1.260 . S
C198 O188 1.258 . S
C199 O195 1.260 . S
C199 O196 1.258 . S
Zn200 O206 1.969 . S
Zn200 O207 1.965 . S
Zn200 O211 2.024 . S
Zn200 O216 1.969 . S
Zn201 O208 1.969 . S
Zn201 O214 1.969 . S
Zn201 O215 1.965 . S
Zn201 O217 2.024 . S
C202 O203 1.229 . S
C202 O211 1.058 . S
O203 C202 1.229 . S
C204 O205 1.229 . S
C204 O217 1.058 . S
O205 C204 1.229 . S
O206 Zn200 1.969 . S
O206 C209 1.267 . S
O207 Zn200 1.965 . S
O207 C218 1.260 . S
O208 Zn201 1.969 . S
O208 C218 1.258 1_655 S
C209 O206 1.267 . S
C209 O210 1.228 . S
O210 C209 1.228 . S
O211 Zn200 2.024 . S
O211 C202 1.058 . S
C212 O213 1.228 . S
C212 O214 1.267 . S
O213 C212 1.228 . S
O214 Zn201 1.969 . S
O214 C212 1.267 . S
O215 Zn201 1.965 . S
O215 C219 1.260 1_655 S
O216 Zn200 1.969 . S
O216 C219 1.258 . S
O217 Zn201 2.024 . S
O217 C204 1.058 . S
C218 O207 1.260 . S
C218 O208 1.258 1_455 S
C219 O215 1.260 1_455 S
C219 O216 1.258 . S
Zn220 O226 1.969 1_455 S
Zn220 O227 1.965 1_545 S
Zn220 O231 2.024 . S
Zn220 O236 1.969 . S
Zn221 O228 1.969 . S
Zn221 O234 1.969 . S
Zn221 O235 1.939 1_565 S
Zn221 O237 2.024 . S
C222 O223 1.229 . S
C222 O231 1.058 . S
O223 C222 1.229 . S
C224 O225 1.229 . S
C224 O237 1.058 . S
O225 C224 1.229 . S
O226 Zn220 1.969 1_655 S
O226 C229 1.267 . S
O227 Zn220 1.965 1_565 S
O227 C238 1.260 . S
O228 Zn221 1.969 . S
O228 C238 1.258 . S
C229 O226 1.267 . S
C229 O230 1.228 . S
O230 C229 1.228 . S
O231 Zn220 2.024 . S
O231 C222 1.058 . S
C232 O233 1.228 . S
C232 O234 1.267 . S
O233 C232 1.228 . S
O234 Zn221 1.969 . S
O234 C232 1.267 . S
O235 Zn221 1.939 1_545 S
O235 C239 1.264 . S
O236 Zn220 1.969 . S
O236 C239 1.258 . S
O237 Zn221 2.024 . S
O237 C224 1.058 . S
C238 O227 1.260 . S
C238 O228 1.258 . S
C239 O235 1.264 . S
C239 O236 1.258 . S
Zn240 O246 1.969 . S
Zn240 O247 1.939 1_545 S
Zn240 O251 2.024 . S
Zn240 O256 1.969 . S
Zn241 O248 1.969 . S
Zn241 O254 1.969 . S
Zn241 O255 1.965 1_565 S
Zn241 O257 2.024 . S
C242 O243 1.229 . S
C242 O251 1.058 . S
O243 C242 1.229 . S
C244 O245 1.229 . S
C244 O257 1.058 . S
O245 C244 1.229 . S
O246 Zn240 1.969 . S
O246 C249 1.267 . S
O247 Zn240 1.939 1_565 S
O247 C258 1.265 1_455 S
O248 Zn241 1.969 . S
O248 C258 1.258 . S
C249 O246 1.267 . S
C249 O250 1.228 . S
O250 C249 1.228 . S
O251 Zn240 2.024 . S
O251 C242 1.058 . S
C252 O253 1.228 . S
C252 O254 1.267 . S
O253 C252 1.228 . S
O254 Zn241 1.969 . S
O254 C252 1.267 . S
O255 Zn241 1.965 1_545 S
O255 C259 1.260 . S
O256 Zn240 1.969 . S
O256 C259 1.258 1_455 S
O257 Zn241 2.024 . S
O257 C244 1.058 . S
C258 O247 1.265 1_655 S
C258 O248 1.258 . S
C259 O255 1.260 . S
C259 O256 1.258 1_655 S
Zn260 O266 1.969 . S
Zn260 O267 1.965 . S
Zn260 O271 2.024 . S
Zn260 O276 1.969 . S
Zn261 O268 1.969 . S
Zn261 O274 1.969 1_655 S
Zn261 O275 1.965 . S
Zn261 O277 2.024 . S
C262 O263 1.229 . S
C262 O271 1.058 . S
O263 C262 1.229 . S
C264 O265 1.229 . S
C264 O277 1.058 . S
O265 C264 1.229 . S
O266 Zn260 1.969 . S
O266 C269 1.267 . S
O267 Zn260 1.965 . S
O267 C278 1.260 . S
O268 Zn261 1.969 . S
O268 C278 1.258 . S
C269 O266 1.267 . S
C269 O270 1.228 . S
O270 C269 1.228 . S
O271 Zn260 2.024 . S
O271 C262 1.058 . S
C272 O273 1.228 . S
C272 O274 1.267 . S
O273 C272 1.228 . S
O274 Zn261 1.969 1_455 S
O274 C272 1.267 . S
O275 Zn261 1.965 . S
O275 C279 1.260 . S
O276 Zn260 1.969 . S
O276 C279 1.258 . S
O277 Zn261 2.024 . S
O277 C264 1.058 . S
C278 O267 1.260 . S
C278 O268 1.258 . S
C279 O275 1.260 . S
C279 O276 1.258 . S
Zn280 O286 1.969 . S
Zn280 O287 1.965 . S
Zn280 O291 2.024 . S
Zn280 O296 1.969 . S
Zn281 O288 1.969 . S
Zn281 O294 1.969 . S
Zn281 O295 1.965 . S
Zn281 O297 2.024 . S
C282 O283 1.229 . S
C282 O291 1.058 . S
O283 C282 1.229 . S
C284 O285 1.229 . S
C284 O297 1.058 . S
O285 C284 1.229 . S
O286 Zn280 1.969 . S
O286 C289 1.267 . S
O287 Zn280 1.965 . S
O287 C298 1.260 1_455 S
O288 Zn281 1.969 . S
O288 C298 1.258 . S
C289 O286 1.267 . S
C289 O290 1.228 . S
O290 C289 1.228 . S
O291 Zn280 2.024 . S
O291 C282 1.058 . S
C292 O293 1.228 . S
C292 O294 1.267 . S
O293 C292 1.228 . S
O294 Zn281 1.969 . S
O294 C292 1.267 . S
O295 Zn281 1.965 . S
O295 C299 1.260 . S
O296 Zn280 1.969 . S
O296 C299 1.258 1_455 S
O297 Zn281 2.024 . S
O297 C284 1.058 . S
C298 O287 1.260 1_655 S
C298 O288 1.258 . S
C299 O295 1.260 . S
C299 O296 1.258 1_655 S
Zn300 O306 1.969 . S
Zn300 O307 1.939 1_545 S
Zn300 O311 2.024 . S
Zn300 O316 1.969 . S
Zn301 O308 1.969 . S
Zn301 O314 1.969 1_655 S
Zn301 O315 1.965 1_565 S
Zn301 O317 2.024 . S
C302 O303 1.229 . S
C302 O311 1.058 . S
O303 C302 1.229 . S
C304 O305 1.229 . S
C304 O317 1.058 . S
O305 C304 1.229 . S
O306 Zn300 1.969 . S
O306 C309 1.267 . S
O307 Zn300 1.939 1_565 S
O307 C318 1.264 . S
O308 Zn301 1.969 . S
O308 C318 1.258 . S
C309 O306 1.267 . S
C309 O310 1.228 . S
O310 C309 1.228 . S
O311 Zn300 2.024 . S
O311 C302 1.058 . S
C312 O313 1.228 . S
C312 O314 1.267 . S
O313 C312 1.228 . S
O314 Zn301 1.969 1_455 S
O314 C312 1.267 . S
O315 Zn301 1.965 1_545 S
O315 C319 1.260 . S
O316 Zn300 1.969 . S
O316 C319 1.258 . S
O317 Zn301 2.024 . S
O317 C304 1.058 . S
C318 O307 1.264 . S
C318 O308 1.258 . S
C319 O315 1.260 . S
C319 O316 1.258 . S
Zn320 O326 1.969 . S
Zn320 O327 1.965 . S
Zn320 O331 2.024 . S
Zn320 O336 1.969 . S
Zn321 O328 1.969 . S
Zn321 O334 1.969 . S
Zn321 O335 1.965 . S
Zn321 O337 2.024 . S
C322 O323 1.229 . S
C322 O331 1.058 . S
O323 C322 1.229 . S
C324 O325 1.229 . S
C324 O337 1.058 . S
O325 C324 1.229 . S
O326 Zn320 1.969 . S
O326 C329 1.267 . S
O327 Zn320 1.965 . S
O327 C338 1.260 . S
O328 Zn321 1.969 . S
O328 C338 1.258 . S
C329 O326 1.267 . S
C329 O330 1.228 . S
O330 C329 1.228 . S
O331 Zn320 2.024 . S
O331 C322 1.058 . S
C332 O333 1.228 . S
C332 O334 1.267 . S
O333 C332 1.228 . S
O334 Zn321 1.969 . S
O334 C332 1.267 . S
O335 Zn321 1.965 . S
O335 C339 1.260 . S
O336 Zn320 1.969 . S
O336 C339 1.258 . S
O337 Zn321 2.024 . S
O337 C324 1.058 . S
C338 O327 1.260 . S
C338 O328 1.258 . S
C339 O335 1.260 . S
C339 O336 1.258 . S
Zn340 O346 1.969 . S
Zn340 O347 1.965 . S
Zn340 O351 2.024 . S
Zn340 O356 1.969 . S
Zn341 O348 1.969 . S
Zn341 O354 1.969 . S
Zn341 O355 1.965 . S
Zn341 O357 2.024 . S
C342 O343 1.229 . S
C342 O351 1.058 . S
O343 C342 1.229 . S
C344 O345 1.229 . S
C344 O357 1.058 . S
O345 C344 1.229 . S
O346 Zn340 1.969 . S
O346 C349 1.267 . S
O347 Zn340 1.965 . S
O347 C358 1.260 . S
O348 Zn341 1.969 . S
O348 C358 1.258 . S
C349 O346 1.267 . S
C349 O350 1.228 . S
O350 C349 1.228 . S
O351 Zn340 2.024 . S
O351 C342 1.058 . S
C352 O353 1.229 . S
C352 O354 1.267 1_455 S
O353 C352 1.229 . S
O354 Zn341 1.969 . S
O354 C352 1.267 1_655 S
O355 Zn341 1.965 . S
O355 C359 1.260 . S
O356 Zn340 1.969 . S
O356 C359 1.258 . S
O357 Zn341 2.024 . S
O357 C344 1.058 . S
C358 O347 1.260 . S
C358 O348 1.258 . S
C359 O355 1.260 . S
C359 O356 1.258 . S
Zn360 O366 1.969 . S
Zn360 O367 1.965 . S
Zn360 O371 2.024 . S
Zn360 O376 1.969 . S
Zn361 O368 1.969 . S
Zn361 O374 1.969 . S
Zn361 O375 1.965 . S
Zn361 O377 2.024 . S
C362 O363 1.229 . S
C362 O371 1.058 . S
O363 C362 1.229 . S
C364 O365 1.229 . S
C364 O377 1.058 . S
O365 C364 1.229 . S
O366 Zn360 1.969 . S
O366 C369 1.267 . S
O367 Zn360 1.965 . S
O367 C378 1.260 . S
O368 Zn361 1.969 . S
O368 C378 1.258 . S
C369 O366 1.267 . S
C369 O370 1.228 . S
O370 C369 1.228 . S
O371 Zn360 2.024 . S
O371 C362 1.058 . S
C372 O373 1.228 . S
C372 O374 1.267 . S
O373 C372 1.228 . S
O374 Zn361 1.969 . S
O374 C372 1.267 . S
O375 Zn361 1.965 . S
O375 C379 1.260 . S
O376 Zn360 1.969 . S
O376 C379 1.258 . S
O377 Zn361 2.024 . S
O377 C364 1.058 . S
C378 O367 1.260 . S
C378 O368 1.258 . S
C379 O375 1.260 . S
C379 O376 1.258 . S
Zn380 O386 1.969 . S
Zn380 O387 1.965 . S
Zn380 O391 2.024 . S
Zn380 O396 1.969 . S
Zn381 O388 1.969 . S
Zn381 O394 1.969 . S
Zn381 O395 1.965 . S
Zn381 O397 2.024 . S
C382 O383 1.229 . S
C382 O391 1.058 . S
O383 C382 1.229 . S
C384 O385 1.229 . S
C384 O397 1.058 . S
O385 C384 1.229 . S
O386 Zn380 1.969 . S
O386 C389 1.267 . S
O387 Zn380 1.965 . S
O387 C398 1.260 . S
O388 Zn381 1.969 . S
O388 C398 1.258 . S
C389 O386 1.267 . S
C389 O390 1.228 . S
O390 C389 1.228 . S
O391 Zn380 2.024 . S
O391 C382 1.058 . S
C392 O393 1.229 . S
C392 O394 1.267 1_455 S
O393 C392 1.229 . S
O394 Zn381 1.969 . S
O394 C392 1.267 1_655 S
O395 Zn381 1.965 . S
O395 C399 1.260 . S
O396 Zn380 1.969 . S
O396 C399 1.258 . S
O397 Zn381 2.024 . S
O397 C384 1.058 . S
C398 O387 1.260 . S
C398 O388 1.258 . S
C399 O395 1.260 . S
C399 O396 1.258 . S
Zn400 O406 1.969 . S
Zn400 O407 1.965 . S
Zn400 O411 2.024 . S
Zn400 O416 1.969 . S
Zn401 O408 1.969 . S
Zn401 O414 1.969 . S
Zn401 O415 1.965 . S
Zn401 O417 2.024 . S
C402 O403 1.229 . S
C402 O411 1.058 . S
O403 C402 1.229 . S
C404 O405 1.229 . S
C404 O417 1.058 . S
O405 C404 1.229 . S
O406 Zn400 1.969 . S
O406 C409 1.267 . S
O407 Zn400 1.965 . S
O407 C418 1.260 . S
O408 Zn401 1.969 . S
O408 C418 1.258 . S
C409 O406 1.267 . S
C409 O410 1.228 . S
O410 C409 1.228 . S
O411 Zn400 2.024 . S
O411 C402 1.058 . S
C412 O413 1.228 . S
C412 O414 1.267 . S
O413 C412 1.228 . S
O414 Zn401 1.969 . S
O414 C412 1.267 . S
O415 Zn401 1.965 . S
O415 C419 1.260 . S
O416 Zn400 1.969 . S
O416 C419 1.258 . S
O417 Zn401 2.024 . S
O417 C404 1.058 . S
C418 O407 1.260 . S
C418 O408 1.258 . S
C419 O415 1.260 . S
C419 O416 1.258 . S
Zn420 O426 1.969 . S
Zn420 O427 1.965 . S
Zn420 O431 2.024 . S
Zn420 O436 1.969 . S
Zn421 O428 1.969 . S
Zn421 O434 1.969 . S
Zn421 O435 1.965 . S
Zn421 O437 2.024 . S
C422 O423 1.229 . S
C422 O431 1.058 . S
O423 C422 1.229 . S
C424 O425 1.229 . S
C424 O437 1.058 . S
O425 C424 1.229 . S
O426 Zn420 1.969 . S
O426 C429 1.267 1_455 S
O427 Zn420 1.965 . S
O427 C438 1.260 . S
O428 Zn421 1.969 . S
O428 C438 1.258 . S
C429 O426 1.267 1_655 S
C429 O430 1.229 . S
O430 C429 1.229 . S
O431 Zn420 2.024 . S
O431 C422 1.058 . S
C432 O433 1.228 . S
C432 O434 1.267 . S
O433 C432 1.228 . S
O434 Zn421 1.969 . S
O434 C432 1.267 . S
O435 Zn421 1.965 . S
O435 C439 1.260 . S
O436 Zn420 1.969 . S
O436 C439 1.258 . S
O437 Zn421 2.024 . S
O437 C424 1.058 . S
C438 O427 1.260 . S
C438 O428 1.258 . S
C439 O435 1.260 . S
C439 O436 1.258 . S
Zn440 O446 1.969 . S
Zn440 O447 1.965 . S
Zn440 O451 2.024 . S
Zn440 O456 1.969 . S
Zn441 O448 1.969 . S
Zn441 O454 1.969 . S
Zn441 O455 1.965 . S
Zn441 O457 2.024 . S
C442 O443 1.229 . S
C442 O451 1.058 . S
O443 C442 1.229 . S
C444 O445 1.229 . S
C444 O457 1.058 . S
O445 C444 1.229 . S
O446 Zn440 1.969 . S
O446 C449 1.267 . S
O447 Zn440 1.965 . S
O447 C458 1.260 . S
O448 Zn441 1.969 . S
O448 C458 1.258 . S
C449 O446 1.267 . S
C449 O450 1.228 . S
O450 C449 1.228 . S
O451 Zn440 2.024 . S
O451 C442 1.058 . S
C452 O453 1.228 . S
C452 O454 1.267 . S
O453 C452 1.228 . S
O454 Zn441 1.969 . S
O454 C452 1.267 . S
O455 Zn441 1.965 . S
O455 C459 1.260 . S
O456 Zn440 1.969 . S
O456 C459 1.258 . S
O457 Zn441 2.024 . S
O457 C444 1.058 . S
C458 O447 1.260 . S
C458 O448 1.258 . S
C459 O455 1.260 . S
C459 O456 1.258 . S
Zn460 O466 1.969 . S
Zn460 O467 1.965 . S
Zn460 O471 2.024 . S
Zn460 O476 1.969 . S
Zn461 O468 1.969 . S
Zn461 O474 1.969 . S
Zn461 O475 1.965 . S
Zn461 O477 2.024 . S
C462 O463 1.229 . S
C462 O471 1.058 . S
O463 C462 1.229 . S
C464 O465 1.229 . S
C464 O477 1.058 . S
O465 C464 1.229 . S
O466 Zn460 1.969 . S
O466 C469 1.267 1_455 S
O467 Zn460 1.965 . S
O467 C478 1.260 . S
O468 Zn461 1.969 . S
O468 C478 1.258 . S
C469 O466 1.267 1_655 S
C469 O470 1.229 . S
O470 C469 1.229 . S
O471 Zn460 2.024 . S
O471 C462 1.058 . S
C472 O473 1.228 . S
C472 O474 1.267 . S
O473 C472 1.228 . S
O474 Zn461 1.969 . S
O474 C472 1.267 . S
O475 Zn461 1.965 . S
O475 C479 1.260 . S
O476 Zn460 1.969 . S
O476 C479 1.258 . S
O477 Zn461 2.024 . S
O477 C464 1.058 . S
C478 O467 1.260 . S
C478 O468 1.258 . S
C479 O475 1.260 . S
C479 O476 1.258 . S
Zn480 O486 1.969 . S
Zn480 O487 1.965 1_545 S
Zn480 O491 2.024 . S
Zn480 O496 1.969 . S
Zn481 O488 1.969 . S
Zn481 O494 1.969 . S
Zn481 O495 1.939 1_565 S
Zn481 O497 2.024 . S
C482 O483 1.229 . S
C482 O491 1.058 . S
O483 C482 1.229 . S
C484 O485 1.229 . S
C484 O497 1.058 . S
O485 C484 1.229 . S
O486 Zn480 1.969 . S
O486 C489 1.267 . S
O487 Zn480 1.965 1_565 S
O487 C498 1.260 . S
O488 Zn481 1.969 . S
O488 C498 1.258 . S
C489 O486 1.267 . S
C489 O490 1.228 . S
O490 C489 1.228 . S
O491 Zn480 2.024 . S
O491 C482 1.058 . S
C492 O493 1.228 . S
C492 O494 1.267 . S
O493 C492 1.228 . S
O494 Zn481 1.969 . S
O494 C492 1.267 . S
O495 Zn481 1.939 1_545 S
O495 C499 1.265 . S
O496 Zn480 1.969 . S
O496 C499 1.258 . S
O497 Zn481 2.024 . S
O497 C484 1.058 . S
C498 O487 1.260 . S
C498 O488 1.258 . S
C499 O495 1.265 . S
C499 O496 1.258 . S
Zn500 O506 1.969 . S
Zn500 O507 1.965 . S
Zn500 O511 2.024 . S
Zn500 O516 1.969 . S
Zn501 O508 1.969 . S
Zn501 O514 1.969 . S
Zn501 O515 1.965 . S
Zn501 O517 2.024 . S
C502 O503 1.229 . S
C502 O511 1.058 . S
O503 C502 1.229 . S
C504 O505 1.229 . S
C504 O517 1.058 . S
O505 C504 1.229 . S
O506 Zn500 1.969 . S
O506 C509 1.267 . S
O507 Zn500 1.965 . S
O507 C518 1.260 . S
O508 Zn501 1.969 . S
O508 C518 1.258 . S
C509 O506 1.267 . S
C509 O510 1.228 . S
O510 C509 1.228 . S
O511 Zn500 2.024 . S
O511 C502 1.058 . S
C512 O513 1.229 . S
C512 O514 1.267 1_455 S
O513 C512 1.229 . S
O514 Zn501 1.969 . S
O514 C512 1.267 1_655 S
O515 Zn501 1.965 . S
O515 C519 1.260 . S
O516 Zn500 1.969 . S
O516 C519 1.258 . S
O517 Zn501 2.024 . S
O517 C504 1.058 . S
C518 O507 1.260 . S
C518 O508 1.258 . S
C519 O515 1.260 . S
C519 O516 1.258 . S
Zn520 O526 1.969 . S
Zn520 O527 1.965 . S
Zn520 O531 2.024 . S
Zn520 O536 1.969 . S
Zn521 O528 1.969 . S
Zn521 O534 1.969 . S
Zn521 O535 1.965 . S
Zn521 O537 2.024 . S
C522 O523 1.229 . S
C522 O531 1.058 . S
O523 C522 1.229 . S
C524 O525 1.229 . S
C524 O537 1.058 . S
O525 C524 1.229 . S
O526 Zn520 1.969 . S
O526 C529 1.267 . S
O527 Zn520 1.965 . S
O527 C538 1.260 . S
O528 Zn521 1.969 . S
O528 C538 1.258 . S
C529 O526 1.267 . S
C529 O530 1.228 . S
O530 C529 1.228 . S
O531 Zn520 2.024 . S
O531 C522 1.058 . S
C532 O533 1.228 . S
C532 O534 1.267 . S
O533 C532 1.228 . S
O534 Zn521 1.969 . S
O534 C532 1.267 . S
O535 Zn521 1.965 . S
O535 C539 1.260 . S
O536 Zn520 1.969 . S
O536 C539 1.258 . S
O537 Zn521 2.024 . S
O537 C524 1.058 . S
C538 O527 1.260 . S
C538 O528 1.258 . S
C539 O535 1.260 . S
C539 O536 1.258 . S
Zn540 O546 1.969 . S
Zn540 O547 1.965 1_545 S
Zn540 O551 2.024 . S
Zn540 O556 1.969 . S
Zn541 O548 1.969 . S
Zn541 O554 1.969 . S
Zn541 O555 1.939 1_565 S
Zn541 O557 2.024 . S
C542 O543 1.229 . S
C542 O551 1.058 . S
O543 C542 1.229 . S
C544 O545 1.229 . S
C544 O557 1.058 . S
O545 C544 1.229 . S
O546 Zn540 1.969 . S
O546 C549 1.267 . S
O547 Zn540 1.965 1_565 S
O547 C558 1.260 . S
O548 Zn541 1.969 . S
O548 C558 1.258 . S
C549 O546 1.267 . S
C549 O550 1.228 . S
O550 C549 1.228 . S
O551 Zn540 2.024 . S
O551 C542 1.058 . S
C552 O553 1.229 . S
C552 O554 1.267 1_455 S
O553 C552 1.229 . S
O554 Zn541 1.969 . S
O554 C552 1.267 1_655 S
O555 Zn541 1.939 1_545 S
O555 C559 1.264 . S
O556 Zn540 1.969 . S
O556 C559 1.258 . S
O557 Zn541 2.024 . S
O557 C544 1.058 . S
C558 O547 1.260 . S
C558 O548 1.258 . S
C559 O555 1.264 . S
C559 O556 1.258 . S
Zn560 O566 1.969 . S
Zn560 O567 1.939 1_545 S
Zn560 O571 2.024 . S
Zn560 O576 1.969 . S
Zn561 O568 1.969 . S
Zn561 O574 1.969 . S
Zn561 O575 1.965 1_565 S
Zn561 O577 2.024 . S
C562 O563 1.229 . S
C562 O571 1.058 . S
O563 C562 1.229 . S
C564 O565 1.229 . S
C564 O577 1.058 . S
O565 C564 1.229 . S
O566 Zn560 1.969 . S
O566 C569 1.267 . S
O567 Zn560 1.939 1_565 S
O567 C578 1.265 . S
O568 Zn561 1.969 . S
O568 C578 1.258 . S
C569 O566 1.267 . S
C569 O570 1.228 . S
O570 C569 1.228 . S
O571 Zn560 2.024 . S
O571 C562 1.058 . S
C572 O573 1.228 . S
C572 O574 1.267 . S
O573 C572 1.228 . S
O574 Zn561 1.969 . S
O574 C572 1.267 . S
O575 Zn561 1.965 1_545 S
O575 C579 1.260 . S
O576 Zn560 1.969 . S
O576 C579 1.258 . S
O577 Zn561 2.024 . S
O577 C564 1.058 . S
C578 O567 1.265 . S
C578 O568 1.258 . S
C579 O575 1.260 . S
C579 O576 1.258 . S
Zn580 O586 1.969 . S
Zn580 O587 1.965 . S
Zn580 O591 2.024 . S
Zn580 O596 1.969 . S
Zn581 O588 1.969 . S
Zn581 O594 1.969 . S
Zn581 O595 1.965 . S
Zn581 O597 2.024 . S
C582 O583 1.229 . S
C582 O591 1.058 . S
O583 C582 1.229 . S
C584 O585 1.229 . S
C584 O597 1.058 . S
O585 C584 1.229 . S
O586 Zn580 1.969 . S
O586 C589 1.267 1_455 S
O587 Zn580 1.965 . S
O587 C598 1.260 . S
O588 Zn581 1.969 . S
O588 C598 1.258 . S
C589 O586 1.267 1_655 S
C589 O590 1.229 . S
O590 C589 1.229 . S
O591 Zn580 2.024 . S
O591 C582 1.058 . S
C592 O593 1.228 . S
C592 O594 1.267 . S
O593 C592 1.228 . S
O594 Zn581 1.969 . S
O594 C592 1.267 . S
O595 Zn581 1.965 . S
O595 C599 1.260 . S
O596 Zn580 1.969 . S
O596 C599 1.258 . S
O597 Zn581 2.024 . S
O597 C584 1.058 . S
C598 O587 1.260 . S
C598 O588 1.258 . S
C599 O595 1.260 . S
C599 O596 1.258 . S
Zn600 O606 1.969 . S
Zn600 O607 1.965 . S
Zn600 O611 2.024 . S
Zn600 O616 1.969 . S
Zn601 O608 1.969 . S
Zn601 O614 1.969 . S
Zn601 O615 1.965 . S
Zn601 O617 2.024 . S
C602 O603 1.229 . S
C602 O611 1.058 . S
O603 C602 1.229 . S
C604 O605 1.229 . S
C604 O617 1.058 . S
O605 C604 1.229 . S
O606 Zn600 1.969 . S
O606 C609 1.267 . S
O607 Zn600 1.965 . S
O607 C618 1.260 . S
O608 Zn601 1.969 . S
O608 C618 1.258 . S
C609 O606 1.267 . S
C609 O610 1.228 . S
O610 C609 1.228 . S
O611 Zn600 2.024 . S
O611 C602 1.058 . S
C612 O613 1.228 . S
C612 O614 1.267 . S
O613 C612 1.228 . S
O614 Zn601 1.969 . S
O614 C612 1.267 . S
O615 Zn601 1.965 . S
O615 C619 1.260 . S
O616 Zn600 1.969 . S
O616 C619 1.258 . S
O617 Zn601 2.024 . S
O617 C604 1.058 . S
C618 O607 1.260 . S
C618 O608 1.258 . S
C619 O615 1.260 . S
C619 O616 1.258 . S
Zn620 O626 1.969 . S
Zn620 O627 1.939 1_545 S
Zn620 O631 2.024 . S
Zn620 O636 1.969 . S
Zn621 O628 1.969 . S
Zn621 O634 1.969 . S
Zn621 O635 1.965 1_565 S
Zn621 O637 2.024 . S
C622 O623 1.229 . S
C622 O631 1.058 . S
O623 C622 1.229 . S
C624 O625 1.229 . S
C624 O637 1.058 . S
O625 C624 1.229 . S
O626 Zn620 1.969 . S
O626 C629 1.267 1_455 S
O627 Zn620 1.939 1_565 S
O627 C638 1.264 . S
O628 Zn621 1.969 . S
O628 C638 1.258 . S
C629 O626 1.267 1_655 S
C629 O630 1.229 . S
O630 C629 1.229 . S
O631 Zn620 2.024 . S
O631 C622 1.058 . S
C632 O633 1.228 . S
C632 O634 1.267 . S
O633 C632 1.228 . S
O634 Zn621 1.969 . S
O634 C632 1.267 . S
O635 Zn621 1.965 1_545 S
O635 C639 1.260 . S
O636 Zn620 1.969 . S
O636 C639 1.258 . S
O637 Zn621 2.024 . S
O637 C624 1.058 . S
C638 O627 1.264 . S
C638 O628 1.258 . S
C639 O635 1.260 . S
C639 O636 1.258 . S
C640 C641 1.387 . S
C640 H644 0.950 . S
C640 C649 1.390 . S
C641 C640 1.387 . S
C641 C643 1.387 . S
H642 C649 0.950 . S
C643 C641 1.387 . S
C643 C645 1.390 . S
C643 H647 0.950 . S
H644 C640 0.950 . S
C645 C643 1.390 . S
C645 C646 1.387 . S
C645 H648 0.950 . S
C646 C645 1.387 . S
C646 C649 1.387 . S
H647 C643 0.950 . S
H648 C645 0.950 . S
C649 C640 1.390 . S
C649 H642 0.950 . S
C649 C646 1.387 . S
C650 C651 1.387 . S
C650 H654 0.950 . S
C650 C659 1.390 . S
C651 C650 1.387 . S
C651 C653 1.387 . S
H652 C659 0.950 . S
C653 C651 1.387 . S
C653 C655 1.390 . S
C653 H657 0.950 . S
H654 C650 0.950 . S
C655 C653 1.390 . S
C655 C656 1.387 . S
C655 H658 0.950 . S
C656 C655 1.387 . S
C656 C659 1.387 . S
H657 C653 0.950 . S
H658 C655 0.950 . S
C659 C650 1.390 . S
C659 H652 0.950 . S
C659 C656 1.387 . S
C660 C661 1.387 . S
C660 H664 0.950 . S
C660 C669 1.390 . S
C661 C660 1.387 . S
C661 C663 1.387 . S
H662 C669 0.950 . S
C663 C661 1.387 . S
C663 C665 1.390 . S
C663 H667 0.950 . S
H664 C660 0.950 . S
C665 C663 1.390 . S
C665 C666 1.387 . S
C665 H668 0.950 . S
C666 C665 1.387 . S
C666 C669 1.387 . S
H667 C663 0.950 . S
H668 C665 0.950 . S
C669 C660 1.390 . S
C669 H662 0.950 . S
C669 C666 1.387 . S
C670 C671 1.387 . S
C670 H674 0.950 . S
C670 C679 1.390 . S
C671 C670 1.387 . S
C671 C673 1.387 . S
H672 C679 0.950 . S
C673 C671 1.387 . S
C673 C675 1.390 . S
C673 H677 0.950 . S
H674 C670 0.950 . S
C675 C673 1.390 . S
C675 C676 1.387 . S
C675 H678 0.950 . S
C676 C675 1.387 . S
C676 C679 1.387 . S
H677 C673 0.950 . S
H678 C675 0.950 . S
C679 C670 1.390 . S
C679 H672 0.950 . S
C679 C676 1.387 . S
C680 C681 1.387 . S
C680 H684 0.950 . S
C680 C689 1.390 . S
C681 C680 1.387 . S
C681 C683 1.387 . S
H682 C689 0.950 . S
C683 C681 1.387 . S
C683 C685 1.390 . S
C683 H687 0.950 . S
H684 C680 0.950 . S
C685 C683 1.390 . S
C685 C686 1.387 . S
C685 H688 0.950 . S
C686 C685 1.387 . S
C686 C689 1.387 . S
H687 C683 0.950 . S
H688 C685 0.950 . S
C689 C680 1.390 . S
C689 H682 0.950 . S
C689 C686 1.387 . S
C690 C691 1.387 . S
C690 H694 0.950 . S
C690 C699 1.390 . S
C691 C690 1.387 . S
C691 C693 1.387 . S
H692 C699 0.950 . S
C693 C691 1.387 . S
C693 C695 1.390 . S
C693 H697 0.950 . S
H694 C690 0.950 . S
C695 C693 1.390 . S
C695 C696 1.387 . S
C695 H698 0.950 . S
C696 C695 1.387 . S
C696 C699 1.387 . S
H697 C693 0.950 . S
H698 C695 0.950 . S
C699 C690 1.390 . S
C699 H692 0.950 . S
C699 C696 1.387 . S
C700 C701 1.387 . S
C700 H704 0.950 . S
C700 C709 1.390 . S
C701 C700 1.387 . S
C701 C703 1.387 . S
H702 C709 0.950 . S
C703 C701 1.387 . S
C703 C705 1.390 . S
C703 H707 0.950 . S
H704 C700 0.950 . S
C705 C703 1.390 . S
C705 C706 1.387 . S
C705 H708 0.950 . S
C706 C705 1.387 . S
C706 C709 1.387 . S
H707 C703 0.950 . S
H708 C705 0.950 . S
C709 C700 1.390 . S
C709 H702 0.950 . S
C709 C706 1.387 . S
C710 C711 1.387 . S
C710 H714 0.950 . S
C710 C719 1.390 . S
C711 C710 1.387 . S
C711 C713 1.387 . S
H712 C719 0.950 . S
C713 C711 1.387 . S
C713 C715 1.390 . S
C713 H717 0.950 . S
H714 C710 0.950 . S
C715 C713 1.390 . S
C715 C716 1.387 . S
C715 H718 0.950 . S
C716 C715 1.387 . S
C716 C719 1.387 . S
H717 C713 0.950 . S
H718 C715 0.950 . S
C719 C710 1.390 . S
C719 H712 0.950 . S
C719 C716 1.387 . S
C720 C721 1.387 . S
C720 H724 0.950 . S
C720 C729 1.390 . S
C721 C720 1.387 . S
C721 C723 1.387 . S
H722 C729 0.950 . S
C723 C721 1.387 . S
C723 C725 1.390 . S
C723 H727 0.950 . S
H724 C720 0.950 . S
C725 C723 1.390 . S
C725 C726 1.387 . S
C725 H728 0.950 . S
C726 C725 1.387 . S
C726 C729 1.387 . S
H727 C723 0.950 . S
H728 C725 0.950 . S
C729 C720 1.390 . S
C729 H722 0.950 . S
C729 C726 1.387 . S
C730 C731 1.387 . S
C730 H734 0.950 . S
C730 C739 1.390 . S
C731 C730 1.387 . S
C731 C733 1.387 . S
H732 C739 0.950 . S
C733 C731 1.387 . S
C733 C735 1.390 . S
C733 H737 0.950 . S
H734 C730 0.950 . S
C735 C733 1.390 . S
C735 C736 1.387 . S
C735 H738 0.950 . S
C736 C735 1.387 . S
C736 C739 1.387 . S
H737 C733 0.950 . S
H738 C735 0.950 . S
C739 C730 1.390 . S
C739 H732 0.950 . S
C739 C736 1.387 . S
C740 C741 1.387 . S
C740 H744 0.950 . S
C740 C749 1.390 . S
C741 C740 1.387 . S
C741 C743 1.387 . S
H742 C749 0.950 . S
C743 C741 1.387 . S
C743 C745 1.390 . S
C743 H747 0.950 . S
H744 C740 0.950 . S
C745 C743 1.390 . S
C745 C746 1.387 . S
C745 H748 0.950 . S
C746 C745 1.387 . S
C746 C749 1.387 . S
H747 C743 0.950 . S
H748 C745 0.950 . S
C749 C740 1.390 . S
C749 H742 0.950 . S
C749 C746 1.387 . S
C750 C751 1.387 . S
C750 H754 0.950 . S
C750 C759 1.390 . S
C751 C750 1.387 . S
C751 C753 1.387 . S
H752 C759 0.950 . S
C753 C751 1.387 . S
C753 C755 1.390 . S
C753 H757 0.950 . S
H754 C750 0.950 . S
C755 C753 1.390 . S
C755 C756 1.387 . S
C755 H758 0.950 . S
C756 C755 1.387 . S
C756 C759 1.387 . S
H757 C753 0.950 . S
H758 C755 0.950 . S
C759 C750 1.390 . S
C759 H752 0.950 . S
C759 C756 1.387 . S
C760 C761 1.387 . S
C760 H764 0.950 . S
C760 C769 1.390 . S
C761 C760 1.387 . S
C761 C763 1.387 . S
H762 C769 0.950 . S
C763 C761 1.387 . S
C763 C765 1.390 . S
C763 H767 0.950 . S
H764 C760 0.950 . S
C765 C763 1.390 . S
C765 C766 1.387 . S
C765 H768 0.950 . S
C766 C765 1.387 . S
C766 C769 1.387 . S
H767 C763 0.950 . S
H768 C765 0.950 . S
C769 C760 1.390 . S
C769 H762 0.950 . S
C769 C766 1.387 . S
C770 C771 1.387 . S
C770 H774 0.950 . S
C770 C779 1.390 . S
C771 C770 1.387 . S
C771 C773 1.387 . S
H772 C779 0.950 . S
C773 C771 1.387 . S
C773 C775 1.390 . S
C773 H777 0.950 . S
H774 C770 0.950 . S
C775 C773 1.390 . S
C775 C776 1.387 . S
C775 H778 0.950 . S
C776 C775 1.387 . S
C776 C779 1.387 . S
H777 C773 0.950 . S
H778 C775 0.950 . S
C779 C770 1.390 . S
C779 H772 0.950 . S
C779 C776 1.387 . S
C780 C781 1.387 . S
C780 H784 0.950 . S
C780 C789 1.390 . S
C781 C780 1.387 . S
C781 C783 1.387 . S
H782 C789 0.950 . S
C783 C781 1.387 . S
C783 C785 1.390 . S
C783 H787 0.950 . S
H784 C780 0.950 . S
C785 C783 1.390 . S
C785 C786 1.387 . S
C785 H788 0.950 . S
C786 C785 1.387 . S
C786 C789 1.387 . S
H787 C783 0.950 . S
H788 C785 0.950 . S
C789 C780 1.390 . S
C789 H782 0.950 . S
C789 C786 1.387 . S
C790 C791 1.387 . S
C790 H794 0.950 . S
C790 C799 1.390 . S
C791 C790 1.387 . S
C791 C793 1.387 . S
H792 C799 0.950 . S
C793 C791 1.387 . S
C793 C795 1.390 . S
C793 H797 0.950 . S
H794 C790 0.950 . S
C795 C793 1.390 . S
C795 C796 1.387 . S
C795 H798 0.950 . S
C796 C795 1.387 . S
C796 C799 1.387 . S
H797 C793 0.950 . S
H798 C795 0.950 . S
C799 C790 1.390 . S
C799 H792 0.950 . S
C799 C796 1.387 . S
C800 C801 1.387 . S
C800 H804 0.950 . S
C800 C809 1.390 . S
C801 C800 1.387 . S
C801 C803 1.387 . S
H802 C809 0.950 . S
C803 C801 1.387 . S
C803 C805 1.390 . S
C803 H807 0.950 . S
H804 C800 0.950 . S
C805 C803 1.390 . S
C805 C806 1.387 . S
C805 H808 0.950 . S
C806 C805 1.387 . S
C806 C809 1.387 . S
H807 C803 0.950 . S
H808 C805 0.950 . S
C809 C800 1.390 . S
C809 H802 0.950 . S
C809 C806 1.387 . S
C810 C811 1.387 . S
C810 H814 0.950 . S
C810 C819 1.390 . S
C811 C810 1.387 . S
C811 C813 1.387 . S
H812 C819 0.950 . S
C813 C811 1.387 . S
C813 C815 1.390 . S
C813 H817 0.950 . S
H814 C810 0.950 . S
C815 C813 1.390 . S
C815 C816 1.387 . S
C815 H818 0.950 . S
C816 C815 1.387 . S
C816 C819 1.387 . S
H817 C813 0.950 . S
H818 C815 0.950 . S
C819 C810 1.390 . S
C819 H812 0.950 . S
C819 C816 1.387 . S
C820 C821 1.387 . S
C820 H824 0.950 . S
C820 C829 1.390 . S
C821 C820 1.387 . S
C821 C823 1.387 . S
H822 C829 0.950 . S
C823 C821 1.387 . S
C823 C825 1.390 . S
C823 H827 0.950 . S
H824 C820 0.950 . S
C825 C823 1.390 . S
C825 C826 1.387 . S
C825 H828 0.950 . S
C826 C825 1.387 . S
C826 C829 1.387 . S
H827 C823 0.950 . S
H828 C825 0.950 . S
C829 C820 1.390 . S
C829 H822 0.950 . S
C829 C826 1.387 . S
C830 C831 1.387 . S
C830 H834 0.950 . S
C830 C839 1.390 . S
C831 C830 1.387 . S
C831 C833 1.387 . S
H832 C839 0.950 . S
C833 C831 1.387 . S
C833 C835 1.390 . S
C833 H837 0.950 . S
H834 C830 0.950 . S
C835 C833 1.390 . S
C835 C836 1.387 . S
C835 H838 0.950 . S
C836 C835 1.387 . S
C836 C839 1.387 . S
H837 C833 0.950 . S
H838 C835 0.950 . S
C839 C830 1.390 . S
C839 H832 0.950 . S
C839 C836 1.387 . S
C840 C841 1.387 1_545 S
C840 H844 0.950 . S
C840 C849 1.390 . S
C841 C840 1.387 1_565 S
C841 C843 1.387 . S
H842 C849 0.950 . S
C843 C841 1.387 . S
C843 C845 1.390 . S
C843 H847 0.950 . S
H844 C840 0.950 . S
C845 C843 1.390 . S
C845 C846 1.387 . S
C845 H848 0.950 . S
C846 C845 1.387 . S
C846 C849 1.387 1_565 S
H847 C843 0.950 . S
H848 C845 0.950 . S
C849 C840 1.390 . S
C849 H842 0.950 . S
C849 C846 1.387 1_545 S
C850 C851 1.387 . S
C850 H854 0.950 . S
C850 C859 1.390 . S
C851 C850 1.387 . S
C851 C853 1.387 . S
H852 C859 0.950 . S
C853 C851 1.387 . S
C853 C855 1.390 . S
C853 H857 0.950 . S
H854 C850 0.950 . S
C855 C853 1.390 . S
C855 C856 1.387 . S
C855 H858 0.950 . S
C856 C855 1.387 . S
C856 C859 1.387 . S
H857 C853 0.950 . S
H858 C855 0.950 . S
C859 C850 1.390 . S
C859 H852 0.950 . S
C859 C856 1.387 . S
C860 C861 1.387 1_565 S
C860 H864 0.950 . S
C860 C869 1.390 . S
C861 C860 1.387 1_545 S
C861 C863 1.387 . S
H862 C869 0.950 . S
C863 C861 1.387 . S
C863 C865 1.390 . S
C863 H867 0.950 . S
H864 C860 0.950 . S
C865 C863 1.390 . S
C865 C866 1.387 . S
C865 H868 0.950 . S
C866 C865 1.387 . S
C866 C869 1.387 1_545 S
H867 C863 0.950 . S
H868 C865 0.950 . S
C869 C860 1.390 . S
C869 H862 0.950 . S
C869 C866 1.387 1_565 S
C870 C871 1.387 . S
C870 H874 0.950 . S
C870 C879 1.390 . S
C871 C870 1.387 . S
C871 C873 1.387 . S
H872 C879 0.950 . S
C873 C871 1.387 . S
C873 C875 1.390 . S
C873 H877 0.950 . S
H874 C870 0.950 . S
C875 C873 1.390 . S
C875 C876 1.387 . S
C875 H878 0.950 . S
C876 C875 1.387 . S
C876 C879 1.387 . S
H877 C873 0.950 . S
H878 C875 0.950 . S
C879 C870 1.390 . S
C879 H872 0.950 . S
C879 C876 1.387 . S
C880 C881 1.387 . S
C880 H884 0.950 . S
C880 C889 1.390 . S
C881 C880 1.387 . S
C881 C883 1.387 . S
H882 C889 0.950 . S
C883 C881 1.387 . S
C883 C885 1.390 . S
C883 H887 0.950 . S
H884 C880 0.950 . S
C885 C883 1.390 . S
C885 C886 1.387 . S
C885 H888 0.950 . S
C886 C885 1.387 . S
C886 C889 1.387 . S
H887 C883 0.950 . S
H888 C885 0.950 . S
C889 C880 1.390 . S
C889 H882 0.950 . S
C889 C886 1.387 . S
C890 C891 1.387 . S
C890 H894 0.950 . S
C890 C899 1.390 . S
C891 C890 1.387 . S
C891 C893 1.387 . S
H892 C899 0.950 . S
C893 C891 1.387 . S
C893 C895 1.390 . S
C893 H897 0.950 . S
H894 C890 0.950 . S
C895 C893 1.390 . S
C895 C896 1.387 . S
C895 H898 0.950 . S
C896 C895 1.387 . S
C896 C899 1.387 . S
H897 C893 0.950 . S
H898 C895 0.950 . S
C899 C890 1.390 . S
C899 H892 0.950 . S
C899 C896 1.387 . S
C900 C901 1.387 . S
C900 H904 0.950 . S
C900 C909 1.390 . S
C901 C900 1.387 . S
C901 C903 1.387 . S
H902 C909 0.950 . S
C903 C901 1.387 . S
C903 C905 1.390 . S
C903 H907 0.950 . S
H904 C900 0.950 . S
C905 C903 1.390 . S
C905 C906 1.387 . S
C905 H908 0.950 . S
C906 C905 1.387 . S
C906 C909 1.387 . S
H907 C903 0.950 . S
H908 C905 0.950 . S
C909 C900 1.390 . S
C909 H902 0.950 . S
C909 C906 1.387 . S
C910 C911 1.387 . S
C910 H914 0.950 . S
C910 C919 1.390 . S
C911 C910 1.387 . S
C911 C913 1.387 . S
H912 C919 0.950 . S
C913 C911 1.387 . S
C913 C915 1.390 . S
C913 H917 0.950 . S
H914 C910 0.950 . S
C915 C913 1.390 . S
C915 C916 1.387 . S
C915 H918 0.950 . S
C916 C915 1.387 . S
C916 C919 1.387 . S
H917 C913 0.950 . S
H918 C915 0.950 . S
C919 C910 1.390 . S
C919 H912 0.950 . S
C919 C916 1.387 . S
C920 C921 1.387 1_545 S
C920 H924 0.950 . S
C920 C929 1.390 . S
C921 C920 1.387 1_565 S
C921 C923 1.387 . S
H922 C929 0.950 . S
C923 C921 1.387 . S
C923 C925 1.390 . S
C923 H927 0.950 . S
H924 C920 0.950 . S
C925 C923 1.390 . S
C925 C926 1.387 . S
C925 H928 0.950 . S
C926 C925 1.387 . S
C926 C929 1.387 1_565 S
H927 C923 0.950 . S
H928 C925 0.950 . S
C929 C920 1.390 . S
C929 H922 0.950 . S
C929 C926 1.387 1_545 S
C930 C931 1.387 . S
C930 H934 0.950 . S
C930 C939 1.390 . S
C931 C930 1.387 . S
C931 C933 1.387 . S
H932 C939 0.950 . S
C933 C931 1.387 . S
C933 C935 1.390 . S
C933 H937 0.950 . S
H934 C930 0.950 . S
C935 C933 1.390 . S
C935 C936 1.387 . S
C935 H938 0.950 . S
C936 C935 1.387 . S
C936 C939 1.387 . S
H937 C933 0.950 . S
H938 C935 0.950 . S
C939 C930 1.390 . S
C939 H932 0.950 . S
C939 C936 1.387 . S
C940 C941 1.387 1_565 S
C940 H944 0.950 . S
C940 C949 1.390 . S
C941 C940 1.387 1_545 S
C941 C943 1.387 . S
H942 C949 0.950 . S
C943 C941 1.387 . S
C943 C945 1.390 . S
C943 H947 0.950 . S
H944 C940 0.950 . S
C945 C943 1.390 . S
C945 C946 1.387 . S
C945 H948 0.950 . S
C946 C945 1.387 . S
C946 C949 1.387 1_545 S
H947 C943 0.950 . S
H948 C945 0.950 . S
C949 C940 1.390 . S
C949 H942 0.950 . S
C949 C946 1.387 1_565 S
C950 C951 1.387 . S
C950 H954 0.950 . S
C950 C959 1.390 . S
C951 C950 1.387 . S
C951 C953 1.387 . S
H952 C959 0.950 . S
C953 C951 1.387 . S
C953 C955 1.390 . S
C953 H957 0.950 . S
H954 C950 0.950 . S
C955 C953 1.390 . S
C955 C956 1.387 . S
C955 H958 0.950 . S
C956 C955 1.387 . S
C956 C959 1.387 . S
H957 C953 0.950 . S
H958 C955 0.950 . S
C959 C950 1.390 . S
C959 H952 0.950 . S
C959 C956 1.387 . S
C960 C961 1.387 . S
C960 H964 0.950 . S
C960 C969 1.390 . S
C961 C960 1.387 . S
C961 C963 1.387 . S
H962 C969 0.950 . S
C963 C961 1.387 . S
C963 C965 1.390 . S
C963 H967 0.950 . S
H964 C960 0.950 . S
C965 C963 1.390 . S
C965 C966 1.387 . S
C965 H968 0.950 . S
C966 C965 1.387 . S
C966 C969 1.387 . S
H967 C963 0.950 . S
H968 C965 0.950 . S
C969 C960 1.390 . S
C969 H962 0.950 . S
C969 C966 1.387 . S
C970 C971 1.387 . S
C970 H974 0.950 . S
C970 C979 1.390 . S
C971 C970 1.387 . S
C971 C973 1.387 . S
H972 C979 0.950 . S
C973 C971 1.387 . S
C973 C975 1.390 . S
C973 H977 0.950 . S
H974 C970 0.950 . S
C975 C973 1.390 . S
C975 C976 1.387 . S
C975 H978 0.950 . S
C976 C975 1.387 . S
C976 C979 1.387 . S
H977 C973 0.950 . S
H978 C975 0.950 . S
C979 C970 1.390 . S
C979 H972 0.950 . S
C979 C976 1.387 . S
C980 C981 1.387 . S
C980 H984 0.950 . S
C980 C989 1.390 . S
C981 C980 1.387 . S
C981 C983 1.387 . S
H982 C989 0.950 . S
C983 C981 1.387 . S
C983 C985 1.390 . S
C983 H987 0.950 . S
H984 C980 0.950 . S
C985 C983 1.390 . S
C985 C986 1.387 . S
C985 H988 0.950 . S
C986 C985 1.387 . S
C986 C989 1.387 . S
H987 C983 0.950 . S
H988 C985 0.950 . S
C989 C980 1.390 . S
C989 H982 0.950 . S
C989 C986 1.387 . S
C990 C991 1.387 . S
C990 H994 0.950 . S
C990 C999 1.390 . S
C991 C990 1.387 . S
C991 C993 1.387 . S
H992 C999 0.950 . S
C993 C991 1.387 . S
C993 C995 1.390 . S
C993 H997 0.950 . S
H994 C990 0.950 . S
C995 C993 1.390 . S
C995 C996 1.387 . S
C995 H998 0.950 . S
C996 C995 1.387 . S
C996 C999 1.387 . S
H997 C993 0.950 . S
H998 C995 0.950 . S
C999 C990 1.390 . S
C999 H992 0.950 . S
C999 C996 1.387 . S
C1000 C1001 1.387 . S
C1000 H1004 0.950 . S
C1000 C1009 1.390 . S
C1001 C1000 1.387 . S
C1001 C1003 1.387 . S
H1002 C1009 0.950 . S
C1003 C1001 1.387 . S
C1003 C1005 1.390 . S
C1003 H1007 0.950 . S
H1004 C1000 0.950 . S
C1005 C1003 1.390 . S
C1005 C1006 1.387 . S
C1005 H1008 0.950 . S
C1006 C1005 1.387 . S
C1006 C1009 1.387 . S
H1007 C1003 0.950 . S
H1008 C1005 0.950 . S
C1009 C1000 1.390 . S
C1009 H1002 0.950 . S
C1009 C1006 1.387 . S
C1010 C1011 1.387 . S
C1010 H1014 0.950 . S
C1010 C1019 1.390 . S
C1011 C1010 1.387 . S
C1011 C1013 1.387 . S
H1012 C1019 0.950 . S
C1013 C1011 1.387 . S
C1013 C1015 1.390 . S
C1013 H1017 0.950 . S
H1014 C1010 0.950 . S
C1015 C1013 1.390 . S
C1015 C1016 1.387 . S
C1015 H1018 0.950 . S
C1016 C1015 1.387 . S
C1016 C1019 1.387 . S
H1017 C1013 0.950 . S
H1018 C1015 0.950 . S
C1019 C1010 1.390 . S
C1019 H1012 0.950 . S
C1019 C1016 1.387 . S
C1020 C1021 1.387 . S
C1020 H1024 0.950 . S
C1020 C1029 1.390 . S
C1021 C1020 1.387 . S
C1021 C1023 1.387 . S
H1022 C1029 0.950 . S
C1023 C1021 1.387 . S
C1023 C1025 1.390 . S
C1023 H1027 0.950 . S
H1024 C1020 0.950 . S
C1025 C1023 1.390 . S
C1025 C1026 1.387 . S
C1025 H1028 0.950 . S
C1026 C1025 1.387 . S
C1026 C1029 1.387 . S
H1027 C1023 0.950 . S
H1028 C1025 0.950 . S
C1029 C1020 1.390 . S
C1029 H1022 0.950 . S
C1029 C1026 1.387 . S
C1030 C1031 1.387 . S
C1030 H1034 0.950 . S
C1030 C1039 1.390 . S
C1031 C1030 1.387 . S
C1031 C1033 1.387 . S
H1032 C1039 0.950 . S
C1033 C1031 1.387 . S
C1033 C1035 1.390 . S
C1033 H1037 0.950 . S
H1034 C1030 0.950 . S
C1035 C1033 1.390 . S
C1035 C1036 1.387 . S
C1035 H1038 0.950 . S
C1036 C1035 1.387 . S
C1036 C1039 1.387 . S
H1037 C1033 0.950 . S
H1038 C1035 0.950 . S
C1039 C1030 1.390 . S
C1039 H1032 0.950 . S
C1039 C1036 1.387 . S
C1040 C1041 1.387 . S
C1040 H1044 0.950 . S
C1040 C1049 1.390 . S
C1041 C1040 1.387 . S
C1041 C1043 1.387 . S
H1042 C1049 0.950 . S
C1043 C1041 1.387 . S
C1043 C1045 1.390 . S
C1043 H1047 0.950 . S
H1044 C1040 0.950 . S
C1045 C1043 1.390 . S
C1045 C1046 1.387 . S
C1045 H1048 0.950 . S
C1046 C1045 1.387 . S
C1046 C1049 1.387 . S
H1047 C1043 0.950 . S
H1048 C1045 0.950 . S
C1049 C1040 1.390 . S
C1049 H1042 0.950 . S
C1049 C1046 1.387 . S
C1050 C1051 1.387 . S
C1050 H1054 0.950 . S
C1050 C1059 1.390 . S
C1051 C1050 1.387 . S
C1051 C1053 1.387 . S
H1052 C1059 0.950 . S
C1053 C1051 1.387 . S
C1053 C1055 1.390 . S
C1053 H1057 0.950 . S
H1054 C1050 0.950 . S
C1055 C1053 1.390 . S
C1055 C1056 1.387 . S
C1055 H1058 0.950 . S
C1056 C1055 1.387 . S
C1056 C1059 1.387 . S
H1057 C1053 0.950 . S
H1058 C1055 0.950 . S
C1059 C1050 1.390 . S
C1059 H1052 0.950 . S
C1059 C1056 1.387 . S
C1060 C1061 1.387 . S
C1060 H1064 0.950 . S
C1060 C1069 1.390 . S
C1061 C1060 1.387 . S
C1061 C1063 1.387 . S
H1062 C1069 0.950 . S
C1063 C1061 1.387 . S
C1063 C1065 1.390 . S
C1063 H1067 0.950 . S
H1064 C1060 0.950 . S
C1065 C1063 1.390 . S
C1065 C1066 1.387 . S
C1065 H1068 0.950 . S
C1066 C1065 1.387 . S
C1066 C1069 1.387 . S
H1067 C1063 0.950 . S
H1068 C1065 0.950 . S
C1069 C1060 1.390 . S
C1069 H1062 0.950 . S
C1069 C1066 1.387 . S
C1070 C1071 1.387 . S
C1070 H1074 0.950 . S
C1070 C1079 1.390 . S
C1071 C1070 1.387 . S
C1071 C1073 1.387 . S
H1072 C1079 0.950 . S
C1073 C1071 1.387 . S
C1073 C1075 1.390 . S
C1073 H1077 0.950 . S
H1074 C1070 0.950 . S
C1075 C1073 1.390 . S
C1075 C1076 1.387 . S
C1075 H1078 0.950 . S
C1076 C1075 1.387 . S
C1076 C1079 1.387 . S
H1077 C1073 0.950 . S
H1078 C1075 0.950 . S
C1079 C1070 1.390 . S
C1079 H1072 0.950 . S
C1079 C1076 1.387 . S
C1080 C1081 1.387 . S
C1080 H1084 0.950 . S
C1080 C1089 1.390 . S
C1081 C1080 1.387 . S
C1081 C1083 1.387 . S
H1082 C1089 0.950 . S
C1083 C1081 1.387 . S
C1083 C1085 1.390 . S
C1083 H1087 0.950 . S
H1084 C1080 0.950 . S
C1085 C1083 1.390 . S
C1085 C1086 1.387 . S
C1085 H1088 0.950 . S
C1086 C1085 1.387 . S
C1086 C1089 1.387 . S
H1087 C1083 0.950 . S
H1088 C1085 0.950 . S
C1089 C1080 1.390 . S
C1089 H1082 0.950 . S
C1089 C1086 1.387 . S
C1090 C1091 1.387 . S
C1090 H1094 0.950 . S
C1090 C1099 1.390 . S
C1091 C1090 1.387 . S
C1091 C1093 1.387 . S
H1092 C1099 0.950 . S
C1093 C1091 1.387 . S
C1093 C1095 1.390 . S
C1093 H1097 0.950 . S
H1094 C1090 0.950 . S
C1095 C1093 1.390 . S
C1095 C1096 1.387 . S
C1095 H1098 0.950 . S
C1096 C1095 1.387 . S
C1096 C1099 1.387 . S
H1097 C1093 0.950 . S
H1098 C1095 0.950 . S
C1099 C1090 1.390 . S
C1099 H1092 0.950 . S
C1099 C1096 1.387 . S
C1100 C1101 1.387 . S
C1100 H1104 0.950 . S
C1100 C1109 1.390 . S
C1101 C1100 1.387 . S
C1101 C1103 1.387 . S
H1102 C1109 0.950 . S
C1103 C1101 1.387 . S
C1103 C1105 1.390 . S
C1103 H1107 0.950 . S
H1104 C1100 0.950 . S
C1105 C1103 1.390 . S
C1105 C1106 1.387 . S
C1105 H1108 0.950 . S
C1106 C1105 1.387 . S
C1106 C1109 1.387 . S
H1107 C1103 0.950 . S
H1108 C1105 0.950 . S
C1109 C1100 1.390 . S
C1109 H1102 0.950 . S
C1109 C1106 1.387 . S
C1110 C1111 1.387 . S
C1110 H1114 0.950 . S
C1110 C1119 1.390 . S
C1111 C1110 1.387 . S
C1111 C1113 1.387 . S
H1112 C1119 0.950 . S
C1113 C1111 1.387 . S
C1113 C1115 1.390 . S
C1113 H1117 0.950 . S
H1114 C1110 0.950 . S
C1115 C1113 1.390 . S
C1115 C1116 1.387 . S
C1115 H1118 0.950 . S
C1116 C1115 1.387 . S
C1116 C1119 1.387 . S
H1117 C1113 0.950 . S
H1118 C1115 0.950 . S
C1119 C1110 1.390 . S
C1119 H1112 0.950 . S
C1119 C1116 1.387 . S
C1120 C1121 1.387 . S
C1120 H1124 0.950 . S
C1120 C1129 1.390 . S
C1121 C1120 1.387 . S
C1121 C1123 1.387 . S
H1122 C1129 0.950 . S
C1123 C1121 1.387 . S
C1123 C1125 1.390 . S
C1123 H1127 0.950 . S
H1124 C1120 0.950 . S
C1125 C1123 1.390 . S
C1125 C1126 1.387 . S
C1125 H1128 0.950 . S
C1126 C1125 1.387 . S
C1126 C1129 1.387 . S
H1127 C1123 0.950 . S
H1128 C1125 0.950 . S
C1129 C1120 1.390 . S
C1129 H1122 0.950 . S
C1129 C1126 1.387 . S
C1130 C1131 1.387 . S
C1130 H1134 0.950 . S
C1130 C1139 1.390 . S
C1131 C1130 1.387 . S
C1131 C1133 1.387 . S
H1132 C1139 0.950 . S
C1133 C1131 1.387 . S
C1133 C1135 1.390 . S
C1133 H1137 0.950 . S
H1134 C1130 0.950 . S
C1135 C1133 1.390 . S
C1135 C1136 1.387 . S
C1135 H1138 0.950 . S
C1136 C1135 1.387 . S
C1136 C1139 1.387 . S
H1137 C1133 0.950 . S
H1138 C1135 0.950 . S
C1139 C1130 1.390 . S
C1139 H1132 0.950 . S
C1139 C1136 1.387 . S
C1140 C1141 1.387 . S
C1140 H1144 0.950 . S
C1140 C1149 1.390 . S
C1141 C1140 1.387 . S
C1141 C1143 1.387 . S
H1142 C1149 0.950 . S
C1143 C1141 1.387 . S
C1143 C1145 1.390 . S
C1143 H1147 0.950 . S
H1144 C1140 0.950 . S
C1145 C1143 1.390 . S
C1145 C1146 1.387 . S
C1145 H1148 0.950 . S
C1146 C1145 1.387 . S
C1146 C1149 1.387 . S
H1147 C1143 0.950 . S
H1148 C1145 0.950 . S
C1149 C1140 1.390 . S
C1149 H1142 0.950 . S
C1149 C1146 1.387 . S
C1150 C1151 1.387 . S
C1150 H1154 0.950 . S
C1150 C1159 1.390 . S
C1151 C1150 1.387 . S
C1151 C1153 1.387 . S
H1152 C1159 0.950 . S
C1153 C1151 1.387 . S
C1153 C1155 1.390 . S
C1153 H1157 0.950 . S
H1154 C1150 0.950 . S
C1155 C1153 1.390 . S
C1155 C1156 1.387 . S
C1155 H1158 0.950 . S
C1156 C1155 1.387 . S
C1156 C1159 1.387 . S
H1157 C1153 0.950 . S
H1158 C1155 0.950 . S
C1159 C1150 1.390 . S
C1159 H1152 0.950 . S
C1159 C1156 1.387 . S
C1160 C1161 1.387 . S
C1160 H1164 0.950 . S
C1160 C1169 1.390 . S
C1161 C1160 1.387 . S
C1161 C1163 1.387 . S
H1162 C1169 0.950 . S
C1163 C1161 1.387 . S
C1163 C1165 1.390 . S
C1163 H1167 0.950 . S
H1164 C1160 0.950 . S
C1165 C1163 1.390 . S
C1165 C1166 1.387 . S
C1165 H1168 0.950 . S
C1166 C1165 1.387 . S
C1166 C1169 1.387 . S
H1167 C1163 0.950 . S
H1168 C1165 0.950 . S
C1169 C1160 1.390 . S
C1169 H1162 0.950 . S
C1169 C1166 1.387 . S
C1170 C1171 1.387 . S
C1170 H1174 0.950 . S
C1170 C1179 1.390 . S
C1171 C1170 1.387 . S
C1171 C1173 1.387 . S
H1172 C1179 0.950 . S
C1173 C1171 1.387 . S
C1173 C1175 1.390 . S
C1173 H1177 0.950 . S
H1174 C1170 0.950 . S
C1175 C1173 1.390 . S
C1175 C1176 1.387 . S
C1175 H1178 0.950 . S
C1176 C1175 1.387 . S
C1176 C1179 1.387 . S
H1177 C1173 0.950 . S
H1178 C1175 0.950 . S
C1179 C1170 1.390 . S
C1179 H1172 0.950 . S
C1179 C1176 1.387 . S
C1180 C1181 1.387 . S
C1180 H1184 0.950 . S
C1180 C1189 1.390 . S
C1181 C1180 1.387 . S
C1181 C1183 1.387 . S
H1182 C1189 0.950 . S
C1183 C1181 1.387 . S
C1183 C1185 1.390 . S
C1183 H1187 0.950 . S
H1184 C1180 0.950 . S
C1185 C1183 1.390 . S
C1185 C1186 1.387 . S
C1185 H1188 0.950 . S
C1186 C1185 1.387 . S
C1186 C1189 1.387 . S
H1187 C1183 0.950 . S
H1188 C1185 0.950 . S
C1189 C1180 1.390 . S
C1189 H1182 0.950 . S
C1189 C1186 1.387 . S
C1190 C1191 1.387 . S
C1190 H1194 0.950 . S
C1190 C1199 1.390 . S
C1191 C1190 1.387 . S
C1191 C1193 1.387 . S
H1192 C1199 0.950 . S
C1193 C1191 1.387 . S
C1193 C1195 1.390 . S
C1193 H1197 0.950 . S
H1194 C1190 0.950 . S
C1195 C1193 1.390 . S
C1195 C1196 1.387 . S
C1195 H1198 0.950 . S
C1196 C1195 1.387 . S
C1196 C1199 1.387 . S
H1197 C1193 0.950 . S
H1198 C1195 0.950 . S
C1199 C1190 1.390 . S
C1199 H1192 0.950 . S
C1199 C1196 1.387 . S
C1200 C1201 1.388 1_565 S
C1200 H1204 0.950 1_565 S
C1200 C1209 1.390 . S
C1201 C1200 1.388 1_545 S
C1201 C1203 1.387 1_545 S
H1202 C1209 0.950 . S
C1203 C1201 1.387 1_565 S
C1203 C1205 1.391 . S
C1203 H1207 0.949 1_565 S
H1204 C1200 0.950 1_545 S
C1205 C1203 1.391 . S
C1205 C1206 1.387 . S
C1205 H1208 0.950 . S
C1206 C1205 1.387 . S
C1206 C1209 1.387 . S
H1207 C1203 0.949 1_545 S
H1208 C1205 0.950 . S
C1209 C1200 1.390 . S
C1209 H1202 0.950 . S
C1209 C1206 1.387 . S
C1210 C1211 1.387 . S
C1210 H1214 0.950 . S
C1210 C1219 1.390 . S
C1211 C1210 1.387 . S
C1211 C1213 1.387 . S
H1212 C1219 0.950 . S
C1213 C1211 1.387 . S
C1213 C1215 1.390 . S
C1213 H1217 0.950 . S
H1214 C1210 0.950 . S
C1215 C1213 1.390 . S
C1215 C1216 1.387 . S
C1215 H1218 0.950 . S
C1216 C1215 1.387 . S
C1216 C1219 1.387 . S
H1217 C1213 0.950 . S
H1218 C1215 0.950 . S
C1219 C1210 1.390 . S
C1219 H1212 0.950 . S
C1219 C1216 1.387 . S
C1220 C1221 1.387 . S
C1220 H1224 0.950 . S
C1220 C1229 1.390 . S
C1221 C1220 1.387 . S
C1221 C1223 1.387 . S
H1222 C1229 0.950 . S
C1223 C1221 1.387 . S
C1223 C1225 1.390 . S
C1223 H1227 0.950 . S
H1224 C1220 0.950 . S
C1225 C1223 1.390 . S
C1225 C1226 1.387 . S
C1225 H1228 0.950 . S
C1226 C1225 1.387 . S
C1226 C1229 1.387 . S
H1227 C1223 0.950 . S
H1228 C1225 0.950 . S
C1229 C1220 1.390 . S
C1229 H1222 0.950 . S
C1229 C1226 1.387 . S
C1230 C1231 1.388 1_565 S
C1230 H1234 0.950 1_565 S
C1230 C1239 1.390 . S
C1231 C1230 1.388 1_545 S
C1231 C1233 1.387 1_545 S
H1232 C1239 0.950 . S
C1233 C1231 1.387 1_565 S
C1233 C1235 1.391 . S
C1233 H1237 0.949 1_565 S
H1234 C1230 0.950 1_545 S
C1235 C1233 1.391 . S
C1235 C1236 1.387 . S
C1235 H1238 0.950 . S
C1236 C1235 1.387 . S
C1236 C1239 1.387 . S
H1237 C1233 0.949 1_545 S
H1238 C1235 0.950 . S
C1239 C1230 1.390 . S
C1239 H1232 0.950 . S
C1239 C1236 1.387 . S
C1240 C1241 1.387 1_545 S
C1240 H1244 0.949 1_545 S
C1240 C1249 1.392 . S
C1241 C1240 1.387 1_565 S
C1241 C1243 1.387 . S
H1242 C1249 0.950 . S
C1243 C1241 1.387 . S
C1243 C1245 1.391 1_565 S
C1243 H1247 0.949 . S
H1244 C1240 0.949 1_565 S
C1245 C1243 1.391 1_545 S
C1245 C1246 1.387 . S
C1245 H1248 0.950 . S
C1246 C1245 1.387 . S
C1246 C1249 1.387 . S
H1247 C1243 0.949 . S
H1248 C1245 0.950 . S
C1249 C1240 1.392 . S
C1249 H1242 0.950 . S
C1249 C1246 1.387 . S
C1250 C1251 1.387 . S
C1250 H1254 0.950 . S
C1250 C1259 1.390 . S
C1251 C1250 1.387 . S
C1251 C1253 1.387 . S
H1252 C1259 0.950 . S
C1253 C1251 1.387 . S
C1253 C1255 1.390 . S
C1253 H1257 0.950 . S
H1254 C1250 0.950 . S
C1255 C1253 1.390 . S
C1255 C1256 1.387 . S
C1255 H1258 0.950 . S
C1256 C1255 1.387 . S
C1256 C1259 1.387 . S
H1257 C1253 0.950 . S
H1258 C1255 0.950 . S
C1259 C1250 1.390 . S
C1259 H1252 0.950 . S
C1259 C1256 1.387 . S
C1260 C1261 1.387 . S
C1260 H1264 0.950 . S
C1260 C1269 1.390 . S
C1261 C1260 1.387 . S
C1261 C1263 1.387 . S
H1262 C1269 0.950 . S
C1263 C1261 1.387 . S
C1263 C1265 1.390 . S
C1263 H1267 0.950 . S
H1264 C1260 0.950 . S
C1265 C1263 1.390 . S
C1265 C1266 1.387 . S
C1265 H1268 0.950 . S
C1266 C1265 1.387 . S
C1266 C1269 1.387 . S
H1267 C1263 0.950 . S
H1268 C1265 0.950 . S
C1269 C1260 1.390 . S
C1269 H1262 0.950 . S
C1269 C1266 1.387 . S
C1270 C1271 1.387 1_545 S
C1270 H1274 0.949 1_545 S
C1270 C1279 1.392 . S
C1271 C1270 1.387 1_565 S
C1271 C1273 1.386 1_565 S
H1272 C1279 0.950 . S
C1273 C1271 1.386 1_545 S
C1273 C1275 1.392 . S
C1273 H1277 0.949 1_545 S
H1274 C1270 0.949 1_565 S
C1275 C1273 1.392 . S
C1275 C1276 1.387 . S
C1275 H1278 0.950 . S
C1276 C1275 1.387 . S
C1276 C1279 1.387 . S
H1277 C1273 0.949 1_565 S
H1278 C1275 0.950 . S
C1279 C1270 1.392 . S
C1279 H1272 0.950 . S
C1279 C1276 1.387 . S
C1280 C1281 1.387 . S
C1280 H1284 0.950 . S
C1280 C1289 1.390 1_455 S
C1281 C1280 1.387 . S
C1281 C1283 1.387 . S
H1282 C1289 0.950 . S
C1283 C1281 1.387 . S
C1283 C1285 1.390 1_455 S
C1283 H1287 0.950 . S
H1284 C1280 0.950 . S
C1285 C1283 1.390 1_655 S
C1285 C1286 1.387 . S
C1285 H1288 0.950 . S
C1286 C1285 1.387 . S
C1286 C1289 1.387 . S
H1287 C1283 0.950 . S
H1288 C1285 0.950 . S
C1289 C1280 1.390 1_655 S
C1289 H1282 0.950 . S
C1289 C1286 1.387 . S
C1290 C1291 1.387 . S
C1290 H1294 0.950 . S
C1290 C1299 1.390 . S
C1291 C1290 1.387 . S
C1291 C1293 1.387 . S
H1292 C1299 0.950 . S
C1293 C1291 1.387 . S
C1293 C1295 1.390 . S
C1293 H1297 0.950 . S
H1294 C1290 0.950 . S
C1295 C1293 1.390 . S
C1295 C1296 1.387 . S
C1295 H1298 0.950 . S
C1296 C1295 1.387 . S
C1296 C1299 1.387 . S
H1297 C1293 0.950 . S
H1298 C1295 0.950 . S
C1299 C1290 1.390 . S
C1299 H1292 0.950 . S
C1299 C1296 1.387 . S
C1300 C1301 1.387 . S
C1300 H1304 0.950 . S
C1300 C1309 1.390 1_655 S
C1301 C1300 1.387 . S
C1301 C1303 1.387 . S
H1302 C1309 0.950 . S
C1303 C1301 1.387 . S
C1303 C1305 1.390 1_655 S
C1303 H1307 0.950 . S
H1304 C1300 0.950 . S
C1305 C1303 1.390 1_455 S
C1305 C1306 1.387 . S
C1305 H1308 0.950 . S
C1306 C1305 1.387 . S
C1306 C1309 1.387 . S
H1307 C1303 0.950 . S
H1308 C1305 0.950 . S
C1309 C1300 1.390 1_455 S
C1309 H1302 0.950 . S
C1309 C1306 1.387 . S
C1310 C1311 1.387 . S
C1310 H1314 0.950 . S
C1310 C1319 1.390 . S
C1311 C1310 1.387 . S
C1311 C1313 1.387 . S
H1312 C1319 0.950 . S
C1313 C1311 1.387 . S
C1313 C1315 1.390 . S
C1313 H1317 0.950 . S
H1314 C1310 0.950 . S
C1315 C1313 1.390 . S
C1315 C1316 1.387 . S
C1315 H1318 0.950 . S
C1316 C1315 1.387 . S
C1316 C1319 1.387 . S
H1317 C1313 0.950 . S
H1318 C1315 0.950 . S
C1319 C1310 1.390 . S
C1319 H1312 0.950 . S
C1319 C1316 1.387 . S
C1320 C1321 1.387 . S
C1320 H1324 0.950 . S
C1320 C1329 1.390 1_655 S
C1321 C1320 1.387 . S
C1321 C1323 1.387 . S
H1322 C1329 0.950 . S
C1323 C1321 1.387 . S
C1323 C1325 1.390 1_655 S
C1323 H1327 0.950 . S
H1324 C1320 0.950 . S
C1325 C1323 1.390 1_455 S
C1325 C1326 1.387 . S
C1325 H1328 0.950 . S
C1326 C1325 1.387 . S
C1326 C1329 1.387 . S
H1327 C1323 0.950 . S
H1328 C1325 0.950 . S
C1329 C1320 1.390 1_455 S
C1329 H1322 0.950 . S
C1329 C1326 1.387 . S
C1330 C1331 1.387 . S
C1330 H1334 0.950 . S
C1330 C1339 1.390 . S
C1331 C1330 1.387 . S
C1331 C1333 1.387 . S
H1332 C1339 0.950 . S
C1333 C1331 1.387 . S
C1333 C1335 1.390 . S
C1333 H1337 0.950 . S
H1334 C1330 0.950 . S
C1335 C1333 1.390 . S
C1335 C1336 1.387 . S
C1335 H1338 0.950 . S
C1336 C1335 1.387 . S
C1336 C1339 1.387 . S
H1337 C1333 0.950 . S
H1338 C1335 0.950 . S
C1339 C1330 1.390 . S
C1339 H1332 0.950 . S
C1339 C1336 1.387 . S
C1340 C1341 1.387 . S
C1340 H1344 0.950 . S
C1340 C1349 1.390 1_455 S
C1341 C1340 1.387 . S
C1341 C1343 1.387 . S
H1342 C1349 0.950 . S
C1343 C1341 1.387 . S
C1343 C1345 1.390 1_455 S
C1343 H1347 0.950 . S
H1344 C1340 0.950 . S
C1345 C1343 1.390 1_655 S
C1345 C1346 1.387 . S
C1345 H1348 0.950 . S
C1346 C1345 1.387 . S
C1346 C1349 1.387 . S
H1347 C1343 0.950 . S
H1348 C1345 0.950 . S
C1349 C1340 1.390 1_655 S
C1349 H1342 0.950 . S
C1349 C1346 1.387 . S
C1350 C1351 1.387 . S
C1350 H1354 0.950 . S
C1350 C1359 1.390 . S
C1351 C1350 1.387 . S
C1351 C1353 1.387 . S
H1352 C1359 0.950 . S
C1353 C1351 1.387 . S
C1353 C1355 1.390 . S
C1353 H1357 0.950 . S
H1354 C1350 0.950 . S
C1355 C1353 1.390 . S
C1355 C1356 1.387 . S
C1355 H1358 0.950 . S
C1356 C1355 1.387 . S
C1356 C1359 1.387 . S
H1357 C1353 0.950 . S
H1358 C1355 0.950 . S
C1359 C1350 1.390 . S
C1359 H1352 0.950 . S
C1359 C1356 1.387 . S
C1360 C1361 1.388 1_565 S
C1360 H1364 0.950 1_565 S
C1360 C1369 1.389 1_655 S
C1361 C1360 1.388 1_545 S
C1361 C1363 1.387 1_545 S
H1362 C1369 0.950 . S
C1363 C1361 1.387 1_565 S
C1363 C1365 1.391 1_655 S
C1363 H1367 0.949 1_565 S
H1364 C1360 0.950 1_545 S
C1365 C1363 1.391 1_455 S
C1365 C1366 1.387 . S
C1365 H1368 0.950 . S
C1366 C1365 1.387 . S
C1366 C1369 1.387 . S
H1367 C1363 0.949 1_545 S
H1368 C1365 0.950 . S
C1369 C1360 1.389 1_455 S
C1369 H1362 0.950 . S
C1369 C1366 1.387 . S
C1370 C1371 1.387 . S
C1370 H1374 0.950 . S
C1370 C1379 1.390 . S
C1371 C1370 1.387 . S
C1371 C1373 1.387 . S
H1372 C1379 0.950 . S
C1373 C1371 1.387 . S
C1373 C1375 1.390 . S
C1373 H1377 0.950 . S
H1374 C1370 0.950 . S
C1375 C1373 1.390 . S
C1375 C1376 1.387 . S
C1375 H1378 0.950 . S
C1376 C1375 1.387 . S
C1376 C1379 1.387 . S
H1377 C1373 0.950 . S
H1378 C1375 0.950 . S
C1379 C1370 1.390 . S
C1379 H1372 0.950 . S
C1379 C1376 1.387 . S
C1380 C1381 1.387 . S
C1380 H1384 0.950 . S
C1380 C1389 1.390 1_655 S
C1381 C1380 1.387 . S
C1381 C1383 1.387 . S
H1382 C1389 0.950 . S
C1383 C1381 1.387 . S
C1383 C1385 1.390 1_655 S
C1383 H1387 0.950 . S
H1384 C1380 0.950 . S
C1385 C1383 1.390 1_455 S
C1385 C1386 1.387 . S
C1385 H1388 0.950 . S
C1386 C1385 1.387 . S
C1386 C1389 1.387 . S
H1387 C1383 0.950 . S
H1388 C1385 0.950 . S
C1389 C1380 1.390 1_455 S
C1389 H1382 0.950 . S
C1389 C1386 1.387 . S
C1390 C1391 1.386 1_565 S
C1390 H1394 0.949 1_565 S
C1390 C1399 1.393 . S
C1391 C1390 1.386 1_545 S
C1391 C1393 1.387 1_545 S
H1392 C1399 0.950 . S
C1393 C1391 1.387 1_565 S
C1393 C1395 1.391 . S
C1393 H1397 0.949 1_565 S
H1394 C1390 0.949 1_545 S
C1395 C1393 1.391 . S
C1395 C1396 1.387 . S
C1395 H1398 0.950 . S
C1396 C1395 1.387 . S
C1396 C1399 1.387 . S
H1397 C1393 0.949 1_545 S
H1398 C1395 0.950 . S
C1399 C1390 1.393 . S
C1399 H1392 0.950 . S
C1399 C1396 1.387 . S
C1400 C1401 1.387 . S
C1400 H1404 0.950 . S
C1400 C1409 1.385 1_645 S
C1401 C1400 1.387 . S
C1401 C1403 1.387 . S
H1402 C1409 0.953 . S
C1403 C1401 1.387 . S
C1403 C1405 1.398 1_655 S
C1403 H1407 0.950 . S
H1404 C1400 0.950 . S
C1405 C1403 1.398 1_455 S
C1405 C1406 1.384 1_545 S
C1405 H1408 0.947 1_545 S
C1406 C1405 1.384 1_565 S
C1406 C1409 1.389 . S
H1407 C1403 0.950 . S
H1408 C1405 0.947 1_565 S
C1409 C1400 1.385 1_465 S
C1409 H1402 0.953 . S
C1409 C1406 1.389 . S
C1410 C1411 1.387 . S
C1410 H1414 0.950 . S
C1410 C1419 1.390 . S
C1411 C1410 1.387 . S
C1411 C1413 1.387 . S
H1412 C1419 0.950 . S
C1413 C1411 1.387 . S
C1413 C1415 1.390 . S
C1413 H1417 0.950 . S
H1414 C1410 0.950 . S
C1415 C1413 1.390 . S
C1415 C1416 1.387 . S
C1415 H1418 0.950 . S
C1416 C1415 1.387 . S
C1416 C1419 1.387 . S
H1417 C1413 0.950 . S
H1418 C1415 0.950 . S
C1419 C1410 1.390 . S
C1419 H1412 0.950 . S
C1419 C1416 1.387 . S
C1420 C1421 1.387 . S
C1420 H1424 0.950 . S
C1420 C1429 1.390 1_455 S
C1421 C1420 1.387 . S
C1421 C1423 1.387 . S
H1422 C1429 0.950 . S
C1423 C1421 1.387 . S
C1423 C1425 1.390 1_455 S
C1423 H1427 0.950 . S
H1424 C1420 0.950 . S
C1425 C1423 1.390 1_655 S
C1425 C1426 1.387 . S
C1425 H1428 0.950 . S
C1426 C1425 1.387 . S
C1426 C1429 1.387 . S
H1427 C1423 0.950 . S
H1428 C1425 0.950 . S
C1429 C1420 1.390 1_655 S
C1429 H1422 0.950 . S
C1429 C1426 1.387 . S
C1430 C1431 1.387 1_545 S
C1430 H1434 0.949 1_545 S
C1430 C1439 1.392 . S
C1431 C1430 1.387 1_565 S
C1431 C1433 1.387 1_565 S
H1432 C1439 0.950 . S
C1433 C1431 1.387 1_545 S
C1433 C1435 1.392 . S
C1433 H1437 0.949 1_545 S
H1434 C1430 0.949 1_565 S
C1435 C1433 1.392 . S
C1435 C1436 1.387 . S
C1435 H1438 0.950 . S
C1436 C1435 1.387 . S
C1436 C1439 1.387 . S
H1437 C1433 0.949 1_565 S
H1438 C1435 0.950 . S
C1439 C1430 1.392 . S
C1439 H1432 0.950 . S
C1439 C1436 1.387 . S
C1440 C1441 1.398 . S
C1440 H1444 0.950 . S
C1440 C1449 1.390 1_554 S
C1441 C1440 1.398 . S
C1441 C1443 1.377 1_655 S
H1442 C1449 0.950 . S
C1443 C1441 1.377 1_455 S
C1443 C1445 1.390 1_554 S
C1443 H1447 0.950 . S
H1444 C1440 0.950 . S
C1445 C1443 1.390 1_556 S
C1445 C1446 1.398 . S
C1445 H1448 0.950 . S
C1446 C1445 1.398 . S
C1446 C1449 1.377 1_455 S
H1447 C1443 0.950 . S
H1448 C1445 0.950 . S
C1449 C1440 1.390 1_556 S
C1449 H1442 0.950 . S
C1449 C1446 1.377 1_655 S
C1450 C1451 1.387 . S
C1450 H1454 0.950 . S
C1450 C1459 1.390 1_556 S
C1451 C1450 1.387 . S
C1451 C1453 1.387 . S
H1452 C1459 0.950 . S
C1453 C1451 1.387 . S
C1453 C1455 1.390 1_556 S
C1453 H1457 0.950 . S
H1454 C1450 0.950 . S
C1455 C1453 1.390 1_554 S
C1455 C1456 1.387 . S
C1455 H1458 0.950 . S
C1456 C1455 1.387 . S
C1456 C1459 1.387 . S
H1457 C1453 0.950 . S
H1458 C1455 0.950 . S
C1459 C1450 1.390 1_554 S
C1459 H1452 0.950 . S
C1459 C1456 1.387 . S
C1460 C1461 1.387 1_655 S
C1460 H1464 0.950 . S
C1460 C1469 1.390 . S
C1461 C1460 1.387 1_455 S
C1461 C1463 1.387 . S
H1462 C1469 0.950 . S
C1463 C1461 1.387 . S
C1463 C1465 1.390 . S
C1463 H1467 0.950 . S
H1464 C1460 0.950 . S
C1465 C1463 1.390 . S
C1465 C1466 1.387 1_455 S
C1465 H1468 0.950 . S
C1466 C1465 1.387 1_655 S
C1466 C1469 1.387 . S
H1467 C1463 0.950 . S
H1468 C1465 0.950 . S
C1469 C1460 1.390 . S
C1469 H1462 0.950 . S
C1469 C1466 1.387 . S
C1470 C1471 1.387 . S
C1470 H1474 0.950 . S
C1470 C1479 1.390 . S
C1471 C1470 1.387 . S
C1471 C1473 1.387 . S
H1472 C1479 0.950 . S
C1473 C1471 1.387 . S
C1473 C1475 1.390 . S
C1473 H1477 0.950 . S
H1474 C1470 0.950 . S
C1475 C1473 1.390 . S
C1475 C1476 1.387 . S
C1475 H1478 0.950 . S
C1476 C1475 1.387 . S
C1476 C1479 1.387 . S
H1477 C1473 0.950 . S
H1478 C1475 0.950 . S
C1479 C1470 1.390 . S
C1479 H1472 0.950 . S
C1479 C1476 1.387 . S
C1480 C1481 1.387 . S
C1480 H1484 0.950 . S
C1480 C1489 1.390 1_556 S
C1481 C1480 1.387 . S
C1481 C1483 1.387 . S
H1482 C1489 0.950 . S
C1483 C1481 1.387 . S
C1483 C1485 1.390 1_556 S
C1483 H1487 0.950 . S
H1484 C1480 0.950 . S
C1485 C1483 1.390 1_554 S
C1485 C1486 1.387 . S
C1485 H1488 0.950 . S
C1486 C1485 1.387 . S
C1486 C1489 1.387 . S
H1487 C1483 0.950 . S
H1488 C1485 0.950 . S
C1489 C1480 1.390 1_554 S
C1489 H1482 0.950 . S
C1489 C1486 1.387 . S
C1490 C1491 1.386 1_655 S
C1490 H1494 0.950 . S
C1490 C1499 1.390 . S
C1491 C1490 1.386 1_455 S
C1491 C1493 1.389 . S
H1492 C1499 0.950 . S
C1493 C1491 1.389 . S
C1493 C1495 1.390 . S
C1493 H1497 0.950 . S
H1494 C1490 0.950 . S
C1495 C1493 1.390 . S
C1495 C1496 1.385 1_455 S
C1495 H1498 0.950 . S
C1496 C1495 1.385 1_655 S
C1496 C1499 1.389 . S
H1497 C1493 0.950 . S
H1498 C1495 0.950 . S
C1499 C1490 1.390 . S
C1499 H1492 0.950 . S
C1499 C1496 1.389 . S
C1500 C1501 1.387 . S
C1500 H1504 0.950 . S
C1500 C1509 1.390 . S
C1501 C1500 1.387 . S
C1501 C1503 1.387 . S
H1502 C1509 0.950 . S
C1503 C1501 1.387 . S
C1503 C1505 1.390 . S
C1503 H1507 0.950 . S
H1504 C1500 0.950 . S
C1505 C1503 1.390 . S
C1505 C1506 1.387 . S
C1505 H1508 0.950 . S
C1506 C1505 1.387 . S
C1506 C1509 1.387 . S
H1507 C1503 0.950 . S
H1508 C1505 0.950 . S
C1509 C1500 1.390 . S
C1509 H1502 0.950 . S
C1509 C1506 1.387 . S
C1510 C1511 1.401 . S
C1510 H1514 0.950 . S
C1510 C1519 1.390 . S
C1511 C1510 1.401 . S
C1511 C1513 1.374 1_665 S
H1512 C1519 0.950 . S
C1513 C1511 1.374 1_445 S
C1513 C1515 1.390 . S
C1513 H1517 0.950 . S
H1514 C1510 0.950 . S
C1515 C1513 1.390 . S
C1515 C1516 1.401 . S
C1515 H1518 0.950 . S
C1516 C1515 1.401 . S
C1516 C1519 1.374 1_445 S
H1517 C1513 0.950 . S
H1518 C1515 0.950 . S
C1519 C1510 1.390 . S
C1519 H1512 0.950 . S
C1519 C1516 1.374 1_665 S
C1520 C1521 1.387 . S
C1520 H1524 0.950 . S
C1520 C1529 1.390 . S
C1521 C1520 1.387 . S
C1521 C1523 1.387 . S
H1522 C1529 0.950 . S
C1523 C1521 1.387 . S
C1523 C1525 1.390 . S
C1523 H1527 0.950 . S
H1524 C1520 0.950 . S
C1525 C1523 1.390 . S
C1525 C1526 1.387 . S
C1525 H1528 0.950 . S
C1526 C1525 1.387 . S
C1526 C1529 1.387 . S
H1527 C1523 0.950 . S
H1528 C1525 0.950 . S
C1529 C1520 1.390 . S
C1529 H1522 0.950 . S
C1529 C1526 1.387 . S
C1530 C1531 1.379 1_565 S
C1530 H1534 0.950 . S
C1530 C1539 1.390 . S
C1531 C1530 1.379 1_545 S
C1531 C1533 1.396 . S
H1532 C1539 0.950 . S
C1533 C1531 1.396 . S
C1533 C1535 1.390 . S
C1533 H1537 0.950 . S
H1534 C1530 0.950 . S
C1535 C1533 1.390 . S
C1535 C1536 1.379 1_545 S
C1535 H1538 0.950 . S
C1536 C1535 1.379 1_565 S
C1536 C1539 1.396 . S
H1537 C1533 0.950 . S
H1538 C1535 0.950 . S
C1539 C1530 1.390 . S
C1539 H1532 0.950 . S
C1539 C1536 1.396 . S
C1540 C1541 1.387 . S
C1540 H1544 0.950 . S
C1540 C1549 1.390 . S
C1541 C1540 1.387 . S
C1541 C1543 1.387 . S
H1542 C1549 0.950 . S
C1543 C1541 1.387 . S
C1543 C1545 1.390 . S
C1543 H1547 0.950 . S
H1544 C1540 0.950 . S
C1545 C1543 1.390 . S
C1545 C1546 1.387 . S
C1545 H1548 0.950 . S
C1546 C1545 1.387 . S
C1546 C1549 1.387 . S
H1547 C1543 0.950 . S
H1548 C1545 0.950 . S
C1549 C1540 1.390 . S
C1549 H1542 0.950 . S
C1549 C1546 1.387 . S
C1550 C1551 1.383 1_545 S
C1550 H1554 0.950 . S
C1550 C1559 1.390 . S
C1551 C1550 1.383 1_565 S
C1551 C1553 1.392 . S
H1552 C1559 0.950 . S
C1553 C1551 1.392 . S
C1553 C1555 1.390 . S
C1553 H1557 0.950 . S
H1554 C1550 0.950 . S
C1555 C1553 1.390 . S
C1555 C1556 1.383 1_565 S
C1555 H1558 0.950 . S
C1556 C1555 1.383 1_545 S
C1556 C1559 1.392 . S
H1557 C1553 0.950 . S
H1558 C1555 0.950 . S
C1559 C1550 1.390 . S
C1559 H1552 0.950 . S
C1559 C1556 1.392 . S
C1560 C1561 1.387 . S
C1560 H1564 0.950 . S
C1560 C1569 1.390 . S
C1561 C1560 1.387 . S
C1561 C1563 1.387 . S
H1562 C1569 0.950 . S
C1563 C1561 1.387 . S
C1563 C1565 1.390 . S
C1563 H1567 0.950 . S
H1564 C1560 0.950 . S
C1565 C1563 1.390 . S
C1565 C1566 1.387 . S
C1565 H1568 0.950 . S
C1566 C1565 1.387 . S
C1566 C1569 1.387 . S
H1567 C1563 0.950 . S
H1568 C1565 0.950 . S
C1569 C1560 1.390 . S
C1569 H1562 0.950 . S
C1569 C1566 1.387 . S
C1570 C1571 1.387 . S
C1570 H1574 0.950 . S
C1570 C1579 1.390 . S
C1571 C1570 1.387 . S
C1571 C1573 1.387 . S
H1572 C1579 0.950 . S
C1573 C1571 1.387 . S
C1573 C1575 1.390 . S
C1573 H1577 0.950 . S
H1574 C1570 0.950 . S
C1575 C1573 1.390 . S
C1575 C1576 1.387 . S
C1575 H1578 0.950 . S
C1576 C1575 1.387 . S
C1576 C1579 1.387 . S
H1577 C1573 0.950 . S
H1578 C1575 0.950 . S
C1579 C1570 1.390 . S
C1579 H1572 0.950 . S
C1579 C1576 1.387 . S
C1580 C1581 1.387 . S
C1580 H1584 0.950 . S
C1580 C1589 1.390 . S
C1581 C1580 1.387 . S
C1581 C1583 1.387 . S
H1582 C1589 0.950 . S
C1583 C1581 1.387 . S
C1583 C1585 1.390 . S
C1583 H1587 0.950 . S
H1584 C1580 0.950 . S
C1585 C1583 1.390 . S
C1585 C1586 1.387 . S
C1585 H1588 0.950 . S
C1586 C1585 1.387 . S
C1586 C1589 1.387 . S
H1587 C1583 0.950 . S
H1588 C1585 0.950 . S
C1589 C1580 1.390 . S
C1589 H1582 0.950 . S
C1589 C1586 1.387 . S
C1590 C1591 1.396 . S
C1590 H1594 0.950 . S
C1590 C1599 1.390 1_554 S
C1591 C1590 1.396 . S
C1591 C1593 1.379 1_565 S
H1592 C1599 0.950 . S
C1593 C1591 1.379 1_545 S
C1593 C1595 1.390 1_554 S
C1593 H1597 0.950 . S
H1594 C1590 0.950 . S
C1595 C1593 1.390 1_556 S
C1595 C1596 1.396 . S
C1595 H1598 0.950 . S
C1596 C1595 1.396 . S
C1596 C1599 1.379 1_545 S
H1597 C1593 0.950 . S
H1598 C1595 0.950 . S
C1599 C1590 1.390 1_556 S
C1599 H1592 0.950 . S
C1599 C1596 1.379 1_565 S
C641 C4 1.433 . S
C646 C504 1.433 . S
C651 C484 1.429 . S
C656 C24 1.429 . S
C661 C544 1.429 . S
C666 C44 1.429 . S
C671 C64 1.433 . S
C676 C524 1.433 . S
C681 C82 1.433 . S
C686 C582 1.433 . S
C691 C102 1.429 . S
C696 C562 1.429 . S
C701 C122 1.429 . S
C706 C622 1.429 . S
C711 C602 1.429 . S
C716 C142 1.429 . S
C721 C164 1.429 . S
C726 C344 1.429 . S
C731 C184 1.433 . S
C736 C324 1.433 . S
C741 C204 1.429 . S
C746 C384 1.429 . S
C751 C364 1.429 . S
C756 C224 1.429 . S
C761 C242 1.429 . S
C766 C422 1.429 . S
C771 C262 1.433 . S
C776 C402 1.433 . S
C781 C462 1.433 . S
C786 C282 1.433 . S
C791 C302 1.429 . S
C796 C442 1.429 . S
C801 C18 1.531 . S
C806 C78 1.531 . S
C811 C38 1.531 . S
C816 C58 1.531 . S
C821 C159 1.531 . S
C826 C99 1.531 . S
C831 C139 1.531 . S
C836 C119 1.531 . S
C841 C178 1.530 . S
C846 C238 1.530 . S
C851 C198 1.530 . S
C856 C218 1.531 . S
C861 C259 1.531 . S
C866 C319 1.531 . S
C871 C299 1.531 . S
C876 C279 1.531 . S
C881 C338 1.531 . S
C886 C398 1.531 . S
C891 C358 1.531 . S
C896 C378 1.531 . S
C901 C479 1.531 . S
C906 C419 1.531 . S
C911 C439 1.531 . S
C916 C459 1.531 . S
C921 C558 1.530 . S
C926 C498 1.530 . S
C931 C518 1.531 . S
C936 C538 1.531 . S
C941 C639 1.531 . S
C946 C579 1.531 . S
C951 C619 1.531 . S
C956 C599 1.530 . S
C961 C22 1.658 . S
C966 C2 1.658 . S
C971 C42 1.659 . S
C976 C62 1.659 . S
C981 C104 1.659 . S
C986 C84 1.659 . S
C991 C144 1.659 . S
C996 C124 1.659 . S
C1001 C162 1.659 . S
C1006 C182 1.659 . S
C1011 C202 1.659 . S
C1016 C222 1.659 . S
C1021 C264 1.659 . S
C1026 C244 1.659 . S
C1031 C284 1.659 . S
C1036 C304 1.659 . S
C1041 C322 1.658 . S
C1046 C342 1.658 . S
C1051 C382 1.659 . S
C1056 C362 1.659 . S
C1061 C404 1.658 . S
C1066 C424 1.658 . S
C1071 C444 1.659 . S
C1076 C464 1.659 . S
C1081 C482 1.658 . S
C1086 C502 1.658 . S
C1091 C522 1.659 . S
C1096 C542 1.659 . S
C1101 C584 1.659 . S
C1106 C564 1.659 . S
C1111 C604 1.659 . S
C1116 C624 1.659 . S
C1121 C12 1.653 . S
C1126 C9 1.653 . S
C1131 C32 1.654 . S
C1136 C29 1.654 . S
C1141 C52 1.653 . S
C1146 C49 1.653 . S
C1151 C69 1.654 . S
C1156 C72 1.654 . S
C1161 C92 1.654 . S
C1166 C89 1.654 . S
C1171 C109 1.654 . S
C1176 C112 1.654 . S
C1181 C132 1.654 . S
C1186 C129 1.654 . S
C1191 C152 1.653 . S
C1196 C149 1.653 . S
C1201 C169 1.653 . S
C1206 C172 1.653 . S
C1211 C192 1.654 . S
C1216 C189 1.654 . S
C1221 C212 1.654 . S
C1226 C209 1.654 . S
C1231 C229 1.653 . S
C1236 C232 1.653 . S
C1241 C252 1.653 . S
C1246 C249 1.653 . S
C1251 C269 1.654 . S
C1256 C272 1.654 . S
C1261 C289 1.654 . S
C1266 C292 1.654 . S
C1271 C312 1.654 . S
C1276 C309 1.654 . S
C1281 C332 1.653 . S
C1286 C329 1.653 . S
C1291 C349 1.653 . S
C1296 C352 1.653 . S
C1301 C369 1.654 . S
C1306 C372 1.654 . S
C1311 C392 1.653 . S
C1316 C389 1.653 . S
C1321 C409 1.654 . S
C1326 C412 1.654 . S
C1331 C429 1.654 . S
C1336 C432 1.654 . S
C1341 C452 1.653 . S
C1346 C449 1.653 . S
C1351 C469 1.654 . S
C1356 C472 1.654 . S
C1361 C489 1.653 . S
C1366 C492 1.653 . S
C1371 C512 1.654 . S
C1376 C509 1.654 . S
C1381 C529 1.653 . S
C1386 C532 1.653 . S
C1391 C549 1.654 . S
C1396 C552 1.654 . S
C1401 C569 1.653 . S
C1406 C572 1.653 . S
C1411 C589 1.654 . S
C1416 C592 1.654 . S
C1421 C612 1.653 . S
C1426 C609 1.653 . S
C1431 C632 1.654 . S
C1436 C629 1.654 . S
C1441 C19 1.504 1_655 S
C1446 C98 1.504 1_455 S
C1451 C598 1.504 . S
C1456 C39 1.504 . S
C1461 C298 1.506 1_455 S
C1466 C59 1.506 1_655 S
C1471 C79 1.503 . S
C1476 C478 1.503 . S
C1481 C118 1.505 . S
C1486 C519 1.505 . S
C1491 C138 1.504 1_455 S
C1496 C219 1.504 1_655 S
C1501 C158 1.504 . S
C1506 C399 1.504 . S
C1511 C179 1.502 1_665 S
C1516 C258 1.502 1_445 S
C1521 C438 1.505 . S
C1526 C199 1.505 . S
C1531 C638 1.502 1_545 S
C1536 C239 1.502 1_565 S
C1541 C278 1.504 . S
C1546 C359 1.504 . S
C1551 C559 1.504 1_565 S
C1556 C318 1.504 1_545 S
C1561 C339 1.506 . S
C1566 C418 1.506 . S
C1571 C618 1.504 . S
C1576 C379 1.504 . S
C1581 C458 1.505 . S
C1586 C539 1.505 . S
C1591 C499 1.502 1_565 S
C1596 C578 1.502 1_545 S
