# Generated by pormake.
# Topology upc, (4)-cn, num edge types: 1
# Building blocks:
#     Node 0, Type 0, BuildingBlock: ESEHIV_clean_sbu_0, # of connection points: 4
#     Node 1, Type 0, BuildingBlock: ESEHIV_clean_sbu_0, # of connection points: 4
#     Node 2, Type 0, BuildingBlock: ESEHIV_clean_sbu_0, # of connection points: 4
#     Node 3, Type 0, BuildingBlock: ESEHIV_clean_sbu_0, # of connection points: 4
#     Node 4, Type 0, BuildingBlock: ESEHIV_clean_sbu_0, # of connection points: 4
#     Node 5, Type 0, BuildingBlock: ESEHIV_clean_sbu_0, # of connection points: 4
#     Node 6, Type 0, BuildingBlock: ESEHIV_clean_sbu_0, # of connection points: 4
#     Node 7, Type 0, BuildingBlock: ESEHIV_clean_sbu_0, # of connection points: 4
#     Node 8, Type 0, BuildingBlock: ESEHIV_clean_sbu_0, # of connection points: 4
#     Node 9, Type 0, BuildingBlock: ESEHIV_clean_sbu_0, # of connection points: 4
#     Node 10, Type 0, BuildingBlock: ESEHIV_clean_sbu_0, # of connection points: 4
#     Node 11, Type 0, BuildingBlock: ESEHIV_clean_sbu_0, # of connection points: 4
#     Node 12, Type 0, BuildingBlock: ESEHIV_clean_sbu_0, # of connection points: 4
#     Node 13, Type 0, BuildingBlock: ESEHIV_clean_sbu_0, # of connection points: 4
#     Node 14, Type 0, BuildingBlock: ESEHIV_clean_sbu_0, # of connection points: 4
#     Node 15, Type 0, BuildingBlock: ESEHIV_clean_sbu_0, # of connection points: 4
#     Edge 16, Type (0, 0), BuildingBlock: UVAHIK_clean_linker_0, # of connection points: 2
#     Edge 17, Type (0, 0), BuildingBlock: UVAHIK_clean_linker_0, # of connection points: 2
#     Edge 18, Type (0, 0), BuildingBlock: UVAHIK_clean_linker_0, # of connection points: 2
#     Edge 19, Type (0, 0), BuildingBlock: UVAHIK_clean_linker_0, # of connection points: 2
#     Edge 20, Type (0, 0), BuildingBlock: UVAHIK_clean_linker_0, # of connection points: 2
#     Edge 21, Type (0, 0), BuildingBlock: UVAHIK_clean_linker_0, # of connection points: 2
#     Edge 22, Type (0, 0), BuildingBlock: UVAHIK_clean_linker_0, # of connection points: 2
#     Edge 23, Type (0, 0), BuildingBlock: UVAHIK_clean_linker_0, # of connection points: 2
#     Edge 24, Type (0, 0), BuildingBlock: UVAHIK_clean_linker_0, # of connection points: 2
#     Edge 25, Type (0, 0), BuildingBlock: UVAHIK_clean_linker_0, # of connection points: 2
#     Edge 26, Type (0, 0), BuildingBlock: UVAHIK_clean_linker_0, # of connection points: 2
#     Edge 27, Type (0, 0), BuildingBlock: UVAHIK_clean_linker_0, # of connection points: 2
#     Edge 28, Type (0, 0), BuildingBlock: UVAHIK_clean_linker_0, # of connection points: 2
#     Edge 29, Type (0, 0), BuildingBlock: UVAHIK_clean_linker_0, # of connection points: 2
#     Edge 30, Type (0, 0), BuildingBlock: UVAHIK_clean_linker_0, # of connection points: 2
#     Edge 31, Type (0, 0), BuildingBlock: UVAHIK_clean_linker_0, # of connection points: 2
#     Edge 32, Type (0, 0), BuildingBlock: UVAHIK_clean_linker_0, # of connection points: 2
#     Edge 33, Type (0, 0), BuildingBlock: UVAHIK_clean_linker_0, # of connection points: 2
#     Edge 34, Type (0, 0), BuildingBlock: UVAHIK_clean_linker_0, # of connection points: 2
#     Edge 35, Type (0, 0), BuildingBlock: UVAHIK_clean_linker_0, # of connection points: 2
#     Edge 36, Type (0, 0), BuildingBlock: UVAHIK_clean_linker_0, # of connection points: 2
#     Edge 37, Type (0, 0), BuildingBlock: UVAHIK_clean_linker_0, # of connection points: 2
#     Edge 38, Type (0, 0), BuildingBlock: UVAHIK_clean_linker_0, # of connection points: 2
#     Edge 39, Type (0, 0), BuildingBlock: UVAHIK_clean_linker_0, # of connection points: 2
#     Edge 40, Type (0, 0), BuildingBlock: UVAHIK_clean_linker_0, # of connection points: 2
#     Edge 41, Type (0, 0), BuildingBlock: UVAHIK_clean_linker_0, # of connection points: 2
#     Edge 42, Type (0, 0), BuildingBlock: UVAHIK_clean_linker_0, # of connection points: 2
#     Edge 43, Type (0, 0), BuildingBlock: UVAHIK_clean_linker_0, # of connection points: 2
#     Edge 44, Type (0, 0), BuildingBlock: UVAHIK_clean_linker_0, # of connection points: 2
#     Edge 45, Type (0, 0), BuildingBlock: UVAHIK_clean_linker_0, # of connection points: 2
#     Edge 46, Type (0, 0), BuildingBlock: UVAHIK_clean_linker_0, # of connection points: 2
#     Edge 47, Type (0, 0), BuildingBlock: UVAHIK_clean_linker_0, # of connection points: 2
# Relax obj value: 0.157
# Max RMSD: 0.203
# Mean RMSD: 0.182
data_MOF--net-upc--node1-ESEHIV_clean_sbu_0--edge1-UVAHIK_clean_linker_0
_symmetry_space_group_name_H-M    P1
_symmetry_Int_Tables_number       1
_symmetry_cell_setting            triclinic
loop_
_symmetry_equiv_pos_as_xyz
'x, y, z'
_cell_length_a     45.983537
_cell_length_b     51.781675
_cell_length_c     55.784702
_cell_angle_alpha  89.945388
_cell_angle_beta   89.957134
_cell_angle_gamma 90.145482
loop_
_atom_site_label
_atom_site_type_symbol
_atom_site_fract_x
_atom_site_fract_y
_atom_site_fract_z
_atom_type_partial_charge
Cu0 Cu 0.12402 0.62375 0.16534 0.0
N1 N 0.15927 0.61766 0.18117 0.0
N2 N 0.1971 0.63036 0.20356 0.0
C3 C 0.1782 0.63674 0.18609 0.0
C4 C 0.19012 0.60589 0.20968 0.0
C5 C 0.16685 0.59804 0.19573 0.0
O6 O 0.12437 0.66123 0.15949 0.0
C7 C 0.08887 0.58745 0.18802 0.0
O8 O 0.10535 0.57234 0.17491 0.0
H9 H 0.17567 0.6562 0.17944 0.0
H10 H 0.15459 0.58038 0.19795 0.0
N11 N 0.12208 0.60518 0.13653 0.0
N12 N 0.10395 0.58282 0.10556 0.0
C13 C 0.09785 0.5981 0.12457 0.0
C14 C 0.14426 0.59404 0.12475 0.0
C15 C 0.1332 0.58036 0.10561 0.0
C16 C 0.14041 0.66982 0.14254 0.0
O17 O 0.15174 0.65316 0.12748 0.0
H18 H 0.07618 0.60366 0.13006 0.0
H19 H 0.16682 0.59523 0.13011 0.0
O20 O 0.09259 0.61183 0.18647 0.0
H21 H 0.19926 0.59538 0.22465 0.0
H22 H 0.14571 0.5687 0.09327 0.0
Cu23 Cu 0.8975 0.12446 0.14954 0.0
N24 N 0.8637 0.10646 0.15764 0.0
N25 N 0.81688 0.10019 0.16685 0.0
C26 C 0.83684 0.11667 0.1578 0.0
C27 C 0.83182 0.07851 0.17224 0.0
C28 C 0.86071 0.08241 0.16643 0.0
O29 O 0.88776 0.16116 0.15178 0.0
C30 C 0.9284 0.10785 0.19162 0.0
O31 O 0.90364 0.11161 0.20281 0.0
H32 H 0.83233 0.13637 0.15255 0.0
H33 H 0.87844 0.06906 0.16926 0.0
N34 N 0.90616 0.11743 0.11751 0.0
N35 N 0.9254 0.10062 0.08412 0.0
C36 C 0.92531 0.10035 0.1084 0.0
C37 C 0.8938 0.12892 0.09847 0.0
C38 C 0.90558 0.11864 0.0779 0.0
C39 C 0.87491 0.17094 0.16988 0.0
O40 O 0.8723 0.15709 0.1895 0.0
H41 H 0.93856 0.08778 0.11938 0.0
H42 H 0.87739 0.1438 0.09955 0.0
O43 O 0.93027 0.11319 0.16936 0.0
H44 H 0.82274 0.0613 0.18036 0.0
H45 H 0.9002 0.12434 0.05978 0.0
Cu46 Cu 0.38823 0.90154 0.15015 0.0
N47 N 0.40569 0.87065 0.159 0.0
N48 N 0.40406 0.8318 0.17623 0.0
C49 C 0.39068 0.84847 0.16141 0.0
C50 C 0.42873 0.84377 0.18319 0.0
C51 C 0.42983 0.86772 0.17233 0.0
O52 O 0.34676 0.89416 0.15517 0.0
C53 C 0.40268 0.92669 0.19388 0.0
O54 O 0.38817 0.90749 0.20369 0.0
H55 H 0.36856 0.84604 0.15521 0.0
H56 H 0.44512 0.88302 0.17632 0.0
N57 N 0.39838 0.90949 0.11845 0.0
N58 N 0.41929 0.92958 0.0872 0.0
C59 C 0.41222 0.93095 0.11075 0.0
C60 C 0.39676 0.8939 0.09924 0.0
C61 C 0.40943 0.90626 0.07994 0.0
C62 C 0.32785 0.89088 0.13875 0.0
O63 O 0.33397 0.89799 0.11672 0.0
H64 H 0.41747 0.94701 0.12237 0.0
H65 H 0.38782 0.87455 0.09946 0.0
O66 O 0.40376 0.92836 0.17112 0.0
H67 H 0.4432 0.83689 0.19709 0.0
H68 H 0.41219 0.89817 0.06221 0.0
Cu69 Cu 0.65322 0.429 0.13591 0.0
N70 N 0.68896 0.44541 0.13952 0.0
N71 N 0.73659 0.44942 0.14626 0.0
C72 C 0.71465 0.43319 0.14077 0.0
C73 C 0.72419 0.47292 0.14849 0.0
C74 C 0.69472 0.47038 0.1442 0.0
O75 O 0.66125 0.39245 0.14271 0.0
C76 C 0.62398 0.44039 0.1802 0.0
O77 O 0.641 0.42282 0.18973 0.0
H78 H 0.71695 0.41248 0.13924 0.0
H79 H 0.67849 0.48541 0.14544 0.0
N80 N 0.64002 0.43485 0.10467 0.0
N81 N 0.61157 0.44653 0.07401 0.0
C82 C 0.6128 0.4409 0.09768 0.0
C83 C 0.65659 0.43712 0.08489 0.0
C84 C 0.6391 0.44405 0.06594 0.0
C85 C 0.6719 0.37791 0.12648 0.0
O86 O 0.67242 0.38634 0.1043 0.0
H87 H 0.59446 0.44171 0.10982 0.0
H88 H 0.67994 0.43472 0.08447 0.0
O89 O 0.62561 0.44493 0.15783 0.0
H90 H 0.73541 0.49045 0.15365 0.0
H91 H 0.64635 0.44812 0.04786 0.0
Cu92 Cu 0.1438 0.91421 0.35756 0.0
N93 N 0.12665 0.88547 0.34319 0.0
N94 N 0.12774 0.84793 0.32366 0.0
C95 C 0.13985 0.86242 0.341 0.0
C96 C 0.10551 0.86206 0.31498 0.0
C97 C 0.10465 0.88514 0.3273 0.0
O98 O 0.18516 0.90507 0.36067 0.0
C99 C 0.13321 0.94601 0.31583 0.0
O100 O 0.14239 0.92619 0.30331 0.0
H101 H 0.16002 0.85758 0.3499 0.0
H102 H 0.091 0.90154 0.32317 0.0
N103 N 0.12769 0.91882 0.38807 0.0
N104 N 0.10319 0.93606 0.41891 0.0
C105 C 0.1115 0.93887 0.39575 0.0
C106 C 0.12969 0.90271 0.40689 0.0
C107 C 0.11467 0.91325 0.42591 0.0
C108 C 0.20001 0.89735 0.3427 0.0
O109 O 0.18927 0.90053 0.32111 0.0
H110 H 0.10623 0.9553 0.38458 0.0
H111 H 0.14117 0.8845 0.40672 0.0
O112 O 0.13427 0.94508 0.33866 0.0
H113 H 0.09251 0.857 0.2995 0.0
H114 H 0.11204 0.90451 0.4434 0.0
Cu115 Cu 0.58247 0.14586 0.36204 0.0
N116 N 0.57014 0.1655 0.33604 0.0
N117 N 0.5767 0.17639 0.29763 0.0
C118 C 0.58933 0.17267 0.31913 0.0
C119 C 0.5481 0.17183 0.30126 0.0
C120 C 0.54409 0.16516 0.32505 0.0
O121 O 0.62138 0.1591 0.36982 0.0
C122 C 0.55525 0.09993 0.34906 0.0
O123 O 0.5332 0.112 0.3589 0.0
H124 H 0.61261 0.17112 0.32164 0.0
H125 H 0.52437 0.15741 0.33284 0.0
N126 N 0.55806 0.14881 0.38883 0.0
N127 N 0.5337 0.13723 0.42192 0.0
C128 C 0.55479 0.13086 0.40613 0.0
C129 C 0.53861 0.16737 0.39393 0.0
C130 C 0.52362 0.16034 0.4144 0.0
C131 C 0.62229 0.18304 0.3753 0.0
O132 O 0.5976 0.19563 0.37693 0.0
H133 H 0.56715 0.11311 0.40666 0.0
H134 H 0.53495 0.18439 0.38309 0.0
O135 O 0.58038 0.11051 0.34956 0.0
H136 H 0.53183 0.17076 0.28727 0.0
H137 H 0.50585 0.17088 0.42247 0.0
Cu138 Cu 0.3915 0.62291 0.35085 0.0
N139 N 0.35622 0.61591 0.33552 0.0
N140 N 0.31965 0.6275 0.31132 0.0
C141 C 0.33803 0.63487 0.32886 0.0
C142 C 0.32605 0.60246 0.30716 0.0
C143 C 0.34858 0.59533 0.32219 0.0
O144 O 0.39231 0.66077 0.35335 0.0
C145 C 0.42726 0.58463 0.33141 0.0
O146 O 0.41105 0.57019 0.34548 0.0
H147 H 0.34106 0.65475 0.33418 0.0
H148 H 0.36057 0.57742 0.3214 0.0
N149 N 0.3931 0.607 0.38104 0.0
N150 N 0.41069 0.58497 0.4124 0.0
C151 C 0.41719 0.59892 0.39258 0.0
C152 C 0.37059 0.59814 0.39409 0.0
C153 C 0.38133 0.58462 0.41344 0.0
C154 C 0.37814 0.67205 0.37 0.0
O155 O 0.36753 0.65805 0.3876 0.0
H156 H 0.43897 0.60186 0.38571 0.0
H157 H 0.34795 0.60058 0.38936 0.0
O158 O 0.42272 0.60892 0.33078 0.0
H159 H 0.31726 0.59097 0.29267 0.0
H160 H 0.36845 0.57484 0.42693 0.0
Cu161 Cu 0.92206 0.38036 0.36654 0.0
N162 N 0.93765 0.36429 0.33965 0.0
N163 N 0.93848 0.35613 0.30037 0.0
C164 C 0.92176 0.3603 0.31983 0.0
C165 C 0.96616 0.35729 0.30834 0.0
C166 C 0.96559 0.36228 0.33268 0.0
O167 O 0.88421 0.36391 0.37241 0.0
C168 C 0.94564 0.42823 0.3561 0.0
O169 O 0.9688 0.41582 0.36356 0.0
H170 H 0.89852 0.36358 0.31918 0.0
H171 H 0.98413 0.36665 0.34389 0.0
N172 N 0.9464 0.37645 0.39323 0.0
N173 N 0.97346 0.38728 0.42516 0.0
C174 C 0.95123 0.39409 0.41054 0.0
C175 C 0.96575 0.35754 0.39718 0.0
C176 C 0.9824 0.3641 0.41678 0.0
C177 C 0.88441 0.3393 0.37398 0.0
O178 O 0.90957 0.32739 0.37281 0.0
H179 H 0.93947 0.4121 0.41148 0.0
H180 H 0.96856 0.3408 0.38584 0.0
O181 O 0.92103 0.41678 0.3569 0.0
H182 H 0.98535 0.35662 0.29711 0.0
H183 H 1.00068 0.35312 0.42339 0.0
Cu184 Cu 0.90604 0.39509 0.88893 0.0
N185 N 0.87337 0.39592 0.8692 0.0
N186 N 0.84842 0.38234 0.8372 0.0
C187 C 0.86689 0.37583 0.85491 0.0
C188 C 0.84272 0.40764 0.8406 0.0
C189 C 0.85811 0.41598 0.86048 0.0
O190 O 0.91029 0.35851 0.89638 0.0
C191 C 0.93652 0.4339 0.86646 0.0
O192 O 0.91598 0.44713 0.87723 0.0
H193 H 0.87819 0.35754 0.85582 0.0
H194 H 0.85999 0.43568 0.86672 0.0
N195 N 0.90236 0.41509 0.91675 0.0
N196 N 0.91576 0.44039 0.94739 0.0
C197 C 0.92475 0.42466 0.92955 0.0
C198 C 0.87825 0.425 0.92681 0.0
C199 C 0.88643 0.44051 0.94579 0.0
C200 C 0.89334 0.3488 0.91208 0.0
O201 O 0.87815 0.36445 0.9257 0.0
H202 H 0.94725 0.42048 0.92545 0.0
H203 H 0.85637 0.42175 0.92035 0.0
O204 O 0.93747 0.40953 0.86964 0.0
H205 H 0.83001 0.41963 0.82867 0.0
H206 H 0.87194 0.45177 0.95691 0.0
Cu207 Cu 0.10188 0.92898 0.86941 0.0
N208 N 0.0751 0.92462 0.8446 0.0
N209 N 0.0427 0.93464 0.81619 0.0
C210 C 0.05699 0.94277 0.83597 0.0
C211 C 0.05204 0.91025 0.81246 0.0
C212 C 0.07201 0.90414 0.83002 0.0
O213 O 0.08506 0.95229 0.89294 0.0
C214 C 0.13925 0.95875 0.83924 0.0
O215 O 0.11534 0.97033 0.83224 0.0
H216 H 0.05558 0.96205 0.84334 0.0
H217 H 0.08414 0.88635 0.8316 0.0
N218 N 0.11045 0.89715 0.88352 0.0
N219 N 0.13498 0.86135 0.89306 0.0
C220 C 0.13295 0.88165 0.87792 0.0
C221 C 0.09766 0.88623 0.90272 0.0
C222 C 0.1128 0.86417 0.90869 0.0
C223 C 0.09559 0.95597 0.91376 0.0
O224 O 0.11996 0.94447 0.91974 0.0
H225 H 0.14826 0.8858 0.86366 0.0
H226 H 0.07917 0.8942 0.91213 0.0
O227 O 0.13793 0.94194 0.85586 0.0
H228 H 0.04537 0.89785 0.79785 0.0
H229 H 0.10803 0.85135 0.92354 0.0
Cu230 Cu 0.63625 0.13721 0.89246 0.0
N231 N 0.6222 0.16879 0.88108 0.0
N232 N 0.62111 0.20668 0.86173 0.0
C233 C 0.63753 0.18631 0.86842 0.0
C234 C 0.5944 0.2018 0.87084 0.0
C235 C 0.59518 0.17845 0.8828 0.0
O236 O 0.67753 0.14277 0.89851 0.0
C237 C 0.62519 0.11485 0.84687 0.0
O238 O 0.6301 0.13841 0.83914 0.0
H239 H 0.66 0.18359 0.86336 0.0
H240 H 0.57723 0.16898 0.8918 0.0
N241 N 0.61772 0.12944 0.92149 0.0
N242 N 0.59237 0.10956 0.95051 0.0
C243 C 0.60234 0.10819 0.92767 0.0
C244 C 0.61735 0.14476 0.94092 0.0
C245 C 0.6018 0.13262 0.95879 0.0
C246 C 0.69666 0.14366 0.88201 0.0
O247 O 0.68933 0.13699 0.86012 0.0
H248 H 0.59889 0.09198 0.91577 0.0
H249 H 0.62764 0.16353 0.94193 0.0
O250 O 0.62796 0.10997 0.86915 0.0
H251 H 0.57555 0.21408 0.86893 0.0
H252 H 0.59744 0.14042 0.97641 0.0
Cu253 Cu 0.38978 0.59735 0.88116 0.0
N254 N 0.41861 0.59979 0.85786 0.0
N255 N 0.44752 0.58744 0.82776 0.0
C256 C 0.42666 0.58026 0.84346 0.0
C257 C 0.45277 0.61261 0.83255 0.0
C258 C 0.4349 0.62017 0.85118 0.0
O259 O 0.40422 0.57329 0.9051 0.0
C260 C 0.35121 0.56156 0.85869 0.0
O261 O 0.36832 0.54342 0.86711 0.0
H262 H 0.41686 0.56127 0.8442 0.0
H263 H 0.43372 0.63916 0.85918 0.0
N264 N 0.38126 0.6299 0.89378 0.0
N265 N 0.35749 0.6668 0.90065 0.0
C266 C 0.35844 0.64481 0.88767 0.0
C267 C 0.39543 0.643 0.91102 0.0
C268 C 0.38071 0.66572 0.91541 0.0
C269 C 0.39944 0.5737 0.92757 0.0
O270 O 0.38139 0.5908 0.93649 0.0
H271 H 0.34245 0.6393 0.87438 0.0
H272 H 0.41488 0.63633 0.91997 0.0
O273 O 0.35575 0.58496 0.86449 0.0
H274 H 0.46849 0.62468 0.8234 0.0
H275 H 0.38669 0.68034 0.92836 0.0
Cu276 Cu 0.88318 0.13618 0.61664 0.0
N277 N 0.89777 0.1668 0.62971 0.0
N278 N 0.89926 0.2038 0.65043 0.0
C279 C 0.88266 0.18376 0.64307 0.0
C280 C 0.9259 0.19926 0.64108 0.0
C281 C 0.92488 0.17646 0.6283 0.0
O282 O 0.84212 0.1427 0.61032 0.0
C283 C 0.89184 0.11065 0.66127 0.0
O284 O 0.88583 0.1334 0.67036 0.0
H285 H 0.86012 0.18095 0.64792 0.0
H286 H 0.94266 0.16745 0.61878 0.0
N287 N 0.9021 0.12967 0.58755 0.0
N288 N 0.92759 0.11072 0.55819 0.0
C289 C 0.91724 0.10856 0.58085 0.0
C290 C 0.90301 0.14573 0.56862 0.0
C291 C 0.91864 0.13415 0.55053 0.0
C292 C 0.82258 0.14287 0.62651 0.0
O293 O 0.82914 0.13475 0.64814 0.0
H294 H 0.9202 0.09185 0.59225 0.0
H295 H 0.89299 0.1646 0.56808 0.0
O296 O 0.89064 0.10754 0.63863 0.0
H297 H 0.94483 0.21148 0.64327 0.0
H298 H 0.92336 0.14256 0.53319 0.0
Cu299 Cu 0.41494 0.93032 0.63823 0.0
N300 N 0.44871 0.92928 0.65681 0.0
N301 N 0.48311 0.94193 0.68257 0.0
C302 C 0.46018 0.94922 0.66908 0.0
C303 C 0.48618 0.91637 0.6786 0.0
C304 C 0.46495 0.90863 0.66264 0.0
O305 O 0.42192 0.95365 0.61145 0.0
C306 C 0.38083 0.93039 0.67898 0.0
O307 O 0.39939 0.91208 0.68452 0.0
H308 H 0.45112 0.96848 0.66887 0.0
H309 H 0.46113 0.88921 0.65623 0.0
N310 N 0.4062 0.89747 0.62623 0.0
N311 N 0.38282 0.86055 0.61805 0.0
C312 C 0.38302 0.88239 0.63133 0.0
C313 C 0.42119 0.88471 0.60928 0.0
C314 C 0.40684 0.86198 0.60417 0.0
C315 C 0.4215 0.97813 0.61342 0.0
O316 O 0.41439 0.98849 0.63409 0.0
H317 H 0.36618 0.88769 0.64394 0.0
H318 H 0.44097 0.8917 0.60097 0.0
O319 O 0.38322 0.94155 0.65872 0.0
H320 H 0.50244 0.90412 0.68677 0.0
H321 H 0.41357 0.84761 0.59124 0.0
Cu322 Cu 0.61492 0.39643 0.62311 0.0
N323 N 0.64761 0.39807 0.64275 0.0
N324 N 0.67259 0.38531 0.67502 0.0
C325 C 0.6546 0.37821 0.65715 0.0
C326 C 0.67747 0.41078 0.67158 0.0
C327 C 0.66205 0.41861 0.65156 0.0
O328 O 0.61118 0.35968 0.61607 0.0
C329 C 0.58351 0.43537 0.64439 0.0
O330 O 0.6032 0.44878 0.63267 0.0
H331 H 0.64386 0.3596 0.65625 0.0
H332 H 0.65942 0.43825 0.64533 0.0
N333 N 0.61836 0.41602 0.59495 0.0
N334 N 0.60467 0.44058 0.56386 0.0
C335 C 0.59589 0.4248 0.5818 0.0
C336 C 0.64231 0.42647 0.58502 0.0
C337 C 0.63396 0.44157 0.56581 0.0
C338 C 0.62804 0.35018 0.60024 0.0
O339 O 0.64292 0.36602 0.58649 0.0
H340 H 0.57343 0.42062 0.58615 0.0
H341 H 0.6642 0.4238 0.59165 0.0
O342 O 0.58347 0.41084 0.64234 0.0
H343 H 0.68954 0.4232 0.68362 0.0
H344 H 0.64839 0.45262 0.55439 0.0
Cu345 Cu 0.13465 0.58838 0.62768 0.0
N346 N 0.10767 0.59298 0.65222 0.0
N347 N 0.07967 0.58176 0.68337 0.0
C348 C 0.09225 0.57397 0.66272 0.0
C349 C 0.08703 0.60694 0.68556 0.0
C350 C 0.10439 0.61376 0.66638 0.0
O351 O 0.11721 0.5664 0.60324 0.0
C352 C 0.16834 0.55252 0.65438 0.0
O353 O 0.14505 0.53783 0.65354 0.0
H354 H 0.09151 0.55446 0.65586 0.0
H355 H 0.11547 0.63201 0.66382 0.0
N356 N 0.1453 0.62024 0.61454 0.0
N357 N 0.16985 0.65689 0.60772 0.0
C358 C 0.16601 0.63655 0.62261 0.0
C359 C 0.13559 0.63065 0.59397 0.0
C360 C 0.15071 0.65322 0.58968 0.0
C361 C 0.12923 0.54664 0.59403 0.0
O362 O 0.15572 0.54034 0.60055 0.0
H363 H 0.17873 0.63303 0.6386 0.0
H364 H 0.11913 0.62208 0.58261 0.0
O365 O 0.16876 0.5737 0.6428 0.0
H366 H 0.08202 0.61912 0.70076 0.0
H367 H 0.14797 0.66586 0.57439 0.0
C368 C 0.14814 0.71335 0.16237 0.0
C369 C 0.15178 0.69682 0.14257 0.0
C370 C 0.1627 0.73728 0.16335 0.0
C371 C 0.21 0.77906 0.16763 0.0
H372 H 0.22877 0.81451 0.10841 0.0
C373 C 0.30222 0.85582 0.16192 0.0
C374 C 0.30199 0.87417 0.14329 0.0
C375 C 0.28039 0.83691 0.16357 0.0
C376 C 0.22345 0.80538 0.1253 0.0
H377 H 0.17317 0.69295 0.10811 0.0
H378 H 0.19865 0.73373 0.10997 0.0
H379 H 0.19608 0.77802 0.10767 0.0
H380 H 0.27737 0.88819 0.11293 0.0
H381 H 0.23839 0.85657 0.11667 0.0
H382 H 0.23656 0.80717 0.18537 0.0
C383 C 0.18419 0.72883 0.12461 0.0
C384 C 0.20495 0.78389 0.12479 0.0
C385 C 0.16961 0.70516 0.12359 0.0
C386 C 0.27837 0.8742 0.12735 0.0
C387 C 0.25615 0.85572 0.12936 0.0
C388 C 0.22819 0.80091 0.1682 0.0
C389 C 0.18127 0.74524 0.14457 0.0
C390 C 0.19846 0.76994 0.14581 0.0
C391 C 0.25728 0.83614 0.14696 0.0
C392 C 0.23571 0.81418 0.14696 0.0
H393 H 0.13481 0.70747 0.17743 0.0
H394 H 0.15956 0.74939 0.17894 0.0
H395 H 0.20578 0.76889 0.18424 0.0
H396 H 0.32014 0.85511 0.17448 0.0
H397 H 0.28254 0.82222 0.17725 0.0
C398 C 0.85326 0.2062 0.14451 0.0
C399 C 0.8577 0.19509 0.16723 0.0
C400 C 0.83376 0.2267 0.14152 0.0
C401 C 0.77001 0.2578 0.17099 0.0
H402 H 0.78304 0.31042 0.1227 0.0
C403 C 0.69517 0.34801 0.15676 0.0
C404 C 0.68919 0.35458 0.13277 0.0
C405 C 0.71512 0.32833 0.1622 0.0
C406 C 0.77896 0.29575 0.13616 0.0
H407 H 0.84586 0.19768 0.20478 0.0
H408 H 0.81259 0.23385 0.1997 0.0
H409 H 0.82031 0.27807 0.13012 0.0
H410 H 0.69862 0.34466 0.09577 0.0
H411 H 0.73309 0.31066 0.10526 0.0
H412 H 0.72867 0.27588 0.1771 0.0
C413 C 0.82359 0.22631 0.18404 0.0
C414 C 0.80035 0.27712 0.1404 0.0
C415 C 0.84296 0.20569 0.18701 0.0
C416 C 0.70272 0.3403 0.11445 0.0
C417 C 0.72273 0.32089 0.11987 0.0
C418 C 0.74869 0.27663 0.16688 0.0
C419 C 0.81828 0.23683 0.16118 0.0
C420 C 0.79608 0.25763 0.15766 0.0
C421 C 0.72968 0.315 0.14377 0.0
C422 C 0.75274 0.29562 0.14917 0.0
H423 H 0.86398 0.19841 0.12882 0.0
H424 H 0.83007 0.23395 0.12357 0.0
H425 H 0.76564 0.24295 0.1842 0.0
H426 H 0.68529 0.35867 0.17132 0.0
H427 H 0.72001 0.32426 0.18081 0.0
C428 C 0.24015 0.86998 0.32586 0.0
C429 C 0.22507 0.87944 0.34599 0.0
C430 C 0.26055 0.85008 0.32815 0.0
C431 C 0.30516 0.81341 0.37253 0.0
H432 H 0.30278 0.75981 0.32404 0.0
C433 C 0.35528 0.71204 0.38679 0.0
C434 C 0.36798 0.6992 0.36722 0.0
C435 C 0.34142 0.73587 0.38377 0.0
C436 C 0.30413 0.77476 0.33756 0.0
H437 H 0.22056 0.87574 0.38452 0.0
H438 H 0.25608 0.84104 0.38854 0.0
H439 H 0.27197 0.79774 0.31989 0.0
H440 H 0.37666 0.70187 0.32908 0.0
H441 H 0.3527 0.74367 0.32383 0.0
H442 H 0.33691 0.79009 0.39043 0.0
C443 C 0.25232 0.84918 0.37093 0.0
C444 C 0.28639 0.79661 0.33519 0.0
C445 C 0.23189 0.86915 0.36864 0.0
C446 C 0.36737 0.7113 0.34462 0.0
C447 C 0.35328 0.73513 0.34155 0.0
C448 C 0.32285 0.79152 0.37493 0.0
C449 C 0.26651 0.83897 0.35064 0.0
C450 C 0.28646 0.81619 0.35273 0.0
C451 C 0.33966 0.74753 0.36102 0.0
C452 C 0.3224 0.77176 0.3576 0.0
H453 H 0.23557 0.87742 0.30811 0.0
H454 H 0.27139 0.84318 0.31216 0.0
H455 H 0.30622 0.8282 0.38621 0.0
H456 H 0.35521 0.70327 0.40443 0.0
H457 H 0.33099 0.74461 0.39915 0.0
C458 C 0.82964 0.33514 0.37786 0.0
C459 C 0.8572 0.32367 0.37564 0.0
C460 C 0.80438 0.31979 0.37881 0.0
C461 C 0.77673 0.25473 0.36233 0.0
H462 H 0.71537 0.2693 0.40792 0.0
C463 C 0.67735 0.18596 0.37395 0.0
C464 C 0.65014 0.19765 0.37762 0.0
C465 C 0.70305 0.20074 0.37477 0.0
C466 C 0.73209 0.26506 0.39485 0.0
H467 H 0.87961 0.28691 0.37283 0.0
H468 H 0.83597 0.2605 0.37443 0.0
H469 H 0.75833 0.29697 0.40656 0.0
H470 H 0.62887 0.23413 0.38526 0.0
H471 H 0.67302 0.2596 0.38619 0.0
H472 H 0.75042 0.22312 0.3503 0.0
C473 C 0.83371 0.2813 0.37525 0.0
C474 C 0.75678 0.281 0.39409 0.0
C475 C 0.85883 0.29654 0.3745 0.0
C476 C 0.64936 0.22432 0.38245 0.0
C477 C 0.67487 0.23903 0.38316 0.0
C478 C 0.75196 0.2389 0.36295 0.0
C479 C 0.80612 0.29264 0.37732 0.0
C480 C 0.77945 0.27605 0.37784 0.0
C481 C 0.70214 0.22757 0.37922 0.0
C482 C 0.7292 0.24383 0.37919 0.0
H483 H 0.82756 0.35595 0.37875 0.0
H484 H 0.78344 0.32919 0.38027 0.0
H485 H 0.7936 0.2505 0.34937 0.0
H486 H 0.67878 0.1655 0.37018 0.0
H487 H 0.72363 0.19111 0.37195 0.0
C488 C 0.88933 0.30648 0.89024 0.0
C489 C 0.88492 0.32113 0.91114 0.0
C490 C 0.8756 0.28246 0.88744 0.0
C491 C 0.8339 0.23113 0.91982 0.0
H492 H 0.79254 0.22475 0.85959 0.0
C493 C 0.73071 0.16842 0.90874 0.0
C494 C 0.72487 0.15691 0.88642 0.0
C495 C 0.75512 0.18428 0.91181 0.0
C496 C 0.80434 0.22583 0.87636 0.0
H497 H 0.86443 0.32118 0.94614 0.0
H498 H 0.8408 0.27944 0.94137 0.0
H499 H 0.82756 0.25952 0.86492 0.0
H500 H 0.74118 0.15192 0.85022 0.0
H501 H 0.78396 0.1792 0.85572 0.0
H502 H 0.81005 0.19779 0.93145 0.0
C503 C 0.85476 0.28637 0.9271 0.0
C504 C 0.8245 0.24584 0.87941 0.0
C505 C 0.86826 0.31041 0.92981 0.0
C506 C 0.74488 0.16057 0.86763 0.0
C507 C 0.76933 0.1764 0.87072 0.0
C508 C 0.81377 0.21106 0.91674 0.0
C509 C 0.85743 0.27247 0.90557 0.0
C510 C 0.8391 0.2491 0.90135 0.0
C511 C 0.77438 0.18901 0.89268 0.0
C512 C 0.79825 0.20846 0.89514 0.0
H513 H 0.90193 0.3142 0.87545 0.0
H514 H 0.87844 0.27209 0.87075 0.0
H515 H 0.84506 0.23285 0.93684 0.0
H516 H 0.71577 0.1661 0.92361 0.0
H517 H 0.75807 0.19382 0.92891 0.0
C518 C 0.32756 0.70042 0.92016 0.0
C519 C 0.33572 0.6868 0.89947 0.0
C520 C 0.306 0.71944 0.91914 0.0
C521 C 0.24552 0.74361 0.88034 0.0
H522 H 0.25023 0.80311 0.92232 0.0
C523 C 0.17 0.83308 0.87196 0.0
C524 C 0.15729 0.84178 0.8934 0.0
C525 C 0.19175 0.81418 0.87233 0.0
C526 C 0.24855 0.78652 0.91058 0.0
H527 H 0.32818 0.68292 0.86135 0.0
H528 H 0.29133 0.71661 0.85927 0.0
H529 H 0.28856 0.77072 0.92332 0.0
H530 H 0.15782 0.83779 0.93206 0.0
H531 H 0.19606 0.80506 0.93275 0.0
H532 H 0.20578 0.76001 0.86723 0.0
C533 C 0.30081 0.71213 0.87653 0.0
C534 C 0.27046 0.76782 0.91122 0.0
C535 C 0.32207 0.69284 0.87765 0.0
C536 C 0.16697 0.8313 0.91523 0.0
C537 C 0.18903 0.81273 0.91564 0.0
C538 C 0.22383 0.76254 0.87948 0.0
C539 C 0.29231 0.72564 0.89729 0.0
C540 C 0.2692 0.74595 0.89622 0.0
C541 C 0.20163 0.80392 0.8942 0.0
C542 C 0.225 0.7841 0.8947 0.0
H543 H 0.33738 0.69595 0.93729 0.0
H544 H 0.29976 0.72892 0.93563 0.0
H545 H 0.24335 0.72691 0.86882 0.0
H546 H 0.16287 0.84069 0.85487 0.0
H547 H 0.20116 0.80786 0.85553 0.0
C548 C 0.65288 0.31214 0.58194 0.0
C549 C 0.63648 0.32254 0.60088 0.0
C550 C 0.66631 0.28808 0.58424 0.0
C551 C 0.69657 0.24634 0.63115 0.0
H552 H 0.71055 0.19972 0.57805 0.0
C553 C 0.77457 0.15989 0.64103 0.0
C554 C 0.79475 0.15672 0.6223 0.0
C555 C 0.7505 0.17613 0.63825 0.0
C556 C 0.70695 0.21258 0.59305 0.0
H557 H 0.61994 0.31504 0.63663 0.0
H558 H 0.64323 0.27284 0.64059 0.0
H559 H 0.67586 0.235 0.57346 0.0
H560 H 0.80452 0.16724 0.58551 0.0
H561 H 0.76278 0.19561 0.58073 0.0
H562 H 0.72825 0.22452 0.6505 0.0
C563 C 0.64595 0.28349 0.62402 0.0
C564 C 0.68701 0.2328 0.59043 0.0
C565 C 0.63232 0.30756 0.62165 0.0
C566 C 0.78944 0.16917 0.60032 0.0
C567 C 0.76536 0.18541 0.59754 0.0
C568 C 0.7165 0.22616 0.63376 0.0
C569 C 0.66382 0.2738 0.6056 0.0
C570 C 0.68199 0.25027 0.60929 0.0
C571 C 0.74595 0.1896 0.61666 0.0
C572 C 0.7224 0.2093 0.6146 0.0
H573 H 0.65652 0.32316 0.5657 0.0
H574 H 0.68005 0.28141 0.56975 0.0
H575 H 0.69366 0.25962 0.64594 0.0
H576 H 0.77787 0.15053 0.65818 0.0
H577 H 0.73574 0.17852 0.65322 0.0
C578 C 0.20344 0.6885 0.58911 0.0
C579 C 0.19112 0.67736 0.60976 0.0
C580 C 0.22433 0.70807 0.59097 0.0
C581 C 0.25144 0.75935 0.6305 0.0
H582 H 0.32124 0.75476 0.59175 0.0
C583 C 0.34573 0.83383 0.63886 0.0
C584 C 0.36109 0.84035 0.61791 0.0
C585 C 0.32516 0.81378 0.63872 0.0
C586 C 0.30172 0.75665 0.60245 0.0
H587 H 0.19079 0.67837 0.64857 0.0
H588 H 0.22716 0.71291 0.65184 0.0
H589 H 0.285 0.72049 0.5898 0.0
H590 H 0.36608 0.83153 0.58019 0.0
H591 H 0.32987 0.79726 0.57968 0.0
H592 H 0.26766 0.79583 0.6427 0.0
C593 C 0.22067 0.70633 0.63421 0.0
C594 C 0.28099 0.73687 0.60139 0.0
C595 C 0.20003 0.68645 0.63235 0.0
C596 C 0.35504 0.82667 0.59674 0.0
C597 C 0.33428 0.80689 0.59651 0.0
C598 C 0.27203 0.77934 0.63135 0.0
C599 C 0.23319 0.71724 0.61352 0.0
C600 C 0.25554 0.73802 0.6153 0.0
C601 C 0.31918 0.79995 0.61753 0.0
C602 C 0.29743 0.77837 0.61722 0.0
H603 H 0.19727 0.68178 0.57146 0.0
H604 H 0.2334 0.71621 0.57469 0.0
H605 H 0.23193 0.76089 0.64128 0.0
H606 H 0.3501 0.84385 0.6555 0.0
H607 H 0.31436 0.80885 0.65537 0.0
C608 C 0.97333 0.469 0.3508 0.0
C609 C 0.9501 0.45316 0.34361 0.0
C610 C 0.98347 0.48876 0.33594 0.0
C611 C 0.97115 0.52702 0.28052 0.0
H612 H 0.05454 0.51872 0.27338 0.0
C613 C 0.04983 0.59046 0.22007 0.0
C614 C 0.06818 0.57557 0.20537 0.0
C615 C 0.03196 0.57849 0.23734 0.0
C616 C 0.03128 0.5214 0.27524 0.0
H617 H 0.91783 0.44679 0.31598 0.0
H618 H 0.93578 0.48145 0.2897 0.0
H619 H 0.0287 0.49388 0.30365 0.0
H620 H 0.08124 0.53633 0.19684 0.0
H621 H 0.05079 0.51588 0.22689 0.0
H622 H 0.97415 0.55442 0.25151 0.0
C623 C 0.94594 0.47868 0.30702 0.0
C624 C 0.01646 0.50731 0.29273 0.0
C625 C 0.93559 0.45889 0.32208 0.0
C626 C 0.06763 0.54853 0.20788 0.0
C627 C 0.05017 0.53672 0.22517 0.0
C628 C 0.98619 0.5415 0.26309 0.0
C629 C 0.97087 0.49302 0.31334 0.0
C630 C 0.98618 0.5097 0.2955 0.0
C631 C 0.0325 0.55151 0.24035 0.0
C632 C 0.01636 0.53844 0.26005 0.0
H633 H 0.98482 0.46512 0.36737 0.0
H634 H 1.00229 0.49981 0.34159 0.0
H635 H 0.94784 0.5293 0.28223 0.0
H636 H 0.04965 0.61131 0.21854 0.0
H637 H 0.01854 0.59034 0.24887 0.0
C638 C 0.97692 0.08538 0.19163 0.0
C639 C 0.95305 0.09533 0.20439 0.0
C640 C 0.99891 0.07171 0.20351 0.0
C641 C 0.03176 0.05975 0.26318 0.0
H642 H 0.05537 0.99457 0.23529 0.0
C643 C 0.09851 0.98357 0.31616 0.0
C644 C 0.11752 0.9673 0.30347 0.0
C645 C 0.08076 1.00122 0.30397 0.0
C646 C 0.04956 1.01293 0.2432 0.0
H647 H 0.93416 0.09934 0.23982 0.0
H648 H 0.9726 0.07577 0.26051 0.0
H649 H 0.02072 0.02174 0.2142 0.0
H650 H 0.13386 0.95789 0.2681 0.0
H651 H 0.10387 0.98918 0.24699 0.0
H652 H 0.06071 0.05106 0.29214 0.0
C653 C 0.97432 0.07852 0.24131 0.0
C654 C 0.02953 0.02851 0.23107 0.0
C655 C 0.95219 0.09194 0.22941 0.0
C656 C 0.11931 0.96997 0.27843 0.0
C657 C 0.10184 0.98779 0.26628 0.0
C658 C 0.05205 0.04428 0.27523 0.0
C659 C 0.99774 0.06789 0.22848 0.0
C660 C 0.02019 0.05202 0.24097 0.0
C661 C 0.08175 1.00327 0.27878 0.0
C662 C 0.06111 0.02051 0.26551 0.0
H663 H 0.97831 0.08758 0.17235 0.0
H664 H 0.01679 0.06401 0.19311 0.0
H665 H 0.02527 0.07789 0.27119 0.0
H666 H 0.09639 0.98191 0.33544 0.0
H667 H 0.06544 1.01252 0.31429 0.0
C668 C 0.5267 0.05987 0.34197 0.0
C669 C 0.54891 0.07673 0.33451 0.0
C670 C 0.51555 0.04121 0.32639 0.0
C671 C 0.50262 0.03112 0.26268 0.0
H672 H 0.47958 0.96232 0.28262 0.0
C673 C 0.44132 0.96079 0.19895 0.0
C674 C 0.42021 0.9444 0.20913 0.0
C675 C 0.45939 0.97595 0.21352 0.0
C676 C 0.4855 0.98158 0.27679 0.0
H677 H 0.57752 0.08682 0.3051 0.0
H678 H 0.55775 0.05417 0.27757 0.0
H679 H 0.50867 0.98909 0.3094 0.0
H680 H 0.40108 0.9317 0.24266 0.0
H681 H 0.43175 0.95863 0.26795 0.0
H682 H 0.47859 0.02412 0.23047 0.0
C683 C 0.54915 0.05534 0.29562 0.0
C684 C 0.50241 0.99685 0.29212 0.0
C685 C 0.56073 0.07378 0.31145 0.0
C686 C 0.41719 0.94399 0.2342 0.0
C687 C 0.43506 0.95929 0.24875 0.0
C688 C 0.48545 0.01595 0.24741 0.0
C689 C 0.52596 0.03924 0.30278 0.0
C690 C 0.51088 0.02193 0.2854 0.0
C691 C 0.4567 0.97528 0.23867 0.0
C692 C 0.47626 0.99107 0.25438 0.0
H693 H 0.51703 0.06189 0.35959 0.0
H694 H 0.49757 0.02931 0.33244 0.0
H695 H 0.50842 0.0505 0.25709 0.0
H696 H 0.44442 0.96146 0.17971 0.0
H697 H 0.47594 0.98774 0.20503 0.0
C698 C 0.59807 0.44819 0.21924 0.0
C699 C 0.60382 0.45562 0.19546 0.0
C700 C 0.57934 0.46278 0.23366 0.0
C701 C 0.5488 0.5279 0.24127 0.0
H702 H 0.48929 0.49279 0.27826 0.0
C703 C 0.45994 0.58344 0.29504 0.0
C704 C 0.44979 0.57209 0.31637 0.0
C705 C 0.47932 0.57005 0.28008 0.0
C706 C 0.50607 0.50299 0.26842 0.0
H707 H 0.59451 0.48445 0.16828 0.0
H708 H 0.56214 0.51004 0.19357 0.0
H709 H 0.52193 0.46784 0.25303 0.0
H710 H 0.45318 0.53844 0.33933 0.0
H711 H 0.48756 0.51574 0.31404 0.0
H712 H 0.53343 0.56303 0.25704 0.0
C713 C 0.5721 0.49288 0.20102 0.0
C714 C 0.52471 0.4886 0.25383 0.0
C715 C 0.59051 0.4781 0.18649 0.0
C716 C 0.46024 0.54759 0.32284 0.0
C717 C 0.47984 0.53443 0.30817 0.0
C718 C 0.53036 0.54232 0.25613 0.0
C719 C 0.56624 0.48536 0.22475 0.0
C720 C 0.54634 0.50085 0.24012 0.0
C721 C 0.48924 0.54516 0.2863 0.0
C722 C 0.50877 0.53006 0.27003 0.0
H723 H 0.60796 0.43103 0.22674 0.0
H724 H 0.57542 0.45659 0.25193 0.0
H725 H 0.56542 0.53789 0.23105 0.0
H726 H 0.45217 0.60225 0.28952 0.0
H727 H 0.48582 0.57893 0.26334 0.0
C728 C 0.07059 0.53887 0.70187 0.0
C729 C 0.06559 0.5657 0.70117 0.0
C730 C 0.05834 0.52356 0.71991 0.0
C731 C 0.02934 0.52749 0.78128 0.0
H732 H 0.99397 0.46123 0.76688 0.0
C733 C 0.95576 0.47452 0.8484 0.0
C734 C 0.95617 0.4474 0.84949 0.0
C735 C 0.9718 0.48776 0.83109 0.0
C736 C 1.00423 0.47946 0.77128 0.0
H737 H 0.04294 0.59714 0.71871 0.0
H738 H 0.02178 0.57043 0.75028 0.0
H739 H 0.01553 0.48683 0.73461 0.0
H740 H 0.97454 0.41291 0.83362 0.0
H741 H 1.00303 0.43619 0.80331 0.0
H742 H 0.01809 0.52026 0.81787 0.0
C743 C 0.03552 0.56136 0.73697 0.0
C744 C 0.01646 0.49419 0.75276 0.0
C745 C 0.04764 0.57668 0.71884 0.0
C746 C 0.97379 0.43381 0.83325 0.0
C747 C 0.9899 0.44714 0.81578 0.0
C748 C 0.01727 0.51274 0.79978 0.0
C749 C 0.04092 0.53466 0.73781 0.0
C750 C 0.02878 0.51854 0.75752 0.0
C751 C 0.9888 0.47429 0.81435 0.0
C752 C 1.00415 0.48872 0.79498 0.0
H753 H 0.08465 0.52966 0.68892 0.0
H754 H 0.06317 0.5031 0.72021 0.0
H755 H 0.03922 0.54592 0.78561 0.0
H756 H 0.94246 0.48565 0.86064 0.0
H757 H 0.97005 0.5086 0.83035 0.0
C758 C 1.00857 0.97103 0.81046 0.0
C759 C 0.02385 0.94986 0.80104 0.0
C760 C 0.99185 0.98684 0.79556 0.0
C761 C 0.9567 0.99036 0.73569 0.0
H762 H 0.96308 0.06418 0.74601 0.0
C763 C 0.91467 0.06704 0.66775 0.0
C764 C 0.90254 0.08977 0.6772 0.0
C765 C 0.92734 0.04865 0.68294 0.0
C766 C 0.96068 0.04361 0.74305 0.0
H767 H 0.03303 0.92856 0.76844 0.0
H768 H 1.00392 0.95613 0.74247 0.0
H769 H 0.98886 0.03466 0.77234 0.0
H770 H 0.893 0.11036 0.71013 0.0
H771 H 0.91457 0.07827 0.73648 0.0
H772 H 0.92865 0.99947 0.70618 0.0
C773 C 1.00461 0.96034 0.76147 0.0
C774 C 0.97549 0.02665 0.75819 0.0
C775 C 0.02133 0.9445 0.7764 0.0
C776 C 0.90238 0.09321 0.70219 0.0
C777 C 0.91494 0.07486 0.71733 0.0
C778 C 0.94183 1.00738 0.7205 0.0
C779 C 0.98997 0.98192 0.77082 0.0
C780 C 0.9737 0.9998 0.75475 0.0
C781 C 0.92811 0.05259 0.7079 0.0
C782 C 0.9436 0.03423 0.72403 0.0
H783 H 1.00956 0.97545 0.8294 0.0
H784 H 0.9804 1.00298 0.80346 0.0
H785 H 0.9546 0.96978 0.73267 0.0
H786 H 0.91521 0.06381 0.64857 0.0
H787 H 0.93744 0.03181 0.67504 0.0
C788 C 0.60743 0.10205 0.80622 0.0
C789 C 0.61398 0.09507 0.82997 0.0
C790 C 0.59465 0.08434 0.79057 0.0
C791 C 0.58256 0.01542 0.77883 0.0
H792 H 0.51592 0.04006 0.74301 0.0
C793 C 0.5113 0.9477 0.72002 0.0
C794 C 0.49961 0.95795 0.69878 0.0
C795 C 0.52608 0.96362 0.73626 0.0
C796 C 0.53475 0.0329 0.75254 0.0
H797 H 0.6131 0.06358 0.85563 0.0
H798 H 0.59096 0.0324 0.82803 0.0
H799 H 0.54066 0.0689 0.7707 0.0
H800 H 0.49532 0.99269 0.67746 0.0
H801 H 0.52163 0.02032 0.70533 0.0
H802 H 0.577 0.97951 0.76032 0.0
C803 C 0.59571 0.05172 0.82166 0.0
C804 C 0.54887 0.04945 0.76852 0.0
C805 C 0.6083 0.06959 0.83746 0.0
C806 C 0.50363 0.98432 0.69387 0.0
C807 C 0.51865 1.00017 0.70994 0.0
C808 C 0.56859 0.99886 0.76262 0.0
C809 C 0.58827 0.05909 0.79818 0.0
C810 C 0.57302 0.04098 0.78174 0.0
C811 C 0.52976 0.99014 0.73153 0.0
C812 C 0.54458 1.00745 0.74913 0.0
H813 H 0.61158 0.12145 0.79975 0.0
H814 H 0.58957 0.09047 0.77248 0.0
H815 H 0.60125 1.00841 0.78868 0.0
H816 H 0.50828 0.92751 0.72443 0.0
H817 H 0.53397 0.95522 0.7528 0.0
C818 C 0.56123 0.47595 0.65947 0.0
C819 C 0.56417 0.44902 0.66137 0.0
C820 C 0.54665 0.48995 0.67707 0.0
C821 C 0.4963 0.48525 0.72862 0.0
H822 H 0.53499 0.54861 0.74783 0.0
C823 C 0.46101 0.54447 0.81178 0.0
C824 C 0.46062 0.57154 0.80944 0.0
C825 C 0.47296 0.52897 0.7938 0.0
C826 C 0.5237 0.53115 0.74251 0.0
H827 H 0.55291 0.41547 0.68271 0.0
H828 H 0.52741 0.44009 0.71381 0.0
H829 H 0.55588 0.52225 0.71617 0.0
H830 H 0.47244 0.60341 0.78613 0.0
H831 H 0.49337 0.57643 0.75483 0.0
H832 H 0.46413 0.49424 0.75514 0.0
C833 C 0.53633 0.45031 0.69852 0.0
C834 C 0.53568 0.51601 0.72434 0.0
C835 C 0.55091 0.4362 0.68073 0.0
C836 C 0.47272 0.58271 0.78872 0.0
C837 C 0.4847 0.5672 0.77074 0.0
C838 C 0.48429 0.50045 0.74687 0.0
C839 C 0.53474 0.47744 0.69718 0.0
C840 C 0.52202 0.49299 0.717 0.0
C841 C 0.48492 0.54014 0.77304 0.0
C842 C 0.49777 0.52367 0.75392 0.0
H843 H 0.57086 0.4864 0.64461 0.0
H844 H 0.54516 0.51072 0.67513 0.0
H845 H 0.48513 0.46774 0.72329 0.0
H846 H 0.45239 0.53517 0.82764 0.0
H847 H 0.47322 0.50824 0.79634 0.0
C848 C 0.20881 0.64953 0.24285 0.0
C849 C 0.21213 0.64937 0.21779 0.0
C850 C 0.21259 0.6725 0.25571 0.0
C851 C 0.1937 0.73749 0.24201 0.0
H852 H 0.21441 0.75266 0.30782 0.0
C853 C 0.14899 0.82831 0.28766 0.0
C854 C 0.14187 0.82668 0.31204 0.0
C855 C 0.16492 0.80871 0.27665 0.0
C856 C 0.20818 0.74863 0.28949 0.0
H857 H 0.22691 0.67159 0.18726 0.0
H858 H 0.23334 0.71169 0.20961 0.0
H859 H 0.23374 0.71395 0.28846 0.0
H860 H 0.14603 0.80387 0.34425 0.0
H861 H 0.17202 0.76844 0.32478 0.0
H862 H 0.16625 0.77039 0.24323 0.0
C863 C 0.2273 0.69431 0.21927 0.0
C864 C 0.21964 0.72664 0.27835 0.0
C865 C 0.2237 0.67138 0.2065 0.0
C866 C 0.15102 0.80521 0.32531 0.0
C867 C 0.16632 0.78519 0.31417 0.0
C868 C 0.18179 0.75902 0.25323 0.0
C869 C 0.21966 0.6955 0.24362 0.0
C870 C 0.21219 0.7207 0.25458 0.0
C871 C 0.17348 0.78663 0.28962 0.0
C872 C 0.18842 0.76476 0.27727 0.0
H873 H 0.19999 0.63288 0.2521 0.0
H874 H 0.20669 0.67281 0.27451 0.0
H875 H 0.18693 0.73313 0.22385 0.0
H876 H 0.14293 0.84516 0.27731 0.0
H877 H 0.17068 0.81108 0.25796 0.0
C878 C 0.77298 0.09406 0.19198 0.0
C879 C 0.78708 0.10631 0.17269 0.0
C880 C 0.74545 0.10219 0.19944 0.0
C881 C 0.6994 0.16005 0.1993 0.0
H882 H 0.64258 0.11308 0.22667 0.0
C883 C 0.5843 0.15816 0.25721 0.0
C884 C 0.59245 0.17557 0.27533 0.0
C885 C 0.6037 0.15212 0.2387 0.0
C886 C 0.65787 0.12652 0.21868 0.0
H887 H 0.78232 0.13558 0.14514 0.0
H888 H 0.73435 0.14977 0.15819 0.0
H889 H 0.6845 0.09584 0.20538 0.0
H890 H 0.62595 0.20198 0.28716 0.0
H891 H 0.65981 0.19159 0.255 0.0
H892 H 0.67302 0.19072 0.213 0.0
C893 C 0.74485 0.13421 0.16783 0.0
C894 C 0.68214 0.11659 0.20676 0.0
C895 C 0.77237 0.12607 0.16036 0.0
C896 C 0.61921 0.1885 0.27339 0.0
C897 C 0.63854 0.18257 0.2549 0.0
C898 C 0.67513 0.16998 0.21124 0.0
C899 C 0.7313 0.12272 0.18777 0.0
C900 C 0.7036 0.13321 0.1975 0.0
C901 C 0.63153 0.16348 0.23792 0.0
C902 C 0.65448 0.15332 0.22165 0.0
H903 H 0.78371 0.079 0.20207 0.0
H904 H 0.73585 0.09312 0.21507 0.0
H905 H 0.71557 0.17343 0.19252 0.0
H906 H 0.56392 0.14773 0.25834 0.0
H907 H 0.59747 0.13762 0.22569 0.0
C908 C 0.3105 0.64323 0.27025 0.0
C909 C 0.3063 0.64564 0.29513 0.0
C910 C 0.30872 0.66498 0.25542 0.0
C911 C 0.33218 0.7296 0.26408 0.0
H912 H 0.31322 0.7406 0.19721 0.0
C913 C 0.38219 0.81509 0.21318 0.0
C914 C 0.38926 0.81164 0.18898 0.0
C915 C 0.36541 0.79676 0.22527 0.0
C916 C 0.31899 0.7377 0.21582 0.0
H917 H 0.29188 0.67141 0.32321 0.0
H918 H 0.28919 0.70941 0.29744 0.0
H919 H 0.29095 0.70457 0.21901 0.0
H920 H 0.38412 0.78701 0.1581 0.0
H921 H 0.35652 0.75367 0.17954 0.0
H922 H 0.362 0.76082 0.26087 0.0
C923 C 0.29425 0.69089 0.28944 0.0
C924 C 0.30584 0.71728 0.22835 0.0
C925 C 0.29577 0.66916 0.30418 0.0
C926 C 0.37922 0.78966 0.17693 0.0
C927 C 0.36301 0.77088 0.18917 0.0
C928 C 0.34576 0.74952 0.25153 0.0
C929 C 0.30283 0.68934 0.26532 0.0
C930 C 0.31253 0.71295 0.25257 0.0
C931 C 0.35587 0.77415 0.21358 0.0
C932 C 0.33967 0.75376 0.22712 0.0
H933 H 0.31853 0.62538 0.26267 0.0
H934 H 0.31531 0.66321 0.23684 0.0
H935 H 0.33843 0.72631 0.28255 0.0
H936 H 0.38901 0.83241 0.22251 0.0
H937 H 0.35971 0.80055 0.24376 0.0
C938 C 0.77839 0.42005 0.14181 0.0
C939 C 0.7657 0.44182 0.15257 0.0
C940 C 0.80448 0.40997 0.15054 0.0
C941 C 0.86539 0.42255 0.1934 0.0
H942 H 0.86152 0.34844 0.20299 0.0
C943 C 0.90074 0.34805 0.27018 0.0
C944 C 0.92822 0.35799 0.27608 0.0
C945 C 0.88724 0.355 0.24876 0.0
C946 C 0.86307 0.36913 0.20034 0.0
H947 H 0.77117 0.47088 0.18008 0.0
H948 H 0.81631 0.45318 0.19563 0.0
H949 H 0.82592 0.36943 0.17743 0.0
H950 H 0.96422 0.38131 0.2633 0.0
H951 H 0.94086 0.39316 0.22551 0.0
H952 H 0.90116 0.42247 0.21782 0.0
C953 C 0.80651 0.44406 0.18016 0.0
C954 C 0.84283 0.38118 0.18543 0.0
C955 C 0.78053 0.45424 0.17128 0.0
C956 C 0.94307 0.37326 0.25918 0.0
C957 C 0.92953 0.38029 0.23768 0.0
C958 C 0.88553 0.41051 0.20845 0.0
C959 C 0.81835 0.42133 0.17036 0.0
C960 C 0.84308 0.40818 0.18247 0.0
C961 C 0.90096 0.37208 0.23269 0.0
C962 C 0.88391 0.38378 0.21281 0.0
H963 H 0.76765 0.41035 0.12707 0.0
H964 H 0.81327 0.39278 0.14223 0.0
H965 H 0.86658 0.4433 0.19114 0.0
H966 H 0.88896 0.33613 0.28287 0.0
H967 H 0.86518 0.34843 0.2457 0.0
C968 C 0.86097 0.23093 0.66904 0.0
C969 C 0.89055 0.22466 0.6661 0.0
C970 C 0.85239 0.25006 0.68524 0.0
C971 C 0.87937 0.30633 0.71956 0.0
H972 H 0.81606 0.29016 0.7631 0.0
C973 C 0.84059 0.33991 0.81835 0.0
C974 C 0.84306 0.36686 0.8162 0.0
C975 C 0.84113 0.32416 0.79804 0.0
C976 C 0.83368 0.29501 0.751 0.0
H977 H 0.93425 0.23419 0.67789 0.0
H978 H 0.9193 0.26764 0.70586 0.0
H979 H 0.82866 0.25983 0.73124 0.0
H980 H 0.84655 0.39854 0.79098 0.0
H981 H 0.84734 0.371 0.75534 0.0
H982 H 0.88503 0.34109 0.73978 0.0
C983 C 0.90276 0.25782 0.69547 0.0
C984 C 0.84077 0.27773 0.73264 0.0
C985 C 0.91134 0.23858 0.67937 0.0
C986 C 0.84436 0.37786 0.79318 0.0
C987 C 0.84516 0.36207 0.77282 0.0
C988 C 0.87215 0.32368 0.73781 0.0
C989 C 0.87317 0.26358 0.6988 0.0
C990 C 0.86406 0.28296 0.71699 0.0
C991 C 0.84438 0.335 0.77508 0.0
C992 C 0.84957 0.31801 0.75401 0.0
H993 H 0.84431 0.22109 0.65884 0.0
H994 H 0.82945 0.25431 0.68713 0.0
H995 H 0.89721 0.31106 0.70764 0.0
H996 H 0.83949 0.33097 0.83589 0.0
H997 H 0.84065 0.3034 0.80047 0.0
C998 C 0.3572 0.92598 0.71903 0.0
C999 C 0.35737 0.93711 0.69605 0.0
C1000 C 0.33471 0.93113 0.73508 0.0
C1001 C 0.2742 0.97582 0.74848 0.0
H1002 H 0.24498 0.91708 0.78442 0.0
C1003 C 0.16694 0.97625 0.80396 0.0
C1004 C 0.16654 0.96189 0.82538 0.0
C1005 C 0.19144 0.97598 0.78905 0.0
C1006 C 0.25313 0.93379 0.77482 0.0
H1007 H 0.33434 0.96293 0.6721 0.0
H1008 H 0.29458 0.97168 0.70017 0.0
H1009 H 0.2847 0.91117 0.75628 0.0
H1010 H 0.19229 0.93739 0.84869 0.0
H1011 H 0.23502 0.93724 0.82292 0.0
H1012 H 0.24214 0.99833 0.76698 0.0
C1013 C 0.31212 0.95914 0.70579 0.0
C1014 C 0.27592 0.93039 0.75863 0.0
C1015 C 0.33479 0.95403 0.68967 0.0
C1016 C 0.19174 0.94847 0.83222 0.0
C1017 C 0.21618 0.94824 0.81736 0.0
C1018 C 0.25126 0.97922 0.76472 0.0
C1019 C 0.31164 0.94743 0.72857 0.0
C1020 C 0.2869 0.95136 0.74537 0.0
C1021 C 0.21603 0.96135 0.79527 0.0
C1022 C 0.24061 0.95825 0.77818 0.0
H1023 H 0.37441 0.91309 0.72467 0.0
H1024 H 0.33538 0.92223 0.75265 0.0
H1025 H 0.2823 0.9924 0.73867 0.0
H1026 H 0.1479 0.98682 0.79816 0.0
H1027 H 0.19058 0.98622 0.77213 0.0
C1028 C 0.60924 0.24188 0.83318 0.0
C1029 C 0.62992 0.22789 0.84644 0.0
C1030 C 0.61796 0.26129 0.81724 0.0
C1031 C 0.68034 0.28157 0.78047 0.0
H1032 H 0.63572 0.34445 0.77266 0.0
C1033 C 0.6762 0.38127 0.71912 0.0
C1034 C 0.67799 0.37012 0.69621 0.0
C1035 C 0.67543 0.36564 0.73962 0.0
C1036 C 0.64871 0.32719 0.77482 0.0
H1037 H 0.67609 0.2244 0.85393 0.0
H1038 H 0.6912 0.25798 0.82594 0.0
H1039 H 0.62344 0.31447 0.80489 0.0
H1040 H 0.68254 0.33414 0.67689 0.0
H1041 H 0.68135 0.30685 0.71254 0.0
H1042 H 0.70529 0.29411 0.75012 0.0
C1043 C 0.66824 0.25364 0.82769 0.0
C1044 C 0.64143 0.30985 0.79312 0.0
C1045 C 0.65953 0.23432 0.84372 0.0
C1046 C 0.68102 0.3432 0.69433 0.0
C1047 C 0.68048 0.32761 0.71478 0.0
C1048 C 0.68751 0.29884 0.76207 0.0
C1049 C 0.64759 0.26718 0.81408 0.0
C1050 C 0.65685 0.28664 0.79592 0.0
C1051 C 0.67671 0.33858 0.73762 0.0
C1052 C 0.67148 0.32167 0.75879 0.0
H1053 H 0.58632 0.23736 0.8345 0.0
H1054 H 0.6015 0.27111 0.80679 0.0
H1055 H 0.69254 0.26379 0.78203 0.0
H1056 H 0.67359 0.40192 0.72113 0.0
H1057 H 0.67286 0.37468 0.75699 0.0
C1058 C 0.31985 0.57619 0.82486 0.0
C1059 C 0.33057 0.55585 0.83904 0.0
C1060 C 0.30372 0.57107 0.80427 0.0
C1061 C 0.25472 0.52871 0.77467 0.0
H1062 H 0.28768 0.55598 0.71578 0.0
C1063 C 0.19111 0.52408 0.68557 0.0
C1064 C 0.19172 0.54685 0.67183 0.0
C1065 C 0.21072 0.52057 0.70446 0.0
C1066 C 0.27803 0.54838 0.73203 0.0
H1067 H 0.33146 0.51422 0.84332 0.0
H1068 H 0.30209 0.50536 0.80742 0.0
H1069 H 0.31511 0.55911 0.75306 0.0
H1070 H 0.21421 0.5833 0.66652 0.0
H1071 H 0.24765 0.57757 0.69959 0.0
H1072 H 0.21684 0.51946 0.75415 0.0
C1073 C 0.30681 0.52519 0.81228 0.0
C1074 C 0.29385 0.55002 0.75331 0.0
C1075 C 0.32352 0.53028 0.83276 0.0
C1076 C 0.21318 0.56547 0.67667 0.0
C1077 C 0.23255 0.56208 0.69564 0.0
C1078 C 0.2386 0.52745 0.75342 0.0
C1079 C 0.29746 0.54558 0.79761 0.0
C1080 C 0.28208 0.5407 0.77485 0.0
C1081 C 0.23122 0.53984 0.71012 0.0
C1082 C 0.24979 0.53786 0.73193 0.0
H1083 H 0.32487 0.59612 0.8291 0.0
H1084 H 0.29645 0.58708 0.79329 0.0
H1085 H 0.24523 0.52152 0.79116 0.0
H1086 H 0.17492 0.50929 0.68222 0.0
H1087 H 0.2094 0.50299 0.71493 0.0
C1088 C 0.05494 0.5649 0.09677 0.0
C1089 C 0.08365 0.57027 0.08951 0.0
C1090 C 0.03571 0.55184 0.08151 0.0
C1091 C 0.02411 0.53429 0.01761 0.0
H1092 H 0.9741 0.48093 0.04394 0.0
C1093 C 0.96238 0.46212 0.95721 0.0
C1094 C 0.93376 0.45527 0.96359 0.0
C1095 C 0.97972 0.47677 0.9727 0.0
C1096 C 0.98764 0.49598 0.03632 0.0
H1097 H 0.11424 0.56653 0.06012 0.0
H1098 H 0.081 0.54347 0.03376 0.0
H1099 H 1.00577 0.5056 0.07054 0.0
H1100 H 0.90118 0.45843 0.99154 0.0
H1101 H 0.93131 0.48427 0.01844 0.0
H1102 H 1.00614 0.52458 0.98338 0.0
C1103 C 0.07322 0.54952 0.0512 0.0
C1104 C 1.00582 0.51016 0.05159 0.0
C1105 C 0.09244 0.56252 0.06646 0.0
C1106 C 0.923 0.46348 0.98593 0.0
C1107 C 0.9404 0.4781 1.00148 0.0
C1108 C 1.00596 0.52011 1.00235 0.0
C1109 C 0.04463 0.54387 0.05855 0.0
C1110 C 0.02446 0.52939 0.04242 0.0
C1111 C 0.96899 0.485 0.99503 0.0
C1112 C 0.98763 0.50063 0.01146 0.0
H1113 H 0.04742 0.57031 0.11444 0.0
H1114 H 0.01377 0.54807 0.08769 0.0
H1115 H 0.03774 0.54925 0.00995 0.0
H1116 H 0.97135 0.45649 0.94007 0.0
H1117 H 1.00172 0.48143 0.96723 0.0
C1118 C 0.09016 0.97511 0.95496 0.0
C1119 C 0.07943 0.97175 0.93155 0.0
C1120 C 0.07416 0.98893 0.97203 0.0
C1121 C 0.99908 1.01007 0.98561 0.0
H1122 H 0.03659 0.05753 0.0296 0.0
C1123 C 0.93339 0.08045 0.04442 0.0
C1124 C 0.9428 0.08514 0.06801 0.0
C1125 C 0.95038 0.06607 0.02854 0.0
C1126 C 0.02581 0.04409 0.01767 0.0
H1127 H 0.04363 0.9808 0.90768 0.0
H1128 H 0.01595 1.005 0.93731 0.0
H1129 H 0.06582 0.03404 1.00031 0.0
H1130 H 0.97771 0.07815 0.0933 0.0
H1131 H 1.00719 0.05264 0.06568 0.0
H1132 H 0.95911 0.02005 1.00287 0.0
C1133 C 0.03654 0.99664 0.94261 0.0
C1134 C 0.04258 0.03064 1.00084 0.0
C1135 C 0.05254 0.98289 0.92555 0.0
C1136 C 0.96964 0.0748 0.07535 0.0
C1137 C 0.98671 0.06039 0.05941 0.0
C1138 C 0.98235 0.02346 1.00242 0.0
C1139 C 0.047 0.99966 0.96614 0.0
C1140 C 0.02939 1.01362 0.98446 0.0
C1141 C 0.9773 0.05588 0.03577 0.0
C1142 C 0.99543 0.04082 0.01856 0.0
H1143 H 0.11076 0.96677 0.96023 0.0
H1144 H 0.08277 0.99069 0.99002 0.0
H1145 H 0.98825 0.99672 0.97362 0.0
H1146 H 0.91273 0.08777 0.03816 0.0
H1147 H 0.94256 0.06327 0.01042 0.0
C1148 C 0.43372 0.94829 0.04792 0.0
C1149 C 0.43561 0.94816 0.07311 0.0
C1150 C 0.45013 0.96572 0.03421 0.0
C1151 C 0.49071 0.02767 0.03826 0.0
H1152 H 0.52753 1.00425 0.97964 0.0
C1153 C 0.57589 0.09002 0.98877 0.0
C1154 C 0.57524 0.0907 0.96356 0.0
C1155 C 0.55868 0.07249 1.00158 0.0
C1156 C 0.51712 1.01123 0.9958 0.0
H1157 H 0.45669 0.96648 0.10347 0.0
H1158 H 0.48511 0.99681 0.07967 0.0
H1159 H 0.49771 0.97435 1.00298 0.0
H1160 H 0.55586 0.0731 0.93213 0.0
H1161 H 0.52573 0.0425 0.95449 0.0
H1162 H 0.51007 0.06451 0.03113 0.0
C1163 C 0.4706 0.98362 0.07049 0.0
C1164 C 0.49999 0.99405 0.00921 0.0
C1165 C 0.45422 0.96617 0.0842 0.0
C1166 C 0.55717 0.073 0.9515 0.0
C1167 C 0.53987 0.05543 0.96435 0.0
C1168 C 0.50779 0.04483 0.02485 0.0
C1169 C 0.46888 0.98358 0.0453 0.0
C1170 C 0.48667 1.002 0.0307 0.0
C1171 C 0.54022 0.05508 0.9896 0.0
C1172 C 0.5214 0.03683 1.0035 0.0
H1173 H 0.41934 0.93505 0.03871 0.0
H1174 H 0.44785 0.96538 0.0149 0.0
H1175 H 0.48038 0.03464 0.05445 0.0
H1176 H 0.58995 0.10291 0.99871 0.0
H1177 H 0.56008 0.07243 0.02096 0.0
C1178 C 0.43601 0.53854 0.93377 0.0
C1179 C 0.41677 0.55676 0.94359 0.0
C1180 C 0.45467 0.5244 0.94852 0.0
C1181 C 0.4689 0.50444 0.01129 0.0
H1182 H 0.54846 0.49953 0.98873 0.0
C1183 C 0.56479 0.47012 0.07135 0.0
C1184 C 0.58693 0.4556 0.0604 0.0
C1185 C 0.54227 0.48073 0.05762 0.0
C1186 C 0.52627 0.50033 0.99519 0.0
H1187 H 0.40129 0.5736 0.9768 0.0
H1188 H 0.43406 0.54896 1.00258 0.0
H1189 H 0.51224 0.52079 0.96401 0.0
H1190 H 0.60178 0.43962 0.02669 0.0
H1191 H 0.56248 0.45774 1.00284 0.0
H1192 H 0.48315 0.48402 0.04261 0.0
C1193 C 0.43456 0.54554 0.98343 0.0
C1194 C 0.50546 0.51257 0.98098 0.0
C1195 C 0.41583 0.55973 0.96864 0.0
C1196 C 0.58541 0.45114 0.03559 0.0
C1197 C 0.56287 0.4616 0.02192 0.0
C1198 C 0.48979 0.49209 0.02554 0.0
C1199 C 0.45463 0.5281 0.97348 0.0
C1200 C 0.47649 0.51474 0.98879 0.0
C1201 C 0.54131 0.47697 0.03265 0.0
C1202 C 0.51875 0.48982 0.01762 0.0
H1203 H 0.43718 0.53555 0.91458 0.0
H1204 H 0.46942 0.51075 0.94029 0.0
H1205 H 0.44673 0.50561 0.01776 0.0
H1206 H 0.56545 0.47412 0.09038 0.0
H1207 H 0.5262 0.49264 0.06648 0.0
C1208 C 0.08691 0.9529 0.45837 0.0
C1209 C 0.08565 0.95349 0.43315 0.0
C1210 C 0.0697 0.96949 0.47219 0.0
C1211 C 1.00338 1.01022 0.46915 0.0
H1212 H 0.03495 0.04157 0.52665 0.0
C1213 C 0.944 0.09221 0.51951 0.0
C1214 C 0.94451 0.09214 0.54474 0.0
C1215 C 0.96081 0.07474 0.50636 0.0
C1216 C 0.02565 0.03273 0.51081 0.0
H1217 H 0.06494 0.97222 0.40287 0.0
H1218 H 0.03547 1.00142 0.42689 0.0
H1219 H 0.06517 1.0127 0.50278 0.0
H1220 H 0.9633 0.07339 0.57582 0.0
H1221 H 0.9924 0.04267 0.55287 0.0
H1222 H 0.96392 0.03036 0.4771 0.0
C1223 C 0.04955 0.98787 0.43601 0.0
C1224 C 0.04301 0.01615 0.49708 0.0
C1225 C 0.06677 0.97128 0.42218 0.0
C1226 C 0.96217 0.07392 0.55646 0.0
C1227 C 0.97911 0.05647 0.54327 0.0
C1228 C 0.98605 0.02682 0.48285 0.0
C1229 C 0.05071 0.98717 0.46123 0.0
C1230 C 0.03216 1.00473 0.476 0.0
C1231 C 0.97869 0.05668 0.51803 0.0
C1232 C 0.99697 0.03839 0.50382 0.0
H1233 H 0.10136 0.93974 0.46754 0.0
H1234 H 0.07103 0.96817 0.49154 0.0
H1235 H 0.99405 1.00144 0.4533 0.0
H1236 H 0.93045 0.10569 0.50982 0.0
H1237 H 0.96012 0.0757 0.48698 0.0
C1238 C 0.50923 0.13311 0.46138 0.0
C1239 C 0.52256 0.12161 0.44138 0.0
C1240 C 0.49801 0.1179 0.48002 0.0
C1241 C 0.5019 0.0518 0.50615 0.0
H1242 H 0.42963 0.0713 0.537 0.0
C1243 C 0.44197 0.9837 0.57193 0.0
C1244 C 0.43096 0.99474 0.5931 0.0
C1245 C 0.45248 0.99932 0.55334 0.0
C1246 C 0.44997 0.0657 0.52872 0.0
H1247 H 0.53387 0.08494 0.42515 0.0
H1248 H 0.5142 0.05851 0.45739 0.0
H1249 H 0.44951 0.09825 0.50501 0.0
H1250 H 0.4219 0.031 0.61103 0.0
H1251 H 0.44017 0.05822 0.57857 0.0
H1252 H 0.50221 0.01915 0.52973 0.0
C1253 C 0.51298 0.07932 0.45902 0.0
C1254 C 0.46143 0.0812 0.51039 0.0
C1255 C 0.52431 0.09451 0.44047 0.0
C1256 C 0.43019 0.02182 0.59499 0.0
C1257 C 0.44056 0.03745 0.57632 0.0
C1258 C 0.49037 0.03626 0.52438 0.0
C1259 C 0.49968 0.09077 0.47908 0.0
C1260 C 0.48755 0.07445 0.49883 0.0
C1261 C 0.45212 0.0264 0.55537 0.0
C1262 C 0.46425 0.04298 0.53589 0.0
H1263 H 0.50779 0.15391 0.46278 0.0
H1264 H 0.48834 0.12746 0.49532 0.0
H1265 H 0.52232 0.04619 0.49802 0.0
H1266 H 0.44288 0.96292 0.56982 0.0
H1267 H 0.46085 0.99017 0.53732 0.0
C1268 C 0.59638 0.47744 0.53612 0.0
C1269 C 0.58635 0.45474 0.54735 0.0
C1270 C 0.57823 0.49158 0.52084 0.0
C1271 C 0.51027 0.48631 0.48492 0.0
H1272 H 0.51153 0.56112 0.48789 0.0
C1273 C 0.4218 0.54867 0.43991 0.0
C1274 C 0.43073 0.57111 0.42767 0.0
C1275 C 0.44138 0.53475 0.45406 0.0
C1276 C 0.51112 0.54025 0.48664 0.0
H1277 H 0.54929 0.42895 0.55063 0.0
H1278 H 0.51757 0.45382 0.52459 0.0
H1279 H 0.5446 0.53622 0.51304 0.0
H1280 H 0.46733 0.59665 0.42119 0.0
H1281 H 0.50158 0.57224 0.44579 0.0
H1282 H 0.47659 0.49036 0.45871 0.0
C1283 C 0.53961 0.46059 0.52737 0.0
C1284 C 0.53014 0.52594 0.50105 0.0
C1285 C 0.55776 0.44645 0.54261 0.0
C1286 C 0.45975 0.57937 0.43018 0.0
C1287 C 0.47932 0.56549 0.44447 0.0
C1288 C 0.49121 0.50061 0.47059 0.0
C1289 C 0.54953 0.48343 0.51635 0.0
C1290 C 0.52987 0.49875 0.50048 0.0
C1291 C 0.47042 0.5429 0.45647 0.0
C1292 C 0.49126 0.52776 0.47135 0.0
H1293 H 0.61811 0.48462 0.53942 0.0
H1294 H 0.58678 0.50888 0.51246 0.0
H1295 H 0.50979 0.46545 0.48362 0.0
H1296 H 0.39978 0.54151 0.43822 0.0
H1297 H 0.43367 0.51762 0.46326 0.0
C1298 C 1.0087 0.39214 0.45872 0.0
C1299 C 0.98714 0.40276 0.44372 0.0
C1300 C 0.02336 0.40747 0.47547 0.0
C1301 C 0.0185 0.46749 0.51037 0.0
H1302 H 0.10268 0.46383 0.51162 0.0
C1303 C 0.0874 0.53944 0.56587 0.0
C1304 C 0.11302 0.53037 0.57668 0.0
C1305 C 0.07189 0.52392 0.54978 0.0
C1306 C 0.07917 0.46486 0.51186 0.0
H1307 H 0.96392 0.4383 0.43558 0.0
H1308 H 0.98903 0.46457 0.46504 0.0
H1309 H 0.07544 0.43626 0.48428 0.0
H1310 H 0.14224 0.4977 0.57925 0.0
H1311 H 0.11482 0.47035 0.55189 0.0
H1312 H 0.02202 0.49563 0.53826 0.0
C1313 C 0.99457 0.4443 0.46363 0.0
C1314 C 0.06357 0.44908 0.49608 0.0
C1315 C 0.98011 0.42907 0.44666 0.0
C1316 C 0.12273 0.50538 0.57108 0.0
C1317 C 0.10703 0.48973 0.55523 0.0
C1318 C 0.03407 0.48306 0.52638 0.0
C1319 C 0.01664 0.43376 0.47798 0.0
C1320 C 0.03307 0.45026 0.4951 0.0
C1321 C 0.08138 0.49877 0.54431 0.0
C1322 C 0.06467 0.48205 0.52732 0.0
H1323 H 0.01453 0.37199 0.45757 0.0
H1324 H 0.03997 0.3987 0.48655 0.0
H1325 H 0.99498 0.46864 0.51018 0.0
H1326 H 0.07941 0.55867 0.56969 0.0
H1327 H 0.0526 0.53182 0.54145 0.0
loop_
_geom_bond_atom_site_label_1
_geom_bond_atom_site_label_2
_geom_bond_distance
_geom_bond_site_symmetry_2
_ccdc_geom_bond_type
Cu0 N1 1.999 . S
Cu0 O6 1.974 . S
Cu0 N11 1.985 . S
Cu0 O20 1.959 . S
N1 Cu0 1.999 . S
N1 C3 1.263 . S
N1 C5 1.389 . S
N2 C3 1.358 . S
N2 C4 1.400 . S
C3 N1 1.263 . S
C3 N2 1.358 . S
C3 H9 0.930 . S
C4 N2 1.400 . S
C4 C5 1.351 . S
C4 H21 0.930 . S
C5 N1 1.389 . S
C5 C4 1.351 . S
C5 H10 0.930 . S
O6 Cu0 1.974 . S
O6 C16 1.282 . S
C7 O8 1.261 . S
C7 O20 1.251 . S
O8 C7 1.261 . S
H9 C3 0.930 . S
H10 C5 0.930 . S
N11 Cu0 1.985 . S
N11 C13 1.335 . S
N11 C14 1.390 . S
N12 C13 1.345 . S
N12 C15 1.336 . S
C13 N11 1.335 . S
C13 N12 1.345 . S
C13 H18 0.930 . S
C14 N11 1.390 . S
C14 C15 1.346 . S
C14 H19 0.930 . S
C15 N12 1.336 . S
C15 C14 1.346 . S
C15 H22 0.929 . S
C16 O6 1.282 . S
C16 O17 1.216 . S
O17 C16 1.216 . S
H18 C13 0.930 . S
H19 C14 0.930 . S
O20 Cu0 1.959 . S
O20 C7 1.251 . S
H21 C4 0.930 . S
H22 C15 0.929 . S
Cu23 N24 1.999 . S
Cu23 O29 1.974 . S
Cu23 N34 1.985 . S
Cu23 O43 1.959 . S
N24 Cu23 1.999 . S
N24 C26 1.263 . S
N24 C28 1.389 . S
N25 C26 1.358 . S
N25 C27 1.400 . S
C26 N24 1.263 . S
C26 N25 1.358 . S
C26 H32 0.930 . S
C27 N25 1.400 . S
C27 C28 1.351 . S
C27 H44 0.930 . S
C28 N24 1.389 . S
C28 C27 1.351 . S
C28 H33 0.930 . S
O29 Cu23 1.974 . S
O29 C39 1.282 . S
C30 O31 1.261 . S
C30 O43 1.251 . S
O31 C30 1.261 . S
H32 C26 0.930 . S
H33 C28 0.930 . S
N34 Cu23 1.985 . S
N34 C36 1.335 . S
N34 C37 1.390 . S
N35 C36 1.345 . S
N35 C38 1.336 . S
C36 N34 1.335 . S
C36 N35 1.345 . S
C36 H41 0.930 . S
C37 N34 1.390 . S
C37 C38 1.346 . S
C37 H42 0.930 . S
C38 N35 1.336 . S
C38 C37 1.346 . S
C38 H45 0.929 . S
C39 O29 1.282 . S
C39 O40 1.216 . S
O40 C39 1.216 . S
H41 C36 0.930 . S
H42 C37 0.930 . S
O43 Cu23 1.959 . S
O43 C30 1.251 . S
H44 C27 0.930 . S
H45 C38 0.929 . S
Cu46 N47 1.999 . S
Cu46 O52 1.974 . S
Cu46 N57 1.985 . S
Cu46 O66 1.959 . S
N47 Cu46 1.999 . S
N47 C49 1.263 . S
N47 C51 1.389 . S
N48 C49 1.358 . S
N48 C50 1.400 . S
C49 N47 1.263 . S
C49 N48 1.358 . S
C49 H55 0.930 . S
C50 N48 1.400 . S
C50 C51 1.351 . S
C50 H67 0.930 . S
C51 N47 1.389 . S
C51 C50 1.351 . S
C51 H56 0.930 . S
O52 Cu46 1.974 . S
O52 C62 1.282 . S
C53 O54 1.261 . S
C53 O66 1.251 . S
O54 C53 1.261 . S
H55 C49 0.930 . S
H56 C51 0.930 . S
N57 Cu46 1.985 . S
N57 C59 1.335 . S
N57 C60 1.390 . S
N58 C59 1.345 . S
N58 C61 1.336 . S
C59 N57 1.335 . S
C59 N58 1.345 . S
C59 H64 0.930 . S
C60 N57 1.390 . S
C60 C61 1.346 . S
C60 H65 0.930 . S
C61 N58 1.336 . S
C61 C60 1.346 . S
C61 H68 0.929 . S
C62 O52 1.282 . S
C62 O63 1.216 . S
O63 C62 1.216 . S
H64 C59 0.930 . S
H65 C60 0.930 . S
O66 Cu46 1.959 . S
O66 C53 1.251 . S
H67 C50 0.930 . S
H68 C61 0.929 . S
Cu69 N70 1.999 . S
Cu69 O75 1.974 . S
Cu69 N80 1.985 . S
Cu69 O89 1.959 . S
N70 Cu69 1.999 . S
N70 C72 1.263 . S
N70 C74 1.389 . S
N71 C72 1.358 . S
N71 C73 1.400 . S
C72 N70 1.263 . S
C72 N71 1.358 . S
C72 H78 0.930 . S
C73 N71 1.400 . S
C73 C74 1.351 . S
C73 H90 0.930 . S
C74 N70 1.389 . S
C74 C73 1.351 . S
C74 H79 0.930 . S
O75 Cu69 1.974 . S
O75 C85 1.282 . S
C76 O77 1.261 . S
C76 O89 1.251 . S
O77 C76 1.261 . S
H78 C72 0.930 . S
H79 C74 0.930 . S
N80 Cu69 1.985 . S
N80 C82 1.335 . S
N80 C83 1.390 . S
N81 C82 1.345 . S
N81 C84 1.336 . S
C82 N80 1.335 . S
C82 N81 1.345 . S
C82 H87 0.930 . S
C83 N80 1.390 . S
C83 C84 1.346 . S
C83 H88 0.930 . S
C84 N81 1.336 . S
C84 C83 1.346 . S
C84 H91 0.929 . S
C85 O75 1.282 . S
C85 O86 1.216 . S
O86 C85 1.216 . S
H87 C82 0.930 . S
H88 C83 0.930 . S
O89 Cu69 1.959 . S
O89 C76 1.251 . S
H90 C73 0.930 . S
H91 C84 0.929 . S
Cu92 N93 1.999 . S
Cu92 O98 1.974 . S
Cu92 N103 1.985 . S
Cu92 O112 1.959 . S
N93 Cu92 1.999 . S
N93 C95 1.263 . S
N93 C97 1.389 . S
N94 C95 1.358 . S
N94 C96 1.400 . S
C95 N93 1.263 . S
C95 N94 1.358 . S
C95 H101 0.930 . S
C96 N94 1.400 . S
C96 C97 1.351 . S
C96 H113 0.930 . S
C97 N93 1.389 . S
C97 C96 1.351 . S
C97 H102 0.930 . S
O98 Cu92 1.974 . S
O98 C108 1.282 . S
C99 O100 1.261 . S
C99 O112 1.251 . S
O100 C99 1.261 . S
H101 C95 0.930 . S
H102 C97 0.930 . S
N103 Cu92 1.985 . S
N103 C105 1.335 . S
N103 C106 1.390 . S
N104 C105 1.345 . S
N104 C107 1.336 . S
C105 N103 1.335 . S
C105 N104 1.345 . S
C105 H110 0.930 . S
C106 N103 1.390 . S
C106 C107 1.346 . S
C106 H111 0.930 . S
C107 N104 1.336 . S
C107 C106 1.346 . S
C107 H114 0.929 . S
C108 O98 1.282 . S
C108 O109 1.216 . S
O109 C108 1.216 . S
H110 C105 0.930 . S
H111 C106 0.930 . S
O112 Cu92 1.959 . S
O112 C99 1.251 . S
H113 C96 0.930 . S
H114 C107 0.929 . S
Cu115 N116 1.999 . S
Cu115 O121 1.974 . S
Cu115 N126 1.985 . S
Cu115 O135 1.959 . S
N116 Cu115 1.999 . S
N116 C118 1.263 . S
N116 C120 1.389 . S
N117 C118 1.358 . S
N117 C119 1.400 . S
C118 N116 1.263 . S
C118 N117 1.358 . S
C118 H124 0.930 . S
C119 N117 1.400 . S
C119 C120 1.351 . S
C119 H136 0.930 . S
C120 N116 1.389 . S
C120 C119 1.351 . S
C120 H125 0.930 . S
O121 Cu115 1.974 . S
O121 C131 1.282 . S
C122 O123 1.261 . S
C122 O135 1.251 . S
O123 C122 1.261 . S
H124 C118 0.930 . S
H125 C120 0.930 . S
N126 Cu115 1.985 . S
N126 C128 1.335 . S
N126 C129 1.390 . S
N127 C128 1.345 . S
N127 C130 1.336 . S
C128 N126 1.335 . S
C128 N127 1.345 . S
C128 H133 0.930 . S
C129 N126 1.390 . S
C129 C130 1.346 . S
C129 H134 0.930 . S
C130 N127 1.336 . S
C130 C129 1.346 . S
C130 H137 0.929 . S
C131 O121 1.282 . S
C131 O132 1.216 . S
O132 C131 1.216 . S
H133 C128 0.930 . S
H134 C129 0.930 . S
O135 Cu115 1.959 . S
O135 C122 1.251 . S
H136 C119 0.930 . S
H137 C130 0.929 . S
Cu138 N139 1.999 . S
Cu138 O144 1.974 . S
Cu138 N149 1.985 . S
Cu138 O158 1.959 . S
N139 Cu138 1.999 . S
N139 C141 1.263 . S
N139 C143 1.389 . S
N140 C141 1.358 . S
N140 C142 1.400 . S
C141 N139 1.263 . S
C141 N140 1.358 . S
C141 H147 0.930 . S
C142 N140 1.400 . S
C142 C143 1.351 . S
C142 H159 0.930 . S
C143 N139 1.389 . S
C143 C142 1.351 . S
C143 H148 0.930 . S
O144 Cu138 1.974 . S
O144 C154 1.282 . S
C145 O146 1.261 . S
C145 O158 1.251 . S
O146 C145 1.261 . S
H147 C141 0.930 . S
H148 C143 0.930 . S
N149 Cu138 1.985 . S
N149 C151 1.335 . S
N149 C152 1.390 . S
N150 C151 1.345 . S
N150 C153 1.336 . S
C151 N149 1.335 . S
C151 N150 1.345 . S
C151 H156 0.930 . S
C152 N149 1.390 . S
C152 C153 1.346 . S
C152 H157 0.930 . S
C153 N150 1.336 . S
C153 C152 1.346 . S
C153 H160 0.929 . S
C154 O144 1.282 . S
C154 O155 1.216 . S
O155 C154 1.216 . S
H156 C151 0.930 . S
H157 C152 0.930 . S
O158 Cu138 1.959 . S
O158 C145 1.251 . S
H159 C142 0.930 . S
H160 C153 0.929 . S
Cu161 N162 1.999 . S
Cu161 O167 1.974 . S
Cu161 N172 1.985 . S
Cu161 O181 1.959 . S
N162 Cu161 1.999 . S
N162 C164 1.263 . S
N162 C166 1.389 . S
N163 C164 1.358 . S
N163 C165 1.400 . S
C164 N162 1.263 . S
C164 N163 1.358 . S
C164 H170 0.930 . S
C165 N163 1.400 . S
C165 C166 1.351 . S
C165 H182 0.930 . S
C166 N162 1.389 . S
C166 C165 1.351 . S
C166 H171 0.930 . S
O167 Cu161 1.974 . S
O167 C177 1.282 . S
C168 O169 1.261 . S
C168 O181 1.251 . S
O169 C168 1.261 . S
H170 C164 0.930 . S
H171 C166 0.930 . S
N172 Cu161 1.985 . S
N172 C174 1.335 . S
N172 C175 1.390 . S
N173 C174 1.345 . S
N173 C176 1.336 . S
C174 N172 1.335 . S
C174 N173 1.345 . S
C174 H179 0.930 . S
C175 N172 1.390 . S
C175 C176 1.346 . S
C175 H180 0.930 . S
C176 N173 1.336 . S
C176 C175 1.346 . S
C176 H183 0.929 . S
C177 O167 1.282 . S
C177 O178 1.216 . S
O178 C177 1.216 . S
H179 C174 0.930 . S
H180 C175 0.930 . S
O181 Cu161 1.959 . S
O181 C168 1.251 . S
H182 C165 0.930 . S
H183 C176 0.929 . S
Cu184 N185 1.999 . S
Cu184 O190 1.974 . S
Cu184 N195 1.985 . S
Cu184 O204 1.959 . S
N185 Cu184 1.999 . S
N185 C187 1.263 . S
N185 C189 1.389 . S
N186 C187 1.358 . S
N186 C188 1.400 . S
C187 N185 1.263 . S
C187 N186 1.358 . S
C187 H193 0.930 . S
C188 N186 1.400 . S
C188 C189 1.351 . S
C188 H205 0.930 . S
C189 N185 1.389 . S
C189 C188 1.351 . S
C189 H194 0.930 . S
O190 Cu184 1.974 . S
O190 C200 1.282 . S
C191 O192 1.261 . S
C191 O204 1.251 . S
O192 C191 1.261 . S
H193 C187 0.930 . S
H194 C189 0.930 . S
N195 Cu184 1.985 . S
N195 C197 1.335 . S
N195 C198 1.390 . S
N196 C197 1.345 . S
N196 C199 1.336 . S
C197 N195 1.335 . S
C197 N196 1.345 . S
C197 H202 0.930 . S
C198 N195 1.390 . S
C198 C199 1.346 . S
C198 H203 0.930 . S
C199 N196 1.336 . S
C199 C198 1.346 . S
C199 H206 0.929 . S
C200 O190 1.282 . S
C200 O201 1.216 . S
O201 C200 1.216 . S
H202 C197 0.930 . S
H203 C198 0.930 . S
O204 Cu184 1.959 . S
O204 C191 1.251 . S
H205 C188 0.930 . S
H206 C199 0.929 . S
Cu207 N208 1.999 . S
Cu207 O213 1.974 . S
Cu207 N218 1.985 . S
Cu207 O227 1.959 . S
N208 Cu207 1.999 . S
N208 C210 1.263 . S
N208 C212 1.389 . S
N209 C210 1.358 . S
N209 C211 1.400 . S
C210 N208 1.263 . S
C210 N209 1.358 . S
C210 H216 0.930 . S
C211 N209 1.400 . S
C211 C212 1.351 . S
C211 H228 0.930 . S
C212 N208 1.389 . S
C212 C211 1.351 . S
C212 H217 0.930 . S
O213 Cu207 1.974 . S
O213 C223 1.282 . S
C214 O215 1.261 . S
C214 O227 1.251 . S
O215 C214 1.261 . S
H216 C210 0.930 . S
H217 C212 0.930 . S
N218 Cu207 1.985 . S
N218 C220 1.335 . S
N218 C221 1.390 . S
N219 C220 1.345 . S
N219 C222 1.336 . S
C220 N218 1.335 . S
C220 N219 1.345 . S
C220 H225 0.930 . S
C221 N218 1.390 . S
C221 C222 1.346 . S
C221 H226 0.930 . S
C222 N219 1.336 . S
C222 C221 1.346 . S
C222 H229 0.929 . S
C223 O213 1.282 . S
C223 O224 1.216 . S
O224 C223 1.216 . S
H225 C220 0.930 . S
H226 C221 0.930 . S
O227 Cu207 1.959 . S
O227 C214 1.251 . S
H228 C211 0.930 . S
H229 C222 0.929 . S
Cu230 N231 1.999 . S
Cu230 O236 1.974 . S
Cu230 N241 1.985 . S
Cu230 O250 1.959 . S
N231 Cu230 1.999 . S
N231 C233 1.263 . S
N231 C235 1.389 . S
N232 C233 1.358 . S
N232 C234 1.400 . S
C233 N231 1.263 . S
C233 N232 1.358 . S
C233 H239 0.930 . S
C234 N232 1.400 . S
C234 C235 1.351 . S
C234 H251 0.930 . S
C235 N231 1.389 . S
C235 C234 1.351 . S
C235 H240 0.930 . S
O236 Cu230 1.974 . S
O236 C246 1.282 . S
C237 O238 1.261 . S
C237 O250 1.251 . S
O238 C237 1.261 . S
H239 C233 0.930 . S
H240 C235 0.930 . S
N241 Cu230 1.985 . S
N241 C243 1.335 . S
N241 C244 1.390 . S
N242 C243 1.345 . S
N242 C245 1.336 . S
C243 N241 1.335 . S
C243 N242 1.345 . S
C243 H248 0.930 . S
C244 N241 1.390 . S
C244 C245 1.346 . S
C244 H249 0.930 . S
C245 N242 1.336 . S
C245 C244 1.346 . S
C245 H252 0.929 . S
C246 O236 1.282 . S
C246 O247 1.216 . S
O247 C246 1.216 . S
H248 C243 0.930 . S
H249 C244 0.930 . S
O250 Cu230 1.959 . S
O250 C237 1.251 . S
H251 C234 0.930 . S
H252 C245 0.929 . S
Cu253 N254 1.999 . S
Cu253 O259 1.974 . S
Cu253 N264 1.985 . S
Cu253 O273 1.959 . S
N254 Cu253 1.999 . S
N254 C256 1.263 . S
N254 C258 1.389 . S
N255 C256 1.358 . S
N255 C257 1.400 . S
C256 N254 1.263 . S
C256 N255 1.358 . S
C256 H262 0.930 . S
C257 N255 1.400 . S
C257 C258 1.351 . S
C257 H274 0.930 . S
C258 N254 1.389 . S
C258 C257 1.351 . S
C258 H263 0.930 . S
O259 Cu253 1.974 . S
O259 C269 1.282 . S
C260 O261 1.261 . S
C260 O273 1.251 . S
O261 C260 1.261 . S
H262 C256 0.930 . S
H263 C258 0.930 . S
N264 Cu253 1.985 . S
N264 C266 1.335 . S
N264 C267 1.390 . S
N265 C266 1.345 . S
N265 C268 1.336 . S
C266 N264 1.335 . S
C266 N265 1.345 . S
C266 H271 0.930 . S
C267 N264 1.390 . S
C267 C268 1.346 . S
C267 H272 0.930 . S
C268 N265 1.336 . S
C268 C267 1.346 . S
C268 H275 0.929 . S
C269 O259 1.282 . S
C269 O270 1.216 . S
O270 C269 1.216 . S
H271 C266 0.930 . S
H272 C267 0.930 . S
O273 Cu253 1.959 . S
O273 C260 1.251 . S
H274 C257 0.930 . S
H275 C268 0.929 . S
Cu276 N277 1.999 . S
Cu276 O282 1.974 . S
Cu276 N287 1.985 . S
Cu276 O296 1.959 . S
N277 Cu276 1.999 . S
N277 C279 1.263 . S
N277 C281 1.389 . S
N278 C279 1.358 . S
N278 C280 1.400 . S
C279 N277 1.263 . S
C279 N278 1.358 . S
C279 H285 0.930 . S
C280 N278 1.400 . S
C280 C281 1.351 . S
C280 H297 0.930 . S
C281 N277 1.389 . S
C281 C280 1.351 . S
C281 H286 0.930 . S
O282 Cu276 1.974 . S
O282 C292 1.282 . S
C283 O284 1.261 . S
C283 O296 1.251 . S
O284 C283 1.261 . S
H285 C279 0.930 . S
H286 C281 0.930 . S
N287 Cu276 1.985 . S
N287 C289 1.335 . S
N287 C290 1.390 . S
N288 C289 1.345 . S
N288 C291 1.336 . S
C289 N287 1.335 . S
C289 N288 1.345 . S
C289 H294 0.930 . S
C290 N287 1.390 . S
C290 C291 1.346 . S
C290 H295 0.930 . S
C291 N288 1.336 . S
C291 C290 1.346 . S
C291 H298 0.929 . S
C292 O282 1.282 . S
C292 O293 1.216 . S
O293 C292 1.216 . S
H294 C289 0.930 . S
H295 C290 0.930 . S
O296 Cu276 1.959 . S
O296 C283 1.251 . S
H297 C280 0.930 . S
H298 C291 0.929 . S
Cu299 N300 1.999 . S
Cu299 O305 1.974 . S
Cu299 N310 1.985 . S
Cu299 O319 1.959 . S
N300 Cu299 1.999 . S
N300 C302 1.263 . S
N300 C304 1.389 . S
N301 C302 1.358 . S
N301 C303 1.400 . S
C302 N300 1.263 . S
C302 N301 1.358 . S
C302 H308 0.930 . S
C303 N301 1.400 . S
C303 C304 1.351 . S
C303 H320 0.930 . S
C304 N300 1.389 . S
C304 C303 1.351 . S
C304 H309 0.930 . S
O305 Cu299 1.974 . S
O305 C315 1.282 . S
C306 O307 1.261 . S
C306 O319 1.251 . S
O307 C306 1.261 . S
H308 C302 0.930 . S
H309 C304 0.930 . S
N310 Cu299 1.985 . S
N310 C312 1.335 . S
N310 C313 1.390 . S
N311 C312 1.345 . S
N311 C314 1.336 . S
C312 N310 1.335 . S
C312 N311 1.345 . S
C312 H317 0.930 . S
C313 N310 1.390 . S
C313 C314 1.346 . S
C313 H318 0.930 . S
C314 N311 1.336 . S
C314 C313 1.346 . S
C314 H321 0.929 . S
C315 O305 1.282 . S
C315 O316 1.216 . S
O316 C315 1.216 . S
H317 C312 0.930 . S
H318 C313 0.930 . S
O319 Cu299 1.959 . S
O319 C306 1.251 . S
H320 C303 0.930 . S
H321 C314 0.929 . S
Cu322 N323 1.999 . S
Cu322 O328 1.974 . S
Cu322 N333 1.985 . S
Cu322 O342 1.959 . S
N323 Cu322 1.999 . S
N323 C325 1.263 . S
N323 C327 1.389 . S
N324 C325 1.358 . S
N324 C326 1.400 . S
C325 N323 1.263 . S
C325 N324 1.358 . S
C325 H331 0.930 . S
C326 N324 1.400 . S
C326 C327 1.351 . S
C326 H343 0.930 . S
C327 N323 1.389 . S
C327 C326 1.351 . S
C327 H332 0.930 . S
O328 Cu322 1.974 . S
O328 C338 1.282 . S
C329 O330 1.261 . S
C329 O342 1.251 . S
O330 C329 1.261 . S
H331 C325 0.930 . S
H332 C327 0.930 . S
N333 Cu322 1.985 . S
N333 C335 1.335 . S
N333 C336 1.390 . S
N334 C335 1.345 . S
N334 C337 1.336 . S
C335 N333 1.335 . S
C335 N334 1.345 . S
C335 H340 0.930 . S
C336 N333 1.390 . S
C336 C337 1.346 . S
C336 H341 0.930 . S
C337 N334 1.336 . S
C337 C336 1.346 . S
C337 H344 0.929 . S
C338 O328 1.282 . S
C338 O339 1.216 . S
O339 C338 1.216 . S
H340 C335 0.930 . S
H341 C336 0.930 . S
O342 Cu322 1.959 . S
O342 C329 1.251 . S
H343 C326 0.930 . S
H344 C337 0.929 . S
Cu345 N346 1.999 . S
Cu345 O351 1.974 . S
Cu345 N356 1.985 . S
Cu345 O365 1.959 . S
N346 Cu345 1.999 . S
N346 C348 1.263 . S
N346 C350 1.389 . S
N347 C348 1.358 . S
N347 C349 1.400 . S
C348 N346 1.263 . S
C348 N347 1.358 . S
C348 H354 0.930 . S
C349 N347 1.400 . S
C349 C350 1.351 . S
C349 H366 0.930 . S
C350 N346 1.389 . S
C350 C349 1.351 . S
C350 H355 0.930 . S
O351 Cu345 1.974 . S
O351 C361 1.282 . S
C352 O353 1.261 . S
C352 O365 1.251 . S
O353 C352 1.261 . S
H354 C348 0.930 . S
H355 C350 0.930 . S
N356 Cu345 1.985 . S
N356 C358 1.335 . S
N356 C359 1.390 . S
N357 C358 1.345 . S
N357 C360 1.336 . S
C358 N356 1.335 . S
C358 N357 1.345 . S
C358 H363 0.930 . S
C359 N356 1.390 . S
C359 C360 1.346 . S
C359 H364 0.930 . S
C360 N357 1.336 . S
C360 C359 1.346 . S
C360 H367 0.929 . S
C361 O351 1.282 . S
C361 O362 1.216 . S
O362 C361 1.216 . S
H363 C358 0.930 . S
H364 C359 0.930 . S
O365 Cu345 1.959 . S
O365 C352 1.251 . S
H366 C349 0.930 . S
H367 C360 0.929 . S
C368 C369 1.349 . S
C368 C370 1.327 . S
C368 H393 0.950 . S
C369 C368 1.349 . S
C369 C385 1.349 . S
C370 C368 1.327 . S
C370 C389 1.429 . S
C370 H394 0.950 . S
C371 C388 1.574 . S
C371 C390 1.368 . S
C371 H395 0.949 . S
H372 C376 0.949 . S
C373 C374 1.349 . S
C373 C375 1.327 . S
C373 H396 0.950 . S
C374 C373 1.349 . S
C374 C386 1.349 . S
C375 C373 1.327 . S
C375 C391 1.429 . S
C375 H397 0.950 . S
C376 H372 0.949 . S
C376 C384 1.574 . S
C376 C392 1.368 . S
H377 C385 0.950 . S
H378 C383 0.950 . S
H379 C384 0.949 . S
H380 C386 0.950 . S
H381 C387 0.950 . S
H382 C388 0.949 . S
C383 H378 0.950 . S
C383 C385 1.327 . S
C383 C389 1.429 . S
C384 C376 1.574 . S
C384 H379 0.949 . S
C384 C390 1.368 . S
C385 C369 1.349 . S
C385 H377 0.950 . S
C385 C383 1.327 . S
C386 C374 1.349 . S
C386 H380 0.950 . S
C386 C387 1.327 . S
C387 H381 0.950 . S
C387 C386 1.327 . S
C387 C391 1.429 . S
C388 C371 1.574 . S
C388 H382 0.949 . S
C388 C392 1.368 . S
C389 C370 1.429 . S
C389 C383 1.429 . S
C389 C390 1.523 . S
C390 C371 1.368 . S
C390 C384 1.368 . S
C390 C389 1.523 . S
C391 C375 1.429 . S
C391 C387 1.429 . S
C391 C392 1.523 . S
C392 C376 1.368 . S
C392 C388 1.368 . S
C392 C391 1.523 . S
H393 C368 0.950 . S
H394 C370 0.950 . S
H395 C371 0.949 . S
H396 C373 0.950 . S
H397 C375 0.950 . S
C398 C399 1.349 . S
C398 C400 1.327 . S
C398 H423 0.950 . S
C399 C398 1.349 . S
C399 C415 1.349 . S
C400 C398 1.327 . S
C400 C419 1.429 . S
C400 H424 0.950 . S
C401 C418 1.574 . S
C401 C420 1.368 . S
C401 H425 0.949 . S
H402 C406 0.949 . S
C403 C404 1.349 . S
C403 C405 1.327 . S
C403 H426 0.950 . S
C404 C403 1.349 . S
C404 C416 1.349 . S
C405 C403 1.327 . S
C405 C421 1.429 . S
C405 H427 0.950 . S
C406 H402 0.949 . S
C406 C414 1.574 . S
C406 C422 1.368 . S
H407 C415 0.950 . S
H408 C413 0.950 . S
H409 C414 0.949 . S
H410 C416 0.950 . S
H411 C417 0.950 . S
H412 C418 0.949 . S
C413 H408 0.950 . S
C413 C415 1.327 . S
C413 C419 1.429 . S
C414 C406 1.574 . S
C414 H409 0.949 . S
C414 C420 1.368 . S
C415 C399 1.349 . S
C415 H407 0.950 . S
C415 C413 1.327 . S
C416 C404 1.349 . S
C416 H410 0.950 . S
C416 C417 1.327 . S
C417 H411 0.950 . S
C417 C416 1.327 . S
C417 C421 1.429 . S
C418 C401 1.574 . S
C418 H412 0.949 . S
C418 C422 1.368 . S
C419 C400 1.429 . S
C419 C413 1.429 . S
C419 C420 1.523 . S
C420 C401 1.368 . S
C420 C414 1.368 . S
C420 C419 1.523 . S
C421 C405 1.429 . S
C421 C417 1.429 . S
C421 C422 1.523 . S
C422 C406 1.368 . S
C422 C418 1.368 . S
C422 C421 1.523 . S
H423 C398 0.950 . S
H424 C400 0.950 . S
H425 C401 0.949 . S
H426 C403 0.950 . S
H427 C405 0.950 . S
C428 C429 1.349 . S
C428 C430 1.327 . S
C428 H453 0.950 . S
C429 C428 1.349 . S
C429 C445 1.349 . S
C430 C428 1.327 . S
C430 C449 1.429 . S
C430 H454 0.950 . S
C431 C448 1.574 . S
C431 C450 1.368 . S
C431 H455 0.949 . S
H432 C436 0.949 . S
C433 C434 1.349 . S
C433 C435 1.327 . S
C433 H456 0.950 . S
C434 C433 1.349 . S
C434 C446 1.349 . S
C435 C433 1.327 . S
C435 C451 1.429 . S
C435 H457 0.950 . S
C436 H432 0.949 . S
C436 C444 1.574 . S
C436 C452 1.368 . S
H437 C445 0.950 . S
H438 C443 0.950 . S
H439 C444 0.949 . S
H440 C446 0.950 . S
H441 C447 0.950 . S
H442 C448 0.949 . S
C443 H438 0.950 . S
C443 C445 1.327 . S
C443 C449 1.429 . S
C444 C436 1.574 . S
C444 H439 0.949 . S
C444 C450 1.368 . S
C445 C429 1.349 . S
C445 H437 0.950 . S
C445 C443 1.327 . S
C446 C434 1.349 . S
C446 H440 0.950 . S
C446 C447 1.327 . S
C447 H441 0.950 . S
C447 C446 1.327 . S
C447 C451 1.429 . S
C448 C431 1.574 . S
C448 H442 0.949 . S
C448 C452 1.368 . S
C449 C430 1.429 . S
C449 C443 1.429 . S
C449 C450 1.523 . S
C450 C431 1.368 . S
C450 C444 1.368 . S
C450 C449 1.523 . S
C451 C435 1.429 . S
C451 C447 1.429 . S
C451 C452 1.523 . S
C452 C436 1.368 . S
C452 C448 1.368 . S
C452 C451 1.523 . S
H453 C428 0.950 . S
H454 C430 0.950 . S
H455 C431 0.949 . S
H456 C433 0.950 . S
H457 C435 0.950 . S
C458 C459 1.349 . S
C458 C460 1.327 . S
C458 H483 0.950 . S
C459 C458 1.349 . S
C459 C475 1.349 . S
C460 C458 1.327 . S
C460 C479 1.429 . S
C460 H484 0.950 . S
C461 C478 1.574 . S
C461 C480 1.368 . S
C461 H485 0.949 . S
H462 C466 0.949 . S
C463 C464 1.349 . S
C463 C465 1.327 . S
C463 H486 0.950 . S
C464 C463 1.349 . S
C464 C476 1.349 . S
C465 C463 1.327 . S
C465 C481 1.429 . S
C465 H487 0.950 . S
C466 H462 0.949 . S
C466 C474 1.574 . S
C466 C482 1.368 . S
H467 C475 0.950 . S
H468 C473 0.950 . S
H469 C474 0.949 . S
H470 C476 0.950 . S
H471 C477 0.950 . S
H472 C478 0.949 . S
C473 H468 0.950 . S
C473 C475 1.327 . S
C473 C479 1.429 . S
C474 C466 1.574 . S
C474 H469 0.949 . S
C474 C480 1.368 . S
C475 C459 1.349 . S
C475 H467 0.950 . S
C475 C473 1.327 . S
C476 C464 1.349 . S
C476 H470 0.950 . S
C476 C477 1.327 . S
C477 H471 0.950 . S
C477 C476 1.327 . S
C477 C481 1.429 . S
C478 C461 1.574 . S
C478 H472 0.949 . S
C478 C482 1.368 . S
C479 C460 1.429 . S
C479 C473 1.429 . S
C479 C480 1.523 . S
C480 C461 1.368 . S
C480 C474 1.368 . S
C480 C479 1.523 . S
C481 C465 1.429 . S
C481 C477 1.429 . S
C481 C482 1.523 . S
C482 C466 1.368 . S
C482 C478 1.368 . S
C482 C481 1.523 . S
H483 C458 0.950 . S
H484 C460 0.950 . S
H485 C461 0.949 . S
H486 C463 0.950 . S
H487 C465 0.950 . S
C488 C489 1.349 . S
C488 C490 1.327 . S
C488 H513 0.950 . S
C489 C488 1.349 . S
C489 C505 1.349 . S
C490 C488 1.327 . S
C490 C509 1.429 . S
C490 H514 0.950 . S
C491 C508 1.574 . S
C491 C510 1.368 . S
C491 H515 0.949 . S
H492 C496 0.949 . S
C493 C494 1.349 . S
C493 C495 1.327 . S
C493 H516 0.950 . S
C494 C493 1.349 . S
C494 C506 1.349 . S
C495 C493 1.327 . S
C495 C511 1.429 . S
C495 H517 0.950 . S
C496 H492 0.949 . S
C496 C504 1.574 . S
C496 C512 1.368 . S
H497 C505 0.950 . S
H498 C503 0.950 . S
H499 C504 0.949 . S
H500 C506 0.950 . S
H501 C507 0.950 . S
H502 C508 0.949 . S
C503 H498 0.950 . S
C503 C505 1.327 . S
C503 C509 1.429 . S
C504 C496 1.574 . S
C504 H499 0.949 . S
C504 C510 1.368 . S
C505 C489 1.349 . S
C505 H497 0.950 . S
C505 C503 1.327 . S
C506 C494 1.349 . S
C506 H500 0.950 . S
C506 C507 1.327 . S
C507 H501 0.950 . S
C507 C506 1.327 . S
C507 C511 1.429 . S
C508 C491 1.574 . S
C508 H502 0.949 . S
C508 C512 1.368 . S
C509 C490 1.429 . S
C509 C503 1.429 . S
C509 C510 1.523 . S
C510 C491 1.368 . S
C510 C504 1.368 . S
C510 C509 1.523 . S
C511 C495 1.429 . S
C511 C507 1.429 . S
C511 C512 1.523 . S
C512 C496 1.368 . S
C512 C508 1.368 . S
C512 C511 1.523 . S
H513 C488 0.950 . S
H514 C490 0.950 . S
H515 C491 0.949 . S
H516 C493 0.950 . S
H517 C495 0.950 . S
C518 C519 1.349 . S
C518 C520 1.327 . S
C518 H543 0.950 . S
C519 C518 1.349 . S
C519 C535 1.349 . S
C520 C518 1.327 . S
C520 C539 1.429 . S
C520 H544 0.950 . S
C521 C538 1.574 . S
C521 C540 1.368 . S
C521 H545 0.949 . S
H522 C526 0.949 . S
C523 C524 1.349 . S
C523 C525 1.327 . S
C523 H546 0.950 . S
C524 C523 1.349 . S
C524 C536 1.349 . S
C525 C523 1.327 . S
C525 C541 1.429 . S
C525 H547 0.950 . S
C526 H522 0.949 . S
C526 C534 1.574 . S
C526 C542 1.368 . S
H527 C535 0.950 . S
H528 C533 0.950 . S
H529 C534 0.949 . S
H530 C536 0.950 . S
H531 C537 0.950 . S
H532 C538 0.949 . S
C533 H528 0.950 . S
C533 C535 1.327 . S
C533 C539 1.429 . S
C534 C526 1.574 . S
C534 H529 0.949 . S
C534 C540 1.368 . S
C535 C519 1.349 . S
C535 H527 0.950 . S
C535 C533 1.327 . S
C536 C524 1.349 . S
C536 H530 0.950 . S
C536 C537 1.327 . S
C537 H531 0.950 . S
C537 C536 1.327 . S
C537 C541 1.429 . S
C538 C521 1.574 . S
C538 H532 0.949 . S
C538 C542 1.368 . S
C539 C520 1.429 . S
C539 C533 1.429 . S
C539 C540 1.523 . S
C540 C521 1.368 . S
C540 C534 1.368 . S
C540 C539 1.523 . S
C541 C525 1.429 . S
C541 C537 1.429 . S
C541 C542 1.523 . S
C542 C526 1.368 . S
C542 C538 1.368 . S
C542 C541 1.523 . S
H543 C518 0.950 . S
H544 C520 0.950 . S
H545 C521 0.949 . S
H546 C523 0.950 . S
H547 C525 0.950 . S
C548 C549 1.349 . S
C548 C550 1.327 . S
C548 H573 0.950 . S
C549 C548 1.349 . S
C549 C565 1.349 . S
C550 C548 1.327 . S
C550 C569 1.429 . S
C550 H574 0.950 . S
C551 C568 1.574 . S
C551 C570 1.368 . S
C551 H575 0.949 . S
H552 C556 0.949 . S
C553 C554 1.349 . S
C553 C555 1.327 . S
C553 H576 0.950 . S
C554 C553 1.349 . S
C554 C566 1.349 . S
C555 C553 1.327 . S
C555 C571 1.429 . S
C555 H577 0.950 . S
C556 H552 0.949 . S
C556 C564 1.574 . S
C556 C572 1.368 . S
H557 C565 0.950 . S
H558 C563 0.950 . S
H559 C564 0.949 . S
H560 C566 0.950 . S
H561 C567 0.950 . S
H562 C568 0.949 . S
C563 H558 0.950 . S
C563 C565 1.327 . S
C563 C569 1.429 . S
C564 C556 1.574 . S
C564 H559 0.949 . S
C564 C570 1.368 . S
C565 C549 1.349 . S
C565 H557 0.950 . S
C565 C563 1.327 . S
C566 C554 1.349 . S
C566 H560 0.950 . S
C566 C567 1.327 . S
C567 H561 0.950 . S
C567 C566 1.327 . S
C567 C571 1.429 . S
C568 C551 1.574 . S
C568 H562 0.949 . S
C568 C572 1.368 . S
C569 C550 1.429 . S
C569 C563 1.429 . S
C569 C570 1.523 . S
C570 C551 1.368 . S
C570 C564 1.368 . S
C570 C569 1.523 . S
C571 C555 1.429 . S
C571 C567 1.429 . S
C571 C572 1.523 . S
C572 C556 1.368 . S
C572 C568 1.368 . S
C572 C571 1.523 . S
H573 C548 0.950 . S
H574 C550 0.950 . S
H575 C551 0.949 . S
H576 C553 0.950 . S
H577 C555 0.950 . S
C578 C579 1.349 . S
C578 C580 1.327 . S
C578 H603 0.950 . S
C579 C578 1.349 . S
C579 C595 1.349 . S
C580 C578 1.327 . S
C580 C599 1.429 . S
C580 H604 0.950 . S
C581 C598 1.574 . S
C581 C600 1.368 . S
C581 H605 0.949 . S
H582 C586 0.949 . S
C583 C584 1.349 . S
C583 C585 1.327 . S
C583 H606 0.950 . S
C584 C583 1.349 . S
C584 C596 1.349 . S
C585 C583 1.327 . S
C585 C601 1.429 . S
C585 H607 0.950 . S
C586 H582 0.949 . S
C586 C594 1.574 . S
C586 C602 1.368 . S
H587 C595 0.950 . S
H588 C593 0.950 . S
H589 C594 0.949 . S
H590 C596 0.950 . S
H591 C597 0.950 . S
H592 C598 0.949 . S
C593 H588 0.950 . S
C593 C595 1.327 . S
C593 C599 1.429 . S
C594 C586 1.574 . S
C594 H589 0.949 . S
C594 C600 1.368 . S
C595 C579 1.349 . S
C595 H587 0.950 . S
C595 C593 1.327 . S
C596 C584 1.349 . S
C596 H590 0.950 . S
C596 C597 1.327 . S
C597 H591 0.950 . S
C597 C596 1.327 . S
C597 C601 1.429 . S
C598 C581 1.574 . S
C598 H592 0.949 . S
C598 C602 1.368 . S
C599 C580 1.429 . S
C599 C593 1.429 . S
C599 C600 1.523 . S
C600 C581 1.368 . S
C600 C594 1.368 . S
C600 C599 1.523 . S
C601 C585 1.429 . S
C601 C597 1.429 . S
C601 C602 1.523 . S
C602 C586 1.368 . S
C602 C598 1.368 . S
C602 C601 1.523 . S
H603 C578 0.950 . S
H604 C580 0.950 . S
H605 C581 0.949 . S
H606 C583 0.950 . S
H607 C585 0.950 . S
C608 C609 1.349 . S
C608 C610 1.327 1_655 S
C608 H633 0.950 . S
C609 C608 1.349 . S
C609 C625 1.349 . S
C610 C608 1.327 1_455 S
C610 C629 1.429 . S
C610 H634 0.950 . S
C611 C628 1.574 . S
C611 C630 1.368 . S
C611 H635 0.949 1_455 S
H612 C616 0.949 . S
C613 C614 1.349 . S
C613 C615 1.327 . S
C613 H636 0.950 . S
C614 C613 1.349 . S
C614 C626 1.349 . S
C615 C613 1.327 . S
C615 C631 1.429 . S
C615 H637 0.950 . S
C616 H612 0.949 . S
C616 C624 1.574 . S
C616 C632 1.368 . S
H617 C625 0.950 . S
H618 C623 0.950 . S
H619 C624 0.949 . S
H620 C626 0.950 . S
H621 C627 0.950 . S
H622 C628 0.949 . S
C623 H618 0.950 . S
C623 C625 1.327 . S
C623 C629 1.429 1_655 S
C624 C616 1.574 . S
C624 H619 0.949 . S
C624 C630 1.368 . S
C625 C609 1.349 . S
C625 H617 0.950 . S
C625 C623 1.327 . S
C626 C614 1.349 . S
C626 H620 0.950 . S
C626 C627 1.327 . S
C627 H621 0.950 . S
C627 C626 1.327 . S
C627 C631 1.429 . S
C628 C611 1.574 . S
C628 H622 0.949 . S
C628 C632 1.368 . S
C629 C610 1.429 . S
C629 C623 1.429 1_455 S
C629 C630 1.523 . S
C630 C611 1.368 . S
C630 C624 1.368 . S
C630 C629 1.523 . S
C631 C615 1.429 . S
C631 C627 1.429 . S
C631 C632 1.523 . S
C632 C616 1.368 . S
C632 C628 1.368 . S
C632 C631 1.523 . S
H633 C608 0.950 . S
H634 C610 0.950 . S
H635 C611 0.949 1_655 S
H636 C613 0.950 . S
H637 C615 0.950 . S
C638 C639 1.349 . S
C638 C640 1.327 1_655 S
C638 H663 0.943 1_655 S
C639 C638 1.349 . S
C639 C655 1.349 . S
C640 C638 1.327 1_455 S
C640 C659 1.429 . S
C640 H664 0.950 . S
C641 C658 1.574 . S
C641 C660 1.368 . S
C641 H665 0.949 1_455 S
H642 C646 0.949 1_565 S
C643 C644 1.349 . S
C643 C645 1.327 . S
C643 H666 0.950 . S
C644 C643 1.349 . S
C644 C656 1.349 . S
C645 C643 1.327 . S
C645 C661 1.429 . S
C645 H667 0.950 1_565 S
C646 H642 0.949 1_545 S
C646 C654 1.574 . S
C646 C662 1.368 . S
H647 C655 0.950 . S
H648 C653 0.950 . S
H649 C654 0.949 . S
H650 C656 0.950 . S
H651 C657 0.950 . S
H652 C658 0.949 . S
C653 H648 0.950 . S
C653 C655 1.327 . S
C653 C659 1.429 1_655 S
C654 C646 1.574 . S
C654 H649 0.949 . S
C654 C660 1.368 . S
C655 C639 1.349 . S
C655 H647 0.950 . S
C655 C653 1.327 . S
C656 C644 1.349 . S
C656 H650 0.950 . S
C656 C657 1.327 . S
C657 H651 0.950 . S
C657 C656 1.327 . S
C657 C661 1.429 . S
C658 C641 1.574 . S
C658 H652 0.949 . S
C658 C662 1.368 . S
C659 C640 1.429 . S
C659 C653 1.429 1_455 S
C659 C660 1.523 . S
C660 C641 1.368 . S
C660 C654 1.368 . S
C660 C659 1.523 . S
C661 C645 1.429 . S
C661 C657 1.429 . S
C661 C662 1.523 1_565 S
C662 C646 1.368 . S
C662 C658 1.368 . S
C662 C661 1.523 1_545 S
H663 C638 0.943 1_455 S
H664 C640 0.950 . S
H665 C641 0.949 1_655 S
H666 C643 0.950 . S
H667 C645 0.950 1_545 S
C668 C669 1.349 . S
C668 C670 1.327 . S
C668 H693 0.950 . S
C669 C668 1.349 . S
C669 C685 1.349 . S
C670 C668 1.327 . S
C670 C689 1.429 . S
C670 H694 0.950 . S
C671 C688 1.574 . S
C671 C690 1.368 . S
C671 H695 0.949 . S
H672 C676 0.949 . S
C673 C674 1.349 . S
C673 C675 1.327 . S
C673 H696 0.950 . S
C674 C673 1.349 . S
C674 C686 1.349 . S
C675 C673 1.327 . S
C675 C691 1.429 . S
C675 H697 0.950 . S
C676 H672 0.949 . S
C676 C684 1.574 . S
C676 C692 1.368 . S
H677 C685 0.950 . S
H678 C683 0.950 . S
H679 C684 0.949 . S
H680 C686 0.950 . S
H681 C687 0.950 . S
H682 C688 0.949 1_565 S
C683 H678 0.950 . S
C683 C685 1.327 . S
C683 C689 1.429 . S
C684 C676 1.574 . S
C684 H679 0.949 . S
C684 C690 1.368 . S
C685 C669 1.349 . S
C685 H677 0.950 . S
C685 C683 1.327 . S
C686 C674 1.349 . S
C686 H680 0.950 . S
C686 C687 1.327 . S
C687 H681 0.950 . S
C687 C686 1.327 . S
C687 C691 1.429 . S
C688 C671 1.574 . S
C688 H682 0.949 1_545 S
C688 C692 1.368 . S
C689 C670 1.429 . S
C689 C683 1.429 . S
C689 C690 1.523 . S
C690 C671 1.368 . S
C690 C684 1.368 . S
C690 C689 1.523 . S
C691 C675 1.429 . S
C691 C687 1.429 . S
C691 C692 1.523 1_565 S
C692 C676 1.368 . S
C692 C688 1.368 . S
C692 C691 1.523 1_545 S
H693 C668 0.950 . S
H694 C670 0.950 . S
H695 C671 0.949 . S
H696 C673 0.950 . S
H697 C675 0.950 . S
C698 C699 1.349 . S
C698 C700 1.327 . S
C698 H723 0.950 . S
C699 C698 1.349 . S
C699 C715 1.349 . S
C700 C698 1.327 . S
C700 C719 1.429 . S
C700 H724 0.950 . S
C701 C718 1.574 . S
C701 C720 1.368 . S
C701 H725 0.949 . S
H702 C706 0.949 . S
C703 C704 1.349 . S
C703 C705 1.327 . S
C703 H726 0.950 . S
C704 C703 1.349 . S
C704 C716 1.349 . S
C705 C703 1.327 . S
C705 C721 1.429 . S
C705 H727 0.950 . S
C706 H702 0.949 . S
C706 C714 1.574 . S
C706 C722 1.368 . S
H707 C715 0.950 . S
H708 C713 0.950 . S
H709 C714 0.949 . S
H710 C716 0.950 . S
H711 C717 0.950 . S
H712 C718 0.949 . S
C713 H708 0.950 . S
C713 C715 1.327 . S
C713 C719 1.429 . S
C714 C706 1.574 . S
C714 H709 0.949 . S
C714 C720 1.368 . S
C715 C699 1.349 . S
C715 H707 0.950 . S
C715 C713 1.327 . S
C716 C704 1.349 . S
C716 H710 0.950 . S
C716 C717 1.327 . S
C717 H711 0.950 . S
C717 C716 1.327 . S
C717 C721 1.429 . S
C718 C701 1.574 . S
C718 H712 0.949 . S
C718 C722 1.368 . S
C719 C700 1.429 . S
C719 C713 1.429 . S
C719 C720 1.523 . S
C720 C701 1.368 . S
C720 C714 1.368 . S
C720 C719 1.523 . S
C721 C705 1.429 . S
C721 C717 1.429 . S
C721 C722 1.523 . S
C722 C706 1.368 . S
C722 C718 1.368 . S
C722 C721 1.523 . S
H723 C698 0.950 . S
H724 C700 0.950 . S
H725 C701 0.949 . S
H726 C703 0.950 . S
H727 C705 0.950 . S
C728 C729 1.349 . S
C728 C730 1.327 . S
C728 H753 0.950 . S
C729 C728 1.349 . S
C729 C745 1.349 . S
C730 C728 1.327 . S
C730 C749 1.429 1_455 S
C730 H754 0.950 . S
C731 C748 1.574 . S
C731 C750 1.368 . S
C731 H755 0.949 . S
H732 C736 0.949 . S
C733 C734 1.349 . S
C733 C735 1.327 . S
C733 H756 0.950 . S
C734 C733 1.349 . S
C734 C746 1.349 . S
C735 C733 1.327 . S
C735 C751 1.429 . S
C735 H757 0.950 . S
C736 H732 0.949 . S
C736 C744 1.574 . S
C736 C752 1.368 . S
H737 C745 0.955 . S
H738 C743 0.950 . S
H739 C744 0.949 . S
H740 C746 0.950 . S
H741 C747 0.950 . S
H742 C748 0.949 . S
C743 H738 0.950 . S
C743 C745 1.327 1_655 S
C743 C749 1.429 . S
C744 C736 1.574 . S
C744 H739 0.949 . S
C744 C750 1.368 . S
C745 C729 1.349 . S
C745 H737 0.955 . S
C745 C743 1.327 1_455 S
C746 C734 1.349 . S
C746 H740 0.950 . S
C746 C747 1.327 . S
C747 H741 0.950 . S
C747 C746 1.327 . S
C747 C751 1.429 . S
C748 C731 1.574 . S
C748 H742 0.949 . S
C748 C752 1.368 . S
C749 C730 1.429 1_655 S
C749 C743 1.429 . S
C749 C750 1.523 . S
C750 C731 1.368 . S
C750 C744 1.368 . S
C750 C749 1.523 . S
C751 C735 1.429 . S
C751 C747 1.429 . S
C751 C752 1.523 . S
C752 C736 1.368 . S
C752 C748 1.368 . S
C752 C751 1.523 . S
H753 C728 0.950 . S
H754 C730 0.950 . S
H755 C731 0.949 . S
H756 C733 0.950 . S
H757 C735 0.950 . S
C758 C759 1.349 . S
C758 C760 1.327 1_455 S
C758 H783 0.950 . S
C759 C758 1.349 . S
C759 C775 1.349 . S
C760 C758 1.327 1_655 S
C760 C779 1.429 . S
C760 H784 0.950 1_565 S
C761 C778 1.574 . S
C761 C780 1.368 . S
C761 H785 0.949 . S
H762 C766 0.949 . S
C763 C764 1.349 . S
C763 C765 1.327 . S
C763 H786 0.950 . S
C764 C763 1.349 . S
C764 C776 1.349 . S
C765 C763 1.327 . S
C765 C781 1.429 . S
C765 H787 0.950 . S
C766 H762 0.949 . S
C766 C774 1.574 . S
C766 C782 1.368 . S
H767 C775 0.950 . S
H768 C773 0.950 . S
H769 C774 0.949 . S
H770 C776 0.950 . S
H771 C777 0.950 . S
H772 C778 0.949 . S
C773 H768 0.950 . S
C773 C775 1.327 . S
C773 C779 1.429 1_455 S
C774 C766 1.574 . S
C774 H769 0.949 . S
C774 C780 1.368 1_545 S
C775 C759 1.349 . S
C775 H767 0.950 . S
C775 C773 1.327 . S
C776 C764 1.349 . S
C776 H770 0.950 . S
C776 C777 1.327 . S
C777 H771 0.950 . S
C777 C776 1.327 . S
C777 C781 1.429 . S
C778 C761 1.574 . S
C778 H772 0.949 . S
C778 C782 1.368 1_565 S
C779 C760 1.429 . S
C779 C773 1.429 1_655 S
C779 C780 1.523 . S
C780 C761 1.368 . S
C780 C774 1.368 1_565 S
C780 C779 1.523 . S
C781 C765 1.429 . S
C781 C777 1.429 . S
C781 C782 1.523 . S
C782 C766 1.368 . S
C782 C778 1.368 1_545 S
C782 C781 1.523 . S
H783 C758 0.950 . S
H784 C760 0.950 1_545 S
H785 C761 0.949 . S
H786 C763 0.950 . S
H787 C765 0.950 . S
C788 C789 1.349 . S
C788 C790 1.327 . S
C788 H813 0.950 . S
C789 C788 1.349 . S
C789 C805 1.349 . S
C790 C788 1.327 . S
C790 C809 1.429 . S
C790 H814 0.950 . S
C791 C808 1.572 1_545 S
C791 C810 1.371 . S
C791 H815 0.948 1_545 S
H792 C796 0.949 . S
C793 C794 1.349 . S
C793 C795 1.327 . S
C793 H816 0.950 . S
C794 C793 1.349 . S
C794 C806 1.349 . S
C795 C793 1.327 . S
C795 C811 1.429 . S
C795 H817 0.950 . S
C796 H792 0.949 . S
C796 C804 1.574 . S
C796 C812 1.368 1_545 S
H797 C805 0.950 . S
H798 C803 0.950 . S
H799 C804 0.949 . S
H800 C806 0.950 . S
H801 C807 0.950 1_545 S
H802 C808 0.949 . S
C803 H798 0.950 . S
C803 C805 1.327 . S
C803 C809 1.429 . S
C804 C796 1.574 . S
C804 H799 0.949 . S
C804 C810 1.368 . S
C805 C789 1.349 . S
C805 H797 0.950 . S
C805 C803 1.327 . S
C806 C794 1.349 . S
C806 H800 0.950 . S
C806 C807 1.327 . S
C807 H801 0.950 1_565 S
C807 C806 1.327 . S
C807 C811 1.429 . S
C808 C791 1.572 1_565 S
C808 H802 0.949 . S
C808 C812 1.368 . S
C809 C790 1.429 . S
C809 C803 1.429 . S
C809 C810 1.523 . S
C810 C791 1.371 . S
C810 C804 1.368 . S
C810 C809 1.523 . S
C811 C795 1.429 . S
C811 C807 1.429 . S
C811 C812 1.523 . S
C812 C796 1.368 1_565 S
C812 C808 1.368 . S
C812 C811 1.523 . S
H813 C788 0.950 . S
H814 C790 0.950 . S
H815 C791 0.948 1_565 S
H816 C793 0.950 . S
H817 C795 0.950 . S
C818 C819 1.349 . S
C818 C820 1.327 . S
C818 H843 0.950 . S
C819 C818 1.349 . S
C819 C835 1.349 . S
C820 C818 1.327 . S
C820 C839 1.429 . S
C820 H844 0.950 . S
C821 C838 1.574 . S
C821 C840 1.368 . S
C821 H845 0.949 . S
H822 C826 0.949 . S
C823 C824 1.349 . S
C823 C825 1.327 . S
C823 H846 0.950 . S
C824 C823 1.349 . S
C824 C836 1.349 . S
C825 C823 1.327 . S
C825 C841 1.429 . S
C825 H847 0.950 . S
C826 H822 0.949 . S
C826 C834 1.574 . S
C826 C842 1.368 . S
H827 C835 0.950 . S
H828 C833 0.950 . S
H829 C834 0.949 . S
H830 C836 0.950 . S
H831 C837 0.950 . S
H832 C838 0.949 . S
C833 H828 0.950 . S
C833 C835 1.327 . S
C833 C839 1.429 . S
C834 C826 1.574 . S
C834 H829 0.949 . S
C834 C840 1.368 . S
C835 C819 1.349 . S
C835 H827 0.950 . S
C835 C833 1.327 . S
C836 C824 1.349 . S
C836 H830 0.950 . S
C836 C837 1.327 . S
C837 H831 0.950 . S
C837 C836 1.327 . S
C837 C841 1.429 . S
C838 C821 1.574 . S
C838 H832 0.949 . S
C838 C842 1.368 . S
C839 C820 1.429 . S
C839 C833 1.429 . S
C839 C840 1.523 . S
C840 C821 1.368 . S
C840 C834 1.368 . S
C840 C839 1.523 . S
C841 C825 1.429 . S
C841 C837 1.429 . S
C841 C842 1.523 . S
C842 C826 1.368 . S
C842 C838 1.368 . S
C842 C841 1.523 . S
H843 C818 0.950 . S
H844 C820 0.950 . S
H845 C821 0.949 . S
H846 C823 0.950 . S
H847 C825 0.950 . S
C848 C849 1.349 . S
C848 C850 1.327 . S
C848 H873 0.950 . S
C849 C848 1.349 . S
C849 C865 1.349 . S
C850 C848 1.327 . S
C850 C869 1.429 . S
C850 H874 0.950 . S
C851 C868 1.574 . S
C851 C870 1.368 . S
C851 H875 0.949 . S
H852 C856 0.949 . S
C853 C854 1.349 . S
C853 C855 1.327 . S
C853 H876 0.950 . S
C854 C853 1.349 . S
C854 C866 1.349 . S
C855 C853 1.327 . S
C855 C871 1.429 . S
C855 H877 0.950 . S
C856 H852 0.949 . S
C856 C864 1.574 . S
C856 C872 1.368 . S
H857 C865 0.950 . S
H858 C863 0.950 . S
H859 C864 0.949 . S
H860 C866 0.950 . S
H861 C867 0.950 . S
H862 C868 0.949 . S
C863 H858 0.950 . S
C863 C865 1.327 . S
C863 C869 1.429 . S
C864 C856 1.574 . S
C864 H859 0.949 . S
C864 C870 1.368 . S
C865 C849 1.349 . S
C865 H857 0.950 . S
C865 C863 1.327 . S
C866 C854 1.349 . S
C866 H860 0.950 . S
C866 C867 1.327 . S
C867 H861 0.950 . S
C867 C866 1.327 . S
C867 C871 1.429 . S
C868 C851 1.574 . S
C868 H862 0.949 . S
C868 C872 1.368 . S
C869 C850 1.429 . S
C869 C863 1.429 . S
C869 C870 1.523 . S
C870 C851 1.368 . S
C870 C864 1.368 . S
C870 C869 1.523 . S
C871 C855 1.429 . S
C871 C867 1.429 . S
C871 C872 1.523 . S
C872 C856 1.368 . S
C872 C868 1.368 . S
C872 C871 1.523 . S
H873 C848 0.950 . S
H874 C850 0.950 . S
H875 C851 0.949 . S
H876 C853 0.950 . S
H877 C855 0.950 . S
C878 C879 1.349 . S
C878 C880 1.327 . S
C878 H903 0.950 . S
C879 C878 1.349 . S
C879 C895 1.349 . S
C880 C878 1.327 . S
C880 C899 1.429 . S
C880 H904 0.950 . S
C881 C898 1.574 . S
C881 C900 1.368 . S
C881 H905 0.949 . S
H882 C886 0.949 . S
C883 C884 1.349 . S
C883 C885 1.327 . S
C883 H906 0.950 . S
C884 C883 1.349 . S
C884 C896 1.349 . S
C885 C883 1.327 . S
C885 C901 1.429 . S
C885 H907 0.950 . S
C886 H882 0.949 . S
C886 C894 1.574 . S
C886 C902 1.368 . S
H887 C895 0.950 . S
H888 C893 0.950 . S
H889 C894 0.949 . S
H890 C896 0.950 . S
H891 C897 0.950 . S
H892 C898 0.949 . S
C893 H888 0.950 . S
C893 C895 1.327 . S
C893 C899 1.429 . S
C894 C886 1.574 . S
C894 H889 0.949 . S
C894 C900 1.368 . S
C895 C879 1.349 . S
C895 H887 0.950 . S
C895 C893 1.327 . S
C896 C884 1.349 . S
C896 H890 0.950 . S
C896 C897 1.327 . S
C897 H891 0.950 . S
C897 C896 1.327 . S
C897 C901 1.429 . S
C898 C881 1.574 . S
C898 H892 0.949 . S
C898 C902 1.368 . S
C899 C880 1.429 . S
C899 C893 1.429 . S
C899 C900 1.523 . S
C900 C881 1.368 . S
C900 C894 1.368 . S
C900 C899 1.523 . S
C901 C885 1.429 . S
C901 C897 1.429 . S
C901 C902 1.523 . S
C902 C886 1.368 . S
C902 C898 1.368 . S
C902 C901 1.523 . S
H903 C878 0.950 . S
H904 C880 0.950 . S
H905 C881 0.949 . S
H906 C883 0.950 . S
H907 C885 0.950 . S
C908 C909 1.349 . S
C908 C910 1.327 . S
C908 H933 0.950 . S
C909 C908 1.349 . S
C909 C925 1.349 . S
C910 C908 1.327 . S
C910 C929 1.429 . S
C910 H934 0.950 . S
C911 C928 1.574 . S
C911 C930 1.368 . S
C911 H935 0.949 . S
H912 C916 0.949 . S
C913 C914 1.349 . S
C913 C915 1.327 . S
C913 H936 0.950 . S
C914 C913 1.349 . S
C914 C926 1.349 . S
C915 C913 1.327 . S
C915 C931 1.429 . S
C915 H937 0.950 . S
C916 H912 0.949 . S
C916 C924 1.574 . S
C916 C932 1.368 . S
H917 C925 0.950 . S
H918 C923 0.950 . S
H919 C924 0.949 . S
H920 C926 0.950 . S
H921 C927 0.950 . S
H922 C928 0.949 . S
C923 H918 0.950 . S
C923 C925 1.327 . S
C923 C929 1.429 . S
C924 C916 1.574 . S
C924 H919 0.949 . S
C924 C930 1.368 . S
C925 C909 1.349 . S
C925 H917 0.950 . S
C925 C923 1.327 . S
C926 C914 1.349 . S
C926 H920 0.950 . S
C926 C927 1.327 . S
C927 H921 0.950 . S
C927 C926 1.327 . S
C927 C931 1.429 . S
C928 C911 1.574 . S
C928 H922 0.949 . S
C928 C932 1.368 . S
C929 C910 1.429 . S
C929 C923 1.429 . S
C929 C930 1.523 . S
C930 C911 1.368 . S
C930 C924 1.368 . S
C930 C929 1.523 . S
C931 C915 1.429 . S
C931 C927 1.429 . S
C931 C932 1.523 . S
C932 C916 1.368 . S
C932 C928 1.368 . S
C932 C931 1.523 . S
H933 C908 0.950 . S
H934 C910 0.950 . S
H935 C911 0.949 . S
H936 C913 0.950 . S
H937 C915 0.950 . S
C938 C939 1.349 . S
C938 C940 1.327 . S
C938 H963 0.950 . S
C939 C938 1.349 . S
C939 C955 1.349 . S
C940 C938 1.327 . S
C940 C959 1.429 . S
C940 H964 0.950 . S
C941 C958 1.574 . S
C941 C960 1.368 . S
C941 H965 0.949 . S
H942 C946 0.949 . S
C943 C944 1.349 . S
C943 C945 1.327 . S
C943 H966 0.950 . S
C944 C943 1.349 . S
C944 C956 1.349 . S
C945 C943 1.327 . S
C945 C961 1.429 . S
C945 H967 0.950 . S
C946 H942 0.949 . S
C946 C954 1.574 . S
C946 C962 1.368 . S
H947 C955 0.950 . S
H948 C953 0.950 . S
H949 C954 0.949 . S
H950 C956 0.950 . S
H951 C957 0.950 . S
H952 C958 0.949 . S
C953 H948 0.950 . S
C953 C955 1.327 . S
C953 C959 1.429 . S
C954 C946 1.574 . S
C954 H949 0.949 . S
C954 C960 1.368 . S
C955 C939 1.349 . S
C955 H947 0.950 . S
C955 C953 1.327 . S
C956 C944 1.349 . S
C956 H950 0.950 . S
C956 C957 1.327 . S
C957 H951 0.950 . S
C957 C956 1.327 . S
C957 C961 1.429 . S
C958 C941 1.574 . S
C958 H952 0.949 . S
C958 C962 1.368 . S
C959 C940 1.429 . S
C959 C953 1.429 . S
C959 C960 1.523 . S
C960 C941 1.368 . S
C960 C954 1.368 . S
C960 C959 1.523 . S
C961 C945 1.429 . S
C961 C957 1.429 . S
C961 C962 1.523 . S
C962 C946 1.368 . S
C962 C958 1.368 . S
C962 C961 1.523 . S
H963 C938 0.950 . S
H964 C940 0.950 . S
H965 C941 0.949 . S
H966 C943 0.950 . S
H967 C945 0.950 . S
C968 C969 1.349 . S
C968 C970 1.327 . S
C968 H993 0.950 . S
C969 C968 1.349 . S
C969 C985 1.349 . S
C970 C968 1.327 . S
C970 C989 1.429 . S
C970 H994 0.950 . S
C971 C988 1.574 . S
C971 C990 1.368 . S
C971 H995 0.949 . S
H972 C976 0.949 . S
C973 C974 1.349 . S
C973 C975 1.327 . S
C973 H996 0.950 . S
C974 C973 1.349 . S
C974 C986 1.349 . S
C975 C973 1.327 . S
C975 C991 1.429 . S
C975 H997 0.950 . S
C976 H972 0.949 . S
C976 C984 1.574 . S
C976 C992 1.368 . S
H977 C985 0.950 . S
H978 C983 0.950 . S
H979 C984 0.949 . S
H980 C986 0.950 . S
H981 C987 0.950 . S
H982 C988 0.949 . S
C983 H978 0.950 . S
C983 C985 1.327 . S
C983 C989 1.429 . S
C984 C976 1.574 . S
C984 H979 0.949 . S
C984 C990 1.368 . S
C985 C969 1.349 . S
C985 H977 0.950 . S
C985 C983 1.327 . S
C986 C974 1.349 . S
C986 H980 0.950 . S
C986 C987 1.327 . S
C987 H981 0.950 . S
C987 C986 1.327 . S
C987 C991 1.429 . S
C988 C971 1.574 . S
C988 H982 0.949 . S
C988 C992 1.368 . S
C989 C970 1.429 . S
C989 C983 1.429 . S
C989 C990 1.523 . S
C990 C971 1.368 . S
C990 C984 1.368 . S
C990 C989 1.523 . S
C991 C975 1.429 . S
C991 C987 1.429 . S
C991 C992 1.523 . S
C992 C976 1.368 . S
C992 C988 1.368 . S
C992 C991 1.523 . S
H993 C968 0.950 . S
H994 C970 0.950 . S
H995 C971 0.949 . S
H996 C973 0.950 . S
H997 C975 0.950 . S
C998 C999 1.349 . S
C998 C1000 1.327 . S
C998 H1023 0.950 . S
C999 C998 1.349 . S
C999 C1015 1.349 . S
C1000 C998 1.327 . S
C1000 C1019 1.429 . S
C1000 H1024 0.950 . S
C1001 C1018 1.574 . S
C1001 C1020 1.368 . S
C1001 H1025 0.949 . S
H1002 C1006 0.949 . S
C1003 C1004 1.349 . S
C1003 C1005 1.327 . S
C1003 H1026 0.950 . S
C1004 C1003 1.349 . S
C1004 C1016 1.349 . S
C1005 C1003 1.327 . S
C1005 C1021 1.429 . S
C1005 H1027 0.950 . S
C1006 H1002 0.949 . S
C1006 C1014 1.574 . S
C1006 C1022 1.368 . S
H1007 C1015 0.950 . S
H1008 C1013 0.950 . S
H1009 C1014 0.949 . S
H1010 C1016 0.950 . S
H1011 C1017 0.950 . S
H1012 C1018 0.949 . S
C1013 H1008 0.950 . S
C1013 C1015 1.327 . S
C1013 C1019 1.429 . S
C1014 C1006 1.574 . S
C1014 H1009 0.949 . S
C1014 C1020 1.368 . S
C1015 C999 1.349 . S
C1015 H1007 0.950 . S
C1015 C1013 1.327 . S
C1016 C1004 1.349 . S
C1016 H1010 0.950 . S
C1016 C1017 1.327 . S
C1017 H1011 0.950 . S
C1017 C1016 1.327 . S
C1017 C1021 1.429 . S
C1018 C1001 1.574 . S
C1018 H1012 0.949 . S
C1018 C1022 1.368 . S
C1019 C1000 1.429 . S
C1019 C1013 1.429 . S
C1019 C1020 1.523 . S
C1020 C1001 1.368 . S
C1020 C1014 1.368 . S
C1020 C1019 1.523 . S
C1021 C1005 1.429 . S
C1021 C1017 1.429 . S
C1021 C1022 1.523 . S
C1022 C1006 1.368 . S
C1022 C1018 1.368 . S
C1022 C1021 1.523 . S
H1023 C998 0.950 . S
H1024 C1000 0.950 . S
H1025 C1001 0.949 . S
H1026 C1003 0.950 . S
H1027 C1005 0.950 . S
C1028 C1029 1.349 . S
C1028 C1030 1.327 . S
C1028 H1053 0.950 . S
C1029 C1028 1.349 . S
C1029 C1045 1.349 . S
C1030 C1028 1.327 . S
C1030 C1049 1.429 . S
C1030 H1054 0.950 . S
C1031 C1048 1.574 . S
C1031 C1050 1.368 . S
C1031 H1055 0.949 . S
H1032 C1036 0.949 . S
C1033 C1034 1.349 . S
C1033 C1035 1.327 . S
C1033 H1056 0.950 . S
C1034 C1033 1.349 . S
C1034 C1046 1.349 . S
C1035 C1033 1.327 . S
C1035 C1051 1.429 . S
C1035 H1057 0.950 . S
C1036 H1032 0.949 . S
C1036 C1044 1.574 . S
C1036 C1052 1.368 . S
H1037 C1045 0.950 . S
H1038 C1043 0.950 . S
H1039 C1044 0.949 . S
H1040 C1046 0.950 . S
H1041 C1047 0.950 . S
H1042 C1048 0.949 . S
C1043 H1038 0.950 . S
C1043 C1045 1.327 . S
C1043 C1049 1.429 . S
C1044 C1036 1.574 . S
C1044 H1039 0.949 . S
C1044 C1050 1.368 . S
C1045 C1029 1.349 . S
C1045 H1037 0.950 . S
C1045 C1043 1.327 . S
C1046 C1034 1.349 . S
C1046 H1040 0.950 . S
C1046 C1047 1.327 . S
C1047 H1041 0.950 . S
C1047 C1046 1.327 . S
C1047 C1051 1.429 . S
C1048 C1031 1.574 . S
C1048 H1042 0.949 . S
C1048 C1052 1.368 . S
C1049 C1030 1.429 . S
C1049 C1043 1.429 . S
C1049 C1050 1.523 . S
C1050 C1031 1.368 . S
C1050 C1044 1.368 . S
C1050 C1049 1.523 . S
C1051 C1035 1.429 . S
C1051 C1047 1.429 . S
C1051 C1052 1.523 . S
C1052 C1036 1.368 . S
C1052 C1048 1.368 . S
C1052 C1051 1.523 . S
H1053 C1028 0.950 . S
H1054 C1030 0.950 . S
H1055 C1031 0.949 . S
H1056 C1033 0.950 . S
H1057 C1035 0.950 . S
C1058 C1059 1.349 . S
C1058 C1060 1.327 . S
C1058 H1083 0.950 . S
C1059 C1058 1.349 . S
C1059 C1075 1.349 . S
C1060 C1058 1.327 . S
C1060 C1079 1.429 . S
C1060 H1084 0.950 . S
C1061 C1078 1.574 . S
C1061 C1080 1.368 . S
C1061 H1085 0.949 . S
H1062 C1066 0.949 . S
C1063 C1064 1.349 . S
C1063 C1065 1.327 . S
C1063 H1086 0.950 . S
C1064 C1063 1.349 . S
C1064 C1076 1.349 . S
C1065 C1063 1.327 . S
C1065 C1081 1.429 . S
C1065 H1087 0.950 . S
C1066 H1062 0.949 . S
C1066 C1074 1.574 . S
C1066 C1082 1.368 . S
H1067 C1075 0.950 . S
H1068 C1073 0.950 . S
H1069 C1074 0.949 . S
H1070 C1076 0.950 . S
H1071 C1077 0.950 . S
H1072 C1078 0.949 . S
C1073 H1068 0.950 . S
C1073 C1075 1.327 . S
C1073 C1079 1.429 . S
C1074 C1066 1.574 . S
C1074 H1069 0.949 . S
C1074 C1080 1.368 . S
C1075 C1059 1.349 . S
C1075 H1067 0.950 . S
C1075 C1073 1.327 . S
C1076 C1064 1.349 . S
C1076 H1070 0.950 . S
C1076 C1077 1.327 . S
C1077 H1071 0.950 . S
C1077 C1076 1.327 . S
C1077 C1081 1.429 . S
C1078 C1061 1.574 . S
C1078 H1072 0.949 . S
C1078 C1082 1.368 . S
C1079 C1060 1.429 . S
C1079 C1073 1.429 . S
C1079 C1080 1.523 . S
C1080 C1061 1.368 . S
C1080 C1074 1.368 . S
C1080 C1079 1.523 . S
C1081 C1065 1.429 . S
C1081 C1077 1.429 . S
C1081 C1082 1.523 . S
C1082 C1066 1.368 . S
C1082 C1078 1.368 . S
C1082 C1081 1.523 . S
H1083 C1058 0.950 . S
H1084 C1060 0.950 . S
H1085 C1061 0.949 . S
H1086 C1063 0.950 . S
H1087 C1065 0.950 . S
C1088 C1089 1.349 . S
C1088 C1090 1.327 . S
C1088 H1113 0.950 . S
C1089 C1088 1.349 . S
C1089 C1105 1.349 . S
C1090 C1088 1.327 . S
C1090 C1109 1.429 . S
C1090 H1114 0.950 . S
C1091 C1108 1.593 1_455 S
C1091 C1110 1.336 1_556 S
C1091 H1115 0.962 . S
H1092 C1096 0.949 . S
C1093 C1094 1.349 . S
C1093 C1095 1.327 . S
C1093 H1116 0.950 . S
C1094 C1093 1.349 . S
C1094 C1106 1.349 . S
C1095 C1093 1.327 . S
C1095 C1111 1.429 . S
C1095 H1117 0.950 . S
C1096 H1092 0.949 . S
C1096 C1104 1.604 . S
C1096 C1112 1.368 1_554 S
H1097 C1105 0.950 . S
H1098 C1103 0.950 . S
H1099 C1104 0.945 1_455 S
H1100 C1106 0.950 . S
H1101 C1107 0.950 1_554 S
H1102 C1108 0.949 . S
C1103 H1098 0.950 . S
C1103 C1105 1.327 . S
C1103 C1109 1.429 . S
C1104 C1096 1.604 . S
C1104 H1099 0.945 1_655 S
C1104 C1110 1.342 1_655 S
C1105 C1089 1.349 . S
C1105 H1097 0.950 . S
C1105 C1103 1.327 . S
C1106 C1094 1.349 . S
C1106 H1100 0.950 . S
C1106 C1107 1.327 . S
C1107 H1101 0.950 1_556 S
C1107 C1106 1.327 . S
C1107 C1111 1.429 . S
C1108 C1091 1.593 1_655 S
C1108 H1102 0.949 . S
C1108 C1112 1.368 . S
C1109 C1090 1.429 . S
C1109 C1103 1.429 . S
C1109 C1110 1.523 . S
C1110 C1091 1.336 1_554 S
C1110 C1104 1.342 1_455 S
C1110 C1109 1.523 . S
C1111 C1095 1.429 . S
C1111 C1107 1.429 . S
C1111 C1112 1.523 . S
C1112 C1096 1.368 1_556 S
C1112 C1108 1.368 . S
C1112 C1111 1.523 . S
H1113 C1088 0.950 . S
H1114 C1090 0.950 . S
H1115 C1091 0.962 . S
H1116 C1093 0.950 . S
H1117 C1095 0.950 . S
C1118 C1119 1.349 . S
C1118 C1120 1.327 . S
C1118 H1143 0.950 . S
C1119 C1118 1.349 . S
C1119 C1135 1.349 . S
C1120 C1118 1.327 . S
C1120 C1139 1.429 . S
C1120 H1144 0.950 . S
C1121 C1138 1.574 . S
C1121 C1140 1.368 1_645 S
C1121 H1145 0.955 . S
H1122 C1126 0.949 . S
C1123 C1124 1.349 . S
C1123 C1125 1.327 . S
C1123 H1146 0.950 . S
C1124 C1123 1.349 . S
C1124 C1136 1.349 . S
C1125 C1123 1.327 . S
C1125 C1141 1.429 . S
C1125 H1147 0.950 1_554 S
C1126 H1122 0.949 . S
C1126 C1134 1.574 1_544 S
C1126 C1142 1.368 1_554 S
H1127 C1135 0.950 . S
H1128 C1133 0.950 . S
H1129 C1134 0.949 . S
H1130 C1136 0.950 1_455 S
H1131 C1137 0.950 . S
H1132 C1138 0.949 . S
C1133 H1128 0.950 . S
C1133 C1135 1.327 . S
C1133 C1139 1.429 . S
C1134 C1126 1.574 1_566 S
C1134 H1129 0.949 . S
C1134 C1140 1.368 . S
C1135 C1119 1.349 . S
C1135 H1127 0.950 . S
C1135 C1133 1.327 . S
C1136 C1124 1.349 . S
C1136 H1130 0.950 1_655 S
C1136 C1137 1.327 1_655 S
C1137 H1131 0.950 . S
C1137 C1136 1.327 1_455 S
C1137 C1141 1.429 1_455 S
C1138 C1121 1.574 . S
C1138 H1132 0.949 . S
C1138 C1142 1.368 1_655 S
C1139 C1120 1.429 . S
C1139 C1133 1.429 . S
C1139 C1140 1.523 . S
C1140 C1121 1.368 1_465 S
C1140 C1134 1.368 . S
C1140 C1139 1.523 . S
C1141 C1125 1.429 . S
C1141 C1137 1.429 1_655 S
C1141 C1142 1.523 1_654 S
C1142 C1126 1.368 1_556 S
C1142 C1138 1.368 1_455 S
C1142 C1141 1.523 1_456 S
H1143 C1118 0.950 . S
H1144 C1120 0.950 . S
H1145 C1121 0.955 . S
H1146 C1123 0.950 . S
H1147 C1125 0.950 1_556 S
C1148 C1149 1.349 . S
C1148 C1150 1.327 . S
C1148 H1173 0.950 . S
C1149 C1148 1.349 . S
C1149 C1165 1.349 . S
C1150 C1148 1.327 . S
C1150 C1169 1.429 . S
C1150 H1174 0.950 . S
C1151 C1168 1.574 . S
C1151 C1170 1.368 1_545 S
C1151 H1175 0.949 . S
H1152 C1156 0.949 . S
C1153 C1154 1.349 . S
C1153 C1155 1.327 . S
C1153 H1176 0.950 . S
C1154 C1153 1.349 . S
C1154 C1166 1.349 . S
C1155 C1153 1.327 . S
C1155 C1171 1.429 . S
C1155 H1177 0.950 . S
C1156 H1152 0.949 . S
C1156 C1164 1.574 1_556 S
C1156 C1172 1.368 1_565 S
H1157 C1165 0.934 1_545 S
H1158 C1163 0.962 . S
H1159 C1164 0.949 . S
H1160 C1166 0.950 . S
H1161 C1167 0.950 1_565 S
H1162 C1168 0.949 . S
C1163 H1158 0.962 . S
C1163 C1165 1.322 1_545 S
C1163 C1169 1.422 1_545 S
C1164 C1156 1.574 1_554 S
C1164 H1159 0.949 . S
C1164 C1170 1.368 . S
C1165 C1149 1.349 . S
C1165 H1157 0.934 1_565 S
C1165 C1163 1.322 1_565 S
C1166 C1154 1.349 . S
C1166 H1160 0.950 . S
C1166 C1167 1.327 . S
C1167 H1161 0.950 1_545 S
C1167 C1166 1.327 . S
C1167 C1171 1.429 . S
C1168 C1151 1.574 . S
C1168 H1162 0.949 . S
C1168 C1172 1.368 1_554 S
C1169 C1150 1.429 . S
C1169 C1163 1.422 1_565 S
C1169 C1170 1.523 . S
C1170 C1151 1.368 1_565 S
C1170 C1164 1.368 . S
C1170 C1169 1.523 . S
C1171 C1155 1.429 . S
C1171 C1167 1.429 . S
C1171 C1172 1.523 . S
C1172 C1156 1.368 1_545 S
C1172 C1168 1.368 1_556 S
C1172 C1171 1.523 . S
H1173 C1148 0.950 . S
H1174 C1150 0.950 . S
H1175 C1151 0.949 . S
H1176 C1153 0.950 . S
H1177 C1155 0.950 . S
C1178 C1179 1.349 . S
C1178 C1180 1.327 . S
C1178 H1203 0.950 . S
C1179 C1178 1.349 . S
C1179 C1195 1.349 . S
C1180 C1178 1.327 . S
C1180 C1199 1.429 . S
C1180 H1204 0.950 . S
C1181 C1198 1.574 1_556 S
C1181 C1200 1.368 . S
C1181 H1205 0.949 . S
H1182 C1186 0.949 . S
C1183 C1184 1.349 . S
C1183 C1185 1.327 . S
C1183 H1206 0.950 . S
C1184 C1183 1.349 . S
C1184 C1196 1.349 . S
C1185 C1183 1.327 . S
C1185 C1201 1.429 . S
C1185 H1207 0.950 . S
C1186 H1182 0.949 . S
C1186 C1194 1.574 . S
C1186 C1202 1.368 . S
H1187 C1195 0.950 . S
H1188 C1193 0.950 . S
H1189 C1194 0.949 . S
H1190 C1196 0.950 . S
H1191 C1197 0.913 1_556 S
H1192 C1198 0.949 . S
C1193 H1188 0.950 . S
C1193 C1195 1.327 . S
C1193 C1199 1.429 . S
C1194 C1186 1.574 . S
C1194 H1189 0.949 . S
C1194 C1200 1.368 . S
C1195 C1179 1.349 . S
C1195 H1187 0.950 . S
C1195 C1193 1.327 . S
C1196 C1184 1.349 . S
C1196 H1190 0.950 . S
C1196 C1197 1.327 . S
C1197 H1191 0.913 1_554 S
C1197 C1196 1.327 . S
C1197 C1201 1.429 . S
C1198 C1181 1.574 1_554 S
C1198 H1192 0.949 . S
C1198 C1202 1.368 1_554 S
C1199 C1180 1.429 . S
C1199 C1193 1.429 . S
C1199 C1200 1.523 . S
C1200 C1181 1.368 . S
C1200 C1194 1.368 . S
C1200 C1199 1.523 . S
C1201 C1185 1.429 . S
C1201 C1197 1.429 . S
C1201 C1202 1.523 1_554 S
C1202 C1186 1.368 . S
C1202 C1198 1.368 1_556 S
C1202 C1201 1.523 1_556 S
H1203 C1178 0.950 . S
H1204 C1180 0.950 . S
H1205 C1181 0.949 . S
H1206 C1183 0.950 . S
H1207 C1185 0.950 . S
C1208 C1209 1.349 . S
C1208 C1210 1.327 . S
C1208 H1233 0.950 . S
C1209 C1208 1.349 . S
C1209 C1225 1.349 . S
C1210 C1208 1.327 . S
C1210 C1229 1.429 . S
C1210 H1234 0.950 1_565 S
C1211 C1228 1.574 . S
C1211 C1230 1.368 1_655 S
C1211 H1235 0.949 . S
H1212 C1216 0.949 . S
C1213 C1214 1.349 . S
C1213 C1215 1.327 . S
C1213 H1236 0.950 . S
C1214 C1213 1.349 . S
C1214 C1226 1.349 . S
C1215 C1213 1.327 . S
C1215 C1231 1.429 . S
C1215 H1237 0.950 . S
C1216 H1212 0.949 . S
C1216 C1224 1.574 . S
C1216 C1232 1.368 1_455 S
H1217 C1225 0.950 . S
H1218 C1223 0.950 . S
H1219 C1224 0.949 . S
H1220 C1226 0.950 . S
H1221 C1227 0.950 . S
H1222 C1228 0.949 . S
C1223 H1218 0.950 . S
C1223 C1225 1.327 . S
C1223 C1229 1.429 . S
C1224 C1216 1.574 . S
C1224 H1219 0.949 . S
C1224 C1230 1.368 1_545 S
C1225 C1209 1.349 . S
C1225 H1217 0.950 . S
C1225 C1223 1.327 . S
C1226 C1214 1.349 . S
C1226 H1220 0.950 . S
C1226 C1227 1.327 . S
C1227 H1221 0.950 . S
C1227 C1226 1.327 . S
C1227 C1231 1.429 . S
C1228 C1211 1.574 . S
C1228 H1222 0.949 . S
C1228 C1232 1.368 1_565 S
C1229 C1210 1.429 . S
C1229 C1223 1.429 . S
C1229 C1230 1.523 . S
C1230 C1211 1.368 1_455 S
C1230 C1224 1.368 1_565 S
C1230 C1229 1.523 . S
C1231 C1215 1.429 . S
C1231 C1227 1.429 . S
C1231 C1232 1.523 . S
C1232 C1216 1.368 1_655 S
C1232 C1228 1.368 1_545 S
C1232 C1231 1.523 . S
H1233 C1208 0.950 . S
H1234 C1210 0.950 1_545 S
H1235 C1211 0.949 . S
H1236 C1213 0.950 . S
H1237 C1215 0.950 . S
C1238 C1239 1.349 . S
C1238 C1240 1.327 . S
C1238 H1263 0.950 . S
C1239 C1238 1.349 . S
C1239 C1255 1.349 . S
C1240 C1238 1.327 . S
C1240 C1259 1.429 . S
C1240 H1264 0.950 . S
C1241 C1258 1.574 1_545 S
C1241 C1260 1.368 . S
C1241 H1265 0.949 1_545 S
H1242 C1246 0.949 . S
C1243 C1244 1.349 . S
C1243 C1245 1.327 . S
C1243 H1266 0.950 . S
C1244 C1243 1.349 . S
C1244 C1256 1.349 . S
C1245 C1243 1.327 . S
C1245 C1261 1.429 . S
C1245 H1267 0.950 . S
C1246 H1242 0.949 . S
C1246 C1254 1.574 . S
C1246 C1262 1.368 1_545 S
H1247 C1255 0.950 . S
H1248 C1253 0.950 . S
H1249 C1254 0.949 . S
H1250 C1256 0.950 . S
H1251 C1257 0.950 . S
H1252 C1258 0.949 . S
C1253 H1248 0.950 . S
C1253 C1255 1.327 . S
C1253 C1259 1.429 . S
C1254 C1246 1.574 . S
C1254 H1249 0.949 . S
C1254 C1260 1.368 . S
C1255 C1239 1.349 . S
C1255 H1247 0.950 . S
C1255 C1253 1.327 . S
C1256 C1244 1.349 . S
C1256 H1250 0.950 . S
C1256 C1257 1.327 . S
C1257 H1251 0.950 . S
C1257 C1256 1.327 . S
C1257 C1261 1.429 . S
C1258 C1241 1.574 1_565 S
C1258 H1252 0.949 . S
C1258 C1262 1.368 . S
C1259 C1240 1.429 . S
C1259 C1253 1.429 . S
C1259 C1260 1.523 . S
C1260 C1241 1.368 . S
C1260 C1254 1.368 . S
C1260 C1259 1.523 . S
C1261 C1245 1.429 . S
C1261 C1257 1.429 . S
C1261 C1262 1.523 . S
C1262 C1246 1.368 1_565 S
C1262 C1258 1.368 . S
C1262 C1261 1.523 . S
H1263 C1238 0.950 . S
H1264 C1240 0.950 . S
H1265 C1241 0.949 1_565 S
H1266 C1243 0.950 . S
H1267 C1245 0.950 . S
C1268 C1269 1.349 . S
C1268 C1270 1.327 . S
C1268 H1293 0.950 . S
C1269 C1268 1.349 . S
C1269 C1285 1.349 . S
C1270 C1268 1.327 . S
C1270 C1289 1.429 . S
C1270 H1294 0.950 . S
C1271 C1288 1.574 . S
C1271 C1290 1.368 . S
C1271 H1295 0.949 . S
H1272 C1276 0.949 . S
C1273 C1274 1.349 . S
C1273 C1275 1.327 . S
C1273 H1296 0.950 . S
C1274 C1273 1.349 . S
C1274 C1286 1.349 . S
C1275 C1273 1.327 . S
C1275 C1291 1.429 . S
C1275 H1297 0.950 . S
C1276 H1272 0.949 . S
C1276 C1284 1.574 . S
C1276 C1292 1.368 . S
H1277 C1285 0.950 . S
H1278 C1283 0.950 . S
H1279 C1284 0.949 . S
H1280 C1286 0.950 . S
H1281 C1287 0.950 . S
H1282 C1288 0.949 . S
C1283 H1278 0.950 . S
C1283 C1285 1.327 . S
C1283 C1289 1.429 . S
C1284 C1276 1.574 . S
C1284 H1279 0.949 . S
C1284 C1290 1.368 . S
C1285 C1269 1.349 . S
C1285 H1277 0.950 . S
C1285 C1283 1.327 . S
C1286 C1274 1.349 . S
C1286 H1280 0.950 . S
C1286 C1287 1.327 . S
C1287 H1281 0.950 . S
C1287 C1286 1.327 . S
C1287 C1291 1.429 . S
C1288 C1271 1.574 . S
C1288 H1282 0.949 . S
C1288 C1292 1.368 . S
C1289 C1270 1.429 . S
C1289 C1283 1.429 . S
C1289 C1290 1.523 . S
C1290 C1271 1.368 . S
C1290 C1284 1.368 . S
C1290 C1289 1.523 . S
C1291 C1275 1.429 . S
C1291 C1287 1.429 . S
C1291 C1292 1.523 . S
C1292 C1276 1.368 . S
C1292 C1288 1.368 . S
C1292 C1291 1.523 . S
H1293 C1268 0.950 . S
H1294 C1270 0.950 . S
H1295 C1271 0.949 . S
H1296 C1273 0.950 . S
H1297 C1275 0.950 . S
C1298 C1299 1.344 1_455 S
C1298 C1300 1.329 . S
C1298 H1323 0.953 . S
C1299 C1298 1.344 1_655 S
C1299 C1315 1.349 . S
C1300 C1298 1.329 . S
C1300 C1319 1.429 1_455 S
C1300 H1324 0.950 . S
C1301 C1318 1.574 . S
C1301 C1320 1.368 1_655 S
C1301 H1325 0.949 . S
H1302 C1306 0.949 . S
C1303 C1304 1.349 . S
C1303 C1305 1.327 . S
C1303 H1326 0.950 . S
C1304 C1303 1.349 . S
C1304 C1316 1.349 . S
C1305 C1303 1.327 . S
C1305 C1321 1.429 . S
C1305 H1327 0.950 1_455 S
C1306 H1302 0.949 . S
C1306 C1314 1.574 . S
C1306 C1322 1.368 . S
H1307 C1315 0.950 . S
H1308 C1313 0.950 . S
H1309 C1314 0.949 . S
H1310 C1316 0.950 . S
H1311 C1317 0.950 . S
H1312 C1318 0.949 . S
C1313 H1308 0.950 . S
C1313 C1315 1.327 . S
C1313 C1319 1.429 . S
C1314 C1306 1.574 . S
C1314 H1309 0.949 . S
C1314 C1320 1.368 . S
C1315 C1299 1.349 . S
C1315 H1307 0.950 . S
C1315 C1313 1.327 . S
C1316 C1304 1.349 . S
C1316 H1310 0.950 . S
C1316 C1317 1.327 . S
C1317 H1311 0.950 . S
C1317 C1316 1.327 . S
C1317 C1321 1.429 . S
C1318 C1301 1.574 . S
C1318 H1312 0.949 . S
C1318 C1322 1.368 1_655 S
C1319 C1300 1.429 1_655 S
C1319 C1313 1.429 . S
C1319 C1320 1.523 1_655 S
C1320 C1301 1.368 1_455 S
C1320 C1314 1.368 . S
C1320 C1319 1.523 1_455 S
C1321 C1305 1.429 . S
C1321 C1317 1.429 . S
C1321 C1322 1.523 . S
C1322 C1306 1.368 . S
C1322 C1318 1.368 1_455 S
C1322 C1321 1.523 . S
H1323 C1298 0.953 . S
H1324 C1300 0.950 . S
H1325 C1301 0.949 . S
H1326 C1303 0.950 . S
H1327 C1305 0.950 1_655 S
C369 C16 1.694 . S
C374 C62 1.694 . S
C399 C39 1.964 . S
C404 C85 1.964 . S
C429 C108 1.694 . S
C434 C154 1.694 . S
C459 C177 1.964 . S
C464 C131 1.964 . S
C489 C200 1.114 . S
C494 C246 1.114 . S
C519 N265 1.226 . S
C524 N219 1.226 . S
C549 C338 1.114 . S
C554 C292 1.114 . S
C579 N357 1.226 . S
C584 N311 1.226 . S
C609 C168 2.197 . S
C614 C7 2.208 . S
C639 C30 2.197 . S
C644 C99 2.208 . S
C669 C122 2.197 . S
C674 C53 2.208 . S
C699 C76 2.197 . S
C704 C145 2.208 . S
C729 N347 1.437 . S
C734 C191 1.535 . S
C759 N209 1.437 . S
C764 C283 1.535 . S
C789 C237 1.535 . S
C794 N301 1.437 . S
C819 C329 1.535 . S
C824 N255 1.437 . S
C849 N2 0.681 . S
C854 N94 0.681 . S
C879 N25 0.643 . S
C884 N117 0.643 . S
C909 N140 0.681 . S
C914 N48 0.681 . S
C939 N71 0.643 . S
C944 N163 0.643 . S
C969 N278 0.825 . S
C974 N186 0.825 . S
C999 C306 0.978 . S
C1004 C214 0.978 . S
C1029 N232 0.825 . S
C1034 N324 0.825 . S
C1059 C260 0.978 . S
C1064 C352 0.978 . S
C1089 N12 2.209 . S
C1094 N196 2.216 . S
C1119 C223 1.999 . S
C1124 N35 2.075 . S
C1149 N58 2.209 . S
C1154 N242 2.216 . S
C1179 C269 1.999 . S
C1184 N81 2.075 . S
C1209 N104 2.209 . S
C1214 N288 2.216 . S
C1239 N127 2.075 . S
C1244 C315 1.999 . S
C1269 N334 2.216 . S
C1274 N150 2.209 . S
C1299 N173 2.075 . S
C1304 C361 1.999 . S
