# Generated by pormake.
# Topology ukr, (4)-cn, num edge types: 1
# Building blocks:
#     Node 0, Type 0, BuildingBlock: CEKHIL_clean_sbu_0, # of connection points: 4
#     Node 1, Type 0, BuildingBlock: CEKHIL_clean_sbu_0, # of connection points: 4
#     Node 2, Type 0, BuildingBlock: CEKHIL_clean_sbu_0, # of connection points: 4
#     Node 3, Type 0, BuildingBlock: CEKHIL_clean_sbu_0, # of connection points: 4
#     Node 4, Type 0, BuildingBlock: CEKHIL_clean_sbu_0, # of connection points: 4
#     Node 5, Type 0, BuildingBlock: CEKHIL_clean_sbu_0, # of connection points: 4
#     Node 6, Type 0, BuildingBlock: CEKHIL_clean_sbu_0, # of connection points: 4
#     Node 7, Type 0, BuildingBlock: CEKHIL_clean_sbu_0, # of connection points: 4
#     Node 8, Type 0, BuildingBlock: CEKHIL_clean_sbu_0, # of connection points: 4
#     Node 9, Type 0, BuildingBlock: CEKHIL_clean_sbu_0, # of connection points: 4
#     Node 10, Type 0, BuildingBlock: CEKHIL_clean_sbu_0, # of connection points: 4
#     Node 11, Type 0, BuildingBlock: CEKHIL_clean_sbu_0, # of connection points: 4
#     Node 12, Type 0, BuildingBlock: CEKHIL_clean_sbu_0, # of connection points: 4
#     Node 13, Type 0, BuildingBlock: CEKHIL_clean_sbu_0, # of connection points: 4
#     Node 14, Type 0, BuildingBlock: CEKHIL_clean_sbu_0, # of connection points: 4
#     Node 15, Type 0, BuildingBlock: CEKHIL_clean_sbu_0, # of connection points: 4
#     Node 16, Type 0, BuildingBlock: CEKHIL_clean_sbu_0, # of connection points: 4
#     Node 17, Type 0, BuildingBlock: CEKHIL_clean_sbu_0, # of connection points: 4
#     Node 18, Type 0, BuildingBlock: CEKHIL_clean_sbu_0, # of connection points: 4
#     Node 19, Type 0, BuildingBlock: CEKHIL_clean_sbu_0, # of connection points: 4
#     Node 20, Type 0, BuildingBlock: CEKHIL_clean_sbu_0, # of connection points: 4
#     Node 21, Type 0, BuildingBlock: CEKHIL_clean_sbu_0, # of connection points: 4
#     Node 22, Type 0, BuildingBlock: CEKHIL_clean_sbu_0, # of connection points: 4
#     Node 23, Type 0, BuildingBlock: CEKHIL_clean_sbu_0, # of connection points: 4
#     Node 24, Type 0, BuildingBlock: CEKHIL_clean_sbu_0, # of connection points: 4
#     Node 25, Type 0, BuildingBlock: CEKHIL_clean_sbu_0, # of connection points: 4
#     Node 26, Type 0, BuildingBlock: CEKHIL_clean_sbu_0, # of connection points: 4
#     Node 27, Type 0, BuildingBlock: CEKHIL_clean_sbu_0, # of connection points: 4
#     Node 28, Type 0, BuildingBlock: CEKHIL_clean_sbu_0, # of connection points: 4
#     Node 29, Type 0, BuildingBlock: CEKHIL_clean_sbu_0, # of connection points: 4
#     Node 30, Type 0, BuildingBlock: CEKHIL_clean_sbu_0, # of connection points: 4
#     Node 31, Type 0, BuildingBlock: CEKHIL_clean_sbu_0, # of connection points: 4
#     Node 32, Type 0, BuildingBlock: CEKHIL_clean_sbu_0, # of connection points: 4
#     Node 33, Type 0, BuildingBlock: CEKHIL_clean_sbu_0, # of connection points: 4
#     Node 34, Type 0, BuildingBlock: CEKHIL_clean_sbu_0, # of connection points: 4
#     Node 35, Type 0, BuildingBlock: CEKHIL_clean_sbu_0, # of connection points: 4
#     Node 36, Type 0, BuildingBlock: CEKHIL_clean_sbu_0, # of connection points: 4
#     Node 37, Type 0, BuildingBlock: CEKHIL_clean_sbu_0, # of connection points: 4
#     Node 38, Type 0, BuildingBlock: CEKHIL_clean_sbu_0, # of connection points: 4
#     Node 39, Type 0, BuildingBlock: CEKHIL_clean_sbu_0, # of connection points: 4
#     Node 40, Type 0, BuildingBlock: CEKHIL_clean_sbu_0, # of connection points: 4
#     Node 41, Type 0, BuildingBlock: CEKHIL_clean_sbu_0, # of connection points: 4
#     Node 42, Type 0, BuildingBlock: CEKHIL_clean_sbu_0, # of connection points: 4
#     Node 43, Type 0, BuildingBlock: CEKHIL_clean_sbu_0, # of connection points: 4
#     Node 44, Type 0, BuildingBlock: CEKHIL_clean_sbu_0, # of connection points: 4
#     Node 45, Type 0, BuildingBlock: CEKHIL_clean_sbu_0, # of connection points: 4
#     Node 46, Type 0, BuildingBlock: CEKHIL_clean_sbu_0, # of connection points: 4
#     Node 47, Type 0, BuildingBlock: CEKHIL_clean_sbu_0, # of connection points: 4
#     Edge 48, Type (0, 0), BuildingBlock: UVAHIK_clean_linker_0, # of connection points: 2
#     Edge 49, Type (0, 0), BuildingBlock: UVAHIK_clean_linker_0, # of connection points: 2
#     Edge 50, Type (0, 0), BuildingBlock: UVAHIK_clean_linker_0, # of connection points: 2
#     Edge 51, Type (0, 0), BuildingBlock: UVAHIK_clean_linker_0, # of connection points: 2
#     Edge 52, Type (0, 0), BuildingBlock: UVAHIK_clean_linker_0, # of connection points: 2
#     Edge 53, Type (0, 0), BuildingBlock: UVAHIK_clean_linker_0, # of connection points: 2
#     Edge 54, Type (0, 0), BuildingBlock: UVAHIK_clean_linker_0, # of connection points: 2
#     Edge 55, Type (0, 0), BuildingBlock: UVAHIK_clean_linker_0, # of connection points: 2
#     Edge 56, Type (0, 0), BuildingBlock: UVAHIK_clean_linker_0, # of connection points: 2
#     Edge 57, Type (0, 0), BuildingBlock: UVAHIK_clean_linker_0, # of connection points: 2
#     Edge 58, Type (0, 0), BuildingBlock: UVAHIK_clean_linker_0, # of connection points: 2
#     Edge 59, Type (0, 0), BuildingBlock: UVAHIK_clean_linker_0, # of connection points: 2
#     Edge 60, Type (0, 0), BuildingBlock: UVAHIK_clean_linker_0, # of connection points: 2
#     Edge 61, Type (0, 0), BuildingBlock: UVAHIK_clean_linker_0, # of connection points: 2
#     Edge 62, Type (0, 0), BuildingBlock: UVAHIK_clean_linker_0, # of connection points: 2
#     Edge 63, Type (0, 0), BuildingBlock: UVAHIK_clean_linker_0, # of connection points: 2
#     Edge 64, Type (0, 0), BuildingBlock: UVAHIK_clean_linker_0, # of connection points: 2
#     Edge 65, Type (0, 0), BuildingBlock: UVAHIK_clean_linker_0, # of connection points: 2
#     Edge 66, Type (0, 0), BuildingBlock: UVAHIK_clean_linker_0, # of connection points: 2
#     Edge 67, Type (0, 0), BuildingBlock: UVAHIK_clean_linker_0, # of connection points: 2
#     Edge 68, Type (0, 0), BuildingBlock: UVAHIK_clean_linker_0, # of connection points: 2
#     Edge 69, Type (0, 0), BuildingBlock: UVAHIK_clean_linker_0, # of connection points: 2
#     Edge 70, Type (0, 0), BuildingBlock: UVAHIK_clean_linker_0, # of connection points: 2
#     Edge 71, Type (0, 0), BuildingBlock: UVAHIK_clean_linker_0, # of connection points: 2
#     Edge 72, Type (0, 0), BuildingBlock: UVAHIK_clean_linker_0, # of connection points: 2
#     Edge 73, Type (0, 0), BuildingBlock: UVAHIK_clean_linker_0, # of connection points: 2
#     Edge 74, Type (0, 0), BuildingBlock: UVAHIK_clean_linker_0, # of connection points: 2
#     Edge 75, Type (0, 0), BuildingBlock: UVAHIK_clean_linker_0, # of connection points: 2
#     Edge 76, Type (0, 0), BuildingBlock: UVAHIK_clean_linker_0, # of connection points: 2
#     Edge 77, Type (0, 0), BuildingBlock: UVAHIK_clean_linker_0, # of connection points: 2
#     Edge 78, Type (0, 0), BuildingBlock: UVAHIK_clean_linker_0, # of connection points: 2
#     Edge 79, Type (0, 0), BuildingBlock: UVAHIK_clean_linker_0, # of connection points: 2
#     Edge 80, Type (0, 0), BuildingBlock: UVAHIK_clean_linker_0, # of connection points: 2
#     Edge 81, Type (0, 0), BuildingBlock: UVAHIK_clean_linker_0, # of connection points: 2
#     Edge 82, Type (0, 0), BuildingBlock: UVAHIK_clean_linker_0, # of connection points: 2
#     Edge 83, Type (0, 0), BuildingBlock: UVAHIK_clean_linker_0, # of connection points: 2
#     Edge 84, Type (0, 0), BuildingBlock: UVAHIK_clean_linker_0, # of connection points: 2
#     Edge 85, Type (0, 0), BuildingBlock: UVAHIK_clean_linker_0, # of connection points: 2
#     Edge 86, Type (0, 0), BuildingBlock: UVAHIK_clean_linker_0, # of connection points: 2
#     Edge 87, Type (0, 0), BuildingBlock: UVAHIK_clean_linker_0, # of connection points: 2
#     Edge 88, Type (0, 0), BuildingBlock: UVAHIK_clean_linker_0, # of connection points: 2
#     Edge 89, Type (0, 0), BuildingBlock: UVAHIK_clean_linker_0, # of connection points: 2
#     Edge 90, Type (0, 0), BuildingBlock: UVAHIK_clean_linker_0, # of connection points: 2
#     Edge 91, Type (0, 0), BuildingBlock: UVAHIK_clean_linker_0, # of connection points: 2
#     Edge 92, Type (0, 0), BuildingBlock: UVAHIK_clean_linker_0, # of connection points: 2
#     Edge 93, Type (0, 0), BuildingBlock: UVAHIK_clean_linker_0, # of connection points: 2
#     Edge 94, Type (0, 0), BuildingBlock: UVAHIK_clean_linker_0, # of connection points: 2
#     Edge 95, Type (0, 0), BuildingBlock: UVAHIK_clean_linker_0, # of connection points: 2
#     Edge 96, Type (0, 0), BuildingBlock: UVAHIK_clean_linker_0, # of connection points: 2
#     Edge 97, Type (0, 0), BuildingBlock: UVAHIK_clean_linker_0, # of connection points: 2
#     Edge 98, Type (0, 0), BuildingBlock: UVAHIK_clean_linker_0, # of connection points: 2
#     Edge 99, Type (0, 0), BuildingBlock: UVAHIK_clean_linker_0, # of connection points: 2
#     Edge 100, Type (0, 0), BuildingBlock: UVAHIK_clean_linker_0, # of connection points: 2
#     Edge 101, Type (0, 0), BuildingBlock: UVAHIK_clean_linker_0, # of connection points: 2
#     Edge 102, Type (0, 0), BuildingBlock: UVAHIK_clean_linker_0, # of connection points: 2
#     Edge 103, Type (0, 0), BuildingBlock: UVAHIK_clean_linker_0, # of connection points: 2
#     Edge 104, Type (0, 0), BuildingBlock: UVAHIK_clean_linker_0, # of connection points: 2
#     Edge 105, Type (0, 0), BuildingBlock: UVAHIK_clean_linker_0, # of connection points: 2
#     Edge 106, Type (0, 0), BuildingBlock: UVAHIK_clean_linker_0, # of connection points: 2
#     Edge 107, Type (0, 0), BuildingBlock: UVAHIK_clean_linker_0, # of connection points: 2
#     Edge 108, Type (0, 0), BuildingBlock: UVAHIK_clean_linker_0, # of connection points: 2
#     Edge 109, Type (0, 0), BuildingBlock: UVAHIK_clean_linker_0, # of connection points: 2
#     Edge 110, Type (0, 0), BuildingBlock: UVAHIK_clean_linker_0, # of connection points: 2
#     Edge 111, Type (0, 0), BuildingBlock: UVAHIK_clean_linker_0, # of connection points: 2
#     Edge 112, Type (0, 0), BuildingBlock: UVAHIK_clean_linker_0, # of connection points: 2
#     Edge 113, Type (0, 0), BuildingBlock: UVAHIK_clean_linker_0, # of connection points: 2
#     Edge 114, Type (0, 0), BuildingBlock: UVAHIK_clean_linker_0, # of connection points: 2
#     Edge 115, Type (0, 0), BuildingBlock: UVAHIK_clean_linker_0, # of connection points: 2
#     Edge 116, Type (0, 0), BuildingBlock: UVAHIK_clean_linker_0, # of connection points: 2
#     Edge 117, Type (0, 0), BuildingBlock: UVAHIK_clean_linker_0, # of connection points: 2
#     Edge 118, Type (0, 0), BuildingBlock: UVAHIK_clean_linker_0, # of connection points: 2
#     Edge 119, Type (0, 0), BuildingBlock: UVAHIK_clean_linker_0, # of connection points: 2
#     Edge 120, Type (0, 0), BuildingBlock: UVAHIK_clean_linker_0, # of connection points: 2
#     Edge 121, Type (0, 0), BuildingBlock: UVAHIK_clean_linker_0, # of connection points: 2
#     Edge 122, Type (0, 0), BuildingBlock: UVAHIK_clean_linker_0, # of connection points: 2
#     Edge 123, Type (0, 0), BuildingBlock: UVAHIK_clean_linker_0, # of connection points: 2
#     Edge 124, Type (0, 0), BuildingBlock: UVAHIK_clean_linker_0, # of connection points: 2
#     Edge 125, Type (0, 0), BuildingBlock: UVAHIK_clean_linker_0, # of connection points: 2
#     Edge 126, Type (0, 0), BuildingBlock: UVAHIK_clean_linker_0, # of connection points: 2
#     Edge 127, Type (0, 0), BuildingBlock: UVAHIK_clean_linker_0, # of connection points: 2
#     Edge 128, Type (0, 0), BuildingBlock: UVAHIK_clean_linker_0, # of connection points: 2
#     Edge 129, Type (0, 0), BuildingBlock: UVAHIK_clean_linker_0, # of connection points: 2
#     Edge 130, Type (0, 0), BuildingBlock: UVAHIK_clean_linker_0, # of connection points: 2
#     Edge 131, Type (0, 0), BuildingBlock: UVAHIK_clean_linker_0, # of connection points: 2
#     Edge 132, Type (0, 0), BuildingBlock: UVAHIK_clean_linker_0, # of connection points: 2
#     Edge 133, Type (0, 0), BuildingBlock: UVAHIK_clean_linker_0, # of connection points: 2
#     Edge 134, Type (0, 0), BuildingBlock: UVAHIK_clean_linker_0, # of connection points: 2
#     Edge 135, Type (0, 0), BuildingBlock: UVAHIK_clean_linker_0, # of connection points: 2
#     Edge 136, Type (0, 0), BuildingBlock: UVAHIK_clean_linker_0, # of connection points: 2
#     Edge 137, Type (0, 0), BuildingBlock: UVAHIK_clean_linker_0, # of connection points: 2
#     Edge 138, Type (0, 0), BuildingBlock: UVAHIK_clean_linker_0, # of connection points: 2
#     Edge 139, Type (0, 0), BuildingBlock: UVAHIK_clean_linker_0, # of connection points: 2
#     Edge 140, Type (0, 0), BuildingBlock: UVAHIK_clean_linker_0, # of connection points: 2
#     Edge 141, Type (0, 0), BuildingBlock: UVAHIK_clean_linker_0, # of connection points: 2
#     Edge 142, Type (0, 0), BuildingBlock: UVAHIK_clean_linker_0, # of connection points: 2
#     Edge 143, Type (0, 0), BuildingBlock: UVAHIK_clean_linker_0, # of connection points: 2
# Relax obj value: 0.470
# Max RMSD: 0.180
# Mean RMSD: 0.180
data_MOF--net-ukr--node1-CEKHIL_clean_sbu_0--edge1-UVAHIK_clean_linker_0
_symmetry_space_group_name_H-M    P1
_symmetry_Int_Tables_number       1
_symmetry_cell_setting            triclinic
loop_
_symmetry_equiv_pos_as_xyz
'x, y, z'
_cell_length_a     87.337015
_cell_length_b     87.362888
_cell_length_c     87.312095
_cell_angle_alpha  90.009996
_cell_angle_beta   90.010915
_cell_angle_gamma 89.995356
loop_
_atom_site_label
_atom_site_type_symbol
_atom_site_fract_x
_atom_site_fract_y
_atom_site_fract_z
_atom_type_partial_charge
Co0 Co 0.08876 0.26926 0.20575 0.0
O1 O 0.06821 0.27664 0.20753 0.0
O2 O 0.08346 0.28074 0.18759 0.0
C3 C 0.08469 0.24499 0.21336 0.0
O4 O 0.11035 0.26292 0.1997 0.0
Co5 Co 0.10628 0.25861 0.23489 0.0
O6 O 0.12192 0.25176 0.21988 0.0
C7 C 0.1005 0.29134 0.22997 0.0
C8 C 0.07025 0.28281 0.19415 0.0
C9 C 0.1216 0.25559 0.20578 0.0
O10 O 0.09643 0.28846 0.2161 0.0
O11 O 0.10337 0.28084 0.23978 0.0
O12 O 0.08163 0.24904 0.19935 0.0
O13 O 0.08805 0.25607 0.22255 0.0
Co14 Co 0.21904 0.60225 0.68836 0.0
O15 O 0.21254 0.58349 0.69765 0.0
O16 O 0.21177 0.58842 0.67269 0.0
C17 C 0.24124 0.60441 0.70133 0.0
O18 O 0.22526 0.62 0.67451 0.0
Co19 Co 0.2233 0.63177 0.70785 0.0
O20 O 0.23161 0.64055 0.68875 0.0
C21 C 0.1923 0.62011 0.70129 0.0
C22 C 0.20904 0.57901 0.6839 0.0
C23 C 0.23046 0.63372 0.67592 0.0
O24 O 0.19768 0.61054 0.69147 0.0
O25 O 0.20067 0.62874 0.70965 0.0
O26 O 0.24049 0.5958 0.6892 0.0
O27 O 0.22845 0.61028 0.7058 0.0
Co28 Co 0.90105 0.73087 0.20412 0.0
O29 O 0.92035 0.72344 0.21134 0.0
O30 O 0.91165 0.72073 0.18756 0.0
C31 C 0.90231 0.75445 0.21433 0.0
O32 O 0.88206 0.73755 0.19241 0.0
Co33 Co 0.87543 0.73981 0.22717 0.0
O34 O 0.86568 0.74891 0.20872 0.0
C35 C 0.88414 0.70754 0.22308 0.0
C36 C 0.92241 0.71825 0.19756 0.0
C37 C 0.86997 0.74553 0.19517 0.0
O38 O 0.89125 0.711 0.21066 0.0
O39 O 0.87841 0.71759 0.23209 0.0
O40 O 0.90924 0.75155 0.20147 0.0
O41 O 0.89657 0.74274 0.22124 0.0
Co42 Co 0.76726 0.40738 0.70188 0.0
O43 O 0.77525 0.42746 0.70558 0.0
O44 O 0.77909 0.41392 0.6844 0.0
C45 C 0.74313 0.41173 0.70979 0.0
O46 O 0.76038 0.38673 0.6937 0.0
Co47 Co 0.75534 0.38727 0.72868 0.0
O48 O 0.7472 0.37418 0.71189 0.0
C49 C 0.78824 0.39365 0.72558 0.0
C50 C 0.78147 0.42643 0.6921 0.0
C51 C 0.75175 0.37563 0.69808 0.0
O52 O 0.78604 0.39824 0.71176 0.0
O53 O 0.7773 0.39035 0.73477 0.0
O54 O 0.74729 0.41574 0.69606 0.0
O55 O 0.75399 0.40694 0.71858 0.0
Co56 Co 0.10266 0.72015 0.80577 0.0
O57 O 0.0838 0.71502 0.79583 0.0
O58 O 0.08826 0.71263 0.82076 0.0
C59 C 0.10597 0.74292 0.79413 0.0
O60 O 0.12041 0.72488 0.82023 0.0
Co61 Co 0.13266 0.72419 0.78697 0.0
O62 O 0.14137 0.73124 0.80661 0.0
C63 C 0.11977 0.69338 0.79183 0.0
C64 C 0.0789 0.71101 0.80928 0.0
C65 C 0.13432 0.72966 0.81927 0.0
O66 O 0.11014 0.69867 0.80163 0.0
O67 O 0.12892 0.70179 0.78408 0.0
O68 O 0.09709 0.74185 0.80604 0.0
O69 O 0.11139 0.73016 0.78902 0.0
Co70 Co 0.76453 0.59223 0.29691 0.0
O71 O 0.77133 0.57178 0.29275 0.0
O72 O 0.77574 0.58454 0.31431 0.0
C73 C 0.74027 0.58979 0.28863 0.0
O74 O 0.75884 0.61299 0.30567 0.0
Co75 Co 0.75415 0.61395 0.27072 0.0
O76 O 0.74653 0.62692 0.28787 0.0
C77 C 0.78648 0.60515 0.27374 0.0
C78 C 0.77749 0.57211 0.30631 0.0
C79 C 0.75084 0.62469 0.30165 0.0
O80 O 0.78395 0.60046 0.28747 0.0
O81 O 0.77583 0.60938 0.2646 0.0
O82 O 0.74397 0.58504 0.30226 0.0
O83 O 0.75154 0.59404 0.2801 0.0
Co84 Co 0.90311 0.26956 0.79755 0.0
O85 O 0.92383 0.27575 0.79384 0.0
O86 O 0.91103 0.27994 0.81541 0.0
C87 C 0.90472 0.24544 0.78865 0.0
O88 O 0.88199 0.26436 0.80577 0.0
Co89 Co 0.88174 0.26111 0.77033 0.0
O90 O 0.86732 0.25488 0.78679 0.0
C91 C 0.89057 0.29313 0.77537 0.0
C92 C 0.92359 0.28148 0.80757 0.0
C93 C 0.86959 0.2581 0.80086 0.0
O94 O 0.89565 0.28961 0.78876 0.0
O95 O 0.88611 0.28313 0.76564 0.0
O96 O 0.90952 0.24865 0.80239 0.0
O97 O 0.9011 0.25709 0.78032 0.0
Co98 Co 0.22493 0.40638 0.30125 0.0
O99 O 0.21732 0.42671 0.2983 0.0
O100 O 0.21462 0.41315 0.31964 0.0
C101 C 0.24848 0.41022 0.29144 0.0
O102 O 0.23171 0.38537 0.3086 0.0
Co103 Co 0.23393 0.3865 0.27307 0.0
O104 O 0.24084 0.37157 0.2888 0.0
C105 C 0.20175 0.39413 0.27889 0.0
C106 C 0.21201 0.42576 0.31215 0.0
C107 C 0.2381 0.37331 0.30305 0.0
O108 O 0.20516 0.39794 0.29272 0.0
O109 O 0.21184 0.39104 0.26872 0.0
O110 O 0.2456 0.41409 0.30554 0.0
O111 O 0.23681 0.40578 0.28357 0.0
Co112 Co 0.18975 0.0962 0.27615 0.0
O113 O 0.19662 0.07699 0.28426 0.0
O114 O 0.1725 0.08498 0.28411 0.0
C115 C 0.20325 0.09509 0.25419 0.0
O116 O 0.17806 0.11478 0.26825 0.0
Co117 Co 0.21197 0.12313 0.26957 0.0
O118 O 0.19453 0.13147 0.25774 0.0
C119 C 0.20363 0.11545 0.30146 0.0
C120 C 0.18237 0.07445 0.28773 0.0
C121 C 0.18094 0.12674 0.26015 0.0
O122 O 0.19348 0.10586 0.2968 0.0
O123 O 0.21261 0.12279 0.2925 0.0
O124 O 0.19019 0.08801 0.25526 0.0
O125 O 0.20812 0.10148 0.26659 0.0
Co126 Co 0.39526 0.69413 0.77521 0.0
O127 O 0.41533 0.70233 0.77873 0.0
O128 O 0.40897 0.67785 0.78105 0.0
C129 C 0.39048 0.70651 0.75307 0.0
O130 O 0.37609 0.68123 0.77183 0.0
Co131 Co 0.36653 0.71527 0.77453 0.0
O132 O 0.35585 0.69662 0.76747 0.0
C133 C 0.38169 0.70836 0.80384 0.0
C134 C 0.41942 0.68841 0.78201 0.0
C135 C 0.36197 0.6834 0.76815 0.0
O136 O 0.39009 0.69809 0.79744 0.0
O137 O 0.3725 0.71709 0.79653 0.0
O138 O 0.39868 0.69409 0.75304 0.0
O139 O 0.38687 0.71172 0.76642 0.0
Co140 Co 0.79408 0.9058 0.2664 0.0
O141 O 0.78959 0.92639 0.27263 0.0
O142 O 0.81049 0.91341 0.27903 0.0
C143 C 0.78811 0.90824 0.24145 0.0
O144 O 0.80327 0.88498 0.26172 0.0
Co145 Co 0.76927 0.88393 0.25349 0.0
O146 O 0.78717 0.87153 0.24686 0.0
C147 C 0.76968 0.89137 0.28647 0.0
C148 C 0.80259 0.92598 0.27988 0.0
C149 C 0.80034 0.87363 0.25281 0.0
O150 O 0.78286 0.8978 0.28498 0.0
O151 O 0.76194 0.8863 0.27509 0.0
O152 O 0.80142 0.91274 0.2464 0.0
O153 O 0.7785 0.90403 0.25184 0.0
Co154 Co 0.60269 0.30315 0.77935 0.0
O155 O 0.58448 0.29358 0.78701 0.0
O156 O 0.58823 0.31867 0.78551 0.0
C157 C 0.60518 0.28846 0.75831 0.0
O158 O 0.61954 0.31729 0.77147 0.0
Co159 Co 0.63324 0.2853 0.77586 0.0
O160 O 0.63884 0.30278 0.76262 0.0
C161 C 0.62197 0.29378 0.8066 0.0
C162 C 0.57934 0.30734 0.78928 0.0
C163 C 0.632 0.31561 0.76374 0.0
O164 O 0.61153 0.30232 0.80069 0.0
O165 O 0.63111 0.28551 0.79868 0.0
O166 O 0.59588 0.30009 0.75822 0.0
O167 O 0.61152 0.28544 0.77132 0.0
Co168 Co 0.19538 0.90145 0.72609 0.0
O169 O 0.20155 0.92149 0.71966 0.0
O170 O 0.17827 0.91174 0.71665 0.0
C171 C 0.20591 0.90208 0.74963 0.0
O172 O 0.18455 0.88161 0.73177 0.0
Co173 Co 0.21958 0.87634 0.73364 0.0
O174 O 0.20161 0.86454 0.74083 0.0
C175 C 0.21321 0.88441 0.7015 0.0
C176 C 0.18764 0.92313 0.71464 0.0
C177 C 0.18792 0.86868 0.73797 0.0
O178 O 0.202 0.89303 0.70559 0.0
O179 O 0.22209 0.87755 0.71091 0.0
O180 O 0.19267 0.90845 0.7472 0.0
O181 O 0.21289 0.8971 0.7376 0.0
Co182 Co 0.59277 0.69935 0.22809 0.0
O183 O 0.57264 0.70549 0.22187 0.0
O184 O 0.58241 0.68224 0.21871 0.0
C185 C 0.59245 0.70979 0.25165 0.0
O186 O 0.61264 0.68861 0.23365 0.0
Co187 Co 0.61783 0.72357 0.23536 0.0
O188 O 0.629 0.70564 0.24389 0.0
C189 C 0.60707 0.71902 0.2038 0.0
C190 C 0.57096 0.69158 0.2169 0.0
C191 C 0.62507 0.69191 0.24085 0.0
O192 O 0.60105 0.70614 0.20761 0.0
O193 O 0.6128 0.72842 0.21346 0.0
O194 O 0.58601 0.69656 0.24931 0.0
O195 O 0.59718 0.71678 0.23954 0.0
Co196 Co 0.80134 0.09275 0.72747 0.0
O197 O 0.79613 0.07335 0.71871 0.0
O198 O 0.81889 0.08461 0.71676 0.0
C199 C 0.79114 0.08857 0.75077 0.0
O200 O 0.81113 0.11236 0.73534 0.0
Co201 Co 0.77613 0.1154 0.73821 0.0
O202 O 0.79356 0.12684 0.74733 0.0
C203 C 0.78051 0.10889 0.70537 0.0
C204 C 0.81004 0.0731 0.71347 0.0
C205 C 0.80739 0.12396 0.74363 0.0
O206 O 0.79373 0.10306 0.70827 0.0
O207 O 0.77117 0.11306 0.71588 0.0
O208 O 0.80477 0.08346 0.7476 0.0
O209 O 0.78382 0.09466 0.73949 0.0
Co210 Co 0.39358 0.31168 0.21744 0.0
O211 O 0.41164 0.30088 0.21125 0.0
O212 O 0.40898 0.32615 0.21099 0.0
C213 C 0.38979 0.2984 0.23922 0.0
O214 O 0.37706 0.32698 0.22364 0.0
Co215 Co 0.36229 0.29509 0.22055 0.0
O216 O 0.35514 0.31465 0.22932 0.0
C217 C 0.37523 0.30122 0.18994 0.0
C218 C 0.41751 0.31423 0.20841 0.0
C219 C 0.3632 0.32677 0.22863 0.0
O220 O 0.38561 0.30986 0.1958 0.0
O221 O 0.36561 0.29359 0.19793 0.0
O222 O 0.3994 0.30976 0.23897 0.0
O223 O 0.38376 0.29479 0.22621 0.0
Co224 Co 0.27499 0.19636 0.11125 0.0
O225 O 0.27668 0.20797 0.09262 0.0
O226 O 0.28039 0.18293 0.09466 0.0
C227 C 0.25283 0.20663 0.11947 0.0
O228 O 0.27339 0.18015 0.12798 0.0
Co229 Co 0.27576 0.21184 0.14327 0.0
O230 O 0.26981 0.19142 0.15089 0.0
C231 C 0.30413 0.20921 0.12524 0.0
C232 C 0.28007 0.19506 0.08604 0.0
C233 C 0.27047 0.17957 0.14242 0.0
O234 O 0.29736 0.20047 0.11551 0.0
O235 O 0.29728 0.21563 0.13649 0.0
O236 O 0.25273 0.19582 0.10924 0.0
O237 O 0.26618 0.21182 0.12321 0.0
Co238 Co 0.27494 0.8033 0.9015 0.0
O239 O 0.28271 0.79712 0.92109 0.0
O240 O 0.28332 0.82082 0.91198 0.0
C241 C 0.25253 0.79062 0.90298 0.0
O242 O 0.26748 0.81428 0.88229 0.0
Co243 Co 0.26799 0.7799 0.87564 0.0
O244 O 0.2563 0.79715 0.86671 0.0
C245 C 0.30001 0.78799 0.88294 0.0
C246 C 0.28654 0.81136 0.92301 0.0
C247 C 0.25908 0.81092 0.87064 0.0
O248 O 0.29554 0.79856 0.89215 0.0
O249 O 0.2909 0.77892 0.87591 0.0
O250 O 0.25402 0.80391 0.90953 0.0
O251 O 0.26483 0.78501 0.897 0.0
Co252 Co 0.70018 0.76955 0.40142 0.0
O253 O 0.70513 0.77544 0.42201 0.0
O254 O 0.68308 0.78029 0.41033 0.0
C255 C 0.70859 0.74521 0.40247 0.0
O256 O 0.69052 0.76474 0.3808 0.0
Co257 Co 0.72527 0.75993 0.37808 0.0
O258 O 0.70752 0.75216 0.36614 0.0
C259 C 0.72221 0.79229 0.38729 0.0
C260 C 0.69153 0.78146 0.42253 0.0
C261 C 0.69392 0.75667 0.36894 0.0
O262 O 0.70923 0.78939 0.39366 0.0
O263 O 0.73087 0.78186 0.38172 0.0
O264 O 0.69517 0.74869 0.40793 0.0
O265 O 0.71692 0.75666 0.39833 0.0
Co266 Co 0.72068 0.19215 0.89353 0.0
O267 O 0.71633 0.20161 0.91292 0.0
O268 O 0.71479 0.17672 0.9081 0.0
C269 C 0.74259 0.20484 0.88859 0.0
O270 O 0.72499 0.17792 0.87551 0.0
Co271 Co 0.72193 0.21067 0.86318 0.0
O272 O 0.73202 0.19206 0.85522 0.0
C273 C 0.69221 0.20452 0.87795 0.0
C274 C 0.71322 0.1879 0.91779 0.0
C275 C 0.73076 0.17922 0.862 0.0
O276 O 0.69856 0.19527 0.88749 0.0
O277 O 0.69964 0.21235 0.86805 0.0
O278 O 0.74271 0.19299 0.89762 0.0
O279 O 0.72924 0.20933 0.88411 0.0
Co280 Co 0.30222 0.22102 0.39256 0.0
O281 O 0.29434 0.21777 0.41281 0.0
O282 O 0.31862 0.21479 0.40597 0.0
C283 C 0.29035 0.24346 0.38793 0.0
O284 O 0.31481 0.22399 0.37311 0.0
Co285 Co 0.2805 0.22211 0.36426 0.0
O286 O 0.2991 0.22872 0.35321 0.0
C287 C 0.28697 0.19272 0.37939 0.0
C288 C 0.30825 0.21411 0.41662 0.0
C289 C 0.31243 0.22772 0.35905 0.0
O290 O 0.29756 0.1989 0.38755 0.0
O291 O 0.27825 0.20019 0.37032 0.0
O292 O 0.30292 0.24316 0.39592 0.0
O293 O 0.28469 0.23026 0.38447 0.0
Co294 Co 0.73104 0.79694 0.09392 0.0
O295 O 0.72448 0.79169 0.07363 0.0
O296 O 0.71925 0.81358 0.08544 0.0
C297 C 0.75557 0.78942 0.09171 0.0
O298 O 0.73632 0.80676 0.11437 0.0
Co299 Co 0.74254 0.77229 0.11682 0.0
O300 O 0.75093 0.7904 0.12782 0.0
C301 C 0.70974 0.7741 0.1089 0.0
C302 C 0.7179 0.80502 0.07333 0.0
C303 C 0.74554 0.80376 0.12547 0.0
O304 O 0.71194 0.78719 0.1025 0.0
O305 O 0.72065 0.7658 0.1141 0.0
O306 O 0.75138 0.80273 0.0865 0.0
O307 O 0.74463 0.7807 0.09642 0.0
Co308 Co 0.69834 0.22743 0.5997 0.0
O309 O 0.7042 0.22373 0.5789 0.0
O310 O 0.6816 0.21773 0.58901 0.0
C311 C 0.70687 0.25166 0.60167 0.0
O312 O 0.68812 0.22996 0.62042 0.0
Co313 Co 0.72335 0.23363 0.62433 0.0
O314 O 0.70552 0.23729 0.638 0.0
C315 C 0.72083 0.20358 0.60971 0.0
C316 C 0.69074 0.21763 0.57727 0.0
C317 C 0.69177 0.2344 0.63398 0.0
O318 O 0.70711 0.20684 0.60548 0.0
O319 O 0.72991 0.21338 0.6157 0.0
O320 O 0.69364 0.24895 0.59537 0.0
O321 O 0.71499 0.23973 0.60474 0.0
Co322 Co 0.30194 0.77541 0.59226 0.0
O323 O 0.29835 0.78142 0.57153 0.0
O324 O 0.32036 0.78446 0.58389 0.0
C325 C 0.29123 0.75199 0.59074 0.0
O326 O 0.30984 0.77 0.61352 0.0
Co327 Co 0.27402 0.76922 0.61359 0.0
O328 O 0.29003 0.76254 0.62829 0.0
C329 C 0.2807 0.80025 0.60274 0.0
C330 C 0.31238 0.78629 0.57144 0.0
C331 C 0.30432 0.76456 0.62607 0.0
O332 O 0.29441 0.79613 0.5993 0.0
O333 O 0.27027 0.79084 0.60688 0.0
O334 O 0.30523 0.75405 0.58609 0.0
O335 O 0.28394 0.76426 0.59444 0.0
Co336 Co 0.89473 0.71966 0.80384 0.0
O337 O 0.91356 0.7143 0.79392 0.0
O338 O 0.9094 0.71306 0.81897 0.0
C339 C 0.89083 0.74179 0.79122 0.0
O340 O 0.87716 0.72485 0.81835 0.0
Co341 Co 0.8643 0.72246 0.78545 0.0
O342 O 0.85592 0.73053 0.80484 0.0
C343 C 0.87775 0.69208 0.79143 0.0
C344 C 0.91866 0.71102 0.8075 0.0
C345 C 0.86322 0.72957 0.81744 0.0
O346 O 0.88748 0.6979 0.80083 0.0
O347 O 0.86835 0.70003 0.78349 0.0
O348 O 0.89997 0.74142 0.80297 0.0
O349 O 0.88554 0.72872 0.7868 0.0
Co350 Co 0.77062 0.40417 0.30227 0.0
O351 O 0.77864 0.42378 0.29652 0.0
O352 O 0.78033 0.41359 0.31975 0.0
C353 C 0.74747 0.40668 0.29118 0.0
O354 O 0.76325 0.38472 0.31278 0.0
Co355 Co 0.76151 0.37976 0.27799 0.0
O356 O 0.75131 0.36971 0.29563 0.0
C357 C 0.79411 0.38551 0.28474 0.0
C358 C 0.78331 0.42495 0.31061 0.0
C359 C 0.75485 0.37309 0.30939 0.0
O360 O 0.79055 0.3943 0.296 0.0
O361 O 0.78432 0.37938 0.27572 0.0
O362 O 0.75002 0.41268 0.30457 0.0
O363 O 0.75925 0.40084 0.28446 0.0
Co364 Co 0.08857 0.26551 0.79265 0.0
O365 O 0.06767 0.27165 0.79002 0.0
O366 O 0.08158 0.27583 0.8109 0.0
C367 C 0.08688 0.24137 0.7839 0.0
O368 O 0.11009 0.26035 0.79976 0.0
Co369 Co 0.10857 0.25739 0.76434 0.0
O370 O 0.12363 0.2507 0.78005 0.0
C371 C 0.10029 0.28939 0.7702 0.0
C372 C 0.06865 0.27741 0.80371 0.0
C373 C 0.12212 0.2539 0.79422 0.0
O374 O 0.09553 0.28562 0.78363 0.0
O375 O 0.10444 0.27956 0.76016 0.0
O376 O 0.08255 0.2446 0.79779 0.0
O377 O 0.08981 0.25304 0.77533 0.0
Co378 Co 0.22914 0.58843 0.30135 0.0
O379 O 0.22179 0.568 0.29806 0.0
O380 O 0.21718 0.58201 0.31878 0.0
C381 C 0.25352 0.58455 0.29395 0.0
O382 O 0.23524 0.60945 0.30927 0.0
Co383 Co 0.24136 0.60851 0.27468 0.0
O384 O 0.24898 0.6219 0.29145 0.0
C385 C 0.20842 0.60144 0.27695 0.0
C386 C 0.2153 0.56923 0.3114 0.0
C387 C 0.24392 0.62059 0.30509 0.0
O388 O 0.2103 0.59671 0.29079 0.0
O389 O 0.21957 0.60523 0.26822 0.0
O390 O 0.24926 0.58082 0.30773 0.0
O391 O 0.2427 0.58889 0.28489 0.0
Co392 Co 0.90621 0.2685 0.19822 0.0
O393 O 0.92666 0.27526 0.20254 0.0
O394 O 0.91438 0.27892 0.18056 0.0
C395 C 0.90816 0.24451 0.20738 0.0
O396 O 0.88564 0.26267 0.18921 0.0
Co397 Co 0.88374 0.25933 0.2242 0.0
O398 O 0.87145 0.25073 0.20703 0.0
C399 C 0.89243 0.29154 0.21989 0.0
C400 C 0.92666 0.28087 0.18875 0.0
C401 C 0.874 0.25458 0.19317 0.0
O402 O 0.89796 0.28839 0.20662 0.0
O403 O 0.88764 0.28139 0.2293 0.0
O404 O 0.91324 0.24772 0.19375 0.0
O405 O 0.90389 0.25609 0.21549 0.0
Co406 Co 0.22703 0.40343 0.7039 0.0
O407 O 0.22005 0.42351 0.70918 0.0
O408 O 0.2158 0.41199 0.68687 0.0
C409 C 0.25124 0.40579 0.71226 0.0
O410 O 0.23291 0.38315 0.69421 0.0
Co411 Co 0.23743 0.38076 0.72922 0.0
O412 O 0.24517 0.36861 0.71155 0.0
C413 C 0.20499 0.3891 0.72622 0.0
C414 C 0.21394 0.42388 0.69563 0.0
C415 C 0.24093 0.37134 0.69783 0.0
O416 O 0.20766 0.39459 0.71282 0.0
O417 O 0.21556 0.38453 0.73528 0.0
O418 O 0.24746 0.41102 0.69884 0.0
O419 O 0.24007 0.40102 0.72065 0.0
Co420 Co 0.10346 0.72359 0.19716 0.0
O421 O 0.08417 0.71901 0.2065 0.0
O422 O 0.08926 0.71676 0.18166 0.0
C423 C 0.10774 0.74608 0.20902 0.0
O424 O 0.12175 0.72776 0.18336 0.0
Co425 Co 0.13294 0.72571 0.21712 0.0
O426 O 0.1428 0.73202 0.19766 0.0
C427 C 0.11703 0.69647 0.21303 0.0
C428 C 0.07958 0.71522 0.19287 0.0
C429 C 0.13595 0.73143 0.18478 0.0
O430 O 0.11012 0.70182 0.20119 0.0
O431 O 0.12526 0.70465 0.22195 0.0
O432 O 0.09887 0.74557 0.19706 0.0
O433 O 0.11221 0.73299 0.21416 0.0
Co434 Co 0.77432 0.59567 0.69306 0.0
O435 O 0.78219 0.57625 0.69969 0.0
O436 O 0.78187 0.58445 0.67564 0.0
C437 C 0.75245 0.59511 0.70672 0.0
O438 O 0.76657 0.61441 0.68153 0.0
Co439 Co 0.76852 0.62271 0.71542 0.0
O440 O 0.75637 0.6311 0.69821 0.0
C441 C 0.80013 0.6144 0.70675 0.0
C442 C 0.78545 0.57379 0.68538 0.0
C443 C 0.7585 0.62636 0.68458 0.0
O444 O 0.7952 0.60495 0.6966 0.0
O445 O 0.79141 0.62187 0.71585 0.0
O446 O 0.75329 0.5879 0.69371 0.0
O447 O 0.76505 0.60114 0.71152 0.0
Co448 Co 0.80223 0.902 0.72468 0.0
O449 O 0.79773 0.9224 0.7181 0.0
O450 O 0.81966 0.91019 0.7138 0.0
C451 C 0.79362 0.90413 0.74885 0.0
O452 O 0.81111 0.88126 0.73016 0.0
Co453 Co 0.77576 0.88017 0.73407 0.0
O454 O 0.79267 0.86605 0.73984 0.0
C455 C 0.77953 0.88939 0.70202 0.0
C456 C 0.81131 0.92238 0.71207 0.0
C457 C 0.80663 0.86874 0.73647 0.0
O458 O 0.79323 0.89391 0.70498 0.0
O459 O 0.77005 0.88523 0.71239 0.0
O460 O 0.80728 0.90892 0.74539 0.0
O461 O 0.78523 0.89991 0.73745 0.0
Co462 Co 0.60177 0.30013 0.2235 0.0
O463 O 0.58253 0.29104 0.21821 0.0
O464 O 0.58743 0.31599 0.218 0.0
C465 C 0.60609 0.28651 0.24496 0.0
O466 O 0.62001 0.31369 0.2289 0.0
Co467 Co 0.6315 0.28048 0.22426 0.0
O468 O 0.63967 0.29843 0.2355 0.0
C469 C 0.61687 0.28804 0.19488 0.0
C470 C 0.57778 0.30489 0.21562 0.0
C471 C 0.63332 0.31156 0.23488 0.0
O472 O 0.60837 0.29808 0.20146 0.0
O473 O 0.6259 0.27904 0.20207 0.0
O474 O 0.59714 0.29841 0.24537 0.0
O475 O 0.61064 0.28245 0.2315 0.0
Co476 Co 0.20032 0.09364 0.72887 0.0
O477 O 0.2058 0.07369 0.7215 0.0
O478 O 0.18281 0.0843 0.71922 0.0
C479 C 0.21127 0.09161 0.75213 0.0
O480 O 0.19003 0.11342 0.73546 0.0
Co481 Co 0.22474 0.11802 0.73741 0.0
O482 O 0.20708 0.12946 0.74611 0.0
C483 C 0.21996 0.10907 0.70519 0.0
C484 C 0.19176 0.0727 0.71663 0.0
C485 C 0.19334 0.12572 0.74285 0.0
O486 O 0.20714 0.10275 0.70876 0.0
O487 O 0.22929 0.1144 0.71518 0.0
O488 O 0.19776 0.08579 0.74977 0.0
O489 O 0.21802 0.09709 0.74021 0.0
Co490 Co 0.39347 0.69337 0.22158 0.0
O491 O 0.41287 0.70145 0.21505 0.0
O492 O 0.40662 0.67683 0.21532 0.0
C493 C 0.39122 0.70735 0.24312 0.0
O494 O 0.37521 0.68043 0.22826 0.0
Co495 Co 0.3643 0.71345 0.22476 0.0
O496 O 0.35679 0.69602 0.23711 0.0
C497 C 0.37586 0.70517 0.19409 0.0
C498 C 0.41675 0.68733 0.21239 0.0
C499 C 0.3627 0.68277 0.23572 0.0
O500 O 0.38558 0.69579 0.19995 0.0
O501 O 0.36704 0.71376 0.20203 0.0
O502 O 0.39958 0.69503 0.24308 0.0
O503 O 0.38579 0.71144 0.22999 0.0
Co504 Co 0.80024 0.09393 0.26585 0.0
O505 O 0.79511 0.07348 0.2718 0.0
O506 O 0.81725 0.08493 0.27679 0.0
C507 C 0.79172 0.09259 0.24155 0.0
O508 O 0.8098 0.1146 0.26106 0.0
Co509 Co 0.77486 0.117 0.25624 0.0
O510 O 0.79262 0.12878 0.2481 0.0
C511 C 0.77766 0.10695 0.28831 0.0
C512 C 0.80858 0.0729 0.27808 0.0
C513 C 0.80623 0.12625 0.25278 0.0
O514 O 0.79116 0.10174 0.28558 0.0
O515 O 0.76872 0.11202 0.27786 0.0
O516 O 0.80523 0.08732 0.24496 0.0
O517 O 0.7835 0.09688 0.25302 0.0
Co518 Co 0.39985 0.29536 0.76977 0.0
O519 O 0.41976 0.28819 0.77544 0.0
O520 O 0.41087 0.3116 0.77998 0.0
C521 C 0.3998 0.28614 0.74571 0.0
O522 O 0.38019 0.30695 0.76513 0.0
Co523 Co 0.37398 0.27243 0.76127 0.0
O524 O 0.3642 0.29108 0.75263 0.0
C525 C 0.38505 0.27487 0.79313 0.0
C526 C 0.42191 0.30169 0.78126 0.0
C527 C 0.36818 0.30444 0.75696 0.0
O528 O 0.3917 0.28761 0.78993 0.0
O529 O 0.37859 0.26645 0.783 0.0
O530 O 0.4065 0.29911 0.74866 0.0
O531 O 0.39486 0.27871 0.75746 0.0
Co532 Co 0.20106 0.90621 0.27034 0.0
O533 O 0.20482 0.92677 0.277 0.0
O534 O 0.18358 0.91359 0.28165 0.0
C535 C 0.20904 0.90874 0.24598 0.0
O536 O 0.19277 0.88522 0.26482 0.0
Co537 Co 0.22794 0.88524 0.26013 0.0
O538 O 0.21135 0.87079 0.25428 0.0
C539 C 0.22468 0.89409 0.29236 0.0
C540 C 0.19133 0.92619 0.28325 0.0
C541 C 0.19742 0.87299 0.25806 0.0
O542 O 0.2108 0.89828 0.28977 0.0
O543 O 0.234 0.89025 0.28173 0.0
O544 O 0.19536 0.9132 0.24981 0.0
O545 O 0.21779 0.90473 0.25718 0.0
Co546 Co 0.60124 0.6957 0.772 0.0
O547 O 0.5811 0.70369 0.77572 0.0
O548 O 0.58793 0.67939 0.77855 0.0
C549 C 0.60536 0.70756 0.74947 0.0
O550 O 0.62043 0.68291 0.76858 0.0
Co551 Co 0.62983 0.71686 0.76989 0.0
O552 O 0.6405 0.69808 0.76304 0.0
C553 C 0.61545 0.71079 0.79983 0.0
C554 C 0.57733 0.68979 0.77944 0.0
C555 C 0.6344 0.6849 0.76436 0.0
O556 O 0.60687 0.70036 0.79397 0.0
O557 O 0.62446 0.71928 0.79202 0.0
O558 O 0.59742 0.69497 0.74992 0.0
O559 O 0.6092 0.71318 0.76258 0.0
Co560 Co 0.72408 0.80462 0.90086 0.0
O561 O 0.71645 0.79736 0.92013 0.0
O562 O 0.71525 0.82144 0.91217 0.0
C563 C 0.74673 0.79232 0.90196 0.0
O564 O 0.73125 0.8166 0.88211 0.0
Co565 Co 0.73189 0.78269 0.87399 0.0
O566 O 0.74397 0.80044 0.86667 0.0
C567 C 0.69955 0.78974 0.88128 0.0
C568 C 0.71229 0.81139 0.92275 0.0
C569 C 0.74042 0.81394 0.87088 0.0
O570 O 0.70365 0.7998 0.89122 0.0
O571 O 0.70897 0.78137 0.87379 0.0
O572 O 0.74499 0.80533 0.90899 0.0
O573 O 0.73459 0.78678 0.89562 0.0
Co574 Co 0.73012 0.20226 0.09454 0.0
O575 O 0.72487 0.20842 0.07418 0.0
O576 O 0.71881 0.18606 0.08464 0.0
C577 C 0.7547 0.20979 0.09405 0.0
O578 O 0.7343 0.19163 0.11488 0.0
Co579 Co 0.74003 0.22633 0.11881 0.0
O580 O 0.74695 0.20796 0.13026 0.0
C581 C 0.7082 0.22533 0.10772 0.0
C582 C 0.71821 0.19519 0.07289 0.0
C583 C 0.74228 0.19452 0.12695 0.0
O584 O 0.71053 0.21188 0.10217 0.0
O585 O 0.71889 0.23351 0.11352 0.0
O586 O 0.75087 0.19667 0.08814 0.0
O587 O 0.7435 0.21834 0.09843 0.0
Co588 Co 0.29364 0.2296 0.59365 0.0
O589 O 0.28813 0.22487 0.57295 0.0
O590 O 0.31068 0.21979 0.58354 0.0
C591 C 0.28466 0.25372 0.59429 0.0
O592 O 0.30369 0.23344 0.61429 0.0
Co593 Co 0.26857 0.23685 0.61788 0.0
O594 O 0.28639 0.24405 0.63014 0.0
C595 C 0.27193 0.20572 0.60561 0.0
C596 C 0.3018 0.21916 0.5716 0.0
C597 C 0.30014 0.2404 0.62679 0.0
O598 O 0.28528 0.20914 0.60043 0.0
O599 O 0.26278 0.21558 0.61143 0.0
O600 O 0.298 0.25093 0.58827 0.0
O601 O 0.27672 0.24183 0.59791 0.0
Co602 Co 0.27422 0.80528 0.09677 0.0
O603 O 0.28184 0.79855 0.07728 0.0
O604 O 0.28209 0.82257 0.08556 0.0
C605 C 0.25209 0.79206 0.0961 0.0
O606 O 0.26678 0.81687 0.11563 0.0
Co607 Co 0.26799 0.78286 0.12365 0.0
O608 O 0.25616 0.80025 0.1321 0.0
C609 C 0.29977 0.79087 0.1153 0.0
C610 C 0.28537 0.81279 0.07483 0.0
C611 C 0.25861 0.81387 0.12753 0.0
O612 O 0.29505 0.80123 0.10595 0.0
O613 O 0.29086 0.78192 0.12271 0.0
O614 O 0.25315 0.80513 0.08904 0.0
O615 O 0.26459 0.787 0.10211 0.0
Co616 Co 0.70159 0.76693 0.58983 0.0
O617 O 0.7051 0.77346 0.56922 0.0
O618 O 0.68421 0.7787 0.58275 0.0
C619 C 0.70887 0.74239 0.58703 0.0
O620 O 0.69381 0.7616 0.61115 0.0
Co621 Co 0.72893 0.75595 0.60985 0.0
O622 O 0.71238 0.74908 0.62388 0.0
C623 C 0.72559 0.78863 0.60251 0.0
C624 C 0.69181 0.78008 0.57001 0.0
C625 C 0.69858 0.75374 0.62268 0.0
O626 O 0.71194 0.78611 0.59754 0.0
O627 O 0.73474 0.7779 0.60652 0.0
O628 O 0.69517 0.74659 0.58297 0.0
O629 O 0.71801 0.75336 0.59077 0.0
Co630 Co 0.26991 0.19896 0.89851 0.0
O631 O 0.2717 0.20996 0.91749 0.0
O632 O 0.27522 0.18496 0.91464 0.0
C633 C 0.2479 0.20957 0.89038 0.0
O634 O 0.26826 0.18346 0.8812 0.0
Co635 Co 0.27112 0.2159 0.86719 0.0
O636 O 0.2658 0.19559 0.85857 0.0
C637 C 0.29866 0.21349 0.88624 0.0
C638 C 0.27508 0.19683 0.92362 0.0
C639 C 0.26594 0.18344 0.86665 0.0
O640 O 0.29231 0.20296 0.89432 0.0
O641 O 0.29165 0.22113 0.87592 0.0
O642 O 0.2476 0.19853 0.90037 0.0
O643 O 0.2613 0.21482 0.88708 0.0
Co644 Co 0.29709 0.76814 0.40222 0.0
O645 O 0.29327 0.77345 0.42323 0.0
O646 O 0.315 0.77776 0.41076 0.0
C647 C 0.28771 0.74415 0.40248 0.0
O648 O 0.30565 0.7638 0.38108 0.0
Co649 Co 0.27043 0.76107 0.37971 0.0
O650 O 0.28711 0.75522 0.36537 0.0
C651 C 0.27548 0.79254 0.39043 0.0
C652 C 0.30713 0.77888 0.42334 0.0
C653 C 0.30112 0.75815 0.36827 0.0
O654 O 0.28874 0.78868 0.39558 0.0
O655 O 0.2658 0.78285 0.38522 0.0
O656 O 0.30141 0.74685 0.40768 0.0
O657 O 0.27967 0.75611 0.39925 0.0
Co658 Co 0.70375 0.2262 0.40317 0.0
O659 O 0.70773 0.21989 0.42376 0.0
O660 O 0.68607 0.21549 0.41109 0.0
C661 C 0.71224 0.25044 0.40502 0.0
O662 O 0.69546 0.23145 0.38207 0.0
Co663 Co 0.73098 0.23514 0.382 0.0
O664 O 0.71445 0.24123 0.36761 0.0
C665 C 0.72632 0.20302 0.39066 0.0
C666 C 0.69411 0.21395 0.42352 0.0
C667 C 0.7004 0.23784 0.36975 0.0
O668 O 0.71283 0.20636 0.39556 0.0
O669 O 0.73597 0.21317 0.38633 0.0
O670 O 0.69858 0.24695 0.40979 0.0
O671 O 0.72076 0.23896 0.40128 0.0
C672 C 0.95058 0.29561 0.19299 0.0
C673 C 0.94013 0.28901 0.18274 0.0
C674 C 0.9641 0.30211 0.18762 0.0
C675 C 0.99201 0.29479 0.15907 0.0
H676 H 0.01236 0.32822 0.18002 0.0
C677 C 0.05599 0.29161 0.17085 0.0
C678 C 0.05782 0.29149 0.18683 0.0
C679 C 0.04262 0.29765 0.16434 0.0
C680 C 0.00683 0.31904 0.17376 0.0
H681 H 0.93518 0.28463 0.15881 0.0
H682 H 0.95935 0.29553 0.14941 0.0
H683 H 0.98443 0.32723 0.17941 0.0
H684 H 0.04806 0.2988 0.20843 0.0
H685 H 0.025 0.3094 0.19721 0.0
H686 H 0.01433 0.28575 0.15479 0.0
C687 C 0.95686 0.29588 0.16156 0.0
C688 C 0.99087 0.31848 0.17342 0.0
C689 C 0.94311 0.28963 0.16694 0.0
C690 C 0.04682 0.29861 0.19608 0.0
C691 C 0.03369 0.30487 0.1896 0.0
C692 C 0.00799 0.29532 0.15947 0.0
C693 C 0.9676 0.30193 0.17191 0.0
C694 C 0.98337 0.30575 0.16706 0.0
C695 C 0.03114 0.30393 0.17373 0.0
C696 C 0.01549 0.30683 0.16786 0.0
H697 H 0.94848 0.29541 0.20521 0.0
H698 H 0.97226 0.30643 0.19591 0.0
H699 H 0.98653 0.28486 0.15406 0.0
H700 H 0.06438 0.28619 0.1635 0.0
H701 H 0.04093 0.29676 0.15208 0.0
C702 C 0.20612 0.55512 0.66842 0.0
C703 C 0.20234 0.56381 0.6814 0.0
C704 C 0.20178 0.53972 0.66754 0.0
C705 C 0.19432 0.50885 0.69469 0.0
H706 H 0.1875 0.48416 0.65842 0.0
C707 C 0.19581 0.44491 0.70094 0.0
C708 C 0.20555 0.4375 0.69059 0.0
C709 C 0.19011 0.45941 0.69761 0.0
C710 C 0.18935 0.49093 0.66864 0.0
H711 H 0.18969 0.56401 0.70272 0.0
H712 H 0.18155 0.53744 0.70091 0.0
H713 H 0.18708 0.51217 0.65647 0.0
H714 H 0.21611 0.43863 0.66821 0.0
H715 H 0.20688 0.46451 0.66267 0.0
H716 H 0.19733 0.488 0.70681 0.0
C717 C 0.1884 0.54218 0.69173 0.0
C718 C 0.18912 0.50694 0.66752 0.0
C719 C 0.19302 0.55739 0.69277 0.0
C720 C 0.2086 0.44423 0.67634 0.0
C721 C 0.20323 0.459 0.67316 0.0
C722 C 0.19456 0.493 0.6958 0.0
C723 C 0.19339 0.53294 0.67952 0.0
C724 C 0.1918 0.51606 0.68054 0.0
C725 C 0.19454 0.46701 0.68412 0.0
C726 C 0.19228 0.48381 0.6828 0.0
H727 H 0.21326 0.55992 0.65949 0.0
H728 H 0.20586 0.53292 0.65801 0.0
H729 H 0.19689 0.51543 0.70488 0.0
H730 H 0.19312 0.43974 0.7119 0.0
H731 H 0.18303 0.46507 0.70608 0.0
C732 C 0.05602 0.71208 0.17687 0.0
C733 C 0.06406 0.70921 0.19048 0.0
C734 C 0.04056 0.70801 0.17565 0.0
C735 C 0.00815 0.70264 0.20164 0.0
H736 H 0.98557 0.69229 0.16482 0.0
C737 C 0.94397 0.70136 0.2047 0.0
C738 C 0.93669 0.71035 0.1936 0.0
C739 C 0.95887 0.69624 0.20237 0.0
C740 C 0.99176 0.69513 0.17519 0.0
H741 H 0.06298 0.69848 0.21282 0.0
H742 H 0.03632 0.6908 0.2105 0.0
H743 H 0.01367 0.69247 0.16434 0.0
H744 H 0.93854 0.72001 0.17085 0.0
H745 H 0.96505 0.71169 0.16701 0.0
H746 H 0.98658 0.70587 0.21241 0.0
C747 C 0.04161 0.69678 0.201 0.0
C748 C 0.00782 0.69527 0.17491 0.0
C749 C 0.05688 0.70115 0.20234 0.0
C750 C 0.94402 0.71311 0.17958 0.0
C751 C 0.95915 0.70827 0.17737 0.0
C752 C 0.99226 0.70247 0.20192 0.0
C753 C 0.03307 0.70078 0.18795 0.0
C754 C 0.01616 0.69917 0.18814 0.0
C755 C 0.96694 0.70042 0.18909 0.0
C756 C 0.98384 0.69885 0.18871 0.0
H757 H 0.06141 0.71822 0.16754 0.0
H758 H 0.03431 0.71131 0.16547 0.0
H759 H 0.01412 0.70617 0.21193 0.0
H760 H 0.93837 0.69885 0.21549 0.0
H761 H 0.96442 0.68981 0.21142 0.0
C762 C 0.79147 0.44161 0.66993 0.0
C763 C 0.79039 0.43925 0.68581 0.0
C764 C 0.79787 0.45517 0.66424 0.0
C765 C 0.819 0.49038 0.67576 0.0
H766 H 0.7868 0.51159 0.65379 0.0
C767 C 0.79892 0.54943 0.69141 0.0
C768 C 0.79269 0.55937 0.68045 0.0
C769 C 0.80457 0.53517 0.68707 0.0
C770 C 0.7962 0.50585 0.6595 0.0
H771 H 0.79629 0.44835 0.70813 0.0
H772 H 0.80747 0.4718 0.6983 0.0
H773 H 0.78668 0.48381 0.65484 0.0
H774 H 0.78824 0.5626 0.65622 0.0
H775 H 0.79787 0.53737 0.64865 0.0
H776 H 0.82779 0.51253 0.68146 0.0
C777 C 0.80343 0.46334 0.69018 0.0
C778 C 0.79614 0.48988 0.66008 0.0
C779 C 0.79684 0.44999 0.69584 0.0
C780 C 0.7929 0.5551 0.66493 0.0
C781 C 0.79842 0.5407 0.66058 0.0
C782 C 0.81907 0.50634 0.67517 0.0
C783 C 0.80351 0.46634 0.67436 0.0
C784 C 0.80694 0.48208 0.6691 0.0
C785 C 0.80401 0.53047 0.67168 0.0
C786 C 0.80707 0.51422 0.66791 0.0
H787 H 0.7866 0.43344 0.66198 0.0
H788 H 0.79778 0.45722 0.65201 0.0
H789 H 0.82763 0.4846 0.68255 0.0
H790 H 0.79905 0.55248 0.70344 0.0
H791 H 0.80855 0.52747 0.69595 0.0
C792 C 0.94229 0.69902 0.79722 0.0
C793 C 0.93443 0.70549 0.80963 0.0
C794 C 0.95773 0.69531 0.79852 0.0
C795 C 0.99059 0.69161 0.82535 0.0
H796 H 0.01301 0.70702 0.79027 0.0
C797 C 0.05534 0.70708 0.82511 0.0
C798 C 0.06324 0.70518 0.81124 0.0
C799 C 0.03973 0.70355 0.82602 0.0
C800 C 0.00698 0.70235 0.80005 0.0
H801 H 0.93618 0.71229 0.83344 0.0
H802 H 0.96347 0.70634 0.83558 0.0
H803 H 0.98537 0.70718 0.78988 0.0
H804 H 0.06162 0.69669 0.78797 0.0
H805 H 0.03462 0.6901 0.78967 0.0
H806 H 0.0125 0.68726 0.83564 0.0
C807 C 0.95763 0.70387 0.82492 0.0
C808 C 0.99107 0.70244 0.79982 0.0
C809 C 0.94204 0.70738 0.82367 0.0
C810 C 0.05568 0.69858 0.7987 0.0
C811 C 0.04023 0.69483 0.79967 0.0
C812 C 0.00663 0.69152 0.82558 0.0
C813 C 0.96573 0.69827 0.81218 0.0
C814 C 0.98267 0.69712 0.81245 0.0
C815 C 0.03192 0.6979 0.81311 0.0
C816 C 0.01497 0.69694 0.81291 0.0
H817 H 0.93659 0.69714 0.78636 0.0
H818 H 0.96356 0.69061 0.78863 0.0
H819 H 0.9844 0.6874 0.83524 0.0
H820 H 0.06098 0.71209 0.83495 0.0
H821 H 0.03363 0.70608 0.83652 0.0
C822 C 0.79194 0.54804 0.30198 0.0
C823 C 0.78596 0.55882 0.31226 0.0
C824 C 0.79867 0.53464 0.30738 0.0
C825 C 0.79311 0.50775 0.33745 0.0
H826 H 0.82543 0.48651 0.31565 0.0
C827 C 0.79156 0.44271 0.33159 0.0
C828 C 0.79113 0.4389 0.31596 0.0
C829 C 0.79703 0.45704 0.33626 0.0
C830 C 0.81654 0.4923 0.32207 0.0
H831 H 0.78294 0.5645 0.33623 0.0
H832 H 0.7943 0.5406 0.34574 0.0
H833 H 0.82405 0.5144 0.31459 0.0
H834 H 0.79722 0.44641 0.29311 0.0
H835 H 0.80669 0.47123 0.30114 0.0
H836 H 0.78474 0.48566 0.34375 0.0
C837 C 0.79395 0.5427 0.33352 0.0
C838 C 0.81577 0.50825 0.32148 0.0
C839 C 0.78745 0.55631 0.32808 0.0
C840 C 0.79727 0.44912 0.30522 0.0
C841 C 0.80289 0.46328 0.30987 0.0
C842 C 0.79385 0.49179 0.33799 0.0
C843 C 0.79936 0.53162 0.32317 0.0
C844 C 0.80345 0.51601 0.32831 0.0
C845 C 0.80236 0.46762 0.32537 0.0
C846 C 0.80495 0.4839 0.32941 0.0
H847 H 0.79107 0.54976 0.28973 0.0
H848 H 0.8025 0.52621 0.29912 0.0
H849 H 0.78349 0.51344 0.34282 0.0
H850 H 0.78694 0.43498 0.34012 0.0
H851 H 0.79652 0.46007 0.34828 0.0
C852 C 0.04451 0.29209 0.80101 0.0
C853 C 0.05555 0.28546 0.81059 0.0
C854 C 0.03133 0.29856 0.80719 0.0
C855 C 0.0051 0.29125 0.83727 0.0
H856 H 0.98372 0.32474 0.81747 0.0
C857 C 0.94014 0.28938 0.82966 0.0
C858 C 0.93717 0.28922 0.81384 0.0
C859 C 0.95417 0.29489 0.83517 0.0
C860 C 0.98956 0.31555 0.82341 0.0
H861 H 0.06192 0.28099 0.83416 0.0
H862 H 0.03833 0.29185 0.84503 0.0
H863 H 0.01164 0.32369 0.81659 0.0
H864 H 0.94578 0.2958 0.79153 0.0
H865 H 0.97001 0.30551 0.80105 0.0
H866 H 0.98299 0.2823 0.84279 0.0
C867 C 0.04009 0.29224 0.83275 0.0
C868 C 0.00551 0.31495 0.82291 0.0
C869 C 0.05351 0.28601 0.82655 0.0
C870 C 0.94787 0.29565 0.80377 0.0
C871 C 0.96167 0.30141 0.80926 0.0
C872 C 0.98912 0.29183 0.83775 0.0
C873 C 0.02877 0.29834 0.82307 0.0
C874 C 0.01331 0.3022 0.82883 0.0
C875 C 0.9652 0.30064 0.82495 0.0
C876 C 0.98121 0.30338 0.8298 0.0
H877 H 0.04588 0.29194 0.78868 0.0
H878 H 0.0227 0.30292 0.7994 0.0
H879 H 0.01082 0.28129 0.84196 0.0
H880 H 0.93201 0.2845 0.83765 0.0
H881 H 0.95664 0.29413 0.84731 0.0
C882 C 0.19635 0.4492 0.30919 0.0
C883 C 0.2036 0.4387 0.31892 0.0
C884 C 0.19019 0.46267 0.31503 0.0
C885 C 0.19979 0.4899 0.34394 0.0
H886 H 0.16789 0.51242 0.32283 0.0
C887 C 0.20552 0.55425 0.3338 0.0
C888 C 0.2065 0.55642 0.31789 0.0
C889 C 0.19901 0.54085 0.33972 0.0
C890 C 0.17662 0.50629 0.32915 0.0
H891 H 0.20924 0.43343 0.3425 0.0
H892 H 0.19879 0.45744 0.35278 0.0
H893 H 0.16701 0.4845 0.32343 0.0
H894 H 0.20039 0.5471 0.29573 0.0
H895 H 0.18887 0.52394 0.30596 0.0
H896 H 0.2101 0.51162 0.34853 0.0
C897 C 0.19776 0.45511 0.34063 0.0
C898 C 0.17614 0.49032 0.32948 0.0
C899 C 0.20373 0.44142 0.33477 0.0
C900 C 0.1999 0.54562 0.30804 0.0
C901 C 0.19313 0.53245 0.31393 0.0
C902 C 0.20022 0.50588 0.34368 0.0
C903 C 0.19132 0.46607 0.33073 0.0
C904 C 0.18837 0.48199 0.33582 0.0
C905 C 0.19306 0.52968 0.32979 0.0
C906 C 0.18926 0.51411 0.33528 0.0
H907 H 0.19595 0.44728 0.29693 0.0
H908 H 0.18555 0.47092 0.30702 0.0
H909 H 0.20937 0.48382 0.34895 0.0
H910 H 0.21054 0.56247 0.34162 0.0
H911 H 0.19917 0.53893 0.35198 0.0
C912 C 0.19522 0.95055 0.29734 0.0
C913 C 0.18515 0.93947 0.29157 0.0
C914 C 0.18958 0.96398 0.30378 0.0
C915 C 0.15896 0.99012 0.29759 0.0
H916 H 0.18022 0.01262 0.32943 0.0
C917 C 0.1623 0.0554 0.29531 0.0
C918 C 0.17771 0.06002 0.29511 0.0
C919 C 0.15831 0.04086 0.30072 0.0
C920 C 0.17397 0.00647 0.32066 0.0
H921 H 0.16129 0.93327 0.2887 0.0
H922 H 0.15135 0.95721 0.29958 0.0
H923 H 0.18206 0.98475 0.32861 0.0
H924 H 0.20085 0.05364 0.30145 0.0
H925 H 0.19399 0.0284 0.31072 0.0
H926 H 0.15201 0.01184 0.28879 0.0
C927 C 0.16361 0.95533 0.29927 0.0
C928 C 0.175 0.99054 0.32022 0.0
C929 C 0.16928 0.94169 0.29304 0.0
C930 C 0.1889 0.05032 0.30131 0.0
C931 C 0.18492 0.03591 0.30683 0.0
C932 C 0.15799 0.00607 0.29799 0.0
C933 C 0.17374 0.96672 0.30441 0.0
C934 C 0.16832 0.98233 0.3081 0.0
C935 C 0.16966 0.03083 0.30618 0.0
C936 C 0.16633 0.01442 0.30894 0.0
H937 H 0.20751 0.94904 0.29647 0.0
H938 H 0.19769 0.97264 0.30741 0.0
H939 H 0.15371 0.98409 0.28811 0.0
H940 H 0.15343 0.06272 0.29067 0.0
H941 H 0.14646 0.03725 0.30012 0.0
C942 C 0.55668 0.67082 0.78551 0.0
C943 C 0.56167 0.68608 0.78453 0.0
C944 C 0.54155 0.6675 0.78958 0.0
C945 C 0.50682 0.6845 0.80697 0.0
H946 H 0.48458 0.66014 0.77724 0.0
C947 C 0.44531 0.69688 0.7903 0.0
C948 C 0.43525 0.68489 0.78669 0.0
C949 C 0.4605 0.69382 0.79404 0.0
C950 C 0.49063 0.66664 0.78589 0.0
H951 H 0.55501 0.70979 0.78765 0.0
H952 H 0.52872 0.70404 0.79473 0.0
H953 H 0.5125 0.66044 0.77672 0.0
H954 H 0.43301 0.66026 0.78462 0.0
H955 H 0.45983 0.6549 0.79095 0.0
H956 H 0.48495 0.69134 0.81562 0.0
C957 C 0.53645 0.69462 0.79244 0.0
C958 C 0.50663 0.66682 0.78559 0.0
C959 C 0.55147 0.69792 0.78821 0.0
C960 C 0.44056 0.66972 0.7873 0.0
C961 C 0.45587 0.66665 0.79091 0.0
C962 C 0.49086 0.68431 0.80728 0.0
C963 C 0.53126 0.6794 0.79296 0.0
C964 C 0.51482 0.67632 0.79566 0.0
C965 C 0.46602 0.67871 0.79417 0.0
C966 C 0.48261 0.67595 0.79628 0.0
H967 H 0.56435 0.66146 0.78278 0.0
H968 H 0.53783 0.65568 0.78992 0.0
H969 H 0.51289 0.69168 0.81506 0.0
H970 H 0.44152 0.70868 0.79002 0.0
H971 H 0.46809 0.70338 0.79625 0.0
C972 C 0.82906 0.05541 0.28811 0.0
C973 C 0.8135 0.05911 0.28642 0.0
C974 C 0.83335 0.04134 0.29453 0.0
C975 C 0.8179 0.00745 0.31534 0.0
H976 H 0.8399 0.98389 0.28483 0.0
C977 C 0.79794 0.95076 0.29302 0.0
C978 C 0.80828 0.93947 0.28823 0.0
C979 C 0.80327 0.96439 0.29933 0.0
C980 C 0.83416 0.99028 0.29379 0.0
H981 H 0.79029 0.05171 0.29112 0.0
H982 H 0.79766 0.02742 0.30229 0.0
H983 H 0.84126 0.0117 0.28433 0.0
H984 H 0.83224 0.93312 0.28696 0.0
H985 H 0.84165 0.95739 0.29756 0.0
H986 H 0.80964 0.98601 0.32386 0.0
C987 C 0.80662 0.03522 0.29874 0.0
C988 C 0.83495 0.00624 0.2935 0.0
C989 C 0.80237 0.04906 0.29212 0.0
C990 C 0.82404 0.9417 0.29056 0.0
C991 C 0.82942 0.95553 0.29662 0.0
C992 C 0.81707 0.9915 0.31558 0.0
C993 C 0.82212 0.03099 0.29963 0.0
C994 C 0.82594 0.01496 0.3036 0.0
C995 C 0.81907 0.96712 0.30076 0.0
C996 C 0.82435 0.98285 0.30414 0.0
H997 H 0.83786 0.06303 0.28382 0.0
H998 H 0.84537 0.03833 0.29504 0.0
H999 H 0.81111 0.01391 0.32346 0.0
H1000 H 0.78572 0.94926 0.29146 0.0
H1001 H 0.79501 0.9732 0.30218 0.0
C1002 C 0.55563 0.32318 0.79177 0.0
C1003 C 0.56381 0.3098 0.79529 0.0
C1004 C 0.54005 0.32426 0.79535 0.0
C1005 C 0.50805 0.29788 0.79941 0.0
H1006 H 0.48426 0.3342 0.80867 0.0
C1007 C 0.4437 0.2939 0.79753 0.0
C1008 C 0.43638 0.30531 0.78898 0.0
C1009 C 0.45852 0.29615 0.80293 0.0
C1010 C 0.49078 0.32398 0.80608 0.0
H1011 H 0.56277 0.28782 0.80673 0.0
H1012 H 0.53579 0.28987 0.8134 0.0
H1013 H 0.51231 0.3352 0.81001 0.0
H1014 H 0.43814 0.32841 0.7802 0.0
H1015 H 0.46455 0.33213 0.78894 0.0
H1016 H 0.48692 0.28676 0.79479 0.0
C1017 C 0.54116 0.2993 0.8074 0.0
C1018 C 0.5068 0.32455 0.80687 0.0
C1019 C 0.5566 0.29812 0.8036 0.0
C1020 C 0.44366 0.31944 0.78676 0.0
C1021 C 0.45872 0.32158 0.79185 0.0
C1022 C 0.49219 0.29732 0.7986 0.0
C1023 C 0.53254 0.31204 0.80267 0.0
C1024 C 0.51559 0.3115 0.80342 0.0
C1025 C 0.46651 0.30968 0.79944 0.0
C1026 C 0.48332 0.31036 0.8018 0.0
H1027 H 0.56099 0.33238 0.78542 0.0
H1028 H 0.53371 0.3342 0.79151 0.0
H1029 H 0.51444 0.28774 0.79623 0.0
H1030 H 0.43813 0.28301 0.79964 0.0
H1031 H 0.464 0.28695 0.80918 0.0
C1032 C 0.19684 0.04818 0.70312 0.0
C1033 C 0.18625 0.05882 0.70881 0.0
C1034 C 0.19187 0.03431 0.69706 0.0
C1035 C 0.1622 0.00682 0.70368 0.0
H1036 H 0.18484 0.98459 0.67262 0.0
C1037 C 0.16727 0.94151 0.7062 0.0
C1038 C 0.18281 0.93745 0.70719 0.0
C1039 C 0.16304 0.95594 0.70068 0.0
C1040 C 0.1782 0.99066 0.68116 0.0
H1041 H 0.16211 0.06372 0.7119 0.0
H1042 H 0.15338 0.03911 0.7016 0.0
H1043 H 0.18571 0.01252 0.67303 0.0
H1044 H 0.206 0.94472 0.70215 0.0
H1045 H 0.1987 0.96973 0.69256 0.0
H1046 H 0.1557 0.98497 0.71257 0.0
C1047 C 0.16552 0.04163 0.70175 0.0
C1048 C 0.1787 0.00662 0.68139 0.0
C1049 C 0.17052 0.05566 0.70764 0.0
C1050 C 0.19395 0.94761 0.70167 0.0
C1051 C 0.18973 0.96187 0.69597 0.0
C1052 C 0.16171 0.99084 0.70345 0.0
C1053 C 0.17619 0.03069 0.6967 0.0
C1054 C 0.17151 0.01477 0.69325 0.0
C1055 C 0.17428 0.96638 0.69581 0.0
C1056 C 0.17052 0.98263 0.69279 0.0
H1057 H 0.20904 0.05038 0.70374 0.0
H1058 H 0.20039 0.02604 0.69349 0.0
H1059 H 0.15655 0.01279 0.71296 0.0
H1060 H 0.15846 0.93382 0.71034 0.0
H1061 H 0.15105 0.95914 0.70067 0.0
C1062 C 0.44202 0.69506 0.20167 0.0
C1063 C 0.43211 0.68342 0.2066 0.0
C1064 C 0.45696 0.69162 0.19728 0.0
C1065 C 0.48702 0.66467 0.20629 0.0
H1066 H 0.50903 0.68842 0.17591 0.0
C1067 C 0.55247 0.67113 0.20891 0.0
C1068 C 0.55646 0.68669 0.2098 0.0
C1069 C 0.53792 0.66683 0.20372 0.0
C1070 C 0.50303 0.68154 0.18431 0.0
H1071 H 0.42982 0.65896 0.21017 0.0
H1072 H 0.45615 0.65296 0.20267 0.0
H1073 H 0.48108 0.68782 0.17541 0.0
H1074 H 0.54892 0.70984 0.20502 0.0
H1075 H 0.52372 0.7024 0.19597 0.0
H1076 H 0.50891 0.65918 0.21579 0.0
C1077 C 0.45229 0.66473 0.20221 0.0
C1078 C 0.48706 0.68122 0.18404 0.0
C1079 C 0.43725 0.66817 0.20649 0.0
C1080 C 0.54609 0.69777 0.20459 0.0
C1081 C 0.5317 0.69349 0.19922 0.0
C1082 C 0.503 0.66498 0.20655 0.0
C1083 C 0.46237 0.67647 0.19781 0.0
C1084 C 0.4789 0.67345 0.19552 0.0
C1085 C 0.52731 0.67802 0.19909 0.0
C1086 C 0.5111 0.67409 0.19606 0.0
H1087 H 0.43835 0.70691 0.20154 0.0
H1088 H 0.46451 0.70096 0.19419 0.0
H1089 H 0.48106 0.65861 0.21532 0.0
H1090 H 0.5603 0.66236 0.21283 0.0
H1091 H 0.53481 0.65483 0.20372 0.0
C1092 C 0.82884 0.05224 0.70869 0.0
C1093 C 0.81541 0.05998 0.70453 0.0
C1094 C 0.83188 0.03772 0.70264 0.0
C1095 C 0.80851 0.00583 0.68914 0.0
H1096 H 0.8473 0.9843 0.68791 0.0
C1097 C 0.80728 0.94176 0.69193 0.0
C1098 C 0.81662 0.93574 0.70348 0.0
C1099 C 0.81031 0.95618 0.68587 0.0
C1100 C 0.83639 0.99018 0.68812 0.0
H1101 H 0.79566 0.05987 0.68959 0.0
H1102 H 0.80141 0.03502 0.67829 0.0
H1103 H 0.84698 0.01235 0.68803 0.0
H1104 H 0.83703 0.93923 0.71705 0.0
H1105 H 0.84192 0.96497 0.70714 0.0
H1106 H 0.79785 0.98403 0.6901 0.0
C1107 C 0.80924 0.03966 0.68672 0.0
C1108 C 0.8362 0.00623 0.6882 0.0
C1109 C 0.80596 0.05391 0.6931 0.0
C1110 C 0.82973 0.94375 0.7081 0.0
C1111 C 0.83255 0.95843 0.70233 0.0
C1112 C 0.8087 0.98994 0.68904 0.0
C1113 C 0.82166 0.03096 0.69215 0.0
C1114 C 0.82224 0.01422 0.68913 0.0
C1115 C 0.8224 0.9651 0.69171 0.0
C1116 C 0.82261 0.98187 0.68895 0.0
H1117 H 0.83625 0.05681 0.71753 0.0
H1118 H 0.84153 0.03137 0.70714 0.0
H1119 H 0.79753 0.01146 0.69029 0.0
H1120 H 0.7972 0.9356 0.68812 0.0
H1121 H 0.80254 0.96079 0.67737 0.0
C1122 C 0.55509 0.32205 0.21201 0.0
C1123 C 0.56209 0.30769 0.21019 0.0
C1124 C 0.53966 0.32404 0.20815 0.0
C1125 C 0.50494 0.30077 0.20508 0.0
H1126 H 0.48635 0.33758 0.18861 0.0
C1127 C 0.44078 0.30285 0.19674 0.0
C1128 C 0.43347 0.31558 0.20323 0.0
C1129 C 0.45647 0.30312 0.19396 0.0
C1130 C 0.49143 0.32725 0.19322 0.0
H1131 H 0.55897 0.28455 0.20177 0.0
H1132 H 0.5323 0.28811 0.19467 0.0
H1133 H 0.51433 0.33575 0.19051 0.0
H1134 H 0.4365 0.33899 0.21087 0.0
H1135 H 0.46417 0.33933 0.20645 0.0
H1136 H 0.48229 0.29233 0.20817 0.0
C1137 C 0.53847 0.29769 0.19955 0.0
C1138 C 0.50739 0.32621 0.19433 0.0
C1139 C 0.55375 0.29566 0.2036 0.0
C1140 C 0.44191 0.329 0.20591 0.0
C1141 C 0.45772 0.32921 0.2033 0.0
C1142 C 0.4891 0.30178 0.20394 0.0
C1143 C 0.5311 0.31173 0.20227 0.0
C1144 C 0.51429 0.31293 0.2003 0.0
C1145 C 0.46522 0.31605 0.19786 0.0
C1146 C 0.48214 0.31501 0.19803 0.0
H1147 H 0.56133 0.33153 0.21701 0.0
H1148 H 0.53429 0.33497 0.21044 0.0
H1149 H 0.50982 0.29055 0.21014 0.0
H1150 H 0.43446 0.29246 0.19429 0.0
H1151 H 0.46188 0.29294 0.18939 0.0
C1152 C 0.28311 0.20751 0.0605 0.0
C1153 C 0.28321 0.19418 0.06948 0.0
C1154 C 0.28532 0.20664 0.04471 0.0
C1155 C 0.28029 0.18019 0.01269 0.0
H1156 H 0.30239 0.21141 0.99015 0.0
C1157 C 0.28183 0.18117 0.94664 0.0
C1158 C 0.27873 0.19551 0.94005 0.0
C1159 C 0.28494 0.17995 0.96229 0.0
C1160 C 0.29616 0.20263 0.9963 0.0
H1161 H 0.2862 0.16953 0.06906 0.0
H1162 H 0.29008 0.16802 0.0414 0.0
H1163 H 0.3035 0.21113 0.01808 0.0
H1164 H 0.27678 0.21985 0.94457 0.0
H1165 H 0.28201 0.21771 0.97186 0.0
H1166 H 0.27259 0.17194 0.99096 0.0
C1167 C 0.28814 0.17912 0.04659 0.0
C1168 C 0.2968 0.20247 0.01227 0.0
C1169 C 0.28597 0.18 0.06241 0.0
C1170 C 0.27909 0.20863 0.94933 0.0
C1171 C 0.28222 0.20742 0.96494 0.0
C1172 C 0.27965 0.18035 0.99672 0.0
C1173 C 0.28765 0.19242 0.03755 0.0
C1174 C 0.28858 0.19147 0.02064 0.0
C1175 C 0.28506 0.19306 0.97161 0.0
C1176 C 0.28728 0.19179 0.98838 0.0
H1177 H 0.28105 0.21861 0.06563 0.0
H1178 H 0.28467 0.21707 0.03803 0.0
H1179 H 0.2737 0.17166 0.01883 0.0
H1180 H 0.28172 0.17086 0.93975 0.0
H1181 H 0.28721 0.16875 0.9671 0.0
C1182 C 0.29284 0.83306 0.05597 0.0
C1183 C 0.2925 0.81758 0.06031 0.0
C1184 C 0.29819 0.83727 0.04146 0.0
C1185 C 0.3185 0.82251 0.00703 0.0
H1186 H 0.28681 0.84395 0.98452 0.0
C1187 C 0.29966 0.80565 0.94762 0.0
C1188 C 0.29377 0.81651 0.93736 0.0
C1189 C 0.30496 0.81015 0.96198 0.0
C1190 C 0.29605 0.83835 0.99061 0.0
H1191 H 0.29842 0.79448 0.05339 0.0
H1192 H 0.30765 0.80175 0.02819 0.0
H1193 H 0.28641 0.84413 0.01235 0.0
H1194 H 0.28963 0.84069 0.93362 0.0
H1195 H 0.29869 0.84857 0.95899 0.0
H1196 H 0.3275 0.81584 0.98523 0.0
C1197 C 0.30389 0.81069 0.03592 0.0
C1198 C 0.29581 0.83845 0.0066 0.0
C1199 C 0.29841 0.80649 0.0503 0.0
C1200 C 0.29404 0.83208 0.94138 0.0
C1201 C 0.29922 0.83659 0.95586 0.0
C1202 C 0.31874 0.82242 0.99105 0.0
C1203 C 0.30347 0.82606 0.03118 0.0
C1204 C 0.30651 0.82979 0.01492 0.0
C1205 C 0.30438 0.8256 0.96643 0.0
C1206 C 0.307 0.82959 0.98271 0.0
H1207 H 0.28842 0.84185 0.06352 0.0
H1208 H 0.29777 0.8492 0.03811 0.0
H1209 H 0.32707 0.816 0.01319 0.0
H1210 H 0.29972 0.79358 0.94477 0.0
H1211 H 0.30864 0.80136 0.96991 0.0
C1212 C 0.67003 0.78936 0.55375 0.0
C1213 C 0.68581 0.78858 0.55677 0.0
C1214 C 0.6648 0.79537 0.53981 0.0
C1215 C 0.67762 0.81622 0.50481 0.0
H1216 H 0.6568 0.78373 0.4829 0.0
C1217 C 0.69648 0.79439 0.44738 0.0
C1218 C 0.68594 0.78901 0.43654 0.0
C1219 C 0.69143 0.80024 0.46133 0.0
C1220 C 0.66219 0.79319 0.48883 0.0
H1221 H 0.70837 0.79461 0.54843 0.0
H1222 H 0.69936 0.80516 0.52439 0.0
H1223 H 0.65653 0.78391 0.51077 0.0
H1224 H 0.66183 0.78607 0.43141 0.0
H1225 H 0.65296 0.79587 0.45623 0.0
H1226 H 0.68449 0.82465 0.48284 0.0
C1227 C 0.69095 0.80117 0.53259 0.0
C1228 C 0.66201 0.79331 0.50483 0.0
C1229 C 0.69615 0.79494 0.54629 0.0
C1230 C 0.67019 0.79015 0.43962 0.0
C1231 C 0.66511 0.79576 0.45376 0.0
C1232 C 0.67785 0.81606 0.48884 0.0
C1233 C 0.67528 0.80098 0.52894 0.0
C1234 C 0.67063 0.80422 0.51294 0.0
C1235 C 0.67573 0.80062 0.46483 0.0
C1236 C 0.67099 0.80396 0.48076 0.0
H1237 H 0.66185 0.78453 0.56171 0.0
H1238 H 0.65266 0.79507 0.53727 0.0
H1239 H 0.6841 0.82494 0.5108 0.0
H1240 H 0.70868 0.79374 0.44524 0.0
H1241 H 0.6999 0.80366 0.46973 0.0
C1242 C 0.70662 0.20227 0.04794 0.0
C1243 C 0.71061 0.19084 0.05849 0.0
C1244 C 0.70101 0.19837 0.03355 0.0
C1245 C 0.706 0.16886 0.00534 0.0
H1246 H 0.67801 0.19457 0.98236 0.0
C1247 C 0.7065 0.17024 0.93936 0.0
C1248 C 0.70801 0.1852 0.93362 0.0
C1249 C 0.70221 0.16781 0.95459 0.0
C1250 C 0.68576 0.18719 0.98864 0.0
H1251 H 0.71108 0.16639 0.06267 0.0
H1252 H 0.70151 0.1595 0.03716 0.0
H1253 H 0.67795 0.19556 0.01031 0.0
H1254 H 0.70564 0.2093 0.9391 0.0
H1255 H 0.69831 0.20508 0.96562 0.0
H1256 H 0.71449 0.1612 0.98369 0.0
C1257 C 0.70269 0.17148 0.04013 0.0
C1258 C 0.68569 0.18772 0.00461 0.0
C1259 C 0.70814 0.17541 0.05469 0.0
C1260 C 0.70466 0.19764 0.94321 0.0
C1261 C 0.70027 0.19521 0.95836 0.0
C1262 C 0.70607 0.16832 0.98936 0.0
C1263 C 0.69939 0.18294 0.02932 0.0
C1264 C 0.69636 0.17915 0.01307 0.0
C1265 C 0.69921 0.18029 0.96428 0.0
C1266 C 0.69648 0.17805 0.98087 0.0
H1267 H 0.70826 0.21426 0.05064 0.0
H1268 H 0.69878 0.20747 0.02542 0.0
H1269 H 0.71442 0.16219 0.01155 0.0
H1270 H 0.70894 0.16042 0.93218 0.0
H1271 H 0.70144 0.15619 0.95885 0.0
C1272 C 0.29589 0.20787 0.5462 0.0
C1273 C 0.30687 0.21244 0.55699 0.0
C1274 C 0.30038 0.20273 0.5318 0.0
C1275 C 0.32956 0.20956 0.50373 0.0
H1276 H 0.30654 0.17889 0.48133 0.0
C1277 C 0.32715 0.20869 0.43756 0.0
C1278 C 0.31193 0.20922 0.43235 0.0
C1279 C 0.33037 0.20481 0.45278 0.0
C1280 C 0.31322 0.18737 0.48745 0.0
H1281 H 0.33118 0.21467 0.56149 0.0
H1282 H 0.33907 0.20601 0.53592 0.0
H1283 H 0.30554 0.17929 0.50927 0.0
H1284 H 0.28822 0.20549 0.43871 0.0
H1285 H 0.29379 0.19874 0.46511 0.0
H1286 H 0.33641 0.21828 0.48187 0.0
C1287 C 0.327 0.20629 0.53875 0.0
C1288 C 0.31266 0.18758 0.50341 0.0
C1289 C 0.32249 0.21122 0.55333 0.0
C1290 C 0.30006 0.20528 0.44242 0.0
C1291 C 0.30327 0.20123 0.4575 0.0
C1292 C 0.33012 0.20934 0.48774 0.0
C1293 C 0.31594 0.20221 0.52778 0.0
C1294 C 0.32015 0.19919 0.51164 0.0
C1295 C 0.31842 0.20116 0.46292 0.0
C1296 C 0.32128 0.19876 0.47946 0.0
H1297 H 0.28377 0.20858 0.54876 0.0
H1298 H 0.29157 0.1999 0.52352 0.0
H1299 H 0.33542 0.21866 0.50979 0.0
H1300 H 0.33653 0.21164 0.43 0.0
H1301 H 0.34214 0.20486 0.45669 0.0
C1302 C 0.70752 0.82589 0.05661 0.0
C1303 C 0.70961 0.81023 0.05959 0.0
C1304 C 0.70136 0.83068 0.0426 0.0
C1305 C 0.68141 0.81696 0.00765 0.0
H1306 H 0.71133 0.84136 0.98577 0.0
C1307 C 0.6996 0.80409 0.94715 0.0
C1308 C 0.70502 0.81563 0.93738 0.0
C1309 C 0.69437 0.80769 0.96178 0.0
C1310 C 0.70254 0.83494 0.9917 0.0
H1311 H 0.70592 0.78728 0.0509 0.0
H1312 H 0.69509 0.79557 0.02664 0.0
H1313 H 0.71231 0.84009 0.01357 0.0
H1314 H 0.70832 0.84009 0.93482 0.0
H1315 H 0.69931 0.8464 0.96065 0.0
H1316 H 0.67229 0.811 0.9857 0.0
C1317 C 0.69819 0.80419 0.03501 0.0
C1318 C 0.70311 0.8342 0.00767 0.0
C1319 C 0.70455 0.79944 0.04883 0.0
C1320 C 0.70429 0.83096 0.94218 0.0
C1321 C 0.69915 0.83457 0.95694 0.0
C1322 C 0.68079 0.81775 0.99169 0.0
C1323 C 0.69692 0.81985 0.03155 0.0
C1324 C 0.69314 0.82447 0.01569 0.0
C1325 C 0.6945 0.82291 0.96702 0.0
C1326 C 0.69196 0.82598 0.98353 0.0
H1327 H 0.71131 0.83444 0.06476 0.0
H1328 H 0.70052 0.84282 0.04019 0.0
H1329 H 0.67342 0.80958 0.01361 0.0
H1330 H 0.6999 0.79218 0.94371 0.0
H1331 H 0.6911 0.79839 0.96929 0.0
C1332 C 0.69682 0.19962 0.5564 0.0
C1333 C 0.68661 0.21013 0.56285 0.0
C1334 C 0.69431 0.19395 0.54172 0.0
C1335 C 0.66767 0.19454 0.50809 0.0
H1336 H 0.70617 0.197 0.48617 0.0
C1337 C 0.67498 0.21095 0.44442 0.0
C1338 C 0.68831 0.20592 0.43703 0.0
C1339 C 0.67184 0.20612 0.45938 0.0
C1340 C 0.69531 0.19582 0.49205 0.0
H1341 H 0.66532 0.22237 0.55973 0.0
H1342 H 0.66134 0.21327 0.53347 0.0
H1343 H 0.70617 0.19852 0.51362 0.0
H1344 H 0.70776 0.19066 0.4383 0.0
H1345 H 0.7019 0.18157 0.46404 0.0
H1346 H 0.65687 0.19276 0.48604 0.0
C1347 C 0.67103 0.20895 0.53989 0.0
C1348 C 0.69531 0.19669 0.50792 0.0
C1349 C 0.67334 0.21427 0.55484 0.0
C1350 C 0.69751 0.19478 0.44396 0.0
C1351 C 0.69417 0.18966 0.45868 0.0
C1352 C 0.66768 0.19373 0.49205 0.0
C1353 C 0.68185 0.19919 0.53295 0.0
C1354 C 0.68151 0.1963 0.51618 0.0
C1355 C 0.68192 0.19606 0.46694 0.0
C1356 C 0.68153 0.19459 0.48386 0.0
H1357 H 0.707 0.1961 0.56258 0.0
H1358 H 0.7026 0.18606 0.53694 0.0
H1359 H 0.65685 0.19409 0.51412 0.0
H1360 H 0.66779 0.21961 0.43919 0.0
H1361 H 0.66232 0.21129 0.46542 0.0
C1362 C 0.30373 0.79196 0.44838 0.0
C1363 C 0.31357 0.78603 0.43718 0.0
C1364 C 0.30963 0.79797 0.46193 0.0
C1365 C 0.33939 0.79105 0.48859 0.0
H1366 H 0.32137 0.82615 0.50894 0.0
C1367 C 0.33426 0.79215 0.55376 0.0
C1368 C 0.31869 0.79343 0.55755 0.0
C1369 C 0.3394 0.79673 0.53925 0.0
C1370 C 0.32675 0.81645 0.50339 0.0
H1371 H 0.33731 0.78207 0.43106 0.0
H1372 H 0.34765 0.79207 0.45525 0.0
H1373 H 0.31941 0.82374 0.48115 0.0
H1374 H 0.29659 0.80174 0.54996 0.0
H1375 H 0.3054 0.80973 0.52494 0.0
H1376 H 0.34534 0.78293 0.5109 0.0
C1377 C 0.3354 0.79231 0.45333 0.0
C1378 C 0.32564 0.8151 0.48751 0.0
C1379 C 0.32948 0.78659 0.43957 0.0
C1380 C 0.30863 0.80047 0.54723 0.0
C1381 C 0.31375 0.80524 0.53294 0.0
C1382 C 0.34036 0.79233 0.50451 0.0
C1383 C 0.32548 0.79793 0.46467 0.0
C1384 C 0.33111 0.80192 0.48012 0.0
C1385 C 0.32906 0.80292 0.52854 0.0
C1386 C 0.33313 0.80453 0.51213 0.0
H1387 H 0.29143 0.79176 0.44678 0.0
H1388 H 0.30171 0.80199 0.4706 0.0
H1389 H 0.3437 0.78078 0.48314 0.0
H1390 H 0.34224 0.78677 0.56159 0.0
H1391 H 0.35126 0.79483 0.53617 0.0
C1392 C 0.17544 0.3846 0.28469 0.0
C1393 C 0.18561 0.39185 0.27461 0.0
C1394 C 0.16128 0.37931 0.27939 0.0
C1395 C 0.14551 0.36584 0.24282 0.0
H1396 H 0.11066 0.35544 0.26823 0.0
C1397 C 0.10444 0.31909 0.22355 0.0
C1398 C 0.1033 0.30742 0.23458 0.0
C1399 C 0.10961 0.33366 0.22771 0.0
C1400 C 0.12024 0.3584 0.26094 0.0
H1401 H 0.18839 0.40096 0.25172 0.0
H1402 H 0.16343 0.39246 0.24264 0.0
H1403 H 0.12909 0.37451 0.27718 0.0
H1404 H 0.10524 0.30234 0.25885 0.0
H1405 H 0.1144 0.32756 0.266 0.0
H1406 H 0.13712 0.34934 0.2269 0.0
C1407 C 0.16656 0.39017 0.25443 0.0
C1408 C 0.13084 0.36926 0.26608 0.0
C1409 C 0.18082 0.39512 0.25963 0.0
C1410 C 0.10621 0.31099 0.25001 0.0
C1411 C 0.1113 0.32554 0.25416 0.0
C1412 C 0.1349 0.35511 0.23766 0.0
C1413 C 0.15697 0.38144 0.26397 0.0
C1414 C 0.14395 0.37264 0.25735 0.0
C1415 C 0.11364 0.33685 0.24298 0.0
C1416 C 0.1225 0.3508 0.24692 0.0
H1417 H 0.1789 0.38194 0.29631 0.0
H1418 H 0.15428 0.37257 0.28708 0.0
H1419 H 0.15553 0.36789 0.23582 0.0
H1420 H 0.10213 0.31678 0.21158 0.0
H1421 H 0.11113 0.34222 0.21887 0.0
C1422 C 0.10609 0.67032 0.78229 0.0
C1423 C 0.11955 0.67703 0.78798 0.0
C1424 C 0.10685 0.6567 0.77386 0.0
C1425 C 0.13334 0.62602 0.7605 0.0
H1426 H 0.12174 0.63968 0.71987 0.0
C1427 C 0.16828 0.63441 0.70575 0.0
C1428 C 0.1758 0.62031 0.70448 0.0
C1429 C 0.15437 0.63544 0.71348 0.0
C1430 C 0.1247 0.63539 0.73113 0.0
H1431 H 0.14396 0.67419 0.7909 0.0
H1432 H 0.14529 0.65026 0.77674 0.0
H1433 H 0.11008 0.65153 0.74227 0.0
H1434 H 0.17428 0.59601 0.70908 0.0
H1435 H 0.15002 0.59787 0.72315 0.0
H1436 H 0.14912 0.611 0.74938 0.0
C1437 C 0.13415 0.65539 0.7786 0.0
C1438 C 0.11796 0.64211 0.74399 0.0
C1439 C 0.13344 0.66914 0.78667 0.0
C1440 C 0.16855 0.60699 0.70981 0.0
C1441 C 0.15474 0.60806 0.7179 0.0
C1442 C 0.14 0.61922 0.74764 0.0
C1443 C 0.12103 0.6495 0.77135 0.0
C1444 C 0.12309 0.63829 0.75877 0.0
C1445 C 0.14792 0.62243 0.72044 0.0
C1446 C 0.13658 0.62469 0.73288 0.0
H1447 H 0.09527 0.67635 0.78305 0.0
H1448 H 0.09658 0.6524 0.76838 0.0
H1449 H 0.13736 0.62275 0.77177 0.0
H1450 H 0.17377 0.64482 0.70181 0.0
H1451 H 0.14953 0.64671 0.71537 0.0
C1452 C 0.81349 0.61343 0.27793 0.0
C1453 C 0.80235 0.60694 0.26838 0.0
C1454 C 0.82749 0.61822 0.27182 0.0
C1455 C 0.84147 0.63183 0.23452 0.0
H1456 H 0.87743 0.6416 0.25862 0.0
C1457 C 0.88128 0.67993 0.21563 0.0
C1458 C 0.88176 0.69127 0.22703 0.0
C1459 C 0.87672 0.66501 0.2193 0.0
C1460 C 0.86756 0.63875 0.25165 0.0
H1461 H 0.79761 0.59859 0.24552 0.0
H1462 H 0.82233 0.60612 0.23501 0.0
H1463 H 0.85946 0.62225 0.26785 0.0
H1464 H 0.87935 0.6956 0.25138 0.0
H1465 H 0.87144 0.66973 0.25774 0.0
H1466 H 0.84921 0.64874 0.21867 0.0
C1467 C 0.82009 0.60826 0.24702 0.0
C1468 C 0.85721 0.62776 0.25698 0.0
C1469 C 0.80596 0.60386 0.25303 0.0
C1470 C 0.87884 0.68715 0.2423 0.0
C1471 C 0.87451 0.67226 0.24599 0.0
C1472 C 0.85189 0.64265 0.22914 0.0
C1473 C 0.83069 0.6163 0.25611 0.0
C1474 C 0.84361 0.62476 0.24886 0.0
C1475 C 0.87284 0.66118 0.23446 0.0
C1476 C 0.86462 0.64678 0.23802 0.0
H1477 H 0.81093 0.61591 0.28982 0.0
H1478 H 0.83525 0.62444 0.27922 0.0
H1479 H 0.83111 0.63005 0.22795 0.0
H1480 H 0.88357 0.68276 0.20377 0.0
H1481 H 0.87557 0.65665 0.21021 0.0
C1482 C 0.88594 0.31365 0.75603 0.0
C1483 C 0.88828 0.30943 0.77138 0.0
C1484 C 0.88075 0.32829 0.75235 0.0
C1485 C 0.85519 0.35566 0.76921 0.0
H1486 H 0.86139 0.37727 0.73093 0.0
C1487 C 0.80756 0.39353 0.74654 0.0
C1488 C 0.804 0.39114 0.73106 0.0
C1489 C 0.82172 0.389 0.7524 0.0
C1490 C 0.85951 0.37138 0.74167 0.0
H1491 H 0.88852 0.31772 0.7948 0.0
H1492 H 0.87925 0.34333 0.78834 0.0
H1493 H 0.88068 0.35908 0.73987 0.0
H1494 H 0.81271 0.3831 0.70929 0.0
H1495 H 0.83712 0.37436 0.71959 0.0
H1496 H 0.8336 0.36681 0.77058 0.0
C1497 C 0.88134 0.33523 0.77919 0.0
C1498 C 0.87061 0.36105 0.74683 0.0
C1499 C 0.88667 0.32058 0.78287 0.0
C1500 C 0.81519 0.38504 0.72129 0.0
C1501 C 0.82925 0.38015 0.72722 0.0
C1502 C 0.84406 0.36583 0.764 0.0
C1503 C 0.8777 0.339 0.76395 0.0
C1504 C 0.86826 0.35265 0.76036 0.0
C1505 C 0.83245 0.38155 0.74298 0.0
C1506 C 0.84577 0.37338 0.74986 0.0
H1507 H 0.88731 0.30538 0.74688 0.0
H1508 H 0.87798 0.33077 0.74051 0.0
H1509 H 0.85291 0.34923 0.77957 0.0
H1510 H 0.7992 0.39851 0.75425 0.0
H1511 H 0.82394 0.39073 0.76447 0.0
C1512 C 0.28491 0.16701 0.36792 0.0
C1513 C 0.28377 0.17633 0.38091 0.0
C1514 C 0.27686 0.15325 0.36719 0.0
C1515 C 0.23943 0.14258 0.37861 0.0
H1516 H 0.2479 0.10912 0.35073 0.0
C1517 C 0.20799 0.1321 0.32398 0.0
C1518 C 0.20622 0.11735 0.31797 0.0
C1519 C 0.21444 0.13418 0.33843 0.0
C1520 C 0.24525 0.11806 0.35891 0.0
H1521 H 0.27459 0.17821 0.40384 0.0
H1522 H 0.26017 0.15415 0.4025 0.0
H1523 H 0.26886 0.12088 0.36496 0.0
H1524 H 0.20883 0.09312 0.3225 0.0
H1525 H 0.22075 0.09679 0.34774 0.0
H1526 H 0.21607 0.14077 0.37138 0.0
C1527 C 0.26745 0.15734 0.39297 0.0
C1528 C 0.25728 0.12485 0.367 0.0
C1529 C 0.27575 0.17103 0.39378 0.0
C1530 C 0.20995 0.10461 0.32705 0.0
C1531 C 0.2168 0.1067 0.34141 0.0
C1532 C 0.22743 0.13587 0.37045 0.0
C1533 C 0.26724 0.14879 0.37932 0.0
C1534 C 0.25462 0.13788 0.37606 0.0
C1535 C 0.2196 0.12154 0.34696 0.0
C1536 C 0.23042 0.12428 0.35973 0.0
H1537 H 0.29089 0.17103 0.35782 0.0
H1538 H 0.27686 0.14705 0.35645 0.0
H1539 H 0.23697 0.1526 0.38549 0.0
H1540 H 0.20529 0.14206 0.31709 0.0
H1541 H 0.21664 0.14576 0.34228 0.0
C1542 C 0.32566 0.78148 0.89355 0.0
C1543 C 0.31647 0.78527 0.88091 0.0
C1544 C 0.34011 0.77489 0.8913 0.0
C1545 C 0.36947 0.76589 0.86201 0.0
H1546 H 0.36563 0.72393 0.87595 0.0
C1547 C 0.39535 0.71965 0.82596 0.0
C1548 C 0.38297 0.71111 0.82034 0.0
C1549 C 0.39401 0.72754 0.83986 0.0
C1550 C 0.3672 0.73567 0.87227 0.0
H1551 H 0.3154 0.78646 0.8562 0.0
H1552 H 0.34077 0.77557 0.85221 0.0
H1553 H 0.3504 0.74398 0.88806 0.0
H1554 H 0.36026 0.70264 0.82525 0.0
H1555 H 0.35796 0.71599 0.84957 0.0
H1556 H 0.38509 0.75744 0.84523 0.0
C1557 C 0.33692 0.77754 0.86385 0.0
C1558 C 0.35854 0.74717 0.87926 0.0
C1559 C 0.32238 0.78371 0.86609 0.0
C1560 C 0.37 0.70904 0.82952 0.0
C1561 C 0.36874 0.71669 0.84348 0.0
C1562 C 0.37821 0.75443 0.85511 0.0
C1563 C 0.34565 0.77243 0.87638 0.0
C1564 C 0.3588 0.76216 0.87343 0.0
C1565 C 0.3803 0.72684 0.84828 0.0
C1566 C 0.37629 0.73903 0.85942 0.0
H1567 H 0.32118 0.78244 0.90509 0.0
H1568 H 0.34659 0.77095 0.90112 0.0
H1569 H 0.36997 0.7774 0.85741 0.0
H1570 H 0.40538 0.72153 0.8189 0.0
H1571 H 0.40312 0.73521 0.84331 0.0
C1572 C 0.74198 0.81145 0.3798 0.0
C1573 C 0.7272 0.80839 0.38535 0.0
C1574 C 0.74623 0.82623 0.3757 0.0
C1575 C 0.728 0.86076 0.3608 0.0
H1576 H 0.77074 0.87094 0.3546 0.0
C1577 C 0.74937 0.88106 0.30374 0.0
C1578 C 0.76329 0.88894 0.30202 0.0
C1579 C 0.7439 0.87723 0.3182 0.0
C1580 C 0.7587 0.86869 0.35645 0.0
H1581 H 0.70575 0.81878 0.39234 0.0
H1582 H 0.71328 0.84482 0.38531 0.0
H1583 H 0.76366 0.85322 0.37475 0.0
H1584 H 0.78183 0.89997 0.31435 0.0
H1585 H 0.77212 0.89343 0.33979 0.0
H1586 H 0.72303 0.87626 0.34255 0.0
C1587 C 0.72147 0.83564 0.3838 0.0
C1588 C 0.75464 0.85829 0.36791 0.0
C1589 C 0.71716 0.82072 0.38788 0.0
C1590 C 0.77116 0.89371 0.31525 0.0
C1591 C 0.7656 0.88994 0.32983 0.0
C1592 C 0.73202 0.87144 0.3496 0.0
C1593 C 0.73587 0.83848 0.37712 0.0
C1594 C 0.73939 0.85326 0.36936 0.0
C1595 C 0.75209 0.88129 0.33147 0.0
C1596 C 0.74752 0.87456 0.34647 0.0
H1597 H 0.75014 0.8023 0.37792 0.0
H1598 H 0.75734 0.82777 0.37042 0.0
H1599 H 0.7161 0.8574 0.36165 0.0
H1600 H 0.74289 0.87725 0.29386 0.0
H1601 H 0.73365 0.8703 0.31884 0.0
C1602 C 0.67026 0.21426 0.89314 0.0
C1603 C 0.67583 0.208 0.87942 0.0
C1604 C 0.65681 0.22298 0.8931 0.0
C1605 C 0.62527 0.23721 0.86792 0.0
H1606 H 0.64208 0.27714 0.87755 0.0
C1607 C 0.60883 0.28742 0.83105 0.0
C1608 C 0.62231 0.29152 0.82329 0.0
C1609 C 0.60968 0.27997 0.84523 0.0
C1610 C 0.63692 0.26612 0.87514 0.0
H1611 H 0.67102 0.2042 0.85544 0.0
H1612 H 0.6474 0.21888 0.85538 0.0
H1613 H 0.65289 0.25442 0.88949 0.0
H1614 H 0.64698 0.29286 0.82486 0.0
H1615 H 0.6485 0.28036 0.84966 0.0
H1616 H 0.61043 0.24879 0.8523 0.0
C1617 C 0.65329 0.21727 0.86618 0.0
C1618 C 0.64304 0.25307 0.88207 0.0
C1619 C 0.66686 0.20887 0.86616 0.0
C1620 C 0.63645 0.28982 0.83068 0.0
C1621 C 0.63727 0.2827 0.84494 0.0
C1622 C 0.6191 0.25027 0.86105 0.0
C1623 C 0.64867 0.22526 0.87939 0.0
C1624 C 0.63808 0.23842 0.87757 0.0
C1625 C 0.62399 0.27683 0.85191 0.0
C1626 C 0.62571 0.26472 0.86369 0.0
H1627 H 0.67713 0.21384 0.90348 0.0
H1628 H 0.65349 0.22898 0.90344 0.0
H1629 H 0.62109 0.22607 0.86441 0.0
H1630 H 0.59779 0.28852 0.82549 0.0
H1631 H 0.59927 0.27559 0.85037 0.0
C1632 C 0.28335 0.82598 0.61444 0.0
C1633 C 0.27672 0.81654 0.60332 0.0
C1634 C 0.27621 0.8397 0.61858 0.0
C1635 C 0.23647 0.85223 0.62061 0.0
H1636 H 0.25458 0.88411 0.6456 0.0
C1637 C 0.21603 0.8666 0.67979 0.0
C1638 C 0.21593 0.88168 0.68518 0.0
C1639 C 0.221 0.86338 0.665 0.0
C1640 C 0.24926 0.87557 0.63835 0.0
H1641 H 0.25874 0.81462 0.5864 0.0
H1642 H 0.2467 0.83897 0.59295 0.0
H1643 H 0.27024 0.87094 0.62651 0.0
H1644 H 0.22047 0.90536 0.67948 0.0
H1645 H 0.22978 0.89964 0.65344 0.0
H1646 H 0.21577 0.85627 0.63305 0.0
C1647 C 0.25703 0.83563 0.59896 0.0
C1648 C 0.25827 0.86789 0.62754 0.0
C1649 C 0.26397 0.82177 0.5951 0.0
C1650 C 0.22033 0.89365 0.67539 0.0
C1651 C 0.22569 0.89039 0.66061 0.0
C1652 C 0.22752 0.8599 0.63135 0.0
C1653 C 0.26241 0.84421 0.61149 0.0
C1654 C 0.2522 0.85551 0.61919 0.0
C1655 C 0.22629 0.87517 0.6554 0.0
C1656 C 0.23406 0.87098 0.64095 0.0
H1657 H 0.29313 0.82205 0.621 0.0
H1658 H 0.2807 0.84591 0.62833 0.0
H1659 H 0.23131 0.84276 0.61452 0.0
H1660 H 0.21277 0.85723 0.68724 0.0
H1661 H 0.22156 0.85153 0.6614 0.0
C1662 C 0.68136 0.7786 0.11052 0.0
C1663 C 0.69389 0.76851 0.11104 0.0
C1664 C 0.66671 0.77352 0.11455 0.0
C1665 C 0.64358 0.73886 0.12383 0.0
H1666 H 0.62927 0.76356 0.15776 0.0
C1667 C 0.61679 0.71346 0.17762 0.0
C1668 C 0.60858 0.72301 0.18755 0.0
C1669 C 0.62184 0.71904 0.16349 0.0
C1670 C 0.63264 0.75662 0.14805 0.0
H1671 H 0.70063 0.74489 0.11486 0.0
H1672 H 0.67524 0.73613 0.12195 0.0
H1673 H 0.6484 0.77375 0.14066 0.0
H1674 H 0.59756 0.74503 0.19003 0.0
H1675 H 0.60548 0.7545 0.16498 0.0
H1676 H 0.62821 0.72145 0.13167 0.0
C1677 C 0.67665 0.74794 0.11843 0.0
C1678 C 0.64372 0.76253 0.13821 0.0
C1679 C 0.69127 0.75303 0.11457 0.0
C1680 C 0.60406 0.73756 0.18255 0.0
C1681 C 0.60872 0.74299 0.16827 0.0
C1682 C 0.63234 0.73298 0.13361 0.0
C1683 C 0.66431 0.75823 0.11898 0.0
C1684 C 0.64985 0.75345 0.12647 0.0
C1685 C 0.6185 0.73418 0.15898 0.0
C1686 C 0.62728 0.74151 0.14631 0.0
H1687 H 0.68298 0.79057 0.10773 0.0
H1688 H 0.65737 0.78168 0.1148 0.0
H1689 H 0.64796 0.7317 0.1147 0.0
H1690 H 0.62045 0.7022 0.18134 0.0
H1691 H 0.6294 0.71189 0.15676 0.0
C1692 C 0.78668 0.1123 0.67745 0.0
C1693 C 0.77581 0.11128 0.68928 0.0
C1694 C 0.78211 0.11633 0.66261 0.0
C1695 C 0.74793 0.12291 0.63776 0.0
H1696 H 0.76926 0.16016 0.62678 0.0
C1697 C 0.71762 0.17598 0.61593 0.0
C1698 C 0.72621 0.18767 0.60909 0.0
C1699 C 0.72451 0.16193 0.61929 0.0
C1700 C 0.76332 0.14956 0.62918 0.0
H1701 H 0.75155 0.1123 0.69456 0.0
H1702 H 0.74366 0.11938 0.6689 0.0
H1703 H 0.7806 0.14296 0.64514 0.0
H1704 H 0.74785 0.19341 0.59851 0.0
H1705 H 0.75963 0.16861 0.6035 0.0
H1706 H 0.73023 0.12998 0.62233 0.0
C1707 C 0.75568 0.11708 0.67097 0.0
C1708 C 0.76989 0.13965 0.63982 0.0
C1709 C 0.76024 0.11325 0.68576 0.0
C1710 C 0.74112 0.18457 0.60401 0.0
C1711 C 0.74787 0.17041 0.60698 0.0
C1712 C 0.74138 0.13278 0.62698 0.0
C1713 C 0.76659 0.11916 0.65934 0.0
C1714 C 0.76187 0.12669 0.64487 0.0
C1715 C 0.74002 0.1593 0.6156 0.0
C1716 C 0.7486 0.14668 0.62324 0.0
H1717 H 0.79875 0.1107 0.67979 0.0
H1718 H 0.79075 0.11781 0.65384 0.0
H1719 H 0.74162 0.11282 0.64127 0.0
H1720 H 0.7061 0.17818 0.61996 0.0
H1721 H 0.71806 0.15374 0.62598 0.0
C1722 C 0.32494 0.21938 0.10857 0.0
C1723 C 0.32023 0.21348 0.12277 0.0
C1724 C 0.33838 0.22808 0.10754 0.0
C1725 C 0.37145 0.24271 0.13062 0.0
H1726 H 0.35511 0.28247 0.11965 0.0
C1727 C 0.38865 0.29353 0.16599 0.0
C1728 C 0.37519 0.29835 0.17335 0.0
C1729 C 0.3878 0.28569 0.152 0.0
C1730 C 0.36012 0.27147 0.12245 0.0
H1731 H 0.32655 0.21034 0.14651 0.0
H1732 H 0.35002 0.22508 0.14475 0.0
H1733 H 0.34352 0.25946 0.10911 0.0
H1734 H 0.35063 0.30059 0.17121 0.0
H1735 H 0.34909 0.28737 0.14683 0.0
H1736 H 0.38687 0.25464 0.14536 0.0
C1737 C 0.34349 0.2232 0.13437 0.0
C1738 C 0.35354 0.25824 0.11631 0.0
C1739 C 0.32997 0.2148 0.13544 0.0
C1740 C 0.36115 0.29696 0.16571 0.0
C1741 C 0.36033 0.28944 0.15167 0.0
C1742 C 0.37801 0.25593 0.13678 0.0
C1743 C 0.34737 0.23073 0.12066 0.0
C1744 C 0.35832 0.24372 0.12138 0.0
C1745 C 0.3735 0.28284 0.14514 0.0
C1746 C 0.37152 0.27036 0.13375 0.0
H1747 H 0.31752 0.21856 0.09865 0.0
H1748 H 0.34111 0.23369 0.09682 0.0
H1749 H 0.37557 0.23166 0.13447 0.0
H1750 H 0.39961 0.2944 0.17174 0.0
H1751 H 0.39815 0.28081 0.1472 0.0
C1752 C 0.82519 0.60304 0.71399 0.0
C1753 C 0.81667 0.61586 0.70934 0.0
C1754 C 0.83934 0.60501 0.72127 0.0
C1755 C 0.85554 0.61709 0.75006 0.0
H1756 H 0.88371 0.65042 0.7421 0.0
C1757 C 0.86439 0.66735 0.78836 0.0
C1758 C 0.87813 0.67561 0.78822 0.0
C1759 C 0.86328 0.6535 0.78052 0.0
C1760 C 0.87634 0.64074 0.74449 0.0
H1761 H 0.81666 0.6405 0.70714 0.0
H1762 H 0.84153 0.64396 0.71925 0.0
H1763 H 0.87039 0.63824 0.72082 0.0
H1764 H 0.90183 0.6755 0.781 0.0
H1765 H 0.89976 0.65135 0.76677 0.0
H1766 H 0.86027 0.6207 0.77387 0.0
C1767 C 0.8374 0.63241 0.71743 0.0
C1768 C 0.86866 0.63382 0.73228 0.0
C1769 C 0.82313 0.63047 0.71054 0.0
C1770 C 0.89117 0.66917 0.78138 0.0
C1771 C 0.88997 0.65543 0.7732 0.0
C1772 C 0.86312 0.62411 0.76229 0.0
C1773 C 0.84525 0.61979 0.72362 0.0
C1774 C 0.85744 0.62266 0.73507 0.0
C1775 C 0.87579 0.64788 0.77207 0.0
C1776 C 0.87279 0.63668 0.75967 0.0
H1777 H 0.82027 0.59167 0.71333 0.0
H1778 H 0.84515 0.59512 0.72599 0.0
H1779 H 0.84693 0.60853 0.75257 0.0
H1780 H 0.85418 0.67223 0.79346 0.0
H1781 H 0.85215 0.64808 0.77974 0.0
C1782 C 0.87954 0.31671 0.21731 0.0
C1783 C 0.89059 0.30758 0.22446 0.0
C1784 C 0.87488 0.33044 0.22409 0.0
C1785 C 0.8721 0.3455 0.26324 0.0
H1786 H 0.84881 0.37706 0.24251 0.0
C1787 C 0.81499 0.36654 0.2848 0.0
C1788 C 0.81019 0.38159 0.28219 0.0
C1789 C 0.82932 0.3617 0.27978 0.0
C1790 C 0.85556 0.36859 0.24855 0.0
H1791 H 0.90662 0.30604 0.24327 0.0
H1792 H 0.89921 0.33045 0.2547 0.0
H1793 H 0.86715 0.36174 0.22806 0.0
H1794 H 0.81648 0.40362 0.27279 0.0
H1795 H 0.84174 0.39507 0.26372 0.0
H1796 H 0.86022 0.35208 0.2836 0.0
C1797 C 0.89363 0.32685 0.24423 0.0
C1798 C 0.86593 0.35966 0.24023 0.0
C1799 C 0.89799 0.31295 0.23764 0.0
C1800 C 0.82014 0.39199 0.27506 0.0
C1801 C 0.83448 0.38708 0.26981 0.0
C1802 C 0.86186 0.3545 0.27154 0.0
C1803 C 0.88139 0.33533 0.23805 0.0
C1804 C 0.8737 0.34744 0.2473 0.0
C1805 C 0.83905 0.37177 0.27182 0.0
C1806 C 0.85286 0.36554 0.26413 0.0
H1807 H 0.87362 0.31264 0.20719 0.0
H1808 H 0.86534 0.3365 0.21901 0.0
H1809 H 0.87776 0.33623 0.26918 0.0
H1810 H 0.80735 0.35834 0.29013 0.0
H1811 H 0.83235 0.34977 0.28129 0.0
C1812 C 0.10557 0.31034 0.75145 0.0
C1813 C 0.10268 0.30577 0.76661 0.0
C1814 C 0.1109 0.32505 0.74831 0.0
C1815 C 0.13602 0.3517 0.76677 0.0
H1816 H 0.13134 0.37452 0.72898 0.0
C1817 C 0.17791 0.38163 0.72093 0.0
C1818 C 0.18903 0.38699 0.7312 0.0
C1819 C 0.16357 0.37697 0.72632 0.0
C1820 C 0.13281 0.36828 0.7396 0.0
H1821 H 0.10156 0.31357 0.79019 0.0
H1822 H 0.11108 0.33927 0.78467 0.0
H1823 H 0.11156 0.3563 0.73671 0.0
H1824 H 0.19347 0.39337 0.75475 0.0
H1825 H 0.16821 0.3861 0.76405 0.0
H1826 H 0.1577 0.36246 0.76918 0.0
C1827 C 0.10931 0.33139 0.77525 0.0
C1828 C 0.12142 0.35794 0.74407 0.0
C1829 C 0.10385 0.31668 0.7784 0.0
C1830 C 0.18515 0.38896 0.74667 0.0
C1831 C 0.1707 0.38471 0.75198 0.0
C1832 C 0.14745 0.36185 0.76224 0.0
C1833 C 0.11354 0.33548 0.76026 0.0
C1834 C 0.12322 0.34912 0.7574 0.0
C1835 C 0.15999 0.3779 0.74204 0.0
C1836 C 0.14631 0.36983 0.74828 0.0
H1837 H 0.10454 0.30229 0.74207 0.0
H1838 H 0.11412 0.32781 0.73665 0.0
H1839 H 0.13788 0.34493 0.777 0.0
H1840 H 0.18065 0.38003 0.70894 0.0
H1841 H 0.15575 0.37169 0.71828 0.0
C1842 C 0.17995 0.60417 0.28053 0.0
C1843 C 0.19273 0.60329 0.27079 0.0
C1844 C 0.16554 0.60802 0.27463 0.0
C1845 C 0.14419 0.61506 0.23805 0.0
H1846 H 0.12961 0.65093 0.25963 0.0
C1847 C 0.10878 0.67566 0.23027 0.0
C1848 C 0.11599 0.68015 0.21666 0.0
C1849 C 0.11156 0.6612 0.23647 0.0
C1850 C 0.13308 0.6407 0.25355 0.0
H1851 H 0.20013 0.60432 0.24708 0.0
H1852 H 0.17531 0.6112 0.23692 0.0
H1853 H 0.14723 0.63376 0.2722 0.0
H1854 H 0.13074 0.67296 0.19815 0.0
H1855 H 0.13608 0.64785 0.20911 0.0
H1856 H 0.13074 0.62269 0.21899 0.0
C1857 C 0.17624 0.60889 0.24907 0.0
C1858 C 0.14326 0.63079 0.26083 0.0
C1859 C 0.19059 0.60516 0.25495 0.0
C1860 C 0.12494 0.66959 0.20858 0.0
C1861 C 0.12793 0.65519 0.21489 0.0
C1862 C 0.13396 0.62499 0.23074 0.0
C1863 C 0.16366 0.6109 0.25887 0.0
C1864 C 0.14959 0.61835 0.25287 0.0
C1865 C 0.12196 0.65118 0.22934 0.0
C1866 C 0.12895 0.63838 0.23814 0.0
H1867 H 0.1812 0.60264 0.29278 0.0
H1868 H 0.15601 0.60935 0.28245 0.0
H1869 H 0.14863 0.60536 0.23173 0.0
H1870 H 0.10184 0.68373 0.23665 0.0
H1871 H 0.10651 0.65836 0.24743 0.0
C1872 C 0.78434 0.8804 0.67534 0.0
C1873 C 0.77469 0.88754 0.68599 0.0
C1874 C 0.77852 0.87548 0.66125 0.0
C1875 C 0.76422 0.86586 0.63119 0.0
H1876 H 0.72466 0.84697 0.63817 0.0
C1877 C 0.74624 0.80774 0.60771 0.0
C1878 C 0.7307 0.8046 0.60491 0.0
C1879 C 0.75087 0.82226 0.61244 0.0
C1880 C 0.73552 0.85247 0.63577 0.0
H1881 H 0.75203 0.89683 0.68976 0.0
H1882 H 0.74207 0.8891 0.66486 0.0
H1883 H 0.73441 0.86521 0.65647 0.0
H1884 H 0.70801 0.81465 0.60354 0.0
H1885 H 0.71612 0.84005 0.61202 0.0
H1886 H 0.76564 0.85196 0.61099 0.0
C1887 C 0.7539 0.88656 0.66757 0.0
C1888 C 0.74116 0.86303 0.64631 0.0
C1889 C 0.75961 0.89109 0.68178 0.0
C1890 C 0.72005 0.81664 0.60577 0.0
C1891 C 0.72468 0.83119 0.61063 0.0
C1892 C 0.7586 0.85513 0.62069 0.0
C1893 C 0.76301 0.8779 0.65748 0.0
C1894 C 0.75585 0.86942 0.64451 0.0
C1895 C 0.74005 0.83397 0.61456 0.0
C1896 C 0.74445 0.8479 0.62322 0.0
H1897 H 0.79603 0.87753 0.67838 0.0
H1898 H 0.78591 0.86878 0.6539 0.0
H1899 H 0.77541 0.87082 0.62922 0.0
H1900 H 0.75478 0.79878 0.60693 0.0
H1901 H 0.76277 0.82398 0.61549 0.0
C1902 C 0.60634 0.27497 0.17211 0.0
C1903 C 0.61604 0.28618 0.17826 0.0
C1904 C 0.60874 0.26953 0.15725 0.0
C1905 C 0.63367 0.27371 0.12272 0.0
H1906 H 0.64266 0.23099 0.13069 0.0
C1907 C 0.69057 0.24761 0.10981 0.0
C1908 C 0.69255 0.23179 0.10773 0.0
C1909 C 0.67601 0.25383 0.11147 0.0
C1910 C 0.63986 0.24273 0.12785 0.0
H1911 H 0.63491 0.30148 0.17366 0.0
H1912 H 0.63918 0.29211 0.14771 0.0
H1913 H 0.62445 0.24433 0.14671 0.0
H1914 H 0.68069 0.21021 0.10457 0.0
H1915 H 0.65502 0.22113 0.10774 0.0
H1916 H 0.65001 0.27231 0.10451 0.0
C1917 C 0.62957 0.2876 0.15411 0.0
C1918 C 0.62936 0.25044 0.1371 0.0
C1919 C 0.6272 0.29295 0.16899 0.0
C1920 C 0.67953 0.22243 0.10634 0.0
C1921 C 0.66485 0.22868 0.10813 0.0
C1922 C 0.6441 0.26597 0.11338 0.0
C1923 C 0.62094 0.27521 0.14842 0.0
C1924 C 0.62703 0.26627 0.13533 0.0
C1925 C 0.66298 0.2444 0.11116 0.0
C1926 C 0.64817 0.25072 0.11663 0.0
H1927 H 0.59774 0.26954 0.17922 0.0
H1928 H 0.60187 0.26006 0.15314 0.0
H1929 H 0.63184 0.28584 0.12089 0.0
H1930 H 0.70034 0.2552 0.11067 0.0
H1931 H 0.6751 0.26592 0.11403 0.0
C1932 C 0.25199 0.18581 0.60207 0.0
C1933 C 0.26705 0.18963 0.6061 0.0
C1934 C 0.24603 0.17148 0.6058 0.0
C1935 C 0.25539 0.13438 0.62564 0.0
H1936 H 0.21644 0.14245 0.64534 0.0
C1937 C 0.23946 0.1134 0.68483 0.0
C1938 C 0.22408 0.11098 0.68889 0.0
C1939 C 0.24338 0.11736 0.66989 0.0
C1940 C 0.22709 0.13971 0.6396 0.0
H1941 H 0.28815 0.18126 0.61598 0.0
H1942 H 0.2776 0.15652 0.62333 0.0
H1943 H 0.22621 0.16034 0.62675 0.0
H1944 H 0.20087 0.10956 0.68018 0.0
H1945 H 0.20774 0.11684 0.65396 0.0
H1946 H 0.25667 0.11429 0.63969 0.0
C1947 C 0.27042 0.16427 0.61687 0.0
C1948 C 0.23276 0.15003 0.62883 0.0
C1949 C 0.2765 0.1785 0.61275 0.0
C1950 C 0.2128 0.11151 0.67742 0.0
C1951 C 0.21673 0.11565 0.66243 0.0
C1952 C 0.24975 0.12409 0.63655 0.0
C1953 C 0.25486 0.16089 0.61413 0.0
C1954 C 0.24733 0.14791 0.62227 0.0
C1955 C 0.23201 0.11912 0.65866 0.0
C1956 C 0.23589 0.12709 0.64417 0.0
H1957 H 0.24459 0.19421 0.59672 0.0
H1958 H 0.23418 0.1691 0.60303 0.0
H1959 H 0.26646 0.13215 0.62052 0.0
H1960 H 0.24845 0.11282 0.69336 0.0
H1961 H 0.25523 0.1201 0.66744 0.0
C1962 C 0.32443 0.78255 0.10389 0.0
C1963 C 0.31623 0.78785 0.11667 0.0
C1964 C 0.3383 0.77475 0.10592 0.0
C1965 C 0.36743 0.76319 0.1347 0.0
H1966 H 0.35711 0.72171 0.1227 0.0
C1967 C 0.38895 0.71393 0.17048 0.0
C1968 C 0.37584 0.70782 0.1775 0.0
C1969 C 0.38766 0.72187 0.15661 0.0
C1970 C 0.36049 0.73324 0.12579 0.0
H1971 H 0.31654 0.79063 0.14126 0.0
H1972 H 0.34095 0.77764 0.14482 0.0
H1973 H 0.34446 0.74325 0.11022 0.0
H1974 H 0.35159 0.70361 0.17499 0.0
H1975 H 0.34938 0.71686 0.15058 0.0
H1976 H 0.38238 0.75315 0.15127 0.0
C1977 C 0.33678 0.77934 0.13325 0.0
C1978 C 0.35331 0.7456 0.1186 0.0
C1979 C 0.32279 0.78676 0.13126 0.0
C1980 C 0.36185 0.70812 0.16967 0.0
C1981 C 0.36063 0.7157 0.15567 0.0
C1982 C 0.37474 0.75084 0.14177 0.0
C1983 C 0.34424 0.77252 0.12072 0.0
C1984 C 0.35593 0.76062 0.12376 0.0
C1985 C 0.37331 0.72347 0.14949 0.0
C1986 C 0.37051 0.73574 0.13811 0.0
H1987 H 0.31943 0.78311 0.09255 0.0
H1988 H 0.34381 0.76956 0.0961 0.0
H1989 H 0.36972 0.77467 0.13881 0.0
H1990 H 0.39982 0.71399 0.17647 0.0
H1991 H 0.39759 0.72777 0.15209 0.0
C1992 C 0.74595 0.18276 0.38609 0.0
C1993 C 0.73056 0.18677 0.38852 0.0
C1994 C 0.74983 0.16806 0.38123 0.0
C1995 C 0.73318 0.14001 0.35641 0.0
H1996 H 0.77212 0.11953 0.36226 0.0
C1997 C 0.75699 0.10469 0.30772 0.0
C1998 C 0.77231 0.10799 0.30424 0.0
C1999 C 0.75105 0.10813 0.32214 0.0
C2000 C 0.76119 0.12508 0.36048 0.0
H2001 H 0.7073 0.17807 0.38927 0.0
H2002 H 0.7141 0.15236 0.38054 0.0
H2003 H 0.76282 0.13744 0.38165 0.0
H2004 H 0.79379 0.11638 0.31328 0.0
H2005 H 0.7833 0.12333 0.33818 0.0
H2006 H 0.73196 0.12892 0.33479 0.0
C2007 C 0.72313 0.16066 0.38233 0.0
C2008 C 0.75582 0.13525 0.37164 0.0
C2009 C 0.71925 0.17538 0.38733 0.0
C2010 C 0.78191 0.11377 0.31573 0.0
C2011 C 0.77587 0.11763 0.33005 0.0
C2012 C 0.73859 0.13002 0.34521 0.0
C2013 C 0.73838 0.15708 0.3786 0.0
C2014 C 0.74208 0.14332 0.36936 0.0
C2015 C 0.76019 0.11545 0.33322 0.0
C2016 C 0.753 0.12295 0.34675 0.0
H2017 H 0.75497 0.1912 0.38716 0.0
H2018 H 0.76167 0.16572 0.37837 0.0
H2019 H 0.72264 0.14616 0.35419 0.0
H2020 H 0.74945 0.09994 0.29908 0.0
H2021 H 0.73907 0.10578 0.3243 0.0
C2022 C 0.31914 0.23025 0.89622 0.0
C2023 C 0.31491 0.21693 0.88834 0.0
C2024 C 0.33363 0.23667 0.89397 0.0
C2025 C 0.36989 0.23208 0.87124 0.0
H2026 H 0.35935 0.27296 0.85755 0.0
C2027 C 0.38263 0.2539 0.81224 0.0
C2028 C 0.38463 0.26955 0.80918 0.0
C2029 C 0.3807 0.24874 0.8272 0.0
C2030 C 0.36283 0.26178 0.86165 0.0
H2031 H 0.32256 0.19908 0.87304 0.0
H2032 H 0.3477 0.21027 0.86879 0.0
H2033 H 0.34353 0.26043 0.87646 0.0
H2034 H 0.38721 0.29198 0.81948 0.0
H2035 H 0.38337 0.28295 0.84581 0.0
H2036 H 0.38845 0.23308 0.85524 0.0
C2037 C 0.34018 0.21571 0.87701 0.0
C2038 C 0.35372 0.25453 0.87258 0.0
C2039 C 0.32574 0.20926 0.87938 0.0
C2040 C 0.38556 0.27986 0.82151 0.0
C2041 C 0.3834 0.2747 0.83655 0.0
C2042 C 0.37899 0.23934 0.86025 0.0
C2043 C 0.34393 0.22999 0.88352 0.0
C2044 C 0.35652 0.2392 0.87669 0.0
C2045 C 0.38058 0.25912 0.83949 0.0
C2046 C 0.37489 0.25384 0.8546 0.0
H2047 H 0.31083 0.23637 0.90311 0.0
H2048 H 0.33625 0.24752 0.89937 0.0
H2049 H 0.3726 0.22043 0.87448 0.0
H2050 H 0.38211 0.24562 0.80301 0.0
H2051 H 0.37832 0.23671 0.829 0.0
C2052 C 0.28301 0.82015 0.38782 0.0
C2053 C 0.27152 0.80894 0.38901 0.0
C2054 C 0.27927 0.83505 0.38327 0.0
C2055 C 0.26903 0.85682 0.35832 0.0
H2056 H 0.23047 0.87758 0.36559 0.0
C2057 C 0.2204 0.88588 0.31942 0.0
C2058 C 0.23 0.89231 0.30827 0.0
C2059 C 0.22646 0.88111 0.33347 0.0
C2060 C 0.2413 0.87196 0.36343 0.0
H2061 H 0.24702 0.80497 0.38814 0.0
H2062 H 0.24056 0.83077 0.38016 0.0
H2063 H 0.2398 0.85877 0.38409 0.0
H2064 H 0.25291 0.90051 0.30358 0.0
H2065 H 0.26334 0.89297 0.32833 0.0
H2066 H 0.27011 0.86886 0.3372 0.0
C2067 C 0.25243 0.82816 0.38266 0.0
C2068 C 0.24668 0.86126 0.37408 0.0
C2069 C 0.25615 0.81329 0.38707 0.0
C2070 C 0.24535 0.8953 0.31192 0.0
C2071 C 0.25132 0.8909 0.32607 0.0
C2072 C 0.26361 0.86737 0.34765 0.0
C2073 C 0.26399 0.83901 0.38001 0.0
C2074 C 0.26028 0.85311 0.37129 0.0
C2075 C 0.24217 0.88296 0.33669 0.0
C2076 C 0.24936 0.8746 0.34972 0.0
H2077 H 0.29495 0.81717 0.38937 0.0
H2078 H 0.28841 0.84324 0.38147 0.0
H2079 H 0.27945 0.85062 0.3557 0.0
H2080 H 0.20851 0.88346 0.31686 0.0
H2081 H 0.21903 0.87497 0.34126 0.0
C2082 C 0.6028 0.72292 0.82212 0.0
C2083 C 0.61475 0.71391 0.8163 0.0
C2084 C 0.60469 0.73076 0.83598 0.0
C2085 C 0.63206 0.73761 0.8682 0.0
H2086 H 0.63014 0.77973 0.85431 0.0
C2087 C 0.67376 0.78266 0.89123 0.0
C2088 C 0.68318 0.78677 0.87886 0.0
C2089 C 0.65938 0.77607 0.88854 0.0
C2090 C 0.63041 0.7681 0.85863 0.0
H2091 H 0.63727 0.70472 0.82075 0.0
H2092 H 0.64052 0.71803 0.845 0.0
H2093 H 0.61466 0.76035 0.84163 0.0
H2094 H 0.68471 0.78851 0.8542 0.0
H2095 H 0.65946 0.77763 0.84948 0.0
H2096 H 0.64894 0.74523 0.88425 0.0
C2097 C 0.62966 0.71909 0.83911 0.0
C2098 C 0.62146 0.75698 0.85143 0.0
C2099 C 0.62786 0.71147 0.82519 0.0
C2100 C 0.67757 0.78549 0.86389 0.0
C2101 C 0.6631 0.77933 0.86122 0.0
C2102 C 0.64092 0.74878 0.87548 0.0
C2103 C 0.61851 0.72957 0.84416 0.0
C2104 C 0.62302 0.74146 0.85544 0.0
C2105 C 0.65413 0.77396 0.87347 0.0
C2106 C 0.64092 0.76392 0.87003 0.0
H2107 H 0.59268 0.72509 0.81528 0.0
H2108 H 0.5959 0.73872 0.83963 0.0
H2109 H 0.63336 0.72576 0.87162 0.0
H2110 H 0.67799 0.78341 0.90287 0.0
H2111 H 0.65271 0.77194 0.89814 0.0
C2112 C 0.09217 0.22535 0.2326 0.0
C2113 C 0.08813 0.22898 0.21747 0.0
C2114 C 0.09827 0.21103 0.23614 0.0
C2115 C 0.12113 0.1814 0.21765 0.0
H2116 H 0.11804 0.1622 0.25757 0.0
C2117 C 0.15275 0.13147 0.25657 0.0
C2118 C 0.16803 0.13564 0.25364 0.0
C2119 C 0.14066 0.14022 0.25073 0.0
C2120 C 0.11888 0.16722 0.24626 0.0
H2121 H 0.08619 0.22009 0.19437 0.0
H2122 H 0.09673 0.19493 0.20058 0.0
H2123 H 0.09945 0.18166 0.25013 0.0
H2124 H 0.18253 0.15213 0.24197 0.0
H2125 H 0.16157 0.1674 0.23206 0.0
H2126 H 0.14068 0.16716 0.21386 0.0
C2127 C 0.0954 0.20327 0.20967 0.0
C2128 C 0.10831 0.17847 0.24206 0.0
C2129 C 0.08927 0.21763 0.20613 0.0
C2130 C 0.17092 0.14857 0.2445 0.0
C2131 C 0.15888 0.15726 0.23867 0.0
C2132 C 0.13165 0.17013 0.22184 0.0
C2133 C 0.10046 0.2 0.22462 0.0
C2134 C 0.10964 0.18607 0.22792 0.0
C2135 C 0.14361 0.15327 0.24178 0.0
C2136 C 0.13097 0.1633 0.23639 0.0
H2137 H 0.09134 0.23384 0.24161 0.0
H2138 H 0.10216 0.20899 0.24774 0.0
H2139 H 0.12258 0.18707 0.20672 0.0
H2140 H 0.15009 0.12154 0.2635 0.0
H2141 H 0.12901 0.13679 0.25324 0.0
C2142 C 0.35837 0.6575 0.75629 0.0
C2143 C 0.35231 0.67014 0.76421 0.0
C2144 C 0.34865 0.64594 0.75089 0.0
C2145 C 0.3102 0.62932 0.75546 0.0
H2146 H 0.3099 0.62491 0.71126 0.0
C2147 C 0.25547 0.6169 0.7226 0.0
C2148 C 0.25574 0.60786 0.70931 0.0
C2149 C 0.26901 0.62059 0.73016 0.0
C2150 C 0.31002 0.62566 0.72364 0.0
H2151 H 0.3316 0.68022 0.77345 0.0
H2152 H 0.31476 0.65993 0.76441 0.0
H2153 H 0.33119 0.63808 0.72374 0.0
H2154 H 0.27037 0.59538 0.69362 0.0
H2155 H 0.29423 0.6019 0.70693 0.0
H2156 H 0.28883 0.6174 0.7554 0.0
C2157 C 0.32694 0.65897 0.76225 0.0
C2158 C 0.32222 0.63321 0.73078 0.0
C2159 C 0.33656 0.67063 0.76733 0.0
C2160 C 0.26985 0.60241 0.70383 0.0
C2161 C 0.28348 0.60615 0.71143 0.0
C2162 C 0.2981 0.62168 0.74836 0.0
C2163 C 0.33282 0.64669 0.7537 0.0
C2164 C 0.32206 0.63566 0.74667 0.0
C2165 C 0.28319 0.61533 0.72467 0.0
C2166 C 0.29752 0.62039 0.73232 0.0
H2167 H 0.37048 0.65692 0.75367 0.0
H2168 H 0.35342 0.63659 0.74429 0.0
H2169 H 0.30993 0.63091 0.76776 0.0
H2170 H 0.24479 0.62129 0.72711 0.0
H2171 H 0.26837 0.62796 0.74012 0.0
C2172 C 0.82792 0.8658 0.25416 0.0
C2173 C 0.81296 0.86299 0.24888 0.0
C2174 C 0.83999 0.85622 0.24991 0.0
C2175 C 0.86113 0.82881 0.24703 0.0
H2176 H 0.86208 0.81083 0.20644 0.0
C2177 C 0.89144 0.77245 0.23342 0.0
C2178 C 0.89764 0.77003 0.2188 0.0
C2179 C 0.88413 0.78617 0.23695 0.0
C2180 C 0.86219 0.81596 0.21773 0.0
H2181 H 0.799 0.84785 0.23497 0.0
H2182 H 0.81998 0.83093 0.22788 0.0
H2183 H 0.84292 0.83016 0.2125 0.0
H2184 H 0.90194 0.78037 0.19665 0.0
H2185 H 0.88919 0.80456 0.20286 0.0
H2186 H 0.88036 0.81456 0.25228 0.0
C2187 C 0.82243 0.84073 0.23508 0.0
C2188 C 0.85104 0.82686 0.22128 0.0
C2189 C 0.81036 0.85034 0.23928 0.0
C2190 C 0.89729 0.78197 0.20804 0.0
C2191 C 0.88987 0.79574 0.21155 0.0
C2192 C 0.8723 0.81795 0.24347 0.0
C2193 C 0.8374 0.84357 0.24031 0.0
C2194 C 0.85014 0.83313 0.23609 0.0
C2195 C 0.88281 0.79778 0.22589 0.0
C2196 C 0.87271 0.81111 0.2289 0.0
H2197 H 0.83039 0.87552 0.26146 0.0
H2198 H 0.8514 0.85883 0.25401 0.0
H2199 H 0.86074 0.83336 0.25857 0.0
H2200 H 0.89158 0.76343 0.24194 0.0
H2201 H 0.8787 0.78728 0.24804 0.0
C2202 C 0.63343 0.34394 0.75848 0.0
C2203 C 0.63895 0.32902 0.75601 0.0
C2204 C 0.64054 0.3565 0.75147 0.0
C2205 C 0.668 0.36669 0.72048 0.0
H2206 H 0.67959 0.39999 0.74741 0.0
C2207 C 0.72332 0.4057 0.72927 0.0
C2208 C 0.72699 0.40913 0.714 0.0
C2209 C 0.70882 0.40026 0.73309 0.0
C2210 C 0.67634 0.39085 0.73969 0.0
H2211 H 0.65595 0.31559 0.74378 0.0
H2212 H 0.66834 0.3373 0.73186 0.0
H2213 H 0.66102 0.38106 0.75611 0.0
H2214 H 0.71804 0.41071 0.6909 0.0
H2215 H 0.69253 0.40123 0.6976 0.0
H2216 H 0.68417 0.37572 0.70452 0.0
C2217 C 0.65844 0.33938 0.73904 0.0
C2218 C 0.66558 0.38008 0.74462 0.0
C2219 C 0.65142 0.3269 0.74605 0.0
C2220 C 0.71552 0.40811 0.70277 0.0
C2221 C 0.70096 0.4026 0.70659 0.0
C2222 C 0.6788 0.3774 0.71558 0.0
C2223 C 0.6532 0.35434 0.74175 0.0
C2224 C 0.66183 0.3675 0.73532 0.0
C2225 C 0.69763 0.3981 0.72171 0.0
C2226 C 0.68359 0.38922 0.72539 0.0
H2227 H 0.62379 0.34597 0.76602 0.0
H2228 H 0.63621 0.36789 0.75373 0.0
H2229 H 0.6651 0.35729 0.71292 0.0
H2230 H 0.73192 0.40645 0.73818 0.0
H2231 H 0.70678 0.39676 0.74481 0.0
C2232 C 0.10436 0.7716 0.79273 0.0
C2233 C 0.11027 0.7577 0.78718 0.0
C2234 C 0.10882 0.78551 0.78611 0.0
C2235 C 0.12826 0.80146 0.75156 0.0
H2236 H 0.14056 0.83423 0.77889 0.0
C2237 C 0.17808 0.84211 0.74056 0.0
C2238 C 0.17549 0.85792 0.74174 0.0
C2239 C 0.16667 0.83174 0.74463 0.0
C2240 C 0.13687 0.8253 0.77111 0.0
H2241 H 0.12532 0.74744 0.7703 0.0
H2242 H 0.13334 0.77148 0.7591 0.0
H2243 H 0.12661 0.81221 0.7891 0.0
H2244 H 0.159 0.87535 0.74807 0.0
H2245 H 0.13909 0.85698 0.75586 0.0
H2246 H 0.13959 0.81406 0.73382 0.0
C2247 C 0.12501 0.77177 0.76828 0.0
C2248 C 0.12887 0.81271 0.77692 0.0
C2249 C 0.12053 0.75794 0.77483 0.0
C2250 C 0.16122 0.8632 0.74699 0.0
C2251 C 0.14989 0.85276 0.75146 0.0
C2252 C 0.13644 0.81391 0.74582 0.0
C2253 C 0.11926 0.78574 0.77383 0.0
C2254 C 0.12501 0.80036 0.7673 0.0
C2255 C 0.15257 0.83696 0.75028 0.0
C2256 C 0.14123 0.82566 0.75565 0.0
H2257 H 0.09636 0.77173 0.80221 0.0
H2258 H 0.10412 0.79606 0.79061 0.0
H2259 H 0.12509 0.79236 0.74376 0.0
H2260 H 0.18895 0.83775 0.73648 0.0
H2261 H 0.16902 0.81959 0.74377 0.0
C2262 C 0.64871 0.68227 0.25403 0.0
C2263 C 0.63498 0.6792 0.24621 0.0
C2264 C 0.65775 0.67032 0.25961 0.0
C2265 C 0.67057 0.64363 0.27752 0.0
H2266 H 0.67814 0.6083 0.25173 0.0
C2267 C 0.71358 0.59742 0.29587 0.0
C2268 C 0.72452 0.59426 0.28452 0.0
C2269 C 0.69996 0.60496 0.29205 0.0
C2270 C 0.67607 0.61805 0.2591 0.0
H2271 H 0.62 0.66105 0.23818 0.0
H2272 H 0.63576 0.64023 0.248 0.0
H2273 H 0.66016 0.62791 0.24331 0.0
H2274 H 0.72936 0.59535 0.26021 0.0
H2275 H 0.70575 0.60841 0.25354 0.0
H2276 H 0.6871 0.63421 0.29292 0.0
C2277 C 0.63959 0.6519 0.24967 0.0
C2278 C 0.66568 0.62924 0.25433 0.0
C2279 C 0.63055 0.66386 0.24406 0.0
C2280 C 0.72112 0.59768 0.26919 0.0
C2281 C 0.70753 0.6051 0.26536 0.0
C2282 C 0.68098 0.63246 0.28227 0.0
C2283 C 0.65328 0.655 0.25755 0.0
C2284 C 0.6631 0.64235 0.26331 0.0
C2285 C 0.69703 0.60933 0.2768 0.0
C2286 C 0.68414 0.61973 0.27294 0.0
H2287 H 0.6525 0.69393 0.2559 0.0
H2288 H 0.66837 0.67311 0.26537 0.0
H2289 H 0.66863 0.65345 0.28484 0.0
H2290 H 0.71596 0.59496 0.3078 0.0
H2291 H 0.692 0.6079 0.30109 0.0
C2292 C 0.89502 0.2271 0.76912 0.0
C2293 C 0.89996 0.22986 0.78417 0.0
C2294 C 0.88802 0.21327 0.76529 0.0
C2295 C 0.87724 0.18105 0.75849 0.0
H2296 H 0.84566 0.16876 0.78717 0.0
C2297 C 0.83509 0.13156 0.74551 0.0
C2298 C 0.81964 0.13441 0.74907 0.0
C2299 C 0.8466 0.14145 0.75062 0.0
C2300 C 0.85442 0.17205 0.77904 0.0
H2301 H 0.90231 0.21998 0.80682 0.0
H2302 H 0.89014 0.19568 0.80009 0.0
H2303 H 0.86365 0.18884 0.79427 0.0
H2304 H 0.80424 0.14992 0.76093 0.0
H2305 H 0.82424 0.16722 0.76961 0.0
H2306 H 0.86752 0.16477 0.74296 0.0
C2307 C 0.89152 0.20431 0.7913 0.0
C2308 C 0.86488 0.18341 0.78319 0.0
C2309 C 0.8986 0.21817 0.79512 0.0
C2310 C 0.816 0.14733 0.75797 0.0
C2311 C 0.8275 0.1572 0.76306 0.0
C2312 C 0.86677 0.16968 0.75433 0.0
C2313 C 0.88577 0.20188 0.77643 0.0
C2314 C 0.87619 0.1883 0.77283 0.0
C2315 C 0.84293 0.15441 0.75943 0.0
C2316 C 0.85502 0.16531 0.76442 0.0
H2317 H 0.89596 0.23589 0.76042 0.0
H2318 H 0.88361 0.21187 0.75378 0.0
H2319 H 0.88592 0.18444 0.75031 0.0
H2320 H 0.83834 0.12168 0.73875 0.0
H2321 H 0.85839 0.1389 0.74774 0.0
C2322 C 0.34077 0.34412 0.22994 0.0
C2323 C 0.35606 0.34111 0.23381 0.0
C2324 C 0.33328 0.35683 0.23601 0.0
C2325 C 0.32888 0.37722 0.2699 0.0
H2326 H 0.30623 0.40631 0.24517 0.0
C2327 C 0.27707 0.40965 0.29479 0.0
C2328 C 0.26413 0.40869 0.28528 0.0
C2329 C 0.29165 0.40626 0.28898 0.0
C2330 C 0.31251 0.39833 0.25228 0.0
H2331 H 0.37566 0.34899 0.24682 0.0
H2332 H 0.36216 0.37106 0.2581 0.0
H2333 H 0.32626 0.39076 0.2334 0.0
H2334 H 0.25635 0.40427 0.26211 0.0
H2335 H 0.2814 0.39811 0.25213 0.0
H2336 H 0.3142 0.38358 0.28844 0.0
C2337 C 0.35621 0.36374 0.25004 0.0
C2338 C 0.32405 0.38956 0.24555 0.0
C2339 C 0.36389 0.35121 0.2436 0.0
C2340 C 0.26609 0.40505 0.26976 0.0
C2341 C 0.28055 0.40169 0.26398 0.0
C2342 C 0.31714 0.38581 0.2766 0.0
C2343 C 0.34082 0.36654 0.24634 0.0
C2344 C 0.33188 0.37853 0.25418 0.0
C2345 C 0.2935 0.40191 0.27355 0.0
C2346 C 0.30832 0.39592 0.26766 0.0
H2347 H 0.33452 0.33648 0.22243 0.0
H2348 H 0.32134 0.35868 0.23315 0.0
H2349 H 0.33472 0.36866 0.27672 0.0
H2350 H 0.27588 0.41247 0.30681 0.0
H2351 H 0.3014 0.40665 0.29664 0.0
C2352 C 0.27122 0.16207 0.16484 0.0
C2353 C 0.26699 0.1647 0.14957 0.0
C2354 C 0.26606 0.14909 0.17253 0.0
C2355 C 0.23269 0.12577 0.17494 0.0
H2356 H 0.25706 0.10296 0.20421 0.0
C2357 C 0.20464 0.09351 0.22545 0.0
C2358 C 0.21143 0.09723 0.23956 0.0
C2359 C 0.21218 0.09694 0.21169 0.0
C2360 C 0.25008 0.10915 0.19604 0.0
H2361 H 0.25451 0.15564 0.13013 0.0
H2362 H 0.24497 0.13301 0.14386 0.0
H2363 H 0.26976 0.11799 0.18437 0.0
H2364 H 0.23163 0.10681 0.25038 0.0
H2365 H 0.24457 0.1129 0.22665 0.0
H2366 H 0.21304 0.118 0.18732 0.0
C2367 C 0.25252 0.14091 0.14972 0.0
C2368 C 0.25736 0.11767 0.18465 0.0
C2369 C 0.25801 0.15378 0.14189 0.0
C2370 C 0.22607 0.10384 0.23969 0.0
C2371 C 0.23358 0.10718 0.22604 0.0
C2372 C 0.22539 0.11737 0.18645 0.0
C2373 C 0.25629 0.13862 0.1652 0.0
C2374 C 0.24875 0.12659 0.17443 0.0
C2375 C 0.22666 0.10401 0.21186 0.0
C2376 C 0.23405 0.10957 0.19757 0.0
H2377 H 0.27815 0.17032 0.171 0.0
H2378 H 0.26898 0.14771 0.18451 0.0
H2379 H 0.22579 0.13263 0.16724 0.0
H2380 H 0.19336 0.08838 0.22503 0.0
H2381 H 0.20657 0.09431 0.20094 0.0
C2382 C 0.3298 0.75483 0.6351 0.0
C2383 C 0.31494 0.76 0.63843 0.0
C2384 C 0.3392 0.7491 0.64677 0.0
C2385 C 0.33631 0.73354 0.68635 0.0
H2386 H 0.38038 0.739 0.68699 0.0
C2387 C 0.37247 0.72442 0.74011 0.0
C2388 C 0.38385 0.7131 0.73898 0.0
C2389 C 0.36524 0.72996 0.72702 0.0
C2390 C 0.36809 0.73732 0.68682 0.0
H2391 H 0.29858 0.76411 0.65663 0.0
H2392 H 0.3151 0.75487 0.67699 0.0
H2393 H 0.36536 0.74967 0.6658 0.0
H2394 H 0.39705 0.6992 0.7232 0.0
H2395 H 0.38451 0.70931 0.70009 0.0
H2396 H 0.33901 0.72178 0.70768 0.0
C2397 C 0.31936 0.75454 0.66535 0.0
C2398 C 0.35948 0.74336 0.6747 0.0
C2399 C 0.3099 0.75998 0.65369 0.0
C2400 C 0.38827 0.70787 0.7244 0.0
C2401 C 0.38117 0.71366 0.71122 0.0
C2402 C 0.34486 0.72776 0.69852 0.0
C2403 C 0.33398 0.74865 0.66202 0.0
C2404 C 0.34343 0.74173 0.67444 0.0
C2405 C 0.3694 0.72453 0.7125 0.0
C2406 C 0.36077 0.72974 0.69894 0.0
H2407 H 0.33395 0.75465 0.62341 0.0
H2408 H 0.35034 0.74458 0.64374 0.0
H2409 H 0.32406 0.73159 0.68634 0.0
H2410 H 0.36887 0.72878 0.75114 0.0
H2411 H 0.35625 0.73843 0.72824 0.0
C2412 C 0.77094 0.9046 0.21918 0.0
C2413 C 0.78562 0.9034 0.22552 0.0
C2414 C 0.76721 0.8966 0.20586 0.0
C2415 C 0.78316 0.87094 0.17523 0.0
H2416 H 0.74249 0.85324 0.17754 0.0
C2417 C 0.76425 0.81563 0.14366 0.0
C2418 C 0.75025 0.81637 0.13573 0.0
C2419 C 0.76892 0.82774 0.15303 0.0
C2420 C 0.75382 0.85822 0.17665 0.0
H2421 H 0.80818 0.89356 0.2227 0.0
H2422 H 0.80156 0.87896 0.19986 0.0
H2423 H 0.75019 0.87233 0.19618 0.0
H2424 H 0.73021 0.83036 0.13135 0.0
H2425 H 0.7382 0.85133 0.14811 0.0
H2426 H 0.78689 0.85595 0.15609 0.0
C2427 C 0.79299 0.88646 0.20474 0.0
C2428 C 0.75824 0.86929 0.18727 0.0
C2429 C 0.79684 0.89485 0.21784 0.0
C2430 C 0.74103 0.82945 0.13735 0.0
C2431 C 0.74558 0.84143 0.14693 0.0
C2432 C 0.77879 0.85962 0.16475 0.0
C2433 C 0.77793 0.88677 0.19892 0.0
C2434 C 0.773 0.8758 0.18677 0.0
C2435 C 0.75957 0.84069 0.15483 0.0
C2436 C 0.7641 0.85312 0.16543 0.0
H2437 H 0.76213 0.91116 0.22495 0.0
H2438 H 0.75566 0.89759 0.20145 0.0
H2439 H 0.79453 0.87579 0.17431 0.0
H2440 H 0.77168 0.80577 0.14249 0.0
H2441 H 0.7797 0.82686 0.1591 0.0
C2442 C 0.60365 0.28427 0.7299 0.0
C2443 C 0.60984 0.28037 0.74422 0.0
C2444 C 0.60897 0.27712 0.71656 0.0
C2445 C 0.63285 0.24418 0.7031 0.0
H2446 H 0.64162 0.27077 0.66865 0.0
C2447 C 0.68251 0.23543 0.66101 0.0
C2448 C 0.67945 0.2368 0.64528 0.0
C2449 C 0.67114 0.23862 0.67177 0.0
C2450 C 0.639 0.26315 0.67808 0.0
H2451 H 0.6261 0.26566 0.75589 0.0
H2452 H 0.63565 0.25365 0.73283 0.0
H2453 H 0.62653 0.28047 0.69007 0.0
H2454 H 0.66207 0.24242 0.62844 0.0
H2455 H 0.64227 0.24851 0.6474 0.0
H2456 H 0.64627 0.22724 0.69147 0.0
C2457 C 0.62647 0.26191 0.73176 0.0
C2458 C 0.6303 0.26867 0.69034 0.0
C2459 C 0.6211 0.26895 0.74502 0.0
C2460 C 0.66471 0.24119 0.6405 0.0
C2461 C 0.65342 0.24472 0.6513 0.0
C2462 C 0.64174 0.23877 0.69097 0.0
C2463 C 0.62061 0.266 0.71732 0.0
C2464 C 0.62754 0.2594 0.70322 0.0
C2465 C 0.65658 0.24353 0.66701 0.0
C2466 C 0.64522 0.24835 0.67857 0.0
H2467 H 0.59488 0.29299 0.72896 0.0
H2468 H 0.60408 0.28043 0.70565 0.0
H2469 H 0.63059 0.23658 0.71263 0.0
H2470 H 0.69375 0.23202 0.66501 0.0
H2471 H 0.67388 0.23776 0.68384 0.0
C2472 C 0.22616 0.89201 0.76694 0.0
C2473 C 0.21142 0.89815 0.76511 0.0
C2474 C 0.2309 0.88638 0.78111 0.0
C2475 C 0.21483 0.86873 0.81523 0.0
H2476 H 0.2571 0.86969 0.82885 0.0
C2477 C 0.25701 0.83874 0.86347 0.0
C2478 C 0.25257 0.82343 0.8612 0.0
C2479 C 0.25109 0.85038 0.85417 0.0
C2480 C 0.24519 0.86949 0.82539 0.0
H2481 H 0.19032 0.90393 0.77682 0.0
H2482 H 0.19863 0.89402 0.80172 0.0
H2483 H 0.24875 0.88682 0.80841 0.0
H2484 H 0.2381 0.80843 0.84762 0.0
H2485 H 0.22797 0.8286 0.83144 0.0
H2486 H 0.21135 0.85116 0.83195 0.0
C2487 C 0.20647 0.8935 0.79212 0.0
C2488 C 0.24044 0.87921 0.81359 0.0
C2489 C 0.20175 0.89923 0.77791 0.0
C2490 C 0.24185 0.82007 0.84967 0.0
C2491 C 0.23589 0.83167 0.84047 0.0
C2492 C 0.21958 0.85901 0.82701 0.0
C2493 C 0.22099 0.88671 0.79377 0.0
C2494 C 0.22533 0.87858 0.80806 0.0
C2495 C 0.24052 0.84694 0.84252 0.0
C2496 C 0.23493 0.85894 0.83186 0.0
H2497 H 0.2339 0.89107 0.75728 0.0
H2498 H 0.24207 0.88105 0.78191 0.0
H2499 H 0.20314 0.86789 0.81119 0.0
H2500 H 0.2652 0.84174 0.87229 0.0
H2501 H 0.2548 0.86205 0.85606 0.0
C2502 C 0.59875 0.70458 0.27917 0.0
C2503 C 0.59754 0.7149 0.26691 0.0
C2504 C 0.60631 0.7089 0.29264 0.0
C2505 C 0.62233 0.74243 0.31359 0.0
H2506 H 0.6535 0.71356 0.32647 0.0
C2507 C 0.68452 0.74261 0.34572 0.0
C2508 C 0.68143 0.75202 0.35842 0.0
C2509 C 0.67267 0.73764 0.33621 0.0
C2510 C 0.64487 0.72176 0.32299 0.0
H2511 H 0.6023 0.73808 0.25943 0.0
H2512 H 0.6154 0.74559 0.28276 0.0
H2513 H 0.63461 0.70587 0.30744 0.0
H2514 H 0.66337 0.76358 0.37102 0.0
H2515 H 0.64272 0.75484 0.35442 0.0
H2516 H 0.63307 0.75856 0.32858 0.0
C2517 C 0.61053 0.73421 0.28213 0.0
C2518 C 0.63389 0.71727 0.31226 0.0
C2519 C 0.60309 0.72987 0.2687 0.0
C2520 C 0.6662 0.75641 0.3613 0.0
C2521 C 0.65434 0.75143 0.35177 0.0
C2522 C 0.63332 0.74692 0.32432 0.0
C2523 C 0.61264 0.72365 0.29408 0.0
C2524 C 0.62272 0.72767 0.30717 0.0
C2525 C 0.65744 0.74193 0.33916 0.0
C2526 C 0.64493 0.73674 0.32887 0.0
H2527 H 0.59461 0.69294 0.27806 0.0
H2528 H 0.60761 0.70057 0.30173 0.0
H2529 H 0.61377 0.75065 0.31001 0.0
H2530 H 0.6961 0.73898 0.34315 0.0
H2531 H 0.67549 0.73056 0.32642 0.0
C2532 C 0.76974 0.09331 0.76886 0.0
C2533 C 0.78529 0.08998 0.76653 0.0
C2534 C 0.76441 0.09739 0.78333 0.0
C2535 C 0.75483 0.10404 0.81599 0.0
H2536 H 0.77929 0.1384 0.82981 0.0
C2537 C 0.73663 0.15094 0.86117 0.0
C2538 C 0.73662 0.16542 0.85405 0.0
C2539 C 0.74314 0.13825 0.85379 0.0
C2540 C 0.77249 0.12863 0.82631 0.0
H2541 H 0.80729 0.08719 0.77766 0.0
H2542 H 0.79798 0.09456 0.8031 0.0
H2543 H 0.78993 0.12056 0.81121 0.0
H2544 H 0.74308 0.17772 0.8334 0.0
H2545 H 0.75447 0.15575 0.82078 0.0
H2546 H 0.73702 0.11291 0.83046 0.0
C2547 C 0.78992 0.09399 0.79368 0.0
C2548 C 0.7786 0.11835 0.81574 0.0
C2549 C 0.79524 0.08974 0.77916 0.0
C2550 C 0.74297 0.16683 0.83932 0.0
C2551 C 0.74957 0.15427 0.83209 0.0
C2552 C 0.74876 0.11429 0.82671 0.0
C2553 C 0.77456 0.09836 0.79578 0.0
C2554 C 0.76958 0.10637 0.80991 0.0
C2555 C 0.74989 0.13995 0.83931 0.0
C2556 C 0.75733 0.12705 0.83136 0.0
H2557 H 0.7618 0.09348 0.75932 0.0
H2558 H 0.75256 0.10086 0.78449 0.0
H2559 H 0.74767 0.09483 0.81178 0.0
H2560 H 0.73184 0.14945 0.87252 0.0
H2561 H 0.74322 0.12724 0.85949 0.0
C2562 C 0.37606 0.27734 0.25261 0.0
C2563 C 0.38598 0.28995 0.25335 0.0
C2564 C 0.37241 0.26913 0.26578 0.0
C2565 C 0.36953 0.2729 0.30733 0.0
H2566 H 0.36273 0.22909 0.30465 0.0
C2567 C 0.33857 0.23887 0.35504 0.0
C2568 C 0.32556 0.23147 0.34913 0.0
C2569 C 0.34995 0.24433 0.34513 0.0
C2570 C 0.36474 0.24129 0.30562 0.0
H2571 H 0.39999 0.30382 0.26845 0.0
H2572 H 0.39351 0.28941 0.29165 0.0
H2573 H 0.37551 0.2424 0.28367 0.0
H2574 H 0.31466 0.22309 0.32846 0.0
H2575 H 0.33455 0.23229 0.31128 0.0
H2576 H 0.35819 0.27182 0.32907 0.0
C2577 C 0.38855 0.28594 0.28082 0.0
C2578 C 0.37197 0.24892 0.29361 0.0
C2579 C 0.39226 0.29416 0.26756 0.0
C2580 C 0.32454 0.22883 0.33331 0.0
C2581 C 0.33599 0.23399 0.32349 0.0
C2582 C 0.36235 0.26523 0.31941 0.0
C2583 C 0.37859 0.27331 0.28005 0.0
C2584 C 0.37383 0.26491 0.29403 0.0
C2585 C 0.34861 0.24212 0.32924 0.0
C2586 C 0.35932 0.24947 0.31836 0.0
H2587 H 0.37102 0.27381 0.24183 0.0
H2588 H 0.36444 0.25968 0.26482 0.0
H2589 H 0.37075 0.28522 0.30798 0.0
H2590 H 0.33958 0.24111 0.3672 0.0
H2591 H 0.35958 0.25057 0.34983 0.0
C2592 C 0.22427 0.20861 0.12113 0.0
C2593 C 0.23879 0.21176 0.12732 0.0
C2594 C 0.21101 0.21337 0.12876 0.0
C2595 C 0.19626 0.22075 0.16655 0.0
H2596 H 0.16655 0.2479 0.1478 0.0
C2597 C 0.14917 0.24876 0.20262 0.0
C2598 C 0.1347 0.25117 0.19604 0.0
C2599 C 0.16148 0.244 0.19363 0.0
C2600 C 0.17456 0.2401 0.15315 0.0
H2601 H 0.25083 0.22235 0.14629 0.0
H2602 H 0.22768 0.23019 0.15982 0.0
H2603 H 0.18853 0.23897 0.13293 0.0
H2604 H 0.12175 0.25048 0.17488 0.0
H2605 H 0.1431 0.24156 0.15922 0.0
H2606 H 0.18229 0.22134 0.18657 0.0
C2607 C 0.22659 0.2242 0.14901 0.0
C2608 C 0.18717 0.23507 0.14463 0.0
C2609 C 0.23982 0.21974 0.14124 0.0
C2610 C 0.13282 0.24883 0.18024 0.0
C2611 C 0.14509 0.24377 0.17126 0.0
C2612 C 0.18355 0.22552 0.17497 0.0
C2613 C 0.2121 0.22104 0.14285 0.0
C2614 C 0.19822 0.22556 0.15137 0.0
C2615 C 0.15957 0.2412 0.17786 0.0
C2616 C 0.17266 0.23549 0.1685 0.0
H2617 H 0.22316 0.20252 0.11037 0.0
H2618 H 0.19991 0.2108 0.12385 0.0
H2619 H 0.20457 0.21326 0.1719 0.0
H2620 H 0.15102 0.25065 0.21474 0.0
H2621 H 0.17252 0.24259 0.19908 0.0
C2622 C 0.22377 0.79064 0.90431 0.0
C2623 C 0.23754 0.78322 0.90052 0.0
C2624 C 0.20967 0.78394 0.90058 0.0
C2625 C 0.19221 0.74723 0.88714 0.0
H2626 H 0.16397 0.77369 0.86537 0.0
C2627 C 0.15835 0.72975 0.83441 0.0
C2628 C 0.14277 0.73349 0.83335 0.0
C2629 C 0.16699 0.7346 0.84691 0.0
C2630 C 0.17154 0.76621 0.87175 0.0
H2631 H 0.24735 0.76276 0.89045 0.0
H2632 H 0.22304 0.7513 0.88375 0.0
H2633 H 0.18503 0.78495 0.87993 0.0
H2634 H 0.12384 0.74495 0.84455 0.0
H2635 H 0.13927 0.75406 0.86635 0.0
H2636 H 0.17943 0.72849 0.87782 0.0
C2637 C 0.22295 0.76213 0.8898 0.0
C2638 C 0.1836 0.77264 0.88011 0.0
C2639 C 0.23695 0.76879 0.8935 0.0
C2640 C 0.13583 0.74185 0.84522 0.0
C2641 C 0.14462 0.74708 0.8576 0.0
C2642 C 0.1803 0.74083 0.87863 0.0
C2643 C 0.20912 0.76969 0.89308 0.0
C2644 C 0.19447 0.76318 0.88733 0.0
C2645 C 0.1603 0.74356 0.85845 0.0
C2646 C 0.17025 0.75025 0.87038 0.0
H2647 H 0.2239 0.80178 0.90976 0.0
H2648 H 0.19922 0.79002 0.90334 0.0
H2649 H 0.20015 0.73964 0.8929 0.0
H2650 H 0.16394 0.7233 0.82541 0.0
H2651 H 0.1791 0.73191 0.84722 0.0
C2652 C 0.72758 0.72649 0.39267 0.0
C2653 C 0.71248 0.72966 0.39715 0.0
C2654 C 0.73106 0.71305 0.3848 0.0
C2655 C 0.73692 0.68143 0.37216 0.0
H2656 H 0.70924 0.67212 0.33871 0.0
C2657 C 0.74923 0.63273 0.32918 0.0
C2658 C 0.7461 0.63572 0.31366 0.0
C2659 C 0.74433 0.64281 0.34059 0.0
C2660 C 0.71712 0.67462 0.34796 0.0
H2661 H 0.68927 0.72092 0.39765 0.0
H2662 H 0.69539 0.69721 0.38397 0.0
H2663 H 0.70224 0.69164 0.35739 0.0
H2664 H 0.73534 0.65176 0.29802 0.0
H2665 H 0.72713 0.66951 0.31789 0.0
H2666 H 0.75214 0.66499 0.36233 0.0
C2667 C 0.70451 0.70524 0.38643 0.0
C2668 C 0.713 0.68563 0.35881 0.0
C2669 C 0.70103 0.71871 0.3944 0.0
C2670 C 0.73797 0.64908 0.30984 0.0
C2671 C 0.73312 0.6592 0.32126 0.0
C2672 C 0.74107 0.67046 0.36129 0.0
C2673 C 0.7195 0.70246 0.38119 0.0
C2674 C 0.72298 0.68937 0.37088 0.0
C2675 C 0.73623 0.65618 0.33678 0.0
C2676 C 0.73134 0.6671 0.3489 0.0
H2677 H 0.73663 0.73474 0.39462 0.0
H2678 H 0.74269 0.7114 0.38081 0.0
H2679 H 0.7448 0.68394 0.38141 0.0
H2680 H 0.75534 0.62249 0.33259 0.0
H2681 H 0.74675 0.64002 0.35243 0.0
C2682 C 0.77123 0.2075 0.88774 0.0
C2683 C 0.7567 0.21165 0.88223 0.0
C2684 C 0.78447 0.21378 0.8812 0.0
C2685 C 0.79736 0.24525 0.85507 0.0
H2686 H 0.83248 0.21889 0.84852 0.0
C2687 C 0.84209 0.25381 0.80742 0.0
C2688 C 0.8575 0.25424 0.81202 0.0
C2689 C 0.83066 0.2498 0.81784 0.0
C2690 C 0.8228 0.22641 0.85045 0.0
H2691 H 0.74464 0.22567 0.86564 0.0
H2692 H 0.76747 0.23598 0.8539 0.0
H2693 H 0.81079 0.20954 0.86351 0.0
H2694 H 0.87307 0.25066 0.83104 0.0
H2695 H 0.85298 0.24311 0.84918 0.0
H2696 H 0.80908 0.26173 0.84117 0.0
C2697 C 0.76881 0.22832 0.86354 0.0
C2698 C 0.8104 0.22111 0.8591 0.0
C2699 C 0.75565 0.22225 0.8702 0.0
C2700 C 0.86126 0.25053 0.82723 0.0
C2701 C 0.84983 0.24616 0.83757 0.0
C2702 C 0.8096 0.2504 0.8462 0.0
C2703 C 0.78342 0.2242 0.86893 0.0
C2704 C 0.79736 0.23036 0.86125 0.0
C2705 C 0.83445 0.24581 0.83294 0.0
C2706 C 0.82229 0.24093 0.84362 0.0
H2707 H 0.77236 0.19941 0.89707 0.0
H2708 H 0.7955 0.21047 0.88579 0.0
H2709 H 0.78775 0.25288 0.85683 0.0
H2710 H 0.83887 0.25665 0.79578 0.0
H2711 H 0.81886 0.2495 0.81402 0.0
C2712 C 0.28908 0.27213 0.3866 0.0
C2713 C 0.28391 0.25775 0.3816 0.0
C2714 C 0.28318 0.28556 0.38013 0.0
C2715 C 0.27606 0.31163 0.35825 0.0
H2716 H 0.23468 0.31225 0.34208 0.0
C2717 C 0.24267 0.34562 0.30851 0.0
C2718 C 0.24246 0.36087 0.31363 0.0
C2719 C 0.24686 0.33382 0.31843 0.0
C2720 C 0.24623 0.31222 0.34662 0.0
H2721 H 0.26849 0.24616 0.36597 0.0
H2722 H 0.2588 0.2693 0.35426 0.0
H2723 H 0.24322 0.29045 0.35727 0.0
H2724 H 0.24662 0.37576 0.33306 0.0
H2725 H 0.25452 0.35502 0.35032 0.0
H2726 H 0.27877 0.33369 0.34774 0.0
C2727 C 0.26699 0.27041 0.3635 0.0
C2728 C 0.25121 0.2997 0.3552 0.0
C2729 C 0.27269 0.25706 0.37012 0.0
C2730 C 0.24661 0.36409 0.32885 0.0
C2731 C 0.25117 0.35229 0.33868 0.0
C2732 C 0.27094 0.32432 0.34992 0.0
C2733 C 0.27214 0.28487 0.36838 0.0
C2734 C 0.26633 0.29902 0.36078 0.0
C2735 C 0.25125 0.33708 0.33355 0.0
C2736 C 0.25611 0.32452 0.34375 0.0
H2737 H 0.29767 0.273 0.39551 0.0
H2738 H 0.28726 0.29647 0.38437 0.0
H2739 H 0.28782 0.3115 0.36216 0.0
H2740 H 0.23947 0.3428 0.29686 0.0
H2741 H 0.24693 0.32215 0.31424 0.0
C2742 C 0.78204 0.79784 0.09885 0.0
C2743 C 0.77149 0.78602 0.09612 0.0
C2744 C 0.79589 0.79471 0.10632 0.0
C2745 C 0.821 0.76294 0.12003 0.0
H2746 H 0.82783 0.78974 0.15475 0.0
C2747 C 0.84715 0.75941 0.18467 0.0
C2748 C 0.86078 0.75124 0.18209 0.0
C2749 C 0.83857 0.765 0.1724 0.0
C2750 C 0.82608 0.78214 0.14511 0.0
H2751 H 0.76753 0.76161 0.09795 0.0
H2752 H 0.79152 0.75616 0.11088 0.0
H2753 H 0.80917 0.79688 0.13532 0.0
H2754 H 0.87617 0.74278 0.16449 0.0
H2755 H 0.86121 0.75265 0.14308 0.0
H2756 H 0.8372 0.74775 0.13032 0.0
C2757 C 0.78928 0.7678 0.10727 0.0
C2758 C 0.81555 0.78635 0.13383 0.0
C2759 C 0.77548 0.77093 0.09992 0.0
C2760 C 0.86567 0.74891 0.16691 0.0
C2761 C 0.85708 0.75455 0.15462 0.0
C2762 C 0.83149 0.7587 0.13134 0.0
C2763 C 0.79942 0.77972 0.11104 0.0
C2764 C 0.81256 0.77659 0.12138 0.0
C2765 C 0.84341 0.76263 0.15723 0.0
C2766 C 0.83381 0.76805 0.14425 0.0
H2767 H 0.77921 0.80959 0.09611 0.0
H2768 H 0.80354 0.80411 0.10893 0.0
H2769 H 0.81909 0.75526 0.11048 0.0
H2770 H 0.84302 0.76144 0.19619 0.0
H2771 H 0.82794 0.77091 0.17483 0.0
C2772 C 0.73738 0.35182 0.69079 0.0
C2773 C 0.7467 0.36423 0.68654 0.0
C2774 C 0.7324 0.34125 0.67985 0.0
C2775 C 0.71681 0.32506 0.65336 0.0
H2776 H 0.74588 0.3106 0.62308 0.0
C2777 C 0.70057 0.27876 0.60892 0.0
C2778 C 0.71127 0.26682 0.60769 0.0
C2779 C 0.70447 0.29234 0.61651 0.0
C2780 C 0.73762 0.31454 0.63145 0.0
H2781 H 0.75796 0.3753 0.66733 0.0
H2782 H 0.74918 0.35694 0.64828 0.0
H2783 H 0.75342 0.33065 0.64094 0.0
H2784 H 0.73459 0.25996 0.61278 0.0
H2785 H 0.74133 0.28345 0.62599 0.0
H2786 H 0.70125 0.30845 0.6443 0.0
C2787 C 0.74588 0.35528 0.66012 0.0
C2788 C 0.74189 0.32614 0.6416 0.0
C2789 C 0.75088 0.36583 0.67106 0.0
C2790 C 0.72609 0.26896 0.61356 0.0
C2791 C 0.72999 0.28249 0.62105 0.0
C2792 C 0.71255 0.31344 0.64322 0.0
C2793 C 0.73659 0.34285 0.66439 0.0
C2794 C 0.73163 0.33135 0.65286 0.0
C2795 C 0.71915 0.29423 0.62289 0.0
C2796 C 0.723 0.30784 0.63234 0.0
H2797 H 0.73392 0.35021 0.70259 0.0
H2798 H 0.72546 0.33168 0.68358 0.0
H2799 H 0.70856 0.32899 0.66174 0.0
H2800 H 0.68906 0.2774 0.60452 0.0
H2801 H 0.69592 0.30125 0.61761 0.0
C2802 C 0.23186 0.65788 0.66106 0.0
C2803 C 0.23519 0.64221 0.66215 0.0
C2804 C 0.23729 0.66644 0.64876 0.0
C2805 C 0.26933 0.6716 0.62545 0.0
H2806 H 0.24285 0.69719 0.60065 0.0
C2807 C 0.29329 0.7233 0.59178 0.0
C2808 C 0.28462 0.73671 0.59367 0.0
C2809 C 0.28717 0.70906 0.59596 0.0
C2810 C 0.25043 0.69013 0.60746 0.0
H2811 H 0.24664 0.62309 0.65127 0.0
H2812 H 0.2568 0.63841 0.62985 0.0
H2813 H 0.23179 0.67674 0.61614 0.0
H2814 H 0.26262 0.74571 0.60085 0.0
H2815 H 0.25219 0.72125 0.60845 0.0
H2816 H 0.28783 0.68579 0.61796 0.0
C2817 C 0.24967 0.64386 0.63841 0.0
C2818 C 0.24409 0.67835 0.61619 0.0
C2819 C 0.24385 0.63515 0.65057 0.0
C2820 C 0.26961 0.73559 0.59927 0.0
C2821 C 0.26355 0.72147 0.60348 0.0
C2822 C 0.27568 0.68358 0.61692 0.0
C2823 C 0.24645 0.65958 0.63749 0.0
C2824 C 0.25343 0.66935 0.62563 0.0
C2825 C 0.27229 0.70803 0.60209 0.0
C2826 C 0.2662 0.69339 0.60833 0.0
H2827 H 0.22519 0.66356 0.66985 0.0
H2828 H 0.23481 0.67859 0.64833 0.0
H2829 H 0.27671 0.66485 0.63279 0.0
H2830 H 0.30489 0.72383 0.58744 0.0
H2831 H 0.29417 0.69892 0.59462 0.0
C2832 C 0.81427 0.84146 0.74002 0.0
C2833 C 0.8182 0.85703 0.74019 0.0
C2834 C 0.82511 0.83037 0.74387 0.0
C2835 C 0.85687 0.82302 0.76816 0.0
H2836 H 0.86524 0.78879 0.74116 0.0
C2837 C 0.89169 0.7704 0.78855 0.0
C2838 C 0.8857 0.75618 0.78402 0.0
C2839 C 0.8863 0.78395 0.78187 0.0
C2840 C 0.86296 0.79821 0.74889 0.0
H2841 H 0.83645 0.87329 0.74462 0.0
H2842 H 0.8553 0.85377 0.75195 0.0
H2843 H 0.85 0.81029 0.73191 0.0
H2844 H 0.86955 0.74496 0.76884 0.0
H2845 H 0.85983 0.76836 0.75769 0.0
H2846 H 0.86886 0.81057 0.78551 0.0
C2847 C 0.84391 0.85023 0.74853 0.0
C2848 C 0.85434 0.81054 0.74353 0.0
C2849 C 0.83317 0.86133 0.7443 0.0
C2850 C 0.87442 0.75573 0.77259 0.0
C2851 C 0.86896 0.7692 0.76604 0.0
C2852 C 0.86527 0.81054 0.77364 0.0
C2853 C 0.83994 0.83468 0.7483 0.0
C2854 C 0.85092 0.82284 0.75324 0.0
C2855 C 0.87476 0.7835 0.77061 0.0
C2856 C 0.86802 0.79777 0.7642 0.0
H2857 H 0.80284 0.83784 0.73685 0.0
H2858 H 0.82179 0.81842 0.74374 0.0
H2859 H 0.85428 0.8324 0.77585 0.0
H2860 H 0.90047 0.77107 0.79729 0.0
H2861 H 0.89113 0.79475 0.78556 0.0
C2862 C 0.65414 0.32211 0.25138 0.0
C2863 C 0.64167 0.32473 0.24154 0.0
C2864 C 0.66217 0.33432 0.25777 0.0
C2865 C 0.67247 0.36188 0.27587 0.0
H2866 H 0.68796 0.39286 0.24812 0.0
C2867 C 0.71922 0.4037 0.29532 0.0
C2868 C 0.73191 0.4035 0.28544 0.0
C2869 C 0.70509 0.39795 0.2904 0.0
C2870 C 0.68359 0.38439 0.25605 0.0
H2871 H 0.62777 0.3423 0.23082 0.0
H2872 H 0.64207 0.36377 0.24189 0.0
H2873 H 0.66885 0.37452 0.23909 0.0
H2874 H 0.73955 0.39824 0.26242 0.0
H2875 H 0.71504 0.38826 0.25387 0.0
H2876 H 0.68782 0.37109 0.29255 0.0
C2877 C 0.64552 0.35218 0.24464 0.0
C2878 C 0.67257 0.37396 0.25092 0.0
C2879 C 0.63734 0.3399 0.23834 0.0
C2880 C 0.72997 0.39847 0.2703 0.0
C2881 C 0.71587 0.39286 0.26536 0.0
C2882 C 0.68343 0.37231 0.28102 0.0
C2883 C 0.65801 0.34948 0.25443 0.0
C2884 C 0.66735 0.36225 0.26061 0.0
C2885 C 0.7034 0.39206 0.27549 0.0
C2886 C 0.68953 0.38332 0.271 0.0
H2887 H 0.65774 0.31058 0.2542 0.0
H2888 H 0.6719 0.33186 0.26506 0.0
H2889 H 0.66848 0.35309 0.28366 0.0
H2890 H 0.72041 0.4075 0.30707 0.0
H2891 H 0.69564 0.39758 0.29842 0.0
C2892 C 0.18365 0.14963 0.75558 0.0
C2893 C 0.18064 0.13589 0.74774 0.0
C2894 C 0.17165 0.15914 0.76021 0.0
C2895 C 0.144 0.17316 0.77586 0.0
H2896 H 0.11077 0.18092 0.74743 0.0
C2897 C 0.09556 0.21502 0.79111 0.0
C2898 C 0.0927 0.22605 0.77976 0.0
C2899 C 0.10401 0.20187 0.78763 0.0
C2900 C 0.11995 0.17883 0.75551 0.0
H2901 H 0.16255 0.12134 0.7388 0.0
H2902 H 0.14168 0.13789 0.74698 0.0
H2903 H 0.13075 0.16264 0.74065 0.0
H2904 H 0.09544 0.23149 0.75569 0.0
H2905 H 0.11013 0.20863 0.74963 0.0
H2906 H 0.13357 0.18984 0.79043 0.0
C2907 C 0.15333 0.14139 0.74937 0.0
C2908 C 0.13133 0.16826 0.75169 0.0
C2909 C 0.16533 0.13187 0.74473 0.0
C2910 C 0.09749 0.22319 0.76468 0.0
C2911 C 0.10587 0.21004 0.7612 0.0
C2912 C 0.13262 0.18372 0.77969 0.0
C2913 C 0.15635 0.15515 0.75714 0.0
C2914 C 0.14364 0.16551 0.7617 0.0
C2915 C 0.10965 0.19947 0.77273 0.0
C2916 C 0.1206 0.18688 0.76944 0.0
H2917 H 0.19528 0.1531 0.75809 0.0
H2918 H 0.17438 0.16978 0.76596 0.0
H2919 H 0.1532 0.17113 0.78393 0.0
H2920 H 0.09203 0.21693 0.80284 0.0
H2921 H 0.10655 0.19382 0.79671 0.0
C2922 C 0.36084 0.65474 0.24222 0.0
C2923 C 0.35486 0.66967 0.24314 0.0
C2924 C 0.35348 0.64256 0.2496 0.0
C2925 C 0.32473 0.63425 0.27984 0.0
H2926 H 0.31714 0.59717 0.25668 0.0
C2927 C 0.27345 0.58955 0.27438 0.0
C2928 C 0.2696 0.5876 0.28986 0.0
C2929 C 0.28754 0.59577 0.27026 0.0
C2930 C 0.31927 0.6074 0.26336 0.0
H2931 H 0.33644 0.68344 0.25262 0.0
H2932 H 0.32359 0.6623 0.26516 0.0
H2933 H 0.3345 0.6165 0.24646 0.0
H2934 H 0.27787 0.5895 0.31317 0.0
H2935 H 0.3027 0.60037 0.30596 0.0
H2936 H 0.30871 0.62572 0.29622 0.0
C2937 C 0.3341 0.66 0.259 0.0
C2938 C 0.32932 0.61842 0.25756 0.0
C2939 C 0.34141 0.67212 0.25164 0.0
C2940 C 0.28058 0.59087 0.30114 0.0
C2941 C 0.29472 0.5972 0.29701 0.0
C2942 C 0.31466 0.62327 0.28561 0.0
C2943 C 0.34005 0.64508 0.2581 0.0
C2944 C 0.33168 0.63224 0.26546 0.0
C2945 C 0.2981 0.60025 0.28154 0.0
C2946 C 0.31135 0.60999 0.27716 0.0
H2947 H 0.37123 0.65245 0.23585 0.0
H2948 H 0.35836 0.63119 0.24874 0.0
H2949 H 0.32656 0.64464 0.28636 0.0
H2950 H 0.2652 0.58707 0.26544 0.0
H2951 H 0.28964 0.59809 0.25825 0.0
C2952 C 0.83121 0.13935 0.25788 0.0
C2953 C 0.81846 0.13704 0.24833 0.0
C2954 C 0.84279 0.14954 0.25359 0.0
C2955 C 0.86181 0.16681 0.22112 0.0
H2956 H 0.86979 0.20154 0.24755 0.0
C2957 C 0.89574 0.21974 0.20064 0.0
C2958 C 0.90292 0.22906 0.21156 0.0
C2959 C 0.88744 0.20685 0.20525 0.0
C2960 C 0.86809 0.19174 0.24016 0.0
H2961 H 0.80803 0.14317 0.22664 0.0
H2962 H 0.82854 0.16069 0.21898 0.0
H2963 H 0.85146 0.18216 0.25546 0.0
H2964 H 0.90813 0.23175 0.23562 0.0
H2965 H 0.89472 0.20865 0.24362 0.0
H2966 H 0.87865 0.17604 0.20594 0.0
C2967 C 0.82941 0.15477 0.22985 0.0
C2968 C 0.85744 0.18071 0.24468 0.0
C2969 C 0.81765 0.14487 0.23429 0.0
C2970 C 0.90266 0.2247 0.227 0.0
C2971 C 0.89475 0.21159 0.23157 0.0
C2972 C 0.87274 0.17766 0.21672 0.0
C2973 C 0.84201 0.15726 0.23951 0.0
C2974 C 0.85405 0.1683 0.23511 0.0
C2975 C 0.88645 0.20283 0.22086 0.0
C2976 C 0.87587 0.19044 0.22607 0.0
H2977 H 0.83212 0.13346 0.26875 0.0
H2978 H 0.85242 0.15131 0.26121 0.0
H2979 H 0.85944 0.15722 0.21361 0.0
H2980 H 0.89554 0.22305 0.18868 0.0
H2981 H 0.88109 0.20061 0.19662 0.0
C2982 C 0.27612 0.39396 0.7051 0.0
C2983 C 0.26701 0.40137 0.71603 0.0
C2984 C 0.28951 0.38641 0.70958 0.0
C2985 C 0.30632 0.36932 0.74479 0.0
H2986 H 0.3395 0.35915 0.7171 0.0
C2987 C 0.35762 0.33069 0.76157 0.0
C2988 C 0.35861 0.31757 0.75231 0.0
C2989 C 0.34822 0.34292 0.75726 0.0
C2990 C 0.33033 0.36201 0.72495 0.0
H2991 H 0.26515 0.40791 0.73984 0.0
H2992 H 0.28912 0.39587 0.74752 0.0
H2993 H 0.32053 0.37825 0.70948 0.0
H2994 H 0.35113 0.30717 0.73103 0.0
H2995 H 0.33499 0.32874 0.72335 0.0
H2996 H 0.31637 0.3532 0.7603 0.0
C2997 C 0.28566 0.39509 0.73564 0.0
C2998 C 0.31938 0.37286 0.72058 0.0
C2999 C 0.27204 0.40221 0.73124 0.0
C3000 C 0.35043 0.31708 0.73846 0.0
C3001 C 0.34133 0.32944 0.73399 0.0
C3002 C 0.31745 0.35877 0.74926 0.0
C3003 C 0.29422 0.38647 0.72503 0.0
C3004 C 0.307 0.37641 0.7303 0.0
C3005 C 0.34001 0.34237 0.74344 0.0
C3006 C 0.32934 0.35479 0.73927 0.0
H3007 H 0.27228 0.39295 0.69334 0.0
H3008 H 0.29558 0.37978 0.70105 0.0
H3009 H 0.29685 0.37137 0.7525 0.0
H3010 H 0.36382 0.33136 0.77229 0.0
H3011 H 0.34732 0.35279 0.76471 0.0
C3012 C 0.19036 0.84564 0.25356 0.0
C3013 C 0.18603 0.8611 0.25426 0.0
C3014 C 0.17962 0.83442 0.24976 0.0
C3015 C 0.14734 0.82626 0.22693 0.0
H3016 H 0.13787 0.79385 0.25573 0.0
C3017 C 0.10904 0.77482 0.2099 0.0
C3018 C 0.11391 0.76049 0.21534 0.0
C3019 C 0.11558 0.7883 0.21562 0.0
C3020 C 0.14048 0.80271 0.24747 0.0
H3021 H 0.16719 0.87702 0.2513 0.0
H3022 H 0.14851 0.8573 0.24409 0.0
H3023 H 0.1542 0.81505 0.26368 0.0
H3024 H 0.1293 0.74907 0.23114 0.0
H3025 H 0.14105 0.77225 0.24057 0.0
H3026 H 0.13453 0.81355 0.21038 0.0
C3027 C 0.16014 0.85395 0.24679 0.0
C3028 C 0.14972 0.81489 0.2521 0.0
C3029 C 0.17079 0.86516 0.25096 0.0
C3030 C 0.12525 0.75991 0.22671 0.0
C3031 C 0.1319 0.77329 0.23226 0.0
C3032 C 0.13833 0.81391 0.22217 0.0
C3033 C 0.1645 0.83852 0.24624 0.0
C3034 C 0.15343 0.82659 0.24179 0.0
C3035 C 0.12722 0.78768 0.22679 0.0
C3036 C 0.13508 0.80178 0.23229 0.0
H3037 H 0.20201 0.8422 0.25607 0.0
H3038 H 0.18318 0.82255 0.24932 0.0
H3039 H 0.15015 0.83521 0.21881 0.0
H3040 H 0.10025 0.7756 0.20118 0.0
H3041 H 0.11155 0.79918 0.21127 0.0
C3042 C 0.73794 0.60678 0.72822 0.0
C3043 C 0.73779 0.59859 0.71439 0.0
C3044 C 0.72434 0.61173 0.73487 0.0
C3045 C 0.68496 0.62201 0.72438 0.0
H3046 H 0.68227 0.62929 0.76813 0.0
C3047 C 0.63723 0.6584 0.7538 0.0
C3048 C 0.64382 0.67139 0.76066 0.0
C3049 C 0.64648 0.64616 0.74915 0.0
C3050 C 0.68278 0.62714 0.75592 0.0
H3051 H 0.72321 0.58847 0.69704 0.0
H3052 H 0.69922 0.59695 0.70887 0.0
H3053 H 0.70232 0.61261 0.75811 0.0
H3054 H 0.66501 0.68157 0.7686 0.0
H3055 H 0.68105 0.65997 0.76095 0.0
H3056 H 0.66545 0.6368 0.72232 0.0
C3057 C 0.70995 0.59976 0.71442 0.0
C3058 C 0.6943 0.6177 0.75015 0.0
C3059 C 0.72366 0.59482 0.70769 0.0
C3060 C 0.65967 0.67171 0.7633 0.0
C3061 C 0.66881 0.65935 0.75901 0.0
C3062 C 0.67325 0.63125 0.73021 0.0
C3063 C 0.71016 0.60853 0.72795 0.0
C3064 C 0.69598 0.6156 0.73425 0.0
C3065 C 0.66234 0.64659 0.7517 0.0
C3066 C 0.67247 0.63435 0.74596 0.0
H3067 H 0.74864 0.60984 0.7337 0.0
H3068 H 0.72505 0.6187 0.7451 0.0
H3069 H 0.68594 0.62077 0.71208 0.0
H3070 H 0.62504 0.65794 0.75155 0.0
H3071 H 0.6413 0.63643 0.74346 0.0
C3072 C 0.7378 0.84021 0.8597 0.0
C3073 C 0.74652 0.82688 0.86189 0.0
C3074 C 0.74304 0.85174 0.84988 0.0
C3075 C 0.77662 0.86831 0.83142 0.0
H3076 H 0.7505 0.87453 0.7961 0.0
C3077 C 0.79933 0.89363 0.77477 0.0
C3078 C 0.78898 0.90051 0.76461 0.0
C3079 C 0.79414 0.88748 0.78862 0.0
C3080 C 0.75784 0.87338 0.80602 0.0
H3081 H 0.76787 0.81549 0.85635 0.0
H3082 H 0.77719 0.83586 0.83956 0.0
H3083 H 0.74147 0.85903 0.8173 0.0
H3084 H 0.76545 0.90741 0.76122 0.0
H3085 H 0.75653 0.89777 0.78581 0.0
H3086 H 0.79298 0.88277 0.82034 0.0
C3087 C 0.76626 0.83729 0.84526 0.0
C3088 C 0.75263 0.86437 0.81814 0.0
C3089 C 0.76088 0.82562 0.85475 0.0
C3090 C 0.77361 0.90208 0.7689 0.0
C3091 C 0.76849 0.89635 0.78292 0.0
C3092 C 0.78173 0.87764 0.81944 0.0
C3093 C 0.75724 0.85028 0.84248 0.0
C3094 C 0.76209 0.86149 0.83078 0.0
C3095 C 0.77854 0.8884 0.79272 0.0
C3096 C 0.77255 0.88002 0.80637 0.0
H3097 H 0.72668 0.84144 0.86504 0.0
H3098 H 0.7359 0.86168 0.84786 0.0
H3099 H 0.78409 0.86627 0.84112 0.0
H3100 H 0.81122 0.8921 0.77156 0.0
H3101 H 0.80224 0.88129 0.79566 0.0
C3102 C 0.60881 0.28508 0.27356 0.0
C3103 C 0.61306 0.27995 0.25889 0.0
C3104 C 0.61668 0.27991 0.28653 0.0
C3105 C 0.65405 0.27008 0.2983 0.0
H3106 H 0.63788 0.24472 0.33095 0.0
C3107 C 0.69426 0.24303 0.34233 0.0
C3108 C 0.68933 0.2417 0.35756 0.0
C3109 C 0.68404 0.24736 0.33085 0.0
C3110 C 0.64252 0.25202 0.32208 0.0
H3111 H 0.62839 0.26487 0.2464 0.0
H3112 H 0.64236 0.25631 0.26898 0.0
H3113 H 0.62097 0.2532 0.31021 0.0
H3114 H 0.66981 0.24375 0.37275 0.0
H3115 H 0.65203 0.25191 0.35279 0.0
H3116 H 0.67541 0.26944 0.31008 0.0
C3117 C 0.63291 0.26422 0.27039 0.0
C3118 C 0.63284 0.25679 0.31022 0.0
C3119 C 0.62491 0.26916 0.25751 0.0
C3120 C 0.6739 0.2446 0.36107 0.0
C3121 C 0.66371 0.24921 0.34961 0.0
C3122 C 0.66364 0.26558 0.31024 0.0
C3123 C 0.62901 0.26973 0.28494 0.0
C3124 C 0.63865 0.26564 0.29816 0.0
C3125 C 0.66869 0.25079 0.33436 0.0
C3126 C 0.6581 0.25623 0.32214 0.0
H3127 H 0.59969 0.29337 0.27496 0.0
H3128 H 0.61357 0.28429 0.29771 0.0
H3129 H 0.65868 0.27704 0.28913 0.0
H3130 H 0.70604 0.24067 0.33925 0.0
H3131 H 0.68823 0.24799 0.3192 0.0
C3132 C 0.2089 0.09236 0.78085 0.0
C3133 C 0.21773 0.0942 0.76754 0.0
C3134 C 0.21475 0.09689 0.79511 0.0
C3135 C 0.25083 0.11035 0.81428 0.0
H3136 H 0.22322 0.13638 0.83732 0.0
C3137 C 0.26722 0.16644 0.84377 0.0
C3138 C 0.26254 0.16881 0.85896 0.0
C3139 C 0.26273 0.15329 0.83589 0.0
C3140 C 0.23099 0.12888 0.8312 0.0
H3141 H 0.23985 0.10132 0.75877 0.0
H3142 H 0.24981 0.10946 0.78323 0.0
H3143 H 0.21303 0.11981 0.81727 0.0
H3144 H 0.2497 0.15927 0.87794 0.0
H3145 H 0.24127 0.13644 0.86381 0.0
H3146 H 0.26891 0.12058 0.82736 0.0
C3147 C 0.23852 0.10435 0.78295 0.0
C3148 C 0.22516 0.11933 0.81974 0.0
C3149 C 0.23272 0.09983 0.76882 0.0
C3150 C 0.25356 0.15762 0.86626 0.0
C3151 C 0.24871 0.14463 0.85822 0.0
C3152 C 0.25665 0.1201 0.82552 0.0
C3153 C 0.22952 0.10329 0.79626 0.0
C3154 C 0.2351 0.11045 0.81069 0.0
C3155 C 0.25317 0.14246 0.84293 0.0
C3156 C 0.24683 0.12983 0.83368 0.0
H3157 H 0.19731 0.088 0.78019 0.0
H3158 H 0.20757 0.09577 0.80516 0.0
H3159 H 0.25877 0.10334 0.80783 0.0
H3160 H 0.27415 0.17489 0.83789 0.0
H3161 H 0.26615 0.15192 0.82404 0.0
C3162 C 0.30901 0.75502 0.34093 0.0
C3163 C 0.31275 0.75458 0.35656 0.0
C3164 C 0.32 0.7514 0.32989 0.0
C3165 C 0.35205 0.72755 0.32242 0.0
H3166 H 0.36254 0.75625 0.29024 0.0
C3167 C 0.39063 0.70948 0.27181 0.0
C3168 C 0.38585 0.71469 0.25737 0.0
C3169 C 0.3843 0.71571 0.28517 0.0
C3170 C 0.35965 0.74803 0.29905 0.0
H3171 H 0.33081 0.74983 0.37295 0.0
H3172 H 0.3499 0.74295 0.35355 0.0
H3173 H 0.34577 0.76433 0.31107 0.0
H3174 H 0.37112 0.73086 0.24559 0.0
H3175 H 0.35973 0.74118 0.26857 0.0
H3176 H 0.36498 0.71089 0.31002 0.0
C3177 C 0.33854 0.74639 0.34993 0.0
C3178 C 0.35014 0.75272 0.311 0.0
C3179 C 0.32766 0.75038 0.36096 0.0
C3180 C 0.37504 0.72655 0.25653 0.0
C3181 C 0.3686 0.73261 0.2698 0.0
C3182 C 0.36131 0.72273 0.31029 0.0
C3183 C 0.33479 0.74693 0.33433 0.0
C3184 C 0.34607 0.74244 0.32261 0.0
C3185 C 0.37298 0.72718 0.28431 0.0
C3186 C 0.36495 0.73282 0.29825 0.0
H3187 H 0.29761 0.75825 0.33723 0.0
H3188 H 0.31687 0.75178 0.31789 0.0
H3189 H 0.34896 0.71943 0.33128 0.0
H3190 H 0.39902 0.70041 0.27279 0.0
H3191 H 0.38814 0.71141 0.29614 0.0
C3192 C 0.74414 0.16639 0.13278 0.0
C3193 C 0.74696 0.18167 0.13702 0.0
C3194 C 0.74969 0.15431 0.14173 0.0
C3195 C 0.77877 0.1457 0.1715 0.0
H3196 H 0.75302 0.1107 0.18043 0.0
C3197 C 0.77185 0.10052 0.2229 0.0
C3198 C 0.78726 0.09707 0.2259 0.0
C3199 C 0.76765 0.10776 0.20932 0.0
C3200 C 0.76038 0.12037 0.17798 0.0
H3201 H 0.75754 0.19618 0.15423 0.0
H3202 H 0.76685 0.17521 0.16991 0.0
H3203 H 0.74402 0.13026 0.16264 0.0
H3204 H 0.81027 0.09757 0.21668 0.0
H3205 H 0.80291 0.1102 0.19273 0.0
H3206 H 0.79475 0.13631 0.18747 0.0
C3207 C 0.76068 0.17252 0.15949 0.0
C3208 C 0.75528 0.13152 0.16769 0.0
C3209 C 0.75518 0.18457 0.15056 0.0
C3210 C 0.7983 0.10006 0.21461 0.0
C3211 C 0.7941 0.10741 0.20099 0.0
C3212 C 0.78386 0.1346 0.18181 0.0
C3213 C 0.75817 0.15725 0.1551 0.0
C3214 C 0.76424 0.14453 0.16466 0.0
C3215 C 0.77878 0.11178 0.19842 0.0
C3216 C 0.77454 0.122 0.18549 0.0
H3217 H 0.73793 0.16372 0.12238 0.0
H3218 H 0.74761 0.14267 0.138 0.0
H3219 H 0.7861 0.15543 0.16917 0.0
H3220 H 0.7631 0.09832 0.23141 0.0
H3221 H 0.75579 0.11107 0.20785 0.0
C3222 C 0.39004 0.26653 0.72764 0.0
C3223 C 0.39498 0.2816 0.73018 0.0
C3224 C 0.38293 0.26254 0.71393 0.0
C3225 C 0.35901 0.27981 0.68456 0.0
H3226 H 0.36177 0.23945 0.66625 0.0
C3227 C 0.32797 0.24152 0.63404 0.0
C3228 C 0.31259 0.24496 0.6374 0.0
C3229 C 0.33974 0.2466 0.64363 0.0
C3230 C 0.36097 0.25084 0.67107 0.0
H3231 H 0.39711 0.30418 0.72014 0.0
H3232 H 0.3846 0.29717 0.69599 0.0
H3233 H 0.38076 0.2474 0.68514 0.0
H3234 H 0.29759 0.25634 0.65365 0.0
H3235 H 0.31806 0.26493 0.67044 0.0
H3236 H 0.33912 0.2832 0.67065 0.0
C3237 C 0.3862 0.28847 0.70468 0.0
C3238 C 0.37179 0.25536 0.68197 0.0
C3239 C 0.39346 0.29245 0.71842 0.0
C3240 C 0.30927 0.25346 0.65067 0.0
C3241 C 0.32104 0.25854 0.66023 0.0
C3242 C 0.34819 0.2753 0.67367 0.0
C3243 C 0.38051 0.27355 0.70247 0.0
C3244 C 0.37069 0.26974 0.68912 0.0
C3245 C 0.33641 0.25526 0.65678 0.0
C3246 C 0.34882 0.26062 0.6671 0.0
H3247 H 0.39109 0.25794 0.73653 0.0
H3248 H 0.37855 0.251 0.7127 0.0
H3249 H 0.35775 0.29091 0.68994 0.0
H3250 H 0.33096 0.23506 0.62388 0.0
H3251 H 0.35147 0.24395 0.64061 0.0
C3252 C 0.22842 0.90087 0.22667 0.0
C3253 C 0.21329 0.90511 0.23003 0.0
C3254 C 0.23219 0.89493 0.21235 0.0
C3255 C 0.21441 0.87282 0.18178 0.0
H3256 H 0.2548 0.87638 0.16369 0.0
C3257 C 0.25492 0.84201 0.13255 0.0
C3258 C 0.25194 0.82667 0.13647 0.0
C3259 C 0.24876 0.85398 0.14126 0.0
C3260 C 0.24337 0.87542 0.16838 0.0
H3261 H 0.19039 0.90739 0.22074 0.0
H3262 H 0.197 0.89705 0.19553 0.0
H3263 H 0.24678 0.89459 0.18327 0.0
H3264 H 0.23985 0.81196 0.15246 0.0
H3265 H 0.22939 0.83269 0.16766 0.0
H3266 H 0.21109 0.8535 0.1671 0.0
C3267 C 0.20592 0.89818 0.20408 0.0
C3268 C 0.23882 0.88577 0.17971 0.0
C3269 C 0.20215 0.90419 0.21846 0.0
C3270 C 0.24244 0.82361 0.1491 0.0
C3271 C 0.23629 0.83553 0.15775 0.0
C3272 C 0.21893 0.86251 0.17043 0.0
C3273 C 0.2209 0.89308 0.20102 0.0
C3274 C 0.22451 0.88424 0.18693 0.0
C3275 C 0.23943 0.85085 0.154 0.0
C3276 C 0.23367 0.86334 0.16402 0.0
H3277 H 0.23726 0.9015 0.23535 0.0
H3278 H 0.24379 0.89096 0.21049 0.0
H3279 H 0.20334 0.87124 0.18714 0.0
H3280 H 0.26211 0.8448 0.12284 0.0
H3281 H 0.25131 0.86567 0.13803 0.0
C3282 C 0.69275 0.74179 0.64809 0.0
C3283 C 0.68767 0.74984 0.6351 0.0
C3284 C 0.68259 0.73801 0.65981 0.0
C3285 C 0.64181 0.73232 0.66864 0.0
H3286 H 0.65581 0.73729 0.71049 0.0
C3287 C 0.61163 0.70536 0.7215 0.0
C3288 C 0.61174 0.71386 0.73515 0.0
C3289 C 0.61937 0.71077 0.70854 0.0
C3290 C 0.65162 0.73598 0.69889 0.0
H3291 H 0.66778 0.76007 0.62424 0.0
H3292 H 0.65003 0.7535 0.64485 0.0
H3293 H 0.67235 0.74493 0.68948 0.0
H3294 H 0.61914 0.73509 0.74569 0.0
H3295 H 0.63233 0.74462 0.7231 0.0
H3296 H 0.621 0.7234 0.67818 0.0
C3297 C 0.66191 0.75006 0.64584 0.0
C3298 C 0.66119 0.7402 0.68683 0.0
C3299 C 0.67211 0.75391 0.63409 0.0
C3300 C 0.61902 0.72819 0.73538 0.0
C3301 C 0.62665 0.73362 0.72246 0.0
C3302 C 0.6322 0.72805 0.68075 0.0
C3303 C 0.66708 0.74215 0.65887 0.0
C3304 C 0.65647 0.73829 0.67158 0.0
C3305 C 0.62728 0.7248 0.70902 0.0
C3306 C 0.63705 0.72978 0.69601 0.0
H3307 H 0.70462 0.73837 0.64925 0.0
H3308 H 0.68688 0.73169 0.66959 0.0
H3309 H 0.63789 0.73064 0.65699 0.0
H3310 H 0.60612 0.69426 0.72102 0.0
H3311 H 0.61971 0.70367 0.69838 0.0
C3312 C 0.83944 0.73065 0.83294 0.0
C3313 C 0.85507 0.73406 0.83149 0.0
C3314 C 0.83115 0.73596 0.84548 0.0
C3315 C 0.82725 0.76803 0.86965 0.0
H3316 H 0.79963 0.74185 0.89251 0.0
C3317 C 0.77553 0.79277 0.9029 0.0
C3318 C 0.7618 0.7851 0.89949 0.0
C3319 C 0.78966 0.78617 0.89907 0.0
C3320 C 0.80731 0.74934 0.88629 0.0
H3321 H 0.8744 0.74551 0.84202 0.0
H3322 H 0.85956 0.75543 0.86388 0.0
H3323 H 0.81997 0.73044 0.87713 0.0
H3324 H 0.75209 0.76431 0.89 0.0
H3325 H 0.77643 0.75299 0.8832 0.0
H3326 H 0.81381 0.78688 0.87769 0.0
C3327 C 0.85392 0.74834 0.8554 0.0
C3328 C 0.819 0.7428 0.8776 0.0
C3329 C 0.86237 0.74265 0.84299 0.0
C3330 C 0.76246 0.77053 0.89276 0.0
C3331 C 0.77648 0.76395 0.889 0.0
C3332 C 0.8154 0.7746 0.8782 0.0
C3333 C 0.83823 0.74508 0.85666 0.0
C3334 C 0.82866 0.75205 0.86874 0.0
C3335 C 0.79026 0.77175 0.89189 0.0
C3336 C 0.80486 0.76526 0.88604 0.0
H3337 H 0.83357 0.72404 0.82424 0.0
H3338 H 0.81901 0.73347 0.84612 0.0
H3339 H 0.83453 0.77538 0.8628 0.0
H3340 H 0.77533 0.80403 0.9081 0.0
H3341 H 0.80007 0.79244 0.9015 0.0
C3342 C 0.85025 0.2408 0.18466 0.0
C3343 C 0.86357 0.24905 0.181 0.0
C3344 C 0.84073 0.23521 0.17308 0.0
C3345 C 0.83079 0.24159 0.13257 0.0
H3346 H 0.8093 0.20305 0.13744 0.0
C3347 C 0.77402 0.22847 0.10309 0.0
C3348 C 0.77044 0.2134 0.09888 0.0
C3349 C 0.78783 0.23178 0.11033 0.0
C3350 C 0.81543 0.21369 0.13574 0.0
H3351 H 0.87747 0.25758 0.16221 0.0
H3352 H 0.86097 0.24769 0.1421 0.0
H3353 H 0.82874 0.21046 0.15606 0.0
H3354 H 0.77875 0.19004 0.09816 0.0
H3355 H 0.80311 0.19585 0.11085 0.0
H3356 H 0.81743 0.24486 0.1123 0.0
C3357 C 0.85774 0.24578 0.15392 0.0
C3358 C 0.82639 0.21806 0.14654 0.0
C3359 C 0.86721 0.25145 0.16548 0.0
C3360 C 0.78129 0.20178 0.10123 0.0
C3361 C 0.79514 0.20508 0.10861 0.0
C3362 C 0.81988 0.2372 0.12175 0.0
C3363 C 0.84436 0.23765 0.15758 0.0
C3364 C 0.8339 0.23224 0.1453 0.0
C3365 C 0.79836 0.22007 0.11358 0.0
C3366 C 0.81177 0.22342 0.12344 0.0
H3367 H 0.84713 0.2387 0.19648 0.0
H3368 H 0.83038 0.2292 0.17631 0.0
H3369 H 0.83629 0.25262 0.13128 0.0
H3370 H 0.76584 0.23764 0.1014 0.0
H3371 H 0.78983 0.2434 0.11416 0.0
C3372 C 0.25446 0.34762 0.68888 0.0
C3373 C 0.24579 0.36075 0.68549 0.0
C3374 C 0.25938 0.33788 0.67718 0.0
C3375 C 0.25071 0.32675 0.63737 0.0
H3376 H 0.2905 0.30719 0.63983 0.0
C3377 C 0.29141 0.28036 0.60257 0.0
C3378 C 0.28037 0.26891 0.60026 0.0
C3379 C 0.28769 0.29362 0.61078 0.0
C3380 C 0.27946 0.31275 0.63881 0.0
H3381 H 0.23563 0.37398 0.66703 0.0
H3382 H 0.24432 0.35705 0.64667 0.0
H3383 H 0.28335 0.32635 0.65882 0.0
H3384 H 0.25662 0.26267 0.60389 0.0
H3385 H 0.25015 0.28565 0.61814 0.0
H3386 H 0.24681 0.31313 0.61739 0.0
C3387 C 0.24714 0.35418 0.6584 0.0
C3388 C 0.27527 0.32356 0.64984 0.0
C3389 C 0.24219 0.36391 0.6701 0.0
C3390 C 0.26537 0.27132 0.6055 0.0
C3391 C 0.26164 0.28455 0.61361 0.0
C3392 C 0.25491 0.31596 0.62634 0.0
C3393 C 0.25579 0.34105 0.6618 0.0
C3394 C 0.26073 0.33047 0.64942 0.0
C3395 C 0.27283 0.29567 0.61669 0.0
C3396 C 0.2692 0.30861 0.62712 0.0
H3397 H 0.25747 0.34482 0.70058 0.0
H3398 H 0.2658 0.32772 0.68022 0.0
H3399 H 0.23939 0.33177 0.63675 0.0
H3400 H 0.30309 0.27876 0.59871 0.0
H3401 H 0.29652 0.30207 0.61284 0.0
C3402 C 0.22329 0.79141 0.09568 0.0
C3403 C 0.23734 0.78441 0.09919 0.0
C3404 C 0.2095 0.78457 0.10022 0.0
C3405 C 0.19346 0.74812 0.11612 0.0
H3406 H 0.16536 0.77509 0.13743 0.0
C3407 C 0.16048 0.7323 0.17028 0.0
C3408 C 0.14474 0.73547 0.17095 0.0
C3409 C 0.16913 0.737 0.15772 0.0
C3410 C 0.17292 0.76745 0.13124 0.0
H3411 H 0.24798 0.76449 0.10953 0.0
H3412 H 0.22425 0.75284 0.11764 0.0
H3413 H 0.18565 0.78601 0.12161 0.0
H3414 H 0.12563 0.7459 0.15901 0.0
H3415 H 0.14105 0.75471 0.13717 0.0
H3416 H 0.18144 0.72963 0.12686 0.0
C3417 C 0.22366 0.76342 0.11121 0.0
C3418 C 0.18452 0.77368 0.12213 0.0
C3419 C 0.23734 0.77021 0.10669 0.0
C3420 C 0.13774 0.74323 0.1587 0.0
C3421 C 0.14651 0.7483 0.14627 0.0
C3422 C 0.18204 0.74193 0.12541 0.0
C3423 C 0.20956 0.7706 0.10828 0.0
C3424 C 0.19532 0.76409 0.11498 0.0
C3425 C 0.16229 0.74526 0.14574 0.0
C3426 C 0.17204 0.75156 0.13346 0.0
H3427 H 0.22297 0.80236 0.08987 0.0
H3428 H 0.19882 0.79034 0.09767 0.0
H3429 H 0.20132 0.7404 0.11044 0.0
H3430 H 0.16614 0.72629 0.17954 0.0
H3431 H 0.18132 0.73468 0.15762 0.0
C3432 C 0.75348 0.63041 0.6565 0.0
C3433 C 0.75156 0.63511 0.6718 0.0
C3434 C 0.74703 0.63885 0.64451 0.0
C3435 C 0.71816 0.66904 0.63628 0.0
H3436 H 0.74455 0.67866 0.60191 0.0
C3437 C 0.72785 0.72255 0.59442 0.0
C3438 C 0.71266 0.7264 0.59089 0.0
C3439 C 0.73133 0.70837 0.60084 0.0
C3440 C 0.73699 0.67599 0.61138 0.0
H3441 H 0.74107 0.65227 0.68643 0.0
H3442 H 0.73014 0.66704 0.66562 0.0
H3443 H 0.75274 0.65973 0.62071 0.0
H3444 H 0.68928 0.7181 0.59034 0.0
H3445 H 0.69538 0.69315 0.60155 0.0
H3446 H 0.70286 0.68601 0.62752 0.0
C3447 C 0.73641 0.65671 0.66286 0.0
C3448 C 0.74162 0.66505 0.62208 0.0
C3449 C 0.74283 0.64829 0.67482 0.0
C3450 C 0.70111 0.71542 0.59296 0.0
C3451 C 0.70458 0.7012 0.59947 0.0
C3452 C 0.71355 0.68001 0.62561 0.0
C3453 C 0.73849 0.65215 0.64756 0.0
C3454 C 0.73249 0.66184 0.63494 0.0
C3455 C 0.71968 0.69771 0.60391 0.0
C3456 C 0.72315 0.68399 0.61332 0.0
H3457 H 0.76004 0.62025 0.65376 0.0
H3458 H 0.74874 0.63498 0.63285 0.0
H3459 H 0.71073 0.66661 0.64591 0.0
H3460 H 0.737 0.73079 0.5929 0.0
H3461 H 0.74305 0.70618 0.60426 0.0
C3462 C 0.14963 0.24795 0.7994 0.0
C3463 C 0.1346 0.24964 0.80481 0.0
C3464 C 0.16135 0.2435 0.8093 0.0
C3465 C 0.17102 0.2396 0.85073 0.0
H3466 H 0.20395 0.21461 0.83451 0.0
C3467 C 0.21944 0.20999 0.88651 0.0
C3468 C 0.23419 0.21436 0.88176 0.0
C3469 C 0.2066 0.21414 0.87785 0.0
C3470 C 0.19479 0.22157 0.83916 0.0
H3471 H 0.11998 0.24782 0.82479 0.0
H3472 H 0.14028 0.23945 0.84197 0.0
H3473 H 0.18271 0.2218 0.81793 0.0
H3474 H 0.24702 0.22662 0.86435 0.0
H3475 H 0.22468 0.23335 0.84907 0.0
H3476 H 0.18312 0.23886 0.87213 0.0
C3477 C 0.14318 0.24203 0.8302 0.0
C3478 C 0.18268 0.22583 0.82965 0.0
C3479 C 0.13151 0.24677 0.82033 0.0
C3480 C 0.23584 0.22302 0.8683 0.0
C3481 C 0.22308 0.22686 0.85952 0.0
C3482 C 0.18302 0.23506 0.86032 0.0
C3483 C 0.15827 0.2403 0.82481 0.0
C3484 C 0.17075 0.23513 0.83522 0.0
C3485 C 0.20839 0.2224 0.86418 0.0
C3486 C 0.19509 0.22622 0.85452 0.0
H3487 H 0.15237 0.25021 0.78751 0.0
H3488 H 0.17286 0.24268 0.80478 0.0
H3489 H 0.16218 0.24692 0.85541 0.0
H3490 H 0.21785 0.20335 0.89686 0.0
H3491 H 0.19533 0.2106 0.88162 0.0
C3492 C 0.26806 0.72675 0.39137 0.0
C3493 C 0.28302 0.72891 0.39687 0.0
C3494 C 0.26406 0.71329 0.38378 0.0
C3495 C 0.28159 0.68296 0.3607 0.0
H3496 H 0.24085 0.66542 0.3626 0.0
C3497 C 0.24405 0.63046 0.33209 0.0
C3498 C 0.24846 0.63214 0.31668 0.0
C3499 C 0.24871 0.64107 0.34313 0.0
C3500 C 0.25234 0.67003 0.36203 0.0
H3501 H 0.30532 0.71834 0.39946 0.0
H3502 H 0.29827 0.69463 0.3863 0.0
H3503 H 0.24822 0.68518 0.38085 0.0
H3504 H 0.26124 0.64641 0.30085 0.0
H3505 H 0.26909 0.66504 0.32002 0.0
H3506 H 0.28574 0.66778 0.34192 0.0
C3507 C 0.2897 0.70348 0.38769 0.0
C3508 C 0.25652 0.68147 0.37242 0.0
C3509 C 0.2937 0.71699 0.39534 0.0
C3510 C 0.25762 0.64473 0.31259 0.0
C3511 C 0.26225 0.65535 0.32362 0.0
C3512 C 0.27742 0.6715 0.35034 0.0
C3513 C 0.27493 0.70164 0.3815 0.0
C3514 C 0.2711 0.68826 0.3717 0.0
C3515 C 0.25788 0.65364 0.33903 0.0
C3516 C 0.26266 0.66509 0.35071 0.0
H3517 H 0.25957 0.73573 0.39239 0.0
H3518 H 0.25264 0.71235 0.37903 0.0
H3519 H 0.29286 0.68804 0.35972 0.0
H3520 H 0.23709 0.62085 0.3357 0.0
H3521 H 0.24528 0.6393 0.35491 0.0
C3522 C 0.73993 0.35038 0.31855 0.0
C3523 C 0.74928 0.36305 0.32189 0.0
C3524 C 0.73491 0.34068 0.33021 0.0
C3525 C 0.71972 0.32587 0.35751 0.0
H3526 H 0.74968 0.3123 0.38734 0.0
C3527 C 0.70546 0.27789 0.40022 0.0
C3528 C 0.71648 0.26619 0.40063 0.0
C3529 C 0.70897 0.29207 0.39367 0.0
C3530 C 0.74116 0.31603 0.37914 0.0
H3531 H 0.7604 0.37561 0.34025 0.0
H3532 H 0.75155 0.35866 0.36062 0.0
H3533 H 0.75636 0.33252 0.3693 0.0
H3534 H 0.74007 0.26044 0.39543 0.0
H3535 H 0.74615 0.28502 0.38394 0.0
H3536 H 0.70481 0.30882 0.36676 0.0
C3537 C 0.74825 0.35618 0.34892 0.0
C3538 C 0.74493 0.32772 0.36889 0.0
C3539 C 0.75328 0.36591 0.33724 0.0
C3540 C 0.73131 0.26923 0.39523 0.0
C3541 C 0.73483 0.28338 0.38874 0.0
C3542 C 0.71595 0.31418 0.36774 0.0
C3543 C 0.73907 0.34341 0.34552 0.0
C3544 C 0.7344 0.33247 0.35768 0.0
C3545 C 0.72359 0.29482 0.38748 0.0
C3546 C 0.72677 0.30884 0.3784 0.0
H3547 H 0.73659 0.3478 0.30688 0.0
H3548 H 0.72807 0.3308 0.32715 0.0
H3549 H 0.71126 0.32946 0.34918 0.0
H3550 H 0.69393 0.27588 0.40433 0.0
H3551 H 0.70012 0.30074 0.39305 0.0
loop_
_geom_bond_atom_site_label_1
_geom_bond_atom_site_label_2
_geom_bond_distance
_geom_bond_site_symmetry_2
_ccdc_geom_bond_type
Co0 O1 2.216 . S
Co0 O2 2.091 . S
Co0 O4 2.004 . S
Co0 O10 2.021 . S
Co0 O12 2.137 . S
Co0 O13 2.244 . S
O1 Co0 2.216 . S
O1 C8 1.247 . S
O2 Co0 2.091 . S
O2 C8 1.261 . S
C3 O12 1.247 . S
C3 O13 1.272 . S
O4 Co0 2.004 . S
O4 C9 1.259 . S
Co5 O6 2.061 . S
Co5 O11 2.052 . S
Co5 O13 2.135 . S
O6 Co5 2.061 . S
O6 C9 1.235 . S
C7 O10 1.238 . S
C7 O11 1.241 . S
C8 O1 1.247 . S
C8 O2 1.261 . S
C9 O4 1.259 . S
C9 O6 1.235 . S
O10 Co0 2.021 . S
O10 C7 1.238 . S
O11 Co5 2.052 . S
O11 C7 1.241 . S
O12 Co0 2.137 . S
O12 C3 1.247 . S
O13 Co0 2.244 . S
O13 C3 1.272 . S
O13 Co5 2.135 . S
Co14 O15 2.216 . S
Co14 O16 2.091 . S
Co14 O18 2.004 . S
Co14 O24 2.021 . S
Co14 O26 2.137 . S
Co14 O27 2.244 . S
O15 Co14 2.216 . S
O15 C22 1.247 . S
O16 Co14 2.091 . S
O16 C22 1.261 . S
C17 O26 1.247 . S
C17 O27 1.272 . S
O18 Co14 2.004 . S
O18 C23 1.259 . S
Co19 O20 2.061 . S
Co19 O25 2.052 . S
Co19 O27 2.135 . S
O20 Co19 2.061 . S
O20 C23 1.235 . S
C21 O24 1.238 . S
C21 O25 1.241 . S
C22 O15 1.247 . S
C22 O16 1.261 . S
C23 O18 1.259 . S
C23 O20 1.235 . S
O24 Co14 2.021 . S
O24 C21 1.238 . S
O25 Co19 2.052 . S
O25 C21 1.241 . S
O26 Co14 2.137 . S
O26 C17 1.247 . S
O27 Co14 2.244 . S
O27 C17 1.272 . S
O27 Co19 2.135 . S
Co28 O29 2.216 . S
Co28 O30 2.091 . S
Co28 O32 2.004 . S
Co28 O38 2.021 . S
Co28 O40 2.137 . S
Co28 O41 2.244 . S
O29 Co28 2.216 . S
O29 C36 1.247 . S
O30 Co28 2.091 . S
O30 C36 1.261 . S
C31 O40 1.247 . S
C31 O41 1.272 . S
O32 Co28 2.004 . S
O32 C37 1.259 . S
Co33 O34 2.061 . S
Co33 O39 2.052 . S
Co33 O41 2.135 . S
O34 Co33 2.061 . S
O34 C37 1.235 . S
C35 O38 1.238 . S
C35 O39 1.241 . S
C36 O29 1.247 . S
C36 O30 1.261 . S
C37 O32 1.259 . S
C37 O34 1.235 . S
O38 Co28 2.021 . S
O38 C35 1.238 . S
O39 Co33 2.052 . S
O39 C35 1.241 . S
O40 Co28 2.137 . S
O40 C31 1.247 . S
O41 Co28 2.244 . S
O41 C31 1.272 . S
O41 Co33 2.135 . S
Co42 O43 2.216 . S
Co42 O44 2.091 . S
Co42 O46 2.004 . S
Co42 O52 2.021 . S
Co42 O54 2.137 . S
Co42 O55 2.244 . S
O43 Co42 2.216 . S
O43 C50 1.247 . S
O44 Co42 2.091 . S
O44 C50 1.261 . S
C45 O54 1.247 . S
C45 O55 1.272 . S
O46 Co42 2.004 . S
O46 C51 1.259 . S
Co47 O48 2.061 . S
Co47 O53 2.052 . S
Co47 O55 2.135 . S
O48 Co47 2.061 . S
O48 C51 1.235 . S
C49 O52 1.238 . S
C49 O53 1.241 . S
C50 O43 1.247 . S
C50 O44 1.261 . S
C51 O46 1.259 . S
C51 O48 1.235 . S
O52 Co42 2.021 . S
O52 C49 1.238 . S
O53 Co47 2.052 . S
O53 C49 1.241 . S
O54 Co42 2.137 . S
O54 C45 1.247 . S
O55 Co42 2.244 . S
O55 C45 1.272 . S
O55 Co47 2.135 . S
Co56 O57 2.216 . S
Co56 O58 2.091 . S
Co56 O60 2.004 . S
Co56 O66 2.021 . S
Co56 O68 2.137 . S
Co56 O69 2.244 . S
O57 Co56 2.216 . S
O57 C64 1.247 . S
O58 Co56 2.091 . S
O58 C64 1.261 . S
C59 O68 1.247 . S
C59 O69 1.272 . S
O60 Co56 2.004 . S
O60 C65 1.259 . S
Co61 O62 2.061 . S
Co61 O67 2.052 . S
Co61 O69 2.135 . S
O62 Co61 2.061 . S
O62 C65 1.235 . S
C63 O66 1.238 . S
C63 O67 1.241 . S
C64 O57 1.247 . S
C64 O58 1.261 . S
C65 O60 1.259 . S
C65 O62 1.235 . S
O66 Co56 2.021 . S
O66 C63 1.238 . S
O67 Co61 2.052 . S
O67 C63 1.241 . S
O68 Co56 2.137 . S
O68 C59 1.247 . S
O69 Co56 2.244 . S
O69 C59 1.272 . S
O69 Co61 2.135 . S
Co70 O71 2.216 . S
Co70 O72 2.091 . S
Co70 O74 2.004 . S
Co70 O80 2.021 . S
Co70 O82 2.137 . S
Co70 O83 2.244 . S
O71 Co70 2.216 . S
O71 C78 1.247 . S
O72 Co70 2.091 . S
O72 C78 1.261 . S
C73 O82 1.247 . S
C73 O83 1.272 . S
O74 Co70 2.004 . S
O74 C79 1.259 . S
Co75 O76 2.061 . S
Co75 O81 2.052 . S
Co75 O83 2.135 . S
O76 Co75 2.061 . S
O76 C79 1.235 . S
C77 O80 1.238 . S
C77 O81 1.241 . S
C78 O71 1.247 . S
C78 O72 1.261 . S
C79 O74 1.259 . S
C79 O76 1.235 . S
O80 Co70 2.021 . S
O80 C77 1.238 . S
O81 Co75 2.052 . S
O81 C77 1.241 . S
O82 Co70 2.137 . S
O82 C73 1.247 . S
O83 Co70 2.244 . S
O83 C73 1.272 . S
O83 Co75 2.135 . S
Co84 O85 2.216 . S
Co84 O86 2.091 . S
Co84 O88 2.004 . S
Co84 O94 2.021 . S
Co84 O96 2.137 . S
Co84 O97 2.244 . S
O85 Co84 2.216 . S
O85 C92 1.247 . S
O86 Co84 2.091 . S
O86 C92 1.261 . S
C87 O96 1.247 . S
C87 O97 1.272 . S
O88 Co84 2.004 . S
O88 C93 1.259 . S
Co89 O90 2.061 . S
Co89 O95 2.052 . S
Co89 O97 2.135 . S
O90 Co89 2.061 . S
O90 C93 1.235 . S
C91 O94 1.238 . S
C91 O95 1.241 . S
C92 O85 1.247 . S
C92 O86 1.261 . S
C93 O88 1.259 . S
C93 O90 1.235 . S
O94 Co84 2.021 . S
O94 C91 1.238 . S
O95 Co89 2.052 . S
O95 C91 1.241 . S
O96 Co84 2.137 . S
O96 C87 1.247 . S
O97 Co84 2.244 . S
O97 C87 1.272 . S
O97 Co89 2.135 . S
Co98 O99 2.216 . S
Co98 O100 2.091 . S
Co98 O102 2.004 . S
Co98 O108 2.021 . S
Co98 O110 2.137 . S
Co98 O111 2.244 . S
O99 Co98 2.216 . S
O99 C106 1.247 . S
O100 Co98 2.091 . S
O100 C106 1.261 . S
C101 O110 1.247 . S
C101 O111 1.272 . S
O102 Co98 2.004 . S
O102 C107 1.259 . S
Co103 O104 2.061 . S
Co103 O109 2.052 . S
Co103 O111 2.135 . S
O104 Co103 2.061 . S
O104 C107 1.235 . S
C105 O108 1.238 . S
C105 O109 1.241 . S
C106 O99 1.247 . S
C106 O100 1.261 . S
C107 O102 1.259 . S
C107 O104 1.235 . S
O108 Co98 2.021 . S
O108 C105 1.238 . S
O109 Co103 2.052 . S
O109 C105 1.241 . S
O110 Co98 2.137 . S
O110 C101 1.247 . S
O111 Co98 2.244 . S
O111 C101 1.272 . S
O111 Co103 2.135 . S
Co112 O113 2.216 . S
Co112 O114 2.091 . S
Co112 O116 2.004 . S
Co112 O122 2.021 . S
Co112 O124 2.137 . S
Co112 O125 2.244 . S
O113 Co112 2.216 . S
O113 C120 1.247 . S
O114 Co112 2.091 . S
O114 C120 1.261 . S
C115 O124 1.247 . S
C115 O125 1.272 . S
O116 Co112 2.004 . S
O116 C121 1.259 . S
Co117 O118 2.061 . S
Co117 O123 2.052 . S
Co117 O125 2.135 . S
O118 Co117 2.061 . S
O118 C121 1.235 . S
C119 O122 1.238 . S
C119 O123 1.241 . S
C120 O113 1.247 . S
C120 O114 1.261 . S
C121 O116 1.259 . S
C121 O118 1.235 . S
O122 Co112 2.021 . S
O122 C119 1.238 . S
O123 Co117 2.052 . S
O123 C119 1.241 . S
O124 Co112 2.137 . S
O124 C115 1.247 . S
O125 Co112 2.244 . S
O125 C115 1.272 . S
O125 Co117 2.135 . S
Co126 O127 2.216 . S
Co126 O128 2.091 . S
Co126 O130 2.004 . S
Co126 O136 2.021 . S
Co126 O138 2.137 . S
Co126 O139 2.244 . S
O127 Co126 2.216 . S
O127 C134 1.247 . S
O128 Co126 2.091 . S
O128 C134 1.261 . S
C129 O138 1.247 . S
C129 O139 1.272 . S
O130 Co126 2.004 . S
O130 C135 1.259 . S
Co131 O132 2.061 . S
Co131 O137 2.052 . S
Co131 O139 2.135 . S
O132 Co131 2.061 . S
O132 C135 1.235 . S
C133 O136 1.238 . S
C133 O137 1.241 . S
C134 O127 1.247 . S
C134 O128 1.261 . S
C135 O130 1.259 . S
C135 O132 1.235 . S
O136 Co126 2.021 . S
O136 C133 1.238 . S
O137 Co131 2.052 . S
O137 C133 1.241 . S
O138 Co126 2.137 . S
O138 C129 1.247 . S
O139 Co126 2.244 . S
O139 C129 1.272 . S
O139 Co131 2.135 . S
Co140 O141 2.216 . S
Co140 O142 2.091 . S
Co140 O144 2.004 . S
Co140 O150 2.021 . S
Co140 O152 2.137 . S
Co140 O153 2.244 . S
O141 Co140 2.216 . S
O141 C148 1.247 . S
O142 Co140 2.091 . S
O142 C148 1.261 . S
C143 O152 1.247 . S
C143 O153 1.272 . S
O144 Co140 2.004 . S
O144 C149 1.259 . S
Co145 O146 2.061 . S
Co145 O151 2.052 . S
Co145 O153 2.135 . S
O146 Co145 2.061 . S
O146 C149 1.235 . S
C147 O150 1.238 . S
C147 O151 1.241 . S
C148 O141 1.247 . S
C148 O142 1.261 . S
C149 O144 1.259 . S
C149 O146 1.235 . S
O150 Co140 2.021 . S
O150 C147 1.238 . S
O151 Co145 2.052 . S
O151 C147 1.241 . S
O152 Co140 2.137 . S
O152 C143 1.247 . S
O153 Co140 2.244 . S
O153 C143 1.272 . S
O153 Co145 2.135 . S
Co154 O155 2.216 . S
Co154 O156 2.091 . S
Co154 O158 2.004 . S
Co154 O164 2.021 . S
Co154 O166 2.137 . S
Co154 O167 2.244 . S
O155 Co154 2.216 . S
O155 C162 1.247 . S
O156 Co154 2.091 . S
O156 C162 1.261 . S
C157 O166 1.247 . S
C157 O167 1.272 . S
O158 Co154 2.004 . S
O158 C163 1.259 . S
Co159 O160 2.061 . S
Co159 O165 2.052 . S
Co159 O167 2.135 . S
O160 Co159 2.061 . S
O160 C163 1.235 . S
C161 O164 1.238 . S
C161 O165 1.241 . S
C162 O155 1.247 . S
C162 O156 1.261 . S
C163 O158 1.259 . S
C163 O160 1.235 . S
O164 Co154 2.021 . S
O164 C161 1.238 . S
O165 Co159 2.052 . S
O165 C161 1.241 . S
O166 Co154 2.137 . S
O166 C157 1.247 . S
O167 Co154 2.244 . S
O167 C157 1.272 . S
O167 Co159 2.135 . S
Co168 O169 2.216 . S
Co168 O170 2.091 . S
Co168 O172 2.004 . S
Co168 O178 2.021 . S
Co168 O180 2.137 . S
Co168 O181 2.244 . S
O169 Co168 2.216 . S
O169 C176 1.247 . S
O170 Co168 2.091 . S
O170 C176 1.261 . S
C171 O180 1.247 . S
C171 O181 1.272 . S
O172 Co168 2.004 . S
O172 C177 1.259 . S
Co173 O174 2.061 . S
Co173 O179 2.052 . S
Co173 O181 2.135 . S
O174 Co173 2.061 . S
O174 C177 1.235 . S
C175 O178 1.238 . S
C175 O179 1.241 . S
C176 O169 1.247 . S
C176 O170 1.261 . S
C177 O172 1.259 . S
C177 O174 1.235 . S
O178 Co168 2.021 . S
O178 C175 1.238 . S
O179 Co173 2.052 . S
O179 C175 1.241 . S
O180 Co168 2.137 . S
O180 C171 1.247 . S
O181 Co168 2.244 . S
O181 C171 1.272 . S
O181 Co173 2.135 . S
Co182 O183 2.216 . S
Co182 O184 2.091 . S
Co182 O186 2.004 . S
Co182 O192 2.021 . S
Co182 O194 2.137 . S
Co182 O195 2.244 . S
O183 Co182 2.216 . S
O183 C190 1.247 . S
O184 Co182 2.091 . S
O184 C190 1.261 . S
C185 O194 1.247 . S
C185 O195 1.272 . S
O186 Co182 2.004 . S
O186 C191 1.259 . S
Co187 O188 2.061 . S
Co187 O193 2.052 . S
Co187 O195 2.135 . S
O188 Co187 2.061 . S
O188 C191 1.235 . S
C189 O192 1.238 . S
C189 O193 1.241 . S
C190 O183 1.247 . S
C190 O184 1.261 . S
C191 O186 1.259 . S
C191 O188 1.235 . S
O192 Co182 2.021 . S
O192 C189 1.238 . S
O193 Co187 2.052 . S
O193 C189 1.241 . S
O194 Co182 2.137 . S
O194 C185 1.247 . S
O195 Co182 2.244 . S
O195 C185 1.272 . S
O195 Co187 2.135 . S
Co196 O197 2.216 . S
Co196 O198 2.091 . S
Co196 O200 2.004 . S
Co196 O206 2.021 . S
Co196 O208 2.137 . S
Co196 O209 2.244 . S
O197 Co196 2.216 . S
O197 C204 1.247 . S
O198 Co196 2.091 . S
O198 C204 1.261 . S
C199 O208 1.247 . S
C199 O209 1.272 . S
O200 Co196 2.004 . S
O200 C205 1.259 . S
Co201 O202 2.061 . S
Co201 O207 2.052 . S
Co201 O209 2.135 . S
O202 Co201 2.061 . S
O202 C205 1.235 . S
C203 O206 1.238 . S
C203 O207 1.241 . S
C204 O197 1.247 . S
C204 O198 1.261 . S
C205 O200 1.259 . S
C205 O202 1.235 . S
O206 Co196 2.021 . S
O206 C203 1.238 . S
O207 Co201 2.052 . S
O207 C203 1.241 . S
O208 Co196 2.137 . S
O208 C199 1.247 . S
O209 Co196 2.244 . S
O209 C199 1.272 . S
O209 Co201 2.135 . S
Co210 O211 2.216 . S
Co210 O212 2.091 . S
Co210 O214 2.004 . S
Co210 O220 2.021 . S
Co210 O222 2.137 . S
Co210 O223 2.244 . S
O211 Co210 2.216 . S
O211 C218 1.247 . S
O212 Co210 2.091 . S
O212 C218 1.261 . S
C213 O222 1.247 . S
C213 O223 1.272 . S
O214 Co210 2.004 . S
O214 C219 1.259 . S
Co215 O216 2.061 . S
Co215 O221 2.052 . S
Co215 O223 2.135 . S
O216 Co215 2.061 . S
O216 C219 1.235 . S
C217 O220 1.238 . S
C217 O221 1.241 . S
C218 O211 1.247 . S
C218 O212 1.261 . S
C219 O214 1.259 . S
C219 O216 1.235 . S
O220 Co210 2.021 . S
O220 C217 1.238 . S
O221 Co215 2.052 . S
O221 C217 1.241 . S
O222 Co210 2.137 . S
O222 C213 1.247 . S
O223 Co210 2.244 . S
O223 C213 1.272 . S
O223 Co215 2.135 . S
Co224 O225 2.216 . S
Co224 O226 2.091 . S
Co224 O228 2.004 . S
Co224 O234 2.021 . S
Co224 O236 2.137 . S
Co224 O237 2.244 . S
O225 Co224 2.216 . S
O225 C232 1.247 . S
O226 Co224 2.091 . S
O226 C232 1.261 . S
C227 O236 1.247 . S
C227 O237 1.272 . S
O228 Co224 2.004 . S
O228 C233 1.259 . S
Co229 O230 2.061 . S
Co229 O235 2.052 . S
Co229 O237 2.135 . S
O230 Co229 2.061 . S
O230 C233 1.235 . S
C231 O234 1.238 . S
C231 O235 1.241 . S
C232 O225 1.247 . S
C232 O226 1.261 . S
C233 O228 1.259 . S
C233 O230 1.235 . S
O234 Co224 2.021 . S
O234 C231 1.238 . S
O235 Co229 2.052 . S
O235 C231 1.241 . S
O236 Co224 2.137 . S
O236 C227 1.247 . S
O237 Co224 2.244 . S
O237 C227 1.272 . S
O237 Co229 2.135 . S
Co238 O239 2.216 . S
Co238 O240 2.091 . S
Co238 O242 2.004 . S
Co238 O248 2.021 . S
Co238 O250 2.137 . S
Co238 O251 2.244 . S
O239 Co238 2.216 . S
O239 C246 1.247 . S
O240 Co238 2.091 . S
O240 C246 1.261 . S
C241 O250 1.247 . S
C241 O251 1.272 . S
O242 Co238 2.004 . S
O242 C247 1.259 . S
Co243 O244 2.061 . S
Co243 O249 2.052 . S
Co243 O251 2.135 . S
O244 Co243 2.061 . S
O244 C247 1.235 . S
C245 O248 1.238 . S
C245 O249 1.241 . S
C246 O239 1.247 . S
C246 O240 1.261 . S
C247 O242 1.259 . S
C247 O244 1.235 . S
O248 Co238 2.021 . S
O248 C245 1.238 . S
O249 Co243 2.052 . S
O249 C245 1.241 . S
O250 Co238 2.137 . S
O250 C241 1.247 . S
O251 Co238 2.244 . S
O251 C241 1.272 . S
O251 Co243 2.135 . S
Co252 O253 2.216 . S
Co252 O254 2.091 . S
Co252 O256 2.004 . S
Co252 O262 2.021 . S
Co252 O264 2.137 . S
Co252 O265 2.244 . S
O253 Co252 2.216 . S
O253 C260 1.247 . S
O254 Co252 2.091 . S
O254 C260 1.261 . S
C255 O264 1.247 . S
C255 O265 1.272 . S
O256 Co252 2.004 . S
O256 C261 1.259 . S
Co257 O258 2.061 . S
Co257 O263 2.052 . S
Co257 O265 2.135 . S
O258 Co257 2.061 . S
O258 C261 1.235 . S
C259 O262 1.238 . S
C259 O263 1.241 . S
C260 O253 1.247 . S
C260 O254 1.261 . S
C261 O256 1.259 . S
C261 O258 1.235 . S
O262 Co252 2.021 . S
O262 C259 1.238 . S
O263 Co257 2.052 . S
O263 C259 1.241 . S
O264 Co252 2.137 . S
O264 C255 1.247 . S
O265 Co252 2.244 . S
O265 C255 1.272 . S
O265 Co257 2.135 . S
Co266 O267 2.216 . S
Co266 O268 2.091 . S
Co266 O270 2.004 . S
Co266 O276 2.021 . S
Co266 O278 2.137 . S
Co266 O279 2.244 . S
O267 Co266 2.216 . S
O267 C274 1.247 . S
O268 Co266 2.091 . S
O268 C274 1.261 . S
C269 O278 1.247 . S
C269 O279 1.272 . S
O270 Co266 2.004 . S
O270 C275 1.259 . S
Co271 O272 2.061 . S
Co271 O277 2.052 . S
Co271 O279 2.135 . S
O272 Co271 2.061 . S
O272 C275 1.235 . S
C273 O276 1.238 . S
C273 O277 1.241 . S
C274 O267 1.247 . S
C274 O268 1.261 . S
C275 O270 1.259 . S
C275 O272 1.235 . S
O276 Co266 2.021 . S
O276 C273 1.238 . S
O277 Co271 2.052 . S
O277 C273 1.241 . S
O278 Co266 2.137 . S
O278 C269 1.247 . S
O279 Co266 2.244 . S
O279 C269 1.272 . S
O279 Co271 2.135 . S
Co280 O281 2.216 . S
Co280 O282 2.091 . S
Co280 O284 2.004 . S
Co280 O290 2.021 . S
Co280 O292 2.137 . S
Co280 O293 2.244 . S
O281 Co280 2.216 . S
O281 C288 1.247 . S
O282 Co280 2.091 . S
O282 C288 1.261 . S
C283 O292 1.247 . S
C283 O293 1.272 . S
O284 Co280 2.004 . S
O284 C289 1.259 . S
Co285 O286 2.061 . S
Co285 O291 2.052 . S
Co285 O293 2.135 . S
O286 Co285 2.061 . S
O286 C289 1.235 . S
C287 O290 1.238 . S
C287 O291 1.241 . S
C288 O281 1.247 . S
C288 O282 1.261 . S
C289 O284 1.259 . S
C289 O286 1.235 . S
O290 Co280 2.021 . S
O290 C287 1.238 . S
O291 Co285 2.052 . S
O291 C287 1.241 . S
O292 Co280 2.137 . S
O292 C283 1.247 . S
O293 Co280 2.244 . S
O293 C283 1.272 . S
O293 Co285 2.135 . S
Co294 O295 2.216 . S
Co294 O296 2.091 . S
Co294 O298 2.004 . S
Co294 O304 2.021 . S
Co294 O306 2.137 . S
Co294 O307 2.244 . S
O295 Co294 2.216 . S
O295 C302 1.247 . S
O296 Co294 2.091 . S
O296 C302 1.261 . S
C297 O306 1.247 . S
C297 O307 1.272 . S
O298 Co294 2.004 . S
O298 C303 1.259 . S
Co299 O300 2.061 . S
Co299 O305 2.052 . S
Co299 O307 2.135 . S
O300 Co299 2.061 . S
O300 C303 1.235 . S
C301 O304 1.238 . S
C301 O305 1.241 . S
C302 O295 1.247 . S
C302 O296 1.261 . S
C303 O298 1.259 . S
C303 O300 1.235 . S
O304 Co294 2.021 . S
O304 C301 1.238 . S
O305 Co299 2.052 . S
O305 C301 1.241 . S
O306 Co294 2.137 . S
O306 C297 1.247 . S
O307 Co294 2.244 . S
O307 C297 1.272 . S
O307 Co299 2.135 . S
Co308 O309 2.216 . S
Co308 O310 2.091 . S
Co308 O312 2.004 . S
Co308 O318 2.021 . S
Co308 O320 2.137 . S
Co308 O321 2.244 . S
O309 Co308 2.216 . S
O309 C316 1.247 . S
O310 Co308 2.091 . S
O310 C316 1.261 . S
C311 O320 1.247 . S
C311 O321 1.272 . S
O312 Co308 2.004 . S
O312 C317 1.259 . S
Co313 O314 2.061 . S
Co313 O319 2.052 . S
Co313 O321 2.135 . S
O314 Co313 2.061 . S
O314 C317 1.235 . S
C315 O318 1.238 . S
C315 O319 1.241 . S
C316 O309 1.247 . S
C316 O310 1.261 . S
C317 O312 1.259 . S
C317 O314 1.235 . S
O318 Co308 2.021 . S
O318 C315 1.238 . S
O319 Co313 2.052 . S
O319 C315 1.241 . S
O320 Co308 2.137 . S
O320 C311 1.247 . S
O321 Co308 2.244 . S
O321 C311 1.272 . S
O321 Co313 2.135 . S
Co322 O323 2.216 . S
Co322 O324 2.091 . S
Co322 O326 2.004 . S
Co322 O332 2.021 . S
Co322 O334 2.137 . S
Co322 O335 2.244 . S
O323 Co322 2.216 . S
O323 C330 1.247 . S
O324 Co322 2.091 . S
O324 C330 1.261 . S
C325 O334 1.247 . S
C325 O335 1.272 . S
O326 Co322 2.004 . S
O326 C331 1.259 . S
Co327 O328 2.061 . S
Co327 O333 2.052 . S
Co327 O335 2.135 . S
O328 Co327 2.061 . S
O328 C331 1.235 . S
C329 O332 1.238 . S
C329 O333 1.241 . S
C330 O323 1.247 . S
C330 O324 1.261 . S
C331 O326 1.259 . S
C331 O328 1.235 . S
O332 Co322 2.021 . S
O332 C329 1.238 . S
O333 Co327 2.052 . S
O333 C329 1.241 . S
O334 Co322 2.137 . S
O334 C325 1.247 . S
O335 Co322 2.244 . S
O335 C325 1.272 . S
O335 Co327 2.135 . S
Co336 O337 2.216 . S
Co336 O338 2.091 . S
Co336 O340 2.004 . S
Co336 O346 2.021 . S
Co336 O348 2.137 . S
Co336 O349 2.244 . S
O337 Co336 2.216 . S
O337 C344 1.247 . S
O338 Co336 2.091 . S
O338 C344 1.261 . S
C339 O348 1.247 . S
C339 O349 1.272 . S
O340 Co336 2.004 . S
O340 C345 1.259 . S
Co341 O342 2.061 . S
Co341 O347 2.052 . S
Co341 O349 2.135 . S
O342 Co341 2.061 . S
O342 C345 1.235 . S
C343 O346 1.238 . S
C343 O347 1.241 . S
C344 O337 1.247 . S
C344 O338 1.261 . S
C345 O340 1.259 . S
C345 O342 1.235 . S
O346 Co336 2.021 . S
O346 C343 1.238 . S
O347 Co341 2.052 . S
O347 C343 1.241 . S
O348 Co336 2.137 . S
O348 C339 1.247 . S
O349 Co336 2.244 . S
O349 C339 1.272 . S
O349 Co341 2.135 . S
Co350 O351 2.216 . S
Co350 O352 2.091 . S
Co350 O354 2.004 . S
Co350 O360 2.021 . S
Co350 O362 2.137 . S
Co350 O363 2.244 . S
O351 Co350 2.216 . S
O351 C358 1.247 . S
O352 Co350 2.091 . S
O352 C358 1.261 . S
C353 O362 1.247 . S
C353 O363 1.272 . S
O354 Co350 2.004 . S
O354 C359 1.259 . S
Co355 O356 2.061 . S
Co355 O361 2.052 . S
Co355 O363 2.135 . S
O356 Co355 2.061 . S
O356 C359 1.235 . S
C357 O360 1.238 . S
C357 O361 1.241 . S
C358 O351 1.247 . S
C358 O352 1.261 . S
C359 O354 1.259 . S
C359 O356 1.235 . S
O360 Co350 2.021 . S
O360 C357 1.238 . S
O361 Co355 2.052 . S
O361 C357 1.241 . S
O362 Co350 2.137 . S
O362 C353 1.247 . S
O363 Co350 2.244 . S
O363 C353 1.272 . S
O363 Co355 2.135 . S
Co364 O365 2.216 . S
Co364 O366 2.091 . S
Co364 O368 2.004 . S
Co364 O374 2.021 . S
Co364 O376 2.137 . S
Co364 O377 2.244 . S
O365 Co364 2.216 . S
O365 C372 1.247 . S
O366 Co364 2.091 . S
O366 C372 1.261 . S
C367 O376 1.247 . S
C367 O377 1.272 . S
O368 Co364 2.004 . S
O368 C373 1.259 . S
Co369 O370 2.061 . S
Co369 O375 2.052 . S
Co369 O377 2.135 . S
O370 Co369 2.061 . S
O370 C373 1.235 . S
C371 O374 1.238 . S
C371 O375 1.241 . S
C372 O365 1.247 . S
C372 O366 1.261 . S
C373 O368 1.259 . S
C373 O370 1.235 . S
O374 Co364 2.021 . S
O374 C371 1.238 . S
O375 Co369 2.052 . S
O375 C371 1.241 . S
O376 Co364 2.137 . S
O376 C367 1.247 . S
O377 Co364 2.244 . S
O377 C367 1.272 . S
O377 Co369 2.135 . S
Co378 O379 2.216 . S
Co378 O380 2.091 . S
Co378 O382 2.004 . S
Co378 O388 2.021 . S
Co378 O390 2.137 . S
Co378 O391 2.244 . S
O379 Co378 2.216 . S
O379 C386 1.247 . S
O380 Co378 2.091 . S
O380 C386 1.261 . S
C381 O390 1.247 . S
C381 O391 1.272 . S
O382 Co378 2.004 . S
O382 C387 1.259 . S
Co383 O384 2.061 . S
Co383 O389 2.052 . S
Co383 O391 2.135 . S
O384 Co383 2.061 . S
O384 C387 1.235 . S
C385 O388 1.238 . S
C385 O389 1.241 . S
C386 O379 1.247 . S
C386 O380 1.261 . S
C387 O382 1.259 . S
C387 O384 1.235 . S
O388 Co378 2.021 . S
O388 C385 1.238 . S
O389 Co383 2.052 . S
O389 C385 1.241 . S
O390 Co378 2.137 . S
O390 C381 1.247 . S
O391 Co378 2.244 . S
O391 C381 1.272 . S
O391 Co383 2.135 . S
Co392 O393 2.216 . S
Co392 O394 2.091 . S
Co392 O396 2.004 . S
Co392 O402 2.021 . S
Co392 O404 2.137 . S
Co392 O405 2.244 . S
O393 Co392 2.216 . S
O393 C400 1.247 . S
O394 Co392 2.091 . S
O394 C400 1.261 . S
C395 O404 1.247 . S
C395 O405 1.272 . S
O396 Co392 2.004 . S
O396 C401 1.259 . S
Co397 O398 2.061 . S
Co397 O403 2.052 . S
Co397 O405 2.135 . S
O398 Co397 2.061 . S
O398 C401 1.235 . S
C399 O402 1.238 . S
C399 O403 1.241 . S
C400 O393 1.247 . S
C400 O394 1.261 . S
C401 O396 1.259 . S
C401 O398 1.235 . S
O402 Co392 2.021 . S
O402 C399 1.238 . S
O403 Co397 2.052 . S
O403 C399 1.241 . S
O404 Co392 2.137 . S
O404 C395 1.247 . S
O405 Co392 2.244 . S
O405 C395 1.272 . S
O405 Co397 2.135 . S
Co406 O407 2.216 . S
Co406 O408 2.091 . S
Co406 O410 2.004 . S
Co406 O416 2.021 . S
Co406 O418 2.137 . S
Co406 O419 2.244 . S
O407 Co406 2.216 . S
O407 C414 1.247 . S
O408 Co406 2.091 . S
O408 C414 1.261 . S
C409 O418 1.247 . S
C409 O419 1.272 . S
O410 Co406 2.004 . S
O410 C415 1.259 . S
Co411 O412 2.061 . S
Co411 O417 2.052 . S
Co411 O419 2.135 . S
O412 Co411 2.061 . S
O412 C415 1.235 . S
C413 O416 1.238 . S
C413 O417 1.241 . S
C414 O407 1.247 . S
C414 O408 1.261 . S
C415 O410 1.259 . S
C415 O412 1.235 . S
O416 Co406 2.021 . S
O416 C413 1.238 . S
O417 Co411 2.052 . S
O417 C413 1.241 . S
O418 Co406 2.137 . S
O418 C409 1.247 . S
O419 Co406 2.244 . S
O419 C409 1.272 . S
O419 Co411 2.135 . S
Co420 O421 2.216 . S
Co420 O422 2.091 . S
Co420 O424 2.004 . S
Co420 O430 2.021 . S
Co420 O432 2.137 . S
Co420 O433 2.244 . S
O421 Co420 2.216 . S
O421 C428 1.247 . S
O422 Co420 2.091 . S
O422 C428 1.261 . S
C423 O432 1.247 . S
C423 O433 1.272 . S
O424 Co420 2.004 . S
O424 C429 1.259 . S
Co425 O426 2.061 . S
Co425 O431 2.052 . S
Co425 O433 2.135 . S
O426 Co425 2.061 . S
O426 C429 1.235 . S
C427 O430 1.238 . S
C427 O431 1.241 . S
C428 O421 1.247 . S
C428 O422 1.261 . S
C429 O424 1.259 . S
C429 O426 1.235 . S
O430 Co420 2.021 . S
O430 C427 1.238 . S
O431 Co425 2.052 . S
O431 C427 1.241 . S
O432 Co420 2.137 . S
O432 C423 1.247 . S
O433 Co420 2.244 . S
O433 C423 1.272 . S
O433 Co425 2.135 . S
Co434 O435 2.216 . S
Co434 O436 2.091 . S
Co434 O438 2.004 . S
Co434 O444 2.021 . S
Co434 O446 2.137 . S
Co434 O447 2.244 . S
O435 Co434 2.216 . S
O435 C442 1.247 . S
O436 Co434 2.091 . S
O436 C442 1.261 . S
C437 O446 1.247 . S
C437 O447 1.272 . S
O438 Co434 2.004 . S
O438 C443 1.259 . S
Co439 O440 2.061 . S
Co439 O445 2.052 . S
Co439 O447 2.135 . S
O440 Co439 2.061 . S
O440 C443 1.235 . S
C441 O444 1.238 . S
C441 O445 1.241 . S
C442 O435 1.247 . S
C442 O436 1.261 . S
C443 O438 1.259 . S
C443 O440 1.235 . S
O444 Co434 2.021 . S
O444 C441 1.238 . S
O445 Co439 2.052 . S
O445 C441 1.241 . S
O446 Co434 2.137 . S
O446 C437 1.247 . S
O447 Co434 2.244 . S
O447 C437 1.272 . S
O447 Co439 2.135 . S
Co448 O449 2.216 . S
Co448 O450 2.091 . S
Co448 O452 2.004 . S
Co448 O458 2.021 . S
Co448 O460 2.137 . S
Co448 O461 2.244 . S
O449 Co448 2.216 . S
O449 C456 1.247 . S
O450 Co448 2.091 . S
O450 C456 1.261 . S
C451 O460 1.247 . S
C451 O461 1.272 . S
O452 Co448 2.004 . S
O452 C457 1.259 . S
Co453 O454 2.061 . S
Co453 O459 2.052 . S
Co453 O461 2.135 . S
O454 Co453 2.061 . S
O454 C457 1.235 . S
C455 O458 1.238 . S
C455 O459 1.241 . S
C456 O449 1.247 . S
C456 O450 1.261 . S
C457 O452 1.259 . S
C457 O454 1.235 . S
O458 Co448 2.021 . S
O458 C455 1.238 . S
O459 Co453 2.052 . S
O459 C455 1.241 . S
O460 Co448 2.137 . S
O460 C451 1.247 . S
O461 Co448 2.244 . S
O461 C451 1.272 . S
O461 Co453 2.135 . S
Co462 O463 2.216 . S
Co462 O464 2.091 . S
Co462 O466 2.004 . S
Co462 O472 2.021 . S
Co462 O474 2.137 . S
Co462 O475 2.244 . S
O463 Co462 2.216 . S
O463 C470 1.247 . S
O464 Co462 2.091 . S
O464 C470 1.261 . S
C465 O474 1.247 . S
C465 O475 1.272 . S
O466 Co462 2.004 . S
O466 C471 1.259 . S
Co467 O468 2.061 . S
Co467 O473 2.052 . S
Co467 O475 2.135 . S
O468 Co467 2.061 . S
O468 C471 1.235 . S
C469 O472 1.238 . S
C469 O473 1.241 . S
C470 O463 1.247 . S
C470 O464 1.261 . S
C471 O466 1.259 . S
C471 O468 1.235 . S
O472 Co462 2.021 . S
O472 C469 1.238 . S
O473 Co467 2.052 . S
O473 C469 1.241 . S
O474 Co462 2.137 . S
O474 C465 1.247 . S
O475 Co462 2.244 . S
O475 C465 1.272 . S
O475 Co467 2.135 . S
Co476 O477 2.216 . S
Co476 O478 2.091 . S
Co476 O480 2.004 . S
Co476 O486 2.021 . S
Co476 O488 2.137 . S
Co476 O489 2.244 . S
O477 Co476 2.216 . S
O477 C484 1.247 . S
O478 Co476 2.091 . S
O478 C484 1.261 . S
C479 O488 1.247 . S
C479 O489 1.272 . S
O480 Co476 2.004 . S
O480 C485 1.259 . S
Co481 O482 2.061 . S
Co481 O487 2.052 . S
Co481 O489 2.135 . S
O482 Co481 2.061 . S
O482 C485 1.235 . S
C483 O486 1.238 . S
C483 O487 1.241 . S
C484 O477 1.247 . S
C484 O478 1.261 . S
C485 O480 1.259 . S
C485 O482 1.235 . S
O486 Co476 2.021 . S
O486 C483 1.238 . S
O487 Co481 2.052 . S
O487 C483 1.241 . S
O488 Co476 2.137 . S
O488 C479 1.247 . S
O489 Co476 2.244 . S
O489 C479 1.272 . S
O489 Co481 2.135 . S
Co490 O491 2.216 . S
Co490 O492 2.091 . S
Co490 O494 2.004 . S
Co490 O500 2.021 . S
Co490 O502 2.137 . S
Co490 O503 2.244 . S
O491 Co490 2.216 . S
O491 C498 1.247 . S
O492 Co490 2.091 . S
O492 C498 1.261 . S
C493 O502 1.247 . S
C493 O503 1.272 . S
O494 Co490 2.004 . S
O494 C499 1.259 . S
Co495 O496 2.061 . S
Co495 O501 2.052 . S
Co495 O503 2.135 . S
O496 Co495 2.061 . S
O496 C499 1.235 . S
C497 O500 1.238 . S
C497 O501 1.241 . S
C498 O491 1.247 . S
C498 O492 1.261 . S
C499 O494 1.259 . S
C499 O496 1.235 . S
O500 Co490 2.021 . S
O500 C497 1.238 . S
O501 Co495 2.052 . S
O501 C497 1.241 . S
O502 Co490 2.137 . S
O502 C493 1.247 . S
O503 Co490 2.244 . S
O503 C493 1.272 . S
O503 Co495 2.135 . S
Co504 O505 2.216 . S
Co504 O506 2.091 . S
Co504 O508 2.004 . S
Co504 O514 2.021 . S
Co504 O516 2.137 . S
Co504 O517 2.244 . S
O505 Co504 2.216 . S
O505 C512 1.247 . S
O506 Co504 2.091 . S
O506 C512 1.261 . S
C507 O516 1.247 . S
C507 O517 1.272 . S
O508 Co504 2.004 . S
O508 C513 1.259 . S
Co509 O510 2.061 . S
Co509 O515 2.052 . S
Co509 O517 2.135 . S
O510 Co509 2.061 . S
O510 C513 1.235 . S
C511 O514 1.238 . S
C511 O515 1.241 . S
C512 O505 1.247 . S
C512 O506 1.261 . S
C513 O508 1.259 . S
C513 O510 1.235 . S
O514 Co504 2.021 . S
O514 C511 1.238 . S
O515 Co509 2.052 . S
O515 C511 1.241 . S
O516 Co504 2.137 . S
O516 C507 1.247 . S
O517 Co504 2.244 . S
O517 C507 1.272 . S
O517 Co509 2.135 . S
Co518 O519 2.216 . S
Co518 O520 2.091 . S
Co518 O522 2.004 . S
Co518 O528 2.021 . S
Co518 O530 2.137 . S
Co518 O531 2.244 . S
O519 Co518 2.216 . S
O519 C526 1.247 . S
O520 Co518 2.091 . S
O520 C526 1.261 . S
C521 O530 1.247 . S
C521 O531 1.272 . S
O522 Co518 2.004 . S
O522 C527 1.259 . S
Co523 O524 2.061 . S
Co523 O529 2.052 . S
Co523 O531 2.135 . S
O524 Co523 2.061 . S
O524 C527 1.235 . S
C525 O528 1.238 . S
C525 O529 1.241 . S
C526 O519 1.247 . S
C526 O520 1.261 . S
C527 O522 1.259 . S
C527 O524 1.235 . S
O528 Co518 2.021 . S
O528 C525 1.238 . S
O529 Co523 2.052 . S
O529 C525 1.241 . S
O530 Co518 2.137 . S
O530 C521 1.247 . S
O531 Co518 2.244 . S
O531 C521 1.272 . S
O531 Co523 2.135 . S
Co532 O533 2.216 . S
Co532 O534 2.091 . S
Co532 O536 2.004 . S
Co532 O542 2.021 . S
Co532 O544 2.137 . S
Co532 O545 2.244 . S
O533 Co532 2.216 . S
O533 C540 1.247 . S
O534 Co532 2.091 . S
O534 C540 1.261 . S
C535 O544 1.247 . S
C535 O545 1.272 . S
O536 Co532 2.004 . S
O536 C541 1.259 . S
Co537 O538 2.061 . S
Co537 O543 2.052 . S
Co537 O545 2.135 . S
O538 Co537 2.061 . S
O538 C541 1.235 . S
C539 O542 1.238 . S
C539 O543 1.241 . S
C540 O533 1.247 . S
C540 O534 1.261 . S
C541 O536 1.259 . S
C541 O538 1.235 . S
O542 Co532 2.021 . S
O542 C539 1.238 . S
O543 Co537 2.052 . S
O543 C539 1.241 . S
O544 Co532 2.137 . S
O544 C535 1.247 . S
O545 Co532 2.244 . S
O545 C535 1.272 . S
O545 Co537 2.135 . S
Co546 O547 2.216 . S
Co546 O548 2.091 . S
Co546 O550 2.004 . S
Co546 O556 2.021 . S
Co546 O558 2.137 . S
Co546 O559 2.244 . S
O547 Co546 2.216 . S
O547 C554 1.247 . S
O548 Co546 2.091 . S
O548 C554 1.261 . S
C549 O558 1.247 . S
C549 O559 1.272 . S
O550 Co546 2.004 . S
O550 C555 1.259 . S
Co551 O552 2.061 . S
Co551 O557 2.052 . S
Co551 O559 2.135 . S
O552 Co551 2.061 . S
O552 C555 1.235 . S
C553 O556 1.238 . S
C553 O557 1.241 . S
C554 O547 1.247 . S
C554 O548 1.261 . S
C555 O550 1.259 . S
C555 O552 1.235 . S
O556 Co546 2.021 . S
O556 C553 1.238 . S
O557 Co551 2.052 . S
O557 C553 1.241 . S
O558 Co546 2.137 . S
O558 C549 1.247 . S
O559 Co546 2.244 . S
O559 C549 1.272 . S
O559 Co551 2.135 . S
Co560 O561 2.216 . S
Co560 O562 2.091 . S
Co560 O564 2.004 . S
Co560 O570 2.021 . S
Co560 O572 2.137 . S
Co560 O573 2.244 . S
O561 Co560 2.216 . S
O561 C568 1.247 . S
O562 Co560 2.091 . S
O562 C568 1.261 . S
C563 O572 1.247 . S
C563 O573 1.272 . S
O564 Co560 2.004 . S
O564 C569 1.259 . S
Co565 O566 2.061 . S
Co565 O571 2.052 . S
Co565 O573 2.135 . S
O566 Co565 2.061 . S
O566 C569 1.235 . S
C567 O570 1.238 . S
C567 O571 1.241 . S
C568 O561 1.247 . S
C568 O562 1.261 . S
C569 O564 1.259 . S
C569 O566 1.235 . S
O570 Co560 2.021 . S
O570 C567 1.238 . S
O571 Co565 2.052 . S
O571 C567 1.241 . S
O572 Co560 2.137 . S
O572 C563 1.247 . S
O573 Co560 2.244 . S
O573 C563 1.272 . S
O573 Co565 2.135 . S
Co574 O575 2.216 . S
Co574 O576 2.091 . S
Co574 O578 2.004 . S
Co574 O584 2.021 . S
Co574 O586 2.137 . S
Co574 O587 2.244 . S
O575 Co574 2.216 . S
O575 C582 1.247 . S
O576 Co574 2.091 . S
O576 C582 1.261 . S
C577 O586 1.247 . S
C577 O587 1.272 . S
O578 Co574 2.004 . S
O578 C583 1.259 . S
Co579 O580 2.061 . S
Co579 O585 2.052 . S
Co579 O587 2.135 . S
O580 Co579 2.061 . S
O580 C583 1.235 . S
C581 O584 1.238 . S
C581 O585 1.241 . S
C582 O575 1.247 . S
C582 O576 1.261 . S
C583 O578 1.259 . S
C583 O580 1.235 . S
O584 Co574 2.021 . S
O584 C581 1.238 . S
O585 Co579 2.052 . S
O585 C581 1.241 . S
O586 Co574 2.137 . S
O586 C577 1.247 . S
O587 Co574 2.244 . S
O587 C577 1.272 . S
O587 Co579 2.135 . S
Co588 O589 2.216 . S
Co588 O590 2.091 . S
Co588 O592 2.004 . S
Co588 O598 2.021 . S
Co588 O600 2.137 . S
Co588 O601 2.244 . S
O589 Co588 2.216 . S
O589 C596 1.247 . S
O590 Co588 2.091 . S
O590 C596 1.261 . S
C591 O600 1.247 . S
C591 O601 1.272 . S
O592 Co588 2.004 . S
O592 C597 1.259 . S
Co593 O594 2.061 . S
Co593 O599 2.052 . S
Co593 O601 2.135 . S
O594 Co593 2.061 . S
O594 C597 1.235 . S
C595 O598 1.238 . S
C595 O599 1.241 . S
C596 O589 1.247 . S
C596 O590 1.261 . S
C597 O592 1.259 . S
C597 O594 1.235 . S
O598 Co588 2.021 . S
O598 C595 1.238 . S
O599 Co593 2.052 . S
O599 C595 1.241 . S
O600 Co588 2.137 . S
O600 C591 1.247 . S
O601 Co588 2.244 . S
O601 C591 1.272 . S
O601 Co593 2.135 . S
Co602 O603 2.216 . S
Co602 O604 2.091 . S
Co602 O606 2.004 . S
Co602 O612 2.021 . S
Co602 O614 2.137 . S
Co602 O615 2.244 . S
O603 Co602 2.216 . S
O603 C610 1.247 . S
O604 Co602 2.091 . S
O604 C610 1.261 . S
C605 O614 1.247 . S
C605 O615 1.272 . S
O606 Co602 2.004 . S
O606 C611 1.259 . S
Co607 O608 2.061 . S
Co607 O613 2.052 . S
Co607 O615 2.135 . S
O608 Co607 2.061 . S
O608 C611 1.235 . S
C609 O612 1.238 . S
C609 O613 1.241 . S
C610 O603 1.247 . S
C610 O604 1.261 . S
C611 O606 1.259 . S
C611 O608 1.235 . S
O612 Co602 2.021 . S
O612 C609 1.238 . S
O613 Co607 2.052 . S
O613 C609 1.241 . S
O614 Co602 2.137 . S
O614 C605 1.247 . S
O615 Co602 2.244 . S
O615 C605 1.272 . S
O615 Co607 2.135 . S
Co616 O617 2.216 . S
Co616 O618 2.091 . S
Co616 O620 2.004 . S
Co616 O626 2.021 . S
Co616 O628 2.137 . S
Co616 O629 2.244 . S
O617 Co616 2.216 . S
O617 C624 1.247 . S
O618 Co616 2.091 . S
O618 C624 1.261 . S
C619 O628 1.247 . S
C619 O629 1.272 . S
O620 Co616 2.004 . S
O620 C625 1.259 . S
Co621 O622 2.061 . S
Co621 O627 2.052 . S
Co621 O629 2.135 . S
O622 Co621 2.061 . S
O622 C625 1.235 . S
C623 O626 1.238 . S
C623 O627 1.241 . S
C624 O617 1.247 . S
C624 O618 1.261 . S
C625 O620 1.259 . S
C625 O622 1.235 . S
O626 Co616 2.021 . S
O626 C623 1.238 . S
O627 Co621 2.052 . S
O627 C623 1.241 . S
O628 Co616 2.137 . S
O628 C619 1.247 . S
O629 Co616 2.244 . S
O629 C619 1.272 . S
O629 Co621 2.135 . S
Co630 O631 2.216 . S
Co630 O632 2.091 . S
Co630 O634 2.004 . S
Co630 O640 2.021 . S
Co630 O642 2.137 . S
Co630 O643 2.244 . S
O631 Co630 2.216 . S
O631 C638 1.247 . S
O632 Co630 2.091 . S
O632 C638 1.261 . S
C633 O642 1.247 . S
C633 O643 1.272 . S
O634 Co630 2.004 . S
O634 C639 1.259 . S
Co635 O636 2.061 . S
Co635 O641 2.052 . S
Co635 O643 2.135 . S
O636 Co635 2.061 . S
O636 C639 1.235 . S
C637 O640 1.238 . S
C637 O641 1.241 . S
C638 O631 1.247 . S
C638 O632 1.261 . S
C639 O634 1.259 . S
C639 O636 1.235 . S
O640 Co630 2.021 . S
O640 C637 1.238 . S
O641 Co635 2.052 . S
O641 C637 1.241 . S
O642 Co630 2.137 . S
O642 C633 1.247 . S
O643 Co630 2.244 . S
O643 C633 1.272 . S
O643 Co635 2.135 . S
Co644 O645 2.216 . S
Co644 O646 2.091 . S
Co644 O648 2.004 . S
Co644 O654 2.021 . S
Co644 O656 2.137 . S
Co644 O657 2.244 . S
O645 Co644 2.216 . S
O645 C652 1.247 . S
O646 Co644 2.091 . S
O646 C652 1.261 . S
C647 O656 1.247 . S
C647 O657 1.272 . S
O648 Co644 2.004 . S
O648 C653 1.259 . S
Co649 O650 2.061 . S
Co649 O655 2.052 . S
Co649 O657 2.135 . S
O650 Co649 2.061 . S
O650 C653 1.235 . S
C651 O654 1.238 . S
C651 O655 1.241 . S
C652 O645 1.247 . S
C652 O646 1.261 . S
C653 O648 1.259 . S
C653 O650 1.235 . S
O654 Co644 2.021 . S
O654 C651 1.238 . S
O655 Co649 2.052 . S
O655 C651 1.241 . S
O656 Co644 2.137 . S
O656 C647 1.247 . S
O657 Co644 2.244 . S
O657 C647 1.272 . S
O657 Co649 2.135 . S
Co658 O659 2.216 . S
Co658 O660 2.091 . S
Co658 O662 2.004 . S
Co658 O668 2.021 . S
Co658 O670 2.137 . S
Co658 O671 2.244 . S
O659 Co658 2.216 . S
O659 C666 1.247 . S
O660 Co658 2.091 . S
O660 C666 1.261 . S
C661 O670 1.247 . S
C661 O671 1.272 . S
O662 Co658 2.004 . S
O662 C667 1.259 . S
Co663 O664 2.061 . S
Co663 O669 2.052 . S
Co663 O671 2.135 . S
O664 Co663 2.061 . S
O664 C667 1.235 . S
C665 O668 1.238 . S
C665 O669 1.241 . S
C666 O659 1.247 . S
C666 O660 1.261 . S
C667 O662 1.259 . S
C667 O664 1.235 . S
O668 Co658 2.021 . S
O668 C665 1.238 . S
O669 Co663 2.052 . S
O669 C665 1.241 . S
O670 Co658 2.137 . S
O670 C661 1.247 . S
O671 Co658 2.244 . S
O671 C661 1.272 . S
O671 Co663 2.135 . S
C672 C673 1.349 . S
C672 C674 1.327 . S
C672 H697 0.950 . S
C673 C672 1.349 . S
C673 C689 1.349 . S
C674 C672 1.327 . S
C674 C693 1.429 . S
C674 H698 0.950 . S
C675 C692 1.574 1_655 S
C675 C694 1.368 . S
C675 H699 0.949 . S
H676 C680 0.949 . S
C677 C678 1.349 . S
C677 C679 1.327 . S
C677 H700 0.950 . S
C678 C677 1.349 . S
C678 C690 1.349 . S
C679 C677 1.327 . S
C679 C695 1.429 . S
C679 H701 0.950 . S
C680 H676 0.949 . S
C680 C688 1.574 1_455 S
C680 C696 1.368 . S
H681 C689 0.950 . S
H682 C687 0.950 . S
H683 C688 0.949 . S
H684 C690 0.950 . S
H685 C691 0.950 . S
H686 C692 0.949 . S
C687 H682 0.950 . S
C687 C689 1.327 . S
C687 C693 1.429 . S
C688 C680 1.574 1_655 S
C688 H683 0.949 . S
C688 C694 1.368 . S
C689 C673 1.349 . S
C689 H681 0.950 . S
C689 C687 1.327 . S
C690 C678 1.349 . S
C690 H684 0.950 . S
C690 C691 1.327 . S
C691 H685 0.950 . S
C691 C690 1.327 . S
C691 C695 1.429 . S
C692 C675 1.574 1_455 S
C692 H686 0.949 . S
C692 C696 1.368 . S
C693 C674 1.429 . S
C693 C687 1.429 . S
C693 C694 1.523 . S
C694 C675 1.368 . S
C694 C688 1.368 . S
C694 C693 1.523 . S
C695 C679 1.429 . S
C695 C691 1.429 . S
C695 C696 1.523 . S
C696 C680 1.368 . S
C696 C692 1.368 . S
C696 C695 1.523 . S
H697 C672 0.950 . S
H698 C674 0.950 . S
H699 C675 0.949 . S
H700 C677 0.950 . S
H701 C679 0.950 . S
C702 C703 1.349 . S
C702 C704 1.327 . S
C702 H727 0.950 . S
C703 C702 1.349 . S
C703 C719 1.349 . S
C704 C702 1.327 . S
C704 C723 1.429 . S
C704 H728 0.950 . S
C705 C722 1.574 . S
C705 C724 1.368 . S
C705 H729 0.949 . S
H706 C710 0.949 . S
C707 C708 1.349 . S
C707 C709 1.327 . S
C707 H730 0.950 . S
C708 C707 1.349 . S
C708 C720 1.349 . S
C709 C707 1.327 . S
C709 C725 1.429 . S
C709 H731 0.950 . S
C710 H706 0.949 . S
C710 C718 1.574 . S
C710 C726 1.368 . S
H711 C719 0.950 . S
H712 C717 0.950 . S
H713 C718 0.949 . S
H714 C720 0.950 . S
H715 C721 0.950 . S
H716 C722 0.949 . S
C717 H712 0.950 . S
C717 C719 1.327 . S
C717 C723 1.429 . S
C718 C710 1.574 . S
C718 H713 0.949 . S
C718 C724 1.368 . S
C719 C703 1.349 . S
C719 H711 0.950 . S
C719 C717 1.327 . S
C720 C708 1.349 . S
C720 H714 0.950 . S
C720 C721 1.327 . S
C721 H715 0.950 . S
C721 C720 1.327 . S
C721 C725 1.429 . S
C722 C705 1.574 . S
C722 H716 0.949 . S
C722 C726 1.368 . S
C723 C704 1.429 . S
C723 C717 1.429 . S
C723 C724 1.523 . S
C724 C705 1.368 . S
C724 C718 1.368 . S
C724 C723 1.523 . S
C725 C709 1.429 . S
C725 C721 1.429 . S
C725 C726 1.523 . S
C726 C710 1.368 . S
C726 C722 1.368 . S
C726 C725 1.523 . S
H727 C702 0.950 . S
H728 C704 0.950 . S
H729 C705 0.949 . S
H730 C707 0.950 . S
H731 C709 0.950 . S
C732 C733 1.349 . S
C732 C734 1.327 . S
C732 H757 0.950 . S
C733 C732 1.349 . S
C733 C749 1.349 . S
C734 C732 1.327 . S
C734 C753 1.429 . S
C734 H758 0.950 . S
C735 C752 1.574 1_455 S
C735 C754 1.368 . S
C735 H759 0.949 . S
H736 C740 0.949 . S
C737 C738 1.349 . S
C737 C739 1.327 . S
C737 H760 0.950 . S
C738 C737 1.349 . S
C738 C750 1.349 . S
C739 C737 1.327 . S
C739 C755 1.429 . S
C739 H761 0.950 . S
C740 H736 0.949 . S
C740 C748 1.574 1_655 S
C740 C756 1.368 . S
H741 C749 0.950 . S
H742 C747 0.950 . S
H743 C748 0.949 . S
H744 C750 0.950 . S
H745 C751 0.950 . S
H746 C752 0.949 . S
C747 H742 0.950 . S
C747 C749 1.327 . S
C747 C753 1.429 . S
C748 C740 1.574 1_455 S
C748 H743 0.949 . S
C748 C754 1.368 . S
C749 C733 1.349 . S
C749 H741 0.950 . S
C749 C747 1.327 . S
C750 C738 1.349 . S
C750 H744 0.950 . S
C750 C751 1.327 . S
C751 H745 0.950 . S
C751 C750 1.327 . S
C751 C755 1.429 . S
C752 C735 1.574 1_655 S
C752 H746 0.949 . S
C752 C756 1.368 . S
C753 C734 1.429 . S
C753 C747 1.429 . S
C753 C754 1.523 . S
C754 C735 1.368 . S
C754 C748 1.368 . S
C754 C753 1.523 . S
C755 C739 1.429 . S
C755 C751 1.429 . S
C755 C756 1.523 . S
C756 C740 1.368 . S
C756 C752 1.368 . S
C756 C755 1.523 . S
H757 C732 0.950 . S
H758 C734 0.950 . S
H759 C735 0.949 . S
H760 C737 0.950 . S
H761 C739 0.950 . S
C762 C763 1.349 . S
C762 C764 1.327 . S
C762 H787 0.950 . S
C763 C762 1.349 . S
C763 C779 1.349 . S
C764 C762 1.327 . S
C764 C783 1.429 . S
C764 H788 0.950 . S
C765 C782 1.574 . S
C765 C784 1.368 . S
C765 H789 0.949 . S
H766 C770 0.949 . S
C767 C768 1.349 . S
C767 C769 1.327 . S
C767 H790 0.950 . S
C768 C767 1.349 . S
C768 C780 1.349 . S
C769 C767 1.327 . S
C769 C785 1.429 . S
C769 H791 0.950 . S
C770 H766 0.949 . S
C770 C778 1.574 . S
C770 C786 1.368 . S
H771 C779 0.950 . S
H772 C777 0.950 . S
H773 C778 0.949 . S
H774 C780 0.950 . S
H775 C781 0.950 . S
H776 C782 0.949 . S
C777 H772 0.950 . S
C777 C779 1.327 . S
C777 C783 1.429 . S
C778 C770 1.574 . S
C778 H773 0.949 . S
C778 C784 1.368 . S
C779 C763 1.349 . S
C779 H771 0.950 . S
C779 C777 1.327 . S
C780 C768 1.349 . S
C780 H774 0.950 . S
C780 C781 1.327 . S
C781 H775 0.950 . S
C781 C780 1.327 . S
C781 C785 1.429 . S
C782 C765 1.574 . S
C782 H776 0.949 . S
C782 C786 1.368 . S
C783 C764 1.429 . S
C783 C777 1.429 . S
C783 C784 1.523 . S
C784 C765 1.368 . S
C784 C778 1.368 . S
C784 C783 1.523 . S
C785 C769 1.429 . S
C785 C781 1.429 . S
C785 C786 1.523 . S
C786 C770 1.368 . S
C786 C782 1.368 . S
C786 C785 1.523 . S
H787 C762 0.950 . S
H788 C764 0.950 . S
H789 C765 0.949 . S
H790 C767 0.950 . S
H791 C769 0.950 . S
C792 C793 1.349 . S
C792 C794 1.327 . S
C792 H817 0.950 . S
C793 C792 1.349 . S
C793 C809 1.349 . S
C794 C792 1.327 . S
C794 C813 1.429 . S
C794 H818 0.950 . S
C795 C812 1.574 1_655 S
C795 C814 1.368 . S
C795 H819 0.949 . S
H796 C800 0.949 . S
C797 C798 1.349 . S
C797 C799 1.327 . S
C797 H820 0.950 . S
C798 C797 1.349 . S
C798 C810 1.349 . S
C799 C797 1.327 . S
C799 C815 1.429 . S
C799 H821 0.950 . S
C800 H796 0.949 . S
C800 C808 1.574 1_455 S
C800 C816 1.368 . S
H801 C809 0.950 . S
H802 C807 0.950 . S
H803 C808 0.949 . S
H804 C810 0.950 . S
H805 C811 0.950 . S
H806 C812 0.949 . S
C807 H802 0.950 . S
C807 C809 1.327 . S
C807 C813 1.429 . S
C808 C800 1.574 1_655 S
C808 H803 0.949 . S
C808 C814 1.368 . S
C809 C793 1.349 . S
C809 H801 0.950 . S
C809 C807 1.327 . S
C810 C798 1.349 . S
C810 H804 0.950 . S
C810 C811 1.327 . S
C811 H805 0.950 . S
C811 C810 1.327 . S
C811 C815 1.429 . S
C812 C795 1.574 1_455 S
C812 H806 0.949 . S
C812 C816 1.368 . S
C813 C794 1.429 . S
C813 C807 1.429 . S
C813 C814 1.523 . S
C814 C795 1.368 . S
C814 C808 1.368 . S
C814 C813 1.523 . S
C815 C799 1.429 . S
C815 C811 1.429 . S
C815 C816 1.523 . S
C816 C800 1.368 . S
C816 C812 1.368 . S
C816 C815 1.523 . S
H817 C792 0.950 . S
H818 C794 0.950 . S
H819 C795 0.949 . S
H820 C797 0.950 . S
H821 C799 0.950 . S
C822 C823 1.349 . S
C822 C824 1.327 . S
C822 H847 0.950 . S
C823 C822 1.349 . S
C823 C839 1.349 . S
C824 C822 1.327 . S
C824 C843 1.429 . S
C824 H848 0.950 . S
C825 C842 1.574 . S
C825 C844 1.368 . S
C825 H849 0.949 . S
H826 C830 0.949 . S
C827 C828 1.349 . S
C827 C829 1.327 . S
C827 H850 0.950 . S
C828 C827 1.349 . S
C828 C840 1.349 . S
C829 C827 1.327 . S
C829 C845 1.429 . S
C829 H851 0.950 . S
C830 H826 0.949 . S
C830 C838 1.574 . S
C830 C846 1.368 . S
H831 C839 0.950 . S
H832 C837 0.950 . S
H833 C838 0.949 . S
H834 C840 0.950 . S
H835 C841 0.950 . S
H836 C842 0.949 . S
C837 H832 0.950 . S
C837 C839 1.327 . S
C837 C843 1.429 . S
C838 C830 1.574 . S
C838 H833 0.949 . S
C838 C844 1.368 . S
C839 C823 1.349 . S
C839 H831 0.950 . S
C839 C837 1.327 . S
C840 C828 1.349 . S
C840 H834 0.950 . S
C840 C841 1.327 . S
C841 H835 0.950 . S
C841 C840 1.327 . S
C841 C845 1.429 . S
C842 C825 1.574 . S
C842 H836 0.949 . S
C842 C846 1.368 . S
C843 C824 1.429 . S
C843 C837 1.429 . S
C843 C844 1.523 . S
C844 C825 1.368 . S
C844 C838 1.368 . S
C844 C843 1.523 . S
C845 C829 1.429 . S
C845 C841 1.429 . S
C845 C846 1.523 . S
C846 C830 1.368 . S
C846 C842 1.368 . S
C846 C845 1.523 . S
H847 C822 0.950 . S
H848 C824 0.950 . S
H849 C825 0.949 . S
H850 C827 0.950 . S
H851 C829 0.950 . S
C852 C853 1.349 . S
C852 C854 1.327 . S
C852 H877 0.950 . S
C853 C852 1.349 . S
C853 C869 1.349 . S
C854 C852 1.327 . S
C854 C873 1.429 . S
C854 H878 0.950 . S
C855 C872 1.574 1_455 S
C855 C874 1.368 . S
C855 H879 0.949 . S
H856 C860 0.949 . S
C857 C858 1.349 . S
C857 C859 1.327 . S
C857 H880 0.950 . S
C858 C857 1.349 . S
C858 C870 1.349 . S
C859 C857 1.327 . S
C859 C875 1.429 . S
C859 H881 0.950 . S
C860 H856 0.949 . S
C860 C868 1.574 1_655 S
C860 C876 1.368 . S
H861 C869 0.950 . S
H862 C867 0.950 . S
H863 C868 0.949 . S
H864 C870 0.950 . S
H865 C871 0.950 . S
H866 C872 0.949 . S
C867 H862 0.950 . S
C867 C869 1.327 . S
C867 C873 1.429 . S
C868 C860 1.574 1_455 S
C868 H863 0.949 . S
C868 C874 1.368 . S
C869 C853 1.349 . S
C869 H861 0.950 . S
C869 C867 1.327 . S
C870 C858 1.349 . S
C870 H864 0.950 . S
C870 C871 1.327 . S
C871 H865 0.950 . S
C871 C870 1.327 . S
C871 C875 1.429 . S
C872 C855 1.574 1_655 S
C872 H866 0.949 . S
C872 C876 1.368 . S
C873 C854 1.429 . S
C873 C867 1.429 . S
C873 C874 1.523 . S
C874 C855 1.368 . S
C874 C868 1.368 . S
C874 C873 1.523 . S
C875 C859 1.429 . S
C875 C871 1.429 . S
C875 C876 1.523 . S
C876 C860 1.368 . S
C876 C872 1.368 . S
C876 C875 1.523 . S
H877 C852 0.950 . S
H878 C854 0.950 . S
H879 C855 0.949 . S
H880 C857 0.950 . S
H881 C859 0.950 . S
C882 C883 1.349 . S
C882 C884 1.327 . S
C882 H907 0.950 . S
C883 C882 1.349 . S
C883 C899 1.349 . S
C884 C882 1.327 . S
C884 C903 1.429 . S
C884 H908 0.950 . S
C885 C902 1.574 . S
C885 C904 1.368 . S
C885 H909 0.949 . S
H886 C890 0.949 . S
C887 C888 1.349 . S
C887 C889 1.327 . S
C887 H910 0.950 . S
C888 C887 1.349 . S
C888 C900 1.349 . S
C889 C887 1.327 . S
C889 C905 1.429 . S
C889 H911 0.950 . S
C890 H886 0.949 . S
C890 C898 1.574 . S
C890 C906 1.368 . S
H891 C899 0.950 . S
H892 C897 0.950 . S
H893 C898 0.949 . S
H894 C900 0.950 . S
H895 C901 0.950 . S
H896 C902 0.949 . S
C897 H892 0.950 . S
C897 C899 1.327 . S
C897 C903 1.429 . S
C898 C890 1.574 . S
C898 H893 0.949 . S
C898 C904 1.368 . S
C899 C883 1.349 . S
C899 H891 0.950 . S
C899 C897 1.327 . S
C900 C888 1.349 . S
C900 H894 0.950 . S
C900 C901 1.327 . S
C901 H895 0.950 . S
C901 C900 1.327 . S
C901 C905 1.429 . S
C902 C885 1.574 . S
C902 H896 0.949 . S
C902 C906 1.368 . S
C903 C884 1.429 . S
C903 C897 1.429 . S
C903 C904 1.523 . S
C904 C885 1.368 . S
C904 C898 1.368 . S
C904 C903 1.523 . S
C905 C889 1.429 . S
C905 C901 1.429 . S
C905 C906 1.523 . S
C906 C890 1.368 . S
C906 C902 1.368 . S
C906 C905 1.523 . S
H907 C882 0.950 . S
H908 C884 0.950 . S
H909 C885 0.949 . S
H910 C887 0.950 . S
H911 C889 0.950 . S
C912 C913 1.349 . S
C912 C914 1.327 . S
C912 H937 0.950 . S
C913 C912 1.349 . S
C913 C929 1.349 . S
C914 C912 1.327 . S
C914 C933 1.429 . S
C914 H938 0.950 . S
C915 C932 1.574 1_565 S
C915 C934 1.368 . S
C915 H939 0.949 . S
H916 C920 0.949 . S
C917 C918 1.349 . S
C917 C919 1.327 . S
C917 H940 0.950 . S
C918 C917 1.349 . S
C918 C930 1.349 . S
C919 C917 1.327 . S
C919 C935 1.429 . S
C919 H941 0.950 . S
C920 H916 0.949 . S
C920 C928 1.574 1_545 S
C920 C936 1.368 . S
H921 C929 0.950 . S
H922 C927 0.950 . S
H923 C928 0.949 . S
H924 C930 0.950 . S
H925 C931 0.950 . S
H926 C932 0.949 . S
C927 H922 0.950 . S
C927 C929 1.327 . S
C927 C933 1.429 . S
C928 C920 1.574 1_565 S
C928 H923 0.949 . S
C928 C934 1.368 . S
C929 C913 1.349 . S
C929 H921 0.950 . S
C929 C927 1.327 . S
C930 C918 1.349 . S
C930 H924 0.950 . S
C930 C931 1.327 . S
C931 H925 0.950 . S
C931 C930 1.327 . S
C931 C935 1.429 . S
C932 C915 1.574 1_545 S
C932 H926 0.949 . S
C932 C936 1.368 . S
C933 C914 1.429 . S
C933 C927 1.429 . S
C933 C934 1.523 . S
C934 C915 1.368 . S
C934 C928 1.368 . S
C934 C933 1.523 . S
C935 C919 1.429 . S
C935 C931 1.429 . S
C935 C936 1.523 . S
C936 C920 1.368 . S
C936 C932 1.368 . S
C936 C935 1.523 . S
H937 C912 0.950 . S
H938 C914 0.950 . S
H939 C915 0.949 . S
H940 C917 0.950 . S
H941 C919 0.950 . S
C942 C943 1.349 . S
C942 C944 1.327 . S
C942 H967 0.950 . S
C943 C942 1.349 . S
C943 C959 1.349 . S
C944 C942 1.327 . S
C944 C963 1.429 . S
C944 H968 0.950 . S
C945 C962 1.574 . S
C945 C964 1.368 . S
C945 H969 0.949 . S
H946 C950 0.949 . S
C947 C948 1.349 . S
C947 C949 1.327 . S
C947 H970 0.950 . S
C948 C947 1.349 . S
C948 C960 1.349 . S
C949 C947 1.327 . S
C949 C965 1.429 . S
C949 H971 0.950 . S
C950 H946 0.949 . S
C950 C958 1.574 . S
C950 C966 1.368 . S
H951 C959 0.950 . S
H952 C957 0.950 . S
H953 C958 0.949 . S
H954 C960 0.950 . S
H955 C961 0.950 . S
H956 C962 0.949 . S
C957 H952 0.950 . S
C957 C959 1.327 . S
C957 C963 1.429 . S
C958 C950 1.574 . S
C958 H953 0.949 . S
C958 C964 1.368 . S
C959 C943 1.349 . S
C959 H951 0.950 . S
C959 C957 1.327 . S
C960 C948 1.349 . S
C960 H954 0.950 . S
C960 C961 1.327 . S
C961 H955 0.950 . S
C961 C960 1.327 . S
C961 C965 1.429 . S
C962 C945 1.574 . S
C962 H956 0.949 . S
C962 C966 1.368 . S
C963 C944 1.429 . S
C963 C957 1.429 . S
C963 C964 1.523 . S
C964 C945 1.368 . S
C964 C958 1.368 . S
C964 C963 1.523 . S
C965 C949 1.429 . S
C965 C961 1.429 . S
C965 C966 1.523 . S
C966 C950 1.368 . S
C966 C962 1.368 . S
C966 C965 1.523 . S
H967 C942 0.950 . S
H968 C944 0.950 . S
H969 C945 0.949 . S
H970 C947 0.950 . S
H971 C949 0.950 . S
C972 C973 1.349 . S
C972 C974 1.327 . S
C972 H997 0.950 . S
C973 C972 1.349 . S
C973 C989 1.349 . S
C974 C972 1.327 . S
C974 C993 1.429 . S
C974 H998 0.950 . S
C975 C992 1.574 1_545 S
C975 C994 1.368 . S
C975 H999 0.949 . S
H976 C980 0.949 . S
C977 C978 1.349 . S
C977 C979 1.327 . S
C977 H1000 0.950 . S
C978 C977 1.349 . S
C978 C990 1.349 . S
C979 C977 1.327 . S
C979 C995 1.429 . S
C979 H1001 0.950 . S
C980 H976 0.949 . S
C980 C988 1.574 1_565 S
C980 C996 1.368 . S
H981 C989 0.950 . S
H982 C987 0.950 . S
H983 C988 0.949 . S
H984 C990 0.950 . S
H985 C991 0.950 . S
H986 C992 0.949 . S
C987 H982 0.950 . S
C987 C989 1.327 . S
C987 C993 1.429 . S
C988 C980 1.574 1_545 S
C988 H983 0.949 . S
C988 C994 1.368 . S
C989 C973 1.349 . S
C989 H981 0.950 . S
C989 C987 1.327 . S
C990 C978 1.349 . S
C990 H984 0.950 . S
C990 C991 1.327 . S
C991 H985 0.950 . S
C991 C990 1.327 . S
C991 C995 1.429 . S
C992 C975 1.574 1_565 S
C992 H986 0.949 . S
C992 C996 1.368 . S
C993 C974 1.429 . S
C993 C987 1.429 . S
C993 C994 1.523 . S
C994 C975 1.368 . S
C994 C988 1.368 . S
C994 C993 1.523 . S
C995 C979 1.429 . S
C995 C991 1.429 . S
C995 C996 1.523 . S
C996 C980 1.368 . S
C996 C992 1.368 . S
C996 C995 1.523 . S
H997 C972 0.950 . S
H998 C974 0.950 . S
H999 C975 0.949 . S
H1000 C977 0.950 . S
H1001 C979 0.950 . S
C1002 C1003 1.349 . S
C1002 C1004 1.327 . S
C1002 H1027 0.950 . S
C1003 C1002 1.349 . S
C1003 C1019 1.349 . S
C1004 C1002 1.327 . S
C1004 C1023 1.429 . S
C1004 H1028 0.950 . S
C1005 C1022 1.574 . S
C1005 C1024 1.368 . S
C1005 H1029 0.949 . S
H1006 C1010 0.949 . S
C1007 C1008 1.349 . S
C1007 C1009 1.327 . S
C1007 H1030 0.950 . S
C1008 C1007 1.349 . S
C1008 C1020 1.349 . S
C1009 C1007 1.327 . S
C1009 C1025 1.429 . S
C1009 H1031 0.950 . S
C1010 H1006 0.949 . S
C1010 C1018 1.574 . S
C1010 C1026 1.368 . S
H1011 C1019 0.950 . S
H1012 C1017 0.950 . S
H1013 C1018 0.949 . S
H1014 C1020 0.950 . S
H1015 C1021 0.950 . S
H1016 C1022 0.949 . S
C1017 H1012 0.950 . S
C1017 C1019 1.327 . S
C1017 C1023 1.429 . S
C1018 C1010 1.574 . S
C1018 H1013 0.949 . S
C1018 C1024 1.368 . S
C1019 C1003 1.349 . S
C1019 H1011 0.950 . S
C1019 C1017 1.327 . S
C1020 C1008 1.349 . S
C1020 H1014 0.950 . S
C1020 C1021 1.327 . S
C1021 H1015 0.950 . S
C1021 C1020 1.327 . S
C1021 C1025 1.429 . S
C1022 C1005 1.574 . S
C1022 H1016 0.949 . S
C1022 C1026 1.368 . S
C1023 C1004 1.429 . S
C1023 C1017 1.429 . S
C1023 C1024 1.523 . S
C1024 C1005 1.368 . S
C1024 C1018 1.368 . S
C1024 C1023 1.523 . S
C1025 C1009 1.429 . S
C1025 C1021 1.429 . S
C1025 C1026 1.523 . S
C1026 C1010 1.368 . S
C1026 C1022 1.368 . S
C1026 C1025 1.523 . S
H1027 C1002 0.950 . S
H1028 C1004 0.950 . S
H1029 C1005 0.949 . S
H1030 C1007 0.950 . S
H1031 C1009 0.950 . S
C1032 C1033 1.349 . S
C1032 C1034 1.327 . S
C1032 H1057 0.950 . S
C1033 C1032 1.349 . S
C1033 C1049 1.349 . S
C1034 C1032 1.327 . S
C1034 C1053 1.429 . S
C1034 H1058 0.950 . S
C1035 C1052 1.574 1_545 S
C1035 C1054 1.368 . S
C1035 H1059 0.949 . S
H1036 C1040 0.949 . S
C1037 C1038 1.349 . S
C1037 C1039 1.327 . S
C1037 H1060 0.950 . S
C1038 C1037 1.349 . S
C1038 C1050 1.349 . S
C1039 C1037 1.327 . S
C1039 C1055 1.429 . S
C1039 H1061 0.950 . S
C1040 H1036 0.949 . S
C1040 C1048 1.574 1_565 S
C1040 C1056 1.368 . S
H1041 C1049 0.950 . S
H1042 C1047 0.950 . S
H1043 C1048 0.949 . S
H1044 C1050 0.950 . S
H1045 C1051 0.950 . S
H1046 C1052 0.949 . S
C1047 H1042 0.950 . S
C1047 C1049 1.327 . S
C1047 C1053 1.429 . S
C1048 C1040 1.574 1_545 S
C1048 H1043 0.949 . S
C1048 C1054 1.368 . S
C1049 C1033 1.349 . S
C1049 H1041 0.950 . S
C1049 C1047 1.327 . S
C1050 C1038 1.349 . S
C1050 H1044 0.950 . S
C1050 C1051 1.327 . S
C1051 H1045 0.950 . S
C1051 C1050 1.327 . S
C1051 C1055 1.429 . S
C1052 C1035 1.574 1_565 S
C1052 H1046 0.949 . S
C1052 C1056 1.368 . S
C1053 C1034 1.429 . S
C1053 C1047 1.429 . S
C1053 C1054 1.523 . S
C1054 C1035 1.368 . S
C1054 C1048 1.368 . S
C1054 C1053 1.523 . S
C1055 C1039 1.429 . S
C1055 C1051 1.429 . S
C1055 C1056 1.523 . S
C1056 C1040 1.368 . S
C1056 C1052 1.368 . S
C1056 C1055 1.523 . S
H1057 C1032 0.950 . S
H1058 C1034 0.950 . S
H1059 C1035 0.949 . S
H1060 C1037 0.950 . S
H1061 C1039 0.950 . S
C1062 C1063 1.349 . S
C1062 C1064 1.327 . S
C1062 H1087 0.950 . S
C1063 C1062 1.349 . S
C1063 C1079 1.349 . S
C1064 C1062 1.327 . S
C1064 C1083 1.429 . S
C1064 H1088 0.950 . S
C1065 C1082 1.574 . S
C1065 C1084 1.368 . S
C1065 H1089 0.949 . S
H1066 C1070 0.949 . S
C1067 C1068 1.349 . S
C1067 C1069 1.327 . S
C1067 H1090 0.950 . S
C1068 C1067 1.349 . S
C1068 C1080 1.349 . S
C1069 C1067 1.327 . S
C1069 C1085 1.429 . S
C1069 H1091 0.950 . S
C1070 H1066 0.949 . S
C1070 C1078 1.574 . S
C1070 C1086 1.368 . S
H1071 C1079 0.950 . S
H1072 C1077 0.950 . S
H1073 C1078 0.949 . S
H1074 C1080 0.950 . S
H1075 C1081 0.950 . S
H1076 C1082 0.949 . S
C1077 H1072 0.950 . S
C1077 C1079 1.327 . S
C1077 C1083 1.429 . S
C1078 C1070 1.574 . S
C1078 H1073 0.949 . S
C1078 C1084 1.368 . S
C1079 C1063 1.349 . S
C1079 H1071 0.950 . S
C1079 C1077 1.327 . S
C1080 C1068 1.349 . S
C1080 H1074 0.950 . S
C1080 C1081 1.327 . S
C1081 H1075 0.950 . S
C1081 C1080 1.327 . S
C1081 C1085 1.429 . S
C1082 C1065 1.574 . S
C1082 H1076 0.949 . S
C1082 C1086 1.368 . S
C1083 C1064 1.429 . S
C1083 C1077 1.429 . S
C1083 C1084 1.523 . S
C1084 C1065 1.368 . S
C1084 C1078 1.368 . S
C1084 C1083 1.523 . S
C1085 C1069 1.429 . S
C1085 C1081 1.429 . S
C1085 C1086 1.523 . S
C1086 C1070 1.368 . S
C1086 C1082 1.368 . S
C1086 C1085 1.523 . S
H1087 C1062 0.950 . S
H1088 C1064 0.950 . S
H1089 C1065 0.949 . S
H1090 C1067 0.950 . S
H1091 C1069 0.950 . S
C1092 C1093 1.349 . S
C1092 C1094 1.327 . S
C1092 H1117 0.950 . S
C1093 C1092 1.349 . S
C1093 C1109 1.349 . S
C1094 C1092 1.327 . S
C1094 C1113 1.429 . S
C1094 H1118 0.950 . S
C1095 C1112 1.574 1_545 S
C1095 C1114 1.368 . S
C1095 H1119 0.949 . S
H1096 C1100 0.949 . S
C1097 C1098 1.349 . S
C1097 C1099 1.327 . S
C1097 H1120 0.950 . S
C1098 C1097 1.349 . S
C1098 C1110 1.349 . S
C1099 C1097 1.327 . S
C1099 C1115 1.429 . S
C1099 H1121 0.950 . S
C1100 H1096 0.949 . S
C1100 C1108 1.574 1_565 S
C1100 C1116 1.368 . S
H1101 C1109 0.950 . S
H1102 C1107 0.950 . S
H1103 C1108 0.949 . S
H1104 C1110 0.950 . S
H1105 C1111 0.950 . S
H1106 C1112 0.949 . S
C1107 H1102 0.950 . S
C1107 C1109 1.327 . S
C1107 C1113 1.429 . S
C1108 C1100 1.574 1_545 S
C1108 H1103 0.949 . S
C1108 C1114 1.368 . S
C1109 C1093 1.349 . S
C1109 H1101 0.950 . S
C1109 C1107 1.327 . S
C1110 C1098 1.349 . S
C1110 H1104 0.950 . S
C1110 C1111 1.327 . S
C1111 H1105 0.950 . S
C1111 C1110 1.327 . S
C1111 C1115 1.429 . S
C1112 C1095 1.574 1_565 S
C1112 H1106 0.949 . S
C1112 C1116 1.368 . S
C1113 C1094 1.429 . S
C1113 C1107 1.429 . S
C1113 C1114 1.523 . S
C1114 C1095 1.368 . S
C1114 C1108 1.368 . S
C1114 C1113 1.523 . S
C1115 C1099 1.429 . S
C1115 C1111 1.429 . S
C1115 C1116 1.523 . S
C1116 C1100 1.368 . S
C1116 C1112 1.368 . S
C1116 C1115 1.523 . S
H1117 C1092 0.950 . S
H1118 C1094 0.950 . S
H1119 C1095 0.949 . S
H1120 C1097 0.950 . S
H1121 C1099 0.950 . S
C1122 C1123 1.349 . S
C1122 C1124 1.327 . S
C1122 H1147 0.950 . S
C1123 C1122 1.349 . S
C1123 C1139 1.349 . S
C1124 C1122 1.327 . S
C1124 C1143 1.429 . S
C1124 H1148 0.950 . S
C1125 C1142 1.574 . S
C1125 C1144 1.368 . S
C1125 H1149 0.949 . S
H1126 C1130 0.949 . S
C1127 C1128 1.349 . S
C1127 C1129 1.327 . S
C1127 H1150 0.950 . S
C1128 C1127 1.349 . S
C1128 C1140 1.349 . S
C1129 C1127 1.327 . S
C1129 C1145 1.429 . S
C1129 H1151 0.950 . S
C1130 H1126 0.949 . S
C1130 C1138 1.574 . S
C1130 C1146 1.368 . S
H1131 C1139 0.950 . S
H1132 C1137 0.950 . S
H1133 C1138 0.949 . S
H1134 C1140 0.950 . S
H1135 C1141 0.950 . S
H1136 C1142 0.949 . S
C1137 H1132 0.950 . S
C1137 C1139 1.327 . S
C1137 C1143 1.429 . S
C1138 C1130 1.574 . S
C1138 H1133 0.949 . S
C1138 C1144 1.368 . S
C1139 C1123 1.349 . S
C1139 H1131 0.950 . S
C1139 C1137 1.327 . S
C1140 C1128 1.349 . S
C1140 H1134 0.950 . S
C1140 C1141 1.327 . S
C1141 H1135 0.950 . S
C1141 C1140 1.327 . S
C1141 C1145 1.429 . S
C1142 C1125 1.574 . S
C1142 H1136 0.949 . S
C1142 C1146 1.368 . S
C1143 C1124 1.429 . S
C1143 C1137 1.429 . S
C1143 C1144 1.523 . S
C1144 C1125 1.368 . S
C1144 C1138 1.368 . S
C1144 C1143 1.523 . S
C1145 C1129 1.429 . S
C1145 C1141 1.429 . S
C1145 C1146 1.523 . S
C1146 C1130 1.368 . S
C1146 C1142 1.368 . S
C1146 C1145 1.523 . S
H1147 C1122 0.950 . S
H1148 C1124 0.950 . S
H1149 C1125 0.949 . S
H1150 C1127 0.950 . S
H1151 C1129 0.950 . S
C1152 C1153 1.349 . S
C1152 C1154 1.327 . S
C1152 H1177 0.950 . S
C1153 C1152 1.349 . S
C1153 C1169 1.349 . S
C1154 C1152 1.327 . S
C1154 C1173 1.429 . S
C1154 H1178 0.950 . S
C1155 C1172 1.574 1_554 S
C1155 C1174 1.368 . S
C1155 H1179 0.949 . S
H1156 C1160 0.949 . S
C1157 C1158 1.349 . S
C1157 C1159 1.327 . S
C1157 H1180 0.950 . S
C1158 C1157 1.349 . S
C1158 C1170 1.349 . S
C1159 C1157 1.327 . S
C1159 C1175 1.429 . S
C1159 H1181 0.950 . S
C1160 H1156 0.949 . S
C1160 C1168 1.574 1_556 S
C1160 C1176 1.368 . S
H1161 C1169 0.950 . S
H1162 C1167 0.950 . S
H1163 C1168 0.949 . S
H1164 C1170 0.950 . S
H1165 C1171 0.950 . S
H1166 C1172 0.949 . S
C1167 H1162 0.950 . S
C1167 C1169 1.327 . S
C1167 C1173 1.429 . S
C1168 C1160 1.574 1_554 S
C1168 H1163 0.949 . S
C1168 C1174 1.368 . S
C1169 C1153 1.349 . S
C1169 H1161 0.950 . S
C1169 C1167 1.327 . S
C1170 C1158 1.349 . S
C1170 H1164 0.950 . S
C1170 C1171 1.327 . S
C1171 H1165 0.950 . S
C1171 C1170 1.327 . S
C1171 C1175 1.429 . S
C1172 C1155 1.574 1_556 S
C1172 H1166 0.949 . S
C1172 C1176 1.368 . S
C1173 C1154 1.429 . S
C1173 C1167 1.429 . S
C1173 C1174 1.523 . S
C1174 C1155 1.368 . S
C1174 C1168 1.368 . S
C1174 C1173 1.523 . S
C1175 C1159 1.429 . S
C1175 C1171 1.429 . S
C1175 C1176 1.523 . S
C1176 C1160 1.368 . S
C1176 C1172 1.368 . S
C1176 C1175 1.523 . S
H1177 C1152 0.950 . S
H1178 C1154 0.950 . S
H1179 C1155 0.949 . S
H1180 C1157 0.950 . S
H1181 C1159 0.950 . S
C1182 C1183 1.349 . S
C1182 C1184 1.327 . S
C1182 H1207 0.950 . S
C1183 C1182 1.349 . S
C1183 C1199 1.349 . S
C1184 C1182 1.327 . S
C1184 C1203 1.429 . S
C1184 H1208 0.950 . S
C1185 C1202 1.574 1_554 S
C1185 C1204 1.368 . S
C1185 H1209 0.949 . S
H1186 C1190 0.949 . S
C1187 C1188 1.349 . S
C1187 C1189 1.327 . S
C1187 H1210 0.950 . S
C1188 C1187 1.349 . S
C1188 C1200 1.349 . S
C1189 C1187 1.327 . S
C1189 C1205 1.429 . S
C1189 H1211 0.950 . S
C1190 H1186 0.949 . S
C1190 C1198 1.574 1_556 S
C1190 C1206 1.368 . S
H1191 C1199 0.950 . S
H1192 C1197 0.950 . S
H1193 C1198 0.949 . S
H1194 C1200 0.950 . S
H1195 C1201 0.950 . S
H1196 C1202 0.949 . S
C1197 H1192 0.950 . S
C1197 C1199 1.327 . S
C1197 C1203 1.429 . S
C1198 C1190 1.574 1_554 S
C1198 H1193 0.949 . S
C1198 C1204 1.368 . S
C1199 C1183 1.349 . S
C1199 H1191 0.950 . S
C1199 C1197 1.327 . S
C1200 C1188 1.349 . S
C1200 H1194 0.950 . S
C1200 C1201 1.327 . S
C1201 H1195 0.950 . S
C1201 C1200 1.327 . S
C1201 C1205 1.429 . S
C1202 C1185 1.574 1_556 S
C1202 H1196 0.949 . S
C1202 C1206 1.368 . S
C1203 C1184 1.429 . S
C1203 C1197 1.429 . S
C1203 C1204 1.523 . S
C1204 C1185 1.368 . S
C1204 C1198 1.368 . S
C1204 C1203 1.523 . S
C1205 C1189 1.429 . S
C1205 C1201 1.429 . S
C1205 C1206 1.523 . S
C1206 C1190 1.368 . S
C1206 C1202 1.368 . S
C1206 C1205 1.523 . S
H1207 C1182 0.950 . S
H1208 C1184 0.950 . S
H1209 C1185 0.949 . S
H1210 C1187 0.950 . S
H1211 C1189 0.950 . S
C1212 C1213 1.349 . S
C1212 C1214 1.327 . S
C1212 H1237 0.950 . S
C1213 C1212 1.349 . S
C1213 C1229 1.349 . S
C1214 C1212 1.327 . S
C1214 C1233 1.429 . S
C1214 H1238 0.950 . S
C1215 C1232 1.574 . S
C1215 C1234 1.368 . S
C1215 H1239 0.949 . S
H1216 C1220 0.949 . S
C1217 C1218 1.349 . S
C1217 C1219 1.327 . S
C1217 H1240 0.950 . S
C1218 C1217 1.349 . S
C1218 C1230 1.349 . S
C1219 C1217 1.327 . S
C1219 C1235 1.429 . S
C1219 H1241 0.950 . S
C1220 H1216 0.949 . S
C1220 C1228 1.574 . S
C1220 C1236 1.368 . S
H1221 C1229 0.950 . S
H1222 C1227 0.950 . S
H1223 C1228 0.949 . S
H1224 C1230 0.950 . S
H1225 C1231 0.950 . S
H1226 C1232 0.949 . S
C1227 H1222 0.950 . S
C1227 C1229 1.327 . S
C1227 C1233 1.429 . S
C1228 C1220 1.574 . S
C1228 H1223 0.949 . S
C1228 C1234 1.368 . S
C1229 C1213 1.349 . S
C1229 H1221 0.950 . S
C1229 C1227 1.327 . S
C1230 C1218 1.349 . S
C1230 H1224 0.950 . S
C1230 C1231 1.327 . S
C1231 H1225 0.950 . S
C1231 C1230 1.327 . S
C1231 C1235 1.429 . S
C1232 C1215 1.574 . S
C1232 H1226 0.949 . S
C1232 C1236 1.368 . S
C1233 C1214 1.429 . S
C1233 C1227 1.429 . S
C1233 C1234 1.523 . S
C1234 C1215 1.368 . S
C1234 C1228 1.368 . S
C1234 C1233 1.523 . S
C1235 C1219 1.429 . S
C1235 C1231 1.429 . S
C1235 C1236 1.523 . S
C1236 C1220 1.368 . S
C1236 C1232 1.368 . S
C1236 C1235 1.523 . S
H1237 C1212 0.950 . S
H1238 C1214 0.950 . S
H1239 C1215 0.949 . S
H1240 C1217 0.950 . S
H1241 C1219 0.950 . S
C1242 C1243 1.349 . S
C1242 C1244 1.327 . S
C1242 H1267 0.950 . S
C1243 C1242 1.349 . S
C1243 C1259 1.349 . S
C1244 C1242 1.327 . S
C1244 C1263 1.429 . S
C1244 H1268 0.950 . S
C1245 C1262 1.574 1_554 S
C1245 C1264 1.368 . S
C1245 H1269 0.949 . S
H1246 C1250 0.949 . S
C1247 C1248 1.349 . S
C1247 C1249 1.327 . S
C1247 H1270 0.950 . S
C1248 C1247 1.349 . S
C1248 C1260 1.349 . S
C1249 C1247 1.327 . S
C1249 C1265 1.429 . S
C1249 H1271 0.950 . S
C1250 H1246 0.949 . S
C1250 C1258 1.574 1_556 S
C1250 C1266 1.368 . S
H1251 C1259 0.950 . S
H1252 C1257 0.950 . S
H1253 C1258 0.949 . S
H1254 C1260 0.950 . S
H1255 C1261 0.950 . S
H1256 C1262 0.949 . S
C1257 H1252 0.950 . S
C1257 C1259 1.327 . S
C1257 C1263 1.429 . S
C1258 C1250 1.574 1_554 S
C1258 H1253 0.949 . S
C1258 C1264 1.368 . S
C1259 C1243 1.349 . S
C1259 H1251 0.950 . S
C1259 C1257 1.327 . S
C1260 C1248 1.349 . S
C1260 H1254 0.950 . S
C1260 C1261 1.327 . S
C1261 H1255 0.950 . S
C1261 C1260 1.327 . S
C1261 C1265 1.429 . S
C1262 C1245 1.574 1_556 S
C1262 H1256 0.949 . S
C1262 C1266 1.368 . S
C1263 C1244 1.429 . S
C1263 C1257 1.429 . S
C1263 C1264 1.523 . S
C1264 C1245 1.368 . S
C1264 C1258 1.368 . S
C1264 C1263 1.523 . S
C1265 C1249 1.429 . S
C1265 C1261 1.429 . S
C1265 C1266 1.523 . S
C1266 C1250 1.368 . S
C1266 C1262 1.368 . S
C1266 C1265 1.523 . S
H1267 C1242 0.950 . S
H1268 C1244 0.950 . S
H1269 C1245 0.949 . S
H1270 C1247 0.950 . S
H1271 C1249 0.950 . S
C1272 C1273 1.349 . S
C1272 C1274 1.327 . S
C1272 H1297 0.950 . S
C1273 C1272 1.349 . S
C1273 C1289 1.349 . S
C1274 C1272 1.327 . S
C1274 C1293 1.429 . S
C1274 H1298 0.950 . S
C1275 C1292 1.574 . S
C1275 C1294 1.368 . S
C1275 H1299 0.949 . S
H1276 C1280 0.949 . S
C1277 C1278 1.349 . S
C1277 C1279 1.327 . S
C1277 H1300 0.950 . S
C1278 C1277 1.349 . S
C1278 C1290 1.349 . S
C1279 C1277 1.327 . S
C1279 C1295 1.429 . S
C1279 H1301 0.950 . S
C1280 H1276 0.949 . S
C1280 C1288 1.574 . S
C1280 C1296 1.368 . S
H1281 C1289 0.950 . S
H1282 C1287 0.950 . S
H1283 C1288 0.949 . S
H1284 C1290 0.950 . S
H1285 C1291 0.950 . S
H1286 C1292 0.949 . S
C1287 H1282 0.950 . S
C1287 C1289 1.327 . S
C1287 C1293 1.429 . S
C1288 C1280 1.574 . S
C1288 H1283 0.949 . S
C1288 C1294 1.368 . S
C1289 C1273 1.349 . S
C1289 H1281 0.950 . S
C1289 C1287 1.327 . S
C1290 C1278 1.349 . S
C1290 H1284 0.950 . S
C1290 C1291 1.327 . S
C1291 H1285 0.950 . S
C1291 C1290 1.327 . S
C1291 C1295 1.429 . S
C1292 C1275 1.574 . S
C1292 H1286 0.949 . S
C1292 C1296 1.368 . S
C1293 C1274 1.429 . S
C1293 C1287 1.429 . S
C1293 C1294 1.523 . S
C1294 C1275 1.368 . S
C1294 C1288 1.368 . S
C1294 C1293 1.523 . S
C1295 C1279 1.429 . S
C1295 C1291 1.429 . S
C1295 C1296 1.523 . S
C1296 C1280 1.368 . S
C1296 C1292 1.368 . S
C1296 C1295 1.523 . S
H1297 C1272 0.950 . S
H1298 C1274 0.950 . S
H1299 C1275 0.949 . S
H1300 C1277 0.950 . S
H1301 C1279 0.950 . S
C1302 C1303 1.349 . S
C1302 C1304 1.327 . S
C1302 H1327 0.950 . S
C1303 C1302 1.349 . S
C1303 C1319 1.349 . S
C1304 C1302 1.327 . S
C1304 C1323 1.429 . S
C1304 H1328 0.950 . S
C1305 C1322 1.574 1_554 S
C1305 C1324 1.368 . S
C1305 H1329 0.949 . S
H1306 C1310 0.949 . S
C1307 C1308 1.349 . S
C1307 C1309 1.327 . S
C1307 H1330 0.950 . S
C1308 C1307 1.349 . S
C1308 C1320 1.349 . S
C1309 C1307 1.327 . S
C1309 C1325 1.429 . S
C1309 H1331 0.950 . S
C1310 H1306 0.949 . S
C1310 C1318 1.574 1_556 S
C1310 C1326 1.368 . S
H1311 C1319 0.950 . S
H1312 C1317 0.950 . S
H1313 C1318 0.949 . S
H1314 C1320 0.950 . S
H1315 C1321 0.950 . S
H1316 C1322 0.949 . S
C1317 H1312 0.950 . S
C1317 C1319 1.327 . S
C1317 C1323 1.429 . S
C1318 C1310 1.574 1_554 S
C1318 H1313 0.949 . S
C1318 C1324 1.368 . S
C1319 C1303 1.349 . S
C1319 H1311 0.950 . S
C1319 C1317 1.327 . S
C1320 C1308 1.349 . S
C1320 H1314 0.950 . S
C1320 C1321 1.327 . S
C1321 H1315 0.950 . S
C1321 C1320 1.327 . S
C1321 C1325 1.429 . S
C1322 C1305 1.574 1_556 S
C1322 H1316 0.949 . S
C1322 C1326 1.368 . S
C1323 C1304 1.429 . S
C1323 C1317 1.429 . S
C1323 C1324 1.523 . S
C1324 C1305 1.368 . S
C1324 C1318 1.368 . S
C1324 C1323 1.523 . S
C1325 C1309 1.429 . S
C1325 C1321 1.429 . S
C1325 C1326 1.523 . S
C1326 C1310 1.368 . S
C1326 C1322 1.368 . S
C1326 C1325 1.523 . S
H1327 C1302 0.950 . S
H1328 C1304 0.950 . S
H1329 C1305 0.949 . S
H1330 C1307 0.950 . S
H1331 C1309 0.950 . S
C1332 C1333 1.349 . S
C1332 C1334 1.327 . S
C1332 H1357 0.950 . S
C1333 C1332 1.349 . S
C1333 C1349 1.349 . S
C1334 C1332 1.327 . S
C1334 C1353 1.429 . S
C1334 H1358 0.950 . S
C1335 C1352 1.574 . S
C1335 C1354 1.368 . S
C1335 H1359 0.949 . S
H1336 C1340 0.949 . S
C1337 C1338 1.349 . S
C1337 C1339 1.327 . S
C1337 H1360 0.950 . S
C1338 C1337 1.349 . S
C1338 C1350 1.349 . S
C1339 C1337 1.327 . S
C1339 C1355 1.429 . S
C1339 H1361 0.950 . S
C1340 H1336 0.949 . S
C1340 C1348 1.574 . S
C1340 C1356 1.368 . S
H1341 C1349 0.950 . S
H1342 C1347 0.950 . S
H1343 C1348 0.949 . S
H1344 C1350 0.950 . S
H1345 C1351 0.950 . S
H1346 C1352 0.949 . S
C1347 H1342 0.950 . S
C1347 C1349 1.327 . S
C1347 C1353 1.429 . S
C1348 C1340 1.574 . S
C1348 H1343 0.949 . S
C1348 C1354 1.368 . S
C1349 C1333 1.349 . S
C1349 H1341 0.950 . S
C1349 C1347 1.327 . S
C1350 C1338 1.349 . S
C1350 H1344 0.950 . S
C1350 C1351 1.327 . S
C1351 H1345 0.950 . S
C1351 C1350 1.327 . S
C1351 C1355 1.429 . S
C1352 C1335 1.574 . S
C1352 H1346 0.949 . S
C1352 C1356 1.368 . S
C1353 C1334 1.429 . S
C1353 C1347 1.429 . S
C1353 C1354 1.523 . S
C1354 C1335 1.368 . S
C1354 C1348 1.368 . S
C1354 C1353 1.523 . S
C1355 C1339 1.429 . S
C1355 C1351 1.429 . S
C1355 C1356 1.523 . S
C1356 C1340 1.368 . S
C1356 C1352 1.368 . S
C1356 C1355 1.523 . S
H1357 C1332 0.950 . S
H1358 C1334 0.950 . S
H1359 C1335 0.949 . S
H1360 C1337 0.950 . S
H1361 C1339 0.950 . S
C1362 C1363 1.349 . S
C1362 C1364 1.327 . S
C1362 H1387 0.950 . S
C1363 C1362 1.349 . S
C1363 C1379 1.349 . S
C1364 C1362 1.327 . S
C1364 C1383 1.429 . S
C1364 H1388 0.950 . S
C1365 C1382 1.574 . S
C1365 C1384 1.368 . S
C1365 H1389 0.949 . S
H1366 C1370 0.949 . S
C1367 C1368 1.349 . S
C1367 C1369 1.327 . S
C1367 H1390 0.950 . S
C1368 C1367 1.349 . S
C1368 C1380 1.349 . S
C1369 C1367 1.327 . S
C1369 C1385 1.429 . S
C1369 H1391 0.950 . S
C1370 H1366 0.949 . S
C1370 C1378 1.574 . S
C1370 C1386 1.368 . S
H1371 C1379 0.950 . S
H1372 C1377 0.950 . S
H1373 C1378 0.949 . S
H1374 C1380 0.950 . S
H1375 C1381 0.950 . S
H1376 C1382 0.949 . S
C1377 H1372 0.950 . S
C1377 C1379 1.327 . S
C1377 C1383 1.429 . S
C1378 C1370 1.574 . S
C1378 H1373 0.949 . S
C1378 C1384 1.368 . S
C1379 C1363 1.349 . S
C1379 H1371 0.950 . S
C1379 C1377 1.327 . S
C1380 C1368 1.349 . S
C1380 H1374 0.950 . S
C1380 C1381 1.327 . S
C1381 H1375 0.950 . S
C1381 C1380 1.327 . S
C1381 C1385 1.429 . S
C1382 C1365 1.574 . S
C1382 H1376 0.949 . S
C1382 C1386 1.368 . S
C1383 C1364 1.429 . S
C1383 C1377 1.429 . S
C1383 C1384 1.523 . S
C1384 C1365 1.368 . S
C1384 C1378 1.368 . S
C1384 C1383 1.523 . S
C1385 C1369 1.429 . S
C1385 C1381 1.429 . S
C1385 C1386 1.523 . S
C1386 C1370 1.368 . S
C1386 C1382 1.368 . S
C1386 C1385 1.523 . S
H1387 C1362 0.950 . S
H1388 C1364 0.950 . S
H1389 C1365 0.949 . S
H1390 C1367 0.950 . S
H1391 C1369 0.950 . S
C1392 C1393 1.349 . S
C1392 C1394 1.327 . S
C1392 H1417 0.950 . S
C1393 C1392 1.349 . S
C1393 C1409 1.349 . S
C1394 C1392 1.327 . S
C1394 C1413 1.429 . S
C1394 H1418 0.950 . S
C1395 C1412 1.574 . S
C1395 C1414 1.368 . S
C1395 H1419 0.949 . S
H1396 C1400 0.949 . S
C1397 C1398 1.349 . S
C1397 C1399 1.327 . S
C1397 H1420 0.950 . S
C1398 C1397 1.349 . S
C1398 C1410 1.349 . S
C1399 C1397 1.327 . S
C1399 C1415 1.429 . S
C1399 H1421 0.950 . S
C1400 H1396 0.949 . S
C1400 C1408 1.574 . S
C1400 C1416 1.368 . S
H1401 C1409 0.950 . S
H1402 C1407 0.950 . S
H1403 C1408 0.949 . S
H1404 C1410 0.950 . S
H1405 C1411 0.950 . S
H1406 C1412 0.949 . S
C1407 H1402 0.950 . S
C1407 C1409 1.327 . S
C1407 C1413 1.429 . S
C1408 C1400 1.574 . S
C1408 H1403 0.949 . S
C1408 C1414 1.368 . S
C1409 C1393 1.349 . S
C1409 H1401 0.950 . S
C1409 C1407 1.327 . S
C1410 C1398 1.349 . S
C1410 H1404 0.950 . S
C1410 C1411 1.327 . S
C1411 H1405 0.950 . S
C1411 C1410 1.327 . S
C1411 C1415 1.429 . S
C1412 C1395 1.574 . S
C1412 H1406 0.949 . S
C1412 C1416 1.368 . S
C1413 C1394 1.429 . S
C1413 C1407 1.429 . S
C1413 C1414 1.523 . S
C1414 C1395 1.368 . S
C1414 C1408 1.368 . S
C1414 C1413 1.523 . S
C1415 C1399 1.429 . S
C1415 C1411 1.429 . S
C1415 C1416 1.523 . S
C1416 C1400 1.368 . S
C1416 C1412 1.368 . S
C1416 C1415 1.523 . S
H1417 C1392 0.950 . S
H1418 C1394 0.950 . S
H1419 C1395 0.949 . S
H1420 C1397 0.950 . S
H1421 C1399 0.950 . S
C1422 C1423 1.349 . S
C1422 C1424 1.327 . S
C1422 H1447 0.950 . S
C1423 C1422 1.349 . S
C1423 C1439 1.349 . S
C1424 C1422 1.327 . S
C1424 C1443 1.429 . S
C1424 H1448 0.950 . S
C1425 C1442 1.574 . S
C1425 C1444 1.368 . S
C1425 H1449 0.949 . S
H1426 C1430 0.949 . S
C1427 C1428 1.349 . S
C1427 C1429 1.327 . S
C1427 H1450 0.950 . S
C1428 C1427 1.349 . S
C1428 C1440 1.349 . S
C1429 C1427 1.327 . S
C1429 C1445 1.429 . S
C1429 H1451 0.950 . S
C1430 H1426 0.949 . S
C1430 C1438 1.574 . S
C1430 C1446 1.368 . S
H1431 C1439 0.950 . S
H1432 C1437 0.950 . S
H1433 C1438 0.949 . S
H1434 C1440 0.950 . S
H1435 C1441 0.950 . S
H1436 C1442 0.949 . S
C1437 H1432 0.950 . S
C1437 C1439 1.327 . S
C1437 C1443 1.429 . S
C1438 C1430 1.574 . S
C1438 H1433 0.949 . S
C1438 C1444 1.368 . S
C1439 C1423 1.349 . S
C1439 H1431 0.950 . S
C1439 C1437 1.327 . S
C1440 C1428 1.349 . S
C1440 H1434 0.950 . S
C1440 C1441 1.327 . S
C1441 H1435 0.950 . S
C1441 C1440 1.327 . S
C1441 C1445 1.429 . S
C1442 C1425 1.574 . S
C1442 H1436 0.949 . S
C1442 C1446 1.368 . S
C1443 C1424 1.429 . S
C1443 C1437 1.429 . S
C1443 C1444 1.523 . S
C1444 C1425 1.368 . S
C1444 C1438 1.368 . S
C1444 C1443 1.523 . S
C1445 C1429 1.429 . S
C1445 C1441 1.429 . S
C1445 C1446 1.523 . S
C1446 C1430 1.368 . S
C1446 C1442 1.368 . S
C1446 C1445 1.523 . S
H1447 C1422 0.950 . S
H1448 C1424 0.950 . S
H1449 C1425 0.949 . S
H1450 C1427 0.950 . S
H1451 C1429 0.950 . S
C1452 C1453 1.349 . S
C1452 C1454 1.327 . S
C1452 H1477 0.950 . S
C1453 C1452 1.349 . S
C1453 C1469 1.349 . S
C1454 C1452 1.327 . S
C1454 C1473 1.429 . S
C1454 H1478 0.950 . S
C1455 C1472 1.574 . S
C1455 C1474 1.368 . S
C1455 H1479 0.949 . S
H1456 C1460 0.949 . S
C1457 C1458 1.349 . S
C1457 C1459 1.327 . S
C1457 H1480 0.950 . S
C1458 C1457 1.349 . S
C1458 C1470 1.349 . S
C1459 C1457 1.327 . S
C1459 C1475 1.429 . S
C1459 H1481 0.950 . S
C1460 H1456 0.949 . S
C1460 C1468 1.574 . S
C1460 C1476 1.368 . S
H1461 C1469 0.950 . S
H1462 C1467 0.950 . S
H1463 C1468 0.949 . S
H1464 C1470 0.950 . S
H1465 C1471 0.950 . S
H1466 C1472 0.949 . S
C1467 H1462 0.950 . S
C1467 C1469 1.327 . S
C1467 C1473 1.429 . S
C1468 C1460 1.574 . S
C1468 H1463 0.949 . S
C1468 C1474 1.368 . S
C1469 C1453 1.349 . S
C1469 H1461 0.950 . S
C1469 C1467 1.327 . S
C1470 C1458 1.349 . S
C1470 H1464 0.950 . S
C1470 C1471 1.327 . S
C1471 H1465 0.950 . S
C1471 C1470 1.327 . S
C1471 C1475 1.429 . S
C1472 C1455 1.574 . S
C1472 H1466 0.949 . S
C1472 C1476 1.368 . S
C1473 C1454 1.429 . S
C1473 C1467 1.429 . S
C1473 C1474 1.523 . S
C1474 C1455 1.368 . S
C1474 C1468 1.368 . S
C1474 C1473 1.523 . S
C1475 C1459 1.429 . S
C1475 C1471 1.429 . S
C1475 C1476 1.523 . S
C1476 C1460 1.368 . S
C1476 C1472 1.368 . S
C1476 C1475 1.523 . S
H1477 C1452 0.950 . S
H1478 C1454 0.950 . S
H1479 C1455 0.949 . S
H1480 C1457 0.950 . S
H1481 C1459 0.950 . S
C1482 C1483 1.349 . S
C1482 C1484 1.327 . S
C1482 H1507 0.950 . S
C1483 C1482 1.349 . S
C1483 C1499 1.349 . S
C1484 C1482 1.327 . S
C1484 C1503 1.429 . S
C1484 H1508 0.950 . S
C1485 C1502 1.574 . S
C1485 C1504 1.368 . S
C1485 H1509 0.949 . S
H1486 C1490 0.949 . S
C1487 C1488 1.349 . S
C1487 C1489 1.327 . S
C1487 H1510 0.950 . S
C1488 C1487 1.349 . S
C1488 C1500 1.349 . S
C1489 C1487 1.327 . S
C1489 C1505 1.429 . S
C1489 H1511 0.950 . S
C1490 H1486 0.949 . S
C1490 C1498 1.574 . S
C1490 C1506 1.368 . S
H1491 C1499 0.950 . S
H1492 C1497 0.950 . S
H1493 C1498 0.949 . S
H1494 C1500 0.950 . S
H1495 C1501 0.950 . S
H1496 C1502 0.949 . S
C1497 H1492 0.950 . S
C1497 C1499 1.327 . S
C1497 C1503 1.429 . S
C1498 C1490 1.574 . S
C1498 H1493 0.949 . S
C1498 C1504 1.368 . S
C1499 C1483 1.349 . S
C1499 H1491 0.950 . S
C1499 C1497 1.327 . S
C1500 C1488 1.349 . S
C1500 H1494 0.950 . S
C1500 C1501 1.327 . S
C1501 H1495 0.950 . S
C1501 C1500 1.327 . S
C1501 C1505 1.429 . S
C1502 C1485 1.574 . S
C1502 H1496 0.949 . S
C1502 C1506 1.368 . S
C1503 C1484 1.429 . S
C1503 C1497 1.429 . S
C1503 C1504 1.523 . S
C1504 C1485 1.368 . S
C1504 C1498 1.368 . S
C1504 C1503 1.523 . S
C1505 C1489 1.429 . S
C1505 C1501 1.429 . S
C1505 C1506 1.523 . S
C1506 C1490 1.368 . S
C1506 C1502 1.368 . S
C1506 C1505 1.523 . S
H1507 C1482 0.950 . S
H1508 C1484 0.950 . S
H1509 C1485 0.949 . S
H1510 C1487 0.950 . S
H1511 C1489 0.950 . S
C1512 C1513 1.349 . S
C1512 C1514 1.327 . S
C1512 H1537 0.950 . S
C1513 C1512 1.349 . S
C1513 C1529 1.349 . S
C1514 C1512 1.327 . S
C1514 C1533 1.429 . S
C1514 H1538 0.950 . S
C1515 C1532 1.574 . S
C1515 C1534 1.368 . S
C1515 H1539 0.949 . S
H1516 C1520 0.949 . S
C1517 C1518 1.349 . S
C1517 C1519 1.327 . S
C1517 H1540 0.950 . S
C1518 C1517 1.349 . S
C1518 C1530 1.349 . S
C1519 C1517 1.327 . S
C1519 C1535 1.429 . S
C1519 H1541 0.950 . S
C1520 H1516 0.949 . S
C1520 C1528 1.574 . S
C1520 C1536 1.368 . S
H1521 C1529 0.950 . S
H1522 C1527 0.950 . S
H1523 C1528 0.949 . S
H1524 C1530 0.950 . S
H1525 C1531 0.950 . S
H1526 C1532 0.949 . S
C1527 H1522 0.950 . S
C1527 C1529 1.327 . S
C1527 C1533 1.429 . S
C1528 C1520 1.574 . S
C1528 H1523 0.949 . S
C1528 C1534 1.368 . S
C1529 C1513 1.349 . S
C1529 H1521 0.950 . S
C1529 C1527 1.327 . S
C1530 C1518 1.349 . S
C1530 H1524 0.950 . S
C1530 C1531 1.327 . S
C1531 H1525 0.950 . S
C1531 C1530 1.327 . S
C1531 C1535 1.429 . S
C1532 C1515 1.574 . S
C1532 H1526 0.949 . S
C1532 C1536 1.368 . S
C1533 C1514 1.429 . S
C1533 C1527 1.429 . S
C1533 C1534 1.523 . S
C1534 C1515 1.368 . S
C1534 C1528 1.368 . S
C1534 C1533 1.523 . S
C1535 C1519 1.429 . S
C1535 C1531 1.429 . S
C1535 C1536 1.523 . S
C1536 C1520 1.368 . S
C1536 C1532 1.368 . S
C1536 C1535 1.523 . S
H1537 C1512 0.950 . S
H1538 C1514 0.950 . S
H1539 C1515 0.949 . S
H1540 C1517 0.950 . S
H1541 C1519 0.950 . S
C1542 C1543 1.349 . S
C1542 C1544 1.327 . S
C1542 H1567 0.950 . S
C1543 C1542 1.349 . S
C1543 C1559 1.349 . S
C1544 C1542 1.327 . S
C1544 C1563 1.429 . S
C1544 H1568 0.950 . S
C1545 C1562 1.574 . S
C1545 C1564 1.368 . S
C1545 H1569 0.949 . S
H1546 C1550 0.949 . S
C1547 C1548 1.349 . S
C1547 C1549 1.327 . S
C1547 H1570 0.950 . S
C1548 C1547 1.349 . S
C1548 C1560 1.349 . S
C1549 C1547 1.327 . S
C1549 C1565 1.429 . S
C1549 H1571 0.950 . S
C1550 H1546 0.949 . S
C1550 C1558 1.574 . S
C1550 C1566 1.368 . S
H1551 C1559 0.950 . S
H1552 C1557 0.950 . S
H1553 C1558 0.949 . S
H1554 C1560 0.950 . S
H1555 C1561 0.950 . S
H1556 C1562 0.949 . S
C1557 H1552 0.950 . S
C1557 C1559 1.327 . S
C1557 C1563 1.429 . S
C1558 C1550 1.574 . S
C1558 H1553 0.949 . S
C1558 C1564 1.368 . S
C1559 C1543 1.349 . S
C1559 H1551 0.950 . S
C1559 C1557 1.327 . S
C1560 C1548 1.349 . S
C1560 H1554 0.950 . S
C1560 C1561 1.327 . S
C1561 H1555 0.950 . S
C1561 C1560 1.327 . S
C1561 C1565 1.429 . S
C1562 C1545 1.574 . S
C1562 H1556 0.949 . S
C1562 C1566 1.368 . S
C1563 C1544 1.429 . S
C1563 C1557 1.429 . S
C1563 C1564 1.523 . S
C1564 C1545 1.368 . S
C1564 C1558 1.368 . S
C1564 C1563 1.523 . S
C1565 C1549 1.429 . S
C1565 C1561 1.429 . S
C1565 C1566 1.523 . S
C1566 C1550 1.368 . S
C1566 C1562 1.368 . S
C1566 C1565 1.523 . S
H1567 C1542 0.950 . S
H1568 C1544 0.950 . S
H1569 C1545 0.949 . S
H1570 C1547 0.950 . S
H1571 C1549 0.950 . S
C1572 C1573 1.349 . S
C1572 C1574 1.327 . S
C1572 H1597 0.950 . S
C1573 C1572 1.349 . S
C1573 C1589 1.349 . S
C1574 C1572 1.327 . S
C1574 C1593 1.429 . S
C1574 H1598 0.950 . S
C1575 C1592 1.574 . S
C1575 C1594 1.368 . S
C1575 H1599 0.949 . S
H1576 C1580 0.949 . S
C1577 C1578 1.349 . S
C1577 C1579 1.327 . S
C1577 H1600 0.950 . S
C1578 C1577 1.349 . S
C1578 C1590 1.349 . S
C1579 C1577 1.327 . S
C1579 C1595 1.429 . S
C1579 H1601 0.950 . S
C1580 H1576 0.949 . S
C1580 C1588 1.574 . S
C1580 C1596 1.368 . S
H1581 C1589 0.950 . S
H1582 C1587 0.950 . S
H1583 C1588 0.949 . S
H1584 C1590 0.950 . S
H1585 C1591 0.950 . S
H1586 C1592 0.949 . S
C1587 H1582 0.950 . S
C1587 C1589 1.327 . S
C1587 C1593 1.429 . S
C1588 C1580 1.574 . S
C1588 H1583 0.949 . S
C1588 C1594 1.368 . S
C1589 C1573 1.349 . S
C1589 H1581 0.950 . S
C1589 C1587 1.327 . S
C1590 C1578 1.349 . S
C1590 H1584 0.950 . S
C1590 C1591 1.327 . S
C1591 H1585 0.950 . S
C1591 C1590 1.327 . S
C1591 C1595 1.429 . S
C1592 C1575 1.574 . S
C1592 H1586 0.949 . S
C1592 C1596 1.368 . S
C1593 C1574 1.429 . S
C1593 C1587 1.429 . S
C1593 C1594 1.523 . S
C1594 C1575 1.368 . S
C1594 C1588 1.368 . S
C1594 C1593 1.523 . S
C1595 C1579 1.429 . S
C1595 C1591 1.429 . S
C1595 C1596 1.523 . S
C1596 C1580 1.368 . S
C1596 C1592 1.368 . S
C1596 C1595 1.523 . S
H1597 C1572 0.950 . S
H1598 C1574 0.950 . S
H1599 C1575 0.949 . S
H1600 C1577 0.950 . S
H1601 C1579 0.950 . S
C1602 C1603 1.349 . S
C1602 C1604 1.327 . S
C1602 H1627 0.950 . S
C1603 C1602 1.349 . S
C1603 C1619 1.349 . S
C1604 C1602 1.327 . S
C1604 C1623 1.429 . S
C1604 H1628 0.950 . S
C1605 C1622 1.574 . S
C1605 C1624 1.368 . S
C1605 H1629 0.949 . S
H1606 C1610 0.949 . S
C1607 C1608 1.349 . S
C1607 C1609 1.327 . S
C1607 H1630 0.950 . S
C1608 C1607 1.349 . S
C1608 C1620 1.349 . S
C1609 C1607 1.327 . S
C1609 C1625 1.429 . S
C1609 H1631 0.950 . S
C1610 H1606 0.949 . S
C1610 C1618 1.574 . S
C1610 C1626 1.368 . S
H1611 C1619 0.950 . S
H1612 C1617 0.950 . S
H1613 C1618 0.949 . S
H1614 C1620 0.950 . S
H1615 C1621 0.950 . S
H1616 C1622 0.949 . S
C1617 H1612 0.950 . S
C1617 C1619 1.327 . S
C1617 C1623 1.429 . S
C1618 C1610 1.574 . S
C1618 H1613 0.949 . S
C1618 C1624 1.368 . S
C1619 C1603 1.349 . S
C1619 H1611 0.950 . S
C1619 C1617 1.327 . S
C1620 C1608 1.349 . S
C1620 H1614 0.950 . S
C1620 C1621 1.327 . S
C1621 H1615 0.950 . S
C1621 C1620 1.327 . S
C1621 C1625 1.429 . S
C1622 C1605 1.574 . S
C1622 H1616 0.949 . S
C1622 C1626 1.368 . S
C1623 C1604 1.429 . S
C1623 C1617 1.429 . S
C1623 C1624 1.523 . S
C1624 C1605 1.368 . S
C1624 C1618 1.368 . S
C1624 C1623 1.523 . S
C1625 C1609 1.429 . S
C1625 C1621 1.429 . S
C1625 C1626 1.523 . S
C1626 C1610 1.368 . S
C1626 C1622 1.368 . S
C1626 C1625 1.523 . S
H1627 C1602 0.950 . S
H1628 C1604 0.950 . S
H1629 C1605 0.949 . S
H1630 C1607 0.950 . S
H1631 C1609 0.950 . S
C1632 C1633 1.349 . S
C1632 C1634 1.327 . S
C1632 H1657 0.950 . S
C1633 C1632 1.349 . S
C1633 C1649 1.349 . S
C1634 C1632 1.327 . S
C1634 C1653 1.429 . S
C1634 H1658 0.950 . S
C1635 C1652 1.574 . S
C1635 C1654 1.368 . S
C1635 H1659 0.949 . S
H1636 C1640 0.949 . S
C1637 C1638 1.349 . S
C1637 C1639 1.327 . S
C1637 H1660 0.950 . S
C1638 C1637 1.349 . S
C1638 C1650 1.349 . S
C1639 C1637 1.327 . S
C1639 C1655 1.429 . S
C1639 H1661 0.950 . S
C1640 H1636 0.949 . S
C1640 C1648 1.574 . S
C1640 C1656 1.368 . S
H1641 C1649 0.950 . S
H1642 C1647 0.950 . S
H1643 C1648 0.949 . S
H1644 C1650 0.950 . S
H1645 C1651 0.950 . S
H1646 C1652 0.949 . S
C1647 H1642 0.950 . S
C1647 C1649 1.327 . S
C1647 C1653 1.429 . S
C1648 C1640 1.574 . S
C1648 H1643 0.949 . S
C1648 C1654 1.368 . S
C1649 C1633 1.349 . S
C1649 H1641 0.950 . S
C1649 C1647 1.327 . S
C1650 C1638 1.349 . S
C1650 H1644 0.950 . S
C1650 C1651 1.327 . S
C1651 H1645 0.950 . S
C1651 C1650 1.327 . S
C1651 C1655 1.429 . S
C1652 C1635 1.574 . S
C1652 H1646 0.949 . S
C1652 C1656 1.368 . S
C1653 C1634 1.429 . S
C1653 C1647 1.429 . S
C1653 C1654 1.523 . S
C1654 C1635 1.368 . S
C1654 C1648 1.368 . S
C1654 C1653 1.523 . S
C1655 C1639 1.429 . S
C1655 C1651 1.429 . S
C1655 C1656 1.523 . S
C1656 C1640 1.368 . S
C1656 C1652 1.368 . S
C1656 C1655 1.523 . S
H1657 C1632 0.950 . S
H1658 C1634 0.950 . S
H1659 C1635 0.949 . S
H1660 C1637 0.950 . S
H1661 C1639 0.950 . S
C1662 C1663 1.349 . S
C1662 C1664 1.327 . S
C1662 H1687 0.950 . S
C1663 C1662 1.349 . S
C1663 C1679 1.349 . S
C1664 C1662 1.327 . S
C1664 C1683 1.429 . S
C1664 H1688 0.950 . S
C1665 C1682 1.574 . S
C1665 C1684 1.368 . S
C1665 H1689 0.949 . S
H1666 C1670 0.949 . S
C1667 C1668 1.349 . S
C1667 C1669 1.327 . S
C1667 H1690 0.950 . S
C1668 C1667 1.349 . S
C1668 C1680 1.349 . S
C1669 C1667 1.327 . S
C1669 C1685 1.429 . S
C1669 H1691 0.950 . S
C1670 H1666 0.949 . S
C1670 C1678 1.574 . S
C1670 C1686 1.368 . S
H1671 C1679 0.950 . S
H1672 C1677 0.950 . S
H1673 C1678 0.949 . S
H1674 C1680 0.950 . S
H1675 C1681 0.950 . S
H1676 C1682 0.949 . S
C1677 H1672 0.950 . S
C1677 C1679 1.327 . S
C1677 C1683 1.429 . S
C1678 C1670 1.574 . S
C1678 H1673 0.949 . S
C1678 C1684 1.368 . S
C1679 C1663 1.349 . S
C1679 H1671 0.950 . S
C1679 C1677 1.327 . S
C1680 C1668 1.349 . S
C1680 H1674 0.950 . S
C1680 C1681 1.327 . S
C1681 H1675 0.950 . S
C1681 C1680 1.327 . S
C1681 C1685 1.429 . S
C1682 C1665 1.574 . S
C1682 H1676 0.949 . S
C1682 C1686 1.368 . S
C1683 C1664 1.429 . S
C1683 C1677 1.429 . S
C1683 C1684 1.523 . S
C1684 C1665 1.368 . S
C1684 C1678 1.368 . S
C1684 C1683 1.523 . S
C1685 C1669 1.429 . S
C1685 C1681 1.429 . S
C1685 C1686 1.523 . S
C1686 C1670 1.368 . S
C1686 C1682 1.368 . S
C1686 C1685 1.523 . S
H1687 C1662 0.950 . S
H1688 C1664 0.950 . S
H1689 C1665 0.949 . S
H1690 C1667 0.950 . S
H1691 C1669 0.950 . S
C1692 C1693 1.349 . S
C1692 C1694 1.327 . S
C1692 H1717 0.950 . S
C1693 C1692 1.349 . S
C1693 C1709 1.349 . S
C1694 C1692 1.327 . S
C1694 C1713 1.429 . S
C1694 H1718 0.950 . S
C1695 C1712 1.574 . S
C1695 C1714 1.368 . S
C1695 H1719 0.949 . S
H1696 C1700 0.949 . S
C1697 C1698 1.349 . S
C1697 C1699 1.327 . S
C1697 H1720 0.950 . S
C1698 C1697 1.349 . S
C1698 C1710 1.349 . S
C1699 C1697 1.327 . S
C1699 C1715 1.429 . S
C1699 H1721 0.950 . S
C1700 H1696 0.949 . S
C1700 C1708 1.574 . S
C1700 C1716 1.368 . S
H1701 C1709 0.950 . S
H1702 C1707 0.950 . S
H1703 C1708 0.949 . S
H1704 C1710 0.950 . S
H1705 C1711 0.950 . S
H1706 C1712 0.949 . S
C1707 H1702 0.950 . S
C1707 C1709 1.327 . S
C1707 C1713 1.429 . S
C1708 C1700 1.574 . S
C1708 H1703 0.949 . S
C1708 C1714 1.368 . S
C1709 C1693 1.349 . S
C1709 H1701 0.950 . S
C1709 C1707 1.327 . S
C1710 C1698 1.349 . S
C1710 H1704 0.950 . S
C1710 C1711 1.327 . S
C1711 H1705 0.950 . S
C1711 C1710 1.327 . S
C1711 C1715 1.429 . S
C1712 C1695 1.574 . S
C1712 H1706 0.949 . S
C1712 C1716 1.368 . S
C1713 C1694 1.429 . S
C1713 C1707 1.429 . S
C1713 C1714 1.523 . S
C1714 C1695 1.368 . S
C1714 C1708 1.368 . S
C1714 C1713 1.523 . S
C1715 C1699 1.429 . S
C1715 C1711 1.429 . S
C1715 C1716 1.523 . S
C1716 C1700 1.368 . S
C1716 C1712 1.368 . S
C1716 C1715 1.523 . S
H1717 C1692 0.950 . S
H1718 C1694 0.950 . S
H1719 C1695 0.949 . S
H1720 C1697 0.950 . S
H1721 C1699 0.950 . S
C1722 C1723 1.349 . S
C1722 C1724 1.327 . S
C1722 H1747 0.950 . S
C1723 C1722 1.349 . S
C1723 C1739 1.349 . S
C1724 C1722 1.327 . S
C1724 C1743 1.429 . S
C1724 H1748 0.950 . S
C1725 C1742 1.574 . S
C1725 C1744 1.368 . S
C1725 H1749 0.949 . S
H1726 C1730 0.949 . S
C1727 C1728 1.349 . S
C1727 C1729 1.327 . S
C1727 H1750 0.950 . S
C1728 C1727 1.349 . S
C1728 C1740 1.349 . S
C1729 C1727 1.327 . S
C1729 C1745 1.429 . S
C1729 H1751 0.950 . S
C1730 H1726 0.949 . S
C1730 C1738 1.574 . S
C1730 C1746 1.368 . S
H1731 C1739 0.950 . S
H1732 C1737 0.950 . S
H1733 C1738 0.949 . S
H1734 C1740 0.950 . S
H1735 C1741 0.950 . S
H1736 C1742 0.949 . S
C1737 H1732 0.950 . S
C1737 C1739 1.327 . S
C1737 C1743 1.429 . S
C1738 C1730 1.574 . S
C1738 H1733 0.949 . S
C1738 C1744 1.368 . S
C1739 C1723 1.349 . S
C1739 H1731 0.950 . S
C1739 C1737 1.327 . S
C1740 C1728 1.349 . S
C1740 H1734 0.950 . S
C1740 C1741 1.327 . S
C1741 H1735 0.950 . S
C1741 C1740 1.327 . S
C1741 C1745 1.429 . S
C1742 C1725 1.574 . S
C1742 H1736 0.949 . S
C1742 C1746 1.368 . S
C1743 C1724 1.429 . S
C1743 C1737 1.429 . S
C1743 C1744 1.523 . S
C1744 C1725 1.368 . S
C1744 C1738 1.368 . S
C1744 C1743 1.523 . S
C1745 C1729 1.429 . S
C1745 C1741 1.429 . S
C1745 C1746 1.523 . S
C1746 C1730 1.368 . S
C1746 C1742 1.368 . S
C1746 C1745 1.523 . S
H1747 C1722 0.950 . S
H1748 C1724 0.950 . S
H1749 C1725 0.949 . S
H1750 C1727 0.950 . S
H1751 C1729 0.950 . S
C1752 C1753 1.349 . S
C1752 C1754 1.327 . S
C1752 H1777 0.950 . S
C1753 C1752 1.349 . S
C1753 C1769 1.349 . S
C1754 C1752 1.327 . S
C1754 C1773 1.429 . S
C1754 H1778 0.950 . S
C1755 C1772 1.574 . S
C1755 C1774 1.368 . S
C1755 H1779 0.949 . S
H1756 C1760 0.949 . S
C1757 C1758 1.349 . S
C1757 C1759 1.327 . S
C1757 H1780 0.950 . S
C1758 C1757 1.349 . S
C1758 C1770 1.349 . S
C1759 C1757 1.327 . S
C1759 C1775 1.429 . S
C1759 H1781 0.950 . S
C1760 H1756 0.949 . S
C1760 C1768 1.574 . S
C1760 C1776 1.368 . S
H1761 C1769 0.950 . S
H1762 C1767 0.950 . S
H1763 C1768 0.949 . S
H1764 C1770 0.950 . S
H1765 C1771 0.950 . S
H1766 C1772 0.949 . S
C1767 H1762 0.950 . S
C1767 C1769 1.327 . S
C1767 C1773 1.429 . S
C1768 C1760 1.574 . S
C1768 H1763 0.949 . S
C1768 C1774 1.368 . S
C1769 C1753 1.349 . S
C1769 H1761 0.950 . S
C1769 C1767 1.327 . S
C1770 C1758 1.349 . S
C1770 H1764 0.950 . S
C1770 C1771 1.327 . S
C1771 H1765 0.950 . S
C1771 C1770 1.327 . S
C1771 C1775 1.429 . S
C1772 C1755 1.574 . S
C1772 H1766 0.949 . S
C1772 C1776 1.368 . S
C1773 C1754 1.429 . S
C1773 C1767 1.429 . S
C1773 C1774 1.523 . S
C1774 C1755 1.368 . S
C1774 C1768 1.368 . S
C1774 C1773 1.523 . S
C1775 C1759 1.429 . S
C1775 C1771 1.429 . S
C1775 C1776 1.523 . S
C1776 C1760 1.368 . S
C1776 C1772 1.368 . S
C1776 C1775 1.523 . S
H1777 C1752 0.950 . S
H1778 C1754 0.950 . S
H1779 C1755 0.949 . S
H1780 C1757 0.950 . S
H1781 C1759 0.950 . S
C1782 C1783 1.349 . S
C1782 C1784 1.327 . S
C1782 H1807 0.950 . S
C1783 C1782 1.349 . S
C1783 C1799 1.349 . S
C1784 C1782 1.327 . S
C1784 C1803 1.429 . S
C1784 H1808 0.950 . S
C1785 C1802 1.574 . S
C1785 C1804 1.368 . S
C1785 H1809 0.949 . S
H1786 C1790 0.949 . S
C1787 C1788 1.349 . S
C1787 C1789 1.327 . S
C1787 H1810 0.950 . S
C1788 C1787 1.349 . S
C1788 C1800 1.349 . S
C1789 C1787 1.327 . S
C1789 C1805 1.429 . S
C1789 H1811 0.950 . S
C1790 H1786 0.949 . S
C1790 C1798 1.574 . S
C1790 C1806 1.368 . S
H1791 C1799 0.950 . S
H1792 C1797 0.950 . S
H1793 C1798 0.949 . S
H1794 C1800 0.950 . S
H1795 C1801 0.950 . S
H1796 C1802 0.949 . S
C1797 H1792 0.950 . S
C1797 C1799 1.327 . S
C1797 C1803 1.429 . S
C1798 C1790 1.574 . S
C1798 H1793 0.949 . S
C1798 C1804 1.368 . S
C1799 C1783 1.349 . S
C1799 H1791 0.950 . S
C1799 C1797 1.327 . S
C1800 C1788 1.349 . S
C1800 H1794 0.950 . S
C1800 C1801 1.327 . S
C1801 H1795 0.950 . S
C1801 C1800 1.327 . S
C1801 C1805 1.429 . S
C1802 C1785 1.574 . S
C1802 H1796 0.949 . S
C1802 C1806 1.368 . S
C1803 C1784 1.429 . S
C1803 C1797 1.429 . S
C1803 C1804 1.523 . S
C1804 C1785 1.368 . S
C1804 C1798 1.368 . S
C1804 C1803 1.523 . S
C1805 C1789 1.429 . S
C1805 C1801 1.429 . S
C1805 C1806 1.523 . S
C1806 C1790 1.368 . S
C1806 C1802 1.368 . S
C1806 C1805 1.523 . S
H1807 C1782 0.950 . S
H1808 C1784 0.950 . S
H1809 C1785 0.949 . S
H1810 C1787 0.950 . S
H1811 C1789 0.950 . S
C1812 C1813 1.349 . S
C1812 C1814 1.327 . S
C1812 H1837 0.950 . S
C1813 C1812 1.349 . S
C1813 C1829 1.349 . S
C1814 C1812 1.327 . S
C1814 C1833 1.429 . S
C1814 H1838 0.950 . S
C1815 C1832 1.574 . S
C1815 C1834 1.368 . S
C1815 H1839 0.949 . S
H1816 C1820 0.949 . S
C1817 C1818 1.349 . S
C1817 C1819 1.327 . S
C1817 H1840 0.950 . S
C1818 C1817 1.349 . S
C1818 C1830 1.349 . S
C1819 C1817 1.327 . S
C1819 C1835 1.429 . S
C1819 H1841 0.950 . S
C1820 H1816 0.949 . S
C1820 C1828 1.574 . S
C1820 C1836 1.368 . S
H1821 C1829 0.950 . S
H1822 C1827 0.950 . S
H1823 C1828 0.949 . S
H1824 C1830 0.950 . S
H1825 C1831 0.950 . S
H1826 C1832 0.949 . S
C1827 H1822 0.950 . S
C1827 C1829 1.327 . S
C1827 C1833 1.429 . S
C1828 C1820 1.574 . S
C1828 H1823 0.949 . S
C1828 C1834 1.368 . S
C1829 C1813 1.349 . S
C1829 H1821 0.950 . S
C1829 C1827 1.327 . S
C1830 C1818 1.349 . S
C1830 H1824 0.950 . S
C1830 C1831 1.327 . S
C1831 H1825 0.950 . S
C1831 C1830 1.327 . S
C1831 C1835 1.429 . S
C1832 C1815 1.574 . S
C1832 H1826 0.949 . S
C1832 C1836 1.368 . S
C1833 C1814 1.429 . S
C1833 C1827 1.429 . S
C1833 C1834 1.523 . S
C1834 C1815 1.368 . S
C1834 C1828 1.368 . S
C1834 C1833 1.523 . S
C1835 C1819 1.429 . S
C1835 C1831 1.429 . S
C1835 C1836 1.523 . S
C1836 C1820 1.368 . S
C1836 C1832 1.368 . S
C1836 C1835 1.523 . S
H1837 C1812 0.950 . S
H1838 C1814 0.950 . S
H1839 C1815 0.949 . S
H1840 C1817 0.950 . S
H1841 C1819 0.950 . S
C1842 C1843 1.349 . S
C1842 C1844 1.327 . S
C1842 H1867 0.950 . S
C1843 C1842 1.349 . S
C1843 C1859 1.349 . S
C1844 C1842 1.327 . S
C1844 C1863 1.429 . S
C1844 H1868 0.950 . S
C1845 C1862 1.574 . S
C1845 C1864 1.368 . S
C1845 H1869 0.949 . S
H1846 C1850 0.949 . S
C1847 C1848 1.349 . S
C1847 C1849 1.327 . S
C1847 H1870 0.950 . S
C1848 C1847 1.349 . S
C1848 C1860 1.349 . S
C1849 C1847 1.327 . S
C1849 C1865 1.429 . S
C1849 H1871 0.950 . S
C1850 H1846 0.949 . S
C1850 C1858 1.574 . S
C1850 C1866 1.368 . S
H1851 C1859 0.950 . S
H1852 C1857 0.950 . S
H1853 C1858 0.949 . S
H1854 C1860 0.950 . S
H1855 C1861 0.950 . S
H1856 C1862 0.949 . S
C1857 H1852 0.950 . S
C1857 C1859 1.327 . S
C1857 C1863 1.429 . S
C1858 C1850 1.574 . S
C1858 H1853 0.949 . S
C1858 C1864 1.368 . S
C1859 C1843 1.349 . S
C1859 H1851 0.950 . S
C1859 C1857 1.327 . S
C1860 C1848 1.349 . S
C1860 H1854 0.950 . S
C1860 C1861 1.327 . S
C1861 H1855 0.950 . S
C1861 C1860 1.327 . S
C1861 C1865 1.429 . S
C1862 C1845 1.574 . S
C1862 H1856 0.949 . S
C1862 C1866 1.368 . S
C1863 C1844 1.429 . S
C1863 C1857 1.429 . S
C1863 C1864 1.523 . S
C1864 C1845 1.368 . S
C1864 C1858 1.368 . S
C1864 C1863 1.523 . S
C1865 C1849 1.429 . S
C1865 C1861 1.429 . S
C1865 C1866 1.523 . S
C1866 C1850 1.368 . S
C1866 C1862 1.368 . S
C1866 C1865 1.523 . S
H1867 C1842 0.950 . S
H1868 C1844 0.950 . S
H1869 C1845 0.949 . S
H1870 C1847 0.950 . S
H1871 C1849 0.950 . S
C1872 C1873 1.349 . S
C1872 C1874 1.327 . S
C1872 H1897 0.950 . S
C1873 C1872 1.349 . S
C1873 C1889 1.349 . S
C1874 C1872 1.327 . S
C1874 C1893 1.429 . S
C1874 H1898 0.950 . S
C1875 C1892 1.574 . S
C1875 C1894 1.368 . S
C1875 H1899 0.949 . S
H1876 C1880 0.949 . S
C1877 C1878 1.349 . S
C1877 C1879 1.327 . S
C1877 H1900 0.950 . S
C1878 C1877 1.349 . S
C1878 C1890 1.349 . S
C1879 C1877 1.327 . S
C1879 C1895 1.429 . S
C1879 H1901 0.950 . S
C1880 H1876 0.949 . S
C1880 C1888 1.574 . S
C1880 C1896 1.368 . S
H1881 C1889 0.950 . S
H1882 C1887 0.950 . S
H1883 C1888 0.949 . S
H1884 C1890 0.950 . S
H1885 C1891 0.950 . S
H1886 C1892 0.949 . S
C1887 H1882 0.950 . S
C1887 C1889 1.327 . S
C1887 C1893 1.429 . S
C1888 C1880 1.574 . S
C1888 H1883 0.949 . S
C1888 C1894 1.368 . S
C1889 C1873 1.349 . S
C1889 H1881 0.950 . S
C1889 C1887 1.327 . S
C1890 C1878 1.349 . S
C1890 H1884 0.950 . S
C1890 C1891 1.327 . S
C1891 H1885 0.950 . S
C1891 C1890 1.327 . S
C1891 C1895 1.429 . S
C1892 C1875 1.574 . S
C1892 H1886 0.949 . S
C1892 C1896 1.368 . S
C1893 C1874 1.429 . S
C1893 C1887 1.429 . S
C1893 C1894 1.523 . S
C1894 C1875 1.368 . S
C1894 C1888 1.368 . S
C1894 C1893 1.523 . S
C1895 C1879 1.429 . S
C1895 C1891 1.429 . S
C1895 C1896 1.523 . S
C1896 C1880 1.368 . S
C1896 C1892 1.368 . S
C1896 C1895 1.523 . S
H1897 C1872 0.950 . S
H1898 C1874 0.950 . S
H1899 C1875 0.949 . S
H1900 C1877 0.950 . S
H1901 C1879 0.950 . S
C1902 C1903 1.349 . S
C1902 C1904 1.327 . S
C1902 H1927 0.950 . S
C1903 C1902 1.349 . S
C1903 C1919 1.349 . S
C1904 C1902 1.327 . S
C1904 C1923 1.429 . S
C1904 H1928 0.950 . S
C1905 C1922 1.574 . S
C1905 C1924 1.368 . S
C1905 H1929 0.949 . S
H1906 C1910 0.949 . S
C1907 C1908 1.349 . S
C1907 C1909 1.327 . S
C1907 H1930 0.950 . S
C1908 C1907 1.349 . S
C1908 C1920 1.349 . S
C1909 C1907 1.327 . S
C1909 C1925 1.429 . S
C1909 H1931 0.950 . S
C1910 H1906 0.949 . S
C1910 C1918 1.574 . S
C1910 C1926 1.368 . S
H1911 C1919 0.950 . S
H1912 C1917 0.950 . S
H1913 C1918 0.949 . S
H1914 C1920 0.950 . S
H1915 C1921 0.950 . S
H1916 C1922 0.949 . S
C1917 H1912 0.950 . S
C1917 C1919 1.327 . S
C1917 C1923 1.429 . S
C1918 C1910 1.574 . S
C1918 H1913 0.949 . S
C1918 C1924 1.368 . S
C1919 C1903 1.349 . S
C1919 H1911 0.950 . S
C1919 C1917 1.327 . S
C1920 C1908 1.349 . S
C1920 H1914 0.950 . S
C1920 C1921 1.327 . S
C1921 H1915 0.950 . S
C1921 C1920 1.327 . S
C1921 C1925 1.429 . S
C1922 C1905 1.574 . S
C1922 H1916 0.949 . S
C1922 C1926 1.368 . S
C1923 C1904 1.429 . S
C1923 C1917 1.429 . S
C1923 C1924 1.523 . S
C1924 C1905 1.368 . S
C1924 C1918 1.368 . S
C1924 C1923 1.523 . S
C1925 C1909 1.429 . S
C1925 C1921 1.429 . S
C1925 C1926 1.523 . S
C1926 C1910 1.368 . S
C1926 C1922 1.368 . S
C1926 C1925 1.523 . S
H1927 C1902 0.950 . S
H1928 C1904 0.950 . S
H1929 C1905 0.949 . S
H1930 C1907 0.950 . S
H1931 C1909 0.950 . S
C1932 C1933 1.349 . S
C1932 C1934 1.327 . S
C1932 H1957 0.950 . S
C1933 C1932 1.349 . S
C1933 C1949 1.349 . S
C1934 C1932 1.327 . S
C1934 C1953 1.429 . S
C1934 H1958 0.950 . S
C1935 C1952 1.574 . S
C1935 C1954 1.368 . S
C1935 H1959 0.949 . S
H1936 C1940 0.949 . S
C1937 C1938 1.349 . S
C1937 C1939 1.327 . S
C1937 H1960 0.950 . S
C1938 C1937 1.349 . S
C1938 C1950 1.349 . S
C1939 C1937 1.327 . S
C1939 C1955 1.429 . S
C1939 H1961 0.950 . S
C1940 H1936 0.949 . S
C1940 C1948 1.574 . S
C1940 C1956 1.368 . S
H1941 C1949 0.950 . S
H1942 C1947 0.950 . S
H1943 C1948 0.949 . S
H1944 C1950 0.950 . S
H1945 C1951 0.950 . S
H1946 C1952 0.949 . S
C1947 H1942 0.950 . S
C1947 C1949 1.327 . S
C1947 C1953 1.429 . S
C1948 C1940 1.574 . S
C1948 H1943 0.949 . S
C1948 C1954 1.368 . S
C1949 C1933 1.349 . S
C1949 H1941 0.950 . S
C1949 C1947 1.327 . S
C1950 C1938 1.349 . S
C1950 H1944 0.950 . S
C1950 C1951 1.327 . S
C1951 H1945 0.950 . S
C1951 C1950 1.327 . S
C1951 C1955 1.429 . S
C1952 C1935 1.574 . S
C1952 H1946 0.949 . S
C1952 C1956 1.368 . S
C1953 C1934 1.429 . S
C1953 C1947 1.429 . S
C1953 C1954 1.523 . S
C1954 C1935 1.368 . S
C1954 C1948 1.368 . S
C1954 C1953 1.523 . S
C1955 C1939 1.429 . S
C1955 C1951 1.429 . S
C1955 C1956 1.523 . S
C1956 C1940 1.368 . S
C1956 C1952 1.368 . S
C1956 C1955 1.523 . S
H1957 C1932 0.950 . S
H1958 C1934 0.950 . S
H1959 C1935 0.949 . S
H1960 C1937 0.950 . S
H1961 C1939 0.950 . S
C1962 C1963 1.349 . S
C1962 C1964 1.327 . S
C1962 H1987 0.950 . S
C1963 C1962 1.349 . S
C1963 C1979 1.349 . S
C1964 C1962 1.327 . S
C1964 C1983 1.429 . S
C1964 H1988 0.950 . S
C1965 C1982 1.574 . S
C1965 C1984 1.368 . S
C1965 H1989 0.949 . S
H1966 C1970 0.949 . S
C1967 C1968 1.349 . S
C1967 C1969 1.327 . S
C1967 H1990 0.950 . S
C1968 C1967 1.349 . S
C1968 C1980 1.349 . S
C1969 C1967 1.327 . S
C1969 C1985 1.429 . S
C1969 H1991 0.950 . S
C1970 H1966 0.949 . S
C1970 C1978 1.574 . S
C1970 C1986 1.368 . S
H1971 C1979 0.950 . S
H1972 C1977 0.950 . S
H1973 C1978 0.949 . S
H1974 C1980 0.950 . S
H1975 C1981 0.950 . S
H1976 C1982 0.949 . S
C1977 H1972 0.950 . S
C1977 C1979 1.327 . S
C1977 C1983 1.429 . S
C1978 C1970 1.574 . S
C1978 H1973 0.949 . S
C1978 C1984 1.368 . S
C1979 C1963 1.349 . S
C1979 H1971 0.950 . S
C1979 C1977 1.327 . S
C1980 C1968 1.349 . S
C1980 H1974 0.950 . S
C1980 C1981 1.327 . S
C1981 H1975 0.950 . S
C1981 C1980 1.327 . S
C1981 C1985 1.429 . S
C1982 C1965 1.574 . S
C1982 H1976 0.949 . S
C1982 C1986 1.368 . S
C1983 C1964 1.429 . S
C1983 C1977 1.429 . S
C1983 C1984 1.523 . S
C1984 C1965 1.368 . S
C1984 C1978 1.368 . S
C1984 C1983 1.523 . S
C1985 C1969 1.429 . S
C1985 C1981 1.429 . S
C1985 C1986 1.523 . S
C1986 C1970 1.368 . S
C1986 C1982 1.368 . S
C1986 C1985 1.523 . S
H1987 C1962 0.950 . S
H1988 C1964 0.950 . S
H1989 C1965 0.949 . S
H1990 C1967 0.950 . S
H1991 C1969 0.950 . S
C1992 C1993 1.349 . S
C1992 C1994 1.327 . S
C1992 H2017 0.950 . S
C1993 C1992 1.349 . S
C1993 C2009 1.349 . S
C1994 C1992 1.327 . S
C1994 C2013 1.429 . S
C1994 H2018 0.950 . S
C1995 C2012 1.574 . S
C1995 C2014 1.368 . S
C1995 H2019 0.949 . S
H1996 C2000 0.949 . S
C1997 C1998 1.349 . S
C1997 C1999 1.327 . S
C1997 H2020 0.950 . S
C1998 C1997 1.349 . S
C1998 C2010 1.349 . S
C1999 C1997 1.327 . S
C1999 C2015 1.429 . S
C1999 H2021 0.950 . S
C2000 H1996 0.949 . S
C2000 C2008 1.574 . S
C2000 C2016 1.368 . S
H2001 C2009 0.950 . S
H2002 C2007 0.950 . S
H2003 C2008 0.949 . S
H2004 C2010 0.950 . S
H2005 C2011 0.950 . S
H2006 C2012 0.949 . S
C2007 H2002 0.950 . S
C2007 C2009 1.327 . S
C2007 C2013 1.429 . S
C2008 C2000 1.574 . S
C2008 H2003 0.949 . S
C2008 C2014 1.368 . S
C2009 C1993 1.349 . S
C2009 H2001 0.950 . S
C2009 C2007 1.327 . S
C2010 C1998 1.349 . S
C2010 H2004 0.950 . S
C2010 C2011 1.327 . S
C2011 H2005 0.950 . S
C2011 C2010 1.327 . S
C2011 C2015 1.429 . S
C2012 C1995 1.574 . S
C2012 H2006 0.949 . S
C2012 C2016 1.368 . S
C2013 C1994 1.429 . S
C2013 C2007 1.429 . S
C2013 C2014 1.523 . S
C2014 C1995 1.368 . S
C2014 C2008 1.368 . S
C2014 C2013 1.523 . S
C2015 C1999 1.429 . S
C2015 C2011 1.429 . S
C2015 C2016 1.523 . S
C2016 C2000 1.368 . S
C2016 C2012 1.368 . S
C2016 C2015 1.523 . S
H2017 C1992 0.950 . S
H2018 C1994 0.950 . S
H2019 C1995 0.949 . S
H2020 C1997 0.950 . S
H2021 C1999 0.950 . S
C2022 C2023 1.349 . S
C2022 C2024 1.327 . S
C2022 H2047 0.950 . S
C2023 C2022 1.349 . S
C2023 C2039 1.349 . S
C2024 C2022 1.327 . S
C2024 C2043 1.429 . S
C2024 H2048 0.950 . S
C2025 C2042 1.574 . S
C2025 C2044 1.368 . S
C2025 H2049 0.949 . S
H2026 C2030 0.949 . S
C2027 C2028 1.349 . S
C2027 C2029 1.327 . S
C2027 H2050 0.950 . S
C2028 C2027 1.349 . S
C2028 C2040 1.349 . S
C2029 C2027 1.327 . S
C2029 C2045 1.429 . S
C2029 H2051 0.950 . S
C2030 H2026 0.949 . S
C2030 C2038 1.574 . S
C2030 C2046 1.368 . S
H2031 C2039 0.950 . S
H2032 C2037 0.950 . S
H2033 C2038 0.949 . S
H2034 C2040 0.950 . S
H2035 C2041 0.950 . S
H2036 C2042 0.949 . S
C2037 H2032 0.950 . S
C2037 C2039 1.327 . S
C2037 C2043 1.429 . S
C2038 C2030 1.574 . S
C2038 H2033 0.949 . S
C2038 C2044 1.368 . S
C2039 C2023 1.349 . S
C2039 H2031 0.950 . S
C2039 C2037 1.327 . S
C2040 C2028 1.349 . S
C2040 H2034 0.950 . S
C2040 C2041 1.327 . S
C2041 H2035 0.950 . S
C2041 C2040 1.327 . S
C2041 C2045 1.429 . S
C2042 C2025 1.574 . S
C2042 H2036 0.949 . S
C2042 C2046 1.368 . S
C2043 C2024 1.429 . S
C2043 C2037 1.429 . S
C2043 C2044 1.523 . S
C2044 C2025 1.368 . S
C2044 C2038 1.368 . S
C2044 C2043 1.523 . S
C2045 C2029 1.429 . S
C2045 C2041 1.429 . S
C2045 C2046 1.523 . S
C2046 C2030 1.368 . S
C2046 C2042 1.368 . S
C2046 C2045 1.523 . S
H2047 C2022 0.950 . S
H2048 C2024 0.950 . S
H2049 C2025 0.949 . S
H2050 C2027 0.950 . S
H2051 C2029 0.950 . S
C2052 C2053 1.349 . S
C2052 C2054 1.327 . S
C2052 H2077 0.950 . S
C2053 C2052 1.349 . S
C2053 C2069 1.349 . S
C2054 C2052 1.327 . S
C2054 C2073 1.429 . S
C2054 H2078 0.950 . S
C2055 C2072 1.574 . S
C2055 C2074 1.368 . S
C2055 H2079 0.949 . S
H2056 C2060 0.949 . S
C2057 C2058 1.349 . S
C2057 C2059 1.327 . S
C2057 H2080 0.950 . S
C2058 C2057 1.349 . S
C2058 C2070 1.349 . S
C2059 C2057 1.327 . S
C2059 C2075 1.429 . S
C2059 H2081 0.950 . S
C2060 H2056 0.949 . S
C2060 C2068 1.574 . S
C2060 C2076 1.368 . S
H2061 C2069 0.950 . S
H2062 C2067 0.950 . S
H2063 C2068 0.949 . S
H2064 C2070 0.950 . S
H2065 C2071 0.950 . S
H2066 C2072 0.949 . S
C2067 H2062 0.950 . S
C2067 C2069 1.327 . S
C2067 C2073 1.429 . S
C2068 C2060 1.574 . S
C2068 H2063 0.949 . S
C2068 C2074 1.368 . S
C2069 C2053 1.349 . S
C2069 H2061 0.950 . S
C2069 C2067 1.327 . S
C2070 C2058 1.349 . S
C2070 H2064 0.950 . S
C2070 C2071 1.327 . S
C2071 H2065 0.950 . S
C2071 C2070 1.327 . S
C2071 C2075 1.429 . S
C2072 C2055 1.574 . S
C2072 H2066 0.949 . S
C2072 C2076 1.368 . S
C2073 C2054 1.429 . S
C2073 C2067 1.429 . S
C2073 C2074 1.523 . S
C2074 C2055 1.368 . S
C2074 C2068 1.368 . S
C2074 C2073 1.523 . S
C2075 C2059 1.429 . S
C2075 C2071 1.429 . S
C2075 C2076 1.523 . S
C2076 C2060 1.368 . S
C2076 C2072 1.368 . S
C2076 C2075 1.523 . S
H2077 C2052 0.950 . S
H2078 C2054 0.950 . S
H2079 C2055 0.949 . S
H2080 C2057 0.950 . S
H2081 C2059 0.950 . S
C2082 C2083 1.349 . S
C2082 C2084 1.327 . S
C2082 H2107 0.950 . S
C2083 C2082 1.349 . S
C2083 C2099 1.349 . S
C2084 C2082 1.327 . S
C2084 C2103 1.429 . S
C2084 H2108 0.950 . S
C2085 C2102 1.574 . S
C2085 C2104 1.368 . S
C2085 H2109 0.949 . S
H2086 C2090 0.949 . S
C2087 C2088 1.349 . S
C2087 C2089 1.327 . S
C2087 H2110 0.950 . S
C2088 C2087 1.349 . S
C2088 C2100 1.349 . S
C2089 C2087 1.327 . S
C2089 C2105 1.429 . S
C2089 H2111 0.950 . S
C2090 H2086 0.949 . S
C2090 C2098 1.574 . S
C2090 C2106 1.368 . S
H2091 C2099 0.950 . S
H2092 C2097 0.950 . S
H2093 C2098 0.949 . S
H2094 C2100 0.950 . S
H2095 C2101 0.950 . S
H2096 C2102 0.949 . S
C2097 H2092 0.950 . S
C2097 C2099 1.327 . S
C2097 C2103 1.429 . S
C2098 C2090 1.574 . S
C2098 H2093 0.949 . S
C2098 C2104 1.368 . S
C2099 C2083 1.349 . S
C2099 H2091 0.950 . S
C2099 C2097 1.327 . S
C2100 C2088 1.349 . S
C2100 H2094 0.950 . S
C2100 C2101 1.327 . S
C2101 H2095 0.950 . S
C2101 C2100 1.327 . S
C2101 C2105 1.429 . S
C2102 C2085 1.574 . S
C2102 H2096 0.949 . S
C2102 C2106 1.368 . S
C2103 C2084 1.429 . S
C2103 C2097 1.429 . S
C2103 C2104 1.523 . S
C2104 C2085 1.368 . S
C2104 C2098 1.368 . S
C2104 C2103 1.523 . S
C2105 C2089 1.429 . S
C2105 C2101 1.429 . S
C2105 C2106 1.523 . S
C2106 C2090 1.368 . S
C2106 C2102 1.368 . S
C2106 C2105 1.523 . S
H2107 C2082 0.950 . S
H2108 C2084 0.950 . S
H2109 C2085 0.949 . S
H2110 C2087 0.950 . S
H2111 C2089 0.950 . S
C2112 C2113 1.349 . S
C2112 C2114 1.327 . S
C2112 H2137 0.950 . S
C2113 C2112 1.349 . S
C2113 C2129 1.349 . S
C2114 C2112 1.327 . S
C2114 C2133 1.429 . S
C2114 H2138 0.950 . S
C2115 C2132 1.574 . S
C2115 C2134 1.368 . S
C2115 H2139 0.949 . S
H2116 C2120 0.949 . S
C2117 C2118 1.349 . S
C2117 C2119 1.327 . S
C2117 H2140 0.950 . S
C2118 C2117 1.349 . S
C2118 C2130 1.349 . S
C2119 C2117 1.327 . S
C2119 C2135 1.429 . S
C2119 H2141 0.950 . S
C2120 H2116 0.949 . S
C2120 C2128 1.574 . S
C2120 C2136 1.368 . S
H2121 C2129 0.950 . S
H2122 C2127 0.950 . S
H2123 C2128 0.949 . S
H2124 C2130 0.950 . S
H2125 C2131 0.950 . S
H2126 C2132 0.949 . S
C2127 H2122 0.950 . S
C2127 C2129 1.327 . S
C2127 C2133 1.429 . S
C2128 C2120 1.574 . S
C2128 H2123 0.949 . S
C2128 C2134 1.368 . S
C2129 C2113 1.349 . S
C2129 H2121 0.950 . S
C2129 C2127 1.327 . S
C2130 C2118 1.349 . S
C2130 H2124 0.950 . S
C2130 C2131 1.327 . S
C2131 H2125 0.950 . S
C2131 C2130 1.327 . S
C2131 C2135 1.429 . S
C2132 C2115 1.574 . S
C2132 H2126 0.949 . S
C2132 C2136 1.368 . S
C2133 C2114 1.429 . S
C2133 C2127 1.429 . S
C2133 C2134 1.523 . S
C2134 C2115 1.368 . S
C2134 C2128 1.368 . S
C2134 C2133 1.523 . S
C2135 C2119 1.429 . S
C2135 C2131 1.429 . S
C2135 C2136 1.523 . S
C2136 C2120 1.368 . S
C2136 C2132 1.368 . S
C2136 C2135 1.523 . S
H2137 C2112 0.950 . S
H2138 C2114 0.950 . S
H2139 C2115 0.949 . S
H2140 C2117 0.950 . S
H2141 C2119 0.950 . S
C2142 C2143 1.349 . S
C2142 C2144 1.327 . S
C2142 H2167 0.950 . S
C2143 C2142 1.349 . S
C2143 C2159 1.349 . S
C2144 C2142 1.327 . S
C2144 C2163 1.429 . S
C2144 H2168 0.950 . S
C2145 C2162 1.574 . S
C2145 C2164 1.368 . S
C2145 H2169 0.949 . S
H2146 C2150 0.949 . S
C2147 C2148 1.349 . S
C2147 C2149 1.327 . S
C2147 H2170 0.950 . S
C2148 C2147 1.349 . S
C2148 C2160 1.349 . S
C2149 C2147 1.327 . S
C2149 C2165 1.429 . S
C2149 H2171 0.950 . S
C2150 H2146 0.949 . S
C2150 C2158 1.574 . S
C2150 C2166 1.368 . S
H2151 C2159 0.950 . S
H2152 C2157 0.950 . S
H2153 C2158 0.949 . S
H2154 C2160 0.950 . S
H2155 C2161 0.950 . S
H2156 C2162 0.949 . S
C2157 H2152 0.950 . S
C2157 C2159 1.327 . S
C2157 C2163 1.429 . S
C2158 C2150 1.574 . S
C2158 H2153 0.949 . S
C2158 C2164 1.368 . S
C2159 C2143 1.349 . S
C2159 H2151 0.950 . S
C2159 C2157 1.327 . S
C2160 C2148 1.349 . S
C2160 H2154 0.950 . S
C2160 C2161 1.327 . S
C2161 H2155 0.950 . S
C2161 C2160 1.327 . S
C2161 C2165 1.429 . S
C2162 C2145 1.574 . S
C2162 H2156 0.949 . S
C2162 C2166 1.368 . S
C2163 C2144 1.429 . S
C2163 C2157 1.429 . S
C2163 C2164 1.523 . S
C2164 C2145 1.368 . S
C2164 C2158 1.368 . S
C2164 C2163 1.523 . S
C2165 C2149 1.429 . S
C2165 C2161 1.429 . S
C2165 C2166 1.523 . S
C2166 C2150 1.368 . S
C2166 C2162 1.368 . S
C2166 C2165 1.523 . S
H2167 C2142 0.950 . S
H2168 C2144 0.950 . S
H2169 C2145 0.949 . S
H2170 C2147 0.950 . S
H2171 C2149 0.950 . S
C2172 C2173 1.349 . S
C2172 C2174 1.327 . S
C2172 H2197 0.950 . S
C2173 C2172 1.349 . S
C2173 C2189 1.349 . S
C2174 C2172 1.327 . S
C2174 C2193 1.429 . S
C2174 H2198 0.950 . S
C2175 C2192 1.574 . S
C2175 C2194 1.368 . S
C2175 H2199 0.949 . S
H2176 C2180 0.949 . S
C2177 C2178 1.349 . S
C2177 C2179 1.327 . S
C2177 H2200 0.950 . S
C2178 C2177 1.349 . S
C2178 C2190 1.349 . S
C2179 C2177 1.327 . S
C2179 C2195 1.429 . S
C2179 H2201 0.950 . S
C2180 H2176 0.949 . S
C2180 C2188 1.574 . S
C2180 C2196 1.368 . S
H2181 C2189 0.950 . S
H2182 C2187 0.950 . S
H2183 C2188 0.949 . S
H2184 C2190 0.950 . S
H2185 C2191 0.950 . S
H2186 C2192 0.949 . S
C2187 H2182 0.950 . S
C2187 C2189 1.327 . S
C2187 C2193 1.429 . S
C2188 C2180 1.574 . S
C2188 H2183 0.949 . S
C2188 C2194 1.368 . S
C2189 C2173 1.349 . S
C2189 H2181 0.950 . S
C2189 C2187 1.327 . S
C2190 C2178 1.349 . S
C2190 H2184 0.950 . S
C2190 C2191 1.327 . S
C2191 H2185 0.950 . S
C2191 C2190 1.327 . S
C2191 C2195 1.429 . S
C2192 C2175 1.574 . S
C2192 H2186 0.949 . S
C2192 C2196 1.368 . S
C2193 C2174 1.429 . S
C2193 C2187 1.429 . S
C2193 C2194 1.523 . S
C2194 C2175 1.368 . S
C2194 C2188 1.368 . S
C2194 C2193 1.523 . S
C2195 C2179 1.429 . S
C2195 C2191 1.429 . S
C2195 C2196 1.523 . S
C2196 C2180 1.368 . S
C2196 C2192 1.368 . S
C2196 C2195 1.523 . S
H2197 C2172 0.950 . S
H2198 C2174 0.950 . S
H2199 C2175 0.949 . S
H2200 C2177 0.950 . S
H2201 C2179 0.950 . S
C2202 C2203 1.349 . S
C2202 C2204 1.327 . S
C2202 H2227 0.950 . S
C2203 C2202 1.349 . S
C2203 C2219 1.349 . S
C2204 C2202 1.327 . S
C2204 C2223 1.429 . S
C2204 H2228 0.950 . S
C2205 C2222 1.574 . S
C2205 C2224 1.368 . S
C2205 H2229 0.949 . S
H2206 C2210 0.949 . S
C2207 C2208 1.349 . S
C2207 C2209 1.327 . S
C2207 H2230 0.950 . S
C2208 C2207 1.349 . S
C2208 C2220 1.349 . S
C2209 C2207 1.327 . S
C2209 C2225 1.429 . S
C2209 H2231 0.950 . S
C2210 H2206 0.949 . S
C2210 C2218 1.574 . S
C2210 C2226 1.368 . S
H2211 C2219 0.950 . S
H2212 C2217 0.950 . S
H2213 C2218 0.949 . S
H2214 C2220 0.950 . S
H2215 C2221 0.950 . S
H2216 C2222 0.949 . S
C2217 H2212 0.950 . S
C2217 C2219 1.327 . S
C2217 C2223 1.429 . S
C2218 C2210 1.574 . S
C2218 H2213 0.949 . S
C2218 C2224 1.368 . S
C2219 C2203 1.349 . S
C2219 H2211 0.950 . S
C2219 C2217 1.327 . S
C2220 C2208 1.349 . S
C2220 H2214 0.950 . S
C2220 C2221 1.327 . S
C2221 H2215 0.950 . S
C2221 C2220 1.327 . S
C2221 C2225 1.429 . S
C2222 C2205 1.574 . S
C2222 H2216 0.949 . S
C2222 C2226 1.368 . S
C2223 C2204 1.429 . S
C2223 C2217 1.429 . S
C2223 C2224 1.523 . S
C2224 C2205 1.368 . S
C2224 C2218 1.368 . S
C2224 C2223 1.523 . S
C2225 C2209 1.429 . S
C2225 C2221 1.429 . S
C2225 C2226 1.523 . S
C2226 C2210 1.368 . S
C2226 C2222 1.368 . S
C2226 C2225 1.523 . S
H2227 C2202 0.950 . S
H2228 C2204 0.950 . S
H2229 C2205 0.949 . S
H2230 C2207 0.950 . S
H2231 C2209 0.950 . S
C2232 C2233 1.349 . S
C2232 C2234 1.327 . S
C2232 H2257 0.950 . S
C2233 C2232 1.349 . S
C2233 C2249 1.349 . S
C2234 C2232 1.327 . S
C2234 C2253 1.429 . S
C2234 H2258 0.950 . S
C2235 C2252 1.574 . S
C2235 C2254 1.368 . S
C2235 H2259 0.949 . S
H2236 C2240 0.949 . S
C2237 C2238 1.349 . S
C2237 C2239 1.327 . S
C2237 H2260 0.950 . S
C2238 C2237 1.349 . S
C2238 C2250 1.349 . S
C2239 C2237 1.327 . S
C2239 C2255 1.429 . S
C2239 H2261 0.950 . S
C2240 H2236 0.949 . S
C2240 C2248 1.574 . S
C2240 C2256 1.368 . S
H2241 C2249 0.950 . S
H2242 C2247 0.950 . S
H2243 C2248 0.949 . S
H2244 C2250 0.950 . S
H2245 C2251 0.950 . S
H2246 C2252 0.949 . S
C2247 H2242 0.950 . S
C2247 C2249 1.327 . S
C2247 C2253 1.429 . S
C2248 C2240 1.574 . S
C2248 H2243 0.949 . S
C2248 C2254 1.368 . S
C2249 C2233 1.349 . S
C2249 H2241 0.950 . S
C2249 C2247 1.327 . S
C2250 C2238 1.349 . S
C2250 H2244 0.950 . S
C2250 C2251 1.327 . S
C2251 H2245 0.950 . S
C2251 C2250 1.327 . S
C2251 C2255 1.429 . S
C2252 C2235 1.574 . S
C2252 H2246 0.949 . S
C2252 C2256 1.368 . S
C2253 C2234 1.429 . S
C2253 C2247 1.429 . S
C2253 C2254 1.523 . S
C2254 C2235 1.368 . S
C2254 C2248 1.368 . S
C2254 C2253 1.523 . S
C2255 C2239 1.429 . S
C2255 C2251 1.429 . S
C2255 C2256 1.523 . S
C2256 C2240 1.368 . S
C2256 C2252 1.368 . S
C2256 C2255 1.523 . S
H2257 C2232 0.950 . S
H2258 C2234 0.950 . S
H2259 C2235 0.949 . S
H2260 C2237 0.950 . S
H2261 C2239 0.950 . S
C2262 C2263 1.349 . S
C2262 C2264 1.327 . S
C2262 H2287 0.950 . S
C2263 C2262 1.349 . S
C2263 C2279 1.349 . S
C2264 C2262 1.327 . S
C2264 C2283 1.429 . S
C2264 H2288 0.950 . S
C2265 C2282 1.574 . S
C2265 C2284 1.368 . S
C2265 H2289 0.949 . S
H2266 C2270 0.949 . S
C2267 C2268 1.349 . S
C2267 C2269 1.327 . S
C2267 H2290 0.950 . S
C2268 C2267 1.349 . S
C2268 C2280 1.349 . S
C2269 C2267 1.327 . S
C2269 C2285 1.429 . S
C2269 H2291 0.950 . S
C2270 H2266 0.949 . S
C2270 C2278 1.574 . S
C2270 C2286 1.368 . S
H2271 C2279 0.950 . S
H2272 C2277 0.950 . S
H2273 C2278 0.949 . S
H2274 C2280 0.950 . S
H2275 C2281 0.950 . S
H2276 C2282 0.949 . S
C2277 H2272 0.950 . S
C2277 C2279 1.327 . S
C2277 C2283 1.429 . S
C2278 C2270 1.574 . S
C2278 H2273 0.949 . S
C2278 C2284 1.368 . S
C2279 C2263 1.349 . S
C2279 H2271 0.950 . S
C2279 C2277 1.327 . S
C2280 C2268 1.349 . S
C2280 H2274 0.950 . S
C2280 C2281 1.327 . S
C2281 H2275 0.950 . S
C2281 C2280 1.327 . S
C2281 C2285 1.429 . S
C2282 C2265 1.574 . S
C2282 H2276 0.949 . S
C2282 C2286 1.368 . S
C2283 C2264 1.429 . S
C2283 C2277 1.429 . S
C2283 C2284 1.523 . S
C2284 C2265 1.368 . S
C2284 C2278 1.368 . S
C2284 C2283 1.523 . S
C2285 C2269 1.429 . S
C2285 C2281 1.429 . S
C2285 C2286 1.523 . S
C2286 C2270 1.368 . S
C2286 C2282 1.368 . S
C2286 C2285 1.523 . S
H2287 C2262 0.950 . S
H2288 C2264 0.950 . S
H2289 C2265 0.949 . S
H2290 C2267 0.950 . S
H2291 C2269 0.950 . S
C2292 C2293 1.349 . S
C2292 C2294 1.327 . S
C2292 H2317 0.950 . S
C2293 C2292 1.349 . S
C2293 C2309 1.349 . S
C2294 C2292 1.327 . S
C2294 C2313 1.429 . S
C2294 H2318 0.950 . S
C2295 C2312 1.574 . S
C2295 C2314 1.368 . S
C2295 H2319 0.949 . S
H2296 C2300 0.949 . S
C2297 C2298 1.349 . S
C2297 C2299 1.327 . S
C2297 H2320 0.950 . S
C2298 C2297 1.349 . S
C2298 C2310 1.349 . S
C2299 C2297 1.327 . S
C2299 C2315 1.429 . S
C2299 H2321 0.950 . S
C2300 H2296 0.949 . S
C2300 C2308 1.574 . S
C2300 C2316 1.368 . S
H2301 C2309 0.950 . S
H2302 C2307 0.950 . S
H2303 C2308 0.949 . S
H2304 C2310 0.950 . S
H2305 C2311 0.950 . S
H2306 C2312 0.949 . S
C2307 H2302 0.950 . S
C2307 C2309 1.327 . S
C2307 C2313 1.429 . S
C2308 C2300 1.574 . S
C2308 H2303 0.949 . S
C2308 C2314 1.368 . S
C2309 C2293 1.349 . S
C2309 H2301 0.950 . S
C2309 C2307 1.327 . S
C2310 C2298 1.349 . S
C2310 H2304 0.950 . S
C2310 C2311 1.327 . S
C2311 H2305 0.950 . S
C2311 C2310 1.327 . S
C2311 C2315 1.429 . S
C2312 C2295 1.574 . S
C2312 H2306 0.949 . S
C2312 C2316 1.368 . S
C2313 C2294 1.429 . S
C2313 C2307 1.429 . S
C2313 C2314 1.523 . S
C2314 C2295 1.368 . S
C2314 C2308 1.368 . S
C2314 C2313 1.523 . S
C2315 C2299 1.429 . S
C2315 C2311 1.429 . S
C2315 C2316 1.523 . S
C2316 C2300 1.368 . S
C2316 C2312 1.368 . S
C2316 C2315 1.523 . S
H2317 C2292 0.950 . S
H2318 C2294 0.950 . S
H2319 C2295 0.949 . S
H2320 C2297 0.950 . S
H2321 C2299 0.950 . S
C2322 C2323 1.349 . S
C2322 C2324 1.327 . S
C2322 H2347 0.950 . S
C2323 C2322 1.349 . S
C2323 C2339 1.349 . S
C2324 C2322 1.327 . S
C2324 C2343 1.429 . S
C2324 H2348 0.950 . S
C2325 C2342 1.574 . S
C2325 C2344 1.368 . S
C2325 H2349 0.949 . S
H2326 C2330 0.949 . S
C2327 C2328 1.349 . S
C2327 C2329 1.327 . S
C2327 H2350 0.950 . S
C2328 C2327 1.349 . S
C2328 C2340 1.349 . S
C2329 C2327 1.327 . S
C2329 C2345 1.429 . S
C2329 H2351 0.950 . S
C2330 H2326 0.949 . S
C2330 C2338 1.574 . S
C2330 C2346 1.368 . S
H2331 C2339 0.950 . S
H2332 C2337 0.950 . S
H2333 C2338 0.949 . S
H2334 C2340 0.950 . S
H2335 C2341 0.950 . S
H2336 C2342 0.949 . S
C2337 H2332 0.950 . S
C2337 C2339 1.327 . S
C2337 C2343 1.429 . S
C2338 C2330 1.574 . S
C2338 H2333 0.949 . S
C2338 C2344 1.368 . S
C2339 C2323 1.349 . S
C2339 H2331 0.950 . S
C2339 C2337 1.327 . S
C2340 C2328 1.349 . S
C2340 H2334 0.950 . S
C2340 C2341 1.327 . S
C2341 H2335 0.950 . S
C2341 C2340 1.327 . S
C2341 C2345 1.429 . S
C2342 C2325 1.574 . S
C2342 H2336 0.949 . S
C2342 C2346 1.368 . S
C2343 C2324 1.429 . S
C2343 C2337 1.429 . S
C2343 C2344 1.523 . S
C2344 C2325 1.368 . S
C2344 C2338 1.368 . S
C2344 C2343 1.523 . S
C2345 C2329 1.429 . S
C2345 C2341 1.429 . S
C2345 C2346 1.523 . S
C2346 C2330 1.368 . S
C2346 C2342 1.368 . S
C2346 C2345 1.523 . S
H2347 C2322 0.950 . S
H2348 C2324 0.950 . S
H2349 C2325 0.949 . S
H2350 C2327 0.950 . S
H2351 C2329 0.950 . S
C2352 C2353 1.349 . S
C2352 C2354 1.327 . S
C2352 H2377 0.950 . S
C2353 C2352 1.349 . S
C2353 C2369 1.349 . S
C2354 C2352 1.327 . S
C2354 C2373 1.429 . S
C2354 H2378 0.950 . S
C2355 C2372 1.574 . S
C2355 C2374 1.368 . S
C2355 H2379 0.949 . S
H2356 C2360 0.949 . S
C2357 C2358 1.349 . S
C2357 C2359 1.327 . S
C2357 H2380 0.950 . S
C2358 C2357 1.349 . S
C2358 C2370 1.349 . S
C2359 C2357 1.327 . S
C2359 C2375 1.429 . S
C2359 H2381 0.950 . S
C2360 H2356 0.949 . S
C2360 C2368 1.574 . S
C2360 C2376 1.368 . S
H2361 C2369 0.950 . S
H2362 C2367 0.950 . S
H2363 C2368 0.949 . S
H2364 C2370 0.950 . S
H2365 C2371 0.950 . S
H2366 C2372 0.949 . S
C2367 H2362 0.950 . S
C2367 C2369 1.327 . S
C2367 C2373 1.429 . S
C2368 C2360 1.574 . S
C2368 H2363 0.949 . S
C2368 C2374 1.368 . S
C2369 C2353 1.349 . S
C2369 H2361 0.950 . S
C2369 C2367 1.327 . S
C2370 C2358 1.349 . S
C2370 H2364 0.950 . S
C2370 C2371 1.327 . S
C2371 H2365 0.950 . S
C2371 C2370 1.327 . S
C2371 C2375 1.429 . S
C2372 C2355 1.574 . S
C2372 H2366 0.949 . S
C2372 C2376 1.368 . S
C2373 C2354 1.429 . S
C2373 C2367 1.429 . S
C2373 C2374 1.523 . S
C2374 C2355 1.368 . S
C2374 C2368 1.368 . S
C2374 C2373 1.523 . S
C2375 C2359 1.429 . S
C2375 C2371 1.429 . S
C2375 C2376 1.523 . S
C2376 C2360 1.368 . S
C2376 C2372 1.368 . S
C2376 C2375 1.523 . S
H2377 C2352 0.950 . S
H2378 C2354 0.950 . S
H2379 C2355 0.949 . S
H2380 C2357 0.950 . S
H2381 C2359 0.950 . S
C2382 C2383 1.349 . S
C2382 C2384 1.327 . S
C2382 H2407 0.950 . S
C2383 C2382 1.349 . S
C2383 C2399 1.349 . S
C2384 C2382 1.327 . S
C2384 C2403 1.429 . S
C2384 H2408 0.950 . S
C2385 C2402 1.574 . S
C2385 C2404 1.368 . S
C2385 H2409 0.949 . S
H2386 C2390 0.949 . S
C2387 C2388 1.349 . S
C2387 C2389 1.327 . S
C2387 H2410 0.950 . S
C2388 C2387 1.349 . S
C2388 C2400 1.349 . S
C2389 C2387 1.327 . S
C2389 C2405 1.429 . S
C2389 H2411 0.950 . S
C2390 H2386 0.949 . S
C2390 C2398 1.574 . S
C2390 C2406 1.368 . S
H2391 C2399 0.950 . S
H2392 C2397 0.950 . S
H2393 C2398 0.949 . S
H2394 C2400 0.950 . S
H2395 C2401 0.950 . S
H2396 C2402 0.949 . S
C2397 H2392 0.950 . S
C2397 C2399 1.327 . S
C2397 C2403 1.429 . S
C2398 C2390 1.574 . S
C2398 H2393 0.949 . S
C2398 C2404 1.368 . S
C2399 C2383 1.349 . S
C2399 H2391 0.950 . S
C2399 C2397 1.327 . S
C2400 C2388 1.349 . S
C2400 H2394 0.950 . S
C2400 C2401 1.327 . S
C2401 H2395 0.950 . S
C2401 C2400 1.327 . S
C2401 C2405 1.429 . S
C2402 C2385 1.574 . S
C2402 H2396 0.949 . S
C2402 C2406 1.368 . S
C2403 C2384 1.429 . S
C2403 C2397 1.429 . S
C2403 C2404 1.523 . S
C2404 C2385 1.368 . S
C2404 C2398 1.368 . S
C2404 C2403 1.523 . S
C2405 C2389 1.429 . S
C2405 C2401 1.429 . S
C2405 C2406 1.523 . S
C2406 C2390 1.368 . S
C2406 C2402 1.368 . S
C2406 C2405 1.523 . S
H2407 C2382 0.950 . S
H2408 C2384 0.950 . S
H2409 C2385 0.949 . S
H2410 C2387 0.950 . S
H2411 C2389 0.950 . S
C2412 C2413 1.349 . S
C2412 C2414 1.327 . S
C2412 H2437 0.950 . S
C2413 C2412 1.349 . S
C2413 C2429 1.349 . S
C2414 C2412 1.327 . S
C2414 C2433 1.429 . S
C2414 H2438 0.950 . S
C2415 C2432 1.574 . S
C2415 C2434 1.368 . S
C2415 H2439 0.949 . S
H2416 C2420 0.949 . S
C2417 C2418 1.349 . S
C2417 C2419 1.327 . S
C2417 H2440 0.950 . S
C2418 C2417 1.349 . S
C2418 C2430 1.349 . S
C2419 C2417 1.327 . S
C2419 C2435 1.429 . S
C2419 H2441 0.950 . S
C2420 H2416 0.949 . S
C2420 C2428 1.574 . S
C2420 C2436 1.368 . S
H2421 C2429 0.950 . S
H2422 C2427 0.950 . S
H2423 C2428 0.949 . S
H2424 C2430 0.950 . S
H2425 C2431 0.950 . S
H2426 C2432 0.949 . S
C2427 H2422 0.950 . S
C2427 C2429 1.327 . S
C2427 C2433 1.429 . S
C2428 C2420 1.574 . S
C2428 H2423 0.949 . S
C2428 C2434 1.368 . S
C2429 C2413 1.349 . S
C2429 H2421 0.950 . S
C2429 C2427 1.327 . S
C2430 C2418 1.349 . S
C2430 H2424 0.950 . S
C2430 C2431 1.327 . S
C2431 H2425 0.950 . S
C2431 C2430 1.327 . S
C2431 C2435 1.429 . S
C2432 C2415 1.574 . S
C2432 H2426 0.949 . S
C2432 C2436 1.368 . S
C2433 C2414 1.429 . S
C2433 C2427 1.429 . S
C2433 C2434 1.523 . S
C2434 C2415 1.368 . S
C2434 C2428 1.368 . S
C2434 C2433 1.523 . S
C2435 C2419 1.429 . S
C2435 C2431 1.429 . S
C2435 C2436 1.523 . S
C2436 C2420 1.368 . S
C2436 C2432 1.368 . S
C2436 C2435 1.523 . S
H2437 C2412 0.950 . S
H2438 C2414 0.950 . S
H2439 C2415 0.949 . S
H2440 C2417 0.950 . S
H2441 C2419 0.950 . S
C2442 C2443 1.349 . S
C2442 C2444 1.327 . S
C2442 H2467 0.950 . S
C2443 C2442 1.349 . S
C2443 C2459 1.349 . S
C2444 C2442 1.327 . S
C2444 C2463 1.429 . S
C2444 H2468 0.950 . S
C2445 C2462 1.574 . S
C2445 C2464 1.368 . S
C2445 H2469 0.949 . S
H2446 C2450 0.949 . S
C2447 C2448 1.349 . S
C2447 C2449 1.327 . S
C2447 H2470 0.950 . S
C2448 C2447 1.349 . S
C2448 C2460 1.349 . S
C2449 C2447 1.327 . S
C2449 C2465 1.429 . S
C2449 H2471 0.950 . S
C2450 H2446 0.949 . S
C2450 C2458 1.574 . S
C2450 C2466 1.368 . S
H2451 C2459 0.950 . S
H2452 C2457 0.950 . S
H2453 C2458 0.949 . S
H2454 C2460 0.950 . S
H2455 C2461 0.950 . S
H2456 C2462 0.949 . S
C2457 H2452 0.950 . S
C2457 C2459 1.327 . S
C2457 C2463 1.429 . S
C2458 C2450 1.574 . S
C2458 H2453 0.949 . S
C2458 C2464 1.368 . S
C2459 C2443 1.349 . S
C2459 H2451 0.950 . S
C2459 C2457 1.327 . S
C2460 C2448 1.349 . S
C2460 H2454 0.950 . S
C2460 C2461 1.327 . S
C2461 H2455 0.950 . S
C2461 C2460 1.327 . S
C2461 C2465 1.429 . S
C2462 C2445 1.574 . S
C2462 H2456 0.949 . S
C2462 C2466 1.368 . S
C2463 C2444 1.429 . S
C2463 C2457 1.429 . S
C2463 C2464 1.523 . S
C2464 C2445 1.368 . S
C2464 C2458 1.368 . S
C2464 C2463 1.523 . S
C2465 C2449 1.429 . S
C2465 C2461 1.429 . S
C2465 C2466 1.523 . S
C2466 C2450 1.368 . S
C2466 C2462 1.368 . S
C2466 C2465 1.523 . S
H2467 C2442 0.950 . S
H2468 C2444 0.950 . S
H2469 C2445 0.949 . S
H2470 C2447 0.950 . S
H2471 C2449 0.950 . S
C2472 C2473 1.349 . S
C2472 C2474 1.327 . S
C2472 H2497 0.950 . S
C2473 C2472 1.349 . S
C2473 C2489 1.349 . S
C2474 C2472 1.327 . S
C2474 C2493 1.429 . S
C2474 H2498 0.950 . S
C2475 C2492 1.574 . S
C2475 C2494 1.368 . S
C2475 H2499 0.949 . S
H2476 C2480 0.949 . S
C2477 C2478 1.349 . S
C2477 C2479 1.327 . S
C2477 H2500 0.950 . S
C2478 C2477 1.349 . S
C2478 C2490 1.349 . S
C2479 C2477 1.327 . S
C2479 C2495 1.429 . S
C2479 H2501 0.950 . S
C2480 H2476 0.949 . S
C2480 C2488 1.574 . S
C2480 C2496 1.368 . S
H2481 C2489 0.950 . S
H2482 C2487 0.950 . S
H2483 C2488 0.949 . S
H2484 C2490 0.950 . S
H2485 C2491 0.950 . S
H2486 C2492 0.949 . S
C2487 H2482 0.950 . S
C2487 C2489 1.327 . S
C2487 C2493 1.429 . S
C2488 C2480 1.574 . S
C2488 H2483 0.949 . S
C2488 C2494 1.368 . S
C2489 C2473 1.349 . S
C2489 H2481 0.950 . S
C2489 C2487 1.327 . S
C2490 C2478 1.349 . S
C2490 H2484 0.950 . S
C2490 C2491 1.327 . S
C2491 H2485 0.950 . S
C2491 C2490 1.327 . S
C2491 C2495 1.429 . S
C2492 C2475 1.574 . S
C2492 H2486 0.949 . S
C2492 C2496 1.368 . S
C2493 C2474 1.429 . S
C2493 C2487 1.429 . S
C2493 C2494 1.523 . S
C2494 C2475 1.368 . S
C2494 C2488 1.368 . S
C2494 C2493 1.523 . S
C2495 C2479 1.429 . S
C2495 C2491 1.429 . S
C2495 C2496 1.523 . S
C2496 C2480 1.368 . S
C2496 C2492 1.368 . S
C2496 C2495 1.523 . S
H2497 C2472 0.950 . S
H2498 C2474 0.950 . S
H2499 C2475 0.949 . S
H2500 C2477 0.950 . S
H2501 C2479 0.950 . S
C2502 C2503 1.349 . S
C2502 C2504 1.327 . S
C2502 H2527 0.950 . S
C2503 C2502 1.349 . S
C2503 C2519 1.349 . S
C2504 C2502 1.327 . S
C2504 C2523 1.429 . S
C2504 H2528 0.950 . S
C2505 C2522 1.574 . S
C2505 C2524 1.368 . S
C2505 H2529 0.949 . S
H2506 C2510 0.949 . S
C2507 C2508 1.349 . S
C2507 C2509 1.327 . S
C2507 H2530 0.950 . S
C2508 C2507 1.349 . S
C2508 C2520 1.349 . S
C2509 C2507 1.327 . S
C2509 C2525 1.429 . S
C2509 H2531 0.950 . S
C2510 H2506 0.949 . S
C2510 C2518 1.574 . S
C2510 C2526 1.368 . S
H2511 C2519 0.950 . S
H2512 C2517 0.950 . S
H2513 C2518 0.949 . S
H2514 C2520 0.950 . S
H2515 C2521 0.950 . S
H2516 C2522 0.949 . S
C2517 H2512 0.950 . S
C2517 C2519 1.327 . S
C2517 C2523 1.429 . S
C2518 C2510 1.574 . S
C2518 H2513 0.949 . S
C2518 C2524 1.368 . S
C2519 C2503 1.349 . S
C2519 H2511 0.950 . S
C2519 C2517 1.327 . S
C2520 C2508 1.349 . S
C2520 H2514 0.950 . S
C2520 C2521 1.327 . S
C2521 H2515 0.950 . S
C2521 C2520 1.327 . S
C2521 C2525 1.429 . S
C2522 C2505 1.574 . S
C2522 H2516 0.949 . S
C2522 C2526 1.368 . S
C2523 C2504 1.429 . S
C2523 C2517 1.429 . S
C2523 C2524 1.523 . S
C2524 C2505 1.368 . S
C2524 C2518 1.368 . S
C2524 C2523 1.523 . S
C2525 C2509 1.429 . S
C2525 C2521 1.429 . S
C2525 C2526 1.523 . S
C2526 C2510 1.368 . S
C2526 C2522 1.368 . S
C2526 C2525 1.523 . S
H2527 C2502 0.950 . S
H2528 C2504 0.950 . S
H2529 C2505 0.949 . S
H2530 C2507 0.950 . S
H2531 C2509 0.950 . S
C2532 C2533 1.349 . S
C2532 C2534 1.327 . S
C2532 H2557 0.950 . S
C2533 C2532 1.349 . S
C2533 C2549 1.349 . S
C2534 C2532 1.327 . S
C2534 C2553 1.429 . S
C2534 H2558 0.950 . S
C2535 C2552 1.574 . S
C2535 C2554 1.368 . S
C2535 H2559 0.949 . S
H2536 C2540 0.949 . S
C2537 C2538 1.349 . S
C2537 C2539 1.327 . S
C2537 H2560 0.950 . S
C2538 C2537 1.349 . S
C2538 C2550 1.349 . S
C2539 C2537 1.327 . S
C2539 C2555 1.429 . S
C2539 H2561 0.950 . S
C2540 H2536 0.949 . S
C2540 C2548 1.574 . S
C2540 C2556 1.368 . S
H2541 C2549 0.950 . S
H2542 C2547 0.950 . S
H2543 C2548 0.949 . S
H2544 C2550 0.950 . S
H2545 C2551 0.950 . S
H2546 C2552 0.949 . S
C2547 H2542 0.950 . S
C2547 C2549 1.327 . S
C2547 C2553 1.429 . S
C2548 C2540 1.574 . S
C2548 H2543 0.949 . S
C2548 C2554 1.368 . S
C2549 C2533 1.349 . S
C2549 H2541 0.950 . S
C2549 C2547 1.327 . S
C2550 C2538 1.349 . S
C2550 H2544 0.950 . S
C2550 C2551 1.327 . S
C2551 H2545 0.950 . S
C2551 C2550 1.327 . S
C2551 C2555 1.429 . S
C2552 C2535 1.574 . S
C2552 H2546 0.949 . S
C2552 C2556 1.368 . S
C2553 C2534 1.429 . S
C2553 C2547 1.429 . S
C2553 C2554 1.523 . S
C2554 C2535 1.368 . S
C2554 C2548 1.368 . S
C2554 C2553 1.523 . S
C2555 C2539 1.429 . S
C2555 C2551 1.429 . S
C2555 C2556 1.523 . S
C2556 C2540 1.368 . S
C2556 C2552 1.368 . S
C2556 C2555 1.523 . S
H2557 C2532 0.950 . S
H2558 C2534 0.950 . S
H2559 C2535 0.949 . S
H2560 C2537 0.950 . S
H2561 C2539 0.950 . S
C2562 C2563 1.349 . S
C2562 C2564 1.327 . S
C2562 H2587 0.950 . S
C2563 C2562 1.349 . S
C2563 C2579 1.349 . S
C2564 C2562 1.327 . S
C2564 C2583 1.429 . S
C2564 H2588 0.950 . S
C2565 C2582 1.574 . S
C2565 C2584 1.368 . S
C2565 H2589 0.949 . S
H2566 C2570 0.949 . S
C2567 C2568 1.349 . S
C2567 C2569 1.327 . S
C2567 H2590 0.950 . S
C2568 C2567 1.349 . S
C2568 C2580 1.349 . S
C2569 C2567 1.327 . S
C2569 C2585 1.429 . S
C2569 H2591 0.950 . S
C2570 H2566 0.949 . S
C2570 C2578 1.574 . S
C2570 C2586 1.368 . S
H2571 C2579 0.950 . S
H2572 C2577 0.950 . S
H2573 C2578 0.949 . S
H2574 C2580 0.950 . S
H2575 C2581 0.950 . S
H2576 C2582 0.949 . S
C2577 H2572 0.950 . S
C2577 C2579 1.327 . S
C2577 C2583 1.429 . S
C2578 C2570 1.574 . S
C2578 H2573 0.949 . S
C2578 C2584 1.368 . S
C2579 C2563 1.349 . S
C2579 H2571 0.950 . S
C2579 C2577 1.327 . S
C2580 C2568 1.349 . S
C2580 H2574 0.950 . S
C2580 C2581 1.327 . S
C2581 H2575 0.950 . S
C2581 C2580 1.327 . S
C2581 C2585 1.429 . S
C2582 C2565 1.574 . S
C2582 H2576 0.949 . S
C2582 C2586 1.368 . S
C2583 C2564 1.429 . S
C2583 C2577 1.429 . S
C2583 C2584 1.523 . S
C2584 C2565 1.368 . S
C2584 C2578 1.368 . S
C2584 C2583 1.523 . S
C2585 C2569 1.429 . S
C2585 C2581 1.429 . S
C2585 C2586 1.523 . S
C2586 C2570 1.368 . S
C2586 C2582 1.368 . S
C2586 C2585 1.523 . S
H2587 C2562 0.950 . S
H2588 C2564 0.950 . S
H2589 C2565 0.949 . S
H2590 C2567 0.950 . S
H2591 C2569 0.950 . S
C2592 C2593 1.349 . S
C2592 C2594 1.327 . S
C2592 H2617 0.950 . S
C2593 C2592 1.349 . S
C2593 C2609 1.349 . S
C2594 C2592 1.327 . S
C2594 C2613 1.429 . S
C2594 H2618 0.950 . S
C2595 C2612 1.574 . S
C2595 C2614 1.368 . S
C2595 H2619 0.949 . S
H2596 C2600 0.949 . S
C2597 C2598 1.349 . S
C2597 C2599 1.327 . S
C2597 H2620 0.950 . S
C2598 C2597 1.349 . S
C2598 C2610 1.349 . S
C2599 C2597 1.327 . S
C2599 C2615 1.429 . S
C2599 H2621 0.950 . S
C2600 H2596 0.949 . S
C2600 C2608 1.574 . S
C2600 C2616 1.368 . S
H2601 C2609 0.950 . S
H2602 C2607 0.950 . S
H2603 C2608 0.949 . S
H2604 C2610 0.950 . S
H2605 C2611 0.950 . S
H2606 C2612 0.949 . S
C2607 H2602 0.950 . S
C2607 C2609 1.327 . S
C2607 C2613 1.429 . S
C2608 C2600 1.574 . S
C2608 H2603 0.949 . S
C2608 C2614 1.368 . S
C2609 C2593 1.349 . S
C2609 H2601 0.950 . S
C2609 C2607 1.327 . S
C2610 C2598 1.349 . S
C2610 H2604 0.950 . S
C2610 C2611 1.327 . S
C2611 H2605 0.950 . S
C2611 C2610 1.327 . S
C2611 C2615 1.429 . S
C2612 C2595 1.574 . S
C2612 H2606 0.949 . S
C2612 C2616 1.368 . S
C2613 C2594 1.429 . S
C2613 C2607 1.429 . S
C2613 C2614 1.523 . S
C2614 C2595 1.368 . S
C2614 C2608 1.368 . S
C2614 C2613 1.523 . S
C2615 C2599 1.429 . S
C2615 C2611 1.429 . S
C2615 C2616 1.523 . S
C2616 C2600 1.368 . S
C2616 C2612 1.368 . S
C2616 C2615 1.523 . S
H2617 C2592 0.950 . S
H2618 C2594 0.950 . S
H2619 C2595 0.949 . S
H2620 C2597 0.950 . S
H2621 C2599 0.950 . S
C2622 C2623 1.349 . S
C2622 C2624 1.327 . S
C2622 H2647 0.950 . S
C2623 C2622 1.349 . S
C2623 C2639 1.349 . S
C2624 C2622 1.327 . S
C2624 C2643 1.429 . S
C2624 H2648 0.950 . S
C2625 C2642 1.574 . S
C2625 C2644 1.368 . S
C2625 H2649 0.949 . S
H2626 C2630 0.949 . S
C2627 C2628 1.349 . S
C2627 C2629 1.327 . S
C2627 H2650 0.950 . S
C2628 C2627 1.349 . S
C2628 C2640 1.349 . S
C2629 C2627 1.327 . S
C2629 C2645 1.429 . S
C2629 H2651 0.950 . S
C2630 H2626 0.949 . S
C2630 C2638 1.574 . S
C2630 C2646 1.368 . S
H2631 C2639 0.950 . S
H2632 C2637 0.950 . S
H2633 C2638 0.949 . S
H2634 C2640 0.950 . S
H2635 C2641 0.950 . S
H2636 C2642 0.949 . S
C2637 H2632 0.950 . S
C2637 C2639 1.327 . S
C2637 C2643 1.429 . S
C2638 C2630 1.574 . S
C2638 H2633 0.949 . S
C2638 C2644 1.368 . S
C2639 C2623 1.349 . S
C2639 H2631 0.950 . S
C2639 C2637 1.327 . S
C2640 C2628 1.349 . S
C2640 H2634 0.950 . S
C2640 C2641 1.327 . S
C2641 H2635 0.950 . S
C2641 C2640 1.327 . S
C2641 C2645 1.429 . S
C2642 C2625 1.574 . S
C2642 H2636 0.949 . S
C2642 C2646 1.368 . S
C2643 C2624 1.429 . S
C2643 C2637 1.429 . S
C2643 C2644 1.523 . S
C2644 C2625 1.368 . S
C2644 C2638 1.368 . S
C2644 C2643 1.523 . S
C2645 C2629 1.429 . S
C2645 C2641 1.429 . S
C2645 C2646 1.523 . S
C2646 C2630 1.368 . S
C2646 C2642 1.368 . S
C2646 C2645 1.523 . S
H2647 C2622 0.950 . S
H2648 C2624 0.950 . S
H2649 C2625 0.949 . S
H2650 C2627 0.950 . S
H2651 C2629 0.950 . S
C2652 C2653 1.349 . S
C2652 C2654 1.327 . S
C2652 H2677 0.950 . S
C2653 C2652 1.349 . S
C2653 C2669 1.349 . S
C2654 C2652 1.327 . S
C2654 C2673 1.429 . S
C2654 H2678 0.950 . S
C2655 C2672 1.574 . S
C2655 C2674 1.368 . S
C2655 H2679 0.949 . S
H2656 C2660 0.949 . S
C2657 C2658 1.349 . S
C2657 C2659 1.327 . S
C2657 H2680 0.950 . S
C2658 C2657 1.349 . S
C2658 C2670 1.349 . S
C2659 C2657 1.327 . S
C2659 C2675 1.429 . S
C2659 H2681 0.950 . S
C2660 H2656 0.949 . S
C2660 C2668 1.574 . S
C2660 C2676 1.368 . S
H2661 C2669 0.950 . S
H2662 C2667 0.950 . S
H2663 C2668 0.949 . S
H2664 C2670 0.950 . S
H2665 C2671 0.950 . S
H2666 C2672 0.949 . S
C2667 H2662 0.950 . S
C2667 C2669 1.327 . S
C2667 C2673 1.429 . S
C2668 C2660 1.574 . S
C2668 H2663 0.949 . S
C2668 C2674 1.368 . S
C2669 C2653 1.349 . S
C2669 H2661 0.950 . S
C2669 C2667 1.327 . S
C2670 C2658 1.349 . S
C2670 H2664 0.950 . S
C2670 C2671 1.327 . S
C2671 H2665 0.950 . S
C2671 C2670 1.327 . S
C2671 C2675 1.429 . S
C2672 C2655 1.574 . S
C2672 H2666 0.949 . S
C2672 C2676 1.368 . S
C2673 C2654 1.429 . S
C2673 C2667 1.429 . S
C2673 C2674 1.523 . S
C2674 C2655 1.368 . S
C2674 C2668 1.368 . S
C2674 C2673 1.523 . S
C2675 C2659 1.429 . S
C2675 C2671 1.429 . S
C2675 C2676 1.523 . S
C2676 C2660 1.368 . S
C2676 C2672 1.368 . S
C2676 C2675 1.523 . S
H2677 C2652 0.950 . S
H2678 C2654 0.950 . S
H2679 C2655 0.949 . S
H2680 C2657 0.950 . S
H2681 C2659 0.950 . S
C2682 C2683 1.349 . S
C2682 C2684 1.327 . S
C2682 H2707 0.950 . S
C2683 C2682 1.349 . S
C2683 C2699 1.349 . S
C2684 C2682 1.327 . S
C2684 C2703 1.429 . S
C2684 H2708 0.950 . S
C2685 C2702 1.574 . S
C2685 C2704 1.368 . S
C2685 H2709 0.949 . S
H2686 C2690 0.949 . S
C2687 C2688 1.349 . S
C2687 C2689 1.327 . S
C2687 H2710 0.950 . S
C2688 C2687 1.349 . S
C2688 C2700 1.349 . S
C2689 C2687 1.327 . S
C2689 C2705 1.429 . S
C2689 H2711 0.950 . S
C2690 H2686 0.949 . S
C2690 C2698 1.574 . S
C2690 C2706 1.368 . S
H2691 C2699 0.950 . S
H2692 C2697 0.950 . S
H2693 C2698 0.949 . S
H2694 C2700 0.950 . S
H2695 C2701 0.950 . S
H2696 C2702 0.949 . S
C2697 H2692 0.950 . S
C2697 C2699 1.327 . S
C2697 C2703 1.429 . S
C2698 C2690 1.574 . S
C2698 H2693 0.949 . S
C2698 C2704 1.368 . S
C2699 C2683 1.349 . S
C2699 H2691 0.950 . S
C2699 C2697 1.327 . S
C2700 C2688 1.349 . S
C2700 H2694 0.950 . S
C2700 C2701 1.327 . S
C2701 H2695 0.950 . S
C2701 C2700 1.327 . S
C2701 C2705 1.429 . S
C2702 C2685 1.574 . S
C2702 H2696 0.949 . S
C2702 C2706 1.368 . S
C2703 C2684 1.429 . S
C2703 C2697 1.429 . S
C2703 C2704 1.523 . S
C2704 C2685 1.368 . S
C2704 C2698 1.368 . S
C2704 C2703 1.523 . S
C2705 C2689 1.429 . S
C2705 C2701 1.429 . S
C2705 C2706 1.523 . S
C2706 C2690 1.368 . S
C2706 C2702 1.368 . S
C2706 C2705 1.523 . S
H2707 C2682 0.950 . S
H2708 C2684 0.950 . S
H2709 C2685 0.949 . S
H2710 C2687 0.950 . S
H2711 C2689 0.950 . S
C2712 C2713 1.349 . S
C2712 C2714 1.327 . S
C2712 H2737 0.950 . S
C2713 C2712 1.349 . S
C2713 C2729 1.349 . S
C2714 C2712 1.327 . S
C2714 C2733 1.429 . S
C2714 H2738 0.950 . S
C2715 C2732 1.574 . S
C2715 C2734 1.368 . S
C2715 H2739 0.949 . S
H2716 C2720 0.949 . S
C2717 C2718 1.349 . S
C2717 C2719 1.327 . S
C2717 H2740 0.950 . S
C2718 C2717 1.349 . S
C2718 C2730 1.349 . S
C2719 C2717 1.327 . S
C2719 C2735 1.429 . S
C2719 H2741 0.950 . S
C2720 H2716 0.949 . S
C2720 C2728 1.574 . S
C2720 C2736 1.368 . S
H2721 C2729 0.950 . S
H2722 C2727 0.950 . S
H2723 C2728 0.949 . S
H2724 C2730 0.950 . S
H2725 C2731 0.950 . S
H2726 C2732 0.949 . S
C2727 H2722 0.950 . S
C2727 C2729 1.327 . S
C2727 C2733 1.429 . S
C2728 C2720 1.574 . S
C2728 H2723 0.949 . S
C2728 C2734 1.368 . S
C2729 C2713 1.349 . S
C2729 H2721 0.950 . S
C2729 C2727 1.327 . S
C2730 C2718 1.349 . S
C2730 H2724 0.950 . S
C2730 C2731 1.327 . S
C2731 H2725 0.950 . S
C2731 C2730 1.327 . S
C2731 C2735 1.429 . S
C2732 C2715 1.574 . S
C2732 H2726 0.949 . S
C2732 C2736 1.368 . S
C2733 C2714 1.429 . S
C2733 C2727 1.429 . S
C2733 C2734 1.523 . S
C2734 C2715 1.368 . S
C2734 C2728 1.368 . S
C2734 C2733 1.523 . S
C2735 C2719 1.429 . S
C2735 C2731 1.429 . S
C2735 C2736 1.523 . S
C2736 C2720 1.368 . S
C2736 C2732 1.368 . S
C2736 C2735 1.523 . S
H2737 C2712 0.950 . S
H2738 C2714 0.950 . S
H2739 C2715 0.949 . S
H2740 C2717 0.950 . S
H2741 C2719 0.950 . S
C2742 C2743 1.349 . S
C2742 C2744 1.327 . S
C2742 H2767 0.950 . S
C2743 C2742 1.349 . S
C2743 C2759 1.349 . S
C2744 C2742 1.327 . S
C2744 C2763 1.429 . S
C2744 H2768 0.950 . S
C2745 C2762 1.574 . S
C2745 C2764 1.368 . S
C2745 H2769 0.949 . S
H2746 C2750 0.949 . S
C2747 C2748 1.349 . S
C2747 C2749 1.327 . S
C2747 H2770 0.950 . S
C2748 C2747 1.349 . S
C2748 C2760 1.349 . S
C2749 C2747 1.327 . S
C2749 C2765 1.429 . S
C2749 H2771 0.950 . S
C2750 H2746 0.949 . S
C2750 C2758 1.574 . S
C2750 C2766 1.368 . S
H2751 C2759 0.950 . S
H2752 C2757 0.950 . S
H2753 C2758 0.949 . S
H2754 C2760 0.950 . S
H2755 C2761 0.950 . S
H2756 C2762 0.949 . S
C2757 H2752 0.950 . S
C2757 C2759 1.327 . S
C2757 C2763 1.429 . S
C2758 C2750 1.574 . S
C2758 H2753 0.949 . S
C2758 C2764 1.368 . S
C2759 C2743 1.349 . S
C2759 H2751 0.950 . S
C2759 C2757 1.327 . S
C2760 C2748 1.349 . S
C2760 H2754 0.950 . S
C2760 C2761 1.327 . S
C2761 H2755 0.950 . S
C2761 C2760 1.327 . S
C2761 C2765 1.429 . S
C2762 C2745 1.574 . S
C2762 H2756 0.949 . S
C2762 C2766 1.368 . S
C2763 C2744 1.429 . S
C2763 C2757 1.429 . S
C2763 C2764 1.523 . S
C2764 C2745 1.368 . S
C2764 C2758 1.368 . S
C2764 C2763 1.523 . S
C2765 C2749 1.429 . S
C2765 C2761 1.429 . S
C2765 C2766 1.523 . S
C2766 C2750 1.368 . S
C2766 C2762 1.368 . S
C2766 C2765 1.523 . S
H2767 C2742 0.950 . S
H2768 C2744 0.950 . S
H2769 C2745 0.949 . S
H2770 C2747 0.950 . S
H2771 C2749 0.950 . S
C2772 C2773 1.349 . S
C2772 C2774 1.327 . S
C2772 H2797 0.950 . S
C2773 C2772 1.349 . S
C2773 C2789 1.349 . S
C2774 C2772 1.327 . S
C2774 C2793 1.429 . S
C2774 H2798 0.950 . S
C2775 C2792 1.574 . S
C2775 C2794 1.368 . S
C2775 H2799 0.949 . S
H2776 C2780 0.949 . S
C2777 C2778 1.349 . S
C2777 C2779 1.327 . S
C2777 H2800 0.950 . S
C2778 C2777 1.349 . S
C2778 C2790 1.349 . S
C2779 C2777 1.327 . S
C2779 C2795 1.429 . S
C2779 H2801 0.950 . S
C2780 H2776 0.949 . S
C2780 C2788 1.574 . S
C2780 C2796 1.368 . S
H2781 C2789 0.950 . S
H2782 C2787 0.950 . S
H2783 C2788 0.949 . S
H2784 C2790 0.950 . S
H2785 C2791 0.950 . S
H2786 C2792 0.949 . S
C2787 H2782 0.950 . S
C2787 C2789 1.327 . S
C2787 C2793 1.429 . S
C2788 C2780 1.574 . S
C2788 H2783 0.949 . S
C2788 C2794 1.368 . S
C2789 C2773 1.349 . S
C2789 H2781 0.950 . S
C2789 C2787 1.327 . S
C2790 C2778 1.349 . S
C2790 H2784 0.950 . S
C2790 C2791 1.327 . S
C2791 H2785 0.950 . S
C2791 C2790 1.327 . S
C2791 C2795 1.429 . S
C2792 C2775 1.574 . S
C2792 H2786 0.949 . S
C2792 C2796 1.368 . S
C2793 C2774 1.429 . S
C2793 C2787 1.429 . S
C2793 C2794 1.523 . S
C2794 C2775 1.368 . S
C2794 C2788 1.368 . S
C2794 C2793 1.523 . S
C2795 C2779 1.429 . S
C2795 C2791 1.429 . S
C2795 C2796 1.523 . S
C2796 C2780 1.368 . S
C2796 C2792 1.368 . S
C2796 C2795 1.523 . S
H2797 C2772 0.950 . S
H2798 C2774 0.950 . S
H2799 C2775 0.949 . S
H2800 C2777 0.950 . S
H2801 C2779 0.950 . S
C2802 C2803 1.349 . S
C2802 C2804 1.327 . S
C2802 H2827 0.950 . S
C2803 C2802 1.349 . S
C2803 C2819 1.349 . S
C2804 C2802 1.327 . S
C2804 C2823 1.429 . S
C2804 H2828 0.950 . S
C2805 C2822 1.574 . S
C2805 C2824 1.368 . S
C2805 H2829 0.949 . S
H2806 C2810 0.949 . S
C2807 C2808 1.349 . S
C2807 C2809 1.327 . S
C2807 H2830 0.950 . S
C2808 C2807 1.349 . S
C2808 C2820 1.349 . S
C2809 C2807 1.327 . S
C2809 C2825 1.429 . S
C2809 H2831 0.950 . S
C2810 H2806 0.949 . S
C2810 C2818 1.574 . S
C2810 C2826 1.368 . S
H2811 C2819 0.950 . S
H2812 C2817 0.950 . S
H2813 C2818 0.949 . S
H2814 C2820 0.950 . S
H2815 C2821 0.950 . S
H2816 C2822 0.949 . S
C2817 H2812 0.950 . S
C2817 C2819 1.327 . S
C2817 C2823 1.429 . S
C2818 C2810 1.574 . S
C2818 H2813 0.949 . S
C2818 C2824 1.368 . S
C2819 C2803 1.349 . S
C2819 H2811 0.950 . S
C2819 C2817 1.327 . S
C2820 C2808 1.349 . S
C2820 H2814 0.950 . S
C2820 C2821 1.327 . S
C2821 H2815 0.950 . S
C2821 C2820 1.327 . S
C2821 C2825 1.429 . S
C2822 C2805 1.574 . S
C2822 H2816 0.949 . S
C2822 C2826 1.368 . S
C2823 C2804 1.429 . S
C2823 C2817 1.429 . S
C2823 C2824 1.523 . S
C2824 C2805 1.368 . S
C2824 C2818 1.368 . S
C2824 C2823 1.523 . S
C2825 C2809 1.429 . S
C2825 C2821 1.429 . S
C2825 C2826 1.523 . S
C2826 C2810 1.368 . S
C2826 C2822 1.368 . S
C2826 C2825 1.523 . S
H2827 C2802 0.950 . S
H2828 C2804 0.950 . S
H2829 C2805 0.949 . S
H2830 C2807 0.950 . S
H2831 C2809 0.950 . S
C2832 C2833 1.349 . S
C2832 C2834 1.327 . S
C2832 H2857 0.950 . S
C2833 C2832 1.349 . S
C2833 C2849 1.349 . S
C2834 C2832 1.327 . S
C2834 C2853 1.429 . S
C2834 H2858 0.950 . S
C2835 C2852 1.574 . S
C2835 C2854 1.368 . S
C2835 H2859 0.949 . S
H2836 C2840 0.949 . S
C2837 C2838 1.349 . S
C2837 C2839 1.327 . S
C2837 H2860 0.950 . S
C2838 C2837 1.349 . S
C2838 C2850 1.349 . S
C2839 C2837 1.327 . S
C2839 C2855 1.429 . S
C2839 H2861 0.950 . S
C2840 H2836 0.949 . S
C2840 C2848 1.574 . S
C2840 C2856 1.368 . S
H2841 C2849 0.950 . S
H2842 C2847 0.950 . S
H2843 C2848 0.949 . S
H2844 C2850 0.950 . S
H2845 C2851 0.950 . S
H2846 C2852 0.949 . S
C2847 H2842 0.950 . S
C2847 C2849 1.327 . S
C2847 C2853 1.429 . S
C2848 C2840 1.574 . S
C2848 H2843 0.949 . S
C2848 C2854 1.368 . S
C2849 C2833 1.349 . S
C2849 H2841 0.950 . S
C2849 C2847 1.327 . S
C2850 C2838 1.349 . S
C2850 H2844 0.950 . S
C2850 C2851 1.327 . S
C2851 H2845 0.950 . S
C2851 C2850 1.327 . S
C2851 C2855 1.429 . S
C2852 C2835 1.574 . S
C2852 H2846 0.949 . S
C2852 C2856 1.368 . S
C2853 C2834 1.429 . S
C2853 C2847 1.429 . S
C2853 C2854 1.523 . S
C2854 C2835 1.368 . S
C2854 C2848 1.368 . S
C2854 C2853 1.523 . S
C2855 C2839 1.429 . S
C2855 C2851 1.429 . S
C2855 C2856 1.523 . S
C2856 C2840 1.368 . S
C2856 C2852 1.368 . S
C2856 C2855 1.523 . S
H2857 C2832 0.950 . S
H2858 C2834 0.950 . S
H2859 C2835 0.949 . S
H2860 C2837 0.950 . S
H2861 C2839 0.950 . S
C2862 C2863 1.349 . S
C2862 C2864 1.327 . S
C2862 H2887 0.950 . S
C2863 C2862 1.349 . S
C2863 C2879 1.349 . S
C2864 C2862 1.327 . S
C2864 C2883 1.429 . S
C2864 H2888 0.950 . S
C2865 C2882 1.574 . S
C2865 C2884 1.368 . S
C2865 H2889 0.949 . S
H2866 C2870 0.949 . S
C2867 C2868 1.349 . S
C2867 C2869 1.327 . S
C2867 H2890 0.950 . S
C2868 C2867 1.349 . S
C2868 C2880 1.349 . S
C2869 C2867 1.327 . S
C2869 C2885 1.429 . S
C2869 H2891 0.950 . S
C2870 H2866 0.949 . S
C2870 C2878 1.574 . S
C2870 C2886 1.368 . S
H2871 C2879 0.950 . S
H2872 C2877 0.950 . S
H2873 C2878 0.949 . S
H2874 C2880 0.950 . S
H2875 C2881 0.950 . S
H2876 C2882 0.949 . S
C2877 H2872 0.950 . S
C2877 C2879 1.327 . S
C2877 C2883 1.429 . S
C2878 C2870 1.574 . S
C2878 H2873 0.949 . S
C2878 C2884 1.368 . S
C2879 C2863 1.349 . S
C2879 H2871 0.950 . S
C2879 C2877 1.327 . S
C2880 C2868 1.349 . S
C2880 H2874 0.950 . S
C2880 C2881 1.327 . S
C2881 H2875 0.950 . S
C2881 C2880 1.327 . S
C2881 C2885 1.429 . S
C2882 C2865 1.574 . S
C2882 H2876 0.949 . S
C2882 C2886 1.368 . S
C2883 C2864 1.429 . S
C2883 C2877 1.429 . S
C2883 C2884 1.523 . S
C2884 C2865 1.368 . S
C2884 C2878 1.368 . S
C2884 C2883 1.523 . S
C2885 C2869 1.429 . S
C2885 C2881 1.429 . S
C2885 C2886 1.523 . S
C2886 C2870 1.368 . S
C2886 C2882 1.368 . S
C2886 C2885 1.523 . S
H2887 C2862 0.950 . S
H2888 C2864 0.950 . S
H2889 C2865 0.949 . S
H2890 C2867 0.950 . S
H2891 C2869 0.950 . S
C2892 C2893 1.349 . S
C2892 C2894 1.327 . S
C2892 H2917 0.950 . S
C2893 C2892 1.349 . S
C2893 C2909 1.349 . S
C2894 C2892 1.327 . S
C2894 C2913 1.429 . S
C2894 H2918 0.950 . S
C2895 C2912 1.574 . S
C2895 C2914 1.368 . S
C2895 H2919 0.949 . S
H2896 C2900 0.949 . S
C2897 C2898 1.349 . S
C2897 C2899 1.327 . S
C2897 H2920 0.950 . S
C2898 C2897 1.349 . S
C2898 C2910 1.349 . S
C2899 C2897 1.327 . S
C2899 C2915 1.429 . S
C2899 H2921 0.950 . S
C2900 H2896 0.949 . S
C2900 C2908 1.574 . S
C2900 C2916 1.368 . S
H2901 C2909 0.950 . S
H2902 C2907 0.950 . S
H2903 C2908 0.949 . S
H2904 C2910 0.950 . S
H2905 C2911 0.950 . S
H2906 C2912 0.949 . S
C2907 H2902 0.950 . S
C2907 C2909 1.327 . S
C2907 C2913 1.429 . S
C2908 C2900 1.574 . S
C2908 H2903 0.949 . S
C2908 C2914 1.368 . S
C2909 C2893 1.349 . S
C2909 H2901 0.950 . S
C2909 C2907 1.327 . S
C2910 C2898 1.349 . S
C2910 H2904 0.950 . S
C2910 C2911 1.327 . S
C2911 H2905 0.950 . S
C2911 C2910 1.327 . S
C2911 C2915 1.429 . S
C2912 C2895 1.574 . S
C2912 H2906 0.949 . S
C2912 C2916 1.368 . S
C2913 C2894 1.429 . S
C2913 C2907 1.429 . S
C2913 C2914 1.523 . S
C2914 C2895 1.368 . S
C2914 C2908 1.368 . S
C2914 C2913 1.523 . S
C2915 C2899 1.429 . S
C2915 C2911 1.429 . S
C2915 C2916 1.523 . S
C2916 C2900 1.368 . S
C2916 C2912 1.368 . S
C2916 C2915 1.523 . S
H2917 C2892 0.950 . S
H2918 C2894 0.950 . S
H2919 C2895 0.949 . S
H2920 C2897 0.950 . S
H2921 C2899 0.950 . S
C2922 C2923 1.349 . S
C2922 C2924 1.327 . S
C2922 H2947 0.950 . S
C2923 C2922 1.349 . S
C2923 C2939 1.349 . S
C2924 C2922 1.327 . S
C2924 C2943 1.429 . S
C2924 H2948 0.950 . S
C2925 C2942 1.574 . S
C2925 C2944 1.368 . S
C2925 H2949 0.949 . S
H2926 C2930 0.949 . S
C2927 C2928 1.349 . S
C2927 C2929 1.327 . S
C2927 H2950 0.950 . S
C2928 C2927 1.349 . S
C2928 C2940 1.349 . S
C2929 C2927 1.327 . S
C2929 C2945 1.429 . S
C2929 H2951 0.950 . S
C2930 H2926 0.949 . S
C2930 C2938 1.574 . S
C2930 C2946 1.368 . S
H2931 C2939 0.950 . S
H2932 C2937 0.950 . S
H2933 C2938 0.949 . S
H2934 C2940 0.950 . S
H2935 C2941 0.950 . S
H2936 C2942 0.949 . S
C2937 H2932 0.950 . S
C2937 C2939 1.327 . S
C2937 C2943 1.429 . S
C2938 C2930 1.574 . S
C2938 H2933 0.949 . S
C2938 C2944 1.368 . S
C2939 C2923 1.349 . S
C2939 H2931 0.950 . S
C2939 C2937 1.327 . S
C2940 C2928 1.349 . S
C2940 H2934 0.950 . S
C2940 C2941 1.327 . S
C2941 H2935 0.950 . S
C2941 C2940 1.327 . S
C2941 C2945 1.429 . S
C2942 C2925 1.574 . S
C2942 H2936 0.949 . S
C2942 C2946 1.368 . S
C2943 C2924 1.429 . S
C2943 C2937 1.429 . S
C2943 C2944 1.523 . S
C2944 C2925 1.368 . S
C2944 C2938 1.368 . S
C2944 C2943 1.523 . S
C2945 C2929 1.429 . S
C2945 C2941 1.429 . S
C2945 C2946 1.523 . S
C2946 C2930 1.368 . S
C2946 C2942 1.368 . S
C2946 C2945 1.523 . S
H2947 C2922 0.950 . S
H2948 C2924 0.950 . S
H2949 C2925 0.949 . S
H2950 C2927 0.950 . S
H2951 C2929 0.950 . S
C2952 C2953 1.349 . S
C2952 C2954 1.327 . S
C2952 H2977 0.950 . S
C2953 C2952 1.349 . S
C2953 C2969 1.349 . S
C2954 C2952 1.327 . S
C2954 C2973 1.429 . S
C2954 H2978 0.950 . S
C2955 C2972 1.574 . S
C2955 C2974 1.368 . S
C2955 H2979 0.949 . S
H2956 C2960 0.949 . S
C2957 C2958 1.349 . S
C2957 C2959 1.327 . S
C2957 H2980 0.950 . S
C2958 C2957 1.349 . S
C2958 C2970 1.349 . S
C2959 C2957 1.327 . S
C2959 C2975 1.429 . S
C2959 H2981 0.950 . S
C2960 H2956 0.949 . S
C2960 C2968 1.574 . S
C2960 C2976 1.368 . S
H2961 C2969 0.950 . S
H2962 C2967 0.950 . S
H2963 C2968 0.949 . S
H2964 C2970 0.950 . S
H2965 C2971 0.950 . S
H2966 C2972 0.949 . S
C2967 H2962 0.950 . S
C2967 C2969 1.327 . S
C2967 C2973 1.429 . S
C2968 C2960 1.574 . S
C2968 H2963 0.949 . S
C2968 C2974 1.368 . S
C2969 C2953 1.349 . S
C2969 H2961 0.950 . S
C2969 C2967 1.327 . S
C2970 C2958 1.349 . S
C2970 H2964 0.950 . S
C2970 C2971 1.327 . S
C2971 H2965 0.950 . S
C2971 C2970 1.327 . S
C2971 C2975 1.429 . S
C2972 C2955 1.574 . S
C2972 H2966 0.949 . S
C2972 C2976 1.368 . S
C2973 C2954 1.429 . S
C2973 C2967 1.429 . S
C2973 C2974 1.523 . S
C2974 C2955 1.368 . S
C2974 C2968 1.368 . S
C2974 C2973 1.523 . S
C2975 C2959 1.429 . S
C2975 C2971 1.429 . S
C2975 C2976 1.523 . S
C2976 C2960 1.368 . S
C2976 C2972 1.368 . S
C2976 C2975 1.523 . S
H2977 C2952 0.950 . S
H2978 C2954 0.950 . S
H2979 C2955 0.949 . S
H2980 C2957 0.950 . S
H2981 C2959 0.950 . S
C2982 C2983 1.349 . S
C2982 C2984 1.327 . S
C2982 H3007 0.950 . S
C2983 C2982 1.349 . S
C2983 C2999 1.349 . S
C2984 C2982 1.327 . S
C2984 C3003 1.429 . S
C2984 H3008 0.950 . S
C2985 C3002 1.574 . S
C2985 C3004 1.368 . S
C2985 H3009 0.949 . S
H2986 C2990 0.949 . S
C2987 C2988 1.349 . S
C2987 C2989 1.327 . S
C2987 H3010 0.950 . S
C2988 C2987 1.349 . S
C2988 C3000 1.349 . S
C2989 C2987 1.327 . S
C2989 C3005 1.429 . S
C2989 H3011 0.950 . S
C2990 H2986 0.949 . S
C2990 C2998 1.574 . S
C2990 C3006 1.368 . S
H2991 C2999 0.950 . S
H2992 C2997 0.950 . S
H2993 C2998 0.949 . S
H2994 C3000 0.950 . S
H2995 C3001 0.950 . S
H2996 C3002 0.949 . S
C2997 H2992 0.950 . S
C2997 C2999 1.327 . S
C2997 C3003 1.429 . S
C2998 C2990 1.574 . S
C2998 H2993 0.949 . S
C2998 C3004 1.368 . S
C2999 C2983 1.349 . S
C2999 H2991 0.950 . S
C2999 C2997 1.327 . S
C3000 C2988 1.349 . S
C3000 H2994 0.950 . S
C3000 C3001 1.327 . S
C3001 H2995 0.950 . S
C3001 C3000 1.327 . S
C3001 C3005 1.429 . S
C3002 C2985 1.574 . S
C3002 H2996 0.949 . S
C3002 C3006 1.368 . S
C3003 C2984 1.429 . S
C3003 C2997 1.429 . S
C3003 C3004 1.523 . S
C3004 C2985 1.368 . S
C3004 C2998 1.368 . S
C3004 C3003 1.523 . S
C3005 C2989 1.429 . S
C3005 C3001 1.429 . S
C3005 C3006 1.523 . S
C3006 C2990 1.368 . S
C3006 C3002 1.368 . S
C3006 C3005 1.523 . S
H3007 C2982 0.950 . S
H3008 C2984 0.950 . S
H3009 C2985 0.949 . S
H3010 C2987 0.950 . S
H3011 C2989 0.950 . S
C3012 C3013 1.349 . S
C3012 C3014 1.327 . S
C3012 H3037 0.950 . S
C3013 C3012 1.349 . S
C3013 C3029 1.349 . S
C3014 C3012 1.327 . S
C3014 C3033 1.429 . S
C3014 H3038 0.950 . S
C3015 C3032 1.574 . S
C3015 C3034 1.368 . S
C3015 H3039 0.949 . S
H3016 C3020 0.949 . S
C3017 C3018 1.349 . S
C3017 C3019 1.327 . S
C3017 H3040 0.950 . S
C3018 C3017 1.349 . S
C3018 C3030 1.349 . S
C3019 C3017 1.327 . S
C3019 C3035 1.429 . S
C3019 H3041 0.950 . S
C3020 H3016 0.949 . S
C3020 C3028 1.574 . S
C3020 C3036 1.368 . S
H3021 C3029 0.950 . S
H3022 C3027 0.950 . S
H3023 C3028 0.949 . S
H3024 C3030 0.950 . S
H3025 C3031 0.950 . S
H3026 C3032 0.949 . S
C3027 H3022 0.950 . S
C3027 C3029 1.327 . S
C3027 C3033 1.429 . S
C3028 C3020 1.574 . S
C3028 H3023 0.949 . S
C3028 C3034 1.368 . S
C3029 C3013 1.349 . S
C3029 H3021 0.950 . S
C3029 C3027 1.327 . S
C3030 C3018 1.349 . S
C3030 H3024 0.950 . S
C3030 C3031 1.327 . S
C3031 H3025 0.950 . S
C3031 C3030 1.327 . S
C3031 C3035 1.429 . S
C3032 C3015 1.574 . S
C3032 H3026 0.949 . S
C3032 C3036 1.368 . S
C3033 C3014 1.429 . S
C3033 C3027 1.429 . S
C3033 C3034 1.523 . S
C3034 C3015 1.368 . S
C3034 C3028 1.368 . S
C3034 C3033 1.523 . S
C3035 C3019 1.429 . S
C3035 C3031 1.429 . S
C3035 C3036 1.523 . S
C3036 C3020 1.368 . S
C3036 C3032 1.368 . S
C3036 C3035 1.523 . S
H3037 C3012 0.950 . S
H3038 C3014 0.950 . S
H3039 C3015 0.949 . S
H3040 C3017 0.950 . S
H3041 C3019 0.950 . S
C3042 C3043 1.349 . S
C3042 C3044 1.327 . S
C3042 H3067 0.950 . S
C3043 C3042 1.349 . S
C3043 C3059 1.349 . S
C3044 C3042 1.327 . S
C3044 C3063 1.429 . S
C3044 H3068 0.950 . S
C3045 C3062 1.574 . S
C3045 C3064 1.368 . S
C3045 H3069 0.949 . S
H3046 C3050 0.949 . S
C3047 C3048 1.349 . S
C3047 C3049 1.327 . S
C3047 H3070 0.950 . S
C3048 C3047 1.349 . S
C3048 C3060 1.349 . S
C3049 C3047 1.327 . S
C3049 C3065 1.429 . S
C3049 H3071 0.950 . S
C3050 H3046 0.949 . S
C3050 C3058 1.574 . S
C3050 C3066 1.368 . S
H3051 C3059 0.950 . S
H3052 C3057 0.950 . S
H3053 C3058 0.949 . S
H3054 C3060 0.950 . S
H3055 C3061 0.950 . S
H3056 C3062 0.949 . S
C3057 H3052 0.950 . S
C3057 C3059 1.327 . S
C3057 C3063 1.429 . S
C3058 C3050 1.574 . S
C3058 H3053 0.949 . S
C3058 C3064 1.368 . S
C3059 C3043 1.349 . S
C3059 H3051 0.950 . S
C3059 C3057 1.327 . S
C3060 C3048 1.349 . S
C3060 H3054 0.950 . S
C3060 C3061 1.327 . S
C3061 H3055 0.950 . S
C3061 C3060 1.327 . S
C3061 C3065 1.429 . S
C3062 C3045 1.574 . S
C3062 H3056 0.949 . S
C3062 C3066 1.368 . S
C3063 C3044 1.429 . S
C3063 C3057 1.429 . S
C3063 C3064 1.523 . S
C3064 C3045 1.368 . S
C3064 C3058 1.368 . S
C3064 C3063 1.523 . S
C3065 C3049 1.429 . S
C3065 C3061 1.429 . S
C3065 C3066 1.523 . S
C3066 C3050 1.368 . S
C3066 C3062 1.368 . S
C3066 C3065 1.523 . S
H3067 C3042 0.950 . S
H3068 C3044 0.950 . S
H3069 C3045 0.949 . S
H3070 C3047 0.950 . S
H3071 C3049 0.950 . S
C3072 C3073 1.349 . S
C3072 C3074 1.327 . S
C3072 H3097 0.950 . S
C3073 C3072 1.349 . S
C3073 C3089 1.349 . S
C3074 C3072 1.327 . S
C3074 C3093 1.429 . S
C3074 H3098 0.950 . S
C3075 C3092 1.574 . S
C3075 C3094 1.368 . S
C3075 H3099 0.949 . S
H3076 C3080 0.949 . S
C3077 C3078 1.349 . S
C3077 C3079 1.327 . S
C3077 H3100 0.950 . S
C3078 C3077 1.349 . S
C3078 C3090 1.349 . S
C3079 C3077 1.327 . S
C3079 C3095 1.429 . S
C3079 H3101 0.950 . S
C3080 H3076 0.949 . S
C3080 C3088 1.574 . S
C3080 C3096 1.368 . S
H3081 C3089 0.950 . S
H3082 C3087 0.950 . S
H3083 C3088 0.949 . S
H3084 C3090 0.950 . S
H3085 C3091 0.950 . S
H3086 C3092 0.949 . S
C3087 H3082 0.950 . S
C3087 C3089 1.327 . S
C3087 C3093 1.429 . S
C3088 C3080 1.574 . S
C3088 H3083 0.949 . S
C3088 C3094 1.368 . S
C3089 C3073 1.349 . S
C3089 H3081 0.950 . S
C3089 C3087 1.327 . S
C3090 C3078 1.349 . S
C3090 H3084 0.950 . S
C3090 C3091 1.327 . S
C3091 H3085 0.950 . S
C3091 C3090 1.327 . S
C3091 C3095 1.429 . S
C3092 C3075 1.574 . S
C3092 H3086 0.949 . S
C3092 C3096 1.368 . S
C3093 C3074 1.429 . S
C3093 C3087 1.429 . S
C3093 C3094 1.523 . S
C3094 C3075 1.368 . S
C3094 C3088 1.368 . S
C3094 C3093 1.523 . S
C3095 C3079 1.429 . S
C3095 C3091 1.429 . S
C3095 C3096 1.523 . S
C3096 C3080 1.368 . S
C3096 C3092 1.368 . S
C3096 C3095 1.523 . S
H3097 C3072 0.950 . S
H3098 C3074 0.950 . S
H3099 C3075 0.949 . S
H3100 C3077 0.950 . S
H3101 C3079 0.950 . S
C3102 C3103 1.349 . S
C3102 C3104 1.327 . S
C3102 H3127 0.950 . S
C3103 C3102 1.349 . S
C3103 C3119 1.349 . S
C3104 C3102 1.327 . S
C3104 C3123 1.429 . S
C3104 H3128 0.950 . S
C3105 C3122 1.574 . S
C3105 C3124 1.368 . S
C3105 H3129 0.949 . S
H3106 C3110 0.949 . S
C3107 C3108 1.349 . S
C3107 C3109 1.327 . S
C3107 H3130 0.950 . S
C3108 C3107 1.349 . S
C3108 C3120 1.349 . S
C3109 C3107 1.327 . S
C3109 C3125 1.429 . S
C3109 H3131 0.950 . S
C3110 H3106 0.949 . S
C3110 C3118 1.574 . S
C3110 C3126 1.368 . S
H3111 C3119 0.950 . S
H3112 C3117 0.950 . S
H3113 C3118 0.949 . S
H3114 C3120 0.950 . S
H3115 C3121 0.950 . S
H3116 C3122 0.949 . S
C3117 H3112 0.950 . S
C3117 C3119 1.327 . S
C3117 C3123 1.429 . S
C3118 C3110 1.574 . S
C3118 H3113 0.949 . S
C3118 C3124 1.368 . S
C3119 C3103 1.349 . S
C3119 H3111 0.950 . S
C3119 C3117 1.327 . S
C3120 C3108 1.349 . S
C3120 H3114 0.950 . S
C3120 C3121 1.327 . S
C3121 H3115 0.950 . S
C3121 C3120 1.327 . S
C3121 C3125 1.429 . S
C3122 C3105 1.574 . S
C3122 H3116 0.949 . S
C3122 C3126 1.368 . S
C3123 C3104 1.429 . S
C3123 C3117 1.429 . S
C3123 C3124 1.523 . S
C3124 C3105 1.368 . S
C3124 C3118 1.368 . S
C3124 C3123 1.523 . S
C3125 C3109 1.429 . S
C3125 C3121 1.429 . S
C3125 C3126 1.523 . S
C3126 C3110 1.368 . S
C3126 C3122 1.368 . S
C3126 C3125 1.523 . S
H3127 C3102 0.950 . S
H3128 C3104 0.950 . S
H3129 C3105 0.949 . S
H3130 C3107 0.950 . S
H3131 C3109 0.950 . S
C3132 C3133 1.349 . S
C3132 C3134 1.327 . S
C3132 H3157 0.950 . S
C3133 C3132 1.349 . S
C3133 C3149 1.349 . S
C3134 C3132 1.327 . S
C3134 C3153 1.429 . S
C3134 H3158 0.950 . S
C3135 C3152 1.574 . S
C3135 C3154 1.368 . S
C3135 H3159 0.949 . S
H3136 C3140 0.949 . S
C3137 C3138 1.349 . S
C3137 C3139 1.327 . S
C3137 H3160 0.950 . S
C3138 C3137 1.349 . S
C3138 C3150 1.349 . S
C3139 C3137 1.327 . S
C3139 C3155 1.429 . S
C3139 H3161 0.950 . S
C3140 H3136 0.949 . S
C3140 C3148 1.574 . S
C3140 C3156 1.368 . S
H3141 C3149 0.950 . S
H3142 C3147 0.950 . S
H3143 C3148 0.949 . S
H3144 C3150 0.950 . S
H3145 C3151 0.950 . S
H3146 C3152 0.949 . S
C3147 H3142 0.950 . S
C3147 C3149 1.327 . S
C3147 C3153 1.429 . S
C3148 C3140 1.574 . S
C3148 H3143 0.949 . S
C3148 C3154 1.368 . S
C3149 C3133 1.349 . S
C3149 H3141 0.950 . S
C3149 C3147 1.327 . S
C3150 C3138 1.349 . S
C3150 H3144 0.950 . S
C3150 C3151 1.327 . S
C3151 H3145 0.950 . S
C3151 C3150 1.327 . S
C3151 C3155 1.429 . S
C3152 C3135 1.574 . S
C3152 H3146 0.949 . S
C3152 C3156 1.368 . S
C3153 C3134 1.429 . S
C3153 C3147 1.429 . S
C3153 C3154 1.523 . S
C3154 C3135 1.368 . S
C3154 C3148 1.368 . S
C3154 C3153 1.523 . S
C3155 C3139 1.429 . S
C3155 C3151 1.429 . S
C3155 C3156 1.523 . S
C3156 C3140 1.368 . S
C3156 C3152 1.368 . S
C3156 C3155 1.523 . S
H3157 C3132 0.950 . S
H3158 C3134 0.950 . S
H3159 C3135 0.949 . S
H3160 C3137 0.950 . S
H3161 C3139 0.950 . S
C3162 C3163 1.349 . S
C3162 C3164 1.327 . S
C3162 H3187 0.950 . S
C3163 C3162 1.349 . S
C3163 C3179 1.349 . S
C3164 C3162 1.327 . S
C3164 C3183 1.429 . S
C3164 H3188 0.950 . S
C3165 C3182 1.574 . S
C3165 C3184 1.368 . S
C3165 H3189 0.949 . S
H3166 C3170 0.949 . S
C3167 C3168 1.349 . S
C3167 C3169 1.327 . S
C3167 H3190 0.950 . S
C3168 C3167 1.349 . S
C3168 C3180 1.349 . S
C3169 C3167 1.327 . S
C3169 C3185 1.429 . S
C3169 H3191 0.950 . S
C3170 H3166 0.949 . S
C3170 C3178 1.574 . S
C3170 C3186 1.368 . S
H3171 C3179 0.950 . S
H3172 C3177 0.950 . S
H3173 C3178 0.949 . S
H3174 C3180 0.950 . S
H3175 C3181 0.950 . S
H3176 C3182 0.949 . S
C3177 H3172 0.950 . S
C3177 C3179 1.327 . S
C3177 C3183 1.429 . S
C3178 C3170 1.574 . S
C3178 H3173 0.949 . S
C3178 C3184 1.368 . S
C3179 C3163 1.349 . S
C3179 H3171 0.950 . S
C3179 C3177 1.327 . S
C3180 C3168 1.349 . S
C3180 H3174 0.950 . S
C3180 C3181 1.327 . S
C3181 H3175 0.950 . S
C3181 C3180 1.327 . S
C3181 C3185 1.429 . S
C3182 C3165 1.574 . S
C3182 H3176 0.949 . S
C3182 C3186 1.368 . S
C3183 C3164 1.429 . S
C3183 C3177 1.429 . S
C3183 C3184 1.523 . S
C3184 C3165 1.368 . S
C3184 C3178 1.368 . S
C3184 C3183 1.523 . S
C3185 C3169 1.429 . S
C3185 C3181 1.429 . S
C3185 C3186 1.523 . S
C3186 C3170 1.368 . S
C3186 C3182 1.368 . S
C3186 C3185 1.523 . S
H3187 C3162 0.950 . S
H3188 C3164 0.950 . S
H3189 C3165 0.949 . S
H3190 C3167 0.950 . S
H3191 C3169 0.950 . S
C3192 C3193 1.349 . S
C3192 C3194 1.327 . S
C3192 H3217 0.950 . S
C3193 C3192 1.349 . S
C3193 C3209 1.349 . S
C3194 C3192 1.327 . S
C3194 C3213 1.429 . S
C3194 H3218 0.950 . S
C3195 C3212 1.574 . S
C3195 C3214 1.368 . S
C3195 H3219 0.949 . S
H3196 C3200 0.949 . S
C3197 C3198 1.349 . S
C3197 C3199 1.327 . S
C3197 H3220 0.950 . S
C3198 C3197 1.349 . S
C3198 C3210 1.349 . S
C3199 C3197 1.327 . S
C3199 C3215 1.429 . S
C3199 H3221 0.950 . S
C3200 H3196 0.949 . S
C3200 C3208 1.574 . S
C3200 C3216 1.368 . S
H3201 C3209 0.950 . S
H3202 C3207 0.950 . S
H3203 C3208 0.949 . S
H3204 C3210 0.950 . S
H3205 C3211 0.950 . S
H3206 C3212 0.949 . S
C3207 H3202 0.950 . S
C3207 C3209 1.327 . S
C3207 C3213 1.429 . S
C3208 C3200 1.574 . S
C3208 H3203 0.949 . S
C3208 C3214 1.368 . S
C3209 C3193 1.349 . S
C3209 H3201 0.950 . S
C3209 C3207 1.327 . S
C3210 C3198 1.349 . S
C3210 H3204 0.950 . S
C3210 C3211 1.327 . S
C3211 H3205 0.950 . S
C3211 C3210 1.327 . S
C3211 C3215 1.429 . S
C3212 C3195 1.574 . S
C3212 H3206 0.949 . S
C3212 C3216 1.368 . S
C3213 C3194 1.429 . S
C3213 C3207 1.429 . S
C3213 C3214 1.523 . S
C3214 C3195 1.368 . S
C3214 C3208 1.368 . S
C3214 C3213 1.523 . S
C3215 C3199 1.429 . S
C3215 C3211 1.429 . S
C3215 C3216 1.523 . S
C3216 C3200 1.368 . S
C3216 C3212 1.368 . S
C3216 C3215 1.523 . S
H3217 C3192 0.950 . S
H3218 C3194 0.950 . S
H3219 C3195 0.949 . S
H3220 C3197 0.950 . S
H3221 C3199 0.950 . S
C3222 C3223 1.349 . S
C3222 C3224 1.327 . S
C3222 H3247 0.950 . S
C3223 C3222 1.349 . S
C3223 C3239 1.349 . S
C3224 C3222 1.327 . S
C3224 C3243 1.429 . S
C3224 H3248 0.950 . S
C3225 C3242 1.574 . S
C3225 C3244 1.368 . S
C3225 H3249 0.949 . S
H3226 C3230 0.949 . S
C3227 C3228 1.349 . S
C3227 C3229 1.327 . S
C3227 H3250 0.950 . S
C3228 C3227 1.349 . S
C3228 C3240 1.349 . S
C3229 C3227 1.327 . S
C3229 C3245 1.429 . S
C3229 H3251 0.950 . S
C3230 H3226 0.949 . S
C3230 C3238 1.574 . S
C3230 C3246 1.368 . S
H3231 C3239 0.950 . S
H3232 C3237 0.950 . S
H3233 C3238 0.949 . S
H3234 C3240 0.950 . S
H3235 C3241 0.950 . S
H3236 C3242 0.949 . S
C3237 H3232 0.950 . S
C3237 C3239 1.327 . S
C3237 C3243 1.429 . S
C3238 C3230 1.574 . S
C3238 H3233 0.949 . S
C3238 C3244 1.368 . S
C3239 C3223 1.349 . S
C3239 H3231 0.950 . S
C3239 C3237 1.327 . S
C3240 C3228 1.349 . S
C3240 H3234 0.950 . S
C3240 C3241 1.327 . S
C3241 H3235 0.950 . S
C3241 C3240 1.327 . S
C3241 C3245 1.429 . S
C3242 C3225 1.574 . S
C3242 H3236 0.949 . S
C3242 C3246 1.368 . S
C3243 C3224 1.429 . S
C3243 C3237 1.429 . S
C3243 C3244 1.523 . S
C3244 C3225 1.368 . S
C3244 C3238 1.368 . S
C3244 C3243 1.523 . S
C3245 C3229 1.429 . S
C3245 C3241 1.429 . S
C3245 C3246 1.523 . S
C3246 C3230 1.368 . S
C3246 C3242 1.368 . S
C3246 C3245 1.523 . S
H3247 C3222 0.950 . S
H3248 C3224 0.950 . S
H3249 C3225 0.949 . S
H3250 C3227 0.950 . S
H3251 C3229 0.950 . S
C3252 C3253 1.349 . S
C3252 C3254 1.327 . S
C3252 H3277 0.950 . S
C3253 C3252 1.349 . S
C3253 C3269 1.349 . S
C3254 C3252 1.327 . S
C3254 C3273 1.429 . S
C3254 H3278 0.950 . S
C3255 C3272 1.574 . S
C3255 C3274 1.368 . S
C3255 H3279 0.949 . S
H3256 C3260 0.949 . S
C3257 C3258 1.349 . S
C3257 C3259 1.327 . S
C3257 H3280 0.950 . S
C3258 C3257 1.349 . S
C3258 C3270 1.349 . S
C3259 C3257 1.327 . S
C3259 C3275 1.429 . S
C3259 H3281 0.950 . S
C3260 H3256 0.949 . S
C3260 C3268 1.574 . S
C3260 C3276 1.368 . S
H3261 C3269 0.950 . S
H3262 C3267 0.950 . S
H3263 C3268 0.949 . S
H3264 C3270 0.950 . S
H3265 C3271 0.950 . S
H3266 C3272 0.949 . S
C3267 H3262 0.950 . S
C3267 C3269 1.327 . S
C3267 C3273 1.429 . S
C3268 C3260 1.574 . S
C3268 H3263 0.949 . S
C3268 C3274 1.368 . S
C3269 C3253 1.349 . S
C3269 H3261 0.950 . S
C3269 C3267 1.327 . S
C3270 C3258 1.349 . S
C3270 H3264 0.950 . S
C3270 C3271 1.327 . S
C3271 H3265 0.950 . S
C3271 C3270 1.327 . S
C3271 C3275 1.429 . S
C3272 C3255 1.574 . S
C3272 H3266 0.949 . S
C3272 C3276 1.368 . S
C3273 C3254 1.429 . S
C3273 C3267 1.429 . S
C3273 C3274 1.523 . S
C3274 C3255 1.368 . S
C3274 C3268 1.368 . S
C3274 C3273 1.523 . S
C3275 C3259 1.429 . S
C3275 C3271 1.429 . S
C3275 C3276 1.523 . S
C3276 C3260 1.368 . S
C3276 C3272 1.368 . S
C3276 C3275 1.523 . S
H3277 C3252 0.950 . S
H3278 C3254 0.950 . S
H3279 C3255 0.949 . S
H3280 C3257 0.950 . S
H3281 C3259 0.950 . S
C3282 C3283 1.349 . S
C3282 C3284 1.327 . S
C3282 H3307 0.950 . S
C3283 C3282 1.349 . S
C3283 C3299 1.349 . S
C3284 C3282 1.327 . S
C3284 C3303 1.429 . S
C3284 H3308 0.950 . S
C3285 C3302 1.574 . S
C3285 C3304 1.368 . S
C3285 H3309 0.949 . S
H3286 C3290 0.949 . S
C3287 C3288 1.349 . S
C3287 C3289 1.327 . S
C3287 H3310 0.950 . S
C3288 C3287 1.349 . S
C3288 C3300 1.349 . S
C3289 C3287 1.327 . S
C3289 C3305 1.429 . S
C3289 H3311 0.950 . S
C3290 H3286 0.949 . S
C3290 C3298 1.574 . S
C3290 C3306 1.368 . S
H3291 C3299 0.950 . S
H3292 C3297 0.950 . S
H3293 C3298 0.949 . S
H3294 C3300 0.950 . S
H3295 C3301 0.950 . S
H3296 C3302 0.949 . S
C3297 H3292 0.950 . S
C3297 C3299 1.327 . S
C3297 C3303 1.429 . S
C3298 C3290 1.574 . S
C3298 H3293 0.949 . S
C3298 C3304 1.368 . S
C3299 C3283 1.349 . S
C3299 H3291 0.950 . S
C3299 C3297 1.327 . S
C3300 C3288 1.349 . S
C3300 H3294 0.950 . S
C3300 C3301 1.327 . S
C3301 H3295 0.950 . S
C3301 C3300 1.327 . S
C3301 C3305 1.429 . S
C3302 C3285 1.574 . S
C3302 H3296 0.949 . S
C3302 C3306 1.368 . S
C3303 C3284 1.429 . S
C3303 C3297 1.429 . S
C3303 C3304 1.523 . S
C3304 C3285 1.368 . S
C3304 C3298 1.368 . S
C3304 C3303 1.523 . S
C3305 C3289 1.429 . S
C3305 C3301 1.429 . S
C3305 C3306 1.523 . S
C3306 C3290 1.368 . S
C3306 C3302 1.368 . S
C3306 C3305 1.523 . S
H3307 C3282 0.950 . S
H3308 C3284 0.950 . S
H3309 C3285 0.949 . S
H3310 C3287 0.950 . S
H3311 C3289 0.950 . S
C3312 C3313 1.349 . S
C3312 C3314 1.327 . S
C3312 H3337 0.950 . S
C3313 C3312 1.349 . S
C3313 C3329 1.349 . S
C3314 C3312 1.327 . S
C3314 C3333 1.429 . S
C3314 H3338 0.950 . S
C3315 C3332 1.574 . S
C3315 C3334 1.368 . S
C3315 H3339 0.949 . S
H3316 C3320 0.949 . S
C3317 C3318 1.349 . S
C3317 C3319 1.327 . S
C3317 H3340 0.950 . S
C3318 C3317 1.349 . S
C3318 C3330 1.349 . S
C3319 C3317 1.327 . S
C3319 C3335 1.429 . S
C3319 H3341 0.950 . S
C3320 H3316 0.949 . S
C3320 C3328 1.574 . S
C3320 C3336 1.368 . S
H3321 C3329 0.950 . S
H3322 C3327 0.950 . S
H3323 C3328 0.949 . S
H3324 C3330 0.950 . S
H3325 C3331 0.950 . S
H3326 C3332 0.949 . S
C3327 H3322 0.950 . S
C3327 C3329 1.327 . S
C3327 C3333 1.429 . S
C3328 C3320 1.574 . S
C3328 H3323 0.949 . S
C3328 C3334 1.368 . S
C3329 C3313 1.349 . S
C3329 H3321 0.950 . S
C3329 C3327 1.327 . S
C3330 C3318 1.349 . S
C3330 H3324 0.950 . S
C3330 C3331 1.327 . S
C3331 H3325 0.950 . S
C3331 C3330 1.327 . S
C3331 C3335 1.429 . S
C3332 C3315 1.574 . S
C3332 H3326 0.949 . S
C3332 C3336 1.368 . S
C3333 C3314 1.429 . S
C3333 C3327 1.429 . S
C3333 C3334 1.523 . S
C3334 C3315 1.368 . S
C3334 C3328 1.368 . S
C3334 C3333 1.523 . S
C3335 C3319 1.429 . S
C3335 C3331 1.429 . S
C3335 C3336 1.523 . S
C3336 C3320 1.368 . S
C3336 C3332 1.368 . S
C3336 C3335 1.523 . S
H3337 C3312 0.950 . S
H3338 C3314 0.950 . S
H3339 C3315 0.949 . S
H3340 C3317 0.950 . S
H3341 C3319 0.950 . S
C3342 C3343 1.349 . S
C3342 C3344 1.327 . S
C3342 H3367 0.950 . S
C3343 C3342 1.349 . S
C3343 C3359 1.349 . S
C3344 C3342 1.327 . S
C3344 C3363 1.429 . S
C3344 H3368 0.950 . S
C3345 C3362 1.574 . S
C3345 C3364 1.368 . S
C3345 H3369 0.949 . S
H3346 C3350 0.949 . S
C3347 C3348 1.349 . S
C3347 C3349 1.327 . S
C3347 H3370 0.950 . S
C3348 C3347 1.349 . S
C3348 C3360 1.349 . S
C3349 C3347 1.327 . S
C3349 C3365 1.429 . S
C3349 H3371 0.950 . S
C3350 H3346 0.949 . S
C3350 C3358 1.574 . S
C3350 C3366 1.368 . S
H3351 C3359 0.950 . S
H3352 C3357 0.950 . S
H3353 C3358 0.949 . S
H3354 C3360 0.950 . S
H3355 C3361 0.950 . S
H3356 C3362 0.949 . S
C3357 H3352 0.950 . S
C3357 C3359 1.327 . S
C3357 C3363 1.429 . S
C3358 C3350 1.574 . S
C3358 H3353 0.949 . S
C3358 C3364 1.368 . S
C3359 C3343 1.349 . S
C3359 H3351 0.950 . S
C3359 C3357 1.327 . S
C3360 C3348 1.349 . S
C3360 H3354 0.950 . S
C3360 C3361 1.327 . S
C3361 H3355 0.950 . S
C3361 C3360 1.327 . S
C3361 C3365 1.429 . S
C3362 C3345 1.574 . S
C3362 H3356 0.949 . S
C3362 C3366 1.368 . S
C3363 C3344 1.429 . S
C3363 C3357 1.429 . S
C3363 C3364 1.523 . S
C3364 C3345 1.368 . S
C3364 C3358 1.368 . S
C3364 C3363 1.523 . S
C3365 C3349 1.429 . S
C3365 C3361 1.429 . S
C3365 C3366 1.523 . S
C3366 C3350 1.368 . S
C3366 C3362 1.368 . S
C3366 C3365 1.523 . S
H3367 C3342 0.950 . S
H3368 C3344 0.950 . S
H3369 C3345 0.949 . S
H3370 C3347 0.950 . S
H3371 C3349 0.950 . S
C3372 C3373 1.349 . S
C3372 C3374 1.327 . S
C3372 H3397 0.950 . S
C3373 C3372 1.349 . S
C3373 C3389 1.349 . S
C3374 C3372 1.327 . S
C3374 C3393 1.429 . S
C3374 H3398 0.950 . S
C3375 C3392 1.574 . S
C3375 C3394 1.368 . S
C3375 H3399 0.949 . S
H3376 C3380 0.949 . S
C3377 C3378 1.349 . S
C3377 C3379 1.327 . S
C3377 H3400 0.950 . S
C3378 C3377 1.349 . S
C3378 C3390 1.349 . S
C3379 C3377 1.327 . S
C3379 C3395 1.429 . S
C3379 H3401 0.950 . S
C3380 H3376 0.949 . S
C3380 C3388 1.574 . S
C3380 C3396 1.368 . S
H3381 C3389 0.950 . S
H3382 C3387 0.950 . S
H3383 C3388 0.949 . S
H3384 C3390 0.950 . S
H3385 C3391 0.950 . S
H3386 C3392 0.949 . S
C3387 H3382 0.950 . S
C3387 C3389 1.327 . S
C3387 C3393 1.429 . S
C3388 C3380 1.574 . S
C3388 H3383 0.949 . S
C3388 C3394 1.368 . S
C3389 C3373 1.349 . S
C3389 H3381 0.950 . S
C3389 C3387 1.327 . S
C3390 C3378 1.349 . S
C3390 H3384 0.950 . S
C3390 C3391 1.327 . S
C3391 H3385 0.950 . S
C3391 C3390 1.327 . S
C3391 C3395 1.429 . S
C3392 C3375 1.574 . S
C3392 H3386 0.949 . S
C3392 C3396 1.368 . S
C3393 C3374 1.429 . S
C3393 C3387 1.429 . S
C3393 C3394 1.523 . S
C3394 C3375 1.368 . S
C3394 C3388 1.368 . S
C3394 C3393 1.523 . S
C3395 C3379 1.429 . S
C3395 C3391 1.429 . S
C3395 C3396 1.523 . S
C3396 C3380 1.368 . S
C3396 C3392 1.368 . S
C3396 C3395 1.523 . S
H3397 C3372 0.950 . S
H3398 C3374 0.950 . S
H3399 C3375 0.949 . S
H3400 C3377 0.950 . S
H3401 C3379 0.950 . S
C3402 C3403 1.349 . S
C3402 C3404 1.327 . S
C3402 H3427 0.950 . S
C3403 C3402 1.349 . S
C3403 C3419 1.349 . S
C3404 C3402 1.327 . S
C3404 C3423 1.429 . S
C3404 H3428 0.950 . S
C3405 C3422 1.574 . S
C3405 C3424 1.368 . S
C3405 H3429 0.949 . S
H3406 C3410 0.949 . S
C3407 C3408 1.349 . S
C3407 C3409 1.327 . S
C3407 H3430 0.950 . S
C3408 C3407 1.349 . S
C3408 C3420 1.349 . S
C3409 C3407 1.327 . S
C3409 C3425 1.429 . S
C3409 H3431 0.950 . S
C3410 H3406 0.949 . S
C3410 C3418 1.574 . S
C3410 C3426 1.368 . S
H3411 C3419 0.950 . S
H3412 C3417 0.950 . S
H3413 C3418 0.949 . S
H3414 C3420 0.950 . S
H3415 C3421 0.950 . S
H3416 C3422 0.949 . S
C3417 H3412 0.950 . S
C3417 C3419 1.327 . S
C3417 C3423 1.429 . S
C3418 C3410 1.574 . S
C3418 H3413 0.949 . S
C3418 C3424 1.368 . S
C3419 C3403 1.349 . S
C3419 H3411 0.950 . S
C3419 C3417 1.327 . S
C3420 C3408 1.349 . S
C3420 H3414 0.950 . S
C3420 C3421 1.327 . S
C3421 H3415 0.950 . S
C3421 C3420 1.327 . S
C3421 C3425 1.429 . S
C3422 C3405 1.574 . S
C3422 H3416 0.949 . S
C3422 C3426 1.368 . S
C3423 C3404 1.429 . S
C3423 C3417 1.429 . S
C3423 C3424 1.523 . S
C3424 C3405 1.368 . S
C3424 C3418 1.368 . S
C3424 C3423 1.523 . S
C3425 C3409 1.429 . S
C3425 C3421 1.429 . S
C3425 C3426 1.523 . S
C3426 C3410 1.368 . S
C3426 C3422 1.368 . S
C3426 C3425 1.523 . S
H3427 C3402 0.950 . S
H3428 C3404 0.950 . S
H3429 C3405 0.949 . S
H3430 C3407 0.950 . S
H3431 C3409 0.950 . S
C3432 C3433 1.349 . S
C3432 C3434 1.327 . S
C3432 H3457 0.950 . S
C3433 C3432 1.349 . S
C3433 C3449 1.349 . S
C3434 C3432 1.327 . S
C3434 C3453 1.429 . S
C3434 H3458 0.950 . S
C3435 C3452 1.574 . S
C3435 C3454 1.368 . S
C3435 H3459 0.949 . S
H3436 C3440 0.949 . S
C3437 C3438 1.349 . S
C3437 C3439 1.327 . S
C3437 H3460 0.950 . S
C3438 C3437 1.349 . S
C3438 C3450 1.349 . S
C3439 C3437 1.327 . S
C3439 C3455 1.429 . S
C3439 H3461 0.950 . S
C3440 H3436 0.949 . S
C3440 C3448 1.574 . S
C3440 C3456 1.368 . S
H3441 C3449 0.950 . S
H3442 C3447 0.950 . S
H3443 C3448 0.949 . S
H3444 C3450 0.950 . S
H3445 C3451 0.950 . S
H3446 C3452 0.949 . S
C3447 H3442 0.950 . S
C3447 C3449 1.327 . S
C3447 C3453 1.429 . S
C3448 C3440 1.574 . S
C3448 H3443 0.949 . S
C3448 C3454 1.368 . S
C3449 C3433 1.349 . S
C3449 H3441 0.950 . S
C3449 C3447 1.327 . S
C3450 C3438 1.349 . S
C3450 H3444 0.950 . S
C3450 C3451 1.327 . S
C3451 H3445 0.950 . S
C3451 C3450 1.327 . S
C3451 C3455 1.429 . S
C3452 C3435 1.574 . S
C3452 H3446 0.949 . S
C3452 C3456 1.368 . S
C3453 C3434 1.429 . S
C3453 C3447 1.429 . S
C3453 C3454 1.523 . S
C3454 C3435 1.368 . S
C3454 C3448 1.368 . S
C3454 C3453 1.523 . S
C3455 C3439 1.429 . S
C3455 C3451 1.429 . S
C3455 C3456 1.523 . S
C3456 C3440 1.368 . S
C3456 C3452 1.368 . S
C3456 C3455 1.523 . S
H3457 C3432 0.950 . S
H3458 C3434 0.950 . S
H3459 C3435 0.949 . S
H3460 C3437 0.950 . S
H3461 C3439 0.950 . S
C3462 C3463 1.349 . S
C3462 C3464 1.327 . S
C3462 H3487 0.950 . S
C3463 C3462 1.349 . S
C3463 C3479 1.349 . S
C3464 C3462 1.327 . S
C3464 C3483 1.429 . S
C3464 H3488 0.950 . S
C3465 C3482 1.574 . S
C3465 C3484 1.368 . S
C3465 H3489 0.949 . S
H3466 C3470 0.949 . S
C3467 C3468 1.349 . S
C3467 C3469 1.327 . S
C3467 H3490 0.950 . S
C3468 C3467 1.349 . S
C3468 C3480 1.349 . S
C3469 C3467 1.327 . S
C3469 C3485 1.429 . S
C3469 H3491 0.950 . S
C3470 H3466 0.949 . S
C3470 C3478 1.574 . S
C3470 C3486 1.368 . S
H3471 C3479 0.950 . S
H3472 C3477 0.950 . S
H3473 C3478 0.949 . S
H3474 C3480 0.950 . S
H3475 C3481 0.950 . S
H3476 C3482 0.949 . S
C3477 H3472 0.950 . S
C3477 C3479 1.327 . S
C3477 C3483 1.429 . S
C3478 C3470 1.574 . S
C3478 H3473 0.949 . S
C3478 C3484 1.368 . S
C3479 C3463 1.349 . S
C3479 H3471 0.950 . S
C3479 C3477 1.327 . S
C3480 C3468 1.349 . S
C3480 H3474 0.950 . S
C3480 C3481 1.327 . S
C3481 H3475 0.950 . S
C3481 C3480 1.327 . S
C3481 C3485 1.429 . S
C3482 C3465 1.574 . S
C3482 H3476 0.949 . S
C3482 C3486 1.368 . S
C3483 C3464 1.429 . S
C3483 C3477 1.429 . S
C3483 C3484 1.523 . S
C3484 C3465 1.368 . S
C3484 C3478 1.368 . S
C3484 C3483 1.523 . S
C3485 C3469 1.429 . S
C3485 C3481 1.429 . S
C3485 C3486 1.523 . S
C3486 C3470 1.368 . S
C3486 C3482 1.368 . S
C3486 C3485 1.523 . S
H3487 C3462 0.950 . S
H3488 C3464 0.950 . S
H3489 C3465 0.949 . S
H3490 C3467 0.950 . S
H3491 C3469 0.950 . S
C3492 C3493 1.349 . S
C3492 C3494 1.327 . S
C3492 H3517 0.950 . S
C3493 C3492 1.349 . S
C3493 C3509 1.349 . S
C3494 C3492 1.327 . S
C3494 C3513 1.429 . S
C3494 H3518 0.950 . S
C3495 C3512 1.574 . S
C3495 C3514 1.368 . S
C3495 H3519 0.949 . S
H3496 C3500 0.949 . S
C3497 C3498 1.349 . S
C3497 C3499 1.327 . S
C3497 H3520 0.950 . S
C3498 C3497 1.349 . S
C3498 C3510 1.349 . S
C3499 C3497 1.327 . S
C3499 C3515 1.429 . S
C3499 H3521 0.950 . S
C3500 H3496 0.949 . S
C3500 C3508 1.574 . S
C3500 C3516 1.368 . S
H3501 C3509 0.950 . S
H3502 C3507 0.950 . S
H3503 C3508 0.949 . S
H3504 C3510 0.950 . S
H3505 C3511 0.950 . S
H3506 C3512 0.949 . S
C3507 H3502 0.950 . S
C3507 C3509 1.327 . S
C3507 C3513 1.429 . S
C3508 C3500 1.574 . S
C3508 H3503 0.949 . S
C3508 C3514 1.368 . S
C3509 C3493 1.349 . S
C3509 H3501 0.950 . S
C3509 C3507 1.327 . S
C3510 C3498 1.349 . S
C3510 H3504 0.950 . S
C3510 C3511 1.327 . S
C3511 H3505 0.950 . S
C3511 C3510 1.327 . S
C3511 C3515 1.429 . S
C3512 C3495 1.574 . S
C3512 H3506 0.949 . S
C3512 C3516 1.368 . S
C3513 C3494 1.429 . S
C3513 C3507 1.429 . S
C3513 C3514 1.523 . S
C3514 C3495 1.368 . S
C3514 C3508 1.368 . S
C3514 C3513 1.523 . S
C3515 C3499 1.429 . S
C3515 C3511 1.429 . S
C3515 C3516 1.523 . S
C3516 C3500 1.368 . S
C3516 C3512 1.368 . S
C3516 C3515 1.523 . S
H3517 C3492 0.950 . S
H3518 C3494 0.950 . S
H3519 C3495 0.949 . S
H3520 C3497 0.950 . S
H3521 C3499 0.950 . S
C3522 C3523 1.349 . S
C3522 C3524 1.327 . S
C3522 H3547 0.950 . S
C3523 C3522 1.349 . S
C3523 C3539 1.349 . S
C3524 C3522 1.327 . S
C3524 C3543 1.429 . S
C3524 H3548 0.950 . S
C3525 C3542 1.574 . S
C3525 C3544 1.368 . S
C3525 H3549 0.949 . S
H3526 C3530 0.949 . S
C3527 C3528 1.349 . S
C3527 C3529 1.327 . S
C3527 H3550 0.950 . S
C3528 C3527 1.349 . S
C3528 C3540 1.349 . S
C3529 C3527 1.327 . S
C3529 C3545 1.429 . S
C3529 H3551 0.950 . S
C3530 H3526 0.949 . S
C3530 C3538 1.574 . S
C3530 C3546 1.368 . S
H3531 C3539 0.950 . S
H3532 C3537 0.950 . S
H3533 C3538 0.949 . S
H3534 C3540 0.950 . S
H3535 C3541 0.950 . S
H3536 C3542 0.949 . S
C3537 H3532 0.950 . S
C3537 C3539 1.327 . S
C3537 C3543 1.429 . S
C3538 C3530 1.574 . S
C3538 H3533 0.949 . S
C3538 C3544 1.368 . S
C3539 C3523 1.349 . S
C3539 H3531 0.950 . S
C3539 C3537 1.327 . S
C3540 C3528 1.349 . S
C3540 H3534 0.950 . S
C3540 C3541 1.327 . S
C3541 H3535 0.950 . S
C3541 C3540 1.327 . S
C3541 C3545 1.429 . S
C3542 C3525 1.574 . S
C3542 H3536 0.949 . S
C3542 C3546 1.368 . S
C3543 C3524 1.429 . S
C3543 C3537 1.429 . S
C3543 C3544 1.523 . S
C3544 C3525 1.368 . S
C3544 C3538 1.368 . S
C3544 C3543 1.523 . S
C3545 C3529 1.429 . S
C3545 C3541 1.429 . S
C3545 C3546 1.523 . S
C3546 C3530 1.368 . S
C3546 C3542 1.368 . S
C3546 C3545 1.523 . S
H3547 C3522 0.950 . S
H3548 C3524 0.950 . S
H3549 C3525 0.949 . S
H3550 C3527 0.950 . S
H3551 C3529 0.950 . S
C673 C400 0.907 . S
C678 C8 0.907 . S
C703 C22 0.907 . S
C708 C414 0.907 . S
C733 C428 0.907 . S
C738 C36 0.907 . S
C763 C50 0.907 . S
C768 C442 0.907 . S
C793 C344 0.907 . S
C798 C64 0.907 . S
C823 C78 0.907 . S
C828 C358 0.907 . S
C853 C372 0.907 . S
C858 C92 0.907 . S
C883 C106 0.907 . S
C888 C386 0.907 . S
C913 C540 0.907 . S
C918 C120 0.907 . S
C943 C554 0.907 . S
C948 C134 0.907 . S
C973 C512 0.907 . S
C978 C148 0.907 . S
C1003 C162 0.907 . S
C1008 C526 0.907 . S
C1033 C484 0.907 . S
C1038 C176 0.907 . S
C1063 C498 0.907 . S
C1068 C190 0.907 . S
C1093 C204 0.907 . S
C1098 C456 0.907 . S
C1123 C470 0.907 . S
C1128 C218 0.907 . S
C1153 C232 0.907 . S
C1158 C638 0.907 . S
C1183 C610 0.907 . S
C1188 C246 0.907 . S
C1213 C624 0.907 . S
C1218 C260 0.907 . S
C1243 C582 0.907 . S
C1248 C274 0.907 . S
C1273 C596 0.907 . S
C1278 C288 0.907 . S
C1303 C302 0.907 . S
C1308 C568 0.907 . S
C1333 C316 0.907 . S
C1338 C666 0.907 . S
C1363 C652 0.907 . S
C1368 C330 0.907 . S
C1393 C105 1.222 . S
C1398 C7 1.222 . S
C1423 C63 1.222 . S
C1428 C21 1.222 . S
C1453 C77 1.222 . S
C1458 C35 1.222 . S
C1483 C91 1.222 . S
C1488 C49 1.222 . S
C1513 C287 1.222 . S
C1518 C119 1.222 . S
C1543 C245 1.222 . S
C1548 C133 1.222 . S
C1573 C259 1.222 . S
C1578 C147 1.222 . S
C1603 C273 1.222 . S
C1608 C161 1.222 . S
C1633 C329 1.222 . S
C1638 C175 1.222 . S
C1663 C301 1.222 . S
C1668 C189 1.222 . S
C1693 C203 1.222 . S
C1698 C315 1.222 . S
C1723 C231 1.222 . S
C1728 C217 1.222 . S
C1753 C441 1.222 . S
C1758 C343 1.222 . S
C1783 C399 1.222 . S
C1788 C357 1.222 . S
C1813 C371 1.222 . S
C1818 C413 1.222 . S
C1843 C385 1.222 . S
C1848 C427 1.222 . S
C1873 C455 1.222 . S
C1878 C623 1.222 . S
C1903 C469 1.222 . S
C1908 C581 1.222 . S
C1933 C595 1.222 . S
C1938 C483 1.222 . S
C1963 C609 1.222 . S
C1968 C497 1.222 . S
C1993 C665 1.222 . S
C1998 C511 1.222 . S
C2023 C637 1.222 . S
C2028 C525 1.222 . S
C2053 C651 1.222 . S
C2058 C539 1.222 . S
C2083 C553 1.222 . S
C2088 C567 1.222 . S
C2113 C3 0.979 . S
C2118 C121 0.940 . S
C2143 C135 0.940 . S
C2148 C17 0.979 . S
C2173 C149 0.940 . S
C2178 C31 0.979 . S
C2203 C163 0.940 . S
C2208 C45 0.979 . S
C2233 C59 0.979 . S
C2238 C177 0.940 . S
C2263 C191 0.940 . S
C2268 C73 0.979 . S
C2293 C87 0.979 . S
C2298 C205 0.940 . S
C2323 C219 0.940 . S
C2328 C101 0.979 . S
C2353 C233 0.940 . S
C2358 C115 0.979 . S
C2383 C331 0.940 . S
C2388 C129 0.979 . S
C2413 C143 0.979 . S
C2418 C303 0.940 . S
C2443 C157 0.979 . S
C2448 C317 0.940 . S
C2473 C171 0.979 . S
C2478 C247 0.940 . S
C2503 C185 0.979 . S
C2508 C261 0.940 . S
C2533 C199 0.979 . S
C2538 C275 0.940 . S
C2563 C213 0.979 . S
C2568 C289 0.940 . S
C2593 C227 0.979 . S
C2598 C9 0.940 . S
C2623 C241 0.979 . S
C2628 C65 0.940 . S
C2653 C255 0.979 . S
C2658 C79 0.940 . S
C2683 C269 0.979 . S
C2688 C93 0.940 . S
C2713 C283 0.979 . S
C2718 C107 0.940 . S
C2743 C297 0.979 . S
C2748 C37 0.940 . S
C2773 C51 0.940 . S
C2778 C311 0.979 . S
C2803 C23 0.940 . S
C2808 C325 0.979 . S
C2833 C457 0.940 . S
C2838 C339 0.979 . S
C2863 C471 0.940 . S
C2868 C353 0.979 . S
C2893 C485 0.940 . S
C2898 C367 0.979 . S
C2923 C499 0.940 . S
C2928 C381 0.979 . S
C2953 C513 0.940 . S
C2958 C395 0.979 . S
C2983 C409 0.979 . S
C2988 C527 0.940 . S
C3013 C541 0.940 . S
C3018 C423 0.979 . S
C3043 C437 0.979 . S
C3048 C555 0.940 . S
C3073 C569 0.940 . S
C3078 C451 0.979 . S
C3103 C465 0.979 . S
C3108 C667 0.940 . S
C3133 C479 0.979 . S
C3138 C639 0.940 . S
C3163 C653 0.940 . S
C3168 C493 0.979 . S
C3193 C583 0.940 . S
C3198 C507 0.979 . S
C3223 C521 0.979 . S
C3228 C597 0.940 . S
C3253 C535 0.979 . S
C3258 C611 0.940 . S
C3283 C625 0.940 . S
C3288 C549 0.979 . S
C3313 C345 0.940 . S
C3318 C563 0.979 . S
C3343 C401 0.940 . S
C3348 C577 0.979 . S
C3373 C415 0.940 . S
C3378 C591 0.979 . S
C3403 C605 0.979 . S
C3408 C429 0.940 . S
C3433 C443 0.940 . S
C3438 C619 0.979 . S
C3463 C373 0.940 . S
C3468 C633 0.979 . S
C3493 C647 0.979 . S
C3498 C387 0.940 . S
C3523 C359 0.940 . S
C3528 C661 0.979 . S
