# Generated by pormake.
# Topology unf, (4)-cn, num edge types: 1
# Building blocks:
#     Node 0, Type 0, BuildingBlock: AZAVOO_clean_sbu_0, # of connection points: 4
#     Node 1, Type 0, BuildingBlock: AZAVOO_clean_sbu_0, # of connection points: 4
#     Node 2, Type 0, BuildingBlock: AZAVOO_clean_sbu_0, # of connection points: 4
#     Node 3, Type 0, BuildingBlock: AZAVOO_clean_sbu_0, # of connection points: 4
#     Node 4, Type 0, BuildingBlock: AZAVOO_clean_sbu_0, # of connection points: 4
#     Node 5, Type 0, BuildingBlock: AZAVOO_clean_sbu_0, # of connection points: 4
#     Node 6, Type 0, BuildingBlock: AZAVOO_clean_sbu_0, # of connection points: 4
#     Node 7, Type 0, BuildingBlock: AZAVOO_clean_sbu_0, # of connection points: 4
#     Node 8, Type 0, BuildingBlock: AZAVOO_clean_sbu_0, # of connection points: 4
#     Node 9, Type 0, BuildingBlock: AZAVOO_clean_sbu_0, # of connection points: 4
#     Node 10, Type 0, BuildingBlock: AZAVOO_clean_sbu_0, # of connection points: 4
#     Node 11, Type 0, BuildingBlock: AZAVOO_clean_sbu_0, # of connection points: 4
#     Edge 12, Type (0, 0), BuildingBlock: MIFKUJ_clean_linker_0, # of connection points: 2
#     Edge 13, Type (0, 0), BuildingBlock: MIFKUJ_clean_linker_0, # of connection points: 2
#     Edge 14, Type (0, 0), BuildingBlock: MIFKUJ_clean_linker_0, # of connection points: 2
#     Edge 15, Type (0, 0), BuildingBlock: MIFKUJ_clean_linker_0, # of connection points: 2
#     Edge 16, Type (0, 0), BuildingBlock: MIFKUJ_clean_linker_0, # of connection points: 2
#     Edge 17, Type (0, 0), BuildingBlock: MIFKUJ_clean_linker_0, # of connection points: 2
#     Edge 18, Type (0, 0), BuildingBlock: MIFKUJ_clean_linker_0, # of connection points: 2
#     Edge 19, Type (0, 0), BuildingBlock: MIFKUJ_clean_linker_0, # of connection points: 2
#     Edge 20, Type (0, 0), BuildingBlock: MIFKUJ_clean_linker_0, # of connection points: 2
#     Edge 21, Type (0, 0), BuildingBlock: MIFKUJ_clean_linker_0, # of connection points: 2
#     Edge 22, Type (0, 0), BuildingBlock: MIFKUJ_clean_linker_0, # of connection points: 2
#     Edge 23, Type (0, 0), BuildingBlock: MIFKUJ_clean_linker_0, # of connection points: 2
#     Edge 24, Type (0, 0), BuildingBlock: MIFKUJ_clean_linker_0, # of connection points: 2
#     Edge 25, Type (0, 0), BuildingBlock: MIFKUJ_clean_linker_0, # of connection points: 2
#     Edge 26, Type (0, 0), BuildingBlock: MIFKUJ_clean_linker_0, # of connection points: 2
#     Edge 27, Type (0, 0), BuildingBlock: MIFKUJ_clean_linker_0, # of connection points: 2
#     Edge 28, Type (0, 0), BuildingBlock: MIFKUJ_clean_linker_0, # of connection points: 2
#     Edge 29, Type (0, 0), BuildingBlock: MIFKUJ_clean_linker_0, # of connection points: 2
#     Edge 30, Type (0, 0), BuildingBlock: MIFKUJ_clean_linker_0, # of connection points: 2
#     Edge 31, Type (0, 0), BuildingBlock: MIFKUJ_clean_linker_0, # of connection points: 2
#     Edge 32, Type (0, 0), BuildingBlock: MIFKUJ_clean_linker_0, # of connection points: 2
#     Edge 33, Type (0, 0), BuildingBlock: MIFKUJ_clean_linker_0, # of connection points: 2
#     Edge 34, Type (0, 0), BuildingBlock: MIFKUJ_clean_linker_0, # of connection points: 2
#     Edge 35, Type (0, 0), BuildingBlock: MIFKUJ_clean_linker_0, # of connection points: 2
# Relax obj value: 0.262
# Max RMSD: 0.202
# Mean RMSD: 0.202
data_MOF--net-unf--node1-AZAVOO_clean_sbu_0--edge1-MIFKUJ_clean_linker_0
_symmetry_space_group_name_H-M    P1
_symmetry_Int_Tables_number       1
_symmetry_cell_setting            triclinic
loop_
_symmetry_equiv_pos_as_xyz
'x, y, z'
_cell_length_a     48.526804
_cell_length_b     48.536439
_cell_length_c     48.774527
_cell_angle_alpha  90.168882
_cell_angle_beta   90.023968
_cell_angle_gamma 119.89387
loop_
_atom_site_label
_atom_site_type_symbol
_atom_site_fract_x
_atom_site_fract_y
_atom_site_fract_z
_atom_type_partial_charge
Mg0 Mg 0.08039 0.38511 0.08006 0.0
O1 O 0.04274 0.33252 0.07389 0.0
O2 O 0.06381 0.30058 0.07353 0.0
Mg3 Mg 0.1154 0.33124 0.08679 0.0
C4 C 0.04011 0.30507 0.07126 0.0
C5 C 0.05043 0.428 0.08007 0.0
O6 O 0.07895 0.44771 0.08967 0.0
O7 O 0.07454 0.37917 0.12721 0.0
O8 O 0.09564 0.34998 0.11743 0.0
O9 O 0.09577 0.38753 0.03617 0.0
O10 O 0.11653 0.37379 0.06996 0.0
C11 C 0.08437 0.36065 0.13505 0.0
C12 C 0.11497 0.378 0.04426 0.0
O13 O 0.04252 0.39907 0.07649 0.0
Mg14 Mg 0.6149 0.70448 0.07678 0.0
O15 O 0.65996 0.70502 0.06153 0.0
O16 O 0.70027 0.755 0.06431 0.0
Mg17 Mg 0.68204 0.78546 0.08366 0.0
C18 C 0.68912 0.72587 0.05787 0.0
C19 C 0.56075 0.64048 0.06387 0.0
O20 O 0.55111 0.66074 0.058 0.0
O21 O 0.62979 0.70606 0.12106 0.0
O22 O 0.66924 0.75648 0.12336 0.0
O23 O 0.60716 0.71748 0.03504 0.0
O24 O 0.63453 0.7524 0.06757 0.0
C25 C 0.65136 0.72951 0.1345 0.0
C26 C 0.62481 0.74679 0.04253 0.0
O27 O 0.58782 0.65089 0.07501 0.0
Mg28 Mg 0.29123 0.90939 0.10639 0.0
O29 O 0.28146 0.94923 0.09176 0.0
O30 O 0.23114 0.93684 0.10068 0.0
Mg31 Mg 0.21802 0.90091 0.13463 0.0
C32 C 0.25807 0.95435 0.08929 0.0
C33 C 0.34813 0.92015 0.07421 0.0
O34 O 0.32792 0.88954 0.07205 0.0
O35 O 0.307 0.92897 0.14996 0.0
O36 O 0.26793 0.93776 0.14734 0.0
O37 O 0.26473 0.88266 0.0704 0.0
O38 O 0.24082 0.87847 0.11019 0.0
C39 C 0.28476 0.93057 0.16211 0.0
C40 C 0.2387 0.87183 0.08428 0.0
O41 O 0.34111 0.93686 0.08963 0.0
Mg42 Mg 0.60156 0.89225 0.40899 0.0
O43 O 0.64978 0.93749 0.41398 0.0
O44 O 0.68868 0.92545 0.41395 0.0
Mg45 Mg 0.66532 0.87232 0.40578 0.0
C46 C 0.6791 0.94555 0.41561 0.0
C47 C 0.54913 0.90967 0.4107 0.0
O48 O 0.53276 0.8786 0.41317 0.0
O49 O 0.61029 0.89285 0.36305 0.0
O50 O 0.64888 0.88035 0.36425 0.0
O51 O 0.59872 0.88223 0.45406 0.0
O52 O 0.62104 0.86558 0.42365 0.0
C53 C 0.63055 0.88748 0.35109 0.0
C54 C 0.61463 0.86798 0.4488 0.0
O55 O 0.57864 0.92279 0.40566 0.0
Mg56 Mg 0.06637 0.68921 0.38488 0.0
O57 O 0.02509 0.69375 0.4038 0.0
O58 O 0.03021 0.74163 0.39523 0.0
Mg59 Mg 0.06659 0.76085 0.36093 0.0
C60 C 0.0166 0.71465 0.40721 0.0
C61 C 0.05987 0.63038 0.41309 0.0
O62 O 0.09021 0.65093 0.41661 0.0
O63 O 0.04385 0.67334 0.34224 0.0
O64 O 0.03363 0.71138 0.34442 0.0
O65 O 0.09444 0.71557 0.42069 0.0
O66 O 0.09267 0.74011 0.38306 0.0
C67 C 0.04315 0.69599 0.3301 0.0
C68 C 0.10163 0.74183 0.4083 0.0
O69 O 0.04306 0.63845 0.39903 0.0
Mg70 Mg 0.28874 0.38795 0.40331 0.0
O71 O 0.28858 0.34135 0.41058 0.0
O72 O 0.23854 0.30094 0.40939 0.0
Mg73 Mg 0.20733 0.32152 0.39699 0.0
C74 C 0.26829 0.3118 0.41254 0.0
C75 C 0.35285 0.44084 0.41615 0.0
O76 O 0.33252 0.4496 0.42425 0.0
O77 O 0.28465 0.37787 0.35751 0.0
O78 O 0.23482 0.33686 0.35662 0.0
O79 O 0.27759 0.3897 0.44753 0.0
O80 O 0.24155 0.36757 0.41458 0.0
C81 C 0.26089 0.35587 0.34466 0.0
C82 C 0.24807 0.37401 0.44013 0.0
O83 O 0.34235 0.41475 0.40322 0.0
Mg84 Mg 0.92445 0.6279 0.8798 0.0
O85 O 0.95876 0.66981 0.90782 0.0
O86 O 0.95014 0.71113 0.90495 0.0
Mg87 Mg 0.92035 0.7007 0.86654 0.0
C88 C 0.96386 0.69716 0.91581 0.0
C89 C 0.93425 0.57102 0.89341 0.0
O90 O 0.90505 0.55548 0.88384 0.0
O91 O 0.95548 0.64807 0.84164 0.0
O92 O 0.95984 0.69345 0.84971 0.0
O93 O 0.8881 0.6144 0.91166 0.0
O94 O 0.8951 0.64914 0.87906 0.0
C95 C 0.95155 0.67053 0.83318 0.0
C96 C 0.88148 0.6351 0.90171 0.0
O97 O 0.94939 0.60116 0.89243 0.0
Mg98 Mg 0.37445 0.28143 0.90328 0.0
O99 O 0.32995 0.28505 0.91073 0.0
O100 O 0.28666 0.2383 0.90179 0.0
Mg101 Mg 0.30403 0.20432 0.88904 0.0
C102 C 0.29985 0.26733 0.90924 0.0
C103 C 0.42881 0.34354 0.92202 0.0
O104 O 0.43553 0.32195 0.93072 0.0
O105 O 0.36929 0.28273 0.85689 0.0
O106 O 0.32686 0.23437 0.85104 0.0
O107 O 0.37144 0.26502 0.94634 0.0
O108 O 0.34948 0.23303 0.91058 0.0
C109 C 0.34863 0.26081 0.8415 0.0
C110 C 0.35425 0.23661 0.93658 0.0
O111 O 0.40431 0.33474 0.90718 0.0
Mg112 Mg 0.70392 0.08589 0.9136 0.0
O113 O 0.70651 0.04014 0.9097 0.0
O114 O 0.757 0.05248 0.90264 0.0
Mg115 Mg 0.78625 0.10612 0.89923 0.0
C116 C 0.72765 0.03216 0.9058 0.0
C117 C 0.63758 0.07357 0.92288 0.0
O118 O 0.656 0.10391 0.92847 0.0
O119 O 0.70627 0.09014 0.86732 0.0
O120 O 0.75676 0.10209 0.86132 0.0
O121 O 0.71585 0.09014 0.95817 0.0
O122 O 0.75136 0.10997 0.92478 0.0
C123 C 0.72982 0.09628 0.85188 0.0
C124 C 0.74523 0.10443 0.95046 0.0
O125 O 0.65024 0.05798 0.91375 0.0
Mg126 Mg 0.3688 0.081 0.56816 0.0
O127 O 0.3207 0.03709 0.55787 0.0
O128 O 0.28326 0.05111 0.55888 0.0
Mg129 Mg 0.30705 0.10356 0.57 0.0
C130 C 0.29179 0.0304 0.55524 0.0
C131 C 0.42156 0.0649 0.57004 0.0
O132 O 0.43702 0.09612 0.57088 0.0
O133 O 0.35622 0.07713 0.6135 0.0
O134 O 0.32034 0.0932 0.61205 0.0
O135 O 0.37641 0.09442 0.52399 0.0
O136 O 0.35171 0.10958 0.55337 0.0
C137 C 0.33691 0.08395 0.62535 0.0
C138 C 0.36025 0.10857 0.52857 0.0
O139 O 0.39146 0.05031 0.57185 0.0
Mg140 Mg 0.89661 0.28187 0.57207 0.0
O141 O 0.94376 0.28229 0.56808 0.0
O142 O 0.9348 0.23285 0.57433 0.0
Mg143 Mg 0.88183 0.20079 0.58138 0.0
C144 C 0.95356 0.26233 0.56982 0.0
C145 C 0.90564 0.34822 0.57105 0.0
O146 O 0.87465 0.32997 0.56902 0.0
O147 O 0.8985 0.27757 0.618 0.0
O148 O 0.88756 0.22723 0.62176 0.0
O149 O 0.88693 0.27218 0.52751 0.0
O150 O 0.87285 0.23496 0.5592 0.0
C151 C 0.89391 0.25382 0.63243 0.0
C152 C 0.87461 0.24244 0.53367 0.0
O153 O 0.92253 0.33528 0.57448 0.0
Mg154 Mg 0.69301 0.59888 0.60399 0.0
O155 O 0.69307 0.64481 0.59037 0.0
O156 O 0.7424 0.68687 0.59241 0.0
Mg157 Mg 0.76365 0.6704 0.62564 0.0
C158 C 0.71325 0.6739 0.58506 0.0
C159 C 0.63532 0.54878 0.5743 0.0
O160 O 0.65808 0.54295 0.56732 0.0
O161 O 0.68185 0.60208 0.64934 0.0
O162 O 0.7141 0.65191 0.64267 0.0
O163 O 0.71776 0.60206 0.5653 0.0
O164 O 0.74385 0.62378 0.60394 0.0
C165 C 0.70093 0.62916 0.65942 0.0
C166 C 0.74447 0.61923 0.57791 0.0
O167 O 0.64129 0.57038 0.59192 0.0
H168 H 0.10247 0.36193 0.98985 0.0
H169 H 0.13134 0.34447 0.95938 0.0
H170 H 0.19563 0.35663 0.02543 0.0
H171 H 0.16696 0.37348 0.05583 0.0
H172 H 0.22433 0.3849 0.97194 0.0
H173 H 0.14184 0.28699 0.0151 0.0
H174 H 0.08557 0.24893 0.02515 0.0
H175 H 0.06535 0.23358 0.93897 0.0
H176 H 0.12147 0.27197 0.92841 0.0
H177 H 0.31135 0.30891 0.95065 0.0
H178 H 0.27721 0.32898 0.9669 0.0
H179 H 0.20931 0.27663 0.90288 0.0
H180 H 0.24266 0.2546 0.88782 0.0
H181 H 0.17829 0.27146 0.94585 0.0
H182 H 0.26191 0.36215 0.9019 0.0
H183 H 0.31709 0.40223 0.89043 0.0
H184 H 0.33431 0.43413 0.97413 0.0
H185 H 0.27937 0.39398 0.98621 0.0
C186 C 0.12292 0.36108 -0.00232 0.0
C187 C 0.13258 0.36909 0.02508 0.0
C188 C 0.13923 0.35105 0.98037 0.0
C189 C 0.16555 0.34944 0.99028 0.0
C190 C 0.17545 0.35793 0.01747 0.0
C191 C 0.15897 0.36743 0.03479 0.0
C192 C 0.18286 0.3384 0.97281 0.0
C193 C 0.21443 0.36015 0.9661 0.0
C194 C 0.16927 0.30634 0.96455 0.0
C195 C 0.13577 0.2826 0.97096 0.0
C196 C 0.12536 0.27566 -0.00171 0.0
C197 C 0.0935 0.254 0.00408 0.0
C198 C 0.07188 0.23891 0.9827 0.0
C199 C 0.08212 0.24533 0.9555 0.0
C200 C 0.11395 0.26701 0.9496 0.0
C201 C 0.28924 0.30189 0.93994 0.0
C202 C 0.27969 0.28048 0.91788 0.0
C203 C 0.26981 0.31356 0.94908 0.0
C204 C 0.24104 0.30514 0.93562 0.0
C205 C 0.23147 0.28368 0.91349 0.0
C206 C 0.25051 0.27119 0.90486 0.0
C207 C 0.22059 0.31784 0.94555 0.0
C208 C 0.18829 0.29642 0.9509 0.0
C209 C 0.23343 0.35046 0.95221 0.0
C210 C 0.26649 0.37491 0.94497 0.0
C211 C 0.27749 0.3776 0.91789 0.0
C212 C 0.30874 0.40035 0.91128 0.0
C213 C 0.3292 0.42068 0.93154 0.0
C214 C 0.31843 0.41837 0.95846 0.0
C215 C 0.28721 0.39566 0.96518 0.0
H216 H 0.35339 0.43824 0.92639 0.0
H217 H 0.04723 0.22221 0.98722 0.0
H218 H 0.61452 0.74257 0.98711 0.0
H219 H 0.63085 0.78658 0.95481 0.0
H220 H 0.67449 0.85372 0.02113 0.0
H221 H 0.65763 0.81018 0.05346 0.0
H222 H 0.63918 0.86899 0.99029 0.0
H223 H 0.71894 0.83888 0.97627 0.0
H224 H 0.73809 0.80163 0.96543 0.0
H225 H 0.69553 0.78536 0.88549 0.0
H226 H 0.6757 0.82219 0.89602 0.0
H227 H 0.76414 0.00617 0.91974 0.0
H228 H 0.74525 0.95046 0.93052 0.0
H229 H 0.65112 0.92576 0.90323 0.0
H230 H 0.66953 0.98165 0.89344 0.0
H231 H 0.70841 0.88598 0.90969 0.0
H232 H 0.60752 0.89759 0.95089 0.0
H233 H 0.59637 0.94116 0.96015 0.0
H234 H 0.69153 -0.00038 0.99031 0.0
H235 H 0.70329 0.95653 0.98077 0.0
C236 C 0.62763 0.76673 -0.00525 0.0
C237 C 0.63499 0.77296 0.02278 0.0
C238 C 0.63704 0.79179 0.97628 0.0
C239 C 0.65403 0.82334 0.9856 0.0
C240 C 0.66137 0.82951 0.01355 0.0
C241 C 0.65191 0.80458 0.03197 0.0
C242 C 0.66371 0.85022 0.96657 0.0
C243 C 0.65401 0.87238 0.97254 0.0
C244 C 0.68333 0.85488 0.94352 0.0
C245 C 0.69552 0.833 0.93705 0.0
C246 C 0.71345 0.82717 0.95645 0.0
C247 C 0.72447 0.80617 0.95036 0.0
C248 C 0.71796 0.79107 0.92482 0.0
C249 C 0.70051 0.79703 0.90529 0.0
C250 C 0.68939 0.81798 0.9113 0.0
C251 C 0.73962 0.98874 0.91533 0.0
C252 C 0.71801 -0.00177 0.90658 0.0
C253 C 0.72897 0.95688 0.92118 0.0
C254 C 0.69674 0.93421 0.91802 0.0
C255 C 0.67604 0.94308 0.90603 0.0
C256 C 0.68648 0.975 0.90075 0.0
C257 C 0.68363 0.90423 0.93349 0.0
C258 C 0.69284 0.88182 0.92703 0.0
C259 C 0.66421 0.89953 0.95658 0.0
C260 C 0.65615 0.92389 0.9653 0.0
C261 C 0.62583 0.91957 0.95992 0.0
C262 C 0.61952 0.94426 0.96498 0.0
C263 C 0.64322 0.97313 0.97585 0.0
C264 C 0.6732 0.97726 0.98192 0.0
C265 C 0.67971 0.95276 0.97665 0.0
H266 H 0.63838 0.99231 0.97953 0.0
H267 H 0.7265 0.77481 0.92013 0.0
H268 H 0.2294 0.85893 0.02988 0.0
H269 H 0.17938 0.82883 0.0055 0.0
H270 H 0.12794 0.81398 0.08121 0.0
H271 H 0.17845 0.84468 0.10605 0.0
H272 H 0.13559 0.76851 0.01051 0.0
H273 H 0.05634 0.81122 0.06374 0.0
H274 H 0.0622 0.85923 0.08676 0.0
H275 H 0.14818 0.91726 0.04199 0.0
H276 H 0.14257 0.86972 0.01843 0.0
H277 H 0.9829 0.67127 0.95612 0.0
H278 H 0.02496 0.69967 0.99006 0.0
H279 H 0.04135 0.78923 0.95751 0.0
H280 H -0.00163 0.761 0.92456 0.0
H281 H 0.04959 0.79558 0.00948 0.0
H282 H 0.08673 0.75433 0.93782 0.0
H283 H 0.08573 0.71304 0.90752 0.0
H284 H 0.09279 0.66347 0.97754 0.0
H285 H 0.09348 0.70431 0.00828 0.0
C286 C 0.20752 0.84937 0.04148 0.0
C287 C 0.20788 0.85407 0.06996 0.0
C288 C 0.17892 0.83207 0.02746 0.0
C289 C 0.14999 0.81908 0.04154 0.0
C290 C 0.15008 0.82397 0.06996 0.0
C291 C 0.17888 0.84141 0.08411 0.0
C292 C 0.12001 0.80005 0.02613 0.0
C293 C 0.11664 0.77425 0.01048 0.0
C294 C 0.09572 0.80807 0.02559 0.0
C295 C 0.09925 0.83682 0.03965 0.0
C296 C 0.07647 0.83423 0.05881 0.0
C297 C 0.07974 0.86137 0.07193 0.0
C298 C 0.10562 0.89125 0.06594 0.0
C299 C 0.12823 0.89409 0.04673 0.0
C300 C 0.12504 0.86704 0.03352 0.0
C301 C -0.00471 0.69701 0.95644 0.0
C302 C 0.98761 0.71395 0.93755 0.0
C303 C 0.01933 0.71322 0.97579 0.0
C304 C 0.03676 0.74661 0.976 0.0
C305 C 0.02826 0.76348 0.9578 0.0
C306 C 0.00376 0.74731 0.93888 0.0
C307 C 0.06519 0.76404 -0.00623 0.0
C308 C 0.06827 0.78949 0.00989 0.0
C309 C 0.08999 0.75666 -0.00622 0.0
C310 C 0.0898 0.73217 0.97535 0.0
C311 C 0.08788 0.73451 0.94675 0.0
C312 C 0.08739 0.71121 0.92951 0.0
C313 C 0.08909 0.68559 0.94061 0.0
C314 C 0.09141 0.68329 0.96898 0.0
C315 C 0.09187 0.70652 0.98632 0.0
H316 H 0.0887 0.66757 0.92723 0.0
H317 H 0.1081 0.91222 0.07612 0.0
H318 H 0.65241 0.66277 0.58226 0.0
H319 H 0.63424 0.69755 0.56362 0.0
H320 H 0.7301 0.76447 0.53867 0.0
H321 H 0.74866 0.7303 0.55833 0.0
H322 H 0.70535 0.79521 0.56121 0.0
H323 H 0.66974 0.71327 0.49263 0.0
H324 H 0.64178 0.65867 0.47409 0.0
H325 H 0.55274 0.64666 0.50252 0.0
H326 H 0.58023 0.70107 0.52159 0.0
H327 H 0.67378 0.87659 0.45574 0.0
H328 H 0.68888 0.84573 0.48534 0.0
H329 H 0.59454 0.79786 0.51988 0.0
H330 H 0.57939 0.82901 0.49014 0.0
H331 H 0.61482 0.75729 0.49632 0.0
H332 H 0.65252 0.84329 0.5606 0.0
H333 H 0.68225 0.89945 0.57509 0.0
H334 H 0.76976 0.90512 0.55011 0.0
H335 H 0.74051 0.8491 0.53509 0.0
C336 C 0.66959 0.68475 0.57257 0.0
C337 C 0.70197 0.69377 0.57172 0.0
C338 C 0.65914 0.7046 0.56185 0.0
C339 C 0.68072 0.7335 0.54946 0.0
C340 C 0.71301 0.74233 0.54822 0.0
C341 C 0.72358 0.72273 0.55935 0.0
C342 C 0.66983 0.75493 0.53839 0.0
C343 C 0.68574 0.78694 0.5468 0.0
C344 C 0.64369 0.744 0.52014 0.0
C345 C 0.62713 0.71114 0.50886 0.0
C346 C 0.64424 0.69889 0.49517 0.0
C347 C 0.62846 0.66799 0.48452 0.0
C348 C 0.59551 0.64916 0.48722 0.0
C349 C 0.57827 0.66124 0.50051 0.0
C350 C 0.59394 0.69212 0.51124 0.0
C351 C 0.65648 0.85987 0.46997 0.0
C352 C 0.62538 0.85474 0.47055 0.0
C353 C 0.66516 0.84245 0.487 0.0
C354 C 0.64276 0.81948 0.50468 0.0
C355 C 0.61211 0.81554 0.50635 0.0
C356 C 0.60356 0.83339 0.48956 0.0
C357 C 0.65056 0.7974 0.51891 0.0
C358 C 0.63412 0.76532 0.51102 0.0
C359 C 0.67651 0.80836 0.53722 0.0
C360 C 0.69426 0.842 0.54655 0.0
C361 C 0.67808 0.85656 0.55802 0.0
C362 C 0.69485 0.88837 0.56636 0.0
C363 C 0.72787 0.90586 0.56348 0.0
C364 C 0.74418 0.89154 0.55233 0.0
C365 C 0.72752 0.85974 0.54394 0.0
H366 H 0.7408 0.93049 0.56993 0.0
H367 H 0.58333 0.62525 0.47895 0.0
H368 H 0.12678 0.75118 0.45944 0.0
H369 H 0.15379 0.80049 0.48538 0.0
H370 H 0.14023 0.85053 0.41847 0.0
H371 H 0.11375 0.801 0.39182 0.0
H372 H 0.19863 0.88351 0.43769 0.0
H373 H 0.09538 0.83251 0.47788 0.0
H374 H 0.04745 0.78852 0.49886 0.0
H375 H 0.10305 0.78764 0.56698 0.0
H376 H 0.15144 0.83129 0.54622 0.0
H377 H 0.22794 0.00692 0.54769 0.0
H378 H 0.19024 0.95725 0.52492 0.0
H379 H 0.26343 0.93206 0.51711 0.0
H380 H 0.30138 0.98155 0.53982 0.0
H381 H 0.16945 0.89021 0.5341 0.0
H382 H 0.2638 0.9144 0.45307 0.0
H383 H 0.31043 0.96056 0.43256 0.0
H384 H 0.26665 0.01773 0.44485 0.0
H385 H 0.21979 0.97189 0.46537 0.0
C386 C 0.12939 0.7726 0.45018 0.0
C387 C 0.11795 0.77215 0.42359 0.0
C388 C 0.14469 0.80078 0.46517 0.0
C389 C 0.14845 0.82909 0.45413 0.0
C390 C 0.13734 0.82887 0.42746 0.0
C391 C 0.1222 0.80059 0.41227 0.0
C392 C 0.16515 0.85897 0.47022 0.0
C393 C 0.19197 0.88495 0.45866 0.0
C394 C 0.15632 0.86111 0.49755 0.0
C395 C 0.12713 0.83511 0.51036 0.0
C396 C 0.09745 0.82283 0.49726 0.0
C397 C 0.07018 0.79796 0.50912 0.0
C398 C 0.07221 0.78527 0.53421 0.0
C399 C 0.10151 0.7975 0.54754 0.0
C400 C 0.12887 0.82234 0.53574 0.0
C401 C 0.23595 0.9906 0.54156 0.0
C402 C 0.26785 -0.00156 0.54526 0.0
C403 C 0.2143 0.96219 0.52867 0.0
C404 C 0.22424 0.94132 0.51913 0.0
C405 C 0.25548 0.94812 0.52418 0.0
C406 C 0.27711 0.97641 0.53717 0.0
C407 C 0.20307 0.91392 0.50168 0.0
C408 C 0.17562 0.8886 0.51301 0.0
C409 C 0.2108 0.91252 0.47399 0.0
C410 C 0.23839 0.93977 0.46075 0.0
C411 C 0.26407 0.93677 0.4512 0.0
C412 C 0.29058 0.9629 0.43969 0.0
C413 C 0.29153 0.99207 0.43746 0.0
C414 C 0.26593 -0.00484 0.44665 0.0
C415 C 0.23943 0.96913 0.45827 0.0
H416 H 0.31209 0.01227 0.42857 0.0
H417 H 0.05108 0.76599 0.54335 0.0
H418 H -0.0018 0.31895 0.54819 0.0
H419 H 0.05252 0.33429 0.5351 0.0
H420 H 0.04056 0.24672 0.56808 0.0
H421 H 0.98584 0.23075 0.58102 0.0
H422 H 0.10801 0.3186 0.57423 0.0
H423 H 0.0323 0.2315 0.51371 0.0
H424 H 0.98244 0.20564 0.48692 0.0
H425 H 0.01341 0.29129 0.44077 0.0
H426 H 0.06325 0.31774 0.46756 0.0
H427 H 0.24166 0.34381 0.48903 0.0
H428 H 0.19433 0.32035 0.51863 0.0
H429 H 0.15004 0.35795 0.46517 0.0
H430 H 0.196 0.37918 0.435 0.0
H431 H 0.11043 0.30048 0.47429 0.0
H432 H 0.18361 0.38891 0.53275 0.0
H433 H 0.23272 0.41942 0.55986 0.0
H434 H 0.20763 0.33752 0.60975 0.0
H435 H 0.15852 0.30645 0.58273 0.0
C436 C 0.00723 0.30317 0.55317 0.0
C437 C 0.98757 0.27341 0.56524 0.0
C438 C 0.0383 0.31207 0.54583 0.0
C439 C 0.05029 0.29158 0.55072 0.0
C440 C 0.03159 0.26282 0.56436 0.0
C441 C 0.00031 0.25368 0.57146 0.0
C442 C 0.08029 0.29833 0.53765 0.0
C443 C 0.10877 0.31417 0.55251 0.0
C444 C 0.0809 0.29278 0.50933 0.0
C445 C 0.05133 0.27663 0.49277 0.0
C446 C 0.02835 0.24485 0.49797 0.0
C447 C 0.00013 0.23008 0.48277 0.0
C448 C -0.00526 0.24684 0.46221 0.0
C449 C 0.01761 0.27835 0.45671 0.0
C450 C 0.04586 0.29321 0.47187 0.0
C451 C 0.2218 0.34718 0.48398 0.0
C452 C 0.22211 0.36309 0.45991 0.0
C453 C 0.19489 0.33391 0.50084 0.0
C454 C 0.16858 0.33741 0.49417 0.0
C455 C 0.1698 0.35456 0.47063 0.0
C456 C 0.19608 0.36685 0.45347 0.0
C457 C 0.13889 0.32221 0.51048 0.0
C458 C 0.11012 0.30448 0.49617 0.0
C459 C 0.13824 0.3265 0.53919 0.0
C460 C 0.16761 0.34528 0.55553 0.0
C461 C 0.18868 0.37737 0.54939 0.0
C462 C 0.21649 0.39477 0.56476 0.0
C463 C 0.22334 0.38039 0.58646 0.0
C464 C 0.20233 0.34861 0.59291 0.0
C465 C 0.1745 0.33111 0.57759 0.0
H466 H 0.24489 0.39388 0.59831 0.0
H467 H 0.97286 0.23542 0.45052 0.0
H468 H 0.68307 0.66674 0.05524 0.0
H469 H 0.71716 0.65133 0.03013 0.0
H470 H 0.77621 0.74817 0.00359 0.0
H471 H 0.74283 0.76391 0.029 0.0
H472 H 0.75294 0.69954 0.96073 0.0
H473 H 0.80692 0.72643 0.04772 0.0
H474 H 0.81155 0.72406 0.09789 0.0
H475 H 0.77963 0.62429 0.0925 0.0
H476 H 0.77435 0.62596 0.04229 0.0
H477 H 0.88363 0.69241 0.90298 0.0
H478 H 0.85025 0.70686 0.92995 0.0
H479 H 0.80144 0.61269 0.96455 0.0
H480 H 0.83453 0.59802 0.93723 0.0
H481 H 0.81859 0.65907 0.00353 0.0
H482 H 0.76545 0.63163 0.91691 0.0
H483 H 0.75856 0.63265 0.86691 0.0
H484 H 0.78685 0.73161 0.87128 0.0
H485 H 0.79446 0.73137 0.92129 0.0
C486 C 0.70347 0.68476 0.04423 0.0
C487 C 0.71033 0.71652 0.04411 0.0
C488 C 0.72291 0.67596 0.02999 0.0
C489 C 0.74911 0.69868 0.01509 0.0
C490 C 0.75608 0.73037 0.01503 0.0
C491 C 0.73707 0.7393 0.02966 0.0
C492 C 0.76859 0.68922 -0.00133 0.0
C493 C 0.76767 0.69107 0.97001 0.0
C494 C 0.78697 0.67741 0.01098 0.0
C495 C 0.78982 0.67624 0.04124 0.0
C496 C 0.80051 0.70389 0.05724 0.0
C497 C 0.80335 0.7027 0.08569 0.0
C498 C 0.79578 0.67402 0.09839 0.0
C499 C 0.78542 0.64648 0.08265 0.0
C500 C 0.78251 0.64754 0.05418 0.0
C501 C 0.86538 0.67462 0.91586 0.0
C502 C 0.86112 0.64391 0.91746 0.0
C503 C 0.84647 0.68295 0.93142 0.0
C504 C 0.82311 0.66069 0.94895 0.0
C505 C 0.81924 0.63015 0.95103 0.0
C506 C 0.83809 0.62182 0.93539 0.0
C507 C 0.8031 0.66949 0.96547 0.0
C508 C 0.80388 0.6675 -0.00583 0.0
C509 C 0.78442 0.68103 0.95316 0.0
C510 C 0.78079 0.68154 0.9229 0.0
C511 C 0.77055 0.65372 0.90721 0.0
C512 C 0.76635 0.65411 0.87887 0.0
C513 C 0.77206 0.68212 0.86596 0.0
C514 C 0.78224 0.70987 0.88134 0.0
C515 C 0.78654 0.70963 0.90969 0.0
H516 H 0.76886 0.68239 0.84402 0.0
H517 H 0.79803 0.67315 0.12041 0.0
H518 H 0.31724 0.22456 0.98209 0.0
H519 H 0.29283 0.17536 0.00914 0.0
H520 H 0.33958 0.13817 0.95797 0.0
H521 H 0.36155 0.18594 0.92995 0.0
H522 H 0.2844 0.09419 0.96545 0.0
H523 H 0.36455 0.17129 0.02719 0.0
H524 H 0.39055 0.22077 0.05447 0.0
H525 H 0.30414 0.19081 0.09935 0.0
H526 H 0.27754 0.14127 0.07213 0.0
H527 H 0.3035 0.98721 0.05083 0.0
H528 H 0.31228 0.03446 0.02576 0.0
H529 H 0.23268 0.03213 0.06722 0.0
H530 H 0.22331 0.98448 0.09215 0.0
H531 H 0.29401 0.09387 0.06667 0.0
H532 H 0.21858 0.01126 0.00672 0.0
H533 H 0.19797 0.96166 0.97995 0.0
H534 H 0.28329 0.00299 0.93179 0.0
H535 H 0.30461 0.0527 0.95854 0.0
C536 C 0.32217 0.20573 0.97688 0.0
C537 C 0.34115 0.20866 0.9542 0.0
C538 C 0.30841 0.17777 -0.00768 0.0
C539 C 0.31461 0.15309 0.98583 0.0
C540 C 0.33414 0.15662 0.96332 0.0
C541 C 0.34687 0.18394 0.94742 0.0
C542 C 0.30084 0.1233 0.00196 0.0
C543 C 0.28674 0.09428 0.98757 0.0
C544 C 0.30294 0.12313 0.03094 0.0
C545 C 0.31896 0.15279 0.04741 0.0
C546 C 0.35105 0.17536 0.04277 0.0
C547 C 0.3659 0.20339 0.05823 0.0
C548 C 0.34897 0.20897 0.07856 0.0
C549 C 0.3172 0.18648 0.08355 0.0
C550 C 0.30223 0.15842 0.06813 0.0
C551 C 0.28778 -0.00335 0.05455 0.0
C552 C 0.26272 0.98215 0.07343 0.0
C553 C 0.29278 0.02355 0.0402 0.0
C554 C 0.27304 0.03654 0.04471 0.0
C555 C 0.24807 0.02228 0.06354 0.0
C556 C 0.24271 -0.00496 0.07761 0.0
C557 C 0.27911 0.06543 0.02992 0.0
C558 C 0.29143 0.09405 0.04458 0.0
C559 C 0.27624 0.0654 0.00114 0.0
C560 C 0.26326 0.03565 0.98476 0.0
C561 C 0.23303 0.00971 0.99055 0.0
C562 C 0.2212 0.98158 0.97534 0.0
C563 C 0.23932 0.97916 0.9542 0.0
C564 C 0.26927 0.0049 0.94817 0.0
C565 C 0.28122 0.03307 0.96332 0.0
H566 H 0.23013 0.95736 0.94247 0.0
H567 H 0.3605 0.2307 0.0905 0.0
H568 H 0.02576 0.24529 0.05497 0.0
H569 H 0.9736 0.20123 0.04185 0.0
H570 H 0.93082 0.25843 0.06073 0.0
H571 H 0.98269 0.30256 0.07397 0.0
H572 H 0.89354 0.19349 0.07707 0.0
H573 H 0.95151 0.25728 -0.0026 0.0
H574 H -0.00146 0.28188 0.96728 0.0
H575 H 0.98766 0.1901 0.95037 0.0
H576 H 0.94073 0.165 0.98067 0.0
H577 H 0.75739 0.14233 -0.00529 0.0
H578 H 0.80618 0.16704 0.02195 0.0
H579 H 0.83963 0.1119 0.97805 0.0
H580 H 0.79171 0.08902 0.94953 0.0
H581 H 0.88316 0.16818 0.97767 0.0
H582 H 0.819 0.10247 0.05048 0.0
H583 H 0.77257 0.07731 0.08117 0.0
H584 H 0.7947 0.16891 0.11233 0.0
H585 H 0.84103 0.19469 0.08158 0.0
C586 C 0.00521 0.24839 0.05666 0.0
C587 C 0.00844 0.2776 0.06514 0.0
C588 C 0.97546 0.22317 0.04924 0.0
C589 C 0.94852 0.22674 0.05024 0.0
C590 C 0.95139 0.25525 0.05994 0.0
C591 C 0.9811 0.28053 0.06721 0.0
C592 C 0.91798 0.20223 0.0385 0.0
C593 C 0.89104 0.18777 0.05536 0.0
C594 C 0.91521 0.19432 0.01035 0.0
C595 C 0.94282 0.20931 0.9915 0.0
C596 C 0.95923 0.24237 0.98734 0.0
C597 C 0.98585 0.25639 0.97023 0.0
C598 C -0.00388 0.23757 0.95697 0.0
C599 C 0.97968 0.20465 0.96067 0.0
C600 C 0.95306 0.19051 0.97779 0.0
C601 C 0.77494 0.13506 0.99142 0.0
C602 C 0.77117 0.11403 0.97015 0.0
C603 C 0.80273 0.14898 0.00709 0.0
C604 C 0.8266 0.14111 0.00235 0.0
C605 C 0.82171 0.11847 0.98207 0.0
C606 C 0.79437 0.10536 0.96584 0.0
C607 C 0.85799 0.15925 0.01612 0.0
C608 C 0.88532 0.17287 -0.00044 0.0
C609 C 0.86104 0.16599 0.04462 0.0
C610 C 0.83347 0.15054 0.06357 0.0
C611 C 0.81391 0.11728 0.06378 0.0
C612 C 0.7876 0.1029 0.0812 0.0
C613 C 0.78067 0.1215 0.09866 0.0
C614 C 0.80011 0.15452 0.09881 0.0
C615 C 0.82645 0.16903 0.08142 0.0
H616 H 0.76026 0.11033 0.1121 0.0
H617 H 0.01677 0.24848 0.9438 0.0
H618 H 0.3032 0.10481 0.52083 0.0
H619 H 0.29114 0.13603 0.48908 0.0
H620 H 0.38479 0.17522 0.45388 0.0
H621 H 0.39708 0.14395 0.48614 0.0
H622 H 0.37059 0.22056 0.47333 0.0
H623 H 0.32262 0.13012 0.41457 0.0
H624 H 0.2889 0.07304 0.40426 0.0
H625 H 0.2064 0.07637 0.43118 0.0
H626 H 0.23966 0.13333 0.44216 0.0
H627 H 0.32696 0.31986 0.40158 0.0
H628 H 0.34566 0.28226 0.40999 0.0
H629 H 0.25435 0.21575 0.44435 0.0
H630 H 0.23513 0.25265 0.43487 0.0
H631 H 0.27468 0.18461 0.41521 0.0
H632 H 0.32092 0.26708 0.48445 0.0
H633 H 0.35255 0.32201 0.50179 0.0
H634 H 0.43545 0.33155 0.46138 0.0
H635 H 0.40417 0.27677 0.44349 0.0
C636 C 0.32109 0.11986 0.50619 0.0
C637 C 0.35126 0.12266 0.50624 0.0
C638 C 0.31405 0.13733 0.48779 0.0
C639 C 0.33708 0.15787 0.46913 0.0
C640 C 0.36671 0.15938 0.4681 0.0
C641 C 0.37365 0.14153 0.4864 0.0
C642 C 0.33127 0.18053 0.45359 0.0
C643 C 0.3502 0.21289 0.4599 0.0
C644 C 0.30409 0.17017 0.43681 0.0
C645 C 0.28373 0.1361 0.42925 0.0
C646 C 0.2973 0.11869 0.41838 0.0
C647 C 0.27826 0.08633 0.41243 0.0
C648 C 0.24554 0.07109 0.41707 0.0
C649 C 0.23176 0.08822 0.42757 0.0
C650 C 0.25069 0.12058 0.43361 0.0
C651 C 0.3109 0.2972 0.41092 0.0
C652 C 0.2797 0.28928 0.41784 0.0
C653 C 0.32159 0.27573 0.41568 0.0
C654 C 0.30155 0.24635 0.42814 0.0
C655 C 0.27021 0.23823 0.43462 0.0
C656 C 0.25931 0.25941 0.42937 0.0
C657 C 0.31346 0.22459 0.43571 0.0
C658 C 0.29565 0.19245 0.42792 0.0
C659 C 0.34132 0.23499 0.4517 0.0
C660 C 0.3601 0.268 0.4623 0.0
C661 C 0.34582 0.281 0.47906 0.0
C662 C 0.3637 0.31208 0.48902 0.0
C663 C 0.39596 0.33031 0.48259 0.0
C664 C 0.41043 0.31744 0.46626 0.0
C665 C 0.39264 0.28638 0.4562 0.0
H666 H 0.40976 0.35436 0.49034 0.0
H667 H 0.23086 0.04602 0.41254 0.0
H668 H 0.87448 0.18631 0.53363 0.0
H669 H 0.84652 0.14209 0.50173 0.0
H670 H 0.81829 0.19834 0.45357 0.0
H671 H 0.84654 0.243 0.4856 0.0
H672 H 0.76765 0.13908 0.47232 0.0
H673 H 0.8653 0.17871 0.42369 0.0
H674 H 0.92316 0.20072 0.41966 0.0
H675 H 0.9144 0.11554 0.45438 0.0
H676 H 0.85648 0.09309 0.45888 0.0
H677 H 0.67562 -0.00304 0.39803 0.0
H678 H 0.71401 0.05305 0.40635 0.0
H679 H 0.77341 0.02614 0.4516 0.0
H680 H 0.73599 0.97021 0.44197 0.0
H681 H 0.80962 0.07731 0.42451 0.0
H682 H 0.71702 0.04296 0.48256 0.0
H683 H 0.65971 0.02035 0.49135 0.0
H684 H 0.6597 0.0951 0.44448 0.0
H685 H 0.71696 0.11787 0.43505 0.0
C686 C 0.86262 0.1894 0.51614 0.0
C687 C 0.86216 0.21777 0.51229 0.0
C688 C 0.84696 0.16426 0.49775 0.0
C689 C 0.83043 0.16707 0.47534 0.0
C690 C 0.83106 0.19588 0.47074 0.0
C691 C 0.84721 0.22128 0.48895 0.0
C692 C 0.80966 0.13857 0.4589 0.0
C693 C 0.77674 0.12591 0.46115 0.0
C694 C 0.82175 0.12125 0.44508 0.0
C695 C 0.8565 0.13425 0.44171 0.0
C696 C 0.8757 0.16469 0.43056 0.0
C697 C 0.90853 0.17725 0.42819 0.0
C698 C 0.92246 0.15957 0.43682 0.0
C699 C 0.90357 0.12921 0.44769 0.0
C700 C 0.87071 0.11651 0.45008 0.0
C701 C 0.69702 0.00311 0.40958 0.0
C702 C 0.70273 0.97934 0.41968 0.0
C703 C 0.71891 0.03512 0.41432 0.0
C704 C 0.74629 0.04381 0.43009 0.0
C705 C 0.75248 0.02005 0.43938 0.0
C706 C 0.73101 0.9881 0.43402 0.0
C707 C 0.76746 0.07727 0.4386 0.0
C708 C 0.80044 0.09081 0.43496 0.0
C709 C 0.75545 0.09523 0.45169 0.0
C710 C 0.72116 0.08186 0.45779 0.0
C711 C 0.70475 0.05446 0.47401 0.0
C712 C 0.67228 0.04163 0.47911 0.0
C713 C 0.65604 0.05621 0.46838 0.0
C714 C 0.67229 0.08377 0.45269 0.0
C715 C 0.70474 0.09665 0.44745 0.0
H716 H 0.63088 0.04619 0.47225 0.0
H717 H 0.9479 0.16939 0.43506 0.0
H718 H 0.0089 0.69035 0.45838 0.0
H719 H 0.96577 0.67874 0.49047 0.0
H720 H 0.92161 0.70951 0.4302 0.0
H721 H 0.96624 0.72357 0.39905 0.0
H722 H 0.91354 0.72783 0.47585 0.0
H723 H 0.89699 0.62673 0.44479 0.0
H724 H 0.91224 0.5861 0.4356 0.0
H725 H 0.9291 0.58168 0.52147 0.0
H726 H 0.91419 0.6225 0.53115 0.0
H727 H 0.75288 0.63219 0.52336 0.0
H728 H 0.80236 0.65292 0.49731 0.0
H729 H 0.85325 0.65856 0.57154 0.0
H730 H 0.80387 0.63856 0.59796 0.0
H731 H 0.85898 0.62296 0.52198 0.0
H732 H 0.86909 0.72322 0.55067 0.0
H733 H 0.8496 0.76113 0.556 0.0
H734 H 0.83893 0.7627 0.46872 0.0
H735 H 0.85787 0.72437 0.4629 0.0
C736 C 0.98995 0.69466 0.45214 0.0
C737 C 0.99053 0.70753 0.4263 0.0
C738 C 0.9652 0.68784 0.47036 0.0
C739 C 0.93984 0.69238 0.46256 0.0
C740 C 0.94077 0.70569 0.43676 0.0
C741 C 0.96613 0.71358 0.41891 0.0
C742 C 0.91227 0.68306 0.48111 0.0
C743 C 0.9015 0.70475 0.48566 0.0
C744 C 0.89661 0.65307 0.49431 0.0
C745 C 0.90478 0.6279 0.48866 0.0
C746 C 0.90404 0.61716 0.4617 0.0
C747 C 0.91261 0.59409 0.45641 0.0
C748 C 0.92173 0.58139 0.47793 0.0
C749 C 0.92207 0.59157 0.50482 0.0
C750 C 0.9135 0.61463 0.51023 0.0
C751 C 0.77467 0.63812 0.53417 0.0
C752 C 0.77462 0.63373 0.56263 0.0
C753 C 0.80285 0.64999 0.51929 0.0
C754 C 0.83128 0.65717 0.53258 0.0
C755 C 0.83143 0.65312 0.56103 0.0
C756 C 0.80333 0.64186 0.57604 0.0
C757 C 0.86049 0.66763 0.51637 0.0
C758 C 0.87137 0.64608 0.51223 0.0
C759 C 0.87561 0.69728 0.50292 0.0
C760 C 0.86462 0.72068 0.50638 0.0
C761 C 0.86233 0.73143 0.53263 0.0
C762 C 0.85143 0.75304 0.53574 0.0
C763 C 0.84296 0.76426 0.51272 0.0
C764 C 0.84547 0.75397 0.48653 0.0
C765 C 0.85632 0.73232 0.48332 0.0
H766 H 0.83451 0.78097 0.51517 0.0
H767 H 0.92848 0.56363 0.47378 0.0
H768 H 0.2847 0.40705 0.31106 0.0
H769 H 0.25929 0.40682 0.26783 0.0
H770 H 0.20819 0.30442 0.26761 0.0
H771 H 0.2332 0.30446 0.31102 0.0
H772 H 0.22123 0.34581 0.21065 0.0
H773 H 0.1636 0.31467 0.30151 0.0
H774 H 0.16591 0.32209 0.35176 0.0
H775 H 0.20534 0.4226 0.34107 0.0
H776 H 0.20312 0.41563 0.29073 0.0
H777 H 0.07438 0.3061 0.15731 0.0
H778 H 0.10855 0.30397 0.19284 0.0
H779 H 0.14338 0.40278 0.21177 0.0
H780 H 0.10944 0.40516 0.17566 0.0
H781 H 0.14065 0.36403 0.25761 0.0
H782 H 0.18027 0.38848 0.16442 0.0
H783 H 0.17746 0.37867 0.11457 0.0
H784 H 0.17354 0.2895 0.12861 0.0
H785 H 0.17579 0.29854 0.17859 0.0
C786 C 0.26974 0.38452 0.3009 0.0
C787 C 0.26012 0.35577 0.31459 0.0
C788 C 0.25521 0.38443 0.27617 0.0
C789 C 0.23149 0.3556 0.26502 0.0
C790 C 0.22645 0.32685 0.27602 0.0
C791 C 0.24068 0.32692 0.30087 0.0
C792 C 0.20577 0.35546 0.249 0.0
C793 C 0.20353 0.34968 0.22075 0.0
C794 C 0.18279 0.36045 0.26243 0.0
C795 C 0.18327 0.36467 0.29252 0.0
C796 C 0.17267 0.33832 0.30994 0.0
C797 C 0.17395 0.34243 0.3384 0.0
C798 C 0.18583 0.37281 0.34961 0.0
C799 C 0.19618 0.39909 0.33237 0.0
C800 C 0.19482 0.39507 0.30389 0.0
C801 C 0.08794 0.32687 0.17015 0.0
C802 C 0.0897 0.35591 0.16369 0.0
C803 C 0.10775 0.32572 0.19013 0.0
C804 C 0.1291 0.35349 0.2041 0.0
C805 C 0.12724 0.38125 0.20077 0.0
C806 C 0.10751 0.38249 0.18049 0.0
C807 C 0.15601 0.35463 0.21902 0.0
C808 C 0.15838 0.36039 0.24726 0.0
C809 C 0.17889 0.34939 0.20543 0.0
C810 C 0.17789 0.34406 0.17531 0.0
C811 C 0.17856 0.36667 0.15691 0.0
C812 C 0.17713 0.36127 0.12861 0.0
C813 C 0.17529 0.33346 0.11843 0.0
C814 C 0.17495 0.31103 0.13652 0.0
C815 C 0.17632 0.31629 0.16484 0.0
H816 H 0.17415 0.32933 0.09653 0.0
H817 H 0.187 0.37597 0.37164 0.0
H818 H 0.59928 0.69637 0.16661 0.0
H819 H 0.59184 0.71818 0.20919 0.0
H820 H 0.69243 0.7847 0.21308 0.0
H821 H 0.70005 0.76334 0.17025 0.0
H822 H 0.65721 0.76929 0.26637 0.0
H823 H 0.65934 0.80845 0.17296 0.0
H824 H 0.64233 0.79909 0.12449 0.0
H825 H 0.54479 0.75732 0.14931 0.0
H826 H 0.56127 0.76616 0.19797 0.0
H827 H 0.68023 0.90819 0.31628 0.0
H828 H 0.67972 0.87774 0.27623 0.0
H829 H 0.57747 0.82255 0.27996 0.0
H830 H 0.57784 0.85338 0.3199 0.0
H831 H 0.6079 0.82782 0.22459 0.0
H832 H 0.60792 0.796 0.3191 0.0
H833 H 0.62713 0.80749 0.36689 0.0
H834 H 0.72183 0.83623 0.33983 0.0
H835 H 0.70321 0.82528 0.29181 0.0
C836 C 0.62013 0.71425 0.17737 0.0
C837 C 0.6501 0.72907 0.16467 0.0
C838 C 0.61577 0.72679 0.20169 0.0
C839 C 0.64145 0.75368 0.21357 0.0
C840 C 0.67229 0.76416 0.20392 0.0
C841 C 0.67662 0.7519 0.17943 0.0
C842 C 0.63559 0.77563 0.2302 0.0
C843 C 0.64632 0.78196 0.25735 0.0
C844 C 0.62141 0.79217 0.21824 0.0
C845 C 0.61149 0.78767 0.18905 0.0
C846 C 0.63426 0.79714 0.16806 0.0
C847 C 0.62473 0.79195 0.14057 0.0
C848 C 0.59249 0.77751 0.13383 0.0
C849 C 0.56974 0.76843 0.15457 0.0
C850 C 0.57916 0.77356 0.1821 0.0
C851 C 0.65755 0.89096 0.30747 0.0
C852 C 0.62912 0.88257 0.32135 0.0
C853 C 0.65729 0.87345 0.28472 0.0
C854 C 0.62863 0.84734 0.2759 0.0
C855 C 0.5998 0.84251 0.28675 0.0
C856 C 0.60004 0.86028 0.30946 0.0
C857 C 0.62956 0.82151 0.26075 0.0
C858 C 0.61813 0.81465 0.23382 0.0
C859 C 0.64313 0.8045 0.27292 0.0
C860 C 0.65421 0.81002 0.30186 0.0
C861 C 0.63286 0.80487 0.32334 0.0
C862 C 0.64363 0.81126 0.35047 0.0
C863 C 0.67569 0.82264 0.35639 0.0
C864 C 0.69701 0.82744 0.33521 0.0
C865 C 0.68635 0.82109 0.30803 0.0
H866 H 0.68401 0.82768 0.37739 0.0
H867 H 0.58516 0.77343 0.11255 0.0
H868 H 0.25728 0.93932 0.20677 0.0
H869 H 0.22065 0.89842 0.23848 0.0
H870 H 0.23468 0.82832 0.19568 0.0
H871 H 0.27255 0.8695 0.1651 0.0
H872 H 0.16703 0.85235 0.22734 0.0
H873 H 0.21679 0.76496 0.23425 0.0
H874 H 0.26881 0.76763 0.23747 0.0
H875 H 0.31038 0.8618 0.27125 0.0
H876 H 0.25857 0.85954 0.26858 0.0
H877 H 0.03953 0.71239 0.27772 0.0
H878 H 0.08381 0.74851 0.24836 0.0
H879 H 0.14994 0.76043 0.31298 0.0
H880 H 0.10618 0.72082 0.34021 0.0
H881 H 0.17889 0.76698 0.27154 0.0
H882 H 0.11581 0.8139 0.29865 0.0
H883 H 0.06697 0.81741 0.30281 0.0
H884 H 0.05845 0.81605 0.21511 0.0
H885 H 0.10706 0.81219 0.21044 0.0
C886 C 0.25327 0.91534 0.20487 0.0
C887 C 0.26795 0.90752 0.18393 0.0
C888 C 0.23218 0.89196 0.22275 0.0
C889 C 0.2249 0.86024 0.21955 0.0
C890 C 0.2404 0.85267 0.19904 0.0
C891 C 0.26206 0.87621 0.18156 0.0
C892 C 0.19907 0.83475 0.23592 0.0
C893 C 0.16975 0.83385 0.23724 0.0
C894 C 0.2026 0.81077 0.24909 0.0
C895 C 0.23383 0.81218 0.25093 0.0
C896 C 0.237 0.78619 0.24245 0.0
C897 C 0.26647 0.78764 0.24417 0.0
C898 C 0.29291 0.81491 0.25447 0.0
C899 C 0.28992 0.84074 0.26316 0.0
C900 C 0.26052 0.83941 0.26151 0.0
C901 C 0.06367 0.72232 0.28521 0.0
C902 C 0.0696 0.71471 0.31141 0.0
C903 C 0.08894 0.74329 0.26867 0.0
C904 C 0.1203 0.75853 0.27884 0.0
C905 C 0.12611 0.74949 0.30459 0.0
C906 C 0.10104 0.72722 0.32043 0.0
C907 C 0.14686 0.78482 0.2635 0.0
C908 C 0.17623 0.78568 0.26199 0.0
C909 C 0.14393 0.80982 0.25145 0.0
C910 C 0.11489 0.81247 0.25422 0.0
C911 C 0.10344 0.81424 0.28027 0.0
C912 C 0.0758 0.81628 0.28271 0.0
C913 C 0.05958 0.81687 0.25924 0.0
C914 C 0.07102 0.81554 0.23327 0.0
C915 C 0.09862 0.81345 0.23071 0.0
H916 H 0.03818 0.81843 0.26118 0.0
H917 H 0.31569 0.81598 0.25577 0.0
H918 H 0.94008 0.71069 0.8039 0.0
H919 H 0.89128 0.69925 0.78002 0.0
H920 H 0.84856 0.60059 0.80305 0.0
H921 H 0.89796 0.61172 0.82608 0.0
H922 H 0.83477 0.60575 0.7516 0.0
H923 H 0.82836 0.65461 0.83729 0.0
H924 H 0.84668 0.69639 0.87276 0.0
H925 H 0.85945 0.76539 0.81209 0.0
H926 H 0.84052 0.72401 0.77618 0.0
H927 H 0.69065 0.58052 0.69436 0.0
H928 H 0.72595 0.5829 0.73131 0.0
H929 H 0.78511 0.68386 0.71874 0.0
H930 H 0.74966 0.6819 0.68262 0.0
H931 H 0.78416 0.67087 0.77089 0.0
H932 H 0.80026 0.63014 0.6856 0.0
H933 H 0.7829 0.59298 0.64638 0.0
H934 H 0.75743 0.5149 0.70124 0.0
H935 H 0.77429 0.55161 0.74084 0.0
C936 C 0.92033 0.68652 0.80368 0.0
C937 C 0.92273 0.66219 0.81696 0.0
C938 C 0.89234 0.68006 0.79033 0.0
C939 C 0.8659 0.64926 0.79051 0.0
C940 C 0.86856 0.62461 0.80296 0.0
C941 C 0.89683 0.63097 0.81598 0.0
C942 C 0.83591 0.64279 0.77694 0.0
C943 C 0.82328 0.61949 0.75628 0.0
C944 C 0.82139 0.66132 0.78246 0.0
C945 C 0.83326 0.68625 0.80403 0.0
C946 C 0.83538 0.67874 0.83146 0.0
C947 C 0.84597 0.70237 0.85164 0.0
C948 C 0.85474 0.73357 0.84469 0.0
C949 C 0.85275 0.74123 0.81748 0.0
C950 C 0.84193 0.71769 0.79721 0.0
C951 C 0.71079 0.60332 0.6999 0.0
C952 C 0.71788 0.6309 0.68509 0.0
C953 C 0.73097 0.60461 0.72094 0.0
C954 C 0.75858 0.6334 0.72723 0.0
C955 C 0.76408 0.66134 0.71408 0.0
C956 C 0.74386 0.66013 0.6933 0.0
C957 C 0.78353 0.63436 0.74532 0.0
C958 C 0.79521 0.6566 0.76675 0.0
C959 C 0.79776 0.61556 0.73996 0.0
C960 C 0.78821 0.59354 0.71618 0.0
C961 C 0.79082 0.60502 0.6893 0.0
C962 C 0.78108 0.58405 0.667 0.0
C963 C 0.76899 0.55158 0.67132 0.0
C964 C 0.76675 0.54005 0.69794 0.0
C965 C 0.7764 0.56092 0.72031 0.0
H966 H 0.76143 0.53537 0.65405 0.0
H967 H 0.86276 0.75171 0.86045 0.0
H968 H 0.4046 0.27924 0.81571 0.0
H969 H 0.40777 0.25125 0.77527 0.0
H970 H 0.30762 0.21332 0.76052 0.0
H971 H 0.30428 0.24085 0.80119 0.0
H972 H 0.32315 0.16852 0.77767 0.0
H973 H 0.35932 0.25204 0.71073 0.0
H974 H 0.3944 0.30535 0.69172 0.0
H975 H 0.47381 0.28954 0.69601 0.0
H976 H 0.43928 0.23624 0.71538 0.0
H977 H 0.28909 0.07571 0.65915 0.0
H978 H 0.29682 0.10641 0.70075 0.0
H979 H 0.3967 0.13588 0.70028 0.0
H980 H 0.38903 0.10528 0.65824 0.0
H981 H 0.38777 0.18528 0.69425 0.0
H982 H 0.35054 0.09977 0.75725 0.0
H983 H 0.31558 0.04645 0.77629 0.0
H984 H 0.23842 0.06576 0.78008 0.0
H985 H 0.27275 0.11904 0.76072 0.0
C986 C 0.38373 0.26669 0.80282 0.0
C987 C 0.354 0.26141 0.81185 0.0
C988 C 0.38552 0.25044 0.77979 0.0
C989 C 0.3577 0.22949 0.7655 0.0
C990 C 0.32923 0.22901 0.77163 0.0
C991 C 0.3274 0.24501 0.7947 0.0
C992 C 0.35652 0.20311 0.74937 0.0
C993 C 0.33689 0.17208 0.75914 0.0
C994 C 0.37588 0.20807 0.72625 0.0
C995 C 0.39676 0.24026 0.71484 0.0
C996 C 0.38433 0.26004 0.70792 0.0
C997 C 0.4041 0.29023 0.69699 0.0
C998 C 0.43633 0.30087 0.69274 0.0
C999 C 0.44885 0.28129 0.69935 0.0
C1000 C 0.42918 0.25108 0.71028 0.0
C1001 C 0.31238 0.08738 0.66871 0.0
C1002 C 0.33858 0.08875 0.65523 0.0
C1003 C 0.31681 0.10496 0.69256 0.0
C1004 C 0.34748 0.12392 0.70335 0.0
C1005 C 0.3729 0.12162 0.69209 0.0
C1006 C 0.36842 0.10385 0.66822 0.0
C1007 C 0.35352 0.15046 0.722 0.0
C1008 C 0.37423 0.18163 0.71292 0.0
C1009 C 0.33517 0.14565 0.74584 0.0
C1010 C 0.31426 0.11343 0.75734 0.0
C1011 C 0.32605 0.09258 0.76191 0.0
C1012 C 0.30635 0.06236 0.77283 0.0
C1013 C 0.27479 0.05271 0.77936 0.0
C1014 C 0.26288 0.07327 0.77502 0.0
C1015 C 0.28248 0.10352 0.76412 0.0
H1016 H 0.25958 0.02931 0.7878 0.0
H1017 H 0.45159 0.32424 0.68427 0.0
H1018 H 0.75353 0.0784 0.8097 0.0
H1019 H 0.77634 0.11092 0.76899 0.0
H1020 H 0.72941 0.16402 0.78861 0.0
H1021 H 0.706 0.13107 0.82925 0.0
H1022 H 0.74962 0.15992 0.72645 0.0
H1023 H 0.78838 0.19238 0.8215 0.0
H1024 H 0.80025 0.17958 0.86739 0.0
H1025 H 0.86332 0.15144 0.83163 0.0
H1026 H 0.85148 0.1637 0.78549 0.0
H1027 H 0.87029 0.28633 0.65996 0.0
H1028 H 0.84103 0.26829 0.703 0.0
H1029 H 0.87703 0.20386 0.71454 0.0
H1030 H 0.90605 0.22154 0.67151 0.0
H1031 H 0.85938 0.22109 0.76405 0.0
H1032 H 0.81844 0.17945 0.67276 0.0
H1033 H 0.80815 0.18649 0.62447 0.0
H1034 H 0.75047 0.226 0.65035 0.0
H1035 H 0.76097 0.21971 0.69885 0.0
C1036 C 0.74644 0.09564 0.80435 0.0
C1037 C 0.72878 0.10293 0.82277 0.0
C1038 C 0.75949 0.11421 0.78113 0.0
C1039 C 0.7552 0.14031 0.77648 0.0
C1040 C 0.73303 0.14402 0.79212 0.0
C1041 C 0.71962 0.12512 0.81528 0.0
C1042 C 0.77989 0.16751 0.76125 0.0
C1043 C 0.77338 0.17394 0.73486 0.0
C1044 C 0.811 0.1852 0.77224 0.0
C1045 C 0.81894 0.17883 0.80006 0.0
C1046 C 0.8047 0.18337 0.82343 0.0
C1047 C 0.81144 0.17625 0.84948 0.0
C1048 C 0.83253 0.16471 0.85242 0.0
C1049 C 0.84701 0.16039 0.82933 0.0
C1050 C 0.84034 0.16749 0.80323 0.0
C1051 C 0.87339 0.26963 0.67243 0.0
C1052 C 0.88945 0.25445 0.66213 0.0
C1053 C 0.85659 0.25931 0.69698 0.0
C1054 C 0.85617 0.23408 0.7113 0.0
C1055 C 0.87683 0.22311 0.70352 0.0
C1056 C 0.8933 0.23313 0.67888 0.0
C1057 C 0.82919 0.21377 0.72922 0.0
C1058 C 0.83532 0.20818 0.75604 0.0
C1059 C 0.79789 0.19649 0.71844 0.0
C1060 C 0.79076 0.19945 0.68937 0.0
C1061 C 0.8037 0.18978 0.66813 0.0
C1062 C 0.79785 0.19365 0.64074 0.0
C1063 C 0.77873 0.20676 0.63435 0.0
C1064 C 0.76534 0.21592 0.65534 0.0
C1065 C 0.77124 0.21223 0.68279 0.0
H1066 H 0.77423 0.20975 0.61313 0.0
H1067 H 0.83765 0.15912 0.8726 0.0
H1068 H -0.00436 0.39501 0.05037 0.0
H1069 H 0.97167 0.41745 0.02033 0.0
H1070 H 0.03796 0.51152 0.0499 0.0
H1071 H 0.06228 0.48934 0.08003 0.0
H1072 H 0.97635 0.50203 0.03923 0.0
H1073 H 0.0577 0.48887 -0.00454 0.0
H1074 H 0.08442 0.45918 0.98152 0.0
H1075 H 0.00186 0.39391 0.93544 0.0
H1076 H 0.97442 0.42295 0.94951 0.0
H1077 H 0.98603 0.59761 0.92713 0.0
H1078 H 0.00206 0.57031 0.95987 0.0
H1079 H 0.92773 0.47973 0.93017 0.0
H1080 H 0.91102 0.5069 0.89745 0.0
H1081 H 0.9905 0.48524 0.94087 0.0
H1082 H 0.91041 0.50166 0.98366 0.0
H1083 H 0.88586 0.53344 -0.00256 0.0
H1084 H 0.96867 0.59506 0.04496 0.0
H1085 H -0.00606 0.56389 0.03111 0.0
C1086 C 0.00468 0.4204 0.05104 0.0
C1087 C 0.03129 0.44049 0.06721 0.0
C1088 C 0.99098 0.43316 0.03379 0.0
C1089 C 0.00352 0.46614 0.03254 0.0
C1090 C 0.02812 0.48599 0.05048 0.0
C1091 C 0.042 0.47327 0.06765 0.0
C1092 C -0.00666 0.48008 0.01058 0.0
C1093 C 0.97959 0.49853 0.01775 0.0
C1094 C -0.00264 0.4752 0.98255 0.0
C1095 C 0.01386 0.45783 0.97383 0.0
C1096 C 0.04513 0.46801 0.98256 0.0
C1097 C 0.06043 0.45134 0.9746 0.0
C1098 C 0.04481 0.42461 0.95768 0.0
C1099 C 0.0139 0.41458 0.9486 0.0
C1100 C -0.00154 0.43114 0.95656 0.0
C1101 C 0.97335 0.57187 0.92718 0.0
C1102 C 0.94703 0.55438 0.90985 0.0
C1103 C 0.98249 0.55635 0.94599 0.0
C1104 C 0.96576 0.52311 0.94761 0.0
C1105 C 0.94077 0.50545 0.92924 0.0
C1106 C 0.93128 0.52099 0.91061 0.0
C1107 C 0.97344 0.50709 0.96954 0.0
C1108 C 0.9869 0.4884 0.96235 0.0
C1109 C 0.9694 0.51198 -0.00247 0.0
C1110 C 0.95419 0.53062 0.00612 0.0
C1111 C 0.92351 0.52215 -0.00315 0.0
C1112 C 0.90944 0.54002 0.00472 0.0
C1113 C 0.92573 0.5663 0.02201 0.0
C1114 C 0.9561 0.57471 0.03154 0.0
C1115 C 0.97029 0.55693 0.02371 0.0
H1116 H 0.9148 0.58011 0.02808 0.0
H1117 H 0.05669 0.41173 0.95154 0.0
H1118 H 0.51362 0.61728 0.02567 0.0
H1119 H 0.49066 0.56634 0.00211 0.0
H1120 H 0.54485 0.53848 0.05371 0.0
H1121 H 0.56914 0.59029 0.07666 0.0
H1122 H 0.55164 0.5277 0.00282 0.0
H1123 H 0.46111 0.50538 0.05846 0.0
H1124 H 0.41946 0.51465 0.07779 0.0
H1125 H 0.38287 0.51162 -0.00301 0.0
H1126 H 0.42459 0.50283 0.97712 0.0
H1127 H 0.47448 0.36616 0.96166 0.0
H1128 H 0.49719 0.41719 0.98516 0.0
H1129 H 0.44534 0.44587 0.9315 0.0
H1130 H 0.42164 0.39426 0.90832 0.0
H1131 H 0.43716 0.45617 0.98314 0.0
H1132 H 0.52772 0.47921 0.92749 0.0
H1133 H 0.56913 0.46976 0.90787 0.0
H1134 H 0.60521 0.47114 0.98856 0.0
H1135 H 0.56377 0.48021 0.0087 0.0
C1136 C 0.52026 0.60012 0.03239 0.0
C1137 C 0.54327 0.60779 0.05296 0.0
C1138 C 0.50697 0.57089 0.01893 0.0
C1139 C 0.51579 0.54842 0.02628 0.0
C1140 C 0.53775 0.5555 0.04767 0.0
C1141 C 0.5515 0.58501 0.06084 0.0
C1142 C 0.50404 0.51868 0.0102 0.0
C1143 C 0.52655 0.51176 -0.00107 0.0
C1144 C 0.47138 0.49849 0.00429 0.0
C1145 C 0.4462 0.50373 0.01627 0.0
C1146 C 0.44435 0.50694 0.04478 0.0
C1147 C 0.4207 0.51208 0.05584 0.0
C1148 C 0.3986 0.51382 0.03862 0.0
C1149 C 0.40004 0.51033 0.0103 0.0
C1150 C 0.42367 0.50524 -0.00086 0.0
C1151 C 0.46828 0.38349 0.9545 0.0
C1152 C 0.44615 0.37614 0.9332 0.0
C1153 C 0.48141 0.41274 0.96793 0.0
C1154 C 0.47313 0.43542 0.95997 0.0
C1155 C 0.452 0.42865 0.93798 0.0
C1156 C 0.4386 0.39923 0.92469 0.0
C1157 C 0.48475 0.4652 0.9759 0.0
C1158 C 0.46224 0.47213 0.9871 0.0
C1159 C 0.51738 0.48541 0.98173 0.0
C1160 C 0.54246 0.48014 0.96962 0.0
C1161 C 0.54434 0.47728 0.94107 0.0
C1162 C 0.56785 0.47204 0.92985 0.0
C1163 C 0.58974 0.46978 0.94696 0.0
C1164 C 0.58823 0.47286 0.97533 0.0
C1165 C 0.56476 0.47811 0.98665 0.0
H1166 H 0.60791 0.4657 0.93823 0.0
H1167 H 0.38031 0.51779 0.04723 0.0
H1168 H 0.39213 0.98342 0.06989 0.0
H1169 H 0.43775 0.00792 0.0389 0.0
H1170 H 0.41363 0.91538 0.00747 0.0
H1171 H 0.36831 0.89068 0.03852 0.0
H1172 H 0.47575 0.95072 0.0203 0.0
H1173 H 0.39889 0.96536 0.96976 0.0
H1174 H 0.35962 0.983 0.96351 0.0
H1175 H 0.4317 0.07945 0.97976 0.0
H1176 H 0.47132 0.06235 0.98649 0.0
H1177 H 0.59383 0.01019 0.91811 0.0
H1178 H 0.54091 0.98218 0.9387 0.0
H1179 H 0.55299 0.0713 0.96867 0.0
H1180 H 0.6054 0.09947 0.94762 0.0
H1181 H 0.494 0.03486 0.95333 0.0
H1182 H 0.56825 0.02217 0.0095 0.0
H1183 H 0.6072 0.00642 0.02375 0.0
H1184 H 0.54133 0.90943 0.00241 0.0
H1185 H 0.5021 0.92466 0.98771 0.0
C1186 C 0.39662 0.96829 0.05645 0.0
C1187 C 0.37667 0.93511 0.05668 0.0
C1188 C 0.42249 0.98234 0.03858 0.0
C1189 C 0.4287 0.96346 0.0206 0.0
C1190 C 0.40907 0.93035 0.02107 0.0
C1191 C 0.38325 0.91629 0.03889 0.0
C1192 C 0.45662 0.97804 0.00226 0.0
C1193 C 0.47946 0.96864 0.00521 0.0
C1194 C 0.46177 0.00212 0.98328 0.0
C1195 C 0.43803 0.01251 0.97885 0.0
C1196 C 0.40633 0.9903 0.97218 0.0
C1197 C 0.38401 0.00021 0.96853 0.0
C1198 C 0.39314 0.03231 0.9713 0.0
C1199 C 0.42465 0.05459 0.97764 0.0
C1200 C 0.44706 0.0448 0.98134 0.0
C1201 C 0.58497 0.02387 0.92867 0.0
C1202 C 0.60395 0.05702 0.93152 0.0
C1203 C 0.55482 0.00781 0.94057 0.0
C1204 C 0.5433 0.02459 0.95573 0.0
C1205 C 0.56144 0.05784 0.95718 0.0
C1206 C 0.59147 0.07392 0.94517 0.0
C1207 C 0.51329 0.00759 0.97145 0.0
C1208 C 0.49006 0.01655 0.96806 0.0
C1209 C 0.50794 0.9834 0.99044 0.0
C1210 C 0.53239 0.97463 -0.00279 0.0
C1211 C 0.56226 -0.00242 0.00744 0.0
C1212 C 0.5843 0.9887 0.01577 0.0
C1213 C 0.57664 0.95692 0.01416 0.0
C1214 C 0.54715 0.93401 0.00378 0.0
C1215 C 0.52503 0.94276 -0.0046 0.0
H1216 H 0.5936 0.95004 0.02091 0.0
H1217 H 0.37581 0.03992 0.9685 0.0
H1218 H 0.58047 0.97367 0.42093 0.0
H1219 H 0.56028 0.00304 0.4468 0.0
H1220 H 0.4673 0.91938 0.44926 0.0
H1221 H 0.48722 0.88975 0.42339 0.0
H1222 H 0.46508 0.97522 0.4429 0.0
H1223 H 0.51743 0.93366 0.50004 0.0
H1224 H 0.56243 0.92694 0.51444 0.0
H1225 H 0.61935 0.02741 0.52853 0.0
H1226 H 0.57492 0.03485 0.51354 0.0
H1227 H 0.39451 0.002 0.55643 0.0
H1228 H 0.41875 0.97746 0.5292 0.0
H1229 H 0.50885 0.06463 0.53225 0.0
H1230 H 0.48488 0.08946 0.55963 0.0
H1231 H 0.51511 0.01074 0.53466 0.0
H1232 H 0.46332 0.05285 0.4795 0.0
H1233 H 0.41895 0.06062 0.46516 0.0
H1234 H 0.3621 0.96101 0.4471 0.0
H1235 H 0.40595 0.95254 0.46182 0.0
C1236 C 0.55552 0.96169 0.42636 0.0
C1237 C 0.53552 0.9292 0.42049 0.0
C1238 C 0.5441 0.9785 0.44126 0.0
C1239 C 0.51251 0.96314 0.4504 0.0
C1240 C 0.49183 0.93155 0.44254 0.0
C1241 C 0.50327 0.91466 0.42778 0.0
C1242 C 0.50166 0.97887 0.47017 0.0
C1243 C 0.47584 0.98278 0.46303 0.0
C1244 C 0.51625 0.98934 0.4962 0.0
C1245 C 0.54296 0.98486 0.50531 0.0
C1246 C 0.53964 0.95437 0.50592 0.0
C1247 C 0.56505 0.95043 0.51422 0.0
C1248 C 0.59377 0.97675 0.5223 0.0
C1249 C 0.59711 0.00705 0.5222 0.0
C1250 C 0.57184 0.01115 0.51376 0.0
C1251 C 0.41967 0.01577 0.55193 0.0
C1252 C 0.43765 0.04789 0.55974 0.0
C1253 C 0.43343 0.00173 0.53624 0.0
C1254 C 0.46533 0.01955 0.52816 0.0
C1255 C 0.48408 0.05064 0.53806 0.0
C1256 C 0.47032 0.06476 0.5537 0.0
C1257 C 0.47825 0.00665 0.50752 0.0
C1258 C 0.50448 0.00335 0.51447 0.0
C1259 C 0.46418 -0.00307 0.48124 0.0
C1260 C 0.43783 0.002 0.47207 0.0
C1261 C 0.44127 0.03254 0.4727 0.0
C1262 C 0.41621 0.03709 0.46447 0.0
C1263 C 0.38768 0.01131 0.45529 0.0
C1264 C 0.38419 0.98096 0.45426 0.0
C1265 C 0.40914 0.97627 0.46253 0.0
H1266 H 0.36831 0.01487 0.44894 0.0
H1267 H 0.61342 0.97366 0.52871 0.0
H1268 H 0.87749 0.37942 0.54854 0.0
H1269 H 0.90436 0.43079 0.52547 0.0
H1270 H -0.00485 0.44471 0.5522 0.0
H1271 H 0.96853 0.39312 0.57519 0.0
H1272 H 0.98872 0.50234 0.55054 0.0
H1273 H 0.97472 0.41319 0.49517 0.0
H1274 H 0.94321 0.35946 0.47538 0.0
H1275 H 0.8824 0.38747 0.43503 0.0
H1276 H 0.91326 0.44127 0.455 0.0
H1277 H 0.088 0.60804 0.44824 0.0
H1278 H 0.06155 0.56143 0.47782 0.0
H1279 H 0.97084 0.5386 0.44298 0.0
H1280 H -0.00296 0.58493 0.41314 0.0
H1281 H 0.97709 0.48595 0.44968 0.0
H1282 H 0.99084 0.57496 0.50338 0.0
H1283 H 0.02133 0.62884 0.52309 0.0
H1284 H 0.08133 0.60179 0.5662 0.0
H1285 H 0.0514 0.5478 0.54646 0.0
C1286 C 0.9031 0.39374 0.55019 0.0
C1287 C 0.92097 0.38199 0.5632 0.0
C1288 C 0.91838 0.42307 0.53698 0.0
C1289 C 0.95166 0.44111 0.53684 0.0
C1290 C 0.96942 0.43094 0.55206 0.0
C1291 C 0.95417 0.40144 0.56507 0.0
C1292 C 0.96786 0.4681 0.51786 0.0
C1293 C 0.98649 0.49883 0.5285 0.0
C1294 C 0.96441 0.46334 0.48915 0.0
C1295 C 0.94606 0.43113 0.47684 0.0
C1296 C 0.95445 0.40781 0.48228 0.0
C1297 C 0.93675 0.37736 0.471 0.0
C1298 C 0.91076 0.37003 0.45402 0.0
C1299 C 0.9025 0.39317 0.44823 0.0
C1300 C 0.9201 0.42365 0.45952 0.0
C1301 C 0.06247 0.5929 0.44662 0.0
C1302 C 0.04457 0.60029 0.4285 0.0
C1303 C 0.0474 0.56641 0.46364 0.0
C1304 C 0.01424 0.54698 0.46286 0.0
C1305 C -0.00353 0.55344 0.44394 0.0
C1306 C 0.01149 0.57992 0.42692 0.0
C1307 C -0.00204 0.52035 0.48228 0.0
C1308 C 0.97932 0.48958 0.47171 0.0
C1309 C 0.00131 0.52516 0.51102 0.0
C1310 C 0.01908 0.55743 0.52324 0.0
C1311 C 0.01067 0.58056 0.51692 0.0
C1312 C 0.02783 0.6111 0.52812 0.0
C1313 C 0.05331 0.61876 0.54583 0.0
C1314 C 0.06161 0.59583 0.55246 0.0
C1315 C 0.04453 0.56524 0.5413 0.0
H1316 H 0.06659 0.64243 0.55446 0.0
H1317 H 0.89708 0.34644 0.44531 0.0
H1318 H 0.37596 0.48375 0.4578 0.0
H1319 H 0.4267 0.50407 0.48105 0.0
H1320 H 0.45515 0.45654 0.42205 0.0
H1321 H 0.40334 0.43463 0.39939 0.0
H1322 H 0.46529 0.44333 0.4704 0.0
H1323 H 0.48984 0.54114 0.42684 0.0
H1324 H 0.48197 0.58554 0.41294 0.0
H1325 H 0.48095 0.61018 0.4974 0.0
H1326 H 0.4883 0.56564 0.51185 0.0
H1327 H 0.62112 0.51283 0.52787 0.0
H1328 H 0.57478 0.49538 0.49834 0.0
H1329 H 0.53538 0.53462 0.55539 0.0
H1330 H 0.58223 0.55305 0.58472 0.0
H1331 H 0.5339 0.55326 0.50466 0.0
H1332 H 0.50562 0.45305 0.54779 0.0
H1333 H 0.51374 0.40874 0.56151 0.0
H1334 H 0.52245 0.38925 0.47702 0.0
H1335 H 0.51485 0.43374 0.46279 0.0
C1336 C 0.39322 0.47812 0.44938 0.0
C1337 C 0.38564 0.45748 0.42683 0.0
C1338 C 0.4224 0.48995 0.46264 0.0
C1339 C 0.44498 0.48218 0.45316 0.0
C1340 C 0.43808 0.46285 0.42975 0.0
C1341 C 0.40856 0.45045 0.41676 0.0
C1342 C 0.47423 0.49154 0.46935 0.0
C1343 C 0.48067 0.46753 0.47739 0.0
C1344 C 0.49383 0.52295 0.47913 0.0
C1345 C 0.4894 0.54983 0.47043 0.0
C1346 C 0.48769 0.55585 0.44247 0.0
C1347 C 0.48335 0.58109 0.43449 0.0
C1348 C 0.48089 0.60062 0.45427 0.0
C1349 C 0.48282 0.59501 0.48209 0.0
C1350 C 0.48712 0.56979 0.49018 0.0
C1351 C 0.60238 0.51733 0.53438 0.0
C1352 C 0.60534 0.53438 0.5586 0.0
C1353 C 0.57586 0.50726 0.51747 0.0
C1354 C 0.55156 0.51356 0.52473 0.0
C1355 C 0.55394 0.52962 0.54938 0.0
C1356 C 0.58062 0.53999 0.56618 0.0
C1357 C 0.52451 0.50498 0.50593 0.0
C1358 C 0.51859 0.52915 0.4974 0.0
C1359 C 0.50545 0.47377 0.49564 0.0
C1360 C 0.51 0.44697 0.50424 0.0
C1361 C 0.50954 0.4395 0.53214 0.0
C1362 C 0.514 0.41431 0.54001 0.0
C1363 C 0.51871 0.39625 0.52015 0.0
C1364 C 0.51887 0.40329 0.49238 0.0
C1365 C 0.51446 0.42848 0.48441 0.0
H1366 H 0.52216 0.37676 0.52629 0.0
H1367 H 0.47754 0.62015 0.44805 0.0
loop_
_geom_bond_atom_site_label_1
_geom_bond_atom_site_label_2
_geom_bond_distance
_geom_bond_site_symmetry_2
_ccdc_geom_bond_type
Mg0 O1 2.028 . S
Mg0 O7 1.986 . S
Mg0 O9 2.114 . S
Mg0 O10 2.251 . S
Mg0 O13 2.010 . S
O1 Mg0 2.028 . S
O1 C4 1.250 . S
O2 Mg3 2.028 . S
O2 C4 1.248 . S
Mg3 O2 2.028 . S
Mg3 O8 2.032 . S
Mg3 O10 2.079 . S
C4 O1 1.250 . S
C4 O2 1.248 . S
C5 O6 1.264 . S
C5 O13 1.249 . S
O6 C5 1.264 . S
O7 Mg0 1.986 . S
O7 C11 1.246 . S
O8 Mg3 2.032 . S
O8 C11 1.259 . S
O9 Mg0 2.114 . S
O9 C12 1.252 . S
O10 Mg0 2.251 . S
O10 Mg3 2.079 . S
O10 C12 1.273 . S
C11 O7 1.246 . S
C11 O8 1.259 . S
C12 O9 1.252 . S
C12 O10 1.273 . S
O13 Mg0 2.010 . S
O13 C5 1.249 . S
Mg14 O15 2.028 . S
Mg14 O21 1.986 . S
Mg14 O23 2.114 . S
Mg14 O24 2.251 . S
Mg14 O27 2.010 . S
O15 Mg14 2.028 . S
O15 C18 1.250 . S
O16 Mg17 2.028 . S
O16 C18 1.248 . S
Mg17 O16 2.028 . S
Mg17 O22 2.032 . S
Mg17 O24 2.079 . S
C18 O15 1.250 . S
C18 O16 1.248 . S
C19 O20 1.264 . S
C19 O27 1.249 . S
O20 C19 1.264 . S
O21 Mg14 1.986 . S
O21 C25 1.246 . S
O22 Mg17 2.032 . S
O22 C25 1.259 . S
O23 Mg14 2.114 . S
O23 C26 1.252 . S
O24 Mg14 2.251 . S
O24 Mg17 2.079 . S
O24 C26 1.273 . S
C25 O21 1.246 . S
C25 O22 1.259 . S
C26 O23 1.252 . S
C26 O24 1.273 . S
O27 Mg14 2.010 . S
O27 C19 1.249 . S
Mg28 O29 2.028 . S
Mg28 O35 1.986 . S
Mg28 O37 2.114 . S
Mg28 O38 2.251 . S
Mg28 O41 2.010 . S
O29 Mg28 2.028 . S
O29 C32 1.250 . S
O30 Mg31 2.028 . S
O30 C32 1.248 . S
Mg31 O30 2.028 . S
Mg31 O36 2.032 . S
Mg31 O38 2.079 . S
C32 O29 1.250 . S
C32 O30 1.248 . S
C33 O34 1.264 . S
C33 O41 1.249 . S
O34 C33 1.264 . S
O35 Mg28 1.986 . S
O35 C39 1.246 . S
O36 Mg31 2.032 . S
O36 C39 1.259 . S
O37 Mg28 2.114 . S
O37 C40 1.252 . S
O38 Mg28 2.251 . S
O38 Mg31 2.079 . S
O38 C40 1.273 . S
C39 O35 1.246 . S
C39 O36 1.259 . S
C40 O37 1.252 . S
C40 O38 1.273 . S
O41 Mg28 2.010 . S
O41 C33 1.249 . S
Mg42 O43 2.028 . S
Mg42 O49 1.986 . S
Mg42 O51 2.114 . S
Mg42 O52 2.251 . S
Mg42 O55 2.010 . S
O43 Mg42 2.028 . S
O43 C46 1.250 . S
O44 Mg45 2.028 . S
O44 C46 1.248 . S
Mg45 O44 2.028 . S
Mg45 O50 2.032 . S
Mg45 O52 2.079 . S
C46 O43 1.250 . S
C46 O44 1.248 . S
C47 O48 1.264 . S
C47 O55 1.249 . S
O48 C47 1.264 . S
O49 Mg42 1.986 . S
O49 C53 1.246 . S
O50 Mg45 2.032 . S
O50 C53 1.259 . S
O51 Mg42 2.114 . S
O51 C54 1.252 . S
O52 Mg42 2.251 . S
O52 Mg45 2.079 . S
O52 C54 1.273 . S
C53 O49 1.246 . S
C53 O50 1.259 . S
C54 O51 1.252 . S
C54 O52 1.273 . S
O55 Mg42 2.010 . S
O55 C47 1.249 . S
Mg56 O57 2.028 . S
Mg56 O63 1.986 . S
Mg56 O65 2.114 . S
Mg56 O66 2.251 . S
Mg56 O69 2.010 . S
O57 Mg56 2.028 . S
O57 C60 1.250 . S
O58 Mg59 2.028 . S
O58 C60 1.248 . S
Mg59 O58 2.028 . S
Mg59 O64 2.032 . S
Mg59 O66 2.079 . S
C60 O57 1.250 . S
C60 O58 1.248 . S
C61 O62 1.264 . S
C61 O69 1.249 . S
O62 C61 1.264 . S
O63 Mg56 1.986 . S
O63 C67 1.246 . S
O64 Mg59 2.032 . S
O64 C67 1.259 . S
O65 Mg56 2.114 . S
O65 C68 1.252 . S
O66 Mg56 2.251 . S
O66 Mg59 2.079 . S
O66 C68 1.273 . S
C67 O63 1.246 . S
C67 O64 1.259 . S
C68 O65 1.252 . S
C68 O66 1.273 . S
O69 Mg56 2.010 . S
O69 C61 1.249 . S
Mg70 O71 2.028 . S
Mg70 O77 1.986 . S
Mg70 O79 2.114 . S
Mg70 O80 2.251 . S
Mg70 O83 2.010 . S
O71 Mg70 2.028 . S
O71 C74 1.250 . S
O72 Mg73 2.028 . S
O72 C74 1.248 . S
Mg73 O72 2.028 . S
Mg73 O78 2.032 . S
Mg73 O80 2.079 . S
C74 O71 1.250 . S
C74 O72 1.248 . S
C75 O76 1.264 . S
C75 O83 1.249 . S
O76 C75 1.264 . S
O77 Mg70 1.986 . S
O77 C81 1.246 . S
O78 Mg73 2.032 . S
O78 C81 1.259 . S
O79 Mg70 2.114 . S
O79 C82 1.252 . S
O80 Mg70 2.251 . S
O80 Mg73 2.079 . S
O80 C82 1.273 . S
C81 O77 1.246 . S
C81 O78 1.259 . S
C82 O79 1.252 . S
C82 O80 1.273 . S
O83 Mg70 2.010 . S
O83 C75 1.249 . S
Mg84 O85 2.028 . S
Mg84 O91 1.986 . S
Mg84 O93 2.114 . S
Mg84 O94 2.251 . S
Mg84 O97 2.010 . S
O85 Mg84 2.028 . S
O85 C88 1.250 . S
O86 Mg87 2.028 . S
O86 C88 1.248 . S
Mg87 O86 2.028 . S
Mg87 O92 2.032 . S
Mg87 O94 2.079 . S
C88 O85 1.250 . S
C88 O86 1.248 . S
C89 O90 1.264 . S
C89 O97 1.249 . S
O90 C89 1.264 . S
O91 Mg84 1.986 . S
O91 C95 1.246 . S
O92 Mg87 2.032 . S
O92 C95 1.259 . S
O93 Mg84 2.114 . S
O93 C96 1.252 . S
O94 Mg84 2.251 . S
O94 Mg87 2.079 . S
O94 C96 1.273 . S
C95 O91 1.246 . S
C95 O92 1.259 . S
C96 O93 1.252 . S
C96 O94 1.273 . S
O97 Mg84 2.010 . S
O97 C89 1.249 . S
Mg98 O99 2.028 . S
Mg98 O105 1.986 . S
Mg98 O107 2.114 . S
Mg98 O108 2.251 . S
Mg98 O111 2.010 . S
O99 Mg98 2.028 . S
O99 C102 1.250 . S
O100 Mg101 2.028 . S
O100 C102 1.248 . S
Mg101 O100 2.028 . S
Mg101 O106 2.032 . S
Mg101 O108 2.079 . S
C102 O99 1.250 . S
C102 O100 1.248 . S
C103 O104 1.264 . S
C103 O111 1.249 . S
O104 C103 1.264 . S
O105 Mg98 1.986 . S
O105 C109 1.246 . S
O106 Mg101 2.032 . S
O106 C109 1.259 . S
O107 Mg98 2.114 . S
O107 C110 1.252 . S
O108 Mg98 2.251 . S
O108 Mg101 2.079 . S
O108 C110 1.273 . S
C109 O105 1.246 . S
C109 O106 1.259 . S
C110 O107 1.252 . S
C110 O108 1.273 . S
O111 Mg98 2.010 . S
O111 C103 1.249 . S
Mg112 O113 2.028 . S
Mg112 O119 1.986 . S
Mg112 O121 2.114 . S
Mg112 O122 2.251 . S
Mg112 O125 2.010 . S
O113 Mg112 2.028 . S
O113 C116 1.250 . S
O114 Mg115 2.028 . S
O114 C116 1.248 . S
Mg115 O114 2.028 . S
Mg115 O120 2.032 . S
Mg115 O122 2.079 . S
C116 O113 1.250 . S
C116 O114 1.248 . S
C117 O118 1.264 . S
C117 O125 1.249 . S
O118 C117 1.264 . S
O119 Mg112 1.986 . S
O119 C123 1.246 . S
O120 Mg115 2.032 . S
O120 C123 1.259 . S
O121 Mg112 2.114 . S
O121 C124 1.252 . S
O122 Mg112 2.251 . S
O122 Mg115 2.079 . S
O122 C124 1.273 . S
C123 O119 1.246 . S
C123 O120 1.259 . S
C124 O121 1.252 . S
C124 O122 1.273 . S
O125 Mg112 2.010 . S
O125 C117 1.249 . S
Mg126 O127 2.028 . S
Mg126 O133 1.986 . S
Mg126 O135 2.114 . S
Mg126 O136 2.251 . S
Mg126 O139 2.010 . S
O127 Mg126 2.028 . S
O127 C130 1.250 . S
O128 Mg129 2.028 . S
O128 C130 1.248 . S
Mg129 O128 2.028 . S
Mg129 O134 2.032 . S
Mg129 O136 2.079 . S
C130 O127 1.250 . S
C130 O128 1.248 . S
C131 O132 1.264 . S
C131 O139 1.249 . S
O132 C131 1.264 . S
O133 Mg126 1.986 . S
O133 C137 1.246 . S
O134 Mg129 2.032 . S
O134 C137 1.259 . S
O135 Mg126 2.114 . S
O135 C138 1.252 . S
O136 Mg126 2.251 . S
O136 Mg129 2.079 . S
O136 C138 1.273 . S
C137 O133 1.246 . S
C137 O134 1.259 . S
C138 O135 1.252 . S
C138 O136 1.273 . S
O139 Mg126 2.010 . S
O139 C131 1.249 . S
Mg140 O141 2.028 . S
Mg140 O147 1.986 . S
Mg140 O149 2.114 . S
Mg140 O150 2.251 . S
Mg140 O153 2.010 . S
O141 Mg140 2.028 . S
O141 C144 1.250 . S
O142 Mg143 2.028 . S
O142 C144 1.248 . S
Mg143 O142 2.028 . S
Mg143 O148 2.032 . S
Mg143 O150 2.079 . S
C144 O141 1.250 . S
C144 O142 1.248 . S
C145 O146 1.264 . S
C145 O153 1.249 . S
O146 C145 1.264 . S
O147 Mg140 1.986 . S
O147 C151 1.246 . S
O148 Mg143 2.032 . S
O148 C151 1.259 . S
O149 Mg140 2.114 . S
O149 C152 1.252 . S
O150 Mg140 2.251 . S
O150 Mg143 2.079 . S
O150 C152 1.273 . S
C151 O147 1.246 . S
C151 O148 1.259 . S
C152 O149 1.252 . S
C152 O150 1.273 . S
O153 Mg140 2.010 . S
O153 C145 1.249 . S
Mg154 O155 2.028 . S
Mg154 O161 1.986 . S
Mg154 O163 2.114 . S
Mg154 O164 2.251 . S
Mg154 O167 2.010 . S
O155 Mg154 2.028 . S
O155 C158 1.250 . S
O156 Mg157 2.028 . S
O156 C158 1.248 . S
Mg157 O156 2.028 . S
Mg157 O162 2.032 . S
Mg157 O164 2.079 . S
C158 O155 1.250 . S
C158 O156 1.248 . S
C159 O160 1.264 . S
C159 O167 1.249 . S
O160 C159 1.264 . S
O161 Mg154 1.986 . S
O161 C165 1.246 . S
O162 Mg157 2.032 . S
O162 C165 1.259 . S
O163 Mg154 2.114 . S
O163 C166 1.252 . S
O164 Mg154 2.251 . S
O164 Mg157 2.079 . S
O164 C166 1.273 . S
C165 O161 1.246 . S
C165 O162 1.259 . S
C166 O163 1.252 . S
C166 O164 1.273 . S
O167 Mg154 2.010 . S
O167 C159 1.249 . S
H168 C186 0.951 . S
H169 C188 0.951 1_556 S
H170 C190 0.950 . S
H171 C191 0.950 . S
H172 C193 0.950 . S
H173 C196 0.950 . S
H174 C197 0.950 . S
H175 C199 0.950 . S
H176 C200 0.950 . S
H177 C201 0.951 . S
H178 C203 0.951 . S
H179 C205 0.950 . S
H180 C206 0.950 . S
H181 C208 0.950 . S
H182 C211 0.950 . S
H183 C212 0.950 . S
H184 C214 0.950 . S
H185 C215 0.950 . S
C186 H168 0.951 . S
C186 C187 1.366 . S
C186 C188 1.388 . S
C187 C186 1.366 . S
C187 C191 1.385 . S
C188 H169 0.951 1_554 S
C188 C186 1.388 . S
C188 C189 1.366 . S
C189 C188 1.366 . S
C189 C190 1.414 . S
C189 C192 1.499 . S
C190 H170 0.950 . S
C190 C189 1.414 . S
C190 C191 1.374 . S
C191 H171 0.950 . S
C191 C187 1.385 . S
C191 C190 1.374 . S
C192 C189 1.499 . S
C192 C193 1.373 . S
C192 C194 1.389 1_554 S
C193 H172 0.950 . S
C193 C192 1.373 . S
C193 C209 1.377 1_554 S
C194 C192 1.389 1_556 S
C194 C195 1.524 . S
C194 C208 1.377 . S
C195 C194 1.524 . S
C195 C196 1.397 1_556 S
C195 C200 1.363 . S
C196 H173 0.950 . S
C196 C195 1.397 1_554 S
C196 C197 1.334 . S
C197 H174 0.950 . S
C197 C196 1.334 . S
C197 C198 1.287 1_554 S
C198 C197 1.287 1_556 S
C198 C199 1.524 . S
C198 H217 0.913 . S
C199 H175 0.950 . S
C199 C198 1.524 . S
C199 C200 1.415 . S
C200 H176 0.950 . S
C200 C195 1.363 . S
C200 C199 1.415 . S
C201 H177 0.951 . S
C201 C202 1.366 . S
C201 C203 1.388 . S
C202 C201 1.366 . S
C202 C206 1.385 . S
C203 H178 0.951 . S
C203 C201 1.388 . S
C203 C204 1.366 . S
C204 C203 1.366 . S
C204 C205 1.414 . S
C204 C207 1.499 . S
C205 H179 0.950 . S
C205 C204 1.414 . S
C205 C206 1.374 . S
C206 H180 0.950 . S
C206 C202 1.385 . S
C206 C205 1.374 . S
C207 C204 1.499 . S
C207 C208 1.373 . S
C207 C209 1.389 . S
C208 H181 0.950 . S
C208 C194 1.377 . S
C208 C207 1.373 . S
C209 C193 1.377 1_556 S
C209 C207 1.389 . S
C209 C210 1.524 . S
C210 C209 1.524 . S
C210 C211 1.397 . S
C210 C215 1.363 1_556 S
C211 H182 0.950 . S
C211 C210 1.397 . S
C211 C212 1.334 . S
C212 H183 0.950 . S
C212 C211 1.334 . S
C212 C213 1.287 . S
C213 C212 1.287 . S
C213 C214 1.524 1_556 S
C213 H216 0.999 . S
C214 H184 0.950 . S
C214 C213 1.524 1_554 S
C214 C215 1.415 . S
C215 H185 0.950 . S
C215 C210 1.363 1_554 S
C215 C214 1.415 . S
H216 C213 0.999 . S
H217 C198 0.913 . S
H218 C236 0.951 . S
H219 C238 0.944 1_556 S
H220 C240 0.950 . S
H221 C241 0.950 . S
H222 C243 0.950 . S
H223 C246 0.950 . S
H224 C247 0.950 . S
H225 C249 0.950 . S
H226 C250 0.950 . S
H227 C251 0.951 . S
H228 C253 0.951 . S
H229 C255 0.950 . S
H230 C256 0.950 . S
H231 C258 0.950 . S
H232 C261 0.950 . S
H233 C262 0.950 1_556 S
H234 C264 0.950 . S
H235 C265 0.950 . S
C236 H218 0.951 . S
C236 C237 1.366 . S
C236 C238 1.391 . S
C237 C236 1.366 . S
C237 C241 1.385 . S
C238 H219 0.944 1_554 S
C238 C236 1.391 . S
C238 C239 1.369 . S
C239 C238 1.369 . S
C239 C240 1.414 . S
C239 C242 1.508 . S
C240 H220 0.950 . S
C240 C239 1.414 . S
C240 C241 1.374 . S
C241 H221 0.950 . S
C241 C237 1.385 . S
C241 C240 1.374 . S
C242 C239 1.508 . S
C242 C243 1.382 . S
C242 C244 1.371 1_554 S
C243 H222 0.950 . S
C243 C242 1.382 . S
C243 C259 1.377 1_554 S
C244 C242 1.371 1_556 S
C244 C245 1.524 . S
C244 C258 1.377 . S
C245 C244 1.524 . S
C245 C246 1.397 . S
C245 C250 1.363 . S
C246 H223 0.950 . S
C246 C245 1.397 . S
C246 C247 1.334 . S
C247 H224 0.950 . S
C247 C246 1.334 . S
C247 C248 1.287 . S
C248 C247 1.287 . S
C248 C249 1.524 . S
C248 H267 0.913 . S
C249 H225 0.950 . S
C249 C248 1.524 . S
C249 C250 1.415 . S
C250 H226 0.950 . S
C250 C245 1.363 . S
C250 C249 1.415 . S
C251 H227 0.951 . S
C251 C252 1.366 . S
C251 C253 1.388 1_545 S
C252 C251 1.366 . S
C252 C256 1.385 1_545 S
C253 H228 0.951 . S
C253 C251 1.388 1_565 S
C253 C254 1.366 . S
C254 C253 1.366 . S
C254 C255 1.414 . S
C254 C257 1.499 . S
C255 H229 0.950 . S
C255 C254 1.414 . S
C255 C256 1.374 . S
C256 H230 0.950 . S
C256 C252 1.385 1_565 S
C256 C255 1.374 . S
C257 C254 1.499 . S
C257 C258 1.373 . S
C257 C259 1.389 . S
C258 H231 0.950 . S
C258 C244 1.377 . S
C258 C257 1.373 . S
C259 C243 1.377 1_556 S
C259 C257 1.389 . S
C259 C260 1.524 1_556 S
C260 C259 1.524 1_554 S
C260 C261 1.397 1_554 S
C260 C265 1.363 . S
C261 H232 0.950 . S
C261 C260 1.397 1_556 S
C261 C262 1.334 1_556 S
C262 H233 0.950 1_554 S
C262 C261 1.334 1_554 S
C262 C263 1.287 . S
C263 C262 1.287 . S
C263 C264 1.524 . S
C263 H266 0.999 . S
C264 H234 0.950 . S
C264 C263 1.524 . S
C264 C265 1.415 . S
C265 H235 0.950 . S
C265 C260 1.363 . S
C265 C264 1.415 . S
H266 C263 0.999 . S
H267 C248 0.913 . S
H268 C286 0.951 . S
H269 C288 0.951 1_556 S
H270 C290 0.950 . S
H271 C291 0.950 . S
H272 C293 0.950 . S
H273 C296 0.950 . S
H274 C297 0.950 . S
H275 C299 0.950 1_556 S
H276 C300 0.950 . S
H277 C301 0.951 . S
H278 C303 0.951 . S
H279 C305 0.950 . S
H280 C306 0.950 . S
H281 C308 0.950 . S
H282 C311 0.950 . S
H283 C312 0.950 . S
H284 C314 0.950 . S
H285 C315 0.950 . S
C286 H268 0.951 . S
C286 C287 1.366 . S
C286 C288 1.388 . S
C287 C286 1.366 . S
C287 C291 1.385 . S
C288 H269 0.951 1_554 S
C288 C286 1.388 . S
C288 C289 1.366 . S
C289 C288 1.366 . S
C289 C290 1.414 . S
C289 C292 1.499 . S
C290 H270 0.950 . S
C290 C289 1.414 . S
C290 C291 1.374 . S
C291 H271 0.950 . S
C291 C287 1.385 . S
C291 C290 1.374 . S
C292 C289 1.499 . S
C292 C293 1.373 1_554 S
C292 C294 1.389 1_554 S
C293 H272 0.950 . S
C293 C292 1.373 1_556 S
C293 C309 1.377 . S
C294 C292 1.389 1_556 S
C294 C295 1.524 1_556 S
C294 C308 1.377 . S
C295 C294 1.524 1_554 S
C295 C296 1.397 . S
C295 C300 1.363 1_554 S
C296 H273 0.950 . S
C296 C295 1.397 . S
C296 C297 1.334 . S
C297 H274 0.950 . S
C297 C296 1.334 . S
C297 C298 1.287 . S
C298 C297 1.287 . S
C298 C299 1.524 . S
C298 H317 0.913 . S
C299 H275 0.950 1_554 S
C299 C298 1.524 . S
C299 C300 1.415 1_554 S
C300 H276 0.950 . S
C300 C295 1.363 1_556 S
C300 C299 1.415 1_556 S
C301 H277 0.951 . S
C301 C302 1.366 1_455 S
C301 C303 1.388 . S
C302 C301 1.366 1_655 S
C302 C306 1.385 1_655 S
C303 H278 0.951 . S
C303 C301 1.388 . S
C303 C304 1.366 . S
C304 C303 1.366 . S
C304 C305 1.414 . S
C304 C307 1.499 . S
C305 H279 0.950 . S
C305 C304 1.414 . S
C305 C306 1.374 . S
C306 H280 0.950 . S
C306 C302 1.385 1_455 S
C306 C305 1.374 . S
C307 C304 1.499 . S
C307 C308 1.373 . S
C307 C309 1.389 . S
C308 H281 0.950 . S
C308 C294 1.377 . S
C308 C307 1.373 . S
C309 C293 1.377 . S
C309 C307 1.389 . S
C309 C310 1.524 . S
C310 C309 1.524 . S
C310 C311 1.397 . S
C310 C315 1.363 . S
C311 H282 0.950 . S
C311 C310 1.397 . S
C311 C312 1.334 . S
C312 H283 0.950 . S
C312 C311 1.334 . S
C312 C313 1.287 . S
C313 C312 1.287 . S
C313 C314 1.524 . S
C313 H316 0.999 . S
C314 H284 0.950 . S
C314 C313 1.524 . S
C314 C315 1.415 . S
C315 H285 0.950 . S
C315 C310 1.363 . S
C315 C314 1.415 . S
H316 C313 0.999 . S
H317 C298 0.913 . S
H318 C336 0.951 . S
H319 C338 0.951 . S
H320 C340 0.950 . S
H321 C341 0.950 . S
H322 C343 0.950 . S
H323 C346 0.950 . S
H324 C347 0.950 . S
H325 C349 0.950 . S
H326 C350 0.950 . S
H327 C351 0.951 . S
H328 C353 0.951 . S
H329 C355 0.950 . S
H330 C356 0.950 . S
H331 C358 0.950 . S
H332 C361 0.950 . S
H333 C362 0.950 . S
H334 C364 0.950 . S
H335 C365 0.950 . S
C336 H318 0.951 . S
C336 C337 1.366 . S
C336 C338 1.388 . S
C337 C336 1.366 . S
C337 C341 1.385 . S
C338 H319 0.951 . S
C338 C336 1.388 . S
C338 C339 1.366 . S
C339 C338 1.366 . S
C339 C340 1.414 . S
C339 C342 1.499 . S
C340 H320 0.950 . S
C340 C339 1.414 . S
C340 C341 1.374 . S
C341 H321 0.950 . S
C341 C337 1.385 . S
C341 C340 1.374 . S
C342 C339 1.499 . S
C342 C343 1.373 . S
C342 C344 1.389 . S
C343 H322 0.950 . S
C343 C342 1.373 . S
C343 C359 1.377 . S
C344 C342 1.389 . S
C344 C345 1.524 . S
C344 C358 1.377 . S
C345 C344 1.524 . S
C345 C346 1.397 . S
C345 C350 1.363 . S
C346 H323 0.950 . S
C346 C345 1.397 . S
C346 C347 1.334 . S
C347 H324 0.950 . S
C347 C346 1.334 . S
C347 C348 1.287 . S
C348 C347 1.287 . S
C348 C349 1.524 . S
C348 H367 0.913 . S
C349 H325 0.950 . S
C349 C348 1.524 . S
C349 C350 1.415 . S
C350 H326 0.950 . S
C350 C345 1.363 . S
C350 C349 1.415 . S
C351 H327 0.951 . S
C351 C352 1.366 . S
C351 C353 1.388 . S
C352 C351 1.366 . S
C352 C356 1.385 . S
C353 H328 0.951 . S
C353 C351 1.388 . S
C353 C354 1.366 . S
C354 C353 1.366 . S
C354 C355 1.414 . S
C354 C357 1.499 . S
C355 H329 0.950 . S
C355 C354 1.414 . S
C355 C356 1.374 . S
C356 H330 0.950 . S
C356 C352 1.385 . S
C356 C355 1.374 . S
C357 C354 1.499 . S
C357 C358 1.373 . S
C357 C359 1.389 . S
C358 H331 0.950 . S
C358 C344 1.377 . S
C358 C357 1.373 . S
C359 C343 1.377 . S
C359 C357 1.389 . S
C359 C360 1.524 . S
C360 C359 1.524 . S
C360 C361 1.397 . S
C360 C365 1.363 . S
C361 H332 0.950 . S
C361 C360 1.397 . S
C361 C362 1.334 . S
C362 H333 0.950 . S
C362 C361 1.334 . S
C362 C363 1.287 . S
C363 C362 1.287 . S
C363 C364 1.524 . S
C363 H366 0.999 . S
C364 H334 0.950 . S
C364 C363 1.524 . S
C364 C365 1.415 . S
C365 H335 0.950 . S
C365 C360 1.363 . S
C365 C364 1.415 . S
H366 C363 0.999 . S
H367 C348 0.913 . S
H368 C386 0.951 . S
H369 C388 0.951 . S
H370 C390 0.950 . S
H371 C391 0.950 . S
H372 C393 0.950 . S
H373 C396 0.950 . S
H374 C397 0.950 . S
H375 C399 0.950 . S
H376 C400 0.950 . S
H377 C401 0.951 . S
H378 C403 0.951 . S
H379 C405 0.950 . S
H380 C406 0.950 . S
H381 C408 0.950 . S
H382 C411 0.950 . S
H383 C412 0.950 . S
H384 C414 0.950 . S
H385 C415 0.950 . S
C386 H368 0.951 . S
C386 C387 1.366 . S
C386 C388 1.388 . S
C387 C386 1.366 . S
C387 C391 1.385 . S
C388 H369 0.951 . S
C388 C386 1.388 . S
C388 C389 1.366 . S
C389 C388 1.366 . S
C389 C390 1.414 . S
C389 C392 1.499 . S
C390 H370 0.950 . S
C390 C389 1.414 . S
C390 C391 1.374 . S
C391 H371 0.950 . S
C391 C387 1.385 . S
C391 C390 1.374 . S
C392 C389 1.499 . S
C392 C393 1.373 . S
C392 C394 1.389 . S
C393 H372 0.950 . S
C393 C392 1.373 . S
C393 C409 1.377 . S
C394 C392 1.389 . S
C394 C395 1.524 . S
C394 C408 1.377 . S
C395 C394 1.524 . S
C395 C396 1.397 . S
C395 C400 1.363 . S
C396 H373 0.950 . S
C396 C395 1.397 . S
C396 C397 1.334 . S
C397 H374 0.950 . S
C397 C396 1.334 . S
C397 C398 1.287 . S
C398 C397 1.287 . S
C398 C399 1.524 . S
C398 H417 0.913 . S
C399 H375 0.950 . S
C399 C398 1.524 . S
C399 C400 1.415 . S
C400 H376 0.950 . S
C400 C395 1.363 . S
C400 C399 1.415 . S
C401 H377 0.951 . S
C401 C402 1.366 . S
C401 C403 1.388 1_545 S
C402 C401 1.366 . S
C402 C406 1.385 1_545 S
C403 H378 0.951 . S
C403 C401 1.388 1_565 S
C403 C404 1.366 . S
C404 C403 1.366 . S
C404 C405 1.414 . S
C404 C407 1.499 . S
C405 H379 0.950 . S
C405 C404 1.414 . S
C405 C406 1.374 . S
C406 H380 0.950 . S
C406 C402 1.385 1_565 S
C406 C405 1.374 . S
C407 C404 1.499 . S
C407 C408 1.373 . S
C407 C409 1.389 . S
C408 H381 0.950 . S
C408 C394 1.377 . S
C408 C407 1.373 . S
C409 C393 1.377 . S
C409 C407 1.389 . S
C409 C410 1.524 . S
C410 C409 1.524 . S
C410 C411 1.397 . S
C410 C415 1.363 . S
C411 H382 0.950 . S
C411 C410 1.397 . S
C411 C412 1.334 . S
C412 H383 0.950 . S
C412 C411 1.334 . S
C412 C413 1.287 . S
C413 C412 1.287 . S
C413 C414 1.524 . S
C413 H416 0.999 . S
C414 H384 0.950 . S
C414 C413 1.524 . S
C414 C415 1.415 . S
C415 H385 0.950 . S
C415 C410 1.363 . S
C415 C414 1.415 . S
H416 C413 0.999 . S
H417 C398 0.913 . S
H418 C436 0.951 1_655 S
H419 C438 0.951 . S
H420 C440 0.950 . S
H421 C441 0.950 . S
H422 C443 0.950 . S
H423 C446 0.950 . S
H424 C447 0.950 1_655 S
H425 C449 0.950 . S
H426 C450 0.950 . S
H427 C451 0.951 . S
H428 C453 0.951 . S
H429 C455 0.950 . S
H430 C456 0.950 . S
H431 C458 0.950 . S
H432 C461 0.950 . S
H433 C462 0.950 . S
H434 C464 0.950 . S
H435 C465 0.950 . S
C436 H418 0.951 1_455 S
C436 C437 1.366 1_455 S
C436 C438 1.388 . S
C437 C436 1.366 1_655 S
C437 C441 1.385 1_655 S
C438 H419 0.951 . S
C438 C436 1.388 . S
C438 C439 1.366 . S
C439 C438 1.366 . S
C439 C440 1.414 . S
C439 C442 1.499 . S
C440 H420 0.950 . S
C440 C439 1.414 . S
C440 C441 1.374 . S
C441 H421 0.950 . S
C441 C437 1.385 1_455 S
C441 C440 1.374 . S
C442 C439 1.499 . S
C442 C443 1.373 . S
C442 C444 1.389 . S
C443 H422 0.950 . S
C443 C442 1.373 . S
C443 C459 1.377 . S
C444 C442 1.389 . S
C444 C445 1.524 . S
C444 C458 1.377 . S
C445 C444 1.524 . S
C445 C446 1.397 . S
C445 C450 1.363 . S
C446 H423 0.950 . S
C446 C445 1.397 . S
C446 C447 1.334 . S
C447 H424 0.950 1_455 S
C447 C446 1.334 . S
C447 C448 1.287 . S
C448 C447 1.287 . S
C448 C449 1.524 . S
C448 H467 0.913 1_455 S
C449 H425 0.950 . S
C449 C448 1.524 . S
C449 C450 1.415 . S
C450 H426 0.950 . S
C450 C445 1.363 . S
C450 C449 1.415 . S
C451 H427 0.951 . S
C451 C452 1.366 . S
C451 C453 1.388 . S
C452 C451 1.366 . S
C452 C456 1.385 . S
C453 H428 0.951 . S
C453 C451 1.388 . S
C453 C454 1.366 . S
C454 C453 1.366 . S
C454 C455 1.414 . S
C454 C457 1.499 . S
C455 H429 0.950 . S
C455 C454 1.414 . S
C455 C456 1.374 . S
C456 H430 0.950 . S
C456 C452 1.385 . S
C456 C455 1.374 . S
C457 C454 1.499 . S
C457 C458 1.373 . S
C457 C459 1.389 . S
C458 H431 0.950 . S
C458 C444 1.377 . S
C458 C457 1.373 . S
C459 C443 1.377 . S
C459 C457 1.389 . S
C459 C460 1.524 . S
C460 C459 1.524 . S
C460 C461 1.397 . S
C460 C465 1.363 . S
C461 H432 0.950 . S
C461 C460 1.397 . S
C461 C462 1.334 . S
C462 H433 0.950 . S
C462 C461 1.334 . S
C462 C463 1.287 . S
C463 C462 1.287 . S
C463 C464 1.524 . S
C463 H466 0.999 . S
C464 H434 0.950 . S
C464 C463 1.524 . S
C464 C465 1.415 . S
C465 H435 0.950 . S
C465 C460 1.363 . S
C465 C464 1.415 . S
H466 C463 0.999 . S
H467 C448 0.913 1_655 S
H468 C486 0.951 . S
H469 C488 0.951 . S
H470 C490 0.950 . S
H471 C491 0.950 . S
H472 C493 0.950 . S
H473 C496 0.950 . S
H474 C497 0.950 . S
H475 C499 0.950 . S
H476 C500 0.950 . S
H477 C501 0.951 . S
H478 C503 0.951 . S
H479 C505 0.950 1_554 S
H480 C506 0.950 . S
H481 C508 0.950 . S
H482 C511 0.950 . S
H483 C512 0.950 . S
H484 C514 0.950 . S
H485 C515 0.950 . S
C486 H468 0.951 . S
C486 C487 1.366 . S
C486 C488 1.388 . S
C487 C486 1.366 . S
C487 C491 1.385 . S
C488 H469 0.951 . S
C488 C486 1.388 . S
C488 C489 1.366 . S
C489 C488 1.366 . S
C489 C490 1.414 . S
C489 C492 1.499 . S
C490 H470 0.950 . S
C490 C489 1.414 . S
C490 C491 1.374 . S
C491 H471 0.950 . S
C491 C487 1.385 . S
C491 C490 1.374 . S
C492 C489 1.499 . S
C492 C493 1.373 1_554 S
C492 C494 1.389 . S
C493 H472 0.950 . S
C493 C492 1.373 1_556 S
C493 C509 1.377 . S
C494 C492 1.389 . S
C494 C495 1.524 . S
C494 C508 1.377 . S
C495 C494 1.524 . S
C495 C496 1.397 . S
C495 C500 1.363 . S
C496 H473 0.950 . S
C496 C495 1.397 . S
C496 C497 1.334 . S
C497 H474 0.950 . S
C497 C496 1.334 . S
C497 C498 1.287 . S
C498 C497 1.287 . S
C498 C499 1.524 . S
C498 H517 0.913 . S
C499 H475 0.950 . S
C499 C498 1.524 . S
C499 C500 1.415 . S
C500 H476 0.950 . S
C500 C495 1.363 . S
C500 C499 1.415 . S
C501 H477 0.951 . S
C501 C502 1.366 . S
C501 C503 1.388 . S
C502 C501 1.366 . S
C502 C506 1.385 . S
C503 H478 0.951 . S
C503 C501 1.388 . S
C503 C504 1.366 . S
C504 C503 1.366 . S
C504 C505 1.414 . S
C504 C507 1.511 . S
C505 H479 0.950 1_556 S
C505 C504 1.414 . S
C505 C506 1.374 . S
C506 H480 0.950 . S
C506 C502 1.385 . S
C506 C505 1.374 . S
C507 C504 1.511 . S
C507 C508 1.348 1_556 S
C507 C509 1.402 . S
C508 H481 0.950 . S
C508 C494 1.377 . S
C508 C507 1.348 1_554 S
C509 C493 1.377 . S
C509 C507 1.402 . S
C509 C510 1.524 . S
C510 C509 1.524 . S
C510 C511 1.397 . S
C510 C515 1.363 . S
C511 H482 0.950 . S
C511 C510 1.397 . S
C511 C512 1.334 . S
C512 H483 0.950 . S
C512 C511 1.334 . S
C512 C513 1.287 . S
C513 C512 1.287 . S
C513 C514 1.524 . S
C513 H516 0.999 . S
C514 H484 0.950 . S
C514 C513 1.524 . S
C514 C515 1.415 . S
C515 H485 0.950 . S
C515 C510 1.363 . S
C515 C514 1.415 . S
H516 C513 0.999 . S
H517 C498 0.913 . S
H518 C536 0.951 . S
H519 C538 0.951 1_554 S
H520 C540 0.950 . S
H521 C541 0.950 . S
H522 C543 0.950 . S
H523 C546 0.950 . S
H524 C547 0.950 . S
H525 C549 0.950 . S
H526 C550 0.950 . S
H527 C551 0.939 1_565 S
H528 C553 0.951 . S
H529 C555 0.950 . S
H530 C556 0.950 . S
H531 C558 0.950 . S
H532 C561 0.950 . S
H533 C562 0.950 1_565 S
H534 C564 0.950 . S
H535 C565 0.950 . S
C536 H518 0.951 . S
C536 C537 1.366 . S
C536 C538 1.388 . S
C537 C536 1.366 . S
C537 C541 1.385 . S
C538 H519 0.951 1_556 S
C538 C536 1.388 . S
C538 C539 1.366 . S
C539 C538 1.366 . S
C539 C540 1.414 . S
C539 C542 1.492 1_556 S
C540 H520 0.950 . S
C540 C539 1.414 . S
C540 C541 1.374 . S
C541 H521 0.950 . S
C541 C537 1.385 . S
C541 C540 1.374 . S
C542 C539 1.492 1_554 S
C542 C543 1.366 1_554 S
C542 C544 1.403 . S
C543 H522 0.950 . S
C543 C542 1.366 1_556 S
C543 C559 1.377 . S
C544 C542 1.403 . S
C544 C545 1.524 . S
C544 C558 1.377 . S
C545 C544 1.524 . S
C545 C546 1.397 . S
C545 C550 1.363 . S
C546 H523 0.950 . S
C546 C545 1.397 . S
C546 C547 1.334 . S
C547 H524 0.950 . S
C547 C546 1.334 . S
C547 C548 1.287 . S
C548 C547 1.287 . S
C548 C549 1.524 . S
C548 H567 0.913 . S
C549 H525 0.950 . S
C549 C548 1.524 . S
C549 C550 1.415 . S
C550 H526 0.950 . S
C550 C545 1.363 . S
C550 C549 1.415 . S
C551 H527 0.939 1_545 S
C551 C552 1.366 1_545 S
C551 C553 1.388 . S
C552 C551 1.366 1_565 S
C552 C556 1.385 1_565 S
C553 H528 0.951 . S
C553 C551 1.388 . S
C553 C554 1.366 . S
C554 C553 1.366 . S
C554 C555 1.414 . S
C554 C557 1.499 . S
C555 H529 0.950 . S
C555 C554 1.414 . S
C555 C556 1.374 . S
C556 H530 0.950 . S
C556 C552 1.385 1_545 S
C556 C555 1.374 . S
C557 C554 1.499 . S
C557 C558 1.373 . S
C557 C559 1.389 1_554 S
C558 H531 0.950 . S
C558 C544 1.377 . S
C558 C557 1.373 . S
C559 C543 1.377 . S
C559 C557 1.389 1_556 S
C559 C560 1.524 . S
C560 C559 1.524 . S
C560 C561 1.397 . S
C560 C565 1.363 . S
C561 H532 0.950 . S
C561 C560 1.397 . S
C561 C562 1.334 . S
C562 H533 0.950 1_545 S
C562 C561 1.334 . S
C562 C563 1.287 . S
C563 C562 1.287 . S
C563 C564 1.524 . S
C563 H566 0.999 1_545 S
C564 H534 0.950 . S
C564 C563 1.524 . S
C564 C565 1.415 . S
C565 H535 0.950 . S
C565 C560 1.363 . S
C565 C564 1.415 . S
H566 C563 0.999 1_565 S
H567 C548 0.913 . S
H568 C586 0.951 . S
H569 C588 0.951 . S
H570 C590 0.950 . S
H571 C591 0.950 . S
H572 C593 0.950 . S
H573 C596 0.950 . S
H574 C597 0.950 . S
H575 C599 0.950 . S
H576 C600 0.950 . S
H577 C601 0.951 . S
H578 C603 0.951 . S
H579 C605 0.950 . S
H580 C606 0.950 . S
H581 C608 0.950 . S
H582 C611 0.950 . S
H583 C612 0.950 . S
H584 C614 0.950 . S
H585 C615 0.950 . S
C586 H568 0.951 . S
C586 C587 1.366 . S
C586 C588 1.388 1_455 S
C587 C586 1.366 . S
C587 C591 1.385 1_455 S
C588 H569 0.951 . S
C588 C586 1.388 1_655 S
C588 C589 1.366 . S
C589 C588 1.366 . S
C589 C590 1.414 . S
C589 C592 1.499 . S
C590 H570 0.950 . S
C590 C589 1.414 . S
C590 C591 1.374 . S
C591 H571 0.950 . S
C591 C587 1.385 1_655 S
C591 C590 1.374 . S
C592 C589 1.499 . S
C592 C593 1.373 . S
C592 C594 1.389 1_554 S
C593 H572 0.950 . S
C593 C592 1.373 . S
C593 C609 1.377 . S
C594 C592 1.389 1_556 S
C594 C595 1.524 . S
C594 C608 1.377 . S
C595 C594 1.524 . S
C595 C596 1.397 . S
C595 C600 1.363 . S
C596 H573 0.950 . S
C596 C595 1.397 . S
C596 C597 1.334 . S
C597 H574 0.950 . S
C597 C596 1.334 . S
C597 C598 1.287 . S
C598 C597 1.287 . S
C598 C599 1.524 . S
C598 H617 0.913 1_655 S
C599 H575 0.950 . S
C599 C598 1.524 . S
C599 C600 1.415 . S
C600 H576 0.950 . S
C600 C595 1.363 . S
C600 C599 1.415 . S
C601 H577 0.951 . S
C601 C602 1.366 . S
C601 C603 1.388 . S
C602 C601 1.366 . S
C602 C606 1.385 . S
C603 H578 0.951 . S
C603 C601 1.388 . S
C603 C604 1.366 . S
C604 C603 1.366 . S
C604 C605 1.414 . S
C604 C607 1.481 1_556 S
C605 H579 0.950 . S
C605 C604 1.414 . S
C605 C606 1.374 . S
C606 H580 0.950 . S
C606 C602 1.385 . S
C606 C605 1.374 . S
C607 C604 1.481 1_554 S
C607 C608 1.354 1_554 S
C607 C609 1.426 . S
C608 H581 0.950 . S
C608 C594 1.377 . S
C608 C607 1.354 1_556 S
C609 C593 1.377 . S
C609 C607 1.426 . S
C609 C610 1.524 . S
C610 C609 1.524 . S
C610 C611 1.397 . S
C610 C615 1.363 . S
C611 H582 0.950 . S
C611 C610 1.397 . S
C611 C612 1.334 . S
C612 H583 0.950 . S
C612 C611 1.334 . S
C612 C613 1.287 . S
C613 C612 1.287 . S
C613 C614 1.524 . S
C613 H616 0.999 . S
C614 H584 0.950 . S
C614 C613 1.524 . S
C614 C615 1.415 . S
C615 H585 0.950 . S
C615 C610 1.363 . S
C615 C614 1.415 . S
H616 C613 0.999 . S
H617 C598 0.913 1_455 S
H618 C636 0.951 . S
H619 C638 0.951 . S
H620 C640 0.950 . S
H621 C641 0.950 . S
H622 C643 0.950 . S
H623 C646 0.950 . S
H624 C647 0.950 . S
H625 C649 0.950 . S
H626 C650 0.950 . S
H627 C651 0.951 . S
H628 C653 0.951 . S
H629 C655 0.950 . S
H630 C656 0.950 . S
H631 C658 0.950 . S
H632 C661 0.950 . S
H633 C662 0.950 . S
H634 C664 0.950 . S
H635 C665 0.950 . S
C636 H618 0.951 . S
C636 C637 1.366 . S
C636 C638 1.388 . S
C637 C636 1.366 . S
C637 C641 1.385 . S
C638 H619 0.951 . S
C638 C636 1.388 . S
C638 C639 1.366 . S
C639 C638 1.366 . S
C639 C640 1.414 . S
C639 C642 1.499 . S
C640 H620 0.950 . S
C640 C639 1.414 . S
C640 C641 1.374 . S
C641 H621 0.950 . S
C641 C637 1.385 . S
C641 C640 1.374 . S
C642 C639 1.499 . S
C642 C643 1.373 . S
C642 C644 1.389 . S
C643 H622 0.950 . S
C643 C642 1.373 . S
C643 C659 1.377 . S
C644 C642 1.389 . S
C644 C645 1.524 . S
C644 C658 1.377 . S
C645 C644 1.524 . S
C645 C646 1.397 . S
C645 C650 1.363 . S
C646 H623 0.950 . S
C646 C645 1.397 . S
C646 C647 1.334 . S
C647 H624 0.950 . S
C647 C646 1.334 . S
C647 C648 1.287 . S
C648 C647 1.287 . S
C648 C649 1.524 . S
C648 H667 0.913 . S
C649 H625 0.950 . S
C649 C648 1.524 . S
C649 C650 1.415 . S
C650 H626 0.950 . S
C650 C645 1.363 . S
C650 C649 1.415 . S
C651 H627 0.951 . S
C651 C652 1.366 . S
C651 C653 1.388 . S
C652 C651 1.366 . S
C652 C656 1.385 . S
C653 H628 0.951 . S
C653 C651 1.388 . S
C653 C654 1.366 . S
C654 C653 1.366 . S
C654 C655 1.414 . S
C654 C657 1.499 . S
C655 H629 0.950 . S
C655 C654 1.414 . S
C655 C656 1.374 . S
C656 H630 0.950 . S
C656 C652 1.385 . S
C656 C655 1.374 . S
C657 C654 1.499 . S
C657 C658 1.373 . S
C657 C659 1.389 . S
C658 H631 0.950 . S
C658 C644 1.377 . S
C658 C657 1.373 . S
C659 C643 1.377 . S
C659 C657 1.389 . S
C659 C660 1.524 . S
C660 C659 1.524 . S
C660 C661 1.397 . S
C660 C665 1.363 . S
C661 H632 0.950 . S
C661 C660 1.397 . S
C661 C662 1.334 . S
C662 H633 0.950 . S
C662 C661 1.334 . S
C662 C663 1.287 . S
C663 C662 1.287 . S
C663 C664 1.524 . S
C663 H666 0.999 . S
C664 H634 0.950 . S
C664 C663 1.524 . S
C664 C665 1.415 . S
C665 H635 0.950 . S
C665 C660 1.363 . S
C665 C664 1.415 . S
H666 C663 0.999 . S
H667 C648 0.913 . S
H668 C686 0.951 . S
H669 C688 0.951 . S
H670 C690 0.950 . S
H671 C691 0.950 . S
H672 C693 0.950 . S
H673 C696 0.950 . S
H674 C697 0.950 . S
H675 C699 0.950 . S
H676 C700 0.950 . S
H677 C701 0.951 . S
H678 C703 0.951 . S
H679 C705 0.950 . S
H680 C706 0.950 . S
H681 C708 0.950 . S
H682 C711 0.950 . S
H683 C712 0.950 . S
H684 C714 0.950 . S
H685 C715 0.950 . S
C686 H668 0.951 . S
C686 C687 1.366 . S
C686 C688 1.388 . S
C687 C686 1.366 . S
C687 C691 1.385 . S
C688 H669 0.951 . S
C688 C686 1.388 . S
C688 C689 1.366 . S
C689 C688 1.366 . S
C689 C690 1.414 . S
C689 C692 1.499 . S
C690 H670 0.950 . S
C690 C689 1.414 . S
C690 C691 1.374 . S
C691 H671 0.950 . S
C691 C687 1.385 . S
C691 C690 1.374 . S
C692 C689 1.499 . S
C692 C693 1.373 . S
C692 C694 1.389 . S
C693 H672 0.950 . S
C693 C692 1.373 . S
C693 C709 1.377 . S
C694 C692 1.389 . S
C694 C695 1.524 . S
C694 C708 1.377 . S
C695 C694 1.524 . S
C695 C696 1.397 . S
C695 C700 1.363 . S
C696 H673 0.950 . S
C696 C695 1.397 . S
C696 C697 1.334 . S
C697 H674 0.950 . S
C697 C696 1.334 . S
C697 C698 1.287 . S
C698 C697 1.287 . S
C698 C699 1.524 . S
C698 H717 0.913 . S
C699 H675 0.950 . S
C699 C698 1.524 . S
C699 C700 1.415 . S
C700 H676 0.950 . S
C700 C695 1.363 . S
C700 C699 1.415 . S
C701 H677 0.951 . S
C701 C702 1.366 1_545 S
C701 C703 1.388 . S
C702 C701 1.366 1_565 S
C702 C706 1.385 . S
C703 H678 0.951 . S
C703 C701 1.388 . S
C703 C704 1.366 . S
C704 C703 1.366 . S
C704 C705 1.414 . S
C704 C707 1.499 . S
C705 H679 0.950 . S
C705 C704 1.414 . S
C705 C706 1.374 1_545 S
C706 H680 0.950 . S
C706 C702 1.385 . S
C706 C705 1.374 1_565 S
C707 C704 1.499 . S
C707 C708 1.373 . S
C707 C709 1.389 . S
C708 H681 0.950 . S
C708 C694 1.377 . S
C708 C707 1.373 . S
C709 C693 1.377 . S
C709 C707 1.389 . S
C709 C710 1.524 . S
C710 C709 1.524 . S
C710 C711 1.397 . S
C710 C715 1.363 . S
C711 H682 0.950 . S
C711 C710 1.397 . S
C711 C712 1.334 . S
C712 H683 0.950 . S
C712 C711 1.334 . S
C712 C713 1.287 . S
C713 C712 1.287 . S
C713 C714 1.524 . S
C713 H716 0.999 . S
C714 H684 0.950 . S
C714 C713 1.524 . S
C714 C715 1.415 . S
C715 H685 0.950 . S
C715 C710 1.363 . S
C715 C714 1.415 . S
H716 C713 0.999 . S
H717 C698 0.913 . S
H718 C736 0.951 1_455 S
H719 C738 0.951 . S
H720 C740 0.950 . S
H721 C741 0.950 . S
H722 C743 0.950 . S
H723 C746 0.950 . S
H724 C747 0.950 . S
H725 C749 0.950 . S
H726 C750 0.950 . S
H727 C751 0.951 . S
H728 C753 0.951 . S
H729 C755 0.950 . S
H730 C756 0.950 . S
H731 C758 0.950 . S
H732 C761 0.950 . S
H733 C762 0.950 . S
H734 C764 0.950 . S
H735 C765 0.950 . S
C736 H718 0.951 1_655 S
C736 C737 1.366 1_655 S
C736 C738 1.388 . S
C737 C736 1.366 1_455 S
C737 C741 1.385 1_455 S
C738 H719 0.951 . S
C738 C736 1.388 . S
C738 C739 1.366 . S
C739 C738 1.366 . S
C739 C740 1.414 . S
C739 C742 1.499 . S
C740 H720 0.950 . S
C740 C739 1.414 . S
C740 C741 1.374 . S
C741 H721 0.950 . S
C741 C737 1.385 1_655 S
C741 C740 1.374 . S
C742 C739 1.499 . S
C742 C743 1.373 . S
C742 C744 1.389 . S
C743 H722 0.950 . S
C743 C742 1.373 . S
C743 C759 1.377 . S
C744 C742 1.389 . S
C744 C745 1.524 . S
C744 C758 1.377 . S
C745 C744 1.524 . S
C745 C746 1.397 . S
C745 C750 1.363 . S
C746 H723 0.950 . S
C746 C745 1.397 . S
C746 C747 1.334 . S
C747 H724 0.950 . S
C747 C746 1.334 . S
C747 C748 1.287 . S
C748 C747 1.287 . S
C748 C749 1.524 . S
C748 H767 0.913 . S
C749 H725 0.950 . S
C749 C748 1.524 . S
C749 C750 1.415 . S
C750 H726 0.950 . S
C750 C745 1.363 . S
C750 C749 1.415 . S
C751 H727 0.951 . S
C751 C752 1.366 . S
C751 C753 1.388 . S
C752 C751 1.366 . S
C752 C756 1.385 . S
C753 H728 0.951 . S
C753 C751 1.388 . S
C753 C754 1.366 . S
C754 C753 1.366 . S
C754 C755 1.414 . S
C754 C757 1.499 . S
C755 H729 0.950 . S
C755 C754 1.414 . S
C755 C756 1.374 . S
C756 H730 0.950 . S
C756 C752 1.385 . S
C756 C755 1.374 . S
C757 C754 1.499 . S
C757 C758 1.373 . S
C757 C759 1.389 . S
C758 H731 0.950 . S
C758 C744 1.377 . S
C758 C757 1.373 . S
C759 C743 1.377 . S
C759 C757 1.389 . S
C759 C760 1.524 . S
C760 C759 1.524 . S
C760 C761 1.397 . S
C760 C765 1.363 . S
C761 H732 0.950 . S
C761 C760 1.397 . S
C761 C762 1.334 . S
C762 H733 0.950 . S
C762 C761 1.334 . S
C762 C763 1.287 . S
C763 C762 1.287 . S
C763 C764 1.524 . S
C763 H766 0.999 . S
C764 H734 0.950 . S
C764 C763 1.524 . S
C764 C765 1.415 . S
C765 H735 0.950 . S
C765 C760 1.363 . S
C765 C764 1.415 . S
H766 C763 0.999 . S
H767 C748 0.913 . S
H768 C786 0.951 . S
H769 C788 0.951 . S
H770 C790 0.950 . S
H771 C791 0.950 . S
H772 C793 0.950 . S
H773 C796 0.950 . S
H774 C797 0.950 . S
H775 C799 0.950 . S
H776 C800 0.950 . S
H777 C801 0.951 . S
H778 C803 0.951 . S
H779 C805 0.950 . S
H780 C806 0.950 . S
H781 C808 0.950 . S
H782 C811 0.950 . S
H783 C812 0.950 . S
H784 C814 0.950 . S
H785 C815 0.950 . S
C786 H768 0.951 . S
C786 C787 1.366 . S
C786 C788 1.388 . S
C787 C786 1.366 . S
C787 C791 1.385 . S
C788 H769 0.951 . S
C788 C786 1.388 . S
C788 C789 1.366 . S
C789 C788 1.366 . S
C789 C790 1.414 . S
C789 C792 1.499 . S
C790 H770 0.950 . S
C790 C789 1.414 . S
C790 C791 1.374 . S
C791 H771 0.950 . S
C791 C787 1.385 . S
C791 C790 1.374 . S
C792 C789 1.499 . S
C792 C793 1.373 . S
C792 C794 1.389 . S
C793 H772 0.950 . S
C793 C792 1.373 . S
C793 C809 1.377 . S
C794 C792 1.389 . S
C794 C795 1.524 . S
C794 C808 1.377 . S
C795 C794 1.524 . S
C795 C796 1.397 . S
C795 C800 1.363 . S
C796 H773 0.950 . S
C796 C795 1.397 . S
C796 C797 1.334 . S
C797 H774 0.950 . S
C797 C796 1.334 . S
C797 C798 1.287 . S
C798 C797 1.287 . S
C798 C799 1.524 . S
C798 H817 0.913 . S
C799 H775 0.950 . S
C799 C798 1.524 . S
C799 C800 1.415 . S
C800 H776 0.950 . S
C800 C795 1.363 . S
C800 C799 1.415 . S
C801 H777 0.951 . S
C801 C802 1.366 . S
C801 C803 1.388 . S
C802 C801 1.366 . S
C802 C806 1.385 . S
C803 H778 0.951 . S
C803 C801 1.388 . S
C803 C804 1.366 . S
C804 C803 1.366 . S
C804 C805 1.414 . S
C804 C807 1.499 . S
C805 H779 0.950 . S
C805 C804 1.414 . S
C805 C806 1.374 . S
C806 H780 0.950 . S
C806 C802 1.385 . S
C806 C805 1.374 . S
C807 C804 1.499 . S
C807 C808 1.373 . S
C807 C809 1.389 . S
C808 H781 0.950 . S
C808 C794 1.377 . S
C808 C807 1.373 . S
C809 C793 1.377 . S
C809 C807 1.389 . S
C809 C810 1.524 . S
C810 C809 1.524 . S
C810 C811 1.397 . S
C810 C815 1.363 . S
C811 H782 0.950 . S
C811 C810 1.397 . S
C811 C812 1.334 . S
C812 H783 0.950 . S
C812 C811 1.334 . S
C812 C813 1.287 . S
C813 C812 1.287 . S
C813 C814 1.524 . S
C813 H816 0.999 . S
C814 H784 0.950 . S
C814 C813 1.524 . S
C814 C815 1.415 . S
C815 H785 0.950 . S
C815 C810 1.363 . S
C815 C814 1.415 . S
H816 C813 0.999 . S
H817 C798 0.913 . S
H818 C836 0.951 . S
H819 C838 0.951 . S
H820 C840 0.950 . S
H821 C841 0.950 . S
H822 C843 0.950 . S
H823 C846 0.950 . S
H824 C847 0.950 . S
H825 C849 0.950 . S
H826 C850 0.950 . S
H827 C851 0.951 . S
H828 C853 0.951 . S
H829 C855 0.950 . S
H830 C856 0.950 . S
H831 C858 0.950 . S
H832 C861 0.950 . S
H833 C862 0.950 . S
H834 C864 0.950 . S
H835 C865 0.950 . S
C836 H818 0.951 . S
C836 C837 1.366 . S
C836 C838 1.388 . S
C837 C836 1.366 . S
C837 C841 1.385 . S
C838 H819 0.951 . S
C838 C836 1.388 . S
C838 C839 1.366 . S
C839 C838 1.366 . S
C839 C840 1.414 . S
C839 C842 1.499 . S
C840 H820 0.950 . S
C840 C839 1.414 . S
C840 C841 1.374 . S
C841 H821 0.950 . S
C841 C837 1.385 . S
C841 C840 1.374 . S
C842 C839 1.499 . S
C842 C843 1.373 . S
C842 C844 1.389 . S
C843 H822 0.950 . S
C843 C842 1.373 . S
C843 C859 1.377 . S
C844 C842 1.389 . S
C844 C845 1.524 . S
C844 C858 1.377 . S
C845 C844 1.524 . S
C845 C846 1.397 . S
C845 C850 1.363 . S
C846 H823 0.950 . S
C846 C845 1.397 . S
C846 C847 1.334 . S
C847 H824 0.950 . S
C847 C846 1.334 . S
C847 C848 1.287 . S
C848 C847 1.287 . S
C848 C849 1.524 . S
C848 H867 0.913 . S
C849 H825 0.950 . S
C849 C848 1.524 . S
C849 C850 1.415 . S
C850 H826 0.950 . S
C850 C845 1.363 . S
C850 C849 1.415 . S
C851 H827 0.951 . S
C851 C852 1.366 . S
C851 C853 1.388 . S
C852 C851 1.366 . S
C852 C856 1.385 . S
C853 H828 0.951 . S
C853 C851 1.388 . S
C853 C854 1.366 . S
C854 C853 1.366 . S
C854 C855 1.414 . S
C854 C857 1.499 . S
C855 H829 0.950 . S
C855 C854 1.414 . S
C855 C856 1.374 . S
C856 H830 0.950 . S
C856 C852 1.385 . S
C856 C855 1.374 . S
C857 C854 1.499 . S
C857 C858 1.373 . S
C857 C859 1.389 . S
C858 H831 0.950 . S
C858 C844 1.377 . S
C858 C857 1.373 . S
C859 C843 1.377 . S
C859 C857 1.389 . S
C859 C860 1.524 . S
C860 C859 1.524 . S
C860 C861 1.397 . S
C860 C865 1.363 . S
C861 H832 0.950 . S
C861 C860 1.397 . S
C861 C862 1.334 . S
C862 H833 0.950 . S
C862 C861 1.334 . S
C862 C863 1.287 . S
C863 C862 1.287 . S
C863 C864 1.524 . S
C863 H866 0.999 . S
C864 H834 0.950 . S
C864 C863 1.524 . S
C864 C865 1.415 . S
C865 H835 0.950 . S
C865 C860 1.363 . S
C865 C864 1.415 . S
H866 C863 0.999 . S
H867 C848 0.913 . S
H868 C886 0.951 . S
H869 C888 0.951 . S
H870 C890 0.950 . S
H871 C891 0.950 . S
H872 C893 0.950 . S
H873 C896 0.950 . S
H874 C897 0.950 . S
H875 C899 0.950 . S
H876 C900 0.950 . S
H877 C901 0.951 . S
H878 C903 0.951 . S
H879 C905 0.950 . S
H880 C906 0.950 . S
H881 C908 0.950 . S
H882 C911 0.950 . S
H883 C912 0.950 . S
H884 C914 0.950 . S
H885 C915 0.950 . S
C886 H868 0.951 . S
C886 C887 1.366 . S
C886 C888 1.388 . S
C887 C886 1.366 . S
C887 C891 1.385 . S
C888 H869 0.951 . S
C888 C886 1.388 . S
C888 C889 1.366 . S
C889 C888 1.366 . S
C889 C890 1.414 . S
C889 C892 1.499 . S
C890 H870 0.950 . S
C890 C889 1.414 . S
C890 C891 1.374 . S
C891 H871 0.950 . S
C891 C887 1.385 . S
C891 C890 1.374 . S
C892 C889 1.499 . S
C892 C893 1.373 . S
C892 C894 1.389 . S
C893 H872 0.950 . S
C893 C892 1.373 . S
C893 C909 1.377 . S
C894 C892 1.389 . S
C894 C895 1.524 . S
C894 C908 1.377 . S
C895 C894 1.524 . S
C895 C896 1.397 . S
C895 C900 1.363 . S
C896 H873 0.950 . S
C896 C895 1.397 . S
C896 C897 1.334 . S
C897 H874 0.950 . S
C897 C896 1.334 . S
C897 C898 1.287 . S
C898 C897 1.287 . S
C898 C899 1.524 . S
C898 H917 0.913 . S
C899 H875 0.950 . S
C899 C898 1.524 . S
C899 C900 1.415 . S
C900 H876 0.950 . S
C900 C895 1.363 . S
C900 C899 1.415 . S
C901 H877 0.951 . S
C901 C902 1.366 . S
C901 C903 1.388 . S
C902 C901 1.366 . S
C902 C906 1.385 . S
C903 H878 0.951 . S
C903 C901 1.388 . S
C903 C904 1.366 . S
C904 C903 1.366 . S
C904 C905 1.414 . S
C904 C907 1.499 . S
C905 H879 0.950 . S
C905 C904 1.414 . S
C905 C906 1.374 . S
C906 H880 0.950 . S
C906 C902 1.385 . S
C906 C905 1.374 . S
C907 C904 1.499 . S
C907 C908 1.373 . S
C907 C909 1.389 . S
C908 H881 0.950 . S
C908 C894 1.377 . S
C908 C907 1.373 . S
C909 C893 1.377 . S
C909 C907 1.389 . S
C909 C910 1.524 . S
C910 C909 1.524 . S
C910 C911 1.397 . S
C910 C915 1.363 . S
C911 H882 0.950 . S
C911 C910 1.397 . S
C911 C912 1.334 . S
C912 H883 0.950 . S
C912 C911 1.334 . S
C912 C913 1.287 . S
C913 C912 1.287 . S
C913 C914 1.524 . S
C913 H916 0.999 . S
C914 H884 0.950 . S
C914 C913 1.524 . S
C914 C915 1.415 . S
C915 H885 0.950 . S
C915 C910 1.363 . S
C915 C914 1.415 . S
H916 C913 0.999 . S
H917 C898 0.913 . S
H918 C936 0.951 . S
H919 C938 0.951 . S
H920 C940 0.950 . S
H921 C941 0.950 . S
H922 C943 0.950 . S
H923 C946 0.950 . S
H924 C947 0.950 . S
H925 C949 0.950 . S
H926 C950 0.950 . S
H927 C951 0.951 . S
H928 C953 0.951 . S
H929 C955 0.950 . S
H930 C956 0.950 . S
H931 C958 0.950 . S
H932 C961 0.950 . S
H933 C962 0.950 . S
H934 C964 0.950 . S
H935 C965 0.950 . S
C936 H918 0.951 . S
C936 C937 1.366 . S
C936 C938 1.388 . S
C937 C936 1.366 . S
C937 C941 1.385 . S
C938 H919 0.951 . S
C938 C936 1.388 . S
C938 C939 1.366 . S
C939 C938 1.366 . S
C939 C940 1.414 . S
C939 C942 1.499 . S
C940 H920 0.950 . S
C940 C939 1.414 . S
C940 C941 1.374 . S
C941 H921 0.950 . S
C941 C937 1.385 . S
C941 C940 1.374 . S
C942 C939 1.499 . S
C942 C943 1.373 . S
C942 C944 1.389 . S
C943 H922 0.950 . S
C943 C942 1.373 . S
C943 C959 1.377 . S
C944 C942 1.389 . S
C944 C945 1.524 . S
C944 C958 1.377 . S
C945 C944 1.524 . S
C945 C946 1.397 . S
C945 C950 1.363 . S
C946 H923 0.950 . S
C946 C945 1.397 . S
C946 C947 1.334 . S
C947 H924 0.950 . S
C947 C946 1.334 . S
C947 C948 1.287 . S
C948 C947 1.287 . S
C948 C949 1.524 . S
C948 H967 0.913 . S
C949 H925 0.950 . S
C949 C948 1.524 . S
C949 C950 1.415 . S
C950 H926 0.950 . S
C950 C945 1.363 . S
C950 C949 1.415 . S
C951 H927 0.951 . S
C951 C952 1.366 . S
C951 C953 1.388 . S
C952 C951 1.366 . S
C952 C956 1.385 . S
C953 H928 0.951 . S
C953 C951 1.388 . S
C953 C954 1.366 . S
C954 C953 1.366 . S
C954 C955 1.414 . S
C954 C957 1.499 . S
C955 H929 0.950 . S
C955 C954 1.414 . S
C955 C956 1.374 . S
C956 H930 0.950 . S
C956 C952 1.385 . S
C956 C955 1.374 . S
C957 C954 1.499 . S
C957 C958 1.373 . S
C957 C959 1.389 . S
C958 H931 0.950 . S
C958 C944 1.377 . S
C958 C957 1.373 . S
C959 C943 1.377 . S
C959 C957 1.389 . S
C959 C960 1.524 . S
C960 C959 1.524 . S
C960 C961 1.397 . S
C960 C965 1.363 . S
C961 H932 0.950 . S
C961 C960 1.397 . S
C961 C962 1.334 . S
C962 H933 0.950 . S
C962 C961 1.334 . S
C962 C963 1.287 . S
C963 C962 1.287 . S
C963 C964 1.524 . S
C963 H966 0.999 . S
C964 H934 0.950 . S
C964 C963 1.524 . S
C964 C965 1.415 . S
C965 H935 0.950 . S
C965 C960 1.363 . S
C965 C964 1.415 . S
H966 C963 0.999 . S
H967 C948 0.913 . S
H968 C986 0.951 . S
H969 C988 0.951 . S
H970 C990 0.950 . S
H971 C991 0.950 . S
H972 C993 0.950 . S
H973 C996 0.950 . S
H974 C997 0.950 . S
H975 C999 0.950 . S
H976 C1000 0.950 . S
H977 C1001 0.951 . S
H978 C1003 0.951 . S
H979 C1005 0.950 . S
H980 C1006 0.950 . S
H981 C1008 0.950 . S
H982 C1011 0.950 . S
H983 C1012 0.950 . S
H984 C1014 0.950 . S
H985 C1015 0.950 . S
C986 H968 0.951 . S
C986 C987 1.366 . S
C986 C988 1.388 . S
C987 C986 1.366 . S
C987 C991 1.385 . S
C988 H969 0.951 . S
C988 C986 1.388 . S
C988 C989 1.366 . S
C989 C988 1.366 . S
C989 C990 1.414 . S
C989 C992 1.499 . S
C990 H970 0.950 . S
C990 C989 1.414 . S
C990 C991 1.374 . S
C991 H971 0.950 . S
C991 C987 1.385 . S
C991 C990 1.374 . S
C992 C989 1.499 . S
C992 C993 1.373 . S
C992 C994 1.389 . S
C993 H972 0.950 . S
C993 C992 1.373 . S
C993 C1009 1.377 . S
C994 C992 1.389 . S
C994 C995 1.524 . S
C994 C1008 1.377 . S
C995 C994 1.524 . S
C995 C996 1.397 . S
C995 C1000 1.363 . S
C996 H973 0.950 . S
C996 C995 1.397 . S
C996 C997 1.334 . S
C997 H974 0.950 . S
C997 C996 1.334 . S
C997 C998 1.287 . S
C998 C997 1.287 . S
C998 C999 1.524 . S
C998 H1017 0.913 . S
C999 H975 0.950 . S
C999 C998 1.524 . S
C999 C1000 1.415 . S
C1000 H976 0.950 . S
C1000 C995 1.363 . S
C1000 C999 1.415 . S
C1001 H977 0.951 . S
C1001 C1002 1.366 . S
C1001 C1003 1.388 . S
C1002 C1001 1.366 . S
C1002 C1006 1.385 . S
C1003 H978 0.951 . S
C1003 C1001 1.388 . S
C1003 C1004 1.366 . S
C1004 C1003 1.366 . S
C1004 C1005 1.414 . S
C1004 C1007 1.499 . S
C1005 H979 0.950 . S
C1005 C1004 1.414 . S
C1005 C1006 1.374 . S
C1006 H980 0.950 . S
C1006 C1002 1.385 . S
C1006 C1005 1.374 . S
C1007 C1004 1.499 . S
C1007 C1008 1.373 . S
C1007 C1009 1.389 . S
C1008 H981 0.950 . S
C1008 C994 1.377 . S
C1008 C1007 1.373 . S
C1009 C993 1.377 . S
C1009 C1007 1.389 . S
C1009 C1010 1.524 . S
C1010 C1009 1.524 . S
C1010 C1011 1.397 . S
C1010 C1015 1.363 . S
C1011 H982 0.950 . S
C1011 C1010 1.397 . S
C1011 C1012 1.334 . S
C1012 H983 0.950 . S
C1012 C1011 1.334 . S
C1012 C1013 1.287 . S
C1013 C1012 1.287 . S
C1013 C1014 1.524 . S
C1013 H1016 0.999 . S
C1014 H984 0.950 . S
C1014 C1013 1.524 . S
C1014 C1015 1.415 . S
C1015 H985 0.950 . S
C1015 C1010 1.363 . S
C1015 C1014 1.415 . S
H1016 C1013 0.999 . S
H1017 C998 0.913 . S
H1018 C1036 0.951 . S
H1019 C1038 0.951 . S
H1020 C1040 0.950 . S
H1021 C1041 0.950 . S
H1022 C1043 0.950 . S
H1023 C1046 0.950 . S
H1024 C1047 0.950 . S
H1025 C1049 0.950 . S
H1026 C1050 0.950 . S
H1027 C1051 0.951 . S
H1028 C1053 0.951 . S
H1029 C1055 0.950 . S
H1030 C1056 0.950 . S
H1031 C1058 0.950 . S
H1032 C1061 0.950 . S
H1033 C1062 0.950 . S
H1034 C1064 0.950 . S
H1035 C1065 0.950 . S
C1036 H1018 0.951 . S
C1036 C1037 1.366 . S
C1036 C1038 1.388 . S
C1037 C1036 1.366 . S
C1037 C1041 1.385 . S
C1038 H1019 0.951 . S
C1038 C1036 1.388 . S
C1038 C1039 1.366 . S
C1039 C1038 1.366 . S
C1039 C1040 1.414 . S
C1039 C1042 1.499 . S
C1040 H1020 0.950 . S
C1040 C1039 1.414 . S
C1040 C1041 1.374 . S
C1041 H1021 0.950 . S
C1041 C1037 1.385 . S
C1041 C1040 1.374 . S
C1042 C1039 1.499 . S
C1042 C1043 1.373 . S
C1042 C1044 1.389 . S
C1043 H1022 0.950 . S
C1043 C1042 1.373 . S
C1043 C1059 1.377 . S
C1044 C1042 1.389 . S
C1044 C1045 1.524 . S
C1044 C1058 1.377 . S
C1045 C1044 1.524 . S
C1045 C1046 1.397 . S
C1045 C1050 1.363 . S
C1046 H1023 0.950 . S
C1046 C1045 1.397 . S
C1046 C1047 1.334 . S
C1047 H1024 0.950 . S
C1047 C1046 1.334 . S
C1047 C1048 1.287 . S
C1048 C1047 1.287 . S
C1048 C1049 1.524 . S
C1048 H1067 0.913 . S
C1049 H1025 0.950 . S
C1049 C1048 1.524 . S
C1049 C1050 1.415 . S
C1050 H1026 0.950 . S
C1050 C1045 1.363 . S
C1050 C1049 1.415 . S
C1051 H1027 0.951 . S
C1051 C1052 1.366 . S
C1051 C1053 1.388 . S
C1052 C1051 1.366 . S
C1052 C1056 1.385 . S
C1053 H1028 0.951 . S
C1053 C1051 1.388 . S
C1053 C1054 1.366 . S
C1054 C1053 1.366 . S
C1054 C1055 1.414 . S
C1054 C1057 1.499 . S
C1055 H1029 0.950 . S
C1055 C1054 1.414 . S
C1055 C1056 1.374 . S
C1056 H1030 0.950 . S
C1056 C1052 1.385 . S
C1056 C1055 1.374 . S
C1057 C1054 1.499 . S
C1057 C1058 1.373 . S
C1057 C1059 1.389 . S
C1058 H1031 0.950 . S
C1058 C1044 1.377 . S
C1058 C1057 1.373 . S
C1059 C1043 1.377 . S
C1059 C1057 1.389 . S
C1059 C1060 1.524 . S
C1060 C1059 1.524 . S
C1060 C1061 1.397 . S
C1060 C1065 1.363 . S
C1061 H1032 0.950 . S
C1061 C1060 1.397 . S
C1061 C1062 1.334 . S
C1062 H1033 0.950 . S
C1062 C1061 1.334 . S
C1062 C1063 1.287 . S
C1063 C1062 1.287 . S
C1063 C1064 1.524 . S
C1063 H1066 0.999 . S
C1064 H1034 0.950 . S
C1064 C1063 1.524 . S
C1064 C1065 1.415 . S
C1065 H1035 0.950 . S
C1065 C1060 1.363 . S
C1065 C1064 1.415 . S
H1066 C1063 0.999 . S
H1067 C1048 0.913 . S
H1068 C1086 0.951 . S
H1069 C1088 0.951 1_556 S
H1070 C1090 0.950 . S
H1071 C1091 0.950 . S
H1072 C1093 0.950 . S
H1073 C1096 0.978 . S
H1074 C1097 0.950 . S
H1075 C1099 0.950 . S
H1076 C1100 0.950 . S
H1077 C1101 0.951 . S
H1078 C1103 0.951 1_554 S
H1079 C1105 0.950 . S
H1080 C1106 0.950 . S
H1081 C1108 0.950 . S
H1082 C1111 0.978 . S
H1083 C1112 0.950 . S
H1084 C1114 0.950 . S
H1085 C1115 0.950 . S
C1086 H1068 0.951 . S
C1086 C1087 1.366 . S
C1086 C1088 1.388 . S
C1087 C1086 1.366 . S
C1087 C1091 1.385 . S
C1088 H1069 0.951 1_554 S
C1088 C1086 1.388 . S
C1088 C1089 1.366 . S
C1089 C1088 1.366 . S
C1089 C1090 1.414 . S
C1089 C1092 1.499 . S
C1090 H1070 0.950 . S
C1090 C1089 1.414 . S
C1090 C1091 1.374 . S
C1091 H1071 0.950 . S
C1091 C1087 1.385 . S
C1091 C1090 1.374 . S
C1092 C1089 1.499 . S
C1092 C1093 1.373 1_455 S
C1092 C1094 1.389 1_554 S
C1093 H1072 0.950 . S
C1093 C1092 1.373 1_655 S
C1093 C1109 1.377 . S
C1094 C1092 1.389 1_556 S
C1094 C1095 1.524 . S
C1094 C1108 1.377 . S
C1095 C1094 1.524 . S
C1095 C1096 1.397 . S
C1095 C1100 1.363 . S
C1096 H1073 0.978 . S
C1096 C1095 1.397 . S
C1096 C1097 1.334 . S
C1097 H1074 0.950 . S
C1097 C1096 1.334 . S
C1097 C1098 1.287 . S
C1098 C1097 1.287 . S
C1098 C1099 1.524 . S
C1098 H1117 0.913 . S
C1099 H1075 0.950 . S
C1099 C1098 1.524 . S
C1099 C1100 1.415 . S
C1100 H1076 0.950 . S
C1100 C1095 1.363 . S
C1100 C1099 1.415 . S
C1101 H1077 0.951 . S
C1101 C1102 1.366 . S
C1101 C1103 1.388 . S
C1102 C1101 1.366 . S
C1102 C1106 1.385 . S
C1103 H1078 0.951 1_556 S
C1103 C1101 1.388 . S
C1103 C1104 1.366 . S
C1104 C1103 1.366 . S
C1104 C1105 1.414 . S
C1104 C1107 1.499 . S
C1105 H1079 0.950 . S
C1105 C1104 1.414 . S
C1105 C1106 1.374 . S
C1106 H1080 0.950 . S
C1106 C1102 1.385 . S
C1106 C1105 1.374 . S
C1107 C1104 1.499 . S
C1107 C1108 1.373 1_655 S
C1107 C1109 1.389 1_556 S
C1108 H1081 0.950 . S
C1108 C1094 1.377 . S
C1108 C1107 1.373 1_455 S
C1109 C1093 1.377 . S
C1109 C1107 1.389 1_554 S
C1109 C1110 1.524 . S
C1110 C1109 1.524 . S
C1110 C1111 1.397 . S
C1110 C1115 1.363 . S
C1111 H1082 0.978 . S
C1111 C1110 1.397 . S
C1111 C1112 1.334 . S
C1112 H1083 0.950 . S
C1112 C1111 1.334 . S
C1112 C1113 1.287 . S
C1113 C1112 1.287 . S
C1113 C1114 1.524 . S
C1113 H1116 0.999 . S
C1114 H1084 0.950 . S
C1114 C1113 1.524 . S
C1114 C1115 1.415 . S
C1115 H1085 0.950 . S
C1115 C1110 1.363 . S
C1115 C1114 1.415 . S
H1116 C1113 0.999 . S
H1117 C1098 0.913 . S
H1118 C1136 0.951 . S
H1119 C1138 0.951 1_556 S
H1120 C1140 0.950 . S
H1121 C1141 0.950 . S
H1122 C1143 0.950 . S
H1123 C1146 0.950 . S
H1124 C1147 0.950 . S
H1125 C1149 0.950 . S
H1126 C1150 0.950 . S
H1127 C1151 0.951 . S
H1128 C1153 0.951 1_554 S
H1129 C1155 0.950 . S
H1130 C1156 0.950 . S
H1131 C1158 0.950 . S
H1132 C1161 0.950 . S
H1133 C1162 0.950 . S
H1134 C1164 0.950 . S
H1135 C1165 0.950 . S
C1136 H1118 0.951 . S
C1136 C1137 1.366 . S
C1136 C1138 1.388 . S
C1137 C1136 1.366 . S
C1137 C1141 1.385 . S
C1138 H1119 0.951 1_554 S
C1138 C1136 1.388 . S
C1138 C1139 1.366 . S
C1139 C1138 1.366 . S
C1139 C1140 1.414 . S
C1139 C1142 1.499 . S
C1140 H1120 0.950 . S
C1140 C1139 1.414 . S
C1140 C1141 1.374 . S
C1141 H1121 0.950 . S
C1141 C1137 1.385 . S
C1141 C1140 1.374 . S
C1142 C1139 1.499 . S
C1142 C1143 1.373 . S
C1142 C1144 1.389 . S
C1143 H1122 0.950 . S
C1143 C1142 1.373 . S
C1143 C1159 1.377 1_554 S
C1144 C1142 1.389 . S
C1144 C1145 1.524 . S
C1144 C1158 1.377 1_554 S
C1145 C1144 1.524 . S
C1145 C1146 1.397 . S
C1145 C1150 1.363 1_554 S
C1146 H1123 0.950 . S
C1146 C1145 1.397 . S
C1146 C1147 1.334 . S
C1147 H1124 0.950 . S
C1147 C1146 1.334 . S
C1147 C1148 1.287 . S
C1148 C1147 1.287 . S
C1148 C1149 1.524 1_554 S
C1148 H1167 0.913 . S
C1149 H1125 0.950 . S
C1149 C1148 1.524 1_556 S
C1149 C1150 1.415 . S
C1150 H1126 0.950 . S
C1150 C1145 1.363 1_556 S
C1150 C1149 1.415 . S
C1151 H1127 0.951 . S
C1151 C1152 1.366 . S
C1151 C1153 1.388 . S
C1152 C1151 1.366 . S
C1152 C1156 1.385 . S
C1153 H1128 0.951 1_556 S
C1153 C1151 1.388 . S
C1153 C1154 1.366 . S
C1154 C1153 1.366 . S
C1154 C1155 1.414 . S
C1154 C1157 1.499 . S
C1155 H1129 0.950 . S
C1155 C1154 1.414 . S
C1155 C1156 1.374 . S
C1156 H1130 0.950 . S
C1156 C1152 1.385 . S
C1156 C1155 1.374 . S
C1157 C1154 1.499 . S
C1157 C1158 1.373 . S
C1157 C1159 1.389 . S
C1158 H1131 0.950 . S
C1158 C1144 1.377 1_556 S
C1158 C1157 1.373 . S
C1159 C1143 1.377 1_556 S
C1159 C1157 1.389 . S
C1159 C1160 1.524 . S
C1160 C1159 1.524 . S
C1160 C1161 1.397 . S
C1160 C1165 1.363 1_556 S
C1161 H1132 0.950 . S
C1161 C1160 1.397 . S
C1161 C1162 1.334 . S
C1162 H1133 0.950 . S
C1162 C1161 1.334 . S
C1162 C1163 1.287 . S
C1163 C1162 1.287 . S
C1163 C1164 1.524 1_556 S
C1163 H1166 0.999 . S
C1164 H1134 0.950 . S
C1164 C1163 1.524 1_554 S
C1164 C1165 1.415 . S
C1165 H1135 0.950 . S
C1165 C1160 1.363 1_554 S
C1165 C1164 1.415 . S
H1166 C1163 0.999 . S
H1167 C1148 0.913 . S
H1168 C1186 0.951 1_545 S
H1169 C1188 0.951 . S
H1170 C1190 0.950 . S
H1171 C1191 0.950 . S
H1172 C1193 0.950 . S
H1173 C1196 0.950 . S
H1174 C1197 0.950 . S
H1175 C1199 0.950 . S
H1176 C1200 0.950 1_554 S
H1177 C1201 0.951 1_565 S
H1178 C1203 0.951 . S
H1179 C1205 0.950 . S
H1180 C1206 0.950 . S
H1181 C1208 0.950 . S
H1182 C1211 0.950 . S
H1183 C1212 0.950 . S
H1184 C1214 0.950 . S
H1185 C1215 0.950 1_556 S
C1186 H1168 0.951 1_565 S
C1186 C1187 1.366 . S
C1186 C1188 1.388 1_565 S
C1187 C1186 1.366 . S
C1187 C1191 1.385 . S
C1188 H1169 0.951 . S
C1188 C1186 1.388 1_545 S
C1188 C1189 1.366 1_545 S
C1189 C1188 1.366 1_565 S
C1189 C1190 1.414 . S
C1189 C1192 1.499 . S
C1190 H1170 0.950 . S
C1190 C1189 1.414 . S
C1190 C1191 1.374 . S
C1191 H1171 0.950 . S
C1191 C1187 1.385 . S
C1191 C1190 1.374 . S
C1192 C1189 1.499 . S
C1192 C1193 1.373 . S
C1192 C1194 1.389 1_564 S
C1193 H1172 0.950 . S
C1193 C1192 1.373 . S
C1193 C1209 1.377 . S
C1194 C1192 1.389 1_546 S
C1194 C1195 1.524 . S
C1194 C1208 1.377 . S
C1195 C1194 1.524 . S
C1195 C1196 1.397 . S
C1195 C1200 1.363 . S
C1196 H1173 0.950 . S
C1196 C1195 1.397 . S
C1196 C1197 1.334 . S
C1197 H1174 0.950 . S
C1197 C1196 1.334 . S
C1197 C1198 1.287 . S
C1198 C1197 1.287 . S
C1198 C1199 1.524 . S
C1198 H1217 0.913 . S
C1199 H1175 0.950 . S
C1199 C1198 1.524 . S
C1199 C1200 1.415 . S
C1200 H1176 0.950 1_556 S
C1200 C1195 1.363 . S
C1200 C1199 1.415 . S
C1201 H1177 0.951 1_545 S
C1201 C1202 1.366 . S
C1201 C1203 1.388 1_545 S
C1202 C1201 1.366 . S
C1202 C1206 1.385 . S
C1203 H1178 0.951 . S
C1203 C1201 1.388 1_565 S
C1203 C1204 1.366 1_565 S
C1204 C1203 1.366 1_545 S
C1204 C1205 1.414 . S
C1204 C1207 1.499 . S
C1205 H1179 0.950 . S
C1205 C1204 1.414 . S
C1205 C1206 1.374 . S
C1206 H1180 0.950 . S
C1206 C1202 1.385 . S
C1206 C1205 1.374 . S
C1207 C1204 1.499 . S
C1207 C1208 1.373 . S
C1207 C1209 1.389 1_546 S
C1208 H1181 0.950 . S
C1208 C1194 1.377 . S
C1208 C1207 1.373 . S
C1209 C1193 1.377 . S
C1209 C1207 1.389 1_564 S
C1209 C1210 1.524 . S
C1210 C1209 1.524 . S
C1210 C1211 1.397 . S
C1210 C1215 1.363 . S
C1211 H1182 0.950 . S
C1211 C1210 1.397 . S
C1211 C1212 1.334 . S
C1212 H1183 0.950 . S
C1212 C1211 1.334 . S
C1212 C1213 1.287 . S
C1213 C1212 1.287 . S
C1213 C1214 1.524 . S
C1213 H1216 0.999 . S
C1214 H1184 0.950 . S
C1214 C1213 1.524 . S
C1214 C1215 1.415 . S
C1215 H1185 0.950 1_554 S
C1215 C1210 1.363 . S
C1215 C1214 1.415 . S
H1216 C1213 0.999 . S
H1217 C1198 0.913 . S
H1218 C1236 0.951 . S
H1219 C1238 0.951 1_545 S
H1220 C1240 0.950 . S
H1221 C1241 0.950 . S
H1222 C1243 0.950 . S
H1223 C1246 0.950 . S
H1224 C1247 0.950 . S
H1225 C1249 0.950 1_545 S
H1226 C1250 0.949 . S
H1227 C1251 0.951 . S
H1228 C1253 0.951 1_565 S
H1229 C1255 0.950 . S
H1230 C1256 0.950 . S
H1231 C1258 0.950 . S
H1232 C1261 0.950 . S
H1233 C1262 0.950 . S
H1234 C1264 0.950 1_565 S
H1235 C1265 0.949 . S
C1236 H1218 0.951 . S
C1236 C1237 1.366 . S
C1236 C1238 1.388 . S
C1237 C1236 1.366 . S
C1237 C1241 1.385 . S
C1238 H1219 0.951 1_565 S
C1238 C1236 1.388 . S
C1238 C1239 1.366 . S
C1239 C1238 1.366 . S
C1239 C1240 1.414 . S
C1239 C1242 1.499 . S
C1240 H1220 0.950 . S
C1240 C1239 1.414 . S
C1240 C1241 1.374 . S
C1241 H1221 0.950 . S
C1241 C1237 1.385 . S
C1241 C1240 1.374 . S
C1242 C1239 1.499 . S
C1242 C1243 1.373 . S
C1242 C1244 1.389 . S
C1243 H1222 0.950 . S
C1243 C1242 1.373 . S
C1243 C1259 1.377 1_565 S
C1244 C1242 1.389 . S
C1244 C1245 1.524 . S
C1244 C1258 1.377 1_565 S
C1245 C1244 1.524 . S
C1245 C1246 1.397 . S
C1245 C1250 1.363 1_565 S
C1246 H1223 0.950 . S
C1246 C1245 1.397 . S
C1246 C1247 1.334 . S
C1247 H1224 0.950 . S
C1247 C1246 1.334 . S
C1247 C1248 1.287 . S
C1248 C1247 1.287 . S
C1248 C1249 1.524 . S
C1248 H1267 0.913 . S
C1249 H1225 0.950 1_565 S
C1249 C1248 1.524 . S
C1249 C1250 1.416 1_565 S
C1250 H1226 0.949 . S
C1250 C1245 1.363 1_545 S
C1250 C1249 1.416 1_545 S
C1251 H1227 0.951 . S
C1251 C1252 1.366 . S
C1251 C1253 1.388 . S
C1252 C1251 1.366 . S
C1252 C1256 1.385 . S
C1253 H1228 0.951 1_545 S
C1253 C1251 1.388 . S
C1253 C1254 1.366 . S
C1254 C1253 1.366 . S
C1254 C1255 1.414 . S
C1254 C1257 1.499 . S
C1255 H1229 0.950 . S
C1255 C1254 1.414 . S
C1255 C1256 1.374 . S
C1256 H1230 0.950 . S
C1256 C1252 1.385 . S
C1256 C1255 1.374 . S
C1257 C1254 1.499 . S
C1257 C1258 1.373 . S
C1257 C1259 1.389 . S
C1258 H1231 0.950 . S
C1258 C1244 1.377 1_545 S
C1258 C1257 1.373 . S
C1259 C1243 1.377 1_545 S
C1259 C1257 1.389 . S
C1259 C1260 1.524 . S
C1260 C1259 1.524 . S
C1260 C1261 1.397 . S
C1260 C1265 1.363 1_545 S
C1261 H1232 0.950 . S
C1261 C1260 1.397 . S
C1261 C1262 1.334 . S
C1262 H1233 0.950 . S
C1262 C1261 1.334 . S
C1262 C1263 1.287 . S
C1263 C1262 1.287 . S
C1263 C1264 1.524 . S
C1263 H1266 0.999 . S
C1264 H1234 0.950 1_545 S
C1264 C1263 1.524 . S
C1264 C1265 1.416 1_545 S
C1265 H1235 0.949 . S
C1265 C1260 1.363 1_565 S
C1265 C1264 1.416 1_565 S
H1266 C1263 0.999 . S
H1267 C1248 0.913 . S
H1268 C1286 0.951 . S
H1269 C1288 0.951 . S
H1270 C1290 0.950 . S
H1271 C1291 0.950 1_455 S
H1272 C1293 0.950 . S
H1273 C1296 0.950 . S
H1274 C1297 0.950 . S
H1275 C1299 0.950 . S
H1276 C1300 0.950 . S
H1277 C1301 0.951 . S
H1278 C1303 0.951 . S
H1279 C1305 0.950 . S
H1280 C1306 0.950 1_655 S
H1281 C1308 0.950 . S
H1282 C1311 0.950 . S
H1283 C1312 0.950 . S
H1284 C1314 0.950 . S
H1285 C1315 0.950 . S
C1286 H1268 0.951 . S
C1286 C1287 1.366 . S
C1286 C1288 1.388 . S
C1287 C1286 1.366 . S
C1287 C1291 1.385 . S
C1288 H1269 0.951 . S
C1288 C1286 1.388 . S
C1288 C1289 1.366 . S
C1289 C1288 1.366 . S
C1289 C1290 1.414 1_655 S
C1289 C1292 1.499 . S
C1290 H1270 0.950 . S
C1290 C1289 1.414 1_455 S
C1290 C1291 1.374 1_455 S
C1291 H1271 0.950 1_655 S
C1291 C1287 1.385 . S
C1291 C1290 1.374 1_655 S
C1292 C1289 1.499 . S
C1292 C1293 1.373 1_655 S
C1292 C1294 1.389 . S
C1293 H1272 0.950 . S
C1293 C1292 1.373 1_455 S
C1293 C1309 1.377 . S
C1294 C1292 1.389 . S
C1294 C1295 1.524 . S
C1294 C1308 1.377 . S
C1295 C1294 1.524 . S
C1295 C1296 1.397 . S
C1295 C1300 1.363 . S
C1296 H1273 0.950 . S
C1296 C1295 1.397 . S
C1296 C1297 1.334 . S
C1297 H1274 0.950 . S
C1297 C1296 1.334 . S
C1297 C1298 1.287 . S
C1298 C1297 1.287 . S
C1298 C1299 1.524 . S
C1298 H1317 0.913 . S
C1299 H1275 0.950 . S
C1299 C1298 1.524 . S
C1299 C1300 1.415 . S
C1300 H1276 0.950 . S
C1300 C1295 1.363 . S
C1300 C1299 1.415 . S
C1301 H1277 0.951 . S
C1301 C1302 1.366 . S
C1301 C1303 1.388 . S
C1302 C1301 1.366 . S
C1302 C1306 1.385 . S
C1303 H1278 0.951 . S
C1303 C1301 1.388 . S
C1303 C1304 1.366 . S
C1304 C1303 1.366 . S
C1304 C1305 1.414 1_455 S
C1304 C1307 1.499 . S
C1305 H1279 0.950 . S
C1305 C1304 1.414 1_655 S
C1305 C1306 1.374 1_655 S
C1306 H1280 0.950 1_455 S
C1306 C1302 1.385 . S
C1306 C1305 1.374 1_455 S
C1307 C1304 1.499 . S
C1307 C1308 1.373 1_455 S
C1307 C1309 1.389 . S
C1308 H1281 0.950 . S
C1308 C1294 1.377 . S
C1308 C1307 1.373 1_655 S
C1309 C1293 1.377 . S
C1309 C1307 1.389 . S
C1309 C1310 1.524 . S
C1310 C1309 1.524 . S
C1310 C1311 1.397 . S
C1310 C1315 1.363 . S
C1311 H1282 0.950 . S
C1311 C1310 1.397 . S
C1311 C1312 1.334 . S
C1312 H1283 0.950 . S
C1312 C1311 1.334 . S
C1312 C1313 1.287 . S
C1313 C1312 1.287 . S
C1313 C1314 1.524 . S
C1313 H1316 0.999 . S
C1314 H1284 0.950 . S
C1314 C1313 1.524 . S
C1314 C1315 1.415 . S
C1315 H1285 0.950 . S
C1315 C1310 1.363 . S
C1315 C1314 1.415 . S
H1316 C1313 0.999 . S
H1317 C1298 0.913 . S
H1318 C1336 0.951 . S
H1319 C1338 0.951 . S
H1320 C1340 0.950 . S
H1321 C1341 0.950 . S
H1322 C1343 0.950 . S
H1323 C1346 0.950 . S
H1324 C1347 0.950 . S
H1325 C1349 0.950 . S
H1326 C1350 0.950 . S
H1327 C1351 0.951 . S
H1328 C1353 0.951 . S
H1329 C1355 0.950 . S
H1330 C1356 0.950 . S
H1331 C1358 0.950 . S
H1332 C1361 0.950 . S
H1333 C1362 0.950 . S
H1334 C1364 0.950 . S
H1335 C1365 0.950 . S
C1336 H1318 0.951 . S
C1336 C1337 1.366 . S
C1336 C1338 1.388 . S
C1337 C1336 1.366 . S
C1337 C1341 1.385 . S
C1338 H1319 0.951 . S
C1338 C1336 1.388 . S
C1338 C1339 1.366 . S
C1339 C1338 1.366 . S
C1339 C1340 1.414 . S
C1339 C1342 1.499 . S
C1340 H1320 0.950 . S
C1340 C1339 1.414 . S
C1340 C1341 1.374 . S
C1341 H1321 0.950 . S
C1341 C1337 1.385 . S
C1341 C1340 1.374 . S
C1342 C1339 1.499 . S
C1342 C1343 1.373 . S
C1342 C1344 1.389 . S
C1343 H1322 0.950 . S
C1343 C1342 1.373 . S
C1343 C1359 1.377 . S
C1344 C1342 1.389 . S
C1344 C1345 1.524 . S
C1344 C1358 1.377 . S
C1345 C1344 1.524 . S
C1345 C1346 1.397 . S
C1345 C1350 1.363 . S
C1346 H1323 0.950 . S
C1346 C1345 1.397 . S
C1346 C1347 1.334 . S
C1347 H1324 0.950 . S
C1347 C1346 1.334 . S
C1347 C1348 1.287 . S
C1348 C1347 1.287 . S
C1348 C1349 1.524 . S
C1348 H1367 0.913 . S
C1349 H1325 0.950 . S
C1349 C1348 1.524 . S
C1349 C1350 1.415 . S
C1350 H1326 0.950 . S
C1350 C1345 1.363 . S
C1350 C1349 1.415 . S
C1351 H1327 0.951 . S
C1351 C1352 1.366 . S
C1351 C1353 1.388 . S
C1352 C1351 1.366 . S
C1352 C1356 1.385 . S
C1353 H1328 0.951 . S
C1353 C1351 1.388 . S
C1353 C1354 1.366 . S
C1354 C1353 1.366 . S
C1354 C1355 1.414 . S
C1354 C1357 1.499 . S
C1355 H1329 0.950 . S
C1355 C1354 1.414 . S
C1355 C1356 1.374 . S
C1356 H1330 0.950 . S
C1356 C1352 1.385 . S
C1356 C1355 1.374 . S
C1357 C1354 1.499 . S
C1357 C1358 1.373 . S
C1357 C1359 1.389 . S
C1358 H1331 0.950 . S
C1358 C1344 1.377 . S
C1358 C1357 1.373 . S
C1359 C1343 1.377 . S
C1359 C1357 1.389 . S
C1359 C1360 1.524 . S
C1360 C1359 1.524 . S
C1360 C1361 1.397 . S
C1360 C1365 1.363 . S
C1361 H1332 0.950 . S
C1361 C1360 1.397 . S
C1361 C1362 1.334 . S
C1362 H1333 0.950 . S
C1362 C1361 1.334 . S
C1362 C1363 1.287 . S
C1363 C1362 1.287 . S
C1363 C1364 1.524 . S
C1363 H1366 0.999 . S
C1364 H1334 0.950 . S
C1364 C1363 1.524 . S
C1364 C1365 1.415 . S
C1365 H1335 0.950 . S
C1365 C1360 1.363 . S
C1365 C1364 1.415 . S
H1366 C1363 0.999 . S
H1367 C1348 0.913 . S
C187 C12 0.249 . S
C202 C102 0.318 . S
C237 C26 0.249 . S
C252 C116 0.319 . S
C287 C40 0.250 . S
C302 C88 0.318 . S
C337 C158 0.320 . S
C352 C54 0.249 . S
C387 C68 0.249 . S
C402 C130 0.320 . S
C437 C144 0.322 . S
C452 C82 0.248 . S
C487 C18 0.320 . S
C502 C96 0.250 . S
C537 C110 0.248 . S
C552 C32 0.321 . S
C587 C4 0.321 . S
C602 C124 0.249 . S
C637 C138 0.249 . S
C652 C74 0.320 . S
C687 C152 0.249 . S
C702 C46 0.319 . S
C737 C60 0.318 . S
C752 C166 0.249 . S
C787 C81 1.577 . S
C802 C11 1.577 . S
C837 C25 1.577 . S
C852 C53 1.577 . S
C887 C39 1.576 . S
C902 C67 1.577 . S
C937 C95 1.577 . S
C952 C165 1.577 . S
C987 C109 1.576 . S
C1002 C137 1.576 . S
C1037 C123 1.577 . S
C1052 C151 1.577 . S
C1087 C5 1.437 . S
C1102 C89 1.437 . S
C1137 C19 1.437 . S
C1152 C103 1.437 . S
C1187 C33 1.436 . S
C1202 C117 1.436 . S
C1237 C47 1.437 . S
C1252 C131 1.437 . S
C1287 C145 1.436 . S
C1302 C61 1.436 . S
C1337 C75 1.437 . S
C1352 C159 1.437 . S
