# Generated by pormake.
# Topology yfg, (5)-cn, num edge types: 1
# Building blocks:
#     Node 0, Type 0, BuildingBlock: BEQFEK_clean_sbu_0, # of connection points: 5
#     Node 1, Type 0, BuildingBlock: BEQFEK_clean_sbu_0, # of connection points: 5
#     Node 2, Type 0, BuildingBlock: BEQFEK_clean_sbu_0, # of connection points: 5
#     Node 3, Type 0, BuildingBlock: BEQFEK_clean_sbu_0, # of connection points: 5
#     Node 4, Type 0, BuildingBlock: BEQFEK_clean_sbu_0, # of connection points: 5
#     Node 5, Type 0, BuildingBlock: BEQFEK_clean_sbu_0, # of connection points: 5
#     Node 6, Type 0, BuildingBlock: BEQFEK_clean_sbu_0, # of connection points: 5
#     Node 7, Type 0, BuildingBlock: BEQFEK_clean_sbu_0, # of connection points: 5
#     Edge 8, Type (0, 0), BuildingBlock: OJICUG_clean_linker_0, # of connection points: 2
#     Edge 9, Type (0, 0), BuildingBlock: OJICUG_clean_linker_0, # of connection points: 2
#     Edge 10, Type (0, 0), BuildingBlock: OJICUG_clean_linker_0, # of connection points: 2
#     Edge 11, Type (0, 0), BuildingBlock: OJICUG_clean_linker_0, # of connection points: 2
#     Edge 12, Type (0, 0), BuildingBlock: OJICUG_clean_linker_0, # of connection points: 2
#     Edge 13, Type (0, 0), BuildingBlock: OJICUG_clean_linker_0, # of connection points: 2
#     Edge 14, Type (0, 0), BuildingBlock: OJICUG_clean_linker_0, # of connection points: 2
#     Edge 15, Type (0, 0), BuildingBlock: OJICUG_clean_linker_0, # of connection points: 2
#     Edge 16, Type (0, 0), BuildingBlock: OJICUG_clean_linker_0, # of connection points: 2
#     Edge 17, Type (0, 0), BuildingBlock: OJICUG_clean_linker_0, # of connection points: 2
#     Edge 18, Type (0, 0), BuildingBlock: OJICUG_clean_linker_0, # of connection points: 2
#     Edge 19, Type (0, 0), BuildingBlock: OJICUG_clean_linker_0, # of connection points: 2
#     Edge 20, Type (0, 0), BuildingBlock: OJICUG_clean_linker_0, # of connection points: 2
#     Edge 21, Type (0, 0), BuildingBlock: OJICUG_clean_linker_0, # of connection points: 2
#     Edge 22, Type (0, 0), BuildingBlock: OJICUG_clean_linker_0, # of connection points: 2
#     Edge 23, Type (0, 0), BuildingBlock: OJICUG_clean_linker_0, # of connection points: 2
#     Edge 24, Type (0, 0), BuildingBlock: OJICUG_clean_linker_0, # of connection points: 2
#     Edge 25, Type (0, 0), BuildingBlock: OJICUG_clean_linker_0, # of connection points: 2
#     Edge 26, Type (0, 0), BuildingBlock: OJICUG_clean_linker_0, # of connection points: 2
#     Edge 27, Type (0, 0), BuildingBlock: OJICUG_clean_linker_0, # of connection points: 2
# Relax obj value: 0.529
# Max RMSD: 0.227
# Mean RMSD: 0.227
data_MOF--net-yfg--node1-BEQFEK_clean_sbu_0--edge1-OJICUG_clean_linker_0
_symmetry_space_group_name_H-M    P1
_symmetry_Int_Tables_number       1
_symmetry_cell_setting            triclinic
loop_
_symmetry_equiv_pos_as_xyz
'x, y, z'
_cell_length_a     25.349187
_cell_length_b     25.345332
_cell_length_c     35.055917
_cell_angle_alpha  90.157034
_cell_angle_beta   89.716047
_cell_angle_gamma 89.989423
loop_
_atom_site_label
_atom_site_type_symbol
_atom_site_fract_x
_atom_site_fract_y
_atom_site_fract_z
_atom_type_partial_charge
Co0 Co 0.2234 0.46032 0.10069 0.0
Co1 Co 0.26982 0.48418 0.01948 0.0
C2 C 0.28814 0.55767 0.08454 0.0
O3 O 0.2628 0.52684 0.10648 0.0
O4 O 0.2932 0.54742 0.0491 0.0
C5 C 0.16284 0.49168 0.16296 0.0
O6 O 0.16238 0.53576 0.14332 0.0
C7 C 0.29669 0.53859 0.94797 0.0
C8 C 0.29465 0.47408 0.90545 0.0
C9 C 0.30191 0.528 0.9092 0.0
N10 N 0.28537 0.49333 0.96614 0.0
N11 N 0.2844 0.45487 0.94057 0.0
C12 C 0.30718 0.58951 0.96832 0.0
H13 H 0.33848 0.58286 0.98972 0.0
H14 H 0.27093 0.60234 0.98362 0.0
H15 H 0.32086 0.62123 0.94905 0.0
C16 C 0.1242 0.45788 0.05862 0.0
N17 N 0.17695 0.46263 0.0599 0.0
N18 N 0.19534 0.4737 0.02567 0.0
C19 C 0.15412 0.47747 0.00156 0.0
C20 C 0.10803 0.46763 0.02187 0.0
C21 C 0.08969 0.44314 0.09168 0.0
H22 H 0.11005 0.41415 0.11009 0.0
H23 H 0.08059 0.47901 0.10866 0.0
H24 H 0.05188 0.42593 0.08177 0.0
O25 O 0.27406 0.4033 0.09434 0.0
O26 O 0.31295 0.42326 0.03918 0.0
H27 H 0.17637 0.46174 0.94386 0.0
H28 H 0.11896 0.50331 0.94864 0.0
C29 C 0.15824 0.4941 0.96075 0.0
H30 H 0.18392 0.52936 0.95846 0.0
H31 H 0.2764 0.41551 0.94706 0.0
O32 O 0.18567 0.45137 0.14901 0.0
C33 C 0.30913 0.39472 0.06904 0.0
Co34 Co 0.52527 0.2154 0.34888 0.0
Co35 Co 0.50375 0.26356 0.26835 0.0
C36 C 0.42786 0.27999 0.33245 0.0
O37 O 0.45786 0.25393 0.35443 0.0
O38 O 0.43942 0.28598 0.29729 0.0
C39 C 0.49513 0.15471 0.41196 0.0
O40 O 0.44967 0.15471 0.39411 0.0
C41 C 0.45247 0.29207 0.19617 0.0
C42 C 0.51878 0.29008 0.15501 0.0
C43 C 0.46479 0.29768 0.15769 0.0
N44 N 0.49682 0.28016 0.21513 0.0
N45 N 0.53637 0.27926 0.19039 0.0
C46 C 0.40081 0.30279 0.21561 0.0
H47 H 0.38648 0.26615 0.22948 0.0
H48 H 0.3704 0.31807 0.19599 0.0
H49 H 0.40701 0.33291 0.23811 0.0
C50 C 0.53282 0.11754 0.30483 0.0
N51 N 0.52572 0.16999 0.30714 0.0
N52 N 0.51437 0.18888 0.27324 0.0
C53 C 0.5118 0.14808 0.24842 0.0
C54 C 0.52388 0.10192 0.26773 0.0
C55 C 0.5457 0.08267 0.3379 0.0
H56 H 0.57532 0.10208 0.35639 0.0
H57 H 0.50935 0.07571 0.35486 0.0
H58 H 0.56117 0.04389 0.3283 0.0
O59 O 0.5815 0.26716 0.34481 0.0
O60 O 0.56354 0.30706 0.28998 0.0
H61 H 0.52971 0.17179 0.19148 0.0
H62 H 0.48915 0.11357 0.1944 0.0
C63 C 0.49693 0.1528 0.20735 0.0
H64 H 0.46135 0.17796 0.20468 0.0
H65 H 0.57536 0.27087 0.19762 0.0
O66 O 0.53468 0.17686 0.39651 0.0
C67 C 0.59069 0.30304 0.32044 0.0
Co68 Co 0.77431 0.53339 0.59854 0.0
Co69 Co 0.7235 0.50721 0.51943 0.0
C70 C 0.7116 0.43388 0.58531 0.0
O71 O 0.73754 0.46532 0.60643 0.0
O72 O 0.70424 0.44389 0.55011 0.0
C73 C 0.83907 0.50922 0.66084 0.0
O74 O 0.84016 0.46268 0.64424 0.0
C75 C 0.69147 0.45174 0.44909 0.0
C76 C 0.69418 0.5153 0.4061 0.0
C77 C 0.68535 0.46171 0.41035 0.0
N78 N 0.70486 0.49698 0.46669 0.0
N79 N 0.70605 0.53488 0.44083 0.0
C80 C 0.68016 0.4015 0.46997 0.0
H81 H 0.71734 0.38591 0.48216 0.0
H82 H 0.66171 0.37117 0.45158 0.0
H83 H 0.65254 0.40995 0.49381 0.0
C84 C 0.87042 0.54002 0.5522 0.0
N85 N 0.81809 0.53281 0.5557 0.0
N86 N 0.79818 0.51931 0.5225 0.0
C87 C 0.8382 0.51516 0.49704 0.0
C88 C 0.88493 0.52868 0.51511 0.0
C89 C 0.90641 0.55469 0.58425 0.0
H90 H 0.8873 0.58465 0.60281 0.0
H91 H 0.91488 0.51904 0.60143 0.0
H92 H 0.94445 0.57053 0.57355 0.0
O93 O 0.72124 0.58818 0.59456 0.0
O94 O 0.67947 0.5673 0.54099 0.0
H95 H 0.81345 0.52855 0.43983 0.0
H96 H 0.87112 0.48744 0.44356 0.0
C97 C 0.83232 0.49687 0.4567 0.0
H98 H 0.8066 0.4615 0.45574 0.0
H99 H 0.71559 0.57408 0.44683 0.0
O100 O 0.81439 0.54674 0.64501 0.0
C101 C 0.68424 0.5958 0.57092 0.0
Co102 Co 0.45673 0.77733 0.85348 0.0
Co103 Co 0.48392 0.73116 0.7724 0.0
C104 C 0.55611 0.71514 0.83787 0.0
O105 O 0.52353 0.73882 0.85957 0.0
O106 O 0.54765 0.71072 0.80219 0.0
C107 C 0.48757 0.83721 0.91592 0.0
O108 O 0.53112 0.83906 0.89548 0.0
C109 C 0.53875 0.70059 0.70099 0.0
C110 C 0.47454 0.70352 0.65864 0.0
C111 C 0.52808 0.69412 0.66234 0.0
N112 N 0.49389 0.7145 0.71907 0.0
N113 N 0.45563 0.71595 0.69357 0.0
C114 C 0.58917 0.68876 0.72137 0.0
H115 H 0.60463 0.72556 0.73439 0.0
H116 H 0.61951 0.67113 0.70244 0.0
H117 H 0.58101 0.6603 0.74462 0.0
C118 C 0.4524 0.87616 0.81082 0.0
N119 N 0.45885 0.82359 0.81236 0.0
N120 N 0.47066 0.80533 0.77817 0.0
C121 C 0.47302 0.84648 0.75382 0.0
C122 C 0.46151 0.89237 0.7739 0.0
C123 C 0.43699 0.91038 0.8439 0.0
H124 H 0.40831 0.88947 0.86242 0.0
H125 H 0.47263 0.91987 0.8608 0.0
H126 H 0.41927 0.94798 0.83405 0.0
O127 O 0.4009 0.72541 0.84716 0.0
O128 O 0.42444 0.6862 0.79278 0.0
H129 H 0.45693 0.82475 0.69622 0.0
H130 H 0.49865 0.88199 0.70082 0.0
C131 C 0.48947 0.84258 0.71288 0.0
H132 H 0.5246 0.81673 0.71019 0.0
H133 H 0.41655 0.72553 0.7 0.0
O134 O 0.44717 0.81465 0.9021 0.0
C135 C 0.3947 0.68944 0.82223 0.0
Co136 Co 0.21608 0.52272 0.38608 0.0
Co137 Co 0.26235 0.49772 0.46666 0.0
C138 C 0.28074 0.42484 0.40129 0.0
O139 O 0.25564 0.45604 0.37963 0.0
O140 O 0.28526 0.43454 0.4368 0.0
C141 C 0.15592 0.49182 0.3239 0.0
O142 O 0.15472 0.44775 0.34355 0.0
C143 C 0.29566 0.44437 0.53712 0.0
C144 C 0.28487 0.50643 0.58086 0.0
C145 C 0.29909 0.45406 0.57608 0.0
N146 N 0.2786 0.48841 0.51982 0.0
N147 N 0.27261 0.52549 0.54612 0.0
C148 C 0.31357 0.39618 0.51589 0.0
H149 H 0.34086 0.40824 0.49271 0.0
H150 H 0.27894 0.37647 0.50287 0.0
H151 H 0.33485 0.36792 0.53428 0.0
C152 C 0.11737 0.52929 0.42929 0.0
N153 N 0.16971 0.52122 0.42738 0.0
N154 N 0.18764 0.50836 0.46126 0.0
C155 C 0.1462 0.50557 0.4856 0.0
C156 C 0.10072 0.51921 0.46604 0.0
C157 C 0.0837 0.54529 0.39632 0.0
H158 H 0.10494 0.57439 0.37837 0.0
H159 H 0.07479 0.50997 0.37878 0.0
H160 H 0.04574 0.5626 0.40605 0.0
O161 O 0.26687 0.57949 0.39177 0.0
O162 O 0.30589 0.55868 0.44642 0.0
H163 H 0.16451 0.52363 0.54348 0.0
H164 H 0.11045 0.4783 0.53805 0.0
C165 C 0.14968 0.48976 0.52657 0.0
H166 H 0.17759 0.45638 0.52969 0.0
H167 H 0.2598 0.56377 0.54038 0.0
O168 O 0.17843 0.53203 0.33808 0.0
C169 C 0.3022 0.58753 0.4167 0.0
Co170 Co 0.47683 0.21595 0.63679 0.0
Co171 Co 0.49174 0.26735 0.71704 0.0
C172 C 0.56994 0.28384 0.65316 0.0
O173 O 0.54298 0.25522 0.63081 0.0
O174 O 0.55546 0.29104 0.68764 0.0
C175 C 0.50775 0.15757 0.57253 0.0
O176 O 0.55396 0.16139 0.58914 0.0
C177 C 0.55053 0.2816 0.78662 0.0
C178 C 0.49727 0.32893 0.82304 0.0
C179 C 0.54805 0.30821 0.82151 0.0
N180 N 0.50431 0.28752 0.76862 0.0
N181 N 0.47223 0.31514 0.79071 0.0
C182 C 0.59496 0.24995 0.77 0.0
H183 H 0.57953 0.21997 0.74981 0.0
H184 H 0.6176 0.22999 0.79283 0.0
H185 H 0.62154 0.27635 0.75359 0.0
C186 C 0.47073 0.11925 0.68204 0.0
N187 N 0.47698 0.17173 0.67923 0.0
N188 N 0.48079 0.19264 0.71348 0.0
C189 C 0.47632 0.15365 0.73947 0.0
C190 C 0.46981 0.10593 0.72032 0.0
C191 C 0.46944 0.08271 0.64837 0.0
H192 H 0.43539 0.09279 0.63002 0.0
H193 H 0.50605 0.08795 0.6315 0.0
H194 H 0.46718 0.04065 0.65656 0.0
O195 O 0.41923 0.26738 0.64059 0.0
O196 O 0.43071 0.30829 0.69619 0.0
H197 H 0.45435 0.19922 0.78874 0.0
H198 H 0.4561 0.1287 0.79659 0.0
C199 C 0.47552 0.16214 0.78173 0.0
H200 H 0.51661 0.16551 0.79217 0.0
H201 H 0.43409 0.32633 0.7831 0.0
O202 O 0.46732 0.17622 0.58929 0.0
C203 C 0.40604 0.30254 0.6648 0.0
Co204 Co 0.78744 0.49327 0.88511 0.0
Co205 Co 0.73236 0.49699 0.96551 0.0
C206 C 0.71196 0.57858 0.90396 0.0
O207 O 0.74467 0.55677 0.88141 0.0
O208 O 0.70371 0.56022 0.93736 0.0
C209 C 0.84405 0.52908 0.82075 0.0
O210 O 0.8364 0.57533 0.83688 0.0
C211 C 0.70406 0.54587 0.03881 0.0
C212 C 0.6907 0.47713 0.07628 0.0
C213 C 0.69107 0.53184 0.07612 0.0
N214 N 0.71206 0.5016 0.01838 0.0
N215 N 0.70405 0.46064 0.04094 0.0
C216 C 0.70298 0.59951 0.02098 0.0
H217 H 0.74007 0.60599 0.00469 0.0
H218 H 0.69699 0.6319 0.04165 0.0
H219 H 0.66984 0.60089 0.00053 0.0
C220 C 0.88248 0.48973 0.93108 0.0
N221 N 0.82988 0.49334 0.928 0.0
N222 N 0.80798 0.49281 0.96208 0.0
C223 C 0.84666 0.48823 0.98825 0.0
C224 C 0.89501 0.48576 0.96929 0.0
C225 C 0.91978 0.49249 0.89786 0.0
H226 H 0.91375 0.45769 0.87912 0.0
H227 H 0.91126 0.52849 0.8812 0.0
H228 H 0.9616 0.49434 0.90677 0.0
O229 O 0.73932 0.43321 0.8858 0.0
O230 O 0.69762 0.43382 0.94167 0.0
H231 H 0.80946 0.44948 0.03521 0.0
H232 H 0.87411 0.47479 0.04595 0.0
C233 C 0.83713 0.48261 0.03019 0.0
H234 H 0.81861 0.51922 0.04135 0.0
H235 H 0.70742 0.4214 0.03215 0.0
O236 O 0.82869 0.48776 0.83789 0.0
C237 C 0.70535 0.41387 0.90862 0.0
Co238 Co 0.52742 0.77183 0.13838 0.0
Co239 Co 0.50215 0.72442 0.21906 0.0
C240 C 0.43004 0.70591 0.15412 0.0
O241 O 0.4614 0.73126 0.13252 0.0
O242 O 0.43914 0.70141 0.18967 0.0
C243 C 0.49387 0.83251 0.07727 0.0
O244 O 0.45053 0.83254 0.09799 0.0
C245 C 0.44845 0.69422 0.29054 0.0
C246 C 0.51295 0.6971 0.33267 0.0
C247 C 0.45931 0.68807 0.32913 0.0
N248 N 0.49326 0.70765 0.27232 0.0
N249 N 0.5317 0.70913 0.29768 0.0
C250 C 0.39793 0.68239 0.27028 0.0
H251 H 0.38346 0.71869 0.25612 0.0
H252 H 0.36696 0.66656 0.28942 0.0
H253 H 0.40576 0.65234 0.24795 0.0
C254 C 0.53269 0.87001 0.18223 0.0
N255 N 0.52536 0.81759 0.18 0.0
N256 N 0.51251 0.79905 0.21382 0.0
C257 C 0.50915 0.84003 0.23844 0.0
C258 C 0.52225 0.88596 0.21913 0.0
C259 C 0.54809 0.90446 0.1494 0.0
H260 H 0.57695 0.8837 0.13083 0.0
H261 H 0.51248 0.9137 0.13243 0.0
H262 H 0.56544 0.94222 0.15934 0.0
O263 O 0.58481 0.72141 0.14348 0.0
O264 O 0.56281 0.68135 0.19774 0.0
H265 H 0.52575 0.81741 0.29569 0.0
H266 H 0.48422 0.87485 0.29197 0.0
C267 C 0.4931 0.83558 0.2794 0.0
H268 H 0.45794 0.80978 0.28196 0.0
H269 H 0.57078 0.71854 0.29111 0.0
O270 O 0.53498 0.8104 0.09027 0.0
C271 C 0.59211 0.68546 0.16811 0.0
C272 C 0.141 0.44377 0.26298 0.0
C273 C 0.14269 0.49166 0.28315 0.0
H274 H 0.1459 0.40625 0.20839 0.0
C275 C 0.14032 0.53941 0.26302 0.0
H276 H 0.14233 0.40634 0.27779 0.0
C277 C 0.14193 0.53934 0.22328 0.0
C278 C 0.14658 0.49152 0.20325 0.0
H279 H 0.1408 0.57689 0.27796 0.0
H280 H 0.1438 0.57681 0.20854 0.0
C281 C 0.14327 0.44371 0.22326 0.0
C282 C 0.54722 0.13683 0.47043 0.0
C283 C 0.49796 0.14007 0.45243 0.0
H284 H 0.58896 0.13879 0.52314 0.0
C285 C 0.45175 0.13786 0.47459 0.0
H286 H 0.58346 0.13752 0.45392 0.0
C287 C 0.45488 0.13894 0.51427 0.0
C288 C 0.50425 0.14181 0.53221 0.0
H289 H 0.41322 0.13973 0.46143 0.0
H290 H 0.41866 0.14128 0.53073 0.0
C291 C 0.55034 0.13746 0.51008 0.0
C292 C 0.85591 0.56569 0.71766 0.0
C293 C 0.85617 0.51545 0.70061 0.0
H294 H 0.85297 0.60958 0.76971 0.0
C295 C 0.8645 0.47081 0.72338 0.0
H296 H 0.85062 0.6009 0.70064 0.0
C297 C 0.86569 0.47577 0.76297 0.0
C298 C 0.85886 0.52546 0.7802 0.0
H299 H 0.86564 0.43164 0.71096 0.0
H300 H 0.86792 0.44029 0.78006 0.0
C301 C 0.85743 0.57068 0.75723 0.0
C302 C 0.44177 0.85118 0.97819 0.0
C303 C 0.48877 0.85012 0.95685 0.0
H304 H 0.40658 0.84759 0.03362 0.0
C305 C 0.53732 0.85344 0.97584 0.0
H306 H 0.40379 0.84937 0.96422 0.0
C307 C 0.53896 0.85184 0.01557 0.0
C308 C 0.49207 0.84764 0.03682 0.0
H309 H 0.57421 0.85313 0.96012 0.0
H310 H 0.577 0.85063 0.0295 0.0
C311 C 0.4434 0.85031 0.01794 0.0
C312 C 0.03422 0.43668 0.98128 0.0
C313 C 0.0533 0.47164 0.00887 0.0
H314 H 0.96757 0.41241 0.94837 0.0
C315 C 0.01942 0.50925 0.02529 0.0
H316 H 0.05979 0.40692 0.96885 0.0
C317 C 0.96717 0.51302 0.01325 0.0
C318 C 0.94819 0.47862 0.98513 0.0
H319 H 0.03372 0.53627 0.04689 0.0
H320 H 0.94206 0.54356 0.02513 0.0
C321 C 0.98174 0.43972 0.96982 0.0
C322 C 0.57091 0.01979 0.24929 0.0
C323 C 0.52334 0.04739 0.2536 0.0
H324 H 0.60751 0.94591 0.23504 0.0
C325 C 0.47525 0.02135 0.24778 0.0
H326 H 0.60828 0.03936 0.25417 0.0
C327 C 0.47479 0.96799 0.23767 0.0
C328 C 0.52241 0.9405 0.23321 0.0
H329 H 0.43822 0.04213 0.25155 0.0
H330 H 0.43744 0.94835 0.23286 0.0
C331 C 0.57046 0.96662 0.23888 0.0
C332 C 0.01734 0.47469 0.48531 0.0
C333 C 0.04608 0.52135 0.48 0.0
H334 H 0.94231 0.44073 0.50001 0.0
C335 C 0.02116 0.57031 0.48474 0.0
H336 H 0.03602 0.43663 0.48122 0.0
C337 C 0.96801 0.57264 0.49512 0.0
C338 C 0.93919 0.52603 0.50041 0.0
H339 H 0.04283 0.60664 0.48026 0.0
H340 H 0.94945 0.61074 0.49937 0.0
C341 C 0.96399 0.47702 0.49544 0.0
C342 C 0.50254 0.03425 0.76266 0.0
C343 C 0.46527 0.05241 0.73635 0.0
H344 H 0.53041 0.96829 0.79508 0.0
C345 C 0.42579 0.01798 0.72332 0.0
H346 H 0.53343 0.06007 0.77295 0.0
C347 C 0.42518 0.96537 0.73491 0.0
C348 C 0.46314 0.9471 0.7605 0.0
H349 H 0.39603 0.03157 0.70357 0.0
H350 H 0.39492 0.9391 0.7242 0.0
C351 C 0.50122 0.9819 0.77489 0.0
C352 C 0.35212 0.6451 0.15881 0.0
C353 C 0.38647 0.6756 0.13639 0.0
H354 H 0.29355 0.58457 0.16005 0.0
C355 C 0.3827 0.67218 0.09637 0.0
H356 H 0.35336 0.64721 0.18963 0.0
C357 C 0.3485 0.63598 0.07929 0.0
C358 C 0.31706 0.60261 0.10181 0.0
H359 H 0.40817 0.69548 0.07811 0.0
H360 H 0.34853 0.63263 0.04852 0.0
C361 C 0.31772 0.60913 0.14173 0.0
C362 C 0.3759 0.31066 0.38941 0.0
C363 C 0.38284 0.30936 0.34951 0.0
H364 H 0.33791 0.34762 0.43711 0.0
C365 C 0.3502 0.34108 0.32684 0.0
H366 H 0.39993 0.28639 0.40785 0.0
C367 C 0.3144 0.37615 0.34373 0.0
C368 C 0.31063 0.38055 0.38372 0.0
H369 H 0.3539 0.34069 0.29608 0.0
H370 H 0.29174 0.40178 0.32534 0.0
C371 C 0.34032 0.34594 0.4063 0.0
C372 C 0.62406 0.31414 0.59739 0.0
C373 C 0.61432 0.31487 0.63699 0.0
H374 H 0.66274 0.35075 0.55 0.0
C375 C 0.643 0.35018 0.65985 0.0
H376 H 0.60312 0.28712 0.57886 0.0
C377 C 0.67756 0.38656 0.64317 0.0
C378 C 0.6838 0.38873 0.60324 0.0
H379 H 0.63683 0.35154 0.69044 0.0
H380 H 0.69697 0.41497 0.66148 0.0
C381 C 0.6582 0.3508 0.58071 0.0
C382 C 0.63981 0.64585 0.91152 0.0
C383 C 0.67804 0.62112 0.88857 0.0
H384 H 0.57186 0.69566 0.91359 0.0
C385 C 0.67962 0.63293 0.84929 0.0
H386 H 0.63753 0.63794 0.94179 0.0
C387 C 0.64147 0.66546 0.83292 0.0
C388 C 0.60131 0.68754 0.85552 0.0
H389 H 0.70873 0.61491 0.83065 0.0
H390 H 0.64245 0.6718 0.80239 0.0
C391 C 0.60208 0.67898 0.89522 0.0
C392 C 0.40451 0.37616 0.07777 0.0
C393 C 0.35201 0.35854 0.07965 0.0
H394 H 0.48194 0.37062 0.10195 0.0
C395 C 0.34001 0.31354 0.10128 0.0
H396 H 0.41469 0.41102 0.0615 0.0
C397 C 0.37847 0.29029 0.12406 0.0
C398 C 0.42898 0.31268 0.12641 0.0
H399 H 0.29984 0.29907 0.103 0.0
H400 H 0.36756 0.25738 0.1421 0.0
C401 C 0.44286 0.35338 0.10118 0.0
C402 C 0.60929 0.39872 0.32968 0.0
C403 C 0.62602 0.34603 0.33266 0.0
H404 H 0.61488 0.47708 0.35277 0.0
C405 C 0.66913 0.33412 0.35612 0.0
H406 H 0.57586 0.4089 0.31202 0.0
C407 C 0.69147 0.37303 0.37919 0.0
C408 C 0.67015 0.42413 0.37994 0.0
H409 H 0.68299 0.29385 0.35874 0.0
H410 H 0.72316 0.36227 0.39827 0.0
C411 C 0.63123 0.4376 0.35328 0.0
C412 C 0.55057 0.63755 0.60574 0.0
C413 C 0.56484 0.67749 0.6316 0.0
H414 H 0.57797 0.58056 0.56477 0.0
C415 C 0.61595 0.69857 0.62974 0.0
H416 H 0.51105 0.6213 0.60613 0.0
C417 C 0.6541 0.67537 0.60624 0.0
C418 C 0.64148 0.63143 0.58353 0.0
H419 H 0.62734 0.73087 0.64825 0.0
H420 H 0.69443 0.68931 0.60796 0.0
C421 C 0.58871 0.61463 0.58177 0.0
C422 C 0.29258 0.61545 0.87731 0.0
C423 C 0.3161 0.56538 0.87854 0.0
H424 H 0.29928 0.69502 0.85756 0.0
C425 C 0.35708 0.55344 0.85283 0.0
H426 H 0.25949 0.6249 0.89578 0.0
C427 C 0.37887 0.59319 0.82999 0.0
C428 C 0.35999 0.64521 0.83289 0.0
H429 H 0.3752 0.51472 0.85277 0.0
H430 H 0.41386 0.5844 0.81326 0.0
C431 C 0.31481 0.65531 0.85506 0.0
C432 C 0.33295 0.6689 0.38432 0.0
C433 C 0.34505 0.62393 0.40589 0.0
H434 H 0.36066 0.72592 0.34397 0.0
C435 C 0.39776 0.60695 0.40785 0.0
H436 H 0.29265 0.68292 0.38252 0.0
C437 C 0.43636 0.63059 0.3848 0.0
C438 C 0.42259 0.67149 0.35977 0.0
H439 H 0.40805 0.57211 0.42403 0.0
H440 H 0.47576 0.61403 0.38422 0.0
C441 C 0.37162 0.69294 0.36185 0.0
C442 C 0.30081 0.36448 0.60551 0.0
C443 C 0.317 0.41741 0.6061 0.0
H444 H 0.31663 0.28584 0.62437 0.0
C445 C 0.354 0.43373 0.63339 0.0
H446 H 0.27073 0.35133 0.5858 0.0
C447 C 0.37921 0.3964 0.6564 0.0
C448 C 0.36774 0.34246 0.65212 0.0
H449 H 0.36641 0.47458 0.63485 0.0
H450 H 0.41107 0.40917 0.67472 0.0
C451 C 0.3265 0.32716 0.62792 0.0
C452 C 0.61728 0.36832 0.90689 0.0
C453 C 0.66895 0.37382 0.8928 0.0
H454 H 0.53853 0.34218 0.89538 0.0
C455 C 0.6824 0.34891 0.85827 0.0
H456 H 0.60558 0.38713 0.93339 0.0
C457 C 0.64402 0.32455 0.83612 0.0
C458 C 0.59115 0.32285 0.84833 0.0
H459 H 0.72196 0.35209 0.84664 0.0
H460 H 0.656 0.31148 0.80819 0.0
C461 C 0.57876 0.34298 0.88485 0.0
C462 C 0.67503 0.65281 0.13825 0.0
C463 C 0.62694 0.64173 0.15655 0.0
H464 H 0.73537 0.6249 0.10024 0.0
C465 C 0.60589 0.5906 0.15402 0.0
H466 H 0.69213 0.69192 0.13996 0.0
C467 C 0.62907 0.55327 0.12967 0.0
C468 C 0.67383 0.56653 0.10792 0.0
H469 H 0.56856 0.58124 0.16758 0.0
H470 H 0.60954 0.51568 0.12559 0.0
C471 C 0.69898 0.61496 0.11484 0.0
loop_
_geom_bond_atom_site_label_1
_geom_bond_atom_site_label_2
_geom_bond_distance
_geom_bond_site_symmetry_2
_ccdc_geom_bond_type
Co0 O3 1.970 . S
Co0 N17 1.989 . S
Co0 O25 1.967 . S
Co0 O32 1.920 . S
Co1 O4 1.966 . S
Co1 N10 2.022 1_554 S
Co1 N18 1.993 . S
Co1 O26 1.941 . S
C2 O3 1.258 . S
C2 O4 1.263 . S
O3 Co0 1.970 . S
O3 C2 1.258 . S
O4 Co1 1.966 . S
O4 C2 1.263 . S
C5 O6 1.235 . S
C5 O32 1.289 . S
O6 C5 1.235 . S
C7 C9 1.400 . S
C7 N10 1.351 . S
C7 C12 1.501 . S
C8 C9 1.387 . S
C8 N11 1.341 . S
C9 C7 1.400 . S
C9 C8 1.387 . S
N10 Co1 2.022 1_556 S
N10 C7 1.351 . S
N10 N11 1.365 . S
N11 C8 1.341 . S
N11 N10 1.365 . S
N11 H31 0.862 . S
C12 C7 1.501 . S
C12 H13 0.961 . S
C12 H14 0.961 . S
C12 H15 0.960 . S
H13 C12 0.961 . S
H14 C12 0.961 . S
H15 C12 0.960 . S
C16 N17 1.342 . S
C16 C20 1.401 . S
C16 C21 1.499 . S
N17 Co0 1.989 . S
N17 C16 1.342 . S
N17 N18 1.388 . S
N18 Co1 1.993 . S
N18 N17 1.388 . S
N18 C19 1.325 1_554 S
C19 N18 1.325 1_556 S
C19 C20 1.382 1_556 S
C19 C29 1.540 . S
C20 C16 1.401 . S
C20 C19 1.382 1_554 S
C21 C16 1.499 . S
C21 H22 0.959 . S
C21 H23 0.960 . S
C21 H24 0.961 . S
H22 C21 0.959 . S
H23 C21 0.960 . S
H24 C21 0.961 . S
O25 Co0 1.967 . S
O25 C33 1.258 . S
O26 Co1 1.941 . S
O26 C33 1.266 . S
H27 C29 0.959 . S
H28 C29 0.961 . S
C29 C19 1.540 . S
C29 H27 0.959 . S
C29 H28 0.961 . S
C29 H30 0.960 . S
H30 C29 0.960 . S
H31 N11 0.862 . S
O32 Co0 1.920 . S
O32 C5 1.289 . S
C33 O25 1.258 . S
C33 O26 1.266 . S
Co34 O37 1.970 . S
Co34 N51 1.989 . S
Co34 O59 1.967 . S
Co34 O66 1.920 . S
Co35 O38 1.966 . S
Co35 N44 2.022 . S
Co35 N52 1.993 . S
Co35 O60 1.941 . S
C36 O37 1.258 . S
C36 O38 1.263 . S
O37 Co34 1.970 . S
O37 C36 1.258 . S
O38 Co35 1.966 . S
O38 C36 1.263 . S
C39 O40 1.235 . S
C39 O66 1.289 . S
O40 C39 1.235 . S
C41 C43 1.400 . S
C41 N44 1.351 . S
C41 C46 1.501 . S
C42 C43 1.387 . S
C42 N45 1.341 . S
C43 C41 1.400 . S
C43 C42 1.387 . S
N44 Co35 2.022 . S
N44 C41 1.351 . S
N44 N45 1.365 . S
N45 C42 1.341 . S
N45 N44 1.365 . S
N45 H65 0.862 . S
C46 C41 1.501 . S
C46 H47 0.961 . S
C46 H48 0.961 . S
C46 H49 0.960 . S
H47 C46 0.961 . S
H48 C46 0.961 . S
H49 C46 0.960 . S
C50 N51 1.342 . S
C50 C54 1.401 . S
C50 C55 1.499 . S
N51 Co34 1.989 . S
N51 C50 1.342 . S
N51 N52 1.388 . S
N52 Co35 1.993 . S
N52 N51 1.388 . S
N52 C53 1.346 . S
C53 N52 1.346 . S
C53 C54 1.396 . S
C53 C63 1.510 . S
C54 C50 1.401 . S
C54 C53 1.396 . S
C55 C50 1.499 . S
C55 H56 0.959 . S
C55 H57 0.960 . S
C55 H58 0.961 . S
H56 C55 0.959 . S
H57 C55 0.960 . S
H58 C55 0.961 . S
O59 Co34 1.967 . S
O59 C67 1.258 . S
O60 Co35 1.941 . S
O60 C67 1.266 . S
H61 C63 0.959 . S
H62 C63 0.961 . S
C63 C53 1.510 . S
C63 H61 0.959 . S
C63 H62 0.961 . S
C63 H64 0.960 . S
H64 C63 0.960 . S
H65 N45 0.862 . S
O66 Co34 1.920 . S
O66 C39 1.289 . S
C67 O59 1.258 . S
C67 O60 1.266 . S
Co68 O71 1.970 . S
Co68 N85 1.989 . S
Co68 O93 1.967 . S
Co68 O100 1.920 . S
Co69 O72 1.966 . S
Co69 N78 2.022 . S
Co69 N86 1.993 . S
Co69 O94 1.941 . S
C70 O71 1.258 . S
C70 O72 1.263 . S
O71 Co68 1.970 . S
O71 C70 1.258 . S
O72 Co69 1.966 . S
O72 C70 1.263 . S
C73 O74 1.235 . S
C73 O100 1.289 . S
O74 C73 1.235 . S
C75 C77 1.400 . S
C75 N78 1.351 . S
C75 C80 1.501 . S
C76 C77 1.387 . S
C76 N79 1.341 . S
C77 C75 1.400 . S
C77 C76 1.387 . S
N78 Co69 2.022 . S
N78 C75 1.351 . S
N78 N79 1.365 . S
N79 C76 1.341 . S
N79 N78 1.365 . S
N79 H99 0.862 . S
C80 C75 1.501 . S
C80 H81 0.961 . S
C80 H82 0.961 . S
C80 H83 0.960 . S
H81 C80 0.961 . S
H82 C80 0.961 . S
H83 C80 0.960 . S
C84 N85 1.342 . S
C84 C88 1.401 . S
C84 C89 1.499 . S
N85 Co68 1.989 . S
N85 C84 1.342 . S
N85 N86 1.388 . S
N86 Co69 1.993 . S
N86 N85 1.388 . S
N86 C87 1.346 . S
C87 N86 1.346 . S
C87 C88 1.396 . S
C87 C97 1.510 . S
C88 C84 1.401 . S
C88 C87 1.396 . S
C89 C84 1.499 . S
C89 H90 0.959 . S
C89 H91 0.960 . S
C89 H92 0.961 . S
H90 C89 0.959 . S
H91 C89 0.960 . S
H92 C89 0.961 . S
O93 Co68 1.967 . S
O93 C101 1.258 . S
O94 Co69 1.941 . S
O94 C101 1.266 . S
H95 C97 0.959 . S
H96 C97 0.961 . S
C97 C87 1.510 . S
C97 H95 0.959 . S
C97 H96 0.961 . S
C97 H98 0.960 . S
H98 C97 0.960 . S
H99 N79 0.862 . S
O100 Co68 1.920 . S
O100 C73 1.289 . S
C101 O93 1.258 . S
C101 O94 1.266 . S
Co102 O105 1.970 . S
Co102 N119 1.989 . S
Co102 O127 1.967 . S
Co102 O134 1.920 . S
Co103 O106 1.966 . S
Co103 N112 2.022 . S
Co103 N120 1.993 . S
Co103 O128 1.941 . S
C104 O105 1.258 . S
C104 O106 1.263 . S
O105 Co102 1.970 . S
O105 C104 1.258 . S
O106 Co103 1.966 . S
O106 C104 1.263 . S
C107 O108 1.235 . S
C107 O134 1.289 . S
O108 C107 1.235 . S
C109 C111 1.400 . S
C109 N112 1.351 . S
C109 C114 1.501 . S
C110 C111 1.387 . S
C110 N113 1.341 . S
C111 C109 1.400 . S
C111 C110 1.387 . S
N112 Co103 2.022 . S
N112 C109 1.351 . S
N112 N113 1.365 . S
N113 C110 1.341 . S
N113 N112 1.365 . S
N113 H133 0.862 . S
C114 C109 1.501 . S
C114 H115 0.961 . S
C114 H116 0.961 . S
C114 H117 0.960 . S
H115 C114 0.961 . S
H116 C114 0.961 . S
H117 C114 0.960 . S
C118 N119 1.342 . S
C118 C122 1.401 . S
C118 C123 1.499 . S
N119 Co102 1.989 . S
N119 C118 1.342 . S
N119 N120 1.388 . S
N120 Co103 1.993 . S
N120 N119 1.388 . S
N120 C121 1.346 . S
C121 N120 1.346 . S
C121 C122 1.396 . S
C121 C131 1.510 . S
C122 C118 1.401 . S
C122 C121 1.396 . S
C123 C118 1.499 . S
C123 H124 0.959 . S
C123 H125 0.960 . S
C123 H126 0.961 . S
H124 C123 0.959 . S
H125 C123 0.960 . S
H126 C123 0.961 . S
O127 Co102 1.967 . S
O127 C135 1.258 . S
O128 Co103 1.941 . S
O128 C135 1.266 . S
H129 C131 0.959 . S
H130 C131 0.961 . S
C131 C121 1.510 . S
C131 H129 0.959 . S
C131 H130 0.961 . S
C131 H132 0.960 . S
H132 C131 0.960 . S
H133 N113 0.862 . S
O134 Co102 1.920 . S
O134 C107 1.289 . S
C135 O127 1.258 . S
C135 O128 1.266 . S
Co136 O139 1.970 . S
Co136 N153 1.989 . S
Co136 O161 1.967 . S
Co136 O168 1.920 . S
Co137 O140 1.966 . S
Co137 N146 2.022 . S
Co137 N154 1.993 . S
Co137 O162 1.941 . S
C138 O139 1.258 . S
C138 O140 1.263 . S
O139 Co136 1.970 . S
O139 C138 1.258 . S
O140 Co137 1.966 . S
O140 C138 1.263 . S
C141 O142 1.235 . S
C141 O168 1.289 . S
O142 C141 1.235 . S
C143 C145 1.400 . S
C143 N146 1.351 . S
C143 C148 1.501 . S
C144 C145 1.387 . S
C144 N147 1.341 . S
C145 C143 1.400 . S
C145 C144 1.387 . S
N146 Co137 2.022 . S
N146 C143 1.351 . S
N146 N147 1.365 . S
N147 C144 1.341 . S
N147 N146 1.365 . S
N147 H167 0.862 . S
C148 C143 1.501 . S
C148 H149 0.961 . S
C148 H150 0.961 . S
C148 H151 0.960 . S
H149 C148 0.961 . S
H150 C148 0.961 . S
H151 C148 0.960 . S
C152 N153 1.342 . S
C152 C156 1.401 . S
C152 C157 1.499 . S
N153 Co136 1.989 . S
N153 C152 1.342 . S
N153 N154 1.388 . S
N154 Co137 1.993 . S
N154 N153 1.388 . S
N154 C155 1.346 . S
C155 N154 1.346 . S
C155 C156 1.396 . S
C155 C165 1.510 . S
C156 C152 1.401 . S
C156 C155 1.396 . S
C157 C152 1.499 . S
C157 H158 0.959 . S
C157 H159 0.960 . S
C157 H160 0.961 . S
H158 C157 0.959 . S
H159 C157 0.960 . S
H160 C157 0.961 . S
O161 Co136 1.967 . S
O161 C169 1.258 . S
O162 Co137 1.941 . S
O162 C169 1.266 . S
H163 C165 0.959 . S
H164 C165 0.961 . S
C165 C155 1.510 . S
C165 H163 0.959 . S
C165 H164 0.961 . S
C165 H166 0.960 . S
H166 C165 0.960 . S
H167 N147 0.862 . S
O168 Co136 1.920 . S
O168 C141 1.289 . S
C169 O161 1.258 . S
C169 O162 1.266 . S
Co170 O173 1.970 . S
Co170 N187 1.989 . S
Co170 O195 1.967 . S
Co170 O202 1.920 . S
Co171 O174 1.966 . S
Co171 N180 2.022 . S
Co171 N188 1.993 . S
Co171 O196 1.941 . S
C172 O173 1.258 . S
C172 O174 1.263 . S
O173 Co170 1.970 . S
O173 C172 1.258 . S
O174 Co171 1.966 . S
O174 C172 1.263 . S
C175 O176 1.235 . S
C175 O202 1.289 . S
O176 C175 1.235 . S
C177 C179 1.400 . S
C177 N180 1.351 . S
C177 C182 1.501 . S
C178 C179 1.387 . S
C178 N181 1.341 . S
C179 C177 1.400 . S
C179 C178 1.387 . S
N180 Co171 2.022 . S
N180 C177 1.351 . S
N180 N181 1.365 . S
N181 C178 1.341 . S
N181 N180 1.365 . S
N181 H201 0.862 . S
C182 C177 1.501 . S
C182 H183 0.961 . S
C182 H184 0.961 . S
C182 H185 0.960 . S
H183 C182 0.961 . S
H184 C182 0.961 . S
H185 C182 0.960 . S
C186 N187 1.342 . S
C186 C190 1.401 . S
C186 C191 1.499 . S
N187 Co170 1.989 . S
N187 C186 1.342 . S
N187 N188 1.388 . S
N188 Co171 1.993 . S
N188 N187 1.388 . S
N188 C189 1.346 . S
C189 N188 1.346 . S
C189 C190 1.396 . S
C189 C199 1.510 . S
C190 C186 1.401 . S
C190 C189 1.396 . S
C191 C186 1.499 . S
C191 H192 0.959 . S
C191 H193 0.960 . S
C191 H194 0.961 . S
H192 C191 0.959 . S
H193 C191 0.960 . S
H194 C191 0.961 . S
O195 Co170 1.967 . S
O195 C203 1.258 . S
O196 Co171 1.941 . S
O196 C203 1.266 . S
H197 C199 0.959 . S
H198 C199 0.961 . S
C199 C189 1.510 . S
C199 H197 0.959 . S
C199 H198 0.961 . S
C199 H200 0.960 . S
H200 C199 0.960 . S
H201 N181 0.862 . S
O202 Co170 1.920 . S
O202 C175 1.289 . S
C203 O195 1.258 . S
C203 O196 1.266 . S
Co204 O207 1.970 . S
Co204 N221 1.989 . S
Co204 O229 1.967 . S
Co204 O236 1.920 . S
Co205 O208 1.966 . S
Co205 N214 2.022 1_556 S
Co205 N222 1.993 . S
Co205 O230 1.941 . S
C206 O207 1.258 . S
C206 O208 1.263 . S
O207 Co204 1.970 . S
O207 C206 1.258 . S
O208 Co205 1.966 . S
O208 C206 1.263 . S
C209 O210 1.235 . S
C209 O236 1.289 . S
O210 C209 1.235 . S
C211 C213 1.400 . S
C211 N214 1.351 . S
C211 C216 1.501 . S
C212 C213 1.387 . S
C212 N215 1.341 . S
C213 C211 1.400 . S
C213 C212 1.387 . S
N214 Co205 2.022 1_554 S
N214 C211 1.351 . S
N214 N215 1.365 . S
N215 C212 1.341 . S
N215 N214 1.365 . S
N215 H235 0.862 . S
C216 C211 1.501 . S
C216 H217 0.961 . S
C216 H218 0.961 . S
C216 H219 0.960 . S
H217 C216 0.961 . S
H218 C216 0.961 . S
H219 C216 0.960 . S
C220 N221 1.342 . S
C220 C224 1.401 . S
C220 C225 1.499 . S
N221 Co204 1.989 . S
N221 C220 1.342 . S
N221 N222 1.388 . S
N222 Co205 1.993 . S
N222 N221 1.388 . S
N222 C223 1.325 1_556 S
C223 N222 1.325 1_554 S
C223 C224 1.382 1_554 S
C223 C233 1.540 . S
C224 C220 1.401 . S
C224 C223 1.382 1_556 S
C225 C220 1.499 . S
C225 H226 0.959 . S
C225 H227 0.960 . S
C225 H228 0.961 . S
H226 C225 0.959 . S
H227 C225 0.960 . S
H228 C225 0.961 . S
O229 Co204 1.967 . S
O229 C237 1.258 . S
O230 Co205 1.941 . S
O230 C237 1.266 . S
H231 C233 0.959 . S
H232 C233 0.961 . S
C233 C223 1.540 . S
C233 H231 0.959 . S
C233 H232 0.961 . S
C233 H234 0.960 . S
H234 C233 0.960 . S
H235 N215 0.862 . S
O236 Co204 1.920 . S
O236 C209 1.289 . S
C237 O229 1.258 . S
C237 O230 1.266 . S
Co238 O241 1.970 . S
Co238 N255 1.989 . S
Co238 O263 1.967 . S
Co238 O270 1.920 . S
Co239 O242 1.966 . S
Co239 N248 2.022 . S
Co239 N256 1.993 . S
Co239 O264 1.941 . S
C240 O241 1.258 . S
C240 O242 1.263 . S
O241 Co238 1.970 . S
O241 C240 1.258 . S
O242 Co239 1.966 . S
O242 C240 1.263 . S
C243 O244 1.235 . S
C243 O270 1.289 . S
O244 C243 1.235 . S
C245 C247 1.400 . S
C245 N248 1.351 . S
C245 C250 1.501 . S
C246 C247 1.387 . S
C246 N249 1.341 . S
C247 C245 1.400 . S
C247 C246 1.387 . S
N248 Co239 2.022 . S
N248 C245 1.351 . S
N248 N249 1.365 . S
N249 C246 1.341 . S
N249 N248 1.365 . S
N249 H269 0.862 . S
C250 C245 1.501 . S
C250 H251 0.961 . S
C250 H252 0.961 . S
C250 H253 0.960 . S
H251 C250 0.961 . S
H252 C250 0.961 . S
H253 C250 0.960 . S
C254 N255 1.342 . S
C254 C258 1.401 . S
C254 C259 1.499 . S
N255 Co238 1.989 . S
N255 C254 1.342 . S
N255 N256 1.388 . S
N256 Co239 1.993 . S
N256 N255 1.388 . S
N256 C257 1.346 . S
C257 N256 1.346 . S
C257 C258 1.396 . S
C257 C267 1.510 . S
C258 C254 1.401 . S
C258 C257 1.396 . S
C259 C254 1.499 . S
C259 H260 0.959 . S
C259 H261 0.960 . S
C259 H262 0.961 . S
H260 C259 0.959 . S
H261 C259 0.960 . S
H262 C259 0.961 . S
O263 Co238 1.967 . S
O263 C271 1.258 . S
O264 Co239 1.941 . S
O264 C271 1.266 . S
H265 C267 0.959 . S
H266 C267 0.961 . S
C267 C257 1.510 . S
C267 H265 0.959 . S
C267 H266 0.961 . S
C267 H268 0.960 . S
H268 C267 0.960 . S
H269 N249 0.862 . S
O270 Co238 1.920 . S
O270 C243 1.289 . S
C271 O263 1.258 . S
C271 O264 1.266 . S
C272 C273 1.387 . S
C272 H276 0.950 . S
C272 C281 1.390 . S
C273 C272 1.387 . S
C273 C275 1.387 . S
H274 C281 0.950 . S
C275 C273 1.387 . S
C275 C277 1.390 . S
C275 H279 0.950 . S
H276 C272 0.950 . S
C277 C275 1.390 . S
C277 C278 1.387 . S
C277 H280 0.950 . S
C278 C277 1.387 . S
C278 C281 1.387 . S
H279 C275 0.950 . S
H280 C277 0.950 . S
C281 C272 1.390 . S
C281 H274 0.950 . S
C281 C278 1.387 . S
C282 C283 1.387 . S
C282 H286 0.950 . S
C282 C291 1.390 . S
C283 C282 1.387 . S
C283 C285 1.387 . S
H284 C291 0.950 . S
C285 C283 1.387 . S
C285 C287 1.390 . S
C285 H289 0.950 . S
H286 C282 0.950 . S
C287 C285 1.390 . S
C287 C288 1.387 . S
C287 H290 0.950 . S
C288 C287 1.387 . S
C288 C291 1.387 . S
H289 C285 0.950 . S
H290 C287 0.950 . S
C291 C282 1.390 . S
C291 H284 0.950 . S
C291 C288 1.387 . S
C292 C293 1.387 . S
C292 H296 0.950 . S
C292 C301 1.390 . S
C293 C292 1.387 . S
C293 C295 1.387 . S
H294 C301 0.950 . S
C295 C293 1.387 . S
C295 C297 1.390 . S
C295 H299 0.950 . S
H296 C292 0.950 . S
C297 C295 1.390 . S
C297 C298 1.387 . S
C297 H300 0.950 . S
C298 C297 1.387 . S
C298 C301 1.387 . S
H299 C295 0.950 . S
H300 C297 0.950 . S
C301 C292 1.390 . S
C301 H294 0.950 . S
C301 C298 1.387 . S
C302 C303 1.387 . S
C302 H306 0.950 . S
C302 C311 1.390 1_556 S
C303 C302 1.387 . S
C303 C305 1.387 . S
H304 C311 0.950 . S
C305 C303 1.387 . S
C305 C307 1.390 1_556 S
C305 H309 0.950 . S
H306 C302 0.950 . S
C307 C305 1.390 1_554 S
C307 C308 1.387 . S
C307 H310 0.950 . S
C308 C307 1.387 . S
C308 C311 1.387 . S
H309 C305 0.950 . S
H310 C307 0.950 . S
C311 C302 1.390 1_554 S
C311 H304 0.950 . S
C311 C308 1.387 . S
C312 C313 1.387 . S
C312 H316 0.950 . S
C312 C321 1.390 1_454 S
C313 C312 1.387 . S
C313 C315 1.387 . S
H314 C321 0.950 . S
C315 C313 1.387 . S
C315 C317 1.390 1_454 S
C315 H319 0.950 . S
H316 C312 0.950 . S
C317 C315 1.390 1_656 S
C317 C318 1.387 . S
C317 H320 0.950 . S
C318 C317 1.387 . S
C318 C321 1.387 . S
H319 C315 0.950 . S
H320 C317 0.950 . S
C321 C312 1.390 1_656 S
C321 H314 0.950 . S
C321 C318 1.387 . S
C322 C323 1.387 . S
C322 H326 0.950 . S
C322 C331 1.390 1_545 S
C323 C322 1.387 . S
C323 C325 1.387 . S
H324 C331 0.950 . S
C325 C323 1.387 . S
C325 C327 1.390 1_545 S
C325 H329 0.950 . S
H326 C322 0.950 . S
C327 C325 1.390 1_565 S
C327 C328 1.387 . S
C327 H330 0.950 . S
C328 C327 1.387 . S
C328 C331 1.387 . S
H329 C325 0.950 . S
H330 C327 0.950 . S
C331 C322 1.390 1_565 S
C331 H324 0.950 . S
C331 C328 1.387 . S
C332 C333 1.387 . S
C332 H336 0.950 . S
C332 C341 1.390 1_455 S
C333 C332 1.387 . S
C333 C335 1.387 . S
H334 C341 0.950 . S
C335 C333 1.387 . S
C335 C337 1.390 1_455 S
C335 H339 0.950 . S
H336 C332 0.950 . S
C337 C335 1.390 1_655 S
C337 C338 1.387 . S
C337 H340 0.950 . S
C338 C337 1.387 . S
C338 C341 1.387 . S
H339 C335 0.950 . S
H340 C337 0.950 . S
C341 C332 1.390 1_655 S
C341 H334 0.950 . S
C341 C338 1.387 . S
C342 C343 1.387 . S
C342 H346 0.950 . S
C342 C351 1.390 1_545 S
C343 C342 1.387 . S
C343 C345 1.387 . S
H344 C351 0.950 . S
C345 C343 1.387 . S
C345 C347 1.390 1_545 S
C345 H349 0.950 . S
H346 C342 0.950 . S
C347 C345 1.390 1_565 S
C347 C348 1.387 . S
C347 H350 0.950 . S
C348 C347 1.387 . S
C348 C351 1.387 . S
H349 C345 0.950 . S
H350 C347 0.950 . S
C351 C342 1.390 1_565 S
C351 H344 0.950 . S
C351 C348 1.387 . S
C352 C353 1.387 . S
C352 H356 0.950 . S
C352 C361 1.390 . S
C353 C352 1.387 . S
C353 C355 1.387 . S
H354 C361 0.950 . S
C355 C353 1.387 . S
C355 C357 1.390 . S
C355 H359 0.950 . S
H356 C352 0.950 . S
C357 C355 1.390 . S
C357 C358 1.387 . S
C357 H360 0.950 . S
C358 C357 1.387 . S
C358 C361 1.387 . S
H359 C355 0.950 . S
H360 C357 0.950 . S
C361 C352 1.390 . S
C361 H354 0.950 . S
C361 C358 1.387 . S
C362 C363 1.387 . S
C362 H366 0.950 . S
C362 C371 1.390 . S
C363 C362 1.387 . S
C363 C365 1.387 . S
H364 C371 0.950 . S
C365 C363 1.387 . S
C365 C367 1.390 . S
C365 H369 0.950 . S
H366 C362 0.950 . S
C367 C365 1.390 . S
C367 C368 1.387 . S
C367 H370 0.950 . S
C368 C367 1.387 . S
C368 C371 1.387 . S
H369 C365 0.950 . S
H370 C367 0.950 . S
C371 C362 1.390 . S
C371 H364 0.950 . S
C371 C368 1.387 . S
C372 C373 1.387 . S
C372 H376 0.950 . S
C372 C381 1.390 . S
C373 C372 1.387 . S
C373 C375 1.387 . S
H374 C381 0.950 . S
C375 C373 1.387 . S
C375 C377 1.390 . S
C375 H379 0.950 . S
H376 C372 0.950 . S
C377 C375 1.390 . S
C377 C378 1.387 . S
C377 H380 0.950 . S
C378 C377 1.387 . S
C378 C381 1.387 . S
H379 C375 0.950 . S
H380 C377 0.950 . S
C381 C372 1.390 . S
C381 H374 0.950 . S
C381 C378 1.387 . S
C382 C383 1.387 . S
C382 H386 0.950 . S
C382 C391 1.390 . S
C383 C382 1.387 . S
C383 C385 1.387 . S
H384 C391 0.950 . S
C385 C383 1.387 . S
C385 C387 1.390 . S
C385 H389 0.950 . S
H386 C382 0.950 . S
C387 C385 1.390 . S
C387 C388 1.387 . S
C387 H390 0.950 . S
C388 C387 1.387 . S
C388 C391 1.387 . S
H389 C385 0.950 . S
H390 C387 0.950 . S
C391 C382 1.390 . S
C391 H384 0.950 . S
C391 C388 1.387 . S
C392 C393 1.387 . S
C392 H396 0.950 . S
C392 C401 1.390 . S
C393 C392 1.387 . S
C393 C395 1.387 . S
H394 C401 0.950 . S
C395 C393 1.387 . S
C395 C397 1.390 . S
C395 H399 0.950 . S
H396 C392 0.950 . S
C397 C395 1.390 . S
C397 C398 1.387 . S
C397 H400 0.950 . S
C398 C397 1.387 . S
C398 C401 1.387 . S
H399 C395 0.950 . S
H400 C397 0.950 . S
C401 C392 1.390 . S
C401 H394 0.950 . S
C401 C398 1.387 . S
C402 C403 1.387 . S
C402 H406 0.950 . S
C402 C411 1.390 . S
C403 C402 1.387 . S
C403 C405 1.387 . S
H404 C411 0.950 . S
C405 C403 1.387 . S
C405 C407 1.390 . S
C405 H409 0.950 . S
H406 C402 0.950 . S
C407 C405 1.390 . S
C407 C408 1.387 . S
C407 H410 0.950 . S
C408 C407 1.387 . S
C408 C411 1.387 . S
H409 C405 0.950 . S
H410 C407 0.950 . S
C411 C402 1.390 . S
C411 H404 0.950 . S
C411 C408 1.387 . S
C412 C413 1.387 . S
C412 H416 0.950 . S
C412 C421 1.390 . S
C413 C412 1.387 . S
C413 C415 1.387 . S
H414 C421 0.950 . S
C415 C413 1.387 . S
C415 C417 1.390 . S
C415 H419 0.950 . S
H416 C412 0.950 . S
C417 C415 1.390 . S
C417 C418 1.387 . S
C417 H420 0.950 . S
C418 C417 1.387 . S
C418 C421 1.387 . S
H419 C415 0.950 . S
H420 C417 0.950 . S
C421 C412 1.390 . S
C421 H414 0.950 . S
C421 C418 1.387 . S
C422 C423 1.387 . S
C422 H426 0.950 . S
C422 C431 1.390 . S
C423 C422 1.387 . S
C423 C425 1.387 . S
H424 C431 0.950 . S
C425 C423 1.387 . S
C425 C427 1.390 . S
C425 H429 0.950 . S
H426 C422 0.950 . S
C427 C425 1.390 . S
C427 C428 1.387 . S
C427 H430 0.950 . S
C428 C427 1.387 . S
C428 C431 1.387 . S
H429 C425 0.950 . S
H430 C427 0.950 . S
C431 C422 1.390 . S
C431 H424 0.950 . S
C431 C428 1.387 . S
C432 C433 1.387 . S
C432 H436 0.950 . S
C432 C441 1.390 . S
C433 C432 1.387 . S
C433 C435 1.387 . S
H434 C441 0.950 . S
C435 C433 1.387 . S
C435 C437 1.390 . S
C435 H439 0.950 . S
H436 C432 0.950 . S
C437 C435 1.390 . S
C437 C438 1.387 . S
C437 H440 0.950 . S
C438 C437 1.387 . S
C438 C441 1.387 . S
H439 C435 0.950 . S
H440 C437 0.950 . S
C441 C432 1.390 . S
C441 H434 0.950 . S
C441 C438 1.387 . S
C442 C443 1.387 . S
C442 H446 0.950 . S
C442 C451 1.390 . S
C443 C442 1.387 . S
C443 C445 1.387 . S
H444 C451 0.950 . S
C445 C443 1.387 . S
C445 C447 1.390 . S
C445 H449 0.950 . S
H446 C442 0.950 . S
C447 C445 1.390 . S
C447 C448 1.387 . S
C447 H450 0.950 . S
C448 C447 1.387 . S
C448 C451 1.387 . S
H449 C445 0.950 . S
H450 C447 0.950 . S
C451 C442 1.390 . S
C451 H444 0.950 . S
C451 C448 1.387 . S
C452 C453 1.387 . S
C452 H456 0.950 . S
C452 C461 1.390 . S
C453 C452 1.387 . S
C453 C455 1.387 . S
H454 C461 0.950 . S
C455 C453 1.387 . S
C455 C457 1.390 . S
C455 H459 0.950 . S
H456 C452 0.950 . S
C457 C455 1.390 . S
C457 C458 1.387 . S
C457 H460 0.950 . S
C458 C457 1.387 . S
C458 C461 1.387 . S
H459 C455 0.950 . S
H460 C457 0.950 . S
C461 C452 1.390 . S
C461 H454 0.950 . S
C461 C458 1.387 . S
C462 C463 1.387 . S
C462 H466 0.950 . S
C462 C471 1.390 . S
C463 C462 1.387 . S
C463 C465 1.387 . S
H464 C471 0.950 . S
C465 C463 1.387 . S
C465 C467 1.390 . S
C465 H469 0.950 . S
H466 C462 0.950 . S
C467 C465 1.390 . S
C467 C468 1.387 . S
C467 H470 0.950 . S
C468 C467 1.387 . S
C468 C471 1.387 . S
H469 C465 0.950 . S
H470 C467 0.950 . S
C471 C462 1.390 . S
C471 H464 0.950 . S
C471 C468 1.387 . S
C273 C141 1.379 . S
C278 C5 1.379 . S
C283 C39 1.380 . S
C288 C175 1.380 . S
C293 C73 1.380 . S
C298 C209 1.380 . S
C303 C107 1.380 . S
C308 C243 1.380 . S
C313 C20 1.250 . S
C318 C224 1.250 . S
C323 C54 1.250 . S
C328 C258 1.250 . S
C333 C156 1.248 . S
C338 C88 1.248 . S
C343 C190 1.247 . S
C348 C122 1.247 . S
C353 C240 1.202 . S
C358 C2 1.202 . S
C363 C36 1.203 . S
C368 C138 1.203 . S
C373 C172 1.203 . S
C378 C70 1.203 . S
C383 C206 1.203 . S
C388 C104 1.203 . S
C393 C33 1.516 . S
C398 C43 1.503 . S
C403 C67 1.516 . S
C408 C77 1.502 . S
C413 C111 1.503 . S
C418 C101 1.516 . S
C423 C9 1.503 . S
C428 C135 1.515 . S
C433 C169 1.517 . S
C438 C247 1.501 . S
C443 C145 1.503 . S
C448 C203 1.515 . S
C453 C237 1.517 . S
C458 C179 1.501 . S
C463 C271 1.517 . S
C468 C213 1.501 . S
