# Generated by pormake.
# Topology pcb, (4)-cn, num edge types: 1
# Building blocks:
#     Node 0, Type 0, BuildingBlock: QUQFOY_clean_sbu_3, # of connection points: 4
#     Node 1, Type 0, BuildingBlock: QUQFOY_clean_sbu_3, # of connection points: 4
#     Node 2, Type 0, BuildingBlock: QUQFOY_clean_sbu_3, # of connection points: 4
#     Node 3, Type 0, BuildingBlock: QUQFOY_clean_sbu_3, # of connection points: 4
#     Node 4, Type 0, BuildingBlock: QUQFOY_clean_sbu_3, # of connection points: 4
#     Node 5, Type 0, BuildingBlock: QUQFOY_clean_sbu_3, # of connection points: 4
#     Node 6, Type 0, BuildingBlock: QUQFOY_clean_sbu_3, # of connection points: 4
#     Node 7, Type 0, BuildingBlock: QUQFOY_clean_sbu_3, # of connection points: 4
#     Node 8, Type 0, BuildingBlock: QUQFOY_clean_sbu_3, # of connection points: 4
#     Node 9, Type 0, BuildingBlock: QUQFOY_clean_sbu_3, # of connection points: 4
#     Node 10, Type 0, BuildingBlock: QUQFOY_clean_sbu_3, # of connection points: 4
#     Node 11, Type 0, BuildingBlock: QUQFOY_clean_sbu_3, # of connection points: 4
#     Node 12, Type 0, BuildingBlock: QUQFOY_clean_sbu_3, # of connection points: 4
#     Node 13, Type 0, BuildingBlock: QUQFOY_clean_sbu_3, # of connection points: 4
#     Node 14, Type 0, BuildingBlock: QUQFOY_clean_sbu_3, # of connection points: 4
#     Node 15, Type 0, BuildingBlock: QUQFOY_clean_sbu_3, # of connection points: 4
#     Edge 16, Type (0, 0), BuildingBlock: OJICUG_clean_linker_0, # of connection points: 2
#     Edge 17, Type (0, 0), BuildingBlock: OJICUG_clean_linker_0, # of connection points: 2
#     Edge 18, Type (0, 0), BuildingBlock: OJICUG_clean_linker_0, # of connection points: 2
#     Edge 19, Type (0, 0), BuildingBlock: OJICUG_clean_linker_0, # of connection points: 2
#     Edge 20, Type (0, 0), BuildingBlock: OJICUG_clean_linker_0, # of connection points: 2
#     Edge 21, Type (0, 0), BuildingBlock: OJICUG_clean_linker_0, # of connection points: 2
#     Edge 22, Type (0, 0), BuildingBlock: OJICUG_clean_linker_0, # of connection points: 2
#     Edge 23, Type (0, 0), BuildingBlock: OJICUG_clean_linker_0, # of connection points: 2
#     Edge 24, Type (0, 0), BuildingBlock: OJICUG_clean_linker_0, # of connection points: 2
#     Edge 25, Type (0, 0), BuildingBlock: OJICUG_clean_linker_0, # of connection points: 2
#     Edge 26, Type (0, 0), BuildingBlock: OJICUG_clean_linker_0, # of connection points: 2
#     Edge 27, Type (0, 0), BuildingBlock: OJICUG_clean_linker_0, # of connection points: 2
#     Edge 28, Type (0, 0), BuildingBlock: OJICUG_clean_linker_0, # of connection points: 2
#     Edge 29, Type (0, 0), BuildingBlock: OJICUG_clean_linker_0, # of connection points: 2
#     Edge 30, Type (0, 0), BuildingBlock: OJICUG_clean_linker_0, # of connection points: 2
#     Edge 31, Type (0, 0), BuildingBlock: OJICUG_clean_linker_0, # of connection points: 2
#     Edge 32, Type (0, 0), BuildingBlock: OJICUG_clean_linker_0, # of connection points: 2
#     Edge 33, Type (0, 0), BuildingBlock: OJICUG_clean_linker_0, # of connection points: 2
#     Edge 34, Type (0, 0), BuildingBlock: OJICUG_clean_linker_0, # of connection points: 2
#     Edge 35, Type (0, 0), BuildingBlock: OJICUG_clean_linker_0, # of connection points: 2
#     Edge 36, Type (0, 0), BuildingBlock: OJICUG_clean_linker_0, # of connection points: 2
#     Edge 37, Type (0, 0), BuildingBlock: OJICUG_clean_linker_0, # of connection points: 2
#     Edge 38, Type (0, 0), BuildingBlock: OJICUG_clean_linker_0, # of connection points: 2
#     Edge 39, Type (0, 0), BuildingBlock: OJICUG_clean_linker_0, # of connection points: 2
#     Edge 40, Type (0, 0), BuildingBlock: OJICUG_clean_linker_0, # of connection points: 2
#     Edge 41, Type (0, 0), BuildingBlock: OJICUG_clean_linker_0, # of connection points: 2
#     Edge 42, Type (0, 0), BuildingBlock: OJICUG_clean_linker_0, # of connection points: 2
#     Edge 43, Type (0, 0), BuildingBlock: OJICUG_clean_linker_0, # of connection points: 2
#     Edge 44, Type (0, 0), BuildingBlock: OJICUG_clean_linker_0, # of connection points: 2
#     Edge 45, Type (0, 0), BuildingBlock: OJICUG_clean_linker_0, # of connection points: 2
#     Edge 46, Type (0, 0), BuildingBlock: OJICUG_clean_linker_0, # of connection points: 2
#     Edge 47, Type (0, 0), BuildingBlock: OJICUG_clean_linker_0, # of connection points: 2
# Relax obj value: 0.312
# Max RMSD: 0.172
# Mean RMSD: 0.172
data_MOF--net-pcb--node1-QUQFOY_clean_sbu_3--edge1-OJICUG_clean_linker_0
_symmetry_space_group_name_H-M    P1
_symmetry_Int_Tables_number       1
_symmetry_cell_setting            triclinic
loop_
_symmetry_equiv_pos_as_xyz
'x, y, z'
_cell_length_a     30.138948
_cell_length_b     37.143581
_cell_length_c     36.983201
_cell_angle_alpha  90.082372
_cell_angle_beta   90.196997
_cell_angle_gamma 90.202079
loop_
_atom_site_label
_atom_site_type_symbol
_atom_site_fract_x
_atom_site_fract_y
_atom_site_fract_z
_atom_type_partial_charge
C0 C 0.08254 0.07808 0.15357 0.0
O1 O 0.09687 0.04851 0.141 0.0
Cd2 Cd 0.171 0.02847 0.13472 0.0
O3 O 0.10946 0.10179 0.16591 0.0
Cd4 Cd 0.19288 0.1039 0.17202 0.0
C5 C 0.20956 0.0981 0.08233 0.0
O6 O 0.20654 0.04324 0.18981 0.0
O7 O 0.26191 0.06798 0.16394 0.0
O8 O 0.20314 0.1304 0.23196 0.0
C9 C 0.24592 0.04005 0.17876 0.0
O10 O 0.20329 0.0643 0.08554 0.0
C11 C 0.22095 0.15907 0.22011 0.0
O12 O 0.20358 0.11934 0.10889 0.0
O13 O 0.22424 0.16234 0.18609 0.0
C14 C 0.90201 0.10627 0.11331 0.0
O15 O 0.88949 0.08571 0.08777 0.0
Cd16 Cd 0.825 0.09274 0.05136 0.0
O17 O 0.87799 0.13268 0.1233 0.0
Cd18 Cd 0.80132 0.15204 0.1048 0.0
C19 C 0.75448 0.07117 0.11818 0.0
O20 O 0.81895 0.15609 0.04159 0.0
O21 O 0.7494 0.15319 0.0522 0.0
O22 O 0.81851 0.21032 0.13234 0.0
C23 C 0.77999 0.15793 0.02926 0.0
O24 O 0.7652 0.06419 0.08567 0.0
C25 C 0.77945 0.21504 0.14422 0.0
O26 O 0.76807 0.09986 0.13338 0.0
O27 O 0.7509 0.19091 0.13711 0.0
C28 C 0.89226 0.89823 0.15015 0.0
O29 O 0.87731 0.92761 0.13763 0.0
Cd30 Cd 0.803 0.94804 0.13694 0.0
O31 O 0.86632 0.87582 0.1657 0.0
Cd32 Cd 0.78412 0.87602 0.17948 0.0
C33 C 0.76017 0.87549 0.09089 0.0
O34 O 0.77652 0.93794 0.19624 0.0
O35 O 0.71617 0.91406 0.17791 0.0
O36 O 0.79663 0.84552 0.23716 0.0
C37 C 0.73567 0.94193 0.18986 0.0
O38 O 0.76567 0.90952 0.09212 0.0
C39 C 0.76339 0.82469 0.23353 0.0
O40 O 0.76895 0.85587 0.11816 0.0
O41 O 0.74102 0.82724 0.20454 0.0
C42 C 0.07216 0.86463 0.10912 0.0
O43 O 0.08538 0.88193 0.08156 0.0
Cd44 Cd 0.15219 0.87506 0.04802 0.0
O45 O 0.09681 0.84087 0.12386 0.0
Cd46 Cd 0.1759 0.82345 0.11125 0.0
C47 C 0.22018 0.90739 0.11309 0.0
O48 O 0.16713 0.81215 0.04779 0.0
O49 O 0.23458 0.82041 0.06416 0.0
O50 O 0.17708 0.76105 0.13266 0.0
C51 C 0.20761 0.81162 0.03926 0.0
O52 O 0.20816 0.91083 0.08024 0.0
C53 C 0.20364 0.76787 0.15855 0.0
O54 O 0.20855 0.8799 0.1312 0.0
O55 O 0.21584 0.80029 0.16266 0.0
C56 C 0.0778 0.88324 0.8317 0.0
O57 O 0.0959 0.91201 0.84314 0.0
Cd58 Cd 0.172 0.92771 0.84355 0.0
O59 O 0.10126 0.8585 0.81726 0.0
Cd60 Cd 0.18361 0.85355 0.80472 0.0
C61 C 0.20688 0.85523 0.89307 0.0
O62 O 0.19804 0.91393 0.78486 0.0
O63 O 0.25445 0.88814 0.80781 0.0
O64 O 0.17179 0.82084 0.74789 0.0
C65 C 0.23862 0.91613 0.79319 0.0
O66 O 0.20542 0.88939 0.89019 0.0
C67 C 0.20352 0.79911 0.75358 0.0
O68 O 0.1956 0.83498 0.8668 0.0
O69 O 0.22424 0.80204 0.78334 0.0
C70 C 0.09079 0.09994 0.85694 0.0
O71 O 0.10084 0.08068 0.88407 0.0
Cd72 Cd 0.16521 0.084 0.92138 0.0
O73 O 0.11773 0.12367 0.84502 0.0
Cd74 Cd 0.19667 0.13693 0.86231 0.0
C75 C 0.23202 0.05096 0.85708 0.0
O76 O 0.18367 0.14627 0.92547 0.0
O77 O 0.25148 0.13503 0.91294 0.0
O78 O 0.2001 0.19933 0.84125 0.0
C79 C 0.22321 0.14425 0.9365 0.0
O80 O 0.22005 0.04729 0.88984 0.0
C81 C 0.2298 0.19288 0.81783 0.0
O82 O 0.22286 0.07952 0.83978 0.0
O83 O 0.24361 0.16079 0.81544 0.0
C84 C 0.90993 0.07644 0.81435 0.0
O85 O 0.89339 0.04793 0.82768 0.0
Cd86 Cd 0.81782 0.03162 0.83492 0.0
O87 O 0.8849 0.10089 0.80127 0.0
Cd88 Cd 0.80217 0.10712 0.79473 0.0
C89 C 0.7874 0.10556 0.88488 0.0
O90 O 0.78258 0.04657 0.77992 0.0
O91 O 0.72966 0.07604 0.80394 0.0
O92 O 0.79551 0.13265 0.73404 0.0
C93 C 0.74302 0.04634 0.79106 0.0
O94 O 0.79016 0.07136 0.88294 0.0
C95 C 0.78079 0.16267 0.7452 0.0
O96 O 0.79466 0.12531 0.85743 0.0
O97 O 0.77697 0.16676 0.7791 0.0
C98 C 0.89491 0.86467 0.87391 0.0
O99 O 0.88385 0.88454 0.90035 0.0
Cd100 Cd 0.8164 0.8844 0.93374 0.0
O101 O 0.86757 0.84186 0.8606 0.0
Cd102 Cd 0.78694 0.83027 0.8741 0.0
C103 C 0.75317 0.91684 0.86588 0.0
O104 O 0.79511 0.8227 0.93816 0.0
O105 O 0.72835 0.83317 0.92145 0.0
O106 O 0.78308 0.76713 0.85477 0.0
C107 C 0.75475 0.82471 0.9468 0.0
O108 O 0.76513 0.92168 0.89859 0.0
C109 C 0.75547 0.77336 0.82951 0.0
O110 O 0.76153 0.88736 0.84985 0.0
O111 O 0.74328 0.80569 0.8252 0.0
C112 C 0.56846 0.57076 0.66321 0.0
O113 O 0.58664 0.54297 0.64988 0.0
Cd114 Cd 0.66334 0.52959 0.64376 0.0
O115 O 0.59206 0.5961 0.67671 0.0
Cd116 Cd 0.67421 0.60588 0.68415 0.0
C117 C 0.6923 0.60436 0.59433 0.0
O118 O 0.69715 0.54624 0.69897 0.0
O119 O 0.74884 0.57856 0.67651 0.0
O120 O 0.67947 0.63115 0.74503 0.0
C121 C 0.73711 0.54818 0.68892 0.0
O122 O 0.69083 0.5701 0.59631 0.0
C123 C 0.69257 0.66182 0.73421 0.0
O124 O 0.68314 0.62401 0.62151 0.0
O125 O 0.69555 0.66652 0.70033 0.0
C126 C 0.38802 0.58989 0.61795 0.0
O127 O 0.37934 0.57094 0.5902 0.0
Cd128 Cd 0.31707 0.57722 0.55119 0.0
O129 O 0.36099 0.614 0.62874 0.0
Cd130 Cd 0.28442 0.63199 0.60842 0.0
C131 C 0.24354 0.54774 0.61323 0.0
O132 O 0.3065 0.6407 0.54679 0.0
O133 O 0.23635 0.63612 0.55367 0.0
O134 O 0.2974 0.68844 0.64057 0.0
C135 C 0.26849 0.64254 0.53263 0.0
O136 O 0.25809 0.54331 0.58125 0.0
C137 C 0.25762 0.69137 0.65139 0.0
O138 O 0.25256 0.57634 0.63071 0.0
O139 O 0.23042 0.66709 0.64165 0.0
C140 C 0.41021 0.39255 0.64615 0.0
O141 O 0.39191 0.42088 0.6341 0.0
Cd142 Cd 0.31492 0.43476 0.63069 0.0
O143 O 0.3868 0.36729 0.65979 0.0
Cd144 Cd 0.30503 0.35802 0.66934 0.0
C145 C 0.2842 0.3613 0.57976 0.0
O146 O 0.28339 0.41727 0.68642 0.0
O147 O 0.23018 0.38567 0.66479 0.0
O148 O 0.30388 0.33303 0.73014 0.0
C149 C 0.24271 0.41549 0.67818 0.0
O150 O 0.2862 0.3955 0.58248 0.0
C151 C 0.28987 0.30235 0.71999 0.0
O152 O 0.29342 0.34113 0.60654 0.0
O153 O 0.28449 0.29738 0.6863 0.0
C154 C 0.59249 0.37205 0.60419 0.0
O155 O 0.60432 0.39132 0.57754 0.0
Cd156 Cd 0.6721 0.38884 0.54457 0.0
O157 O 0.61876 0.34864 0.61754 0.0
Cd158 Cd 0.69849 0.33388 0.60464 0.0
C159 C 0.73558 0.41979 0.61327 0.0
O160 O 0.69084 0.32664 0.54054 0.0
O161 O 0.75795 0.33474 0.55804 0.0
O162 O 0.69774 0.27068 0.62381 0.0
C163 C 0.73144 0.32729 0.53237 0.0
O164 O 0.72406 0.42498 0.58054 0.0
C165 C 0.72488 0.27592 0.64967 0.0
O166 O 0.72627 0.39032 0.62899 0.0
O167 O 0.7391 0.30776 0.65429 0.0
C168 C 0.60254 0.40039 0.32541 0.0
O169 O 0.61728 0.42993 0.33801 0.0
Cd170 Cd 0.69193 0.44996 0.34077 0.0
O171 O 0.62887 0.37775 0.31083 0.0
Cd172 Cd 0.71146 0.37739 0.29888 0.0
C173 C 0.73163 0.37723 0.38803 0.0
O174 O 0.721 0.4392 0.28243 0.0
O175 O 0.78025 0.41468 0.30177 0.0
O176 O 0.69973 0.34674 0.24113 0.0
C177 C 0.76174 0.44277 0.28964 0.0
O178 O 0.72656 0.41126 0.38662 0.0
C179 C 0.73242 0.32564 0.24533 0.0
O180 O 0.72386 0.35749 0.36055 0.0
O181 O 0.75423 0.32817 0.27462 0.0
C182 C 0.59379 0.60445 0.36037 0.0
O183 O 0.60475 0.58359 0.38603 0.0
Cd184 Cd 0.66639 0.59112 0.42559 0.0
O185 O 0.61812 0.63136 0.35205 0.0
Cd186 Cd 0.69314 0.65163 0.37408 0.0
C187 C 0.74157 0.57126 0.36183 0.0
O188 O 0.67058 0.65451 0.43625 0.0
O189 O 0.74092 0.65388 0.42928 0.0
O190 O 0.67631 0.7096 0.3463 0.0
C191 C 0.7084 0.65739 0.45062 0.0
O192 O 0.72874 0.56373 0.3937 0.0
C193 C 0.71577 0.71508 0.33561 0.0
O194 O 0.72887 0.60006 0.34656 0.0
O195 O 0.74452 0.69158 0.34372 0.0
C196 C 0.41523 0.57625 0.3152 0.0
O197 O 0.40047 0.54666 0.32751 0.0
Cd198 Cd 0.326 0.52701 0.33403 0.0
O199 O 0.38867 0.60018 0.30315 0.0
Cd200 Cd 0.30542 0.60284 0.29731 0.0
C201 C 0.28943 0.59698 0.38686 0.0
O202 O 0.28983 0.5423 0.27952 0.0
O203 O 0.23555 0.56791 0.30583 0.0
O204 O 0.29463 0.62986 0.23783 0.0
C205 C 0.25054 0.53967 0.291 0.0
O206 O 0.29461 0.56309 0.3834 0.0
C207 C 0.27741 0.65846 0.25027 0.0
O208 O 0.29602 0.61828 0.3605 0.0
O209 O 0.27491 0.66149 0.28437 0.0
C210 C 0.42187 0.36667 0.36429 0.0
O211 O 0.40841 0.38439 0.39151 0.0
Cd212 Cd 0.34145 0.37762 0.42493 0.0
O213 O 0.39741 0.34245 0.34981 0.0
Cd214 Cd 0.31821 0.32462 0.36205 0.0
C215 C 0.27405 0.40837 0.35896 0.0
O216 O 0.32639 0.31467 0.42576 0.0
O217 O 0.25908 0.32213 0.40884 0.0
O218 O 0.31702 0.26193 0.34088 0.0
C219 C 0.28585 0.31424 0.43412 0.0
O220 O 0.28579 0.41246 0.39181 0.0
C221 C 0.29115 0.26856 0.31453 0.0
O222 O 0.2858 0.38061 0.34133 0.0
O223 O 0.27911 0.30092 0.31026 0.0
C224 C 0.2605 0.24894 0.25519 0.0
C225 C 0.2745 0.24013 0.29031 0.0
H226 H 0.23294 0.22994 0.20529 0.0
C227 C 0.2705 0.20447 0.30241 0.0
H228 H 0.26325 0.27629 0.24525 0.0
C229 C 0.25205 0.17813 0.27985 0.0
C230 C 0.23843 0.18696 0.24461 0.0
H231 H 0.28076 0.19713 0.32951 0.0
H232 H 0.24908 0.1508 0.28975 0.0
C233 C 0.24314 0.22249 0.23237 0.0
C234 C 0.78901 0.28776 0.21483 0.0
C235 C 0.74481 0.29925 0.21757 0.0
H236 H 0.83488 0.25262 0.18846 0.0
C237 C 0.7126 0.28465 0.19428 0.0
H238 H 0.81448 0.2989 0.23235 0.0
C239 C 0.7241 0.2577 0.16972 0.0
C240 C 0.76818 0.24576 0.16744 0.0
H241 H 0.67832 0.29316 0.19592 0.0
H242 H 0.69846 0.2459 0.15282 0.0
C243 C 0.80073 0.26155 0.1896 0.0
C244 C 0.70667 0.78705 0.26445 0.0
C245 C 0.75092 0.79862 0.26159 0.0
H246 H 0.66062 0.75211 0.29107 0.0
C247 C 0.78303 0.78443 0.28509 0.0
H248 H 0.68125 0.79788 0.24681 0.0
C249 C 0.77137 0.75778 0.30994 0.0
C250 C 0.72725 0.74571 0.31228 0.0
H251 H 0.81735 0.79301 0.28339 0.0
H252 H 0.79695 0.74627 0.32697 0.0
C253 C 0.69481 0.76112 0.28991 0.0
C254 C 0.24435 0.67765 0.19146 0.0
C255 C 0.2593 0.68641 0.2264 0.0
H256 H 0.21362 0.69665 0.14275 0.0
C257 C 0.25495 0.72183 0.23907 0.0
H258 H 0.24698 0.65038 0.18127 0.0
C259 C 0.23657 0.74826 0.21696 0.0
C260 C 0.2212 0.73948 0.18217 0.0
H261 H 0.26615 0.7292 0.26596 0.0
H262 H 0.23411 0.77552 0.22719 0.0
C263 C 0.2249 0.70394 0.16964 0.0
C264 C 0.27507 0.73596 0.69961 0.0
C265 C 0.24403 0.72045 0.6759 0.0
H266 H 0.28608 0.77257 0.74346 0.0
C267 C 0.19954 0.73155 0.67722 0.0
H268 H 0.3095 0.72767 0.69924 0.0
C269 C 0.1863 0.7578 0.70201 0.0
C270 C 0.21714 0.77241 0.72649 0.0
H271 H 0.17503 0.71993 0.65912 0.0
H272 H 0.15185 0.76599 0.70264 0.0
C273 C 0.26161 0.76138 0.72504 0.0
C274 C 0.24613 0.25735 0.80401 0.0
C275 C 0.24695 0.22099 0.79368 0.0
H276 H 0.26053 0.3118 0.78883 0.0
C277 C 0.26403 0.21147 0.75973 0.0
H278 H 0.23334 0.26526 0.83017 0.0
C279 C 0.27868 0.23799 0.73593 0.0
C280 C 0.27763 0.27435 0.74612 0.0
H281 H 0.26495 0.18358 0.75116 0.0
H282 H 0.29063 0.23008 0.7095 0.0
C283 C 0.26195 0.28384 0.78054 0.0
C284 C 0.75353 0.18331 0.68482 0.0
C285 C 0.7677 0.19144 0.72013 0.0
H286 H 0.72767 0.20388 0.63485 0.0
C287 C 0.7678 0.22735 0.73193 0.0
H288 H 0.7529 0.15573 0.67523 0.0
C289 C 0.75424 0.25476 0.70876 0.0
C290 C 0.73929 0.24666 0.67369 0.0
H291 H 0.77862 0.23429 0.75903 0.0
H292 H 0.75482 0.28228 0.71852 0.0
C293 C 0.73885 0.21072 0.66188 0.0
C294 C 0.73838 0.70858 0.8171 0.0
C295 C 0.73835 0.74464 0.80581 0.0
H296 H 0.72258 0.6539 0.80337 0.0
C297 C 0.72148 0.75336 0.7715 0.0
H298 H 0.75096 0.70126 0.84355 0.0
C299 C 0.70599 0.72638 0.74844 0.0
C300 C 0.70611 0.69031 0.75961 0.0
H301 H 0.7211 0.78098 0.76215 0.0
H302 H 0.69403 0.73374 0.72181 0.0
C303 C 0.72185 0.68161 0.79429 0.0
C304 C 0.20981 0.15896 0.00088 0.0
C305 C 0.23054 0.1371 0.97506 0.0
H306 H 0.18782 0.16396 0.05562 0.0
C307 C 0.24918 0.10421 0.98578 0.0
H308 H 0.19464 0.18417 -0.00704 0.0
C309 C 0.24393 0.09204 0.02125 0.0
C310 C 0.22093 0.11301 0.04662 0.0
H311 H 0.26453 0.08659 0.96611 0.0
H312 H 0.25632 0.06565 0.02845 0.0
C313 C 0.20567 0.14726 0.03658 0.0
C314 C 0.75238 0.10496 0.94594 0.0
C315 C 0.77875 0.12254 0.92014 0.0
H316 H 0.7305 0.10368 0.00098 0.0
C317 C 0.79978 0.15511 0.92933 0.0
H318 H 0.73566 0.07991 0.93937 0.0
C319 C 0.7975 0.16829 0.96465 0.0
C320 C 0.77288 0.14979 -0.00914 0.0
H321 H 0.82039 0.1691 0.9099 0.0
H322 H 0.81668 0.19196 0.97195 0.0
C323 C 0.74898 0.11878 0.98097 0.0
C324 C 0.72333 0.86478 -0.00612 0.0
C325 C 0.74413 0.83228 0.98475 0.0
H326 H 0.71261 0.90435 0.03514 0.0
C327 C 0.7639 0.81154 0.01201 0.0
H328 H 0.70851 0.8815 0.97315 0.0
C329 C 0.76563 0.82427 0.04752 0.0
C330 C 0.74881 0.85848 0.05599 0.0
H331 H 0.78054 0.78658 0.00538 0.0
H332 H 0.78333 0.80866 0.06761 0.0
C333 C 0.72611 0.87801 0.02922 0.0
C334 C 0.19686 0.7957 0.9748 0.0
C335 C 0.21893 0.81645 0.00102 0.0
H336 H 0.17678 0.79136 0.91943 0.0
C337 C 0.24316 0.84694 -0.00967 0.0
H338 H 0.17762 0.77229 0.98262 0.0
C339 C 0.24158 0.85852 0.95443 0.0
C340 C 0.2166 0.83927 0.92867 0.0
H341 H 0.25988 0.86366 0.01022 0.0
H342 H 0.25786 0.88355 0.94725 0.0
C343 C 0.19625 0.80673 0.93874 0.0
C344 C 0.01708 0.12044 0.15299 0.0
C345 C 0.03436 0.08538 0.15027 0.0
H346 H 0.96082 0.15477 0.14359 0.0
C347 C 0.00573 0.05711 0.14015 0.0
H348 H 0.03826 0.14277 0.1608 0.0
C349 C 0.96208 0.064 0.13009 0.0
C350 C 0.9456 0.09926 0.13025 0.0
H351 H 0.01755 0.02966 0.13834 0.0
H352 H 0.94162 0.04172 0.12088 0.0
C353 C 0.97283 0.12732 0.14316 0.0
C354 C 0.73765 0.00819 0.19582 0.0
C355 C 0.7215 0.97771 0.17755 0.0
H356 H 0.75978 0.06267 0.19119 0.0
C357 C 0.70527 0.98145 0.14208 0.0
H358 H 0.75043 0.00588 0.22314 0.0
C359 C 0.71195 0.0136 0.12332 0.0
C360 C 0.73379 0.0426 0.14017 0.0
H361 H 0.69282 0.95832 0.12726 0.0
H362 H 0.70365 0.01464 0.09482 0.0
C363 C 0.74329 0.04062 0.17735 0.0
C364 C 0.96674 0.91564 0.12692 0.0
C365 C 0.93979 0.88984 0.14399 0.0
H366 H 0.02912 0.92782 0.10288 0.0
C367 C 0.95815 0.85605 0.15248 0.0
H368 H 0.95418 0.94212 0.1203 0.0
C369 C 0.00202 0.8479 0.14259 0.0
C370 C 0.0278 0.87329 0.12374 0.0
H371 H 0.93832 0.83562 0.16572 0.0
H372 H 0.01507 0.82138 0.14836 0.0
C373 C 0.00992 0.90742 0.1168 0.0
C374 C 0.2689 -0.00046 0.12903 0.0
C375 C 0.25895 0.00415 0.16586 0.0
H376 H 0.26347 0.96485 0.08292 0.0
C377 C 0.24684 0.97403 0.18646 0.0
H378 H 0.27819 0.02235 0.11244 0.0
C379 C 0.23877 0.94101 0.16961 0.0
C380 C 0.24193 0.93791 0.13181 0.0
H381 H 0.23892 0.97699 0.21487 0.0
H382 H 0.22567 0.91913 0.18576 0.0
C383 C 0.25985 0.96671 0.112 0.0
C384 C 0.96144 0.90259 0.8633 0.0
C385 C 0.93997 0.86931 0.85879 0.0
H386 H 0.0207 0.93317 0.8576 0.0
C387 C 0.96292 0.84098 0.84193 0.0
H388 H 0.94448 0.92515 0.87561 0.0
C389 C 0.00753 0.84548 0.83171 0.0
C390 C 0.02947 0.87848 0.83788 0.0
H391 H 0.94706 0.81505 0.83805 0.0
H392 H 0.02513 0.82288 0.82014 0.0
C393 C 0.00534 0.90717 0.85284 0.0
C394 C 0.24287 0.98196 0.78375 0.0
C395 C 0.25542 0.95177 0.80404 0.0
H396 H 0.22666 0.03787 0.78476 0.0
C397 C 0.27103 0.95667 0.83959 0.0
H398 H 0.23065 0.97878 0.75634 0.0
C399 C 0.26733 -0.00976 0.85632 0.0
C400 C 0.24922 0.01945 0.83735 0.0
H401 H 0.28075 0.93382 0.85594 0.0
H402 H 0.27513 -0.00744 0.88485 0.0
C403 C 0.24028 0.01572 0.80019 0.0
C404 C 0.02227 0.12217 0.82485 0.0
C405 C 0.0472 0.09384 0.83966 0.0
H406 H 0.9585 0.13902 0.80503 0.0
C407 C 0.02852 0.05924 0.841 0.0
H408 H 0.03607 0.14909 0.82344 0.0
C409 C 0.98487 0.05338 0.83017 0.0
C410 C 0.95843 0.08209 0.81814 0.0
H411 H 0.04726 0.03674 0.85165 0.0
H412 H 0.97127 0.02649 0.83294 0.0
C413 C 0.97798 0.11637 0.8143 0.0
C414 C 0.74003 0.94784 0.80701 0.0
C415 C 0.73563 0.9475 0.84485 0.0
H416 H 0.7447 0.98052 0.75954 0.0
C417 C 0.72073 0.97873 0.86245 0.0
H418 H 0.75094 0.9241 0.79255 0.0
C419 C 0.7157 0.01081 0.8432 0.0
C420 C 0.72667 0.01222 0.80631 0.0
H421 H 0.7163 0.97909 0.89151 0.0
H422 H 0.70859 0.03523 0.85813 0.0
C423 C 0.73599 0.98007 0.78794 0.0
C424 C 0.73673 0.61869 0.50012 0.0
C425 C 0.71271 0.64914 0.48924 0.0
H426 H 0.74824 0.58006 0.54212 0.0
C427 C 0.68554 0.66683 0.51426 0.0
H428 H 0.75717 0.60419 0.48098 0.0
C429 C 0.68104 0.65345 0.54934 0.0
C430 C 0.70243 0.62144 0.5594 0.0
H431 H 0.66621 0.69002 0.50615 0.0
H432 H 0.65865 0.66684 0.56781 0.0
C433 C 0.73116 0.60465 0.53484 0.0
C434 C 0.28994 0.65644 0.46952 0.0
C435 C 0.26468 0.63583 0.49368 0.0
H436 H 0.31668 0.66055 0.41609 0.0
C437 C 0.24383 0.60421 0.48145 0.0
H438 H 0.30688 0.68057 0.47869 0.0
C439 C 0.25079 0.59203 0.44618 0.0
C440 C 0.27771 0.61182 0.42246 0.0
H441 H 0.22501 0.5875 0.4999 0.0
H442 H 0.23629 0.56661 0.43781 0.0
C443 C 0.29575 0.64485 0.43391 0.0
C444 C 0.25087 0.35157 0.48178 0.0
C445 C 0.27429 0.32041 0.47213 0.0
H446 H 0.2362 0.38938 0.52386 0.0
C447 C 0.29532 0.30012 0.4991 0.0
H448 H 0.23506 0.36798 0.46128 0.0
C449 C 0.29542 0.31202 0.53492 0.0
C450 C 0.27566 0.345 0.54402 0.0
H451 H 0.314 0.27625 0.49208 0.0
H452 H 0.31391 0.29683 0.55487 0.0
C453 C 0.25199 0.36401 0.51745 0.0
C454 C 0.72312 0.32648 0.43147 0.0
C455 C 0.74129 0.36035 0.42323 0.0
H456 H 0.70581 0.28929 0.47344 0.0
C457 C 0.76379 0.37973 0.45036 0.0
H458 H 0.7055 0.31102 0.41109 0.0
C459 C 0.76518 0.36667 0.48577 0.0
C460 C 0.74316 0.33453 0.49459 0.0
H461 H 0.77829 0.40582 0.4446 0.0
H462 H 0.77995 0.38329 0.50672 0.0
C463 C 0.72343 0.31394 0.46704 0.0
C464 C 0.49863 0.60811 0.66369 0.0
C465 C 0.51978 0.57472 0.65884 0.0
H466 H 0.43952 0.6392 0.65477 0.0
C467 C 0.49486 0.54554 0.64536 0.0
H468 H 0.51686 0.63108 0.67412 0.0
C469 C 0.45118 0.55029 0.63407 0.0
C470 C 0.43101 0.5842 0.63635 0.0
H471 H 0.50972 0.51927 0.64177 0.0
H472 H 0.4337 0.5276 0.62219 0.0
C473 C 0.45439 0.61278 0.65265 0.0
C474 C 0.23003 0.51394 0.67022 0.0
C475 C 0.22477 0.51646 0.63252 0.0
H476 H 0.23907 0.47838 0.71511 0.0
C477 C 0.21067 0.48593 0.6131 0.0
H478 H 0.24035 0.53709 0.68605 0.0
C479 C 0.20857 0.45243 0.63013 0.0
C480 C 0.22164 0.44912 0.66647 0.0
H481 H 0.20561 0.48723 0.58412 0.0
H482 H 0.20281 0.42874 0.61362 0.0
C483 C 0.22896 0.48035 0.68703 0.0
C484 C 0.52679 0.41102 0.6141 0.0
C485 C 0.5477 0.37772 0.61938 0.0
H486 H 0.4679 0.44205 0.61925 0.0
C487 C 0.5245 0.35014 0.63729 0.0
H488 H 0.54402 0.43306 0.60099 0.0
C489 C 0.48015 0.3552 0.64764 0.0
C490 C 0.45862 0.38806 0.64059 0.0
H491 H 0.53992 0.32424 0.64185 0.0
H492 H 0.46233 0.33301 0.6599 0.0
C493 C 0.48303 0.4162 0.62474 0.0
C494 C 0.74891 0.48248 0.69206 0.0
C495 C 0.75663 0.5151 0.67406 0.0
H496 H 0.73718 0.42602 0.68674 0.0
C497 C 0.76905 0.51439 0.63746 0.0
H498 H 0.73927 0.4824 0.72027 0.0
C499 C 0.76647 0.48225 0.61787 0.0
C500 C 0.75254 0.45039 0.63491 0.0
H501 H 0.77512 0.53918 0.62285 0.0
H502 H 0.77154 0.48303 0.5889 0.0
C503 C 0.74731 0.45024 0.67268 0.0
C504 C 0.48379 0.40994 0.35575 0.0
C505 C 0.46633 0.37536 0.34979 0.0
H506 H 0.53946 0.44503 0.35201 0.0
C507 C 0.49271 0.34955 0.33227 0.0
H508 H 0.46408 0.43064 0.36861 0.0
C509 C 0.53679 0.35775 0.32288 0.0
C510 C 0.55477 0.39199 0.33055 0.0
H511 H 0.47999 0.32269 0.32728 0.0
H512 H 0.55711 0.337 0.3108 0.0
C513 C 0.52719 0.4182 0.34611 0.0
C514 C 0.79101 0.48176 0.33853 0.0
C515 C 0.7763 0.47835 0.30257 0.0
H516 H 0.79087 0.51458 0.38616 0.0
C517 C 0.76164 0.50906 0.2841 0.0
H518 H 0.80231 0.45845 0.35349 0.0
C519 C 0.75569 0.54139 0.30271 0.0
C520 C 0.76337 0.54303 0.3402 0.0
H521 H 0.75006 0.50701 0.25639 0.0
H522 H 0.74019 0.56361 0.28861 0.0
C523 C 0.78399 0.51382 0.3574 0.0
C524 C 0.53501 0.56207 0.34012 0.0
C525 C 0.55131 0.59746 0.34158 0.0
H526 H 0.47987 0.52762 0.32954 0.0
C527 C 0.52455 0.62567 0.32876 0.0
H528 H 0.55516 0.53972 0.34923 0.0
C529 C 0.48072 0.61877 0.31766 0.0
C530 C 0.4634 0.58355 0.319 0.0
H531 H 0.53644 0.65321 0.32956 0.0
H532 H 0.45975 0.64118 0.31014 0.0
C533 C 0.49175 0.55517 0.32878 0.0
C534 C 0.23491 0.46769 0.35886 0.0
C535 C 0.25263 0.43847 0.33962 0.0
H536 H 0.21732 0.52335 0.35743 0.0
C537 C 0.25604 0.44081 0.30179 0.0
H538 H 0.23107 0.46641 0.38795 0.0
C539 C 0.24853 0.47353 0.28435 0.0
C540 C 0.23678 0.50409 0.30441 0.0
H541 H 0.26894 0.41858 0.28607 0.0
H542 H 0.25668 0.47589 0.25593 0.0
C543 C 0.22643 0.50021 0.34125 0.0
loop_
_geom_bond_atom_site_label_1
_geom_bond_atom_site_label_2
_geom_bond_distance
_geom_bond_site_symmetry_2
_ccdc_geom_bond_type
C0 O1 1.306 . S
C0 O3 1.160 . S
O1 C0 1.306 . S
O1 Cd2 2.228 . S
Cd2 O1 2.228 . S
Cd2 O6 2.273 . S
Cd2 O10 2.277 . S
O3 C0 1.160 . S
O3 Cd4 2.203 . S
Cd4 O3 2.203 . S
Cd4 O6 2.411 . S
Cd4 O7 2.333 . S
Cd4 O8 2.352 . S
Cd4 O12 2.277 . S
Cd4 O13 2.356 . S
C5 O10 1.209 . S
C5 O12 1.226 . S
O6 Cd2 2.273 . S
O6 Cd4 2.411 . S
O6 C9 1.320 . S
O7 Cd4 2.333 . S
O7 C9 1.214 . S
O8 Cd4 2.352 . S
O8 C11 1.258 . S
C9 O6 1.320 . S
C9 O7 1.214 . S
O10 Cd2 2.277 . S
O10 C5 1.209 . S
C11 O8 1.258 . S
C11 O13 1.282 . S
O12 Cd4 2.277 . S
O12 C5 1.226 . S
O13 Cd4 2.356 . S
O13 C11 1.282 . S
C14 O15 1.306 . S
C14 O17 1.160 . S
O15 C14 1.306 . S
O15 Cd16 2.228 . S
Cd16 O15 2.228 . S
Cd16 O20 2.273 . S
Cd16 O24 2.277 . S
O17 C14 1.160 . S
O17 Cd18 2.203 . S
Cd18 O17 2.203 . S
Cd18 O20 2.411 . S
Cd18 O21 2.333 . S
Cd18 O22 2.352 . S
Cd18 O26 2.277 . S
Cd18 O27 2.356 . S
C19 O24 1.209 . S
C19 O26 1.226 . S
O20 Cd16 2.273 . S
O20 Cd18 2.411 . S
O20 C23 1.320 . S
O21 Cd18 2.333 . S
O21 C23 1.214 . S
O22 Cd18 2.352 . S
O22 C25 1.258 . S
C23 O20 1.320 . S
C23 O21 1.214 . S
O24 Cd16 2.277 . S
O24 C19 1.209 . S
C25 O22 1.258 . S
C25 O27 1.282 . S
O26 Cd18 2.277 . S
O26 C19 1.226 . S
O27 Cd18 2.356 . S
O27 C25 1.282 . S
C28 O29 1.306 . S
C28 O31 1.160 . S
O29 C28 1.306 . S
O29 Cd30 2.228 . S
Cd30 O29 2.228 . S
Cd30 O34 2.273 . S
Cd30 O38 2.277 . S
O31 C28 1.160 . S
O31 Cd32 2.203 . S
Cd32 O31 2.203 . S
Cd32 O34 2.411 . S
Cd32 O35 2.333 . S
Cd32 O36 2.352 . S
Cd32 O40 2.277 . S
Cd32 O41 2.356 . S
C33 O38 1.209 . S
C33 O40 1.226 . S
O34 Cd30 2.273 . S
O34 Cd32 2.411 . S
O34 C37 1.320 . S
O35 Cd32 2.333 . S
O35 C37 1.214 . S
O36 Cd32 2.352 . S
O36 C39 1.258 . S
C37 O34 1.320 . S
C37 O35 1.214 . S
O38 Cd30 2.277 . S
O38 C33 1.209 . S
C39 O36 1.258 . S
C39 O41 1.282 . S
O40 Cd32 2.277 . S
O40 C33 1.226 . S
O41 Cd32 2.356 . S
O41 C39 1.282 . S
C42 O43 1.306 . S
C42 O45 1.160 . S
O43 C42 1.306 . S
O43 Cd44 2.228 . S
Cd44 O43 2.228 . S
Cd44 O48 2.273 . S
Cd44 O52 2.277 . S
O45 C42 1.160 . S
O45 Cd46 2.203 . S
Cd46 O45 2.203 . S
Cd46 O48 2.411 . S
Cd46 O49 2.333 . S
Cd46 O50 2.352 . S
Cd46 O54 2.277 . S
Cd46 O55 2.356 . S
C47 O52 1.209 . S
C47 O54 1.226 . S
O48 Cd44 2.273 . S
O48 Cd46 2.411 . S
O48 C51 1.320 . S
O49 Cd46 2.333 . S
O49 C51 1.214 . S
O50 Cd46 2.352 . S
O50 C53 1.258 . S
C51 O48 1.320 . S
C51 O49 1.214 . S
O52 Cd44 2.277 . S
O52 C47 1.209 . S
C53 O50 1.258 . S
C53 O55 1.282 . S
O54 Cd46 2.277 . S
O54 C47 1.226 . S
O55 Cd46 2.356 . S
O55 C53 1.282 . S
C56 O57 1.306 . S
C56 O59 1.160 . S
O57 C56 1.306 . S
O57 Cd58 2.228 . S
Cd58 O57 2.228 . S
Cd58 O62 2.273 . S
Cd58 O66 2.277 . S
O59 C56 1.160 . S
O59 Cd60 2.203 . S
Cd60 O59 2.203 . S
Cd60 O62 2.411 . S
Cd60 O63 2.333 . S
Cd60 O64 2.352 . S
Cd60 O68 2.277 . S
Cd60 O69 2.356 . S
C61 O66 1.209 . S
C61 O68 1.226 . S
O62 Cd58 2.273 . S
O62 Cd60 2.411 . S
O62 C65 1.320 . S
O63 Cd60 2.333 . S
O63 C65 1.214 . S
O64 Cd60 2.352 . S
O64 C67 1.258 . S
C65 O62 1.320 . S
C65 O63 1.214 . S
O66 Cd58 2.277 . S
O66 C61 1.209 . S
C67 O64 1.258 . S
C67 O69 1.282 . S
O68 Cd60 2.277 . S
O68 C61 1.226 . S
O69 Cd60 2.356 . S
O69 C67 1.282 . S
C70 O71 1.306 . S
C70 O73 1.160 . S
O71 C70 1.306 . S
O71 Cd72 2.228 . S
Cd72 O71 2.228 . S
Cd72 O76 2.273 . S
Cd72 O80 2.277 . S
O73 C70 1.160 . S
O73 Cd74 2.203 . S
Cd74 O73 2.203 . S
Cd74 O76 2.411 . S
Cd74 O77 2.333 . S
Cd74 O78 2.352 . S
Cd74 O82 2.277 . S
Cd74 O83 2.356 . S
C75 O80 1.209 . S
C75 O82 1.226 . S
O76 Cd72 2.273 . S
O76 Cd74 2.411 . S
O76 C79 1.320 . S
O77 Cd74 2.333 . S
O77 C79 1.214 . S
O78 Cd74 2.352 . S
O78 C81 1.258 . S
C79 O76 1.320 . S
C79 O77 1.214 . S
O80 Cd72 2.277 . S
O80 C75 1.209 . S
C81 O78 1.258 . S
C81 O83 1.282 . S
O82 Cd74 2.277 . S
O82 C75 1.226 . S
O83 Cd74 2.356 . S
O83 C81 1.282 . S
C84 O85 1.306 . S
C84 O87 1.160 . S
O85 C84 1.306 . S
O85 Cd86 2.228 . S
Cd86 O85 2.228 . S
Cd86 O90 2.273 . S
Cd86 O94 2.277 . S
O87 C84 1.160 . S
O87 Cd88 2.203 . S
Cd88 O87 2.203 . S
Cd88 O90 2.411 . S
Cd88 O91 2.333 . S
Cd88 O92 2.352 . S
Cd88 O96 2.277 . S
Cd88 O97 2.356 . S
C89 O94 1.209 . S
C89 O96 1.226 . S
O90 Cd86 2.273 . S
O90 Cd88 2.411 . S
O90 C93 1.320 . S
O91 Cd88 2.333 . S
O91 C93 1.214 . S
O92 Cd88 2.352 . S
O92 C95 1.258 . S
C93 O90 1.320 . S
C93 O91 1.214 . S
O94 Cd86 2.277 . S
O94 C89 1.209 . S
C95 O92 1.258 . S
C95 O97 1.282 . S
O96 Cd88 2.277 . S
O96 C89 1.226 . S
O97 Cd88 2.356 . S
O97 C95 1.282 . S
C98 O99 1.306 . S
C98 O101 1.160 . S
O99 C98 1.306 . S
O99 Cd100 2.228 . S
Cd100 O99 2.228 . S
Cd100 O104 2.273 . S
Cd100 O108 2.277 . S
O101 C98 1.160 . S
O101 Cd102 2.203 . S
Cd102 O101 2.203 . S
Cd102 O104 2.411 . S
Cd102 O105 2.333 . S
Cd102 O106 2.352 . S
Cd102 O110 2.277 . S
Cd102 O111 2.356 . S
C103 O108 1.209 . S
C103 O110 1.226 . S
O104 Cd100 2.273 . S
O104 Cd102 2.411 . S
O104 C107 1.320 . S
O105 Cd102 2.333 . S
O105 C107 1.214 . S
O106 Cd102 2.352 . S
O106 C109 1.258 . S
C107 O104 1.320 . S
C107 O105 1.214 . S
O108 Cd100 2.277 . S
O108 C103 1.209 . S
C109 O106 1.258 . S
C109 O111 1.282 . S
O110 Cd102 2.277 . S
O110 C103 1.226 . S
O111 Cd102 2.356 . S
O111 C109 1.282 . S
C112 O113 1.306 . S
C112 O115 1.160 . S
O113 C112 1.306 . S
O113 Cd114 2.228 . S
Cd114 O113 2.228 . S
Cd114 O118 2.273 . S
Cd114 O122 2.277 . S
O115 C112 1.160 . S
O115 Cd116 2.203 . S
Cd116 O115 2.203 . S
Cd116 O118 2.411 . S
Cd116 O119 2.333 . S
Cd116 O120 2.352 . S
Cd116 O124 2.277 . S
Cd116 O125 2.356 . S
C117 O122 1.209 . S
C117 O124 1.226 . S
O118 Cd114 2.273 . S
O118 Cd116 2.411 . S
O118 C121 1.320 . S
O119 Cd116 2.333 . S
O119 C121 1.214 . S
O120 Cd116 2.352 . S
O120 C123 1.258 . S
C121 O118 1.320 . S
C121 O119 1.214 . S
O122 Cd114 2.277 . S
O122 C117 1.209 . S
C123 O120 1.258 . S
C123 O125 1.282 . S
O124 Cd116 2.277 . S
O124 C117 1.226 . S
O125 Cd116 2.356 . S
O125 C123 1.282 . S
C126 O127 1.306 . S
C126 O129 1.160 . S
O127 C126 1.306 . S
O127 Cd128 2.228 . S
Cd128 O127 2.228 . S
Cd128 O132 2.273 . S
Cd128 O136 2.277 . S
O129 C126 1.160 . S
O129 Cd130 2.203 . S
Cd130 O129 2.203 . S
Cd130 O132 2.411 . S
Cd130 O133 2.333 . S
Cd130 O134 2.352 . S
Cd130 O138 2.277 . S
Cd130 O139 2.356 . S
C131 O136 1.209 . S
C131 O138 1.226 . S
O132 Cd128 2.273 . S
O132 Cd130 2.411 . S
O132 C135 1.320 . S
O133 Cd130 2.333 . S
O133 C135 1.214 . S
O134 Cd130 2.352 . S
O134 C137 1.258 . S
C135 O132 1.320 . S
C135 O133 1.214 . S
O136 Cd128 2.277 . S
O136 C131 1.209 . S
C137 O134 1.258 . S
C137 O139 1.282 . S
O138 Cd130 2.277 . S
O138 C131 1.226 . S
O139 Cd130 2.356 . S
O139 C137 1.282 . S
C140 O141 1.306 . S
C140 O143 1.160 . S
O141 C140 1.306 . S
O141 Cd142 2.228 . S
Cd142 O141 2.228 . S
Cd142 O146 2.273 . S
Cd142 O150 2.277 . S
O143 C140 1.160 . S
O143 Cd144 2.203 . S
Cd144 O143 2.203 . S
Cd144 O146 2.411 . S
Cd144 O147 2.333 . S
Cd144 O148 2.352 . S
Cd144 O152 2.277 . S
Cd144 O153 2.356 . S
C145 O150 1.209 . S
C145 O152 1.226 . S
O146 Cd142 2.273 . S
O146 Cd144 2.411 . S
O146 C149 1.320 . S
O147 Cd144 2.333 . S
O147 C149 1.214 . S
O148 Cd144 2.352 . S
O148 C151 1.258 . S
C149 O146 1.320 . S
C149 O147 1.214 . S
O150 Cd142 2.277 . S
O150 C145 1.209 . S
C151 O148 1.258 . S
C151 O153 1.282 . S
O152 Cd144 2.277 . S
O152 C145 1.226 . S
O153 Cd144 2.356 . S
O153 C151 1.282 . S
C154 O155 1.306 . S
C154 O157 1.160 . S
O155 C154 1.306 . S
O155 Cd156 2.228 . S
Cd156 O155 2.228 . S
Cd156 O160 2.273 . S
Cd156 O164 2.277 . S
O157 C154 1.160 . S
O157 Cd158 2.203 . S
Cd158 O157 2.203 . S
Cd158 O160 2.411 . S
Cd158 O161 2.333 . S
Cd158 O162 2.352 . S
Cd158 O166 2.277 . S
Cd158 O167 2.356 . S
C159 O164 1.209 . S
C159 O166 1.226 . S
O160 Cd156 2.273 . S
O160 Cd158 2.411 . S
O160 C163 1.320 . S
O161 Cd158 2.333 . S
O161 C163 1.214 . S
O162 Cd158 2.352 . S
O162 C165 1.258 . S
C163 O160 1.320 . S
C163 O161 1.214 . S
O164 Cd156 2.277 . S
O164 C159 1.209 . S
C165 O162 1.258 . S
C165 O167 1.282 . S
O166 Cd158 2.277 . S
O166 C159 1.226 . S
O167 Cd158 2.356 . S
O167 C165 1.282 . S
C168 O169 1.306 . S
C168 O171 1.160 . S
O169 C168 1.306 . S
O169 Cd170 2.228 . S
Cd170 O169 2.228 . S
Cd170 O174 2.273 . S
Cd170 O178 2.277 . S
O171 C168 1.160 . S
O171 Cd172 2.203 . S
Cd172 O171 2.203 . S
Cd172 O174 2.411 . S
Cd172 O175 2.333 . S
Cd172 O176 2.352 . S
Cd172 O180 2.277 . S
Cd172 O181 2.356 . S
C173 O178 1.209 . S
C173 O180 1.226 . S
O174 Cd170 2.273 . S
O174 Cd172 2.411 . S
O174 C177 1.320 . S
O175 Cd172 2.333 . S
O175 C177 1.214 . S
O176 Cd172 2.352 . S
O176 C179 1.258 . S
C177 O174 1.320 . S
C177 O175 1.214 . S
O178 Cd170 2.277 . S
O178 C173 1.209 . S
C179 O176 1.258 . S
C179 O181 1.282 . S
O180 Cd172 2.277 . S
O180 C173 1.226 . S
O181 Cd172 2.356 . S
O181 C179 1.282 . S
C182 O183 1.306 . S
C182 O185 1.160 . S
O183 C182 1.306 . S
O183 Cd184 2.228 . S
Cd184 O183 2.228 . S
Cd184 O188 2.273 . S
Cd184 O192 2.277 . S
O185 C182 1.160 . S
O185 Cd186 2.203 . S
Cd186 O185 2.203 . S
Cd186 O188 2.411 . S
Cd186 O189 2.333 . S
Cd186 O190 2.352 . S
Cd186 O194 2.277 . S
Cd186 O195 2.356 . S
C187 O192 1.209 . S
C187 O194 1.226 . S
O188 Cd184 2.273 . S
O188 Cd186 2.411 . S
O188 C191 1.320 . S
O189 Cd186 2.333 . S
O189 C191 1.214 . S
O190 Cd186 2.352 . S
O190 C193 1.258 . S
C191 O188 1.320 . S
C191 O189 1.214 . S
O192 Cd184 2.277 . S
O192 C187 1.209 . S
C193 O190 1.258 . S
C193 O195 1.282 . S
O194 Cd186 2.277 . S
O194 C187 1.226 . S
O195 Cd186 2.356 . S
O195 C193 1.282 . S
C196 O197 1.306 . S
C196 O199 1.160 . S
O197 C196 1.306 . S
O197 Cd198 2.228 . S
Cd198 O197 2.228 . S
Cd198 O202 2.273 . S
Cd198 O206 2.277 . S
O199 C196 1.160 . S
O199 Cd200 2.203 . S
Cd200 O199 2.203 . S
Cd200 O202 2.411 . S
Cd200 O203 2.333 . S
Cd200 O204 2.352 . S
Cd200 O208 2.277 . S
Cd200 O209 2.356 . S
C201 O206 1.209 . S
C201 O208 1.226 . S
O202 Cd198 2.273 . S
O202 Cd200 2.411 . S
O202 C205 1.320 . S
O203 Cd200 2.333 . S
O203 C205 1.214 . S
O204 Cd200 2.352 . S
O204 C207 1.258 . S
C205 O202 1.320 . S
C205 O203 1.214 . S
O206 Cd198 2.277 . S
O206 C201 1.209 . S
C207 O204 1.258 . S
C207 O209 1.282 . S
O208 Cd200 2.277 . S
O208 C201 1.226 . S
O209 Cd200 2.356 . S
O209 C207 1.282 . S
C210 O211 1.306 . S
C210 O213 1.160 . S
O211 C210 1.306 . S
O211 Cd212 2.228 . S
Cd212 O211 2.228 . S
Cd212 O216 2.273 . S
Cd212 O220 2.277 . S
O213 C210 1.160 . S
O213 Cd214 2.203 . S
Cd214 O213 2.203 . S
Cd214 O216 2.411 . S
Cd214 O217 2.333 . S
Cd214 O218 2.352 . S
Cd214 O222 2.277 . S
Cd214 O223 2.356 . S
C215 O220 1.209 . S
C215 O222 1.226 . S
O216 Cd212 2.273 . S
O216 Cd214 2.411 . S
O216 C219 1.320 . S
O217 Cd214 2.333 . S
O217 C219 1.214 . S
O218 Cd214 2.352 . S
O218 C221 1.258 . S
C219 O216 1.320 . S
C219 O217 1.214 . S
O220 Cd212 2.277 . S
O220 C215 1.209 . S
C221 O218 1.258 . S
C221 O223 1.282 . S
O222 Cd214 2.277 . S
O222 C215 1.226 . S
O223 Cd214 2.356 . S
O223 C221 1.282 . S
C224 C225 1.387 . S
C224 H228 0.950 . S
C224 C233 1.390 . S
C225 C224 1.387 . S
C225 C227 1.387 . S
H226 C233 0.950 . S
C227 C225 1.387 . S
C227 C229 1.390 . S
C227 H231 0.950 . S
H228 C224 0.950 . S
C229 C227 1.390 . S
C229 C230 1.387 . S
C229 H232 0.950 . S
C230 C229 1.387 . S
C230 C233 1.387 . S
H231 C227 0.950 . S
H232 C229 0.950 . S
C233 C224 1.390 . S
C233 H226 0.950 . S
C233 C230 1.387 . S
C234 C235 1.387 . S
C234 H238 0.950 . S
C234 C243 1.390 . S
C235 C234 1.387 . S
C235 C237 1.387 . S
H236 C243 0.950 . S
C237 C235 1.387 . S
C237 C239 1.390 . S
C237 H241 0.950 . S
H238 C234 0.950 . S
C239 C237 1.390 . S
C239 C240 1.387 . S
C239 H242 0.950 . S
C240 C239 1.387 . S
C240 C243 1.387 . S
H241 C237 0.950 . S
H242 C239 0.950 . S
C243 C234 1.390 . S
C243 H236 0.950 . S
C243 C240 1.387 . S
C244 C245 1.387 . S
C244 H248 0.950 . S
C244 C253 1.390 . S
C245 C244 1.387 . S
C245 C247 1.387 . S
H246 C253 0.950 . S
C247 C245 1.387 . S
C247 C249 1.390 . S
C247 H251 0.950 . S
H248 C244 0.950 . S
C249 C247 1.390 . S
C249 C250 1.387 . S
C249 H252 0.950 . S
C250 C249 1.387 . S
C250 C253 1.387 . S
H251 C247 0.950 . S
H252 C249 0.950 . S
C253 C244 1.390 . S
C253 H246 0.950 . S
C253 C250 1.387 . S
C254 C255 1.387 . S
C254 H258 0.950 . S
C254 C263 1.390 . S
C255 C254 1.387 . S
C255 C257 1.387 . S
H256 C263 0.950 . S
C257 C255 1.387 . S
C257 C259 1.390 . S
C257 H261 0.950 . S
H258 C254 0.950 . S
C259 C257 1.390 . S
C259 C260 1.387 . S
C259 H262 0.950 . S
C260 C259 1.387 . S
C260 C263 1.387 . S
H261 C257 0.950 . S
H262 C259 0.950 . S
C263 C254 1.390 . S
C263 H256 0.950 . S
C263 C260 1.387 . S
C264 C265 1.387 . S
C264 H268 0.950 . S
C264 C273 1.390 . S
C265 C264 1.387 . S
C265 C267 1.387 . S
H266 C273 0.950 . S
C267 C265 1.387 . S
C267 C269 1.390 . S
C267 H271 0.950 . S
H268 C264 0.950 . S
C269 C267 1.390 . S
C269 C270 1.387 . S
C269 H272 0.950 . S
C270 C269 1.387 . S
C270 C273 1.387 . S
H271 C267 0.950 . S
H272 C269 0.950 . S
C273 C264 1.390 . S
C273 H266 0.950 . S
C273 C270 1.387 . S
C274 C275 1.387 . S
C274 H278 0.950 . S
C274 C283 1.390 . S
C275 C274 1.387 . S
C275 C277 1.387 . S
H276 C283 0.950 . S
C277 C275 1.387 . S
C277 C279 1.390 . S
C277 H281 0.950 . S
H278 C274 0.950 . S
C279 C277 1.390 . S
C279 C280 1.387 . S
C279 H282 0.950 . S
C280 C279 1.387 . S
C280 C283 1.387 . S
H281 C277 0.950 . S
H282 C279 0.950 . S
C283 C274 1.390 . S
C283 H276 0.950 . S
C283 C280 1.387 . S
C284 C285 1.387 . S
C284 H288 0.950 . S
C284 C293 1.390 . S
C285 C284 1.387 . S
C285 C287 1.387 . S
H286 C293 0.950 . S
C287 C285 1.387 . S
C287 C289 1.390 . S
C287 H291 0.950 . S
H288 C284 0.950 . S
C289 C287 1.390 . S
C289 C290 1.387 . S
C289 H292 0.950 . S
C290 C289 1.387 . S
C290 C293 1.387 . S
H291 C287 0.950 . S
H292 C289 0.950 . S
C293 C284 1.390 . S
C293 H286 0.950 . S
C293 C290 1.387 . S
C294 C295 1.387 . S
C294 H298 0.950 . S
C294 C303 1.390 . S
C295 C294 1.387 . S
C295 C297 1.387 . S
H296 C303 0.950 . S
C297 C295 1.387 . S
C297 C299 1.390 . S
C297 H301 0.950 . S
H298 C294 0.950 . S
C299 C297 1.390 . S
C299 C300 1.387 . S
C299 H302 0.950 . S
C300 C299 1.387 . S
C300 C303 1.387 . S
H301 C297 0.950 . S
H302 C299 0.950 . S
C303 C294 1.390 . S
C303 H296 0.950 . S
C303 C300 1.387 . S
C304 C305 1.387 . S
C304 H308 0.950 . S
C304 C313 1.390 1_556 S
C305 C304 1.387 . S
C305 C307 1.387 . S
H306 C313 0.950 . S
C307 C305 1.387 . S
C307 C309 1.390 1_556 S
C307 H311 0.950 . S
H308 C304 0.950 . S
C309 C307 1.390 1_554 S
C309 C310 1.387 . S
C309 H312 0.950 . S
C310 C309 1.387 . S
C310 C313 1.387 . S
H311 C307 0.950 . S
H312 C309 0.950 . S
C313 C304 1.390 1_554 S
C313 H306 0.950 . S
C313 C310 1.387 . S
C314 C315 1.387 . S
C314 H318 0.950 . S
C314 C323 1.390 1_556 S
C315 C314 1.387 . S
C315 C317 1.387 . S
H316 C323 0.950 . S
C317 C315 1.387 . S
C317 C319 1.390 1_556 S
C317 H321 0.950 . S
H318 C314 0.950 . S
C319 C317 1.390 1_554 S
C319 C320 1.387 . S
C319 H322 0.950 . S
C320 C319 1.387 . S
C320 C323 1.387 . S
H321 C317 0.950 . S
H322 C319 0.950 . S
C323 C314 1.390 1_554 S
C323 H316 0.950 . S
C323 C320 1.387 . S
C324 C325 1.387 . S
C324 H328 0.950 . S
C324 C333 1.390 1_556 S
C325 C324 1.387 . S
C325 C327 1.387 . S
H326 C333 0.950 . S
C327 C325 1.387 . S
C327 C329 1.390 1_556 S
C327 H331 0.950 . S
H328 C324 0.950 . S
C329 C327 1.390 1_554 S
C329 C330 1.387 . S
C329 H332 0.950 . S
C330 C329 1.387 . S
C330 C333 1.387 . S
H331 C327 0.950 . S
H332 C329 0.950 . S
C333 C324 1.390 1_554 S
C333 H326 0.950 . S
C333 C330 1.387 . S
C334 C335 1.387 . S
C334 H338 0.950 . S
C334 C343 1.390 1_554 S
C335 C334 1.387 . S
C335 C337 1.387 . S
H336 C343 0.950 . S
C337 C335 1.387 . S
C337 C339 1.390 1_554 S
C337 H341 0.950 . S
H338 C334 0.950 . S
C339 C337 1.390 1_556 S
C339 C340 1.387 . S
C339 H342 0.950 . S
C340 C339 1.387 . S
C340 C343 1.387 . S
H341 C337 0.950 . S
H342 C339 0.950 . S
C343 C334 1.390 1_556 S
C343 H336 0.950 . S
C343 C340 1.387 . S
C344 C345 1.387 . S
C344 H348 0.950 . S
C344 C353 1.390 1_455 S
C345 C344 1.387 . S
C345 C347 1.387 . S
H346 C353 0.950 . S
C347 C345 1.387 . S
C347 C349 1.390 1_455 S
C347 H351 0.950 . S
H348 C344 0.950 . S
C349 C347 1.390 1_655 S
C349 C350 1.387 . S
C349 H352 0.950 . S
C350 C349 1.387 . S
C350 C353 1.387 . S
H351 C347 0.950 . S
H352 C349 0.950 . S
C353 C344 1.390 1_655 S
C353 H346 0.950 . S
C353 C350 1.387 . S
C354 C355 1.387 . S
C354 H358 0.950 . S
C354 C363 1.390 1_565 S
C355 C354 1.387 . S
C355 C357 1.387 . S
H356 C363 0.950 . S
C357 C355 1.387 . S
C357 C359 1.390 1_565 S
C357 H361 0.950 . S
H358 C354 0.950 . S
C359 C357 1.390 1_545 S
C359 C360 1.387 . S
C359 H362 0.950 . S
C360 C359 1.387 . S
C360 C363 1.387 . S
H361 C357 0.950 . S
H362 C359 0.950 . S
C363 C354 1.390 1_545 S
C363 H356 0.950 . S
C363 C360 1.387 . S
C364 C365 1.387 . S
C364 H368 0.950 . S
C364 C373 1.390 1_655 S
C365 C364 1.387 . S
C365 C367 1.387 . S
H366 C373 0.950 . S
C367 C365 1.387 . S
C367 C369 1.390 1_655 S
C367 H371 0.950 . S
H368 C364 0.950 . S
C369 C367 1.390 1_455 S
C369 C370 1.387 . S
C369 H372 0.950 . S
C370 C369 1.387 . S
C370 C373 1.387 . S
H371 C367 0.950 . S
H372 C369 0.950 . S
C373 C364 1.390 1_455 S
C373 H366 0.950 . S
C373 C370 1.387 . S
C374 C375 1.387 . S
C374 H378 0.950 . S
C374 C383 1.390 1_545 S
C375 C374 1.387 . S
C375 C377 1.387 . S
H376 C383 0.950 . S
C377 C375 1.387 . S
C377 C379 1.390 1_545 S
C377 H381 0.950 . S
H378 C374 0.950 . S
C379 C377 1.390 1_565 S
C379 C380 1.387 . S
C379 H382 0.950 . S
C380 C379 1.387 . S
C380 C383 1.387 . S
H381 C377 0.950 . S
H382 C379 0.950 . S
C383 C374 1.390 1_565 S
C383 H376 0.950 . S
C383 C380 1.387 . S
C384 C385 1.387 . S
C384 H388 0.950 . S
C384 C393 1.390 1_655 S
C385 C384 1.387 . S
C385 C387 1.387 . S
H386 C393 0.950 . S
C387 C385 1.387 . S
C387 C389 1.390 1_655 S
C387 H391 0.950 . S
H388 C384 0.950 . S
C389 C387 1.390 1_455 S
C389 C390 1.387 . S
C389 H392 0.950 . S
C390 C389 1.387 . S
C390 C393 1.387 . S
H391 C387 0.950 . S
H392 C389 0.950 . S
C393 C384 1.390 1_455 S
C393 H386 0.950 . S
C393 C390 1.387 . S
C394 C395 1.387 . S
C394 H398 0.950 . S
C394 C403 1.390 1_565 S
C395 C394 1.387 . S
C395 C397 1.387 . S
H396 C403 0.950 . S
C397 C395 1.387 . S
C397 C399 1.390 1_565 S
C397 H401 0.950 . S
H398 C394 0.950 . S
C399 C397 1.390 1_545 S
C399 C400 1.387 . S
C399 H402 0.950 . S
C400 C399 1.387 . S
C400 C403 1.387 . S
H401 C397 0.950 . S
H402 C399 0.950 . S
C403 C394 1.390 1_545 S
C403 H396 0.950 . S
C403 C400 1.387 . S
C404 C405 1.387 . S
C404 H408 0.950 . S
C404 C413 1.390 1_455 S
C405 C404 1.387 . S
C405 C407 1.387 . S
H406 C413 0.950 . S
C407 C405 1.387 . S
C407 C409 1.390 1_455 S
C407 H411 0.950 . S
H408 C404 0.950 . S
C409 C407 1.390 1_655 S
C409 C410 1.387 . S
C409 H412 0.950 . S
C410 C409 1.387 . S
C410 C413 1.387 . S
H411 C407 0.950 . S
H412 C409 0.950 . S
C413 C404 1.390 1_655 S
C413 H406 0.950 . S
C413 C410 1.387 . S
C414 C415 1.387 . S
C414 H418 0.950 . S
C414 C423 1.390 1_565 S
C415 C414 1.387 . S
C415 C417 1.387 . S
H416 C423 0.950 . S
C417 C415 1.387 . S
C417 C419 1.390 1_565 S
C417 H421 0.950 . S
H418 C414 0.950 . S
C419 C417 1.390 1_545 S
C419 C420 1.387 . S
C419 H422 0.950 . S
C420 C419 1.387 . S
C420 C423 1.387 . S
H421 C417 0.950 . S
H422 C419 0.950 . S
C423 C414 1.390 1_545 S
C423 H416 0.950 . S
C423 C420 1.387 . S
C424 C425 1.387 . S
C424 H428 0.950 . S
C424 C433 1.390 . S
C425 C424 1.387 . S
C425 C427 1.387 . S
H426 C433 0.950 . S
C427 C425 1.387 . S
C427 C429 1.390 . S
C427 H431 0.950 . S
H428 C424 0.950 . S
C429 C427 1.390 . S
C429 C430 1.387 . S
C429 H432 0.950 . S
C430 C429 1.387 . S
C430 C433 1.387 . S
H431 C427 0.950 . S
H432 C429 0.950 . S
C433 C424 1.390 . S
C433 H426 0.950 . S
C433 C430 1.387 . S
C434 C435 1.387 . S
C434 H438 0.950 . S
C434 C443 1.390 . S
C435 C434 1.387 . S
C435 C437 1.387 . S
H436 C443 0.950 . S
C437 C435 1.387 . S
C437 C439 1.390 . S
C437 H441 0.950 . S
H438 C434 0.950 . S
C439 C437 1.390 . S
C439 C440 1.387 . S
C439 H442 0.950 . S
C440 C439 1.387 . S
C440 C443 1.387 . S
H441 C437 0.950 . S
H442 C439 0.950 . S
C443 C434 1.390 . S
C443 H436 0.950 . S
C443 C440 1.387 . S
C444 C445 1.387 . S
C444 H448 0.950 . S
C444 C453 1.390 . S
C445 C444 1.387 . S
C445 C447 1.387 . S
H446 C453 0.950 . S
C447 C445 1.387 . S
C447 C449 1.390 . S
C447 H451 0.950 . S
H448 C444 0.950 . S
C449 C447 1.390 . S
C449 C450 1.387 . S
C449 H452 0.950 . S
C450 C449 1.387 . S
C450 C453 1.387 . S
H451 C447 0.950 . S
H452 C449 0.950 . S
C453 C444 1.390 . S
C453 H446 0.950 . S
C453 C450 1.387 . S
C454 C455 1.387 . S
C454 H458 0.950 . S
C454 C463 1.390 . S
C455 C454 1.387 . S
C455 C457 1.387 . S
H456 C463 0.950 . S
C457 C455 1.387 . S
C457 C459 1.390 . S
C457 H461 0.950 . S
H458 C454 0.950 . S
C459 C457 1.390 . S
C459 C460 1.387 . S
C459 H462 0.950 . S
C460 C459 1.387 . S
C460 C463 1.387 . S
H461 C457 0.950 . S
H462 C459 0.950 . S
C463 C454 1.390 . S
C463 H456 0.950 . S
C463 C460 1.387 . S
C464 C465 1.387 . S
C464 H468 0.950 . S
C464 C473 1.390 . S
C465 C464 1.387 . S
C465 C467 1.387 . S
H466 C473 0.950 . S
C467 C465 1.387 . S
C467 C469 1.390 . S
C467 H471 0.950 . S
H468 C464 0.950 . S
C469 C467 1.390 . S
C469 C470 1.387 . S
C469 H472 0.950 . S
C470 C469 1.387 . S
C470 C473 1.387 . S
H471 C467 0.950 . S
H472 C469 0.950 . S
C473 C464 1.390 . S
C473 H466 0.950 . S
C473 C470 1.387 . S
C474 C475 1.387 . S
C474 H478 0.950 . S
C474 C483 1.390 . S
C475 C474 1.387 . S
C475 C477 1.387 . S
H476 C483 0.950 . S
C477 C475 1.387 . S
C477 C479 1.390 . S
C477 H481 0.950 . S
H478 C474 0.950 . S
C479 C477 1.390 . S
C479 C480 1.387 . S
C479 H482 0.950 . S
C480 C479 1.387 . S
C480 C483 1.387 . S
H481 C477 0.950 . S
H482 C479 0.950 . S
C483 C474 1.390 . S
C483 H476 0.950 . S
C483 C480 1.387 . S
C484 C485 1.387 . S
C484 H488 0.950 . S
C484 C493 1.390 . S
C485 C484 1.387 . S
C485 C487 1.387 . S
H486 C493 0.950 . S
C487 C485 1.387 . S
C487 C489 1.390 . S
C487 H491 0.950 . S
H488 C484 0.950 . S
C489 C487 1.390 . S
C489 C490 1.387 . S
C489 H492 0.950 . S
C490 C489 1.387 . S
C490 C493 1.387 . S
H491 C487 0.950 . S
H492 C489 0.950 . S
C493 C484 1.390 . S
C493 H486 0.950 . S
C493 C490 1.387 . S
C494 C495 1.387 . S
C494 H498 0.950 . S
C494 C503 1.390 . S
C495 C494 1.387 . S
C495 C497 1.387 . S
H496 C503 0.950 . S
C497 C495 1.387 . S
C497 C499 1.390 . S
C497 H501 0.950 . S
H498 C494 0.950 . S
C499 C497 1.390 . S
C499 C500 1.387 . S
C499 H502 0.950 . S
C500 C499 1.387 . S
C500 C503 1.387 . S
H501 C497 0.950 . S
H502 C499 0.950 . S
C503 C494 1.390 . S
C503 H496 0.950 . S
C503 C500 1.387 . S
C504 C505 1.387 . S
C504 H508 0.950 . S
C504 C513 1.390 . S
C505 C504 1.387 . S
C505 C507 1.387 . S
H506 C513 0.950 . S
C507 C505 1.387 . S
C507 C509 1.390 . S
C507 H511 0.950 . S
H508 C504 0.950 . S
C509 C507 1.390 . S
C509 C510 1.387 . S
C509 H512 0.950 . S
C510 C509 1.387 . S
C510 C513 1.387 . S
H511 C507 0.950 . S
H512 C509 0.950 . S
C513 C504 1.390 . S
C513 H506 0.950 . S
C513 C510 1.387 . S
C514 C515 1.387 . S
C514 H518 0.950 . S
C514 C523 1.390 . S
C515 C514 1.387 . S
C515 C517 1.387 . S
H516 C523 0.950 . S
C517 C515 1.387 . S
C517 C519 1.390 . S
C517 H521 0.950 . S
H518 C514 0.950 . S
C519 C517 1.390 . S
C519 C520 1.387 . S
C519 H522 0.950 . S
C520 C519 1.387 . S
C520 C523 1.387 . S
H521 C517 0.950 . S
H522 C519 0.950 . S
C523 C514 1.390 . S
C523 H516 0.950 . S
C523 C520 1.387 . S
C524 C525 1.387 . S
C524 H528 0.950 . S
C524 C533 1.390 . S
C525 C524 1.387 . S
C525 C527 1.387 . S
H526 C533 0.950 . S
C527 C525 1.387 . S
C527 C529 1.390 . S
C527 H531 0.950 . S
H528 C524 0.950 . S
C529 C527 1.390 . S
C529 C530 1.387 . S
C529 H532 0.950 . S
C530 C529 1.387 . S
C530 C533 1.387 . S
H531 C527 0.950 . S
H532 C529 0.950 . S
C533 C524 1.390 . S
C533 H526 0.950 . S
C533 C530 1.387 . S
C534 C535 1.387 . S
C534 H538 0.950 . S
C534 C543 1.390 . S
C535 C534 1.387 . S
C535 C537 1.387 . S
H536 C543 0.950 . S
C537 C535 1.387 . S
C537 C539 1.390 . S
C537 H541 0.950 . S
H538 C534 0.950 . S
C539 C537 1.390 . S
C539 C540 1.387 . S
C539 H542 0.950 . S
C540 C539 1.387 . S
C540 C543 1.387 . S
H541 C537 0.950 . S
H542 C539 0.950 . S
C543 C534 1.390 . S
C543 H536 0.950 . S
C543 C540 1.387 . S
C225 C221 1.207 . S
C230 C11 1.207 . S
C235 C179 1.207 . S
C240 C25 1.206 . S
C245 C39 1.207 . S
C250 C193 1.205 . S
C255 C207 1.206 . S
C260 C53 1.205 . S
C265 C137 1.205 . S
C270 C67 1.207 . S
C275 C81 1.206 . S
C280 C151 1.206 . S
C285 C95 1.206 . S
C290 C165 1.206 . S
C295 C109 1.205 . S
C300 C123 1.206 . S
C305 C79 1.513 . S
C310 C5 1.563 . S
C315 C89 1.563 . S
C320 C23 1.511 . S
C325 C107 1.511 . S
C330 C33 1.563 . S
C335 C51 1.514 . S
C340 C61 1.563 . S
C345 C0 1.555 . S
C350 C14 1.555 . S
C355 C37 1.513 . S
C360 C19 1.563 . S
C365 C28 1.557 . S
C370 C42 1.556 . S
C375 C9 1.511 . S
C380 C47 1.563 . S
C385 C98 1.557 . S
C390 C56 1.556 . S
C395 C65 1.514 . S
C400 C75 1.563 . S
C405 C70 1.555 . S
C410 C84 1.555 . S
C415 C103 1.563 . S
C420 C93 1.514 . S
C425 C191 1.512 . S
C430 C117 1.563 . S
C435 C135 1.514 . S
C440 C201 1.563 . S
C445 C219 1.511 . S
C450 C145 1.563 . S
C455 C173 1.563 . S
C460 C163 1.513 . S
C465 C112 1.556 . S
C470 C126 1.554 . S
C475 C131 1.563 . S
C480 C149 1.514 . S
C485 C154 1.556 . S
C490 C140 1.554 . S
C495 C121 1.514 . S
C500 C159 1.563 . S
C505 C210 1.556 . S
C510 C168 1.557 . S
C515 C177 1.511 . S
C520 C187 1.563 . S
C525 C182 1.556 . S
C530 C196 1.554 . S
C535 C215 1.563 . S
C540 C205 1.511 . S
