# Generated by pormake.
# Topology gsi, (4)-cn, num edge types: 1
# Building blocks:
#     Node 0, Type 0, BuildingBlock: QUQFOY_clean_sbu_3, # of connection points: 4
#     Node 1, Type 0, BuildingBlock: QUQFOY_clean_sbu_3, # of connection points: 4
#     Node 2, Type 0, BuildingBlock: QUQFOY_clean_sbu_3, # of connection points: 4
#     Node 3, Type 0, BuildingBlock: QUQFOY_clean_sbu_3, # of connection points: 4
#     Node 4, Type 0, BuildingBlock: QUQFOY_clean_sbu_3, # of connection points: 4
#     Node 5, Type 0, BuildingBlock: QUQFOY_clean_sbu_3, # of connection points: 4
#     Node 6, Type 0, BuildingBlock: QUQFOY_clean_sbu_3, # of connection points: 4
#     Node 7, Type 0, BuildingBlock: QUQFOY_clean_sbu_3, # of connection points: 4
#     Node 8, Type 0, BuildingBlock: QUQFOY_clean_sbu_3, # of connection points: 4
#     Node 9, Type 0, BuildingBlock: QUQFOY_clean_sbu_3, # of connection points: 4
#     Node 10, Type 0, BuildingBlock: QUQFOY_clean_sbu_3, # of connection points: 4
#     Node 11, Type 0, BuildingBlock: QUQFOY_clean_sbu_3, # of connection points: 4
#     Node 12, Type 0, BuildingBlock: QUQFOY_clean_sbu_3, # of connection points: 4
#     Node 13, Type 0, BuildingBlock: QUQFOY_clean_sbu_3, # of connection points: 4
#     Node 14, Type 0, BuildingBlock: QUQFOY_clean_sbu_3, # of connection points: 4
#     Node 15, Type 0, BuildingBlock: QUQFOY_clean_sbu_3, # of connection points: 4
#     Edge 16, Type (0, 0), BuildingBlock: XIVTED_clean_linker_0, # of connection points: 2
#     Edge 17, Type (0, 0), BuildingBlock: XIVTED_clean_linker_0, # of connection points: 2
#     Edge 18, Type (0, 0), BuildingBlock: XIVTED_clean_linker_0, # of connection points: 2
#     Edge 19, Type (0, 0), BuildingBlock: XIVTED_clean_linker_0, # of connection points: 2
#     Edge 20, Type (0, 0), BuildingBlock: XIVTED_clean_linker_0, # of connection points: 2
#     Edge 21, Type (0, 0), BuildingBlock: XIVTED_clean_linker_0, # of connection points: 2
#     Edge 22, Type (0, 0), BuildingBlock: XIVTED_clean_linker_0, # of connection points: 2
#     Edge 23, Type (0, 0), BuildingBlock: XIVTED_clean_linker_0, # of connection points: 2
#     Edge 24, Type (0, 0), BuildingBlock: XIVTED_clean_linker_0, # of connection points: 2
#     Edge 25, Type (0, 0), BuildingBlock: XIVTED_clean_linker_0, # of connection points: 2
#     Edge 26, Type (0, 0), BuildingBlock: XIVTED_clean_linker_0, # of connection points: 2
#     Edge 27, Type (0, 0), BuildingBlock: XIVTED_clean_linker_0, # of connection points: 2
#     Edge 28, Type (0, 0), BuildingBlock: XIVTED_clean_linker_0, # of connection points: 2
#     Edge 29, Type (0, 0), BuildingBlock: XIVTED_clean_linker_0, # of connection points: 2
#     Edge 30, Type (0, 0), BuildingBlock: XIVTED_clean_linker_0, # of connection points: 2
#     Edge 31, Type (0, 0), BuildingBlock: XIVTED_clean_linker_0, # of connection points: 2
#     Edge 32, Type (0, 0), BuildingBlock: XIVTED_clean_linker_0, # of connection points: 2
#     Edge 33, Type (0, 0), BuildingBlock: XIVTED_clean_linker_0, # of connection points: 2
#     Edge 34, Type (0, 0), BuildingBlock: XIVTED_clean_linker_0, # of connection points: 2
#     Edge 35, Type (0, 0), BuildingBlock: XIVTED_clean_linker_0, # of connection points: 2
#     Edge 36, Type (0, 0), BuildingBlock: XIVTED_clean_linker_0, # of connection points: 2
#     Edge 37, Type (0, 0), BuildingBlock: XIVTED_clean_linker_0, # of connection points: 2
#     Edge 38, Type (0, 0), BuildingBlock: XIVTED_clean_linker_0, # of connection points: 2
#     Edge 39, Type (0, 0), BuildingBlock: XIVTED_clean_linker_0, # of connection points: 2
#     Edge 40, Type (0, 0), BuildingBlock: XIVTED_clean_linker_0, # of connection points: 2
#     Edge 41, Type (0, 0), BuildingBlock: XIVTED_clean_linker_0, # of connection points: 2
#     Edge 42, Type (0, 0), BuildingBlock: XIVTED_clean_linker_0, # of connection points: 2
#     Edge 43, Type (0, 0), BuildingBlock: XIVTED_clean_linker_0, # of connection points: 2
#     Edge 44, Type (0, 0), BuildingBlock: XIVTED_clean_linker_0, # of connection points: 2
#     Edge 45, Type (0, 0), BuildingBlock: XIVTED_clean_linker_0, # of connection points: 2
#     Edge 46, Type (0, 0), BuildingBlock: XIVTED_clean_linker_0, # of connection points: 2
#     Edge 47, Type (0, 0), BuildingBlock: XIVTED_clean_linker_0, # of connection points: 2
# Relax obj value: 0.139
# Max RMSD: 0.122
# Mean RMSD: 0.120
data_MOF--net-gsi--node1-QUQFOY_clean_sbu_3--edge1-XIVTED_clean_linker_0
_symmetry_space_group_name_H-M    P1
_symmetry_Int_Tables_number       1
_symmetry_cell_setting            triclinic
loop_
_symmetry_equiv_pos_as_xyz
'x, y, z'
_cell_length_a     47.663186
_cell_length_b     38.050303
_cell_length_c     46.268415
_cell_angle_alpha  89.850519
_cell_angle_beta   89.899083
_cell_angle_gamma 90.421303
loop_
_atom_site_label
_atom_site_type_symbol
_atom_site_fract_x
_atom_site_fract_y
_atom_site_fract_z
_atom_type_partial_charge
C0 C 0.06858 0.20201 0.12589 0.0
O1 O 0.07563 0.213 0.15073 0.0
Cd2 Cd 0.11461 0.1938 0.17812 0.0
O3 O 0.08337 0.17948 0.11244 0.0
Cd4 Cd 0.13027 0.15138 0.12083 0.0
C5 C 0.10757 0.10306 0.17768 0.0
O6 O 0.15186 0.20115 0.14489 0.0
O7 O 0.17515 0.15315 0.14753 0.0
O8 O 0.14244 0.1684 0.07202 0.0
C9 C 0.17402 0.1858 0.15263 0.0
O10 O 0.10788 0.13207 0.19137 0.0
C11 C 0.15342 0.13947 0.06477 0.0
O12 O 0.11314 0.10219 0.15072 0.0
O13 O 0.15193 0.11455 0.08308 0.0
C14 C 0.88218 0.29258 0.12715 0.0
O15 O 0.87663 0.28039 0.15208 0.0
Cd16 Cd 0.83818 0.29548 0.18194 0.0
O17 O 0.86625 0.31503 0.115 0.0
Cd18 Cd 0.81967 0.34164 0.12776 0.0
C19 C 0.8445 0.38565 0.18596 0.0
O20 O 0.80052 0.28812 0.14911 0.0
O21 O 0.77597 0.33429 0.15603 0.0
O22 O 0.80815 0.33697 0.07624 0.0
C23 C 0.77819 0.30134 0.15873 0.0
O24 O 0.84423 0.35608 0.19894 0.0
C25 C 0.79333 0.36455 0.07561 0.0
O26 O 0.83856 0.38769 0.15917 0.0
O27 O 0.79224 0.38254 0.09862 0.0
C28 C 0.072 0.7924 0.35784 0.0
O29 O 0.07733 0.77929 0.33327 0.0
Cd30 Cd 0.11569 0.79341 0.30262 0.0
O31 O 0.08826 0.81525 0.36929 0.0
Cd32 Cd 0.13526 0.84101 0.3557 0.0
C33 C 0.1104 0.8835 0.29676 0.0
O34 O 0.15385 0.78724 0.33487 0.0
O35 O 0.17842 0.83366 0.32694 0.0
O36 O 0.14769 0.83725 0.40706 0.0
C37 C 0.17602 0.80066 0.32459 0.0
O38 O 0.11016 0.8536 0.28444 0.0
C39 C 0.16249 0.86513 0.40702 0.0
O40 O 0.11664 0.88624 0.32344 0.0
O41 O 0.16315 0.88282 0.38375 0.0
C42 C 0.88425 0.70769 0.35364 0.0
O43 O 0.87943 0.71826 0.32811 0.0
Cd44 Cd 0.84249 0.69918 0.29751 0.0
O45 O 0.86799 0.6856 0.36616 0.0
Cd46 Cd 0.82147 0.65789 0.35398 0.0
C47 C 0.84753 0.60848 0.29968 0.0
O48 O 0.80246 0.70696 0.32686 0.0
O49 O 0.77929 0.65856 0.3231 0.0
O50 O 0.80345 0.67516 0.40075 0.0
C51 C 0.78109 0.69104 0.31727 0.0
O52 O 0.84887 0.63719 0.2855 0.0
C53 C 0.79348 0.64532 0.40775 0.0
O54 O 0.83998 0.60826 0.32614 0.0
O55 O 0.79801 0.62017 0.39039 0.0
C56 C 0.379 0.7881 0.62694 0.0
O57 O 0.37241 0.77876 0.65242 0.0
Cd58 Cd 0.33393 0.79701 0.68057 0.0
O59 O 0.36439 0.81049 0.61301 0.0
Cd60 Cd 0.31908 0.8419 0.62448 0.0
C61 C 0.34375 0.88659 0.6825 0.0
O62 O 0.29766 0.7902 0.64613 0.0
O63 O 0.27424 0.83738 0.65197 0.0
O64 O 0.30795 0.83722 0.57277 0.0
C65 C 0.27547 0.80438 0.65503 0.0
O66 O 0.34169 0.85761 0.69618 0.0
C67 C 0.2942 0.86565 0.5718 0.0
O68 O 0.339 0.88793 0.65542 0.0
O69 O 0.29368 0.88398 0.59464 0.0
C70 C 0.87688 0.7706 0.86993 0.0
O71 O 0.85878 0.74609 0.86798 0.0
Cd72 Cd 0.81232 0.75257 0.84983 0.0
O73 O 0.87086 0.80187 0.86215 0.0
Cd74 Cd 0.82963 0.83294 0.84082 0.0
C75 C 0.78418 0.81553 0.89505 0.0
O76 O 0.81642 0.78655 0.80709 0.0
O77 O 0.78626 0.82792 0.81287 0.0
O78 O 0.85952 0.86167 0.80525 0.0
C79 C 0.79373 0.80073 0.79919 0.0
O80 O 0.7846 0.78461 0.88464 0.0
C81 C 0.85169 0.89278 0.81039 0.0
O82 O 0.80066 0.83939 0.88533 0.0
O83 O 0.83492 0.89682 0.83152 0.0
C84 C 0.07601 0.69904 0.87607 0.0
O85 O 0.09529 0.72186 0.87943 0.0
Cd86 Cd 0.14181 0.71704 0.86071 0.0
O87 O 0.08127 0.66978 0.86379 0.0
Cd88 Cd 0.12449 0.64217 0.84355 0.0
C89 C 0.16703 0.65061 0.90153 0.0
O90 O 0.13605 0.69338 0.81349 0.0
O91 O 0.16753 0.65327 0.81547 0.0
O92 O 0.09401 0.60861 0.81022 0.0
C93 C 0.15856 0.68094 0.80351 0.0
O94 O 0.17078 0.68192 0.89263 0.0
C95 C 0.10888 0.58108 0.81089 0.0
O96 O 0.14847 0.63081 0.89013 0.0
O97 O 0.12927 0.58108 0.82849 0.0
C98 C 0.87003 0.20333 0.59861 0.0
O99 O 0.85036 0.22559 0.59709 0.0
Cd100 Cd 0.80393 0.21542 0.61521 0.0
O101 O 0.86559 0.17286 0.60937 0.0
Cd102 Cd 0.8254 0.14015 0.63134 0.0
C103 C 0.78102 0.14621 0.57448 0.0
O104 O 0.81132 0.18921 0.66122 0.0
O105 O 0.78252 0.14524 0.66087 0.0
O106 O 0.85611 0.11513 0.66801 0.0
C107 C 0.79 0.1742 0.67207 0.0
O108 O 0.7774 0.17774 0.58265 0.0
C109 C 0.84882 0.08341 0.66405 0.0
O110 O 0.79948 0.12686 0.58629 0.0
O111 O 0.83204 0.07746 0.6433 0.0
C112 C 0.06954 0.27821 0.60054 0.0
O113 O 0.0868 0.25311 0.6027 0.0
Cd114 Cd 0.13418 0.25767 0.61722 0.0
O115 O 0.07698 0.30968 0.60669 0.0
Cd116 Cd 0.12111 0.33957 0.62452 0.0
C117 C 0.15833 0.31632 0.56541 0.0
O118 O 0.13256 0.29336 0.65913 0.0
O119 O 0.16486 0.33215 0.65162 0.0
O120 O 0.09089 0.37595 0.65528 0.0
C121 C 0.1561 0.30613 0.66625 0.0
O122 O 0.15724 0.28573 0.57656 0.0
C123 C 0.10551 0.40374 0.65246 0.0
O124 O 0.146 0.34213 0.57738 0.0
O125 O 0.1258 0.40252 0.63467 0.0
C126 C 0.57756 0.19735 0.37571 0.0
O127 O 0.59713 0.22002 0.37793 0.0
Cd128 Cd 0.64379 0.21286 0.35997 0.0
O129 O 0.5822 0.16745 0.36426 0.0
Cd130 Cd 0.62319 0.13686 0.34239 0.0
C131 C 0.66681 0.14333 0.39999 0.0
O132 O 0.63745 0.18736 0.31366 0.0
O133 O 0.66674 0.14448 0.31418 0.0
O134 O 0.59391 0.11122 0.30455 0.0
C135 C 0.65936 0.17364 0.30338 0.0
O136 O 0.67028 0.17514 0.39221 0.0
C137 C 0.60149 0.07972 0.30857 0.0
O138 O 0.64865 0.12364 0.38777 0.0
O139 O 0.61774 0.07414 0.32981 0.0
C140 C 0.56086 0.68151 0.62823 0.0
O141 O 0.56489 0.68927 0.65455 0.0
Cd142 Cd 0.60597 0.67969 0.6824 0.0
O143 O 0.57943 0.66558 0.61345 0.0
Cd144 Cd 0.6273 0.64194 0.62424 0.0
C145 C 0.60711 0.58939 0.68033 0.0
O146 O 0.64413 0.69286 0.65117 0.0
O147 O 0.67063 0.64726 0.65212 0.0
O148 O 0.64288 0.66161 0.57706 0.0
C149 C 0.66714 0.67922 0.65868 0.0
O150 O 0.60505 0.61781 0.69459 0.0
C151 C 0.65415 0.63297 0.56951 0.0
O152 O 0.61302 0.58999 0.6534 0.0
O153 O 0.65133 0.6071 0.58673 0.0
C154 C 0.57534 0.28014 0.85877 0.0
O155 O 0.58189 0.26563 0.83504 0.0
Cd156 Cd 0.62148 0.27807 0.80537 0.0
O157 O 0.59103 0.30364 0.87016 0.0
Cd158 Cd 0.63853 0.32893 0.8584 0.0
C159 C 0.61563 0.36779 0.79674 0.0
O160 O 0.65846 0.27512 0.83923 0.0
O161 O 0.68292 0.32176 0.8319 0.0
O162 O 0.64966 0.32725 0.9101 0.0
C163 C 0.68077 0.28875 0.82945 0.0
O164 O 0.61619 0.33742 0.78521 0.0
C165 C 0.6633 0.35606 0.90994 0.0
O166 O 0.62076 0.37174 0.82358 0.0
O167 O 0.66383 0.37319 0.88638 0.0
C168 C 0.38379 0.20743 0.84974 0.0
O169 O 0.3792 0.21872 0.82436 0.0
Cd170 Cd 0.342 0.20108 0.79339 0.0
O171 O 0.36711 0.18552 0.86188 0.0
Cd172 Cd 0.32029 0.15914 0.84926 0.0
C173 C 0.3464 0.11036 0.79459 0.0
O174 O 0.30185 0.20899 0.82261 0.0
O175 O 0.27832 0.16078 0.81843 0.0
O176 O 0.30171 0.17591 0.89584 0.0
C177 C 0.28026 0.19339 0.81311 0.0
O178 O 0.348 0.13919 0.78058 0.0
C179 C 0.29181 0.14595 0.90255 0.0
O180 O 0.33864 0.10996 0.82098 0.0
O181 O 0.29676 0.12091 0.88519 0.0
C182 C 0.37891 0.26877 0.3706 0.0
O183 O 0.36062 0.24466 0.36754 0.0
Cd184 Cd 0.31501 0.25142 0.34766 0.0
O185 O 0.37355 0.30038 0.3632 0.0
Cd186 Cd 0.33278 0.33223 0.34149 0.0
C187 C 0.28586 0.31223 0.39401 0.0
O188 O 0.32106 0.28703 0.30613 0.0
O189 O 0.29055 0.32802 0.31169 0.0
O190 O 0.36314 0.36339 0.30768 0.0
C191 C 0.29871 0.30146 0.29761 0.0
O192 O 0.28655 0.28178 0.38272 0.0
C193 C 0.35448 0.39398 0.31351 0.0
O194 O 0.30245 0.33652 0.38525 0.0
O195 O 0.33722 0.39653 0.33437 0.0
C196 C 0.37032 0.70383 0.10173 0.0
O197 O 0.35106 0.72661 0.09995 0.0
Cd198 Cd 0.30432 0.71834 0.11779 0.0
O199 O 0.36531 0.67359 0.11268 0.0
Cd200 Cd 0.3245 0.64199 0.13447 0.0
C201 C 0.28078 0.64944 0.077 0.0
O202 O 0.31082 0.69169 0.16373 0.0
O203 O 0.28145 0.64833 0.16359 0.0
O204 O 0.35441 0.61645 0.17161 0.0
C205 C 0.28907 0.67748 0.17436 0.0
O206 O 0.27766 0.68112 0.08502 0.0
C207 C 0.34718 0.58479 0.16726 0.0
O208 O 0.29867 0.62954 0.08914 0.0
O209 O 0.33064 0.57913 0.14624 0.0
C210 C 0.57179 0.77053 0.10115 0.0
O211 O 0.58974 0.74607 0.10124 0.0
Cd212 Cd 0.63767 0.75283 0.11363 0.0
O213 O 0.57867 0.8017 0.10874 0.0
Cd214 Cd 0.62167 0.83301 0.12727 0.0
C215 C 0.65777 0.81814 0.06548 0.0
O216 O 0.63681 0.78469 0.15767 0.0
O217 O 0.66661 0.82722 0.15267 0.0
O218 O 0.59362 0.8597 0.16516 0.0
C219 C 0.65975 0.79879 0.16525 0.0
O220 O 0.65748 0.7863 0.07393 0.0
C221 C 0.60125 0.89116 0.16038 0.0
O222 O 0.64579 0.84209 0.08015 0.0
O223 O 0.61717 0.89633 0.13868 0.0
H224 H 0.22238 0.15895 0.17546 0.0
H225 H 0.25123 0.32807 0.27322 0.0
H226 H 0.17284 0.2534 0.1718 0.0
H227 H 0.30753 0.23986 0.26888 0.0
H228 H 0.22254 0.30118 0.23551 0.0
H229 H 0.25448 0.1883 0.209 0.0
C230 C 0.21838 0.18592 0.18156 0.0
C231 C 0.19484 0.2037 0.17103 0.0
C232 C 0.24124 0.28776 0.2427 0.0
C233 C 0.23125 0.23729 0.2094 0.0
C234 C 0.25757 0.30307 0.26428 0.0
C235 C 0.28167 0.28606 0.27427 0.0
C236 C 0.24898 0.2551 0.23118 0.0
C237 C 0.28903 0.2538 0.26184 0.0
C238 C 0.23668 0.20265 0.20069 0.0
C239 C 0.19067 0.23865 0.17953 0.0
N240 N 0.27264 0.23925 0.24103 0.0
N241 N 0.20859 0.25421 0.19837 0.0
H242 H 0.7824 0.23228 0.17421 0.0
H243 H 0.64955 0.238 0.27971 0.0
H244 H 0.73038 0.32366 0.18555 0.0
H245 H 0.70668 0.15059 0.27574 0.0
H246 H 0.67691 0.26799 0.24244 0.0
H247 H 0.75253 0.19998 0.20816 0.0
C248 C 0.76456 0.24548 0.18369 0.0
C249 C 0.75894 0.28078 0.17723 0.0
C250 C 0.68348 0.24225 0.24968 0.0
C251 C 0.72481 0.24404 0.21615 0.0
C252 C 0.66789 0.2251 0.27099 0.0
C253 C 0.67596 0.19182 0.28092 0.0
C254 C 0.70731 0.22598 0.23814 0.0
C255 C 0.69982 0.17631 0.26878 0.0
C256 C 0.74759 0.22705 0.20313 0.0
C257 C 0.73554 0.29653 0.19005 0.0
N258 N 0.7147 0.19357 0.248 0.0
N259 N 0.71938 0.27807 0.20902 0.0
H260 H 0.29992 0.74128 0.19851 0.0
H261 H 0.17056 0.73189 0.30849 0.0
H262 H 0.24244 0.6532 0.20322 0.0
H263 H 0.22344 0.82346 0.29688 0.0
H264 H 0.199 0.70051 0.27311 0.0
H265 H 0.2741 0.76987 0.23721 0.0
C266 C 0.28181 0.72795 0.20769 0.0
C267 C 0.27321 0.69487 0.19756 0.0
C268 C 0.20446 0.72741 0.27841 0.0
C269 C 0.24359 0.72746 0.242 0.0
C270 C 0.18831 0.74529 0.29868 0.0
C271 C 0.19456 0.78041 0.30545 0.0
C272 C 0.22703 0.74477 0.2649 0.0
C273 C 0.2178 0.79648 0.29215 0.0
C274 C 0.2671 0.74429 0.22982 0.0
C275 C 0.24968 0.67879 0.21032 0.0
N276 N 0.23312 0.77856 0.2724 0.0
N277 N 0.23564 0.69528 0.23191 0.0
H278 H 0.78466 0.75779 0.29581 0.0
H279 H 0.65171 0.73567 0.1922 0.0
H280 H 0.73479 0.6628 0.29092 0.0
H281 H 0.70794 0.8251 0.18929 0.0
H282 H 0.68044 0.70981 0.23017 0.0
H283 H 0.75494 0.78439 0.25899 0.0
C284 C 0.76735 0.74258 0.28708 0.0
C285 C 0.76222 0.70798 0.29634 0.0
C286 C 0.68654 0.73505 0.22121 0.0
C287 C 0.72822 0.73823 0.25413 0.0
C288 C 0.67016 0.74984 0.19951 0.0
C289 C 0.6775 0.78257 0.18756 0.0
C290 C 0.71037 0.75319 0.23112 0.0
C291 C 0.70158 0.79976 0.19787 0.0
C292 C 0.75046 0.75775 0.26599 0.0
C293 C 0.73952 0.68952 0.28433 0.0
N294 N 0.71715 0.78488 0.21913 0.0
N295 N 0.72336 0.70487 0.26378 0.0
H296 H 0.27724 0.73505 0.6696 0.0
H297 H 0.14721 0.74444 0.77856 0.0
H298 H 0.22887 0.82912 0.68305 0.0
H299 H 0.20531 0.65802 0.77525 0.0
H300 H 0.1736 0.77373 0.73995 0.0
H301 H 0.2473 0.70407 0.70412 0.0
C302 C 0.26016 0.74913 0.67966 0.0
C303 C 0.25567 0.7848 0.67366 0.0
C304 C 0.18054 0.74835 0.74766 0.0
C305 C 0.2214 0.7495 0.71333 0.0
C306 C 0.16551 0.73162 0.76968 0.0
C307 C 0.17422 0.69884 0.7802 0.0
C308 C 0.20431 0.73207 0.73599 0.0
C309 C 0.19799 0.68337 0.76789 0.0
C310 C 0.24314 0.73144 0.69946 0.0
C311 C 0.23314 0.80166 0.68721 0.0
N312 N 0.21223 0.70015 0.74642 0.0
N313 N 0.21689 0.78388 0.70657 0.0
H314 H 0.71782 0.65635 0.67844 0.0
H315 H 0.74395 0.82495 0.77795 0.0
H316 H 0.66193 0.74505 0.68148 0.0
H317 H 0.8026 0.73957 0.76996 0.0
H318 H 0.71391 0.7966 0.74202 0.0
H319 H 0.74962 0.68703 0.71129 0.0
C320 C 0.7123 0.68235 0.68594 0.0
C321 C 0.68716 0.69813 0.67735 0.0
C322 C 0.7334 0.78413 0.74806 0.0
C323 C 0.72336 0.73333 0.71499 0.0
C324 C 0.75052 0.80027 0.76859 0.0
C325 C 0.77572 0.78449 0.77702 0.0
C326 C 0.74151 0.75193 0.73597 0.0
C327 C 0.78329 0.75259 0.76413 0.0
C328 C 0.73046 0.69986 0.70468 0.0
C329 C 0.68108 0.73189 0.68763 0.0
N330 N 0.76619 0.73729 0.74433 0.0
N331 N 0.69901 0.74831 0.70604 0.0
H332 H 0.67514 0.22062 0.81155 0.0
H333 H 0.8013 0.23671 0.69817 0.0
H334 H 0.7283 0.31236 0.80247 0.0
H335 H 0.74456 0.1478 0.7017 0.0
H336 H 0.77685 0.26267 0.739 0.0
H337 H 0.70291 0.19102 0.77457 0.0
C338 C 0.69285 0.23439 0.80201 0.0
C339 C 0.69931 0.26911 0.80988 0.0
C340 C 0.76971 0.23748 0.7309 0.0
C341 C 0.73096 0.23554 0.76748 0.0
C342 C 0.78363 0.22265 0.70752 0.0
C343 C 0.77482 0.19013 0.69644 0.0
C344 C 0.7468 0.21969 0.74336 0.0
C345 C 0.75191 0.17303 0.7095 0.0
C346 C 0.7086 0.21753 0.78081 0.0
C347 C 0.72248 0.28568 0.79688 0.0
N348 N 0.73862 0.18807 0.7323 0.0
N349 N 0.73737 0.26881 0.77618 0.0
H350 H 0.1455 0.24523 0.69586 0.0
H351 H 0.28395 0.26045 0.79242 0.0
H352 H 0.2058 0.33 0.68835 0.0
H353 H 0.23229 0.16688 0.78869 0.0
H354 H 0.25289 0.28871 0.75772 0.0
H355 H 0.17464 0.21834 0.73315 0.0
C356 C 0.16486 0.2582 0.70209 0.0
C357 C 0.17334 0.28981 0.68894 0.0
C358 C 0.24831 0.26202 0.76452 0.0
C359 C 0.20665 0.2593 0.73159 0.0
C360 C 0.26598 0.24589 0.78439 0.0
C361 C 0.26075 0.2112 0.79332 0.0
C362 C 0.22515 0.24339 0.75357 0.0
C363 C 0.23714 0.19362 0.78227 0.0
C364 C 0.18148 0.24282 0.72334 0.0
C365 C 0.19856 0.30552 0.69785 0.0
N366 N 0.22021 0.20991 0.7629 0.0
N367 N 0.21434 0.2901 0.71865 0.0
H368 H 0.10487 0.95128 0.31589 0.0
H369 H 0.10734 0.03506 0.15738 0.0
H370 H 0.10398 0.88899 0.23801 0.0
H371 H 0.09703 0.09551 0.23551 0.0
H372 H 0.10397 0.98106 0.1861 0.0
H373 H 0.09995 0.00425 0.28652 0.0
C374 C 0.10345 0.94868 0.29263 0.0
C375 C 0.10503 0.91558 0.27943 0.0
C376 C 0.10219 0.00617 0.19689 0.0
C377 C 0.09959 0.9763 0.24557 0.0
C378 C 0.10409 0.03703 0.18049 0.0
C379 C 0.1027 0.06996 0.19403 0.0
C380 C 0.09905 0.00825 0.22706 0.0
C381 C 0.09841 0.0708 0.22408 0.0
C382 C 0.10061 0.97898 0.27584 0.0
C383 C 0.10293 0.91392 0.24916 0.0
N384 N 0.09699 0.04047 0.23956 0.0
N385 N 0.10058 0.94385 0.23325 0.0
H386 H 0.8516 0.45281 0.16535 0.0
H387 H 0.8457 0.54113 0.32153 0.0
H388 H 0.84982 0.39278 0.24468 0.0
H389 H 0.8606 0.59923 0.24261 0.0
H390 H 0.84918 0.48631 0.29424 0.0
H391 H 0.85678 0.50658 0.19358 0.0
C392 C 0.8525 0.45087 0.18869 0.0
C393 C 0.85007 0.41818 0.20263 0.0
C394 C 0.85195 0.51108 0.28297 0.0
C395 C 0.8558 0.4798 0.23517 0.0
C396 C 0.84999 0.5424 0.29855 0.0
C397 C 0.85263 0.57493 0.28435 0.0
C398 C 0.85637 0.51226 0.25293 0.0
C399 C 0.85824 0.57486 0.25451 0.0
C400 C 0.85549 0.48162 0.20482 0.0
C401 C 0.85152 0.41737 0.23297 0.0
N402 N 0.85966 0.54409 0.2398 0.0
N403 N 0.85402 0.44774 0.24822 0.0
H404 H 0.26902 0.08501 0.92528 0.0
H405 H 0.16229 0.19056 0.0245 0.0
H406 H 0.27057 0.19764 0.93636 0.0
H407 H 0.18349 0.08305 0.04438 0.0
H408 H 0.19601 0.19002 0.98497 0.0
H409 H 0.23327 0.0807 0.96364 0.0
C410 C 0.26208 0.10873 0.93593 0.0
C411 C 0.2728 0.14175 0.92763 0.0
C412 C 0.19318 0.16645 -0.00214 0.0
C413 C 0.23165 0.13702 0.97066 0.0
C414 C 0.17375 0.16661 0.02032 0.0
C415 C 0.17023 0.13689 0.03797 0.0
C416 C 0.20917 0.13628 -0.00724 0.0
C417 C 0.18565 0.10659 0.03135 0.0
C418 C 0.24167 0.10623 0.95768 0.0
C419 C 0.26299 0.17164 0.94204 0.0
N420 N 0.20462 0.10708 0.00928 0.0
N421 N 0.24283 0.16857 0.96261 0.0
H422 H 0.74176 0.39457 0.07649 0.0
H423 H 0.71338 0.39062 0.90831 0.0
H424 H 0.80344 0.35158 0.01839 0.0
H425 H 0.65363 0.34414 0.96749 0.0
H426 H 0.74607 0.39933 0.94871 0.0
H427 H 0.70871 0.39904 0.03596 0.0
C428 C 0.74857 0.38693 0.05507 0.0
C429 C 0.7753 0.37263 0.05066 0.0
C430 C 0.72557 0.38786 0.95278 0.0
C431 C 0.73797 0.37829 0.00458 0.0
C432 C 0.70688 0.3831 0.92992 0.0
C433 C 0.68084 0.36659 0.93469 0.0
C434 C 0.71774 0.37704 0.98061 0.0
C435 C 0.67356 0.35687 0.96299 0.0
C436 C 0.72969 0.38928 0.03214 0.0
C437 C 0.78298 0.36265 0.02261 0.0
N438 N 0.69193 0.36234 0.98501 0.0
N439 N 0.76438 0.36577 0.0005 0.0
H440 H 0.2442 0.89949 0.57239 0.0
H441 H 0.2142 0.89562 0.40475 0.0
H442 H 0.3033 0.85046 0.51472 0.0
H443 H 0.15312 0.85343 0.46463 0.0
H444 H 0.24772 0.90183 0.44476 0.0
H445 H 0.2112 0.90547 0.53198 0.0
C446 C 0.2505 0.8908 0.55107 0.0
C447 C 0.27646 0.87441 0.54677 0.0
C448 C 0.22679 0.89182 0.44906 0.0
C449 C 0.23918 0.88175 0.50081 0.0
C450 C 0.20763 0.88849 0.42643 0.0
C451 C 0.18092 0.87397 0.43152 0.0
C452 C 0.21877 0.8816 0.47699 0.0
C453 C 0.17355 0.86466 0.45989 0.0
C454 C 0.23162 0.89402 0.52822 0.0
C455 C 0.28345 0.86316 0.51885 0.0
N456 N 0.19239 0.86878 0.48169 0.0
N457 N 0.2649 0.86715 0.4968 0.0
H458 H 0.68186 0.57594 0.54682 0.0
H459 H 0.77599 0.69681 0.44411 0.0
H460 H 0.66873 0.68701 0.53382 0.0
H461 H 0.76841 0.58516 0.42927 0.0
H462 H 0.74127 0.69197 0.48253 0.0
H463 H 0.71684 0.57702 0.50766 0.0
C464 C 0.68606 0.6004 0.53554 0.0
C465 C 0.6724 0.63146 0.54365 0.0
C466 C 0.74722 0.66847 0.47095 0.0
C467 C 0.71265 0.63296 0.49956 0.0
C468 C 0.76725 0.67115 0.44913 0.0
C469 C 0.77505 0.64136 0.43333 0.0
C470 C 0.73496 0.63571 0.47733 0.0
C471 C 0.76294 0.60881 0.44089 0.0
C472 C 0.70605 0.60099 0.51331 0.0
C473 C 0.67871 0.66243 0.52837 0.0
N474 N 0.74342 0.60681 0.46239 0.0
N475 N 0.69854 0.66244 0.50732 0.0
H476 H 0.92457 0.33182 0.10323 0.0
H477 H 0.02677 0.16614 0.09774 0.0
H478 H 0.89804 0.22516 0.11991 0.0
H479 H 0.05179 0.26975 0.12556 0.0
H480 H -0.01996 0.18921 0.08581 0.0
H481 H 0.97169 0.31016 0.09105 0.0
C482 C 0.92846 0.3038 0.10333 0.0
C483 C 0.90776 0.28015 0.11283 0.0
C484 C -0.00392 0.20697 0.09382 0.0
C485 C 0.96095 0.2554 0.09895 0.0
C486 C 0.02264 0.19388 0.10053 0.0
C487 C 0.04278 0.21606 0.11303 0.0
C488 C -0.00992 0.24249 0.0992 0.0
C489 C 0.03653 0.25178 0.11636 0.0
C490 C 0.95525 0.2915 0.09656 0.0
C491 C 0.91371 0.24413 0.11293 0.0
N492 N 0.01063 0.26387 0.10971 0.0
N493 N 0.93988 0.23282 0.10638 0.0
H494 H 0.92333 0.67102 0.38455 0.0
H495 H 0.03059 0.83344 0.38042 0.0
H496 H 0.90258 0.77512 0.35491 0.0
H497 H 0.05414 0.72563 0.36665 0.0
H498 H -0.0174 0.81353 0.39199 0.0
H499 H 0.97009 0.6929 0.39861 0.0
C500 C 0.92835 0.69865 0.38187 0.0
C501 C 0.90947 0.72129 0.36821 0.0
C502 C -0.00143 0.79424 0.3873 0.0
C503 C 0.96224 0.74635 0.38437 0.0
C504 C 0.02587 0.80555 0.38088 0.0
C505 C 0.046 0.78106 0.3723 0.0
C506 C -0.00824 0.75829 0.38546 0.0
C507 C 0.03895 0.74524 0.3729 0.0
C508 C 0.95494 0.71106 0.38978 0.0
C509 C 0.91686 0.75682 0.36503 0.0
N510 N 0.01229 0.73489 0.37904 0.0
N511 N 0.94279 0.76824 0.37279 0.0
H512 H 0.5505 0.72861 0.58476 0.0
H513 H 0.42308 0.81749 0.59635 0.0
H514 H 0.51007 0.65716 0.64424 0.0
H515 H 0.39018 0.71906 0.62845 0.0
H516 H 0.46778 0.78844 0.58578 0.0
H517 H 0.50445 0.75363 0.57286 0.0
C518 C 0.53177 0.71766 0.59468 0.0
C519 C 0.53379 0.69096 0.61549 0.0
C520 C 0.45052 0.77284 0.59415 0.0
C521 C 0.48155 0.71978 0.60288 0.0
C522 C 0.42502 0.78952 0.6002 0.0
C523 C 0.40326 0.77065 0.61366 0.0
C524 C 0.45387 0.73715 0.60158 0.0
C525 C 0.40672 0.7346 0.61849 0.0
C526 C 0.50557 0.73224 0.58825 0.0
C527 C 0.50922 0.67778 0.6281 0.0
N528 N 0.43163 0.7192 0.61288 0.0
N529 N 0.48417 0.69244 0.6217 0.0
H530 H 0.8672 0.09191 0.71939 0.0
H531 H 0.87318 0.88742 0.75599 0.0
H532 H 0.84728 0.01187 0.65663 0.0
H533 H 0.84553 0.96396 0.81835 0.0
H534 H 0.87778 0.93421 0.71991 0.0
H535 H 0.87319 0.04604 0.7561 0.0
C536 C 0.86466 0.06465 0.71317 0.0
C537 C 0.85662 0.05565 0.68492 0.0
C538 C 0.87109 0.94075 0.74162 0.0
C539 C 0.86365 0.00328 0.72675 0.0
C540 C 0.86861 0.91417 0.7623 0.0
C541 C 0.85878 0.92179 0.79023 0.0
C542 C 0.86421 0.97531 0.74901 0.0
C543 C 0.85305 0.95693 0.79706 0.0
C544 C 0.86789 0.0386 0.73418 0.0
C545 C 0.85337 0.01994 0.67817 0.0
N546 N 0.85581 0.98245 0.77655 0.0
N547 N 0.8569 -0.005 0.69895 0.0
H548 H 0.14773 0.53316 0.79446 0.0
H549 H 0.0593 0.42142 0.6849 0.0
H550 H 0.06268 0.56531 0.77742 0.0
H551 H 0.14461 0.45319 0.66659 0.0
H552 H 0.05774 0.46517 0.72405 0.0
H553 H 0.14479 0.49219 0.754 0.0
C554 C 0.12824 0.53115 0.78256 0.0
C555 C 0.1054 0.55271 0.78932 0.0
C556 C 0.07658 0.46274 0.71109 0.0
C557 C 0.102 0.50581 0.74302 0.0
C558 C 0.07749 0.43796 0.68878 0.0
C559 C 0.10211 0.43374 0.67243 0.0
C560 C 0.10073 0.48246 0.71756 0.0
C561 C 0.12515 0.45567 0.67849 0.0
C562 C 0.12672 0.50804 0.75931 0.0
C563 C 0.08076 0.54916 0.77289 0.0
N564 N 0.12407 0.4786 0.7009 0.0
N565 N 0.07962 0.52597 0.75049 0.0
H566 H 0.65202 0.78141 0.01636 0.0
H567 H 0.78385 0.86902 0.93588 0.0
H568 H 0.69523 0.8714 0.05165 0.0
H569 H 0.73662 0.77885 0.90633 0.0
H570 H 0.74964 0.87613 0.97556 0.0
H571 H 0.6799 0.78652 0.97261 0.0
C572 C 0.66725 0.80262 0.01463 0.0
C573 C 0.67148 0.82589 0.03759 0.0
C574 C 0.74677 0.85504 0.96016 0.0
C575 C 0.70436 0.83146 -0.01232 0.0
C576 C 0.76624 0.85099 0.93756 0.0
C577 C 0.76336 0.82295 0.91804 0.0
C578 C 0.72427 0.83107 0.96288 0.0
C579 C 0.74009 0.80046 0.92111 0.0
C580 C 0.6833 0.80552 -0.01034 0.0
C581 C 0.69136 0.85303 0.03426 0.0
N582 N 0.72167 0.80494 0.94305 0.0
N583 N 0.7075 0.85477 0.00986 0.0
H584 H 0.14895 0.61754 0.95077 0.0
H585 H 0.29922 0.61912 0.02709 0.0
H586 H 0.22336 0.65697 0.90826 0.0
H587 H 0.2243 0.65282 0.07096 0.0
H588 H 0.27134 0.60952 0.98294 0.0
H589 H 0.17687 0.60713 -0.00525 0.0
C590 C 0.17128 0.62306 0.9505 0.0
C591 C 0.18397 0.63828 0.9261 0.0
C592 C 0.261 0.61818 0.00251 0.0
C593 C 0.21579 0.62593 0.97564 0.0
C594 C 0.27679 0.62345 0.02761 0.0
C595 C 0.26391 0.63683 0.05247 0.0
C596 C 0.23216 0.62552 0.00269 0.0
C597 C 0.23489 0.64256 0.05208 0.0
C598 C 0.18708 0.6173 0.9755 0.0
C599 C 0.21287 0.64539 0.9268 0.0
N600 N 0.21993 0.63692 0.02753 0.0
N601 N 0.22786 0.63919 0.95121 0.0
H602 H 0.64815 0.11292 0.45004 0.0
H603 H 0.79889 0.11287 0.52558 0.0
H604 H 0.72338 0.14601 0.40556 0.0
H605 H 0.72464 0.15103 0.56815 0.0
H606 H 0.77075 0.10147 0.48188 0.0
H607 H 0.67611 0.1032 0.49409 0.0
C608 C 0.67065 0.11705 0.44936 0.0
C609 C 0.68361 0.13033 0.42438 0.0
C610 C 0.76061 0.11155 0.50109 0.0
C611 C 0.71544 0.11893 0.47403 0.0
C612 C 0.77655 0.11787 0.52594 0.0
C613 C 0.76397 0.13305 0.55025 0.0
C614 C 0.7319 0.11962 0.50103 0.0
C615 C 0.73504 0.13949 0.54967 0.0
C616 C 0.68649 0.11172 0.47441 0.0
C617 C 0.71273 0.13583 0.42455 0.0
N618 N 0.71994 0.1328 0.5254 0.0
N619 N 0.72772 0.13018 0.44905 0.0
H620 H 0.16308 0.26798 0.52328 0.0
H621 H 0.28229 0.36769 0.43288 0.0
H622 H 0.18863 0.37365 0.54491 0.0
H623 H 0.2416 0.27055 0.40821 0.0
H624 H 0.24851 0.37303 0.47313 0.0
H625 H 0.19178 0.27084 0.48013 0.0
C626 C 0.1747 0.29198 0.51879 0.0
C627 C 0.17362 0.32052 0.53779 0.0
C628 C 0.24698 0.35078 0.45866 0.0
C629 C 0.20716 0.32397 0.48817 0.0
C630 C 0.26623 0.3477 0.43575 0.0
C631 C 0.2651 0.31834 0.41737 0.0
C632 C 0.2266 0.32434 0.46299 0.0
C633 C 0.24375 0.29335 0.422 0.0
C634 C 0.19112 0.29367 0.49403 0.0
C635 C 0.1889 0.35109 0.53071 0.0
N636 N 0.2256 0.29686 0.44429 0.0
N637 N 0.20543 0.3519 0.50655 0.0
H638 H 0.05756 0.759 0.90237 0.0
H639 H 0.92194 0.8152 0.87688 0.0
H640 H 0.02769 0.66086 0.86673 0.0
H641 H 0.89816 0.70563 0.88211 0.0
H642 H 0.97067 0.79877 0.88473 0.0
H643 H 0.00919 0.77808 0.90791 0.0
C644 C 0.04083 0.74134 0.89581 0.0
C645 C 0.04678 0.70848 0.88353 0.0
C646 C 0.95476 0.77835 0.885 0.0
C647 C -0.00878 0.73072 0.88905 0.0
C648 C 0.92687 0.78775 0.88027 0.0
C649 C 0.90588 0.76179 0.87867 0.0
C650 C 0.96174 0.74267 0.88808 0.0
C651 C 0.9136 0.72659 0.88308 0.0
C652 C 0.01316 0.75249 0.8987 0.0
C653 C 0.02416 0.68657 0.87597 0.0
N654 N 0.94092 0.71805 0.88715 0.0
N655 N -0.00262 0.69821 0.87864 0.0
H656 H 0.02367 0.32202 0.59965 0.0
H657 H 0.91623 0.16173 0.59195 0.0
H658 H 0.04825 0.2147 0.58393 0.0
H659 H 0.88983 0.26996 0.58821 0.0
H660 H 0.96479 0.18121 0.58606 0.0
H661 H 0.97455 0.30451 0.59263 0.0
C662 C 0.01882 0.29493 0.59437 0.0
C663 C 0.04012 0.26973 0.59281 0.0
C664 C 0.94836 0.20071 0.58616 0.0
C665 C -0.01593 0.24951 0.58498 0.0
C666 C 0.92061 0.18956 0.58953 0.0
C667 C 0.89894 0.21424 0.59086 0.0
C668 C 0.95459 0.23683 0.58453 0.0
C669 C 0.90587 0.24999 0.58743 0.0
C670 C -0.00922 0.28495 0.59037 0.0
C671 C 0.03257 0.23501 0.58577 0.0
N672 N 0.93314 0.26026 0.58485 0.0
N673 N 0.00521 0.2259 0.58247 0.0
H674 H 0.55855 0.26222 0.39173 0.0
H675 H 0.3975 0.20359 0.38612 0.0
H676 H 0.53039 0.15556 0.37734 0.0
H677 H 0.4256 0.31118 0.37645 0.0
H678 H 0.44582 0.1859 0.39455 0.0
H679 H 0.50979 0.28014 0.39765 0.0
C680 C 0.54218 0.24242 0.39025 0.0
C681 C 0.54859 0.20735 0.38363 0.0
C682 C 0.44137 0.21342 0.39089 0.0
C683 C 0.49274 0.22785 0.39039 0.0
C684 C 0.41376 0.22364 0.38613 0.0
C685 C 0.40747 0.25893 0.38009 0.0
C686 C 0.46295 0.23862 0.38972 0.0
C687 C 0.42947 0.28366 0.38071 0.0
C688 C 0.51434 0.25276 0.39353 0.0
C689 C 0.52645 0.18292 0.3821 0.0
N690 N 0.4563 0.27297 0.38514 0.0
N691 N 0.49949 0.19369 0.38522 0.0
H692 H 0.59164 0.5799 0.7366 0.0
H693 H 0.61334 0.37171 0.73749 0.0
H694 H 0.61524 0.52183 0.66035 0.0
H695 H 0.60607 0.43534 0.81425 0.0
H696 H 0.60784 0.42464 0.70787 0.0
H697 H 0.59027 0.52537 0.76396 0.0
C698 C 0.5964 0.55564 0.72548 0.0
C699 C 0.60386 0.55561 0.69609 0.0
C700 C 0.60731 0.42691 0.73119 0.0
C701 C 0.60238 0.4927 0.72762 0.0
C702 C 0.61035 0.39672 0.74814 0.0
C703 C 0.61033 0.39908 0.77846 0.0
C704 C 0.604 0.45965 0.74463 0.0
C705 C 0.60641 0.43222 0.791 0.0
C706 C 0.59565 0.52443 0.74122 0.0
C707 C 0.60952 0.52316 0.68297 0.0
N708 N 0.60347 0.46114 0.77405 0.0
N709 N 0.60884 0.49299 0.69889 0.0
H710 H 0.34559 0.04321 0.81667 0.0
H711 H 0.35152 0.95335 0.66107 0.0
H712 H 0.35877 0.10105 0.73731 0.0
H713 H 0.34932 0.89463 0.74105 0.0
H714 H 0.35679 0.00758 0.68876 0.0
H715 H 0.34951 0.98833 0.78965 0.0
C716 C 0.34957 0.04442 0.79363 0.0
C717 C 0.35161 0.07687 0.77924 0.0
C718 C 0.35541 0.98279 0.70025 0.0
C719 C 0.3559 0.01408 0.74812 0.0
C720 C 0.35239 0.95179 0.68442 0.0
C721 C 0.34974 0.91934 0.69871 0.0
C722 C 0.35555 0.98143 0.73061 0.0
C723 C 0.35114 0.919 0.72906 0.0
C724 C 0.3518 0.01305 0.7782 0.0
C725 C 0.35688 0.07672 0.74934 0.0
N726 N 0.35368 0.94957 0.74397 0.0
N727 N 0.35858 0.04586 0.73477 0.0
H728 H 0.42075 0.16859 0.88157 0.0
H729 H 0.53494 0.32352 0.88027 0.0
H730 H 0.40523 0.27356 0.85047 0.0
H731 H 0.5542 0.21444 0.86591 0.0
H732 H 0.48588 0.30672 0.89012 0.0
H733 H 0.46813 0.18738 0.89632 0.0
C734 C 0.42704 0.19579 0.87868 0.0
C735 C 0.40944 0.2195 0.86443 0.0
C736 C 0.50111 0.28645 0.88565 0.0
C737 C 0.46292 0.24109 0.88143 0.0
C738 C 0.52901 0.29597 0.8802 0.0
C739 C 0.54831 0.27029 0.87194 0.0
C740 C 0.49285 0.25104 0.88325 0.0
C741 C 0.5397 0.23498 0.87188 0.0
C742 C 0.45399 0.20644 0.88699 0.0
C743 C 0.41848 0.25442 0.86102 0.0
N744 N 0.51249 0.22637 0.87714 0.0
N745 N 0.44472 0.26414 0.86923 0.0
H746 H 0.34658 0.51351 0.15856 0.0
H747 H 0.34628 0.46445 0.32314 0.0
H748 H 0.36471 0.5922 0.22299 0.0
H749 H 0.37617 0.39145 0.25904 0.0
H750 H 0.34999 0.51189 0.2872 0.0
H751 H 0.35418 0.46767 0.19508 0.0
C752 C 0.3525 0.5211 0.18027 0.0
C753 C 0.35504 0.55666 0.18776 0.0
C754 C 0.35615 0.48554 0.28123 0.0
C755 C 0.36305 0.50459 0.22967 0.0
C756 C 0.35405 0.45852 0.3017 0.0
C757 C 0.36088 0.42396 0.29407 0.0
C758 C 0.3644 0.4777 0.25281 0.0
C759 C 0.37074 0.41771 0.26591 0.0
C760 C 0.35687 0.49499 0.20106 0.0
C761 C 0.36267 0.56507 0.21626 0.0
N762 N 0.37171 0.44418 0.24615 0.0
N763 N 0.36594 0.53926 0.23632 0.0
H764 H 0.58365 0.08808 0.25299 0.0
H765 H 0.58165 0.88374 0.21546 0.0
H766 H 0.60438 0.00818 0.31562 0.0
H767 H 0.60632 0.96271 0.1531 0.0
H768 H 0.5768 0.92968 0.25199 0.0
H769 H 0.57883 0.04243 0.21604 0.0
C770 C 0.58665 0.06087 0.25912 0.0
C771 C 0.59454 0.05189 0.28742 0.0
C772 C 0.58294 0.93692 0.23022 0.0
C773 C 0.58887 -0.00027 0.24529 0.0
C774 C 0.58556 0.91082 0.20928 0.0
C775 C 0.59455 0.91941 0.18119 0.0
C776 C 0.58884 0.97197 0.22291 0.0
C777 C 0.59947 0.95493 0.17452 0.0
C778 C 0.58409 0.03494 0.23797 0.0
C779 C 0.59838 0.01625 0.29405 0.0
N780 N 0.59656 0.97997 0.19526 0.0
N781 N 0.59551 -0.00858 0.27312 0.0
H782 H 0.55024 0.70649 0.08594 0.0
H783 H 0.39079 0.76941 0.0885 0.0
H784 H 0.52593 0.81417 0.10046 0.0
H785 H 0.41632 0.66128 0.0976 0.0
H786 H 0.43995 0.78662 0.08242 0.0
H787 H 0.50107 0.69051 0.07975 0.0
C788 C 0.53461 0.72691 0.08757 0.0
C789 C 0.54227 0.76171 0.09414 0.0
C790 C 0.43472 0.75911 0.08544 0.0
C791 C 0.48578 0.74338 0.08704 0.0
C792 C 0.40666 0.74918 0.08879 0.0
C793 C 0.39942 0.71384 0.0939 0.0
C794 C 0.45568 0.73349 0.08699 0.0
C795 C 0.42092 0.68885 0.094 0.0
C796 C 0.5065 0.71768 0.08407 0.0
C797 C 0.521 0.78698 0.09569 0.0
N798 N 0.44809 0.69919 0.0908 0.0
N799 N 0.49367 0.77726 0.09239 0.0
loop_
_geom_bond_atom_site_label_1
_geom_bond_atom_site_label_2
_geom_bond_distance
_geom_bond_site_symmetry_2
_ccdc_geom_bond_type
C0 O1 1.306 . S
C0 O3 1.160 . S
O1 C0 1.306 . S
O1 Cd2 2.228 . S
Cd2 O1 2.228 . S
Cd2 O6 2.273 . S
Cd2 O10 2.277 . S
O3 C0 1.160 . S
O3 Cd4 2.203 . S
Cd4 O3 2.203 . S
Cd4 O6 2.411 . S
Cd4 O7 2.333 . S
Cd4 O8 2.352 . S
Cd4 O12 2.277 . S
Cd4 O13 2.356 . S
C5 O10 1.209 . S
C5 O12 1.226 . S
O6 Cd2 2.273 . S
O6 Cd4 2.411 . S
O6 C9 1.320 . S
O7 Cd4 2.333 . S
O7 C9 1.214 . S
O8 Cd4 2.352 . S
O8 C11 1.258 . S
C9 O6 1.320 . S
C9 O7 1.214 . S
O10 Cd2 2.277 . S
O10 C5 1.209 . S
C11 O8 1.258 . S
C11 O13 1.282 . S
O12 Cd4 2.277 . S
O12 C5 1.226 . S
O13 Cd4 2.356 . S
O13 C11 1.282 . S
C14 O15 1.306 . S
C14 O17 1.160 . S
O15 C14 1.306 . S
O15 Cd16 2.228 . S
Cd16 O15 2.228 . S
Cd16 O20 2.273 . S
Cd16 O24 2.277 . S
O17 C14 1.160 . S
O17 Cd18 2.203 . S
Cd18 O17 2.203 . S
Cd18 O20 2.411 . S
Cd18 O21 2.333 . S
Cd18 O22 2.352 . S
Cd18 O26 2.277 . S
Cd18 O27 2.356 . S
C19 O24 1.209 . S
C19 O26 1.226 . S
O20 Cd16 2.273 . S
O20 Cd18 2.411 . S
O20 C23 1.320 . S
O21 Cd18 2.333 . S
O21 C23 1.214 . S
O22 Cd18 2.352 . S
O22 C25 1.258 . S
C23 O20 1.320 . S
C23 O21 1.214 . S
O24 Cd16 2.277 . S
O24 C19 1.209 . S
C25 O22 1.258 . S
C25 O27 1.282 . S
O26 Cd18 2.277 . S
O26 C19 1.226 . S
O27 Cd18 2.356 . S
O27 C25 1.282 . S
C28 O29 1.306 . S
C28 O31 1.160 . S
O29 C28 1.306 . S
O29 Cd30 2.228 . S
Cd30 O29 2.228 . S
Cd30 O34 2.273 . S
Cd30 O38 2.277 . S
O31 C28 1.160 . S
O31 Cd32 2.203 . S
Cd32 O31 2.203 . S
Cd32 O34 2.411 . S
Cd32 O35 2.333 . S
Cd32 O36 2.352 . S
Cd32 O40 2.277 . S
Cd32 O41 2.356 . S
C33 O38 1.209 . S
C33 O40 1.226 . S
O34 Cd30 2.273 . S
O34 Cd32 2.411 . S
O34 C37 1.320 . S
O35 Cd32 2.333 . S
O35 C37 1.214 . S
O36 Cd32 2.352 . S
O36 C39 1.258 . S
C37 O34 1.320 . S
C37 O35 1.214 . S
O38 Cd30 2.277 . S
O38 C33 1.209 . S
C39 O36 1.258 . S
C39 O41 1.282 . S
O40 Cd32 2.277 . S
O40 C33 1.226 . S
O41 Cd32 2.356 . S
O41 C39 1.282 . S
C42 O43 1.306 . S
C42 O45 1.160 . S
O43 C42 1.306 . S
O43 Cd44 2.228 . S
Cd44 O43 2.228 . S
Cd44 O48 2.273 . S
Cd44 O52 2.277 . S
O45 C42 1.160 . S
O45 Cd46 2.203 . S
Cd46 O45 2.203 . S
Cd46 O48 2.411 . S
Cd46 O49 2.333 . S
Cd46 O50 2.352 . S
Cd46 O54 2.277 . S
Cd46 O55 2.356 . S
C47 O52 1.209 . S
C47 O54 1.226 . S
O48 Cd44 2.273 . S
O48 Cd46 2.411 . S
O48 C51 1.320 . S
O49 Cd46 2.333 . S
O49 C51 1.214 . S
O50 Cd46 2.352 . S
O50 C53 1.258 . S
C51 O48 1.320 . S
C51 O49 1.214 . S
O52 Cd44 2.277 . S
O52 C47 1.209 . S
C53 O50 1.258 . S
C53 O55 1.282 . S
O54 Cd46 2.277 . S
O54 C47 1.226 . S
O55 Cd46 2.356 . S
O55 C53 1.282 . S
C56 O57 1.306 . S
C56 O59 1.160 . S
O57 C56 1.306 . S
O57 Cd58 2.228 . S
Cd58 O57 2.228 . S
Cd58 O62 2.273 . S
Cd58 O66 2.277 . S
O59 C56 1.160 . S
O59 Cd60 2.203 . S
Cd60 O59 2.203 . S
Cd60 O62 2.411 . S
Cd60 O63 2.333 . S
Cd60 O64 2.352 . S
Cd60 O68 2.277 . S
Cd60 O69 2.356 . S
C61 O66 1.209 . S
C61 O68 1.226 . S
O62 Cd58 2.273 . S
O62 Cd60 2.411 . S
O62 C65 1.320 . S
O63 Cd60 2.333 . S
O63 C65 1.214 . S
O64 Cd60 2.352 . S
O64 C67 1.258 . S
C65 O62 1.320 . S
C65 O63 1.214 . S
O66 Cd58 2.277 . S
O66 C61 1.209 . S
C67 O64 1.258 . S
C67 O69 1.282 . S
O68 Cd60 2.277 . S
O68 C61 1.226 . S
O69 Cd60 2.356 . S
O69 C67 1.282 . S
C70 O71 1.306 . S
C70 O73 1.160 . S
O71 C70 1.306 . S
O71 Cd72 2.228 . S
Cd72 O71 2.228 . S
Cd72 O76 2.273 . S
Cd72 O80 2.277 . S
O73 C70 1.160 . S
O73 Cd74 2.203 . S
Cd74 O73 2.203 . S
Cd74 O76 2.411 . S
Cd74 O77 2.333 . S
Cd74 O78 2.352 . S
Cd74 O82 2.277 . S
Cd74 O83 2.356 . S
C75 O80 1.209 . S
C75 O82 1.226 . S
O76 Cd72 2.273 . S
O76 Cd74 2.411 . S
O76 C79 1.320 . S
O77 Cd74 2.333 . S
O77 C79 1.214 . S
O78 Cd74 2.352 . S
O78 C81 1.258 . S
C79 O76 1.320 . S
C79 O77 1.214 . S
O80 Cd72 2.277 . S
O80 C75 1.209 . S
C81 O78 1.258 . S
C81 O83 1.282 . S
O82 Cd74 2.277 . S
O82 C75 1.226 . S
O83 Cd74 2.356 . S
O83 C81 1.282 . S
C84 O85 1.306 . S
C84 O87 1.160 . S
O85 C84 1.306 . S
O85 Cd86 2.228 . S
Cd86 O85 2.228 . S
Cd86 O90 2.273 . S
Cd86 O94 2.277 . S
O87 C84 1.160 . S
O87 Cd88 2.203 . S
Cd88 O87 2.203 . S
Cd88 O90 2.411 . S
Cd88 O91 2.333 . S
Cd88 O92 2.352 . S
Cd88 O96 2.277 . S
Cd88 O97 2.356 . S
C89 O94 1.209 . S
C89 O96 1.226 . S
O90 Cd86 2.273 . S
O90 Cd88 2.411 . S
O90 C93 1.320 . S
O91 Cd88 2.333 . S
O91 C93 1.214 . S
O92 Cd88 2.352 . S
O92 C95 1.258 . S
C93 O90 1.320 . S
C93 O91 1.214 . S
O94 Cd86 2.277 . S
O94 C89 1.209 . S
C95 O92 1.258 . S
C95 O97 1.282 . S
O96 Cd88 2.277 . S
O96 C89 1.226 . S
O97 Cd88 2.356 . S
O97 C95 1.282 . S
C98 O99 1.306 . S
C98 O101 1.160 . S
O99 C98 1.306 . S
O99 Cd100 2.228 . S
Cd100 O99 2.228 . S
Cd100 O104 2.273 . S
Cd100 O108 2.277 . S
O101 C98 1.160 . S
O101 Cd102 2.203 . S
Cd102 O101 2.203 . S
Cd102 O104 2.411 . S
Cd102 O105 2.333 . S
Cd102 O106 2.352 . S
Cd102 O110 2.277 . S
Cd102 O111 2.356 . S
C103 O108 1.209 . S
C103 O110 1.226 . S
O104 Cd100 2.273 . S
O104 Cd102 2.411 . S
O104 C107 1.320 . S
O105 Cd102 2.333 . S
O105 C107 1.214 . S
O106 Cd102 2.352 . S
O106 C109 1.258 . S
C107 O104 1.320 . S
C107 O105 1.214 . S
O108 Cd100 2.277 . S
O108 C103 1.209 . S
C109 O106 1.258 . S
C109 O111 1.282 . S
O110 Cd102 2.277 . S
O110 C103 1.226 . S
O111 Cd102 2.356 . S
O111 C109 1.282 . S
C112 O113 1.306 . S
C112 O115 1.160 . S
O113 C112 1.306 . S
O113 Cd114 2.228 . S
Cd114 O113 2.228 . S
Cd114 O118 2.273 . S
Cd114 O122 2.277 . S
O115 C112 1.160 . S
O115 Cd116 2.203 . S
Cd116 O115 2.203 . S
Cd116 O118 2.411 . S
Cd116 O119 2.333 . S
Cd116 O120 2.352 . S
Cd116 O124 2.277 . S
Cd116 O125 2.356 . S
C117 O122 1.209 . S
C117 O124 1.226 . S
O118 Cd114 2.273 . S
O118 Cd116 2.411 . S
O118 C121 1.320 . S
O119 Cd116 2.333 . S
O119 C121 1.214 . S
O120 Cd116 2.352 . S
O120 C123 1.258 . S
C121 O118 1.320 . S
C121 O119 1.214 . S
O122 Cd114 2.277 . S
O122 C117 1.209 . S
C123 O120 1.258 . S
C123 O125 1.282 . S
O124 Cd116 2.277 . S
O124 C117 1.226 . S
O125 Cd116 2.356 . S
O125 C123 1.282 . S
C126 O127 1.306 . S
C126 O129 1.160 . S
O127 C126 1.306 . S
O127 Cd128 2.228 . S
Cd128 O127 2.228 . S
Cd128 O132 2.273 . S
Cd128 O136 2.277 . S
O129 C126 1.160 . S
O129 Cd130 2.203 . S
Cd130 O129 2.203 . S
Cd130 O132 2.411 . S
Cd130 O133 2.333 . S
Cd130 O134 2.352 . S
Cd130 O138 2.277 . S
Cd130 O139 2.356 . S
C131 O136 1.209 . S
C131 O138 1.226 . S
O132 Cd128 2.273 . S
O132 Cd130 2.411 . S
O132 C135 1.320 . S
O133 Cd130 2.333 . S
O133 C135 1.214 . S
O134 Cd130 2.352 . S
O134 C137 1.258 . S
C135 O132 1.320 . S
C135 O133 1.214 . S
O136 Cd128 2.277 . S
O136 C131 1.209 . S
C137 O134 1.258 . S
C137 O139 1.282 . S
O138 Cd130 2.277 . S
O138 C131 1.226 . S
O139 Cd130 2.356 . S
O139 C137 1.282 . S
C140 O141 1.306 . S
C140 O143 1.160 . S
O141 C140 1.306 . S
O141 Cd142 2.228 . S
Cd142 O141 2.228 . S
Cd142 O146 2.273 . S
Cd142 O150 2.277 . S
O143 C140 1.160 . S
O143 Cd144 2.203 . S
Cd144 O143 2.203 . S
Cd144 O146 2.411 . S
Cd144 O147 2.333 . S
Cd144 O148 2.352 . S
Cd144 O152 2.277 . S
Cd144 O153 2.356 . S
C145 O150 1.209 . S
C145 O152 1.226 . S
O146 Cd142 2.273 . S
O146 Cd144 2.411 . S
O146 C149 1.320 . S
O147 Cd144 2.333 . S
O147 C149 1.214 . S
O148 Cd144 2.352 . S
O148 C151 1.258 . S
C149 O146 1.320 . S
C149 O147 1.214 . S
O150 Cd142 2.277 . S
O150 C145 1.209 . S
C151 O148 1.258 . S
C151 O153 1.282 . S
O152 Cd144 2.277 . S
O152 C145 1.226 . S
O153 Cd144 2.356 . S
O153 C151 1.282 . S
C154 O155 1.306 . S
C154 O157 1.160 . S
O155 C154 1.306 . S
O155 Cd156 2.228 . S
Cd156 O155 2.228 . S
Cd156 O160 2.273 . S
Cd156 O164 2.277 . S
O157 C154 1.160 . S
O157 Cd158 2.203 . S
Cd158 O157 2.203 . S
Cd158 O160 2.411 . S
Cd158 O161 2.333 . S
Cd158 O162 2.352 . S
Cd158 O166 2.277 . S
Cd158 O167 2.356 . S
C159 O164 1.209 . S
C159 O166 1.226 . S
O160 Cd156 2.273 . S
O160 Cd158 2.411 . S
O160 C163 1.320 . S
O161 Cd158 2.333 . S
O161 C163 1.214 . S
O162 Cd158 2.352 . S
O162 C165 1.258 . S
C163 O160 1.320 . S
C163 O161 1.214 . S
O164 Cd156 2.277 . S
O164 C159 1.209 . S
C165 O162 1.258 . S
C165 O167 1.282 . S
O166 Cd158 2.277 . S
O166 C159 1.226 . S
O167 Cd158 2.356 . S
O167 C165 1.282 . S
C168 O169 1.306 . S
C168 O171 1.160 . S
O169 C168 1.306 . S
O169 Cd170 2.228 . S
Cd170 O169 2.228 . S
Cd170 O174 2.273 . S
Cd170 O178 2.277 . S
O171 C168 1.160 . S
O171 Cd172 2.203 . S
Cd172 O171 2.203 . S
Cd172 O174 2.411 . S
Cd172 O175 2.333 . S
Cd172 O176 2.352 . S
Cd172 O180 2.277 . S
Cd172 O181 2.356 . S
C173 O178 1.209 . S
C173 O180 1.226 . S
O174 Cd170 2.273 . S
O174 Cd172 2.411 . S
O174 C177 1.320 . S
O175 Cd172 2.333 . S
O175 C177 1.214 . S
O176 Cd172 2.352 . S
O176 C179 1.258 . S
C177 O174 1.320 . S
C177 O175 1.214 . S
O178 Cd170 2.277 . S
O178 C173 1.209 . S
C179 O176 1.258 . S
C179 O181 1.282 . S
O180 Cd172 2.277 . S
O180 C173 1.226 . S
O181 Cd172 2.356 . S
O181 C179 1.282 . S
C182 O183 1.306 . S
C182 O185 1.160 . S
O183 C182 1.306 . S
O183 Cd184 2.228 . S
Cd184 O183 2.228 . S
Cd184 O188 2.273 . S
Cd184 O192 2.277 . S
O185 C182 1.160 . S
O185 Cd186 2.203 . S
Cd186 O185 2.203 . S
Cd186 O188 2.411 . S
Cd186 O189 2.333 . S
Cd186 O190 2.352 . S
Cd186 O194 2.277 . S
Cd186 O195 2.356 . S
C187 O192 1.209 . S
C187 O194 1.226 . S
O188 Cd184 2.273 . S
O188 Cd186 2.411 . S
O188 C191 1.320 . S
O189 Cd186 2.333 . S
O189 C191 1.214 . S
O190 Cd186 2.352 . S
O190 C193 1.258 . S
C191 O188 1.320 . S
C191 O189 1.214 . S
O192 Cd184 2.277 . S
O192 C187 1.209 . S
C193 O190 1.258 . S
C193 O195 1.282 . S
O194 Cd186 2.277 . S
O194 C187 1.226 . S
O195 Cd186 2.356 . S
O195 C193 1.282 . S
C196 O197 1.306 . S
C196 O199 1.160 . S
O197 C196 1.306 . S
O197 Cd198 2.228 . S
Cd198 O197 2.228 . S
Cd198 O202 2.273 . S
Cd198 O206 2.277 . S
O199 C196 1.160 . S
O199 Cd200 2.203 . S
Cd200 O199 2.203 . S
Cd200 O202 2.411 . S
Cd200 O203 2.333 . S
Cd200 O204 2.352 . S
Cd200 O208 2.277 . S
Cd200 O209 2.356 . S
C201 O206 1.209 . S
C201 O208 1.226 . S
O202 Cd198 2.273 . S
O202 Cd200 2.411 . S
O202 C205 1.320 . S
O203 Cd200 2.333 . S
O203 C205 1.214 . S
O204 Cd200 2.352 . S
O204 C207 1.258 . S
C205 O202 1.320 . S
C205 O203 1.214 . S
O206 Cd198 2.277 . S
O206 C201 1.209 . S
C207 O204 1.258 . S
C207 O209 1.282 . S
O208 Cd200 2.277 . S
O208 C201 1.226 . S
O209 Cd200 2.356 . S
O209 C207 1.282 . S
C210 O211 1.306 . S
C210 O213 1.160 . S
O211 C210 1.306 . S
O211 Cd212 2.228 . S
Cd212 O211 2.228 . S
Cd212 O216 2.273 . S
Cd212 O220 2.277 . S
O213 C210 1.160 . S
O213 Cd214 2.203 . S
Cd214 O213 2.203 . S
Cd214 O216 2.411 . S
Cd214 O217 2.333 . S
Cd214 O218 2.352 . S
Cd214 O222 2.277 . S
Cd214 O223 2.356 . S
C215 O220 1.209 . S
C215 O222 1.226 . S
O216 Cd212 2.273 . S
O216 Cd214 2.411 . S
O216 C219 1.320 . S
O217 Cd214 2.333 . S
O217 C219 1.214 . S
O218 Cd214 2.352 . S
O218 C221 1.258 . S
C219 O216 1.320 . S
C219 O217 1.214 . S
O220 Cd212 2.277 . S
O220 C215 1.209 . S
C221 O218 1.258 . S
C221 O223 1.282 . S
O222 Cd214 2.277 . S
O222 C215 1.226 . S
O223 Cd214 2.356 . S
O223 C221 1.282 . S
H224 C230 0.930 . S
H225 C234 0.930 . S
H226 C239 0.929 . S
H227 C237 0.929 . S
H228 C232 0.929 . S
H229 C238 0.929 . S
C230 H224 0.930 . S
C230 C231 1.367 . S
C230 C238 1.378 . S
C231 C230 1.367 . S
C231 C239 1.433 . S
C232 H228 0.929 . S
C232 C234 1.378 . S
C232 C236 1.350 . S
C233 C236 1.463 . S
C233 C238 1.350 . S
C233 N241 1.427 . S
C234 H225 0.930 . S
C234 C232 1.378 . S
C234 C235 1.367 . S
C235 C234 1.367 . S
C235 C237 1.433 . S
C236 C232 1.350 . S
C236 C233 1.463 . S
C236 N240 1.427 . S
C237 H227 0.929 . S
C237 C235 1.433 . S
C237 N240 1.384 . S
C238 H229 0.929 . S
C238 C230 1.378 . S
C238 C233 1.350 . S
C239 H226 0.929 . S
C239 C231 1.433 . S
C239 N241 1.384 . S
N240 C236 1.427 . S
N240 C237 1.384 . S
N241 C233 1.427 . S
N241 C239 1.384 . S
H242 C248 0.930 . S
H243 C252 0.930 . S
H244 C257 0.929 . S
H245 C255 0.929 . S
H246 C250 0.929 . S
H247 C256 0.929 . S
C248 H242 0.930 . S
C248 C249 1.367 . S
C248 C256 1.378 . S
C249 C248 1.367 . S
C249 C257 1.433 . S
C250 H246 0.929 . S
C250 C252 1.378 . S
C250 C254 1.350 . S
C251 C254 1.463 . S
C251 C256 1.350 . S
C251 N259 1.427 . S
C252 H243 0.930 . S
C252 C250 1.378 . S
C252 C253 1.367 . S
C253 C252 1.367 . S
C253 C255 1.433 . S
C254 C250 1.350 . S
C254 C251 1.463 . S
C254 N258 1.427 . S
C255 H245 0.929 . S
C255 C253 1.433 . S
C255 N258 1.384 . S
C256 H247 0.929 . S
C256 C248 1.378 . S
C256 C251 1.350 . S
C257 H244 0.929 . S
C257 C249 1.433 . S
C257 N259 1.384 . S
N258 C254 1.427 . S
N258 C255 1.384 . S
N259 C251 1.427 . S
N259 C257 1.384 . S
H260 C266 0.930 . S
H261 C270 0.930 . S
H262 C275 0.929 . S
H263 C273 0.929 . S
H264 C268 0.929 . S
H265 C274 0.929 . S
C266 H260 0.930 . S
C266 C267 1.367 . S
C266 C274 1.378 . S
C267 C266 1.367 . S
C267 C275 1.433 . S
C268 H264 0.929 . S
C268 C270 1.378 . S
C268 C272 1.350 . S
C269 C272 1.463 . S
C269 C274 1.350 . S
C269 N277 1.427 . S
C270 H261 0.930 . S
C270 C268 1.378 . S
C270 C271 1.367 . S
C271 C270 1.367 . S
C271 C273 1.433 . S
C272 C268 1.350 . S
C272 C269 1.463 . S
C272 N276 1.427 . S
C273 H263 0.929 . S
C273 C271 1.433 . S
C273 N276 1.384 . S
C274 H265 0.929 . S
C274 C266 1.378 . S
C274 C269 1.350 . S
C275 H262 0.929 . S
C275 C267 1.433 . S
C275 N277 1.384 . S
N276 C272 1.427 . S
N276 C273 1.384 . S
N277 C269 1.427 . S
N277 C275 1.384 . S
H278 C284 0.930 . S
H279 C288 0.930 . S
H280 C293 0.929 . S
H281 C291 0.929 . S
H282 C286 0.929 . S
H283 C292 0.929 . S
C284 H278 0.930 . S
C284 C285 1.367 . S
C284 C292 1.378 . S
C285 C284 1.367 . S
C285 C293 1.433 . S
C286 H282 0.929 . S
C286 C288 1.378 . S
C286 C290 1.350 . S
C287 C290 1.463 . S
C287 C292 1.350 . S
C287 N295 1.427 . S
C288 H279 0.930 . S
C288 C286 1.378 . S
C288 C289 1.367 . S
C289 C288 1.367 . S
C289 C291 1.433 . S
C290 C286 1.350 . S
C290 C287 1.463 . S
C290 N294 1.427 . S
C291 H281 0.929 . S
C291 C289 1.433 . S
C291 N294 1.384 . S
C292 H283 0.929 . S
C292 C284 1.378 . S
C292 C287 1.350 . S
C293 H280 0.929 . S
C293 C285 1.433 . S
C293 N295 1.384 . S
N294 C290 1.427 . S
N294 C291 1.384 . S
N295 C287 1.427 . S
N295 C293 1.384 . S
H296 C302 0.930 . S
H297 C306 0.930 . S
H298 C311 0.929 . S
H299 C309 0.929 . S
H300 C304 0.929 . S
H301 C310 0.929 . S
C302 H296 0.930 . S
C302 C303 1.367 . S
C302 C310 1.378 . S
C303 C302 1.367 . S
C303 C311 1.433 . S
C304 H300 0.929 . S
C304 C306 1.378 . S
C304 C308 1.350 . S
C305 C308 1.463 . S
C305 C310 1.350 . S
C305 N313 1.427 . S
C306 H297 0.930 . S
C306 C304 1.378 . S
C306 C307 1.367 . S
C307 C306 1.367 . S
C307 C309 1.433 . S
C308 C304 1.350 . S
C308 C305 1.463 . S
C308 N312 1.427 . S
C309 H299 0.929 . S
C309 C307 1.433 . S
C309 N312 1.384 . S
C310 H301 0.929 . S
C310 C302 1.378 . S
C310 C305 1.350 . S
C311 H298 0.929 . S
C311 C303 1.433 . S
C311 N313 1.384 . S
N312 C308 1.427 . S
N312 C309 1.384 . S
N313 C305 1.427 . S
N313 C311 1.384 . S
H314 C320 0.930 . S
H315 C324 0.930 . S
H316 C329 0.929 . S
H317 C327 0.929 . S
H318 C322 0.929 . S
H319 C328 0.929 . S
C320 H314 0.930 . S
C320 C321 1.367 . S
C320 C328 1.378 . S
C321 C320 1.367 . S
C321 C329 1.433 . S
C322 H318 0.929 . S
C322 C324 1.378 . S
C322 C326 1.350 . S
C323 C326 1.463 . S
C323 C328 1.350 . S
C323 N331 1.427 . S
C324 H315 0.930 . S
C324 C322 1.378 . S
C324 C325 1.367 . S
C325 C324 1.367 . S
C325 C327 1.433 . S
C326 C322 1.350 . S
C326 C323 1.463 . S
C326 N330 1.427 . S
C327 H317 0.929 . S
C327 C325 1.433 . S
C327 N330 1.384 . S
C328 H319 0.929 . S
C328 C320 1.378 . S
C328 C323 1.350 . S
C329 H316 0.929 . S
C329 C321 1.433 . S
C329 N331 1.384 . S
N330 C326 1.427 . S
N330 C327 1.384 . S
N331 C323 1.427 . S
N331 C329 1.384 . S
H332 C338 0.930 . S
H333 C342 0.930 . S
H334 C347 0.929 . S
H335 C345 0.929 . S
H336 C340 0.929 . S
H337 C346 0.929 . S
C338 H332 0.930 . S
C338 C339 1.367 . S
C338 C346 1.378 . S
C339 C338 1.367 . S
C339 C347 1.433 . S
C340 H336 0.929 . S
C340 C342 1.378 . S
C340 C344 1.350 . S
C341 C344 1.463 . S
C341 C346 1.350 . S
C341 N349 1.427 . S
C342 H333 0.930 . S
C342 C340 1.378 . S
C342 C343 1.367 . S
C343 C342 1.367 . S
C343 C345 1.433 . S
C344 C340 1.350 . S
C344 C341 1.463 . S
C344 N348 1.427 . S
C345 H335 0.929 . S
C345 C343 1.433 . S
C345 N348 1.384 . S
C346 H337 0.929 . S
C346 C338 1.378 . S
C346 C341 1.350 . S
C347 H334 0.929 . S
C347 C339 1.433 . S
C347 N349 1.384 . S
N348 C344 1.427 . S
N348 C345 1.384 . S
N349 C341 1.427 . S
N349 C347 1.384 . S
H350 C356 0.930 . S
H351 C360 0.930 . S
H352 C365 0.929 . S
H353 C363 0.929 . S
H354 C358 0.929 . S
H355 C364 0.929 . S
C356 H350 0.930 . S
C356 C357 1.367 . S
C356 C364 1.378 . S
C357 C356 1.367 . S
C357 C365 1.433 . S
C358 H354 0.929 . S
C358 C360 1.378 . S
C358 C362 1.350 . S
C359 C362 1.463 . S
C359 C364 1.350 . S
C359 N367 1.427 . S
C360 H351 0.930 . S
C360 C358 1.378 . S
C360 C361 1.367 . S
C361 C360 1.367 . S
C361 C363 1.433 . S
C362 C358 1.350 . S
C362 C359 1.463 . S
C362 N366 1.427 . S
C363 H353 0.929 . S
C363 C361 1.433 . S
C363 N366 1.384 . S
C364 H355 0.929 . S
C364 C356 1.378 . S
C364 C359 1.350 . S
C365 H352 0.929 . S
C365 C357 1.433 . S
C365 N367 1.384 . S
N366 C362 1.427 . S
N366 C363 1.384 . S
N367 C359 1.427 . S
N367 C365 1.384 . S
H368 C374 0.930 . S
H369 C378 0.930 . S
H370 C383 0.929 . S
H371 C381 0.929 . S
H372 C376 0.929 1_565 S
H373 C382 0.929 1_545 S
C374 H368 0.930 . S
C374 C375 1.367 . S
C374 C382 1.378 . S
C375 C374 1.367 . S
C375 C383 1.433 . S
C376 H372 0.929 1_545 S
C376 C378 1.378 . S
C376 C380 1.350 . S
C377 C380 1.463 1_565 S
C377 C382 1.350 . S
C377 N385 1.427 . S
C378 H369 0.930 . S
C378 C376 1.378 . S
C378 C379 1.367 . S
C379 C378 1.367 . S
C379 C381 1.433 . S
C380 C376 1.350 . S
C380 C377 1.463 1_545 S
C380 N384 1.427 . S
C381 H371 0.929 . S
C381 C379 1.433 . S
C381 N384 1.384 . S
C382 H373 0.929 1_565 S
C382 C374 1.378 . S
C382 C377 1.350 . S
C383 H370 0.929 . S
C383 C375 1.433 . S
C383 N385 1.384 . S
N384 C380 1.427 . S
N384 C381 1.384 . S
N385 C377 1.427 . S
N385 C383 1.384 . S
H386 C392 0.930 . S
H387 C396 0.930 . S
H388 C401 0.929 . S
H389 C399 0.929 . S
H390 C394 0.929 . S
H391 C400 0.929 . S
C392 H386 0.930 . S
C392 C393 1.367 . S
C392 C400 1.378 . S
C393 C392 1.367 . S
C393 C401 1.433 . S
C394 H390 0.929 . S
C394 C396 1.378 . S
C394 C398 1.350 . S
C395 C398 1.463 . S
C395 C400 1.350 . S
C395 N403 1.427 . S
C396 H387 0.930 . S
C396 C394 1.378 . S
C396 C397 1.367 . S
C397 C396 1.367 . S
C397 C399 1.433 . S
C398 C394 1.350 . S
C398 C395 1.463 . S
C398 N402 1.427 . S
C399 H389 0.929 . S
C399 C397 1.433 . S
C399 N402 1.384 . S
C400 H391 0.929 . S
C400 C392 1.378 . S
C400 C395 1.350 . S
C401 H388 0.929 . S
C401 C393 1.433 . S
C401 N403 1.384 . S
N402 C398 1.427 . S
N402 C399 1.384 . S
N403 C395 1.427 . S
N403 C401 1.384 . S
H404 C410 0.930 . S
H405 C414 0.930 . S
H406 C419 0.929 . S
H407 C417 0.929 . S
H408 C412 0.929 1_556 S
H409 C418 0.929 1_554 S
C410 H404 0.930 . S
C410 C411 1.367 . S
C410 C418 1.378 . S
C411 C410 1.367 . S
C411 C419 1.433 . S
C412 H408 0.929 1_554 S
C412 C414 1.378 . S
C412 C416 1.350 . S
C413 C416 1.463 1_556 S
C413 C418 1.350 . S
C413 N421 1.427 . S
C414 H405 0.930 . S
C414 C412 1.378 . S
C414 C415 1.367 . S
C415 C414 1.367 . S
C415 C417 1.433 . S
C416 C412 1.350 . S
C416 C413 1.463 1_554 S
C416 N420 1.427 . S
C417 H407 0.929 . S
C417 C415 1.433 . S
C417 N420 1.384 . S
C418 H409 0.929 1_556 S
C418 C410 1.378 . S
C418 C413 1.350 . S
C419 H406 0.929 . S
C419 C411 1.433 . S
C419 N421 1.384 . S
N420 C416 1.427 . S
N420 C417 1.384 . S
N421 C413 1.427 . S
N421 C419 1.384 . S
H422 C428 0.930 . S
H423 C432 0.930 . S
H424 C437 0.929 . S
H425 C435 0.929 . S
H426 C430 0.929 . S
H427 C436 0.929 . S
C428 H422 0.930 . S
C428 C429 1.367 . S
C428 C436 1.378 . S
C429 C428 1.367 . S
C429 C437 1.433 . S
C430 H426 0.929 . S
C430 C432 1.378 . S
C430 C434 1.350 . S
C431 C434 1.463 1_554 S
C431 C436 1.350 . S
C431 N439 1.427 . S
C432 H423 0.930 . S
C432 C430 1.378 . S
C432 C433 1.367 . S
C433 C432 1.367 . S
C433 C435 1.433 . S
C434 C430 1.350 . S
C434 C431 1.463 1_556 S
C434 N438 1.427 . S
C435 H425 0.929 . S
C435 C433 1.433 . S
C435 N438 1.384 . S
C436 H427 0.929 . S
C436 C428 1.378 . S
C436 C431 1.350 . S
C437 H424 0.929 . S
C437 C429 1.433 . S
C437 N439 1.384 . S
N438 C434 1.427 . S
N438 C435 1.384 . S
N439 C431 1.427 . S
N439 C437 1.384 . S
H440 C446 0.930 . S
H441 C450 0.930 . S
H442 C455 0.929 . S
H443 C453 0.929 . S
H444 C448 0.929 . S
H445 C454 0.929 . S
C446 H440 0.930 . S
C446 C447 1.367 . S
C446 C454 1.378 . S
C447 C446 1.367 . S
C447 C455 1.433 . S
C448 H444 0.929 . S
C448 C450 1.378 . S
C448 C452 1.350 . S
C449 C452 1.463 . S
C449 C454 1.350 . S
C449 N457 1.427 . S
C450 H441 0.930 . S
C450 C448 1.378 . S
C450 C451 1.367 . S
C451 C450 1.367 . S
C451 C453 1.433 . S
C452 C448 1.350 . S
C452 C449 1.463 . S
C452 N456 1.427 . S
C453 H443 0.929 . S
C453 C451 1.433 . S
C453 N456 1.384 . S
C454 H445 0.929 . S
C454 C446 1.378 . S
C454 C449 1.350 . S
C455 H442 0.929 . S
C455 C447 1.433 . S
C455 N457 1.384 . S
N456 C452 1.427 . S
N456 C453 1.384 . S
N457 C449 1.427 . S
N457 C455 1.384 . S
H458 C464 0.930 . S
H459 C468 0.930 . S
H460 C473 0.929 . S
H461 C471 0.929 . S
H462 C466 0.929 . S
H463 C472 0.929 . S
C464 H458 0.930 . S
C464 C465 1.367 . S
C464 C472 1.378 . S
C465 C464 1.367 . S
C465 C473 1.433 . S
C466 H462 0.929 . S
C466 C468 1.378 . S
C466 C470 1.350 . S
C467 C470 1.463 . S
C467 C472 1.350 . S
C467 N475 1.427 . S
C468 H459 0.930 . S
C468 C466 1.378 . S
C468 C469 1.367 . S
C469 C468 1.367 . S
C469 C471 1.433 . S
C470 C466 1.350 . S
C470 C467 1.463 . S
C470 N474 1.427 . S
C471 H461 0.929 . S
C471 C469 1.433 . S
C471 N474 1.384 . S
C472 H463 0.929 . S
C472 C464 1.378 . S
C472 C467 1.350 . S
C473 H460 0.929 . S
C473 C465 1.433 . S
C473 N475 1.384 . S
N474 C470 1.427 . S
N474 C471 1.384 . S
N475 C467 1.427 . S
N475 C473 1.384 . S
H476 C482 0.930 . S
H477 C486 0.930 . S
H478 C491 0.929 . S
H479 C489 0.929 . S
H480 C484 0.929 . S
H481 C490 0.929 . S
C482 H476 0.930 . S
C482 C483 1.367 . S
C482 C490 1.378 . S
C483 C482 1.367 . S
C483 C491 1.433 . S
C484 H480 0.929 . S
C484 C486 1.378 . S
C484 C488 1.350 . S
C485 C488 1.463 1_655 S
C485 C490 1.350 . S
C485 N493 1.427 . S
C486 H477 0.930 . S
C486 C484 1.378 . S
C486 C487 1.367 . S
C487 C486 1.367 . S
C487 C489 1.433 . S
C488 C484 1.350 . S
C488 C485 1.463 1_455 S
C488 N492 1.427 . S
C489 H479 0.929 . S
C489 C487 1.433 . S
C489 N492 1.384 . S
C490 H481 0.929 . S
C490 C482 1.378 . S
C490 C485 1.350 . S
C491 H478 0.929 . S
C491 C483 1.433 . S
C491 N493 1.384 . S
N492 C488 1.427 . S
N492 C489 1.384 . S
N493 C485 1.427 . S
N493 C491 1.384 . S
H494 C500 0.930 . S
H495 C504 0.930 . S
H496 C509 0.929 . S
H497 C507 0.929 . S
H498 C502 0.929 . S
H499 C508 0.929 . S
C500 H494 0.930 . S
C500 C501 1.367 . S
C500 C508 1.378 . S
C501 C500 1.367 . S
C501 C509 1.433 . S
C502 H498 0.929 . S
C502 C504 1.378 . S
C502 C506 1.350 . S
C503 C506 1.463 1_655 S
C503 C508 1.350 . S
C503 N511 1.427 . S
C504 H495 0.930 . S
C504 C502 1.378 . S
C504 C505 1.367 . S
C505 C504 1.367 . S
C505 C507 1.433 . S
C506 C502 1.350 . S
C506 C503 1.463 1_455 S
C506 N510 1.427 . S
C507 H497 0.929 . S
C507 C505 1.433 . S
C507 N510 1.384 . S
C508 H499 0.929 . S
C508 C500 1.378 . S
C508 C503 1.350 . S
C509 H496 0.929 . S
C509 C501 1.433 . S
C509 N511 1.384 . S
N510 C506 1.427 . S
N510 C507 1.384 . S
N511 C503 1.427 . S
N511 C509 1.384 . S
H512 C518 0.930 . S
H513 C522 0.930 . S
H514 C527 0.929 . S
H515 C525 0.929 . S
H516 C520 0.929 . S
H517 C526 0.929 . S
C518 H512 0.930 . S
C518 C519 1.367 . S
C518 C526 1.378 . S
C519 C518 1.367 . S
C519 C527 1.433 . S
C520 H516 0.929 . S
C520 C522 1.378 . S
C520 C524 1.350 . S
C521 C524 1.463 . S
C521 C526 1.350 . S
C521 N529 1.427 . S
C522 H513 0.930 . S
C522 C520 1.378 . S
C522 C523 1.367 . S
C523 C522 1.367 . S
C523 C525 1.433 . S
C524 C520 1.350 . S
C524 C521 1.463 . S
C524 N528 1.427 . S
C525 H515 0.929 . S
C525 C523 1.433 . S
C525 N528 1.384 . S
C526 H517 0.929 . S
C526 C518 1.378 . S
C526 C521 1.350 . S
C527 H514 0.929 . S
C527 C519 1.433 . S
C527 N529 1.384 . S
N528 C524 1.427 . S
N528 C525 1.384 . S
N529 C521 1.427 . S
N529 C527 1.384 . S
H530 C536 0.930 . S
H531 C540 0.930 . S
H532 C545 0.929 . S
H533 C543 0.929 . S
H534 C538 0.929 . S
H535 C544 0.929 . S
C536 H530 0.930 . S
C536 C537 1.367 . S
C536 C544 1.378 . S
C537 C536 1.367 . S
C537 C545 1.433 . S
C538 H534 0.929 . S
C538 C540 1.378 . S
C538 C542 1.350 . S
C539 C542 1.463 1_545 S
C539 C544 1.350 . S
C539 N547 1.427 . S
C540 H531 0.930 . S
C540 C538 1.378 . S
C540 C541 1.367 . S
C541 C540 1.367 . S
C541 C543 1.433 . S
C542 C538 1.350 . S
C542 C539 1.463 1_565 S
C542 N546 1.427 . S
C543 H533 0.929 . S
C543 C541 1.433 . S
C543 N546 1.384 . S
C544 H535 0.929 . S
C544 C536 1.378 . S
C544 C539 1.350 . S
C545 H532 0.929 . S
C545 C537 1.433 . S
C545 N547 1.384 . S
N546 C542 1.427 . S
N546 C543 1.384 . S
N547 C539 1.427 . S
N547 C545 1.384 . S
H548 C554 0.930 . S
H549 C558 0.930 . S
H550 C563 0.929 . S
H551 C561 0.929 . S
H552 C556 0.929 . S
H553 C562 0.929 . S
C554 H548 0.930 . S
C554 C555 1.367 . S
C554 C562 1.378 . S
C555 C554 1.367 . S
C555 C563 1.433 . S
C556 H552 0.929 . S
C556 C558 1.378 . S
C556 C560 1.350 . S
C557 C560 1.463 . S
C557 C562 1.350 . S
C557 N565 1.427 . S
C558 H549 0.930 . S
C558 C556 1.378 . S
C558 C559 1.367 . S
C559 C558 1.367 . S
C559 C561 1.433 . S
C560 C556 1.350 . S
C560 C557 1.463 . S
C560 N564 1.427 . S
C561 H551 0.929 . S
C561 C559 1.433 . S
C561 N564 1.384 . S
C562 H553 0.929 . S
C562 C554 1.378 . S
C562 C557 1.350 . S
C563 H550 0.929 . S
C563 C555 1.433 . S
C563 N565 1.384 . S
N564 C560 1.427 . S
N564 C561 1.384 . S
N565 C557 1.427 . S
N565 C563 1.384 . S
H566 C572 0.930 . S
H567 C576 0.930 . S
H568 C581 0.929 . S
H569 C579 0.929 . S
H570 C574 0.929 . S
H571 C580 0.929 . S
C572 H566 0.930 . S
C572 C573 1.367 . S
C572 C580 1.378 . S
C573 C572 1.367 . S
C573 C581 1.433 . S
C574 H570 0.929 . S
C574 C576 1.378 . S
C574 C578 1.350 . S
C575 C578 1.463 1_554 S
C575 C580 1.350 . S
C575 N583 1.427 . S
C576 H567 0.930 . S
C576 C574 1.378 . S
C576 C577 1.367 . S
C577 C576 1.367 . S
C577 C579 1.433 . S
C578 C574 1.350 . S
C578 C575 1.463 1_556 S
C578 N582 1.427 . S
C579 H569 0.929 . S
C579 C577 1.433 . S
C579 N582 1.384 . S
C580 H571 0.929 . S
C580 C572 1.378 . S
C580 C575 1.350 . S
C581 H568 0.929 . S
C581 C573 1.433 . S
C581 N583 1.384 . S
N582 C578 1.427 . S
N582 C579 1.384 . S
N583 C575 1.427 . S
N583 C581 1.384 . S
H584 C590 0.930 . S
H585 C594 0.930 . S
H586 C599 0.929 . S
H587 C597 0.929 . S
H588 C592 0.929 1_556 S
H589 C598 0.929 1_554 S
C590 H584 0.930 . S
C590 C591 1.367 . S
C590 C598 1.378 . S
C591 C590 1.367 . S
C591 C599 1.433 . S
C592 H588 0.929 1_554 S
C592 C594 1.378 . S
C592 C596 1.350 . S
C593 C596 1.463 1_556 S
C593 C598 1.350 . S
C593 N601 1.427 . S
C594 H585 0.930 . S
C594 C592 1.378 . S
C594 C595 1.367 . S
C595 C594 1.367 . S
C595 C597 1.433 . S
C596 C592 1.350 . S
C596 C593 1.463 1_554 S
C596 N600 1.427 . S
C597 H587 0.929 . S
C597 C595 1.433 . S
C597 N600 1.384 . S
C598 H589 0.929 1_556 S
C598 C590 1.378 . S
C598 C593 1.350 . S
C599 H586 0.929 . S
C599 C591 1.433 . S
C599 N601 1.384 . S
N600 C596 1.427 . S
N600 C597 1.384 . S
N601 C593 1.427 . S
N601 C599 1.384 . S
H602 C608 0.930 . S
H603 C612 0.930 . S
H604 C617 0.929 . S
H605 C615 0.929 . S
H606 C610 0.929 . S
H607 C616 0.929 . S
C608 H602 0.930 . S
C608 C609 1.367 . S
C608 C616 1.378 . S
C609 C608 1.367 . S
C609 C617 1.433 . S
C610 H606 0.929 . S
C610 C612 1.378 . S
C610 C614 1.350 . S
C611 C614 1.463 . S
C611 C616 1.350 . S
C611 N619 1.427 . S
C612 H603 0.930 . S
C612 C610 1.378 . S
C612 C613 1.367 . S
C613 C612 1.367 . S
C613 C615 1.433 . S
C614 C610 1.350 . S
C614 C611 1.463 . S
C614 N618 1.427 . S
C615 H605 0.929 . S
C615 C613 1.433 . S
C615 N618 1.384 . S
C616 H607 0.929 . S
C616 C608 1.378 . S
C616 C611 1.350 . S
C617 H604 0.929 . S
C617 C609 1.433 . S
C617 N619 1.384 . S
N618 C614 1.427 . S
N618 C615 1.384 . S
N619 C611 1.427 . S
N619 C617 1.384 . S
H620 C626 0.930 . S
H621 C630 0.930 . S
H622 C635 0.929 . S
H623 C633 0.929 . S
H624 C628 0.929 . S
H625 C634 0.929 . S
C626 H620 0.930 . S
C626 C627 1.367 . S
C626 C634 1.378 . S
C627 C626 1.367 . S
C627 C635 1.433 . S
C628 H624 0.929 . S
C628 C630 1.378 . S
C628 C632 1.350 . S
C629 C632 1.463 . S
C629 C634 1.350 . S
C629 N637 1.427 . S
C630 H621 0.930 . S
C630 C628 1.378 . S
C630 C631 1.367 . S
C631 C630 1.367 . S
C631 C633 1.433 . S
C632 C628 1.350 . S
C632 C629 1.463 . S
C632 N636 1.427 . S
C633 H623 0.929 . S
C633 C631 1.433 . S
C633 N636 1.384 . S
C634 H625 0.929 . S
C634 C626 1.378 . S
C634 C629 1.350 . S
C635 H622 0.929 . S
C635 C627 1.433 . S
C635 N637 1.384 . S
N636 C632 1.427 . S
N636 C633 1.384 . S
N637 C629 1.427 . S
N637 C635 1.384 . S
H638 C644 0.930 . S
H639 C648 0.930 . S
H640 C653 0.929 . S
H641 C651 0.929 . S
H642 C646 0.929 . S
H643 C652 0.929 . S
C644 H638 0.930 . S
C644 C645 1.367 . S
C644 C652 1.378 . S
C645 C644 1.367 . S
C645 C653 1.433 . S
C646 H642 0.929 . S
C646 C648 1.378 . S
C646 C650 1.350 . S
C647 C650 1.463 1_455 S
C647 C652 1.350 . S
C647 N655 1.427 . S
C648 H639 0.930 . S
C648 C646 1.378 . S
C648 C649 1.367 . S
C649 C648 1.367 . S
C649 C651 1.433 . S
C650 C646 1.350 . S
C650 C647 1.463 1_655 S
C650 N654 1.427 . S
C651 H641 0.929 . S
C651 C649 1.433 . S
C651 N654 1.384 . S
C652 H643 0.929 . S
C652 C644 1.378 . S
C652 C647 1.350 . S
C653 H640 0.929 . S
C653 C645 1.433 . S
C653 N655 1.384 . S
N654 C650 1.427 . S
N654 C651 1.384 . S
N655 C647 1.427 . S
N655 C653 1.384 . S
H656 C662 0.930 . S
H657 C666 0.930 . S
H658 C671 0.929 . S
H659 C669 0.929 . S
H660 C664 0.929 . S
H661 C670 0.929 . S
C662 H656 0.930 . S
C662 C663 1.367 . S
C662 C670 1.378 . S
C663 C662 1.367 . S
C663 C671 1.433 . S
C664 H660 0.929 . S
C664 C666 1.378 . S
C664 C668 1.350 . S
C665 C668 1.463 1_455 S
C665 C670 1.350 . S
C665 N673 1.427 . S
C666 H657 0.930 . S
C666 C664 1.378 . S
C666 C667 1.367 . S
C667 C666 1.367 . S
C667 C669 1.433 . S
C668 C664 1.350 . S
C668 C665 1.463 1_655 S
C668 N672 1.427 . S
C669 H659 0.929 . S
C669 C667 1.433 . S
C669 N672 1.384 . S
C670 H661 0.929 . S
C670 C662 1.378 . S
C670 C665 1.350 . S
C671 H658 0.929 . S
C671 C663 1.433 . S
C671 N673 1.384 . S
N672 C668 1.427 . S
N672 C669 1.384 . S
N673 C665 1.427 . S
N673 C671 1.384 . S
H674 C680 0.930 . S
H675 C684 0.930 . S
H676 C689 0.929 . S
H677 C687 0.929 . S
H678 C682 0.929 . S
H679 C688 0.929 . S
C680 H674 0.930 . S
C680 C681 1.367 . S
C680 C688 1.378 . S
C681 C680 1.367 . S
C681 C689 1.433 . S
C682 H678 0.929 . S
C682 C684 1.378 . S
C682 C686 1.350 . S
C683 C686 1.463 . S
C683 C688 1.350 . S
C683 N691 1.427 . S
C684 H675 0.930 . S
C684 C682 1.378 . S
C684 C685 1.367 . S
C685 C684 1.367 . S
C685 C687 1.433 . S
C686 C682 1.350 . S
C686 C683 1.463 . S
C686 N690 1.427 . S
C687 H677 0.929 . S
C687 C685 1.433 . S
C687 N690 1.384 . S
C688 H679 0.929 . S
C688 C680 1.378 . S
C688 C683 1.350 . S
C689 H676 0.929 . S
C689 C681 1.433 . S
C689 N691 1.384 . S
N690 C686 1.427 . S
N690 C687 1.384 . S
N691 C683 1.427 . S
N691 C689 1.384 . S
H692 C698 0.930 . S
H693 C702 0.930 . S
H694 C707 0.929 . S
H695 C705 0.929 . S
H696 C700 0.929 . S
H697 C706 0.929 . S
C698 H692 0.930 . S
C698 C699 1.367 . S
C698 C706 1.378 . S
C699 C698 1.367 . S
C699 C707 1.433 . S
C700 H696 0.929 . S
C700 C702 1.378 . S
C700 C704 1.350 . S
C701 C704 1.463 . S
C701 C706 1.350 . S
C701 N709 1.427 . S
C702 H693 0.930 . S
C702 C700 1.378 . S
C702 C703 1.367 . S
C703 C702 1.367 . S
C703 C705 1.433 . S
C704 C700 1.350 . S
C704 C701 1.463 . S
C704 N708 1.427 . S
C705 H695 0.929 . S
C705 C703 1.433 . S
C705 N708 1.384 . S
C706 H697 0.929 . S
C706 C698 1.378 . S
C706 C701 1.350 . S
C707 H694 0.929 . S
C707 C699 1.433 . S
C707 N709 1.384 . S
N708 C704 1.427 . S
N708 C705 1.384 . S
N709 C701 1.427 . S
N709 C707 1.384 . S
H710 C716 0.930 . S
H711 C720 0.930 . S
H712 C725 0.929 . S
H713 C723 0.929 . S
H714 C718 0.929 1_545 S
H715 C724 0.929 1_565 S
C716 H710 0.930 . S
C716 C717 1.367 . S
C716 C724 1.378 . S
C717 C716 1.367 . S
C717 C725 1.433 . S
C718 H714 0.929 1_565 S
C718 C720 1.378 . S
C718 C722 1.350 . S
C719 C722 1.463 1_545 S
C719 C724 1.350 . S
C719 N727 1.427 . S
C720 H711 0.930 . S
C720 C718 1.378 . S
C720 C721 1.367 . S
C721 C720 1.367 . S
C721 C723 1.433 . S
C722 C718 1.350 . S
C722 C719 1.463 1_565 S
C722 N726 1.427 . S
C723 H713 0.929 . S
C723 C721 1.433 . S
C723 N726 1.384 . S
C724 H715 0.929 1_545 S
C724 C716 1.378 . S
C724 C719 1.350 . S
C725 H712 0.929 . S
C725 C717 1.433 . S
C725 N727 1.384 . S
N726 C722 1.427 . S
N726 C723 1.384 . S
N727 C719 1.427 . S
N727 C725 1.384 . S
H728 C734 0.930 . S
H729 C738 0.930 . S
H730 C743 0.929 . S
H731 C741 0.929 . S
H732 C736 0.929 . S
H733 C742 0.929 . S
C734 H728 0.930 . S
C734 C735 1.367 . S
C734 C742 1.378 . S
C735 C734 1.367 . S
C735 C743 1.433 . S
C736 H732 0.929 . S
C736 C738 1.378 . S
C736 C740 1.350 . S
C737 C740 1.463 . S
C737 C742 1.350 . S
C737 N745 1.427 . S
C738 H729 0.930 . S
C738 C736 1.378 . S
C738 C739 1.367 . S
C739 C738 1.367 . S
C739 C741 1.433 . S
C740 C736 1.350 . S
C740 C737 1.463 . S
C740 N744 1.427 . S
C741 H731 0.929 . S
C741 C739 1.433 . S
C741 N744 1.384 . S
C742 H733 0.929 . S
C742 C734 1.378 . S
C742 C737 1.350 . S
C743 H730 0.929 . S
C743 C735 1.433 . S
C743 N745 1.384 . S
N744 C740 1.427 . S
N744 C741 1.384 . S
N745 C737 1.427 . S
N745 C743 1.384 . S
H746 C752 0.930 . S
H747 C756 0.930 . S
H748 C761 0.929 . S
H749 C759 0.929 . S
H750 C754 0.929 . S
H751 C760 0.929 . S
C752 H746 0.930 . S
C752 C753 1.367 . S
C752 C760 1.378 . S
C753 C752 1.367 . S
C753 C761 1.433 . S
C754 H750 0.929 . S
C754 C756 1.378 . S
C754 C758 1.350 . S
C755 C758 1.463 . S
C755 C760 1.350 . S
C755 N763 1.427 . S
C756 H747 0.930 . S
C756 C754 1.378 . S
C756 C757 1.367 . S
C757 C756 1.367 . S
C757 C759 1.433 . S
C758 C754 1.350 . S
C758 C755 1.463 . S
C758 N762 1.427 . S
C759 H749 0.929 . S
C759 C757 1.433 . S
C759 N762 1.384 . S
C760 H751 0.929 . S
C760 C752 1.378 . S
C760 C755 1.350 . S
C761 H748 0.929 . S
C761 C753 1.433 . S
C761 N763 1.384 . S
N762 C758 1.427 . S
N762 C759 1.384 . S
N763 C755 1.427 . S
N763 C761 1.384 . S
H764 C770 0.930 . S
H765 C774 0.930 . S
H766 C779 0.929 . S
H767 C777 0.929 . S
H768 C772 0.929 . S
H769 C778 0.929 . S
C770 H764 0.930 . S
C770 C771 1.367 . S
C770 C778 1.378 . S
C771 C770 1.367 . S
C771 C779 1.433 . S
C772 H768 0.929 . S
C772 C774 1.378 . S
C772 C776 1.350 . S
C773 C776 1.463 1_545 S
C773 C778 1.350 . S
C773 N781 1.427 . S
C774 H765 0.930 . S
C774 C772 1.378 . S
C774 C775 1.367 . S
C775 C774 1.367 . S
C775 C777 1.433 . S
C776 C772 1.350 . S
C776 C773 1.463 1_565 S
C776 N780 1.427 . S
C777 H767 0.929 . S
C777 C775 1.433 . S
C777 N780 1.384 . S
C778 H769 0.929 . S
C778 C770 1.378 . S
C778 C773 1.350 . S
C779 H766 0.929 . S
C779 C771 1.433 . S
C779 N781 1.384 . S
N780 C776 1.427 . S
N780 C777 1.384 . S
N781 C773 1.427 . S
N781 C779 1.384 . S
H782 C788 0.930 . S
H783 C792 0.930 . S
H784 C797 0.929 . S
H785 C795 0.929 . S
H786 C790 0.929 . S
H787 C796 0.929 . S
C788 H782 0.930 . S
C788 C789 1.367 . S
C788 C796 1.378 . S
C789 C788 1.367 . S
C789 C797 1.433 . S
C790 H786 0.929 . S
C790 C792 1.378 . S
C790 C794 1.350 . S
C791 C794 1.463 . S
C791 C796 1.350 . S
C791 N799 1.427 . S
C792 H783 0.930 . S
C792 C790 1.378 . S
C792 C793 1.367 . S
C793 C792 1.367 . S
C793 C795 1.433 . S
C794 C790 1.350 . S
C794 C791 1.463 . S
C794 N798 1.427 . S
C795 H785 0.929 . S
C795 C793 1.433 . S
C795 N798 1.384 . S
C796 H787 0.929 . S
C796 C788 1.378 . S
C796 C791 1.350 . S
C797 H784 0.929 . S
C797 C789 1.433 . S
C797 N799 1.384 . S
N798 C794 1.427 . S
N798 C795 1.384 . S
N799 C791 1.427 . S
N799 C797 1.384 . S
C231 C9 1.073 . S
C235 C191 1.067 . S
C249 C23 1.074 . S
C253 C135 1.064 . S
C267 C205 1.069 . S
C271 C37 1.075 . S
C285 C51 1.075 . S
C289 C219 1.068 . S
C303 C65 1.072 . S
C307 C93 1.059 . S
C321 C149 1.073 . S
C325 C79 1.065 . S
C339 C163 1.074 . S
C343 C107 1.066 . S
C357 C121 1.062 . S
C361 C177 1.073 . S
C375 C33 1.647 . S
C379 C5 1.648 . S
C393 C19 1.647 . S
C397 C47 1.648 . S
C411 C179 1.749 . S
C415 C11 1.753 . S
C429 C25 1.745 . S
C433 C165 1.745 . S
C447 C67 1.745 . S
C451 C39 1.744 . S
C465 C151 1.744 . S
C469 C53 1.747 . S
C483 C14 1.416 . S
C487 C0 1.408 . S
C501 C42 1.416 . S
C505 C28 1.407 . S
C519 C140 1.415 . S
C523 C56 1.405 . S
C537 C109 1.576 . S
C541 C81 1.576 . S
C555 C95 1.573 . S
C559 C123 1.579 . S
C573 C215 1.815 . S
C577 C75 1.813 . S
C591 C89 1.818 . S
C595 C201 1.817 . S
C609 C131 1.817 . S
C613 C103 1.817 . S
C627 C117 1.818 . S
C631 C187 1.817 . S
C645 C84 1.479 . S
C649 C70 1.475 . S
C663 C112 1.480 . S
C667 C98 1.476 . S
C681 C126 1.472 . S
C685 C182 1.474 . S
C699 C145 1.647 . S
C703 C159 1.644 . S
C717 C173 1.646 . S
C721 C61 1.649 . S
C735 C168 1.416 . S
C739 C154 1.408 . S
C753 C207 1.578 . S
C757 C193 1.574 . S
C771 C137 1.574 . S
C775 C221 1.578 . S
C789 C210 1.474 . S
C793 C196 1.472 . S
